# Generated by pormake.
# Topology ssa, (4,4)-cn, num edge types: 1
# Building blocks:
#     Node 0, Type 0, BuildingBlock: NAWXER_clean_sbu_0, # of connection points: 4
#     Node 1, Type 0, BuildingBlock: NAWXER_clean_sbu_0, # of connection points: 4
#     Node 2, Type 0, BuildingBlock: NAWXER_clean_sbu_0, # of connection points: 4
#     Node 3, Type 0, BuildingBlock: NAWXER_clean_sbu_0, # of connection points: 4
#     Node 4, Type 0, BuildingBlock: NAWXER_clean_sbu_0, # of connection points: 4
#     Node 5, Type 0, BuildingBlock: NAWXER_clean_sbu_0, # of connection points: 4
#     Node 6, Type 1, BuildingBlock: ESEHIV_clean_sbu_0, # of connection points: 4
#     Node 7, Type 1, BuildingBlock: ESEHIV_clean_sbu_0, # of connection points: 4
#     Node 8, Type 1, BuildingBlock: ESEHIV_clean_sbu_0, # of connection points: 4
#     Node 9, Type 1, BuildingBlock: ESEHIV_clean_sbu_0, # of connection points: 4
#     Node 10, Type 1, BuildingBlock: ESEHIV_clean_sbu_0, # of connection points: 4
#     Node 11, Type 1, BuildingBlock: ESEHIV_clean_sbu_0, # of connection points: 4
#     Edge 12, Type (0, 1), BuildingBlock: XIVTED_clean_linker_0, # of connection points: 2
#     Edge 13, Type (0, 1), BuildingBlock: XIVTED_clean_linker_0, # of connection points: 2
#     Edge 14, Type (0, 1), BuildingBlock: XIVTED_clean_linker_0, # of connection points: 2
#     Edge 15, Type (0, 1), BuildingBlock: XIVTED_clean_linker_0, # of connection points: 2
#     Edge 16, Type (0, 1), BuildingBlock: XIVTED_clean_linker_0, # of connection points: 2
#     Edge 17, Type (0, 1), BuildingBlock: XIVTED_clean_linker_0, # of connection points: 2
#     Edge 18, Type (0, 1), BuildingBlock: XIVTED_clean_linker_0, # of connection points: 2
#     Edge 19, Type (0, 1), BuildingBlock: XIVTED_clean_linker_0, # of connection points: 2
#     Edge 20, Type (0, 1), BuildingBlock: XIVTED_clean_linker_0, # of connection points: 2
#     Edge 21, Type (0, 1), BuildingBlock: XIVTED_clean_linker_0, # of connection points: 2
#     Edge 22, Type (0, 1), BuildingBlock: XIVTED_clean_linker_0, # of connection points: 2
#     Edge 23, Type (0, 1), BuildingBlock: XIVTED_clean_linker_0, # of connection points: 2
#     Edge 24, Type (0, 1), BuildingBlock: XIVTED_clean_linker_0, # of connection points: 2
#     Edge 25, Type (0, 1), BuildingBlock: XIVTED_clean_linker_0, # of connection points: 2
#     Edge 26, Type (0, 1), BuildingBlock: XIVTED_clean_linker_0, # of connection points: 2
#     Edge 27, Type (0, 1), BuildingBlock: XIVTED_clean_linker_0, # of connection points: 2
#     Edge 28, Type (0, 1), BuildingBlock: XIVTED_clean_linker_0, # of connection points: 2
#     Edge 29, Type (0, 1), BuildingBlock: XIVTED_clean_linker_0, # of connection points: 2
#     Edge 30, Type (0, 1), BuildingBlock: XIVTED_clean_linker_0, # of connection points: 2
#     Edge 31, Type (0, 1), BuildingBlock: XIVTED_clean_linker_0, # of connection points: 2
#     Edge 32, Type (0, 1), BuildingBlock: XIVTED_clean_linker_0, # of connection points: 2
#     Edge 33, Type (0, 1), BuildingBlock: XIVTED_clean_linker_0, # of connection points: 2
#     Edge 34, Type (0, 1), BuildingBlock: XIVTED_clean_linker_0, # of connection points: 2
#     Edge 35, Type (0, 1), BuildingBlock: XIVTED_clean_linker_0, # of connection points: 2
# Relax obj value: 0.034
# Max RMSD: 0.097
# Mean RMSD: 0.065
data_MOF--net-ssa--node1-NAWXER_clean_sbu_0--node2-ESEHIV_clean_sbu_0--edge1-XIVTED_clean_linker_0
_symmetry_space_group_name_H-M    P1
_symmetry_Int_Tables_number       1
_symmetry_cell_setting            triclinic
loop_
_symmetry_equiv_pos_as_xyz
'x, y, z'
_cell_length_a     47.926214
_cell_length_b     47.924728
_cell_length_c     35.032157
_cell_angle_alpha  90.042817
_cell_angle_beta   89.958968
_cell_angle_gamma 119.67256
loop_
_atom_site_label
_atom_site_type_symbol
_atom_site_fract_x
_atom_site_fract_y
_atom_site_fract_z
_atom_type_partial_charge
C0 C 0.05669 0.60167 0.03008 0.0
C1 C 0.02181 0.49756 0.96917 0.0
O2 O 0.03389 0.57777 0.04751 0.0
Zn3 Zn 1.00465 0.52729 0.04205 0.0
O4 O 0.06699 0.59709 0.99853 0.0
Zn5 Zn 0.03904 0.55053 0.99654 0.0
O6 O 0.99264 0.54445 0.98516 0.0
O7 O 0.96107 0.52115 0.03444 0.0
O8 O 0.04264 0.52475 0.95591 0.0
O9 O 1.00679 0.4961 1.00005 0.0
O10 O 0.01809 0.51321 0.08811 0.0
O11 O 0.05607 0.53539 0.04442 0.0
C12 C 0.96504 0.53301 1.00102 0.0
C13 C 0.04662 0.52189 0.07709 0.0
C14 C 0.53489 0.04063 0.5872 0.0
C15 C 0.54421 0.9629 0.50175 0.0
O16 O 0.52855 0.01227 0.59588 0.0
Zn17 Zn 0.53935 1.00089 0.5462 0.0
O18 O 0.54478 0.05111 0.55338 0.0
Zn19 Zn 0.55611 0.03532 0.50107 0.0
O20 O 0.52618 0.03722 0.46571 0.0
O21 O 0.50273 0.99991 0.50999 0.0
O22 O 0.55253 0.99012 0.48615 0.0
O23 O 0.53531 0.95861 0.53653 0.0
O24 O 0.59017 0.03274 0.54491 0.0
O25 O 0.60151 0.06594 0.49632 0.0
C26 C 0.50074 0.01475 0.48057 0.0
C27 C 0.61079 0.05652 0.52508 0.0
C28 C 0.50138 0.44945 0.98064 0.0
C29 C 0.51399 0.53536 0.0698 0.0
O30 O 0.49192 0.46818 0.96688 0.0
Zn31 Zn 0.48765 0.50892 0.98483 0.0
O32 O 0.51145 0.45359 1.01491 0.0
Zn33 Zn 0.5073 0.49141 0.02707 0.0
O34 O 0.45666 0.47265 0.03093 0.0
O35 O 0.44182 0.49377 0.98471 0.0
O36 O 0.52146 0.51369 0.07614 0.0
O37 O 0.50165 0.53584 0.0375 0.0
O38 O 0.51546 0.54121 0.94821 0.0
O39 O 0.54134 0.5274 0.98947 0.0
C40 C 0.43466 0.47558 1.01374 0.0
C41 C 0.54172 0.54443 0.96106 0.0
C42 C 0.0764 0.58978 0.49106 0.0
C43 C 1.00009 0.49984 0.57296 0.0
O44 O 0.08157 0.58271 0.52433 0.0
Zn45 Zn 0.03892 0.54549 0.53417 0.0
O46 O 0.04834 0.57315 0.47647 0.0
Zn47 Zn 1.0028 0.53269 0.49116 0.0
O48 O 0.97385 0.55016 0.49396 0.0
O49 O 1.00817 0.56542 0.54184 0.0
O50 O 0.98816 0.50237 0.54123 0.0
O51 O 0.02934 0.5198 0.58071 0.0
O52 O 0.03574 0.51107 0.49329 0.0
O53 O 0.99786 0.50222 0.45125 0.0
C54 C 0.98424 0.56526 0.52529 0.0
C55 C 0.01948 0.49646 0.46359 0.0
C56 C 0.57358 0.97795 0.02631 0.0
C57 C 0.50262 1.0051 0.95533 0.0
O58 O 0.57181 1.00164 0.04062 0.0
Zn59 Zn 0.54964 0.02979 0.02812 0.0
O60 O 0.55952 0.96581 0.99488 0.0
Zn61 Zn 0.53978 0.99248 0.98818 0.0
O62 O 0.57915 0.03859 0.97219 0.0
O63 O 0.58552 0.07292 0.01766 0.0
O64 O 0.51027 0.98412 0.94602 0.0
O65 O 0.51552 0.02295 0.98462 0.0
O66 O 0.5232 0.02139 0.07342 0.0
O67 O 0.50791 0.97846 0.03733 0.0
C68 C 0.5941 0.06726 0.98556 0.0
C69 C 0.50426 0.99158 0.0675 0.0
C70 C 0.53415 0.50804 0.59584 0.0
C71 C 0.44557 0.4985 0.51319 0.0
O72 O 0.51339 0.51615 0.60505 0.0
Zn73 Zn 0.48913 0.50358 0.55677 0.0
O74 O 0.5327 0.49609 0.56265 0.0
Zn75 Zn 0.50371 0.48303 0.51192 0.0
O76 O 0.53466 0.51037 0.4741 0.0
O77 O 0.52406 0.53717 0.51773 0.0
O78 O 0.46319 0.48839 0.49784 0.0
O79 O 0.4514 0.50888 0.54738 0.0
O80 O 0.46925 0.45279 0.55967 0.0
O81 O 0.48684 0.43687 0.51074 0.0
C82 C 0.5394 0.53697 0.48781 0.0
C83 C 0.47029 0.43024 0.5412 0.0
Cu84 Cu 0.2262 0.45554 0.28041 0.0
N85 N 0.23522 0.43189 0.24504 0.0
N86 N 0.25757 0.42085 0.19551 0.0
C87 C 0.25601 0.44406 0.21571 0.0
C88 C 0.23696 0.39301 0.21292 0.0
C89 C 0.22313 0.3999 0.24339 0.0
O90 O 0.26425 0.47717 0.31356 0.0
C91 C 0.19453 0.47001 0.22419 0.0
O92 O 0.18702 0.44074 0.21405 0.0
H93 H 0.27017 0.46951 0.20987 0.0
H94 H 0.20558 0.38279 0.263 0.0
N95 N 0.19014 0.42828 0.3091 0.0
N96 N 0.14305 0.41155 0.33824 0.0
C97 C 0.16472 0.43265 0.31347 0.0
C98 C 0.18447 0.40338 0.3318 0.0
C99 C 0.15538 0.39306 0.35004 0.0
C100 C 0.26351 0.4794 0.34985 0.0
O101 O 0.23594 0.47079 0.36675 0.0
H102 H 0.16311 0.45229 0.30051 0.0
H103 H 0.20087 0.39427 0.33595 0.0
O104 O 0.21345 0.48306 0.25247 0.0
H105 H 0.23211 0.36936 0.20421 0.0
H106 H 0.14469 0.37416 0.37116 0.0
Cu107 Cu 0.82326 0.2513 0.77154 0.0
N108 N 0.81834 0.21963 0.73692 0.0
N109 N 0.79784 0.18511 0.68835 0.0
C110 C 0.79757 0.20939 0.70755 0.0
C111 C 0.81972 0.17989 0.70639 0.0
C112 C 0.83246 0.20137 0.7363 0.0
O113 O 0.78224 0.23385 0.79908 0.0
C114 C 0.86478 0.30021 0.72528 0.0
O115 O 0.87751 0.28144 0.72685 0.0
H116 H 0.78169 0.21882 0.70135 0.0
H117 H 0.85034 0.20316 0.75648 0.0
N118 N 0.85617 0.26003 0.80624 0.0
N119 N 0.89978 0.28998 0.84148 0.0
C120 C 0.87939 0.28989 0.81503 0.0
C121 C 0.86171 0.2403 0.82832 0.0
C122 C 0.88866 0.25882 0.85034 0.0
C123 C 0.77988 0.23749 0.83483 0.0
O124 O 0.80553 0.25806 0.85382 0.0
H125 H 0.88061 0.31133 0.80324 0.0
H126 H 0.84691 0.21443 0.82888 0.0
O127 O 0.83806 0.29119 0.74234 0.0
H128 H 0.82585 0.16169 0.69877 0.0
H129 H 0.89905 0.2501 0.87135 0.0
Cu130 Cu 0.5876 0.7794 0.28093 0.0
N131 N 0.61347 0.81068 0.24554 0.0
N132 N 0.62673 0.84756 0.19989 0.0
C133 C 0.60501 0.82982 0.22677 0.0
C134 C 0.64989 0.83943 0.2018 0.0
C135 C 0.64176 0.81679 0.23031 0.0
O136 O 0.56497 0.79746 0.30994 0.0
C137 C 0.5775 0.72754 0.2366 0.0
O138 O 0.60892 0.7435 0.23962 0.0
H139 H 0.58267 0.82977 0.23167 0.0
H140 H 0.65511 0.80503 0.23863 0.0
N141 N 0.61254 0.77087 0.31474 0.0
N142 N 0.6262 0.74149 0.35136 0.0
C143 C 0.60528 0.74115 0.32555 0.0
C144 C 0.63893 0.79096 0.33478 0.0
C145 C 0.64733 0.77278 0.35776 0.0
C146 C 0.55986 0.79374 0.34587 0.0
O147 O 0.5653 0.77291 0.36395 0.0
H148 H 0.58426 0.71958 0.3157 0.0
H149 H 0.65074 0.81688 0.33336 0.0
O150 O 0.56137 0.73923 0.25225 0.0
H151 H 0.67098 0.849 0.18377 0.0
H152 H 0.66713 0.78177 0.37772 0.0
Cu153 Cu 0.78102 0.57631 0.77939 0.0
N154 N 0.80802 0.59829 0.73871 0.0
N155 N 0.84221 0.60968 0.6902 0.0
C156 C 0.83063 0.59302 0.72297 0.0
C157 C 0.82634 0.62609 0.68523 0.0
C158 C 0.80529 0.61904 0.71527 0.0
O159 O 0.8016 0.55683 0.80945 0.0
C160 C 0.71214 0.53427 0.77147 0.0
O161 O 0.71025 0.53537 0.80881 0.0
H162 H 0.83713 0.57596 0.73415 0.0
H163 H 0.78818 0.62734 0.71897 0.0
N164 N 0.77611 0.60592 0.80927 0.0
N165 N 0.75104 0.62776 0.84083 0.0
C166 C 0.74952 0.60857 0.81175 0.0
C167 C 0.7959 0.62522 0.83667 0.0
C168 C 0.78045 0.63861 0.85633 0.0
C169 C 0.79737 0.55091 0.84517 0.0
O170 O 0.77521 0.55446 0.86301 0.0
H171 H 0.72845 0.59477 0.7944 0.0
H172 H 0.81901 0.62766 0.84349 0.0
O173 O 0.73968 0.54691 0.75561 0.0
H174 H 0.82927 0.6415 0.6612 0.0
H175 H 0.78949 0.65361 0.88146 0.0
Cu176 Cu 0.25885 0.8182 0.2748 0.0
N177 N 0.22752 0.813 0.23945 0.0
N178 N 0.19083 0.78944 0.1937 0.0
C179 C 0.20846 0.78546 0.22083 0.0
C180 C 0.19888 0.82063 0.19526 0.0
C181 C 0.22141 0.83512 0.22386 0.0
O182 O 0.24136 0.77722 0.30253 0.0
C183 C 0.31031 0.86071 0.23102 0.0
O184 O 0.29381 0.87572 0.23477 0.0
H185 H 0.20846 0.76319 0.22606 0.0
H186 H 0.23303 0.86015 0.23202 0.0
N187 N 0.26634 0.85059 0.30979 0.0
N188 N 0.29455 0.8926 0.34797 0.0
C189 C 0.29574 0.87352 0.32061 0.0
C190 C 0.24562 0.85505 0.33141 0.0
C191 C 0.26308 0.88098 0.35534 0.0
C192 C 0.24542 0.77507 0.33821 0.0
O193 O 0.26638 0.80077 0.35679 0.0
H194 H 0.31775 0.87536 0.30979 0.0
H195 H 0.21978 0.84 0.33056 0.0
O196 O 0.29923 0.83293 0.24618 0.0
H197 H 0.18927 0.83205 0.17699 0.0
H198 H 0.2535 0.8903 0.37668 0.0
Cu199 Cu 0.46271 0.21248 0.77912 0.0
N200 N 0.43902 0.2165 0.7394 0.0
N201 N 0.42449 0.23808 0.69235 0.0
C202 C 0.43987 0.24327 0.72612 0.0
C203 C 0.41324 0.20679 0.68427 0.0
C204 C 0.42217 0.19355 0.71341 0.0
O205 O 0.47818 0.24914 0.8145 0.0
C206 C 0.50668 0.18837 0.76843 0.0
O207 O 0.50334 0.18208 0.80518 0.0
H208 H 0.4532 0.26655 0.73953 0.0
H209 H 0.41829 0.16932 0.71455 0.0
N210 N 0.43557 0.17564 0.80682 0.0
N211 N 0.41787 0.12695 0.83247 0.0
C212 C 0.43219 0.14625 0.8021 0.0
C213 C 0.42165 0.17467 0.84043 0.0
C214 C 0.4107 0.14475 0.85629 0.0
C215 C 0.49582 0.27876 0.80621 0.0
O216 O 0.508 0.28673 0.77172 0.0
H217 H 0.44243 0.14019 0.77819 0.0
H218 H 0.422 0.19514 0.85395 0.0
O219 O 0.49494 0.20481 0.75413 0.0
H220 H 0.40055 0.1947 0.65851 0.0
H221 H 0.40116 0.138 0.88487 0.0
H222 H 0.10089 0.52293 0.05262 0.0
H223 H 0.16234 0.49877 0.25561 0.0
H224 H 0.045 0.50886 0.15473 0.0
H225 H 0.18724 0.47304 0.14816 0.0
H226 H 0.12623 0.51326 0.22134 0.0
H227 H 0.13933 0.51503 0.08953 0.0
C228 C 0.09665 0.51823 0.08292 0.0
C229 C 0.06943 0.51643 0.10048 0.0
C230 C 0.14 0.50487 0.20535 0.0
C231 C 0.11403 0.50757 0.14329 0.0
C232 C 0.1609 0.49708 0.22477 0.0
C233 C 0.17808 0.48514 0.20452 0.0
C234 C 0.13682 0.50116 0.16546 0.0
C235 C 0.17466 0.48245 0.16475 0.0
C236 C 0.11871 0.51368 0.104 0.0
C237 C 0.06547 0.51021 0.13994 0.0
N238 N 0.15458 0.49046 0.14659 0.0
N239 N 0.0876 0.5061 0.16011 0.0
H240 H 0.65566 0.11931 0.51046 0.0
H241 H 0.77456 0.12193 0.67266 0.0
H242 H 0.64168 0.03551 0.57232 0.0
H243 H 0.77267 0.20637 0.63392 0.0
H244 H 0.73401 0.09009 0.62475 0.0
H245 H 0.70675 0.15132 0.54407 0.0
C246 C 0.66368 0.1075 0.53043 0.0
C247 C 0.64426 0.07479 0.53896 0.0
C248 C 0.74273 0.11566 0.62647 0.0
C249 C 0.70239 0.11119 0.57754 0.0
C250 C 0.76601 0.13387 0.65367 0.0
C251 C 0.7767 0.16678 0.65761 0.0
C252 C 0.73022 0.1305 0.60285 0.0
C253 C 0.7646 0.18095 0.63234 0.0
C254 C 0.69269 0.12582 0.54979 0.0
C255 C 0.65574 0.06075 0.56522 0.0
N256 N 0.74186 0.16271 0.6062 0.0
N257 N 0.68391 0.07907 0.58379 0.0
H258 H 0.55031 0.55088 0.13548 0.0
H259 H 0.52154 0.69727 0.19381 0.0
H260 H 0.49059 0.57721 0.0701 0.0
H261 H 0.59984 0.68565 0.23537 0.0
H262 H 0.50261 0.64757 0.15611 0.0
H263 H 0.56165 0.59468 0.18011 0.0
C264 C 0.53939 0.56567 0.13064 0.0
C265 C 0.51971 0.56046 0.09872 0.0
C266 C 0.52376 0.65583 0.17381 0.0
C267 C 0.53245 0.61064 0.1499 0.0
C268 C 0.5344 0.68402 0.19547 0.0
C269 C 0.56245 0.69574 0.21743 0.0
C270 C 0.54106 0.63911 0.17471 0.0
C271 C 0.57832 0.67772 0.21843 0.0
C272 C 0.54592 0.59074 0.15609 0.0
C273 C 0.50618 0.58048 0.09405 0.0
N274 N 0.56749 0.65047 0.1974 0.0
N275 N 0.51283 0.60465 0.11923 0.0
H276 H 0.99963 0.59617 0.59388 0.0
H277 H 0.84157 0.61125 0.61277 0.0
H278 H 0.9288 0.56538 0.50404 0.0
H279 H 0.89372 0.60372 0.70869 0.0
H280 H 0.87868 0.60543 0.56937 0.0
H281 H 0.9668 0.61106 0.63248 0.0
C282 C 0.97737 0.59293 0.58195 0.0
C283 C 0.96681 0.57912 0.54571 0.0
C284 C 0.88205 0.60525 0.59992 0.0
C285 C 0.92899 0.59613 0.59015 0.0
C286 C 0.86106 0.60875 0.62464 0.0
C287 C 0.86461 0.60787 0.66435 0.0
C288 C 0.90705 0.60144 0.61509 0.0
C289 C 0.89001 0.6042 0.67829 0.0
C290 C 0.95856 0.6013 0.60419 0.0
C291 C 0.9378 0.57577 0.53187 0.0
N292 N 0.9103 0.60121 0.65371 0.0
N293 N 0.91974 0.58402 0.55425 0.0
H294 H 0.48404 0.01184 0.12972 0.0
H295 H 0.34222 0.83603 0.18881 0.0
H296 H 0.46451 0.92613 0.06787 0.0
H297 H 0.3502 0.92488 0.22854 0.0
H298 H 0.39174 0.86732 0.1511 0.0
H299 H 0.43956 0.97899 0.17284 0.0
C300 C 0.47052 0.98611 0.12525 0.0
C301 C 0.47797 0.97185 0.09485 0.0
C302 C 0.38268 0.87986 0.16835 0.0
C303 C 0.42688 0.93389 0.14442 0.0
C304 C 0.3546 0.86201 0.19003 0.0
C305 C 0.34193 0.87787 0.21154 0.0
C306 C 0.39831 0.91369 0.16878 0.0
C307 C 0.35885 0.91162 0.21197 0.0
C308 C 0.44505 0.96732 0.1499 0.0
C309 C 0.45952 0.93827 0.0907 0.0
N310 N 0.38598 0.9283 0.19096 0.0
N311 N 0.43485 0.92046 0.1151 0.0
H312 H 0.43375 0.40963 0.60568 0.0
H313 H 0.42857 0.24056 0.61502 0.0
H314 H 0.47336 0.37704 0.51681 0.0
H315 H 0.42138 0.29073 0.71339 0.0
H316 H 0.43369 0.2844 0.57414 0.0
H317 H 0.41708 0.35975 0.64014 0.0
C318 C 0.43858 0.39181 0.59307 0.0
C319 C 0.45542 0.39779 0.55845 0.0
C320 C 0.43068 0.28562 0.60462 0.0
C321 C 0.43639 0.34051 0.59812 0.0
C322 C 0.42754 0.26056 0.62791 0.0
C323 C 0.42465 0.26214 0.66765 0.0
C324 C 0.43047 0.31218 0.62119 0.0
C325 C 0.42389 0.28878 0.68295 0.0
C326 C 0.42914 0.36336 0.61293 0.0
C327 C 0.46065 0.37356 0.5435 0.0
N328 N 0.4268 0.31276 0.65971 0.0
N329 N 0.45141 0.34603 0.56362 0.0
H330 H 0.55642 0.96342 0.42531 0.0
H331 H 0.54531 0.79096 0.42211 0.0
H332 H 0.53259 0.90281 0.52482 0.0
H333 H 0.55871 0.84781 0.32118 0.0
H334 H 0.53958 0.83076 0.45996 0.0
H335 H 0.55704 0.92117 0.3871 0.0
C336 C 0.55133 0.94123 0.43925 0.0
C337 C 0.54455 0.93688 0.47857 0.0
C338 C 0.54352 0.83444 0.4295 0.0
C339 C 0.54522 0.88797 0.43449 0.0
C340 C 0.54673 0.81163 0.40775 0.0
C341 C 0.55257 0.81592 0.36824 0.0
C342 C 0.54639 0.86205 0.41182 0.0
C343 C 0.55417 0.84332 0.35145 0.0
C344 C 0.5516 0.91699 0.41726 0.0
C345 C 0.538 0.90738 0.49471 0.0
N346 N 0.55135 0.86536 0.37332 0.0
N347 N 0.53862 0.88416 0.47269 0.0
H348 H 0.55403 0.56742 0.88735 0.0
H349 H 0.74245 0.63777 0.91539 0.0
H350 H 0.60043 0.57186 0.99447 0.0
H351 H 0.69677 0.61858 0.80488 0.0
H352 H 0.69211 0.62691 0.94485 0.0
H353 H 0.60718 0.59796 0.85728 0.0
C354 C 0.57537 0.57532 0.90464 0.0
C355 C 0.5729 0.56669 0.94327 0.0
C356 C 0.69318 0.62549 0.91407 0.0
C357 C 0.63343 0.60154 0.90932 0.0
C358 C 0.72212 0.63201 0.89711 0.0
C359 C 0.7238 0.62839 0.85755 0.0
C360 C 0.66561 0.61514 0.89142 0.0
C361 C 0.69638 0.62076 0.83557 0.0
C362 C 0.60564 0.59263 0.88749 0.0
C363 C 0.60125 0.57752 0.96443 0.0
N364 N 0.66826 0.61386 0.85284 0.0
N365 N 0.63027 0.59413 0.94714 0.0
H366 H 0.07432 0.60504 0.41624 0.0
H367 H 0.24913 0.76123 0.41351 0.0
H368 H 0.13791 0.63486 0.51343 0.0
H369 H 0.19061 0.72152 0.31295 0.0
H370 H 0.20933 0.71547 0.45058 0.0
H371 H 0.11657 0.64795 0.37859 0.0
C372 C 0.09716 0.62064 0.4298 0.0
C373 C 0.10237 0.61625 0.4683 0.0
C374 C 0.20531 0.7166 0.42035 0.0
C375 C 0.15127 0.66585 0.42487 0.0
C376 C 0.2281 0.74274 0.39906 0.0
C377 C 0.22332 0.7454 0.35991 0.0
C378 C 0.17722 0.69293 0.40259 0.0
C379 C 0.19548 0.72059 0.34295 0.0
C380 C 0.1214 0.64515 0.40811 0.0
C381 C 0.13269 0.63728 0.48396 0.0
N382 N 0.17345 0.69563 0.3644 0.0
N383 N 0.15589 0.66121 0.46228 0.0
H384 H 0.49654 1.0041 0.87738 0.0
H385 H 0.38544 0.08475 0.88992 0.0
H386 H 0.45806 0.01938 0.98158 0.0
H387 H 0.45261 0.10233 0.79826 0.0
H388 H 0.3975 0.04466 0.91571 0.0
H389 H 0.46631 0.02437 0.84098 0.0
C390 C 0.48103 0.01087 0.89244 0.0
C391 C 0.47997 1.01051 0.93243 0.0
C392 C 0.40918 0.05704 0.8896 0.0
C393 C 0.44549 0.03335 0.89137 0.0
C394 C 0.40245 0.08011 0.87489 0.0
C395 C 0.41892 0.09819 0.8426 0.0
C396 C 0.43232 0.05167 0.87176 0.0
C397 C 0.4397 0.08983 0.82363 0.0
C398 C 0.46398 0.02255 0.87176 0.0
C399 C 0.45977 0.01971 0.95074 0.0
N400 N 0.4462 0.06759 0.83886 0.0
N401 N 0.4435 0.03097 0.9301 0.0
H402 H 0.39633 0.50903 0.53689 0.0
H403 H 0.3219 0.48779 0.32603 0.0
H404 H 0.43494 0.48804 0.43656 0.0
H405 H 0.27117 0.48833 0.42759 0.0
H406 H 0.36683 0.49484 0.36588 0.0
H407 H 0.35329 0.50771 0.49727 0.0
C408 C 0.39586 0.50424 0.50662 0.0
C409 C 0.41929 0.49845 0.49021 0.0
C410 C 0.34595 0.49361 0.37948 0.0
C411 C 0.37025 0.4972 0.44459 0.0
C412 C 0.32029 0.48976 0.35666 0.0
C413 C 0.2925 0.48732 0.37334 0.0
C414 C 0.34409 0.49522 0.41944 0.0
C415 C 0.29198 0.48996 0.41335 0.0
C416 C 0.37126 0.50345 0.484 0.0
C417 C 0.41738 0.49242 0.4507 0.0
N418 N 0.31726 0.49366 0.43498 0.0
N419 N 0.39345 0.492 0.4294 0.0
H420 H 0.02829 0.48799 0.89289 0.0
H421 H 0.92111 0.29715 0.91453 0.0
H422 H 0.99575 0.43803 1.00024 0.0
H423 H 0.93768 0.34725 0.80743 0.0
H424 H 0.95938 0.34778 0.94517 0.0
H425 H 1.00587 0.43591 0.8602 0.0
C426 C 1.01698 0.46612 0.9096 0.0
C427 C 1.01337 0.46725 0.94919 0.0
C428 C 0.95494 0.34762 0.91484 0.0
C429 C 0.98777 0.40788 0.91225 0.0
C430 C 0.93327 0.31868 0.89735 0.0
C431 C 0.92579 0.31817 0.8586 0.0
C432 C 0.96927 0.37616 0.89337 0.0
C433 C 0.94221 0.34681 0.83762 0.0
C434 C 1.00408 0.43644 0.89098 0.0
C435 C 0.99853 0.43822 0.96955 0.0
N436 N 0.9629 0.37472 0.85534 0.0
N437 N 0.98606 0.40976 0.95084 0.0
H438 H 0.90419 0.51825 0.02583 0.0
H439 H 0.85109 0.54982 0.81965 0.0
H440 H 0.9649 0.54813 0.92596 0.0
H441 H 0.79541 0.53676 0.92167 0.0
H442 H 0.89027 0.54336 0.85766 0.0
H443 H 0.86168 0.51972 0.98792 0.0
C444 C 0.90861 0.52505 0.99603 0.0
C445 C 0.93835 0.53324 0.97926 0.0
C446 C 0.86941 0.54175 0.87178 0.0
C447 C 0.8897 0.53471 0.93559 0.0
C448 C 0.84688 0.54529 0.84998 0.0
C449 C 0.81983 0.54396 0.86737 0.0
C450 C 0.86501 0.5367 0.91141 0.0
C451 C 0.81589 0.53807 0.90694 0.0
C452 C 0.88434 0.52591 0.97439 0.0
C453 C 0.94257 0.54182 0.94039 0.0
N454 N 0.83821 0.53477 0.92759 0.0
N455 N 0.91865 0.54228 0.92005 0.0
H456 H 0.44186 0.97805 0.51316 0.0
H457 H 0.35058 0.93559 0.31577 0.0
H458 H 0.48711 0.02676 0.40834 0.0
H459 H 0.3011 0.9065 0.42358 0.0
H460 H 0.4001 0.97228 0.34933 0.0
H461 H 0.38962 0.9547 0.48183 0.0
C462 C 0.44078 0.98411 0.48362 0.0
C463 C 0.46894 1.00406 0.46316 0.0
C464 C 0.37835 0.95833 0.36571 0.0
C465 C 0.40915 0.97714 0.42701 0.0
C466 C 0.35016 0.93736 0.34657 0.0
C467 C 0.32194 0.91787 0.36707 0.0
C468 C 0.37848 0.95937 0.40576 0.0
C469 C 0.32241 0.9212 0.40684 0.0
C470 C 0.4109 0.97085 0.46579 0.0
C471 C 0.46604 0.01137 0.42511 0.0
N472 N 0.35043 0.94115 0.42501 0.0
N473 N 0.4367 0.99749 0.40807 0.0
H474 H 0.49891 0.44616 0.90279 0.0
H475 H 0.48304 0.27307 0.88351 0.0
H476 H 0.50447 0.3953 1.00141 0.0
H477 H 0.51628 0.34225 0.79189 0.0
H478 H 0.48575 0.31461 0.92705 0.0
H479 H 0.49959 0.40537 0.8616 0.0
C480 C 0.50015 0.42633 0.91587 0.0
C481 C 0.50158 0.42424 0.95577 0.0
C482 C 0.49266 0.3207 0.89747 0.0
C483 C 0.50215 0.37702 0.90838 0.0
C484 C 0.4911 0.297 0.87256 0.0
C485 C 0.49949 0.3041 0.83386 0.0
C486 C 0.50205 0.3516 0.88351 0.0
C487 C 0.5097 0.33559 0.82142 0.0
C488 C 0.50072 0.4031 0.89223 0.0
C489 C 0.50339 0.39798 0.97086 0.0
N490 N 0.51037 0.35797 0.84598 0.0
N491 N 0.50336 0.37527 0.9472 0.0
H492 H 0.04123 0.45968 0.49615 0.0
H493 H 0.1059 0.43076 0.30107 0.0
H494 H 1.01592 0.48233 0.38696 0.0
H495 H 0.1183 0.39624 0.40983 0.0
H496 H 0.06682 0.44301 0.33016 0.0
H497 H 0.06294 0.42955 0.46395 0.0
C498 C 0.03989 0.45791 0.46529 0.0
C499 C 0.0272 0.47385 0.44409 0.0
C500 C 0.07764 0.43223 0.34753 0.0
C501 C 0.05258 0.4398 0.40686 0.0
C502 C 0.10005 0.42535 0.33098 0.0
C503 C 0.11582 0.41302 0.35325 0.0
C504 C 0.07119 0.42703 0.38676 0.0
C505 C 0.10684 0.40582 0.39163 0.0
C506 C 0.05224 0.44063 0.44689 0.0
C507 C 0.02564 0.47045 0.40428 0.0
N508 N 0.08553 0.41345 0.40731 0.0
N509 N 0.0388 0.45427 0.38683 0.0
H510 H 0.61135 0.06463 0.91167 0.0
H511 H 0.76499 0.24098 0.90979 0.0
H512 H 0.63698 0.12958 1.00726 0.0
H513 H 0.72695 0.18254 0.80883 0.0
H514 H 0.71892 0.20084 0.94619 0.0
H515 H 0.65432 0.10723 0.87432 0.0
C516 C 0.62604 0.08784 0.92492 0.0
C517 C 0.62048 0.09335 0.96288 0.0
C518 C 0.72049 0.19692 0.91601 0.0
C519 C 0.6701 0.14259 0.91989 0.0
C520 C 0.7468 0.21989 0.89511 0.0
C521 C 0.75002 0.21524 0.85606 0.0
C522 C 0.69724 0.16875 0.89795 0.0
C523 C 0.72557 0.18732 0.83877 0.0
C524 C 0.65055 0.11227 0.90342 0.0
C525 C 0.64032 0.12413 0.9782 0.0
N526 N 0.70047 0.16509 0.85985 0.0
N527 N 0.66431 0.14747 0.95677 0.0
H528 H 0.56744 0.59679 0.51911 0.0
H529 H 0.60863 0.68402 0.31925 0.0
H530 H 0.56052 0.54738 0.41349 0.0
H531 H 0.6374 0.73541 0.4259 0.0
H532 H 0.59525 0.63428 0.35292 0.0
H533 H 0.59719 0.64804 0.486 0.0
C534 C 0.57249 0.59675 0.48896 0.0
C535 C 0.56111 0.56778 0.46887 0.0
C536 C 0.605 0.65647 0.36896 0.0
C537 C 0.59493 0.62646 0.43067 0.0
C538 C 0.61253 0.6848 0.34977 0.0
C539 C 0.62373 0.71366 0.36999 0.0
C540 C 0.60816 0.6569 0.40882 0.0
C541 C 0.62881 0.71361 0.40936 0.0
C542 C 0.5896 0.62605 0.47011 0.0
C543 C 0.56871 0.56916 0.43 0.0
N544 N 0.62043 0.68551 0.42765 0.0
N545 N 0.5847 0.59804 0.412 0.0
H546 H 0.52237 0.03168 0.66479 0.0
H547 H 0.51791 0.19581 0.6912 0.0
H548 H 0.54053 0.09938 0.57395 0.0
H549 H 0.51626 0.13784 0.78631 0.0
H550 H 0.526 0.16036 0.64802 0.0
H551 H 0.51875 0.06914 0.70985 0.0
C552 C 0.52551 0.0543 0.65426 0.0
C553 C 0.53172 0.06225 0.6154 0.0
C554 C 0.52416 0.15551 0.67837 0.0
C555 C 0.52767 0.10531 0.66686 0.0
C556 C 0.51968 0.17589 0.70312 0.0
C557 C 0.51641 0.16995 0.74257 0.0
C558 C 0.52505 0.12861 0.69294 0.0
C559 C 0.51877 0.14355 0.75617 0.0
C560 C 0.52359 0.07576 0.68004 0.0
C561 C 0.53572 0.09207 0.60355 0.0
N562 N 0.52263 0.12373 0.73143 0.0
N563 N 0.53353 0.11232 0.62904 0.0
H564 H 0.40643 0.42307 0.05986 0.0
H565 H 0.28008 0.46865 0.14278 0.0
H566 H 0.39027 0.49581 1.00904 0.0
H567 H 0.28245 0.383 0.175 0.0
H568 H 0.31846 0.47773 0.09159 0.0
H569 H 0.35864 0.40587 0.09918 0.0
C570 C 0.39244 0.43504 0.05649 0.0
C571 C 0.40242 0.46103 0.03132 0.0
C572 C 0.3103 0.45675 0.10959 0.0
C573 C 0.34803 0.44196 0.07697 0.0
C574 C 0.2886 0.45171 0.13902 0.0
C575 C 0.27827 0.4252 0.16349 0.0
C576 C 0.32209 0.43534 0.10485 0.0
C577 C 0.28964 0.40368 0.1568 0.0
C578 C 0.36517 0.42526 0.07902 0.0
C579 C 0.38336 0.47562 0.02803 0.0
N580 N 0.31118 0.40942 0.12844 0.0
N581 N 0.35735 0.46625 0.05112 0.0
H582 H 0.9346 0.46294 0.57258 0.0
H583 H 0.92954 0.33573 0.72158 0.0
H584 H 0.01835 0.47595 0.63371 0.0
H585 H 0.84397 0.33802 0.68891 0.0
H586 H 0.9621 0.38647 0.68855 0.0
H587 H 0.9009 0.41698 0.61338 0.0
C588 C 0.94595 0.45624 0.59471 0.0
C589 C 0.97949 0.47329 0.5995 0.0
C590 C 0.93625 0.37612 0.68875 0.0
C591 C 0.94083 0.42036 0.64625 0.0
C592 C 0.91756 0.34701 0.70747 0.0
C593 C 0.88391 0.33243 0.70771 0.0
C594 C 0.92132 0.39077 0.66933 0.0
C595 C 0.86981 0.34842 0.6894 0.0
C596 C 0.9266 0.43004 0.6181 0.0
C597 C 0.99267 0.46356 0.62889 0.0
N598 N 0.88858 0.37656 0.67046 0.0
N599 N 0.97337 0.43757 0.65082 0.0
H600 H 0.59764 0.99369 0.09842 0.0
H601 H 0.64083 0.85412 0.12431 0.0
H602 H 0.58332 0.92751 1.00682 0.0
H603 H 0.60678 0.88991 0.21545 0.0
H604 H 0.63275 0.88892 0.07912 0.0
H605 H 0.61507 0.96434 0.13959 0.0
C606 C 0.59858 0.97325 0.08668 0.0
C607 C 0.58863 0.96286 0.0491 0.0
C608 C 0.6273 0.88923 0.10907 0.0
C609 C 0.6087 0.92917 0.09642 0.0
C610 C 0.63207 0.86963 0.13477 0.0
C611 C 0.62433 0.86922 0.17349 0.0
C612 C 0.61548 0.90899 0.12253 0.0
C613 C 0.61275 0.88943 0.18575 0.0
C614 C 0.60841 0.95643 0.11037 0.0
C615 C 0.59055 0.93623 0.03566 0.0
N616 N 0.6088 0.9086 0.1604 0.0
N617 N 0.60025 0.92015 0.0594 0.0
H618 H 0.58598 0.50108 0.57949 0.0
H619 H 0.65352 0.52646 0.79345 0.0
H620 H 0.54096 0.52222 0.67329 0.0
H621 H 0.70545 0.52351 0.69427 0.0
H622 H 0.60936 0.51945 0.7518 0.0
H623 H 0.62723 0.50456 0.62272 0.0
C624 C 0.58472 0.50651 0.60925 0.0
C625 C 0.55981 0.51143 0.62263 0.0
C626 C 0.63032 0.52009 0.73923 0.0
C627 C 0.60742 0.51526 0.6728 0.0
C628 C 0.65546 0.52378 0.76301 0.0
C629 C 0.68333 0.52549 0.74741 0.0
C630 C 0.63288 0.51783 0.69952 0.0
C631 C 0.68452 0.52232 0.70767 0.0
C632 C 0.60842 0.5085 0.634 0.0
C633 C 0.55973 0.51841 0.66161 0.0
N634 N 0.65978 0.5187 0.68522 0.0
N635 N 0.5831 0.52003 0.68535 0.0
H636 H 0.0397 0.61687 0.09774 0.0
H637 H 0.18618 0.79502 0.11727 0.0
H638 H 0.1103 0.65833 1.00779 0.0
H639 H 0.14633 0.72893 0.21129 0.0
H640 H 0.15084 0.75155 0.07313 0.0
H641 H 0.07032 0.66521 0.1355 0.0
C642 C 0.06143 0.6363 0.08559 0.0
C643 C 0.07268 0.63324 0.04965 0.0
C644 C 0.14977 0.74678 0.10347 0.0
C645 C 0.10781 0.68888 0.09309 0.0
C646 C 0.16966 0.77146 0.12853 0.0
C647 C 0.169 0.76529 0.16777 0.0
C648 C 0.12865 0.71618 0.11813 0.0
C649 C 0.14756 0.73444 0.18117 0.0
C650 C 0.07893 0.66386 0.10733 0.0
C651 C 0.10088 0.65955 0.03546 0.0
N652 N 0.12811 0.71107 0.15644 0.0
N653 N 0.1177 0.68631 0.05739 0.0
loop_
_geom_bond_atom_site_label_1
_geom_bond_atom_site_label_2
_geom_bond_distance
_geom_bond_site_symmetry_2
_ccdc_geom_bond_type
C0 O2 1.247 . S
C0 O4 1.258 . S
C1 O8 1.247 1_655 S
C1 O9 1.258 . S
O2 C0 1.247 . S
O2 Zn3 2.028 1_455 S
Zn3 O2 2.028 1_655 S
Zn3 O7 2.035 1_554 S
Zn3 O9 2.035 1_554 S
Zn3 O10 2.028 1_655 S
O4 C0 1.258 . S
O4 Zn5 2.035 1_554 S
Zn5 O4 2.035 1_556 S
Zn5 O6 2.028 . S
Zn5 O8 2.028 . S
Zn5 O11 2.035 1_556 S
O6 Zn5 2.028 . S
O6 C12 1.247 1_455 S
O7 Zn3 2.035 1_556 S
O7 C12 1.258 . S
O8 C1 1.247 1_455 S
O8 Zn5 2.028 . S
O9 C1 1.258 . S
O9 Zn3 2.035 1_556 S
O10 Zn3 2.028 1_455 S
O10 C13 1.247 . S
O11 Zn5 2.035 1_554 S
O11 C13 1.258 . S
C12 O6 1.247 1_655 S
C12 O7 1.258 . S
C13 O10 1.247 . S
C13 O11 1.258 . S
C14 O16 1.247 . S
C14 O18 1.258 . S
C15 O22 1.247 1_565 S
C15 O23 1.258 . S
O16 C14 1.247 . S
O16 Zn17 2.028 1_545 S
Zn17 O16 2.028 1_565 S
Zn17 O21 2.035 . S
Zn17 O23 2.035 . S
Zn17 O24 2.028 1_565 S
O18 C14 1.258 . S
O18 Zn19 2.035 . S
Zn19 O18 2.035 . S
Zn19 O20 2.028 . S
Zn19 O22 2.028 . S
Zn19 O25 2.035 . S
O20 Zn19 2.028 . S
O20 C26 1.247 1_545 S
O21 Zn17 2.035 . S
O21 C26 1.258 . S
O22 C15 1.247 1_545 S
O22 Zn19 2.028 . S
O23 C15 1.258 . S
O23 Zn17 2.035 . S
O24 Zn17 2.028 1_545 S
O24 C27 1.247 . S
O25 Zn19 2.035 . S
O25 C27 1.258 . S
C26 O20 1.247 1_565 S
C26 O21 1.258 . S
C27 O24 1.247 . S
C27 O25 1.258 . S
C28 O30 1.247 . S
C28 O32 1.258 . S
C29 O36 1.247 . S
C29 O37 1.258 . S
O30 C28 1.247 . S
O30 Zn31 2.028 . S
Zn31 O30 2.028 . S
Zn31 O35 2.035 1_556 S
Zn31 O37 2.035 1_556 S
Zn31 O38 2.028 . S
O32 C28 1.258 . S
O32 Zn33 2.035 1_556 S
Zn33 O32 2.035 1_554 S
Zn33 O34 2.028 . S
Zn33 O36 2.028 . S
Zn33 O39 2.035 1_554 S
O34 Zn33 2.028 . S
O34 C40 1.247 . S
O35 Zn31 2.035 1_554 S
O35 C40 1.258 . S
O36 C29 1.247 . S
O36 Zn33 2.028 . S
O37 C29 1.258 . S
O37 Zn31 2.035 1_554 S
O38 Zn31 2.028 . S
O38 C41 1.247 . S
O39 Zn33 2.035 1_556 S
O39 C41 1.258 . S
C40 O34 1.247 . S
C40 O35 1.258 . S
C41 O38 1.247 . S
C41 O39 1.258 . S
C42 O44 1.247 . S
C42 O46 1.258 . S
C43 O50 1.247 . S
C43 O51 1.258 . S
O44 C42 1.247 . S
O44 Zn45 2.028 . S
Zn45 O44 2.028 . S
Zn45 O49 2.035 1_455 S
Zn45 O51 2.035 1_455 S
Zn45 O52 2.028 . S
O46 C42 1.258 . S
O46 Zn47 2.035 1_455 S
Zn47 O46 2.035 1_655 S
Zn47 O48 2.028 . S
Zn47 O50 2.028 . S
Zn47 O53 2.035 1_655 S
O48 Zn47 2.028 . S
O48 C54 1.247 . S
O49 Zn45 2.035 1_655 S
O49 C54 1.258 . S
O50 C43 1.247 . S
O50 Zn47 2.028 . S
O51 C43 1.258 . S
O51 Zn45 2.035 1_655 S
O52 Zn45 2.028 . S
O52 C55 1.247 . S
O53 Zn47 2.035 1_455 S
O53 C55 1.258 . S
C54 O48 1.247 . S
C54 O49 1.258 . S
C55 O52 1.247 . S
C55 O53 1.258 . S
C56 O58 1.247 . S
C56 O60 1.258 . S
C57 O64 1.247 . S
C57 O65 1.258 . S
O58 C56 1.247 . S
O58 Zn59 2.028 1_565 S
Zn59 O58 2.028 1_545 S
Zn59 O63 2.035 1_554 S
Zn59 O65 2.035 1_554 S
Zn59 O66 2.028 1_545 S
O60 C56 1.258 . S
O60 Zn61 2.035 1_554 S
Zn61 O60 2.035 1_556 S
Zn61 O62 2.028 1_565 S
Zn61 O64 2.028 1_565 S
Zn61 O67 2.035 1_556 S
O62 Zn61 2.028 1_545 S
O62 C68 1.247 . S
O63 Zn59 2.035 1_556 S
O63 C68 1.258 . S
O64 C57 1.247 . S
O64 Zn61 2.028 1_545 S
O65 C57 1.258 . S
O65 Zn59 2.035 1_556 S
O66 Zn59 2.028 1_565 S
O66 C69 1.247 . S
O67 Zn61 2.035 1_554 S
O67 C69 1.258 . S
C68 O62 1.247 . S
C68 O63 1.258 . S
C69 O66 1.247 . S
C69 O67 1.258 . S
C70 O72 1.247 . S
C70 O74 1.258 . S
C71 O78 1.247 . S
C71 O79 1.258 . S
O72 C70 1.247 . S
O72 Zn73 2.028 . S
Zn73 O72 2.028 . S
Zn73 O77 2.035 . S
Zn73 O79 2.035 . S
Zn73 O80 2.028 . S
O74 C70 1.258 . S
O74 Zn75 2.035 . S
Zn75 O74 2.035 . S
Zn75 O76 2.028 . S
Zn75 O78 2.028 . S
Zn75 O81 2.035 . S
O76 Zn75 2.028 . S
O76 C82 1.247 . S
O77 Zn73 2.035 . S
O77 C82 1.258 . S
O78 C71 1.247 . S
O78 Zn75 2.028 . S
O79 C71 1.258 . S
O79 Zn73 2.035 . S
O80 Zn73 2.028 . S
O80 C83 1.247 . S
O81 Zn75 2.035 . S
O81 C83 1.258 . S
C82 O76 1.247 . S
C82 O77 1.258 . S
C83 O80 1.247 . S
C83 O81 1.258 . S
Cu84 N85 1.999 . S
Cu84 O90 1.974 . S
Cu84 N95 1.985 . S
Cu84 O104 1.959 . S
N85 Cu84 1.999 . S
N85 C87 1.263 . S
N85 C89 1.389 . S
N86 C87 1.358 . S
N86 C88 1.400 . S
C87 N85 1.263 . S
C87 N86 1.358 . S
C87 H93 0.930 . S
C88 N86 1.400 . S
C88 C89 1.351 . S
C88 H105 0.930 . S
C89 N85 1.389 . S
C89 C88 1.351 . S
C89 H94 0.930 . S
O90 Cu84 1.974 . S
O90 C100 1.282 . S
C91 O92 1.261 . S
C91 O104 1.251 . S
O92 C91 1.261 . S
H93 C87 0.930 . S
H94 C89 0.930 . S
N95 Cu84 1.985 . S
N95 C97 1.335 . S
N95 C98 1.390 . S
N96 C97 1.345 . S
N96 C99 1.336 . S
C97 N95 1.335 . S
C97 N96 1.345 . S
C97 H102 0.930 . S
C98 N95 1.390 . S
C98 C99 1.346 . S
C98 H103 0.930 . S
C99 N96 1.336 . S
C99 C98 1.346 . S
C99 H106 0.929 . S
C100 O90 1.282 . S
C100 O101 1.216 . S
O101 C100 1.216 . S
H102 C97 0.930 . S
H103 C98 0.930 . S
O104 Cu84 1.959 . S
O104 C91 1.251 . S
H105 C88 0.930 . S
H106 C99 0.929 . S
Cu107 N108 1.999 . S
Cu107 O113 1.974 . S
Cu107 N118 1.985 . S
Cu107 O127 1.959 . S
N108 Cu107 1.999 . S
N108 C110 1.263 . S
N108 C112 1.389 . S
N109 C110 1.358 . S
N109 C111 1.400 . S
C110 N108 1.263 . S
C110 N109 1.358 . S
C110 H116 0.930 . S
C111 N109 1.400 . S
C111 C112 1.351 . S
C111 H128 0.930 . S
C112 N108 1.389 . S
C112 C111 1.351 . S
C112 H117 0.930 . S
O113 Cu107 1.974 . S
O113 C123 1.282 . S
C114 O115 1.261 . S
C114 O127 1.251 . S
O115 C114 1.261 . S
H116 C110 0.930 . S
H117 C112 0.930 . S
N118 Cu107 1.985 . S
N118 C120 1.335 . S
N118 C121 1.390 . S
N119 C120 1.345 . S
N119 C122 1.336 . S
C120 N118 1.335 . S
C120 N119 1.345 . S
C120 H125 0.930 . S
C121 N118 1.390 . S
C121 C122 1.346 . S
C121 H126 0.930 . S
C122 N119 1.336 . S
C122 C121 1.346 . S
C122 H129 0.929 . S
C123 O113 1.282 . S
C123 O124 1.216 . S
O124 C123 1.216 . S
H125 C120 0.930 . S
H126 C121 0.930 . S
O127 Cu107 1.959 . S
O127 C114 1.251 . S
H128 C111 0.930 . S
H129 C122 0.929 . S
Cu130 N131 1.999 . S
Cu130 O136 1.974 . S
Cu130 N141 1.985 . S
Cu130 O150 1.959 . S
N131 Cu130 1.999 . S
N131 C133 1.263 . S
N131 C135 1.389 . S
N132 C133 1.358 . S
N132 C134 1.400 . S
C133 N131 1.263 . S
C133 N132 1.358 . S
C133 H139 0.930 . S
C134 N132 1.400 . S
C134 C135 1.351 . S
C134 H151 0.930 . S
C135 N131 1.389 . S
C135 C134 1.351 . S
C135 H140 0.930 . S
O136 Cu130 1.974 . S
O136 C146 1.282 . S
C137 O138 1.261 . S
C137 O150 1.251 . S
O138 C137 1.261 . S
H139 C133 0.930 . S
H140 C135 0.930 . S
N141 Cu130 1.985 . S
N141 C143 1.335 . S
N141 C144 1.390 . S
N142 C143 1.345 . S
N142 C145 1.336 . S
C143 N141 1.335 . S
C143 N142 1.345 . S
C143 H148 0.930 . S
C144 N141 1.390 . S
C144 C145 1.346 . S
C144 H149 0.930 . S
C145 N142 1.336 . S
C145 C144 1.346 . S
C145 H152 0.929 . S
C146 O136 1.282 . S
C146 O147 1.216 . S
O147 C146 1.216 . S
H148 C143 0.930 . S
H149 C144 0.930 . S
O150 Cu130 1.959 . S
O150 C137 1.251 . S
H151 C134 0.930 . S
H152 C145 0.929 . S
Cu153 N154 1.999 . S
Cu153 O159 1.974 . S
Cu153 N164 1.985 . S
Cu153 O173 1.959 . S
N154 Cu153 1.999 . S
N154 C156 1.263 . S
N154 C158 1.389 . S
N155 C156 1.358 . S
N155 C157 1.400 . S
C156 N154 1.263 . S
C156 N155 1.358 . S
C156 H162 0.930 . S
C157 N155 1.400 . S
C157 C158 1.351 . S
C157 H174 0.930 . S
C158 N154 1.389 . S
C158 C157 1.351 . S
C158 H163 0.930 . S
O159 Cu153 1.974 . S
O159 C169 1.282 . S
C160 O161 1.261 . S
C160 O173 1.251 . S
O161 C160 1.261 . S
H162 C156 0.930 . S
H163 C158 0.930 . S
N164 Cu153 1.985 . S
N164 C166 1.335 . S
N164 C167 1.390 . S
N165 C166 1.345 . S
N165 C168 1.336 . S
C166 N164 1.335 . S
C166 N165 1.345 . S
C166 H171 0.930 . S
C167 N164 1.390 . S
C167 C168 1.346 . S
C167 H172 0.930 . S
C168 N165 1.336 . S
C168 C167 1.346 . S
C168 H175 0.929 . S
C169 O159 1.282 . S
C169 O170 1.216 . S
O170 C169 1.216 . S
H171 C166 0.930 . S
H172 C167 0.930 . S
O173 Cu153 1.959 . S
O173 C160 1.251 . S
H174 C157 0.930 . S
H175 C168 0.929 . S
Cu176 N177 1.999 . S
Cu176 O182 1.974 . S
Cu176 N187 1.985 . S
Cu176 O196 1.959 . S
N177 Cu176 1.999 . S
N177 C179 1.263 . S
N177 C181 1.389 . S
N178 C179 1.358 . S
N178 C180 1.400 . S
C179 N177 1.263 . S
C179 N178 1.358 . S
C179 H185 0.930 . S
C180 N178 1.400 . S
C180 C181 1.351 . S
C180 H197 0.930 . S
C181 N177 1.389 . S
C181 C180 1.351 . S
C181 H186 0.930 . S
O182 Cu176 1.974 . S
O182 C192 1.282 . S
C183 O184 1.261 . S
C183 O196 1.251 . S
O184 C183 1.261 . S
H185 C179 0.930 . S
H186 C181 0.930 . S
N187 Cu176 1.985 . S
N187 C189 1.335 . S
N187 C190 1.390 . S
N188 C189 1.345 . S
N188 C191 1.336 . S
C189 N187 1.335 . S
C189 N188 1.345 . S
C189 H194 0.930 . S
C190 N187 1.390 . S
C190 C191 1.346 . S
C190 H195 0.930 . S
C191 N188 1.336 . S
C191 C190 1.346 . S
C191 H198 0.929 . S
C192 O182 1.282 . S
C192 O193 1.216 . S
O193 C192 1.216 . S
H194 C189 0.930 . S
H195 C190 0.930 . S
O196 Cu176 1.959 . S
O196 C183 1.251 . S
H197 C180 0.930 . S
H198 C191 0.929 . S
Cu199 N200 1.999 . S
Cu199 O205 1.974 . S
Cu199 N210 1.985 . S
Cu199 O219 1.959 . S
N200 Cu199 1.999 . S
N200 C202 1.263 . S
N200 C204 1.389 . S
N201 C202 1.358 . S
N201 C203 1.400 . S
C202 N200 1.263 . S
C202 N201 1.358 . S
C202 H208 0.930 . S
C203 N201 1.400 . S
C203 C204 1.351 . S
C203 H220 0.930 . S
C204 N200 1.389 . S
C204 C203 1.351 . S
C204 H209 0.930 . S
O205 Cu199 1.974 . S
O205 C215 1.282 . S
C206 O207 1.261 . S
C206 O219 1.251 . S
O207 C206 1.261 . S
H208 C202 0.930 . S
H209 C204 0.930 . S
N210 Cu199 1.985 . S
N210 C212 1.335 . S
N210 C213 1.390 . S
N211 C212 1.345 . S
N211 C214 1.336 . S
C212 N210 1.335 . S
C212 N211 1.345 . S
C212 H217 0.930 . S
C213 N210 1.390 . S
C213 C214 1.346 . S
C213 H218 0.930 . S
C214 N211 1.336 . S
C214 C213 1.346 . S
C214 H221 0.929 . S
C215 O205 1.282 . S
C215 O216 1.216 . S
O216 C215 1.216 . S
H217 C212 0.930 . S
H218 C213 0.930 . S
O219 Cu199 1.959 . S
O219 C206 1.251 . S
H220 C203 0.930 . S
H221 C214 0.929 . S
H222 C228 0.930 . S
H223 C232 0.930 . S
H224 C237 0.929 . S
H225 C235 0.929 . S
H226 C230 0.929 . S
H227 C236 0.929 . S
C228 H222 0.930 . S
C228 C229 1.367 . S
C228 C236 1.378 . S
C229 C228 1.367 . S
C229 C237 1.433 . S
C230 H226 0.929 . S
C230 C232 1.378 . S
C230 C234 1.350 . S
C231 C234 1.463 . S
C231 C236 1.350 . S
C231 N239 1.427 . S
C232 H223 0.930 . S
C232 C230 1.378 . S
C232 C233 1.367 . S
C233 C232 1.367 . S
C233 C235 1.433 . S
C234 C230 1.350 . S
C234 C231 1.463 . S
C234 N238 1.427 . S
C235 H225 0.929 . S
C235 C233 1.433 . S
C235 N238 1.384 . S
C236 H227 0.929 . S
C236 C228 1.378 . S
C236 C231 1.350 . S
C237 H224 0.929 . S
C237 C229 1.433 . S
C237 N239 1.384 . S
N238 C234 1.427 . S
N238 C235 1.384 . S
N239 C231 1.427 . S
N239 C237 1.384 . S
H240 C246 0.930 . S
H241 C250 0.930 . S
H242 C255 0.929 . S
H243 C253 0.929 . S
H244 C248 0.929 . S
H245 C254 0.929 . S
C246 H240 0.930 . S
C246 C247 1.367 . S
C246 C254 1.378 . S
C247 C246 1.367 . S
C247 C255 1.433 . S
C248 H244 0.929 . S
C248 C250 1.378 . S
C248 C252 1.350 . S
C249 C252 1.463 . S
C249 C254 1.350 . S
C249 N257 1.427 . S
C250 H241 0.930 . S
C250 C248 1.378 . S
C250 C251 1.367 . S
C251 C250 1.367 . S
C251 C253 1.433 . S
C252 C248 1.350 . S
C252 C249 1.463 . S
C252 N256 1.427 . S
C253 H243 0.929 . S
C253 C251 1.433 . S
C253 N256 1.384 . S
C254 H245 0.929 . S
C254 C246 1.378 . S
C254 C249 1.350 . S
C255 H242 0.929 . S
C255 C247 1.433 . S
C255 N257 1.384 . S
N256 C252 1.427 . S
N256 C253 1.384 . S
N257 C249 1.427 . S
N257 C255 1.384 . S
H258 C264 0.930 . S
H259 C268 0.930 . S
H260 C273 0.929 . S
H261 C271 0.929 . S
H262 C266 0.929 . S
H263 C272 0.929 . S
C264 H258 0.930 . S
C264 C265 1.367 . S
C264 C272 1.378 . S
C265 C264 1.367 . S
C265 C273 1.433 . S
C266 H262 0.929 . S
C266 C268 1.378 . S
C266 C270 1.350 . S
C267 C270 1.463 . S
C267 C272 1.350 . S
C267 N275 1.427 . S
C268 H259 0.930 . S
C268 C266 1.378 . S
C268 C269 1.367 . S
C269 C268 1.367 . S
C269 C271 1.433 . S
C270 C266 1.350 . S
C270 C267 1.463 . S
C270 N274 1.427 . S
C271 H261 0.929 . S
C271 C269 1.433 . S
C271 N274 1.384 . S
C272 H263 0.929 . S
C272 C264 1.378 . S
C272 C267 1.350 . S
C273 H260 0.929 . S
C273 C265 1.433 . S
C273 N275 1.384 . S
N274 C270 1.427 . S
N274 C271 1.384 . S
N275 C267 1.427 . S
N275 C273 1.384 . S
H276 C282 0.930 . S
H277 C286 0.930 . S
H278 C291 0.929 . S
H279 C289 0.929 . S
H280 C284 0.929 . S
H281 C290 0.929 . S
C282 H276 0.930 . S
C282 C283 1.367 . S
C282 C290 1.378 . S
C283 C282 1.367 . S
C283 C291 1.433 . S
C284 H280 0.929 . S
C284 C286 1.378 . S
C284 C288 1.350 . S
C285 C288 1.463 . S
C285 C290 1.350 . S
C285 N293 1.427 . S
C286 H277 0.930 . S
C286 C284 1.378 . S
C286 C287 1.367 . S
C287 C286 1.367 . S
C287 C289 1.433 . S
C288 C284 1.350 . S
C288 C285 1.463 . S
C288 N292 1.427 . S
C289 H279 0.929 . S
C289 C287 1.433 . S
C289 N292 1.384 . S
C290 H281 0.929 . S
C290 C282 1.378 . S
C290 C285 1.350 . S
C291 H278 0.929 . S
C291 C283 1.433 . S
C291 N293 1.384 . S
N292 C288 1.427 . S
N292 C289 1.384 . S
N293 C285 1.427 . S
N293 C291 1.384 . S
H294 C300 0.930 . S
H295 C304 0.930 . S
H296 C309 0.929 . S
H297 C307 0.929 . S
H298 C302 0.929 . S
H299 C308 0.929 . S
C300 H294 0.930 . S
C300 C301 1.367 . S
C300 C308 1.378 . S
C301 C300 1.367 . S
C301 C309 1.433 . S
C302 H298 0.929 . S
C302 C304 1.378 . S
C302 C306 1.350 . S
C303 C306 1.463 . S
C303 C308 1.350 . S
C303 N311 1.427 . S
C304 H295 0.930 . S
C304 C302 1.378 . S
C304 C305 1.367 . S
C305 C304 1.367 . S
C305 C307 1.433 . S
C306 C302 1.350 . S
C306 C303 1.463 . S
C306 N310 1.427 . S
C307 H297 0.929 . S
C307 C305 1.433 . S
C307 N310 1.384 . S
C308 H299 0.929 . S
C308 C300 1.378 . S
C308 C303 1.350 . S
C309 H296 0.929 . S
C309 C301 1.433 . S
C309 N311 1.384 . S
N310 C306 1.427 . S
N310 C307 1.384 . S
N311 C303 1.427 . S
N311 C309 1.384 . S
H312 C318 0.930 . S
H313 C322 0.930 . S
H314 C327 0.929 . S
H315 C325 0.929 . S
H316 C320 0.929 . S
H317 C326 0.929 . S
C318 H312 0.930 . S
C318 C319 1.367 . S
C318 C326 1.378 . S
C319 C318 1.367 . S
C319 C327 1.433 . S
C320 H316 0.929 . S
C320 C322 1.378 . S
C320 C324 1.350 . S
C321 C324 1.463 . S
C321 C326 1.350 . S
C321 N329 1.427 . S
C322 H313 0.930 . S
C322 C320 1.378 . S
C322 C323 1.367 . S
C323 C322 1.367 . S
C323 C325 1.433 . S
C324 C320 1.350 . S
C324 C321 1.463 . S
C324 N328 1.427 . S
C325 H315 0.929 . S
C325 C323 1.433 . S
C325 N328 1.384 . S
C326 H317 0.929 . S
C326 C318 1.378 . S
C326 C321 1.350 . S
C327 H314 0.929 . S
C327 C319 1.433 . S
C327 N329 1.384 . S
N328 C324 1.427 . S
N328 C325 1.384 . S
N329 C321 1.427 . S
N329 C327 1.384 . S
H330 C336 0.930 . S
H331 C340 0.930 . S
H332 C345 0.929 . S
H333 C343 0.929 . S
H334 C338 0.929 . S
H335 C344 0.929 . S
C336 H330 0.930 . S
C336 C337 1.367 . S
C336 C344 1.378 . S
C337 C336 1.367 . S
C337 C345 1.433 . S
C338 H334 0.929 . S
C338 C340 1.378 . S
C338 C342 1.350 . S
C339 C342 1.463 . S
C339 C344 1.350 . S
C339 N347 1.427 . S
C340 H331 0.930 . S
C340 C338 1.378 . S
C340 C341 1.367 . S
C341 C340 1.367 . S
C341 C343 1.433 . S
C342 C338 1.350 . S
C342 C339 1.463 . S
C342 N346 1.427 . S
C343 H333 0.929 . S
C343 C341 1.433 . S
C343 N346 1.384 . S
C344 H335 0.929 . S
C344 C336 1.378 . S
C344 C339 1.350 . S
C345 H332 0.929 . S
C345 C337 1.433 . S
C345 N347 1.384 . S
N346 C342 1.427 . S
N346 C343 1.384 . S
N347 C339 1.427 . S
N347 C345 1.384 . S
H348 C354 0.930 . S
H349 C358 0.930 . S
H350 C363 0.929 . S
H351 C361 0.929 . S
H352 C356 0.929 . S
H353 C362 0.929 . S
C354 H348 0.930 . S
C354 C355 1.367 . S
C354 C362 1.378 . S
C355 C354 1.367 . S
C355 C363 1.433 . S
C356 H352 0.929 . S
C356 C358 1.378 . S
C356 C360 1.350 . S
C357 C360 1.463 . S
C357 C362 1.350 . S
C357 N365 1.427 . S
C358 H349 0.930 . S
C358 C356 1.378 . S
C358 C359 1.367 . S
C359 C358 1.367 . S
C359 C361 1.433 . S
C360 C356 1.350 . S
C360 C357 1.463 . S
C360 N364 1.427 . S
C361 H351 0.929 . S
C361 C359 1.433 . S
C361 N364 1.384 . S
C362 H353 0.929 . S
C362 C354 1.378 . S
C362 C357 1.350 . S
C363 H350 0.929 . S
C363 C355 1.433 . S
C363 N365 1.384 . S
N364 C360 1.427 . S
N364 C361 1.384 . S
N365 C357 1.427 . S
N365 C363 1.384 . S
H366 C372 0.930 . S
H367 C376 0.930 . S
H368 C381 0.929 . S
H369 C379 0.929 . S
H370 C374 0.929 . S
H371 C380 0.929 . S
C372 H366 0.930 . S
C372 C373 1.367 . S
C372 C380 1.378 . S
C373 C372 1.367 . S
C373 C381 1.433 . S
C374 H370 0.929 . S
C374 C376 1.378 . S
C374 C378 1.350 . S
C375 C378 1.463 . S
C375 C380 1.350 . S
C375 N383 1.427 . S
C376 H367 0.930 . S
C376 C374 1.378 . S
C376 C377 1.367 . S
C377 C376 1.367 . S
C377 C379 1.433 . S
C378 C374 1.350 . S
C378 C375 1.463 . S
C378 N382 1.427 . S
C379 H369 0.929 . S
C379 C377 1.433 . S
C379 N382 1.384 . S
C380 H371 0.929 . S
C380 C372 1.378 . S
C380 C375 1.350 . S
C381 H368 0.929 . S
C381 C373 1.433 . S
C381 N383 1.384 . S
N382 C378 1.427 . S
N382 C379 1.384 . S
N383 C375 1.427 . S
N383 C381 1.384 . S
H384 C390 0.930 . S
H385 C394 0.930 . S
H386 C399 0.929 . S
H387 C397 0.929 . S
H388 C392 0.929 . S
H389 C398 0.929 . S
C390 H384 0.930 . S
C390 C391 1.367 . S
C390 C398 1.378 . S
C391 C390 1.367 . S
C391 C399 1.433 . S
C392 H388 0.929 . S
C392 C394 1.378 . S
C392 C396 1.350 . S
C393 C396 1.463 . S
C393 C398 1.350 . S
C393 N401 1.427 . S
C394 H385 0.930 . S
C394 C392 1.378 . S
C394 C395 1.367 . S
C395 C394 1.367 . S
C395 C397 1.433 . S
C396 C392 1.350 . S
C396 C393 1.463 . S
C396 N400 1.427 . S
C397 H387 0.929 . S
C397 C395 1.433 . S
C397 N400 1.384 . S
C398 H389 0.929 . S
C398 C390 1.378 . S
C398 C393 1.350 . S
C399 H386 0.929 . S
C399 C391 1.433 . S
C399 N401 1.384 . S
N400 C396 1.427 . S
N400 C397 1.384 . S
N401 C393 1.427 . S
N401 C399 1.384 . S
H402 C408 0.930 . S
H403 C412 0.930 . S
H404 C417 0.929 . S
H405 C415 0.929 . S
H406 C410 0.929 . S
H407 C416 0.929 . S
C408 H402 0.930 . S
C408 C409 1.367 . S
C408 C416 1.378 . S
C409 C408 1.367 . S
C409 C417 1.433 . S
C410 H406 0.929 . S
C410 C412 1.378 . S
C410 C414 1.350 . S
C411 C414 1.463 . S
C411 C416 1.350 . S
C411 N419 1.427 . S
C412 H403 0.930 . S
C412 C410 1.378 . S
C412 C413 1.367 . S
C413 C412 1.367 . S
C413 C415 1.433 . S
C414 C410 1.350 . S
C414 C411 1.463 . S
C414 N418 1.427 . S
C415 H405 0.929 . S
C415 C413 1.433 . S
C415 N418 1.384 . S
C416 H407 0.929 . S
C416 C408 1.378 . S
C416 C411 1.350 . S
C417 H404 0.929 . S
C417 C409 1.433 . S
C417 N419 1.384 . S
N418 C414 1.427 . S
N418 C415 1.384 . S
N419 C411 1.427 . S
N419 C417 1.384 . S
H420 C426 0.930 1_455 S
H421 C430 0.930 . S
H422 C435 0.929 . S
H423 C433 0.929 . S
H424 C428 0.929 . S
H425 C434 0.929 . S
C426 H420 0.930 1_655 S
C426 C427 1.367 . S
C426 C434 1.378 . S
C427 C426 1.367 . S
C427 C435 1.433 . S
C428 H424 0.929 . S
C428 C430 1.378 . S
C428 C432 1.350 . S
C429 C432 1.463 . S
C429 C434 1.350 . S
C429 N437 1.427 . S
C430 H421 0.930 . S
C430 C428 1.378 . S
C430 C431 1.367 . S
C431 C430 1.367 . S
C431 C433 1.433 . S
C432 C428 1.350 . S
C432 C429 1.463 . S
C432 N436 1.427 . S
C433 H423 0.929 . S
C433 C431 1.433 . S
C433 N436 1.384 . S
C434 H425 0.929 . S
C434 C426 1.378 . S
C434 C429 1.350 . S
C435 H422 0.929 . S
C435 C427 1.433 . S
C435 N437 1.384 . S
N436 C432 1.427 . S
N436 C433 1.384 . S
N437 C429 1.427 . S
N437 C435 1.384 . S
H438 C444 0.930 . S
H439 C448 0.930 . S
H440 C453 0.929 . S
H441 C451 0.929 . S
H442 C446 0.929 . S
H443 C452 0.929 . S
C444 H438 0.930 . S
C444 C445 1.367 . S
C444 C452 1.378 . S
C445 C444 1.367 . S
C445 C453 1.433 . S
C446 H442 0.929 . S
C446 C448 1.378 . S
C446 C450 1.350 . S
C447 C450 1.463 . S
C447 C452 1.350 . S
C447 N455 1.427 . S
C448 H439 0.930 . S
C448 C446 1.378 . S
C448 C449 1.367 . S
C449 C448 1.367 . S
C449 C451 1.433 . S
C450 C446 1.350 . S
C450 C447 1.463 . S
C450 N454 1.427 . S
C451 H441 0.929 . S
C451 C449 1.433 . S
C451 N454 1.384 . S
C452 H443 0.929 . S
C452 C444 1.378 . S
C452 C447 1.350 . S
C453 H440 0.929 . S
C453 C445 1.433 . S
C453 N455 1.384 . S
N454 C450 1.427 . S
N454 C451 1.384 . S
N455 C447 1.427 . S
N455 C453 1.384 . S
H456 C462 0.930 . S
H457 C466 0.930 . S
H458 C471 0.929 . S
H459 C469 0.929 . S
H460 C464 0.929 . S
H461 C470 0.929 . S
C462 H456 0.930 . S
C462 C463 1.367 . S
C462 C470 1.378 . S
C463 C462 1.367 . S
C463 C471 1.433 . S
C464 H460 0.929 . S
C464 C466 1.378 . S
C464 C468 1.350 . S
C465 C468 1.463 . S
C465 C470 1.350 . S
C465 N473 1.427 . S
C466 H457 0.930 . S
C466 C464 1.378 . S
C466 C467 1.367 . S
C467 C466 1.367 . S
C467 C469 1.433 . S
C468 C464 1.350 . S
C468 C465 1.463 . S
C468 N472 1.427 . S
C469 H459 0.929 . S
C469 C467 1.433 . S
C469 N472 1.384 . S
C470 H461 0.929 . S
C470 C462 1.378 . S
C470 C465 1.350 . S
C471 H458 0.929 . S
C471 C463 1.433 . S
C471 N473 1.384 . S
N472 C468 1.427 . S
N472 C469 1.384 . S
N473 C465 1.427 . S
N473 C471 1.384 . S
H474 C480 0.930 . S
H475 C484 0.930 . S
H476 C489 0.929 . S
H477 C487 0.929 . S
H478 C482 0.929 . S
H479 C488 0.929 . S
C480 H474 0.930 . S
C480 C481 1.367 . S
C480 C488 1.378 . S
C481 C480 1.367 . S
C481 C489 1.433 . S
C482 H478 0.929 . S
C482 C484 1.378 . S
C482 C486 1.350 . S
C483 C486 1.463 . S
C483 C488 1.350 . S
C483 N491 1.427 . S
C484 H475 0.930 . S
C484 C482 1.378 . S
C484 C485 1.367 . S
C485 C484 1.367 . S
C485 C487 1.433 . S
C486 C482 1.350 . S
C486 C483 1.463 . S
C486 N490 1.427 . S
C487 H477 0.929 . S
C487 C485 1.433 . S
C487 N490 1.384 . S
C488 H479 0.929 . S
C488 C480 1.378 . S
C488 C483 1.350 . S
C489 H476 0.929 . S
C489 C481 1.433 . S
C489 N491 1.384 . S
N490 C486 1.427 . S
N490 C487 1.384 . S
N491 C483 1.427 . S
N491 C489 1.384 . S
H492 C498 0.930 . S
H493 C502 0.930 . S
H494 C507 0.929 . S
H495 C505 0.929 . S
H496 C500 0.929 . S
H497 C506 0.929 . S
C498 H492 0.930 . S
C498 C499 1.367 . S
C498 C506 1.378 . S
C499 C498 1.367 . S
C499 C507 1.433 . S
C500 H496 0.929 . S
C500 C502 1.378 . S
C500 C504 1.350 . S
C501 C504 1.463 . S
C501 C506 1.350 . S
C501 N509 1.427 . S
C502 H493 0.930 . S
C502 C500 1.378 . S
C502 C503 1.367 . S
C503 C502 1.367 . S
C503 C505 1.433 . S
C504 C500 1.350 . S
C504 C501 1.463 . S
C504 N508 1.427 . S
C505 H495 0.929 . S
C505 C503 1.433 . S
C505 N508 1.384 . S
C506 H497 0.929 . S
C506 C498 1.378 . S
C506 C501 1.350 . S
C507 H494 0.929 . S
C507 C499 1.433 . S
C507 N509 1.384 . S
N508 C504 1.427 . S
N508 C505 1.384 . S
N509 C501 1.427 . S
N509 C507 1.384 . S
H510 C516 0.930 . S
H511 C520 0.930 . S
H512 C525 0.929 . S
H513 C523 0.929 . S
H514 C518 0.929 . S
H515 C524 0.929 . S
C516 H510 0.930 . S
C516 C517 1.367 . S
C516 C524 1.378 . S
C517 C516 1.367 . S
C517 C525 1.433 . S
C518 H514 0.929 . S
C518 C520 1.378 . S
C518 C522 1.350 . S
C519 C522 1.463 . S
C519 C524 1.350 . S
C519 N527 1.427 . S
C520 H511 0.930 . S
C520 C518 1.378 . S
C520 C521 1.367 . S
C521 C520 1.367 . S
C521 C523 1.433 . S
C522 C518 1.350 . S
C522 C519 1.463 . S
C522 N526 1.427 . S
C523 H513 0.929 . S
C523 C521 1.433 . S
C523 N526 1.384 . S
C524 H515 0.929 . S
C524 C516 1.378 . S
C524 C519 1.350 . S
C525 H512 0.929 . S
C525 C517 1.433 . S
C525 N527 1.384 . S
N526 C522 1.427 . S
N526 C523 1.384 . S
N527 C519 1.427 . S
N527 C525 1.384 . S
H528 C534 0.930 . S
H529 C538 0.930 . S
H530 C543 0.929 . S
H531 C541 0.929 . S
H532 C536 0.929 . S
H533 C542 0.929 . S
C534 H528 0.930 . S
C534 C535 1.367 . S
C534 C542 1.378 . S
C535 C534 1.367 . S
C535 C543 1.433 . S
C536 H532 0.929 . S
C536 C538 1.378 . S
C536 C540 1.350 . S
C537 C540 1.463 . S
C537 C542 1.350 . S
C537 N545 1.427 . S
C538 H529 0.930 . S
C538 C536 1.378 . S
C538 C539 1.367 . S
C539 C538 1.367 . S
C539 C541 1.433 . S
C540 C536 1.350 . S
C540 C537 1.463 . S
C540 N544 1.427 . S
C541 H531 0.929 . S
C541 C539 1.433 . S
C541 N544 1.384 . S
C542 H533 0.929 . S
C542 C534 1.378 . S
C542 C537 1.350 . S
C543 H530 0.929 . S
C543 C535 1.433 . S
C543 N545 1.384 . S
N544 C540 1.427 . S
N544 C541 1.384 . S
N545 C537 1.427 . S
N545 C543 1.384 . S
H546 C552 0.930 . S
H547 C556 0.930 . S
H548 C561 0.929 . S
H549 C559 0.929 . S
H550 C554 0.929 . S
H551 C560 0.929 . S
C552 H546 0.930 . S
C552 C553 1.367 . S
C552 C560 1.378 . S
C553 C552 1.367 . S
C553 C561 1.433 . S
C554 H550 0.929 . S
C554 C556 1.378 . S
C554 C558 1.350 . S
C555 C558 1.463 . S
C555 C560 1.350 . S
C555 N563 1.427 . S
C556 H547 0.930 . S
C556 C554 1.378 . S
C556 C557 1.367 . S
C557 C556 1.367 . S
C557 C559 1.433 . S
C558 C554 1.350 . S
C558 C555 1.463 . S
C558 N562 1.427 . S
C559 H549 0.929 . S
C559 C557 1.433 . S
C559 N562 1.384 . S
C560 H551 0.929 . S
C560 C552 1.378 . S
C560 C555 1.350 . S
C561 H548 0.929 . S
C561 C553 1.433 . S
C561 N563 1.384 . S
N562 C558 1.427 . S
N562 C559 1.384 . S
N563 C555 1.427 . S
N563 C561 1.384 . S
H564 C570 0.930 . S
H565 C574 0.930 . S
H566 C579 0.929 . S
H567 C577 0.929 . S
H568 C572 0.929 . S
H569 C578 0.929 . S
C570 H564 0.930 . S
C570 C571 1.367 . S
C570 C578 1.378 . S
C571 C570 1.367 . S
C571 C579 1.433 . S
C572 H568 0.929 . S
C572 C574 1.378 . S
C572 C576 1.350 . S
C573 C576 1.463 . S
C573 C578 1.350 . S
C573 N581 1.427 . S
C574 H565 0.930 . S
C574 C572 1.378 . S
C574 C575 1.367 . S
C575 C574 1.367 . S
C575 C577 1.433 . S
C576 C572 1.350 . S
C576 C573 1.463 . S
C576 N580 1.427 . S
C577 H567 0.929 . S
C577 C575 1.433 . S
C577 N580 1.384 . S
C578 H569 0.929 . S
C578 C570 1.378 . S
C578 C573 1.350 . S
C579 H566 0.929 . S
C579 C571 1.433 . S
C579 N581 1.384 . S
N580 C576 1.427 . S
N580 C577 1.384 . S
N581 C573 1.427 . S
N581 C579 1.384 . S
H582 C588 0.930 . S
H583 C592 0.930 . S
H584 C597 0.929 . S
H585 C595 0.929 . S
H586 C590 0.929 . S
H587 C596 0.929 . S
C588 H582 0.930 . S
C588 C589 1.367 . S
C588 C596 1.378 . S
C589 C588 1.367 . S
C589 C597 1.433 . S
C590 H586 0.929 . S
C590 C592 1.378 . S
C590 C594 1.350 . S
C591 C594 1.463 . S
C591 C596 1.350 . S
C591 N599 1.427 . S
C592 H583 0.930 . S
C592 C590 1.378 . S
C592 C593 1.367 . S
C593 C592 1.367 . S
C593 C595 1.433 . S
C594 C590 1.350 . S
C594 C591 1.463 . S
C594 N598 1.427 . S
C595 H585 0.929 . S
C595 C593 1.433 . S
C595 N598 1.384 . S
C596 H587 0.929 . S
C596 C588 1.378 . S
C596 C591 1.350 . S
C597 H584 0.929 . S
C597 C589 1.433 . S
C597 N599 1.384 . S
N598 C594 1.427 . S
N598 C595 1.384 . S
N599 C591 1.427 . S
N599 C597 1.384 . S
H600 C606 0.930 . S
H601 C610 0.930 . S
H602 C615 0.929 . S
H603 C613 0.929 . S
H604 C608 0.929 . S
H605 C614 0.929 . S
C606 H600 0.930 . S
C606 C607 1.367 . S
C606 C614 1.378 . S
C607 C606 1.367 . S
C607 C615 1.433 . S
C608 H604 0.929 . S
C608 C610 1.378 . S
C608 C612 1.350 . S
C609 C612 1.463 . S
C609 C614 1.350 . S
C609 N617 1.427 . S
C610 H601 0.930 . S
C610 C608 1.378 . S
C610 C611 1.367 . S
C611 C610 1.367 . S
C611 C613 1.433 . S
C612 C608 1.350 . S
C612 C609 1.463 . S
C612 N616 1.427 . S
C613 H603 0.929 . S
C613 C611 1.433 . S
C613 N616 1.384 . S
C614 H605 0.929 . S
C614 C606 1.378 . S
C614 C609 1.350 . S
C615 H602 0.929 . S
C615 C607 1.433 . S
C615 N617 1.384 . S
N616 C612 1.427 . S
N616 C613 1.384 . S
N617 C609 1.427 . S
N617 C615 1.384 . S
H618 C624 0.930 . S
H619 C628 0.930 . S
H620 C633 0.929 . S
H621 C631 0.929 . S
H622 C626 0.929 . S
H623 C632 0.929 . S
C624 H618 0.930 . S
C624 C625 1.367 . S
C624 C632 1.378 . S
C625 C624 1.367 . S
C625 C633 1.433 . S
C626 H622 0.929 . S
C626 C628 1.378 . S
C626 C630 1.350 . S
C627 C630 1.463 . S
C627 C632 1.350 . S
C627 N635 1.427 . S
C628 H619 0.930 . S
C628 C626 1.378 . S
C628 C629 1.367 . S
C629 C628 1.367 . S
C629 C631 1.433 . S
C630 C626 1.350 . S
C630 C627 1.463 . S
C630 N634 1.427 . S
C631 H621 0.929 . S
C631 C629 1.433 . S
C631 N634 1.384 . S
C632 H623 0.929 . S
C632 C624 1.378 . S
C632 C627 1.350 . S
C633 H620 0.929 . S
C633 C625 1.433 . S
C633 N635 1.384 . S
N634 C630 1.427 . S
N634 C631 1.384 . S
N635 C627 1.427 . S
N635 C633 1.384 . S
H636 C642 0.930 . S
H637 C646 0.930 . S
H638 C651 0.929 . S
H639 C649 0.929 . S
H640 C644 0.929 . S
H641 C650 0.929 . S
C642 H636 0.930 . S
C642 C643 1.367 . S
C642 C650 1.378 . S
C643 C642 1.367 . S
C643 C651 1.433 . S
C644 H640 0.929 . S
C644 C646 1.378 . S
C644 C648 1.350 . S
C645 C648 1.463 . S
C645 C650 1.350 . S
C645 N653 1.427 . S
C646 H637 0.930 . S
C646 C644 1.378 . S
C646 C647 1.367 . S
C647 C646 1.367 . S
C647 C649 1.433 . S
C648 C644 1.350 . S
C648 C645 1.463 . S
C648 N652 1.427 . S
C649 H639 0.929 . S
C649 C647 1.433 . S
C649 N652 1.384 . S
C650 H641 0.929 . S
C650 C642 1.378 . S
C650 C645 1.350 . S
C651 H638 0.929 . S
C651 C643 1.433 . S
C651 N653 1.384 . S
N652 C648 1.427 . S
N652 C649 1.384 . S
N653 C645 1.427 . S
N653 C651 1.384 . S
C229 C13 2.074 . S
C233 C91 2.038 . S
C247 C27 1.434 . S
C251 N109 1.428 . S
C269 C137 2.039 . S
C265 C29 2.075 . S
C287 N155 1.422 . S
C283 C54 1.433 . S
C305 C183 2.041 . S
C301 C69 2.076 . S
C323 N201 1.421 . S
C319 C83 1.432 . S
C337 C15 2.070 . S
C341 C146 2.063 . S
C355 C41 1.434 . S
C359 N165 1.354 . S
C377 C192 2.063 . S
C373 C42 2.070 . S
C395 N211 1.354 . S
C391 C57 1.434 . S
C409 C71 2.066 . S
C413 C100 2.060 . S
C431 N119 1.341 . S
C427 C1 1.427 . S
C449 C169 1.879 . S
C445 C12 1.936 . S
C463 C26 1.278 . S
C467 N188 1.258 . S
C485 C215 1.875 . S
C481 C28 1.936 . S
C499 C55 1.279 . S
C503 N96 1.260 . S
C517 C68 1.934 . S
C521 C123 1.869 . S
C535 C82 1.278 . S
C539 N142 1.259 . S
C553 C14 1.946 . S
C557 C206 1.922 . S
C575 N86 1.178 . S
C571 C40 1.276 . S
C589 C43 1.946 . S
C593 C114 1.923 . S
C607 C56 1.278 . S
C611 N132 1.182 . S
C625 C70 1.945 . S
C629 C160 1.921 . S
C643 C0 1.279 . S
C647 N178 1.187 . S
