# Generated by pormake.
# Topology hwx, (6,3)-cn, num edge types: 1
# Building blocks:
#     Node 0, Type 0, BuildingBlock: IZENUY_clean_sbu_0, # of connection points: 6
#     Node 1, Type 0, BuildingBlock: IZENUY_clean_sbu_0, # of connection points: 6
#     Node 2, Type 0, BuildingBlock: IZENUY_clean_sbu_0, # of connection points: 6
#     Node 3, Type 0, BuildingBlock: IZENUY_clean_sbu_0, # of connection points: 6
#     Node 4, Type 1, BuildingBlock: OLANEW_clean_sbu_2, # of connection points: 3
#     Node 5, Type 1, BuildingBlock: OLANEW_clean_sbu_2, # of connection points: 3
#     Node 6, Type 1, BuildingBlock: OLANEW_clean_sbu_2, # of connection points: 3
#     Node 7, Type 1, BuildingBlock: OLANEW_clean_sbu_2, # of connection points: 3
#     Node 8, Type 1, BuildingBlock: OLANEW_clean_sbu_2, # of connection points: 3
#     Node 9, Type 1, BuildingBlock: OLANEW_clean_sbu_2, # of connection points: 3
#     Node 10, Type 1, BuildingBlock: OLANEW_clean_sbu_2, # of connection points: 3
#     Node 11, Type 1, BuildingBlock: OLANEW_clean_sbu_2, # of connection points: 3
#     Edge 12, Type (0, 1), BuildingBlock: TEMPAE_clean_linker_10, # of connection points: 2
#     Edge 13, Type (0, 1), BuildingBlock: TEMPAE_clean_linker_10, # of connection points: 2
#     Edge 14, Type (0, 1), BuildingBlock: TEMPAE_clean_linker_10, # of connection points: 2
#     Edge 15, Type (0, 1), BuildingBlock: TEMPAE_clean_linker_10, # of connection points: 2
#     Edge 16, Type (0, 1), BuildingBlock: TEMPAE_clean_linker_10, # of connection points: 2
#     Edge 17, Type (0, 1), BuildingBlock: TEMPAE_clean_linker_10, # of connection points: 2
#     Edge 18, Type (0, 1), BuildingBlock: TEMPAE_clean_linker_10, # of connection points: 2
#     Edge 19, Type (0, 1), BuildingBlock: TEMPAE_clean_linker_10, # of connection points: 2
#     Edge 20, Type (0, 1), BuildingBlock: TEMPAE_clean_linker_10, # of connection points: 2
#     Edge 21, Type (0, 1), BuildingBlock: TEMPAE_clean_linker_10, # of connection points: 2
#     Edge 22, Type (0, 1), BuildingBlock: TEMPAE_clean_linker_10, # of connection points: 2
#     Edge 23, Type (0, 1), BuildingBlock: TEMPAE_clean_linker_10, # of connection points: 2
#     Edge 24, Type (0, 1), BuildingBlock: TEMPAE_clean_linker_10, # of connection points: 2
#     Edge 25, Type (0, 1), BuildingBlock: TEMPAE_clean_linker_10, # of connection points: 2
#     Edge 26, Type (0, 1), BuildingBlock: TEMPAE_clean_linker_10, # of connection points: 2
#     Edge 27, Type (0, 1), BuildingBlock: TEMPAE_clean_linker_10, # of connection points: 2
#     Edge 28, Type (0, 1), BuildingBlock: TEMPAE_clean_linker_10, # of connection points: 2
#     Edge 29, Type (0, 1), BuildingBlock: TEMPAE_clean_linker_10, # of connection points: 2
#     Edge 30, Type (0, 1), BuildingBlock: TEMPAE_clean_linker_10, # of connection points: 2
#     Edge 31, Type (0, 1), BuildingBlock: TEMPAE_clean_linker_10, # of connection points: 2
#     Edge 32, Type (0, 1), BuildingBlock: TEMPAE_clean_linker_10, # of connection points: 2
#     Edge 33, Type (0, 1), BuildingBlock: TEMPAE_clean_linker_10, # of connection points: 2
#     Edge 34, Type (0, 1), BuildingBlock: TEMPAE_clean_linker_10, # of connection points: 2
#     Edge 35, Type (0, 1), BuildingBlock: TEMPAE_clean_linker_10, # of connection points: 2
# Relax obj value: 0.014
# Max RMSD: 0.068
# Mean RMSD: 0.060
data_MOF--net-hwx--node1-IZENUY_clean_sbu_0--node2-OLANEW_clean_sbu_2--edge1-TEMPAE_clean_linker_10
_symmetry_space_group_name_H-M    P1
_symmetry_Int_Tables_number       1
_symmetry_cell_setting            triclinic
loop_
_symmetry_equiv_pos_as_xyz
'x, y, z'
_cell_length_a     54.490829
_cell_length_b     54.504792
_cell_length_c     22.612105
_cell_angle_alpha  85.570254
_cell_angle_beta   94.459734
_cell_angle_gamma 90.156424
loop_
_atom_site_label
_atom_site_type_symbol
_atom_site_fract_x
_atom_site_fract_y
_atom_site_fract_z
_atom_type_partial_charge
Fe0 Fe 0.24132 0.22226 0.08015 0.0
Fe1 Fe 0.23227 0.22158 0.94453 0.0
O2 O 0.22724 0.20896 0.01714 0.0
Fe3 Fe 0.20831 0.18277 0.02692 0.0
O4 O 0.18718 0.1994 0.06766 0.0
O5 O 0.21611 0.2145 0.12751 0.0
O6 O 0.22584 0.25139 0.05895 0.0
C7 C 0.22712 0.2636 0.00951 0.0
C8 C 0.24741 0.17336 0.11499 0.0
O9 O 0.23442 0.25357 0.96519 0.0
C10 C 0.23469 0.1702 0.93577 0.0
O11 O 0.26906 0.23244 0.04433 0.0
O12 O 0.26522 0.21688 0.95745 0.0
O13 O 0.2253 0.17022 0.09565 0.0
O14 O 0.25775 0.19387 0.10526 0.0
C15 C 0.18342 0.2105 0.92905 0.0
O16 O 0.23114 0.19176 0.91131 0.0
O17 O 0.22845 0.16461 0.98758 0.0
C18 C 0.27856 0.22495 -0.00034 0.0
O19 O 0.1996 0.22706 0.92633 0.0
O20 O 0.1879 0.19033 0.95962 0.0
C21 C 0.19369 0.20947 0.11483 0.0
Fe22 Fe 0.27288 0.72645 0.60214 0.0
Fe23 Fe 0.3026 0.6901 0.53944 0.0
O24 O 0.28167 0.71506 0.53568 0.0
Fe25 Fe 0.26959 0.72861 0.46586 0.0
O26 O 0.2681 0.75991 0.49078 0.0
O27 O 0.28544 0.75651 0.58221 0.0
O28 O 0.30239 0.71921 0.64506 0.0
C29 C 0.32366 0.71642 0.62752 0.0
C30 C 0.22852 0.72878 0.52782 0.0
O31 O 0.32626 0.70736 0.5788 0.0
C32 C 0.26967 0.67739 0.44979 0.0
O33 O 0.25981 0.69699 0.62551 0.0
O34 O 0.29205 0.67522 0.60878 0.0
O35 O 0.23824 0.72182 0.48313 0.0
O36 O 0.24177 0.73583 0.57178 0.0
C37 C 0.31741 0.72124 0.44239 0.0
O38 O 0.28033 0.67138 0.50026 0.0
O39 O 0.2691 0.69967 0.42874 0.0
C40 C 0.27154 0.67692 0.63111 0.0
O41 O 0.31684 0.70029 0.47067 0.0
O42 O 0.30005 0.73638 0.44365 0.0
C43 C 0.27952 0.7694 0.53444 0.0
Fe44 Fe 0.76746 0.79602 0.9546 0.0
Fe45 Fe 0.77135 0.7936 0.09135 0.0
O46 O 0.77929 0.80763 0.02218 0.0
Fe47 Fe 0.79919 0.83338 0.02089 0.0
O48 O 0.77585 0.85263 0.97942 0.0
O49 O 0.76548 0.82644 0.91256 0.0
O50 O 0.73588 0.8007 0.97161 0.0
C51 C 0.72669 0.79195 0.0182 0.0
C52 C 0.81497 0.80616 0.9297 0.0
O53 O 0.74038 0.78443 0.06378 0.0
C54 C 0.82201 0.80455 0.11253 0.0
O55 O 0.76745 0.76364 0.98489 0.0
O56 O 0.78436 0.76444 0.07642 0.0
O57 O 0.81329 0.82633 0.95323 0.0
O58 O 0.79812 0.79035 0.9327 0.0
C59 C 0.76897 0.842 0.11339 0.0
O60 O 0.80106 0.8001 0.13167 0.0
O61 O 0.82377 0.81565 0.06209 0.0
C62 C 0.77851 0.75289 0.03121 0.0
O63 O 0.75764 0.82188 0.11076 0.0
O64 O 0.78888 0.84533 0.08859 0.0
C65 C 0.7652 0.84804 0.93002 0.0
Fe66 Fe 0.69349 0.33135 0.48869 0.0
Fe67 Fe 0.72125 0.29122 0.56906 0.0
O68 O 0.71209 0.30457 0.49714 0.0
Fe69 Fe 0.7215 0.29137 0.43354 0.0
O70 O 0.73731 0.31944 0.41011 0.0
O71 O 0.70618 0.34383 0.41975 0.0
O72 O 0.71696 0.34862 0.5284 0.0
C73 C 0.72604 0.3424 0.58034 0.0
C74 C 0.67185 0.30505 0.40148 0.0
O75 O 0.7232 0.32075 0.60366 0.0
C76 C 0.71061 0.24986 0.50227 0.0
O77 O 0.67736 0.32396 0.55618 0.0
O78 O 0.68958 0.28644 0.58598 0.0
O79 O 0.69321 0.3002 0.38668 0.0
O80 O 0.66912 0.31543 0.44848 0.0
C81 C 0.76381 0.28622 0.51522 0.0
O82 O 0.72103 0.25938 0.54709 0.0
O83 O 0.70644 0.2625 0.45336 0.0
C84 C 0.67386 0.30342 0.58437 0.0
O85 O 0.7535 0.29506 0.55682 0.0
O86 O 0.75124 0.28001 0.46924 0.0
C87 C 0.72706 0.34026 0.40093 0.0
O88 O 0.20082 0.52413 0.90639 0.0
Cd89 Cd 0.18436 0.49707 0.98563 0.0
O90 O 0.21532 0.54874 0.9734 0.0
Cd91 Cd 0.20311 0.53008 0.0546 0.0
O92 O 0.20709 0.54349 0.14318 0.0
C93 C 0.22861 0.55122 0.15731 0.0
O94 O 0.24591 0.54824 0.12109 0.0
C95 C 0.2124 0.54353 0.9195 0.0
C96 C 0.19472 0.44692 0.98327 0.0
O97 O 0.17496 0.4564 0.95659 0.0
O98 O 0.2098 0.46125 0.01001 0.0
O99 O 0.97034 0.7634 0.44559 0.0
Cd100 Cd 0.9944 0.75765 0.54173 0.0
O101 O 0.96529 0.80285 0.45537 0.0
Cd102 Cd 0.97732 0.80065 0.54975 0.0
O103 O 0.95718 0.80493 0.62799 0.0
C104 C 0.95377 0.78753 0.6672 0.0
O105 O 0.96464 0.76622 0.66426 0.0
C106 C 0.96236 0.78443 0.42433 0.0
C107 C 0.04458 0.75043 0.53127 0.0
O108 O 0.0355 0.77214 0.53044 0.0
O109 O 0.02988 0.73213 0.53655 0.0
O110 O 0.79912 0.49017 0.12027 0.0
Cd111 Cd 0.81012 0.51851 0.03673 0.0
O112 O 0.7915 0.46228 0.05601 0.0
Cd113 Cd 0.79855 0.48313 0.973 0.0
O114 O 0.78938 0.47476 0.88137 0.0
C115 C 0.80315 0.45992 0.85843 0.0
O116 O 0.82395 0.45275 0.88795 0.0
C117 C 0.79247 0.46849 0.10918 0.0
C118 C 0.80308 0.56875 0.04663 0.0
O119 O 0.78523 0.55504 0.0291 0.0
O120 O 0.82411 0.55859 0.0611 0.0
O121 O 0.00821 0.1995 0.69335 0.0
Cd122 Cd 0.97449 0.18383 0.62946 0.0
O123 O 0.02501 0.20749 0.60954 0.0
Cd124 Cd 0.05268 0.21924 0.54851 0.0
O125 O 0.07482 0.22414 0.47225 0.0
C126 C 0.08463 0.20511 0.45488 0.0
O127 O 0.08154 0.18375 0.48444 0.0
C128 C 0.02666 0.20697 0.66605 0.0
C129 C 0.93216 0.21273 0.61259 0.0
O130 O 0.93457 0.19538 0.6543 0.0
O131 O 0.95011 0.21684 0.5798 0.0
O132 O 0.68865 0.99055 0.60868 0.0
Cd133 Cd 0.67439 0.01526 0.51713 0.0
O134 O 0.72529 0.98526 0.57712 0.0
Cd135 Cd 0.71542 0.9988 0.48515 0.0
O136 O 0.71799 0.9798 0.4043 0.0
C137 C 0.72806 0.95877 0.41552 0.0
O138 O 0.73519 0.9517 0.47108 0.0
C139 C 0.71049 0.98213 0.61778 0.0
C140 C 0.68253 0.06593 0.51994 0.0
O141 O 0.66255 0.05614 0.53674 0.0
O142 O 0.69881 0.05171 0.50274 0.0
O143 O 0.53407 0.2572 0.07125 0.0
Cd144 Cd 0.5132 0.24686 0.97644 0.0
O145 O 0.52466 0.2966 0.06075 0.0
Cd146 Cd 0.5108 0.29357 0.96889 0.0
O147 O 0.52849 0.29174 0.88638 0.0
C148 C 0.55178 0.2922 0.89565 0.0
O149 O 0.56136 0.29332 0.95055 0.0
C150 C 0.53477 0.27834 0.09162 0.0
C151 C 0.46239 0.24141 0.98022 0.0
O152 O 0.47702 0.22319 0.9948 0.0
O153 O 0.47183 0.2622 0.96419 0.0
O154 O 0.32478 0.02708 0.42751 0.0
Cd155 Cd 0.33794 0.99914 0.5144 0.0
O156 O 0.30462 0.04946 0.48465 0.0
Cd157 Cd 0.31108 0.02843 0.5703 0.0
O158 O 0.30026 0.03763 0.65666 0.0
C159 C 0.3129 0.05367 0.68326 0.0
O160 O 0.33338 0.06156 0.6613 0.0
C161 C 0.31159 0.04579 0.43373 0.0
C162 C 0.32279 0.95022 0.50939 0.0
O163 O 0.30931 0.96616 0.53048 0.0
O164 O 0.34318 0.95756 0.48947 0.0
O165 O 0.47309 0.7313 0.96031 0.0
Cd166 Cd 0.49863 0.73493 0.05316 0.0
O167 O 0.46037 0.76971 0.95404 0.0
Cd168 Cd 0.47264 0.77347 0.04702 0.0
O169 O 0.45601 0.76641 0.13154 0.0
C170 C 0.43672 0.75329 0.12686 0.0
O171 O 0.42991 0.74525 0.07477 0.0
C172 C 0.46115 0.74904 0.93171 0.0
C173 C 0.54686 0.74949 0.03469 0.0
O174 O 0.54073 0.72673 0.03726 0.0
O175 O 0.53011 0.76542 0.04038 0.0
C176 C 0.18412 0.21924 0.2167 0.0
C177 C 0.17589 0.2118 0.16047 0.0
C178 C 0.16828 0.21938 0.26258 0.0
C179 C 0.14348 0.21216 0.25195 0.0
C180 C 0.13472 0.20562 0.19468 0.0
C181 C 0.15106 0.20544 0.1496 0.0
C182 C 0.17836 0.22638 0.3231 0.0
C183 C 0.10829 0.19811 0.18157 0.0
C184 C 0.11222 0.18636 0.38736 0.0
C185 C 0.0991 0.20686 0.40195 0.0
C186 C 0.12635 0.18773 0.33795 0.0
C187 C 0.12723 0.21011 0.30195 0.0
C188 C 0.11366 0.23074 0.3157 0.0
C189 C 0.09984 0.22891 0.36573 0.0
C190 C 0.14075 0.16538 0.32502 0.0
C191 C 0.11403 0.25484 0.27804 0.0
H192 H 0.20322 0.22431 0.22561 0.0
H193 H 0.14448 0.19984 0.10621 0.0
H194 H 0.16703 0.24126 0.33808 0.0
H195 H 0.17742 0.21032 0.35612 0.0
H196 H 0.19777 0.23269 0.32326 0.0
H197 H 0.10389 0.19551 0.13366 0.0
H198 H 0.10463 0.18061 0.20776 0.0
H199 H 0.09565 0.2122 0.19517 0.0
H200 H 0.11175 0.16925 0.41505 0.0
H201 H 0.08961 0.24479 0.37647 0.0
H202 H 0.16073 0.16956 0.32825 0.0
H203 H 0.1357 0.16046 0.27896 0.0
H204 H 0.13749 0.14916 0.35626 0.0
H205 H 0.13295 0.26247 0.28024 0.0
H206 H 0.10137 0.2687 0.29271 0.0
H207 H 0.10876 0.25185 0.23076 0.0
C208 C 0.27628 0.63409 0.67979 0.0
C209 C 0.26227 0.65576 0.66824 0.0
C210 C 0.26811 0.61423 0.7164 0.0
C211 C 0.24535 0.61601 0.74196 0.0
C212 C 0.23075 0.63749 0.72895 0.0
C213 C 0.23939 0.6571 0.69234 0.0
C214 C 0.28423 0.59166 0.72931 0.0
C215 C 0.20632 0.64008 0.7552 0.0
C216 C 0.21529 0.55882 0.81224 0.0
C217 C 0.22192 0.56088 0.87287 0.0
C218 C 0.22305 0.57644 0.76878 0.0
C219 C 0.23782 0.59643 0.78649 0.0
C220 C 0.24504 0.59821 0.84744 0.0
C221 C 0.23701 0.58048 0.88974 0.0
C222 C 0.21501 0.57397 0.70413 0.0
C223 C 0.26091 0.61915 0.86822 0.0
H224 H 0.2939 0.63275 0.66104 0.0
H225 H 0.22828 0.67363 0.68318 0.0
H226 H 0.2909 0.58997 0.77708 0.0
H227 H 0.2735 0.57484 0.72039 0.0
H228 H 0.30044 0.59233 0.70231 0.0
H229 H 0.19633 0.6571 0.73709 0.0
H230 H 0.19447 0.62399 0.74629 0.0
H231 H 0.20933 0.64051 0.80421 0.0
H232 H 0.20362 0.54378 0.79882 0.0
H233 H 0.2424 0.58219 0.9364 0.0
H234 H 0.23128 0.57414 0.67749 0.0
H235 H 0.2033 0.58992 0.68655 0.0
H236 H 0.20448 0.5568 0.69739 0.0
H237 H 0.27829 0.61985 0.84567 0.0
H238 H 0.26554 0.61743 0.91708 0.0
H239 H 0.25121 0.63691 0.85615 0.0
C240 C 0.86796 0.80219 0.13046 0.0
C241 C 0.8446 0.79943 0.15235 0.0
C242 C 0.8895 0.79864 0.16848 0.0
C243 C 0.88761 0.79241 0.22987 0.0
C244 C 0.86411 0.78897 0.2519 0.0
C245 C 0.84292 0.79239 0.21285 0.0
C246 C 0.91423 0.80217 0.14325 0.0
C247 C 0.86131 0.78243 0.31718 0.0
C248 C 0.93992 0.76638 0.33679 0.0
C249 C 0.94679 0.78708 0.36738 0.0
C250 C 0.92165 0.76809 0.28922 0.0
C251 C 0.90995 0.79099 0.27219 0.0
C252 C 0.918 0.81223 0.30022 0.0
C253 C 0.93638 0.81004 0.34726 0.0
C254 C 0.91384 0.74511 0.25969 0.0
C255 C 0.90606 0.83703 0.28328 0.0
H256 H 0.86945 0.80738 0.08361 0.0
H257 H 0.82498 0.79014 0.23015 0.0
H258 H 0.92345 0.81854 0.16098 0.0
H259 H 0.92631 0.78607 0.15715 0.0
H260 H 0.9126 0.80479 0.09388 0.0
H261 H 0.84178 0.77947 0.32676 0.0
H262 H 0.8719 0.76547 0.33256 0.0
H263 H 0.8689 0.79742 0.34362 0.0
H264 H 0.94796 0.74859 0.3517 0.0
H265 H 0.94169 0.82621 0.37019 0.0
H266 H 0.91223 0.7487 0.21057 0.0
H267 H 0.89543 0.73932 0.2733 0.0
H268 H 0.92696 0.72965 0.272 0.0
H269 H 0.90535 0.84134 0.23444 0.0
H270 H 0.91595 0.85209 0.30541 0.0
H271 H 0.88681 0.83661 0.29614 0.0
C272 C 0.74196 0.35704 0.67806 0.0
C273 C 0.73834 0.36118 0.61605 0.0
C274 C 0.75331 0.37478 0.71258 0.0
C275 C 0.76158 0.39705 0.68434 0.0
C276 C 0.75836 0.40119 0.62167 0.0
C277 C 0.74661 0.38326 0.58826 0.0
C278 C 0.7562 0.36978 0.77941 0.0
C279 C 0.76729 0.42454 0.59 0.0
C280 C 0.76871 0.44932 0.7853 0.0
C281 C 0.79361 0.44708 0.80605 0.0
C282 C 0.75826 0.43391 0.74334 0.0
C283 C 0.77316 0.41606 0.72104 0.0
C284 C 0.79867 0.41493 0.7385 0.0
C285 C 0.80858 0.43038 0.78108 0.0
C286 C 0.73096 0.43564 0.72594 0.0
C287 C 0.81523 0.39644 0.71483 0.0
H288 H 0.73559 0.34005 0.69983 0.0
H289 H 0.74409 0.38646 0.54025 0.0
H290 H 0.77595 0.37039 0.7954 0.0
H291 H 0.7466 0.38427 0.80078 0.0
H292 H 0.74868 0.35158 0.79442 0.0
H293 H 0.76406 0.42459 0.54087 0.0
H294 H 0.75776 0.44068 0.6048 0.0
H295 H 0.78728 0.42691 0.60156 0.0
H296 H 0.757 0.46222 0.80418 0.0
H297 H 0.82789 0.4287 0.79646 0.0
H298 H 0.72174 0.41886 0.7443 0.0
H299 H 0.72738 0.43657 0.67686 0.0
H300 H 0.72243 0.45196 0.74277 0.0
H301 H 0.81076 0.37766 0.73339 0.0
H302 H 0.83501 0.4 0.7268 0.0
H303 H 0.81218 0.39669 0.6657 0.0
C304 C 0.65278 0.29589 0.30144 0.0
C305 C 0.64999 0.30067 0.36058 0.0
C306 C 0.63224 0.29218 0.26187 0.0
C307 C 0.60831 0.29292 0.28213 0.0
C308 C 0.60536 0.29735 0.342 0.0
C309 C 0.62624 0.30133 0.38045 0.0
C310 C 0.63613 0.28775 0.19813 0.0
C311 C 0.58017 0.29792 0.36536 0.0
C312 C 0.55746 0.30611 0.15976 0.0
C313 C 0.55017 0.28225 0.147 0.0
C314 C 0.57562 0.30993 0.20556 0.0
C315 C 0.5865 0.28941 0.23993 0.0
C316 C 0.57799 0.2654 0.23005 0.0
C317 C 0.56002 0.26208 0.18343 0.0
C318 C 0.58428 0.33582 0.21455 0.0
C319 C 0.58882 0.2431 0.26655 0.0
H320 H 0.67105 0.2954 0.28571 0.0
H321 H 0.62396 0.30481 0.42627 0.0
H322 H 0.62817 0.26975 0.18714 0.0
H323 H 0.62646 0.30215 0.16763 0.0
H324 H 0.65592 0.28785 0.18942 0.0
H325 H 0.58108 0.30087 0.41354 0.0
H326 H 0.56893 0.31285 0.3406 0.0
H327 H 0.57046 0.28035 0.35813 0.0
H328 H 0.54997 0.32181 0.13187 0.0
H329 H 0.55435 0.2436 0.17418 0.0
H330 H 0.60338 0.33801 0.20122 0.0
H331 H 0.58456 0.33947 0.26217 0.0
H332 H 0.57244 0.34987 0.188 0.0
H333 H 0.60802 0.24025 0.25538 0.0
H334 H 0.57817 0.22613 0.25828 0.0
H335 H 0.58944 0.24593 0.3147 0.0
C336 C 0.25447 0.12899 0.93243 0.0
C337 C 0.24552 0.15109 0.90253 0.0
C338 C 0.26583 0.11119 0.90202 0.0
C339 C 0.26806 0.11549 0.84017 0.0
C340 C 0.25875 0.13759 0.8096 0.0
C341 C 0.24773 0.15518 0.84121 0.0
C342 C 0.27579 0.08798 0.9362 0.0
C343 C 0.26058 0.14275 0.74348 0.0
C344 C 0.31653 0.08417 0.76055 0.0
C345 C 0.30248 0.06662 0.73086 0.0
C346 C 0.30582 0.0994 0.79879 0.0
C347 C 0.28041 0.09714 0.80709 0.0
C348 C 0.26643 0.07859 0.77979 0.0
C349 C 0.27767 0.06345 0.74224 0.0
C350 C 0.32143 0.11872 0.82791 0.0
C351 C 0.23926 0.07567 0.78747 0.0
H352 H 0.25303 0.12578 0.97995 0.0
H353 H 0.24083 0.17217 0.81777 0.0
H354 H 0.26734 0.07159 0.91672 0.0
H355 H 0.29594 0.0867 0.9327 0.0
H356 H 0.27225 0.08727 0.98403 0.0
H357 H 0.2518 0.1605 0.72611 0.0
H358 H 0.2802 0.14326 0.7335 0.0
H359 H 0.25165 0.12776 0.71921 0.0
H360 H 0.33576 0.08661 0.75237 0.0
H361 H 0.26665 0.04992 0.71955 0.0
H362 H 0.3189 0.11803 0.87622 0.0
H363 H 0.31556 0.13727 0.80838 0.0
H364 H 0.34132 0.11641 0.82196 0.0
H365 H 0.23584 0.07454 0.83531 0.0
H366 H 0.23153 0.059 0.76766 0.0
H367 H 0.22918 0.09204 0.7658 0.0
C368 C 0.35655 0.71019 0.39921 0.0
C369 C 0.33726 0.72698 0.4022 0.0
C370 C 0.37454 0.71463 0.35851 0.0
C371 C 0.37319 0.73632 0.31971 0.0
C372 C 0.35431 0.75375 0.32395 0.0
C373 C 0.33662 0.7489 0.3652 0.0
C374 C 0.39449 0.69568 0.35561 0.0
C375 C 0.35223 0.7771 0.28331 0.0
C376 C 0.42791 0.75683 0.23338 0.0
C377 C 0.4213 0.74813 0.17755 0.0
C378 C 0.41265 0.7528 0.28056 0.0
C379 C 0.39025 0.73988 0.2715 0.0
C380 C 0.3837 0.73076 0.21553 0.0
C381 C 0.3993 0.73494 0.16939 0.0
C382 C 0.4203 0.76265 0.3398 0.0
C383 C 0.35996 0.71691 0.20401 0.0
H384 H 0.35737 0.69331 0.42796 0.0
H385 H 0.32192 0.76208 0.36738 0.0
H386 H 0.39204 0.68714 0.31258 0.0
H387 H 0.41286 0.70454 0.35775 0.0
H388 H 0.39427 0.68089 0.39225 0.0
H389 H 0.33757 0.78956 0.2951 0.0
H390 H 0.36997 0.78714 0.28509 0.0
H391 H 0.34803 0.77245 0.23669 0.0
H392 H 0.44489 0.767 0.2401 0.0
H393 H 0.39402 0.7281 0.12649 0.0
H394 H 0.42064 0.74755 0.3757 0.0
H395 H 0.40666 0.77644 0.35022 0.0
H396 H 0.43874 0.77141 0.34039 0.0
H397 H 0.35924 0.70061 0.23638 0.0
H398 H 0.35779 0.71063 0.15832 0.0
H399 H 0.34406 0.72886 0.21029 0.0
C400 C 0.74476 0.86464 0.83189 0.0
C401 C 0.75478 0.86875 0.88931 0.0
C402 C 0.73634 0.88429 0.79168 0.0
C403 C 0.73794 0.90868 0.80925 0.0
C404 C 0.74727 0.9129 0.86772 0.0
C405 C 0.75556 0.89291 0.90703 0.0
C406 C 0.72642 0.87901 0.72973 0.0
C407 C 0.74921 0.93861 0.88818 0.0
C408 C 0.74248 0.95789 0.68258 0.0
C409 C 0.71804 0.96617 0.6723 0.0
C410 C 0.74935 0.93985 0.72844 0.0
C411 C 0.73135 0.92976 0.76504 0.0
C412 C 0.7069 0.93887 0.75691 0.0
C413 C 0.70053 0.95701 0.71066 0.0
C414 C 0.77567 0.93082 0.73596 0.0
C415 C 0.68722 0.92864 0.79526 0.0
H416 H 0.74391 0.84607 0.81782 0.0
H417 H 0.7631 0.89633 0.95142 0.0
H418 H 0.70791 0.8874 0.71936 0.0
H419 H 0.73862 0.88741 0.69672 0.0
H420 H 0.72507 0.85897 0.72413 0.0
H421 H 0.75511 0.93864 0.93632 0.0
H422 H 0.76273 0.94933 0.86258 0.0
H423 H 0.73125 0.94826 0.87952 0.0
H424 H 0.7562 0.96494 0.65346 0.0
H425 H 0.6816 0.96325 0.70307 0.0
H426 H 0.77636 0.91127 0.72556 0.0
H427 H 0.78319 0.93169 0.78277 0.0
H428 H 0.78777 0.9417 0.70654 0.0
H429 H 0.68348 0.90922 0.78606 0.0
H430 H 0.66974 0.93922 0.78698 0.0
H431 H 0.69358 0.92874 0.84305 0.0
C432 C 0.85869 0.81381 0.90876 0.0
C433 C 0.8363 0.80198 0.89514 0.0
C434 C 0.87905 0.81064 0.87576 0.0
C435 C 0.87678 0.79573 0.82712 0.0
C436 C 0.85432 0.78344 0.8137 0.0
C437 C 0.83441 0.78649 0.84836 0.0
C438 C 0.90284 0.8236 0.89233 0.0
C439 C 0.85107 0.76769 0.76157 0.0
C440 C 0.91826 0.80987 0.70177 0.0
C441 C 0.93529 0.79043 0.71087 0.0
C442 C 0.89921 0.81181 0.73943 0.0
C443 C 0.8974 0.79415 0.78813 0.0
C444 C 0.91497 0.7749 0.79876 0.0
C445 C 0.9336 0.77313 0.75962 0.0
C446 C 0.88066 0.83244 0.72616 0.0
C447 C 0.91391 0.75605 0.85102 0.0
H448 H 0.86033 0.82552 0.94553 0.0
H449 H 0.81712 0.77732 0.83772 0.0
H450 H 0.91839 0.81031 0.89732 0.0
H451 H 0.90676 0.83772 0.85631 0.0
H452 H 0.90223 0.83276 0.93442 0.0
H453 H 0.83271 0.75876 0.75826 0.0
H454 H 0.85327 0.77919 0.71963 0.0
H455 H 0.86546 0.75319 0.76539 0.0
H456 H 0.91932 0.82325 0.66401 0.0
H457 H 0.94676 0.75812 0.76703 0.0
H458 H 0.88039 0.84373 0.76488 0.0
H459 H 0.86194 0.82469 0.71834 0.0
H460 H 0.88469 0.84468 0.68651 0.0
H461 H 0.91379 0.76536 0.89293 0.0
H462 H 0.92971 0.74302 0.85491 0.0
H463 H 0.89661 0.74536 0.8464 0.0
C464 C 0.76306 0.35853 0.35062 0.0
C465 C 0.73838 0.36009 0.36359 0.0
C466 C 0.77372 0.37707 0.31432 0.0
C467 C 0.75925 0.39745 0.28977 0.0
C468 C 0.73451 0.39941 0.30392 0.0
C469 C 0.72444 0.38081 0.34091 0.0
C470 C 0.80025 0.37449 0.30086 0.0
C471 C 0.71835 0.42067 0.27803 0.0
C472 C 0.78806 0.45487 0.217 0.0
C473 C 0.78499 0.45029 0.15666 0.0
C474 C 0.78034 0.43758 0.26126 0.0
C475 C 0.76905 0.41542 0.24457 0.0
C476 C 0.76613 0.41067 0.18384 0.0
C477 C 0.77422 0.42804 0.14084 0.0
C478 C 0.784 0.4431 0.32573 0.0
C479 C 0.75395 0.38741 0.16402 0.0
H480 H 0.77406 0.34275 0.36866 0.0
H481 H 0.70538 0.38224 0.35085 0.0
H482 H 0.80116 0.37135 0.25319 0.0
H483 H 0.81045 0.39171 0.309 0.0
H484 H 0.80968 0.35895 0.32814 0.0
H485 H 0.70003 0.42033 0.29649 0.0
H486 H 0.72739 0.43842 0.28682 0.0
H487 H 0.71557 0.42004 0.22903 0.0
H488 H 0.79645 0.47193 0.22964 0.0
H489 H 0.77168 0.42427 0.0944 0.0
H490 H 0.79418 0.4278 0.35202 0.0
H491 H 0.76587 0.44459 0.34436 0.0
H492 H 0.79427 0.46048 0.33164 0.0
H493 H 0.76391 0.37102 0.18596 0.0
H494 H 0.75343 0.38634 0.11507 0.0
H495 H 0.73481 0.38645 0.17752 0.0
C496 C 0.14355 0.19346 0.88823 0.0
C497 C 0.16004 0.21326 0.8908 0.0
C498 C 0.1219 0.19504 0.85044 0.0
C499 C 0.11636 0.21704 0.81447 0.0
C500 C 0.13259 0.23732 0.81764 0.0
C501 C 0.1543 0.23517 0.85568 0.0
C502 C 0.10512 0.17295 0.84831 0.0
C503 C 0.12717 0.26113 0.78032 0.0
C504 C 0.07262 0.20766 0.67936 0.0
C505 C 0.04984 0.2131 0.70015 0.0
C506 C 0.09462 0.21022 0.71491 0.0
C507 C 0.0938 0.21831 0.77277 0.0
C508 C 0.07094 0.22491 0.79292 0.0
C509 C 0.0492 0.22205 0.7565 0.0
C510 C 0.11858 0.20276 0.69194 0.0
C511 C 0.06929 0.23377 0.85411 0.0
H512 H 0.14772 0.17646 0.91518 0.0
H513 H 0.16685 0.25061 0.85754 0.0
H514 H 0.08642 0.178 0.85945 0.0
H515 H 0.10338 0.16669 0.80263 0.0
H516 H 0.11196 0.15731 0.87962 0.0
H517 H 0.14109 0.27552 0.7898 0.0
H518 H 0.12674 0.25785 0.73243 0.0
H519 H 0.10874 0.26816 0.78848 0.0
H520 H 0.07322 0.19996 0.6368 0.0
H521 H 0.0316 0.22623 0.77276 0.0
H522 H 0.12551 0.18558 0.71719 0.0
H523 H 0.13276 0.21713 0.69875 0.0
H524 H 0.11646 0.19952 0.6439 0.0
H525 H 0.07359 0.21834 0.88826 0.0
H526 H 0.05068 0.24097 0.86026 0.0
H527 H 0.08301 0.24845 0.86223 0.0
C528 C 0.26134 0.63299 0.43443 0.0
C529 C 0.26043 0.65776 0.41201 0.0
C530 C 0.2545 0.61406 0.39783 0.0
C531 C 0.24662 0.62004 0.33736 0.0
C532 C 0.24471 0.64502 0.31506 0.0
C533 C 0.2516 0.66358 0.35267 0.0
C534 C 0.25661 0.58765 0.42331 0.0
C535 C 0.23632 0.65213 0.2508 0.0
C536 C 0.25731 0.57526 0.22184 0.0
C537 C 0.2335 0.56636 0.20859 0.0
C538 C 0.26192 0.59212 0.26509 0.0
C539 C 0.24225 0.60026 0.29605 0.0
C540 C 0.21837 0.59052 0.28492 0.0
C541 C 0.21426 0.57365 0.24123 0.0
C542 C 0.28769 0.60198 0.27589 0.0
C543 C 0.197 0.59864 0.31742 0.0
H544 H 0.2679 0.62828 0.48039 0.0
H545 H 0.25066 0.68264 0.335 0.0
H546 H 0.23929 0.57761 0.41264 0.0
H547 H 0.27152 0.57829 0.40286 0.0
H548 H 0.26075 0.58618 0.47235 0.0
H549 H 0.23425 0.67237 0.24147 0.0
H550 H 0.24989 0.64546 0.22153 0.0
H551 H 0.21845 0.6433 0.23878 0.0
H552 H 0.27232 0.56962 0.19714 0.0
H553 H 0.19581 0.56683 0.23135 0.0
H554 H 0.29382 0.59953 0.32393 0.0
H555 H 0.28787 0.62201 0.26266 0.0
H556 H 0.30118 0.59276 0.25053 0.0
H557 H 0.20179 0.59701 0.36616 0.0
H558 H 0.18014 0.5877 0.30764 0.0
H559 H 0.19282 0.61831 0.30424 0.0
C560 C 0.34333 0.72483 0.72742 0.0
C561 C 0.34567 0.72166 0.66717 0.0
C562 C 0.36396 0.72948 0.7659 0.0
C563 C 0.3875 0.73138 0.74348 0.0
C564 C 0.38999 0.72851 0.68255 0.0
C565 C 0.36905 0.72352 0.64515 0.0
C566 C 0.36056 0.73215 0.83078 0.0
C567 C 0.41473 0.73077 0.65692 0.0
C568 C 0.43367 0.76458 0.84282 0.0
C569 C 0.44559 0.74481 0.8767 0.0
C570 C 0.41575 0.76051 0.7966 0.0
C571 C 0.40939 0.7361 0.78452 0.0
C572 C 0.42236 0.71612 0.81622 0.0
C573 C 0.44043 0.72073 0.86167 0.0
C574 C 0.40264 0.78231 0.76301 0.0
C575 C 0.41604 0.68981 0.80492 0.0
H576 H 0.32537 0.72335 0.74485 0.0
H577 H 0.37096 0.72128 0.5985 0.0
H578 H 0.37187 0.7182 0.859 0.0
H579 H 0.36696 0.75053 0.84315 0.0
H580 H 0.34105 0.72991 0.84123 0.0
H581 H 0.41347 0.72859 0.60833 0.0
H582 H 0.4229 0.749 0.66497 0.0
H583 H 0.42755 0.71661 0.67948 0.0
H584 H 0.43769 0.78326 0.85378 0.0
H585 H 0.44955 0.70532 0.88754 0.0
H586 H 0.38344 0.78311 0.77593 0.0
H587 H 0.40172 0.78038 0.7144 0.0
H588 H 0.41183 0.79998 0.7723 0.0
H589 H 0.39746 0.68544 0.81967 0.0
H590 H 0.42943 0.67651 0.82901 0.0
H591 H 0.41546 0.68719 0.75669 0.0
C592 C 0.73839 0.85782 0.1788 0.0
C593 C 0.76063 0.86073 0.15169 0.0
C594 C 0.73115 0.87471 0.21803 0.0
C595 C 0.7466 0.89488 0.2307 0.0
C596 C 0.76863 0.89838 0.20191 0.0
C597 C 0.77533 0.88133 0.16262 0.0
C598 C 0.70741 0.8705 0.24749 0.0
C599 C 0.78567 0.91958 0.21445 0.0
C600 C 0.72309 0.9486 0.30869 0.0
C601 C 0.73214 0.94244 0.36775 0.0
C602 C 0.72726 0.9331 0.26353 0.0
C603 C 0.74092 0.91108 0.27786 0.0
C604 C 0.74994 0.90474 0.33743 0.0
C605 C 0.74538 0.92044 0.38158 0.0
C606 C 0.71723 0.94033 0.2005 0.0
C607 C 0.76473 0.88151 0.3545 0.0
H608 H 0.72678 0.84211 0.17016 0.0
H609 H 0.79248 0.88385 0.14166 0.0
H610 H 0.71153 0.86581 0.29586 0.0
H611 H 0.6961 0.88754 0.24246 0.0
H612 H 0.69638 0.85536 0.22871 0.0
H613 H 0.80119 0.9207 0.18529 0.0
H614 H 0.77538 0.93724 0.20823 0.0
H615 H 0.79336 0.91745 0.26148 0.0
H616 H 0.71277 0.96552 0.29771 0.0
H617 H 0.75246 0.91551 0.42706 0.0
H618 H 0.7055 0.92539 0.18326 0.0
H619 H 0.73262 0.94298 0.1713 0.0
H620 H 0.70621 0.95757 0.19707 0.0
H621 H 0.75394 0.86522 0.34151 0.0
H622 H 0.77011 0.87908 0.403 0.0
H623 H 0.78168 0.88191 0.33025 0.0
C624 C 0.63943 0.32114 0.63452 0.0
C625 C 0.65303 0.30052 0.62255 0.0
C626 C 0.62118 0.31908 0.675 0.0
C627 C 0.61621 0.29579 0.70366 0.0
C628 C 0.62896 0.2747 0.68948 0.0
C629 C 0.64733 0.27733 0.64929 0.0
C630 C 0.60809 0.34203 0.6893 0.0
C631 C 0.62393 0.24951 0.7186 0.0
C632 C 0.59344 0.29566 0.85763 0.0
C633 C 0.56803 0.29234 0.84617 0.0
C634 C 0.60926 0.29659 0.81162 0.0
C635 C 0.5995 0.29395 0.75264 0.0
C636 C 0.57392 0.29021 0.74072 0.0
C637 C 0.55843 0.28954 0.7877 0.0
C638 C 0.63643 0.30077 0.8261 0.0
C639 C 0.56295 0.28712 0.67837 0.0
H640 H 0.64365 0.33912 0.61391 0.0
H641 H 0.65754 0.26126 0.63968 0.0
H642 H 0.58787 0.3393 0.68529 0.0
H643 H 0.61339 0.34594 0.73602 0.0
H644 H 0.61262 0.35836 0.65969 0.0
H645 H 0.63343 0.2347 0.69801 0.0
H646 H 0.6303 0.24881 0.76651 0.0
H647 H 0.60387 0.24575 0.71563 0.0
H648 H 0.60103 0.29785 0.90265 0.0
H649 H 0.53882 0.28689 0.77859 0.0
H650 H 0.64229 0.31793 0.80152 0.0
H651 H 0.64726 0.28542 0.81162 0.0
H652 H 0.64108 0.30226 0.8744 0.0
H653 H 0.56606 0.304 0.6493 0.0
H654 H 0.54286 0.28343 0.67688 0.0
H655 H 0.57218 0.27172 0.65949 0.0
C656 C 0.24847 0.1306 0.16347 0.0
C657 C 0.25995 0.15355 0.15476 0.0
C658 C 0.25885 0.11213 0.20428 0.0
C659 C 0.28132 0.11663 0.23727 0.0
C660 C 0.29367 0.13926 0.22659 0.0
C661 C 0.28284 0.15749 0.1854 0.0
C662 C 0.24507 0.08826 0.21423 0.0
C663 C 0.31775 0.14467 0.26069 0.0
C664 C 0.28891 0.0836 0.39116 0.0
C665 C 0.30436 0.0638 0.38275 0.0
C666 C 0.28173 0.10107 0.34442 0.0
C667 C 0.2902 0.09883 0.28753 0.0
C668 C 0.30601 0.07907 0.27858 0.0
C669 C 0.31289 0.06172 0.32635 0.0
C670 C 0.26471 0.12176 0.35582 0.0
C671 C 0.31543 0.07617 0.21847 0.0
H672 H 0.23097 0.12719 0.13939 0.0
H673 H 0.29197 0.17505 0.17854 0.0
H674 H 0.25751 0.07233 0.21216 0.0
H675 H 0.23818 0.08702 0.25927 0.0
H676 H 0.22913 0.08669 0.181 0.0
H677 H 0.32645 0.16176 0.24226 0.0
H678 H 0.31451 0.14682 0.30786 0.0
H679 H 0.33081 0.12913 0.26017 0.0
H680 H 0.28221 0.08546 0.43449 0.0
H681 H 0.32492 0.04657 0.31948 0.0
H682 H 0.24722 0.12063 0.32756 0.0
H683 H 0.2732 0.13979 0.34366 0.0
H684 H 0.26034 0.12126 0.40307 0.0
H685 H 0.29976 0.07322 0.18546 0.0
H686 H 0.32843 0.06045 0.21942 0.0
H687 H 0.32487 0.09323 0.20274 0.0
C688 C 0.2276 0.30516 0.95361 0.0
C689 C 0.22198 0.29046 0.00453 0.0
C690 C 0.22325 0.33065 0.94865 0.0
C691 C 0.21283 0.34174 0.99549 0.0
C692 C 0.20686 0.327 0.04671 0.0
C693 C 0.21158 0.30158 0.05072 0.0
C694 C 0.23 0.34574 0.89347 0.0
C695 C 0.19553 0.33811 0.09739 0.0
C696 C 0.22215 0.41026 0.01007 0.0
C697 C 0.19965 0.42011 0.98462 0.0
C698 C 0.22676 0.38482 0.0134 0.0
C699 C 0.20836 0.3688 0.99113 0.0
C700 C 0.18567 0.37863 0.96507 0.0
C701 C 0.18162 0.40416 0.96193 0.0
C702 C 0.25127 0.37508 0.04107 0.0
C703 C 0.16555 0.36214 0.94111 0.0
H704 H 0.23566 0.29679 0.91768 0.0
H705 H 0.20704 0.29039 0.09008 0.0
H706 H 0.21349 0.35546 0.87141 0.0
H707 H 0.24362 0.36001 0.9058 0.0
H708 H 0.2379 0.33432 0.86098 0.0
H709 H 0.19156 0.32407 0.13364 0.0
H710 H 0.20812 0.35205 0.11618 0.0
H711 H 0.17811 0.34771 0.08084 0.0
H712 H 0.2362 0.42243 0.02761 0.0
H713 H 0.16415 0.41158 0.94235 0.0
H714 H 0.26041 0.36452 0.00891 0.0
H715 H 0.24844 0.36225 0.08046 0.0
H716 H 0.26381 0.39001 0.0552 0.0
H717 H 0.17244 0.35131 0.90621 0.0
H718 H 0.14901 0.37267 0.92188 0.0
H719 H 0.16001 0.34881 0.97723 0.0
C720 C 0.1864 0.72843 0.47426 0.0
C721 C 0.20135 0.73084 0.52691 0.0
C722 C 0.16072 0.73113 0.47274 0.0
C723 C 0.14969 0.73611 0.52524 0.0
C724 C 0.16463 0.73813 0.57872 0.0
C725 C 0.19025 0.73557 0.57886 0.0
C726 C 0.14541 0.72898 0.4148 0.0
C727 C 0.15355 0.74318 0.63578 0.0
C728 C 0.08675 0.7667 0.51495 0.0
C729 C 0.07132 0.74662 0.52745 0.0
C730 C 0.11222 0.76346 0.51294 0.0
C731 C 0.12256 0.7396 0.52423 0.0
C732 C 0.10708 0.71922 0.53629 0.0
C733 C 0.08163 0.72296 0.53749 0.0
C734 C 0.1281 0.78563 0.49944 0.0
C735 C 0.11745 0.69352 0.54902 0.0
H736 H 0.19479 0.72479 0.4339 0.0
H737 H 0.2016 0.73726 0.61987 0.0
H738 H 0.13141 0.71434 0.42031 0.0
H739 H 0.13536 0.74648 0.40167 0.0
H740 H 0.15676 0.7247 0.37814 0.0
H741 H 0.16765 0.74355 0.67393 0.0
H742 H 0.1438 0.76115 0.63012 0.0
H743 H 0.13975 0.72888 0.64674 0.0
H744 H 0.07893 0.78503 0.50688 0.0
H745 H 0.06986 0.70734 0.54729 0.0
H746 H 0.13887 0.7827 0.46088 0.0
H747 H 0.14148 0.7882 0.538 0.0
H748 H 0.1171 0.80278 0.48937 0.0
H749 H 0.12791 0.68848 0.51154 0.0
H750 H 0.10286 0.67956 0.55621 0.0
H751 H 0.13051 0.6928 0.58928 0.0
C752 C 0.7865 0.71241 0.08967 0.0
C753 C 0.78269 0.72595 0.03435 0.0
C754 C 0.78986 0.68679 0.09345 0.0
C755 C 0.78987 0.67443 0.04063 0.0
C756 C 0.78642 0.68804 0.98464 0.0
C757 C 0.78265 0.7136 0.98218 0.0
C758 C 0.79308 0.6729 0.15398 0.0
C759 C 0.78676 0.6756 0.92732 0.0
C760 C 0.8202 0.61135 0.0495 0.0
C761 C 0.79973 0.59568 0.0478 0.0
C762 C 0.81727 0.63701 0.04706 0.0
C763 C 0.7933 0.64724 0.04395 0.0
C764 C 0.77258 0.63149 0.04354 0.0
C765 C 0.77603 0.60591 0.04489 0.0
C766 C 0.8398 0.6532 0.04669 0.0
C767 C 0.74675 0.64166 0.04137 0.0
H768 H 0.78643 0.72179 0.13022 0.0
H769 H 0.7799 0.72397 0.93929 0.0
H770 H 0.7784 0.65887 0.15833 0.0
H771 H 0.81096 0.66298 0.15916 0.0
H772 H 0.79244 0.68521 0.19075 0.0
H773 H 0.78455 0.6889 0.88748 0.0
H774 H 0.80437 0.6655 0.92644 0.0
H775 H 0.77173 0.66188 0.92444 0.0
H776 H 0.83856 0.60357 0.05131 0.0
H777 H 0.76014 0.59391 0.0438 0.0
H778 H 0.84048 0.6649 0.08479 0.0
H779 H 0.83883 0.66572 0.00546 0.0
H780 H 0.85714 0.64237 0.04924 0.0
H781 H 0.74501 0.6533 0.079 0.0
H782 H 0.73267 0.62691 0.04351 0.0
H783 H 0.74273 0.65356 -0.0003 0.0
C784 C 0.79997 0.26178 0.49112 0.0
C785 C 0.79016 0.27936 0.52491 0.0
C786 C 0.82404 0.25287 0.5045 0.0
C787 C 0.83876 0.26202 0.55224 0.0
C788 C 0.82942 0.28069 0.58453 0.0
C789 C 0.80515 0.28902 0.57074 0.0
C790 C 0.83328 0.23281 0.46931 0.0
C791 C 0.84473 0.2912 0.63505 0.0
C792 C 0.88775 0.21856 0.62817 0.0
C793 C 0.9088 0.22668 0.60062 0.0
C794 C 0.86494 0.23023 0.61358 0.0
C795 C 0.86321 0.25072 0.57097 0.0
C796 C 0.88456 0.25957 0.54456 0.0
C797 C 0.9071 0.24733 0.55941 0.0
C798 C 0.84254 0.22012 0.6424 0.0
C799 C 0.88346 0.2816 0.49964 0.0
H800 H 0.7885 0.25419 0.45569 0.0
H801 H 0.79777 0.3028 0.59666 0.0
H802 H 0.85114 0.23814 0.45178 0.0
H803 H 0.83646 0.21571 0.49886 0.0
H804 H 0.82008 0.22871 0.43141 0.0
H805 H 0.83571 0.30731 0.65163 0.0
H806 H 0.84786 0.27689 0.67248 0.0
H807 H 0.86305 0.29689 0.62069 0.0
H808 H 0.8889 0.20259 0.65995 0.0
H809 H 0.92333 0.25378 0.53818 0.0
H810 H 0.82893 0.21373 0.60787 0.0
H811 H 0.83354 0.23477 0.66452 0.0
H812 H 0.84714 0.20449 0.6759 0.0
H813 H 0.87199 0.27724 0.45912 0.0
H814 H 0.902 0.28727 0.48656 0.0
H815 H 0.87465 0.29739 0.51794 0.0
C816 C 0.69439 0.21187 0.45663 0.0
C817 C 0.70548 0.22301 0.50587 0.0
C818 C 0.69014 0.18638 0.45908 0.0
C819 C 0.69714 0.17163 0.512 0.0
C820 C 0.70804 0.18278 0.56207 0.0
C821 C 0.71204 0.20829 0.55844 0.0
C822 C 0.67837 0.1752 0.4048 0.0
C823 C 0.71575 0.1677 0.61932 0.0
C824 C 0.66806 0.10842 0.53573 0.0
C825 C 0.68645 0.09292 0.51916 0.0
C826 C 0.67128 0.13405 0.53368 0.0
C827 C 0.69345 0.14447 0.51469 0.0
C828 C 0.71215 0.12893 0.49828 0.0
C829 C 0.70842 0.10337 0.50067 0.0
C830 C 0.65092 0.15001 0.55156 0.0
C831 C 0.73607 0.13932 0.47794 0.0
H832 H 0.68915 0.22304 0.41587 0.0
H833 H 0.72056 0.21667 0.59683 0.0
H834 H 0.69114 0.16167 0.38933 0.0
H835 H 0.66145 0.1651 0.41616 0.0
H836 H 0.67346 0.18926 0.36756 0.0
H837 H 0.72355 0.17922 0.65459 0.0
H838 H 0.69973 0.15746 0.63596 0.0
H839 H 0.72976 0.15388 0.61114 0.0
H840 H 0.65101 0.10054 0.55001 0.0
H841 H 0.72274 0.09156 0.48777 0.0
H842 H 0.64463 0.1633 0.51381 0.0
H843 H 0.65787 0.16088 0.58882 0.0
H844 H 0.63485 0.13905 0.56553 0.0
H845 H 0.73237 0.15228 0.43796 0.0
H846 H 0.74882 0.12474 0.46705 0.0
H847 H 0.7454 0.14989 0.51316 0.0
C848 C 0.32059 0.23512 0.04346 0.0
C849 C 0.30552 0.22709 0.9956 0.0
C850 C 0.34614 0.23712 0.04074 0.0
C851 C 0.35693 0.231 0.98885 0.0
C852 C 0.34189 0.22281 0.94043 0.0
C853 C 0.31636 0.22089 0.94442 0.0
C854 C 0.3616 0.2458 0.09344 0.0
C855 C 0.35275 0.21616 0.88432 0.0
C856 C 0.41962 0.25835 0.96215 0.0
C857 C 0.43541 0.23858 0.9817 0.0
C858 C 0.39402 0.25602 0.96353 0.0
C859 C 0.38396 0.23342 0.98522 0.0
C860 C 0.39976 0.21336 0.00475 0.0
C861 C 0.42531 0.21616 0.00265 0.0
C862 C 0.37773 0.27781 0.94216 0.0
C863 C 0.3897 0.18901 0.02842 0.0
H864 H 0.31244 0.23981 0.08336 0.0
H865 H 0.30489 0.21459 0.90728 0.0
H866 H 0.37571 0.23172 0.10975 0.0
H867 H 0.37152 0.26287 0.07984 0.0
H868 H 0.3504 0.24954 0.13076 0.0
H869 H 0.33856 0.20991 0.85086 0.0
H870 H 0.36238 0.23231 0.86414 0.0
H871 H 0.36664 0.20131 0.89502 0.0
H872 H 0.42726 0.27572 0.94573 0.0
H873 H 0.43738 0.2008 0.01783 0.0
H874 H 0.36722 0.28338 0.97907 0.0
H875 H 0.36413 0.27269 0.90613 0.0
H876 H 0.38841 0.29391 0.92525 0.0
H877 H 0.37954 0.19162 0.06814 0.0
H878 H 0.40443 0.17509 0.04093 0.0
H879 H 0.37643 0.18166 0.99451 0.0
C880 C 0.2772 0.81109 0.47884 0.0
C881 C 0.2849 0.79618 0.53034 0.0
C882 C 0.2827 0.83632 0.47376 0.0
C883 C 0.29629 0.84693 0.5212 0.0
C884 C 0.30404 0.83204 0.57336 0.0
C885 C 0.29825 0.80687 0.57732 0.0
C886 C 0.27409 0.85159 0.41744 0.0
C887 C 0.31864 0.84265 0.62485 0.0
C888 C 0.33102 0.90652 0.48949 0.0
C889 C 0.31547 0.92397 0.50991 0.0
C890 C 0.32488 0.88143 0.49235 0.0
C891 C 0.30263 0.87358 0.51611 0.0
C892 C 0.28667 0.89113 0.53594 0.0
C893 C 0.29328 0.9161 0.53264 0.0
C894 C 0.34239 0.86327 0.47072 0.0
C895 C 0.26274 0.88348 0.56137 0.0
H896 H 0.26693 0.80304 0.44221 0.0
H897 H 0.30439 0.79553 0.6172 0.0
H898 H 0.26243 0.86706 0.42814 0.0
H899 H 0.29017 0.85974 0.39598 0.0
H900 H 0.26339 0.84064 0.385 0.0
H901 H 0.32314 0.82864 0.66245 0.0
H902 H 0.33608 0.85062 0.60989 0.0
H903 H 0.30812 0.85779 0.64127 0.0
H904 H 0.3482 0.9124 0.47188 0.0
H905 H 0.28113 0.92944 0.54849 0.0
H906 H 0.33277 0.85274 0.43583 0.0
H907 H 0.34886 0.84981 0.50794 0.0
H908 H 0.35869 0.8724 0.45224 0.0
H909 H 0.25121 0.8734 0.52872 0.0
H910 H 0.25207 0.89946 0.5734 0.0
H911 H 0.26651 0.87075 0.60174 0.0
C912 C 0.6845 0.79073 0.96499 0.0
C913 C 0.69973 0.78801 0.0181 0.0
C914 C 0.65919 0.78558 0.96437 0.0
C915 C 0.64884 0.7777 0.01816 0.0
C916 C 0.66399 0.77556 0.07207 0.0
C917 C 0.68921 0.78066 0.07136 0.0
C918 C 0.64362 0.78801 0.90599 0.0
C919 C 0.65365 0.76742 0.13047 0.0
C920 C 0.57983 0.78163 0.03134 0.0
C921 C 0.57265 0.75705 0.02696 0.0
C922 C 0.60448 0.78875 0.02724 0.0
C923 C 0.62235 0.7709 0.01819 0.0
C924 C 0.61511 0.74619 0.01217 0.0
C925 C 0.59038 0.73955 0.0168 0.0
C926 C 0.61151 0.81525 0.03415 0.0
C927 C 0.63359 0.72663 0.00213 0.0
H928 H 0.69243 0.79639 0.92362 0.0
H929 H 0.70076 0.7787 0.11272 0.0
H930 H 0.63605 0.76977 0.8957 0.0
H931 H 0.62775 0.80041 0.90919 0.0
H932 H 0.65423 0.7953 0.86849 0.0
H933 H 0.66769 0.76766 0.16877 0.0
H934 H 0.63813 0.77958 0.13841 0.0
H935 H 0.64628 0.74848 0.12878 0.0
H936 H 0.56626 0.79528 0.03916 0.0
H937 H 0.58499 0.72054 0.01306 0.0
H938 H 0.62138 0.82268 0.99559 0.0
H939 H 0.62427 0.81641 0.07454 0.0
H940 H 0.59525 0.82712 0.038 0.0
H941 H 0.64379 0.73235 0.96279 0.0
H942 H 0.62478 0.70856 0.99517 0.0
H943 H 0.64729 0.72427 0.0411 0.0
loop_
_geom_bond_atom_site_label_1
_geom_bond_atom_site_label_2
_geom_bond_distance
_geom_bond_site_symmetry_2
_ccdc_geom_bond_type
Fe0 O2 1.918 . S
Fe0 O5 1.997 . S
Fe0 O6 2.002 . S
Fe0 O11 1.976 . S
Fe0 O14 1.996 . S
Fe1 O2 1.918 1_556 S
Fe1 O9 1.997 . S
Fe1 O12 1.996 . S
Fe1 O16 1.976 . S
Fe1 O19 2.002 . S
O2 Fe0 1.918 . S
O2 Fe1 1.918 1_554 S
O2 Fe3 1.918 . S
Fe3 O2 1.918 . S
Fe3 O4 2.002 . S
Fe3 O13 1.976 . S
Fe3 O17 1.996 1_554 S
Fe3 O20 1.997 1_554 S
O4 Fe3 2.002 . S
O4 C21 1.295 . S
O5 Fe0 1.997 . S
O5 C21 1.235 . S
O6 Fe0 2.002 . S
O6 C7 1.295 . S
C7 O6 1.295 . S
C7 O9 1.235 1_554 S
C8 O13 1.287 . S
C8 O14 1.255 . S
O9 Fe1 1.997 . S
O9 C7 1.235 1_556 S
C10 O16 1.287 . S
C10 O17 1.255 . S
O11 Fe0 1.976 . S
O11 C18 1.287 . S
O12 Fe1 1.996 . S
O12 C18 1.255 1_556 S
O13 Fe3 1.976 . S
O13 C8 1.287 . S
O14 Fe0 1.996 . S
O14 C8 1.255 . S
C15 O19 1.295 . S
C15 O20 1.235 . S
O16 Fe1 1.976 . S
O16 C10 1.287 . S
O17 Fe3 1.996 1_556 S
O17 C10 1.255 . S
C18 O11 1.287 . S
C18 O12 1.255 1_554 S
O19 Fe1 2.002 . S
O19 C15 1.295 . S
O20 Fe3 1.997 1_556 S
O20 C15 1.235 . S
C21 O4 1.295 . S
C21 O5 1.235 . S
Fe22 O24 1.918 . S
Fe22 O27 1.997 . S
Fe22 O28 2.002 . S
Fe22 O33 1.976 . S
Fe22 O36 1.996 . S
Fe23 O24 1.918 . S
Fe23 O31 1.997 . S
Fe23 O34 1.996 . S
Fe23 O38 1.976 . S
Fe23 O41 2.002 . S
O24 Fe22 1.918 . S
O24 Fe23 1.918 . S
O24 Fe25 1.918 . S
Fe25 O24 1.918 . S
Fe25 O26 2.002 . S
Fe25 O35 1.976 . S
Fe25 O39 1.996 . S
Fe25 O42 1.997 . S
O26 Fe25 2.002 . S
O26 C43 1.295 . S
O27 Fe22 1.997 . S
O27 C43 1.235 . S
O28 Fe22 2.002 . S
O28 C29 1.295 . S
C29 O28 1.295 . S
C29 O31 1.235 . S
C30 O35 1.287 . S
C30 O36 1.255 . S
O31 Fe23 1.997 . S
O31 C29 1.235 . S
C32 O38 1.287 . S
C32 O39 1.255 . S
O33 Fe22 1.976 . S
O33 C40 1.287 . S
O34 Fe23 1.996 . S
O34 C40 1.255 . S
O35 Fe25 1.976 . S
O35 C30 1.287 . S
O36 Fe22 1.996 . S
O36 C30 1.255 . S
C37 O41 1.295 . S
C37 O42 1.235 . S
O38 Fe23 1.976 . S
O38 C32 1.287 . S
O39 Fe25 1.996 . S
O39 C32 1.255 . S
C40 O33 1.287 . S
C40 O34 1.255 . S
O41 Fe23 2.002 . S
O41 C37 1.295 . S
O42 Fe25 1.997 . S
O42 C37 1.235 . S
C43 O26 1.295 . S
C43 O27 1.235 . S
Fe44 O46 1.918 1_556 S
Fe44 O49 1.997 . S
Fe44 O50 2.002 . S
Fe44 O55 1.976 . S
Fe44 O58 1.996 . S
Fe45 O46 1.918 . S
Fe45 O53 1.997 . S
Fe45 O56 1.996 . S
Fe45 O60 1.976 . S
Fe45 O63 2.002 . S
O46 Fe44 1.918 1_554 S
O46 Fe45 1.918 . S
O46 Fe47 1.918 . S
Fe47 O46 1.918 . S
Fe47 O48 2.002 1_554 S
Fe47 O57 1.976 1_554 S
Fe47 O61 1.996 . S
Fe47 O64 1.997 . S
O48 Fe47 2.002 1_556 S
O48 C65 1.295 . S
O49 Fe44 1.997 . S
O49 C65 1.235 . S
O50 Fe44 2.002 . S
O50 C51 1.295 1_556 S
C51 O50 1.295 1_554 S
C51 O53 1.235 . S
C52 O57 1.287 . S
C52 O58 1.255 . S
O53 Fe45 1.997 . S
O53 C51 1.235 . S
C54 O60 1.287 . S
C54 O61 1.255 . S
O55 Fe44 1.976 . S
O55 C62 1.287 1_556 S
O56 Fe45 1.996 . S
O56 C62 1.255 . S
O57 Fe47 1.976 1_556 S
O57 C52 1.287 . S
O58 Fe44 1.996 . S
O58 C52 1.255 . S
C59 O63 1.295 . S
C59 O64 1.235 . S
O60 Fe45 1.976 . S
O60 C54 1.287 . S
O61 Fe47 1.996 . S
O61 C54 1.255 . S
C62 O55 1.287 1_554 S
C62 O56 1.255 . S
O63 Fe45 2.002 . S
O63 C59 1.295 . S
O64 Fe47 1.997 . S
O64 C59 1.235 . S
C65 O48 1.295 . S
C65 O49 1.235 . S
Fe66 O68 1.918 . S
Fe66 O71 1.997 . S
Fe66 O72 2.002 . S
Fe66 O77 1.976 . S
Fe66 O80 1.996 . S
Fe67 O68 1.918 . S
Fe67 O75 1.997 . S
Fe67 O78 1.996 . S
Fe67 O82 1.976 . S
Fe67 O85 2.002 . S
O68 Fe66 1.918 . S
O68 Fe67 1.918 . S
O68 Fe69 1.918 . S
Fe69 O68 1.918 . S
Fe69 O70 2.002 . S
Fe69 O79 1.976 . S
Fe69 O83 1.996 . S
Fe69 O86 1.997 . S
O70 Fe69 2.002 . S
O70 C87 1.295 . S
O71 Fe66 1.997 . S
O71 C87 1.235 . S
O72 Fe66 2.002 . S
O72 C73 1.295 . S
C73 O72 1.295 . S
C73 O75 1.235 . S
C74 O79 1.287 . S
C74 O80 1.255 . S
O75 Fe67 1.997 . S
O75 C73 1.235 . S
C76 O82 1.287 . S
C76 O83 1.255 . S
O77 Fe66 1.976 . S
O77 C84 1.287 . S
O78 Fe67 1.996 . S
O78 C84 1.255 . S
O79 Fe69 1.976 . S
O79 C74 1.287 . S
O80 Fe66 1.996 . S
O80 C74 1.255 . S
C81 O85 1.295 . S
C81 O86 1.235 . S
O82 Fe67 1.976 . S
O82 C76 1.287 . S
O83 Fe69 1.996 . S
O83 C76 1.255 . S
C84 O77 1.287 . S
C84 O78 1.255 . S
O85 Fe67 2.002 . S
O85 C81 1.295 . S
O86 Fe69 1.997 . S
O86 C81 1.235 . S
C87 O70 1.295 . S
C87 O71 1.235 . S
O88 Cd89 2.300 1_556 S
O88 C95 1.275 . S
Cd89 O88 2.300 1_554 S
Cd89 O97 2.381 1_554 S
Cd89 O98 2.378 . S
O90 Cd91 2.385 1_556 S
O90 C95 1.255 . S
Cd91 O90 2.385 1_554 S
Cd91 O92 2.317 . S
O92 Cd91 2.317 . S
O92 C93 1.232 . S
C93 O92 1.232 . S
C93 O94 1.218 . S
O94 C93 1.218 . S
C95 O88 1.275 . S
C95 O90 1.255 . S
C96 O97 1.258 1_554 S
C96 O98 1.256 . S
O97 Cd89 2.381 1_556 S
O97 C96 1.258 1_556 S
O98 Cd89 2.378 . S
O98 C96 1.256 . S
O99 Cd100 2.300 1_655 S
O99 C106 1.275 . S
Cd100 O99 2.300 1_455 S
Cd100 O108 2.381 . S
Cd100 O109 2.378 . S
O101 Cd102 2.385 . S
O101 C106 1.255 . S
Cd102 O101 2.385 . S
Cd102 O103 2.317 . S
O103 Cd102 2.317 . S
O103 C104 1.232 . S
C104 O103 1.232 . S
C104 O105 1.218 . S
O105 C104 1.218 . S
C106 O99 1.275 . S
C106 O101 1.255 . S
C107 O108 1.258 . S
C107 O109 1.256 . S
O108 Cd100 2.381 . S
O108 C107 1.258 . S
O109 Cd100 2.378 . S
O109 C107 1.256 . S
O110 Cd111 2.300 . S
O110 C117 1.275 . S
Cd111 O110 2.300 . S
Cd111 O119 2.381 . S
Cd111 O120 2.378 . S
O112 Cd113 2.379 1_554 S
O112 C117 1.255 . S
Cd113 O112 2.379 1_556 S
Cd113 O114 2.323 . S
O114 Cd113 2.323 . S
O114 C115 1.232 . S
C115 O114 1.232 . S
C115 O116 1.218 . S
O116 C115 1.218 . S
C117 O110 1.275 . S
C117 O112 1.255 . S
C118 O119 1.258 . S
C118 O120 1.256 . S
O119 Cd111 2.381 . S
O119 C118 1.258 . S
O120 Cd111 2.378 . S
O120 C118 1.256 . S
O121 Cd122 2.300 1_455 S
O121 C128 1.275 . S
Cd122 O121 2.300 1_655 S
Cd122 O130 2.381 . S
Cd122 O131 2.378 . S
O123 Cd124 2.385 . S
O123 C128 1.255 . S
Cd124 O123 2.385 . S
Cd124 O125 2.317 . S
O125 Cd124 2.317 . S
O125 C126 1.232 . S
C126 O125 1.232 . S
C126 O127 1.218 . S
O127 C126 1.218 . S
C128 O121 1.275 . S
C128 O123 1.255 . S
C129 O130 1.258 . S
C129 O131 1.256 . S
O130 Cd122 2.381 . S
O130 C129 1.258 . S
O131 Cd122 2.378 . S
O131 C129 1.256 . S
O132 Cd133 2.300 1_565 S
O132 C139 1.275 . S
Cd133 O132 2.300 1_545 S
Cd133 O141 2.381 . S
Cd133 O142 2.378 . S
O134 Cd135 2.385 . S
O134 C139 1.255 . S
Cd135 O134 2.385 . S
Cd135 O136 2.317 . S
O136 Cd135 2.317 . S
O136 C137 1.232 . S
C137 O136 1.232 . S
C137 O138 1.218 . S
O138 C137 1.218 . S
C139 O132 1.275 . S
C139 O134 1.255 . S
C140 O141 1.258 . S
C140 O142 1.256 . S
O141 Cd133 2.381 . S
O141 C140 1.258 . S
O142 Cd133 2.378 . S
O142 C140 1.256 . S
O143 Cd144 2.300 . S
O143 C150 1.275 . S
Cd144 O143 2.300 . S
Cd144 O152 2.381 . S
Cd144 O153 2.378 1_554 S
O145 Cd146 2.385 1_554 S
O145 C150 1.255 . S
Cd146 O145 2.385 1_556 S
Cd146 O147 2.317 . S
O147 Cd146 2.317 . S
O147 C148 1.232 . S
C148 O147 1.232 . S
C148 O149 1.218 . S
O149 C148 1.218 . S
C150 O143 1.275 . S
C150 O145 1.255 . S
C151 O152 1.258 . S
C151 O153 1.256 1_554 S
O152 Cd144 2.381 . S
O152 C151 1.258 . S
O153 Cd144 2.378 1_556 S
O153 C151 1.256 1_556 S
O154 Cd155 2.300 1_545 S
O154 C161 1.275 . S
Cd155 O154 2.300 1_565 S
Cd155 O163 2.381 . S
Cd155 O164 2.378 . S
O156 Cd157 2.385 . S
O156 C161 1.255 . S
Cd157 O156 2.385 . S
Cd157 O158 2.317 . S
O158 Cd157 2.317 . S
O158 C159 1.232 . S
C159 O158 1.232 . S
C159 O160 1.218 . S
O160 C159 1.218 . S
C161 O154 1.275 . S
C161 O156 1.255 . S
C162 O163 1.258 . S
C162 O164 1.256 . S
O163 Cd155 2.381 . S
O163 C162 1.258 . S
O164 Cd155 2.378 . S
O164 C162 1.256 . S
O165 Cd166 2.300 1_556 S
O165 C172 1.275 . S
Cd166 O165 2.300 1_554 S
Cd166 O174 2.381 1_554 S
Cd166 O175 2.378 . S
O167 Cd168 2.385 1_556 S
O167 C172 1.255 . S
Cd168 O167 2.385 1_554 S
Cd168 O169 2.317 . S
O169 Cd168 2.317 . S
O169 C170 1.232 . S
C170 O169 1.232 . S
C170 O171 1.218 . S
O171 C170 1.218 . S
C172 O165 1.275 . S
C172 O167 1.255 . S
C173 O174 1.258 1_554 S
C173 O175 1.256 . S
O174 Cd166 2.381 1_556 S
O174 C173 1.258 1_556 S
O175 Cd166 2.378 . S
O175 C173 1.256 . S
C176 C177 1.391 . S
C176 C178 1.394 . S
C176 H192 0.931 . S
C177 C176 1.391 . S
C177 C181 1.376 . S
C178 C176 1.394 . S
C178 C179 1.369 . S
C178 C182 1.531 . S
C179 C178 1.369 . S
C179 C180 1.410 . S
C179 C187 1.503 . S
C180 C179 1.410 . S
C180 C181 1.392 . S
C180 C183 1.511 . S
C181 C177 1.376 . S
C181 C180 1.392 . S
C181 H193 0.929 . S
C182 C178 1.531 . S
C182 H194 0.960 . S
C182 H195 0.962 . S
C182 H196 0.960 . S
C183 C180 1.511 . S
C183 H197 0.961 . S
C183 H198 0.961 . S
C183 H199 0.961 . S
C184 C185 1.370 . S
C184 C186 1.363 . S
C184 H200 0.931 . S
C185 C184 1.370 . S
C185 C189 1.408 . S
C186 C184 1.363 . S
C186 C187 1.370 . S
C186 C190 1.524 . S
C187 C179 1.503 . S
C187 C186 1.370 . S
C187 C188 1.403 . S
C188 C187 1.403 . S
C188 C189 1.404 . S
C188 C191 1.539 . S
C189 C185 1.408 . S
C189 C188 1.404 . S
C189 H201 0.930 . S
C190 C186 1.524 . S
C190 H202 0.956 . S
C190 H203 0.961 . S
C190 H204 0.961 . S
C191 C188 1.539 . S
C191 H205 0.958 . S
C191 H206 0.961 . S
C191 H207 0.960 . S
H192 C176 0.931 . S
H193 C181 0.929 . S
H194 C182 0.960 . S
H195 C182 0.962 . S
H196 C182 0.960 . S
H197 C183 0.961 . S
H198 C183 0.961 . S
H199 C183 0.961 . S
H200 C184 0.931 . S
H201 C189 0.930 . S
H202 C190 0.956 . S
H203 C190 0.961 . S
H204 C190 0.961 . S
H205 C191 0.958 . S
H206 C191 0.961 . S
H207 C191 0.960 . S
C208 C209 1.391 . S
C208 C210 1.394 . S
C208 H224 0.931 . S
C209 C208 1.391 . S
C209 C213 1.376 . S
C210 C208 1.394 . S
C210 C211 1.369 . S
C210 C214 1.531 . S
C211 C210 1.369 . S
C211 C212 1.410 . S
C211 C219 1.503 . S
C212 C211 1.410 . S
C212 C213 1.392 . S
C212 C215 1.511 . S
C213 C209 1.376 . S
C213 C212 1.392 . S
C213 H225 0.929 . S
C214 C210 1.531 . S
C214 H226 0.960 . S
C214 H227 0.962 . S
C214 H228 0.960 . S
C215 C212 1.511 . S
C215 H229 0.961 . S
C215 H230 0.961 . S
C215 H231 0.961 . S
C216 C217 1.370 . S
C216 C218 1.363 . S
C216 H232 0.931 . S
C217 C216 1.370 . S
C217 C221 1.408 . S
C218 C216 1.363 . S
C218 C219 1.370 . S
C218 C222 1.524 . S
C219 C211 1.503 . S
C219 C218 1.370 . S
C219 C220 1.403 . S
C220 C219 1.403 . S
C220 C221 1.404 . S
C220 C223 1.539 . S
C221 C217 1.408 . S
C221 C220 1.404 . S
C221 H233 0.930 . S
C222 C218 1.524 . S
C222 H234 0.956 . S
C222 H235 0.961 . S
C222 H236 0.961 . S
C223 C220 1.539 . S
C223 H237 0.958 . S
C223 H238 0.961 . S
C223 H239 0.960 . S
H224 C208 0.931 . S
H225 C213 0.929 . S
H226 C214 0.960 . S
H227 C214 0.962 . S
H228 C214 0.960 . S
H229 C215 0.961 . S
H230 C215 0.961 . S
H231 C215 0.961 . S
H232 C216 0.931 . S
H233 C221 0.930 . S
H234 C222 0.956 . S
H235 C222 0.961 . S
H236 C222 0.961 . S
H237 C223 0.958 . S
H238 C223 0.961 . S
H239 C223 0.960 . S
C240 C241 1.391 . S
C240 C242 1.394 . S
C240 H256 0.931 . S
C241 C240 1.391 . S
C241 C245 1.376 . S
C242 C240 1.394 . S
C242 C243 1.369 . S
C242 C246 1.531 . S
C243 C242 1.369 . S
C243 C244 1.410 . S
C243 C251 1.503 . S
C244 C243 1.410 . S
C244 C245 1.392 . S
C244 C247 1.511 . S
C245 C241 1.376 . S
C245 C244 1.392 . S
C245 H257 0.929 . S
C246 C242 1.531 . S
C246 H258 0.960 . S
C246 H259 0.962 . S
C246 H260 0.960 . S
C247 C244 1.511 . S
C247 H261 0.961 . S
C247 H262 0.961 . S
C247 H263 0.961 . S
C248 C249 1.370 . S
C248 C250 1.363 . S
C248 H264 0.931 . S
C249 C248 1.370 . S
C249 C253 1.408 . S
C250 C248 1.363 . S
C250 C251 1.370 . S
C250 C254 1.524 . S
C251 C243 1.503 . S
C251 C250 1.370 . S
C251 C252 1.403 . S
C252 C251 1.403 . S
C252 C253 1.404 . S
C252 C255 1.539 . S
C253 C249 1.408 . S
C253 C252 1.404 . S
C253 H265 0.930 . S
C254 C250 1.524 . S
C254 H266 0.956 . S
C254 H267 0.961 . S
C254 H268 0.961 . S
C255 C252 1.539 . S
C255 H269 0.958 . S
C255 H270 0.961 . S
C255 H271 0.960 . S
H256 C240 0.931 . S
H257 C245 0.929 . S
H258 C246 0.960 . S
H259 C246 0.962 . S
H260 C246 0.960 . S
H261 C247 0.961 . S
H262 C247 0.961 . S
H263 C247 0.961 . S
H264 C248 0.931 . S
H265 C253 0.930 . S
H266 C254 0.956 . S
H267 C254 0.961 . S
H268 C254 0.961 . S
H269 C255 0.958 . S
H270 C255 0.961 . S
H271 C255 0.960 . S
C272 C273 1.391 . S
C272 C274 1.394 . S
C272 H288 0.931 . S
C273 C272 1.391 . S
C273 C277 1.376 . S
C274 C272 1.394 . S
C274 C275 1.369 . S
C274 C278 1.531 . S
C275 C274 1.369 . S
C275 C276 1.410 . S
C275 C283 1.503 . S
C276 C275 1.410 . S
C276 C277 1.392 . S
C276 C279 1.511 . S
C277 C273 1.376 . S
C277 C276 1.392 . S
C277 H289 0.929 . S
C278 C274 1.531 . S
C278 H290 0.960 . S
C278 H291 0.962 . S
C278 H292 0.960 . S
C279 C276 1.511 . S
C279 H293 0.961 . S
C279 H294 0.961 . S
C279 H295 0.961 . S
C280 C281 1.370 . S
C280 C282 1.363 . S
C280 H296 0.931 . S
C281 C280 1.370 . S
C281 C285 1.408 . S
C282 C280 1.363 . S
C282 C283 1.370 . S
C282 C286 1.524 . S
C283 C275 1.503 . S
C283 C282 1.370 . S
C283 C284 1.403 . S
C284 C283 1.403 . S
C284 C285 1.404 . S
C284 C287 1.539 . S
C285 C281 1.408 . S
C285 C284 1.404 . S
C285 H297 0.930 . S
C286 C282 1.524 . S
C286 H298 0.956 . S
C286 H299 0.961 . S
C286 H300 0.961 . S
C287 C284 1.539 . S
C287 H301 0.958 . S
C287 H302 0.961 . S
C287 H303 0.960 . S
H288 C272 0.931 . S
H289 C277 0.929 . S
H290 C278 0.960 . S
H291 C278 0.962 . S
H292 C278 0.960 . S
H293 C279 0.961 . S
H294 C279 0.961 . S
H295 C279 0.961 . S
H296 C280 0.931 . S
H297 C285 0.930 . S
H298 C286 0.956 . S
H299 C286 0.961 . S
H300 C286 0.961 . S
H301 C287 0.958 . S
H302 C287 0.961 . S
H303 C287 0.960 . S
C304 C305 1.391 . S
C304 C306 1.394 . S
C304 H320 0.931 . S
C305 C304 1.391 . S
C305 C309 1.376 . S
C306 C304 1.394 . S
C306 C307 1.369 . S
C306 C310 1.531 . S
C307 C306 1.369 . S
C307 C308 1.410 . S
C307 C315 1.503 . S
C308 C307 1.410 . S
C308 C309 1.392 . S
C308 C311 1.511 . S
C309 C305 1.376 . S
C309 C308 1.392 . S
C309 H321 0.929 . S
C310 C306 1.531 . S
C310 H322 0.960 . S
C310 H323 0.962 . S
C310 H324 0.960 . S
C311 C308 1.511 . S
C311 H325 0.961 . S
C311 H326 0.961 . S
C311 H327 0.961 . S
C312 C313 1.370 . S
C312 C314 1.363 . S
C312 H328 0.931 . S
C313 C312 1.370 . S
C313 C317 1.408 . S
C314 C312 1.363 . S
C314 C315 1.370 . S
C314 C318 1.524 . S
C315 C307 1.503 . S
C315 C314 1.370 . S
C315 C316 1.403 . S
C316 C315 1.403 . S
C316 C317 1.404 . S
C316 C319 1.539 . S
C317 C313 1.408 . S
C317 C316 1.404 . S
C317 H329 0.930 . S
C318 C314 1.524 . S
C318 H330 0.956 . S
C318 H331 0.961 . S
C318 H332 0.961 . S
C319 C316 1.539 . S
C319 H333 0.958 . S
C319 H334 0.961 . S
C319 H335 0.960 . S
H320 C304 0.931 . S
H321 C309 0.929 . S
H322 C310 0.960 . S
H323 C310 0.962 . S
H324 C310 0.960 . S
H325 C311 0.961 . S
H326 C311 0.961 . S
H327 C311 0.961 . S
H328 C312 0.931 . S
H329 C317 0.930 . S
H330 C318 0.956 . S
H331 C318 0.961 . S
H332 C318 0.961 . S
H333 C319 0.958 . S
H334 C319 0.961 . S
H335 C319 0.960 . S
C336 C337 1.391 . S
C336 C338 1.394 . S
C336 H352 0.931 . S
C337 C336 1.391 . S
C337 C341 1.376 . S
C338 C336 1.394 . S
C338 C339 1.369 . S
C338 C342 1.531 . S
C339 C338 1.369 . S
C339 C340 1.410 . S
C339 C347 1.503 . S
C340 C339 1.410 . S
C340 C341 1.392 . S
C340 C343 1.511 . S
C341 C337 1.376 . S
C341 C340 1.392 . S
C341 H353 0.929 . S
C342 C338 1.531 . S
C342 H354 0.960 . S
C342 H355 0.962 . S
C342 H356 0.960 . S
C343 C340 1.511 . S
C343 H357 0.961 . S
C343 H358 0.961 . S
C343 H359 0.961 . S
C344 C345 1.370 . S
C344 C346 1.363 . S
C344 H360 0.931 . S
C345 C344 1.370 . S
C345 C349 1.408 . S
C346 C344 1.363 . S
C346 C347 1.370 . S
C346 C350 1.524 . S
C347 C339 1.503 . S
C347 C346 1.370 . S
C347 C348 1.403 . S
C348 C347 1.403 . S
C348 C349 1.404 . S
C348 C351 1.539 . S
C349 C345 1.408 . S
C349 C348 1.404 . S
C349 H361 0.930 . S
C350 C346 1.524 . S
C350 H362 0.956 . S
C350 H363 0.961 . S
C350 H364 0.961 . S
C351 C348 1.539 . S
C351 H365 0.958 . S
C351 H366 0.961 . S
C351 H367 0.960 . S
H352 C336 0.931 . S
H353 C341 0.929 . S
H354 C342 0.960 . S
H355 C342 0.962 . S
H356 C342 0.960 . S
H357 C343 0.961 . S
H358 C343 0.961 . S
H359 C343 0.961 . S
H360 C344 0.931 . S
H361 C349 0.930 . S
H362 C350 0.956 . S
H363 C350 0.961 . S
H364 C350 0.961 . S
H365 C351 0.958 . S
H366 C351 0.961 . S
H367 C351 0.960 . S
C368 C369 1.391 . S
C368 C370 1.394 . S
C368 H384 0.931 . S
C369 C368 1.391 . S
C369 C373 1.376 . S
C370 C368 1.394 . S
C370 C371 1.369 . S
C370 C374 1.531 . S
C371 C370 1.369 . S
C371 C372 1.410 . S
C371 C379 1.503 . S
C372 C371 1.410 . S
C372 C373 1.392 . S
C372 C375 1.511 . S
C373 C369 1.376 . S
C373 C372 1.392 . S
C373 H385 0.929 . S
C374 C370 1.531 . S
C374 H386 0.960 . S
C374 H387 0.962 . S
C374 H388 0.960 . S
C375 C372 1.511 . S
C375 H389 0.961 . S
C375 H390 0.961 . S
C375 H391 0.961 . S
C376 C377 1.370 . S
C376 C378 1.363 . S
C376 H392 0.931 . S
C377 C376 1.370 . S
C377 C381 1.408 . S
C378 C376 1.363 . S
C378 C379 1.370 . S
C378 C382 1.524 . S
C379 C371 1.503 . S
C379 C378 1.370 . S
C379 C380 1.403 . S
C380 C379 1.403 . S
C380 C381 1.404 . S
C380 C383 1.539 . S
C381 C377 1.408 . S
C381 C380 1.404 . S
C381 H393 0.930 . S
C382 C378 1.524 . S
C382 H394 0.956 . S
C382 H395 0.961 . S
C382 H396 0.961 . S
C383 C380 1.539 . S
C383 H397 0.958 . S
C383 H398 0.961 . S
C383 H399 0.960 . S
H384 C368 0.931 . S
H385 C373 0.929 . S
H386 C374 0.960 . S
H387 C374 0.962 . S
H388 C374 0.960 . S
H389 C375 0.961 . S
H390 C375 0.961 . S
H391 C375 0.961 . S
H392 C376 0.931 . S
H393 C381 0.930 . S
H394 C382 0.956 . S
H395 C382 0.961 . S
H396 C382 0.961 . S
H397 C383 0.958 . S
H398 C383 0.961 . S
H399 C383 0.960 . S
C400 C401 1.391 . S
C400 C402 1.394 . S
C400 H416 0.931 . S
C401 C400 1.391 . S
C401 C405 1.376 . S
C402 C400 1.394 . S
C402 C403 1.369 . S
C402 C406 1.531 . S
C403 C402 1.369 . S
C403 C404 1.410 . S
C403 C411 1.503 . S
C404 C403 1.410 . S
C404 C405 1.392 . S
C404 C407 1.511 . S
C405 C401 1.376 . S
C405 C404 1.392 . S
C405 H417 0.929 . S
C406 C402 1.531 . S
C406 H418 0.960 . S
C406 H419 0.962 . S
C406 H420 0.960 . S
C407 C404 1.511 . S
C407 H421 0.961 . S
C407 H422 0.961 . S
C407 H423 0.961 . S
C408 C409 1.370 . S
C408 C410 1.363 . S
C408 H424 0.931 . S
C409 C408 1.370 . S
C409 C413 1.408 . S
C410 C408 1.363 . S
C410 C411 1.370 . S
C410 C414 1.524 . S
C411 C403 1.503 . S
C411 C410 1.370 . S
C411 C412 1.403 . S
C412 C411 1.403 . S
C412 C413 1.404 . S
C412 C415 1.539 . S
C413 C409 1.408 . S
C413 C412 1.404 . S
C413 H425 0.930 . S
C414 C410 1.524 . S
C414 H426 0.956 . S
C414 H427 0.961 . S
C414 H428 0.961 . S
C415 C412 1.539 . S
C415 H429 0.958 . S
C415 H430 0.961 . S
C415 H431 0.960 . S
H416 C400 0.931 . S
H417 C405 0.929 . S
H418 C406 0.960 . S
H419 C406 0.962 . S
H420 C406 0.960 . S
H421 C407 0.961 . S
H422 C407 0.961 . S
H423 C407 0.961 . S
H424 C408 0.931 . S
H425 C413 0.930 . S
H426 C414 0.956 . S
H427 C414 0.961 . S
H428 C414 0.961 . S
H429 C415 0.958 . S
H430 C415 0.961 . S
H431 C415 0.960 . S
C432 C433 1.391 . S
C432 C434 1.394 . S
C432 H448 0.931 . S
C433 C432 1.391 . S
C433 C437 1.376 . S
C434 C432 1.394 . S
C434 C435 1.369 . S
C434 C438 1.531 . S
C435 C434 1.369 . S
C435 C436 1.410 . S
C435 C443 1.503 . S
C436 C435 1.410 . S
C436 C437 1.392 . S
C436 C439 1.511 . S
C437 C433 1.376 . S
C437 C436 1.392 . S
C437 H449 0.929 . S
C438 C434 1.531 . S
C438 H450 0.960 . S
C438 H451 0.962 . S
C438 H452 0.960 . S
C439 C436 1.511 . S
C439 H453 0.961 . S
C439 H454 0.961 . S
C439 H455 0.961 . S
C440 C441 1.370 . S
C440 C442 1.363 . S
C440 H456 0.931 . S
C441 C440 1.370 . S
C441 C445 1.408 . S
C442 C440 1.363 . S
C442 C443 1.370 . S
C442 C446 1.524 . S
C443 C435 1.503 . S
C443 C442 1.370 . S
C443 C444 1.403 . S
C444 C443 1.403 . S
C444 C445 1.404 . S
C444 C447 1.539 . S
C445 C441 1.408 . S
C445 C444 1.404 . S
C445 H457 0.930 . S
C446 C442 1.524 . S
C446 H458 0.956 . S
C446 H459 0.961 . S
C446 H460 0.961 . S
C447 C444 1.539 . S
C447 H461 0.958 . S
C447 H462 0.961 . S
C447 H463 0.960 . S
H448 C432 0.931 . S
H449 C437 0.929 . S
H450 C438 0.960 . S
H451 C438 0.962 . S
H452 C438 0.960 . S
H453 C439 0.961 . S
H454 C439 0.961 . S
H455 C439 0.961 . S
H456 C440 0.931 . S
H457 C445 0.930 . S
H458 C446 0.956 . S
H459 C446 0.961 . S
H460 C446 0.961 . S
H461 C447 0.958 . S
H462 C447 0.961 . S
H463 C447 0.960 . S
C464 C465 1.391 . S
C464 C466 1.394 . S
C464 H480 0.931 . S
C465 C464 1.391 . S
C465 C469 1.376 . S
C466 C464 1.394 . S
C466 C467 1.369 . S
C466 C470 1.531 . S
C467 C466 1.369 . S
C467 C468 1.410 . S
C467 C475 1.503 . S
C468 C467 1.410 . S
C468 C469 1.392 . S
C468 C471 1.511 . S
C469 C465 1.376 . S
C469 C468 1.392 . S
C469 H481 0.929 . S
C470 C466 1.531 . S
C470 H482 0.960 . S
C470 H483 0.962 . S
C470 H484 0.960 . S
C471 C468 1.511 . S
C471 H485 0.961 . S
C471 H486 0.961 . S
C471 H487 0.961 . S
C472 C473 1.370 . S
C472 C474 1.363 . S
C472 H488 0.931 . S
C473 C472 1.370 . S
C473 C477 1.408 . S
C474 C472 1.363 . S
C474 C475 1.370 . S
C474 C478 1.524 . S
C475 C467 1.503 . S
C475 C474 1.370 . S
C475 C476 1.403 . S
C476 C475 1.403 . S
C476 C477 1.404 . S
C476 C479 1.539 . S
C477 C473 1.408 . S
C477 C476 1.404 . S
C477 H489 0.930 . S
C478 C474 1.524 . S
C478 H490 0.956 . S
C478 H491 0.961 . S
C478 H492 0.961 . S
C479 C476 1.539 . S
C479 H493 0.958 . S
C479 H494 0.961 . S
C479 H495 0.960 . S
H480 C464 0.931 . S
H481 C469 0.929 . S
H482 C470 0.960 . S
H483 C470 0.962 . S
H484 C470 0.960 . S
H485 C471 0.961 . S
H486 C471 0.961 . S
H487 C471 0.961 . S
H488 C472 0.931 . S
H489 C477 0.930 . S
H490 C478 0.956 . S
H491 C478 0.961 . S
H492 C478 0.961 . S
H493 C479 0.958 . S
H494 C479 0.961 . S
H495 C479 0.960 . S
C496 C497 1.391 . S
C496 C498 1.394 . S
C496 H512 0.931 . S
C497 C496 1.391 . S
C497 C501 1.376 . S
C498 C496 1.394 . S
C498 C499 1.369 . S
C498 C502 1.531 . S
C499 C498 1.369 . S
C499 C500 1.410 . S
C499 C507 1.503 . S
C500 C499 1.410 . S
C500 C501 1.392 . S
C500 C503 1.511 . S
C501 C497 1.376 . S
C501 C500 1.392 . S
C501 H513 0.929 . S
C502 C498 1.531 . S
C502 H514 0.960 . S
C502 H515 0.962 . S
C502 H516 0.960 . S
C503 C500 1.511 . S
C503 H517 0.961 . S
C503 H518 0.961 . S
C503 H519 0.961 . S
C504 C505 1.370 . S
C504 C506 1.363 . S
C504 H520 0.931 . S
C505 C504 1.370 . S
C505 C509 1.408 . S
C506 C504 1.363 . S
C506 C507 1.370 . S
C506 C510 1.524 . S
C507 C499 1.503 . S
C507 C506 1.370 . S
C507 C508 1.403 . S
C508 C507 1.403 . S
C508 C509 1.404 . S
C508 C511 1.539 . S
C509 C505 1.408 . S
C509 C508 1.404 . S
C509 H521 0.930 . S
C510 C506 1.524 . S
C510 H522 0.956 . S
C510 H523 0.961 . S
C510 H524 0.961 . S
C511 C508 1.539 . S
C511 H525 0.958 . S
C511 H526 0.961 . S
C511 H527 0.960 . S
H512 C496 0.931 . S
H513 C501 0.929 . S
H514 C502 0.960 . S
H515 C502 0.962 . S
H516 C502 0.960 . S
H517 C503 0.961 . S
H518 C503 0.961 . S
H519 C503 0.961 . S
H520 C504 0.931 . S
H521 C509 0.930 . S
H522 C510 0.956 . S
H523 C510 0.961 . S
H524 C510 0.961 . S
H525 C511 0.958 . S
H526 C511 0.961 . S
H527 C511 0.960 . S
C528 C529 1.391 . S
C528 C530 1.394 . S
C528 H544 0.931 . S
C529 C528 1.391 . S
C529 C533 1.376 . S
C530 C528 1.394 . S
C530 C531 1.369 . S
C530 C534 1.531 . S
C531 C530 1.369 . S
C531 C532 1.410 . S
C531 C539 1.503 . S
C532 C531 1.410 . S
C532 C533 1.392 . S
C532 C535 1.511 . S
C533 C529 1.376 . S
C533 C532 1.392 . S
C533 H545 0.929 . S
C534 C530 1.531 . S
C534 H546 0.960 . S
C534 H547 0.962 . S
C534 H548 0.960 . S
C535 C532 1.511 . S
C535 H549 0.961 . S
C535 H550 0.961 . S
C535 H551 0.961 . S
C536 C537 1.370 . S
C536 C538 1.363 . S
C536 H552 0.931 . S
C537 C536 1.370 . S
C537 C541 1.408 . S
C538 C536 1.363 . S
C538 C539 1.370 . S
C538 C542 1.524 . S
C539 C531 1.503 . S
C539 C538 1.370 . S
C539 C540 1.403 . S
C540 C539 1.403 . S
C540 C541 1.404 . S
C540 C543 1.539 . S
C541 C537 1.408 . S
C541 C540 1.404 . S
C541 H553 0.930 . S
C542 C538 1.524 . S
C542 H554 0.956 . S
C542 H555 0.961 . S
C542 H556 0.961 . S
C543 C540 1.539 . S
C543 H557 0.958 . S
C543 H558 0.961 . S
C543 H559 0.960 . S
H544 C528 0.931 . S
H545 C533 0.929 . S
H546 C534 0.960 . S
H547 C534 0.962 . S
H548 C534 0.960 . S
H549 C535 0.961 . S
H550 C535 0.961 . S
H551 C535 0.961 . S
H552 C536 0.931 . S
H553 C541 0.930 . S
H554 C542 0.956 . S
H555 C542 0.961 . S
H556 C542 0.961 . S
H557 C543 0.958 . S
H558 C543 0.961 . S
H559 C543 0.960 . S
C560 C561 1.391 . S
C560 C562 1.394 . S
C560 H576 0.931 . S
C561 C560 1.391 . S
C561 C565 1.376 . S
C562 C560 1.394 . S
C562 C563 1.369 . S
C562 C566 1.531 . S
C563 C562 1.369 . S
C563 C564 1.410 . S
C563 C571 1.503 . S
C564 C563 1.410 . S
C564 C565 1.392 . S
C564 C567 1.511 . S
C565 C561 1.376 . S
C565 C564 1.392 . S
C565 H577 0.929 . S
C566 C562 1.531 . S
C566 H578 0.960 . S
C566 H579 0.962 . S
C566 H580 0.960 . S
C567 C564 1.511 . S
C567 H581 0.961 . S
C567 H582 0.961 . S
C567 H583 0.961 . S
C568 C569 1.370 . S
C568 C570 1.363 . S
C568 H584 0.931 . S
C569 C568 1.370 . S
C569 C573 1.408 . S
C570 C568 1.363 . S
C570 C571 1.370 . S
C570 C574 1.524 . S
C571 C563 1.503 . S
C571 C570 1.370 . S
C571 C572 1.403 . S
C572 C571 1.403 . S
C572 C573 1.404 . S
C572 C575 1.539 . S
C573 C569 1.408 . S
C573 C572 1.404 . S
C573 H585 0.930 . S
C574 C570 1.524 . S
C574 H586 0.956 . S
C574 H587 0.961 . S
C574 H588 0.961 . S
C575 C572 1.539 . S
C575 H589 0.958 . S
C575 H590 0.961 . S
C575 H591 0.960 . S
H576 C560 0.931 . S
H577 C565 0.929 . S
H578 C566 0.960 . S
H579 C566 0.962 . S
H580 C566 0.960 . S
H581 C567 0.961 . S
H582 C567 0.961 . S
H583 C567 0.961 . S
H584 C568 0.931 . S
H585 C573 0.930 . S
H586 C574 0.956 . S
H587 C574 0.961 . S
H588 C574 0.961 . S
H589 C575 0.958 . S
H590 C575 0.961 . S
H591 C575 0.960 . S
C592 C593 1.391 . S
C592 C594 1.394 . S
C592 H608 0.931 . S
C593 C592 1.391 . S
C593 C597 1.376 . S
C594 C592 1.394 . S
C594 C595 1.369 . S
C594 C598 1.531 . S
C595 C594 1.369 . S
C595 C596 1.410 . S
C595 C603 1.503 . S
C596 C595 1.410 . S
C596 C597 1.392 . S
C596 C599 1.511 . S
C597 C593 1.376 . S
C597 C596 1.392 . S
C597 H609 0.929 . S
C598 C594 1.531 . S
C598 H610 0.960 . S
C598 H611 0.962 . S
C598 H612 0.960 . S
C599 C596 1.511 . S
C599 H613 0.961 . S
C599 H614 0.961 . S
C599 H615 0.961 . S
C600 C601 1.370 . S
C600 C602 1.363 . S
C600 H616 0.931 . S
C601 C600 1.370 . S
C601 C605 1.408 . S
C602 C600 1.363 . S
C602 C603 1.370 . S
C602 C606 1.524 . S
C603 C595 1.503 . S
C603 C602 1.370 . S
C603 C604 1.403 . S
C604 C603 1.403 . S
C604 C605 1.404 . S
C604 C607 1.539 . S
C605 C601 1.408 . S
C605 C604 1.404 . S
C605 H617 0.930 . S
C606 C602 1.524 . S
C606 H618 0.956 . S
C606 H619 0.961 . S
C606 H620 0.961 . S
C607 C604 1.539 . S
C607 H621 0.958 . S
C607 H622 0.961 . S
C607 H623 0.960 . S
H608 C592 0.931 . S
H609 C597 0.929 . S
H610 C598 0.960 . S
H611 C598 0.962 . S
H612 C598 0.960 . S
H613 C599 0.961 . S
H614 C599 0.961 . S
H615 C599 0.961 . S
H616 C600 0.931 . S
H617 C605 0.930 . S
H618 C606 0.956 . S
H619 C606 0.961 . S
H620 C606 0.961 . S
H621 C607 0.958 . S
H622 C607 0.961 . S
H623 C607 0.960 . S
C624 C625 1.391 . S
C624 C626 1.394 . S
C624 H640 0.931 . S
C625 C624 1.391 . S
C625 C629 1.376 . S
C626 C624 1.394 . S
C626 C627 1.369 . S
C626 C630 1.531 . S
C627 C626 1.369 . S
C627 C628 1.410 . S
C627 C635 1.503 . S
C628 C627 1.410 . S
C628 C629 1.392 . S
C628 C631 1.511 . S
C629 C625 1.376 . S
C629 C628 1.392 . S
C629 H641 0.929 . S
C630 C626 1.531 . S
C630 H642 0.960 . S
C630 H643 0.962 . S
C630 H644 0.960 . S
C631 C628 1.511 . S
C631 H645 0.961 . S
C631 H646 0.961 . S
C631 H647 0.961 . S
C632 C633 1.370 . S
C632 C634 1.363 . S
C632 H648 0.931 . S
C633 C632 1.370 . S
C633 C637 1.408 . S
C634 C632 1.363 . S
C634 C635 1.370 . S
C634 C638 1.524 . S
C635 C627 1.503 . S
C635 C634 1.370 . S
C635 C636 1.403 . S
C636 C635 1.403 . S
C636 C637 1.404 . S
C636 C639 1.539 . S
C637 C633 1.408 . S
C637 C636 1.404 . S
C637 H649 0.930 . S
C638 C634 1.524 . S
C638 H650 0.956 . S
C638 H651 0.961 . S
C638 H652 0.961 . S
C639 C636 1.539 . S
C639 H653 0.958 . S
C639 H654 0.961 . S
C639 H655 0.960 . S
H640 C624 0.931 . S
H641 C629 0.929 . S
H642 C630 0.960 . S
H643 C630 0.962 . S
H644 C630 0.960 . S
H645 C631 0.961 . S
H646 C631 0.961 . S
H647 C631 0.961 . S
H648 C632 0.931 . S
H649 C637 0.930 . S
H650 C638 0.956 . S
H651 C638 0.961 . S
H652 C638 0.961 . S
H653 C639 0.958 . S
H654 C639 0.961 . S
H655 C639 0.960 . S
C656 C657 1.391 . S
C656 C658 1.394 . S
C656 H672 0.931 . S
C657 C656 1.391 . S
C657 C661 1.376 . S
C658 C656 1.394 . S
C658 C659 1.369 . S
C658 C662 1.531 . S
C659 C658 1.369 . S
C659 C660 1.410 . S
C659 C667 1.503 . S
C660 C659 1.410 . S
C660 C661 1.392 . S
C660 C663 1.511 . S
C661 C657 1.376 . S
C661 C660 1.392 . S
C661 H673 0.929 . S
C662 C658 1.531 . S
C662 H674 0.960 . S
C662 H675 0.962 . S
C662 H676 0.960 . S
C663 C660 1.511 . S
C663 H677 0.961 . S
C663 H678 0.961 . S
C663 H679 0.961 . S
C664 C665 1.370 . S
C664 C666 1.363 . S
C664 H680 0.931 . S
C665 C664 1.370 . S
C665 C669 1.408 . S
C666 C664 1.363 . S
C666 C667 1.370 . S
C666 C670 1.524 . S
C667 C659 1.503 . S
C667 C666 1.370 . S
C667 C668 1.403 . S
C668 C667 1.403 . S
C668 C669 1.404 . S
C668 C671 1.539 . S
C669 C665 1.408 . S
C669 C668 1.404 . S
C669 H681 0.930 . S
C670 C666 1.524 . S
C670 H682 0.956 . S
C670 H683 0.961 . S
C670 H684 0.961 . S
C671 C668 1.539 . S
C671 H685 0.958 . S
C671 H686 0.961 . S
C671 H687 0.960 . S
H672 C656 0.931 . S
H673 C661 0.929 . S
H674 C662 0.960 . S
H675 C662 0.962 . S
H676 C662 0.960 . S
H677 C663 0.961 . S
H678 C663 0.961 . S
H679 C663 0.961 . S
H680 C664 0.931 . S
H681 C669 0.930 . S
H682 C670 0.956 . S
H683 C670 0.961 . S
H684 C670 0.961 . S
H685 C671 0.958 . S
H686 C671 0.961 . S
H687 C671 0.960 . S
C688 C689 1.391 1_556 S
C688 C690 1.394 . S
C688 H704 0.931 . S
C689 C688 1.391 1_554 S
C689 C693 1.376 . S
C690 C688 1.394 . S
C690 C691 1.369 1_556 S
C690 C694 1.531 . S
C691 C690 1.369 1_554 S
C691 C692 1.410 . S
C691 C699 1.503 . S
C692 C691 1.410 . S
C692 C693 1.392 . S
C692 C695 1.511 . S
C693 C689 1.376 . S
C693 C692 1.392 . S
C693 H705 0.929 . S
C694 C690 1.531 . S
C694 H706 0.960 . S
C694 H707 0.962 . S
C694 H708 0.960 . S
C695 C692 1.511 . S
C695 H709 0.961 . S
C695 H710 0.961 . S
C695 H711 0.961 . S
C696 C697 1.370 . S
C696 C698 1.363 . S
C696 H712 0.931 . S
C697 C696 1.370 . S
C697 C701 1.408 1_554 S
C698 C696 1.363 . S
C698 C699 1.370 . S
C698 C702 1.524 . S
C699 C691 1.503 . S
C699 C698 1.370 . S
C699 C700 1.403 1_554 S
C700 C699 1.403 1_556 S
C700 C701 1.404 . S
C700 C703 1.539 . S
C701 C697 1.408 1_556 S
C701 C700 1.404 . S
C701 H713 0.930 . S
C702 C698 1.524 . S
C702 H714 0.956 . S
C702 H715 0.961 . S
C702 H716 0.961 . S
C703 C700 1.539 . S
C703 H717 0.958 . S
C703 H718 0.961 . S
C703 H719 0.960 . S
H704 C688 0.931 . S
H705 C693 0.929 . S
H706 C694 0.960 . S
H707 C694 0.962 . S
H708 C694 0.960 . S
H709 C695 0.961 . S
H710 C695 0.961 . S
H711 C695 0.961 . S
H712 C696 0.931 . S
H713 C701 0.930 . S
H714 C702 0.956 . S
H715 C702 0.961 . S
H716 C702 0.961 . S
H717 C703 0.958 . S
H718 C703 0.961 . S
H719 C703 0.960 . S
C720 C721 1.391 . S
C720 C722 1.394 . S
C720 H736 0.931 . S
C721 C720 1.391 . S
C721 C725 1.376 . S
C722 C720 1.394 . S
C722 C723 1.369 . S
C722 C726 1.531 . S
C723 C722 1.369 . S
C723 C724 1.410 . S
C723 C731 1.503 . S
C724 C723 1.410 . S
C724 C725 1.392 . S
C724 C727 1.511 . S
C725 C721 1.376 . S
C725 C724 1.392 . S
C725 H737 0.929 . S
C726 C722 1.531 . S
C726 H738 0.960 . S
C726 H739 0.962 . S
C726 H740 0.960 . S
C727 C724 1.511 . S
C727 H741 0.961 . S
C727 H742 0.961 . S
C727 H743 0.961 . S
C728 C729 1.370 . S
C728 C730 1.363 . S
C728 H744 0.931 . S
C729 C728 1.370 . S
C729 C733 1.408 . S
C730 C728 1.363 . S
C730 C731 1.370 . S
C730 C734 1.524 . S
C731 C723 1.503 . S
C731 C730 1.370 . S
C731 C732 1.403 . S
C732 C731 1.403 . S
C732 C733 1.404 . S
C732 C735 1.539 . S
C733 C729 1.408 . S
C733 C732 1.404 . S
C733 H745 0.930 . S
C734 C730 1.524 . S
C734 H746 0.956 . S
C734 H747 0.961 . S
C734 H748 0.961 . S
C735 C732 1.539 . S
C735 H749 0.958 . S
C735 H750 0.961 . S
C735 H751 0.960 . S
H736 C720 0.931 . S
H737 C725 0.929 . S
H738 C726 0.960 . S
H739 C726 0.962 . S
H740 C726 0.960 . S
H741 C727 0.961 . S
H742 C727 0.961 . S
H743 C727 0.961 . S
H744 C728 0.931 . S
H745 C733 0.930 . S
H746 C734 0.956 . S
H747 C734 0.961 . S
H748 C734 0.961 . S
H749 C735 0.958 . S
H750 C735 0.961 . S
H751 C735 0.960 . S
C752 C753 1.391 . S
C752 C754 1.394 . S
C752 H768 0.931 . S
C753 C752 1.391 . S
C753 C757 1.376 1_554 S
C754 C752 1.394 . S
C754 C755 1.369 . S
C754 C758 1.531 . S
C755 C754 1.369 . S
C755 C756 1.410 . S
C755 C763 1.503 . S
C756 C755 1.410 . S
C756 C757 1.392 1_554 S
C756 C759 1.511 1_554 S
C757 C753 1.376 1_556 S
C757 C756 1.392 1_556 S
C757 H769 0.929 . S
C758 C754 1.531 . S
C758 H770 0.960 . S
C758 H771 0.962 . S
C758 H772 0.960 . S
C759 C756 1.511 1_556 S
C759 H773 0.961 . S
C759 H774 0.961 . S
C759 H775 0.961 . S
C760 C761 1.370 . S
C760 C762 1.363 . S
C760 H776 0.931 1_554 S
C761 C760 1.370 . S
C761 C765 1.408 . S
C762 C760 1.363 . S
C762 C763 1.370 . S
C762 C766 1.524 1_554 S
C763 C755 1.503 . S
C763 C762 1.370 . S
C763 C764 1.403 . S
C764 C763 1.403 . S
C764 C765 1.404 . S
C764 C767 1.539 . S
C765 C761 1.408 . S
C765 C764 1.404 . S
C765 H777 0.930 . S
C766 C762 1.524 1_556 S
C766 H778 0.956 . S
C766 H779 0.961 . S
C766 H780 0.961 . S
C767 C764 1.539 . S
C767 H781 0.958 . S
C767 H782 0.961 . S
C767 H783 0.960 . S
H768 C752 0.931 . S
H769 C757 0.929 . S
H770 C758 0.960 . S
H771 C758 0.962 . S
H772 C758 0.960 . S
H773 C759 0.961 . S
H774 C759 0.961 . S
H775 C759 0.961 . S
H776 C760 0.931 1_556 S
H777 C765 0.930 . S
H778 C766 0.956 . S
H779 C766 0.961 . S
H780 C766 0.961 . S
H781 C767 0.958 . S
H782 C767 0.961 . S
H783 C767 0.960 . S
C784 C785 1.391 . S
C784 C786 1.394 . S
C784 H800 0.931 . S
C785 C784 1.391 . S
C785 C789 1.376 . S
C786 C784 1.394 . S
C786 C787 1.369 . S
C786 C790 1.531 . S
C787 C786 1.369 . S
C787 C788 1.410 . S
C787 C795 1.503 . S
C788 C787 1.410 . S
C788 C789 1.392 . S
C788 C791 1.511 . S
C789 C785 1.376 . S
C789 C788 1.392 . S
C789 H801 0.929 . S
C790 C786 1.531 . S
C790 H802 0.960 . S
C790 H803 0.962 . S
C790 H804 0.960 . S
C791 C788 1.511 . S
C791 H805 0.961 . S
C791 H806 0.961 . S
C791 H807 0.961 . S
C792 C793 1.370 . S
C792 C794 1.363 . S
C792 H808 0.931 . S
C793 C792 1.370 . S
C793 C797 1.408 . S
C794 C792 1.363 . S
C794 C795 1.370 . S
C794 C798 1.524 . S
C795 C787 1.503 . S
C795 C794 1.370 . S
C795 C796 1.403 . S
C796 C795 1.403 . S
C796 C797 1.404 . S
C796 C799 1.539 . S
C797 C793 1.408 . S
C797 C796 1.404 . S
C797 H809 0.930 . S
C798 C794 1.524 . S
C798 H810 0.956 . S
C798 H811 0.961 . S
C798 H812 0.961 . S
C799 C796 1.539 . S
C799 H813 0.958 . S
C799 H814 0.961 . S
C799 H815 0.960 . S
H800 C784 0.931 . S
H801 C789 0.929 . S
H802 C790 0.960 . S
H803 C790 0.962 . S
H804 C790 0.960 . S
H805 C791 0.961 . S
H806 C791 0.961 . S
H807 C791 0.961 . S
H808 C792 0.931 . S
H809 C797 0.930 . S
H810 C798 0.956 . S
H811 C798 0.961 . S
H812 C798 0.961 . S
H813 C799 0.958 . S
H814 C799 0.961 . S
H815 C799 0.960 . S
C816 C817 1.391 . S
C816 C818 1.394 . S
C816 H832 0.931 . S
C817 C816 1.391 . S
C817 C821 1.376 . S
C818 C816 1.394 . S
C818 C819 1.369 . S
C818 C822 1.531 . S
C819 C818 1.369 . S
C819 C820 1.410 . S
C819 C827 1.503 . S
C820 C819 1.410 . S
C820 C821 1.392 . S
C820 C823 1.511 . S
C821 C817 1.376 . S
C821 C820 1.392 . S
C821 H833 0.929 . S
C822 C818 1.531 . S
C822 H834 0.960 . S
C822 H835 0.962 . S
C822 H836 0.960 . S
C823 C820 1.511 . S
C823 H837 0.961 . S
C823 H838 0.961 . S
C823 H839 0.961 . S
C824 C825 1.370 . S
C824 C826 1.363 . S
C824 H840 0.931 . S
C825 C824 1.370 . S
C825 C829 1.408 . S
C826 C824 1.363 . S
C826 C827 1.370 . S
C826 C830 1.524 . S
C827 C819 1.503 . S
C827 C826 1.370 . S
C827 C828 1.403 . S
C828 C827 1.403 . S
C828 C829 1.404 . S
C828 C831 1.539 . S
C829 C825 1.408 . S
C829 C828 1.404 . S
C829 H841 0.930 . S
C830 C826 1.524 . S
C830 H842 0.956 . S
C830 H843 0.961 . S
C830 H844 0.961 . S
C831 C828 1.539 . S
C831 H845 0.958 . S
C831 H846 0.961 . S
C831 H847 0.960 . S
H832 C816 0.931 . S
H833 C821 0.929 . S
H834 C822 0.960 . S
H835 C822 0.962 . S
H836 C822 0.960 . S
H837 C823 0.961 . S
H838 C823 0.961 . S
H839 C823 0.961 . S
H840 C824 0.931 . S
H841 C829 0.930 . S
H842 C830 0.956 . S
H843 C830 0.961 . S
H844 C830 0.961 . S
H845 C831 0.958 . S
H846 C831 0.961 . S
H847 C831 0.960 . S
C848 C849 1.391 . S
C848 C850 1.394 . S
C848 H864 0.931 . S
C849 C848 1.391 . S
C849 C853 1.376 . S
C850 C848 1.394 . S
C850 C851 1.369 . S
C850 C854 1.531 . S
C851 C850 1.369 . S
C851 C852 1.410 . S
C851 C859 1.503 . S
C852 C851 1.410 . S
C852 C853 1.392 . S
C852 C855 1.511 . S
C853 C849 1.376 . S
C853 C852 1.392 . S
C853 H865 0.929 . S
C854 C850 1.531 . S
C854 H866 0.960 . S
C854 H867 0.962 . S
C854 H868 0.960 . S
C855 C852 1.511 . S
C855 H869 0.961 . S
C855 H870 0.961 . S
C855 H871 0.961 . S
C856 C857 1.370 1_556 S
C856 C858 1.363 . S
C856 H872 0.931 . S
C857 C856 1.370 1_554 S
C857 C861 1.408 . S
C858 C856 1.363 . S
C858 C859 1.370 1_556 S
C858 C862 1.524 . S
C859 C851 1.503 . S
C859 C858 1.370 1_554 S
C859 C860 1.403 . S
C860 C859 1.403 . S
C860 C861 1.404 . S
C860 C863 1.539 . S
C861 C857 1.408 . S
C861 C860 1.404 . S
C861 H873 0.930 . S
C862 C858 1.524 . S
C862 H874 0.956 . S
C862 H875 0.961 . S
C862 H876 0.961 . S
C863 C860 1.539 . S
C863 H877 0.958 . S
C863 H878 0.961 . S
C863 H879 0.960 . S
H864 C848 0.931 . S
H865 C853 0.929 . S
H866 C854 0.960 . S
H867 C854 0.962 . S
H868 C854 0.960 . S
H869 C855 0.961 . S
H870 C855 0.961 . S
H871 C855 0.961 . S
H872 C856 0.931 . S
H873 C861 0.930 . S
H874 C862 0.956 . S
H875 C862 0.961 . S
H876 C862 0.961 . S
H877 C863 0.958 . S
H878 C863 0.961 . S
H879 C863 0.960 . S
C880 C881 1.391 . S
C880 C882 1.394 . S
C880 H896 0.931 . S
C881 C880 1.391 . S
C881 C885 1.376 . S
C882 C880 1.394 . S
C882 C883 1.369 . S
C882 C886 1.531 . S
C883 C882 1.369 . S
C883 C884 1.410 . S
C883 C891 1.503 . S
C884 C883 1.410 . S
C884 C885 1.392 . S
C884 C887 1.511 . S
C885 C881 1.376 . S
C885 C884 1.392 . S
C885 H897 0.929 . S
C886 C882 1.531 . S
C886 H898 0.960 . S
C886 H899 0.962 . S
C886 H900 0.960 . S
C887 C884 1.511 . S
C887 H901 0.961 . S
C887 H902 0.961 . S
C887 H903 0.961 . S
C888 C889 1.370 . S
C888 C890 1.363 . S
C888 H904 0.931 . S
C889 C888 1.370 . S
C889 C893 1.408 . S
C890 C888 1.363 . S
C890 C891 1.370 . S
C890 C894 1.524 . S
C891 C883 1.503 . S
C891 C890 1.370 . S
C891 C892 1.403 . S
C892 C891 1.403 . S
C892 C893 1.404 . S
C892 C895 1.539 . S
C893 C889 1.408 . S
C893 C892 1.404 . S
C893 H905 0.930 . S
C894 C890 1.524 . S
C894 H906 0.956 . S
C894 H907 0.961 . S
C894 H908 0.961 . S
C895 C892 1.539 . S
C895 H909 0.958 . S
C895 H910 0.961 . S
C895 H911 0.960 . S
H896 C880 0.931 . S
H897 C885 0.929 . S
H898 C886 0.960 . S
H899 C886 0.962 . S
H900 C886 0.960 . S
H901 C887 0.961 . S
H902 C887 0.961 . S
H903 C887 0.961 . S
H904 C888 0.931 . S
H905 C893 0.930 . S
H906 C894 0.956 . S
H907 C894 0.961 . S
H908 C894 0.961 . S
H909 C895 0.958 . S
H910 C895 0.961 . S
H911 C895 0.960 . S
C912 C913 1.391 1_556 S
C912 C914 1.394 . S
C912 H928 0.931 . S
C913 C912 1.391 1_554 S
C913 C917 1.376 . S
C914 C912 1.394 . S
C914 C915 1.369 1_556 S
C914 C918 1.531 . S
C915 C914 1.369 1_554 S
C915 C916 1.410 . S
C915 C923 1.503 . S
C916 C915 1.410 . S
C916 C917 1.392 . S
C916 C919 1.511 . S
C917 C913 1.376 . S
C917 C916 1.392 . S
C917 H929 0.929 . S
C918 C914 1.531 . S
C918 H930 0.960 . S
C918 H931 0.962 . S
C918 H932 0.960 . S
C919 C916 1.511 . S
C919 H933 0.961 . S
C919 H934 0.961 . S
C919 H935 0.961 . S
C920 C921 1.370 . S
C920 C922 1.363 . S
C920 H936 0.931 1_554 S
C921 C920 1.370 . S
C921 C925 1.408 . S
C922 C920 1.363 . S
C922 C923 1.370 . S
C922 C926 1.524 1_554 S
C923 C915 1.503 . S
C923 C922 1.370 . S
C923 C924 1.403 . S
C924 C923 1.403 . S
C924 C925 1.404 . S
C924 C927 1.539 . S
C925 C921 1.408 . S
C925 C924 1.404 . S
C925 H937 0.930 . S
C926 C922 1.524 1_556 S
C926 H938 0.956 . S
C926 H939 0.961 1_556 S
C926 H940 0.961 . S
C927 C924 1.539 . S
C927 H941 0.958 . S
C927 H942 0.961 . S
C927 H943 0.960 . S
H928 C912 0.931 . S
H929 C917 0.929 . S
H930 C918 0.960 . S
H931 C918 0.962 . S
H932 C918 0.960 . S
H933 C919 0.961 . S
H934 C919 0.961 . S
H935 C919 0.961 . S
H936 C920 0.931 1_556 S
H937 C925 0.930 . S
H938 C926 0.956 . S
H939 C926 0.961 1_554 S
H940 C926 0.961 . S
H941 C927 0.958 . S
H942 C927 0.961 . S
H943 C927 0.960 . S
C177 C21 1.497 . S
C185 C126 1.234 . S
C209 C40 1.562 . S
C217 C95 1.501 . S
C249 C106 1.465 . S
C241 C54 1.470 . S
C273 C73 1.507 . S
C281 C115 1.384 . S
C313 C150 1.491 . S
C305 C74 1.506 . S
C345 C159 1.419 . S
C337 C10 1.518 . S
C377 C170 1.209 . S
C369 C37 1.440 . S
C409 C139 1.513 . S
C401 C65 1.562 . S
C433 C52 1.446 . S
C441 C104 1.326 . S
C465 C87 1.577 . S
C473 C117 1.596 . S
C497 C15 1.531 . S
C505 C128 1.470 . S
C537 C93 1.205 . S
C529 C32 1.484 . S
C561 C29 1.538 . S
C569 C172 1.517 . S
C601 C137 1.213 . S
C593 C59 1.527 . S
C633 C148 1.286 . S
C625 C84 1.419 . S
C657 C8 1.536 . S
C665 C161 1.520 . S
C697 C96 1.565 . S
C689 C7 1.596 . S
C729 C107 1.523 . S
C721 C30 1.513 . S
C753 C62 1.598 . S
C761 C118 1.600 . S
C785 C81 1.532 . S
C793 C129 1.509 . S
C825 C140 1.553 . S
C817 C76 1.597 . S
C849 C18 1.523 . S
C857 C151 1.528 . S
C881 C43 1.581 . S
C889 C162 1.597 . S
C913 C51 1.507 . S
C921 C173 1.526 . S
