# Generated by pormake.
# Topology iac, (4,6)-cn, num edge types: 1
# Building blocks:
#     Node 0, Type 0, BuildingBlock: GALJAG_clean_sbu_0, # of connection points: 4
#     Node 1, Type 0, BuildingBlock: GALJAG_clean_sbu_0, # of connection points: 4
#     Node 2, Type 0, BuildingBlock: GALJAG_clean_sbu_0, # of connection points: 4
#     Node 3, Type 0, BuildingBlock: GALJAG_clean_sbu_0, # of connection points: 4
#     Node 4, Type 0, BuildingBlock: GALJAG_clean_sbu_0, # of connection points: 4
#     Node 5, Type 0, BuildingBlock: GALJAG_clean_sbu_0, # of connection points: 4
#     Node 6, Type 0, BuildingBlock: GALJAG_clean_sbu_0, # of connection points: 4
#     Node 7, Type 0, BuildingBlock: GALJAG_clean_sbu_0, # of connection points: 4
#     Node 8, Type 0, BuildingBlock: GALJAG_clean_sbu_0, # of connection points: 4
#     Node 9, Type 0, BuildingBlock: GALJAG_clean_sbu_0, # of connection points: 4
#     Node 10, Type 0, BuildingBlock: GALJAG_clean_sbu_0, # of connection points: 4
#     Node 11, Type 0, BuildingBlock: GALJAG_clean_sbu_0, # of connection points: 4
#     Node 12, Type 0, BuildingBlock: GALJAG_clean_sbu_0, # of connection points: 4
#     Node 13, Type 0, BuildingBlock: GALJAG_clean_sbu_0, # of connection points: 4
#     Node 14, Type 0, BuildingBlock: GALJAG_clean_sbu_0, # of connection points: 4
#     Node 15, Type 0, BuildingBlock: GALJAG_clean_sbu_0, # of connection points: 4
#     Node 16, Type 0, BuildingBlock: GALJAG_clean_sbu_0, # of connection points: 4
#     Node 17, Type 0, BuildingBlock: GALJAG_clean_sbu_0, # of connection points: 4
#     Node 18, Type 0, BuildingBlock: GALJAG_clean_sbu_0, # of connection points: 4
#     Node 19, Type 0, BuildingBlock: GALJAG_clean_sbu_0, # of connection points: 4
#     Node 20, Type 0, BuildingBlock: GALJAG_clean_sbu_0, # of connection points: 4
#     Node 21, Type 0, BuildingBlock: GALJAG_clean_sbu_0, # of connection points: 4
#     Node 22, Type 0, BuildingBlock: GALJAG_clean_sbu_0, # of connection points: 4
#     Node 23, Type 0, BuildingBlock: GALJAG_clean_sbu_0, # of connection points: 4
#     Node 24, Type 1, BuildingBlock: JUFBIX_clean_sbu_0, # of connection points: 6
#     Node 25, Type 1, BuildingBlock: JUFBIX_clean_sbu_0, # of connection points: 6
#     Node 26, Type 1, BuildingBlock: JUFBIX_clean_sbu_0, # of connection points: 6
#     Node 27, Type 1, BuildingBlock: JUFBIX_clean_sbu_0, # of connection points: 6
#     Node 28, Type 1, BuildingBlock: JUFBIX_clean_sbu_0, # of connection points: 6
#     Node 29, Type 1, BuildingBlock: JUFBIX_clean_sbu_0, # of connection points: 6
#     Node 30, Type 1, BuildingBlock: JUFBIX_clean_sbu_0, # of connection points: 6
#     Node 31, Type 1, BuildingBlock: JUFBIX_clean_sbu_0, # of connection points: 6
#     Node 32, Type 1, BuildingBlock: JUFBIX_clean_sbu_0, # of connection points: 6
#     Node 33, Type 1, BuildingBlock: JUFBIX_clean_sbu_0, # of connection points: 6
#     Node 34, Type 1, BuildingBlock: JUFBIX_clean_sbu_0, # of connection points: 6
#     Node 35, Type 1, BuildingBlock: JUFBIX_clean_sbu_0, # of connection points: 6
#     Node 36, Type 1, BuildingBlock: JUFBIX_clean_sbu_0, # of connection points: 6
#     Node 37, Type 1, BuildingBlock: JUFBIX_clean_sbu_0, # of connection points: 6
#     Node 38, Type 1, BuildingBlock: JUFBIX_clean_sbu_0, # of connection points: 6
#     Node 39, Type 1, BuildingBlock: JUFBIX_clean_sbu_0, # of connection points: 6
#     Edge 40, Type (0, 1), BuildingBlock: AJUNOK_clean_linker_0, # of connection points: 2
#     Edge 41, Type (0, 1), BuildingBlock: AJUNOK_clean_linker_0, # of connection points: 2
#     Edge 42, Type (0, 1), BuildingBlock: AJUNOK_clean_linker_0, # of connection points: 2
#     Edge 43, Type (0, 1), BuildingBlock: AJUNOK_clean_linker_0, # of connection points: 2
#     Edge 44, Type (0, 1), BuildingBlock: AJUNOK_clean_linker_0, # of connection points: 2
#     Edge 45, Type (0, 1), BuildingBlock: AJUNOK_clean_linker_0, # of connection points: 2
#     Edge 46, Type (0, 1), BuildingBlock: AJUNOK_clean_linker_0, # of connection points: 2
#     Edge 47, Type (0, 1), BuildingBlock: AJUNOK_clean_linker_0, # of connection points: 2
#     Edge 48, Type (0, 1), BuildingBlock: AJUNOK_clean_linker_0, # of connection points: 2
#     Edge 49, Type (0, 1), BuildingBlock: AJUNOK_clean_linker_0, # of connection points: 2
#     Edge 50, Type (0, 1), BuildingBlock: AJUNOK_clean_linker_0, # of connection points: 2
#     Edge 51, Type (0, 1), BuildingBlock: AJUNOK_clean_linker_0, # of connection points: 2
#     Edge 52, Type (0, 1), BuildingBlock: AJUNOK_clean_linker_0, # of connection points: 2
#     Edge 53, Type (0, 1), BuildingBlock: AJUNOK_clean_linker_0, # of connection points: 2
#     Edge 54, Type (0, 1), BuildingBlock: AJUNOK_clean_linker_0, # of connection points: 2
#     Edge 55, Type (0, 1), BuildingBlock: AJUNOK_clean_linker_0, # of connection points: 2
#     Edge 56, Type (0, 1), BuildingBlock: AJUNOK_clean_linker_0, # of connection points: 2
#     Edge 57, Type (0, 1), BuildingBlock: AJUNOK_clean_linker_0, # of connection points: 2
#     Edge 58, Type (0, 1), BuildingBlock: AJUNOK_clean_linker_0, # of connection points: 2
#     Edge 59, Type (0, 1), BuildingBlock: AJUNOK_clean_linker_0, # of connection points: 2
#     Edge 60, Type (0, 1), BuildingBlock: AJUNOK_clean_linker_0, # of connection points: 2
#     Edge 61, Type (0, 1), BuildingBlock: AJUNOK_clean_linker_0, # of connection points: 2
#     Edge 62, Type (0, 1), BuildingBlock: AJUNOK_clean_linker_0, # of connection points: 2
#     Edge 63, Type (0, 1), BuildingBlock: AJUNOK_clean_linker_0, # of connection points: 2
#     Edge 64, Type (0, 1), BuildingBlock: AJUNOK_clean_linker_0, # of connection points: 2
#     Edge 65, Type (0, 1), BuildingBlock: AJUNOK_clean_linker_0, # of connection points: 2
#     Edge 66, Type (0, 1), BuildingBlock: AJUNOK_clean_linker_0, # of connection points: 2
#     Edge 67, Type (0, 1), BuildingBlock: AJUNOK_clean_linker_0, # of connection points: 2
#     Edge 68, Type (0, 1), BuildingBlock: AJUNOK_clean_linker_0, # of connection points: 2
#     Edge 69, Type (0, 1), BuildingBlock: AJUNOK_clean_linker_0, # of connection points: 2
#     Edge 70, Type (0, 1), BuildingBlock: AJUNOK_clean_linker_0, # of connection points: 2
#     Edge 71, Type (0, 1), BuildingBlock: AJUNOK_clean_linker_0, # of connection points: 2
#     Edge 72, Type (0, 1), BuildingBlock: AJUNOK_clean_linker_0, # of connection points: 2
#     Edge 73, Type (0, 1), BuildingBlock: AJUNOK_clean_linker_0, # of connection points: 2
#     Edge 74, Type (0, 1), BuildingBlock: AJUNOK_clean_linker_0, # of connection points: 2
#     Edge 75, Type (0, 1), BuildingBlock: AJUNOK_clean_linker_0, # of connection points: 2
#     Edge 76, Type (0, 1), BuildingBlock: AJUNOK_clean_linker_0, # of connection points: 2
#     Edge 77, Type (0, 1), BuildingBlock: AJUNOK_clean_linker_0, # of connection points: 2
#     Edge 78, Type (0, 1), BuildingBlock: AJUNOK_clean_linker_0, # of connection points: 2
#     Edge 79, Type (0, 1), BuildingBlock: AJUNOK_clean_linker_0, # of connection points: 2
#     Edge 80, Type (0, 1), BuildingBlock: AJUNOK_clean_linker_0, # of connection points: 2
#     Edge 81, Type (0, 1), BuildingBlock: AJUNOK_clean_linker_0, # of connection points: 2
#     Edge 82, Type (0, 1), BuildingBlock: AJUNOK_clean_linker_0, # of connection points: 2
#     Edge 83, Type (0, 1), BuildingBlock: AJUNOK_clean_linker_0, # of connection points: 2
#     Edge 84, Type (0, 1), BuildingBlock: AJUNOK_clean_linker_0, # of connection points: 2
#     Edge 85, Type (0, 1), BuildingBlock: AJUNOK_clean_linker_0, # of connection points: 2
#     Edge 86, Type (0, 1), BuildingBlock: AJUNOK_clean_linker_0, # of connection points: 2
#     Edge 87, Type (0, 1), BuildingBlock: AJUNOK_clean_linker_0, # of connection points: 2
#     Edge 88, Type (0, 1), BuildingBlock: AJUNOK_clean_linker_0, # of connection points: 2
#     Edge 89, Type (0, 1), BuildingBlock: AJUNOK_clean_linker_0, # of connection points: 2
#     Edge 90, Type (0, 1), BuildingBlock: AJUNOK_clean_linker_0, # of connection points: 2
#     Edge 91, Type (0, 1), BuildingBlock: AJUNOK_clean_linker_0, # of connection points: 2
#     Edge 92, Type (0, 1), BuildingBlock: AJUNOK_clean_linker_0, # of connection points: 2
#     Edge 93, Type (0, 1), BuildingBlock: AJUNOK_clean_linker_0, # of connection points: 2
#     Edge 94, Type (0, 1), BuildingBlock: AJUNOK_clean_linker_0, # of connection points: 2
#     Edge 95, Type (0, 1), BuildingBlock: AJUNOK_clean_linker_0, # of connection points: 2
#     Edge 96, Type (0, 1), BuildingBlock: AJUNOK_clean_linker_0, # of connection points: 2
#     Edge 97, Type (0, 1), BuildingBlock: AJUNOK_clean_linker_0, # of connection points: 2
#     Edge 98, Type (0, 1), BuildingBlock: AJUNOK_clean_linker_0, # of connection points: 2
#     Edge 99, Type (0, 1), BuildingBlock: AJUNOK_clean_linker_0, # of connection points: 2
#     Edge 100, Type (0, 1), BuildingBlock: AJUNOK_clean_linker_0, # of connection points: 2
#     Edge 101, Type (0, 1), BuildingBlock: AJUNOK_clean_linker_0, # of connection points: 2
#     Edge 102, Type (0, 1), BuildingBlock: AJUNOK_clean_linker_0, # of connection points: 2
#     Edge 103, Type (0, 1), BuildingBlock: AJUNOK_clean_linker_0, # of connection points: 2
#     Edge 104, Type (0, 1), BuildingBlock: AJUNOK_clean_linker_0, # of connection points: 2
#     Edge 105, Type (0, 1), BuildingBlock: AJUNOK_clean_linker_0, # of connection points: 2
#     Edge 106, Type (0, 1), BuildingBlock: AJUNOK_clean_linker_0, # of connection points: 2
#     Edge 107, Type (0, 1), BuildingBlock: AJUNOK_clean_linker_0, # of connection points: 2
#     Edge 108, Type (0, 1), BuildingBlock: AJUNOK_clean_linker_0, # of connection points: 2
#     Edge 109, Type (0, 1), BuildingBlock: AJUNOK_clean_linker_0, # of connection points: 2
#     Edge 110, Type (0, 1), BuildingBlock: AJUNOK_clean_linker_0, # of connection points: 2
#     Edge 111, Type (0, 1), BuildingBlock: AJUNOK_clean_linker_0, # of connection points: 2
#     Edge 112, Type (0, 1), BuildingBlock: AJUNOK_clean_linker_0, # of connection points: 2
#     Edge 113, Type (0, 1), BuildingBlock: AJUNOK_clean_linker_0, # of connection points: 2
#     Edge 114, Type (0, 1), BuildingBlock: AJUNOK_clean_linker_0, # of connection points: 2
#     Edge 115, Type (0, 1), BuildingBlock: AJUNOK_clean_linker_0, # of connection points: 2
#     Edge 116, Type (0, 1), BuildingBlock: AJUNOK_clean_linker_0, # of connection points: 2
#     Edge 117, Type (0, 1), BuildingBlock: AJUNOK_clean_linker_0, # of connection points: 2
#     Edge 118, Type (0, 1), BuildingBlock: AJUNOK_clean_linker_0, # of connection points: 2
#     Edge 119, Type (0, 1), BuildingBlock: AJUNOK_clean_linker_0, # of connection points: 2
#     Edge 120, Type (0, 1), BuildingBlock: AJUNOK_clean_linker_0, # of connection points: 2
#     Edge 121, Type (0, 1), BuildingBlock: AJUNOK_clean_linker_0, # of connection points: 2
#     Edge 122, Type (0, 1), BuildingBlock: AJUNOK_clean_linker_0, # of connection points: 2
#     Edge 123, Type (0, 1), BuildingBlock: AJUNOK_clean_linker_0, # of connection points: 2
#     Edge 124, Type (0, 1), BuildingBlock: AJUNOK_clean_linker_0, # of connection points: 2
#     Edge 125, Type (0, 1), BuildingBlock: AJUNOK_clean_linker_0, # of connection points: 2
#     Edge 126, Type (0, 1), BuildingBlock: AJUNOK_clean_linker_0, # of connection points: 2
#     Edge 127, Type (0, 1), BuildingBlock: AJUNOK_clean_linker_0, # of connection points: 2
#     Edge 128, Type (0, 1), BuildingBlock: AJUNOK_clean_linker_0, # of connection points: 2
#     Edge 129, Type (0, 1), BuildingBlock: AJUNOK_clean_linker_0, # of connection points: 2
#     Edge 130, Type (0, 1), BuildingBlock: AJUNOK_clean_linker_0, # of connection points: 2
#     Edge 131, Type (0, 1), BuildingBlock: AJUNOK_clean_linker_0, # of connection points: 2
#     Edge 132, Type (0, 1), BuildingBlock: AJUNOK_clean_linker_0, # of connection points: 2
#     Edge 133, Type (0, 1), BuildingBlock: AJUNOK_clean_linker_0, # of connection points: 2
#     Edge 134, Type (0, 1), BuildingBlock: AJUNOK_clean_linker_0, # of connection points: 2
#     Edge 135, Type (0, 1), BuildingBlock: AJUNOK_clean_linker_0, # of connection points: 2
# Relax obj value: 0.282
# Max RMSD: 0.244
# Mean RMSD: 0.156
data_MOF--net-iac--node1-GALJAG_clean_sbu_0--node2-JUFBIX_clean_sbu_0--edge1-AJUNOK_clean_linker_0
_symmetry_space_group_name_H-M    P1
_symmetry_Int_Tables_number       1
_symmetry_cell_setting            triclinic
loop_
_symmetry_equiv_pos_as_xyz
'x, y, z'
_cell_length_a     40.169848
_cell_length_b     41.504162
_cell_length_c     41.139162
_cell_angle_alpha  89.177397
_cell_angle_beta   88.014157
_cell_angle_gamma 88.613888
loop_
_atom_site_label
_atom_site_type_symbol
_atom_site_fract_x
_atom_site_fract_y
_atom_site_fract_z
_atom_type_partial_charge
In0 In 0.04978 0.29013 0.15907 0.0
O1 O 0.0522 0.25666 0.1123 0.0
O2 O 0.04886 0.23296 0.15745 0.0
C3 C 0.04679 0.35191 0.12788 0.0
C4 C 0.98826 0.29072 0.19317 0.0
C5 C 0.11024 0.28888 0.19236 0.0
O6 O 0.04304 0.32571 0.11318 0.0
O7 O 0.05207 0.34698 0.15763 0.0
O8 O 0.08237 0.28199 0.20551 0.0
O9 O 0.10798 0.29532 0.16232 0.0
C10 C 0.04986 0.22967 0.12694 0.0
O11 O 0.99234 0.28317 0.16371 0.0
O12 O 0.01507 0.2986 0.20571 0.0
In13 In 0.0579 0.79192 0.4514 0.0
O14 O 0.08185 0.78668 0.40129 0.0
O15 O 0.11005 0.80848 0.43773 0.0
C16 C 1.00682 0.81226 0.41688 0.0
C17 C 0.07197 0.7306 0.46714 0.0
C18 C 0.04038 0.82346 0.50598 0.0
O19 O 0.03261 0.82887 0.41887 0.0
O20 O 1.00702 0.78582 0.43248 0.0
O21 O 0.02376 0.80073 0.49548 0.0
O22 O 0.0665 0.82989 0.48931 0.0
C23 C 0.10902 0.79858 0.40882 0.0
O24 O 0.08588 0.75376 0.48021 0.0
O25 O 0.05029 0.73854 0.44691 0.0
In26 In 0.55377 0.78908 0.65963 0.0
O27 O 0.57966 0.83268 0.63083 0.0
O28 O 0.52788 0.83221 0.62997 0.0
C29 C 0.55227 0.72809 0.62855 0.0
C30 C 0.61121 0.78913 0.69746 0.0
C31 C 0.4949 0.78976 0.69813 0.0
O32 O 0.55498 0.75479 0.61328 0.0
O33 O 0.55142 0.73204 0.65897 0.0
O34 O 0.49726 0.77962 0.66941 0.0
O35 O 0.52226 0.79958 0.70797 0.0
C36 C 0.55367 0.84759 0.6219 0.0
O37 O 0.58664 0.80845 0.70148 0.0
O38 O 0.60695 0.76963 0.6747 0.0
In39 In 0.56932 0.28567 0.94561 0.0
O40 O 0.59779 0.28226 0.89798 0.0
O41 O 0.61601 0.31386 0.93339 0.0
C42 C 0.51858 0.30605 0.91021 0.0
C43 C 0.58631 0.22442 0.9589 0.0
C44 C 0.55036 0.31185 1.00245 0.0
O45 O 0.54324 0.32346 0.91484 0.0
O46 O 0.51919 0.27875 0.92422 0.0
O47 O 0.5319 0.2935 0.98737 0.0
O48 O 0.57851 0.31676 0.98887 0.0
C49 C 0.61924 0.30237 0.90513 0.0
O50 O 0.5979 0.24758 0.97401 0.0
O51 O 0.56595 0.23226 0.93741 0.0
In52 In 0.13942 0.02963 0.33276 0.0
O53 O 0.1872 1.00114 0.34391 0.0
O54 O 0.15763 0.98603 0.30533 0.0
C55 C 0.17053 0.08401 0.3458 0.0
C56 C 0.11486 0.03315 0.27361 0.0
C57 C 0.09286 0.01728 0.37908 0.0
O58 O 0.17947 0.05696 0.35722 0.0
O59 O 0.14511 0.0837 0.32872 0.0
O60 O 0.09326 0.04305 0.36261 0.0
O61 O 0.11658 0.99778 0.37262 0.0
C62 C 0.18376 0.9818 0.32095 0.0
O63 O 0.09884 0.02123 0.29766 0.0
O64 O 0.14277 0.04446 0.27994 0.0
In65 In 0.27209 0.91653 0.57124 0.0
O66 O 0.24255 0.96254 0.58117 0.0
O67 O 0.2164 0.92038 0.56913 0.0
C68 C 0.32449 0.94773 0.5462 0.0
C69 C 0.27281 0.89307 0.63186 0.0
C70 C 0.27617 0.87489 0.52242 0.0
O71 O 0.29501 0.95699 0.54103 0.0
O72 O 0.3273 0.92448 0.5661 0.0
O73 O 0.2921 0.87021 0.548 0.0
O74 O 0.25655 0.89908 0.52285 0.0
C75 C 0.21491 0.94982 0.57644 0.0
O76 O 0.26011 0.87856 0.60878 0.0
O77 O 0.28605 0.91952 0.62417 0.0
In78 In 0.41679 0.05776 0.76065 0.0
O79 O 0.37464 0.09346 0.75374 0.0
O80 O 0.42261 0.11056 0.76515 0.0
C81 C 0.38385 1.00796 0.78445 0.0
C82 C 0.43461 0.0588 0.69867 0.0
C83 C 0.46202 0.0523 0.8057 0.0
O84 O 0.37411 0.03647 0.79046 0.0
O85 O 0.40808 1.00508 0.76426 0.0
O86 O 0.46639 0.03914 0.77834 0.0
O87 O 0.43547 0.06893 0.80941 0.0
C88 C 0.39303 0.11727 0.75793 0.0
O89 O 0.45404 0.06565 0.7208 0.0
O90 O 0.40649 0.04843 0.70786 0.0
In91 In 0.2992 0.17033 0.03533 0.0
O92 O 0.33514 0.12601 0.02319 0.0
O93 O 0.35674 0.16666 0.04258 0.0
C94 C 0.23886 0.13649 0.03633 0.0
C95 C 0.29876 0.2007 0.09705 0.0
C96 C 0.30046 0.20267 0.97381 0.0
O97 O 0.26668 0.12371 0.04327 0.0
O98 O 0.24112 0.16636 0.03021 0.0
O99 O 0.30565 0.21658 1.00031 0.0
O100 O 0.29472 0.17317 0.97835 0.0
C101 C 0.3616 0.13848 0.03219 0.0
O102 O 0.29744 0.21582 0.0701 0.0
O103 O 0.29877 0.17054 0.0931 0.0
In104 In 0.77802 0.40491 0.05897 0.0
O105 O 0.75377 0.37987 0.10237 0.0
O106 O 0.79945 0.40302 0.10955 0.0
C107 C 0.79549 0.35161 0.02603 0.0
C108 C 0.7214 0.43904 0.05297 0.0
C109 C 0.81942 0.44647 0.02989 0.0
O110 O 0.81551 0.36539 0.04398 0.0
O111 O 0.76651 0.36404 0.02607 0.0
O112 O 0.80189 0.42804 0.01382 0.0
O113 O 0.81616 0.44364 0.06044 0.0
C114 C 0.77557 0.3874 0.12198 0.0
O115 O 0.74685 0.45033 0.06519 0.0
O116 O 0.72452 0.41031 0.04354 0.0
In117 In 0.90577 0.55786 0.26228 0.0
O118 O 0.94476 0.57123 0.22559 0.0
O119 O 0.90215 0.5474 0.20868 0.0
C120 C 0.94935 0.55747 0.30922 0.0
C121 C 0.87187 0.61227 0.25616 0.0
C122 C 0.87867 0.50489 0.28574 0.0
O123 O 0.95556 0.54362 0.28249 0.0
O124 O 0.92185 0.57279 0.31128 0.0
O125 O 0.86677 0.53239 0.29297 0.0
O126 O 0.90173 0.50439 0.26411 0.0
C127 C 0.92897 0.56167 0.20178 0.0
O128 O 0.85799 0.58561 0.25251 0.0
O129 O 0.90169 0.61084 0.26472 0.0
In130 In 0.79713 0.66962 0.53926 0.0
O131 O 0.83396 0.62614 0.52708 0.0
O132 O 0.85372 0.66669 0.54905 0.0
C133 C 0.73969 0.63144 0.53856 0.0
C134 C 0.79786 0.70073 0.60065 0.0
C135 C 0.79875 0.70294 0.47826 0.0
O136 O 0.76734 0.62151 0.54913 0.0
O137 O 0.74083 0.66032 0.52855 0.0
O138 O 0.77939 0.71084 0.50198 0.0
O139 O 0.81736 0.67913 0.48543 0.0
C140 C 0.85961 0.63888 0.5379 0.0
O141 O 0.80234 0.71511 0.57351 0.0
O142 O 0.79148 0.67141 0.59687 0.0
In143 In 0.6521 0.52109 0.83244 0.0
O144 O 0.68924 0.48451 0.85303 0.0
O145 O 0.69827 0.50292 0.80513 0.0
C146 C 0.67743 0.57787 0.84666 0.0
C147 C 0.62576 0.51023 0.77513 0.0
C148 C 0.60122 0.51351 0.87552 0.0
O149 O 0.68537 0.55217 0.86148 0.0
O150 O 0.65562 0.57502 0.82564 0.0
O151 O 0.60498 0.53878 0.85854 0.0
O152 O 0.62337 0.49184 0.87073 0.0
C153 C 0.70811 0.48477 0.82781 0.0
O154 O 0.62154 0.4913 0.79911 0.0
O155 O 0.64293 0.53452 0.78031 0.0
In156 In 0.04526 0.79455 0.91652 0.0
O157 O 0.10323 0.79669 0.91696 0.0
O158 O 0.08306 0.78645 0.872 0.0
C159 C 0.98612 0.79599 0.88123 0.0
C160 C 0.04283 0.73345 0.94927 0.0
C161 C 0.04662 0.85739 0.94402 0.0
O162 O 0.01499 0.79799 0.86817 0.0
O163 O 0.98689 0.79417 0.91198 0.0
O164 O 0.04414 0.8316 0.96078 0.0
O165 O 0.04703 0.85166 0.91391 0.0
C166 C 0.10924 0.79101 0.88729 0.0
O167 O 0.0465 0.75992 0.96357 0.0
O168 O 0.04008 0.73772 0.91903 0.0
In169 In 0.02393 0.31473 0.6462 0.0
O170 O 1.00494 0.34895 0.60755 0.0
O171 O 0.03213 0.3681 0.64621 0.0
C172 C 0.04025 0.26991 0.60272 0.0
C173 C 0.07508 0.29949 0.68352 0.0
C174 C 0.96696 0.31347 0.68086 0.0
O175 O 0.05041 0.29827 0.5994 0.0
O176 O 0.02068 0.26483 0.62676 0.0
O177 O 0.99313 0.3249 0.69162 0.0
O178 O 0.96961 0.30255 0.65237 0.0
C179 C 0.01664 0.37346 0.62043 0.0
O180 O 0.04735 0.2861 0.68682 0.0
O181 O 0.0766 0.32147 0.662 0.0
In182 In 0.5415 0.29302 0.41657 0.0
O183 O 0.57676 0.29193 0.37009 0.0
O184 O 0.59998 0.29224 0.41504 0.0
C185 C 0.48286 0.29377 0.38036 0.0
C186 C 0.53898 0.23169 0.44921 0.0
C187 C 0.54513 0.35532 0.44501 0.0
O188 O 0.51104 0.28374 0.36983 0.0
O189 O 0.4838 0.30383 0.40924 0.0
O190 O 0.54278 0.32926 0.46138 0.0
O191 O 0.54461 0.35014 0.41479 0.0
C192 C 0.60398 0.29175 0.38448 0.0
O193 O 0.53748 0.25837 0.46387 0.0
O194 O 0.54141 0.23594 0.41884 0.0
In195 In 0.51219 0.81627 0.15001 0.0
O196 O 0.53752 0.79364 0.10522 0.0
O197 O 0.50909 0.76381 0.13767 0.0
C198 C 0.50919 0.87426 0.12197 0.0
C199 C 0.45304 0.81961 0.18109 0.0
C200 C 0.56217 0.80717 0.19044 0.0
O201 O 0.49841 0.84964 0.10855 0.0
O202 O 0.52181 0.86932 0.1493 0.0
O203 O 0.53414 0.79464 0.19526 0.0
O204 O 0.56491 0.82465 0.16512 0.0
C205 C 0.52787 0.76574 0.11256 0.0
O206 O 0.47995 0.8245 0.19477 0.0
O207 O 0.45579 0.81232 0.15141 0.0
In208 In 0.8896 0.08826 0.76698 0.0
O209 O 0.93777 0.06545 0.74856 0.0
O210 O 0.9237 0.11099 0.72812 0.0
C211 C 0.92126 0.09655 0.82184 0.0
C212 C 0.83927 0.13185 0.76726 0.0
C213 C 0.86155 0.03229 0.75465 0.0
O214 O 0.923 0.11665 0.79857 0.0
O215 O 0.90291 0.07287 0.81761 0.0
O216 O 0.86616 0.04182 0.78301 0.0
O217 O 0.87023 0.05158 0.73215 0.0
C218 C 0.94499 0.08806 0.72898 0.0
O219 O 0.85707 0.12628 0.742 0.0
O220 O 0.84679 0.11509 0.79172 0.0
In221 In 0.80568 0.19025 0.53006 0.0
O222 O 0.82973 0.14048 0.53077 0.0
O223 O 0.85984 0.18067 0.54049 0.0
C224 C 0.75131 0.16153 0.55355 0.0
C225 C 0.79572 0.24171 0.56838 0.0
C226 C 0.81389 0.2004 0.46585 0.0
O227 O 0.77967 0.15585 0.56475 0.0
O228 O 0.75066 0.18083 0.52953 0.0
O229 O 0.83031 0.2149 0.48653 0.0
O230 O 0.7926 0.18129 0.4777 0.0
C231 C 0.858 0.15047 0.5376 0.0
O232 O 0.78549 0.24158 0.53978 0.0
O233 O 0.81286 0.21722 0.57636 0.0
In234 In 0.68235 0.02059 0.3114 0.0
O235 O 0.73117 0.994 0.3198 0.0
O236 O 0.68751 0.96739 0.31049 0.0
C237 C 0.71095 0.07265 0.2877 0.0
C238 C 0.63655 0.02489 0.26635 0.0
C239 C 0.65955 0.01886 0.37224 0.0
O240 O 0.71995 0.04498 0.27796 0.0
O241 O 0.69013 0.07344 0.31139 0.0
O242 O 0.64483 1.0061 0.34929 0.0
O243 O 0.68552 0.03402 0.36422 0.0
C244 C 0.71772 0.96694 0.31787 0.0
O245 O 0.63295 0.03898 0.29322 0.0
O246 O 0.66221 1.00682 0.2634 0.0
In247 In 0.8042 0.91513 0.03492 0.0
O248 O 0.7482 0.92359 0.0243 0.0
O249 O 0.77168 0.96189 0.04636 0.0
C250 C 0.8615 0.95371 0.03567 0.0
C251 C 0.80174 0.87726 0.0931 0.0
C252 C 0.80206 0.88337 0.9743 0.0
O253 O 0.83901 0.95335 0.05788 0.0
O254 O 0.85526 0.93499 0.01283 0.0
O255 O 0.80504 0.86862 1.00138 0.0
O256 O 0.8014 0.91359 0.97771 0.0
C257 C 0.74488 0.95152 0.03568 0.0
O258 O 0.77698 0.89125 0.08063 0.0
O259 O 0.82794 0.88056 0.07546 0.0
In260 In 0.31118 0.67738 0.0319 0.0
O261 O 0.27399 0.71851 0.04057 0.0
O262 O 0.31882 0.71831 0.06662 0.0
C263 C 0.32622 0.69162 0.9695 0.0
C264 C 0.36198 0.63823 0.04721 0.0
C265 C 0.25927 0.64522 0.05542 0.0
O266 O 0.33852 0.70618 0.99279 0.0
O267 O 0.30624 0.6698 0.97782 0.0
O268 O 0.28544 0.64746 0.07121 0.0
O269 O 0.25997 0.65803 0.02737 0.0
C270 C 0.29063 0.73148 0.06198 0.0
O271 O 0.33895 0.62959 0.0294 0.0
O272 O 0.35941 0.66692 0.05707 0.0
In273 In 0.17618 0.51965 0.81624 0.0
O274 O 0.22101 0.48775 0.8247 0.0
O275 O 0.1762 0.46658 0.80946 0.0
C276 C 0.21145 0.56994 0.79732 0.0
C277 C 0.13363 0.52824 0.76886 0.0
C278 C 0.15298 0.51537 0.8768 0.0
O279 O 0.21966 0.54175 0.78859 0.0
O280 O 0.1869 0.57215 0.81722 0.0
O281 O 0.13694 0.50619 0.85297 0.0
O282 O 0.1802 0.52884 0.86989 0.0
C283 C 0.20578 0.46248 0.81818 0.0
O284 O 0.12892 0.54156 0.79607 0.0
O285 O 0.15875 0.50947 0.76659 0.0
In286 In 0.30377 0.41657 0.53131 0.0
O287 O 0.33074 0.38344 0.5707 0.0
O288 O 0.27959 0.39168 0.57837 0.0
C289 C 0.30153 0.38517 0.47031 0.0
C290 C 0.24335 0.45154 0.5325 0.0
C291 C 0.36039 0.45559 0.53321 0.0
O292 O 0.30478 0.37034 0.49729 0.0
O293 O 0.30071 0.41537 0.47395 0.0
O294 O 0.33736 0.45519 0.5549 0.0
O295 O 0.35478 0.43703 0.51003 0.0
C296 C 0.30573 0.3791 0.58966 0.0
O297 O 0.2707 0.46392 0.53922 0.0
O298 O 0.24658 0.42217 0.52546 0.0
In299 In 0.40841 0.58366 0.26588 0.0
O300 O 0.4551 0.55456 0.25292 0.0
O301 O 0.44556 0.59797 0.22613 0.0
C302 C 0.43522 0.59725 0.32209 0.0
C303 C 0.36259 0.63094 0.26004 0.0
C304 C 0.37685 0.52961 0.25375 0.0
O305 O 0.44178 0.61305 0.29639 0.0
O306 O 0.41486 0.57492 0.31938 0.0
O307 O 0.38463 0.54945 0.23138 0.0
O308 O 0.38432 0.53757 0.28197 0.0
C309 C 0.46457 0.57372 0.23059 0.0
O310 O 0.36107 0.60974 0.28218 0.0
O311 O 0.3868 0.62757 0.23995 0.0
Co312 Co 0.04518 0.05672 0.00938 0.0
C313 C 0.04027 0.10042 0.06313 0.0
Co314 Co 0.05493 0.03322 0.05538 0.0
C315 C 0.01572 0.07029 0.94854 0.0
C316 C 0.04695 0.10821 0.96291 0.0
N317 N 0.03711 0.07829 0.97129 0.0
N318 N 1.01094 0.09447 0.92689 0.0
C319 C 0.03094 0.11821 0.93551 0.0
H320 H 1.00316 0.04752 0.94859 0.0
H321 H 0.06307 0.12262 0.97693 0.0
C322 C 0.05939 0.98945 1.00167 0.0
N323 N 0.06259 0.01233 0.09357 0.0
C324 C 0.07789 0.02452 0.11892 0.0
C325 C 0.05175 0.98326 0.10379 0.0
N326 N 0.0769 1.00441 0.14475 0.0
C327 C 0.06039 0.97839 0.13556 0.0
C328 C 0.98757 0.02726 0.03746 0.0
O329 O 0.05416 0.01569 0.98568 0.0
O330 O 0.0629 0.99205 0.03225 0.0
O331 O 1.00782 0.02172 0.06015 0.0
O332 O 0.99811 0.04401 0.01315 0.0
O333 O 0.04673 0.07443 0.07891 0.0
H334 H 0.0374 0.96729 0.08951 0.0
H335 H 0.0879 0.0485 0.11901 0.0
O336 O 0.03601 0.09759 0.03272 0.0
O337 O 0.09186 0.06949 1.00555 0.0
O338 O 0.10256 0.04494 0.05125 0.0
C339 C 0.11241 0.06339 0.0279 0.0
H340 H 0.03239 0.14176 0.92396 0.0
H341 H 0.05423 0.95789 0.151 0.0
Co342 Co 0.29067 0.80872 0.30808 0.0
C343 C 0.29036 0.74945 0.28047 0.0
Co344 Co 0.2607 0.80777 0.26447 0.0
C345 C 0.29754 0.82337 0.37336 0.0
C346 C 0.34064 0.79639 0.35697 0.0
N347 N 0.31162 0.80946 0.34694 0.0
N348 N 0.316 0.81954 0.39974 0.0
C349 C 0.34348 0.80263 0.38969 0.0
H350 H 0.27338 0.83566 0.37335 0.0
H351 H 0.35835 0.78303 0.34163 0.0
C352 C 0.2608 0.86731 0.29153 0.0
N353 N 0.23995 0.8068 0.22526 0.0
C354 C 0.25445 0.79257 0.19912 0.0
C355 C 0.21234 0.82178 0.21407 0.0
N356 N 0.23778 0.7984 0.17186 0.0
C357 C 0.21088 0.81654 0.18097 0.0
C358 C 0.223 0.7955 0.31878 0.0
O359 O 0.27914 0.85324 0.31211 0.0
O360 O 0.25052 0.85147 0.26793 0.0
O361 O 0.22011 0.79836 0.28814 0.0
O362 O 0.25142 0.79815 0.33051 0.0
O363 O 0.27117 0.76357 0.26082 0.0
H364 H 0.19533 0.8367 0.22863 0.0
H365 H 0.27772 0.7789 0.19984 0.0
O366 O 0.30198 0.76478 0.30378 0.0
O367 O 0.32984 0.81913 0.28594 0.0
O368 O 0.30153 0.81758 0.24152 0.0
C369 C 0.32893 0.82139 0.25529 0.0
H370 H 0.36418 0.79575 0.40458 0.0
H371 H 0.19251 0.8265 0.16477 0.0
Co372 Co 0.52415 0.03209 0.51902 0.0
C373 C 0.53969 0.09842 0.50904 0.0
Co374 Co 0.56309 0.04675 0.55097 0.0
C375 C 0.46685 0.99943 0.50484 0.0
C376 C 0.48103 0.02855 0.46365 0.0
N377 N 0.49092 0.01874 0.4933 0.0
N378 N 0.44203 0.99698 0.48417 0.0
C379 C 0.45051 0.01531 0.45805 0.0
H380 H 0.46601 0.98954 0.52935 0.0
H381 H 0.49405 0.04566 0.44807 0.0
C382 C 0.54804 0.98058 0.56131 0.0
N383 N 0.59538 0.06037 0.57729 0.0
C384 C 0.61822 0.08175 0.56762 0.0
C385 C 0.60121 0.05413 0.60891 0.0
N386 N 0.63769 0.08984 0.59185 0.0
C387 C 0.62776 0.07217 0.61793 0.0
C388 C 0.50059 0.05594 0.57695 0.0
O389 O 0.5269 0.98816 0.53978 0.0
O390 O 0.56723 1.00281 0.56986 0.0
O391 O 0.53124 0.05774 0.58252 0.0
O392 O 0.49153 0.04496 0.55028 0.0
O393 O 0.55885 0.09102 0.53223 0.0
H394 H 0.58691 0.03789 0.62438 0.0
H395 H 0.62077 0.09112 0.54298 0.0
O396 O 0.52198 0.0759 0.49841 0.0
O397 O 0.55613 0.01933 0.488 0.0
O398 O 0.59553 0.03593 0.51892 0.0
C399 C 0.58672 0.02366 0.49266 0.0
H400 H 0.4352 0.01987 0.43726 0.0
H401 H 0.6386 0.07262 0.64164 0.0
Co402 Co 0.32868 0.30443 0.78737 0.0
C403 C 0.30689 0.31918 0.7234 0.0
Co404 Co 0.28211 0.2813 0.77764 0.0
C405 C 0.39185 0.3113 0.81427 0.0
C406 C 0.37613 0.35486 0.79033 0.0
N407 N 0.36763 0.324 0.79607 0.0
N408 N 0.41482 0.33309 0.82098 0.0
C409 C 0.40521 0.36059 0.80582 0.0
H410 H 0.39178 0.28682 0.8237 0.0
H411 H 0.3611 0.3725 0.77746 0.0
C412 C 0.30371 0.26599 0.84141 0.0
N413 N 0.24289 0.2624 0.76909 0.0
C414 C 0.21736 0.27779 0.75496 0.0
C415 C 0.23304 0.2318 0.77382 0.0
N416 N 0.19191 0.25821 0.75033 0.0
C417 C 0.20145 0.22911 0.76215 0.0
C418 C 0.33677 0.24464 0.7611 0.0
O419 O 0.32664 0.28536 0.83234 0.0
O420 O 0.28153 0.26042 0.82086 0.0
O421 O 0.30532 0.2462 0.76054 0.0
O422 O 0.3524 0.26794 0.77234 0.0
O423 O 0.28264 0.30214 0.73391 0.0
H424 H 0.24808 0.21265 0.78437 0.0
H425 H 0.21755 0.30302 0.74791 0.0
O426 O 0.33053 0.32319 0.74283 0.0
O427 O 0.3052 0.34072 0.80247 0.0
O428 O 0.25851 0.31656 0.79496 0.0
C429 C 0.27372 0.34084 0.80433 0.0
H430 H 0.41696 0.38366 0.80762 0.0
H431 H 0.18723 0.20733 0.76136 0.0
Co432 Co 0.01875 0.02058 0.5682 0.0
C433 C 0.02716 0.06117 0.61956 0.0
Co434 Co 0.04485 0.06505 0.55484 0.0
C435 C 0.01421 0.95382 0.57095 0.0
C436 C 0.97265 0.97372 0.59818 0.0
N437 N 1.00003 0.98194 0.58028 0.0
N438 N 0.99742 0.92825 0.58222 0.0
C439 C 0.97078 0.94038 0.59915 0.0
H440 H 0.03619 0.95204 0.555 0.0
H441 H 0.95513 0.99072 0.60944 0.0
C442 C 0.03536 0.02496 0.50354 0.0
N443 N 0.0647 0.10245 0.54167 0.0
C444 C 0.05433 0.13206 0.55051 0.0
C445 C 0.09301 0.10686 0.5236 0.0
N446 N 0.07503 0.15479 0.53913 0.0
C447 C 0.09972 0.13932 0.5224 0.0
C448 C 0.08821 0.01758 0.57177 0.0
O449 O 0.0213 1.00684 0.52451 0.0
O450 O 0.0479 0.05108 0.51202 0.0
O451 O 0.08662 0.04676 0.56272 0.0
O452 O 0.06157 1.00199 0.57535 0.0
O453 O 0.041 0.07943 0.59837 0.0
H454 H 0.10856 0.08763 0.51341 0.0
H455 H 0.03316 0.13678 0.56693 0.0
O456 O 0.01619 0.03416 0.61131 0.0
O457 O 0.97606 0.04008 0.56118 0.0
O458 O 1.00331 0.08351 0.54703 0.0
C459 C 0.97591 0.0694 0.55164 0.0
H460 H 0.95143 0.92633 0.61105 0.0
H461 H 0.12184 0.15039 0.512 0.0
Co462 Co 0.31149 0.80966 0.81344 0.0
C463 C 0.24521 0.78954 0.82544 0.0
Co464 Co 0.29933 0.7684 0.78451 0.0
C465 C 0.33828 0.86944 0.82558 0.0
C466 C 0.31001 0.8536 0.86753 0.0
N467 N 0.32089 0.8446 0.83748 0.0
N468 N 0.33844 0.89382 0.84652 0.0
C469 C 0.32056 0.8844 0.87305 0.0
H470 H 0.34896 0.87052 0.80106 0.0
H471 H 0.2944 0.8393 0.88374 0.0
C472 C 0.36531 0.78873 0.77206 0.0
N473 N 0.28994 0.73357 0.76045 0.0
C474 C 0.27211 0.70885 0.77194 0.0
C475 C 0.29971 0.72542 0.72984 0.0
N476 N 0.27031 0.68545 0.75004 0.0
C477 C 0.28771 0.69537 0.72338 0.0
C478 C 0.28609 0.82563 0.75372 0.0
O479 O 0.35661 0.80948 0.79346 0.0
O480 O 0.34404 0.76795 0.76498 0.0
O481 O 0.28502 0.79534 0.75102 0.0
O482 O 0.29654 0.83737 0.77963 0.0
O483 O 0.25387 0.76901 0.80383 0.0
H484 H 0.31498 0.74006 0.7136 0.0
H485 H 0.26147 0.70749 0.79646 0.0
O486 O 0.26676 0.80977 0.83326 0.0
O487 O 0.32639 0.78274 0.84676 0.0
O488 O 0.31379 0.7407 0.81865 0.0
C489 C 0.32487 0.75245 0.84431 0.0
H490 H 0.31486 0.89896 0.89423 0.0
H491 H 0.29147 0.68193 0.70115 0.0
Co492 Co 0.55128 0.03583 0.01101 0.0
C493 C 0.61334 0.01916 0.03662 0.0
Co494 Co 0.55759 0.05754 0.05812 0.0
C495 C 0.5357 0.03622 0.94524 0.0
C496 C 0.55331 0.98935 0.95978 0.0
N497 N 0.54705 0.01944 0.97073 0.0
N498 N 0.53419 0.01797 0.9187 0.0
C499 C 0.54517 0.98831 0.92757 0.0
H500 H 0.5278 0.0613 0.94642 0.0
H501 H 0.56226 0.96936 0.9745 0.0
C502 C 0.49532 0.07419 0.03234 0.0
N503 N 0.56227 0.07315 0.09887 0.0
C504 C 0.57245 0.05471 0.1238 0.0
C505 C 0.55737 0.1029 0.11117 0.0
N506 N 0.5744 0.07144 0.15128 0.0
C507 C 0.56502 0.10195 0.14364 0.0
C508 C 0.57988 0.09632 0.00917 0.0
O509 O 0.50671 0.05618 0.00944 0.0
O510 O 0.51383 0.07838 0.05638 0.0
O511 O 0.57686 0.09441 0.03988 0.0
O512 O 0.57027 0.07322 0.9923 0.0
O513 O 0.60197 0.03672 0.05983 0.0
H514 H 0.54941 0.12388 0.09732 0.0
H515 H 0.57871 0.02929 0.12168 0.0
O516 O 0.59493 0.01556 0.01249 0.0
O517 O 0.53252 0.99879 0.02916 0.0
O518 O 0.538 0.02037 0.07662 0.0
C519 C 0.52882 0.99714 0.05974 0.0
H520 H 0.5456 0.96713 0.91251 0.0
H521 H 0.56497 0.12226 0.15984 0.0
Co522 Co 0.29365 0.26975 0.29576 0.0
C523 C 0.36056 0.28959 0.30212 0.0
Co524 Co 0.30334 0.31582 0.27217 0.0
C525 C 0.26195 0.21087 0.31428 0.0
C526 C 0.29945 0.22354 0.34719 0.0
N527 N 0.28579 0.23237 0.31878 0.0
N528 N 0.25963 0.18947 0.33915 0.0
C529 C 0.28349 0.197 0.3597 0.0
H530 H 0.24613 0.21137 0.29352 0.0
H531 H 0.31863 0.23652 0.35891 0.0
C532 C 0.23638 0.29621 0.2654 0.0
N533 N 0.31096 0.35348 0.24956 0.0
C534 C 0.32591 0.38007 0.25947 0.0
C535 C 0.30124 0.36064 0.21918 0.0
N536 N 0.32585 0.40352 0.23644 0.0
C537 C 0.31026 0.39146 0.21106 0.0
C538 C 0.30877 0.26154 0.22861 0.0
O539 O 0.24596 0.27332 0.28422 0.0
O540 O 0.25705 0.31842 0.259 0.0
O541 O 0.31343 0.2917 0.23159 0.0
O542 O 0.30171 0.24567 0.25475 0.0
O543 O 0.34989 0.31363 0.28548 0.0
H544 H 0.28783 0.34473 0.2041 0.0
H545 H 0.33641 0.38228 0.2832 0.0
O546 O 0.34095 0.26618 0.30702 0.0
O547 O 0.28559 0.29349 0.33669 0.0
O548 O 0.2933 0.33998 0.31299 0.0
C549 C 0.28836 0.32388 0.33941 0.0
H550 H 0.28803 0.18505 0.38274 0.0
H551 H 0.30468 0.40433 0.18876 0.0
Co552 Co 0.52481 0.50933 0.06243 0.0
C553 C 0.53951 0.54147 0.11826 0.0
Co554 Co 0.54923 0.55552 0.05345 0.0
C555 C 0.52117 0.44161 0.06205 0.0
C556 C 0.48087 0.46142 0.09121 0.0
N557 N 0.50717 0.46968 0.0717 0.0
N558 N 0.5054 0.41619 0.07519 0.0
C559 C 0.47945 0.42819 0.09303 0.0
H560 H 0.54268 0.43972 0.04554 0.0
H561 H 0.46429 0.47838 0.10377 0.0
C562 C 0.53474 0.52317 0.99769 0.0
N563 N 0.56655 0.59546 0.04539 0.0
C564 C 0.55677 0.62125 0.06278 0.0
C565 C 0.58893 0.60667 0.02302 0.0
N566 N 0.57184 0.64821 0.05259 0.0
C567 C 0.59221 0.63945 0.02737 0.0
C568 C 0.59451 0.50698 0.05693 0.0
O569 O 0.52386 0.50161 0.01724 0.0
O570 O 0.54588 0.54906 0.00873 0.0
O571 O 0.59186 0.53703 0.05173 0.0
O572 O 0.56851 0.49088 0.06292 0.0
O573 O 0.55241 0.56178 0.09863 0.0
H574 H 0.60183 0.59207 1.00477 0.0
H575 H 0.53825 0.62037 0.08246 0.0
O576 O 0.52605 0.51682 0.10718 0.0
O577 O 0.48138 0.52829 0.06184 0.0
O578 O 0.50646 0.57432 0.05523 0.0
C579 C 0.47993 0.55878 0.05942 0.0
H580 H 0.46131 0.41404 0.10662 0.0
H581 H 0.60844 0.65532 0.01347 0.0
Co582 Co 0.80445 0.30922 0.30677 0.0
C583 C 0.73742 0.29064 0.31813 0.0
Co584 Co 0.79073 0.26899 0.27718 0.0
C585 C 0.83516 0.36608 0.32296 0.0
C586 C 0.80394 0.35033 0.3629 0.0
N587 N 0.81526 0.34224 0.33272 0.0
N588 N 0.83679 0.38891 0.34549 0.0
C589 C 0.81682 0.37966 0.37064 0.0
H590 H 0.84637 0.36796 0.2987 0.0
H591 H 0.78631 0.33663 0.37759 0.0
C592 C 0.85749 0.2876 0.26501 0.0
N593 N 0.77991 0.23618 0.25103 0.0
C594 C 0.76083 0.21159 0.26045 0.0
C595 C 0.78929 0.23012 0.2198 0.0
N596 N 0.75789 0.19032 0.2366 0.0
C597 C 0.77611 0.20129 0.21096 0.0
C598 C 0.78013 0.32813 0.24799 0.0
O599 O 0.84968 0.30817 0.28684 0.0
O600 O 0.8355 0.26755 0.25792 0.0
O601 O 0.77782 0.29802 0.24479 0.0
O602 O 0.79096 0.33908 0.27411 0.0
O603 O 0.74556 0.2705 0.29604 0.0
H604 H 0.80512 0.24532 0.20472 0.0
H605 H 0.75038 0.20856 0.28491 0.0
O606 O 0.75947 0.31009 0.3266 0.0
O607 O 0.81808 0.28039 0.33881 0.0
O608 O 0.80355 0.23908 0.31048 0.0
C609 C 0.81514 0.25027 0.33622 0.0
H610 H 0.81097 0.39366 0.39217 0.0
H611 H 0.77996 0.18911 0.18799 0.0
Co612 Co 0.04901 0.53867 0.51125 0.0
C613 C 0.11242 0.5211 0.53433 0.0
Co614 Co 0.0576 0.55866 0.55868 0.0
C615 C 0.02943 0.54089 0.44679 0.0
C616 C 0.04768 0.49348 0.45874 0.0
N617 N 0.04288 0.52336 0.47079 0.0
N618 N 0.02462 0.52316 0.42047 0.0
C619 C 0.03639 0.49331 0.42748 0.0
H620 H 0.02244 0.56613 0.44898 0.0
H621 H 0.05752 0.47301 0.47221 0.0
C622 C 0.99394 0.57583 0.53564 0.0
N623 N 0.06327 0.57419 0.59921 0.0
C624 C 0.07348 0.55625 0.62444 0.0
C625 C 0.05783 0.60408 0.61103 0.0
N626 N 0.07477 0.57349 0.6517 0.0
C627 C 0.0651 0.60376 0.64354 0.0
C628 C 0.07685 0.59935 0.51007 0.0
O629 O 1.00411 0.55843 0.51186 0.0
O630 O 0.01363 0.57917 0.55888 0.0
O631 O 0.07573 0.59588 0.54065 0.0
O632 O 0.06658 0.57698 0.49259 0.0
O633 O 0.10225 0.53804 0.55852 0.0
H634 H 0.04945 0.62471 0.59688 0.0
H635 H 0.07992 0.53083 0.62279 0.0
O636 O 0.09307 0.51875 0.51066 0.0
O637 O 0.03151 0.50083 0.5295 0.0
O638 O 0.03916 0.52109 0.57722 0.0
C639 C 0.02943 0.49822 0.56016 0.0
H640 H 0.03532 0.47265 0.41182 0.0
H641 H 0.0644 0.62429 0.65948 0.0
Co642 Co 0.82322 0.79811 0.28768 0.0
C643 C 0.7975 0.81701 0.22686 0.0
Co644 Co 0.77155 0.7839 0.28453 0.0
C645 C 0.8787 0.82101 0.31892 0.0
C646 C 0.89328 0.80378 0.27164 0.0
N647 N 0.86654 0.80927 0.29164 0.0
N648 N 0.91213 0.82173 0.31761 0.0
C649 C 0.92152 0.8114 0.28768 0.0
H650 H 0.86326 0.82716 0.3401 0.0
H651 H 0.89244 0.79292 0.24794 0.0
C652 C 0.79786 0.76466 0.34527 0.0
N653 N 0.72818 0.77256 0.28112 0.0
C654 C 0.70397 0.79006 0.26702 0.0
C655 C 0.71404 0.74456 0.29023 0.0
N656 N 0.67527 0.77405 0.26655 0.0
C657 C 0.68142 0.74533 0.28111 0.0
C658 C 0.81583 0.73832 0.26222 0.0
O659 O 0.82351 0.77767 0.33191 0.0
O660 O 0.77149 0.76485 0.32886 0.0
O661 O 0.78514 0.74451 0.26703 0.0
O662 O 0.83697 0.7589 0.26968 0.0
O663 O 0.7718 0.80347 0.23973 0.0
H664 H 0.72698 0.72447 0.30163 0.0
H665 H 0.7076 0.81384 0.25651 0.0
O666 O 0.82333 0.81772 0.244 0.0
O667 O 0.80929 0.83774 0.30568 0.0
O668 O 0.75765 0.82295 0.30208 0.0
C669 C 0.77844 0.84345 0.31034 0.0
H670 H 0.947 0.80711 0.27908 0.0
H671 H 0.66424 0.72567 0.28335 0.0
Co672 Co 0.80448 0.31378 0.8128 0.0
C673 C 0.78734 0.25766 0.78368 0.0
Co674 Co 0.77621 0.3216 0.76819 0.0
C675 C 0.8134 0.31326 0.88124 0.0
C676 C 0.85368 0.2882 0.85657 0.0
N677 N 0.82557 0.30582 0.85137 0.0
N678 N 0.83218 0.30047 0.90479 0.0
C679 C 0.85802 0.28517 0.88962 0.0
H680 H 0.79088 0.32754 0.88579 0.0
H681 H 0.8694 0.27735 0.83764 0.0
C682 C 0.79156 0.37755 0.79915 0.0
N683 N 0.75656 0.32786 0.72846 0.0
C684 C 0.76328 0.30763 0.70377 0.0
C685 C 0.73834 0.35218 0.71523 0.0
N686 N 0.75025 0.31781 0.6758 0.0
C687 C 0.73452 0.34607 0.68249 0.0
C688 C 0.73504 0.31781 0.82106 0.0
O689 O 0.80557 0.35851 0.81921 0.0
O690 O 0.77872 0.36629 0.77398 0.0
O691 O 0.73468 0.3221 0.79045 0.0
O692 O 0.76257 0.31315 0.83482 0.0
O693 O 0.77363 0.2764 0.76339 0.0
H694 H 0.72951 0.37343 0.72813 0.0
H695 H 0.77922 0.28634 0.70563 0.0
O696 O 0.80277 0.26927 0.80694 0.0
O697 O 0.84597 0.31456 0.79008 0.0
O698 O 0.81758 0.32108 0.74598 0.0
C699 C 0.84526 0.31734 0.75939 0.0
H700 H 0.87789 0.27207 0.90156 0.0
H701 H 0.72165 0.3612 0.66509 0.0
Co702 Co 0.79471 0.76796 0.80007 0.0
C703 C 0.86155 0.78857 0.8059 0.0
Co704 Co 0.80377 0.81404 0.77618 0.0
C705 C 0.76486 0.70794 0.81758 0.0
C706 C 0.79937 0.7227 0.85256 0.0
N707 N 0.78732 0.73052 0.82318 0.0
N708 N 0.76172 0.68692 0.84271 0.0
C709 C 0.78374 0.6958 0.86459 0.0
H710 H 0.75058 0.70743 0.7958 0.0
H711 H 0.81704 0.73661 0.86524 0.0
C712 C 0.73672 0.79363 0.77097 0.0
N713 N 0.81014 0.85149 0.75296 0.0
C714 C 0.82415 0.87886 0.76202 0.0
C715 C 0.79904 0.85776 0.72286 0.0
N716 N 0.82219 0.90195 0.73874 0.0
C717 C 0.8064 0.88884 0.71404 0.0
C718 C 0.80925 0.75973 0.7328 0.0
O719 O 0.74781 0.77012 0.78803 0.0
O720 O 0.75629 0.81687 0.76509 0.0
O721 O 0.81236 0.79008 0.73555 0.0
O722 O 0.80377 0.74367 0.75916 0.0
O723 O 0.85145 0.81167 0.78752 0.0
H724 H 0.78531 0.84119 0.70868 0.0
H725 H 0.83488 0.88205 0.78551 0.0
O726 O 0.8414 0.76584 0.81217 0.0
O727 O 0.78552 0.79189 0.84071 0.0
O728 O 0.79535 0.83811 0.81718 0.0
C729 C 0.78938 0.82215 0.84349 0.0
H730 H 0.78718 0.68454 0.88817 0.0
H731 H 0.7992 0.90128 0.69198 0.0
Co732 Co 0.54706 0.55348 0.51362 0.0
C733 C 0.5422 0.59699 0.56803 0.0
Co734 Co 0.55476 0.52969 0.55996 0.0
C735 C 0.51893 0.57144 0.45332 0.0
C736 C 0.55448 0.6053 0.46832 0.0
N737 N 0.5412 0.5765 0.47612 0.0
N738 N 0.51699 0.5964 0.43219 0.0
C739 C 0.53966 0.61758 0.44112 0.0
H740 H 0.50391 0.55018 0.45275 0.0
H741 H 0.57249 0.61738 0.48248 0.0
C742 C 0.55913 0.48643 0.50491 0.0
N743 N 0.56039 0.50704 0.59793 0.0
C744 C 0.5747 0.51667 0.62505 0.0
C745 C 0.55036 0.47679 0.60463 0.0
N746 N 0.57397 0.49365 0.6485 0.0
C747 C 0.55892 0.46839 0.63568 0.0
C748 C 0.48778 0.52609 0.53988 0.0
O749 O 0.5549 0.51291 0.4891 0.0
O750 O 0.56206 0.4887 0.53564 0.0
O751 O 0.50718 0.51971 0.5631 0.0
O752 O 0.49952 0.54269 0.51599 0.0
O753 O 0.54736 0.5709 0.58424 0.0
H754 H 0.53763 0.46177 0.58801 0.0
H755 H 0.58506 0.54025 0.62765 0.0
O756 O 0.53894 0.59403 0.53751 0.0
O757 O 0.59409 0.56411 0.51101 0.0
O758 O 0.60282 0.5399 0.5573 0.0
C759 C 0.61391 0.55751 0.53378 0.0
H760 H 0.54407 0.64081 0.42967 0.0
H761 H 0.5549 0.44529 0.64754 0.0
Co762 Co 0.02018 0.53573 0.02277 0.0
C763 C 0.04029 0.60114 0.01154 0.0
Co764 Co 0.05988 0.54928 0.05437 0.0
C765 C 0.95793 0.51181 0.00829 0.0
C766 C 0.98157 0.53008 0.96473 0.0
N767 N 0.98634 0.5246 0.9967 0.0
N768 N 0.93514 0.50998 0.98538 0.0
C769 C 0.94982 0.5208 0.95759 0.0
H770 H 0.95357 0.50482 0.03352 0.0
H771 H 0.99944 0.54121 0.94808 0.0
C772 C 0.04045 0.48415 0.0659 0.0
N773 N 0.09307 0.56055 0.08075 0.0
C774 C 0.11897 0.5782 0.07067 0.0
C775 C 0.09761 0.55465 0.11268 0.0
N776 N 0.13955 0.58387 0.0948 0.0
C777 C 0.12658 0.569 0.12145 0.0
C778 C 0.99806 0.5621 0.08039 0.0
O779 O 0.02028 0.49165 0.04341 0.0
O780 O 0.06002 0.50603 0.07446 0.0
O781 O 0.02883 0.5635 0.08545 0.0
O782 O 0.9885 0.55045 0.0542 0.0
O783 O 0.05966 0.59298 0.03436 0.0
H784 H 0.08086 0.5411 0.1285 0.0
H785 H 0.12288 0.58659 0.04581 0.0
O786 O 0.02061 0.57962 1.00209 0.0
O787 O 0.05115 0.52108 0.99199 0.0
O788 O 0.09169 0.53496 0.02285 0.0
C789 C 0.08196 0.52263 0.99697 0.0
H790 H 0.93803 0.52305 0.93437 0.0
H791 H 0.13691 0.56899 0.1454 0.0
C792 C 0.04649 0.16762 0.12816 0.0
C793 C 0.04724 0.19699 0.1101 0.0
C794 C 0.04374 0.13703 0.11317 0.0
C795 C 0.04105 0.13373 0.07912 0.0
H796 H 0.04828 0.16817 0.15435 0.0
H797 H 0.04386 0.11566 0.12859 0.0
S798 S 0.04187 0.20267 0.02009 0.0
N799 N 0.04523 0.22006 0.05564 0.0
N800 N 0.03966 0.16364 0.02791 0.0
C801 C 0.04157 0.16296 0.06081 0.0
C802 C 0.04473 0.19405 0.07605 0.0
C803 C 0.13383 0.7982 0.35241 0.0
C804 C 0.13813 0.79792 0.38622 0.0
C805 C 0.16129 0.79627 0.33047 0.0
C806 C 0.19388 0.79327 0.34171 0.0
H807 H 0.10908 0.80043 0.34283 0.0
H808 H 0.15697 0.79773 0.30464 0.0
S809 S 0.21776 0.78773 0.42843 0.0
N810 N 0.17688 0.79264 0.43004 0.0
N811 N 0.22839 0.78737 0.38936 0.0
C812 C 0.19821 0.79153 0.37568 0.0
C813 C 0.17036 0.79436 0.39782 0.0
C814 C 0.52465 0.89347 0.58967 0.0
C815 C 0.55317 0.88108 0.60541 0.0
C816 C 0.52336 0.92495 0.57521 0.0
C817 C 0.5502 0.94643 0.57627 0.0
H818 H 0.50294 0.87863 0.58839 0.0
H819 H 0.50072 0.9327 0.56353 0.0
S820 S 0.63085 0.92663 0.61467 0.0
N821 N 0.60921 0.8936 0.62064 0.0
N822 N 0.6065 0.95213 0.59479 0.0
C823 C 0.5788 0.93437 0.59207 0.0
C824 C 0.58035 0.90211 0.60618 0.0
C825 C 0.46063 0.30154 0.89281 0.0
C826 C 0.49178 0.31581 0.8886 0.0
C827 C 0.43543 0.30803 0.87106 0.0
C828 C 0.44063 0.32863 0.84399 0.0
H829 H 0.45573 0.28502 0.91296 0.0
H830 H 0.4117 0.29665 0.87545 0.0
S831 S 0.51806 0.37192 0.82211 0.0
N832 N 0.5266 0.35191 0.85592 0.0
N833 N 0.47922 0.36342 0.81425 0.0
C834 C 0.4715 0.34359 0.83982 0.0
C835 C 0.49712 0.3373 0.86232 0.0
C836 C 0.05074 0.86125 0.55043 0.0
C837 C 0.028 0.84391 0.53291 0.0
C838 C 0.03978 0.88649 0.57049 0.0
C839 C 1.00586 0.89581 0.57296 0.0
H840 H 0.07729 0.85661 0.54709 0.0
H841 H 0.05824 0.90085 0.58177 0.0
S842 S 0.93601 0.85486 0.53584 0.0
N843 N 0.96966 0.83458 0.52286 0.0
N844 N 0.94931 0.88322 0.55964 0.0
C845 C 0.9826 0.8766 0.55825 0.0
C846 C 0.99368 0.85038 0.53825 0.0
C847 C 0.43601 0.77068 0.70877 0.0
C848 C 0.46258 0.78975 0.71813 0.0
C849 C 0.40526 0.77021 0.72654 0.0
C850 C 0.39907 0.78919 0.75445 0.0
H851 H 0.43898 0.75572 0.68746 0.0
H852 H 0.38596 0.75501 0.71794 0.0
S853 S 0.4599 0.84421 0.78915 0.0
N854 N 0.48032 0.82838 0.75744 0.0
N855 N 0.42266 0.82811 0.79024 0.0
C856 C 0.42537 0.80859 0.76402 0.0
C857 C 0.45695 0.80869 0.74612 0.0
C858 C 0.60186 0.18354 1.00043 0.0
C859 C 0.59244 0.19075 0.96856 0.0
C860 C 0.60034 0.15209 0.01275 0.0
C861 C 0.58966 0.12688 0.99344 0.0
H862 H 0.60812 0.20258 0.01673 0.0
H863 H 0.6056 0.14794 0.03814 0.0
S864 S 0.56983 0.13253 0.90598 0.0
N865 N 0.57742 0.16987 0.91628 0.0
N866 N 0.57517 0.11043 0.93914 0.0
C867 C 0.58382 0.1333 0.9604 0.0
C868 C 0.58498 0.16542 0.94802 0.0
C869 C 0.14541 0.27742 0.24269 0.0
C870 C 0.1425 0.2906 0.21088 0.0
C871 C 0.17534 0.27916 0.26024 0.0
C872 C 0.20376 0.29508 0.24737 0.0
H873 H 0.12442 0.26527 0.25412 0.0
H874 H 0.17608 0.26815 0.28424 0.0
S875 S 0.21015 0.33274 0.16475 0.0
N876 N 0.17183 0.31921 0.16718 0.0
N877 N 0.22675 0.32323 0.19984 0.0
C878 C 0.20105 0.30829 0.21561 0.0
C879 C 0.17097 0.3059 0.19757 0.0
C880 C 0.07446 0.01315 0.23491 0.0
C881 C 0.10439 0.02886 0.24017 0.0
C882 C 0.06587 1.00473 0.20365 0.0
C883 C 0.08683 0.0119 0.1767 0.0
H884 H 0.0578 1.0067 0.25511 0.0
H885 H 0.04253 0.99283 0.20046 0.0
S886 S 0.16782 0.05269 0.17714 0.0
N887 N 0.15489 0.05155 0.21566 0.0
N888 N 0.13861 0.0353 0.15681 0.0
C889 C 0.11656 0.02794 0.18144 0.0
C890 C 0.12536 0.03659 0.21325 0.0
C891 C 0.27648 0.87335 0.46264 0.0
C892 C 0.28469 0.85805 0.49199 0.0
C893 C 0.2877 0.86093 0.43298 0.0
C894 C 0.30704 0.83229 0.43118 0.0
H895 H 0.26218 0.89584 0.46243 0.0
H896 H 0.28141 0.87418 0.41119 0.0
S897 S 0.33357 0.78171 0.50109 0.0
N898 N 0.31268 0.81234 0.51787 0.0
N899 N 0.3327 0.788 0.46137 0.0
C900 C 0.31498 0.81626 0.46031 0.0
C901 C 0.30393 0.82929 0.49087 0.0
C902 C 0.43537 0.04119 0.64138 0.0
C903 C 0.44459 0.06331 0.66469 0.0
C904 C 0.45129 0.04103 0.61064 0.0
C905 C 0.4765 0.06303 0.60303 0.0
H906 H 0.41796 0.02239 0.64776 0.0
H907 H 0.44613 0.02184 0.59407 0.0
S908 S 0.5026 0.1309 0.6528 0.0
N909 N 0.4751 0.11162 0.6761 0.0
N910 N 0.50518 0.11111 0.61824 0.0
C911 C 0.48277 0.08762 0.62471 0.0
C912 C 0.46671 0.08779 0.65577 0.0
C913 C 0.31807 0.24794 0.93344 0.0
C914 C 0.30089 0.21905 0.94015 0.0
C915 C 0.31934 0.26264 0.90182 0.0
C916 C 0.30278 0.24979 0.87519 0.0
H917 H 0.33116 0.25914 0.95271 0.0
H918 H 0.33319 0.28456 0.89834 0.0
S919 S 0.25378 0.17479 0.87933 0.0
N920 N 0.26702 0.17831 0.91663 0.0
N921 N 0.26848 0.20596 0.85852 0.0
C922 C 0.28526 0.22111 0.88176 0.0
C923 C 0.28457 0.20584 0.91366 0.0
C924 C 0.07682 0.98887 0.43058 0.0
C925 C 0.06973 0.01281 0.40707 0.0
C926 C 0.06184 0.99031 0.46173 0.0
C927 C 0.03952 0.01563 0.46978 0.0
H928 H 0.09622 0.97076 0.42598 0.0
H929 H 0.07036 0.97366 0.48039 0.0
S930 S 1.00625 0.0789 0.41481 0.0
N931 N 0.03376 0.05837 0.39207 0.0
N932 N 1.00628 0.06129 0.45106 0.0
C933 C 0.02907 0.03708 0.44548 0.0
C934 C 0.04402 0.03555 0.41381 0.0
C935 C 0.25786 0.84925 0.67058 0.0
C936 C 0.27302 0.87904 0.66487 0.0
C937 C 0.26056 0.83312 0.7003 0.0
C938 C 0.27841 0.84621 0.7255 0.0
H939 H 0.24471 0.83761 0.6516 0.0
H940 H 0.24956 0.80961 0.70306 0.0
S941 S 0.31931 0.92547 0.72434 0.0
N942 N 0.30391 0.92257 0.6878 0.0
N943 N 0.30897 0.89206 0.74407 0.0
C944 C 0.29184 0.877 0.721 0.0
C945 C 0.2892 0.89346 0.69051 0.0
C946 C 0.47394 0.05808 0.86356 0.0
C947 C 0.48368 0.04571 0.83303 0.0
C948 C 0.49081 0.04902 0.89121 0.0
C949 C 0.51834 0.02755 0.88941 0.0
H950 H 0.45232 0.07404 0.86647 0.0
H951 H 0.48143 0.05815 0.91437 0.0
S952 S 0.556 0.99083 0.81487 0.0
N953 N 0.52381 0.01239 0.80205 0.0
N954 N 0.5563 0.99593 0.85461 0.0
C955 C 0.52928 0.01591 0.85894 0.0
C956 C 0.51185 0.025 0.83056 0.0
C957 C 0.30054 0.19836 0.15977 0.0
C958 C 0.3015 0.21666 0.13037 0.0
C959 C 0.30346 0.21262 0.19092 0.0
C960 C 0.30804 0.2461 0.19477 0.0
H961 H 0.29724 0.17258 0.15882 0.0
H962 H 0.3019 0.1971 0.21228 0.0
S963 S 0.31263 0.30534 0.12588 0.0
N964 N 0.30739 0.27064 0.10784 0.0
N965 N 0.31344 0.29697 0.16519 0.0
C966 C 0.30936 0.26459 0.16546 0.0
C967 C 0.30598 0.25012 0.13384 0.0
C968 C 0.20284 0.08677 0.04833 0.0
C969 C 0.20664 0.11782 0.03405 0.0
C970 C 0.17286 0.06923 0.04624 0.0
C971 C 0.14529 0.08127 0.02884 0.0
H972 H 0.22311 0.076 0.06172 0.0
H973 H 0.17138 0.04592 0.05828 0.0
S974 S 0.1417 0.16149 0.98719 0.0
N975 N 0.17922 0.15978 1.00235 0.0
N976 N 0.12428 0.12708 0.99763 0.0
C977 C 0.14899 0.11218 0.0143 0.0
C978 C 0.17909 0.13026 0.01707 0.0
C979 C 0.66008 0.44093 0.0477 0.0
C980 C 0.68975 0.45731 0.05195 0.0
C981 C 0.62932 0.45727 0.04942 0.0
C982 C 0.62728 0.49059 0.05503 0.0
H983 H 0.66052 0.41517 0.04375 0.0
H984 H 0.60701 0.44366 0.04625 0.0
S985 S 0.69803 0.54489 0.06562 0.0
N986 N 0.71553 0.50884 0.06057 0.0
N987 N 0.65756 0.53972 0.06352 0.0
C988 C 0.65685 0.50746 0.05833 0.0
C989 C 0.68817 0.49075 0.05688 0.0
C990 C 0.83888 0.47507 0.32191 0.0
C991 C 0.86944 0.47594 0.30423 0.0
C992 C 0.82938 0.4471 0.33878 0.0
C993 C 0.85042 0.41964 0.3386 0.0
H994 H 0.82166 0.49556 0.32155 0.0
H995 H 0.8046 0.4461 0.34992 0.0
S996 S 0.93509 0.41148 0.301 0.0
N997 N 0.92236 0.44833 0.29108 0.0
N998 N 0.90425 0.39597 0.32316 0.0
C999 C 0.88202 0.4212 0.32339 0.0
C1000 C 0.89157 0.44929 0.30592 0.0
C1001 C 0.90211 0.59661 0.51711 0.0
C1002 C 0.89386 0.62286 0.5376 0.0
C1003 C 0.93436 0.58185 0.51626 0.0
C1004 C 0.9598 0.59216 0.53634 0.0
H1005 H 0.8836 0.58757 0.50126 0.0
H1006 H 0.93924 0.56193 0.49992 0.0
S1007 S 0.95134 0.65988 0.5945 0.0
N1008 N 0.91439 0.65855 0.5783 0.0
N1009 N 0.97403 0.63073 0.57725 0.0
C1010 C 0.95175 0.61829 0.55702 0.0
C1011 C 0.91918 0.6336 0.55749 0.0
C1012 C 0.22375 0.10907 0.35917 0.0
C1013 C 0.19108 0.11265 0.3482 0.0
C1014 C 0.24578 0.13458 0.35688 0.0
C1015 C 0.23585 0.16448 0.34359 0.0
H1016 H 0.23291 0.08602 0.3683 0.0
H1017 H 0.27113 0.13054 0.36436 0.0
S1018 S 0.15145 0.18782 0.31641 0.0
N1019 N 0.14876 0.14938 0.32685 0.0
N1020 N 0.19016 0.19761 0.3232 0.0
C1021 C 0.20269 0.16901 0.33441 0.0
C1022 C 0.18026 0.14301 0.33662 0.0
C1023 C 0.38332 0.94202 0.52689 0.0
C1024 C 0.35342 0.96029 0.52764 0.0
C1025 C 0.41148 0.953 0.50986 0.0
C1026 C 0.41094 0.98272 0.49317 0.0
H1027 H 0.38521 0.91921 0.53993 0.0
H1028 H 0.4345 0.93893 0.51103 0.0
S1029 S 0.33847 0.03891 0.486 0.0
N1030 N 0.32422 0.00866 0.50856 0.0
N1031 N 0.37796 0.02973 0.47715 0.0
C1032 C 0.3809 1.00061 0.49239 0.0
C1033 C 0.35195 0.98931 0.50961 0.0
C1034 C 0.8752 0.67015 0.24447 0.0
C1035 C 0.85529 0.64332 0.25083 0.0
C1036 C 0.86143 0.70109 0.24516 0.0
C1037 C 0.82737 0.70613 0.2525 0.0
H1038 H 0.90192 0.66735 0.24045 0.0
H1039 H 0.87802 0.7212 0.24197 0.0
S1040 S 0.76376 0.64323 0.2646 0.0
N1041 N 0.79944 0.62298 0.25972 0.0
N1042 N 0.77307 0.68169 0.26122 0.0
C1043 C 0.80657 0.67934 0.25549 0.0
C1044 C 0.82072 0.64766 0.25467 0.0
C1045 C 0.75147 0.45892 0.7918 0.0
C1046 C 0.73716 0.46278 0.82325 0.0
C1047 C 0.77313 0.43296 0.78472 0.0
C1048 C 0.78153 0.41035 0.80895 0.0
H1049 H 0.74383 0.47443 0.77187 0.0
H1050 H 0.78098 0.429 0.75959 0.0
S1051 S 0.75683 0.41401 0.89664 0.0
N1052 N 0.73733 0.44522 0.87992 0.0
N1053 N 0.77856 0.39653 0.86672 0.0
C1054 C 0.77088 0.41634 0.84131 0.0
C1055 C 0.74839 0.44255 0.84844 0.0
C1056 C 0.05457 0.89606 0.99175 0.0
C1057 C 0.05004 0.89132 0.95817 0.0
C1058 C 0.0584 0.92726 1.00515 0.0
C1059 C 0.05785 0.95599 0.98596 0.0
H1060 H 0.05523 0.87535 0.00805 0.0
H1061 H 0.0614 0.92882 0.03114 0.0
S1062 S 0.04636 0.95784 0.89655 0.0
N1063 N 0.0453 0.91908 0.90607 0.0
N1064 N 0.05197 0.97675 0.93092 0.0
C1065 C 0.05331 0.95158 0.95233 0.0
C1066 C 0.0496 0.91978 0.93865 0.0
C1067 C 0.93607 0.32066 0.73359 0.0
C1068 C 0.9357 0.31333 0.70033 0.0
C1069 C 0.9067 0.32153 0.75272 0.0
C1070 C 0.87597 0.31549 0.73909 0.0
H1071 H 0.95922 0.32581 0.74501 0.0
H1072 H 0.90804 0.32746 0.7782 0.0
S1073 S 0.86172 0.29396 0.65336 0.0
N1074 N 0.90228 0.29901 0.6547 0.0
N1075 N 0.8469 0.30078 0.69059 0.0
C1076 C 0.87528 0.30773 0.70591 0.0
C1077 C 0.90523 0.30658 0.68652 0.0
C1078 C 0.53322 0.17013 0.44705 0.0
C1079 C 0.53832 0.19811 0.4655 0.0
C1080 C 0.53292 0.13853 0.46117 0.0
C1081 C 0.53857 0.13272 0.49453 0.0
H1082 H 0.52925 0.1726 0.42123 0.0
H1083 H 0.5289 0.11833 0.44552 0.0
S1084 S 0.55187 0.19704 0.5545 0.0
N1085 N 0.54783 0.21716 0.51985 0.0
N1086 N 0.54841 0.15855 0.5458 0.0
C1087 C 0.54361 0.16043 0.5133 0.0
C1088 C 0.54317 0.19268 0.49906 0.0
C1089 C 0.62245 0.80905 0.20118 0.0
C1090 C 0.59024 0.80035 0.21167 0.0
C1091 C 0.64997 0.80078 0.21957 0.0
C1092 C 0.64629 0.7837 0.24916 0.0
H1093 H 0.62664 0.82159 0.17817 0.0
H1094 H 0.67445 0.80692 0.21004 0.0
S1095 S 0.56698 0.75795 0.28892 0.0
N1096 N 0.55585 0.77535 0.25449 0.0
N1097 N 0.60793 0.76031 0.28933 0.0
C1098 C 0.61417 0.77573 0.26049 0.0
C1099 C 0.58603 0.784 0.24169 0.0
C1100 C 0.05092 0.24067 0.55088 0.0
C1101 C 0.05518 0.24323 0.58444 0.0
C1102 C 0.06055 0.21219 0.5348 0.0
C1103 C 0.07521 0.18638 0.55196 0.0
H1104 H 0.03815 0.25974 0.53762 0.0
H1105 H 0.05449 0.20939 0.50957 0.0
S1106 S 0.09545 0.18346 0.63895 0.0
N1107 N 0.0776 0.21931 0.63354 0.0
N1108 N 0.09634 0.16618 0.603 0.0
C1109 C 0.082 0.18995 0.5848 0.0
C1110 C 0.07173 0.21839 0.60121 0.0
C1111 C 0.66613 0.3023 0.38239 0.0
C1112 C 0.63773 0.29125 0.36704 0.0
C1113 C 0.69789 0.30253 0.36633 0.0
C1114 C 0.70309 0.29095 0.33438 0.0
H1115 H 0.66376 0.31126 0.40698 0.0
H1116 H 0.7187 0.31144 0.37933 0.0
S1117 S 0.63727 0.25894 0.28329 0.0
N1118 N 0.61722 0.26857 0.31765 0.0
N1119 N 0.6766 0.26795 0.28814 0.0
C1120 C 0.67496 0.2795 0.3189 0.0
C1121 C 0.6425 0.27995 0.33498 0.0
C1122 C 0.51887 0.93278 0.12419 0.0
C1123 C 0.509 0.90625 0.10638 0.0
C1124 C 0.52317 0.96276 0.10921 0.0
C1125 C 0.51799 0.96718 0.07582 0.0
H1126 H 0.52446 0.93019 0.14969 0.0
H1127 H 0.53219 0.98212 0.12368 0.0
S1128 S 0.48729 0.90642 0.01945 0.0
N1129 N 0.49059 0.88696 0.05451 0.0
N1130 N 0.49885 0.94357 0.02613 0.0
C1131 C 0.50592 0.94141 0.05818 0.0
C1132 C 0.50137 0.91083 0.07354 0.0
C1133 C 0.95395 0.80114 0.8281 0.0
C1134 C 0.95419 0.79468 0.86208 0.0
C1135 C 0.92436 0.79955 0.80997 0.0
C1136 C 0.89357 0.79051 0.82464 0.0
H1137 H 0.97686 0.80769 0.81532 0.0
H1138 H 0.92578 0.80497 0.78414 0.0
S1139 S 0.87949 0.77307 0.91294 0.0
N1140 N 0.91967 0.7804 0.90948 0.0
N1141 N 0.86527 0.77689 0.87589 0.0
C1142 C 0.89348 0.78436 0.85855 0.0
C1143 C 0.92329 0.78654 0.87703 0.0
C1144 C 0.97262 0.1142 0.84727 0.0
C1145 C 0.94211 0.09843 0.85018 0.0
C1146 C 0.9949 0.11293 0.87258 0.0
C1147 C 0.98724 0.0961 0.90164 0.0
H1148 H 0.97991 0.12655 0.82485 0.0
H1149 H 0.01867 0.12447 0.86907 0.0
S1150 S 0.90828 0.0548 0.9228 0.0
N1151 N 0.90399 0.06778 0.88502 0.0
N1152 N 0.94538 0.06645 0.93324 0.0
C1153 C 0.95605 0.08157 0.90541 0.0
C1154 C 0.93356 0.08251 0.87948 0.0
C1155 C 0.76632 0.24856 0.62114 0.0
C1156 C 0.78097 0.26304 0.59336 0.0
C1157 C 0.75337 0.26712 0.64669 0.0
C1158 C 0.75514 0.30088 0.6458 0.0
H1159 H 0.76537 0.22253 0.6234 0.0
H1160 H 0.74343 0.25492 0.66823 0.0
S1161 S 0.78916 0.35052 0.57745 0.0
N1162 N 0.79431 0.31299 0.5649 0.0
N1163 N 0.77113 0.34826 0.61414 0.0
C1164 C 0.76819 0.31587 0.61745 0.0
C1165 C 0.78092 0.29679 0.5909 0.0
C1166 C 0.62051 0.99495 0.41257 0.0
C1167 C 0.64618 0.01663 0.40563 0.0
C1168 C 0.60305 0.99562 0.44227 0.0
C1169 C 0.61081 0.01787 0.46598 0.0
H1170 H 0.61272 0.97832 0.3944 0.0
H1171 H 0.58215 0.97977 0.44599 0.0
S1172 S 0.67928 0.07629 0.46165 0.0
N1173 N 0.68134 0.05826 0.42607 0.0
N1174 N 0.64823 0.05949 0.48246 0.0
C1175 C 0.6384 0.03767 0.46062 0.0
C1176 C 0.6562 0.03708 0.43016 0.0
C1177 C 0.82938 0.85277 0.14364 0.0
C1178 C 0.80021 0.86044 0.12653 0.0
C1179 C 0.82822 0.83901 0.1756 0.0
C1180 C 0.79785 0.83158 0.19235 0.0
H1181 H 0.85349 0.85798 0.13248 0.0
H1182 H 0.85159 0.83409 0.18728 0.0
S1183 S 0.71398 0.8463 0.15872 0.0
N1184 N 0.73974 0.85918 0.12947 0.0
N1185 N 0.73766 0.83311 0.18836 0.0
C1186 C 0.76852 0.83872 0.17531 0.0
C1187 C 0.76968 0.85313 0.14296 0.0
C1188 C 0.97754 0.1086 0.68066 0.0
C1189 C 0.97385 0.08567 0.70598 0.0
C1190 C 0.99908 0.10246 0.65387 0.0
C1191 C 0.01715 0.07315 0.65171 0.0
H1192 H 0.96181 0.13016 0.68021 0.0
H1193 H 0.99879 0.11912 0.63333 0.0
S1194 S 0.02267 0.00914 0.71491 0.0
N1195 N 0.99525 0.03565 0.73008 0.0
N1196 N 0.0349 0.0239 0.6791 0.0
C1197 C 0.01678 0.05199 0.6785 0.0
C1198 C 0.99525 0.05832 0.70589 0.0
C1199 C 0.84241 0.22886 0.41976 0.0
C1200 C 0.81804 0.20712 0.43065 0.0
C1201 C 0.84351 0.24023 0.38769 0.0
C1202 C 0.82042 0.23015 0.3653 0.0
H1203 H 0.85967 0.2386 0.43652 0.0
H1204 H 0.86119 0.2587 0.38094 0.0
S1205 S 0.75506 0.16968 0.38008 0.0
N1206 N 0.77289 0.17278 0.41546 0.0
N1207 N 0.77504 0.19445 0.35489 0.0
C1208 C 0.79795 0.20616 0.37491 0.0
C1209 C 0.79668 0.19461 0.40775 0.0
C1210 C 0.62711 0.0226 0.2075 0.0
C1211 C 0.61655 0.03383 0.23825 0.0
C1212 C 0.61313 0.03508 0.1794 0.0
C1213 C 0.58771 0.05895 0.18091 0.0
H1214 H 0.64741 1.00506 0.20486 0.0
H1215 H 0.62318 0.02663 0.15622 0.0
S1216 S 0.54863 0.094 0.25566 0.0
N1217 N 0.57765 0.0687 0.26894 0.0
N1218 N 0.5506 0.09156 0.2156 0.0
C1219 C 0.57582 0.06945 0.21152 0.0
C1220 C 0.5903 0.05688 0.24033 0.0
C1221 C 0.79893 0.88536 0.91183 0.0
C1222 C 0.79851 0.86713 0.94128 0.0
C1223 C 0.79538 0.87106 0.88084 0.0
C1224 C 0.79064 0.8376 0.87722 0.0
H1225 H 0.80237 0.91113 0.91261 0.0
H1226 H 0.79661 0.88652 0.85942 0.0
S1227 S 0.78681 0.77858 0.94634 0.0
N1228 N 0.79266 0.81329 0.96416 0.0
N1229 N 0.78542 0.78681 0.90702 0.0
C1230 C 0.78976 0.81916 0.90658 0.0
C1231 C 0.7938 0.8337 0.93806 0.0
C1232 C 0.91022 0.98339 1.00774 0.0
C1233 C 0.89273 0.97388 0.03661 0.0
C1234 C 0.93967 1.00176 0.0082 0.0
C1235 C 0.9539 0.01096 0.03759 0.0
H1236 H 0.90104 0.97663 0.98441 0.0
H1237 H 0.95201 1.0079 0.98519 0.0
S1238 S 0.91837 0.99235 0.12018 0.0
N1239 N 0.89206 0.97601 0.09559 0.0
N1240 N 0.94747 0.00888 0.09647 0.0
C1241 C 0.93664 1.0016 0.06659 0.0
C1242 C 0.90621 0.98363 0.0661 0.0
C1243 C 0.39207 0.58529 0.04188 0.0
C1244 C 0.3905 0.61673 0.05446 0.0
C1245 C 0.4205 0.56554 0.04527 0.0
C1246 C 0.44818 0.57681 0.06108 0.0
H1247 H 0.3717 0.57624 0.02836 0.0
H1248 H 0.42147 0.54208 0.03399 0.0
S1249 S 0.45488 0.65502 0.1026 0.0
N1250 N 0.41777 0.65665 0.08652 0.0
N1251 N 0.47113 0.61943 0.09281 0.0
C1252 C 0.44614 0.60726 0.07557 0.0
C1253 C 0.41726 0.6273 0.07228 0.0
C1254 C 0.20968 0.62839 0.78611 0.0
C1255 C 0.22676 0.59864 0.78288 0.0
C1256 C 0.22315 0.6564 0.77299 0.0
C1257 C 0.25421 0.65572 0.75638 0.0
H1258 H 0.18582 0.6302 0.79916 0.0
H1259 H 0.20981 0.67909 0.77686 0.0
S1260 S 0.30835 0.584 0.74 0.0
N1261 N 0.27565 0.56977 0.76047 0.0
N1262 N 0.30138 0.62326 0.7363 0.0
C1263 C 0.27107 0.62613 0.75178 0.0
C1264 C 0.25725 0.59734 0.76504 0.0
C1265 C 0.2043 0.49793 0.55067 0.0
C1266 C 0.21013 0.46952 0.53259 0.0
C1267 C 0.17279 0.51424 0.55159 0.0
C1268 C 0.14583 0.50342 0.53378 0.0
H1269 H 0.2241 0.50741 0.56467 0.0
H1270 H 0.16968 0.53576 0.56607 0.0
S1271 S 0.14782 0.43041 0.48236 0.0
N1272 N 0.18567 0.43136 0.49665 0.0
N1273 N 0.12754 0.46211 0.49761 0.0
C1274 C 0.15152 0.47522 0.51542 0.0
C1275 C 0.18325 0.45832 0.51503 0.0
C1276 C 0.83475 0.98252 0.77491 0.0
C1277 C 0.84937 0.99991 0.7488 0.0
C1278 C 0.8258 0.95057 0.77132 0.0
C1279 C 0.83119 0.93491 0.74154 0.0
H1280 H 0.8305 0.99352 0.79846 0.0
H1281 H 0.81448 0.93804 0.79199 0.0
S1282 S 0.86935 0.96947 0.66589 0.0
N1283 N 0.86901 0.99921 0.69215 0.0
N1284 N 0.85235 0.9387 0.68558 0.0
C1285 C 0.84539 0.95205 0.71507 0.0
C1286 C 0.85444 0.98472 0.71867 0.0
C1287 C 0.72453 0.1189 0.58778 0.0
C1288 C 0.72138 0.1461 0.56716 0.0
C1289 C 0.6965 0.10173 0.5982 0.0
C1290 C 0.66472 0.11144 0.58836 0.0
H1291 H 0.74887 0.1099 0.59463 0.0
H1292 H 0.69986 0.07964 0.61216 0.0
S1293 S 0.64262 0.18409 0.53959 0.0
N1294 N 0.68364 0.18421 0.54082 0.0
N1295 N 0.63096 0.15204 0.56089 0.0
C1296 C 0.66103 0.14001 0.57005 0.0
C1297 C 0.68943 0.15732 0.55924 0.0
C1298 C 0.2564 0.42798 0.82246 0.0
C1299 C 0.22179 0.43059 0.81935 0.0
C1300 C 0.27289 0.39826 0.81959 0.0
C1301 C 0.25521 0.37027 0.81356 0.0
H1302 H 0.2711 0.44918 0.8257 0.0
H1303 H 0.29981 0.39757 0.8206 0.0
S1304 S 0.16345 0.36377 0.80925 0.0
N1305 N 0.16972 0.40251 0.8142 0.0
N1306 N 0.20079 0.3463 0.80885 0.0
C1307 C 0.22025 0.3722 0.81299 0.0
C1308 C 0.20348 0.40253 0.81582 0.0
C1309 C 0.3148 0.66181 0.2849 0.0
C1310 C 0.34061 0.65973 0.26086 0.0
C1311 C 0.29742 0.69086 0.29059 0.0
C1312 C 0.305 0.7183 0.27196 0.0
H1313 H 0.30897 0.64129 0.30046 0.0
H1314 H 0.27871 0.69213 0.31017 0.0
S1315 S 0.36886 0.72574 0.20541 0.0
N1316 N 0.37189 0.68772 0.21763 0.0
N1317 N 0.33851 0.74216 0.22814 0.0
C1318 C 0.32943 0.71637 0.24691 0.0
C1319 C 0.34741 0.68699 0.24128 0.0
C1320 C 0.54975 0.6659 0.63134 0.0
C1321 C 0.54939 0.69492 0.61261 0.0
C1322 C 0.54693 0.63485 0.61721 0.0
C1323 C 0.54311 0.63068 0.58341 0.0
H1324 H 0.55252 0.66709 0.65738 0.0
H1325 H 0.54796 0.61383 0.63308 0.0
S1326 S 0.54002 0.69846 0.523 0.0
N1327 N 0.54465 0.7167 0.5579 0.0
N1328 N 0.53895 0.65955 0.53176 0.0
C1329 C 0.54238 0.65959 0.56449 0.0
C1330 C 0.54559 0.69112 0.57885 0.0
C1331 C 0.67686 0.32096 0.89479 0.0
C1332 C 0.64699 0.31021 0.88258 0.0
C1333 C 0.70505 0.32431 0.87434 0.0
C1334 C 0.70405 0.3175 0.84097 0.0
H1335 H 0.67891 0.32551 0.9205 0.0
H1336 H 0.72794 0.33169 0.8849 0.0
S1337 S 0.63037 0.29267 0.79653 0.0
N1338 N 0.61693 0.29562 0.83478 0.0
N1339 N 0.67002 0.30231 0.79615 0.0
C1340 C 0.67373 0.3087 0.82812 0.0
C1341 C 0.64513 0.3049 0.84903 0.0
C1342 C 0.03048 0.39161 0.08168 0.0
C1343 C 0.04527 0.38564 0.11205 0.0
C1344 C 0.02844 0.42311 0.06725 0.0
C1345 C 0.04167 0.45049 0.08197 0.0
H1346 H 0.02001 0.37177 0.06898 0.0
H1347 H 0.01671 0.4259 0.04404 0.0
S1348 S 0.08334 0.44855 0.16145 0.0
N1349 N 0.07324 0.4107 0.15619 0.0
N1350 N 0.07023 0.46865 0.12924 0.0
C1351 C 0.05669 0.4447 0.11223 0.0
C1352 C 0.05824 0.41286 0.12711 0.0
C1353 C 0.98781 0.83661 0.36509 0.0
C1354 C 0.98021 0.8206 0.39464 0.0
C1355 C 0.96472 0.83822 0.34038 0.0
C1356 C 0.93332 0.82431 0.34475 0.0
H1357 H 0.01241 0.84608 0.36022 0.0
H1358 H 0.97182 0.84933 0.31727 0.0
S1359 S 0.90043 0.78321 0.41967 0.0
N1360 N 0.93845 0.79355 0.42841 0.0
N1361 N 0.89511 0.79603 0.38202 0.0
C1362 C 0.92476 0.81012 0.37514 0.0
C1363 C 0.94827 0.80844 0.40013 0.0
C1364 C 0.5034 0.3383 0.03346 0.0
C1365 C 0.53777 0.33097 0.03019 0.0
C1366 C 0.4918 0.36442 0.05217 0.0
C1367 C 0.51429 0.38347 0.06814 0.0
H1368 H 0.48578 0.32602 0.01892 0.0
H1369 H 0.46582 0.37187 0.05124 0.0
S1370 S 0.60502 0.36861 0.07465 0.0
N1371 N 0.59302 0.34055 0.04981 0.0
N1372 N 0.57093 0.38947 0.08529 0.0
C1373 C 0.54785 0.37349 0.06879 0.0
C1374 C 0.55973 0.34721 0.04962 0.0
C1375 C 0.94908 0.30626 0.24092 0.0
C1376 C 0.95497 0.28964 0.21145 0.0
C1377 C 0.91779 0.30562 0.25802 0.0
C1378 C 0.89101 0.28774 0.24689 0.0
H1379 H 0.9687 0.32028 0.25072 0.0
H1380 H 0.91466 0.31919 0.28025 0.0
S1381 S 0.89349 0.2394 0.1713 0.0
N1382 N 0.93099 0.25469 0.17211 0.0
N1383 N 0.87321 0.25278 0.20415 0.0
C1384 C 0.89682 0.27076 0.2176 0.0
C1385 C 0.92839 0.27189 0.19999 0.0
C1386 C 0.06644 0.67238 0.4566 0.0
C1387 C 0.07922 0.69674 0.47562 0.0
C1388 C 0.0687 0.64011 0.46641 0.0
C1389 C 0.08345 0.63126 0.49579 0.0
H1390 H 0.05332 0.67833 0.43466 0.0
H1391 H 0.05666 0.6224 0.45203 0.0
S1392 S 0.1257 0.68532 0.55145 0.0
N1393 N 0.11108 0.70953 0.52283 0.0
N1394 N 0.11501 0.64867 0.54155 0.0
C1395 C 0.09882 0.65506 0.51361 0.0
C1396 C 0.09675 0.68793 0.50346 0.0
C1397 C 0.65348 0.81853 0.73102 0.0
C1398 C 0.64253 0.78966 0.71738 0.0
C1399 C 0.68345 0.81975 0.74844 0.0
C1400 C 0.7035 0.79193 0.75432 0.0
H1401 H 0.63919 0.84069 0.72747 0.0
H1402 H 0.69096 0.84278 0.75743 0.0
S1403 S 0.68628 0.71005 0.72443 0.0
N1404 N 0.65497 0.73252 0.71109 0.0
N1405 N 0.70971 0.73448 0.74459 0.0
C1406 C 0.69244 0.76283 0.74137 0.0
C1407 C 0.66254 0.76178 0.72282 0.0
C1408 C 0.62773 0.51883 0.71552 0.0
C1409 C 0.61249 0.50437 0.74308 0.0
C1410 C 0.61535 0.51458 0.68468 0.0
C1411 C 0.58708 0.49607 0.68034 0.0
H1412 H 0.64949 0.53345 0.71773 0.0
H1413 H 0.62809 0.52589 0.66404 0.0
S1414 S 0.53742 0.45412 0.74514 0.0
N1415 N 0.56774 0.47093 0.76447 0.0
N1416 N 0.54361 0.46381 0.70636 0.0
C1417 C 0.57161 0.48136 0.70775 0.0
C1418 C 0.58455 0.48535 0.73919 0.0
C1419 C 0.84027 0.32868 0.98943 0.0
C1420 C 0.80679 0.32864 1.00083 0.0
C1421 C 0.84943 0.3164 0.95876 0.0
C1422 C 0.82535 0.30375 0.93895 0.0
H1423 H 0.85885 0.34102 1.00273 0.0
H1424 H 0.87465 0.3195 0.9493 0.0
S1425 S 0.73663 0.29035 0.96117 0.0
N1426 N 0.75111 0.30914 0.99266 0.0
N1427 N 0.76855 0.28599 0.93508 0.0
C1428 C 0.79289 0.29989 0.95179 0.0
C1429 C 0.78354 0.31233 0.98285 0.0
C1430 C 0.93137 0.5471 0.14347 0.0
C1431 C 0.94151 0.5669 0.16848 0.0
C1432 C 0.94771 0.54805 0.11297 0.0
C1433 C 0.97441 0.56881 0.10708 0.0
H1434 H 0.91242 0.52931 0.14808 0.0
H1435 H 0.94136 0.53054 0.09504 0.0
S1436 S 1.0043 0.63101 0.16188 0.0
N1437 N 0.97519 0.61209 0.18348 0.0
N1438 N 1.00609 0.6135 0.12607 0.0
C1439 C 0.98208 0.59117 0.13064 0.0
C1440 C 0.96555 0.59027 0.16153 0.0
C1441 C 0.77179 0.73813 0.43365 0.0
C1442 C 0.79923 0.71935 0.44458 0.0
C1443 C 0.77135 0.75225 0.40181 0.0
C1444 C 0.79872 0.7493 0.3793 0.0
H1445 H 0.75005 0.7415 0.44964 0.0
H1446 H 0.74937 0.76597 0.39491 0.0
S1447 S 0.87667 0.70237 0.39478 0.0
N1448 N 0.85436 0.69821 0.42901 0.0
N1449 N 0.85396 0.72544 0.37063 0.0
C1450 C 0.8264 0.73092 0.39002 0.0
C1451 C 0.82654 0.71586 0.42205 0.0
C1452 C 0.55783 0.54009 0.91082 0.0
C1453 C 0.57599 0.51188 0.90231 0.0
C1454 C 0.54083 0.54242 0.94088 0.0
C1455 C 0.54096 0.51647 0.9631 0.0
H1456 H 0.55901 0.56148 0.89545 0.0
H1457 H 0.52982 0.56552 0.94783 0.0
S1458 S 0.57829 0.43502 0.94946 0.0
N1459 N 0.58835 0.4557 0.91609 0.0
N1460 N 0.5559 0.46008 0.97269 0.0
C1461 C 0.55536 0.48685 0.95327 0.0
C1462 C 0.5731 0.48456 0.92275 0.0
C1463 C 0.75071 0.35351 0.16607 0.0
C1464 C 0.77387 0.37687 0.15629 0.0
C1465 C 0.75119 0.33961 0.19709 0.0
C1466 C 0.77448 0.34895 0.21958 0.0
H1467 H 0.73313 0.34461 0.14914 0.0
H1468 H 0.73428 0.32025 0.20298 0.0
S1469 S 0.83731 0.41237 0.20767 0.0
N1470 N 0.81848 0.41124 0.17264 0.0
N1471 N 0.81907 0.38513 0.23142 0.0
C1472 C 0.79602 0.3741 0.21115 0.0
C1473 C 0.79585 0.38802 0.17929 0.0
C1474 C 0.99959 0.53302 0.33423 0.0
C1475 C 0.97028 0.55215 0.33742 0.0
C1476 C 0.01741 0.52369 0.36151 0.0
C1477 C 1.00653 0.53332 0.39269 0.0
H1478 H 1.00839 0.52449 0.31062 0.0
H1479 H 0.03974 0.50876 0.35833 0.0
S1480 S 0.93111 0.58297 0.41431 0.0
N1481 N 0.93136 0.58063 0.3743 0.0
N1482 N 0.96444 0.56228 0.42555 0.0
C1483 C 0.97753 0.55275 0.39622 0.0
C1484 C 0.95953 0.56245 0.36853 0.0
C1485 C 0.79537 0.69849 0.66345 0.0
C1486 C 0.80119 0.7162 0.63412 0.0
C1487 C 0.79878 0.71215 0.6948 0.0
C1488 C 0.80844 0.74441 0.69894 0.0
H1489 H 0.78786 0.67367 0.66227 0.0
H1490 H 0.79328 0.69726 0.71604 0.0
S1491 S 0.82753 0.80151 0.63042 0.0
N1492 N 0.81768 0.76815 0.61199 0.0
N1493 N 0.8242 0.79343 0.66979 0.0
C1494 C 0.81463 0.76227 0.66975 0.0
C1495 C 0.81103 0.74838 0.63789 0.0
C1496 C 0.68302 0.61947 0.51585 0.0
C1497 C 0.70859 0.61112 0.53737 0.0
C1498 C 0.65361 0.60138 0.5142 0.0
C1499 C 0.64745 0.5741 0.53444 0.0
H1500 H 0.68575 0.64029 0.49989 0.0
H1501 H 0.63506 0.60951 0.49725 0.0
S1502 S 0.70589 0.5419 0.59577 0.0
N1503 N 0.72549 0.57306 0.57944 0.0
N1504 N 0.67019 0.54005 0.57718 0.0
C1505 C 0.67278 0.56549 0.5562 0.0
C1506 C 0.70316 0.5836 0.55742 0.0
C1507 C 0.15321 0.95106 0.5779 0.0
C1508 C 0.18309 0.96795 0.57809 0.0
C1509 C 0.12253 0.96741 0.57703 0.0
C1510 C 0.12067 1.00126 0.576 0.0
H1511 H 0.15347 0.92495 0.57791 0.0
H1512 H 0.10023 0.95332 0.57616 0.0
S1513 S 0.19167 0.05674 0.57817 0.0
N1514 N 0.20904 0.0203 0.57888 0.0
N1515 N 0.15117 0.05124 0.57704 0.0
C1516 C 0.15031 0.01851 0.57723 0.0
C1517 C 0.18161 1.00179 0.57835 0.0
C1518 C 0.39313 0.95292 0.80573 0.0
C1519 C 0.37188 0.98014 0.80324 0.0
C1520 C 0.38303 0.92567 0.82301 0.0
C1521 C 0.3513 0.92458 0.83812 0.0
H1522 H 0.41765 0.95239 0.79386 0.0
H1523 H 0.39935 0.9045 0.82307 0.0
S1524 S 0.28702 0.98997 0.84051 0.0
N1525 N 0.31853 1.0053 0.81905 0.0
N1526 N 0.2991 0.95303 0.85098 0.0
C1527 C 0.33035 0.95205 0.83729 0.0
C1528 C 0.34075 0.98012 0.81984 0.0
C1529 C 0.42074 0.1319 0.05154 0.0
C1530 C 0.39542 0.1216 0.03139 0.0
C1531 C 0.45252 0.11643 0.05177 0.0
C1532 C 0.46106 0.09021 0.03132 0.0
H1533 H 0.41584 0.15195 0.06772 0.0
H1534 H 0.47069 0.12536 0.06805 0.0
S1535 S 0.40441 0.05432 0.97287 0.0
N1536 N 0.38152 0.08343 0.99005 0.0
N1537 N 0.4411 0.05514 0.98973 0.0
C1538 C 0.43613 0.07997 0.01063 0.0
C1539 C 0.40349 0.09536 0.01089 0.0
C1540 C 0.72765 0.60593 0.86358 0.0
C1541 C 0.69614 0.60757 0.84974 0.0
C1542 C 0.74865 0.63226 0.8618 0.0
C1543 C 0.73877 0.6611 0.84628 0.0
H1544 H 0.73689 0.58369 0.87449 0.0
H1545 H 0.77329 0.62961 0.8715 0.0
S1546 S 0.65646 0.67942 0.81122 0.0
N1547 N 0.65454 0.64135 0.8232 0.0
N1548 N 0.69381 0.69126 0.82068 0.0
C1549 C 0.70649 0.66375 0.83421 0.0
C1550 C 0.68518 0.63686 0.8358 0.0
C1551 C 0.86054 0.45865 0.98499 0.0
C1552 C 0.84424 0.46759 0.01445 0.0
C1553 C 0.88911 0.47462 0.97362 0.0
C1554 C 0.90169 0.49995 0.99135 0.0
H1555 H 0.85271 0.43778 0.97197 0.0
H1556 H 0.90285 0.46559 0.9524 0.0
S1557 S 0.86375 0.53688 0.06568 0.0
N1558 N 0.83962 0.50639 0.05818 0.0
N1559 N 0.89288 0.53674 0.03636 0.0
C1560 C 0.88354 0.51115 0.01884 0.0
C1561 C 0.85487 0.49481 0.03058 0.0
C1562 C 0.34808 0.15653 0.74533 0.0
C1563 C 0.38091 0.15055 0.75456 0.0
C1564 C 0.3348 0.18775 0.74484 0.0
C1565 C 0.35388 0.21394 0.75384 0.0
H1566 H 0.33208 0.13692 0.73951 0.0
H1567 H 0.30881 0.19102 0.73904 0.0
S1568 S 0.44307 0.21138 0.77456 0.0
N1569 N 0.43375 0.17344 0.76876 0.0
N1570 N 0.40852 0.23245 0.76808 0.0
C1571 C 0.38762 0.20859 0.76053 0.0
C1572 C 0.4012 0.17671 0.76095 0.0
C1573 C 0.20448 0.93999 0.2829 0.0
C1574 C 0.20779 0.95584 0.31248 0.0
C1575 C 0.22382 0.91275 0.2753 0.0
C1576 C 0.24703 0.90004 0.29715 0.0
H1577 H 0.18598 0.94801 0.26581 0.0
H1578 H 0.21917 0.90068 0.25277 0.0
S1579 S 0.26926 0.93617 0.37531 0.0
N1580 N 0.23895 0.95981 0.36183 0.0
N1581 N 0.27548 0.90793 0.34772 0.0
C1582 C 0.25255 0.91717 0.32569 0.0
C1583 C 0.23283 0.94525 0.33335 0.0
C1584 C 0.55351 0.39317 0.49344 0.0
C1585 C 0.54905 0.389 0.45974 0.0
C1586 C 0.55753 0.42413 0.5074 0.0
C1587 C 0.5573 0.45317 0.4887 0.0
H1588 H 0.5539 0.37221 0.50941 0.0
H1589 H 0.56045 0.42524 0.53343 0.0
S1590 S 0.54616 0.45655 0.39923 0.0
N1591 N 0.54472 0.41766 0.4081 0.0
N1592 N 0.55182 0.47483 0.43393 0.0
C1593 C 0.55287 0.44932 0.45495 0.0
C1594 C 0.54892 0.41778 0.44072 0.0
C1595 C 0.42033 0.81527 0.23271 0.0
C1596 C 0.42109 0.82162 0.19913 0.0
C1597 C 0.39041 0.81641 0.2508 0.0
C1598 C 0.36019 0.82417 0.23596 0.0
H1599 H 0.44296 0.80862 0.24504 0.0
H1600 H 0.39097 0.81024 0.27646 0.0
S1601 S 0.34996 0.84771 0.14947 0.0
N1602 N 0.39008 0.83888 0.15207 0.0
N1603 N 0.33337 0.8416 0.1863 0.0
C1604 C 0.36081 0.83195 0.20256 0.0
C1605 C 0.39141 0.83049 0.18405 0.0
C1606 C 0.02746 0.67352 0.95108 0.0
C1607 C 0.04199 0.70011 0.966 0.0
C1608 C 0.02656 0.64222 0.96589 0.0
C1609 C 0.04084 0.63522 0.99628 0.0
H1610 H 0.01633 0.67693 0.92764 0.0
H1611 H 0.01485 0.62317 0.95305 0.0
S1612 S 0.083 0.69565 0.04567 0.0
N1613 N 0.0712 0.71659 0.01344 0.0
N1614 N 0.0705 0.65852 0.04045 0.0
C1615 C 0.05576 0.66156 0.01131 0.0
C1616 C 0.05606 0.69356 0.99652 0.0
C1617 C 0.13581 0.29972 0.6917 0.0
C1618 C 0.10427 0.2887 0.70164 0.0
C1619 C 0.16429 0.28902 0.70736 0.0
C1620 C 0.16229 0.26708 0.73366 0.0
H1621 H 0.13867 0.31648 0.67142 0.0
H1622 H 0.18816 0.29789 0.69867 0.0
S1623 S 0.08556 0.23159 0.76975 0.0
N1624 N 0.07247 0.25477 0.73959 0.0
N1625 N 0.12643 0.23514 0.7695 0.0
C1626 C 0.13099 0.25579 0.74391 0.0
C1627 C 0.10183 0.26658 0.72783 0.0
C1628 C 0.54608 0.70881 0.11481 0.0
C1629 C 0.54112 0.73688 0.09612 0.0
C1630 C 0.5585 0.68063 0.10055 0.0
C1631 C 0.56562 0.67916 0.06689 0.0
H1632 H 0.54037 0.70856 0.14076 0.0
H1633 H 0.56164 0.65944 0.1159 0.0
S1634 S 0.55796 0.74665 1.00747 0.0
N1635 N 0.54589 0.76249 0.0427 0.0
N1636 N 0.56787 0.70851 0.01532 0.0
C1637 C 0.56185 0.70737 0.04799 0.0
C1638 C 0.54977 0.73648 0.06276 0.0
C1639 C 0.15101 0.77612 0.84137 0.0
C1640 C 0.14402 0.79054 0.87184 0.0
C1641 C 0.18357 0.77547 0.82678 0.0
C1642 C 0.21069 0.78984 0.84156 0.0
H1643 H 0.13119 0.76495 0.82872 0.0
H1644 H 0.18739 0.76392 0.80346 0.0
S1645 S 0.20605 0.83087 0.92142 0.0
N1646 N 0.16757 0.8193 0.9163 0.0
N1647 N 0.22781 0.81877 0.88889 0.0
C1648 C 0.20392 0.80445 0.87196 0.0
C1649 C 0.171 0.8046 0.88703 0.0
C1650 C 0.02388 0.43233 0.62359 0.0
C1651 C 0.01443 0.40577 0.60561 0.0
C1652 C 0.0265 0.46274 0.60909 0.0
C1653 C 0.02009 0.46759 0.57597 0.0
H1654 H 0.03043 0.42946 0.64882 0.0
H1655 H 0.03525 0.48215 0.62366 0.0
S1656 S 0.99011 0.40664 0.51941 0.0
N1657 N 0.99519 0.38672 0.55397 0.0
N1658 N 1.00039 0.44411 0.52645 0.0
C1659 C 1.00845 0.44169 0.55823 0.0
C1660 C 1.00555 0.41067 0.57314 0.0
C1661 C 0.4486 0.27095 0.33489 0.0
C1662 C 0.45159 0.29329 0.36034 0.0
C1663 C 0.41951 0.26969 0.31613 0.0
C1664 C 0.39235 0.29153 0.32094 0.0
H1665 H 0.46874 0.25376 0.32978 0.0
H1666 H 0.4184 0.25156 0.29755 0.0
S1667 S 0.3869 0.35493 0.38391 0.0
N1668 N 0.42374 0.33745 0.38924 0.0
N1669 N 0.37058 0.33616 0.35334 0.0
C1670 C 0.39519 0.3142 0.34593 0.0
C1671 C 0.42427 0.31483 0.36568 0.0
C1672 C 0.48512 0.61501 0.34981 0.0
C1673 C 0.45336 0.60153 0.35183 0.0
C1674 C 0.50545 0.61424 0.37662 0.0
C1675 C 0.4945 0.60016 0.40617 0.0
H1676 H 0.49506 0.62465 0.32695 0.0
H1677 H 0.53044 0.62334 0.37381 0.0
S1678 S 0.41093 0.56735 0.42549 0.0
N1679 N 0.41022 0.5774 0.38653 0.0
N1680 N 0.44821 0.5769 0.4374 0.0
C1681 C 0.46185 0.58884 0.40916 0.0
C1682 C 0.44128 0.58932 0.38181 0.0
C1683 C 0.29678 0.77144 0.10527 0.0
C1684 C 0.27586 0.7556 0.08447 0.0
C1685 C 0.28367 0.78757 0.13248 0.0
C1686 C 0.24924 0.78852 0.13999 0.0
H1687 H 0.32362 0.76965 0.10173 0.0
H1688 H 0.30081 0.79764 0.14898 0.0
S1689 S 0.18345 0.75403 0.09119 0.0
N1690 N 0.21861 0.74452 0.07119 0.0
N1691 N 0.19418 0.77487 0.12294 0.0
C1692 C 0.22777 0.77517 0.11797 0.0
C1693 C 0.24108 0.75869 0.09001 0.0
C1694 C 0.15029 0.53235 0.93431 0.0
C1695 C 0.13985 0.51176 0.91007 0.0
C1696 C 0.13327 0.53355 0.96443 0.0
C1697 C 0.10556 0.51418 0.97073 0.0
H1698 H 0.17006 0.54918 0.92923 0.0
H1699 H 0.14005 0.55158 0.98166 0.0
S1700 S 0.07417 0.45063 0.91832 0.0
N1701 N 0.10452 0.46736 0.89646 0.0
N1702 N 0.07238 0.46983 0.95322 0.0
C1703 C 0.09742 0.491 0.94811 0.0
C1704 C 0.11464 0.48976 0.91757 0.0
C1705 C 0.27767 0.35159 0.63947 0.0
C1706 C 0.30695 0.36265 0.62319 0.0
C1707 C 0.27795 0.33738 0.6712 0.0
C1708 C 0.30741 0.33404 0.68904 0.0
H1709 H 0.2541 0.35384 0.62753 0.0
H1710 H 0.25457 0.32936 0.68204 0.0
S1711 S 0.39108 0.3595 0.65829 0.0
N1712 N 0.3665 0.36895 0.62806 0.0
N1713 N 0.36692 0.34347 0.68721 0.0
C1714 C 0.33684 0.3452 0.67311 0.0
C1715 C 0.33665 0.35907 0.64054 0.0
C1716 C 0.5049 0.59035 0.18694 0.0
C1717 C 0.49282 0.56617 0.20815 0.0
C1718 C 0.52469 0.58244 0.1595 0.0
C1719 C 0.5323 0.55004 0.15226 0.0
H1720 H 0.49695 0.61528 0.19013 0.0
H1721 H 0.53081 0.60149 0.14219 0.0
S1722 S 0.51339 0.47867 0.2041 0.0
N1723 N 0.49526 0.50928 0.22352 0.0
N1724 N 0.5319 0.49438 0.17132 0.0
C1725 C 0.524 0.52614 0.1754 0.0
C1726 C 0.50426 0.53422 0.20358 0.0
C1727 C 0.34982 0.7302 0.92888 0.0
C1728 C 0.33167 0.7022 0.93546 0.0
C1729 C 0.34972 0.74493 0.8982 0.0
C1730 C 0.33168 0.73206 0.87297 0.0
H1731 H 0.36256 0.74202 0.94802 0.0
H1732 H 0.36235 0.76757 0.89482 0.0
S1733 S 0.28536 0.65576 0.87601 0.0
N1734 N 0.29911 0.65955 0.9131 0.0
N1735 N 0.29909 0.6873 0.85514 0.0
C1736 C 0.31619 0.70234 0.87824 0.0
C1737 C 0.3161 0.68739 0.90965 0.0
C1738 C 0.12657 0.52627 0.70971 0.0
C1739 C 0.11496 0.53764 0.7401 0.0
C1740 C 0.11325 0.53822 0.68115 0.0
C1741 C 0.08747 0.56169 0.6818 0.0
H1742 H 0.14705 0.50885 0.70774 0.0
H1743 H 0.12397 0.5296 0.6583 0.0
S1744 S 0.04579 0.59699 0.7552 0.0
N1745 N 0.07482 0.57229 0.7695 0.0
N1746 N 0.04893 0.59417 0.71519 0.0
C1747 C 0.07462 0.57244 0.71199 0.0
C1748 C 0.08846 0.56042 0.74132 0.0
C1749 C 0.29635 0.38739 0.40793 0.0
C1750 C 0.29785 0.36901 0.43722 0.0
C1751 C 0.29262 0.37306 0.37694 0.0
C1752 C 0.28971 0.33937 0.37317 0.0
H1753 H 0.29834 0.41333 0.40882 0.0
H1754 H 0.29234 0.38867 0.35563 0.0
S1755 S 0.29199 0.27976 0.44177 0.0
N1756 N 0.29608 0.31471 0.45972 0.0
N1757 N 0.2888 0.28813 0.40264 0.0
C1758 C 0.29093 0.32075 0.40237 0.0
C1759 C 0.29504 0.33534 0.43382 0.0
C1760 C 0.40997 0.4854 0.50716 0.0
C1761 C 0.39181 0.47522 0.53538 0.0
C1762 C 0.43978 0.50305 0.50883 0.0
C1763 C 0.4537 0.51077 0.53883 0.0
H1764 H 0.40106 0.4797 0.48342 0.0
H1765 H 0.45265 0.50976 0.48626 0.0
S1766 S 0.41645 0.4897 0.62013 0.0
N1767 N 0.3902 0.47499 0.59444 0.0
N1768 N 0.44626 0.50653 0.59755 0.0
C1769 C 0.43575 0.50073 0.5672 0.0
C1770 C 0.40497 0.48351 0.56549 0.0
C1771 C 0.91894 0.14168 0.53921 0.0
C1772 C 0.88707 0.12869 0.54112 0.0
C1773 C 0.94723 0.12202 0.54216 0.0
C1774 C 0.94488 0.08851 0.54751 0.0
H1775 H 0.92217 0.16729 0.53516 0.0
H1776 H 0.97118 0.1335 0.54053 0.0
S1777 S 0.86684 0.04267 0.55497 0.0
N1778 N 0.85431 0.08039 0.54879 0.0
N1779 N 0.90795 0.04319 0.55482 0.0
C1780 C 0.9131 0.07511 0.54958 0.0
C1781 C 0.88408 0.09525 0.54624 0.0
C1782 C 0.75157 0.10281 0.25278 0.0
C1783 C 0.72111 0.10202 0.27058 0.0
C1784 C 0.76245 0.13161 0.23841 0.0
C1785 C 0.74286 0.15991 0.24129 0.0
H1786 H 0.76777 0.08158 0.25139 0.0
H1787 H 0.78721 0.13237 0.22717 0.0
S1788 S 0.6586 0.16883 0.27961 0.0
N1789 N 0.66951 0.13075 0.28618 0.0
N1790 N 0.69024 0.18474 0.25892 0.0
C1791 C 0.71121 0.15864 0.25641 0.0
C1792 C 0.70026 0.12967 0.27127 0.0
C1793 C 0.68691 0.96149 0.01516 0.0
C1794 C 0.71202 0.96991 0.03639 0.0
C1795 C 0.65556 0.97762 0.01537 0.0
C1796 C 0.64727 1.00267 0.0373 0.0
H1797 H 0.69156 0.94228 0.99792 0.0
H1798 H 0.63748 0.97004 0.99828 0.0
S1799 S 0.70359 0.03355 0.09892 0.0
N1800 N 0.72613 1.00505 0.08033 0.0
N1801 N 0.6672 0.0347 0.08136 0.0
C1802 C 0.67203 0.01115 0.05898 0.0
C1803 C 0.70429 0.99504 0.05834 0.0
C1804 C 0.34596 0.48197 0.27364 0.0
C1805 C 0.36196 0.49844 0.24769 0.0
C1806 C 0.33394 0.45109 0.26962 0.0
C1807 C 0.33766 0.43557 0.23958 0.0
H1808 H 0.3429 0.4929 0.29735 0.0
H1809 H 0.32159 0.43928 0.29018 0.0
S1810 S 0.37903 0.46783 0.16439 0.0
N1811 N 0.38141 0.49699 0.19105 0.0
N1812 N 0.3592 0.43843 0.18366 0.0
C1813 C 0.35343 0.45181 0.21333 0.0
C1814 C 0.3655 0.48343 0.21735 0.0
C1815 C 0.19816 0.6436 0.05971 0.0
C1816 C 0.22902 0.63108 0.06941 0.0
C1817 C 0.1687 0.62948 0.07053 0.0
C1818 C 0.16916 0.60206 0.09093 0.0
H1819 H 0.19675 0.66411 0.04316 0.0
H1820 H 0.14536 0.63913 0.06168 0.0
S1821 S 0.24355 0.56165 0.12513 0.0
N1822 N 0.25858 0.59155 0.10256 0.0
N1823 N 0.20264 0.56407 0.12212 0.0
C1824 C 0.1997 0.59038 0.10233 0.0
C1825 C 0.22987 0.60511 0.09164 0.0
C1826 C 0.76928 0.93314 0.31373 0.0
C1827 C 0.73558 0.9366 0.32339 0.0
C1828 C 0.7845 0.90256 0.31247 0.0
C1829 C 0.76621 0.87505 0.32094 0.0
H1830 H 0.78312 0.95374 0.30483 0.0
H1831 H 0.80968 0.90029 0.30232 0.0
S1832 S 0.68003 0.87293 0.35592 0.0
N1833 N 0.68638 0.91133 0.34741 0.0
N1834 N 0.71509 0.85372 0.34525 0.0
C1835 C 0.73378 0.87878 0.33425 0.0
C1836 C 0.71833 0.90973 0.33536 0.0
C1837 C 0.81248 0.1807 0.74291 0.0
C1838 C 0.81622 0.15984 0.76987 0.0
C1839 C 0.79928 0.21193 0.74696 0.0
C1840 C 0.78989 0.22304 0.77808 0.0
H1841 H 0.82223 0.17387 0.71905 0.0
H1842 H 0.79949 0.2283 0.72619 0.0
S1843 S 0.787 0.1756 0.85491 0.0
N1844 N 0.80322 0.15052 0.82755 0.0
N1845 N 0.77939 0.20968 0.83505 0.0
C1846 C 0.78984 0.20136 0.80445 0.0
C1847 C 0.80273 0.16948 0.80033 0.0
loop_
_geom_bond_atom_site_label_1
_geom_bond_atom_site_label_2
_geom_bond_distance
_geom_bond_site_symmetry_2
_ccdc_geom_bond_type
In0 O1 2.294 . S
In0 O2 2.326 . S
In0 O6 2.266 . S
In0 O7 2.326 . S
In0 O8 2.266 . S
In0 O9 2.326 . S
In0 O11 2.294 1_455 S
In0 O12 2.326 1_455 S
O1 In0 2.294 . S
O1 C10 1.240 . S
O2 In0 2.326 . S
O2 C10 1.252 . S
C3 O6 1.252 . S
C3 O7 1.260 . S
C4 O11 1.240 . S
C4 O12 1.252 . S
C5 O8 1.252 . S
C5 O9 1.260 . S
O6 In0 2.266 . S
O6 C3 1.252 . S
O7 In0 2.326 . S
O7 C3 1.260 . S
O8 In0 2.266 . S
O8 C5 1.252 . S
O9 In0 2.326 . S
O9 C5 1.260 . S
C10 O1 1.240 . S
C10 O2 1.252 . S
O11 In0 2.294 1_655 S
O11 C4 1.240 . S
O12 In0 2.326 1_655 S
O12 C4 1.252 . S
In13 O14 2.294 . S
In13 O15 2.326 . S
In13 O19 2.266 . S
In13 O20 2.326 . S
In13 O21 2.266 . S
In13 O22 2.326 . S
In13 O24 2.294 . S
In13 O25 2.326 . S
O14 In13 2.294 . S
O14 C23 1.240 . S
O15 In13 2.326 . S
O15 C23 1.252 . S
C16 O19 1.252 . S
C16 O20 1.260 . S
C17 O24 1.240 . S
C17 O25 1.252 . S
C18 O21 1.252 . S
C18 O22 1.260 . S
O19 In13 2.266 . S
O19 C16 1.252 . S
O20 In13 2.326 . S
O20 C16 1.260 . S
O21 In13 2.266 . S
O21 C18 1.252 . S
O22 In13 2.326 . S
O22 C18 1.260 . S
C23 O14 1.240 . S
C23 O15 1.252 . S
O24 In13 2.294 . S
O24 C17 1.240 . S
O25 In13 2.326 . S
O25 C17 1.252 . S
In26 O27 2.294 . S
In26 O28 2.326 . S
In26 O32 2.266 . S
In26 O33 2.326 . S
In26 O34 2.266 . S
In26 O35 2.326 . S
In26 O37 2.294 . S
In26 O38 2.326 . S
O27 In26 2.294 . S
O27 C36 1.240 . S
O28 In26 2.326 . S
O28 C36 1.252 . S
C29 O32 1.252 . S
C29 O33 1.260 . S
C30 O37 1.240 . S
C30 O38 1.252 . S
C31 O34 1.252 . S
C31 O35 1.260 . S
O32 In26 2.266 . S
O32 C29 1.252 . S
O33 In26 2.326 . S
O33 C29 1.260 . S
O34 In26 2.266 . S
O34 C31 1.252 . S
O35 In26 2.326 . S
O35 C31 1.260 . S
C36 O27 1.240 . S
C36 O28 1.252 . S
O37 In26 2.294 . S
O37 C30 1.240 . S
O38 In26 2.326 . S
O38 C30 1.252 . S
In39 O40 2.294 . S
In39 O41 2.326 . S
In39 O45 2.266 . S
In39 O46 2.326 . S
In39 O47 2.266 . S
In39 O48 2.326 . S
In39 O50 2.294 . S
In39 O51 2.326 . S
O40 In39 2.294 . S
O40 C49 1.240 . S
O41 In39 2.326 . S
O41 C49 1.252 . S
C42 O45 1.252 . S
C42 O46 1.260 . S
C43 O50 1.240 . S
C43 O51 1.252 . S
C44 O47 1.252 . S
C44 O48 1.260 . S
O45 In39 2.266 . S
O45 C42 1.252 . S
O46 In39 2.326 . S
O46 C42 1.260 . S
O47 In39 2.266 . S
O47 C44 1.252 . S
O48 In39 2.326 . S
O48 C44 1.260 . S
C49 O40 1.240 . S
C49 O41 1.252 . S
O50 In39 2.294 . S
O50 C43 1.240 . S
O51 In39 2.326 . S
O51 C43 1.252 . S
In52 O53 2.294 1_545 S
In52 O54 2.326 1_545 S
In52 O58 2.266 . S
In52 O59 2.326 . S
In52 O60 2.266 . S
In52 O61 2.326 . S
In52 O63 2.299 . S
In52 O64 2.326 . S
O53 In52 2.294 1_565 S
O53 C62 1.240 . S
O54 In52 2.326 1_565 S
O54 C62 1.252 . S
C55 O58 1.252 . S
C55 O59 1.260 . S
C56 O63 1.240 . S
C56 O64 1.254 . S
C57 O60 1.252 . S
C57 O61 1.260 . S
O58 In52 2.266 . S
O58 C55 1.252 . S
O59 In52 2.326 . S
O59 C55 1.260 . S
O60 In52 2.266 . S
O60 C57 1.252 . S
O61 In52 2.326 . S
O61 C57 1.260 . S
C62 O53 1.240 . S
C62 O54 1.252 . S
O63 In52 2.299 . S
O63 C56 1.240 . S
O64 In52 2.326 . S
O64 C56 1.254 . S
In65 O66 2.294 . S
In65 O67 2.326 . S
In65 O71 2.266 . S
In65 O72 2.326 . S
In65 O73 2.266 . S
In65 O74 2.326 . S
In65 O76 2.294 . S
In65 O77 2.326 . S
O66 In65 2.294 . S
O66 C75 1.240 . S
O67 In65 2.326 . S
O67 C75 1.252 . S
C68 O71 1.252 . S
C68 O72 1.260 . S
C69 O76 1.240 . S
C69 O77 1.252 . S
C70 O73 1.252 . S
C70 O74 1.260 . S
O71 In65 2.266 . S
O71 C68 1.252 . S
O72 In65 2.326 . S
O72 C68 1.260 . S
O73 In65 2.266 . S
O73 C70 1.252 . S
O74 In65 2.326 . S
O74 C70 1.260 . S
C75 O66 1.240 . S
C75 O67 1.252 . S
O76 In65 2.294 . S
O76 C69 1.240 . S
O77 In65 2.326 . S
O77 C69 1.252 . S
In78 O79 2.294 . S
In78 O80 2.326 . S
In78 O84 2.266 . S
In78 O85 2.326 . S
In78 O86 2.266 . S
In78 O87 2.326 . S
In78 O89 2.294 . S
In78 O90 2.326 . S
O79 In78 2.294 . S
O79 C88 1.240 . S
O80 In78 2.326 . S
O80 C88 1.252 . S
C81 O84 1.252 . S
C81 O85 1.260 . S
C82 O89 1.240 . S
C82 O90 1.252 . S
C83 O86 1.252 . S
C83 O87 1.260 . S
O84 In78 2.266 . S
O84 C81 1.252 . S
O85 In78 2.326 . S
O85 C81 1.260 . S
O86 In78 2.266 . S
O86 C83 1.252 . S
O87 In78 2.326 . S
O87 C83 1.260 . S
C88 O79 1.240 . S
C88 O80 1.252 . S
O89 In78 2.294 . S
O89 C82 1.240 . S
O90 In78 2.326 . S
O90 C82 1.252 . S
In91 O92 2.294 . S
In91 O93 2.326 . S
In91 O97 2.266 . S
In91 O98 2.326 . S
In91 O99 2.266 . S
In91 O100 2.326 1_554 S
In91 O102 2.294 . S
In91 O103 2.326 . S
O92 In91 2.294 . S
O92 C101 1.240 . S
O93 In91 2.326 . S
O93 C101 1.252 . S
C94 O97 1.252 . S
C94 O98 1.260 . S
C95 O102 1.240 . S
C95 O103 1.252 . S
C96 O99 1.252 1_556 S
C96 O100 1.260 . S
O97 In91 2.266 . S
O97 C94 1.252 . S
O98 In91 2.326 . S
O98 C94 1.260 . S
O99 In91 2.266 . S
O99 C96 1.252 1_554 S
O100 In91 2.326 1_556 S
O100 C96 1.260 . S
C101 O92 1.240 . S
C101 O93 1.252 . S
O102 In91 2.294 . S
O102 C95 1.240 . S
O103 In91 2.326 . S
O103 C95 1.252 . S
In104 O105 2.294 . S
In104 O106 2.326 . S
In104 O110 2.266 . S
In104 O111 2.326 . S
In104 O112 2.266 . S
In104 O113 2.326 . S
In104 O115 2.294 . S
In104 O116 2.326 . S
O105 In104 2.294 . S
O105 C114 1.240 . S
O106 In104 2.326 . S
O106 C114 1.252 . S
C107 O110 1.252 . S
C107 O111 1.260 . S
C108 O115 1.240 . S
C108 O116 1.252 . S
C109 O112 1.252 . S
C109 O113 1.260 . S
O110 In104 2.266 . S
O110 C107 1.252 . S
O111 In104 2.326 . S
O111 C107 1.260 . S
O112 In104 2.266 . S
O112 C109 1.252 . S
O113 In104 2.326 . S
O113 C109 1.260 . S
C114 O105 1.240 . S
C114 O106 1.252 . S
O115 In104 2.294 . S
O115 C108 1.240 . S
O116 In104 2.326 . S
O116 C108 1.252 . S
In117 O118 2.294 . S
In117 O119 2.326 . S
In117 O123 2.266 . S
In117 O124 2.326 . S
In117 O125 2.266 . S
In117 O126 2.326 . S
In117 O128 2.294 . S
In117 O129 2.326 . S
O118 In117 2.294 . S
O118 C127 1.240 . S
O119 In117 2.326 . S
O119 C127 1.252 . S
C120 O123 1.252 . S
C120 O124 1.260 . S
C121 O128 1.240 . S
C121 O129 1.252 . S
C122 O125 1.252 . S
C122 O126 1.260 . S
O123 In117 2.266 . S
O123 C120 1.252 . S
O124 In117 2.326 . S
O124 C120 1.260 . S
O125 In117 2.266 . S
O125 C122 1.252 . S
O126 In117 2.326 . S
O126 C122 1.260 . S
C127 O118 1.240 . S
C127 O119 1.252 . S
O128 In117 2.294 . S
O128 C121 1.240 . S
O129 In117 2.326 . S
O129 C121 1.252 . S
In130 O131 2.294 . S
In130 O132 2.326 . S
In130 O136 2.266 . S
In130 O137 2.326 . S
In130 O138 2.266 . S
In130 O139 2.326 . S
In130 O141 2.294 . S
In130 O142 2.326 . S
O131 In130 2.294 . S
O131 C140 1.240 . S
O132 In130 2.326 . S
O132 C140 1.252 . S
C133 O136 1.252 . S
C133 O137 1.260 . S
C134 O141 1.240 . S
C134 O142 1.252 . S
C135 O138 1.252 . S
C135 O139 1.260 . S
O136 In130 2.266 . S
O136 C133 1.252 . S
O137 In130 2.326 . S
O137 C133 1.260 . S
O138 In130 2.266 . S
O138 C135 1.252 . S
O139 In130 2.326 . S
O139 C135 1.260 . S
C140 O131 1.240 . S
C140 O132 1.252 . S
O141 In130 2.294 . S
O141 C134 1.240 . S
O142 In130 2.326 . S
O142 C134 1.252 . S
In143 O144 2.294 . S
In143 O145 2.326 . S
In143 O149 2.266 . S
In143 O150 2.326 . S
In143 O151 2.266 . S
In143 O152 2.326 . S
In143 O154 2.294 . S
In143 O155 2.326 . S
O144 In143 2.294 . S
O144 C153 1.240 . S
O145 In143 2.326 . S
O145 C153 1.252 . S
C146 O149 1.252 . S
C146 O150 1.260 . S
C147 O154 1.240 . S
C147 O155 1.252 . S
C148 O151 1.252 . S
C148 O152 1.260 . S
O149 In143 2.266 . S
O149 C146 1.252 . S
O150 In143 2.326 . S
O150 C146 1.260 . S
O151 In143 2.266 . S
O151 C148 1.252 . S
O152 In143 2.326 . S
O152 C148 1.260 . S
C153 O144 1.240 . S
C153 O145 1.252 . S
O154 In143 2.294 . S
O154 C147 1.240 . S
O155 In143 2.326 . S
O155 C147 1.252 . S
In156 O157 2.294 . S
In156 O158 2.326 . S
In156 O162 2.266 1_455 S
In156 O163 2.326 1_455 S
In156 O164 2.266 . S
In156 O165 2.326 . S
In156 O167 2.294 . S
In156 O168 2.326 . S
O157 In156 2.294 . S
O157 C166 1.240 . S
O158 In156 2.326 . S
O158 C166 1.252 . S
C159 O162 1.252 . S
C159 O163 1.260 . S
C160 O167 1.240 . S
C160 O168 1.252 . S
C161 O164 1.252 . S
C161 O165 1.260 . S
O162 In156 2.266 1_655 S
O162 C159 1.252 . S
O163 In156 2.326 1_655 S
O163 C159 1.260 . S
O164 In156 2.266 . S
O164 C161 1.252 . S
O165 In156 2.326 . S
O165 C161 1.260 . S
C166 O157 1.240 . S
C166 O158 1.252 . S
O167 In156 2.294 . S
O167 C160 1.240 . S
O168 In156 2.326 . S
O168 C160 1.252 . S
In169 O170 2.294 . S
In169 O171 2.327 . S
In169 O175 2.266 1_455 S
In169 O176 2.325 1_455 S
In169 O177 2.264 1_455 S
In169 O178 2.322 1_455 S
In169 O180 2.296 . S
In169 O181 2.329 . S
O170 In169 2.294 . S
O170 C179 1.240 . S
O171 In169 2.327 . S
O171 C179 1.252 . S
C172 O175 1.252 . S
C172 O176 1.260 . S
C173 O180 1.240 . S
C173 O181 1.252 . S
C174 O177 1.252 . S
C174 O178 1.260 . S
O175 In169 2.266 1_655 S
O175 C172 1.252 . S
O176 In169 2.325 1_655 S
O176 C172 1.260 . S
O177 In169 2.264 1_655 S
O177 C174 1.252 . S
O178 In169 2.322 1_655 S
O178 C174 1.260 . S
C179 O170 1.240 . S
C179 O171 1.252 . S
O180 In169 2.296 . S
O180 C173 1.240 . S
O181 In169 2.329 . S
O181 C173 1.252 . S
In182 O183 2.294 . S
In182 O184 2.326 . S
In182 O188 2.266 . S
In182 O189 2.326 . S
In182 O190 2.266 . S
In182 O191 2.326 . S
In182 O193 2.294 . S
In182 O194 2.326 . S
O183 In182 2.294 . S
O183 C192 1.240 . S
O184 In182 2.326 . S
O184 C192 1.252 . S
C185 O188 1.252 . S
C185 O189 1.260 . S
C186 O193 1.240 . S
C186 O194 1.252 . S
C187 O190 1.252 . S
C187 O191 1.260 . S
O188 In182 2.266 . S
O188 C185 1.252 . S
O189 In182 2.326 . S
O189 C185 1.260 . S
O190 In182 2.266 . S
O190 C187 1.252 . S
O191 In182 2.326 . S
O191 C187 1.260 . S
C192 O183 1.240 . S
C192 O184 1.252 . S
O193 In182 2.294 . S
O193 C186 1.240 . S
O194 In182 2.326 . S
O194 C186 1.252 . S
In195 O196 2.294 . S
In195 O197 2.326 . S
In195 O201 2.266 . S
In195 O202 2.326 . S
In195 O203 2.266 . S
In195 O204 2.326 . S
In195 O206 2.294 . S
In195 O207 2.326 . S
O196 In195 2.294 . S
O196 C205 1.240 . S
O197 In195 2.326 . S
O197 C205 1.252 . S
C198 O201 1.252 . S
C198 O202 1.260 . S
C199 O206 1.240 . S
C199 O207 1.252 . S
C200 O203 1.252 . S
C200 O204 1.260 . S
O201 In195 2.266 . S
O201 C198 1.252 . S
O202 In195 2.326 . S
O202 C198 1.260 . S
O203 In195 2.266 . S
O203 C200 1.252 . S
O204 In195 2.326 . S
O204 C200 1.260 . S
C205 O196 1.240 . S
C205 O197 1.252 . S
O206 In195 2.294 . S
O206 C199 1.240 . S
O207 In195 2.326 . S
O207 C199 1.252 . S
In208 O209 2.294 . S
In208 O210 2.326 . S
In208 O214 2.266 . S
In208 O215 2.326 . S
In208 O216 2.266 . S
In208 O217 2.326 . S
In208 O219 2.294 . S
In208 O220 2.326 . S
O209 In208 2.294 . S
O209 C218 1.240 . S
O210 In208 2.326 . S
O210 C218 1.252 . S
C211 O214 1.252 . S
C211 O215 1.260 . S
C212 O219 1.240 . S
C212 O220 1.252 . S
C213 O216 1.252 . S
C213 O217 1.260 . S
O214 In208 2.266 . S
O214 C211 1.252 . S
O215 In208 2.326 . S
O215 C211 1.260 . S
O216 In208 2.266 . S
O216 C213 1.252 . S
O217 In208 2.326 . S
O217 C213 1.260 . S
C218 O209 1.240 . S
C218 O210 1.252 . S
O219 In208 2.294 . S
O219 C212 1.240 . S
O220 In208 2.326 . S
O220 C212 1.252 . S
In221 O222 2.294 . S
In221 O223 2.326 . S
In221 O227 2.266 . S
In221 O228 2.326 . S
In221 O229 2.266 . S
In221 O230 2.326 . S
In221 O232 2.294 . S
In221 O233 2.326 . S
O222 In221 2.294 . S
O222 C231 1.240 . S
O223 In221 2.326 . S
O223 C231 1.252 . S
C224 O227 1.252 . S
C224 O228 1.260 . S
C225 O232 1.240 . S
C225 O233 1.252 . S
C226 O229 1.252 . S
C226 O230 1.260 . S
O227 In221 2.266 . S
O227 C224 1.252 . S
O228 In221 2.326 . S
O228 C224 1.260 . S
O229 In221 2.266 . S
O229 C226 1.252 . S
O230 In221 2.326 . S
O230 C226 1.260 . S
C231 O222 1.240 . S
C231 O223 1.252 . S
O232 In221 2.294 . S
O232 C225 1.240 . S
O233 In221 2.326 . S
O233 C225 1.252 . S
In234 O235 2.294 1_545 S
In234 O236 2.326 1_545 S
In234 O240 2.266 . S
In234 O241 2.326 . S
In234 O242 2.266 . S
In234 O243 2.326 . S
In234 O245 2.294 . S
In234 O246 2.326 . S
O235 In234 2.294 1_565 S
O235 C244 1.240 . S
O236 In234 2.326 1_565 S
O236 C244 1.252 . S
C237 O240 1.252 . S
C237 O241 1.260 . S
C238 O245 1.240 . S
C238 O246 1.252 . S
C239 O242 1.252 . S
C239 O243 1.260 . S
O240 In234 2.266 . S
O240 C237 1.252 . S
O241 In234 2.326 . S
O241 C237 1.260 . S
O242 In234 2.266 . S
O242 C239 1.252 . S
O243 In234 2.326 . S
O243 C239 1.260 . S
C244 O235 1.240 . S
C244 O236 1.252 . S
O245 In234 2.294 . S
O245 C238 1.240 . S
O246 In234 2.326 . S
O246 C238 1.252 . S
In247 O248 2.294 . S
In247 O249 2.326 . S
In247 O253 2.266 . S
In247 O254 2.326 . S
In247 O255 2.266 1_554 S
In247 O256 2.326 1_554 S
In247 O258 2.294 . S
In247 O259 2.326 . S
O248 In247 2.294 . S
O248 C257 1.240 . S
O249 In247 2.326 . S
O249 C257 1.252 . S
C250 O253 1.252 . S
C250 O254 1.260 . S
C251 O258 1.240 . S
C251 O259 1.252 . S
C252 O255 1.252 . S
C252 O256 1.260 . S
O253 In247 2.266 . S
O253 C250 1.252 . S
O254 In247 2.326 . S
O254 C250 1.260 . S
O255 In247 2.266 1_556 S
O255 C252 1.252 . S
O256 In247 2.326 1_556 S
O256 C252 1.260 . S
C257 O248 1.240 . S
C257 O249 1.252 . S
O258 In247 2.294 . S
O258 C251 1.240 . S
O259 In247 2.326 . S
O259 C251 1.252 . S
In260 O261 2.296 . S
In260 O262 2.329 . S
In260 O266 2.264 1_554 S
In260 O267 2.322 1_554 S
In260 O268 2.266 1_554 S
In260 O269 2.325 1_554 S
In260 O271 2.294 . S
In260 O272 2.327 . S
O261 In260 2.296 . S
O261 C270 1.240 . S
O262 In260 2.329 . S
O262 C270 1.252 . S
C263 O266 1.252 . S
C263 O267 1.260 . S
C264 O271 1.240 . S
C264 O272 1.252 . S
C265 O268 1.252 . S
C265 O269 1.260 . S
O266 In260 2.264 1_556 S
O266 C263 1.252 . S
O267 In260 2.322 1_556 S
O267 C263 1.260 . S
O268 In260 2.266 1_556 S
O268 C265 1.252 . S
O269 In260 2.325 1_556 S
O269 C265 1.260 . S
C270 O261 1.240 . S
C270 O262 1.252 . S
O271 In260 2.294 . S
O271 C264 1.240 . S
O272 In260 2.327 . S
O272 C264 1.252 . S
In273 O274 2.294 . S
In273 O275 2.326 . S
In273 O279 2.266 . S
In273 O280 2.326 . S
In273 O281 2.266 . S
In273 O282 2.326 . S
In273 O284 2.294 . S
In273 O285 2.326 . S
O274 In273 2.294 . S
O274 C283 1.240 . S
O275 In273 2.326 . S
O275 C283 1.252 . S
C276 O279 1.252 . S
C276 O280 1.260 . S
C277 O284 1.240 . S
C277 O285 1.252 . S
C278 O281 1.252 . S
C278 O282 1.260 . S
O279 In273 2.266 . S
O279 C276 1.252 . S
O280 In273 2.326 . S
O280 C276 1.260 . S
O281 In273 2.266 . S
O281 C278 1.252 . S
O282 In273 2.326 . S
O282 C278 1.260 . S
C283 O274 1.240 . S
C283 O275 1.252 . S
O284 In273 2.294 . S
O284 C277 1.240 . S
O285 In273 2.326 . S
O285 C277 1.252 . S
In286 O287 2.294 . S
In286 O288 2.326 . S
In286 O292 2.266 . S
In286 O293 2.326 . S
In286 O294 2.266 . S
In286 O295 2.326 . S
In286 O297 2.294 . S
In286 O298 2.326 . S
O287 In286 2.294 . S
O287 C296 1.240 . S
O288 In286 2.326 . S
O288 C296 1.252 . S
C289 O292 1.252 . S
C289 O293 1.260 . S
C290 O297 1.240 . S
C290 O298 1.252 . S
C291 O294 1.252 . S
C291 O295 1.260 . S
O292 In286 2.266 . S
O292 C289 1.252 . S
O293 In286 2.326 . S
O293 C289 1.260 . S
O294 In286 2.266 . S
O294 C291 1.252 . S
O295 In286 2.326 . S
O295 C291 1.260 . S
C296 O287 1.240 . S
C296 O288 1.252 . S
O297 In286 2.294 . S
O297 C290 1.240 . S
O298 In286 2.326 . S
O298 C290 1.252 . S
In299 O300 2.294 . S
In299 O301 2.326 . S
In299 O305 2.266 . S
In299 O306 2.326 . S
In299 O307 2.266 . S
In299 O308 2.326 . S
In299 O310 2.294 . S
In299 O311 2.326 . S
O300 In299 2.294 . S
O300 C309 1.240 . S
O301 In299 2.326 . S
O301 C309 1.252 . S
C302 O305 1.252 . S
C302 O306 1.260 . S
C303 O310 1.240 . S
C303 O311 1.252 . S
C304 O307 1.252 . S
C304 O308 1.260 . S
O305 In299 2.266 . S
O305 C302 1.252 . S
O306 In299 2.326 . S
O306 C302 1.260 . S
O307 In299 2.266 . S
O307 C304 1.252 . S
O308 In299 2.326 . S
O308 C304 1.260 . S
C309 O300 1.240 . S
C309 O301 1.252 . S
O310 In299 2.294 . S
O310 C303 1.240 . S
O311 In299 2.326 . S
O311 C303 1.252 . S
Co312 N317 2.057 . S
Co312 O329 2.021 1_545 S
Co312 O332 2.062 1_456 S
Co312 O336 2.117 1_556 S
Co312 O337 2.020 . S
C313 O333 1.259 . S
C313 O336 1.258 . S
Co314 N323 2.059 . S
Co314 O330 2.117 1_545 S
Co314 O331 2.020 1_455 S
Co314 O333 2.021 . S
Co314 O338 2.062 . S
C315 N317 1.316 1_655 S
C315 N318 1.347 . S
C315 H320 0.931 1_655 S
C316 N317 1.375 1_655 S
C316 C319 1.350 . S
C316 H321 0.930 . S
N317 Co312 2.057 . S
N317 C315 1.316 1_455 S
N317 C316 1.375 1_455 S
N318 C315 1.347 . S
N318 C319 1.373 . S
C319 C316 1.350 . S
C319 N318 1.373 . S
C319 H340 0.931 . S
H320 C315 0.931 1_455 S
H321 C316 0.930 . S
C322 O329 1.259 1_554 S
C322 O330 1.258 . S
N323 Co314 2.059 . S
N323 C324 1.318 . S
N323 C325 1.370 1_545 S
C324 N323 1.318 . S
C324 N326 1.347 1_545 S
C324 H335 0.931 . S
C325 N323 1.370 1_565 S
C325 C327 1.350 . S
C325 H334 0.930 . S
N326 C324 1.347 1_565 S
N326 C327 1.373 . S
C327 C325 1.350 . S
C327 N326 1.373 . S
C327 H341 0.931 . S
C328 O331 1.256 . S
C328 O332 1.255 . S
O329 Co312 2.021 1_565 S
O329 C322 1.259 1_556 S
O330 Co314 2.117 1_565 S
O330 C322 1.258 . S
O331 Co314 2.020 1_655 S
O331 C328 1.256 . S
O332 Co312 2.062 1_654 S
O332 C328 1.255 . S
O333 C313 1.259 . S
O333 Co314 2.021 . S
H334 C325 0.930 . S
H335 C324 0.931 . S
O336 Co312 2.117 1_554 S
O336 C313 1.258 . S
O337 Co312 2.020 . S
O337 C339 1.256 1_556 S
O338 Co314 2.062 . S
O338 C339 1.255 . S
C339 O337 1.256 1_554 S
C339 O338 1.255 . S
H340 C319 0.931 . S
H341 C327 0.931 . S
Co342 N347 2.057 . S
Co342 O359 2.021 . S
Co342 O362 2.062 . S
Co342 O366 2.117 . S
Co342 O367 2.020 . S
C343 O363 1.259 . S
C343 O366 1.258 . S
Co344 N353 2.057 . S
Co344 O360 2.117 . S
Co344 O361 2.020 . S
Co344 O363 2.021 . S
Co344 O368 2.062 . S
C345 N347 1.316 . S
C345 N348 1.347 . S
C345 H350 0.931 . S
C346 N347 1.375 . S
C346 C349 1.350 . S
C346 H351 0.930 . S
N347 Co342 2.057 . S
N347 C345 1.316 . S
N347 C346 1.375 . S
N348 C345 1.347 . S
N348 C349 1.373 . S
C349 C346 1.350 . S
C349 N348 1.373 . S
C349 H370 0.931 . S
H350 C345 0.931 . S
H351 C346 0.930 . S
C352 O359 1.259 . S
C352 O360 1.258 . S
N353 Co344 2.057 . S
N353 C354 1.316 . S
N353 C355 1.375 . S
C354 N353 1.316 . S
C354 N356 1.347 . S
C354 H365 0.931 . S
C355 N353 1.375 . S
C355 C357 1.350 . S
C355 H364 0.930 . S
N356 C354 1.347 . S
N356 C357 1.373 . S
C357 C355 1.350 . S
C357 N356 1.373 . S
C357 H371 0.931 . S
C358 O361 1.256 . S
C358 O362 1.255 . S
O359 Co342 2.021 . S
O359 C352 1.259 . S
O360 Co344 2.117 . S
O360 C352 1.258 . S
O361 Co344 2.020 . S
O361 C358 1.256 . S
O362 Co342 2.062 . S
O362 C358 1.255 . S
O363 C343 1.259 . S
O363 Co344 2.021 . S
H364 C355 0.930 . S
H365 C354 0.931 . S
O366 Co342 2.117 . S
O366 C343 1.258 . S
O367 Co342 2.020 . S
O367 C369 1.256 . S
O368 Co344 2.062 . S
O368 C369 1.255 . S
C369 O367 1.256 . S
C369 O368 1.255 . S
H370 C349 0.931 . S
H371 C357 0.931 . S
Co372 N377 2.057 . S
Co372 O389 2.021 1_545 S
Co372 O392 2.062 . S
Co372 O396 2.117 . S
Co372 O397 2.020 . S
C373 O393 1.259 . S
C373 O396 1.258 . S
Co374 N383 2.057 . S
Co374 O390 2.117 . S
Co374 O391 2.020 . S
Co374 O393 2.021 . S
Co374 O398 2.062 . S
C375 N377 1.300 1_565 S
C375 N378 1.344 1_565 S
C375 H380 0.948 . S
C376 N377 1.375 . S
C376 C379 1.350 . S
C376 H381 0.930 . S
N377 Co372 2.057 . S
N377 C375 1.300 1_545 S
N377 C376 1.375 . S
N378 C375 1.344 1_545 S
N378 C379 1.373 . S
C379 C376 1.350 . S
C379 N378 1.373 . S
C379 H400 0.931 . S
H380 C375 0.948 . S
H381 C376 0.930 . S
C382 O389 1.259 . S
C382 O390 1.258 1_565 S
N383 Co374 2.057 . S
N383 C384 1.316 . S
N383 C385 1.375 . S
C384 N383 1.316 . S
C384 N386 1.347 . S
C384 H395 0.931 . S
C385 N383 1.375 . S
C385 C387 1.350 . S
C385 H394 0.930 . S
N386 C384 1.347 . S
N386 C387 1.373 . S
C387 C385 1.350 . S
C387 N386 1.373 . S
C387 H401 0.931 . S
C388 O391 1.256 . S
C388 O392 1.255 . S
O389 Co372 2.021 1_565 S
O389 C382 1.259 . S
O390 Co374 2.117 . S
O390 C382 1.258 1_545 S
O391 Co374 2.020 . S
O391 C388 1.256 . S
O392 Co372 2.062 . S
O392 C388 1.255 . S
O393 C373 1.259 . S
O393 Co374 2.021 . S
H394 C385 0.930 . S
H395 C384 0.931 . S
O396 Co372 2.117 . S
O396 C373 1.258 . S
O397 Co372 2.020 . S
O397 C399 1.256 . S
O398 Co374 2.062 . S
O398 C399 1.255 . S
C399 O397 1.256 . S
C399 O398 1.255 . S
H400 C379 0.931 . S
H401 C387 0.931 . S
Co402 N407 2.057 . S
Co402 O419 2.021 . S
Co402 O422 2.062 . S
Co402 O426 2.117 . S
Co402 O427 2.020 . S
C403 O423 1.259 . S
C403 O426 1.258 . S
Co404 N413 2.057 . S
Co404 O420 2.117 . S
Co404 O421 2.020 . S
Co404 O423 2.021 . S
Co404 O428 2.062 . S
C405 N407 1.316 . S
C405 N408 1.347 . S
C405 H410 0.931 . S
C406 N407 1.375 . S
C406 C409 1.350 . S
C406 H411 0.930 . S
N407 Co402 2.057 . S
N407 C405 1.316 . S
N407 C406 1.375 . S
N408 C405 1.347 . S
N408 C409 1.373 . S
C409 C406 1.350 . S
C409 N408 1.373 . S
C409 H430 0.931 . S
H410 C405 0.931 . S
H411 C406 0.930 . S
C412 O419 1.259 . S
C412 O420 1.258 . S
N413 Co404 2.057 . S
N413 C414 1.316 . S
N413 C415 1.375 . S
C414 N413 1.316 . S
C414 N416 1.347 . S
C414 H425 0.931 . S
C415 N413 1.375 . S
C415 C417 1.350 . S
C415 H424 0.930 . S
N416 C414 1.347 . S
N416 C417 1.373 . S
C417 C415 1.350 . S
C417 N416 1.373 . S
C417 H431 0.931 . S
C418 O421 1.256 . S
C418 O422 1.255 . S
O419 Co402 2.021 . S
O419 C412 1.259 . S
O420 Co404 2.117 . S
O420 C412 1.258 . S
O421 Co404 2.020 . S
O421 C418 1.256 . S
O422 Co402 2.062 . S
O422 C418 1.255 . S
O423 C403 1.259 . S
O423 Co404 2.021 . S
H424 C415 0.930 . S
H425 C414 0.931 . S
O426 Co402 2.117 . S
O426 C403 1.258 . S
O427 Co402 2.020 . S
O427 C429 1.256 . S
O428 Co404 2.062 . S
O428 C429 1.255 . S
C429 O427 1.256 . S
C429 O428 1.255 . S
H430 C409 0.931 . S
H431 C417 0.931 . S
Co432 N437 2.069 1_545 S
Co432 O449 2.021 . S
Co432 O452 2.062 1_545 S
Co432 O456 2.117 1_455 S
Co432 O457 2.020 1_455 S
C433 O453 1.259 1_655 S
C433 O456 1.258 . S
Co434 N443 2.057 . S
Co434 O450 2.117 . S
Co434 O451 2.020 . S
Co434 O453 2.021 . S
Co434 O458 2.062 1_455 S
C435 N437 1.325 . S
C435 N438 1.345 1_455 S
C435 H440 0.931 . S
C436 N437 1.357 1_655 S
C436 C439 1.350 . S
C436 H441 0.930 . S
N437 Co432 2.069 1_565 S
N437 C435 1.325 . S
N437 C436 1.357 1_455 S
N438 C435 1.345 1_655 S
N438 C439 1.375 . S
C439 C436 1.350 . S
C439 N438 1.375 . S
C439 H460 0.931 . S
H440 C435 0.931 . S
H441 C436 0.930 . S
C442 O449 1.259 . S
C442 O450 1.258 . S
N443 Co434 2.057 . S
N443 C444 1.316 . S
N443 C445 1.375 . S
C444 N443 1.316 . S
C444 N446 1.347 . S
C444 H455 0.931 . S
C445 N443 1.375 . S
C445 C447 1.350 . S
C445 H454 0.930 . S
N446 C444 1.347 . S
N446 C447 1.373 . S
C447 C445 1.350 . S
C447 N446 1.373 . S
C447 H461 0.931 . S
C448 O451 1.256 . S
C448 O452 1.255 1_545 S
O449 Co432 2.021 . S
O449 C442 1.259 . S
O450 Co434 2.117 . S
O450 C442 1.258 . S
O451 Co434 2.020 . S
O451 C448 1.256 . S
O452 Co432 2.062 1_565 S
O452 C448 1.255 1_565 S
O453 C433 1.259 1_455 S
O453 Co434 2.021 . S
H454 C445 0.930 . S
H455 C444 0.931 . S
O456 Co432 2.117 1_655 S
O456 C433 1.258 . S
O457 Co432 2.020 1_655 S
O457 C459 1.256 . S
O458 Co434 2.062 1_655 S
O458 C459 1.255 . S
C459 O457 1.256 . S
C459 O458 1.255 . S
H460 C439 0.931 . S
H461 C447 0.931 . S
Co462 N467 2.057 . S
Co462 O479 2.021 . S
Co462 O482 2.062 . S
Co462 O486 2.117 . S
Co462 O487 2.020 . S
C463 O483 1.259 . S
C463 O486 1.258 . S
Co464 N473 2.057 . S
Co464 O480 2.117 . S
Co464 O481 2.020 . S
Co464 O483 2.021 . S
Co464 O488 2.062 . S
C465 N467 1.316 . S
C465 N468 1.347 . S
C465 H470 0.931 . S
C466 N467 1.375 . S
C466 C469 1.350 . S
C466 H471 0.930 . S
N467 Co462 2.057 . S
N467 C465 1.316 . S
N467 C466 1.375 . S
N468 C465 1.347 . S
N468 C469 1.373 . S
C469 C466 1.350 . S
C469 N468 1.373 . S
C469 H490 0.931 . S
H470 C465 0.931 . S
H471 C466 0.930 . S
C472 O479 1.259 . S
C472 O480 1.258 . S
N473 Co464 2.057 . S
N473 C474 1.316 . S
N473 C475 1.375 . S
C474 N473 1.316 . S
C474 N476 1.347 . S
C474 H485 0.931 . S
C475 N473 1.375 . S
C475 C477 1.350 . S
C475 H484 0.930 . S
N476 C474 1.347 . S
N476 C477 1.373 . S
C477 C475 1.350 . S
C477 N476 1.373 . S
C477 H491 0.931 . S
C478 O481 1.256 . S
C478 O482 1.255 . S
O479 Co462 2.021 . S
O479 C472 1.259 . S
O480 Co464 2.117 . S
O480 C472 1.258 . S
O481 Co464 2.020 . S
O481 C478 1.256 . S
O482 Co462 2.062 . S
O482 C478 1.255 . S
O483 C463 1.259 . S
O483 Co464 2.021 . S
H484 C475 0.930 . S
H485 C474 0.931 . S
O486 Co462 2.117 . S
O486 C463 1.258 . S
O487 Co462 2.020 . S
O487 C489 1.256 . S
O488 Co464 2.062 . S
O488 C489 1.255 . S
C489 O487 1.256 . S
C489 O488 1.255 . S
H490 C469 0.931 . S
H491 C477 0.931 . S
Co492 N497 2.057 1_554 S
Co492 O509 2.021 . S
Co492 O512 2.062 1_554 S
Co492 O516 2.117 . S
Co492 O517 2.020 1_545 S
C493 O513 1.259 . S
C493 O516 1.258 . S
Co494 N503 2.057 . S
Co494 O510 2.117 . S
Co494 O511 2.020 . S
Co494 O513 2.021 . S
Co494 O518 2.062 1_545 S
C495 N497 1.316 . S
C495 N498 1.347 . S
C495 H500 0.931 . S
C496 N497 1.375 1_565 S
C496 C499 1.350 . S
C496 H501 0.930 . S
N497 Co492 2.057 1_556 S
N497 C495 1.316 . S
N497 C496 1.375 1_545 S
N498 C495 1.347 . S
N498 C499 1.373 1_545 S
C499 C496 1.350 . S
C499 N498 1.373 1_565 S
C499 H520 0.931 . S
H500 C495 0.931 . S
H501 C496 0.930 . S
C502 O509 1.259 . S
C502 O510 1.258 . S
N503 Co494 2.057 . S
N503 C504 1.316 . S
N503 C505 1.375 . S
C504 N503 1.316 . S
C504 N506 1.347 . S
C504 H515 0.931 . S
C505 N503 1.375 . S
C505 C507 1.350 . S
C505 H514 0.930 . S
N506 C504 1.347 . S
N506 C507 1.373 . S
C507 C505 1.350 . S
C507 N506 1.373 . S
C507 H521 0.931 . S
C508 O511 1.256 . S
C508 O512 1.255 1_554 S
O509 Co492 2.021 . S
O509 C502 1.259 . S
O510 Co494 2.117 . S
O510 C502 1.258 . S
O511 Co494 2.020 . S
O511 C508 1.256 . S
O512 Co492 2.062 1_556 S
O512 C508 1.255 1_556 S
O513 C493 1.259 . S
O513 Co494 2.021 . S
H514 C505 0.930 . S
H515 C504 0.931 . S
O516 Co492 2.117 . S
O516 C493 1.258 . S
O517 Co492 2.020 1_565 S
O517 C519 1.256 . S
O518 Co494 2.062 1_565 S
O518 C519 1.255 . S
C519 O517 1.256 . S
C519 O518 1.255 . S
H520 C499 0.931 . S
H521 C507 0.931 . S
Co522 N527 2.057 . S
Co522 O539 2.021 . S
Co522 O542 2.062 . S
Co522 O546 2.117 . S
Co522 O547 2.020 . S
C523 O543 1.259 . S
C523 O546 1.258 . S
Co524 N533 2.057 . S
Co524 O540 2.117 . S
Co524 O541 2.020 . S
Co524 O543 2.021 . S
Co524 O548 2.062 . S
C525 N527 1.316 . S
C525 N528 1.347 . S
C525 H530 0.931 . S
C526 N527 1.375 . S
C526 C529 1.350 . S
C526 H531 0.930 . S
N527 Co522 2.057 . S
N527 C525 1.316 . S
N527 C526 1.375 . S
N528 C525 1.347 . S
N528 C529 1.373 . S
C529 C526 1.350 . S
C529 N528 1.373 . S
C529 H550 0.931 . S
H530 C525 0.931 . S
H531 C526 0.930 . S
C532 O539 1.259 . S
C532 O540 1.258 . S
N533 Co524 2.057 . S
N533 C534 1.316 . S
N533 C535 1.375 . S
C534 N533 1.316 . S
C534 N536 1.347 . S
C534 H545 0.931 . S
C535 N533 1.375 . S
C535 C537 1.350 . S
C535 H544 0.930 . S
N536 C534 1.347 . S
N536 C537 1.373 . S
C537 C535 1.350 . S
C537 N536 1.373 . S
C537 H551 0.931 . S
C538 O541 1.256 . S
C538 O542 1.255 . S
O539 Co522 2.021 . S
O539 C532 1.259 . S
O540 Co524 2.117 . S
O540 C532 1.258 . S
O541 Co524 2.020 . S
O541 C538 1.256 . S
O542 Co522 2.062 . S
O542 C538 1.255 . S
O543 C523 1.259 . S
O543 Co524 2.021 . S
H544 C535 0.930 . S
H545 C534 0.931 . S
O546 Co522 2.117 . S
O546 C523 1.258 . S
O547 Co522 2.020 . S
O547 C549 1.256 . S
O548 Co524 2.062 . S
O548 C549 1.255 . S
C549 O547 1.256 . S
C549 O548 1.255 . S
H550 C529 0.931 . S
H551 C537 0.931 . S
Co552 N557 2.057 . S
Co552 O569 2.021 1_554 S
Co552 O572 2.062 . S
Co552 O576 2.117 . S
Co552 O577 2.020 . S
C553 O573 1.259 . S
C553 O576 1.258 . S
Co554 N563 2.057 . S
Co554 O570 2.117 . S
Co554 O571 2.020 . S
Co554 O573 2.021 . S
Co554 O578 2.062 . S
C555 N557 1.310 1_556 S
C555 N558 1.345 1_556 S
C555 H560 0.937 . S
C556 N557 1.375 . S
C556 C559 1.350 . S
C556 H561 0.930 . S
N557 Co552 2.057 . S
N557 C555 1.310 1_554 S
N557 C556 1.375 . S
N558 C555 1.345 1_554 S
N558 C559 1.373 . S
C559 C556 1.350 . S
C559 N558 1.373 . S
C559 H580 0.931 . S
H560 C555 0.937 . S
H561 C556 0.930 . S
C562 O569 1.259 . S
C562 O570 1.258 1_556 S
N563 Co554 2.057 . S
N563 C564 1.316 . S
N563 C565 1.375 . S
C564 N563 1.316 . S
C564 N566 1.347 . S
C564 H575 0.931 . S
C565 N563 1.375 . S
C565 C567 1.350 . S
C565 H574 0.930 . S
N566 C564 1.347 . S
N566 C567 1.373 . S
C567 C565 1.350 . S
C567 N566 1.373 . S
C567 H581 0.931 . S
C568 O571 1.256 . S
C568 O572 1.255 . S
O569 Co552 2.021 1_556 S
O569 C562 1.259 . S
O570 Co554 2.117 . S
O570 C562 1.258 1_554 S
O571 Co554 2.020 . S
O571 C568 1.256 . S
O572 Co552 2.062 . S
O572 C568 1.255 . S
O573 C553 1.259 . S
O573 Co554 2.021 . S
H574 C565 0.930 . S
H575 C564 0.931 . S
O576 Co552 2.117 . S
O576 C553 1.258 . S
O577 Co552 2.020 . S
O577 C579 1.256 . S
O578 Co554 2.062 . S
O578 C579 1.255 . S
C579 O577 1.256 . S
C579 O578 1.255 . S
H580 C559 0.931 . S
H581 C567 0.931 . S
Co582 N587 2.057 . S
Co582 O599 2.021 . S
Co582 O602 2.062 . S
Co582 O606 2.117 . S
Co582 O607 2.020 . S
C583 O603 1.259 . S
C583 O606 1.258 . S
Co584 N593 2.057 . S
Co584 O600 2.117 . S
Co584 O601 2.020 . S
Co584 O603 2.021 . S
Co584 O608 2.062 . S
C585 N587 1.316 . S
C585 N588 1.347 . S
C585 H590 0.931 . S
C586 N587 1.375 . S
C586 C589 1.350 . S
C586 H591 0.930 . S
N587 Co582 2.057 . S
N587 C585 1.316 . S
N587 C586 1.375 . S
N588 C585 1.347 . S
N588 C589 1.373 . S
C589 C586 1.350 . S
C589 N588 1.373 . S
C589 H610 0.931 . S
H590 C585 0.931 . S
H591 C586 0.930 . S
C592 O599 1.259 . S
C592 O600 1.258 . S
N593 Co584 2.057 . S
N593 C594 1.316 . S
N593 C595 1.375 . S
C594 N593 1.316 . S
C594 N596 1.347 . S
C594 H605 0.931 . S
C595 N593 1.375 . S
C595 C597 1.350 . S
C595 H604 0.930 . S
N596 C594 1.347 . S
N596 C597 1.373 . S
C597 C595 1.350 . S
C597 N596 1.373 . S
C597 H611 0.931 . S
C598 O601 1.256 . S
C598 O602 1.255 . S
O599 Co582 2.021 . S
O599 C592 1.259 . S
O600 Co584 2.117 . S
O600 C592 1.258 . S
O601 Co584 2.020 . S
O601 C598 1.256 . S
O602 Co582 2.062 . S
O602 C598 1.255 . S
O603 C583 1.259 . S
O603 Co584 2.021 . S
H604 C595 0.930 . S
H605 C594 0.931 . S
O606 Co582 2.117 . S
O606 C583 1.258 . S
O607 Co582 2.020 . S
O607 C609 1.256 . S
O608 Co584 2.062 . S
O608 C609 1.255 . S
C609 O607 1.256 . S
C609 O608 1.255 . S
H610 C589 0.931 . S
H611 C597 0.931 . S
Co612 N617 2.057 . S
Co612 O629 2.021 1_455 S
Co612 O632 2.062 . S
Co612 O636 2.117 . S
Co612 O637 2.020 . S
C613 O633 1.259 . S
C613 O636 1.258 . S
Co614 N623 2.057 . S
Co614 O630 2.136 . S
Co614 O631 2.020 . S
Co614 O633 2.021 . S
Co614 O638 2.062 . S
C615 N617 1.316 1_655 S
C615 N618 1.347 1_655 S
C615 H620 0.931 . S
C616 N617 1.375 . S
C616 C619 1.350 . S
C616 H621 0.930 . S
N617 Co612 2.057 . S
N617 C615 1.316 1_455 S
N617 C616 1.375 . S
N618 C615 1.347 1_455 S
N618 C619 1.373 . S
C619 C616 1.350 . S
C619 N618 1.373 . S
C619 H640 0.931 . S
H620 C615 0.931 . S
H621 C616 0.930 . S
C622 O629 1.259 . S
C622 O630 1.243 1_655 S
N623 Co614 2.057 . S
N623 C624 1.316 . S
N623 C625 1.375 . S
C624 N623 1.316 . S
C624 N626 1.347 . S
C624 H635 0.931 . S
C625 N623 1.375 . S
C625 C627 1.350 . S
C625 H634 0.930 . S
N626 C624 1.347 . S
N626 C627 1.373 . S
C627 C625 1.350 . S
C627 N626 1.373 . S
C627 H641 0.931 . S
C628 O631 1.256 . S
C628 O632 1.255 . S
O629 Co612 2.021 1_655 S
O629 C622 1.259 . S
O630 Co614 2.136 . S
O630 C622 1.243 1_455 S
O631 Co614 2.020 . S
O631 C628 1.256 . S
O632 Co612 2.062 . S
O632 C628 1.255 . S
O633 C613 1.259 . S
O633 Co614 2.021 . S
H634 C625 0.930 . S
H635 C624 0.931 . S
O636 Co612 2.117 . S
O636 C613 1.258 . S
O637 Co612 2.020 . S
O637 C639 1.256 . S
O638 Co614 2.062 . S
O638 C639 1.255 . S
C639 O637 1.256 . S
C639 O638 1.255 . S
H640 C619 0.931 . S
H641 C627 0.931 . S
Co642 N647 2.057 . S
Co642 O659 2.021 . S
Co642 O662 2.062 . S
Co642 O666 2.117 . S
Co642 O667 2.020 . S
C643 O663 1.259 . S
C643 O666 1.258 . S
Co644 N653 2.057 . S
Co644 O660 2.117 . S
Co644 O661 2.020 . S
Co644 O663 2.021 . S
Co644 O668 2.062 . S
C645 N647 1.316 . S
C645 N648 1.347 . S
C645 H650 0.931 . S
C646 N647 1.375 . S
C646 C649 1.350 . S
C646 H651 0.930 . S
N647 Co642 2.057 . S
N647 C645 1.316 . S
N647 C646 1.375 . S
N648 C645 1.347 . S
N648 C649 1.373 . S
C649 C646 1.350 . S
C649 N648 1.373 . S
C649 H670 0.931 . S
H650 C645 0.931 . S
H651 C646 0.930 . S
C652 O659 1.259 . S
C652 O660 1.258 . S
N653 Co644 2.057 . S
N653 C654 1.316 . S
N653 C655 1.375 . S
C654 N653 1.316 . S
C654 N656 1.347 . S
C654 H665 0.931 . S
C655 N653 1.375 . S
C655 C657 1.350 . S
C655 H664 0.930 . S
N656 C654 1.347 . S
N656 C657 1.373 . S
C657 C655 1.350 . S
C657 N656 1.373 . S
C657 H671 0.931 . S
C658 O661 1.256 . S
C658 O662 1.255 . S
O659 Co642 2.021 . S
O659 C652 1.259 . S
O660 Co644 2.117 . S
O660 C652 1.258 . S
O661 Co644 2.020 . S
O661 C658 1.256 . S
O662 Co642 2.062 . S
O662 C658 1.255 . S
O663 C643 1.259 . S
O663 Co644 2.021 . S
H664 C655 0.930 . S
H665 C654 0.931 . S
O666 Co642 2.117 . S
O666 C643 1.258 . S
O667 Co642 2.020 . S
O667 C669 1.256 . S
O668 Co644 2.062 . S
O668 C669 1.255 . S
C669 O667 1.256 . S
C669 O668 1.255 . S
H670 C649 0.931 . S
H671 C657 0.931 . S
Co672 N677 2.057 . S
Co672 O689 2.021 . S
Co672 O692 2.062 . S
Co672 O696 2.117 . S
Co672 O697 2.020 . S
C673 O693 1.259 . S
C673 O696 1.258 . S
Co674 N683 2.057 . S
Co674 O690 2.117 . S
Co674 O691 2.020 . S
Co674 O693 2.021 . S
Co674 O698 2.062 . S
C675 N677 1.316 . S
C675 N678 1.347 . S
C675 H680 0.931 . S
C676 N677 1.375 . S
C676 C679 1.350 . S
C676 H681 0.930 . S
N677 Co672 2.057 . S
N677 C675 1.316 . S
N677 C676 1.375 . S
N678 C675 1.347 . S
N678 C679 1.373 . S
C679 C676 1.350 . S
C679 N678 1.373 . S
C679 H700 0.931 . S
H680 C675 0.931 . S
H681 C676 0.930 . S
C682 O689 1.259 . S
C682 O690 1.258 . S
N683 Co674 2.057 . S
N683 C684 1.316 . S
N683 C685 1.375 . S
C684 N683 1.316 . S
C684 N686 1.347 . S
C684 H695 0.931 . S
C685 N683 1.375 . S
C685 C687 1.350 . S
C685 H694 0.930 . S
N686 C684 1.347 . S
N686 C687 1.373 . S
C687 C685 1.350 . S
C687 N686 1.373 . S
C687 H701 0.931 . S
C688 O691 1.256 . S
C688 O692 1.255 . S
O689 Co672 2.021 . S
O689 C682 1.259 . S
O690 Co674 2.117 . S
O690 C682 1.258 . S
O691 Co674 2.020 . S
O691 C688 1.256 . S
O692 Co672 2.062 . S
O692 C688 1.255 . S
O693 C673 1.259 . S
O693 Co674 2.021 . S
H694 C685 0.930 . S
H695 C684 0.931 . S
O696 Co672 2.117 . S
O696 C673 1.258 . S
O697 Co672 2.020 . S
O697 C699 1.256 . S
O698 Co674 2.062 . S
O698 C699 1.255 . S
C699 O697 1.256 . S
C699 O698 1.255 . S
H700 C679 0.931 . S
H701 C687 0.931 . S
Co702 N707 2.057 . S
Co702 O719 2.021 . S
Co702 O722 2.062 . S
Co702 O726 2.117 . S
Co702 O727 2.020 . S
C703 O723 1.259 . S
C703 O726 1.258 . S
Co704 N713 2.057 . S
Co704 O720 2.117 . S
Co704 O721 2.020 . S
Co704 O723 2.021 . S
Co704 O728 2.062 . S
C705 N707 1.316 . S
C705 N708 1.347 . S
C705 H710 0.931 . S
C706 N707 1.375 . S
C706 C709 1.350 . S
C706 H711 0.930 . S
N707 Co702 2.057 . S
N707 C705 1.316 . S
N707 C706 1.375 . S
N708 C705 1.347 . S
N708 C709 1.373 . S
C709 C706 1.350 . S
C709 N708 1.373 . S
C709 H730 0.931 . S
H710 C705 0.931 . S
H711 C706 0.930 . S
C712 O719 1.259 . S
C712 O720 1.258 . S
N713 Co704 2.057 . S
N713 C714 1.316 . S
N713 C715 1.375 . S
C714 N713 1.316 . S
C714 N716 1.347 . S
C714 H725 0.931 . S
C715 N713 1.375 . S
C715 C717 1.350 . S
C715 H724 0.930 . S
N716 C714 1.347 . S
N716 C717 1.373 . S
C717 C715 1.350 . S
C717 N716 1.373 . S
C717 H731 0.931 . S
C718 O721 1.256 . S
C718 O722 1.255 . S
O719 Co702 2.021 . S
O719 C712 1.259 . S
O720 Co704 2.117 . S
O720 C712 1.258 . S
O721 Co704 2.020 . S
O721 C718 1.256 . S
O722 Co702 2.062 . S
O722 C718 1.255 . S
O723 C703 1.259 . S
O723 Co704 2.021 . S
H724 C715 0.930 . S
H725 C714 0.931 . S
O726 Co702 2.117 . S
O726 C703 1.258 . S
O727 Co702 2.020 . S
O727 C729 1.256 . S
O728 Co704 2.062 . S
O728 C729 1.255 . S
C729 O727 1.256 . S
C729 O728 1.255 . S
H730 C709 0.931 . S
H731 C717 0.931 . S
Co732 N737 2.057 . S
Co732 O749 2.021 . S
Co732 O752 2.062 . S
Co732 O756 2.117 . S
Co732 O757 2.020 . S
C733 O753 1.259 . S
C733 O756 1.258 . S
Co734 N743 2.057 . S
Co734 O750 2.117 . S
Co734 O751 2.020 . S
Co734 O753 2.021 . S
Co734 O758 2.062 . S
C735 N737 1.316 . S
C735 N738 1.347 . S
C735 H740 0.931 . S
C736 N737 1.375 . S
C736 C739 1.350 . S
C736 H741 0.930 . S
N737 Co732 2.057 . S
N737 C735 1.316 . S
N737 C736 1.375 . S
N738 C735 1.347 . S
N738 C739 1.373 . S
C739 C736 1.350 . S
C739 N738 1.373 . S
C739 H760 0.931 . S
H740 C735 0.931 . S
H741 C736 0.930 . S
C742 O749 1.259 . S
C742 O750 1.258 . S
N743 Co734 2.057 . S
N743 C744 1.316 . S
N743 C745 1.375 . S
C744 N743 1.316 . S
C744 N746 1.347 . S
C744 H755 0.931 . S
C745 N743 1.375 . S
C745 C747 1.350 . S
C745 H754 0.930 . S
N746 C744 1.347 . S
N746 C747 1.373 . S
C747 C745 1.350 . S
C747 N746 1.373 . S
C747 H761 0.931 . S
C748 O751 1.256 . S
C748 O752 1.255 . S
O749 Co732 2.021 . S
O749 C742 1.259 . S
O750 Co734 2.117 . S
O750 C742 1.258 . S
O751 Co734 2.020 . S
O751 C748 1.256 . S
O752 Co732 2.062 . S
O752 C748 1.255 . S
O753 C733 1.259 . S
O753 Co734 2.021 . S
H754 C745 0.930 . S
H755 C744 0.931 . S
O756 Co732 2.117 . S
O756 C733 1.258 . S
O757 Co732 2.020 . S
O757 C759 1.256 . S
O758 Co734 2.062 . S
O758 C759 1.255 . S
C759 O757 1.256 . S
C759 O758 1.255 . S
H760 C739 0.931 . S
H761 C747 0.931 . S
Co762 N767 2.057 1_455 S
Co762 O779 2.021 . S
Co762 O782 2.062 1_455 S
Co762 O786 2.117 . S
Co762 O787 2.020 1_554 S
C763 O783 1.259 . S
C763 O786 1.258 . S
Co764 N773 2.057 . S
Co764 O780 2.117 . S
Co764 O781 2.020 . S
Co764 O783 2.021 . S
Co764 O788 2.062 1_554 S
C765 N767 1.316 . S
C765 N768 1.347 . S
C765 H770 0.931 . S
C766 N767 1.375 1_556 S
C766 C769 1.350 . S
C766 H771 0.930 . S
N767 Co762 2.057 1_655 S
N767 C765 1.316 . S
N767 C766 1.375 1_554 S
N768 C765 1.347 . S
N768 C769 1.373 1_554 S
C769 C766 1.350 . S
C769 N768 1.373 1_556 S
C769 H790 0.931 . S
H770 C765 0.931 . S
H771 C766 0.930 . S
C772 O779 1.259 . S
C772 O780 1.258 . S
N773 Co764 2.057 . S
N773 C774 1.316 . S
N773 C775 1.375 . S
C774 N773 1.316 . S
C774 N776 1.347 . S
C774 H785 0.931 . S
C775 N773 1.375 . S
C775 C777 1.350 . S
C775 H784 0.930 . S
N776 C774 1.347 . S
N776 C777 1.373 . S
C777 C775 1.350 . S
C777 N776 1.373 . S
C777 H791 0.931 . S
C778 O781 1.256 . S
C778 O782 1.255 1_455 S
O779 Co762 2.021 . S
O779 C772 1.259 . S
O780 Co764 2.117 . S
O780 C772 1.258 . S
O781 Co764 2.020 . S
O781 C778 1.256 . S
O782 Co762 2.062 1_655 S
O782 C778 1.255 1_655 S
O783 C763 1.259 . S
O783 Co764 2.021 . S
H784 C775 0.930 . S
H785 C774 0.931 . S
O786 Co762 2.117 . S
O786 C763 1.258 . S
O787 Co762 2.020 1_556 S
O787 C789 1.256 . S
O788 Co764 2.062 1_556 S
O788 C789 1.255 . S
C789 O787 1.256 . S
C789 O788 1.255 . S
H790 C769 0.931 . S
H791 C777 0.931 . S
C792 C793 1.369 . S
C792 C794 1.419 . S
C792 H796 0.930 . S
C793 C792 1.369 . S
C793 C802 1.429 . S
C794 C792 1.419 . S
C794 C795 1.363 . S
C794 H797 0.929 . S
C795 C794 1.363 . S
C795 C801 1.428 . S
H796 C792 0.930 . S
H797 C794 0.929 . S
S798 N799 1.613 1_655 S
S798 N800 1.610 . S
N799 S798 1.613 1_455 S
N799 C802 1.350 . S
N800 S798 1.610 . S
N800 C801 1.351 1_655 S
C801 C795 1.428 . S
C801 N800 1.351 1_455 S
C801 C802 1.434 . S
C802 C793 1.429 . S
C802 N799 1.350 . S
C802 C801 1.434 . S
C803 C804 1.369 . S
C803 C805 1.419 . S
C803 H807 0.930 . S
C804 C803 1.369 . S
C804 C813 1.429 . S
C805 C803 1.419 . S
C805 C806 1.363 . S
C805 H808 0.929 . S
C806 C805 1.363 . S
C806 C812 1.428 . S
H807 C803 0.930 . S
H808 C805 0.929 . S
S809 N810 1.613 . S
S809 N811 1.610 . S
N810 S809 1.613 . S
N810 C813 1.350 . S
N811 S809 1.610 . S
N811 C812 1.351 . S
C812 C806 1.428 . S
C812 N811 1.351 . S
C812 C813 1.434 . S
C813 C804 1.429 . S
C813 N810 1.350 . S
C813 C812 1.434 . S
C814 C815 1.369 . S
C814 C816 1.419 . S
C814 H818 0.930 . S
C815 C814 1.369 . S
C815 C824 1.429 . S
C816 C814 1.419 . S
C816 C817 1.363 . S
C816 H819 0.929 . S
C817 C816 1.363 . S
C817 C823 1.428 . S
H818 C814 0.930 . S
H819 C816 0.929 . S
S820 N821 1.613 . S
S820 N822 1.610 . S
N821 S820 1.613 . S
N821 C824 1.350 . S
N822 S820 1.610 . S
N822 C823 1.351 . S
C823 C817 1.428 . S
C823 N822 1.351 . S
C823 C824 1.434 . S
C824 C815 1.429 . S
C824 N821 1.350 . S
C824 C823 1.434 . S
C825 C826 1.369 . S
C825 C827 1.419 . S
C825 H829 0.930 . S
C826 C825 1.369 . S
C826 C835 1.429 . S
C827 C825 1.419 . S
C827 C828 1.363 . S
C827 H830 0.929 . S
C828 C827 1.363 . S
C828 C834 1.428 . S
H829 C825 0.930 . S
H830 C827 0.929 . S
S831 N832 1.613 . S
S831 N833 1.610 . S
N832 S831 1.613 . S
N832 C835 1.350 . S
N833 S831 1.610 . S
N833 C834 1.351 . S
C834 C828 1.428 . S
C834 N833 1.351 . S
C834 C835 1.434 . S
C835 C826 1.429 . S
C835 N832 1.350 . S
C835 C834 1.434 . S
C836 C837 1.369 . S
C836 C838 1.419 . S
C836 H840 0.930 . S
C837 C836 1.369 . S
C837 C846 1.429 . S
C838 C836 1.419 . S
C838 C839 1.363 . S
C838 H841 0.929 . S
C839 C838 1.363 . S
C839 C845 1.428 1_455 S
H840 C836 0.930 . S
H841 C838 0.929 . S
S842 N843 1.613 . S
S842 N844 1.610 . S
N843 S842 1.613 . S
N843 C846 1.350 1_655 S
N844 S842 1.610 . S
N844 C845 1.351 . S
C845 C839 1.428 1_655 S
C845 N844 1.351 . S
C845 C846 1.434 1_655 S
C846 C837 1.429 . S
C846 N843 1.350 1_455 S
C846 C845 1.434 1_455 S
C847 C848 1.369 . S
C847 C849 1.419 . S
C847 H851 0.930 . S
C848 C847 1.369 . S
C848 C857 1.429 . S
C849 C847 1.419 . S
C849 C850 1.363 . S
C849 H852 0.929 . S
C850 C849 1.363 . S
C850 C856 1.428 . S
H851 C847 0.930 . S
H852 C849 0.929 . S
S853 N854 1.613 . S
S853 N855 1.610 . S
N854 S853 1.613 . S
N854 C857 1.350 . S
N855 S853 1.610 . S
N855 C856 1.351 . S
C856 C850 1.428 . S
C856 N855 1.351 . S
C856 C857 1.434 . S
C857 C848 1.429 . S
C857 N854 1.350 . S
C857 C856 1.434 . S
C858 C859 1.369 . S
C858 C860 1.419 1_556 S
C858 H862 0.930 . S
C859 C858 1.369 . S
C859 C868 1.429 . S
C860 C858 1.419 1_554 S
C860 C861 1.363 1_554 S
C860 H863 0.929 . S
C861 C860 1.363 1_556 S
C861 C867 1.428 . S
H862 C858 0.930 . S
H863 C860 0.929 . S
S864 N865 1.613 . S
S864 N866 1.610 . S
N865 S864 1.613 . S
N865 C868 1.350 . S
N866 S864 1.610 . S
N866 C867 1.351 . S
C867 C861 1.428 . S
C867 N866 1.351 . S
C867 C868 1.434 . S
C868 C859 1.429 . S
C868 N865 1.350 . S
C868 C867 1.434 . S
C869 C870 1.369 . S
C869 C871 1.419 . S
C869 H873 0.930 . S
C870 C869 1.369 . S
C870 C879 1.429 . S
C871 C869 1.419 . S
C871 C872 1.363 . S
C871 H874 0.929 . S
C872 C871 1.363 . S
C872 C878 1.428 . S
H873 C869 0.930 . S
H874 C871 0.929 . S
S875 N876 1.613 . S
S875 N877 1.610 . S
N876 S875 1.613 . S
N876 C879 1.350 . S
N877 S875 1.610 . S
N877 C878 1.351 . S
C878 C872 1.428 . S
C878 N877 1.351 . S
C878 C879 1.434 . S
C879 C870 1.429 . S
C879 N876 1.350 . S
C879 C878 1.434 . S
C880 C881 1.368 . S
C880 C882 1.419 . S
C880 H884 0.930 . S
C881 C880 1.368 . S
C881 C890 1.429 1_565 S
C882 C880 1.419 . S
C882 C883 1.363 . S
C882 H885 0.929 . S
C883 C882 1.363 . S
C883 C889 1.428 1_565 S
H884 C880 0.930 . S
H885 C882 0.929 . S
S886 N887 1.613 . S
S886 N888 1.610 . S
N887 S886 1.613 . S
N887 C890 1.350 . S
N888 S886 1.610 . S
N888 C889 1.351 . S
C889 C883 1.428 1_545 S
C889 N888 1.351 . S
C889 C890 1.434 . S
C890 C881 1.429 1_545 S
C890 N887 1.350 . S
C890 C889 1.434 . S
C891 C892 1.369 . S
C891 C893 1.419 . S
C891 H895 0.930 . S
C892 C891 1.369 . S
C892 C901 1.429 . S
C893 C891 1.419 . S
C893 C894 1.363 . S
C893 H896 0.929 . S
C894 C893 1.363 . S
C894 C900 1.428 . S
H895 C891 0.930 . S
H896 C893 0.929 . S
S897 N898 1.613 . S
S897 N899 1.610 . S
N898 S897 1.613 . S
N898 C901 1.350 . S
N899 S897 1.610 . S
N899 C900 1.351 . S
C900 C894 1.428 . S
C900 N899 1.351 . S
C900 C901 1.434 . S
C901 C892 1.429 . S
C901 N898 1.350 . S
C901 C900 1.434 . S
C902 C903 1.369 . S
C902 C904 1.419 . S
C902 H906 0.930 . S
C903 C902 1.369 . S
C903 C912 1.429 . S
C904 C902 1.419 . S
C904 C905 1.363 . S
C904 H907 0.929 . S
C905 C904 1.363 . S
C905 C911 1.428 . S
H906 C902 0.930 . S
H907 C904 0.929 . S
S908 N909 1.613 . S
S908 N910 1.610 . S
N909 S908 1.613 . S
N909 C912 1.350 . S
N910 S908 1.610 . S
N910 C911 1.351 . S
C911 C905 1.428 . S
C911 N910 1.351 . S
C911 C912 1.434 . S
C912 C903 1.429 . S
C912 N909 1.350 . S
C912 C911 1.434 . S
C913 C914 1.369 . S
C913 C915 1.419 . S
C913 H917 0.930 . S
C914 C913 1.369 . S
C914 C923 1.429 . S
C915 C913 1.419 . S
C915 C916 1.363 . S
C915 H918 0.929 . S
C916 C915 1.363 . S
C916 C922 1.428 . S
H917 C913 0.930 . S
H918 C915 0.929 . S
S919 N920 1.613 . S
S919 N921 1.610 . S
N920 S919 1.613 . S
N920 C923 1.350 . S
N921 S919 1.610 . S
N921 C922 1.351 . S
C922 C916 1.428 . S
C922 N921 1.351 . S
C922 C923 1.434 . S
C923 C914 1.429 . S
C923 N920 1.350 . S
C923 C922 1.434 . S
C924 C925 1.369 . S
C924 C926 1.419 . S
C924 H928 0.930 1_545 S
C925 C924 1.369 . S
C925 C934 1.429 . S
C926 C924 1.419 . S
C926 C927 1.363 . S
C926 H929 0.929 . S
C927 C926 1.363 . S
C927 C933 1.428 . S
H928 C924 0.930 1_565 S
H929 C926 0.929 . S
S930 N931 1.613 . S
S930 N932 1.610 . S
N931 S930 1.613 . S
N931 C934 1.350 . S
N932 S930 1.610 . S
N932 C933 1.351 . S
C933 C927 1.428 . S
C933 N932 1.351 . S
C933 C934 1.434 . S
C934 C925 1.429 . S
C934 N931 1.350 . S
C934 C933 1.434 . S
C935 C936 1.369 . S
C935 C937 1.419 . S
C935 H939 0.930 . S
C936 C935 1.369 . S
C936 C945 1.429 . S
C937 C935 1.419 . S
C937 C938 1.363 . S
C937 H940 0.929 . S
C938 C937 1.363 . S
C938 C944 1.428 . S
H939 C935 0.930 . S
H940 C937 0.929 . S
S941 N942 1.613 . S
S941 N943 1.610 . S
N942 S941 1.613 . S
N942 C945 1.350 . S
N943 S941 1.610 . S
N943 C944 1.351 . S
C944 C938 1.428 . S
C944 N943 1.351 . S
C944 C945 1.434 . S
C945 C936 1.429 . S
C945 N942 1.350 . S
C945 C944 1.434 . S
C946 C947 1.369 . S
C946 C948 1.419 . S
C946 H950 0.930 . S
C947 C946 1.369 . S
C947 C956 1.429 . S
C948 C946 1.419 . S
C948 C949 1.363 . S
C948 H951 0.929 . S
C949 C948 1.363 . S
C949 C955 1.428 . S
H950 C946 0.930 . S
H951 C948 0.929 . S
S952 N953 1.613 . S
S952 N954 1.610 . S
N953 S952 1.613 . S
N953 C956 1.350 . S
N954 S952 1.610 . S
N954 C955 1.351 . S
C955 C949 1.428 . S
C955 N954 1.351 . S
C955 C956 1.434 . S
C956 C947 1.429 . S
C956 N953 1.350 . S
C956 C955 1.434 . S
C957 C958 1.369 . S
C957 C959 1.419 . S
C957 H961 0.930 . S
C958 C957 1.369 . S
C958 C967 1.429 . S
C959 C957 1.419 . S
C959 C960 1.363 . S
C959 H962 0.929 . S
C960 C959 1.363 . S
C960 C966 1.428 . S
H961 C957 0.930 . S
H962 C959 0.929 . S
S963 N964 1.613 . S
S963 N965 1.610 . S
N964 S963 1.613 . S
N964 C967 1.350 . S
N965 S963 1.610 . S
N965 C966 1.351 . S
C966 C960 1.428 . S
C966 N965 1.351 . S
C966 C967 1.434 . S
C967 C958 1.429 . S
C967 N964 1.350 . S
C967 C966 1.434 . S
C968 C969 1.369 . S
C968 C970 1.419 . S
C968 H972 0.930 . S
C969 C968 1.369 . S
C969 C978 1.429 . S
C970 C968 1.419 . S
C970 C971 1.363 . S
C970 H973 0.929 . S
C971 C970 1.363 . S
C971 C977 1.428 1_554 S
H972 C968 0.930 . S
H973 C970 0.929 . S
S974 N975 1.613 . S
S974 N976 1.610 . S
N975 S974 1.613 . S
N975 C978 1.350 1_556 S
N976 S974 1.610 . S
N976 C977 1.351 . S
C977 C971 1.428 1_556 S
C977 N976 1.351 . S
C977 C978 1.434 1_556 S
C978 C969 1.429 . S
C978 N975 1.350 1_554 S
C978 C977 1.434 1_554 S
C979 C980 1.369 . S
C979 C981 1.419 . S
C979 H983 0.930 . S
C980 C979 1.369 . S
C980 C989 1.429 . S
C981 C979 1.419 . S
C981 C982 1.363 . S
C981 H984 0.929 . S
C982 C981 1.363 . S
C982 C988 1.428 . S
H983 C979 0.930 . S
H984 C981 0.929 . S
S985 N986 1.613 . S
S985 N987 1.610 . S
N986 S985 1.613 . S
N986 C989 1.350 . S
N987 S985 1.610 . S
N987 C988 1.351 . S
C988 C982 1.428 . S
C988 N987 1.351 . S
C988 C989 1.434 . S
C989 C980 1.429 . S
C989 N986 1.350 . S
C989 C988 1.434 . S
C990 C991 1.369 . S
C990 C992 1.419 . S
C990 H994 0.930 . S
C991 C990 1.369 . S
C991 C1000 1.429 . S
C992 C990 1.419 . S
C992 C993 1.363 . S
C992 H995 0.929 . S
C993 C992 1.363 . S
C993 C999 1.428 . S
H994 C990 0.930 . S
H995 C992 0.929 . S
S996 N997 1.613 . S
S996 N998 1.610 . S
N997 S996 1.613 . S
N997 C1000 1.350 . S
N998 S996 1.610 . S
N998 C999 1.351 . S
C999 C993 1.428 . S
C999 N998 1.351 . S
C999 C1000 1.434 . S
C1000 C991 1.429 . S
C1000 N997 1.350 . S
C1000 C999 1.434 . S
C1001 C1002 1.369 . S
C1001 C1003 1.419 . S
C1001 H1005 0.930 . S
C1002 C1001 1.369 . S
C1002 C1011 1.429 . S
C1003 C1001 1.419 . S
C1003 C1004 1.363 . S
C1003 H1006 0.929 . S
C1004 C1003 1.363 . S
C1004 C1010 1.428 . S
H1005 C1001 0.930 . S
H1006 C1003 0.929 . S
S1007 N1008 1.613 . S
S1007 N1009 1.610 . S
N1008 S1007 1.613 . S
N1008 C1011 1.350 . S
N1009 S1007 1.610 . S
N1009 C1010 1.351 . S
C1010 C1004 1.428 . S
C1010 N1009 1.351 . S
C1010 C1011 1.434 . S
C1011 C1002 1.429 . S
C1011 N1008 1.350 . S
C1011 C1010 1.434 . S
C1012 C1013 1.369 . S
C1012 C1014 1.419 . S
C1012 H1016 0.930 . S
C1013 C1012 1.369 . S
C1013 C1022 1.429 . S
C1014 C1012 1.419 . S
C1014 C1015 1.363 . S
C1014 H1017 0.929 . S
C1015 C1014 1.363 . S
C1015 C1021 1.428 . S
H1016 C1012 0.930 . S
H1017 C1014 0.929 . S
S1018 N1019 1.613 . S
S1018 N1020 1.610 . S
N1019 S1018 1.613 . S
N1019 C1022 1.350 . S
N1020 S1018 1.610 . S
N1020 C1021 1.351 . S
C1021 C1015 1.428 . S
C1021 N1020 1.351 . S
C1021 C1022 1.434 . S
C1022 C1013 1.429 . S
C1022 N1019 1.350 . S
C1022 C1021 1.434 . S
C1023 C1024 1.369 . S
C1023 C1025 1.419 . S
C1023 H1027 0.930 . S
C1024 C1023 1.369 . S
C1024 C1033 1.429 . S
C1025 C1023 1.419 . S
C1025 C1026 1.363 . S
C1025 H1028 0.929 . S
C1026 C1025 1.363 . S
C1026 C1032 1.428 1_565 S
H1027 C1023 0.930 . S
H1028 C1025 0.929 . S
S1029 N1030 1.613 1_545 S
S1029 N1031 1.610 . S
N1030 S1029 1.613 1_565 S
N1030 C1033 1.350 . S
N1031 S1029 1.610 . S
N1031 C1032 1.351 . S
C1032 C1026 1.428 1_545 S
C1032 N1031 1.351 . S
C1032 C1033 1.434 1_545 S
C1033 C1024 1.429 . S
C1033 N1030 1.350 . S
C1033 C1032 1.434 1_565 S
C1034 C1035 1.369 . S
C1034 C1036 1.419 . S
C1034 H1038 0.930 . S
C1035 C1034 1.369 . S
C1035 C1044 1.429 . S
C1036 C1034 1.419 . S
C1036 C1037 1.363 . S
C1036 H1039 0.929 . S
C1037 C1036 1.363 . S
C1037 C1043 1.428 . S
H1038 C1034 0.930 . S
H1039 C1036 0.929 . S
S1040 N1041 1.613 . S
S1040 N1042 1.610 . S
N1041 S1040 1.613 . S
N1041 C1044 1.350 . S
N1042 S1040 1.610 . S
N1042 C1043 1.351 . S
C1043 C1037 1.428 . S
C1043 N1042 1.351 . S
C1043 C1044 1.434 . S
C1044 C1035 1.429 . S
C1044 N1041 1.350 . S
C1044 C1043 1.434 . S
C1045 C1046 1.369 . S
C1045 C1047 1.419 . S
C1045 H1049 0.930 . S
C1046 C1045 1.369 . S
C1046 C1055 1.429 . S
C1047 C1045 1.419 . S
C1047 C1048 1.363 . S
C1047 H1050 0.929 . S
C1048 C1047 1.363 . S
C1048 C1054 1.428 . S
H1049 C1045 0.930 . S
H1050 C1047 0.929 . S
S1051 N1052 1.613 . S
S1051 N1053 1.610 . S
N1052 S1051 1.613 . S
N1052 C1055 1.350 . S
N1053 S1051 1.610 . S
N1053 C1054 1.351 . S
C1054 C1048 1.428 . S
C1054 N1053 1.351 . S
C1054 C1055 1.434 . S
C1055 C1046 1.429 . S
C1055 N1052 1.350 . S
C1055 C1054 1.434 . S
C1056 C1057 1.369 . S
C1056 C1058 1.419 . S
C1056 H1060 0.930 1_455 S
C1057 C1056 1.369 . S
C1057 C1066 1.429 . S
C1058 C1056 1.419 . S
C1058 C1059 1.363 . S
C1058 H1061 0.929 1_455 S
C1059 C1058 1.363 . S
C1059 C1065 1.428 . S
H1060 C1056 0.930 1_655 S
H1061 C1058 0.929 1_655 S
S1062 N1063 1.613 . S
S1062 N1064 1.610 . S
N1063 S1062 1.613 . S
N1063 C1066 1.350 . S
N1064 S1062 1.610 . S
N1064 C1065 1.351 . S
C1065 C1059 1.428 . S
C1065 N1064 1.351 . S
C1065 C1066 1.434 . S
C1066 C1057 1.429 . S
C1066 N1063 1.350 . S
C1066 C1065 1.434 . S
C1067 C1068 1.369 . S
C1067 C1069 1.419 . S
C1067 H1071 0.930 . S
C1068 C1067 1.369 . S
C1068 C1077 1.429 . S
C1069 C1067 1.419 . S
C1069 C1070 1.363 . S
C1069 H1072 0.929 . S
C1070 C1069 1.363 . S
C1070 C1076 1.428 . S
H1071 C1067 0.930 . S
H1072 C1069 0.929 . S
S1073 N1074 1.613 . S
S1073 N1075 1.610 . S
N1074 S1073 1.613 . S
N1074 C1077 1.350 . S
N1075 S1073 1.610 . S
N1075 C1076 1.351 . S
C1076 C1070 1.428 . S
C1076 N1075 1.351 . S
C1076 C1077 1.434 . S
C1077 C1068 1.429 . S
C1077 N1074 1.350 . S
C1077 C1076 1.434 . S
C1078 C1079 1.369 . S
C1078 C1080 1.419 . S
C1078 H1082 0.930 . S
C1079 C1078 1.369 . S
C1079 C1088 1.429 . S
C1080 C1078 1.419 . S
C1080 C1081 1.363 . S
C1080 H1083 0.929 . S
C1081 C1080 1.363 . S
C1081 C1087 1.428 . S
H1082 C1078 0.930 . S
H1083 C1080 0.929 . S
S1084 N1085 1.613 . S
S1084 N1086 1.610 . S
N1085 S1084 1.613 . S
N1085 C1088 1.350 . S
N1086 S1084 1.610 . S
N1086 C1087 1.351 . S
C1087 C1081 1.428 . S
C1087 N1086 1.351 . S
C1087 C1088 1.434 . S
C1088 C1079 1.429 . S
C1088 N1085 1.350 . S
C1088 C1087 1.434 . S
C1089 C1090 1.369 . S
C1089 C1091 1.419 . S
C1089 H1093 0.930 . S
C1090 C1089 1.369 . S
C1090 C1099 1.429 . S
C1091 C1089 1.419 . S
C1091 C1092 1.363 . S
C1091 H1094 0.929 . S
C1092 C1091 1.363 . S
C1092 C1098 1.428 . S
H1093 C1089 0.930 . S
H1094 C1091 0.929 . S
S1095 N1096 1.613 . S
S1095 N1097 1.610 . S
N1096 S1095 1.613 . S
N1096 C1099 1.350 . S
N1097 S1095 1.610 . S
N1097 C1098 1.351 . S
C1098 C1092 1.428 . S
C1098 N1097 1.351 . S
C1098 C1099 1.434 . S
C1099 C1090 1.429 . S
C1099 N1096 1.350 . S
C1099 C1098 1.434 . S
C1100 C1101 1.369 1_655 S
C1100 C1102 1.419 1_655 S
C1100 H1104 0.930 . S
C1101 C1100 1.369 1_455 S
C1101 C1110 1.429 . S
C1102 C1100 1.419 1_455 S
C1102 C1103 1.363 . S
C1102 H1105 0.918 1_455 S
C1103 C1102 1.363 . S
C1103 C1109 1.428 . S
H1104 C1100 0.930 . S
H1105 C1102 0.918 1_655 S
S1106 N1107 1.613 . S
S1106 N1108 1.610 . S
N1107 S1106 1.613 . S
N1107 C1110 1.350 . S
N1108 S1106 1.610 . S
N1108 C1109 1.351 . S
C1109 C1103 1.428 . S
C1109 N1108 1.351 . S
C1109 C1110 1.434 . S
C1110 C1101 1.429 . S
C1110 N1107 1.350 . S
C1110 C1109 1.434 . S
C1111 C1112 1.369 . S
C1111 C1113 1.419 . S
C1111 H1115 0.930 . S
C1112 C1111 1.369 . S
C1112 C1121 1.429 . S
C1113 C1111 1.419 . S
C1113 C1114 1.363 . S
C1113 H1116 0.929 . S
C1114 C1113 1.363 . S
C1114 C1120 1.428 . S
H1115 C1111 0.930 . S
H1116 C1113 0.929 . S
S1117 N1118 1.613 . S
S1117 N1119 1.610 . S
N1118 S1117 1.613 . S
N1118 C1121 1.350 . S
N1119 S1117 1.610 . S
N1119 C1120 1.351 . S
C1120 C1114 1.428 . S
C1120 N1119 1.351 . S
C1120 C1121 1.434 . S
C1121 C1112 1.429 . S
C1121 N1118 1.350 . S
C1121 C1120 1.434 . S
C1122 C1123 1.369 . S
C1122 C1124 1.419 . S
C1122 H1126 0.930 . S
C1123 C1122 1.369 . S
C1123 C1132 1.429 . S
C1124 C1122 1.419 . S
C1124 C1125 1.363 . S
C1124 H1127 0.929 . S
C1125 C1124 1.363 . S
C1125 C1131 1.428 . S
H1126 C1122 0.930 . S
H1127 C1124 0.929 . S
S1128 N1129 1.613 . S
S1128 N1130 1.610 . S
N1129 S1128 1.613 . S
N1129 C1132 1.350 . S
N1130 S1128 1.610 . S
N1130 C1131 1.351 . S
C1131 C1125 1.428 . S
C1131 N1130 1.351 . S
C1131 C1132 1.434 . S
C1132 C1123 1.429 . S
C1132 N1129 1.350 . S
C1132 C1131 1.434 . S
C1133 C1134 1.369 . S
C1133 C1135 1.419 . S
C1133 H1137 0.930 . S
C1134 C1133 1.369 . S
C1134 C1143 1.429 . S
C1135 C1133 1.419 . S
C1135 C1136 1.363 . S
C1135 H1138 0.929 . S
C1136 C1135 1.363 . S
C1136 C1142 1.428 . S
H1137 C1133 0.930 . S
H1138 C1135 0.929 . S
S1139 N1140 1.613 . S
S1139 N1141 1.610 . S
N1140 S1139 1.613 . S
N1140 C1143 1.350 . S
N1141 S1139 1.610 . S
N1141 C1142 1.351 . S
C1142 C1136 1.428 . S
C1142 N1141 1.351 . S
C1142 C1143 1.434 . S
C1143 C1134 1.429 . S
C1143 N1140 1.350 . S
C1143 C1142 1.434 . S
C1144 C1145 1.369 . S
C1144 C1146 1.419 . S
C1144 H1148 0.930 . S
C1145 C1144 1.369 . S
C1145 C1154 1.429 . S
C1146 C1144 1.419 . S
C1146 C1147 1.363 . S
C1146 H1149 0.929 1_655 S
C1147 C1146 1.363 . S
C1147 C1153 1.428 . S
H1148 C1144 0.930 . S
H1149 C1146 0.929 1_455 S
S1150 N1151 1.613 . S
S1150 N1152 1.610 . S
N1151 S1150 1.613 . S
N1151 C1154 1.350 . S
N1152 S1150 1.610 . S
N1152 C1153 1.351 . S
C1153 C1147 1.428 . S
C1153 N1152 1.351 . S
C1153 C1154 1.434 . S
C1154 C1145 1.429 . S
C1154 N1151 1.350 . S
C1154 C1153 1.434 . S
C1155 C1156 1.369 . S
C1155 C1157 1.419 . S
C1155 H1159 0.930 . S
C1156 C1155 1.369 . S
C1156 C1165 1.429 . S
C1157 C1155 1.419 . S
C1157 C1158 1.363 . S
C1157 H1160 0.929 . S
C1158 C1157 1.363 . S
C1158 C1164 1.428 . S
H1159 C1155 0.930 . S
H1160 C1157 0.929 . S
S1161 N1162 1.613 . S
S1161 N1163 1.610 . S
N1162 S1161 1.613 . S
N1162 C1165 1.350 . S
N1163 S1161 1.610 . S
N1163 C1164 1.351 . S
C1164 C1158 1.428 . S
C1164 N1163 1.351 . S
C1164 C1165 1.434 . S
C1165 C1156 1.429 . S
C1165 N1162 1.350 . S
C1165 C1164 1.434 . S
C1166 C1167 1.369 . S
C1166 C1168 1.419 . S
C1166 H1170 0.930 . S
C1167 C1166 1.369 . S
C1167 C1176 1.429 1_545 S
C1168 C1166 1.419 . S
C1168 C1169 1.363 . S
C1168 H1171 0.929 . S
C1169 C1168 1.363 . S
C1169 C1175 1.428 1_545 S
H1170 C1166 0.930 . S
H1171 C1168 0.929 . S
S1172 N1173 1.613 . S
S1172 N1174 1.610 . S
N1173 S1172 1.613 . S
N1173 C1176 1.350 . S
N1174 S1172 1.610 . S
N1174 C1175 1.351 . S
C1175 C1169 1.428 1_565 S
C1175 N1174 1.351 . S
C1175 C1176 1.434 . S
C1176 C1167 1.429 1_565 S
C1176 N1173 1.350 . S
C1176 C1175 1.434 . S
C1177 C1178 1.369 . S
C1177 C1179 1.419 . S
C1177 H1181 0.930 . S
C1178 C1177 1.369 . S
C1178 C1187 1.429 . S
C1179 C1177 1.419 . S
C1179 C1180 1.363 . S
C1179 H1182 0.929 . S
C1180 C1179 1.363 . S
C1180 C1186 1.428 . S
H1181 C1177 0.930 . S
H1182 C1179 0.929 . S
S1183 N1184 1.613 . S
S1183 N1185 1.610 . S
N1184 S1183 1.613 . S
N1184 C1187 1.350 . S
N1185 S1183 1.610 . S
N1185 C1186 1.351 . S
C1186 C1180 1.428 . S
C1186 N1185 1.351 . S
C1186 C1187 1.434 . S
C1187 C1178 1.429 . S
C1187 N1184 1.350 . S
C1187 C1186 1.434 . S
C1188 C1189 1.369 . S
C1188 C1190 1.419 . S
C1188 H1192 0.930 . S
C1189 C1188 1.369 . S
C1189 C1198 1.429 . S
C1190 C1188 1.419 . S
C1190 C1191 1.363 . S
C1190 H1193 0.929 . S
C1191 C1190 1.363 . S
C1191 C1197 1.428 . S
H1192 C1188 0.930 . S
H1193 C1190 0.929 . S
S1194 N1195 1.613 1_455 S
S1194 N1196 1.610 . S
N1195 S1194 1.613 1_655 S
N1195 C1198 1.350 . S
N1196 S1194 1.610 . S
N1196 C1197 1.351 1_455 S
C1197 C1191 1.428 . S
C1197 N1196 1.351 1_655 S
C1197 C1198 1.434 . S
C1198 C1189 1.429 . S
C1198 N1195 1.350 . S
C1198 C1197 1.434 . S
C1199 C1200 1.369 . S
C1199 C1201 1.419 . S
C1199 H1203 0.930 . S
C1200 C1199 1.369 . S
C1200 C1209 1.429 . S
C1201 C1199 1.419 . S
C1201 C1202 1.363 . S
C1201 H1204 0.929 . S
C1202 C1201 1.363 . S
C1202 C1208 1.428 . S
H1203 C1199 0.930 . S
H1204 C1201 0.929 . S
S1205 N1206 1.613 . S
S1205 N1207 1.610 . S
N1206 S1205 1.613 . S
N1206 C1209 1.350 . S
N1207 S1205 1.610 . S
N1207 C1208 1.351 . S
C1208 C1202 1.428 . S
C1208 N1207 1.351 . S
C1208 C1209 1.434 . S
C1209 C1200 1.429 . S
C1209 N1206 1.350 . S
C1209 C1208 1.434 . S
C1210 C1211 1.369 . S
C1210 C1212 1.419 . S
C1210 H1214 0.930 . S
C1211 C1210 1.369 . S
C1211 C1220 1.429 1_545 S
C1212 C1210 1.419 . S
C1212 C1213 1.363 . S
C1212 H1215 0.929 . S
C1213 C1212 1.363 . S
C1213 C1219 1.428 . S
H1214 C1210 0.930 . S
H1215 C1212 0.929 . S
S1216 N1217 1.613 . S
S1216 N1218 1.610 . S
N1217 S1216 1.613 . S
N1217 C1220 1.350 . S
N1218 S1216 1.610 . S
N1218 C1219 1.351 1_565 S
C1219 C1213 1.428 . S
C1219 N1218 1.351 1_545 S
C1219 C1220 1.434 1_545 S
C1220 C1211 1.429 1_565 S
C1220 N1217 1.350 . S
C1220 C1219 1.434 1_565 S
C1221 C1222 1.369 . S
C1221 C1223 1.419 . S
C1221 H1225 0.930 . S
C1222 C1221 1.369 . S
C1222 C1231 1.429 . S
C1223 C1221 1.419 . S
C1223 C1224 1.363 . S
C1223 H1226 0.929 . S
C1224 C1223 1.363 . S
C1224 C1230 1.428 . S
H1225 C1221 0.930 . S
H1226 C1223 0.929 . S
S1227 N1228 1.613 . S
S1227 N1229 1.610 . S
N1228 S1227 1.613 . S
N1228 C1231 1.350 . S
N1229 S1227 1.610 . S
N1229 C1230 1.351 . S
C1230 C1224 1.428 . S
C1230 N1229 1.351 . S
C1230 C1231 1.434 . S
C1231 C1222 1.429 . S
C1231 N1228 1.350 . S
C1231 C1230 1.434 . S
C1232 C1233 1.369 . S
C1232 C1234 1.419 . S
C1232 H1236 0.930 1_554 S
C1233 C1232 1.369 . S
C1233 C1242 1.429 . S
C1234 C1232 1.419 . S
C1234 C1235 1.363 . S
C1234 H1237 0.929 1_554 S
C1235 C1234 1.363 . S
C1235 C1241 1.428 . S
H1236 C1232 0.930 1_556 S
H1237 C1234 0.929 1_556 S
S1238 N1239 1.613 1_545 S
S1238 N1240 1.610 . S
N1239 S1238 1.613 1_565 S
N1239 C1242 1.350 . S
N1240 S1238 1.610 . S
N1240 C1241 1.351 1_545 S
C1241 C1235 1.428 . S
C1241 N1240 1.351 1_565 S
C1241 C1242 1.434 . S
C1242 C1233 1.429 . S
C1242 N1239 1.350 . S
C1242 C1241 1.434 . S
C1243 C1244 1.369 1_556 S
C1243 C1245 1.417 1_556 S
C1243 H1247 0.930 . S
C1244 C1243 1.369 1_554 S
C1244 C1253 1.429 . S
C1245 C1243 1.417 1_554 S
C1245 C1246 1.370 . S
C1245 H1248 0.924 1_554 S
C1246 C1245 1.370 . S
C1246 C1252 1.428 . S
H1247 C1243 0.930 . S
H1248 C1245 0.924 1_556 S
S1249 N1250 1.613 . S
S1249 N1251 1.610 . S
N1250 S1249 1.613 . S
N1250 C1253 1.350 . S
N1251 S1249 1.610 . S
N1251 C1252 1.351 . S
C1252 C1246 1.428 . S
C1252 N1251 1.351 . S
C1252 C1253 1.434 . S
C1253 C1244 1.429 . S
C1253 N1250 1.350 . S
C1253 C1252 1.434 . S
C1254 C1255 1.369 . S
C1254 C1256 1.419 . S
C1254 H1258 0.930 . S
C1255 C1254 1.369 . S
C1255 C1264 1.429 . S
C1256 C1254 1.419 . S
C1256 C1257 1.363 . S
C1256 H1259 0.929 . S
C1257 C1256 1.363 . S
C1257 C1263 1.428 . S
H1258 C1254 0.930 . S
H1259 C1256 0.929 . S
S1260 N1261 1.613 . S
S1260 N1262 1.610 . S
N1261 S1260 1.613 . S
N1261 C1264 1.350 . S
N1262 S1260 1.610 . S
N1262 C1263 1.351 . S
C1263 C1257 1.428 . S
C1263 N1262 1.351 . S
C1263 C1264 1.434 . S
C1264 C1255 1.429 . S
C1264 N1261 1.350 . S
C1264 C1263 1.434 . S
C1265 C1266 1.369 . S
C1265 C1267 1.419 . S
C1265 H1269 0.930 . S
C1266 C1265 1.369 . S
C1266 C1275 1.429 . S
C1267 C1265 1.419 . S
C1267 C1268 1.363 . S
C1267 H1270 0.929 . S
C1268 C1267 1.363 . S
C1268 C1274 1.428 . S
H1269 C1265 0.930 . S
H1270 C1267 0.929 . S
S1271 N1272 1.613 . S
S1271 N1273 1.610 . S
N1272 S1271 1.613 . S
N1272 C1275 1.350 . S
N1273 S1271 1.610 . S
N1273 C1274 1.351 . S
C1274 C1268 1.428 . S
C1274 N1273 1.351 . S
C1274 C1275 1.434 . S
C1275 C1266 1.429 . S
C1275 N1272 1.350 . S
C1275 C1274 1.434 . S
C1276 C1277 1.369 . S
C1276 C1278 1.419 . S
C1276 H1280 0.928 1_565 S
C1277 C1276 1.369 . S
C1277 C1286 1.429 . S
C1278 C1276 1.419 . S
C1278 C1279 1.363 . S
C1278 H1281 0.929 . S
C1279 C1278 1.363 . S
C1279 C1285 1.428 . S
H1280 C1276 0.928 1_545 S
H1281 C1278 0.929 . S
S1282 N1283 1.613 . S
S1282 N1284 1.610 . S
N1283 S1282 1.613 . S
N1283 C1286 1.350 . S
N1284 S1282 1.610 . S
N1284 C1285 1.351 . S
C1285 C1279 1.428 . S
C1285 N1284 1.351 . S
C1285 C1286 1.434 . S
C1286 C1277 1.429 . S
C1286 N1283 1.350 . S
C1286 C1285 1.434 . S
C1287 C1288 1.369 . S
C1287 C1289 1.419 . S
C1287 H1291 0.930 . S
C1288 C1287 1.369 . S
C1288 C1297 1.429 . S
C1289 C1287 1.419 . S
C1289 C1290 1.363 . S
C1289 H1292 0.929 . S
C1290 C1289 1.363 . S
C1290 C1296 1.428 . S
H1291 C1287 0.930 . S
H1292 C1289 0.929 . S
S1293 N1294 1.613 . S
S1293 N1295 1.610 . S
N1294 S1293 1.613 . S
N1294 C1297 1.350 . S
N1295 S1293 1.610 . S
N1295 C1296 1.351 . S
C1296 C1290 1.428 . S
C1296 N1295 1.351 . S
C1296 C1297 1.434 . S
C1297 C1288 1.429 . S
C1297 N1294 1.350 . S
C1297 C1296 1.434 . S
C1298 C1299 1.369 . S
C1298 C1300 1.419 . S
C1298 H1302 0.930 . S
C1299 C1298 1.369 . S
C1299 C1308 1.429 . S
C1300 C1298 1.419 . S
C1300 C1301 1.363 . S
C1300 H1303 0.929 . S
C1301 C1300 1.363 . S
C1301 C1307 1.428 . S
H1302 C1298 0.930 . S
H1303 C1300 0.929 . S
S1304 N1305 1.613 . S
S1304 N1306 1.610 . S
N1305 S1304 1.613 . S
N1305 C1308 1.350 . S
N1306 S1304 1.610 . S
N1306 C1307 1.351 . S
C1307 C1301 1.428 . S
C1307 N1306 1.351 . S
C1307 C1308 1.434 . S
C1308 C1299 1.429 . S
C1308 N1305 1.350 . S
C1308 C1307 1.434 . S
C1309 C1310 1.369 . S
C1309 C1311 1.419 . S
C1309 H1313 0.930 . S
C1310 C1309 1.369 . S
C1310 C1319 1.429 . S
C1311 C1309 1.419 . S
C1311 C1312 1.363 . S
C1311 H1314 0.929 . S
C1312 C1311 1.363 . S
C1312 C1318 1.428 . S
H1313 C1309 0.930 . S
H1314 C1311 0.929 . S
S1315 N1316 1.613 . S
S1315 N1317 1.610 . S
N1316 S1315 1.613 . S
N1316 C1319 1.350 . S
N1317 S1315 1.610 . S
N1317 C1318 1.351 . S
C1318 C1312 1.428 . S
C1318 N1317 1.351 . S
C1318 C1319 1.434 . S
C1319 C1310 1.429 . S
C1319 N1316 1.350 . S
C1319 C1318 1.434 . S
C1320 C1321 1.369 . S
C1320 C1322 1.419 . S
C1320 H1324 0.930 . S
C1321 C1320 1.369 . S
C1321 C1330 1.429 . S
C1322 C1320 1.419 . S
C1322 C1323 1.363 . S
C1322 H1325 0.929 . S
C1323 C1322 1.363 . S
C1323 C1329 1.428 . S
H1324 C1320 0.930 . S
H1325 C1322 0.929 . S
S1326 N1327 1.613 . S
S1326 N1328 1.610 . S
N1327 S1326 1.613 . S
N1327 C1330 1.350 . S
N1328 S1326 1.610 . S
N1328 C1329 1.351 . S
C1329 C1323 1.428 . S
C1329 N1328 1.351 . S
C1329 C1330 1.434 . S
C1330 C1321 1.429 . S
C1330 N1327 1.350 . S
C1330 C1329 1.434 . S
C1331 C1332 1.369 . S
C1331 C1333 1.419 . S
C1331 H1335 0.930 . S
C1332 C1331 1.369 . S
C1332 C1341 1.429 . S
C1333 C1331 1.419 . S
C1333 C1334 1.363 . S
C1333 H1336 0.929 . S
C1334 C1333 1.363 . S
C1334 C1340 1.428 . S
H1335 C1331 0.930 . S
H1336 C1333 0.929 . S
S1337 N1338 1.613 . S
S1337 N1339 1.610 . S
N1338 S1337 1.613 . S
N1338 C1341 1.350 . S
N1339 S1337 1.610 . S
N1339 C1340 1.351 . S
C1340 C1334 1.428 . S
C1340 N1339 1.351 . S
C1340 C1341 1.434 . S
C1341 C1332 1.429 . S
C1341 N1338 1.350 . S
C1341 C1340 1.434 . S
C1342 C1343 1.369 . S
C1342 C1344 1.419 . S
C1342 H1346 0.930 . S
C1343 C1342 1.369 . S
C1343 C1352 1.429 . S
C1344 C1342 1.419 . S
C1344 C1345 1.363 . S
C1344 H1347 0.929 . S
C1345 C1344 1.363 . S
C1345 C1351 1.428 . S
H1346 C1342 0.930 . S
H1347 C1344 0.929 . S
S1348 N1349 1.613 . S
S1348 N1350 1.610 . S
N1349 S1348 1.613 . S
N1349 C1352 1.350 . S
N1350 S1348 1.610 . S
N1350 C1351 1.351 . S
C1351 C1345 1.428 . S
C1351 N1350 1.351 . S
C1351 C1352 1.434 . S
C1352 C1343 1.429 . S
C1352 N1349 1.350 . S
C1352 C1351 1.434 . S
C1353 C1354 1.369 . S
C1353 C1355 1.419 . S
C1353 H1357 0.930 1_655 S
C1354 C1353 1.369 . S
C1354 C1363 1.429 . S
C1355 C1353 1.419 . S
C1355 C1356 1.363 . S
C1355 H1358 0.929 . S
C1356 C1355 1.363 . S
C1356 C1362 1.428 . S
H1357 C1353 0.930 1_455 S
H1358 C1355 0.929 . S
S1359 N1360 1.613 . S
S1359 N1361 1.610 . S
N1360 S1359 1.613 . S
N1360 C1363 1.350 . S
N1361 S1359 1.610 . S
N1361 C1362 1.351 . S
C1362 C1356 1.428 . S
C1362 N1361 1.351 . S
C1362 C1363 1.434 . S
C1363 C1354 1.429 . S
C1363 N1360 1.350 . S
C1363 C1362 1.434 . S
C1364 C1365 1.369 . S
C1364 C1366 1.419 . S
C1364 H1368 0.930 . S
C1365 C1364 1.369 . S
C1365 C1374 1.429 . S
C1366 C1364 1.419 . S
C1366 C1367 1.363 . S
C1366 H1369 0.929 1_556 S
C1367 C1366 1.363 . S
C1367 C1373 1.428 . S
H1368 C1364 0.930 . S
H1369 C1366 0.929 1_554 S
S1370 N1371 1.613 . S
S1370 N1372 1.610 . S
N1371 S1370 1.613 . S
N1371 C1374 1.350 . S
N1372 S1370 1.610 . S
N1372 C1373 1.351 . S
C1373 C1367 1.428 . S
C1373 N1372 1.351 . S
C1373 C1374 1.434 . S
C1374 C1365 1.429 . S
C1374 N1371 1.350 . S
C1374 C1373 1.434 . S
C1375 C1376 1.369 . S
C1375 C1377 1.419 . S
C1375 H1379 0.930 . S
C1376 C1375 1.369 . S
C1376 C1385 1.429 . S
C1377 C1375 1.419 . S
C1377 C1378 1.363 . S
C1377 H1380 0.929 . S
C1378 C1377 1.363 . S
C1378 C1384 1.428 . S
H1379 C1375 0.930 . S
H1380 C1377 0.929 . S
S1381 N1382 1.613 . S
S1381 N1383 1.610 . S
N1382 S1381 1.613 . S
N1382 C1385 1.350 . S
N1383 S1381 1.610 . S
N1383 C1384 1.351 . S
C1384 C1378 1.428 . S
C1384 N1383 1.351 . S
C1384 C1385 1.434 . S
C1385 C1376 1.429 . S
C1385 N1382 1.350 . S
C1385 C1384 1.434 . S
C1386 C1387 1.369 . S
C1386 C1388 1.419 . S
C1386 H1390 0.930 . S
C1387 C1386 1.369 . S
C1387 C1396 1.429 . S
C1388 C1386 1.419 . S
C1388 C1389 1.363 . S
C1388 H1391 0.929 . S
C1389 C1388 1.363 . S
C1389 C1395 1.428 . S
H1390 C1386 0.930 . S
H1391 C1388 0.929 . S
S1392 N1393 1.613 . S
S1392 N1394 1.610 . S
N1393 S1392 1.613 . S
N1393 C1396 1.350 . S
N1394 S1392 1.610 . S
N1394 C1395 1.351 . S
C1395 C1389 1.428 . S
C1395 N1394 1.351 . S
C1395 C1396 1.434 . S
C1396 C1387 1.429 . S
C1396 N1393 1.350 . S
C1396 C1395 1.434 . S
C1397 C1398 1.369 . S
C1397 C1399 1.419 . S
C1397 H1401 0.930 . S
C1398 C1397 1.369 . S
C1398 C1407 1.429 . S
C1399 C1397 1.419 . S
C1399 C1400 1.363 . S
C1399 H1402 0.929 . S
C1400 C1399 1.363 . S
C1400 C1406 1.428 . S
H1401 C1397 0.930 . S
H1402 C1399 0.929 . S
S1403 N1404 1.613 . S
S1403 N1405 1.610 . S
N1404 S1403 1.613 . S
N1404 C1407 1.350 . S
N1405 S1403 1.610 . S
N1405 C1406 1.351 . S
C1406 C1400 1.428 . S
C1406 N1405 1.351 . S
C1406 C1407 1.434 . S
C1407 C1398 1.429 . S
C1407 N1404 1.350 . S
C1407 C1406 1.434 . S
C1408 C1409 1.369 . S
C1408 C1410 1.419 . S
C1408 H1412 0.930 . S
C1409 C1408 1.369 . S
C1409 C1418 1.429 . S
C1410 C1408 1.419 . S
C1410 C1411 1.363 . S
C1410 H1413 0.929 . S
C1411 C1410 1.363 . S
C1411 C1417 1.428 . S
H1412 C1408 0.930 . S
H1413 C1410 0.929 . S
S1414 N1415 1.613 . S
S1414 N1416 1.610 . S
N1415 S1414 1.613 . S
N1415 C1418 1.350 . S
N1416 S1414 1.610 . S
N1416 C1417 1.351 . S
C1417 C1411 1.428 . S
C1417 N1416 1.351 . S
C1417 C1418 1.434 . S
C1418 C1409 1.429 . S
C1418 N1415 1.350 . S
C1418 C1417 1.434 . S
C1419 C1420 1.369 . S
C1419 C1421 1.419 . S
C1419 H1423 0.930 . S
C1420 C1419 1.369 . S
C1420 C1429 1.429 . S
C1421 C1419 1.419 . S
C1421 C1422 1.363 . S
C1421 H1424 0.929 . S
C1422 C1421 1.363 . S
C1422 C1428 1.428 . S
H1423 C1419 0.930 . S
H1424 C1421 0.929 . S
S1425 N1426 1.613 . S
S1425 N1427 1.610 . S
N1426 S1425 1.613 . S
N1426 C1429 1.350 . S
N1427 S1425 1.610 . S
N1427 C1428 1.351 . S
C1428 C1422 1.428 . S
C1428 N1427 1.351 . S
C1428 C1429 1.434 . S
C1429 C1420 1.429 . S
C1429 N1426 1.350 . S
C1429 C1428 1.434 . S
C1430 C1431 1.369 . S
C1430 C1432 1.419 . S
C1430 H1434 0.930 . S
C1431 C1430 1.369 . S
C1431 C1440 1.429 . S
C1432 C1430 1.419 . S
C1432 C1433 1.363 . S
C1432 H1435 0.929 . S
C1433 C1432 1.363 . S
C1433 C1439 1.428 . S
H1434 C1430 0.930 . S
H1435 C1432 0.929 . S
S1436 N1437 1.613 1_455 S
S1436 N1438 1.610 . S
N1437 S1436 1.613 1_655 S
N1437 C1440 1.350 . S
N1438 S1436 1.610 . S
N1438 C1439 1.351 1_455 S
C1439 C1433 1.428 . S
C1439 N1438 1.351 1_655 S
C1439 C1440 1.434 . S
C1440 C1431 1.429 . S
C1440 N1437 1.350 . S
C1440 C1439 1.434 . S
C1441 C1442 1.369 . S
C1441 C1443 1.419 . S
C1441 H1445 0.930 . S
C1442 C1441 1.369 . S
C1442 C1451 1.429 . S
C1443 C1441 1.419 . S
C1443 C1444 1.363 . S
C1443 H1446 0.929 . S
C1444 C1443 1.363 . S
C1444 C1450 1.428 . S
H1445 C1441 0.930 . S
H1446 C1443 0.929 . S
S1447 N1448 1.613 . S
S1447 N1449 1.610 . S
N1448 S1447 1.613 . S
N1448 C1451 1.350 . S
N1449 S1447 1.610 . S
N1449 C1450 1.351 . S
C1450 C1444 1.428 . S
C1450 N1449 1.351 . S
C1450 C1451 1.434 . S
C1451 C1442 1.429 . S
C1451 N1448 1.350 . S
C1451 C1450 1.434 . S
C1452 C1453 1.369 . S
C1452 C1454 1.419 . S
C1452 H1456 0.930 . S
C1453 C1452 1.369 . S
C1453 C1462 1.429 . S
C1454 C1452 1.419 . S
C1454 C1455 1.363 . S
C1454 H1457 0.929 . S
C1455 C1454 1.363 . S
C1455 C1461 1.428 . S
H1456 C1452 0.930 . S
H1457 C1454 0.929 . S
S1458 N1459 1.613 . S
S1458 N1460 1.610 . S
N1459 S1458 1.613 . S
N1459 C1462 1.350 . S
N1460 S1458 1.610 . S
N1460 C1461 1.351 . S
C1461 C1455 1.428 . S
C1461 N1460 1.351 . S
C1461 C1462 1.434 . S
C1462 C1453 1.429 . S
C1462 N1459 1.350 . S
C1462 C1461 1.434 . S
C1463 C1464 1.369 . S
C1463 C1465 1.419 . S
C1463 H1467 0.930 . S
C1464 C1463 1.369 . S
C1464 C1473 1.429 . S
C1465 C1463 1.419 . S
C1465 C1466 1.363 . S
C1465 H1468 0.929 . S
C1466 C1465 1.363 . S
C1466 C1472 1.428 . S
H1467 C1463 0.930 . S
H1468 C1465 0.929 . S
S1469 N1470 1.613 . S
S1469 N1471 1.610 . S
N1470 S1469 1.613 . S
N1470 C1473 1.350 . S
N1471 S1469 1.610 . S
N1471 C1472 1.351 . S
C1472 C1466 1.428 . S
C1472 N1471 1.351 . S
C1472 C1473 1.434 . S
C1473 C1464 1.429 . S
C1473 N1470 1.350 . S
C1473 C1472 1.434 . S
C1474 C1475 1.369 . S
C1474 C1476 1.419 . S
C1474 H1478 0.930 . S
C1475 C1474 1.369 . S
C1475 C1484 1.429 . S
C1476 C1474 1.419 . S
C1476 C1477 1.363 . S
C1476 H1479 0.929 1_655 S
C1477 C1476 1.363 . S
C1477 C1483 1.428 . S
H1478 C1474 0.930 . S
H1479 C1476 0.929 1_455 S
S1480 N1481 1.613 . S
S1480 N1482 1.610 . S
N1481 S1480 1.613 . S
N1481 C1484 1.350 . S
N1482 S1480 1.610 . S
N1482 C1483 1.351 . S
C1483 C1477 1.428 . S
C1483 N1482 1.351 . S
C1483 C1484 1.434 . S
C1484 C1475 1.429 . S
C1484 N1481 1.350 . S
C1484 C1483 1.434 . S
C1485 C1486 1.369 . S
C1485 C1487 1.419 . S
C1485 H1489 0.930 . S
C1486 C1485 1.369 . S
C1486 C1495 1.429 . S
C1487 C1485 1.419 . S
C1487 C1488 1.363 . S
C1487 H1490 0.929 . S
C1488 C1487 1.363 . S
C1488 C1494 1.428 . S
H1489 C1485 0.930 . S
H1490 C1487 0.929 . S
S1491 N1492 1.613 . S
S1491 N1493 1.610 . S
N1492 S1491 1.613 . S
N1492 C1495 1.350 . S
N1493 S1491 1.610 . S
N1493 C1494 1.351 . S
C1494 C1488 1.428 . S
C1494 N1493 1.351 . S
C1494 C1495 1.434 . S
C1495 C1486 1.429 . S
C1495 N1492 1.350 . S
C1495 C1494 1.434 . S
C1496 C1497 1.369 . S
C1496 C1498 1.419 . S
C1496 H1500 0.930 . S
C1497 C1496 1.369 . S
C1497 C1506 1.429 . S
C1498 C1496 1.419 . S
C1498 C1499 1.363 . S
C1498 H1501 0.929 . S
C1499 C1498 1.363 . S
C1499 C1505 1.428 . S
H1500 C1496 0.930 . S
H1501 C1498 0.929 . S
S1502 N1503 1.613 . S
S1502 N1504 1.610 . S
N1503 S1502 1.613 . S
N1503 C1506 1.350 . S
N1504 S1502 1.610 . S
N1504 C1505 1.351 . S
C1505 C1499 1.428 . S
C1505 N1504 1.351 . S
C1505 C1506 1.434 . S
C1506 C1497 1.429 . S
C1506 N1503 1.350 . S
C1506 C1505 1.434 . S
C1507 C1508 1.369 . S
C1507 C1509 1.419 . S
C1507 H1511 0.930 . S
C1508 C1507 1.369 . S
C1508 C1517 1.429 . S
C1509 C1507 1.419 . S
C1509 C1510 1.363 . S
C1509 H1512 0.929 . S
C1510 C1509 1.363 . S
C1510 C1516 1.428 1_565 S
H1511 C1507 0.930 . S
H1512 C1509 0.929 . S
S1513 N1514 1.613 1_545 S
S1513 N1515 1.610 . S
N1514 S1513 1.613 1_565 S
N1514 C1517 1.350 . S
N1515 S1513 1.610 . S
N1515 C1516 1.351 . S
C1516 C1510 1.428 1_545 S
C1516 N1515 1.351 . S
C1516 C1517 1.434 1_545 S
C1517 C1508 1.429 . S
C1517 N1514 1.350 . S
C1517 C1516 1.434 1_565 S
C1518 C1519 1.369 . S
C1518 C1520 1.419 . S
C1518 H1522 0.930 . S
C1519 C1518 1.369 . S
C1519 C1528 1.429 . S
C1520 C1518 1.419 . S
C1520 C1521 1.363 . S
C1520 H1523 0.929 . S
C1521 C1520 1.363 . S
C1521 C1527 1.428 . S
H1522 C1518 0.930 . S
H1523 C1520 0.929 . S
S1524 N1525 1.613 . S
S1524 N1526 1.610 1_545 S
N1525 S1524 1.613 . S
N1525 C1528 1.350 1_545 S
N1526 S1524 1.610 1_565 S
N1526 C1527 1.351 . S
C1527 C1521 1.428 . S
C1527 N1526 1.351 . S
C1527 C1528 1.434 . S
C1528 C1519 1.429 . S
C1528 N1525 1.350 1_565 S
C1528 C1527 1.434 . S
C1529 C1530 1.369 . S
C1529 C1531 1.419 . S
C1529 H1533 0.930 . S
C1530 C1529 1.369 . S
C1530 C1539 1.429 . S
C1531 C1529 1.419 . S
C1531 C1532 1.363 . S
C1531 H1534 0.929 . S
C1532 C1531 1.363 . S
C1532 C1538 1.428 . S
H1533 C1529 0.930 . S
H1534 C1531 0.929 . S
S1535 N1536 1.613 . S
S1535 N1537 1.610 . S
N1536 S1535 1.613 . S
N1536 C1539 1.350 . S
N1537 S1535 1.610 . S
N1537 C1538 1.351 . S
C1538 C1532 1.428 . S
C1538 N1537 1.351 . S
C1538 C1539 1.434 . S
C1539 C1530 1.429 . S
C1539 N1536 1.350 . S
C1539 C1538 1.434 . S
C1540 C1541 1.369 . S
C1540 C1542 1.419 . S
C1540 H1544 0.930 . S
C1541 C1540 1.369 . S
C1541 C1550 1.429 . S
C1542 C1540 1.419 . S
C1542 C1543 1.363 . S
C1542 H1545 0.929 . S
C1543 C1542 1.363 . S
C1543 C1549 1.428 . S
H1544 C1540 0.930 . S
H1545 C1542 0.929 . S
S1546 N1547 1.613 . S
S1546 N1548 1.610 . S
N1547 S1546 1.613 . S
N1547 C1550 1.350 . S
N1548 S1546 1.610 . S
N1548 C1549 1.351 . S
C1549 C1543 1.428 . S
C1549 N1548 1.351 . S
C1549 C1550 1.434 . S
C1550 C1541 1.429 . S
C1550 N1547 1.350 . S
C1550 C1549 1.434 . S
C1551 C1552 1.369 . S
C1551 C1553 1.419 . S
C1551 H1555 0.930 . S
C1552 C1551 1.369 . S
C1552 C1561 1.429 . S
C1553 C1551 1.419 . S
C1553 C1554 1.363 . S
C1553 H1556 0.929 1_554 S
C1554 C1553 1.363 . S
C1554 C1560 1.428 . S
H1555 C1551 0.930 . S
H1556 C1553 0.929 1_556 S
S1557 N1558 1.613 . S
S1557 N1559 1.610 . S
N1558 S1557 1.613 . S
N1558 C1561 1.350 . S
N1559 S1557 1.610 . S
N1559 C1560 1.351 . S
C1560 C1554 1.428 . S
C1560 N1559 1.351 . S
C1560 C1561 1.434 . S
C1561 C1552 1.429 . S
C1561 N1558 1.350 . S
C1561 C1560 1.434 . S
C1562 C1563 1.369 . S
C1562 C1564 1.419 . S
C1562 H1566 0.930 . S
C1563 C1562 1.369 . S
C1563 C1572 1.429 . S
C1564 C1562 1.419 . S
C1564 C1565 1.363 . S
C1564 H1567 0.929 . S
C1565 C1564 1.363 . S
C1565 C1571 1.428 . S
H1566 C1562 0.930 . S
H1567 C1564 0.929 . S
S1568 N1569 1.613 . S
S1568 N1570 1.610 . S
N1569 S1568 1.613 . S
N1569 C1572 1.350 . S
N1570 S1568 1.610 . S
N1570 C1571 1.351 . S
C1571 C1565 1.428 . S
C1571 N1570 1.351 . S
C1571 C1572 1.434 . S
C1572 C1563 1.429 . S
C1572 N1569 1.350 . S
C1572 C1571 1.434 . S
C1573 C1574 1.369 . S
C1573 C1575 1.419 . S
C1573 H1577 0.930 . S
C1574 C1573 1.369 . S
C1574 C1583 1.429 . S
C1575 C1573 1.419 . S
C1575 C1576 1.363 . S
C1575 H1578 0.929 . S
C1576 C1575 1.363 . S
C1576 C1582 1.428 . S
H1577 C1573 0.930 . S
H1578 C1575 0.929 . S
S1579 N1580 1.613 . S
S1579 N1581 1.610 . S
N1580 S1579 1.613 . S
N1580 C1583 1.350 . S
N1581 S1579 1.610 . S
N1581 C1582 1.351 . S
C1582 C1576 1.428 . S
C1582 N1581 1.351 . S
C1582 C1583 1.434 . S
C1583 C1574 1.429 . S
C1583 N1580 1.350 . S
C1583 C1582 1.434 . S
C1584 C1585 1.369 . S
C1584 C1586 1.419 . S
C1584 H1588 0.930 . S
C1585 C1584 1.369 . S
C1585 C1594 1.429 . S
C1586 C1584 1.419 . S
C1586 C1587 1.363 . S
C1586 H1589 0.929 . S
C1587 C1586 1.363 . S
C1587 C1593 1.428 . S
H1588 C1584 0.930 . S
H1589 C1586 0.929 . S
S1590 N1591 1.613 . S
S1590 N1592 1.610 . S
N1591 S1590 1.613 . S
N1591 C1594 1.350 . S
N1592 S1590 1.610 . S
N1592 C1593 1.351 . S
C1593 C1587 1.428 . S
C1593 N1592 1.351 . S
C1593 C1594 1.434 . S
C1594 C1585 1.429 . S
C1594 N1591 1.350 . S
C1594 C1593 1.434 . S
C1595 C1596 1.369 . S
C1595 C1597 1.419 . S
C1595 H1599 0.930 . S
C1596 C1595 1.369 . S
C1596 C1605 1.429 . S
C1597 C1595 1.419 . S
C1597 C1598 1.363 . S
C1597 H1600 0.929 . S
C1598 C1597 1.363 . S
C1598 C1604 1.428 . S
H1599 C1595 0.930 . S
H1600 C1597 0.929 . S
S1601 N1602 1.613 . S
S1601 N1603 1.610 . S
N1602 S1601 1.613 . S
N1602 C1605 1.350 . S
N1603 S1601 1.610 . S
N1603 C1604 1.351 . S
C1604 C1598 1.428 . S
C1604 N1603 1.351 . S
C1604 C1605 1.434 . S
C1605 C1596 1.429 . S
C1605 N1602 1.350 . S
C1605 C1604 1.434 . S
C1606 C1607 1.369 . S
C1606 C1608 1.419 . S
C1606 H1610 0.930 1_455 S
C1607 C1606 1.369 . S
C1607 C1616 1.429 . S
C1608 C1606 1.419 . S
C1608 C1609 1.363 . S
C1608 H1611 0.929 1_455 S
C1609 C1608 1.363 . S
C1609 C1615 1.428 . S
H1610 C1606 0.930 1_655 S
H1611 C1608 0.929 1_655 S
S1612 N1613 1.613 1_554 S
S1612 N1614 1.610 . S
N1613 S1612 1.613 1_556 S
N1613 C1616 1.350 . S
N1614 S1612 1.610 . S
N1614 C1615 1.351 1_554 S
C1615 C1609 1.428 . S
C1615 N1614 1.351 1_556 S
C1615 C1616 1.434 . S
C1616 C1607 1.429 . S
C1616 N1613 1.350 . S
C1616 C1615 1.434 . S
C1617 C1618 1.369 . S
C1617 C1619 1.419 . S
C1617 H1621 0.930 . S
C1618 C1617 1.369 . S
C1618 C1627 1.429 . S
C1619 C1617 1.419 . S
C1619 C1620 1.363 . S
C1619 H1622 0.929 . S
C1620 C1619 1.363 . S
C1620 C1626 1.428 . S
H1621 C1617 0.930 . S
H1622 C1619 0.929 . S
S1623 N1624 1.613 . S
S1623 N1625 1.610 . S
N1624 S1623 1.613 . S
N1624 C1627 1.350 . S
N1625 S1623 1.610 . S
N1625 C1626 1.351 . S
C1626 C1620 1.428 . S
C1626 N1625 1.351 . S
C1626 C1627 1.434 . S
C1627 C1618 1.429 . S
C1627 N1624 1.350 . S
C1627 C1626 1.434 . S
C1628 C1629 1.369 . S
C1628 C1630 1.419 . S
C1628 H1632 0.930 . S
C1629 C1628 1.369 . S
C1629 C1638 1.429 . S
C1630 C1628 1.419 . S
C1630 C1631 1.363 . S
C1630 H1633 0.929 . S
C1631 C1630 1.363 . S
C1631 C1637 1.428 . S
H1632 C1628 0.930 . S
H1633 C1630 0.929 . S
S1634 N1635 1.613 . S
S1634 N1636 1.610 . S
N1635 S1634 1.613 . S
N1635 C1638 1.350 . S
N1636 S1634 1.610 . S
N1636 C1637 1.351 . S
C1637 C1631 1.428 . S
C1637 N1636 1.351 . S
C1637 C1638 1.434 . S
C1638 C1629 1.429 . S
C1638 N1635 1.350 . S
C1638 C1637 1.434 . S
C1639 C1640 1.369 . S
C1639 C1641 1.419 . S
C1639 H1643 0.930 . S
C1640 C1639 1.369 . S
C1640 C1649 1.429 . S
C1641 C1639 1.419 . S
C1641 C1642 1.363 . S
C1641 H1644 0.929 . S
C1642 C1641 1.363 . S
C1642 C1648 1.428 . S
H1643 C1639 0.930 . S
H1644 C1641 0.929 . S
S1645 N1646 1.613 . S
S1645 N1647 1.610 . S
N1646 S1645 1.613 . S
N1646 C1649 1.350 . S
N1647 S1645 1.610 . S
N1647 C1648 1.351 . S
C1648 C1642 1.428 . S
C1648 N1647 1.351 . S
C1648 C1649 1.434 . S
C1649 C1640 1.429 . S
C1649 N1646 1.350 . S
C1649 C1648 1.434 . S
C1650 C1651 1.369 . S
C1650 C1652 1.419 . S
C1650 H1654 0.930 . S
C1651 C1650 1.369 . S
C1651 C1660 1.429 . S
C1652 C1650 1.419 . S
C1652 C1653 1.363 . S
C1652 H1655 0.929 . S
C1653 C1652 1.363 . S
C1653 C1659 1.428 . S
H1654 C1650 0.930 . S
H1655 C1652 0.929 . S
S1656 N1657 1.613 . S
S1656 N1658 1.610 . S
N1657 S1656 1.613 . S
N1657 C1660 1.350 . S
N1658 S1656 1.610 . S
N1658 C1659 1.351 . S
C1659 C1653 1.428 . S
C1659 N1658 1.351 . S
C1659 C1660 1.434 . S
C1660 C1651 1.429 . S
C1660 N1657 1.350 . S
C1660 C1659 1.434 . S
C1661 C1662 1.369 . S
C1661 C1663 1.419 . S
C1661 H1665 0.930 . S
C1662 C1661 1.369 . S
C1662 C1671 1.429 . S
C1663 C1661 1.419 . S
C1663 C1664 1.363 . S
C1663 H1666 0.929 . S
C1664 C1663 1.363 . S
C1664 C1670 1.428 . S
H1665 C1661 0.930 . S
H1666 C1663 0.929 . S
S1667 N1668 1.613 . S
S1667 N1669 1.610 . S
N1668 S1667 1.613 . S
N1668 C1671 1.350 . S
N1669 S1667 1.610 . S
N1669 C1670 1.351 . S
C1670 C1664 1.428 . S
C1670 N1669 1.351 . S
C1670 C1671 1.434 . S
C1671 C1662 1.429 . S
C1671 N1668 1.350 . S
C1671 C1670 1.434 . S
C1672 C1673 1.369 . S
C1672 C1674 1.419 . S
C1672 H1676 0.930 . S
C1673 C1672 1.369 . S
C1673 C1682 1.429 . S
C1674 C1672 1.419 . S
C1674 C1675 1.363 . S
C1674 H1677 0.929 . S
C1675 C1674 1.363 . S
C1675 C1681 1.428 . S
H1676 C1672 0.930 . S
H1677 C1674 0.929 . S
S1678 N1679 1.613 . S
S1678 N1680 1.610 . S
N1679 S1678 1.613 . S
N1679 C1682 1.350 . S
N1680 S1678 1.610 . S
N1680 C1681 1.351 . S
C1681 C1675 1.428 . S
C1681 N1680 1.351 . S
C1681 C1682 1.434 . S
C1682 C1673 1.429 . S
C1682 N1679 1.350 . S
C1682 C1681 1.434 . S
C1683 C1684 1.369 . S
C1683 C1685 1.419 . S
C1683 H1687 0.930 . S
C1684 C1683 1.369 . S
C1684 C1693 1.429 . S
C1685 C1683 1.419 . S
C1685 C1686 1.363 . S
C1685 H1688 0.929 . S
C1686 C1685 1.363 . S
C1686 C1692 1.428 . S
H1687 C1683 0.930 . S
H1688 C1685 0.929 . S
S1689 N1690 1.613 . S
S1689 N1691 1.610 . S
N1690 S1689 1.613 . S
N1690 C1693 1.350 . S
N1691 S1689 1.610 . S
N1691 C1692 1.351 . S
C1692 C1686 1.428 . S
C1692 N1691 1.351 . S
C1692 C1693 1.434 . S
C1693 C1684 1.429 . S
C1693 N1690 1.350 . S
C1693 C1692 1.434 . S
C1694 C1695 1.369 . S
C1694 C1696 1.419 . S
C1694 H1698 0.930 . S
C1695 C1694 1.369 . S
C1695 C1704 1.429 . S
C1696 C1694 1.419 . S
C1696 C1697 1.363 . S
C1696 H1699 0.929 . S
C1697 C1696 1.363 . S
C1697 C1703 1.428 . S
H1698 C1694 0.930 . S
H1699 C1696 0.929 . S
S1700 N1701 1.613 . S
S1700 N1702 1.610 . S
N1701 S1700 1.613 . S
N1701 C1704 1.350 . S
N1702 S1700 1.610 . S
N1702 C1703 1.351 . S
C1703 C1697 1.428 . S
C1703 N1702 1.351 . S
C1703 C1704 1.434 . S
C1704 C1695 1.429 . S
C1704 N1701 1.350 . S
C1704 C1703 1.434 . S
C1705 C1706 1.369 . S
C1705 C1707 1.419 . S
C1705 H1709 0.930 . S
C1706 C1705 1.369 . S
C1706 C1715 1.429 . S
C1707 C1705 1.419 . S
C1707 C1708 1.363 . S
C1707 H1710 0.929 . S
C1708 C1707 1.363 . S
C1708 C1714 1.428 . S
H1709 C1705 0.930 . S
H1710 C1707 0.929 . S
S1711 N1712 1.613 . S
S1711 N1713 1.610 . S
N1712 S1711 1.613 . S
N1712 C1715 1.350 . S
N1713 S1711 1.610 . S
N1713 C1714 1.351 . S
C1714 C1708 1.428 . S
C1714 N1713 1.351 . S
C1714 C1715 1.434 . S
C1715 C1706 1.429 . S
C1715 N1712 1.350 . S
C1715 C1714 1.434 . S
C1716 C1717 1.369 . S
C1716 C1718 1.419 . S
C1716 H1720 0.930 . S
C1717 C1716 1.369 . S
C1717 C1726 1.429 . S
C1718 C1716 1.419 . S
C1718 C1719 1.363 . S
C1718 H1721 0.929 . S
C1719 C1718 1.363 . S
C1719 C1725 1.428 . S
H1720 C1716 0.930 . S
H1721 C1718 0.929 . S
S1722 N1723 1.613 . S
S1722 N1724 1.610 . S
N1723 S1722 1.613 . S
N1723 C1726 1.350 . S
N1724 S1722 1.610 . S
N1724 C1725 1.351 . S
C1725 C1719 1.428 . S
C1725 N1724 1.351 . S
C1725 C1726 1.434 . S
C1726 C1717 1.429 . S
C1726 N1723 1.350 . S
C1726 C1725 1.434 . S
C1727 C1728 1.369 . S
C1727 C1729 1.419 . S
C1727 H1731 0.930 . S
C1728 C1727 1.369 . S
C1728 C1737 1.429 . S
C1729 C1727 1.419 . S
C1729 C1730 1.363 . S
C1729 H1732 0.929 . S
C1730 C1729 1.363 . S
C1730 C1736 1.428 . S
H1731 C1727 0.930 . S
H1732 C1729 0.929 . S
S1733 N1734 1.613 . S
S1733 N1735 1.610 . S
N1734 S1733 1.613 . S
N1734 C1737 1.350 . S
N1735 S1733 1.610 . S
N1735 C1736 1.351 . S
C1736 C1730 1.428 . S
C1736 N1735 1.351 . S
C1736 C1737 1.434 . S
C1737 C1728 1.429 . S
C1737 N1734 1.350 . S
C1737 C1736 1.434 . S
C1738 C1739 1.369 . S
C1738 C1740 1.419 . S
C1738 H1742 0.930 . S
C1739 C1738 1.369 . S
C1739 C1748 1.429 . S
C1740 C1738 1.419 . S
C1740 C1741 1.363 . S
C1740 H1743 0.929 . S
C1741 C1740 1.363 . S
C1741 C1747 1.428 . S
H1742 C1738 0.930 . S
H1743 C1740 0.929 . S
S1744 N1745 1.613 . S
S1744 N1746 1.610 . S
N1745 S1744 1.613 . S
N1745 C1748 1.350 . S
N1746 S1744 1.610 . S
N1746 C1747 1.351 . S
C1747 C1741 1.428 . S
C1747 N1746 1.351 . S
C1747 C1748 1.434 . S
C1748 C1739 1.429 . S
C1748 N1745 1.350 . S
C1748 C1747 1.434 . S
C1749 C1750 1.369 . S
C1749 C1751 1.419 . S
C1749 H1753 0.930 . S
C1750 C1749 1.369 . S
C1750 C1759 1.429 . S
C1751 C1749 1.419 . S
C1751 C1752 1.363 . S
C1751 H1754 0.929 . S
C1752 C1751 1.363 . S
C1752 C1758 1.428 . S
H1753 C1749 0.930 . S
H1754 C1751 0.929 . S
S1755 N1756 1.613 . S
S1755 N1757 1.610 . S
N1756 S1755 1.613 . S
N1756 C1759 1.350 . S
N1757 S1755 1.610 . S
N1757 C1758 1.351 . S
C1758 C1752 1.428 . S
C1758 N1757 1.351 . S
C1758 C1759 1.434 . S
C1759 C1750 1.429 . S
C1759 N1756 1.350 . S
C1759 C1758 1.434 . S
C1760 C1761 1.369 . S
C1760 C1762 1.419 . S
C1760 H1764 0.930 . S
C1761 C1760 1.369 . S
C1761 C1770 1.429 . S
C1762 C1760 1.419 . S
C1762 C1763 1.363 . S
C1762 H1765 0.929 . S
C1763 C1762 1.363 . S
C1763 C1769 1.428 . S
H1764 C1760 0.930 . S
H1765 C1762 0.929 . S
S1766 N1767 1.613 . S
S1766 N1768 1.610 . S
N1767 S1766 1.613 . S
N1767 C1770 1.350 . S
N1768 S1766 1.610 . S
N1768 C1769 1.351 . S
C1769 C1763 1.428 . S
C1769 N1768 1.351 . S
C1769 C1770 1.434 . S
C1770 C1761 1.429 . S
C1770 N1767 1.350 . S
C1770 C1769 1.434 . S
C1771 C1772 1.369 . S
C1771 C1773 1.419 . S
C1771 H1775 0.930 . S
C1772 C1771 1.369 . S
C1772 C1781 1.429 . S
C1773 C1771 1.419 . S
C1773 C1774 1.363 . S
C1773 H1776 0.929 . S
C1774 C1773 1.363 . S
C1774 C1780 1.428 . S
H1775 C1771 0.930 . S
H1776 C1773 0.929 . S
S1777 N1778 1.613 . S
S1777 N1779 1.610 . S
N1778 S1777 1.613 . S
N1778 C1781 1.350 . S
N1779 S1777 1.610 . S
N1779 C1780 1.351 . S
C1780 C1774 1.428 . S
C1780 N1779 1.351 . S
C1780 C1781 1.434 . S
C1781 C1772 1.429 . S
C1781 N1778 1.350 . S
C1781 C1780 1.434 . S
C1782 C1783 1.369 . S
C1782 C1784 1.419 . S
C1782 H1786 0.930 . S
C1783 C1782 1.369 . S
C1783 C1792 1.429 . S
C1784 C1782 1.419 . S
C1784 C1785 1.363 . S
C1784 H1787 0.929 . S
C1785 C1784 1.363 . S
C1785 C1791 1.428 . S
H1786 C1782 0.930 . S
H1787 C1784 0.929 . S
S1788 N1789 1.613 . S
S1788 N1790 1.610 . S
N1789 S1788 1.613 . S
N1789 C1792 1.350 . S
N1790 S1788 1.610 . S
N1790 C1791 1.351 . S
C1791 C1785 1.428 . S
C1791 N1790 1.351 . S
C1791 C1792 1.434 . S
C1792 C1783 1.429 . S
C1792 N1789 1.350 . S
C1792 C1791 1.434 . S
C1793 C1794 1.369 . S
C1793 C1795 1.419 1_554 S
C1793 H1797 0.930 1_554 S
C1794 C1793 1.369 . S
C1794 C1803 1.429 . S
C1795 C1793 1.419 1_556 S
C1795 C1796 1.363 1_556 S
C1795 H1798 0.929 . S
C1796 C1795 1.363 1_554 S
C1796 C1802 1.428 . S
H1797 C1793 0.930 1_556 S
H1798 C1795 0.929 . S
S1799 N1800 1.613 . S
S1799 N1801 1.610 . S
N1800 S1799 1.613 . S
N1800 C1803 1.350 . S
N1801 S1799 1.610 . S
N1801 C1802 1.351 . S
C1802 C1796 1.428 . S
C1802 N1801 1.351 . S
C1802 C1803 1.434 . S
C1803 C1794 1.429 . S
C1803 N1800 1.350 . S
C1803 C1802 1.434 . S
C1804 C1805 1.369 . S
C1804 C1806 1.419 . S
C1804 H1808 0.930 . S
C1805 C1804 1.369 . S
C1805 C1814 1.429 . S
C1806 C1804 1.419 . S
C1806 C1807 1.363 . S
C1806 H1809 0.929 . S
C1807 C1806 1.363 . S
C1807 C1813 1.428 . S
H1808 C1804 0.930 . S
H1809 C1806 0.929 . S
S1810 N1811 1.613 . S
S1810 N1812 1.610 . S
N1811 S1810 1.613 . S
N1811 C1814 1.350 . S
N1812 S1810 1.610 . S
N1812 C1813 1.351 . S
C1813 C1807 1.428 . S
C1813 N1812 1.351 . S
C1813 C1814 1.434 . S
C1814 C1805 1.429 . S
C1814 N1811 1.350 . S
C1814 C1813 1.434 . S
C1815 C1816 1.365 1_554 S
C1815 C1817 1.419 . S
C1815 H1819 0.930 . S
C1816 C1815 1.365 1_556 S
C1816 C1825 1.429 1_556 S
C1817 C1815 1.419 . S
C1817 C1818 1.363 . S
C1817 H1820 0.929 . S
C1818 C1817 1.363 . S
C1818 C1824 1.428 . S
H1819 C1815 0.930 . S
H1820 C1817 0.929 . S
S1821 N1822 1.613 . S
S1821 N1823 1.610 1_556 S
N1822 S1821 1.613 . S
N1822 C1825 1.351 1_556 S
N1823 S1821 1.610 1_554 S
N1823 C1824 1.351 . S
C1824 C1818 1.428 . S
C1824 N1823 1.351 . S
C1824 C1825 1.433 . S
C1825 C1816 1.429 1_554 S
C1825 N1822 1.351 1_554 S
C1825 C1824 1.433 . S
C1826 C1827 1.369 . S
C1826 C1828 1.419 . S
C1826 H1830 0.930 . S
C1827 C1826 1.369 . S
C1827 C1836 1.429 . S
C1828 C1826 1.419 . S
C1828 C1829 1.363 . S
C1828 H1831 0.929 . S
C1829 C1828 1.363 . S
C1829 C1835 1.428 . S
H1830 C1826 0.930 . S
H1831 C1828 0.929 . S
S1832 N1833 1.613 . S
S1832 N1834 1.610 . S
N1833 S1832 1.613 . S
N1833 C1836 1.350 . S
N1834 S1832 1.610 . S
N1834 C1835 1.351 . S
C1835 C1829 1.428 . S
C1835 N1834 1.351 . S
C1835 C1836 1.434 . S
C1836 C1827 1.429 . S
C1836 N1833 1.350 . S
C1836 C1835 1.434 . S
C1837 C1838 1.369 . S
C1837 C1839 1.419 . S
C1837 H1841 0.930 . S
C1838 C1837 1.369 . S
C1838 C1847 1.429 . S
C1839 C1837 1.419 . S
C1839 C1840 1.363 . S
C1839 H1842 0.929 . S
C1840 C1839 1.363 . S
C1840 C1846 1.428 . S
H1841 C1837 0.930 . S
H1842 C1839 0.929 . S
S1843 N1844 1.613 . S
S1843 N1845 1.610 . S
N1844 S1843 1.613 . S
N1844 C1847 1.350 . S
N1845 S1843 1.610 . S
N1845 C1846 1.351 . S
C1846 C1840 1.428 . S
C1846 N1845 1.351 . S
C1846 C1847 1.434 . S
C1847 C1838 1.429 . S
C1847 N1844 1.350 . S
C1847 C1846 1.434 . S
C795 C313 1.993 . S
C793 C10 2.032 . S
C804 C23 1.272 . S
C806 C358 1.274 . S
C815 C36 1.929 . S
C817 C382 1.902 . S
C828 N408 1.327 . S
C826 C42 1.299 . S
C837 C18 1.396 . S
C839 N438 1.420 1_455 S
C850 C472 1.817 . S
C848 C31 1.846 . S
C861 C508 1.420 1_556 S
C859 C43 1.415 . S
C870 C5 2.017 . S
C872 C532 1.980 . S
C881 C56 1.177 1_565 S
C883 N326 1.181 . S
C892 C70 1.413 . S
C894 N348 1.440 . S
C905 C388 1.317 . S
C903 C82 1.310 . S
C916 C412 1.976 . S
C914 C96 2.007 . S
C925 C57 1.467 . S
C927 C442 1.435 . S
C938 C478 1.401 . S
C936 C69 1.395 . S
C949 N498 1.374 . S
C947 C83 1.349 . S
C960 C538 1.967 . S
C958 C95 1.989 . S
C971 C339 1.911 . S
C969 C94 1.946 . S
C982 C568 1.283 . S
C980 C108 1.269 . S
C991 C122 1.362 . S
C993 N588 1.380 . S
C1004 C622 1.800 . S
C1002 C140 1.828 . S
C1013 C55 1.156 . S
C1015 N528 1.157 . S
C1026 N378 1.348 1_565 S
C1024 C68 1.320 . S
C1035 C121 1.348 . S
C1037 C658 1.353 . S
C1048 C682 1.321 . S
C1046 C153 1.351 . S
C1057 C161 1.804 . S
C1059 C322 1.774 1_556 S
C1070 C699 1.017 . S
C1068 C174 1.032 . S
C1079 C186 1.673 . S
C1081 C373 1.629 . S
C1090 C200 1.169 . S
C1092 N656 1.210 . S
C1103 N446 1.272 . S
C1101 C172 1.219 1_455 S
C1114 C583 1.556 . S
C1112 C192 1.596 . S
C1125 C519 1.157 . S
C1123 C198 1.157 . S
C1136 C703 1.758 . S
C1134 C159 1.790 . S
C1147 N318 1.064 . S
C1145 C211 1.061 . S
C1156 C225 1.234 . S
C1158 N686 1.279 . S
C1169 C399 1.049 . S
C1167 C239 1.054 . S
C1178 C251 1.758 . S
C1180 C643 1.718 . S
C1189 C218 1.251 . S
C1191 C433 1.211 . S
C1200 C226 1.133 . S
C1202 C609 1.126 . S
C1213 N506 1.226 . S
C1211 C238 1.196 . S
C1222 C252 1.766 . S
C1224 C729 1.740 . S
C1233 C250 1.714 . S
C1235 C328 1.699 1_565 S
C1244 C264 1.023 . S
C1246 C579 1.013 . S
C1255 C276 1.203 . S
C1257 N476 1.241 . S
C1266 C290 1.588 . S
C1268 C613 1.550 . S
C1279 N716 1.029 . S
C1277 C213 1.022 1_565 S
C1290 N386 1.229 . S
C1288 C224 1.177 . S
C1301 C429 1.081 . S
C1299 C283 1.088 . S
C1312 C343 1.096 . S
C1310 C303 1.131 . S
C1321 C29 2.041 . S
C1323 C733 1.998 . S
C1334 C688 1.276 . S
C1332 C49 1.270 . S
C1345 C772 1.907 . S
C1343 C3 1.937 . S
C1354 C16 1.307 1_655 S
C1356 N648 1.323 . S
C1365 C44 1.403 . S
C1367 N558 1.417 1_556 S
C1378 C592 1.815 . S
C1376 C4 1.837 . S
C1389 C628 1.424 . S
C1387 C17 1.413 . S
C1400 C712 1.974 . S
C1398 C30 2.008 . S
C1411 N746 1.180 . S
C1409 C147 1.180 . S
C1420 C107 1.421 1_556 S
C1422 N678 1.439 . S
C1431 C127 1.311 . S
C1433 C778 1.319 1_655 S
C1444 C652 1.975 . S
C1442 C135 2.009 . S
C1455 C562 1.426 . S
C1453 C148 1.471 . S
C1464 C114 1.392 . S
C1466 C598 1.398 . S
C1477 N618 1.370 1_655 S
C1475 C120 1.354 . S
C1486 C134 1.988 . S
C1488 C718 1.963 . S
C1499 C759 1.915 . S
C1497 C133 1.944 . S
C1510 C448 1.285 1_565 S
C1508 C75 1.271 . S
C1521 N468 1.381 . S
C1519 C81 1.358 1_565 S
C1530 C101 1.828 . S
C1532 C502 1.802 . S
C1543 N708 1.156 . S
C1541 C146 1.155 . S
C1552 C109 1.327 . S
C1554 N768 1.344 . S
C1565 C418 1.348 . S
C1563 C88 1.347 . S
C1576 C352 1.320 . S
C1574 C62 1.348 . S
C1585 C187 1.809 . S
C1587 C742 1.769 . S
C1598 C369 1.009 . S
C1596 C199 1.019 . S
C1609 C763 1.629 1_556 S
C1607 C160 1.674 . S
C1618 C173 1.166 . S
C1620 N416 1.198 . S
C1629 C205 1.228 . S
C1631 N566 1.260 . S
C1640 C166 1.594 . S
C1642 C463 1.561 . S
C1651 C179 1.147 . S
C1653 C639 1.148 . S
C1662 C185 1.792 . S
C1664 C523 1.755 . S
C1675 N738 1.065 . S
C1673 C302 1.061 . S
C1684 C270 1.236 . S
C1686 N356 1.282 . S
C1697 C789 1.048 . S
C1695 C278 1.054 . S
C1706 C296 1.762 . S
C1708 C403 1.721 . S
C1717 C309 1.249 . S
C1719 C553 1.222 . S
C1730 C489 1.124 . S
C1728 C263 1.137 . S
C1739 C277 1.197 . S
C1741 N626 1.231 . S
C1752 C549 1.746 . S
C1750 C289 1.762 . S
C1763 C748 1.698 . S
C1761 C291 1.714 . S
C1774 C459 1.017 . S
C1772 C231 1.013 . S
C1783 C237 1.193 . S
C1785 N596 1.244 . S
C1796 C493 1.543 1_565 S
C1794 C257 1.588 . S
C1807 N536 1.028 . S
C1805 C304 1.022 . S
C1816 C265 1.185 . S
C1818 N776 1.226 . S
C1829 C669 1.076 . S
C1827 C244 1.085 . S
C1840 C673 1.098 . S
C1838 C212 1.121 . S
