# Generated by pormake.
# Topology zzz, (3,6)-cn, num edge types: 1
# Building blocks:
#     Node 0, Type 0, BuildingBlock: WUSLED_clean_sbu_0, # of connection points: 3
#     Node 1, Type 0, BuildingBlock: WUSLED_clean_sbu_0, # of connection points: 3
#     Node 2, Type 0, BuildingBlock: WUSLED_clean_sbu_0, # of connection points: 3
#     Node 3, Type 0, BuildingBlock: WUSLED_clean_sbu_0, # of connection points: 3
#     Node 4, Type 0, BuildingBlock: WUSLED_clean_sbu_0, # of connection points: 3
#     Node 5, Type 0, BuildingBlock: WUSLED_clean_sbu_0, # of connection points: 3
#     Node 6, Type 0, BuildingBlock: WUSLED_clean_sbu_0, # of connection points: 3
#     Node 7, Type 0, BuildingBlock: WUSLED_clean_sbu_0, # of connection points: 3
#     Node 8, Type 1, BuildingBlock: CUWYAW_clean_sbu_0, # of connection points: 6
#     Node 9, Type 1, BuildingBlock: CUWYAW_clean_sbu_0, # of connection points: 6
#     Node 10, Type 1, BuildingBlock: CUWYAW_clean_sbu_0, # of connection points: 6
#     Node 11, Type 1, BuildingBlock: CUWYAW_clean_sbu_0, # of connection points: 6
#     Edge 12, Type (0, 1), BuildingBlock: OJICUG_clean_linker_0, # of connection points: 2
#     Edge 13, Type (0, 1), BuildingBlock: OJICUG_clean_linker_0, # of connection points: 2
#     Edge 14, Type (0, 1), BuildingBlock: OJICUG_clean_linker_0, # of connection points: 2
#     Edge 15, Type (0, 1), BuildingBlock: OJICUG_clean_linker_0, # of connection points: 2
#     Edge 16, Type (0, 1), BuildingBlock: OJICUG_clean_linker_0, # of connection points: 2
#     Edge 17, Type (0, 1), BuildingBlock: OJICUG_clean_linker_0, # of connection points: 2
#     Edge 18, Type (0, 1), BuildingBlock: OJICUG_clean_linker_0, # of connection points: 2
#     Edge 19, Type (0, 1), BuildingBlock: OJICUG_clean_linker_0, # of connection points: 2
#     Edge 20, Type (0, 1), BuildingBlock: OJICUG_clean_linker_0, # of connection points: 2
#     Edge 21, Type (0, 1), BuildingBlock: OJICUG_clean_linker_0, # of connection points: 2
#     Edge 22, Type (0, 1), BuildingBlock: OJICUG_clean_linker_0, # of connection points: 2
#     Edge 23, Type (0, 1), BuildingBlock: OJICUG_clean_linker_0, # of connection points: 2
#     Edge 24, Type (0, 1), BuildingBlock: OJICUG_clean_linker_0, # of connection points: 2
#     Edge 25, Type (0, 1), BuildingBlock: OJICUG_clean_linker_0, # of connection points: 2
#     Edge 26, Type (0, 1), BuildingBlock: OJICUG_clean_linker_0, # of connection points: 2
#     Edge 27, Type (0, 1), BuildingBlock: OJICUG_clean_linker_0, # of connection points: 2
#     Edge 28, Type (0, 1), BuildingBlock: OJICUG_clean_linker_0, # of connection points: 2
#     Edge 29, Type (0, 1), BuildingBlock: OJICUG_clean_linker_0, # of connection points: 2
#     Edge 30, Type (0, 1), BuildingBlock: OJICUG_clean_linker_0, # of connection points: 2
#     Edge 31, Type (0, 1), BuildingBlock: OJICUG_clean_linker_0, # of connection points: 2
#     Edge 32, Type (0, 1), BuildingBlock: OJICUG_clean_linker_0, # of connection points: 2
#     Edge 33, Type (0, 1), BuildingBlock: OJICUG_clean_linker_0, # of connection points: 2
#     Edge 34, Type (0, 1), BuildingBlock: OJICUG_clean_linker_0, # of connection points: 2
#     Edge 35, Type (0, 1), BuildingBlock: OJICUG_clean_linker_0, # of connection points: 2
# Relax obj value: 0.441
# Max RMSD: 0.240
# Mean RMSD: 0.226
data_MOF--net-zzz--node1-WUSLED_clean_sbu_0--node2-CUWYAW_clean_sbu_0--edge1-OJICUG_clean_linker_0
_symmetry_space_group_name_H-M    P1
_symmetry_Int_Tables_number       1
_symmetry_cell_setting            triclinic
loop_
_symmetry_equiv_pos_as_xyz
'x, y, z'
_cell_length_a     49.108444
_cell_length_b     49.204758
_cell_length_c     15.981553
_cell_angle_alpha  89.733022
_cell_angle_beta   89.908381
_cell_angle_gamma 90.210024
loop_
_atom_site_label
_atom_site_type_symbol
_atom_site_fract_x
_atom_site_fract_y
_atom_site_fract_z
_atom_type_partial_charge
C0 C 0.80081 0.53083 0.5395 0.0
C1 C 0.80901 0.51021 0.59535 0.0
C2 C 0.85644 0.5262 0.59158 0.0
C3 C 0.83637 0.50788 0.62084 0.0
C4 C 0.84813 0.54678 0.53546 0.0
C5 C 0.82087 0.54905 0.50992 0.0
U6 U 0.74081 0.52597 0.38324 0.0
O7 O 0.70865 0.5558 0.35673 0.0
O8 O 0.69731 0.51454 0.39523 0.0
C9 C 0.68889 0.53785 0.36415 0.0
C10 C 0.77133 0.53424 0.51661 0.0
C11 C 0.66992 0.53633 0.29168 0.0
C12 C 0.62362 0.53538 0.2355 0.0
C13 C 0.64158 0.53526 0.30411 0.0
C14 C 0.66206 0.53716 0.1409 0.0
C15 C 0.63359 0.53676 0.15274 0.0
C16 C 0.67993 0.53688 0.20928 0.0
C17 C 0.79556 0.49772 0.24579 0.0
C18 C 0.83501 0.49413 0.15616 0.0
C19 C 0.83944 0.48585 0.30537 0.0
C20 C 0.81169 0.49104 0.3155 0.0
C21 C 0.8513 0.48784 0.22576 0.0
C22 C 0.80728 0.49897 0.16613 0.0
C23 C 0.76708 0.5055 0.25631 0.0
O24 O 0.76562 0.55324 0.46127 0.0
O25 O 0.75677 0.51201 0.50569 0.0
O26 O 0.75301 0.49053 0.30939 0.0
O27 O 0.76325 0.53172 0.26547 0.0
H28 H 0.79418 0.49592 0.62005 0.0
H29 H 0.84177 0.49154 0.66319 0.0
H30 H 0.86261 0.56167 0.51235 0.0
H31 H 0.81551 0.56544 0.46768 0.0
H32 H 0.60191 0.5351 0.24745 0.0
H33 H 0.6333 0.53474 0.36699 0.0
H34 H 0.67063 0.53759 0.07843 0.0
H35 H 0.70167 0.53743 0.1977 0.0
H36 H 0.84383 0.49552 0.09408 0.0
H37 H 0.85174 0.48114 0.35971 0.0
H38 H 0.80295 0.49038 0.37779 0.0
H39 H 0.79511 0.50428 0.11199 0.0
C40 C 1.01155 0.79939 0.53151 0.0
C41 C 0.0369 0.81058 0.55481 0.0
C42 C 1.01565 0.85433 0.5889 0.0
C43 C 0.03891 0.83766 0.5831 0.0
C44 C 0.99037 0.84288 0.56624 0.0
C45 C 0.98838 0.81595 0.5383 0.0
U46 U 1.02173 0.73908 0.37676 0.0
O47 O 0.99072 0.70963 0.33616 0.0
O48 O 0.02818 0.69482 0.39432 0.0
C49 C 1.00604 0.6884 0.35242 0.0
C50 C 1.00821 0.77042 0.50406 0.0
C51 C 1.00915 0.66864 0.28242 0.0
C52 C 1.01172 0.62174 0.23239 0.0
C53 C 1.01093 0.64057 0.29856 0.0
C54 C 1.00958 0.65876 0.13274 0.0
C55 C 1.0105 0.63055 0.14836 0.0
C56 C 1.009 0.67749 0.19863 0.0
C57 C 0.0632 0.78941 0.25113 0.0
C58 C 0.0843 0.82342 0.16258 0.0
C59 C 0.07008 0.83511 0.30333 0.0
C60 C 0.06098 0.80848 0.31571 0.0
C61 C 0.08142 0.84296 0.22604 0.0
C62 C 0.07525 0.79684 0.17515 0.0
C63 C 0.0517 0.76219 0.26099 0.0
O64 O 0.99253 0.76642 0.43862 0.0
O65 O 0.02974 0.75454 0.50435 0.0
O66 O 0.02499 0.76107 0.25729 0.0
O67 O 0.06197 0.7478 0.32269 0.0
H68 H 0.05523 0.79848 0.55109 0.0
H69 H 0.05878 0.84566 0.59922 0.0
H70 H 0.97186 0.85467 0.57112 0.0
H71 H 0.96847 0.80795 0.52242 0.0
H72 H 1.01244 0.60025 0.24717 0.0
H73 H 1.01116 0.63313 0.36247 0.0
H74 H 1.00925 0.66646 0.06917 0.0
H75 H 1.00797 0.69898 0.18389 0.0
H76 H 0.09239 0.82893 0.10171 0.0
H77 H 0.06767 0.84967 0.3534 0.0
H78 H 0.05162 0.80291 0.37477 0.0
H79 H 0.07692 0.7823 0.12468 0.0
C80 C 0.7535 0.02392 0.55162 0.0
C81 C 0.74431 0.04263 0.61154 0.0
C82 C 0.69738 0.02555 0.60077 0.0
C83 C 0.71673 0.04349 0.63564 0.0
C84 C 0.70671 1.00689 0.54035 0.0
C85 C 0.73424 1.00612 0.51611 0.0
U86 U 0.81087 0.02465 0.38706 0.0
O87 O 0.84793 0.99975 0.37375 0.0
O88 O 0.85154 0.0439 0.38455 0.0
C89 C 0.86413 1.02102 0.36753 0.0
C90 C 0.78308 1.02289 0.52841 0.0
C91 C 0.88227 1.02155 0.29283 0.0
C92 C 0.92683 1.01416 0.22803 0.0
C93 C 0.90999 1.0148 0.29951 0.0
C94 C 0.88859 0.0277 0.14258 0.0
C95 C 0.91627 1.02016 0.148 0.0
C96 C 0.87185 0.02824 0.21373 0.0
C97 C 0.75049 0.03365 0.24911 0.0
C98 C 0.70907 0.03059 0.16818 0.0
C99 C 0.70721 0.04567 0.31242 0.0
C100 C 0.73535 0.04245 0.3185 0.0
C101 C 0.69384 0.03991 0.23699 0.0
C102 C 0.73722 0.02749 0.17427 0.0
C103 C 0.78002 0.03052 0.25545 0.0
O104 O 0.79142 1.00109 0.48859 0.0
O105 O 0.7939 0.04539 0.49815 0.0
O106 O 0.79268 0.05096 0.29128 0.0
O107 O 0.78804 1.00663 0.28268 0.0
H108 H 0.75855 0.05667 0.64005 0.0
H109 H 0.71059 0.05851 0.68114 0.0
H110 H 0.69284 0.9924 0.51246 0.0
H111 H 0.74042 0.99142 0.46963 0.0
H112 H 0.9479 1.00824 0.23535 0.0
H113 H 0.91857 1.00965 0.35992 0.0
H114 H 0.87969 0.03324 0.08301 0.0
H115 H 0.85061 0.0337 0.20684 0.0
H116 H 0.69931 0.02643 0.10884 0.0
H117 H 0.69593 0.05274 0.36638 0.0
H118 H 0.74536 0.04711 0.37707 0.0
H119 H 0.74864 1.02057 0.1204 0.0
C120 C 0.53798 0.74776 0.53134 0.0
C121 C 0.51681 0.74035 0.58676 0.0
C122 C 0.53201 0.69284 0.58906 0.0
C123 C 0.51386 0.7133 0.61512 0.0
C124 C 0.55318 0.70041 0.53392 0.0
C125 C 0.55614 0.72732 0.50581 0.0
U126 U 0.528 0.80902 0.37994 0.0
O127 O 0.55956 0.83709 0.3336 0.0
O128 O 0.52374 0.85352 0.39717 0.0
C129 C 0.54548 0.85896 0.3517 0.0
C130 C 0.5425 0.77676 0.50458 0.0
C131 C 0.54224 0.87885 0.28171 0.0
C132 C 0.54135 0.92583 0.23072 0.0
C133 C 0.54208 0.90697 0.29727 0.0
C134 C 0.54034 0.88878 0.13197 0.0
C135 C 0.54105 0.91698 0.14695 0.0
C136 C 0.54081 0.87001 0.19827 0.0
C137 C 0.483 0.75996 0.26442 0.0
C138 C 0.46106 0.72563 0.18014 0.0
C139 C 0.4775 0.71419 0.31895 0.0
C140 C 0.4863 0.74097 0.32933 0.0
C141 C 0.46537 0.7061 0.24337 0.0
C142 C 0.46984 0.75237 0.19066 0.0
C143 C 0.49515 0.787 0.27067 0.0
O144 O 0.55717 0.78055 0.4366 0.0
O145 O 0.52182 0.79366 0.50922 0.0
O146 O 0.52174 0.7875 0.26151 0.0
O147 O 0.48651 0.8017 0.33374 0.0
H148 H 0.5026 0.75549 0.60882 0.0
H149 H 0.49717 0.70841 0.65698 0.0
H150 H 0.56799 0.68559 0.51349 0.0
H151 H 0.57304 0.73214 0.46466 0.0
H152 H 0.54191 0.94733 0.24483 0.0
H153 H 0.54311 0.91437 0.36093 0.0
H154 H 0.53951 0.88113 0.06859 0.0
H155 H 0.54059 0.84851 0.18405 0.0
H156 H 0.45229 0.71997 0.12055 0.0
H157 H 0.48096 0.69965 0.36888 0.0
H158 H 0.4965 0.74664 0.38675 0.0
H159 H 0.46733 0.76684 0.13994 0.0
C160 C 0.25231 0.51589 0.9551 0.0
C161 C 0.23115 0.51836 1.01388 0.0
C162 C 0.19687 0.52036 0.90207 0.0
C163 C 0.20389 0.52074 0.98784 0.0
C164 C 0.21829 0.51819 0.8435 0.0
C165 C 0.24556 0.51604 0.8697 0.0
U166 U 0.31036 0.52152 0.11718 0.0
O167 O 0.35417 0.53201 0.10722 0.0
O168 O 0.34174 0.49144 0.14942 0.0
C169 C 0.36195 0.50884 0.14076 0.0
C170 C 0.2812 0.51203 0.98149 0.0
C171 C 0.38109 0.51051 0.21292 0.0
C172 C 0.42763 0.51181 0.26728 0.0
C173 C 0.40936 0.51199 0.19946 0.0
C174 C 0.38966 0.50915 0.36342 0.0
C175 C 0.41808 0.50996 0.35043 0.0
C176 C 0.37145 0.50948 0.29575 0.0
C177 C 0.25485 0.55211 0.24867 0.0
C178 C 0.21297 0.54921 0.32805 0.0
C179 C 0.21285 0.57002 0.19017 0.0
C180 C 0.24079 0.56516 0.18327 0.0
C181 C 0.19868 0.56161 0.26207 0.0
C182 C 0.24082 0.54454 0.3214 0.0
C183 C 0.2834 0.54397 0.23955 0.0
O184 O 0.29594 0.53415 0.9917 0.0
O185 O 0.28535 0.4939 0.04075 0.0
O186 O 0.28708 0.5176 0.23405 0.0
O187 O 0.29805 0.55809 0.18571 0.0
H188 H 0.23567 0.51811 0.08015 0.0
H189 H 0.18832 0.52287 0.03536 0.0
H190 H 0.21403 0.51741 0.77714 0.0
H191 H 0.26141 0.51399 0.82294 0.0
H192 H 0.44928 0.51238 0.25436 0.0
H193 H 0.41736 0.51283 0.13628 0.0
H194 H 0.38138 0.50834 0.42621 0.0
H195 H 0.34978 0.50858 0.30822 0.0
H196 H 0.20254 0.54304 0.38489 0.0
H197 H 0.20222 0.57962 0.13865 0.0
H198 H 0.25118 0.57089 0.12596 0.0
H199 H 0.25131 0.53443 0.37232 0.0
C200 C 0.03239 0.25079 0.94192 0.0
C201 C 0.03673 0.2292 0.99818 0.0
C202 C 0.02776 0.19548 0.88846 0.0
C203 C 0.03414 0.20204 0.97225 0.0
C204 C 1.02352 0.21731 0.83229 0.0
C205 C 0.02568 0.24449 0.85879 0.0
U206 U 0.02872 0.30654 0.1098 0.0
O207 O 1.01447 0.34919 0.10768 0.0
O208 O 0.05705 0.34017 0.13665 0.0
C209 C 0.03794 0.35881 0.1342 0.0
C210 C 0.03534 0.27975 0.96841 0.0
C211 C 0.03699 0.3777 0.20682 0.0
C212 C 0.03435 0.42402 0.26131 0.0
C213 C 0.03368 0.40578 0.19375 0.0
C214 C 0.04114 0.38639 0.35665 0.0
C215 C 0.03846 0.41467 0.34391 0.0
C216 C 0.0404 0.36819 0.28917 0.0
C217 C 1.00686 0.24646 0.23621 0.0
C218 C 1.01309 0.20287 0.30398 0.0
C219 C 0.99331 0.20496 0.16524 0.0
C220 C 0.99548 0.23325 0.16664 0.0
C221 C 1.00245 0.18943 0.23347 0.0
C222 C 1.01537 0.23111 0.30511 0.0
C223 C 1.01257 0.27574 0.23377 0.0
O224 O 1.01276 0.2926 0.98771 0.0
O225 O 0.05526 0.28503 1.02084 0.0
O226 O 0.0383 0.2819 0.22093 0.0
O227 O 0.99568 0.29041 0.18869 0.0
H228 H 0.04219 0.23333 0.0625 0.0
H229 H 0.03702 0.18622 1.01861 0.0
H230 H 1.01907 0.21354 0.76708 0.0
H231 H 1.02243 0.26068 0.81376 0.0
H232 H 0.03232 0.44554 0.24839 0.0
H233 H 0.03099 0.41369 0.13092 0.0
H234 H 0.04372 0.37819 0.4191 0.0
H235 H 0.04278 0.34665 0.30133 0.0
H236 H 1.01958 0.19156 0.35867 0.0
H237 H 0.98509 0.19524 0.11006 0.0
H238 H 0.98907 0.24472 0.11213 0.0
H239 H 1.02427 0.24095 0.35915 0.0
C240 C 0.29961 0.03555 0.95084 0.0
C241 C 0.32049 0.03195 1.00987 0.0
C242 C 0.3551 0.02985 0.89855 0.0
C243 C 0.34777 0.02897 0.98417 0.0
C244 C 0.33393 0.03312 0.83976 0.0
C245 C 0.30666 0.03587 0.86557 0.0
U246 U 0.23927 0.03016 0.10767 0.0
O247 O 0.19522 1.02236 0.0911 0.0
O248 O 0.2091 0.06156 0.1397 0.0
C249 C 0.18817 0.0454 0.12663 0.0
C250 C 0.27072 0.04025 0.97653 0.0
C251 C 0.16734 0.04434 0.1952 0.0
C252 C 0.13796 0.06861 0.29335 0.0
C253 C 0.15699 0.06873 0.22768 0.0
C254 C 0.13833 1.01952 0.29467 0.0
C255 C 0.12849 0.04403 0.32868 0.0
C256 C 0.15751 1.01966 0.22898 0.0
C257 C 0.29095 0.99551 0.24517 0.0
C258 C 0.33071 0.99553 0.3341 0.0
C259 C 0.33431 0.97957 0.19112 0.0
C260 C 0.30658 0.98464 0.1796 0.0
C261 C 0.34665 0.98564 0.2679 0.0
C262 C 0.30307 1.00038 0.32282 0.0
C263 C 0.26301 1.00483 0.23154 0.0
O264 O 0.25483 1.01874 0.98251 0.0
O265 O 0.26687 0.05752 0.03792 0.0
O266 O 0.249 0.99209 0.17353 0.0
O267 O 0.26056 0.03139 0.22815 0.0
H268 H 0.31578 0.03181 0.07605 0.0
H269 H 0.36311 0.02599 0.03188 0.0
H270 H 0.33842 0.03433 0.77352 0.0
H271 H 0.29104 0.0388 0.8186 0.0
H272 H 0.1306 0.0879 0.31633 0.0
H273 H 0.1638 0.08808 0.20249 0.0
H274 H 0.13177 1.00016 0.32026 0.0
H275 H 0.16485 1.00043 0.20545 0.0
H276 H 0.33979 0.99993 0.39432 0.0
H277 H 0.34629 0.97195 0.13936 0.0
H278 H 0.29763 0.98103 0.11871 0.0
H279 H 0.29134 1.00884 0.37389 0.0
C280 C 0.52156 0.29593 0.93999 0.0
C281 C 0.50435 0.31534 0.97685 0.0
C282 C 0.52398 0.35189 0.89039 0.0
C283 C 0.50548 0.34278 0.9523 0.0
C284 C 0.54137 0.3324 0.85425 0.0
C285 C 0.54011 0.30488 0.87856 0.0
U286 U 0.52184 0.23822 0.10358 0.0
O287 O 0.53944 0.19694 0.10413 0.0
O288 O 0.4954 0.2022 0.11718 0.0
C289 C 0.51599 0.18524 0.12195 0.0
C290 C 0.51986 0.26642 0.96297 0.0
C291 C 0.51584 0.16671 0.19576 0.0
C292 C 0.51716 0.12084 0.255 0.0
C293 C 0.51813 0.13847 0.18543 0.0
C294 C 0.51197 0.15949 0.34647 0.0
C295 C 0.51378 0.13106 0.33671 0.0
C296 C 0.513 0.17704 0.27705 0.0
C297 C 0.53436 0.29734 0.2441 0.0
C298 C 0.53318 0.33793 0.32854 0.0
C299 C 0.54726 0.34083 0.18313 0.0
C300 C 0.54315 0.31289 0.17512 0.0
C301 C 0.54231 0.35356 0.25999 0.0
C302 C 0.52925 0.30999 0.32059 0.0
C303 C 0.53001 0.26807 0.23583 0.0
O304 O 0.5423 0.25502 0.9909 0.0
O305 O 0.4981 0.25856 1.00482 0.0
O306 O 0.50555 0.26106 0.2104 0.0
O307 O 0.54968 0.25511 0.19722 0.0
H308 H 0.48978 0.30934 1.02447 0.0
H309 H 0.49136 0.35675 0.98114 0.0
H310 H 0.55624 0.33837 0.80755 0.0
H311 H 0.55367 0.29049 0.84895 0.0
H312 H 0.51852 0.09917 0.24444 0.0
H313 H 0.52043 0.12998 0.12338 0.0
H314 H 0.50998 0.16832 0.4081 0.0
H315 H 0.51144 0.19876 0.28686 0.0
H316 H 0.52963 0.34724 0.38886 0.0
H317 H 0.5542 0.35247 0.12942 0.0
H318 H 0.54698 0.30337 0.11528 0.0
H319 H 0.52238 0.29824 0.37418 0.0
C320 C 0.96682 0.04075 0.55255 0.0
Eu321 Eu 0.99869 0.03002 0.67869 0.0
C322 C 0.96982 0.04901 0.46508 0.0
C323 C 0.94923 0.06461 0.42878 0.0
C324 C 0.95472 0.08012 0.35758 0.0
C325 C 0.981 0.08024 0.32195 0.0
C326 C 1.00015 0.0612 0.35127 0.0
C327 C 0.99475 0.04599 0.42344 0.0
C328 C 0.9771 1.01954 0.83368 0.0
C329 C 1.02258 0.08132 0.78084 0.0
C330 C 0.08382 1.00895 0.89206 0.0
Eu331 Eu 0.04611 1.02172 0.78415 0.0
C332 C 0.0856 0.98918 0.96021 0.0
C333 C 0.11064 0.98382 0.99865 0.0
C334 C 0.11244 0.96362 0.06016 0.0
C335 C 0.08916 0.94869 0.08379 0.0
C336 C 0.06395 0.95501 0.04706 0.0
C337 C 0.0622 0.97506 0.98568 0.0
C338 C 0.05958 0.04122 0.62771 0.0
C339 C 1.02006 0.96868 0.69372 0.0
O340 O 0.97459 1.0162 0.57235 0.0
O341 O 0.97487 0.05891 0.60669 0.0
O342 O 0.96337 1.0229 0.76599 0.0
O343 O 1.00235 1.02026 0.81771 0.0
O344 O 1.01162 0.07377 0.70901 0.0
O345 O 0.03361 0.06296 0.82997 0.0
O346 O 0.06614 0.02829 0.90354 0.0
O347 O 0.08257 0.99878 0.8168 0.0
O348 O 0.06984 0.0498 0.69715 0.0
O349 O 0.04218 1.02305 0.64426 0.0
O350 O 0.03462 0.97727 0.75816 0.0
O351 O 1.00631 0.98612 0.64779 0.0
H352 H 0.92977 0.0669 0.46 0.0
H353 H 0.93926 0.09429 0.33718 0.0
H354 H 1.02026 0.06002 0.32364 0.0
H355 H 1.01077 0.0337 0.45043 0.0
H356 H 0.12883 0.99478 0.97978 0.0
H357 H 0.13208 0.95922 0.08774 0.0
H358 H 0.04575 0.94354 0.06263 0.0
H359 H 0.04271 0.97905 0.95641 0.0
C360 C 0.50881 0.96555 0.59061 0.0
Eu361 Eu 0.52246 1.00336 0.69724 0.0
C362 C 0.49321 0.96493 0.51259 0.0
C363 C 0.47486 0.94358 0.49904 0.0
C364 C 0.45575 0.94539 0.43481 0.0
C365 C 0.45482 0.96861 0.38323 0.0
C366 C 0.47509 0.98866 0.3918 0.0
C367 C 0.49399 0.98698 0.45661 0.0
C368 C 0.54078 0.98799 0.85327 0.0
C369 C 0.47005 0.02607 0.79385 0.0
C370 C 0.54299 0.08535 0.90631 0.0
Eu371 Eu 0.52935 0.0486 0.79658 0.0
C372 C 0.55454 0.08299 0.9904 0.0
C373 C 0.57404 0.10192 1.01641 0.0
C374 C 0.59097 0.0959 0.08395 0.0
C375 C 0.58859 0.07079 0.126 0.0
C376 C 0.5668 0.05342 0.10595 0.0
C377 C 0.55004 0.05935 0.03802 0.0
C378 C 0.51197 0.06385 0.63915 0.0
C379 C 0.58209 0.02593 0.70121 0.0
O380 O 0.53193 0.97855 0.58848 0.0
O381 O 0.49477 0.97111 0.65762 0.0
O382 O 0.54938 0.97846 0.78306 0.0
O383 O 0.52288 1.00571 0.83875 0.0
O384 O 0.47824 1.01703 0.72018 0.0
O385 O 0.48856 0.03515 0.84592 0.0
O386 O 0.51821 0.07637 0.89695 0.0
O387 O 0.55905 0.07727 0.84646 0.0
O388 O 0.50345 0.07406 0.70853 0.0
O389 O 0.52953 0.04603 0.65546 0.0
O390 O 0.57365 0.03556 0.77376 0.0
O391 O 0.56391 1.01585 0.6497 0.0
H392 H 0.47407 0.9264 0.54166 0.0
H393 H 0.44031 0.92969 0.43048 0.0
H394 H 0.47515 1.00657 0.35211 0.0
H395 H 0.5081 1.00369 0.46583 0.0
H396 H 0.57776 0.12024 0.98018 0.0
H397 H 0.60761 0.10971 0.09737 0.0
H398 H 0.56418 0.03415 0.13815 0.0
H399 H 0.53502 0.04446 1.01884 0.0
C400 C 0.58585 0.50696 0.586 0.0
Eu401 Eu 0.54934 0.52009 0.69755 0.0
C402 C 0.58367 0.49452 0.50325 0.0
C403 C 0.60298 0.47526 0.47896 0.0
C404 C 0.59736 0.45769 0.41289 0.0
C405 C 0.57229 0.45921 0.37054 0.0
C406 C 0.5545 0.48071 0.3888 0.0
C407 C 0.56002 0.49809 0.45533 0.0
C408 C 0.56527 0.53758 0.85367 0.0
C409 C 0.52532 0.46702 0.79088 0.0
C410 C 0.46705 0.54037 0.91116 0.0
Eu411 Eu 0.5041 0.52716 0.80104 0.0
C412 C 0.46518 0.56022 0.97848 0.0
C413 C 0.4404 0.56436 1.01994 0.0
C414 C 0.43833 0.5845 0.08098 0.0
C415 C 0.46109 0.60059 0.10117 0.0
C416 C 0.48612 0.59555 0.06132 0.0
C417 C 0.48813 0.57554 1.00038 0.0
C418 C 0.48831 0.50892 0.64572 0.0
C419 C 0.52645 0.57913 0.70101 0.0
O420 O 0.57595 0.53135 0.59347 0.0
O421 O 0.57866 0.49115 0.64795 0.0
O422 O 0.5753 0.54605 0.78361 0.0
O423 O 0.54719 0.52006 0.83865 0.0
O424 O 0.53602 0.4758 0.71973 0.0
O425 O 0.51444 0.48466 0.84225 0.0
O426 O 0.48494 0.52126 0.92263 0.0
O427 O 0.46798 0.55035 0.83546 0.0
O428 O 0.47872 0.50022 0.71626 0.0
O429 O 0.50621 0.52677 0.65989 0.0
O430 O 0.51792 0.57123 0.77585 0.0
O431 O 0.5352 0.56055 0.64888 0.0
H432 H 0.62132 0.47227 0.51544 0.0
H433 H 0.61146 0.44129 0.40081 0.0
H434 H 0.53526 0.48266 0.35629 0.0
H435 H 0.54482 0.5129 0.47315 0.0
H436 H 0.42258 0.55245 1.00389 0.0
H437 H 0.41885 0.5879 0.111 0.0
H438 H 0.50389 0.60793 0.07429 0.0
H439 H 0.50743 0.57248 0.9688 0.0
C440 C 0.04333 0.58437 0.59661 0.0
Eu441 Eu 0.02986 0.54508 0.69972 0.0
C442 C 0.05636 0.58599 0.51426 0.0
C443 C 0.07528 0.60674 0.49887 0.0
C444 C 0.09282 0.6051 0.43044 0.0
C445 C 0.09161 0.58263 0.37638 0.0
C446 C 0.07042 0.56357 0.38668 0.0
C447 C 0.05311 0.56504 0.45581 0.0
C448 C 1.01112 0.55945 0.85627 0.0
C449 C 0.08227 0.52229 0.79561 0.0
C450 C 1.00918 0.46081 0.89947 0.0
Eu451 Eu 1.02303 0.49953 0.79498 0.0
C452 C 0.99578 0.46063 0.98129 0.0
C453 C 0.97759 0.43961 1.0011 0.0
C454 C 0.95934 0.44259 0.06739 0.0
C455 C 0.95911 0.46671 0.11432 0.0
C456 C 0.97958 0.48626 0.10032 0.0
C457 C 0.99763 0.48339 0.03359 0.0
C458 C 0.04127 0.48517 0.63776 0.0
C459 C 0.97086 0.52207 0.69814 0.0
O460 O 1.01919 0.5734 0.59965 0.0
O461 O 0.05894 0.57575 0.6569 0.0
O462 O 1.00246 0.5691 0.78618 0.0
O463 O 0.02913 0.54191 0.84142 0.0
O464 O 0.0742 0.53212 0.72273 0.0
O465 O 0.06374 0.51222 0.84626 0.0
O466 O 0.03339 0.47159 0.89634 0.0
O467 O 0.99392 0.46886 0.8376 0.0
O468 O 0.05005 0.47532 0.70747 0.0
O469 O 1.02344 0.50278 0.65359 0.0
O470 O 0.97879 0.51284 0.7719 0.0
O471 O 0.98956 0.53163 0.64711 0.0
H472 H 0.07795 0.62309 0.54337 0.0
H473 H 0.10894 0.62008 0.42497 0.0
H474 H 0.06863 0.54632 0.34515 0.0
H475 H 0.03848 0.54884 0.46645 0.0
H476 H 0.97598 0.42192 0.96125 0.0
H477 H 0.94375 0.42721 0.07622 0.0
H478 H 0.98012 0.50485 0.13636 0.0
H479 H 1.01162 0.49986 1.01927 0.0
C480 C 0.11244 0.06346 0.46665 0.0
C481 C 0.10934 0.04412 0.40254 0.0
H482 H 0.09919 0.07779 0.58652 0.0
C483 C 0.08828 0.0247 0.41115 0.0
H484 H 0.1285 0.07856 0.46335 0.0
C485 C 0.07132 0.02432 0.48239 0.0
C486 C 0.07507 0.04324 0.54725 0.0
H487 H 0.08495 1.00967 0.36292 0.0
H488 H 0.05579 1.00873 0.48772 0.0
C489 C 0.09564 0.06298 0.53778 0.0
C490 C 0.49456 0.11851 0.47893 0.0
C491 C 0.51204 0.11243 0.41158 0.0
H492 H 0.4806 0.10793 0.60211 0.0
C493 C 0.52816 0.08882 0.41776 0.0
H494 H 0.48133 0.13604 0.47619 0.0
C495 C 0.5275 0.07244 0.49024 0.0
C496 C 0.51072 0.07923 0.55847 0.0
H497 H 0.54198 0.08341 0.36772 0.0
H498 H 0.5407 0.05488 0.49373 0.0
C499 C 0.49394 0.1022 0.55114 0.0
C500 C 0.46149 0.5242 0.4259 0.0
C501 C 0.4374 0.5085 0.42346 0.0
H502 H 0.49646 0.53668 0.49737 0.0
C503 C 0.43157 0.49158 0.49265 0.0
H504 H 0.46673 0.53755 0.37424 0.0
C505 C 0.44864 0.49106 0.56296 0.0
C506 C 0.47212 0.50746 0.56669 0.0
H507 H 0.41364 0.4787 0.49277 0.0
H508 H 0.44308 0.47814 0.61536 0.0
C509 C 0.47858 0.52374 0.49665 0.0
C510 C 0.05842 0.42914 0.483 0.0
C511 C 0.04028 0.4341 0.41645 0.0
H512 H 0.07322 0.44138 0.60329 0.0
C513 C 1.02378 0.45749 0.42097 0.0
H514 H 0.07197 0.41184 0.48146 0.0
C515 C 1.02473 0.47472 0.49113 0.0
C516 C 0.04222 0.46906 0.55867 0.0
H517 H 1.00945 0.46207 0.37149 0.0
H518 H 1.0112 0.49203 0.4935 0.0
C519 C 0.05936 0.4463 0.55284 0.0
C520 C 0.92143 1.00897 0.99481 0.0
C521 C 0.93339 1.01791 0.06984 0.0
H522 H 0.92583 1.00235 0.86341 0.0
C523 C 0.96133 0.02505 0.06794 0.0
H524 H 0.90038 1.00239 0.99334 0.0
C525 C 0.97633 0.02435 0.99239 0.0
C526 C 0.96366 1.0167 0.91713 0.0
H527 H 0.97138 0.0321 0.12409 0.0
H528 H 0.99742 0.03089 0.99225 0.0
C529 C 0.9362 1.00861 0.91995 0.0
C530 C 0.55876 0.93116 1.00503 0.0
C531 C 0.54225 0.93671 0.07493 0.0
H532 H 0.57161 0.94309 0.88211 0.0
C533 C 0.52665 0.96073 0.07385 0.0
H534 H 0.57151 0.91325 1.00405 0.0
C535 C 0.52671 0.978 1.0032 0.0
C536 C 0.54257 0.97179 0.93235 0.0
H537 H 0.51369 0.96571 0.12642 0.0
H538 H 0.5138 0.99579 1.00319 0.0
C539 C 0.55898 0.94844 0.93511 0.0
C540 C 0.62109 0.55489 1.0096 0.0
C541 C 0.6147 0.53819 0.07878 0.0
H542 H 0.61046 0.56808 0.88591 0.0
C543 C 0.59055 0.5226 0.07531 0.0
H544 H 0.63908 0.56768 1.01027 0.0
C545 C 0.57394 0.52298 1.00352 0.0
C546 C 0.58098 0.53902 0.93352 0.0
H547 H 0.58492 0.50943 0.12701 0.0
H548 H 0.55595 0.51017 1.00202 0.0
C549 C 0.6045 0.55532 0.93826 0.0
C550 C 0.99236 0.61574 1.00789 0.0
C551 C 1.00946 0.61074 0.07687 0.0
H552 H 0.97915 0.60342 0.88613 0.0
C553 C 0.02574 0.58716 0.07534 0.0
H554 H 0.97903 0.63322 1.00721 0.0
C555 C 0.02573 0.56983 1.00524 0.0
C556 C 1.0093 0.57557 0.9352 0.0
H557 H 0.03919 0.58257 0.12711 0.0
H558 H 0.03911 0.55238 1.00495 0.0
C559 C 0.99225 0.59845 0.93843 0.0
C560 C 0.97621 0.14656 0.20516 0.0
C561 C 1.00003 0.1594 0.23375 0.0
H562 H 0.95203 0.11031 0.20607 0.0
C563 C 1.02034 0.14358 0.27153 0.0
H564 H 0.96033 0.15809 0.17447 0.0
C565 C 1.01537 0.11644 0.29132 0.0
C566 C 0.99002 0.10442 0.27287 0.0
H567 H 0.03937 0.15268 0.29135 0.0
H568 H 0.03046 0.10594 0.32855 0.0
C569 C 0.97138 0.11918 0.2238 0.0
C570 C 0.39115 1.00408 0.31405 0.0
C571 C 0.37619 0.98253 0.2799 0.0
H572 H 0.42789 1.01659 0.37286 0.0
C573 C 0.38897 0.9575 0.26597 0.0
H574 H 0.38175 1.02369 0.32416 0.0
C575 C 0.41569 0.95339 0.29325 0.0
C576 C 0.4299 0.97433 0.33425 0.0
H577 H 0.37775 0.94067 0.23916 0.0
H578 H 0.42468 0.93345 0.28647 0.0
C579 C 0.41774 1.00006 0.34089 0.0
C580 C 0.57301 0.39404 0.247 0.0
C581 C 0.54781 0.38283 0.271 0.0
H582 H 0.60049 0.42776 0.25822 0.0
C583 C 0.52908 0.39895 0.31431 0.0
H584 H 0.58778 0.38197 0.21332 0.0
C585 C 0.53629 0.42498 0.33995 0.0
C586 C 0.56245 0.43538 0.32291 0.0
H587 H 0.50937 0.39086 0.33239 0.0
H588 H 0.52209 0.43598 0.37899 0.0
C589 C 0.58031 0.42015 0.27295 0.0
C590 C 0.15774 0.59169 0.25896 0.0
C591 C 0.16909 0.5658 0.27031 0.0
H592 H 0.12338 0.61736 0.28156 0.0
C593 C 0.15263 0.5445 0.29992 0.0
H594 H 0.17005 0.60839 0.23552 0.0
C595 C 0.12616 0.54956 0.32647 0.0
C596 C 0.11562 0.57609 0.32391 0.0
H597 H 0.16086 0.52424 0.30769 0.0
H598 H 0.11501 0.53308 0.35596 0.0
C599 C 0.13112 0.59682 0.28561 0.0
C600 C 0.10974 0.87903 0.15677 0.0
C601 C 0.08737 0.87187 0.2073 0.0
H602 H 0.12791 0.90925 0.07801 0.0
C603 C 0.06856 0.89202 0.22979 0.0
H604 H 0.12485 0.86403 0.13983 0.0
C605 C 0.07056 0.91806 0.1955 0.0
C606 C 0.0913 0.92433 0.13787 0.0
H607 H 0.05109 0.88718 0.26862 0.0
H608 H 0.05486 0.93275 0.20974 0.0
C609 C 0.11167 0.90504 0.1222 0.0
C610 C 0.65354 0.07045 0.25145 0.0
C611 C 0.66446 0.04533 0.22716 0.0
H612 H 0.62016 0.09814 0.24019 0.0
C613 C 0.64796 0.0268 0.18403 0.0
H614 H 0.66585 0.08508 0.28504 0.0
C615 C 0.62197 0.03427 0.15822 0.0
C616 C 0.61199 0.06045 0.175 0.0
H617 H 0.65578 1.00713 0.16586 0.0
H618 H 0.61075 1.02028 0.11896 0.0
C619 C 0.62747 0.07797 0.22548 0.0
C620 C 0.43797 0.66895 0.17721 0.0
C621 C 0.4605 0.67699 0.22531 0.0
H622 H 0.42044 0.63815 0.10011 0.0
C623 C 0.48053 0.6577 0.24528 0.0
H624 H 0.42197 0.68325 0.16218 0.0
C625 C 0.47946 0.63175 0.21073 0.0
C626 C 0.45842 0.6247 0.15544 0.0
H627 H 0.49818 0.66323 0.28211 0.0
H628 H 0.49603 0.61781 0.22293 0.0
C629 C 0.43694 0.64301 0.14244 0.0
C630 C 0.89574 0.50443 0.17272 0.0
C631 C 0.88075 0.48416 0.21404 0.0
H632 H 0.93255 0.51485 0.10991 0.0
C633 C 0.89335 0.45956 0.23555 0.0
H634 H 0.88638 0.52363 0.15631 0.0
C635 C 0.92002 0.45443 0.20922 0.0
C636 C 0.93434 0.47399 0.1619 0.0
H637 H 0.88203 0.44372 0.26775 0.0
H638 H 0.92887 0.4347 0.22178 0.0
C639 C 0.92231 0.49945 0.14715 0.0
C640 C 1.00894 0.158 0.79362 0.0
C641 C 0.02617 0.16618 0.85984 0.0
H642 H 0.99432 0.12529 0.71638 0.0
C643 C 0.04217 0.14593 0.89832 0.0
H644 H 0.9959 0.17258 0.76265 0.0
C645 C 0.04079 0.11872 0.87268 0.0
C646 C 1.02367 0.11061 0.80664 0.0
H647 H 0.05626 0.15103 0.94785 0.0
H648 H 0.05352 0.10401 0.90442 0.0
C649 C 1.00785 0.1307 0.76712 0.0
C650 C 0.39234 1.01624 0.79452 0.0
C651 C 0.38461 0.02832 0.87109 0.0
H652 H 0.42491 1.00597 0.7099 0.0
C653 C 0.40547 0.03948 0.92087 0.0
H654 H 0.37717 1.00707 0.75443 0.0
C655 C 0.43285 0.03857 0.89556 0.0
C656 C 0.44056 0.02662 0.81916 0.0
H657 H 0.4007 0.04949 0.97922 0.0
H658 H 0.44803 0.04755 0.93612 0.0
C659 C 0.41986 1.01545 0.76891 0.0
C660 C 0.53138 0.38936 0.78117 0.0
C661 C 0.525 0.38145 0.8641 0.0
H662 H 0.5366 0.42218 0.69282 0.0
C663 C 0.51927 0.40221 0.92195 0.0
H664 H 0.5356 0.37421 0.73406 0.0
C665 C 0.51937 0.42966 0.8977 0.0
C666 C 0.52554 0.43752 0.81494 0.0
H667 H 0.51495 0.39739 0.98678 0.0
H668 H 0.51478 0.44481 0.94456 0.0
C669 C 0.53178 0.41698 0.75709 0.0
C670 C 0.15963 0.53404 0.79847 0.0
C671 C 0.16745 0.52133 0.8742 0.0
H672 H 0.12705 0.5444 0.71415 0.0
C673 C 0.14677 0.50904 0.92275 0.0
H674 H 0.17466 0.54407 0.75941 0.0
C675 C 0.11945 0.5095 0.89702 0.0
C676 C 0.11166 0.52211 0.82146 0.0
H677 H 0.15166 0.49854 0.98042 0.0
H678 H 0.10438 0.49969 0.93658 0.0
C679 C 0.13218 0.53438 0.77247 0.0
C680 C 1.0012 0.90352 0.57797 0.0
C681 C 1.01742 0.88358 0.61671 0.0
H682 H 0.98924 0.94518 0.57139 0.0
C683 C 0.03478 0.89197 0.68219 0.0
H684 H 0.98792 0.89822 0.52652 0.0
C685 C 0.03558 0.91936 0.70842 0.0
C686 C 1.01921 0.93918 0.66943 0.0
H687 H 0.04747 0.87728 0.71415 0.0
H688 H 0.04911 0.925 0.75893 0.0
C689 C 1.00209 0.93072 0.60371 0.0
C690 C 0.64687 1.01998 0.56965 0.0
C691 C 0.66775 0.02619 0.62702 0.0
H692 H 0.60412 1.01498 0.54758 0.0
C693 C 0.65991 0.03277 0.70962 0.0
H694 H 0.65166 1.01541 0.5051 0.0
C695 C 0.63228 0.03295 0.73383 0.0
C696 C 0.6116 0.02634 0.67648 0.0
H697 H 0.67514 0.03735 0.7564 0.0
H698 H 0.62718 0.03794 0.79788 0.0
C699 C 0.61937 1.01992 0.59402 0.0
C700 C 0.52126 0.65707 0.70109 0.0
C701 C 0.52918 0.66376 0.61844 0.0
H702 H 0.51424 0.62541 0.79251 0.0
C703 C 0.53514 0.64221 0.56379 0.0
H704 H 0.51666 0.67297 0.74545 0.0
C705 C 0.53395 0.61511 0.59092 0.0
C706 C 0.52662 0.60837 0.67375 0.0
H707 H 0.54069 0.64623 0.4993 0.0
H708 H 0.53891 0.59936 0.54637 0.0
C709 C 0.52001 0.62974 0.72837 0.0
C710 C 0.89288 0.51594 0.70125 0.0
C711 C 0.8858 0.52415 0.61929 0.0
H712 H 0.92489 0.50883 0.79068 0.0
C713 C 0.90718 0.53091 0.56396 0.0
H714 H 0.87719 0.51081 0.74634 0.0
C715 C 0.93447 0.53004 0.58979 0.0
C716 C 0.94153 0.5222 0.6718 0.0
H717 H 0.90292 0.53675 0.49993 0.0
H718 H 0.95011 0.53555 0.54489 0.0
C719 C 0.92033 0.51494 0.72706 0.0
loop_
_geom_bond_atom_site_label_1
_geom_bond_atom_site_label_2
_geom_bond_distance
_geom_bond_site_symmetry_2
_ccdc_geom_bond_type
C0 C1 1.264 . S
C0 C5 1.479 . S
C0 C10 1.465 . S
C1 C0 1.264 . S
C1 C3 1.339 . S
C1 H28 0.931 . S
C2 C3 1.395 . S
C2 C4 1.320 . S
C3 C1 1.339 . S
C3 C2 1.395 . S
C3 H29 0.929 . S
C4 C2 1.320 . S
C4 C5 1.405 . S
C4 H30 0.930 . S
C5 C0 1.479 . S
C5 C4 1.405 . S
C5 H31 0.931 . S
U6 O7 2.454 . S
U6 O8 2.458 . S
U6 C9 2.984 . S
U6 C10 2.847 . S
U6 C23 2.882 . S
U6 O24 2.441 . S
U6 O25 2.420 . S
U6 O26 2.455 . S
U6 O27 2.449 . S
O7 U6 2.454 . S
O7 C9 1.353 . S
O8 U6 2.458 . S
O8 C9 1.286 . S
C9 U6 2.984 . S
C9 O7 1.353 . S
C9 O8 1.286 . S
C9 C11 1.363 . S
C10 C0 1.465 . S
C10 U6 2.847 . S
C10 O24 1.249 . S
C10 O25 1.202 . S
C11 C9 1.363 . S
C11 C13 1.408 . S
C11 C16 1.342 . S
C12 C13 1.310 . S
C12 C15 1.461 . S
C12 H32 0.932 . S
C13 C11 1.408 . S
C13 C12 1.310 . S
C13 H33 0.930 . S
C14 C15 1.474 . S
C14 C16 1.285 . S
C14 H34 0.929 . S
C15 C12 1.461 . S
C15 C14 1.474 . S
C16 C11 1.342 . S
C16 C14 1.285 . S
C16 H35 0.930 . S
C17 C20 1.424 . S
C17 C22 1.245 . S
C17 C23 1.428 . S
C18 C21 1.260 . S
C18 C22 1.477 . S
C18 H36 0.932 . S
C19 C20 1.384 . S
C19 C21 1.479 . S
C19 H37 0.929 . S
C20 C17 1.424 . S
C20 C19 1.384 . S
C20 H38 0.928 . S
C21 C18 1.260 . S
C21 C19 1.479 . S
C22 C17 1.245 . S
C22 C18 1.477 . S
C22 H39 0.932 . S
C23 U6 2.882 . S
C23 C17 1.428 . S
C23 O26 1.301 . S
C23 O27 1.282 . S
O24 U6 2.441 . S
O24 C10 1.249 . S
O25 U6 2.420 . S
O25 C10 1.202 . S
O26 U6 2.455 . S
O26 C23 1.301 . S
O27 U6 2.449 . S
O27 C23 1.282 . S
H28 C1 0.931 . S
H29 C3 0.929 . S
H30 C4 0.930 . S
H31 C5 0.931 . S
H32 C12 0.932 . S
H33 C13 0.930 . S
H34 C14 0.929 . S
H35 C16 0.930 . S
H36 C18 0.932 . S
H37 C19 0.929 . S
H38 C20 0.928 . S
H39 C22 0.932 . S
C40 C41 1.264 . S
C40 C45 1.479 . S
C40 C50 1.465 . S
C41 C40 1.264 . S
C41 C43 1.339 . S
C41 H68 0.931 . S
C42 C43 1.395 . S
C42 C44 1.320 . S
C43 C41 1.339 . S
C43 C42 1.395 . S
C43 H69 0.929 . S
C44 C42 1.320 . S
C44 C45 1.405 . S
C44 H70 0.930 1_455 S
C45 C40 1.479 . S
C45 C44 1.405 . S
C45 H71 0.931 . S
U46 O47 2.454 . S
U46 O48 2.458 . S
U46 C49 2.984 . S
U46 C50 2.847 . S
U46 C63 2.882 . S
U46 O64 2.441 . S
U46 O65 2.420 . S
U46 O66 2.455 . S
U46 O67 2.449 . S
O47 U46 2.454 . S
O47 C49 1.353 . S
O48 U46 2.458 . S
O48 C49 1.286 . S
C49 U46 2.984 . S
C49 O47 1.353 . S
C49 O48 1.286 . S
C49 C51 1.363 . S
C50 C40 1.465 . S
C50 U46 2.847 . S
C50 O64 1.249 . S
C50 O65 1.202 . S
C51 C49 1.363 . S
C51 C53 1.408 . S
C51 C56 1.342 . S
C52 C53 1.310 . S
C52 C55 1.461 . S
C52 H72 0.932 . S
C53 C51 1.408 . S
C53 C52 1.310 . S
C53 H73 0.930 . S
C54 C55 1.474 1_655 S
C54 C56 1.285 1_655 S
C54 H74 0.930 . S
C55 C52 1.461 . S
C55 C54 1.474 1_455 S
C56 C51 1.342 . S
C56 C54 1.285 1_455 S
C56 H75 0.933 . S
C57 C60 1.424 . S
C57 C62 1.245 . S
C57 C63 1.428 . S
C58 C61 1.260 . S
C58 C62 1.477 . S
C58 H76 0.932 . S
C59 C60 1.384 . S
C59 C61 1.479 . S
C59 H77 0.929 . S
C60 C57 1.424 . S
C60 C59 1.384 . S
C60 H78 0.928 . S
C61 C58 1.260 . S
C61 C59 1.479 . S
C62 C57 1.245 . S
C62 C58 1.477 . S
C62 H79 0.932 . S
C63 U46 2.882 . S
C63 C57 1.428 . S
C63 O66 1.301 . S
C63 O67 1.282 . S
O64 U46 2.441 . S
O64 C50 1.249 . S
O65 U46 2.420 . S
O65 C50 1.202 . S
O66 U46 2.455 . S
O66 C63 1.301 . S
O67 U46 2.449 . S
O67 C63 1.282 . S
H68 C41 0.931 . S
H69 C43 0.929 . S
H70 C44 0.930 1_655 S
H71 C45 0.931 . S
H72 C52 0.932 . S
H73 C53 0.930 . S
H74 C54 0.930 . S
H75 C56 0.933 . S
H76 C58 0.932 . S
H77 C59 0.929 . S
H78 C60 0.928 . S
H79 C62 0.932 . S
C80 C81 1.264 . S
C80 C85 1.479 . S
C80 C90 1.465 . S
C81 C80 1.264 . S
C81 C83 1.339 . S
C81 H108 0.931 . S
C82 C83 1.395 . S
C82 C84 1.320 . S
C83 C81 1.339 . S
C83 C82 1.395 . S
C83 H109 0.929 . S
C84 C82 1.320 . S
C84 C85 1.405 . S
C84 H110 0.930 1_545 S
C85 C80 1.479 . S
C85 C84 1.405 . S
C85 H111 0.931 . S
U86 O87 2.454 . S
U86 O88 2.458 . S
U86 C89 2.984 . S
U86 C90 2.847 . S
U86 C103 2.882 . S
U86 O104 2.441 . S
U86 O105 2.420 . S
U86 O106 2.455 . S
U86 O107 2.449 . S
O87 U86 2.454 . S
O87 C89 1.353 . S
O88 U86 2.458 . S
O88 C89 1.286 . S
C89 U86 2.984 . S
C89 O87 1.353 . S
C89 O88 1.286 . S
C89 C91 1.363 . S
C90 C80 1.465 . S
C90 U86 2.847 . S
C90 O104 1.249 . S
C90 O105 1.202 . S
C91 C89 1.363 . S
C91 C93 1.408 . S
C91 C96 1.342 . S
C92 C93 1.310 . S
C92 C95 1.461 . S
C92 H112 0.932 . S
C93 C91 1.408 . S
C93 C92 1.310 . S
C93 H113 0.930 . S
C94 C95 1.474 1_565 S
C94 C96 1.285 1_565 S
C94 H114 0.931 . S
C95 C92 1.461 . S
C95 C94 1.474 1_545 S
C96 C91 1.342 . S
C96 C94 1.285 1_545 S
C96 H115 0.933 . S
C97 C100 1.424 . S
C97 C102 1.245 . S
C97 C103 1.428 . S
C98 C101 1.260 . S
C98 C102 1.477 . S
C98 H116 0.932 . S
C99 C100 1.384 . S
C99 C101 1.479 . S
C99 H117 0.929 . S
C100 C97 1.424 . S
C100 C99 1.384 . S
C100 H118 0.928 . S
C101 C98 1.260 . S
C101 C99 1.479 . S
C102 C97 1.245 . S
C102 C98 1.477 . S
C102 H119 0.932 . S
C103 U86 2.882 . S
C103 C97 1.428 . S
C103 O106 1.301 . S
C103 O107 1.282 . S
O104 U86 2.441 . S
O104 C90 1.249 . S
O105 U86 2.420 . S
O105 C90 1.202 . S
O106 U86 2.455 . S
O106 C103 1.301 . S
O107 U86 2.449 . S
O107 C103 1.282 . S
H108 C81 0.931 . S
H109 C83 0.929 . S
H110 C84 0.930 1_565 S
H111 C85 0.931 . S
H112 C92 0.932 . S
H113 C93 0.930 . S
H114 C94 0.931 . S
H115 C96 0.933 . S
H116 C98 0.932 . S
H117 C99 0.929 . S
H118 C100 0.928 . S
H119 C102 0.932 . S
C120 C121 1.264 . S
C120 C125 1.479 . S
C120 C130 1.465 . S
C121 C120 1.264 . S
C121 C123 1.339 . S
C121 H148 0.931 . S
C122 C123 1.395 . S
C122 C124 1.320 . S
C123 C121 1.339 . S
C123 C122 1.395 . S
C123 H149 0.929 . S
C124 C122 1.320 . S
C124 C125 1.405 . S
C124 H150 0.930 . S
C125 C120 1.479 . S
C125 C124 1.405 . S
C125 H151 0.931 . S
U126 O127 2.454 . S
U126 O128 2.458 . S
U126 C129 2.984 . S
U126 C130 2.847 . S
U126 C143 2.882 . S
U126 O144 2.441 . S
U126 O145 2.420 . S
U126 O146 2.455 . S
U126 O147 2.449 . S
O127 U126 2.454 . S
O127 C129 1.353 . S
O128 U126 2.458 . S
O128 C129 1.286 . S
C129 U126 2.984 . S
C129 O127 1.353 . S
C129 O128 1.286 . S
C129 C131 1.363 . S
C130 C120 1.465 . S
C130 U126 2.847 . S
C130 O144 1.249 . S
C130 O145 1.202 . S
C131 C129 1.363 . S
C131 C133 1.408 . S
C131 C136 1.342 . S
C132 C133 1.310 . S
C132 C135 1.461 . S
C132 H152 0.932 . S
C133 C131 1.408 . S
C133 C132 1.310 . S
C133 H153 0.930 . S
C134 C135 1.474 . S
C134 C136 1.285 . S
C134 H154 0.929 . S
C135 C132 1.461 . S
C135 C134 1.474 . S
C136 C131 1.342 . S
C136 C134 1.285 . S
C136 H155 0.930 . S
C137 C140 1.424 . S
C137 C142 1.245 . S
C137 C143 1.428 . S
C138 C141 1.260 . S
C138 C142 1.477 . S
C138 H156 0.932 . S
C139 C140 1.384 . S
C139 C141 1.479 . S
C139 H157 0.929 . S
C140 C137 1.424 . S
C140 C139 1.384 . S
C140 H158 0.928 . S
C141 C138 1.260 . S
C141 C139 1.479 . S
C142 C137 1.245 . S
C142 C138 1.477 . S
C142 H159 0.932 . S
C143 U126 2.882 . S
C143 C137 1.428 . S
C143 O146 1.301 . S
C143 O147 1.282 . S
O144 U126 2.441 . S
O144 C130 1.249 . S
O145 U126 2.420 . S
O145 C130 1.202 . S
O146 U126 2.455 . S
O146 C143 1.301 . S
O147 U126 2.449 . S
O147 C143 1.282 . S
H148 C121 0.931 . S
H149 C123 0.929 . S
H150 C124 0.930 . S
H151 C125 0.931 . S
H152 C132 0.932 . S
H153 C133 0.930 . S
H154 C134 0.929 . S
H155 C136 0.930 . S
H156 C138 0.932 . S
H157 C139 0.929 . S
H158 C140 0.928 . S
H159 C142 0.932 . S
C160 C161 1.264 . S
C160 C165 1.479 . S
C160 C170 1.465 . S
C161 C160 1.264 . S
C161 C163 1.339 . S
C161 H188 0.931 . S
C162 C163 1.395 . S
C162 C164 1.320 . S
C163 C161 1.339 . S
C163 C162 1.395 . S
C163 H189 0.929 . S
C164 C162 1.320 . S
C164 C165 1.405 . S
C164 H190 0.930 . S
C165 C160 1.479 . S
C165 C164 1.405 . S
C165 H191 0.931 . S
U166 O167 2.454 . S
U166 O168 2.458 . S
U166 C169 2.984 . S
U166 C170 2.847 1_554 S
U166 C183 2.882 . S
U166 O184 2.441 1_554 S
U166 O185 2.420 1_554 S
U166 O186 2.455 . S
U166 O187 2.449 . S
O167 U166 2.454 . S
O167 C169 1.353 . S
O168 U166 2.458 . S
O168 C169 1.286 . S
C169 U166 2.984 . S
C169 O167 1.353 . S
C169 O168 1.286 . S
C169 C171 1.363 . S
C170 C160 1.465 . S
C170 U166 2.847 1_556 S
C170 O184 1.249 . S
C170 O185 1.202 . S
C171 C169 1.363 . S
C171 C173 1.408 . S
C171 C176 1.342 . S
C172 C173 1.310 . S
C172 C175 1.461 . S
C172 H192 0.932 . S
C173 C171 1.408 . S
C173 C172 1.310 . S
C173 H193 0.930 1_554 S
C174 C175 1.474 . S
C174 C176 1.285 . S
C174 H194 0.929 . S
C175 C172 1.461 . S
C175 C174 1.474 . S
C176 C171 1.342 . S
C176 C174 1.285 . S
C176 H195 0.930 . S
C177 C180 1.424 . S
C177 C182 1.245 . S
C177 C183 1.428 . S
C178 C181 1.260 . S
C178 C182 1.477 . S
C178 H196 0.932 . S
C179 C180 1.384 . S
C179 C181 1.479 . S
C179 H197 0.929 . S
C180 C177 1.424 . S
C180 C179 1.384 . S
C180 H198 0.928 . S
C181 C178 1.260 . S
C181 C179 1.479 . S
C182 C177 1.245 . S
C182 C178 1.477 . S
C182 H199 0.932 . S
C183 U166 2.882 . S
C183 C177 1.428 . S
C183 O186 1.301 . S
C183 O187 1.282 . S
O184 U166 2.441 1_556 S
O184 C170 1.249 . S
O185 U166 2.420 1_556 S
O185 C170 1.202 . S
O186 U166 2.455 . S
O186 C183 1.301 . S
O187 U166 2.449 . S
O187 C183 1.282 . S
H188 C161 0.931 . S
H189 C163 0.929 . S
H190 C164 0.930 . S
H191 C165 0.931 . S
H192 C172 0.932 . S
H193 C173 0.930 1_556 S
H194 C174 0.929 . S
H195 C176 0.930 . S
H196 C178 0.932 . S
H197 C179 0.929 . S
H198 C180 0.928 . S
H199 C182 0.932 . S
C200 C201 1.264 . S
C200 C205 1.479 . S
C200 C210 1.465 . S
C201 C200 1.264 . S
C201 C203 1.339 . S
C201 H228 0.931 . S
C202 C203 1.395 . S
C202 C204 1.320 . S
C203 C201 1.339 . S
C203 C202 1.395 . S
C203 H229 0.929 . S
C204 C202 1.320 . S
C204 C205 1.405 . S
C204 H230 0.923 1_455 S
C205 C200 1.479 . S
C205 C204 1.405 . S
C205 H231 0.931 . S
U206 O207 2.454 . S
U206 O208 2.458 . S
U206 C209 2.984 . S
U206 C210 2.847 1_554 S
U206 C223 2.882 . S
U206 O224 2.441 1_554 S
U206 O225 2.420 1_554 S
U206 O226 2.455 . S
U206 O227 2.449 . S
O207 U206 2.454 . S
O207 C209 1.353 . S
O208 U206 2.458 . S
O208 C209 1.286 . S
C209 U206 2.984 . S
C209 O207 1.353 . S
C209 O208 1.286 . S
C209 C211 1.363 . S
C210 C200 1.465 . S
C210 U206 2.847 1_556 S
C210 O224 1.249 . S
C210 O225 1.202 . S
C211 C209 1.363 . S
C211 C213 1.408 . S
C211 C216 1.342 . S
C212 C213 1.310 . S
C212 C215 1.462 . S
C212 H232 0.932 . S
C213 C211 1.408 . S
C213 C212 1.310 . S
C213 H233 0.944 . S
C214 C215 1.474 1_655 S
C214 C216 1.286 1_655 S
C214 H234 0.929 . S
C215 C212 1.462 . S
C215 C214 1.474 1_455 S
C216 C211 1.342 . S
C216 C214 1.286 1_455 S
C216 H235 0.930 . S
C217 C220 1.424 . S
C217 C222 1.245 . S
C217 C223 1.428 . S
C218 C221 1.260 . S
C218 C222 1.477 . S
C218 H236 0.932 . S
C219 C220 1.384 . S
C219 C221 1.479 . S
C219 H237 0.929 . S
C220 C217 1.424 . S
C220 C219 1.384 . S
C220 H238 0.928 . S
C221 C218 1.260 . S
C221 C219 1.479 . S
C222 C217 1.245 . S
C222 C218 1.477 . S
C222 H239 0.932 . S
C223 U206 2.882 . S
C223 C217 1.428 . S
C223 O226 1.301 . S
C223 O227 1.282 . S
O224 U206 2.441 1_556 S
O224 C210 1.249 . S
O225 U206 2.420 1_556 S
O225 C210 1.202 . S
O226 U206 2.455 . S
O226 C223 1.301 . S
O227 U206 2.449 . S
O227 C223 1.282 . S
H228 C201 0.931 . S
H229 C203 0.929 . S
H230 C204 0.923 1_655 S
H231 C205 0.931 . S
H232 C212 0.932 . S
H233 C213 0.944 . S
H234 C214 0.929 . S
H235 C216 0.930 . S
H236 C218 0.932 . S
H237 C219 0.929 . S
H238 C220 0.928 . S
H239 C222 0.932 . S
C240 C241 1.264 . S
C240 C245 1.479 . S
C240 C250 1.465 . S
C241 C240 1.264 . S
C241 C243 1.339 . S
C241 H268 0.931 . S
C242 C243 1.395 . S
C242 C244 1.320 . S
C243 C241 1.339 . S
C243 C242 1.395 . S
C243 H269 0.929 . S
C244 C242 1.320 . S
C244 C245 1.405 . S
C244 H270 0.922 1_545 S
C245 C240 1.479 . S
C245 C244 1.405 . S
C245 H271 0.931 . S
U246 O247 2.454 . S
U246 O248 2.458 . S
U246 C249 2.984 . S
U246 C250 2.847 1_554 S
U246 C263 2.882 . S
U246 O264 2.441 1_554 S
U246 O265 2.420 1_554 S
U246 O266 2.455 . S
U246 O267 2.449 . S
O247 U246 2.454 . S
O247 C249 1.353 . S
O248 U246 2.458 . S
O248 C249 1.286 . S
C249 U246 2.984 . S
C249 O247 1.353 . S
C249 O248 1.286 . S
C249 C251 1.363 . S
C250 C240 1.465 . S
C250 U246 2.847 1_556 S
C250 O264 1.249 . S
C250 O265 1.202 . S
C251 C249 1.363 . S
C251 C253 1.408 . S
C251 C256 1.342 . S
C252 C253 1.310 . S
C252 C255 1.462 . S
C252 H272 0.932 . S
C253 C251 1.408 . S
C253 C252 1.310 . S
C253 H273 0.923 1_554 S
C254 C255 1.474 1_565 S
C254 C256 1.286 1_565 S
C254 H274 0.929 . S
C255 C252 1.462 . S
C255 C254 1.474 1_545 S
C256 C251 1.342 . S
C256 C254 1.286 1_545 S
C256 H275 0.930 . S
C257 C260 1.424 . S
C257 C262 1.245 . S
C257 C263 1.428 . S
C258 C261 1.260 . S
C258 C262 1.477 . S
C258 H276 0.932 . S
C259 C260 1.384 . S
C259 C261 1.479 . S
C259 H277 0.929 . S
C260 C257 1.424 . S
C260 C259 1.384 . S
C260 H278 0.928 . S
C261 C258 1.260 . S
C261 C259 1.479 . S
C262 C257 1.245 . S
C262 C258 1.477 . S
C262 H279 0.932 . S
C263 U246 2.882 . S
C263 C257 1.428 . S
C263 O266 1.301 . S
C263 O267 1.282 . S
O264 U246 2.441 1_556 S
O264 C250 1.249 . S
O265 U246 2.420 1_556 S
O265 C250 1.202 . S
O266 U246 2.455 . S
O266 C263 1.301 . S
O267 U246 2.449 . S
O267 C263 1.282 . S
H268 C241 0.931 . S
H269 C243 0.929 . S
H270 C244 0.922 1_565 S
H271 C245 0.931 . S
H272 C252 0.932 . S
H273 C253 0.923 1_556 S
H274 C254 0.929 . S
H275 C256 0.930 . S
H276 C258 0.932 . S
H277 C259 0.929 . S
H278 C260 0.928 . S
H279 C262 0.932 . S
C280 C281 1.264 . S
C280 C285 1.479 . S
C280 C290 1.465 . S
C281 C280 1.264 . S
C281 C283 1.339 . S
C281 H308 0.931 . S
C282 C283 1.395 . S
C282 C284 1.320 . S
C283 C281 1.339 . S
C283 C282 1.395 . S
C283 H309 0.929 . S
C284 C282 1.320 . S
C284 C285 1.405 . S
C284 H310 0.930 . S
C285 C280 1.479 . S
C285 C284 1.405 . S
C285 H311 0.931 . S
U286 O287 2.454 . S
U286 O288 2.458 . S
U286 C289 2.984 . S
U286 C290 2.847 1_554 S
U286 C303 2.882 . S
U286 O304 2.441 1_554 S
U286 O305 2.420 1_554 S
U286 O306 2.455 . S
U286 O307 2.449 . S
O287 U286 2.454 . S
O287 C289 1.353 . S
O288 U286 2.458 . S
O288 C289 1.286 . S
C289 U286 2.984 . S
C289 O287 1.353 . S
C289 O288 1.286 . S
C289 C291 1.363 . S
C290 C280 1.465 . S
C290 U286 2.847 1_556 S
C290 O304 1.249 . S
C290 O305 1.202 . S
C291 C289 1.363 . S
C291 C293 1.408 . S
C291 C296 1.342 . S
C292 C293 1.310 . S
C292 C295 1.461 . S
C292 H312 0.932 . S
C293 C291 1.408 . S
C293 C292 1.310 . S
C293 H313 0.930 1_554 S
C294 C295 1.474 . S
C294 C296 1.285 . S
C294 H314 0.929 . S
C295 C292 1.461 . S
C295 C294 1.474 . S
C296 C291 1.342 . S
C296 C294 1.285 . S
C296 H315 0.930 . S
C297 C300 1.424 . S
C297 C302 1.245 . S
C297 C303 1.428 . S
C298 C301 1.260 . S
C298 C302 1.477 . S
C298 H316 0.932 . S
C299 C300 1.384 . S
C299 C301 1.479 . S
C299 H317 0.929 . S
C300 C297 1.424 . S
C300 C299 1.384 . S
C300 H318 0.928 . S
C301 C298 1.260 . S
C301 C299 1.479 . S
C302 C297 1.245 . S
C302 C298 1.477 . S
C302 H319 0.932 . S
C303 U286 2.882 . S
C303 C297 1.428 . S
C303 O306 1.301 . S
C303 O307 1.282 . S
O304 U286 2.441 1_556 S
O304 C290 1.249 . S
O305 U286 2.420 1_556 S
O305 C290 1.202 . S
O306 U286 2.455 . S
O306 C303 1.301 . S
O307 U286 2.449 . S
O307 C303 1.282 . S
H308 C281 0.931 . S
H309 C283 0.929 . S
H310 C284 0.930 . S
H311 C285 0.931 . S
H312 C292 0.932 . S
H313 C293 0.930 1_556 S
H314 C294 0.929 . S
H315 C296 0.930 . S
H316 C298 0.932 . S
H317 C299 0.929 . S
H318 C300 0.928 . S
H319 C302 0.932 . S
C320 Eu321 2.835 . S
C320 C322 1.500 . S
C320 O340 1.257 . S
C320 O341 1.260 . S
Eu321 C320 2.835 . S
Eu321 O340 2.473 . S
Eu321 O341 2.480 . S
Eu321 O342 2.430 . S
Eu321 O343 2.670 1_545 S
Eu321 O344 2.394 . S
Eu321 O349 2.355 1_655 S
Eu321 O351 2.374 1_545 S
C322 C320 1.500 . S
C322 C323 1.377 . S
C322 C327 1.377 . S
C323 C322 1.377 . S
C323 C324 1.395 . S
C323 H352 0.931 . S
C324 C323 1.395 . S
C324 C325 1.383 . S
C324 H353 0.931 . S
C325 C324 1.383 . S
C325 C326 1.394 . S
C326 C325 1.394 . S
C326 C327 1.378 . S
C326 H354 0.931 1_655 S
C327 C322 1.377 . S
C327 C326 1.378 . S
C327 H355 0.931 1_655 S
C328 O342 1.259 . S
C328 O343 1.270 1_545 S
C329 O344 1.251 1_455 S
C329 O345 1.251 . S
C330 Eu331 2.835 . S
C330 C332 1.500 . S
C330 O346 1.257 . S
C330 O347 1.260 . S
Eu331 C330 2.835 . S
Eu331 O343 2.355 1_455 S
Eu331 O345 2.374 1_565 S
Eu331 O346 2.473 . S
Eu331 O347 2.480 . S
Eu331 O348 2.430 . S
Eu331 O349 2.670 1_565 S
Eu331 O350 2.394 . S
C332 C330 1.500 . S
C332 C333 1.377 . S
C332 C337 1.377 . S
C333 C332 1.377 . S
C333 C334 1.395 . S
C333 H356 0.931 . S
C334 C333 1.395 . S
C334 C335 1.383 . S
C334 H357 0.931 . S
C335 C334 1.383 . S
C335 C336 1.394 . S
C336 C335 1.394 . S
C336 C337 1.378 . S
C336 H358 0.931 1_456 S
C337 C332 1.377 . S
C337 C336 1.378 . S
C337 H359 0.931 1_455 S
C338 O348 1.259 . S
C338 O349 1.270 1_565 S
C339 O350 1.251 1_655 S
C339 O351 1.251 . S
O340 C320 1.257 . S
O340 Eu321 2.473 . S
O341 C320 1.260 . S
O341 Eu321 2.480 . S
O342 Eu321 2.430 . S
O342 C328 1.259 . S
O343 Eu321 2.670 1_565 S
O343 C328 1.270 1_565 S
O343 Eu331 2.355 1_655 S
O344 Eu321 2.394 . S
O344 C329 1.251 1_655 S
O345 C329 1.251 . S
O345 Eu331 2.374 1_545 S
O346 C330 1.257 . S
O346 Eu331 2.473 . S
O347 C330 1.260 . S
O347 Eu331 2.480 . S
O348 Eu331 2.430 . S
O348 C338 1.259 . S
O349 Eu321 2.355 1_455 S
O349 Eu331 2.670 1_545 S
O349 C338 1.270 1_545 S
O350 Eu331 2.394 . S
O350 C339 1.251 1_455 S
O351 Eu321 2.374 1_565 S
O351 C339 1.251 . S
H352 C323 0.931 . S
H353 C324 0.931 . S
H354 C326 0.931 1_455 S
H355 C327 0.931 1_455 S
H356 C333 0.931 . S
H357 C334 0.931 . S
H358 C336 0.931 1_654 S
H359 C337 0.931 1_655 S
C360 Eu361 2.835 . S
C360 C362 1.500 . S
C360 O380 1.257 . S
C360 O381 1.260 . S
Eu361 C360 2.835 . S
Eu361 O380 2.473 . S
Eu361 O381 2.480 . S
Eu361 O382 2.430 . S
Eu361 O383 2.670 . S
Eu361 O384 2.394 . S
Eu361 O389 2.355 1_565 S
Eu361 O391 2.374 . S
C362 C360 1.500 . S
C362 C363 1.377 . S
C362 C367 1.377 . S
C363 C362 1.377 . S
C363 C364 1.395 . S
C363 H392 0.931 . S
C364 C363 1.395 . S
C364 C365 1.383 . S
C364 H393 0.931 . S
C365 C364 1.383 . S
C365 C366 1.394 . S
C366 C365 1.394 . S
C366 C367 1.378 . S
C366 H394 0.931 1_565 S
C367 C362 1.377 . S
C367 C366 1.378 . S
C367 H395 0.931 1_565 S
C368 O382 1.259 . S
C368 O383 1.270 . S
C369 O384 1.251 1_545 S
C369 O385 1.251 . S
C370 Eu371 2.835 . S
C370 C372 1.500 . S
C370 O386 1.257 . S
C370 O387 1.260 . S
Eu371 C370 2.835 . S
Eu371 O383 2.355 1_545 S
Eu371 O385 2.374 . S
Eu371 O386 2.473 . S
Eu371 O387 2.480 . S
Eu371 O388 2.430 . S
Eu371 O389 2.670 . S
Eu371 O390 2.394 . S
C372 C370 1.500 . S
C372 C373 1.377 . S
C372 C377 1.377 . S
C373 C372 1.377 . S
C373 C374 1.395 . S
C373 H396 0.931 . S
C374 C373 1.395 . S
C374 C375 1.389 . S
C374 H397 0.931 . S
C375 C374 1.389 . S
C375 C376 1.395 . S
C376 C375 1.395 . S
C376 C377 1.378 . S
C376 H398 0.931 1_546 S
C377 C372 1.377 . S
C377 C376 1.378 . S
C377 H399 0.931 1_545 S
C378 O388 1.259 . S
C378 O389 1.270 . S
C379 O390 1.251 1_565 S
C379 O391 1.251 . S
O380 C360 1.257 . S
O380 Eu361 2.473 . S
O381 C360 1.260 . S
O381 Eu361 2.480 . S
O382 Eu361 2.430 . S
O382 C368 1.259 . S
O383 Eu361 2.670 . S
O383 C368 1.270 . S
O383 Eu371 2.355 1_565 S
O384 Eu361 2.394 . S
O384 C369 1.251 1_565 S
O385 C369 1.251 . S
O385 Eu371 2.374 . S
O386 C370 1.257 . S
O386 Eu371 2.473 . S
O387 C370 1.260 . S
O387 Eu371 2.480 . S
O388 Eu371 2.430 . S
O388 C378 1.259 . S
O389 Eu361 2.355 1_545 S
O389 Eu371 2.670 . S
O389 C378 1.270 . S
O390 Eu371 2.394 . S
O390 C379 1.251 1_545 S
O391 Eu361 2.374 . S
O391 C379 1.251 . S
H392 C363 0.931 . S
H393 C364 0.931 . S
H394 C366 0.931 1_545 S
H395 C367 0.931 1_545 S
H396 C373 0.931 . S
H397 C374 0.931 . S
H398 C376 0.931 1_564 S
H399 C377 0.931 1_565 S
C400 Eu401 2.835 . S
C400 C402 1.500 . S
C400 O420 1.257 . S
C400 O421 1.260 . S
Eu401 C400 2.835 . S
Eu401 O420 2.473 . S
Eu401 O421 2.480 . S
Eu401 O422 2.430 . S
Eu401 O423 2.670 . S
Eu401 O424 2.394 . S
Eu401 O429 2.355 . S
Eu401 O431 2.374 . S
C402 C400 1.500 . S
C402 C403 1.377 . S
C402 C407 1.377 . S
C403 C402 1.377 . S
C403 C404 1.395 . S
C403 H432 0.931 . S
C404 C403 1.395 . S
C404 C405 1.383 . S
C404 H433 0.931 . S
C405 C404 1.383 . S
C405 C406 1.394 . S
C406 C405 1.394 . S
C406 C407 1.378 . S
C406 H434 0.931 . S
C407 C402 1.377 . S
C407 C406 1.378 . S
C407 H435 0.931 . S
C408 O422 1.259 . S
C408 O423 1.270 . S
C409 O424 1.251 . S
C409 O425 1.251 . S
C410 Eu411 2.835 . S
C410 C412 1.500 . S
C410 O426 1.257 . S
C410 O427 1.260 . S
Eu411 C410 2.835 . S
Eu411 O423 2.355 . S
Eu411 O425 2.374 . S
Eu411 O426 2.473 . S
Eu411 O427 2.480 . S
Eu411 O428 2.430 . S
Eu411 O429 2.670 . S
Eu411 O430 2.394 . S
C412 C410 1.500 . S
C412 C413 1.377 . S
C412 C417 1.377 . S
C413 C412 1.377 . S
C413 C414 1.395 . S
C413 H436 0.931 . S
C414 C413 1.395 . S
C414 C415 1.383 1_556 S
C414 H437 0.931 . S
C415 C414 1.383 1_554 S
C415 C416 1.394 1_554 S
C416 C415 1.394 1_556 S
C416 C417 1.378 . S
C416 H438 0.931 1_556 S
C417 C412 1.377 . S
C417 C416 1.378 . S
C417 H439 0.931 . S
C418 O428 1.259 . S
C418 O429 1.270 . S
C419 O430 1.251 . S
C419 O431 1.251 . S
O420 C400 1.257 . S
O420 Eu401 2.473 . S
O421 C400 1.260 . S
O421 Eu401 2.480 . S
O422 Eu401 2.430 . S
O422 C408 1.259 . S
O423 Eu401 2.670 . S
O423 C408 1.270 . S
O423 Eu411 2.355 . S
O424 Eu401 2.394 . S
O424 C409 1.251 . S
O425 C409 1.251 . S
O425 Eu411 2.374 . S
O426 C410 1.257 . S
O426 Eu411 2.473 . S
O427 C410 1.260 . S
O427 Eu411 2.480 . S
O428 Eu411 2.430 . S
O428 C418 1.259 . S
O429 Eu401 2.355 . S
O429 Eu411 2.670 . S
O429 C418 1.270 . S
O430 Eu411 2.394 . S
O430 C419 1.251 . S
O431 Eu401 2.374 . S
O431 C419 1.251 . S
H432 C403 0.931 . S
H433 C404 0.931 . S
H434 C406 0.931 . S
H435 C407 0.931 . S
H436 C413 0.931 . S
H437 C414 0.931 . S
H438 C416 0.931 1_554 S
H439 C417 0.931 . S
C440 Eu441 2.835 . S
C440 C442 1.500 . S
C440 O460 1.257 . S
C440 O461 1.260 . S
Eu441 C440 2.835 . S
Eu441 O460 2.473 . S
Eu441 O461 2.480 . S
Eu441 O462 2.430 . S
Eu441 O463 2.670 1_455 S
Eu441 O464 2.394 . S
Eu441 O469 2.355 . S
Eu441 O471 2.374 1_455 S
C442 C440 1.500 . S
C442 C443 1.377 . S
C442 C447 1.377 . S
C443 C442 1.377 . S
C443 C444 1.395 . S
C443 H472 0.931 . S
C444 C443 1.395 . S
C444 C445 1.383 . S
C444 H473 0.931 . S
C445 C444 1.383 . S
C445 C446 1.394 . S
C446 C445 1.394 . S
C446 C447 1.378 . S
C446 H474 0.931 . S
C447 C442 1.377 . S
C447 C446 1.378 . S
C447 H475 0.931 . S
C448 O462 1.263 . S
C448 O463 1.267 1_455 S
C449 O464 1.251 . S
C449 O465 1.251 . S
C450 Eu451 2.835 . S
C450 C452 1.500 . S
C450 O466 1.257 . S
C450 O467 1.260 . S
Eu451 C450 2.835 . S
Eu451 O463 2.355 . S
Eu451 O465 2.374 1_655 S
Eu451 O466 2.473 . S
Eu451 O467 2.480 . S
Eu451 O468 2.430 . S
Eu451 O469 2.670 1_655 S
Eu451 O470 2.394 . S
C452 C450 1.500 . S
C452 C453 1.377 . S
C452 C457 1.377 . S
C453 C452 1.377 . S
C453 C454 1.395 . S
C453 H476 0.931 . S
C454 C453 1.395 . S
C454 C455 1.381 1_556 S
C454 H477 0.931 . S
C455 C454 1.381 1_554 S
C455 C456 1.394 1_554 S
C456 C455 1.394 1_556 S
C456 C457 1.378 . S
C456 H478 0.931 1_556 S
C457 C452 1.377 . S
C457 C456 1.378 . S
C457 H479 0.931 . S
C458 O468 1.259 . S
C458 O469 1.270 1_655 S
C459 O470 1.251 . S
C459 O471 1.251 . S
O460 C440 1.257 . S
O460 Eu441 2.473 . S
O461 C440 1.260 . S
O461 Eu441 2.480 . S
O462 Eu441 2.430 . S
O462 C448 1.263 . S
O463 Eu441 2.670 1_655 S
O463 C448 1.267 1_655 S
O463 Eu451 2.355 . S
O464 Eu441 2.394 . S
O464 C449 1.251 . S
O465 C449 1.251 . S
O465 Eu451 2.374 1_455 S
O466 C450 1.257 . S
O466 Eu451 2.473 . S
O467 C450 1.260 . S
O467 Eu451 2.480 . S
O468 Eu451 2.430 . S
O468 C458 1.259 . S
O469 Eu441 2.355 . S
O469 Eu451 2.670 1_455 S
O469 C458 1.270 1_455 S
O470 Eu451 2.394 . S
O470 C459 1.251 . S
O471 Eu441 2.374 1_655 S
O471 C459 1.251 . S
H472 C443 0.931 . S
H473 C444 0.931 . S
H474 C446 0.931 . S
H475 C447 0.931 . S
H476 C453 0.931 . S
H477 C454 0.931 . S
H478 C456 0.931 1_554 S
H479 C457 0.931 . S
C480 C481 1.391 . S
C480 H484 0.950 . S
C480 C489 1.390 . S
C481 C480 1.391 . S
C481 C483 1.384 1_545 S
H482 C489 0.950 . S
C483 C481 1.384 1_565 S
C483 C485 1.390 . S
C483 H487 0.950 . S
H484 C480 0.950 . S
C485 C483 1.390 . S
C485 C486 1.381 1_565 S
C485 H488 0.950 . S
C486 C485 1.381 1_545 S
C486 C489 1.394 . S
H487 C483 0.950 . S
H488 C485 0.950 . S
C489 C480 1.390 . S
C489 H482 0.950 . S
C489 C486 1.394 . S
C490 C491 1.387 . S
C490 H494 0.950 . S
C490 C499 1.390 . S
C491 C490 1.387 . S
C491 C493 1.387 . S
H492 C499 0.950 . S
C493 C491 1.387 . S
C493 C495 1.390 . S
C493 H497 0.950 . S
H494 C490 0.950 . S
C495 C493 1.390 . S
C495 C496 1.387 . S
C495 H498 0.950 . S
C496 C495 1.387 . S
C496 C499 1.387 . S
H497 C493 0.950 . S
H498 C495 0.950 . S
C499 C490 1.390 . S
C499 H492 0.950 . S
C499 C496 1.387 . S
C500 C501 1.387 . S
C500 H504 0.950 . S
C500 C509 1.390 . S
C501 C500 1.387 . S
C501 C503 1.387 . S
H502 C509 0.950 . S
C503 C501 1.387 . S
C503 C505 1.390 . S
C503 H507 0.950 . S
H504 C500 0.950 . S
C505 C503 1.390 . S
C505 C506 1.387 . S
C505 H508 0.950 . S
C506 C505 1.387 . S
C506 C509 1.387 . S
H507 C503 0.950 . S
H508 C505 0.950 . S
C509 C500 1.390 . S
C509 H502 0.950 . S
C509 C506 1.387 . S
C510 C511 1.403 . S
C510 H514 0.950 . S
C510 C519 1.390 . S
C511 C510 1.403 . S
C511 C513 1.373 1_455 S
H512 C519 0.950 . S
C513 C511 1.373 1_655 S
C513 C515 1.390 . S
C513 H517 0.950 . S
H514 C510 0.950 . S
C515 C513 1.390 . S
C515 C516 1.387 1_655 S
C515 H518 0.950 . S
C516 C515 1.387 1_455 S
C516 C519 1.387 . S
H517 C513 0.950 . S
H518 C515 0.950 . S
C519 C510 1.390 . S
C519 H512 0.950 . S
C519 C516 1.387 . S
C520 C521 1.391 1_565 S
C520 H524 0.950 . S
C520 C529 1.390 . S
C521 C520 1.391 1_545 S
C521 C523 1.384 . S
H522 C529 0.950 1_556 S
C523 C521 1.384 . S
C523 C525 1.390 . S
C523 H527 0.950 . S
H524 C520 0.950 . S
C525 C523 1.390 . S
C525 C526 1.390 1_544 S
C525 H528 0.950 1_554 S
C526 C525 1.390 1_566 S
C526 C529 1.385 1_556 S
H527 C523 0.950 . S
H528 C525 0.950 1_556 S
C529 C520 1.390 . S
C529 H522 0.950 1_554 S
C529 C526 1.385 1_554 S
C530 C531 1.387 . S
C530 H534 0.950 . S
C530 C539 1.390 . S
C531 C530 1.387 . S
C531 C533 1.387 . S
H532 C539 0.950 1_556 S
C533 C531 1.387 . S
C533 C535 1.390 . S
C533 H537 0.950 . S
H534 C530 0.950 . S
C535 C533 1.390 . S
C535 C536 1.387 1_554 S
C535 H538 0.950 1_554 S
C536 C535 1.387 1_556 S
C536 C539 1.387 1_556 S
H537 C533 0.950 . S
H538 C535 0.950 1_556 S
C539 C530 1.390 . S
C539 H532 0.950 1_554 S
C539 C536 1.387 1_554 S
C540 C541 1.387 . S
C540 H544 0.950 . S
C540 C549 1.390 . S
C541 C540 1.387 . S
C541 C543 1.387 . S
H542 C549 0.950 1_556 S
C543 C541 1.387 . S
C543 C545 1.390 . S
C543 H547 0.950 . S
H544 C540 0.950 . S
C545 C543 1.390 . S
C545 C546 1.387 1_554 S
C545 H548 0.950 1_554 S
C546 C545 1.387 1_556 S
C546 C549 1.387 1_556 S
H547 C543 0.950 . S
H548 C545 0.950 1_556 S
C549 C540 1.390 . S
C549 H542 0.950 1_554 S
C549 C546 1.387 1_554 S
C550 C551 1.407 . S
C550 H554 0.950 . S
C550 C559 1.390 . S
C551 C550 1.407 . S
C551 C553 1.368 1_655 S
H552 C559 0.950 1_556 S
C553 C551 1.368 1_455 S
C553 C555 1.390 . S
C553 H557 0.950 . S
H554 C550 0.950 . S
C555 C553 1.390 . S
C555 C556 1.349 1_454 S
C555 H558 0.950 1_554 S
C556 C555 1.349 1_656 S
C556 C559 1.426 1_556 S
H557 C553 0.950 . S
H558 C555 0.950 1_556 S
C559 C550 1.390 . S
C559 H552 0.950 1_554 S
C559 C556 1.426 1_554 S
C560 C561 1.389 1_655 S
C560 H564 0.950 . S
C560 C569 1.390 . S
C561 C560 1.389 1_455 S
C561 C563 1.389 1_455 S
H562 C569 0.950 . S
C563 C561 1.389 1_655 S
C563 C565 1.390 . S
C563 H567 0.950 . S
H564 C560 0.950 . S
C565 C563 1.390 . S
C565 C566 1.387 . S
C565 H568 0.950 . S
C566 C565 1.387 . S
C566 C569 1.387 . S
H567 C563 0.950 . S
H568 C565 0.950 . S
C569 C560 1.390 . S
C569 H562 0.950 . S
C569 C566 1.387 . S
C570 C571 1.385 1_565 S
C570 H574 0.940 1_565 S
C570 C579 1.390 . S
C571 C570 1.385 1_545 S
C571 C573 1.384 1_545 S
H572 C579 0.950 . S
C573 C571 1.384 1_565 S
C573 C575 1.390 . S
C573 H577 0.950 . S
H574 C570 0.940 1_545 S
C575 C573 1.390 . S
C575 C576 1.387 . S
C575 H578 0.950 . S
C576 C575 1.387 . S
C576 C579 1.387 . S
H577 C573 0.950 . S
H578 C575 0.950 . S
C579 C570 1.390 . S
C579 H572 0.950 . S
C579 C576 1.387 . S
C580 C581 1.387 . S
C580 H584 0.950 . S
C580 C589 1.390 . S
C581 C580 1.387 . S
C581 C583 1.387 . S
H582 C589 0.950 . S
C583 C581 1.387 . S
C583 C585 1.390 . S
C583 H587 0.950 . S
H584 C580 0.950 . S
C585 C583 1.390 . S
C585 C586 1.387 . S
C585 H588 0.950 . S
C586 C585 1.387 . S
C586 C589 1.387 . S
H587 C583 0.950 . S
H588 C585 0.950 . S
C589 C580 1.390 . S
C589 H582 0.950 . S
C589 C586 1.387 . S
C590 C591 1.387 . S
C590 H594 0.950 . S
C590 C599 1.390 . S
C591 C590 1.387 . S
C591 C593 1.387 . S
H592 C599 0.950 . S
C593 C591 1.387 . S
C593 C595 1.390 . S
C593 H597 0.950 . S
H594 C590 0.950 . S
C595 C593 1.390 . S
C595 C596 1.387 . S
C595 H598 0.950 . S
C596 C595 1.387 . S
C596 C599 1.387 . S
H597 C593 0.950 . S
H598 C595 0.950 . S
C599 C590 1.390 . S
C599 H592 0.950 . S
C599 C596 1.387 . S
C600 C601 1.389 1_456 S
C600 H604 0.950 . S
C600 C609 1.390 . S
C601 C600 1.389 1_654 S
C601 C603 1.389 1_655 S
H602 C609 0.950 . S
C603 C601 1.389 1_455 S
C603 C605 1.390 . S
C603 H607 0.950 . S
H604 C600 0.950 . S
C605 C603 1.390 . S
C605 C606 1.387 . S
C605 H608 0.950 . S
C606 C605 1.387 . S
C606 C609 1.387 1_554 S
H607 C603 0.950 . S
H608 C605 0.950 . S
C609 C600 1.390 . S
C609 H602 0.950 . S
C609 C606 1.387 1_556 S
C610 C611 1.389 1_545 S
C610 H614 0.950 . S
C610 C619 1.390 . S
C611 C610 1.389 1_565 S
C611 C613 1.388 1_564 S
H612 C619 0.950 . S
C613 C611 1.388 1_546 S
C613 C615 1.390 . S
C613 H617 0.950 1_545 S
H614 C610 0.950 . S
C615 C613 1.390 . S
C615 C616 1.387 1_556 S
C615 H618 0.950 . S
C616 C615 1.387 1_554 S
C616 C619 1.387 . S
H617 C613 0.950 1_565 S
H618 C615 0.950 . S
C619 C610 1.390 . S
C619 H612 0.950 . S
C619 C616 1.387 . S
C620 C621 1.387 1_556 S
C620 H624 0.950 . S
C620 C629 1.390 . S
C621 C620 1.387 1_554 S
C621 C623 1.387 . S
H622 C629 0.950 . S
C623 C621 1.387 . S
C623 C625 1.390 . S
C623 H627 0.950 . S
H624 C620 0.950 . S
C625 C623 1.390 . S
C625 C626 1.387 . S
C625 H628 0.950 . S
C626 C625 1.387 . S
C626 C629 1.387 1_554 S
H627 C623 0.950 . S
H628 C625 0.950 . S
C629 C620 1.390 . S
C629 H622 0.950 . S
C629 C626 1.387 1_556 S
C630 C631 1.387 1_556 S
C630 H634 0.950 . S
C630 C639 1.390 . S
C631 C630 1.387 1_554 S
C631 C633 1.387 . S
H632 C639 0.950 . S
C633 C631 1.387 . S
C633 C635 1.390 . S
C633 H637 0.950 . S
H634 C630 0.950 . S
C635 C633 1.390 . S
C635 C636 1.387 . S
C635 H638 0.950 . S
C636 C635 1.387 . S
C636 C639 1.387 1_554 S
H637 C633 0.950 . S
H638 C635 0.950 . S
C639 C630 1.390 . S
C639 H632 0.950 . S
C639 C636 1.387 1_556 S
C640 C641 1.387 1_655 S
C640 H644 0.950 . S
C640 C649 1.390 . S
C641 C640 1.387 1_455 S
C641 C643 1.387 . S
H642 C649 0.950 . S
C643 C641 1.387 . S
C643 C645 1.390 . S
C643 H647 0.950 . S
H644 C640 0.950 . S
C645 C643 1.390 . S
C645 C646 1.387 . S
C645 H648 0.950 . S
C646 C645 1.387 . S
C646 C649 1.387 1_455 S
H647 C643 0.950 . S
H648 C645 0.950 . S
C649 C640 1.390 . S
C649 H642 0.950 . S
C649 C646 1.387 1_655 S
C650 C651 1.387 1_565 S
C650 H654 0.950 . S
C650 C659 1.390 . S
C651 C650 1.387 1_545 S
C651 C653 1.387 . S
H652 C659 0.950 . S
C653 C651 1.387 . S
C653 C655 1.390 . S
C653 H657 0.950 . S
H654 C650 0.950 . S
C655 C653 1.390 . S
C655 C656 1.387 . S
C655 H658 0.950 . S
C656 C655 1.387 . S
C656 C659 1.387 1_545 S
H657 C653 0.950 . S
H658 C655 0.950 . S
C659 C650 1.390 . S
C659 H652 0.950 . S
C659 C656 1.387 1_565 S
C660 C661 1.387 . S
C660 H664 0.950 . S
C660 C669 1.390 . S
C661 C660 1.387 . S
C661 C663 1.387 . S
H662 C669 0.950 . S
C663 C661 1.387 . S
C663 C665 1.390 . S
C663 H667 0.950 . S
H664 C660 0.950 . S
C665 C663 1.390 . S
C665 C666 1.387 . S
C665 H668 0.950 . S
C666 C665 1.387 . S
C666 C669 1.387 . S
H667 C663 0.950 . S
H668 C665 0.950 . S
C669 C660 1.390 . S
C669 H662 0.950 . S
C669 C666 1.387 . S
C670 C671 1.387 . S
C670 H674 0.950 . S
C670 C679 1.390 . S
C671 C670 1.387 . S
C671 C673 1.387 . S
H672 C679 0.950 . S
C673 C671 1.387 . S
C673 C675 1.390 . S
C673 H677 0.950 . S
H674 C670 0.950 . S
C675 C673 1.390 . S
C675 C676 1.387 . S
C675 H678 0.950 . S
C676 C675 1.387 . S
C676 C679 1.387 . S
H677 C673 0.950 . S
H678 C675 0.950 . S
C679 C670 1.390 . S
C679 H672 0.950 . S
C679 C676 1.387 . S
C680 C681 1.387 . S
C680 H684 0.950 . S
C680 C689 1.390 . S
C681 C680 1.387 . S
C681 C683 1.387 1_655 S
H682 C689 0.950 . S
C683 C681 1.387 1_455 S
C683 C685 1.390 . S
C683 H687 0.950 . S
H684 C680 0.950 . S
C685 C683 1.390 . S
C685 C686 1.387 1_455 S
C685 H688 0.950 . S
C686 C685 1.387 1_655 S
C686 C689 1.387 . S
H687 C683 0.950 . S
H688 C685 0.950 . S
C689 C680 1.390 . S
C689 H682 0.950 . S
C689 C686 1.387 . S
C690 C691 1.387 . S
C690 H694 0.950 . S
C690 C699 1.390 . S
C691 C690 1.387 . S
C691 C693 1.387 1_565 S
H692 C699 0.950 . S
C693 C691 1.387 1_545 S
C693 C695 1.390 . S
C693 H697 0.950 . S
H694 C690 0.950 . S
C695 C693 1.390 . S
C695 C696 1.387 1_545 S
C695 H698 0.950 . S
C696 C695 1.387 1_565 S
C696 C699 1.387 . S
H697 C693 0.950 . S
H698 C695 0.950 . S
C699 C690 1.390 . S
C699 H692 0.950 . S
C699 C696 1.387 . S
C700 C701 1.387 . S
C700 H704 0.950 . S
C700 C709 1.390 . S
C701 C700 1.387 . S
C701 C703 1.387 . S
H702 C709 0.950 . S
C703 C701 1.387 . S
C703 C705 1.390 . S
C703 H707 0.950 . S
H704 C700 0.950 . S
C705 C703 1.390 . S
C705 C706 1.387 . S
C705 H708 0.950 . S
C706 C705 1.387 . S
C706 C709 1.387 . S
H707 C703 0.950 . S
H708 C705 0.950 . S
C709 C700 1.390 . S
C709 H702 0.950 . S
C709 C706 1.387 . S
C710 C711 1.387 . S
C710 H714 0.950 . S
C710 C719 1.390 . S
C711 C710 1.387 . S
C711 C713 1.387 . S
H712 C719 0.950 . S
C713 C711 1.387 . S
C713 C715 1.390 . S
C713 H717 0.950 . S
H714 C710 0.950 . S
C715 C713 1.390 . S
C715 C716 1.387 . S
C715 H718 0.950 . S
C716 C715 1.387 . S
C716 C719 1.387 . S
H717 C713 0.950 . S
H718 C715 0.950 . S
C719 C710 1.390 . S
C719 H712 0.950 . S
C719 C716 1.387 . S
C481 C255 2.681 . S
C486 C338 3.055 1_545 S
C496 C378 3.075 . S
C491 C295 2.700 . S
C506 C418 3.078 . S
C501 C175 2.707 . S
C516 C458 3.058 1_455 S
C511 C215 2.686 . S
C526 C328 3.057 1_565 S
C521 C95 2.686 . S
C531 C135 2.705 . S
C536 C368 3.076 . S
C541 C15 2.710 . S
C546 C408 3.078 . S
C551 C55 2.688 1_655 S
C556 C448 3.058 1_655 S
C566 C325 0.746 . S
C561 C221 0.744 . S
C576 C365 0.751 . S
C571 C261 0.749 . S
C586 C405 0.712 . S
C581 C301 0.705 . S
C591 C181 0.704 . S
C596 C445 0.708 . S
C601 C61 0.747 1_655 S
C606 C335 0.748 1_554 S
C616 C375 0.743 1_554 S
C611 C101 0.748 1_565 S
C626 C415 0.709 . S
C621 C141 0.719 . S
C631 C21 0.722 . S
C636 C455 0.719 . S
C641 C202 3.573 . S
C646 C329 4.028 . S
C651 C242 3.542 . S
C656 C369 4.005 . S
C666 C409 3.997 . S
C661 C282 3.529 . S
C676 C449 4.025 . S
C671 C162 3.553 . S
C681 C42 3.594 1_655 S
C686 C339 4.037 . S
C696 C379 4.005 . S
C691 C82 3.564 1_565 S
C706 C419 3.997 . S
C701 C122 3.567 . S
C711 C2 3.596 . S
C716 C459 4.031 . S
