# Generated by pormake.
# Topology nia, (6,6)-cn, num edge types: 1
# Building blocks:
#     Node 0, Type 0, BuildingBlock: CUWYAW_clean_sbu_0, # of connection points: 6
#     Node 1, Type 0, BuildingBlock: CUWYAW_clean_sbu_0, # of connection points: 6
#     Node 2, Type 1, BuildingBlock: MIDCAF_clean_sbu_0, # of connection points: 6
#     Node 3, Type 1, BuildingBlock: MIDCAF_clean_sbu_0, # of connection points: 6
#     Edge 4, Type (0, 1), BuildingBlock: ZUJKAS_clean_linker_0, # of connection points: 2
#     Edge 5, Type (0, 1), BuildingBlock: ZUJKAS_clean_linker_0, # of connection points: 2
#     Edge 6, Type (0, 1), BuildingBlock: ZUJKAS_clean_linker_0, # of connection points: 2
#     Edge 7, Type (0, 1), BuildingBlock: ZUJKAS_clean_linker_0, # of connection points: 2
#     Edge 8, Type (0, 1), BuildingBlock: ZUJKAS_clean_linker_0, # of connection points: 2
#     Edge 9, Type (0, 1), BuildingBlock: ZUJKAS_clean_linker_0, # of connection points: 2
#     Edge 10, Type (0, 1), BuildingBlock: ZUJKAS_clean_linker_0, # of connection points: 2
#     Edge 11, Type (0, 1), BuildingBlock: ZUJKAS_clean_linker_0, # of connection points: 2
#     Edge 12, Type (0, 1), BuildingBlock: ZUJKAS_clean_linker_0, # of connection points: 2
#     Edge 13, Type (0, 1), BuildingBlock: ZUJKAS_clean_linker_0, # of connection points: 2
#     Edge 14, Type (0, 1), BuildingBlock: ZUJKAS_clean_linker_0, # of connection points: 2
#     Edge 15, Type (0, 1), BuildingBlock: ZUJKAS_clean_linker_0, # of connection points: 2
# Relax obj value: 0.258
# Max RMSD: 0.262
# Mean RMSD: 0.226
data_MOF--net-nia--node1-CUWYAW_clean_sbu_0--node2-MIDCAF_clean_sbu_0--edge1-ZUJKAS_clean_linker_0
_symmetry_space_group_name_H-M    P1
_symmetry_Int_Tables_number       1
_symmetry_cell_setting            triclinic
loop_
_symmetry_equiv_pos_as_xyz
'x, y, z'
_cell_length_a     35.480334
_cell_length_b     32.138032
_cell_length_c     43.252617
_cell_angle_alpha  99.178697
_cell_angle_beta   72.722414
_cell_angle_gamma 128.43247
loop_
_atom_site_label
_atom_site_type_symbol
_atom_site_fract_x
_atom_site_fract_y
_atom_site_fract_z
_atom_type_partial_charge
C0 C 0.08783 0.98463 0.05321 0.0
Eu1 Eu 0.02845 0.99543 0.03798 0.0
C2 C 0.08991 0.95353 0.07338 0.0
C3 C 0.06066 0.93725 0.10546 0.0
C4 C 0.06861 0.91455 0.12549 0.0
C5 C 0.10604 0.90794 0.1138 0.0
C6 C 0.13362 0.92221 0.08124 0.0
C7 C 0.12568 0.94485 0.06131 0.0
C8 C 0.93168 0.95041 0.06899 0.0
C9 C 0.97312 0.9383 0.981 0.0
C10 C 0.91674 0.05267 1.00958 0.0
Eu11 Eu 0.97869 0.03852 1.01587 0.0
C12 C 0.90286 0.061 0.98357 0.0
C13 C 0.93694 0.08427 0.95341 0.0
C14 C 0.92422 0.09569 0.92997 0.0
C15 C 0.87709 0.08372 0.93621 0.0
C16 C 0.84264 0.05888 0.96613 0.0
C17 C 0.85547 0.04772 0.98955 0.0
C18 C 0.0709 0.07676 0.9756 0.0
C19 C 0.04517 0.10387 0.0666 0.0
O20 O 0.069 0.96206 0.02823 0.0
O21 O 0.0759 0.01503 0.0684 0.0
O22 O 0.95113 0.92594 0.06512 0.0
O23 O 0.96505 0.99807 0.05943 0.0
O24 O 0.01076 0.95233 0.99178 0.0
O25 O 0.94991 0.95999 0.99135 0.0
O26 O 0.96119 0.09156 1.01362 0.0
O27 O 0.90467 0.00538 1.01229 0.0
O28 O 0.04395 0.08895 0.97153 0.0
O29 O 0.04699 0.04634 1.00001 0.0
O30 O 0.00603 0.08982 0.05792 0.0
O31 O 0.06543 0.07915 0.05626 0.0
H32 H 0.03282 0.94363 0.11535 0.0
H33 H 0.04679 0.90411 0.15043 0.0
H34 H 0.16195 0.91659 0.07123 0.0
H35 H 0.14865 0.95715 0.03666 0.0
H36 H 0.97369 0.09455 0.94824 0.0
H37 H 0.95141 0.11432 0.90708 0.0
H38 H 0.80632 0.04981 0.97197 0.0
H39 H 0.82872 0.02983 1.0127 0.0
C40 C 0.92006 0.96736 0.46701 0.0
Eu41 Eu 0.97149 0.99198 0.50808 0.0
C42 C 0.89324 0.97904 0.45404 0.0
C43 C 0.8412 0.9483 0.46489 0.0
C44 C 0.81429 0.95125 0.44863 0.0
C45 C 0.83875 0.9848 0.42097 0.0
C46 C 0.89104 0.0177 0.41112 0.0
C47 C 0.91804 0.0148 0.42746 0.0
C48 C 0.94806 0.92214 0.55172 0.0
C49 C 0.95579 0.05657 0.56967 0.0
C50 C 0.08916 0.06518 0.59551 0.0
Eu51 Eu 0.03922 0.04052 0.55343 0.0
C52 C 0.10795 0.04959 0.61382 0.0
C53 C 0.14603 0.04485 0.59873 0.0
C54 C 0.16927 0.03992 0.61747 0.0
C55 C 0.1551 0.04016 0.6515 0.0
C56 C 0.11499 0.04159 0.66643 0.0
C57 C 0.0917 0.04626 0.64777 0.0
C58 C 0.06339 0.11029 0.50928 0.0
C59 C 0.05376 0.97442 0.49226 0.0
O60 O 0.96868 1.00105 0.46017 0.0
O61 O 0.90007 0.9456 0.49615 0.0
O62 O 0.94329 0.91042 0.52237 0.0
O63 O 0.96198 0.96877 0.55735 0.0
O64 O 0.95201 0.04318 0.53958 0.0
O65 O 0.98207 0.0512 0.58234 0.0
O66 O 0.04118 0.04052 0.60319 0.0
O67 O 0.11 0.07758 0.56453 0.0
O68 O 0.06878 0.12243 0.53847 0.0
O69 O 0.04903 0.06348 0.50406 0.0
O70 O 0.05742 0.98795 0.52242 0.0
O71 O 0.02784 0.98008 0.47932 0.0
H72 H 0.8209 0.91979 0.48496 0.0
H73 H 0.77405 0.92472 0.45663 0.0
H74 H 0.91101 0.04437 0.39012 0.0
H75 H 0.95812 0.0388 0.41831 0.0
H76 H 0.15942 0.04744 0.57259 0.0
H77 H 0.20036 0.03929 0.60531 0.0
H78 H 0.10304 0.04139 0.69258 0.0
H79 H 0.06254 0.05002 0.65999 0.0
Zn80 Zn 0.33409 0.67035 0.22608 0.0
Zn81 Zn 0.31126 0.66975 0.35026 0.0
Zn82 Zn 0.32074 0.66785 0.28772 0.0
C83 C 0.41213 0.72645 0.32131 0.0
C84 C 0.25542 0.56304 0.33535 0.0
O85 O 0.28428 0.69923 0.2775 0.0
O86 O 0.28857 0.68575 0.22517 0.0
C87 C 0.42804 0.73515 0.23318 0.0
O88 O 0.39601 0.71785 0.29618 0.0
O89 O 0.3819 0.70582 0.34856 0.0
O90 O 0.2623 0.5921 0.35967 0.0
O91 O 0.27577 0.58424 0.30651 0.0
O92 O 0.40656 0.72629 0.21171 0.0
O93 O 0.40206 0.71537 0.26221 0.0
O94 O 0.28298 0.58445 0.27278 0.0
O95 O 0.31034 0.59617 0.21947 0.0
C96 C 0.28622 0.56569 0.24429 0.0
O97 O 0.28346 0.70511 0.31033 0.0
O98 O 0.28762 0.71342 0.36124 0.0
C99 C 0.27364 0.70022 0.25171 0.0
C100 C 0.27605 0.72144 0.33913 0.0
Zn101 Zn 0.67121 0.36006 0.83541 0.0
Zn102 Zn 0.69576 0.35611 0.7076 0.0
Zn103 Zn 0.68683 0.36014 0.77127 0.0
C104 C 0.74577 0.46308 0.72338 0.0
C105 C 0.59499 0.29583 0.7367 0.0
O106 O 0.71819 0.32444 0.78327 0.0
O107 O 0.70923 0.33417 0.83621 0.0
C108 C 0.72896 0.46578 0.81325 0.0
O109 O 0.73233 0.44339 0.75182 0.0
O110 O 0.73466 0.4332 0.69958 0.0
O111 O 0.62455 0.31175 0.70887 0.0
O112 O 0.61172 0.31003 0.76214 0.0
O113 O 0.7046 0.43752 0.83907 0.0
O114 O 0.72817 0.4442 0.78541 0.0
O115 O 0.60564 0.31526 0.79575 0.0
O116 O 0.59737 0.31041 0.84812 0.0
C117 C 0.57796 0.29926 0.82498 0.0
O118 O 0.7241 0.32302 0.74964 0.0
O119 O 0.72826 0.32112 0.69734 0.0
C120 C 0.72446 0.31933 0.80992 0.0
C121 C 0.73656 0.31095 0.72048 0.0
H122 H 0.19787 0.94484 0.11706 0.0
H123 H 0.21778 0.90901 0.14986 0.0
H124 H 0.06155 0.79156 0.1933 0.0
H125 H 0.04101 0.8267 0.16008 0.0
H126 H 0.13518 0.84925 0.23755 0.0
H127 H 0.18031 0.75491 0.12859 0.0
H128 H 0.20836 0.82392 0.12369 0.0
H129 H 0.14204 0.77512 0.13123 0.0
C130 C 0.16763 0.91129 0.1335 0.0
C131 C 0.11778 0.88807 0.13552 0.0
C132 C 0.17914 0.89124 0.15246 0.0
C133 C 0.14114 0.84762 0.17387 0.0
C134 C 0.09138 0.82549 0.177 0.0
H135 H 0.18754 0.64341 0.23433 0.0
H136 H 0.14773 0.67714 0.22216 0.0
C137 C 0.07975 0.84556 0.15798 0.0
C138 C 0.15364 0.82255 0.19063 0.0
H139 H 0.20011 0.75304 0.17549 0.0
C140 C 0.14906 0.82783 0.22417 0.0
C141 C 0.17135 0.79441 0.17306 0.0
C142 C 0.17556 0.78624 0.13719 0.0
C143 C 0.16281 0.8064 0.24048 0.0
C144 C 0.1818 0.77946 0.22262 0.0
C145 C 0.18549 0.77362 0.18921 0.0
C146 C 0.19868 0.75694 0.23743 0.0
C147 C 0.15659 0.81237 0.27657 0.0
C148 C 0.23935 0.79001 0.25134 0.0
C149 C 0.26176 0.77042 0.25871 0.0
C150 C 0.2439 0.71775 0.25201 0.0
C151 C 0.20159 0.68406 0.23991 0.0
C152 C 0.17895 0.70334 0.23292 0.0
H153 H 0.1296 0.82086 0.28785 0.0
H154 H 0.14386 0.77596 0.28843 0.0
H155 H 0.19297 0.84604 0.28138 0.0
H156 H 0.25585 0.83173 0.25446 0.0
H157 H 0.29488 0.79721 0.26758 0.0
H158 H 0.19115 0.98422 0.6479 0.0
H159 H 0.25154 0.00349 0.67539 0.0
H160 H 0.25158 0.13137 0.72468 0.0
H161 H 0.19036 0.11101 0.6984 0.0
H162 H 0.34002 0.08759 0.66529 0.0
H163 H 0.2618 0.07989 0.79642 0.0
H164 H 0.22331 0.05101 0.76823 0.0
H165 H 0.25589 0.12048 0.77748 0.0
C166 C 0.20318 0.01548 0.66529 0.0
C167 C 0.18598 0.046 0.6711 0.0
C168 C 0.2375 0.02635 0.68109 0.0
C169 C 0.25566 0.06836 0.70265 0.0
C170 C 0.23701 0.09752 0.70922 0.0
H171 H 0.54806 0.30971 0.70555 0.0
H172 H 0.46162 0.24651 0.70241 0.0
C173 C 0.20222 0.08613 0.69389 0.0
C174 C 0.2999 0.08795 0.71375 0.0
H175 H 0.35318 0.14682 0.77733 0.0
C176 C 0.34222 0.09892 0.69007 0.0
C177 C 0.30319 0.10233 0.74614 0.0
C178 C 0.2583 0.08714 0.7735 0.0
C179 C 0.38835 0.12768 0.6972 0.0
C180 C 0.3927 0.14732 0.72861 0.0
C181 C 0.34987 0.13263 0.75307 0.0
C182 C 0.44223 0.18767 0.73493 0.0
C183 C 0.43266 0.13897 0.67056 0.0
C184 C 0.45908 0.17646 0.75556 0.0
C185 C 0.5086 0.21293 0.75758 0.0
C186 C 0.54131 0.26085 0.73913 0.0
C187 C 0.52347 0.27291 0.71989 0.0
C188 C 0.47425 0.23687 0.71806 0.0
H189 H 0.42101 0.10845 0.65176 0.0
H190 H 0.45257 0.17809 0.65865 0.0
H191 H 0.45904 0.14033 0.68032 0.0
H192 H 0.43473 0.13872 0.76886 0.0
H193 H 0.52186 0.20276 0.77236 0.0
H194 H 0.01194 0.16164 0.09552 0.0
H195 H 0.04521 0.23173 0.13452 0.0
H196 H 0.15715 0.21325 0.12984 0.0
H197 H 0.124 0.14276 0.09109 0.0
H198 H 0.10907 0.22382 0.19483 0.0
H199 H 0.17987 0.38042 0.10636 0.0
H200 H 0.115 0.32491 0.11294 0.0
H201 H 0.16126 0.31505 0.0942 0.0
C202 C 0.04367 0.17243 0.10271 0.0
C203 C 0.06561 0.1469 0.08987 0.0
C204 C 0.06252 0.21241 0.12508 0.0
C205 C 0.10374 0.22775 0.13488 0.0
C206 C 0.12519 0.20179 0.12261 0.0
H207 H 0.32251 0.51996 0.2022 0.0
H208 H 0.27401 0.4305 0.18168 0.0
C209 C 0.10638 0.16179 0.10027 0.0
C210 C 0.12641 0.27292 0.15647 0.0
H211 H 0.19162 0.40746 0.15862 0.0
C212 C 0.12686 0.26398 0.1871 0.0
C213 C 0.14979 0.32518 0.14612 0.0
C214 C 0.15196 0.33733 0.11304 0.0
C215 C 0.15063 0.30636 0.20756 0.0
C216 C 0.17438 0.3585 0.19694 0.0
C217 C 0.17313 0.36719 0.16662 0.0
C218 C 0.20416 0.40574 0.21542 0.0
C219 C 0.15171 0.29575 0.23987 0.0
C220 C 0.18117 0.42034 0.24227 0.0
C221 C 0.20906 0.47158 0.25426 0.0
C222 C 0.25989 0.50847 0.2392 0.0
C223 C 0.28333 0.4921 0.21417 0.0
C224 C 0.25572 0.44111 0.20244 0.0
H225 H 0.13414 0.25325 0.24374 0.0
H226 H 0.19077 0.32045 0.24168 0.0
H227 H 0.13171 0.30724 0.25958 0.0
H228 H 0.14127 0.39364 0.25235 0.0
H229 H 0.1902 0.48365 0.27338 0.0
H230 H 0.91474 0.09365 0.54969 0.0
H231 H 0.87994 0.13756 0.58239 0.0
H232 H 0.90855 0.11762 0.66695 0.0
H233 H 0.94344 0.07386 0.6346 0.0
H234 H 0.80946 0.08858 0.6753 0.0
H235 H 0.96538 0.2902 0.61972 0.0
H236 H 0.93983 0.2381 0.59148 0.0
H237 H 0.97118 0.23764 0.61711 0.0
C238 C 0.91341 0.09835 0.57526 0.0
C239 C 0.93208 0.08045 0.58948 0.0
C240 C 0.89381 0.12371 0.59385 0.0
C241 C 0.89233 0.13137 0.62695 0.0
C242 C 0.90969 0.11235 0.64139 0.0
H243 H 0.81458 0.33409 0.73976 0.0
H244 H 0.85398 0.2895 0.72292 0.0
C245 C 0.92965 0.0874 0.62282 0.0
C246 C 0.87251 0.15915 0.64649 0.0
H247 H 0.89221 0.27818 0.65301 0.0
C248 C 0.8278 0.13019 0.67072 0.0
C249 C 0.89701 0.21362 0.64084 0.0
C250 C 0.94626 0.24701 0.61608 0.0
C251 C 0.80552 0.15367 0.68823 0.0
C252 C 0.82861 0.20731 0.68126 0.0
C253 C 0.87464 0.23702 0.65827 0.0
C254 C 0.80277 0.23129 0.69444 0.0
C255 C 0.75669 0.12056 0.71337 0.0
C256 C 0.76114 0.21312 0.68406 0.0
C257 C 0.73918 0.23859 0.69332 0.0
C258 C 0.75806 0.28233 0.71346 0.0
C259 C 0.79911 0.29998 0.72452 0.0
C260 C 0.82158 0.27473 0.71489 0.0
H261 H 0.75148 0.08657 0.72269 0.0
H262 H 0.75418 0.14483 0.73404 0.0
H263 H 0.72577 0.10434 0.70222 0.0
H264 H 0.74659 0.18019 0.66789 0.0
H265 H 0.70769 0.2245 0.68438 0.0
H266 H 0.85634 0.84933 0.09349 0.0
H267 H 0.77189 0.81454 0.12577 0.0
H268 H 0.80735 0.96835 0.11941 0.0
H269 H 0.89171 0.00333 0.08705 0.0
H270 H 0.75586 0.91307 0.18543 0.0
H271 H 0.66406 0.79222 0.08709 0.0
H272 H 0.70681 0.78515 0.09511 0.0
H273 H 0.72964 0.84723 0.07905 0.0
C274 C 0.84605 0.87563 0.09893 0.0
C275 C 0.88045 0.92893 0.08773 0.0
C276 C 0.79791 0.85577 0.11737 0.0
C277 C 0.78351 0.88893 0.12493 0.0
C278 C 0.81788 0.94224 0.11391 0.0
H279 H 0.49503 0.8169 0.189 0.0
H280 H 0.58321 0.85697 0.16611 0.0
C281 C 0.8659 0.96204 0.09532 0.0
C282 C 0.73216 0.8677 0.14363 0.0
H283 H 0.61193 0.7857 0.13794 0.0
C284 C 0.72428 0.88501 0.17519 0.0
C285 C 0.69127 0.83155 0.13 0.0
C286 C 0.69804 0.81303 0.09588 0.0
C287 C 0.67624 0.86671 0.19355 0.0
C288 C 0.63545 0.83049 0.17987 0.0
C289 C 0.64341 0.8133 0.14835 0.0
C290 C 0.58422 0.81133 0.19713 0.0
C291 C 0.66927 0.88709 0.22703 0.0
C292 C 0.55585 0.77291 0.22248 0.0
C293 C 0.50525 0.74964 0.23547 0.0
C294 C 0.4826 0.76495 0.2235 0.0
C295 C 0.51165 0.80471 0.19888 0.0
C296 C 0.56196 0.82764 0.18581 0.0
H297 H 0.70513 0.91726 0.23363 0.0
H298 H 0.65014 0.90485 0.22861 0.0
H299 H 0.64513 0.85352 0.24506 0.0
H300 H 0.57227 0.7593 0.2312 0.0
H301 H 0.48342 0.71815 0.25387 0.0
H302 H 0.91738 0.82108 0.54166 0.0
H303 H 0.89295 0.75667 0.58112 0.0
H304 H 0.92636 0.87334 0.65512 0.0
H305 H 0.95006 0.93795 0.61565 0.0
H306 H 0.94631 0.76014 0.61899 0.0
H307 H 0.78201 0.74701 0.6953 0.0
H308 H 0.81392 0.7781 0.65529 0.0
H309 H 0.84117 0.81196 0.68866 0.0
C310 C 0.91953 0.83307 0.56634 0.0
C311 C 0.9352 0.88436 0.57566 0.0
C312 C 0.90575 0.79628 0.58884 0.0
C313 C 0.90727 0.80992 0.62118 0.0
C314 C 0.92411 0.86164 0.63044 0.0
H315 H 0.83187 0.55178 0.73771 0.0
H316 H 0.87577 0.64445 0.72079 0.0
C317 C 0.93786 0.89857 0.60785 0.0
C318 C 0.88978 0.76892 0.6449 0.0
H319 H 0.79317 0.68799 0.70846 0.0
C320 C 0.91335 0.7449 0.63896 0.0
C321 C 0.84671 0.74912 0.67089 0.0
C322 C 0.8191 0.77246 0.67796 0.0
C323 C 0.89352 0.69985 0.65711 0.0
C324 C 0.84927 0.6787 0.68225 0.0
C325 C 0.82728 0.70454 0.68936 0.0
C326 C 0.82075 0.62518 0.69735 0.0
C327 C 0.91816 0.67312 0.64777 0.0
C328 C 0.77445 0.58419 0.69112 0.0
C329 C 0.74934 0.53201 0.70117 0.0
C330 C 0.76965 0.51958 0.71799 0.0
C331 C 0.81488 0.56071 0.72563 0.0
C332 C 0.84026 0.61337 0.71548 0.0
H333 H 0.94814 0.6904 0.6249 0.0
H334 H 0.93482 0.67778 0.66729 0.0
H335 H 0.89032 0.62993 0.64478 0.0
H336 H 0.75867 0.5922 0.67714 0.0
H337 H 0.71459 0.50089 0.69487 0.0
H338 H 0.11613 0.96215 0.50757 0.0
H339 H 0.15283 0.91987 0.47548 0.0
H340 H 0.07972 0.88765 0.40142 0.0
H341 H 0.04389 0.93077 0.43283 0.0
H342 H 0.10461 0.81727 0.45651 0.0
H343 H 0.22066 0.95373 0.34796 0.0
H344 H 0.19333 0.97013 0.38528 0.0
H345 H 0.15605 0.92567 0.35791 0.0
C346 C 0.10821 0.9465 0.48433 0.0
C347 C 0.07726 0.95014 0.47274 0.0
C348 C 0.12918 0.92232 0.46601 0.0
C349 C 0.11967 0.90134 0.43578 0.0
C350 C 0.08864 0.90472 0.42424 0.0
H351 H 0.19926 0.70165 0.31988 0.0
H352 H 0.15914 0.74519 0.3391 0.0
C353 C 0.06791 0.92915 0.44241 0.0
C354 C 0.14037 0.87374 0.41717 0.0
H355 H 0.21637 0.87668 0.34545 0.0
C356 C 0.1289 0.83023 0.43221 0.0
C357 C 0.17178 0.89041 0.3853 0.0
C358 C 0.1866 0.93781 0.36821 0.0
C359 C 0.1487 0.8036 0.41653 0.0
C360 C 0.18088 0.82098 0.38507 0.0
C361 C 0.19135 0.86341 0.36954 0.0
C362 C 0.20808 0.79908 0.36985 0.0
C363 C 0.13616 0.75773 0.43392 0.0
C364 C 0.24932 0.81603 0.38022 0.0
C365 C 0.27234 0.79183 0.3691 0.0
C366 C 0.25475 0.75042 0.34722 0.0
C367 C 0.21434 0.73449 0.336 0.0
C368 C 0.19122 0.75893 0.34716 0.0
H369 H 0.10492 0.74395 0.45602 0.0
H370 H 0.12615 0.72387 0.41757 0.0
H371 H 0.16931 0.7703 0.44116 0.0
H372 H 0.2627 0.84692 0.39777 0.0
H373 H 0.30335 0.80476 0.37818 0.0
H374 H 0.13006 0.05395 0.9832 0.0
H375 H 0.214 0.08816 0.9501 0.0
H376 H 0.20755 0.17602 0.88882 0.0
H377 H 0.12391 0.14235 0.922 0.0
H378 H 0.24915 0.08135 0.88176 0.0
H379 H 0.33489 0.29 0.91933 0.0
H380 H 0.27398 0.23451 0.94077 0.0
H381 H 0.28225 0.2593 0.90302 0.0
C382 C 0.14659 0.08048 0.96263 0.0
C383 C 0.12077 0.09587 0.95525 0.0
C384 C 0.1944 0.09985 0.9437 0.0
C385 C 0.21722 0.13511 0.91723 0.0
C386 C 0.19095 0.14952 0.90942 0.0
H387 H 0.52666 0.31602 0.79917 0.0
H388 H 0.4368 0.27225 0.81605 0.0
C389 C 0.14318 0.13017 0.92833 0.0
C390 C 0.26898 0.15783 0.89836 0.0
H391 H 0.38737 0.27399 0.88131 0.0
C392 C 0.27935 0.1235 0.88152 0.0
C393 C 0.30829 0.21289 0.89791 0.0
C394 C 0.29963 0.25142 0.91639 0.0
C395 C 0.32816 0.14272 0.8646 0.0
C396 C 0.36758 0.19751 0.86497 0.0
C397 C 0.357 0.23203 0.88096 0.0
C398 C 0.4205 0.21928 0.85163 0.0
C399 C 0.33722 0.10423 0.84669 0.0
C400 C 0.44094 0.20374 0.86586 0.0
C401 C 0.492 0.2287 0.85636 0.0
C402 C 0.52353 0.26934 0.83223 0.0
C403 C 0.50296 0.2841 0.81741 0.0
C404 C 0.45179 0.25934 0.82711 0.0
H405 H 0.30326 0.06846 0.84004 0.0
H406 H 0.36803 0.12316 0.82435 0.0
H407 H 0.34771 0.09103 0.86258 0.0
H408 H 0.41766 0.17368 0.88525 0.0
H409 H 0.50704 0.21694 0.86835 0.0
H410 H 0.09864 0.21303 0.51798 0.0
H411 H 0.12636 0.27797 0.4775 0.0
H412 H 0.0903 0.15954 0.40456 0.0
H413 H 0.06283 0.09416 0.44508 0.0
H414 H 0.20447 0.307 0.41608 0.0
H415 H 0.02048 0.22737 0.39968 0.0
H416 H 0.02605 0.21224 0.43582 0.0
H417 H 0.03492 0.18227 0.39852 0.0
C418 C 0.09645 0.2007 0.49335 0.0
C419 C 0.07854 0.14853 0.48468 0.0
C420 C 0.11229 0.23783 0.47026 0.0
C421 C 0.11016 0.22349 0.4381 0.0
C422 C 0.09179 0.17124 0.42934 0.0
H423 H 0.2718 0.49414 0.30026 0.0
H424 H 0.2332 0.40334 0.31732 0.0
C425 C 0.07615 0.134 0.45248 0.0
C426 C 0.12886 0.26435 0.41392 0.0
H427 H 0.09047 0.30936 0.3735 0.0
C428 C 0.17979 0.30713 0.40619 0.0
C429 C 0.09641 0.26425 0.40122 0.0
C430 C 0.04132 0.21931 0.40917 0.0
C431 C 0.19892 0.3511 0.3873 0.0
C432 C 0.16621 0.3521 0.37559 0.0
C433 C 0.11552 0.30822 0.3822 0.0
C434 C 0.18276 0.4016 0.3611 0.0
C435 C 0.25345 0.39765 0.38175 0.0
C436 C 0.16543 0.42947 0.3791 0.0
C437 C 0.18707 0.48082 0.36933 0.0
C438 C 0.22619 0.50524 0.34114 0.0
C439 C 0.24121 0.47598 0.3218 0.0
C440 C 0.21955 0.42438 0.33171 0.0
H441 H 0.27226 0.3933 0.39602 0.0
H442 H 0.2724 0.40105 0.3557 0.0
H443 H 0.2582 0.43523 0.3883 0.0
H444 H 0.13713 0.41274 0.40183 0.0
H445 H 0.17473 0.50245 0.38468 0.0
H446 H 0.9368 0.17736 0.90079 0.0
H447 H 0.9126 0.20907 0.86847 0.0
H448 H 0.76518 0.05962 0.88656 0.0
H449 H 0.78912 0.02731 0.91874 0.0
H450 H 0.86531 0.16781 0.81313 0.0
H451 H 0.74883 0.17544 0.92962 0.0
H452 H 0.79606 0.16853 0.92811 0.0
H453 H 0.73753 0.11256 0.92059 0.0
C454 C 0.8996 0.15065 0.89722 0.0
C455 C 0.86468 0.10001 0.91274 0.0
C456 C 0.88585 0.1689 0.87873 0.0
C457 C 0.83699 0.13689 0.87541 0.0
C458 C 0.80296 0.08512 0.88911 0.0
H459 H 0.70872 0.22909 0.78104 0.0
H460 H 0.73889 0.18265 0.79151 0.0
C461 C 0.81662 0.06687 0.90765 0.0
C462 C 0.82015 0.15997 0.86119 0.0
H463 H 0.74947 0.20333 0.88249 0.0
C464 C 0.83965 0.17521 0.82813 0.0
C465 C 0.78704 0.16998 0.88096 0.0
C466 C 0.7663 0.15623 0.91684 0.0
C467 C 0.82708 0.20071 0.81445 0.0
C468 C 0.79446 0.21118 0.83443 0.0
C469 C 0.7744 0.19506 0.86725 0.0
C470 C 0.78317 0.24243 0.82291 0.0
C471 C 0.84985 0.21796 0.77913 0.0
C472 C 0.79875 0.29164 0.8366 0.0
C473 C 0.78159 0.31785 0.83075 0.0
C474 C 0.74871 0.29558 0.81092 0.0
C475 C 0.73482 0.24749 0.79593 0.0
C476 C 0.75199 0.22101 0.80189 0.0
H477 H 0.87856 0.21195 0.76771 0.0
H478 H 0.8203 0.19476 0.7659 0.0
H479 H 0.86699 0.26056 0.77633 0.0
H480 H 0.82259 0.3087 0.85299 0.0
H481 H 0.79264 0.35476 0.8427 0.0
H482 H 0.85701 0.98325 0.35483 0.0
H483 H 0.80087 0.9604 0.3225 0.0
H484 H 0.69597 0.95012 0.40924 0.0
H485 H 0.75274 0.97523 0.44144 0.0
H486 H 0.71331 0.86728 0.32803 0.0
H487 H 0.68322 0.01909 0.34785 0.0
H488 H 0.73497 0.02993 0.35728 0.0
H489 H 0.67488 0.99597 0.38612 0.0
C490 C 0.82286 0.97817 0.36689 0.0
C491 C 0.80923 0.98077 0.4008 0.0
C492 C 0.79065 0.96476 0.34835 0.0
C493 C 0.74434 0.95397 0.36332 0.0
C494 C 0.73191 0.95941 0.39694 0.0
H495 H 0.45811 0.71095 0.35267 0.0
H496 H 0.54551 0.7704 0.35348 0.0
C497 C 0.76414 0.97303 0.41545 0.0
C498 C 0.7059 0.92932 0.3451 0.0
H499 H 0.61237 0.92915 0.33845 0.0
C500 C 0.6921 0.88165 0.32954 0.0
C501 C 0.67873 0.94838 0.34628 0.0
C502 C 0.69418 1.00151 0.35998 0.0
C503 C 0.64915 0.8501 0.31806 0.0
C504 C 0.61875 0.86616 0.32281 0.0
C505 C 0.63516 0.91628 0.33537 0.0
C506 C 0.567 0.82869 0.31946 0.0
C507 C 0.63568 0.79863 0.30235 0.0
C508 C 0.54968 0.84217 0.30058 0.0
C509 C 0.49934 0.80828 0.30041 0.0
C510 C 0.46584 0.76056 0.31905 0.0
C511 C 0.48334 0.74721 0.33777 0.0
C512 C 0.53337 0.78091 0.33799 0.0
H513 H 0.66972 0.80289 0.28819 0.0
H514 H 0.61586 0.76735 0.3215 0.0
H515 H 0.61131 0.78522 0.28605 0.0
H516 H 0.57488 0.87919 0.28646 0.0
H517 H 0.48638 0.81994 0.28637 0.0
H518 H 0.01597 0.89093 0.94851 0.0
H519 H 0.98607 0.8208 0.90911 0.0
H520 H 0.86109 0.8203 0.91945 0.0
H521 H 0.89115 0.89102 0.95815 0.0
H522 H 0.90061 0.7226 0.9193 0.0
H523 H 0.90626 0.82104 0.82241 0.0
H524 H 0.93727 0.85753 0.85423 0.0
H525 H 0.87174 0.82463 0.86114 0.0
C526 C 0.98238 0.87629 0.94217 0.0
C527 C 0.956 0.8967 0.95652 0.0
C528 C 0.96542 0.83628 0.91956 0.0
C529 C 0.92187 0.81599 0.91079 0.0
C530 C 0.89558 0.83638 0.92504 0.0
H531 H 0.69975 0.52495 0.84426 0.0
H532 H 0.75343 0.61635 0.86168 0.0
C533 C 0.91262 0.87654 0.94747 0.0
C534 C 0.90145 0.77039 0.889 0.0
H535 H 0.85346 0.72498 0.8228 0.0
C536 C 0.89125 0.72351 0.89784 0.0
C537 C 0.88927 0.77156 0.86093 0.0
C538 C 0.9022 0.82161 0.84892 0.0
C539 C 0.86706 0.67715 0.88035 0.0
C540 C 0.85283 0.6777 0.85326 0.0
C541 C 0.86441 0.72485 0.84366 0.0
C542 C 0.82213 0.62806 0.8367 0.0
C543 C 0.85486 0.62706 0.89168 0.0
C544 C 0.84327 0.60542 0.81592 0.0
C545 C 0.81264 0.5534 0.80576 0.0
C546 C 0.76069 0.52374 0.8162 0.0
C547 C 0.73978 0.54759 0.83545 0.0
C548 C 0.77033 0.59961 0.84542 0.0
H549 H 0.86574 0.63244 0.91442 0.0
H550 H 0.81432 0.59437 0.89578 0.0
H551 H 0.87465 0.6146 0.87265 0.0
H552 H 0.88321 0.62673 0.80925 0.0
H553 H 0.8294 0.53508 0.79179 0.0
loop_
_geom_bond_atom_site_label_1
_geom_bond_atom_site_label_2
_geom_bond_distance
_geom_bond_site_symmetry_2
_ccdc_geom_bond_type
C0 Eu1 2.835 . S
C0 C2 1.500 . S
C0 O20 1.257 . S
C0 O21 1.260 . S
Eu1 C0 2.835 . S
Eu1 O20 2.473 . S
Eu1 O21 2.480 . S
Eu1 O22 2.430 1_455 S
Eu1 O23 2.670 1_455 S
Eu1 O24 2.394 1_455 S
Eu1 O29 2.355 1_564 S
Eu1 O31 2.374 1_565 S
C2 C0 1.500 . S
C2 C3 1.377 . S
C2 C7 1.377 . S
C3 C2 1.377 . S
C3 C4 1.395 . S
C3 H32 0.931 1_455 S
C4 C3 1.395 . S
C4 C5 1.383 . S
C4 H33 0.931 . S
C5 C4 1.383 . S
C5 C6 1.394 . S
C6 C5 1.394 . S
C6 C7 1.378 . S
C6 H34 0.931 . S
C7 C2 1.377 . S
C7 C6 1.378 . S
C7 H35 0.931 . S
C8 O22 1.259 . S
C8 O23 1.270 . S
C9 O24 1.251 1_556 S
C9 O25 1.251 . S
C10 Eu11 2.835 . S
C10 C12 1.500 . S
C10 O26 1.257 . S
C10 O27 1.260 1_655 S
Eu11 C10 2.835 . S
Eu11 O23 2.355 1_546 S
Eu11 O25 2.374 1_545 S
Eu11 O26 2.473 . S
Eu11 O27 2.480 1_655 S
Eu11 O28 2.430 1_655 S
Eu11 O29 2.670 1_655 S
Eu11 O30 2.394 1_656 S
C12 C10 1.500 . S
C12 C13 1.377 . S
C12 C17 1.377 . S
C13 C12 1.377 . S
C13 C14 1.395 . S
C13 H36 0.931 1_655 S
C14 C13 1.395 . S
C14 C15 1.383 . S
C14 H37 0.931 1_655 S
C15 C14 1.383 . S
C15 C16 1.394 . S
C16 C15 1.394 . S
C16 C17 1.378 . S
C16 H38 0.931 . S
C17 C12 1.377 . S
C17 C16 1.378 . S
C17 H39 0.931 . S
C18 O28 1.259 . S
C18 O29 1.270 . S
C19 O30 1.251 . S
C19 O31 1.251 . S
O20 C0 1.257 . S
O20 Eu1 2.473 . S
O21 C0 1.260 . S
O21 Eu1 2.480 . S
O22 Eu1 2.430 1_655 S
O22 C8 1.259 . S
O23 Eu1 2.670 1_655 S
O23 C8 1.270 . S
O23 Eu11 2.355 1_564 S
O24 Eu1 2.394 1_655 S
O24 C9 1.251 1_554 S
O25 C9 1.251 . S
O25 Eu11 2.374 1_565 S
O26 C10 1.257 . S
O26 Eu11 2.473 . S
O27 C10 1.260 1_455 S
O27 Eu11 2.480 1_455 S
O28 Eu11 2.430 1_455 S
O28 C18 1.259 . S
O29 Eu1 2.355 1_546 S
O29 Eu11 2.670 1_455 S
O29 C18 1.270 . S
O30 Eu11 2.394 1_454 S
O30 C19 1.251 . S
O31 Eu1 2.374 1_545 S
O31 C19 1.251 . S
H32 C3 0.931 1_655 S
H33 C4 0.931 . S
H34 C6 0.931 . S
H35 C7 0.931 . S
H36 C13 0.931 1_455 S
H37 C14 0.931 1_455 S
H38 C16 0.931 . S
H39 C17 0.931 . S
C40 Eu41 2.835 . S
C40 C42 1.500 . S
C40 O60 1.257 . S
C40 O61 1.260 . S
Eu41 C40 2.835 . S
Eu41 O60 2.473 . S
Eu41 O61 2.480 . S
Eu41 O62 2.430 . S
Eu41 O63 2.670 1_655 S
Eu41 O64 2.394 . S
Eu41 O69 2.355 1_665 S
Eu41 O71 2.374 1_655 S
C42 C40 1.500 . S
C42 C43 1.377 . S
C42 C47 1.377 . S
C43 C42 1.377 . S
C43 C44 1.395 . S
C43 H72 0.931 . S
C44 C43 1.395 . S
C44 C45 1.383 . S
C44 H73 0.931 . S
C45 C44 1.383 . S
C45 C46 1.394 . S
C46 C45 1.394 . S
C46 C47 1.378 . S
C46 H74 0.931 . S
C47 C42 1.377 . S
C47 C46 1.378 . S
C47 H75 0.931 1_565 S
C48 O62 1.259 . S
C48 O63 1.270 1_655 S
C49 O64 1.251 1_545 S
C49 O65 1.251 . S
C50 Eu51 2.835 . S
C50 C52 1.500 . S
C50 O66 1.257 . S
C50 O67 1.260 . S
Eu51 C50 2.835 . S
Eu51 O63 2.355 1_545 S
Eu51 O65 2.374 1_455 S
Eu51 O66 2.473 . S
Eu51 O67 2.480 . S
Eu51 O68 2.430 . S
Eu51 O69 2.670 . S
Eu51 O70 2.394 . S
C52 C50 1.500 . S
C52 C53 1.377 . S
C52 C57 1.377 . S
C53 C52 1.377 . S
C53 C54 1.395 . S
C53 H76 0.931 . S
C54 C53 1.395 . S
C54 C55 1.383 . S
C54 H77 0.931 . S
C55 C54 1.383 . S
C55 C56 1.394 . S
C56 C55 1.394 . S
C56 C57 1.378 . S
C56 H78 0.931 . S
C57 C52 1.377 . S
C57 C56 1.378 . S
C57 H79 0.931 . S
C58 O68 1.259 . S
C58 O69 1.270 . S
C59 O70 1.251 1_565 S
C59 O71 1.251 . S
O60 C40 1.257 . S
O60 Eu41 2.473 . S
O61 C40 1.260 . S
O61 Eu41 2.480 . S
O62 Eu41 2.430 . S
O62 C48 1.259 . S
O63 Eu41 2.670 1_455 S
O63 C48 1.270 1_455 S
O63 Eu51 2.355 1_565 S
O64 Eu41 2.394 . S
O64 C49 1.251 1_565 S
O65 C49 1.251 . S
O65 Eu51 2.374 1_655 S
O66 C50 1.257 . S
O66 Eu51 2.473 . S
O67 C50 1.260 . S
O67 Eu51 2.480 . S
O68 Eu51 2.430 . S
O68 C58 1.259 . S
O69 Eu41 2.355 1_445 S
O69 Eu51 2.670 . S
O69 C58 1.270 . S
O70 Eu51 2.394 . S
O70 C59 1.251 1_545 S
O71 Eu41 2.374 1_455 S
O71 C59 1.251 . S
H72 C43 0.931 . S
H73 C44 0.931 . S
H74 C46 0.931 . S
H75 C47 0.931 1_545 S
H76 C53 0.931 . S
H77 C54 0.931 . S
H78 C56 0.931 . S
H79 C57 0.931 . S
Zn80 O86 1.920 . S
Zn80 O92 1.898 . S
Zn80 O95 1.905 . S
Zn81 O89 1.905 . S
Zn81 O90 1.898 . S
Zn81 O98 1.920 . S
Zn82 O85 2.080 . S
Zn82 O88 2.114 . S
Zn82 O91 2.120 . S
Zn82 O93 2.120 . S
Zn82 O94 2.114 . S
Zn82 O97 2.080 . S
C83 O88 1.166 . S
C83 O89 1.182 . S
C84 O90 1.167 . S
C84 O91 1.299 . S
O85 Zn82 2.080 . S
O85 C99 1.305 . S
O86 Zn80 1.920 . S
O86 C99 1.234 . S
C87 O92 1.167 . S
C87 O93 1.299 . S
O88 Zn82 2.114 . S
O88 C83 1.166 . S
O89 Zn81 1.905 . S
O89 C83 1.182 . S
O90 Zn81 1.898 . S
O90 C84 1.167 . S
O91 Zn82 2.120 . S
O91 C84 1.299 . S
O92 Zn80 1.898 . S
O92 C87 1.167 . S
O93 Zn82 2.120 . S
O93 C87 1.299 . S
O94 Zn82 2.114 . S
O94 C96 1.166 . S
O95 Zn80 1.905 . S
O95 C96 1.182 . S
C96 O94 1.166 . S
C96 O95 1.182 . S
O97 Zn82 2.080 . S
O97 C100 1.305 . S
O98 Zn81 1.920 . S
O98 C100 1.234 . S
C99 O85 1.305 . S
C99 O86 1.234 . S
C100 O97 1.305 . S
C100 O98 1.234 . S
Zn101 O107 1.920 . S
Zn101 O113 1.898 . S
Zn101 O116 1.905 . S
Zn102 O110 1.905 . S
Zn102 O111 1.898 . S
Zn102 O119 1.920 . S
Zn103 O106 2.080 . S
Zn103 O109 2.114 . S
Zn103 O112 2.120 . S
Zn103 O114 2.120 . S
Zn103 O115 2.114 . S
Zn103 O118 2.080 . S
C104 O109 1.166 . S
C104 O110 1.182 . S
C105 O111 1.167 . S
C105 O112 1.299 . S
O106 Zn103 2.080 . S
O106 C120 1.305 . S
O107 Zn101 1.920 . S
O107 C120 1.234 . S
C108 O113 1.167 . S
C108 O114 1.299 . S
O109 Zn103 2.114 . S
O109 C104 1.166 . S
O110 Zn102 1.905 . S
O110 C104 1.182 . S
O111 Zn102 1.898 . S
O111 C105 1.167 . S
O112 Zn103 2.120 . S
O112 C105 1.299 . S
O113 Zn101 1.898 . S
O113 C108 1.167 . S
O114 Zn103 2.120 . S
O114 C108 1.299 . S
O115 Zn103 2.114 . S
O115 C117 1.166 . S
O116 Zn101 1.905 . S
O116 C117 1.182 . S
C117 O115 1.166 . S
C117 O116 1.182 . S
O118 Zn103 2.080 . S
O118 C121 1.305 . S
O119 Zn102 1.920 . S
O119 C121 1.234 . S
C120 O106 1.305 . S
C120 O107 1.234 . S
C121 O118 1.305 . S
C121 O119 1.234 . S
H122 C130 0.929 . S
H123 C132 0.930 . S
H124 C134 0.930 . S
H125 C137 0.929 . S
H126 C140 0.930 . S
H127 C142 0.960 . S
H128 C142 0.960 . S
H129 C142 0.960 . S
C130 H122 0.929 . S
C130 C131 1.377 . S
C130 C132 1.384 . S
C131 C130 1.377 . S
C131 C137 1.390 . S
C132 H123 0.930 . S
C132 C130 1.384 . S
C132 C133 1.372 . S
C133 C132 1.372 . S
C133 C134 1.400 . S
C133 C138 1.490 . S
C134 H124 0.930 . S
C134 C133 1.400 . S
C134 C137 1.386 . S
H135 C151 0.930 . S
H136 C152 0.931 . S
C137 H125 0.929 . S
C137 C131 1.390 . S
C137 C134 1.386 . S
C138 C133 1.490 . S
C138 C140 1.395 . S
C138 C141 1.403 . S
H139 C145 0.930 . S
C140 H126 0.930 . S
C140 C138 1.395 . S
C140 C143 1.403 . S
C141 C138 1.403 . S
C141 C142 1.524 . S
C141 C145 1.400 . S
C142 H127 0.960 . S
C142 H128 0.960 . S
C142 H129 0.960 . S
C142 C141 1.524 . S
C143 C140 1.403 . S
C143 C144 1.392 . S
C143 C147 1.495 . S
C144 C143 1.392 . S
C144 C145 1.385 . S
C144 C146 1.478 . S
C145 H139 0.930 . S
C145 C141 1.400 . S
C145 C144 1.385 . S
C146 C144 1.478 . S
C146 C148 1.381 . S
C146 C152 1.383 . S
C147 C143 1.495 . S
C147 H153 0.959 . S
C147 H154 0.961 . S
C147 H155 0.960 . S
C148 C146 1.381 . S
C148 C149 1.394 . S
C148 H156 0.930 . S
C149 C148 1.394 . S
C149 C150 1.383 . S
C149 H157 0.929 . S
C150 C149 1.383 . S
C150 C151 1.377 . S
C151 H135 0.930 . S
C151 C150 1.377 . S
C151 C152 1.379 . S
C152 H136 0.931 . S
C152 C146 1.383 . S
C152 C151 1.379 . S
H153 C147 0.959 . S
H154 C147 0.961 . S
H155 C147 0.960 . S
H156 C148 0.930 . S
H157 C149 0.929 . S
H158 C166 0.929 . S
H159 C168 0.930 . S
H160 C170 0.930 . S
H161 C173 0.929 . S
H162 C176 0.930 . S
H163 C178 0.960 . S
H164 C178 0.960 . S
H165 C178 0.960 . S
C166 H158 0.929 . S
C166 C167 1.377 . S
C166 C168 1.384 . S
C167 C166 1.377 . S
C167 C173 1.390 . S
C168 H159 0.930 . S
C168 C166 1.384 . S
C168 C169 1.372 . S
C169 C168 1.372 . S
C169 C170 1.400 . S
C169 C174 1.490 . S
C170 H160 0.930 . S
C170 C169 1.400 . S
C170 C173 1.386 . S
H171 C187 0.930 . S
H172 C188 0.931 . S
C173 H161 0.929 . S
C173 C167 1.390 . S
C173 C170 1.386 . S
C174 C169 1.490 . S
C174 C176 1.395 . S
C174 C177 1.403 . S
H175 C181 0.930 . S
C176 H162 0.930 . S
C176 C174 1.395 . S
C176 C179 1.403 . S
C177 C174 1.403 . S
C177 C178 1.524 . S
C177 C181 1.400 . S
C178 H163 0.960 . S
C178 H164 0.960 . S
C178 H165 0.960 . S
C178 C177 1.524 . S
C179 C176 1.403 . S
C179 C180 1.392 . S
C179 C183 1.495 . S
C180 C179 1.392 . S
C180 C181 1.385 . S
C180 C182 1.478 . S
C181 H175 0.930 . S
C181 C177 1.400 . S
C181 C180 1.385 . S
C182 C180 1.478 . S
C182 C184 1.381 . S
C182 C188 1.383 . S
C183 C179 1.495 . S
C183 H189 0.959 . S
C183 H190 0.961 . S
C183 H191 0.960 . S
C184 C182 1.381 . S
C184 C185 1.394 . S
C184 H192 0.930 . S
C185 C184 1.394 . S
C185 C186 1.383 . S
C185 H193 0.929 . S
C186 C185 1.383 . S
C186 C187 1.377 . S
C187 H171 0.930 . S
C187 C186 1.377 . S
C187 C188 1.379 . S
C188 H172 0.931 . S
C188 C182 1.383 . S
C188 C187 1.379 . S
H189 C183 0.959 . S
H190 C183 0.961 . S
H191 C183 0.960 . S
H192 C184 0.930 . S
H193 C185 0.929 . S
H194 C202 0.929 . S
H195 C204 0.930 . S
H196 C206 0.930 . S
H197 C209 0.929 . S
H198 C212 0.930 . S
H199 C214 0.960 . S
H200 C214 0.960 . S
H201 C214 0.960 . S
C202 H194 0.929 . S
C202 C203 1.377 . S
C202 C204 1.384 . S
C203 C202 1.377 . S
C203 C209 1.390 . S
C204 H195 0.930 . S
C204 C202 1.384 . S
C204 C205 1.372 . S
C205 C204 1.372 . S
C205 C206 1.400 . S
C205 C210 1.490 . S
C206 H196 0.930 . S
C206 C205 1.400 . S
C206 C209 1.386 . S
H207 C223 0.930 . S
H208 C224 0.931 . S
C209 H197 0.929 . S
C209 C203 1.390 . S
C209 C206 1.386 . S
C210 C205 1.490 . S
C210 C212 1.395 . S
C210 C213 1.403 . S
H211 C217 0.930 . S
C212 H198 0.930 . S
C212 C210 1.395 . S
C212 C215 1.403 . S
C213 C210 1.403 . S
C213 C214 1.524 . S
C213 C217 1.400 . S
C214 H199 0.960 . S
C214 H200 0.960 . S
C214 H201 0.960 . S
C214 C213 1.524 . S
C215 C212 1.403 . S
C215 C216 1.392 . S
C215 C219 1.495 . S
C216 C215 1.392 . S
C216 C217 1.385 . S
C216 C218 1.478 . S
C217 H211 0.930 . S
C217 C213 1.400 . S
C217 C216 1.385 . S
C218 C216 1.478 . S
C218 C220 1.381 . S
C218 C224 1.383 . S
C219 C215 1.495 . S
C219 H225 0.959 . S
C219 H226 0.961 . S
C219 H227 0.960 . S
C220 C218 1.381 . S
C220 C221 1.394 . S
C220 H228 0.930 . S
C221 C220 1.394 . S
C221 C222 1.383 . S
C221 H229 0.929 . S
C222 C221 1.383 . S
C222 C223 1.377 . S
C223 H207 0.930 . S
C223 C222 1.377 . S
C223 C224 1.379 . S
C224 H208 0.931 . S
C224 C218 1.383 . S
C224 C223 1.379 . S
H225 C219 0.959 . S
H226 C219 0.961 . S
H227 C219 0.960 . S
H228 C220 0.930 . S
H229 C221 0.929 . S
H230 C238 0.929 . S
H231 C240 0.930 . S
H232 C242 0.930 . S
H233 C245 0.929 . S
H234 C248 0.930 . S
H235 C250 0.960 . S
H236 C250 0.960 . S
H237 C250 0.960 . S
C238 H230 0.929 . S
C238 C239 1.377 . S
C238 C240 1.384 . S
C239 C238 1.377 . S
C239 C245 1.390 . S
C240 H231 0.930 . S
C240 C238 1.384 . S
C240 C241 1.372 . S
C241 C240 1.372 . S
C241 C242 1.400 . S
C241 C246 1.490 . S
C242 H232 0.930 . S
C242 C241 1.400 . S
C242 C245 1.386 . S
H243 C259 0.930 . S
H244 C260 0.931 . S
C245 H233 0.929 . S
C245 C239 1.390 . S
C245 C242 1.386 . S
C246 C241 1.490 . S
C246 C248 1.395 . S
C246 C249 1.403 . S
H247 C253 0.930 . S
C248 H234 0.930 . S
C248 C246 1.395 . S
C248 C251 1.403 . S
C249 C246 1.403 . S
C249 C250 1.524 . S
C249 C253 1.400 . S
C250 H235 0.960 . S
C250 H236 0.960 . S
C250 H237 0.960 . S
C250 C249 1.524 . S
C251 C248 1.403 . S
C251 C252 1.392 . S
C251 C255 1.495 . S
C252 C251 1.392 . S
C252 C253 1.385 . S
C252 C254 1.478 . S
C253 H247 0.930 . S
C253 C249 1.400 . S
C253 C252 1.385 . S
C254 C252 1.478 . S
C254 C256 1.381 . S
C254 C260 1.383 . S
C255 C251 1.495 . S
C255 H261 0.959 . S
C255 H262 0.961 . S
C255 H263 0.960 . S
C256 C254 1.381 . S
C256 C257 1.394 . S
C256 H264 0.930 . S
C257 C256 1.394 . S
C257 C258 1.383 . S
C257 H265 0.929 . S
C258 C257 1.383 . S
C258 C259 1.377 . S
C259 H243 0.930 . S
C259 C258 1.377 . S
C259 C260 1.379 . S
C260 H244 0.931 . S
C260 C254 1.383 . S
C260 C259 1.379 . S
H261 C255 0.959 . S
H262 C255 0.961 . S
H263 C255 0.960 . S
H264 C256 0.930 . S
H265 C257 0.929 . S
H266 C274 0.929 . S
H267 C276 0.930 . S
H268 C278 0.930 . S
H269 C281 0.933 . S
H270 C284 0.930 . S
H271 C286 0.960 . S
H272 C286 0.960 . S
H273 C286 0.960 . S
C274 H266 0.929 . S
C274 C275 1.377 . S
C274 C276 1.384 . S
C275 C274 1.377 . S
C275 C281 1.390 . S
C276 H267 0.930 . S
C276 C274 1.384 . S
C276 C277 1.372 . S
C277 C276 1.372 . S
C277 C278 1.400 . S
C277 C282 1.490 . S
C278 H268 0.930 . S
C278 C277 1.400 . S
C278 C281 1.386 . S
H279 C295 0.930 . S
H280 C296 0.931 . S
C281 H269 0.933 . S
C281 C275 1.390 . S
C281 C278 1.386 . S
C282 C277 1.490 . S
C282 C284 1.395 . S
C282 C285 1.403 . S
H283 C289 0.930 . S
C284 H270 0.930 . S
C284 C282 1.395 . S
C284 C287 1.403 . S
C285 C282 1.403 . S
C285 C286 1.524 . S
C285 C289 1.400 . S
C286 H271 0.960 . S
C286 H272 0.960 . S
C286 H273 0.960 . S
C286 C285 1.524 . S
C287 C284 1.403 . S
C287 C288 1.392 . S
C287 C291 1.495 . S
C288 C287 1.392 . S
C288 C289 1.385 . S
C288 C290 1.478 . S
C289 H283 0.930 . S
C289 C285 1.400 . S
C289 C288 1.385 . S
C290 C288 1.478 . S
C290 C292 1.381 . S
C290 C296 1.383 . S
C291 C287 1.495 . S
C291 H297 0.959 . S
C291 H298 0.961 . S
C291 H299 0.960 . S
C292 C290 1.381 . S
C292 C293 1.394 . S
C292 H300 0.930 . S
C293 C292 1.394 . S
C293 C294 1.383 . S
C293 H301 0.929 . S
C294 C293 1.383 . S
C294 C295 1.377 . S
C295 H279 0.930 . S
C295 C294 1.377 . S
C295 C296 1.379 . S
C296 H280 0.931 . S
C296 C290 1.383 . S
C296 C295 1.379 . S
H297 C291 0.959 . S
H298 C291 0.961 . S
H299 C291 0.960 . S
H300 C292 0.930 . S
H301 C293 0.929 . S
H302 C310 0.929 . S
H303 C312 0.930 . S
H304 C314 0.930 . S
H305 C317 0.929 . S
H306 C320 0.930 . S
H307 C322 0.960 . S
H308 C322 0.960 . S
H309 C322 0.960 . S
C310 H302 0.929 . S
C310 C311 1.377 . S
C310 C312 1.384 . S
C311 C310 1.377 . S
C311 C317 1.390 . S
C312 H303 0.930 . S
C312 C310 1.384 . S
C312 C313 1.372 . S
C313 C312 1.372 . S
C313 C314 1.400 . S
C313 C318 1.490 . S
C314 H304 0.930 . S
C314 C313 1.400 . S
C314 C317 1.386 . S
H315 C331 0.930 . S
H316 C332 0.931 . S
C317 H305 0.929 . S
C317 C311 1.390 . S
C317 C314 1.386 . S
C318 C313 1.490 . S
C318 C320 1.395 . S
C318 C321 1.403 . S
H319 C325 0.930 . S
C320 H306 0.930 . S
C320 C318 1.395 . S
C320 C323 1.403 . S
C321 C318 1.403 . S
C321 C322 1.524 . S
C321 C325 1.400 . S
C322 H307 0.960 . S
C322 H308 0.960 . S
C322 H309 0.960 . S
C322 C321 1.524 . S
C323 C320 1.403 . S
C323 C324 1.392 . S
C323 C327 1.495 . S
C324 C323 1.392 . S
C324 C325 1.385 . S
C324 C326 1.478 . S
C325 H319 0.930 . S
C325 C321 1.400 . S
C325 C324 1.385 . S
C326 C324 1.478 . S
C326 C328 1.381 . S
C326 C332 1.383 . S
C327 C323 1.495 . S
C327 H333 0.959 . S
C327 H334 0.961 . S
C327 H335 0.960 . S
C328 C326 1.381 . S
C328 C329 1.394 . S
C328 H336 0.930 . S
C329 C328 1.394 . S
C329 C330 1.383 . S
C329 H337 0.929 . S
C330 C329 1.383 . S
C330 C331 1.377 . S
C331 H315 0.930 . S
C331 C330 1.377 . S
C331 C332 1.379 . S
C332 H316 0.931 . S
C332 C326 1.383 . S
C332 C331 1.379 . S
H333 C327 0.959 . S
H334 C327 0.961 . S
H335 C327 0.960 . S
H336 C328 0.930 . S
H337 C329 0.929 . S
H338 C346 0.929 1_545 S
H339 C348 0.930 . S
H340 C350 0.930 . S
H341 C353 0.929 . S
H342 C356 0.930 . S
H343 C358 0.960 . S
H344 C358 0.960 . S
H345 C358 0.960 . S
C346 H338 0.929 1_565 S
C346 C347 1.377 . S
C346 C348 1.384 . S
C347 C346 1.377 . S
C347 C353 1.390 . S
C348 H339 0.930 . S
C348 C346 1.384 . S
C348 C349 1.372 . S
C349 C348 1.372 . S
C349 C350 1.400 . S
C349 C354 1.490 . S
C350 H340 0.930 . S
C350 C349 1.400 . S
C350 C353 1.386 . S
H351 C367 0.930 . S
H352 C368 0.931 . S
C353 H341 0.929 . S
C353 C347 1.390 . S
C353 C350 1.386 . S
C354 C349 1.490 . S
C354 C356 1.395 . S
C354 C357 1.403 . S
H355 C361 0.930 . S
C356 H342 0.930 . S
C356 C354 1.395 . S
C356 C359 1.403 . S
C357 C354 1.403 . S
C357 C358 1.524 . S
C357 C361 1.400 . S
C358 H343 0.960 . S
C358 H344 0.960 . S
C358 H345 0.960 . S
C358 C357 1.524 . S
C359 C356 1.403 . S
C359 C360 1.392 . S
C359 C363 1.495 . S
C360 C359 1.392 . S
C360 C361 1.385 . S
C360 C362 1.478 . S
C361 H355 0.930 . S
C361 C357 1.400 . S
C361 C360 1.385 . S
C362 C360 1.478 . S
C362 C364 1.381 . S
C362 C368 1.383 . S
C363 C359 1.495 . S
C363 H369 0.959 . S
C363 H370 0.961 . S
C363 H371 0.960 . S
C364 C362 1.381 . S
C364 C365 1.394 . S
C364 H372 0.930 . S
C365 C364 1.394 . S
C365 C366 1.383 . S
C365 H373 0.929 . S
C366 C365 1.383 . S
C366 C367 1.377 . S
C367 H351 0.930 . S
C367 C366 1.377 . S
C367 C368 1.379 . S
C368 H352 0.931 . S
C368 C362 1.383 . S
C368 C367 1.379 . S
H369 C363 0.959 . S
H370 C363 0.961 . S
H371 C363 0.960 . S
H372 C364 0.930 . S
H373 C365 0.929 . S
H374 C382 0.929 . S
H375 C384 0.930 . S
H376 C386 0.930 . S
H377 C389 0.929 . S
H378 C392 0.930 . S
H379 C394 0.960 . S
H380 C394 0.960 . S
H381 C394 0.960 . S
C382 H374 0.929 . S
C382 C383 1.377 . S
C382 C384 1.384 . S
C383 C382 1.377 . S
C383 C389 1.390 . S
C384 H375 0.930 . S
C384 C382 1.384 . S
C384 C385 1.372 . S
C385 C384 1.372 . S
C385 C386 1.400 . S
C385 C390 1.490 . S
C386 H376 0.930 . S
C386 C385 1.400 . S
C386 C389 1.386 . S
H387 C403 0.930 . S
H388 C404 0.931 . S
C389 H377 0.929 . S
C389 C383 1.390 . S
C389 C386 1.386 . S
C390 C385 1.490 . S
C390 C392 1.395 . S
C390 C393 1.403 . S
H391 C397 0.930 . S
C392 H378 0.930 . S
C392 C390 1.395 . S
C392 C395 1.403 . S
C393 C390 1.403 . S
C393 C394 1.524 . S
C393 C397 1.400 . S
C394 H379 0.960 . S
C394 H380 0.960 . S
C394 H381 0.960 . S
C394 C393 1.524 . S
C395 C392 1.403 . S
C395 C396 1.392 . S
C395 C399 1.495 . S
C396 C395 1.392 . S
C396 C397 1.385 . S
C396 C398 1.478 . S
C397 H391 0.930 . S
C397 C393 1.400 . S
C397 C396 1.385 . S
C398 C396 1.478 . S
C398 C400 1.381 . S
C398 C404 1.383 . S
C399 C395 1.495 . S
C399 H405 0.959 . S
C399 H406 0.961 . S
C399 H407 0.960 . S
C400 C398 1.381 . S
C400 C401 1.394 . S
C400 H408 0.930 . S
C401 C400 1.394 . S
C401 C402 1.383 . S
C401 H409 0.929 . S
C402 C401 1.383 . S
C402 C403 1.377 . S
C403 H387 0.930 . S
C403 C402 1.377 . S
C403 C404 1.379 . S
C404 H388 0.931 . S
C404 C398 1.383 . S
C404 C403 1.379 . S
H405 C399 0.959 . S
H406 C399 0.961 . S
H407 C399 0.960 . S
H408 C400 0.930 . S
H409 C401 0.929 . S
H410 C418 0.929 . S
H411 C420 0.930 . S
H412 C422 0.930 . S
H413 C425 0.929 . S
H414 C428 0.930 . S
H415 C430 0.960 . S
H416 C430 0.960 . S
H417 C430 0.960 . S
C418 H410 0.929 . S
C418 C419 1.377 . S
C418 C420 1.384 . S
C419 C418 1.377 . S
C419 C425 1.390 . S
C420 H411 0.930 . S
C420 C418 1.384 . S
C420 C421 1.372 . S
C421 C420 1.372 . S
C421 C422 1.400 . S
C421 C426 1.490 . S
C422 H412 0.930 . S
C422 C421 1.400 . S
C422 C425 1.386 . S
H423 C439 0.930 . S
H424 C440 0.931 . S
C425 H413 0.929 . S
C425 C419 1.390 . S
C425 C422 1.386 . S
C426 C421 1.490 . S
C426 C428 1.395 . S
C426 C429 1.403 . S
H427 C433 0.930 . S
C428 H414 0.930 . S
C428 C426 1.395 . S
C428 C431 1.403 . S
C429 C426 1.403 . S
C429 C430 1.524 . S
C429 C433 1.400 . S
C430 H415 0.960 . S
C430 H416 0.960 . S
C430 H417 0.960 . S
C430 C429 1.524 . S
C431 C428 1.403 . S
C431 C432 1.392 . S
C431 C435 1.495 . S
C432 C431 1.392 . S
C432 C433 1.385 . S
C432 C434 1.478 . S
C433 H427 0.930 . S
C433 C429 1.400 . S
C433 C432 1.385 . S
C434 C432 1.478 . S
C434 C436 1.381 . S
C434 C440 1.383 . S
C435 C431 1.495 . S
C435 H441 0.959 . S
C435 H442 0.961 . S
C435 H443 0.960 . S
C436 C434 1.381 . S
C436 C437 1.394 . S
C436 H444 0.930 . S
C437 C436 1.394 . S
C437 C438 1.383 . S
C437 H445 0.929 . S
C438 C437 1.383 . S
C438 C439 1.377 . S
C439 H423 0.930 . S
C439 C438 1.377 . S
C439 C440 1.379 . S
C440 H424 0.931 . S
C440 C434 1.383 . S
C440 C439 1.379 . S
H441 C435 0.959 . S
H442 C435 0.961 . S
H443 C435 0.960 . S
H444 C436 0.930 . S
H445 C437 0.929 . S
H446 C454 0.929 . S
H447 C456 0.930 . S
H448 C458 0.930 . S
H449 C461 0.929 . S
H450 C464 0.930 . S
H451 C466 0.960 . S
H452 C466 0.960 . S
H453 C466 0.960 . S
C454 H446 0.929 . S
C454 C455 1.377 . S
C454 C456 1.384 . S
C455 C454 1.377 . S
C455 C461 1.390 . S
C456 H447 0.930 . S
C456 C454 1.384 . S
C456 C457 1.372 . S
C457 C456 1.372 . S
C457 C458 1.400 . S
C457 C462 1.490 . S
C458 H448 0.930 . S
C458 C457 1.400 . S
C458 C461 1.386 . S
H459 C475 0.930 . S
H460 C476 0.931 . S
C461 H449 0.929 . S
C461 C455 1.390 . S
C461 C458 1.386 . S
C462 C457 1.490 . S
C462 C464 1.395 . S
C462 C465 1.403 . S
H463 C469 0.930 . S
C464 H450 0.930 . S
C464 C462 1.395 . S
C464 C467 1.403 . S
C465 C462 1.403 . S
C465 C466 1.524 . S
C465 C469 1.400 . S
C466 H451 0.960 . S
C466 H452 0.960 . S
C466 H453 0.960 . S
C466 C465 1.524 . S
C467 C464 1.403 . S
C467 C468 1.392 . S
C467 C471 1.495 . S
C468 C467 1.392 . S
C468 C469 1.385 . S
C468 C470 1.478 . S
C469 H463 0.930 . S
C469 C465 1.400 . S
C469 C468 1.385 . S
C470 C468 1.478 . S
C470 C472 1.381 . S
C470 C476 1.383 . S
C471 C467 1.495 . S
C471 H477 0.959 . S
C471 H478 0.961 . S
C471 H479 0.960 . S
C472 C470 1.381 . S
C472 C473 1.394 . S
C472 H480 0.930 . S
C473 C472 1.394 . S
C473 C474 1.383 . S
C473 H481 0.929 . S
C474 C473 1.383 . S
C474 C475 1.377 . S
C475 H459 0.930 . S
C475 C474 1.377 . S
C475 C476 1.379 . S
C476 H460 0.931 . S
C476 C470 1.383 . S
C476 C475 1.379 . S
H477 C471 0.959 . S
H478 C471 0.961 . S
H479 C471 0.960 . S
H480 C472 0.930 . S
H481 C473 0.929 . S
H482 C490 0.929 . S
H483 C492 0.930 . S
H484 C494 0.930 . S
H485 C497 0.929 . S
H486 C500 0.930 . S
H487 C502 0.960 . S
H488 C502 0.960 . S
H489 C502 0.960 . S
C490 H482 0.929 . S
C490 C491 1.377 . S
C490 C492 1.384 . S
C491 C490 1.377 . S
C491 C497 1.390 . S
C492 H483 0.930 . S
C492 C490 1.384 . S
C492 C493 1.372 . S
C493 C492 1.372 . S
C493 C494 1.400 . S
C493 C498 1.490 . S
C494 H484 0.930 . S
C494 C493 1.400 . S
C494 C497 1.386 . S
H495 C511 0.930 . S
H496 C512 0.931 . S
C497 H485 0.929 . S
C497 C491 1.390 . S
C497 C494 1.386 . S
C498 C493 1.490 . S
C498 C500 1.395 . S
C498 C501 1.403 . S
H499 C505 0.930 . S
C500 H486 0.930 . S
C500 C498 1.395 . S
C500 C503 1.403 . S
C501 C498 1.403 . S
C501 C502 1.524 . S
C501 C505 1.400 . S
C502 H487 0.960 . S
C502 H488 0.960 . S
C502 H489 0.960 . S
C502 C501 1.524 . S
C503 C500 1.403 . S
C503 C504 1.392 . S
C503 C507 1.495 . S
C504 C503 1.392 . S
C504 C505 1.385 . S
C504 C506 1.478 . S
C505 H499 0.930 . S
C505 C501 1.400 . S
C505 C504 1.385 . S
C506 C504 1.478 . S
C506 C508 1.381 . S
C506 C512 1.383 . S
C507 C503 1.495 . S
C507 H513 0.959 . S
C507 H514 0.961 . S
C507 H515 0.960 . S
C508 C506 1.381 . S
C508 C509 1.394 . S
C508 H516 0.930 . S
C509 C508 1.394 . S
C509 C510 1.383 . S
C509 H517 0.929 . S
C510 C509 1.383 . S
C510 C511 1.377 . S
C511 H495 0.930 . S
C511 C510 1.377 . S
C511 C512 1.379 . S
C512 H496 0.931 . S
C512 C506 1.383 . S
C512 C511 1.379 . S
H513 C507 0.959 . S
H514 C507 0.961 . S
H515 C507 0.960 . S
H516 C508 0.930 . S
H517 C509 0.929 . S
H518 C526 0.922 1_455 S
H519 C528 0.930 . S
H520 C530 0.930 . S
H521 C533 0.929 . S
H522 C536 0.930 . S
H523 C538 0.960 . S
H524 C538 0.960 . S
H525 C538 0.960 . S
C526 H518 0.922 1_655 S
C526 C527 1.377 . S
C526 C528 1.384 . S
C527 C526 1.377 . S
C527 C533 1.390 . S
C528 H519 0.930 . S
C528 C526 1.384 . S
C528 C529 1.372 . S
C529 C528 1.372 . S
C529 C530 1.400 . S
C529 C534 1.490 . S
C530 H520 0.930 . S
C530 C529 1.400 . S
C530 C533 1.386 . S
H531 C547 0.930 . S
H532 C548 0.931 . S
C533 H521 0.929 . S
C533 C527 1.390 . S
C533 C530 1.386 . S
C534 C529 1.490 . S
C534 C536 1.395 . S
C534 C537 1.403 . S
H535 C541 0.930 . S
C536 H522 0.930 . S
C536 C534 1.395 . S
C536 C539 1.403 . S
C537 C534 1.403 . S
C537 C538 1.524 . S
C537 C541 1.400 . S
C538 H523 0.960 . S
C538 H524 0.960 . S
C538 H525 0.960 . S
C538 C537 1.524 . S
C539 C536 1.403 . S
C539 C540 1.392 . S
C539 C543 1.495 . S
C540 C539 1.392 . S
C540 C541 1.385 . S
C540 C542 1.478 . S
C541 H535 0.930 . S
C541 C537 1.400 . S
C541 C540 1.385 . S
C542 C540 1.478 . S
C542 C544 1.381 . S
C542 C548 1.383 . S
C543 C539 1.495 . S
C543 H549 0.959 . S
C543 H550 0.961 . S
C543 H551 0.960 . S
C544 C542 1.381 . S
C544 C545 1.394 . S
C544 H552 0.930 . S
C545 C544 1.394 . S
C545 C546 1.383 . S
C545 H553 0.929 . S
C546 C545 1.383 . S
C546 C547 1.377 . S
C547 H531 0.930 . S
C547 C546 1.377 . S
C547 C548 1.379 . S
C548 H532 0.931 . S
C548 C542 1.383 . S
C548 C547 1.379 . S
H549 C543 0.959 . S
H550 C543 0.961 . S
H551 C543 0.960 . S
H552 C544 0.930 . S
H553 C545 0.929 . S
C131 C5 1.172 . S
C150 C99 1.137 . S
C167 C55 0.939 . S
C186 C105 0.811 . S
C203 C19 1.177 . S
C222 C96 1.154 . S
C239 C49 2.057 . S
C258 C121 1.922 . S
C275 C8 2.004 . S
C294 C87 1.924 . S
C330 C104 1.877 . S
C311 C48 1.973 . S
C347 C59 1.860 . S
C366 C100 1.732 . S
C402 C117 2.056 . S
C383 C18 2.134 . S
C438 C84 2.072 . S
C419 C58 2.249 . S
C474 C120 1.173 . S
C455 C15 1.265 . S
C510 C83 0.930 . S
C491 C45 0.942 . S
C546 C108 0.856 . S
C527 C9 0.981 . S
