# Generated by pormake.
# Topology ocu, (6,8)-cn, num edge types: 1
# Building blocks:
#     Node 0, Type 0, BuildingBlock: NUHQIS_clean_sbu_0, # of connection points: 6
#     Node 1, Type 0, BuildingBlock: NUHQIS_clean_sbu_0, # of connection points: 6
#     Node 2, Type 0, BuildingBlock: NUHQIS_clean_sbu_0, # of connection points: 6
#     Node 3, Type 0, BuildingBlock: NUHQIS_clean_sbu_0, # of connection points: 6
#     Node 4, Type 0, BuildingBlock: NUHQIS_clean_sbu_0, # of connection points: 6
#     Node 5, Type 0, BuildingBlock: NUHQIS_clean_sbu_0, # of connection points: 6
#     Node 6, Type 0, BuildingBlock: NUHQIS_clean_sbu_0, # of connection points: 6
#     Node 7, Type 0, BuildingBlock: NUHQIS_clean_sbu_0, # of connection points: 6
#     Node 8, Type 1, BuildingBlock: TAGTUT_clean_sbu_1, # of connection points: 8
#     Node 9, Type 1, BuildingBlock: TAGTUT_clean_sbu_1, # of connection points: 8
#     Node 10, Type 1, BuildingBlock: TAGTUT_clean_sbu_1, # of connection points: 8
#     Node 11, Type 1, BuildingBlock: TAGTUT_clean_sbu_1, # of connection points: 8
#     Node 12, Type 1, BuildingBlock: TAGTUT_clean_sbu_1, # of connection points: 8
#     Node 13, Type 1, BuildingBlock: TAGTUT_clean_sbu_1, # of connection points: 8
#     Edge 14, Type (0, 1), None
#     Edge 15, Type (0, 1), None
#     Edge 16, Type (0, 1), None
#     Edge 17, Type (0, 1), None
#     Edge 18, Type (0, 1), None
#     Edge 19, Type (0, 1), None
#     Edge 20, Type (0, 1), None
#     Edge 21, Type (0, 1), None
#     Edge 22, Type (0, 1), None
#     Edge 23, Type (0, 1), None
#     Edge 24, Type (0, 1), None
#     Edge 25, Type (0, 1), None
#     Edge 26, Type (0, 1), None
#     Edge 27, Type (0, 1), None
#     Edge 28, Type (0, 1), None
#     Edge 29, Type (0, 1), None
#     Edge 30, Type (0, 1), None
#     Edge 31, Type (0, 1), None
#     Edge 32, Type (0, 1), None
#     Edge 33, Type (0, 1), None
#     Edge 34, Type (0, 1), None
#     Edge 35, Type (0, 1), None
#     Edge 36, Type (0, 1), None
#     Edge 37, Type (0, 1), None
#     Edge 38, Type (0, 1), None
#     Edge 39, Type (0, 1), None
#     Edge 40, Type (0, 1), None
#     Edge 41, Type (0, 1), None
#     Edge 42, Type (0, 1), None
#     Edge 43, Type (0, 1), None
#     Edge 44, Type (0, 1), None
#     Edge 45, Type (0, 1), None
#     Edge 46, Type (0, 1), None
#     Edge 47, Type (0, 1), None
#     Edge 48, Type (0, 1), None
#     Edge 49, Type (0, 1), None
#     Edge 50, Type (0, 1), None
#     Edge 51, Type (0, 1), None
#     Edge 52, Type (0, 1), None
#     Edge 53, Type (0, 1), None
#     Edge 54, Type (0, 1), None
#     Edge 55, Type (0, 1), None
#     Edge 56, Type (0, 1), None
#     Edge 57, Type (0, 1), None
#     Edge 58, Type (0, 1), None
#     Edge 59, Type (0, 1), None
#     Edge 60, Type (0, 1), None
#     Edge 61, Type (0, 1), None
# Relax obj value: 0.359
# Max RMSD: 0.303
# Mean RMSD: 0.166
data_MOF--net-ocu--node1-NUHQIS_clean_sbu_0--node2-TAGTUT_clean_sbu_1--edge1-none
_symmetry_space_group_name_H-M    P1
_symmetry_Int_Tables_number       1
_symmetry_cell_setting            triclinic
loop_
_symmetry_equiv_pos_as_xyz
'x, y, z'
_cell_length_a     21.425662
_cell_length_b     22.597745
_cell_length_c     20.58756
_cell_angle_alpha  97.887022
_cell_angle_beta   84.14186
_cell_angle_gamma 127.25259
loop_
_atom_site_label
_atom_site_type_symbol
_atom_site_fract_x
_atom_site_fract_y
_atom_site_fract_z
_atom_type_partial_charge
Tb0 Tb 0.25725 0.20295 0.32171 0.0
Eu1 Eu 0.40404 0.32486 0.39301 0.0
C2 C 0.38929 0.17334 0.29566 0.0
C3 C 0.24324 0.1891 0.46506 0.0
C4 C 0.11303 0.17349 0.2368 0.0
C5 C 1.0302 0.19001 0.18455 0.0
C6 C 0.04245 0.14227 0.20694 0.0
C7 C 0.16752 0.2511 0.24893 0.0
C8 C 0.15315 0.29778 0.23094 0.0
C9 C 0.08828 0.26823 0.19358 0.0
C10 C 0.13595 0.13032 0.25606 0.0
O11 O 0.22849 0.28203 0.38198 0.0
O12 O 0.34468 0.38593 0.41926 0.0
O13 O 0.43746 0.38246 0.30411 0.0
O14 O 0.34762 0.27222 0.24743 0.0
C15 C 0.26782 0.35085 0.41612 0.0
O16 O 0.46167 0.38378 0.48655 0.0
O17 O 0.53161 0.39765 0.39918 0.0
O18 O 0.43167 0.24191 0.32946 0.0
O19 O 0.31253 0.14141 0.29464 0.0
O20 O 0.22581 0.14814 0.40928 0.0
O21 O 0.30906 0.25694 0.46961 0.0
C22 C 0.41445 0.34 0.24934 0.0
O23 O 0.20333 0.15038 0.23063 0.0
O24 O 0.13398 0.12924 0.31904 0.0
C25 C 0.54088 0.34804 0.48388 0.0
C26 C 0.54575 0.24246 0.53203 0.0
C27 C 0.60885 0.31942 0.54279 0.0
C28 C 0.6063 0.37259 0.51849 0.0
C29 C 0.4816 0.27146 0.46983 0.0
C30 C 0.48544 0.21926 0.49165 0.0
C31 C 0.52705 0.39712 0.46246 0.0
H32 H 0.9788 0.1658 0.15596 0.0
H33 H 0.99972 0.08229 0.19793 0.0
H34 H 0.22451 0.27646 0.26798 0.0
H35 H 0.19783 0.35727 0.23888 0.0
H36 H 0.657 0.33888 0.57378 0.0
H37 H 0.6526 0.43161 0.52907 0.0
H38 H 0.42882 0.25142 0.44582 0.0
H39 H 0.43732 0.16108 0.48238 0.0
Tb40 Tb 0.84781 0.22008 0.34336 0.0
Eu41 Eu 0.7392 0.27424 0.37012 0.0
C42 C 0.70867 0.14933 0.26121 0.0
C43 C 0.88657 0.34201 0.26177 0.0
C44 C 0.97846 0.19015 0.38464 0.0
C45 C 0.98013 0.10798 0.44443 0.0
C46 C 0.98791 0.1346 0.38527 0.0
C47 C 0.97296 0.22627 0.4438 0.0
C48 C 0.96321 0.19861 0.50281 0.0
C49 C 0.96053 0.13572 0.50201 0.0
C50 C 0.94222 0.18923 0.32915 0.0
O51 O 0.90745 0.32571 0.40233 0.0
O52 O 0.80622 0.31745 0.4596 0.0
O53 O 0.67881 0.17273 0.424 0.0
O54 O 0.78789 0.17938 0.43833 0.0
C55 C 0.87913 0.34442 0.45322 0.0
O56 O 0.72674 0.36227 0.40092 0.0
O57 O 0.62284 0.24829 0.37626 0.0
O58 O 0.71611 0.21134 0.27138 0.0
O59 O 0.73619 0.13303 0.30281 0.0
O60 O 0.87451 0.27769 0.25751 0.0
O61 O 0.84705 0.35677 0.30632 0.0
C62 C 0.71524 0.15557 0.45506 0.0
O63 O 0.86637 0.13827 0.32973 0.0
O64 O 0.96202 0.25427 0.31944 0.0
C65 C 0.6505 0.34418 0.32049 0.0
C66 C 0.71654 0.41786 0.2081 0.0
C67 C 0.70688 0.45356 0.26589 0.0
C68 C 0.674 0.41675 0.32204 0.0
C69 C 0.6566 0.30834 0.26155 0.0
C70 C 0.68837 0.34413 0.20552 0.0
C71 C 0.65517 0.3197 0.37943 0.0
H72 H 0.98093 0.0604 0.44401 0.0
H73 H 0.99009 0.105 0.34015 0.0
H74 H 0.96502 0.26898 0.44364 0.0
H75 H 0.94941 0.22094 0.54717 0.0
H76 H 0.72596 0.51033 0.26826 0.0
H77 H 0.67486 0.44738 0.36773 0.0
H78 H 0.64407 0.25475 0.26016 0.0
H79 H 0.6939 0.31531 0.16128 0.0
Tb80 Tb 0.74992 0.69803 0.37972 0.0
Eu81 Eu 0.89663 0.82329 0.33494 0.0
C82 C 0.76862 0.67336 0.24527 0.0
C83 C 0.88548 0.68952 0.43146 0.0
C84 C 0.59656 0.66759 0.45382 0.0
C85 C 0.51239 0.69749 0.50236 0.0
C86 C 0.52442 0.64376 0.48241 0.0
C87 C 0.65582 0.74353 0.4463 0.0
C88 C 0.64222 0.79512 0.46113 0.0
C89 C 0.57078 0.7726 0.48914 0.0
C90 C 0.61825 0.61982 0.43099 0.0
O91 O 0.82894 0.7722 0.4619 0.0
O92 O 0.87883 0.87843 0.4218 0.0
O93 O 0.83368 0.86652 0.28964 0.0
O94 O 0.71713 0.76059 0.31277 0.0
C95 C 0.8759 0.84478 0.46907 0.0
O96 O 1.02374 0.90654 0.34785 0.0
O97 O 0.97407 0.89206 0.25594 0.0
O98 O 0.81836 0.74574 0.24824 0.0
O99 O 0.76384 0.64259 0.29569 0.0
O100 O 0.8086 0.65063 0.4192 0.0
O101 O 0.92838 0.75529 0.40127 0.0
C102 C 0.75667 0.8247 0.27937 0.0
O103 O 0.62811 0.61549 0.36763 0.0
O104 O 0.67972 0.64034 0.46081 0.0
C105 C 0.04864 0.85341 0.25772 0.0
C106 C 0.06492 0.74168 0.22467 0.0
C107 C 0.12687 0.81575 0.21089 0.0
C108 C 0.11952 0.87287 0.22944 0.0
C109 C 0.98598 0.77824 0.26487 0.0
C110 C 0.99447 0.72335 0.25076 0.0
C111 C 1.0332 0.90529 0.2843 0.0
H112 H 0.45739 0.68036 0.52683 0.0
H113 H 0.47927 0.58562 0.49 0.0
H114 H 0.71414 0.76441 0.42943 0.0
H115 H 0.68877 0.85299 0.45318 0.0
H116 H 0.1814 0.82958 0.1879 0.0
H117 H 0.16778 0.93037 0.22238 0.0
H118 H 0.92944 0.75993 0.2832 0.0
H119 H 0.94536 0.66644 0.25944 0.0
Tb120 Tb 0.36188 0.72899 0.37385 0.0
Eu121 Eu 0.26603 0.78078 0.34413 0.0
C122 C 0.35636 0.84595 0.47911 0.0
C123 C 0.19126 0.63644 0.40942 0.0
C124 C 0.41726 0.62183 0.33539 0.0
C125 C 0.3292 0.48929 0.30413 0.0
C126 C 0.36952 0.5483 0.35237 0.0
C127 C 0.42243 0.63506 0.26945 0.0
C128 C 0.37886 0.57616 0.22222 0.0
C129 C 0.33948 0.50315 0.23814 0.0
C130 C 0.43465 0.68124 0.38578 0.0
O131 O 0.3008 0.65039 0.28647 0.0
O132 O 0.26476 0.71542 0.2486 0.0
O133 O 0.39161 0.87798 0.34776 0.0
O134 O 0.42902 0.80889 0.30222 0.0
C135 C 0.27195 0.6609 0.23978 0.0
O136 O 0.15634 0.76882 0.35417 0.0
O137 O 0.25281 0.8491 0.29138 0.0
O138 O 0.33208 0.86127 0.43296 0.0
O139 O 0.36024 0.78919 0.46817 0.0
O140 O 0.24086 0.63436 0.36984 0.0
O141 O 0.19641 0.69714 0.41711 0.0
C142 C 0.43976 0.87233 0.30947 0.0
O143 O 0.47097 0.74734 0.36528 0.0
O144 O 0.37484 0.66332 0.42512 0.0
C145 C 0.21908 0.89641 0.38288 0.0
C146 C 0.30411 0.01571 0.47802 0.0
C147 C 0.31308 0.02888 0.41187 0.0
C148 C 0.26903 0.96952 0.36467 0.0
C149 C 0.21681 0.88387 0.44853 0.0
C150 C 0.26484 0.94287 0.49423 0.0
C151 C 0.19575 0.83502 0.33289 0.0
H152 H 0.29964 0.43309 0.31687 0.0
H153 H 0.36238 0.53686 0.40303 0.0
H154 H 0.45623 0.69111 0.25452 0.0
H155 H 0.38713 0.58801 0.17147 0.0
H156 H 0.34376 0.0851 0.39852 0.0
H157 H 0.27487 0.98042 0.31394 0.0
H158 H 0.18186 0.82807 0.46421 0.0
H159 H 0.25849 0.93164 0.545 0.0
Tb160 Tb 0.3625 0.73153 0.83223 0.0
Eu161 Eu 0.26843 0.78217 0.89213 0.0
C162 C 0.23007 0.69269 0.73823 0.0
C163 C 0.3838 0.86772 0.7794 0.0
C164 C 0.46378 0.6669 0.86786 0.0
C165 C 0.50385 0.60054 0.90916 0.0
C166 C 0.48931 0.62269 0.85631 0.0
C167 C 0.44768 0.68425 0.93248 0.0
C168 C 0.46337 0.66398 0.98525 0.0
C169 C 0.49104 0.62163 0.97388 0.0
C170 C 0.44782 0.69144 0.81424 0.0
O171 O 0.43037 0.81097 0.921 0.0
O172 O 0.34187 0.81766 0.98394 0.0
O173 O 0.2319 0.69237 0.95658 0.0
O174 O 0.2801 0.6396 0.89073 0.0
C175 C 0.40778 0.82469 0.98017 0.0
O176 O 0.24915 0.86518 0.93124 0.0
O177 O 0.15256 0.75009 0.89981 0.0
O178 O 0.21269 0.72212 0.79016 0.0
O179 O 0.28758 0.68738 0.74354 0.0
O180 O 0.38856 0.8121 0.76566 0.0
O181 O 0.36047 0.87863 0.83737 0.0
C182 C 0.24471 0.64222 0.94482 0.0
O183 O 0.37532 0.64766 0.79526 0.0
O184 O 0.47484 0.76147 0.8234 0.0
C185 C 0.15822 0.84443 0.8588 0.0
C186 C 0.15436 0.90431 0.75039 0.0
C187 C 0.17809 0.94654 0.81181 0.0
C188 C 0.18197 0.91743 0.86488 0.0
C189 C 0.12899 0.80021 0.79859 0.0
C190 C 0.13001 0.83102 0.74421 0.0
C191 C 0.17713 0.81937 0.9103 0.0
H192 H 0.52134 0.56403 0.89961 0.0
H193 H 0.4935 0.60219 0.80683 0.0
H194 H 0.4181 0.70905 0.94278 0.0
H195 H 0.4475 0.67579 1.03439 0.0
H196 H 0.19654 0.00328 0.81862 0.0
H197 H 0.20594 0.95277 0.90983 0.0
H198 H 0.10911 0.74299 0.79217 0.0
H199 H 0.11438 0.79862 0.69705 0.0
Tb200 Tb 0.36187 0.31867 0.81905 0.0
Eu201 Eu 0.26526 0.1846 0.91403 0.0
C202 C 0.44261 0.32675 0.9373 0.0
C203 C 0.38125 0.19065 0.80031 0.0
C204 C 0.35442 0.41459 0.71363 0.0
C205 C 0.26237 0.44425 0.73943 0.0
C206 C 0.33085 0.45453 0.75247 0.0
C207 C 0.30648 0.36294 0.66192 0.0
C208 C 0.23738 0.35205 0.64929 0.0
C209 C 0.21583 0.39412 0.68689 0.0
C210 C 0.41315 0.4099 0.73875 0.0
O211 O 0.25525 0.22857 0.76928 0.0
O212 O 0.17127 0.15422 0.84969 0.0
O213 O 0.22981 0.25882 0.9501 0.0
O214 O 0.28357 0.34156 0.87152 0.0
C215 C 0.18497 0.17793 0.79192 0.0
O216 O 0.20777 0.07251 0.94245 0.0
O217 O 0.22703 0.16094 1.0154 0.0
O218 O 0.39291 0.25467 0.93787 0.0
O219 O 0.42989 0.36452 0.90579 0.0
O220 O 0.41822 0.26321 0.80439 0.0
O221 O 0.31064 0.1464 0.82659 0.0
C222 C 0.23892 0.31311 0.92372 0.0
O223 O 0.42759 0.4315 0.80107 0.0
O224 O 0.40227 0.34637 0.72254 0.0
C225 C 0.27591 0.09731 1.03603 0.0
C226 C 0.40895 0.10326 1.04782 0.0
C227 C 0.33494 0.03429 1.03489 0.0
C228 C 0.26897 0.03147 1.03028 0.0
C229 C 0.34839 0.16573 1.05391 0.0
C230 C 0.41447 0.16877 1.05918 0.0
C231 C 0.21815 0.09801 1.00454 0.0
H232 H 0.24809 0.47878 0.76804 0.0
H233 H 0.36376 0.4921 0.79449 0.0
H234 H 0.32135 0.32952 0.63205 0.0
H235 H 0.20407 0.31478 0.60698 0.0
H236 H 0.32747 0.98199 1.02856 0.0
H237 H 0.21355 0.97838 1.01822 0.0
H238 H 0.35559 0.2179 1.05986 0.0
H239 H 0.46974 0.22235 0.07156 0.0
Tb240 Tb 0.88561 0.26695 0.84404 0.0
Eu241 Eu 0.73788 0.24279 0.87466 0.0
C242 C 0.88922 0.35868 0.95934 0.0
C243 C 0.75238 0.13996 0.95059 0.0
C244 C 0.91717 0.15939 0.79083 0.0
C245 C 0.80787 0.03473 0.81772 0.0
C246 C 0.87728 0.10448 0.83549 0.0
C247 C 0.88172 0.14364 0.73047 0.0
C248 C 0.8136 0.07347 0.71289 0.0
C249 C 0.78621 0.01577 0.75169 0.0
C250 C 0.97402 0.2378 0.81515 0.0
O251 O 0.80628 0.20688 0.76038 0.0
O252 O 0.70393 0.13535 0.8215 0.0
O253 O 0.80285 0.32702 0.78909 0.0
O254 O 0.92676 0.36289 0.79031 0.0
C255 C 0.73443 0.1465 0.76332 0.0
O256 O 0.64299 0.23208 0.9402 0.0
O257 O 0.64795 0.24863 0.83789 0.0
O258 O 0.81635 0.30098 0.96322 0.0
O259 O 0.91928 0.36869 0.90084 0.0
O260 O 0.82603 0.18488 0.92587 0.0
O261 O 0.70018 0.14586 0.93067 0.0
C262 C 0.87748 0.37061 0.76674 0.0
O263 O 0.97924 0.28461 0.78014 0.0
O264 O 0.96607 0.25252 0.87774 0.0
C265 C 0.70784 0.35346 0.91293 0.0
C266 C 0.84154 0.50042 0.93443 0.0
C267 C 0.80808 0.47372 0.87199 0.0
C268 C 0.73777 0.40177 0.86308 0.0
C269 C 0.75456 0.377 0.96786 0.0
C270 C 0.8247 0.44817 0.97559 0.0
C271 C 0.64665 0.27315 0.89883 0.0
H272 H 0.78309 -0.0087 0.8504 0.0
H273 H 0.89871 0.1158 0.88446 0.0
H274 H 0.90598 0.18575 0.6965 0.0
H275 H 0.79275 0.06166 0.66359 0.0
H276 H 0.82509 0.51268 0.83654 0.0
H277 H 0.70749 0.38383 0.81734 0.0
H278 H 0.73611 0.34106 1.00648 0.0
H279 H 0.85434 0.4659 1.02171 0.0
Tb280 Tb 0.74297 0.71378 0.8098 0.0
Eu281 Eu 0.90034 0.80513 0.89058 0.0
C282 C 0.87043 0.68499 0.76284 0.0
C283 C 0.74215 0.65859 0.93131 0.0
C284 C 0.60825 0.71151 0.72638 0.0
C285 C 0.52692 0.7308 0.67548 0.0
C286 C 0.54956 0.686 0.68262 0.0
C287 C 0.64226 0.78028 0.76454 0.0
C288 C 0.62067 0.82538 0.75672 0.0
C289 C 0.5638 0.80147 0.71149 0.0
C290 C 0.64013 0.67127 0.73031 0.0
O291 O 0.71725 0.7682 0.89758 0.0
O292 O 0.84188 0.86032 0.93348 0.0
O293 O 0.94795 0.86631 0.80252 0.0
O294 O 0.82597 0.82922 0.79078 0.0
C295 C 0.76576 0.82736 0.93897 0.0
O296 O 0.93414 0.82121 0.99107 0.0
O297 O 1.02339 0.86944 0.91397 0.0
O298 O 0.92183 0.74449 0.80189 0.0
O299 O 0.79511 0.65567 0.76947 0.0
O300 O 0.69438 0.65685 0.89632 0.0
O301 O 0.81302 0.6856 0.90887 0.0
C302 C 0.89634 0.8572 0.76633 0.0
O303 O 0.71433 0.70995 0.71429 0.0
O304 O 0.62506 0.64178 0.78505 0.0
C305 C 1.02742 0.80153 0.98583 0.0
C306 C 0.06132 0.7056 1.00974 0.0
C307 C 0.09633 0.77537 1.04668 0.0
C308 C 0.078 0.82253 1.0359 0.0
C309 C 0.9933 0.73252 0.94801 0.0
C310 C 1.00999 0.68462 0.96018 0.0
C311 C 1.00613 0.84838 0.97311 0.0
H312 H 0.48219 0.71115 0.64063 0.0
H313 H 0.52292 0.6329 0.65322 0.0
H314 H 0.68768 0.80049 0.7987 0.0
H315 H 0.64779 0.87854 0.78595 0.0
H316 H 0.13865 0.79372 0.08316 0.0
H317 H 0.10345 0.87498 0.06604 0.0
H318 H 0.95432 0.71597 0.9087 0.0
H319 H 0.9866 0.63329 0.9289 0.0
C320 C 0.79428 0.95962 0.71881 0.0
C321 C 0.92763 0.09175 0.55703 0.0
C322 C 0.94816 0.88256 0.50664 0.0
Mg323 Mg 0.95375 0.08161 0.70641 0.0
O324 O 0.97044 0.03744 0.63474 0.0
Mg325 Mg 0.86901 0.93714 0.59673 0.0
Mg326 Mg 0.05077 0.02476 0.6153 0.0
O327 O 0.12365 0.00474 0.59745 0.0
Mg328 Mg 0.11508 0.92806 0.54465 0.0
Mg329 Mg 0.22038 0.09571 0.64334 0.0
C330 C 0.12169 0.13954 0.74677 0.0
C331 C 0.20106 0.15596 0.52626 0.0
O332 O 0.77608 0.93961 0.65894 0.0
O333 O 0.85717 0.97211 0.73344 0.0
O334 O 0.88753 0.02124 0.54153 0.0
O335 O 0.95316 0.12414 0.61508 0.0
O336 O 0.05947 0.13439 0.76261 0.0
O337 O 0.13051 0.112 0.69185 0.0
C338 C 0.91912 0.89069 0.70534 0.0
O339 O 0.98999 0.9461 0.69569 0.0
O340 O 0.86457 0.86888 0.66712 0.0
O341 O 0.29751 0.0726 0.57962 0.0
O342 O 0.21065 0.03004 0.50422 0.0
O343 O 0.18885 0.00849 0.70387 0.0
C344 C 0.27852 0.05376 0.51954 0.0
O345 O 0.13219 0.90021 0.63749 0.0
O346 O 0.99605 0.86553 0.49819 0.0
C347 C 0.15829 0.93897 0.69363 0.0
O348 O 0.96476 0.93819 0.54383 0.0
O349 O 0.12578 0.10605 0.53011 0.0
O350 O 0.24521 0.17143 0.57213 0.0
C351 C 0.43108 0.13579 0.25609 0.0
C352 C 0.47573 0.10391 1.06022 0.0
C353 C 0.4608 0.85135 1.04059 0.0
Mg354 Mg 0.5866 0.15817 0.17633 0.0
O355 O 0.54735 0.0539 0.17194 0.0
Mg356 Mg 0.43386 -0.01601 0.14875 0.0
Mg357 Mg 0.59619 -0.00883 0.13244 0.0
O358 O 0.64107 0.92721 0.10339 0.0
Mg359 Mg 0.5956 0.82197 0.10103 0.0
Mg360 Mg 0.75928 -0.00332 0.11315 0.0
C361 C 0.70292 0.11801 0.19488 0.0
C362 C 0.72682 0.0871 1.00588 0.0
O363 O 0.3946 0.06982 0.22099 0.0
O364 O 0.50677 0.17437 0.25483 0.0
O365 O 0.46046 0.04039 1.05939 0.0
O366 O 0.53138 0.16011 0.09463 0.0
O367 O 0.67813 0.13549 0.15215 0.0
O368 O 0.71966 0.07121 0.18187 0.0
C369 C 0.47136 0.91642 0.25468 0.0
O370 O 0.53304 0.92909 0.22378 0.0
O371 O 0.42876 0.93275 0.23556 0.0
O372 O 0.77822 0.92017 1.02719 0.0
O373 O 0.66135 0.80876 1.01474 0.0
O374 O 0.76227 0.91852 0.20548 0.0
C375 C 0.73338 0.85424 0.99589 0.0
O376 O 0.652 0.80407 0.19597 0.0
O377 O 0.49639 0.82037 1.04605 0.0
C378 C 0.72035 0.85026 0.22579 0.0
O379 O 0.47451 0.90643 0.08345 0.0
O380 O 0.65955 0.05992 1.0354 0.0
O381 O 0.7712 0.07184 1.02531 0.0
C382 C 0.0692 0.68163 0.20431 0.0
C383 C 0.0764 0.6547 1.0259 0.0
C384 C 0.94002 0.36726 1.00622 0.0
Mg385 Mg 0.16012 0.64492 0.12776 0.0
O386 O 0.07235 0.55101 0.15499 0.0
Mg387 Mg 0.97254 0.51345 0.11462 0.0
Mg388 Mg 0.08872 0.48377 0.1046 0.0
O389 O 0.11628 0.42597 1.04462 0.0
Mg390 Mg 0.05073 0.32402 1.02308 0.0
Mg391 Mg 0.22297 0.47692 0.07562 0.0
C392 C 0.25703 0.61885 0.17302 0.0
C393 C 0.21837 0.58761 0.99284 0.0
O394 O 1.00705 0.62021 0.17893 0.0
O395 O 0.13772 0.69848 0.20014 0.0
O396 O 1.01707 0.58783 1.03234 0.0
O397 O 0.1402 0.68444 1.05384 0.0
O398 O 0.26509 0.65521 0.12744 0.0
O399 O 0.20702 0.5467 0.16469 0.0
C400 C 0.93986 0.39578 0.21243 0.0
O401 O 0.99946 0.39912 0.18501 0.0
O402 O 0.92236 0.43684 0.19663 0.0
O403 O 0.24176 0.40717 0.99272 0.0
O404 O 0.12482 0.30288 0.96075 0.0
O405 O 0.16227 0.37799 0.13953 0.0
C406 C 0.19987 0.34475 0.95748 0.0
O407 O 1.03607 0.28829 0.11359 0.0
O408 O 0.95895 0.32306 0.99213 0.0
C409 C 0.09411 0.31659 0.14984 0.0
O410 O 0.97622 0.42431 1.04868 0.0
O411 O 0.15548 0.56532 1.02576 0.0
O412 O 0.25971 0.56614 1.00342 0.0
C413 C 0.36229 0.463 0.19609 0.0
C414 C 0.48779 0.58452 1.02726 0.0
C415 C 0.51066 0.36786 0.97711 0.0
Mg416 Mg 0.52535 0.58756 0.17704 0.0
O417 O 0.52304 0.52123 0.1142 0.0
Mg418 Mg 0.42499 0.42725 0.07186 0.0
Mg419 Mg 0.59708 0.50298 0.09353 0.0
O420 O 0.67638 0.48981 0.07333 0.0
Mg421 Mg 0.68521 0.43766 1.00423 0.0
Mg422 Mg 0.78227 0.59474 0.09924 0.0
C423 C 0.69683 0.63691 0.20785 0.0
C424 C 0.71981 0.6312 0.99492 0.0
O425 O 0.34538 0.44749 0.13564 0.0
O426 O 0.42844 0.48294 0.21187 0.0
O427 O 0.45635 0.51509 1.01312 0.0
O428 O 0.51046 0.61981 0.08527 0.0
O429 O 0.64138 0.64271 0.22617 0.0
O430 O 0.68942 0.59516 0.15838 0.0
C431 C 0.45314 0.37157 0.1869 0.0
O432 O 0.52775 0.42432 0.18149 0.0
O433 O 0.40597 0.35349 0.14266 0.0
O434 O 0.86229 0.58305 1.02612 0.0
O435 O 0.76815 0.54082 0.96146 0.0
O436 O 0.78274 0.52545 0.15864 0.0
C437 C 0.83451 0.55693 0.96884 0.0
O438 O 0.71245 0.4154 0.09482 0.0
O439 O 0.56844 0.36565 0.96123 0.0
C440 C 0.74577 0.45503 0.14905 0.0
O441 O 0.51412 0.41278 1.02288 0.0
O442 O 0.64999 0.57552 1.00733 0.0
O443 O 0.77628 0.65583 1.03133 0.0
C444 C 0.9002 0.65442 0.70773 0.0
C445 C 0.91962 0.66078 0.48382 0.0
C446 C 0.93108 0.39068 0.50479 0.0
Mg447 Mg 0.04289 0.68707 0.60859 0.0
O448 O 0.99609 0.58229 0.61053 0.0
Mg449 Mg 0.8777 0.51197 0.59503 0.0
Mg450 Mg 0.0452 0.52034 0.58902 0.0
O451 O 0.09747 0.45971 0.55777 0.0
Mg452 Mg 0.07007 0.36108 0.52854 0.0
Mg453 Mg 0.21345 0.53259 0.5671 0.0
C454 C 0.18065 0.66437 0.67532 0.0
C455 C 0.16423 0.59292 0.46401 0.0
O456 O 0.85446 0.58821 0.67718 0.0
O457 O 0.97277 0.6981 0.69036 0.0
O458 O 0.87734 0.59163 0.50224 0.0
O459 O 0.98748 0.7061 0.51439 0.0
O460 O 0.14359 0.69321 0.66658 0.0
O461 O 0.16731 0.60712 0.63596 0.0
C462 C 0.90733 0.4238 0.71054 0.0
O463 O 0.97697 0.45193 0.6852 0.0
O464 O 0.86394 0.43787 0.68626 0.0
O465 O 0.25539 0.44947 0.49172 0.0
O466 O 0.14729 0.34543 0.45119 0.0
O467 O 0.20252 0.47686 0.65122 0.0
C468 C 0.22255 0.38524 0.45394 0.0
O469 O 0.11406 0.35569 0.61708 0.0
O470 O 0.98196 0.38019 0.51373 0.0
C471 C 0.16784 0.40784 0.65616 0.0
O472 O 0.92913 0.44117 0.53986 0.0
O473 O 0.104 0.57937 0.49734 0.0
O474 O 0.20956 0.5791 0.48109 0.0
C475 C 0.41995 0.15974 0.76326 0.0
C476 C 0.5329 0.18985 0.57477 0.0
C477 C 0.36793 0.8846 0.54718 0.0
Mg478 Mg 0.56933 0.17774 0.70232 0.0
O479 O 0.50358 0.07657 0.67856 0.0
Mg480 Mg 0.39867 0.02732 0.64574 0.0
Mg481 Mg 0.53204 0.01971 0.61828 0.0
O482 O 0.55052 0.95413 0.56739 0.0
Mg483 Mg 0.46475 0.85883 0.59301 0.0
Mg484 Mg 0.65237 -0.00501 0.60579 0.0
C485 C 0.68243 0.13727 0.71693 0.0
C486 C 0.673 0.10804 0.50943 0.0
O487 O 0.37819 0.09708 0.72817 0.0
O488 O 0.495 0.20025 0.76196 0.0
O489 O 0.46303 0.12884 0.58201 0.0
O490 O 0.58819 0.21479 0.613 0.0
O491 O 0.66244 0.18042 0.73228 0.0
O492 O 0.64558 0.08025 0.67451 0.0
C493 C 0.40621 0.91854 0.72935 0.0
O494 O 0.46834 0.93996 0.6959 0.0
O495 O 0.36383 0.93902 0.71876 0.0
O496 O 0.62348 0.89215 0.53815 0.0
O497 O 0.49206 0.80821 0.5211 0.0
O498 O 0.60994 0.91747 0.6844 0.0
C499 C 0.56226 0.82937 0.51348 0.0
O500 O 0.48404 0.82312 0.67031 0.0
O501 O 0.35922 0.84684 0.59177 0.0
C502 C 0.54936 0.85259 0.69536 0.0
O503 O 0.4155 0.95676 0.55771 0.0
O504 O 0.61173 0.10044 0.53717 0.0
O505 O 0.698 0.07352 0.52635 0.0
loop_
_geom_bond_atom_site_label_1
_geom_bond_atom_site_label_2
_geom_bond_distance
_geom_bond_site_symmetry_2
_ccdc_geom_bond_type
Tb0 C10 2.825 . S
Tb0 O11 2.347 . S
Tb0 O14 2.366 . S
Tb0 O19 2.418 . S
Tb0 O20 2.384 . S
Tb0 O23 2.479 . S
Tb0 O24 2.471 . S
Eu1 O12 2.418 . S
Eu1 O13 2.384 . S
Eu1 O16 2.479 . S
Eu1 O17 2.471 . S
Eu1 O18 2.347 . S
Eu1 O21 2.366 . S
Eu1 C31 2.825 . S
C2 O18 1.259 . S
C2 O19 1.265 . S
C3 O20 1.255 . S
C3 O21 1.265 . S
C4 C6 1.380 . S
C4 C7 1.374 . S
C4 C10 1.507 . S
C5 C6 1.384 . S
C5 C9 1.387 . S
C5 H32 0.930 1_554 S
C6 C4 1.380 . S
C6 C5 1.384 . S
C6 H33 0.931 . S
C7 C4 1.374 . S
C7 C8 1.390 . S
C7 H34 0.930 . S
C8 C7 1.390 . S
C8 C9 1.391 . S
C8 H35 0.930 . S
C9 C5 1.387 . S
C9 C8 1.391 . S
C10 Tb0 2.825 . S
C10 C4 1.507 . S
C10 O23 1.238 . S
C10 O24 1.247 . S
O11 Tb0 2.347 . S
O11 C15 1.259 . S
O12 Eu1 2.418 . S
O12 C15 1.265 . S
O13 Eu1 2.384 . S
O13 C22 1.255 . S
O14 Tb0 2.366 . S
O14 C22 1.265 . S
C15 O11 1.259 . S
C15 O12 1.265 . S
O16 Eu1 2.479 . S
O16 C31 1.238 . S
O17 Eu1 2.471 . S
O17 C31 1.247 . S
O18 Eu1 2.347 . S
O18 C2 1.259 . S
O19 Tb0 2.418 . S
O19 C2 1.265 . S
O20 Tb0 2.384 . S
O20 C3 1.255 . S
O21 Eu1 2.366 . S
O21 C3 1.265 . S
C22 O13 1.255 . S
C22 O14 1.265 . S
O23 Tb0 2.479 . S
O23 C10 1.238 . S
O24 Tb0 2.471 . S
O24 C10 1.247 . S
C25 C28 1.380 . S
C25 C29 1.374 . S
C25 C31 1.507 . S
C26 C27 1.387 . S
C26 C30 1.391 . S
C27 C26 1.387 . S
C27 C28 1.384 . S
C27 H36 0.930 . S
C28 C25 1.380 . S
C28 C27 1.384 . S
C28 H37 0.931 . S
C29 C25 1.374 . S
C29 C30 1.390 . S
C29 H38 0.930 . S
C30 C26 1.391 . S
C30 C29 1.390 . S
C30 H39 0.930 . S
C31 Eu1 2.825 . S
C31 O16 1.238 . S
C31 O17 1.247 . S
C31 C25 1.507 . S
H32 C5 0.930 1_556 S
H33 C6 0.931 . S
H34 C7 0.930 . S
H35 C8 0.930 . S
H36 C27 0.930 . S
H37 C28 0.931 . S
H38 C29 0.930 . S
H39 C30 0.930 . S
Tb40 C50 2.825 . S
Tb40 O51 2.347 . S
Tb40 O54 2.366 . S
Tb40 O59 2.418 . S
Tb40 O60 2.384 . S
Tb40 O63 2.479 . S
Tb40 O64 2.471 . S
Eu41 O52 2.418 . S
Eu41 O53 2.384 . S
Eu41 O56 2.479 . S
Eu41 O57 2.471 . S
Eu41 O58 2.347 . S
Eu41 O61 2.366 . S
Eu41 C71 2.825 . S
C42 O58 1.259 . S
C42 O59 1.265 . S
C43 O60 1.255 . S
C43 O61 1.265 . S
C44 C46 1.380 . S
C44 C47 1.374 . S
C44 C50 1.507 . S
C45 C46 1.384 . S
C45 C49 1.387 . S
C45 H72 0.930 1_545 S
C46 C44 1.380 . S
C46 C45 1.384 . S
C46 H73 0.931 . S
C47 C44 1.374 . S
C47 C48 1.390 . S
C47 H74 0.930 . S
C48 C47 1.390 . S
C48 C49 1.391 . S
C48 H75 0.930 . S
C49 C45 1.387 . S
C49 C48 1.391 . S
C50 Tb40 2.825 . S
C50 C44 1.507 . S
C50 O63 1.238 . S
C50 O64 1.247 . S
O51 Tb40 2.347 . S
O51 C55 1.259 . S
O52 Eu41 2.418 . S
O52 C55 1.265 . S
O53 Eu41 2.384 . S
O53 C62 1.255 . S
O54 Tb40 2.366 . S
O54 C62 1.265 . S
C55 O51 1.259 . S
C55 O52 1.265 . S
O56 Eu41 2.479 . S
O56 C71 1.238 . S
O57 Eu41 2.471 . S
O57 C71 1.247 . S
O58 Eu41 2.347 . S
O58 C42 1.259 . S
O59 Tb40 2.418 . S
O59 C42 1.265 . S
O60 Tb40 2.384 . S
O60 C43 1.255 . S
O61 Eu41 2.366 . S
O61 C43 1.265 . S
C62 O53 1.255 . S
C62 O54 1.265 . S
O63 Tb40 2.479 . S
O63 C50 1.238 . S
O64 Tb40 2.471 . S
O64 C50 1.247 . S
C65 C68 1.380 . S
C65 C69 1.374 . S
C65 C71 1.507 . S
C66 C67 1.387 . S
C66 C70 1.391 . S
C67 C66 1.387 . S
C67 C68 1.384 . S
C67 H76 0.930 . S
C68 C65 1.380 . S
C68 C67 1.384 . S
C68 H77 0.931 . S
C69 C65 1.374 . S
C69 C70 1.390 . S
C69 H78 0.930 . S
C70 C66 1.391 . S
C70 C69 1.390 . S
C70 H79 0.930 . S
C71 Eu41 2.825 . S
C71 O56 1.238 . S
C71 O57 1.247 . S
C71 C65 1.507 . S
H72 C45 0.930 1_565 S
H73 C46 0.931 . S
H74 C47 0.930 . S
H75 C48 0.930 . S
H76 C67 0.930 . S
H77 C68 0.931 . S
H78 C69 0.930 . S
H79 C70 0.930 . S
Tb80 C90 2.825 . S
Tb80 O91 2.347 . S
Tb80 O94 2.366 . S
Tb80 O99 2.418 . S
Tb80 O100 2.384 . S
Tb80 O103 2.479 . S
Tb80 O104 2.471 . S
Eu81 O92 2.418 . S
Eu81 O93 2.384 . S
Eu81 O96 2.479 . S
Eu81 O97 2.471 . S
Eu81 O98 2.347 . S
Eu81 O101 2.366 . S
Eu81 C111 2.825 . S
C82 O98 1.259 . S
C82 O99 1.265 . S
C83 O100 1.255 . S
C83 O101 1.265 . S
C84 C86 1.380 . S
C84 C87 1.374 . S
C84 C90 1.507 . S
C85 C86 1.384 . S
C85 C89 1.387 . S
C85 H112 0.930 . S
C86 C84 1.380 . S
C86 C85 1.384 . S
C86 H113 0.931 . S
C87 C84 1.374 . S
C87 C88 1.390 . S
C87 H114 0.930 . S
C88 C87 1.390 . S
C88 C89 1.391 . S
C88 H115 0.930 . S
C89 C85 1.387 . S
C89 C88 1.391 . S
C90 Tb80 2.825 . S
C90 C84 1.507 . S
C90 O103 1.238 . S
C90 O104 1.247 . S
O91 Tb80 2.347 . S
O91 C95 1.259 . S
O92 Eu81 2.418 . S
O92 C95 1.265 . S
O93 Eu81 2.384 . S
O93 C102 1.255 . S
O94 Tb80 2.366 . S
O94 C102 1.265 . S
C95 O91 1.259 . S
C95 O92 1.265 . S
O96 Eu81 2.479 . S
O96 C111 1.238 . S
O97 Eu81 2.471 . S
O97 C111 1.247 . S
O98 Eu81 2.347 . S
O98 C82 1.259 . S
O99 Tb80 2.418 . S
O99 C82 1.265 . S
O100 Tb80 2.384 . S
O100 C83 1.255 . S
O101 Eu81 2.366 . S
O101 C83 1.265 . S
C102 O93 1.255 . S
C102 O94 1.265 . S
O103 Tb80 2.479 . S
O103 C90 1.238 . S
O104 Tb80 2.471 . S
O104 C90 1.247 . S
C105 C108 1.380 1_655 S
C105 C109 1.374 . S
C105 C111 1.507 . S
C106 C107 1.387 . S
C106 C110 1.391 1_455 S
C107 C106 1.387 . S
C107 C108 1.384 . S
C107 H116 0.930 . S
C108 C105 1.380 1_455 S
C108 C107 1.384 . S
C108 H117 0.931 . S
C109 C105 1.374 . S
C109 C110 1.390 . S
C109 H118 0.930 . S
C110 C106 1.391 1_655 S
C110 C109 1.390 . S
C110 H119 0.930 . S
C111 Eu81 2.825 . S
C111 O96 1.238 . S
C111 O97 1.247 . S
C111 C105 1.507 . S
H112 C85 0.930 . S
H113 C86 0.931 . S
H114 C87 0.930 . S
H115 C88 0.930 . S
H116 C107 0.930 . S
H117 C108 0.931 . S
H118 C109 0.930 . S
H119 C110 0.930 . S
Tb120 C130 2.825 . S
Tb120 O131 2.347 . S
Tb120 O134 2.366 . S
Tb120 O139 2.418 . S
Tb120 O140 2.384 . S
Tb120 O143 2.479 . S
Tb120 O144 2.471 . S
Eu121 O132 2.418 . S
Eu121 O133 2.384 . S
Eu121 O136 2.479 . S
Eu121 O137 2.471 . S
Eu121 O138 2.347 . S
Eu121 O141 2.366 . S
Eu121 C151 2.825 . S
C122 O138 1.259 . S
C122 O139 1.265 . S
C123 O140 1.255 . S
C123 O141 1.265 . S
C124 C126 1.380 . S
C124 C127 1.374 . S
C124 C130 1.507 . S
C125 C126 1.384 . S
C125 C129 1.387 . S
C125 H152 0.930 . S
C126 C124 1.380 . S
C126 C125 1.384 . S
C126 H153 0.931 . S
C127 C124 1.374 . S
C127 C128 1.390 . S
C127 H154 0.930 . S
C128 C127 1.390 . S
C128 C129 1.391 . S
C128 H155 0.930 . S
C129 C125 1.387 . S
C129 C128 1.391 . S
C130 Tb120 2.825 . S
C130 C124 1.507 . S
C130 O143 1.238 . S
C130 O144 1.247 . S
O131 Tb120 2.347 . S
O131 C135 1.259 . S
O132 Eu121 2.418 . S
O132 C135 1.265 . S
O133 Eu121 2.384 . S
O133 C142 1.255 . S
O134 Tb120 2.366 . S
O134 C142 1.265 . S
C135 O131 1.259 . S
C135 O132 1.265 . S
O136 Eu121 2.479 . S
O136 C151 1.238 . S
O137 Eu121 2.471 . S
O137 C151 1.247 . S
O138 Eu121 2.347 . S
O138 C122 1.259 . S
O139 Tb120 2.418 . S
O139 C122 1.265 . S
O140 Tb120 2.384 . S
O140 C123 1.255 . S
O141 Eu121 2.366 . S
O141 C123 1.265 . S
C142 O133 1.255 . S
C142 O134 1.265 . S
O143 Tb120 2.479 . S
O143 C130 1.238 . S
O144 Tb120 2.471 . S
O144 C130 1.247 . S
C145 C148 1.380 . S
C145 C149 1.374 . S
C145 C151 1.507 . S
C146 C147 1.387 . S
C146 C150 1.391 . S
C147 C146 1.387 . S
C147 C148 1.384 . S
C147 H156 0.930 1_455 S
C148 C145 1.380 . S
C148 C147 1.384 . S
C148 H157 0.931 . S
C149 C145 1.374 . S
C149 C150 1.390 . S
C149 H158 0.930 . S
C150 C146 1.391 . S
C150 C149 1.390 . S
C150 H159 0.930 . S
C151 Eu121 2.825 . S
C151 O136 1.238 . S
C151 O137 1.247 . S
C151 C145 1.507 . S
H152 C125 0.930 . S
H153 C126 0.931 . S
H154 C127 0.930 . S
H155 C128 0.930 . S
H156 C147 0.930 1_655 S
H157 C148 0.931 . S
H158 C149 0.930 . S
H159 C150 0.930 . S
Tb160 C170 2.825 . S
Tb160 O171 2.347 . S
Tb160 O174 2.366 . S
Tb160 O179 2.418 . S
Tb160 O180 2.384 . S
Tb160 O183 2.479 . S
Tb160 O184 2.471 . S
Eu161 O172 2.418 . S
Eu161 O173 2.384 . S
Eu161 O176 2.479 . S
Eu161 O177 2.471 . S
Eu161 O178 2.347 . S
Eu161 O181 2.366 . S
Eu161 C191 2.825 . S
C162 O178 1.259 . S
C162 O179 1.265 . S
C163 O180 1.255 . S
C163 O181 1.265 . S
C164 C166 1.380 . S
C164 C167 1.374 . S
C164 C170 1.507 . S
C165 C166 1.384 . S
C165 C169 1.387 . S
C165 H192 0.930 . S
C166 C164 1.380 . S
C166 C165 1.384 . S
C166 H193 0.931 . S
C167 C164 1.374 . S
C167 C168 1.390 . S
C167 H194 0.930 . S
C168 C167 1.390 . S
C168 C169 1.391 . S
C168 H195 0.930 . S
C169 C165 1.387 . S
C169 C168 1.391 . S
C170 Tb160 2.825 . S
C170 C164 1.507 . S
C170 O183 1.238 . S
C170 O184 1.247 . S
O171 Tb160 2.347 . S
O171 C175 1.259 . S
O172 Eu161 2.418 . S
O172 C175 1.265 . S
O173 Eu161 2.384 . S
O173 C182 1.255 . S
O174 Tb160 2.366 . S
O174 C182 1.265 . S
C175 O171 1.259 . S
C175 O172 1.265 . S
O176 Eu161 2.479 . S
O176 C191 1.238 . S
O177 Eu161 2.471 . S
O177 C191 1.247 . S
O178 Eu161 2.347 . S
O178 C162 1.259 . S
O179 Tb160 2.418 . S
O179 C162 1.265 . S
O180 Tb160 2.384 . S
O180 C163 1.255 . S
O181 Eu161 2.366 . S
O181 C163 1.265 . S
C182 O173 1.255 . S
C182 O174 1.265 . S
O183 Tb160 2.479 . S
O183 C170 1.238 . S
O184 Tb160 2.471 . S
O184 C170 1.247 . S
C185 C188 1.372 1_565 S
C185 C189 1.374 . S
C185 C191 1.507 . S
C186 C187 1.387 . S
C186 C190 1.391 1_545 S
C187 C186 1.387 . S
C187 C188 1.393 . S
C187 H196 0.930 . S
C188 C185 1.372 1_545 S
C188 C187 1.393 . S
C188 H197 0.930 . S
C189 C185 1.374 . S
C189 C190 1.390 . S
C189 H198 0.930 . S
C190 C186 1.391 1_565 S
C190 C189 1.390 . S
C190 H199 0.930 . S
C191 Eu161 2.825 . S
C191 O176 1.238 . S
C191 O177 1.247 . S
C191 C185 1.507 . S
H192 C165 0.930 . S
H193 C166 0.931 . S
H194 C167 0.930 . S
H195 C168 0.930 . S
H196 C187 0.930 . S
H197 C188 0.930 . S
H198 C189 0.930 . S
H199 C190 0.930 . S
Tb200 C210 2.825 . S
Tb200 O211 2.347 . S
Tb200 O214 2.366 . S
Tb200 O219 2.418 . S
Tb200 O220 2.384 . S
Tb200 O223 2.479 . S
Tb200 O224 2.471 . S
Eu201 O212 2.418 . S
Eu201 O213 2.384 . S
Eu201 O216 2.479 . S
Eu201 O217 2.471 . S
Eu201 O218 2.347 . S
Eu201 O221 2.366 . S
Eu201 C231 2.825 . S
C202 O218 1.259 . S
C202 O219 1.265 . S
C203 O220 1.255 . S
C203 O221 1.265 . S
C204 C206 1.380 . S
C204 C207 1.374 . S
C204 C210 1.507 . S
C205 C206 1.384 . S
C205 C209 1.387 . S
C205 H232 0.930 . S
C206 C204 1.380 . S
C206 C205 1.384 . S
C206 H233 0.931 . S
C207 C204 1.374 . S
C207 C208 1.390 . S
C207 H234 0.930 . S
C208 C207 1.390 . S
C208 C209 1.391 . S
C208 H235 0.930 . S
C209 C205 1.387 . S
C209 C208 1.391 . S
C210 Tb200 2.825 . S
C210 C204 1.507 . S
C210 O223 1.238 . S
C210 O224 1.247 . S
O211 Tb200 2.347 . S
O211 C215 1.259 . S
O212 Eu201 2.418 . S
O212 C215 1.265 . S
O213 Eu201 2.384 . S
O213 C222 1.255 . S
O214 Tb200 2.366 . S
O214 C222 1.265 . S
C215 O211 1.259 . S
C215 O212 1.265 . S
O216 Eu201 2.479 . S
O216 C231 1.238 . S
O217 Eu201 2.471 . S
O217 C231 1.247 . S
O218 Eu201 2.347 . S
O218 C202 1.259 . S
O219 Tb200 2.418 . S
O219 C202 1.265 . S
O220 Tb200 2.384 . S
O220 C203 1.255 . S
O221 Eu201 2.366 . S
O221 C203 1.265 . S
C222 O213 1.255 . S
C222 O214 1.265 . S
O223 Tb200 2.479 . S
O223 C210 1.238 . S
O224 Tb200 2.471 . S
O224 C210 1.247 . S
C225 C228 1.380 1_545 S
C225 C229 1.374 . S
C225 C231 1.507 . S
C226 C227 1.387 1_545 S
C226 C230 1.391 . S
C227 C226 1.387 1_565 S
C227 C228 1.384 . S
C227 H236 0.930 . S
C228 C225 1.380 1_565 S
C228 C227 1.384 . S
C228 H237 0.931 . S
C229 C225 1.374 . S
C229 C230 1.390 . S
C229 H238 0.930 . S
C230 C226 1.391 . S
C230 C229 1.390 . S
C230 H239 0.930 . S
C231 Eu201 2.825 . S
C231 O216 1.238 . S
C231 O217 1.247 . S
C231 C225 1.507 . S
H232 C205 0.930 . S
H233 C206 0.931 . S
H234 C207 0.930 . S
H235 C208 0.930 . S
H236 C227 0.930 . S
H237 C228 0.931 . S
H238 C229 0.930 . S
H239 C230 0.930 . S
Tb240 C250 2.825 . S
Tb240 O251 2.347 . S
Tb240 O254 2.366 . S
Tb240 O259 2.418 . S
Tb240 O260 2.384 . S
Tb240 O263 2.479 . S
Tb240 O264 2.471 . S
Eu241 O252 2.418 . S
Eu241 O253 2.384 . S
Eu241 O256 2.479 . S
Eu241 O257 2.471 . S
Eu241 O258 2.347 . S
Eu241 O261 2.366 . S
Eu241 C271 2.825 . S
C242 O258 1.259 . S
C242 O259 1.265 . S
C243 O260 1.255 . S
C243 O261 1.265 . S
C244 C246 1.380 . S
C244 C247 1.374 . S
C244 C250 1.507 . S
C245 C246 1.384 1_455 S
C245 C249 1.387 1_455 S
C245 H272 0.930 . S
C246 C244 1.380 . S
C246 C245 1.384 1_655 S
C246 H273 0.933 . S
C247 C244 1.374 . S
C247 C248 1.390 . S
C247 H274 0.930 . S
C248 C247 1.390 . S
C248 C249 1.391 . S
C248 H275 0.930 . S
C249 C245 1.387 1_655 S
C249 C248 1.391 . S
C250 Tb240 2.825 . S
C250 C244 1.507 . S
C250 O263 1.238 . S
C250 O264 1.247 . S
O251 Tb240 2.347 . S
O251 C255 1.259 . S
O252 Eu241 2.418 . S
O252 C255 1.265 . S
O253 Eu241 2.384 . S
O253 C262 1.255 . S
O254 Tb240 2.366 . S
O254 C262 1.265 . S
C255 O251 1.259 . S
C255 O252 1.265 . S
O256 Eu241 2.479 . S
O256 C271 1.238 . S
O257 Eu241 2.471 . S
O257 C271 1.247 . S
O258 Eu241 2.347 . S
O258 C242 1.259 . S
O259 Tb240 2.418 . S
O259 C242 1.265 . S
O260 Tb240 2.384 . S
O260 C243 1.255 . S
O261 Eu241 2.366 . S
O261 C243 1.265 . S
C262 O253 1.255 . S
C262 O254 1.265 . S
O263 Tb240 2.479 . S
O263 C250 1.238 . S
O264 Tb240 2.471 . S
O264 C250 1.247 . S
C265 C268 1.380 . S
C265 C269 1.374 . S
C265 C271 1.507 . S
C266 C267 1.387 1_554 S
C266 C270 1.391 . S
C267 C266 1.387 1_556 S
C267 C268 1.384 . S
C267 H276 0.930 . S
C268 C265 1.380 . S
C268 C267 1.384 . S
C268 H277 0.931 . S
C269 C265 1.374 . S
C269 C270 1.390 1_556 S
C269 H278 0.930 1_556 S
C270 C266 1.391 . S
C270 C269 1.390 1_554 S
C270 H279 0.930 . S
C271 Eu241 2.825 . S
C271 O256 1.238 . S
C271 O257 1.247 . S
C271 C265 1.507 . S
H272 C245 0.930 . S
H273 C246 0.933 . S
H274 C247 0.930 . S
H275 C248 0.930 . S
H276 C267 0.930 . S
H277 C268 0.931 . S
H278 C269 0.930 1_554 S
H279 C270 0.930 . S
Tb280 C290 2.825 . S
Tb280 O291 2.347 . S
Tb280 O294 2.366 . S
Tb280 O299 2.418 . S
Tb280 O300 2.384 . S
Tb280 O303 2.479 . S
Tb280 O304 2.471 . S
Eu281 O292 2.418 . S
Eu281 O293 2.384 . S
Eu281 O296 2.479 . S
Eu281 O297 2.471 . S
Eu281 O298 2.347 . S
Eu281 O301 2.366 . S
Eu281 C311 2.825 . S
C282 O298 1.259 . S
C282 O299 1.265 . S
C283 O300 1.255 . S
C283 O301 1.265 . S
C284 C286 1.380 . S
C284 C287 1.374 . S
C284 C290 1.507 . S
C285 C286 1.384 . S
C285 C289 1.387 . S
C285 H312 0.930 . S
C286 C284 1.380 . S
C286 C285 1.384 . S
C286 H313 0.931 . S
C287 C284 1.374 . S
C287 C288 1.390 . S
C287 H314 0.930 . S
C288 C287 1.390 . S
C288 C289 1.391 . S
C288 H315 0.930 . S
C289 C285 1.387 . S
C289 C288 1.391 . S
C290 Tb280 2.825 . S
C290 C284 1.507 . S
C290 O303 1.238 . S
C290 O304 1.247 . S
O291 Tb280 2.347 . S
O291 C295 1.259 . S
O292 Eu281 2.418 . S
O292 C295 1.265 . S
O293 Eu281 2.384 . S
O293 C302 1.255 . S
O294 Tb280 2.366 . S
O294 C302 1.265 . S
C295 O291 1.259 . S
C295 O292 1.265 . S
O296 Eu281 2.479 . S
O296 C311 1.238 . S
O297 Eu281 2.471 . S
O297 C311 1.247 . S
O298 Eu281 2.347 . S
O298 C282 1.259 . S
O299 Tb280 2.418 . S
O299 C282 1.265 . S
O300 Tb280 2.384 . S
O300 C283 1.255 . S
O301 Eu281 2.366 . S
O301 C283 1.265 . S
C302 O293 1.255 . S
C302 O294 1.265 . S
O303 Tb280 2.479 . S
O303 C290 1.238 . S
O304 Tb280 2.471 . S
O304 C290 1.247 . S
C305 C308 1.380 1_556 S
C305 C309 1.374 . S
C305 C311 1.507 . S
C306 C307 1.387 . S
C306 C310 1.391 1_554 S
C307 C306 1.387 . S
C307 C308 1.384 . S
C307 H316 0.930 1_655 S
C308 C305 1.380 1_554 S
C308 C307 1.384 . S
C308 H317 0.931 . S
C309 C305 1.374 . S
C309 C310 1.390 . S
C309 H318 0.930 . S
C310 C306 1.391 1_556 S
C310 C309 1.390 . S
C310 H319 0.930 . S
C311 Eu281 2.825 . S
C311 O296 1.238 . S
C311 O297 1.247 . S
C311 C305 1.507 . S
H312 C285 0.930 . S
H313 C286 0.931 . S
H314 C287 0.930 . S
H315 C288 0.930 . S
H316 C307 0.930 1_455 S
H317 C308 0.931 . S
H318 C309 0.930 . S
H319 C310 0.930 . S
C320 O332 1.241 . S
C320 O333 1.280 . S
C321 O334 1.277 . S
C321 O335 1.245 1_655 S
C322 O346 1.247 . S
C322 O348 1.289 . S
Mg323 O324 1.926 1_455 S
Mg323 O333 1.984 1_455 S
Mg323 O335 1.988 . S
Mg323 O336 2.061 . S
O324 Mg323 1.926 1_655 S
O324 Mg325 1.986 1_545 S
O324 Mg326 1.917 1_655 S
Mg325 O324 1.986 1_565 S
Mg325 O332 2.042 1_565 S
Mg325 O334 2.041 1_565 S
Mg325 O340 2.038 . S
Mg325 O348 2.238 . S
Mg326 O324 1.917 1_455 S
Mg326 O327 1.917 1_545 S
Mg326 O337 2.106 . S
Mg326 O339 2.079 1_445 S
Mg326 O348 2.106 1_445 S
Mg326 O349 2.079 . S
O327 Mg326 1.917 1_565 S
O327 Mg328 1.926 . S
O327 Mg329 1.986 1_565 S
Mg328 O327 1.926 . S
Mg328 O342 1.984 . S
Mg328 O345 1.988 . S
Mg328 O346 2.061 1_455 S
Mg329 O327 1.986 1_545 S
Mg329 O337 2.238 . S
Mg329 O341 2.042 . S
Mg329 O343 2.041 1_545 S
Mg329 O350 2.038 . S
C330 O336 1.247 . S
C330 O337 1.289 . S
C331 O349 1.245 . S
C331 O350 1.274 . S
O332 C320 1.241 . S
O332 Mg325 2.042 1_545 S
O333 C320 1.280 . S
O333 Mg323 1.984 1_655 S
O334 C321 1.277 . S
O334 Mg325 2.041 1_545 S
O335 C321 1.245 1_455 S
O335 Mg323 1.988 . S
O336 Mg323 2.061 . S
O336 C330 1.247 . S
O337 Mg326 2.106 . S
O337 Mg329 2.238 . S
O337 C330 1.289 . S
C338 O339 1.245 . S
C338 O340 1.274 . S
O339 Mg326 2.079 1_665 S
O339 C338 1.245 . S
O340 Mg325 2.038 . S
O340 C338 1.274 . S
O341 Mg329 2.042 . S
O341 C344 1.241 1_545 S
O342 Mg328 1.984 . S
O342 C344 1.280 . S
O343 Mg329 2.041 1_565 S
O343 C347 1.277 . S
C344 O341 1.241 1_565 S
C344 O342 1.280 . S
O345 Mg328 1.988 . S
O345 C347 1.245 . S
O346 C322 1.247 . S
O346 Mg328 2.061 1_655 S
C347 O343 1.277 . S
C347 O345 1.245 . S
O348 C322 1.289 . S
O348 Mg325 2.238 . S
O348 Mg326 2.106 1_665 S
O349 Mg326 2.079 . S
O349 C331 1.245 . S
O350 Mg329 2.038 . S
O350 C331 1.274 . S
C351 O363 1.241 . S
C351 O364 1.280 . S
C352 O365 1.277 . S
C352 O366 1.245 . S
C353 O377 1.247 . S
C353 O379 1.289 1_556 S
Mg354 O355 1.926 . S
Mg354 O364 1.984 . S
Mg354 O366 1.988 . S
Mg354 O367 2.061 . S
O355 Mg354 1.926 . S
O355 Mg356 1.986 1_545 S
O355 Mg357 1.917 . S
Mg356 O355 1.986 1_565 S
Mg356 O363 2.042 1_565 S
Mg356 O365 2.041 1_565 S
Mg356 O371 2.038 . S
Mg356 O379 2.238 . S
Mg357 O355 1.917 . S
Mg357 O358 1.917 1_545 S
Mg357 O368 2.106 . S
Mg357 O370 2.079 1_545 S
Mg357 O379 2.106 1_545 S
Mg357 O380 2.079 . S
O358 Mg357 1.917 1_565 S
O358 Mg359 1.926 . S
O358 Mg360 1.986 1_565 S
Mg359 O358 1.926 . S
Mg359 O373 1.984 1_554 S
Mg359 O376 1.988 . S
Mg359 O377 2.061 1_554 S
Mg360 O358 1.986 1_545 S
Mg360 O368 2.238 . S
Mg360 O372 2.042 1_545 S
Mg360 O374 2.041 1_545 S
Mg360 O381 2.038 . S
C361 O367 1.247 . S
C361 O368 1.289 . S
C362 O380 1.245 1_556 S
C362 O381 1.274 1_556 S
O363 C351 1.241 . S
O363 Mg356 2.042 1_545 S
O364 C351 1.280 . S
O364 Mg354 1.984 . S
O365 C352 1.277 . S
O365 Mg356 2.041 1_545 S
O366 C352 1.245 . S
O366 Mg354 1.988 . S
O367 Mg354 2.061 . S
O367 C361 1.247 . S
O368 Mg357 2.106 . S
O368 Mg360 2.238 . S
O368 C361 1.289 . S
C369 O370 1.245 . S
C369 O371 1.274 . S
O370 Mg357 2.079 1_565 S
O370 C369 1.245 . S
O371 Mg356 2.038 . S
O371 C369 1.274 . S
O372 Mg360 2.042 1_565 S
O372 C375 1.241 1_554 S
O373 Mg359 1.984 1_556 S
O373 C375 1.280 . S
O374 Mg360 2.041 1_565 S
O374 C378 1.277 . S
C375 O372 1.241 1_556 S
C375 O373 1.280 . S
O376 Mg359 1.988 . S
O376 C378 1.245 . S
O377 C353 1.247 . S
O377 Mg359 2.061 1_556 S
C378 O374 1.277 . S
C378 O376 1.245 . S
O379 C353 1.289 1_554 S
O379 Mg356 2.238 . S
O379 Mg357 2.106 1_565 S
O380 Mg357 2.079 . S
O380 C362 1.245 1_554 S
O381 Mg360 2.038 . S
O381 C362 1.274 1_554 S
C382 O394 1.241 . S
C382 O395 1.280 . S
C383 O396 1.277 . S
C383 O397 1.245 1_655 S
C384 O408 1.247 . S
C384 O410 1.289 . S
Mg385 O386 1.926 . S
Mg385 O395 1.984 1_455 S
Mg385 O397 1.988 1_554 S
Mg385 O398 2.061 . S
O386 Mg385 1.926 . S
O386 Mg387 1.986 1_455 S
O386 Mg388 1.917 . S
Mg387 O386 1.986 1_655 S
Mg387 O394 2.042 . S
Mg387 O396 2.041 1_554 S
Mg387 O402 2.038 . S
Mg387 O410 2.238 1_554 S
Mg388 O386 1.917 . S
Mg388 O389 1.917 1_554 S
Mg388 O399 2.106 . S
Mg388 O401 2.079 1_455 S
Mg388 O410 2.106 1_454 S
Mg388 O411 2.079 1_554 S
O389 Mg388 1.917 1_556 S
O389 Mg390 1.926 . S
O389 Mg391 1.986 1_556 S
Mg390 O389 1.926 . S
Mg390 O404 1.984 . S
Mg390 O407 1.988 1_556 S
Mg390 O408 2.061 1_455 S
Mg391 O389 1.986 1_554 S
Mg391 O399 2.238 . S
Mg391 O403 2.042 1_554 S
Mg391 O405 2.041 . S
Mg391 O412 2.038 1_554 S
C392 O398 1.247 . S
C392 O399 1.289 . S
C393 O411 1.245 . S
C393 O412 1.274 . S
O394 C382 1.241 . S
O394 Mg387 2.042 . S
O395 C382 1.280 . S
O395 Mg385 1.984 1_655 S
O396 C383 1.277 . S
O396 Mg387 2.041 1_556 S
O397 C383 1.245 1_455 S
O397 Mg385 1.988 1_556 S
O398 Mg385 2.061 . S
O398 C392 1.247 . S
O399 Mg388 2.106 . S
O399 Mg391 2.238 . S
O399 C392 1.289 . S
C400 O401 1.245 . S
C400 O402 1.274 . S
O401 Mg388 2.079 1_655 S
O401 C400 1.245 . S
O402 Mg387 2.038 . S
O402 C400 1.274 . S
O403 Mg391 2.042 1_556 S
O403 C406 1.241 . S
O404 Mg390 1.984 . S
O404 C406 1.280 . S
O405 Mg391 2.041 . S
O405 C409 1.277 . S
C406 O403 1.241 . S
C406 O404 1.280 . S
O407 Mg390 1.988 1_554 S
O407 C409 1.245 . S
O408 C384 1.247 . S
O408 Mg390 2.061 1_655 S
C409 O405 1.277 . S
C409 O407 1.245 . S
O410 C384 1.289 . S
O410 Mg387 2.238 1_556 S
O410 Mg388 2.106 1_656 S
O411 Mg388 2.079 1_556 S
O411 C393 1.245 . S
O412 Mg391 2.038 1_556 S
O412 C393 1.274 . S
C413 O425 1.241 . S
C413 O426 1.280 . S
C414 O427 1.277 . S
C414 O428 1.245 1_556 S
C415 O439 1.247 . S
C415 O441 1.289 . S
Mg416 O417 1.926 . S
Mg416 O426 1.984 . S
Mg416 O428 1.988 . S
Mg416 O429 2.061 . S
O417 Mg416 1.926 . S
O417 Mg418 1.986 . S
O417 Mg419 1.917 . S
Mg418 O417 1.986 . S
Mg418 O425 2.042 . S
Mg418 O427 2.041 1_554 S
Mg418 O433 2.038 . S
Mg418 O441 2.238 1_554 S
Mg419 O417 1.917 . S
Mg419 O420 1.917 . S
Mg419 O430 2.106 . S
Mg419 O432 2.079 . S
Mg419 O441 2.106 1_554 S
Mg419 O442 2.079 1_554 S
O420 Mg419 1.917 . S
O420 Mg421 1.926 . S
O420 Mg422 1.986 . S
Mg421 O420 1.926 . S
Mg421 O435 1.984 1_554 S
Mg421 O438 1.988 . S
Mg421 O439 2.061 1_554 S
Mg422 O420 1.986 . S
Mg422 O430 2.238 . S
Mg422 O434 2.042 1_554 S
Mg422 O436 2.041 . S
Mg422 O443 2.038 1_554 S
C423 O429 1.247 . S
C423 O430 1.289 . S
C424 O442 1.245 . S
C424 O443 1.274 . S
O425 C413 1.241 . S
O425 Mg418 2.042 . S
O426 C413 1.280 . S
O426 Mg416 1.984 . S
O427 C414 1.277 . S
O427 Mg418 2.041 1_556 S
O428 C414 1.245 1_554 S
O428 Mg416 1.988 . S
O429 Mg416 2.061 . S
O429 C423 1.247 . S
O430 Mg419 2.106 . S
O430 Mg422 2.238 . S
O430 C423 1.289 . S
C431 O432 1.245 . S
C431 O433 1.274 . S
O432 Mg419 2.079 . S
O432 C431 1.245 . S
O433 Mg418 2.038 . S
O433 C431 1.274 . S
O434 Mg422 2.042 1_556 S
O434 C437 1.241 . S
O435 Mg421 1.984 1_556 S
O435 C437 1.280 . S
O436 Mg422 2.041 . S
O436 C440 1.277 . S
C437 O434 1.241 . S
C437 O435 1.280 . S
O438 Mg421 1.988 . S
O438 C440 1.245 . S
O439 C415 1.247 . S
O439 Mg421 2.061 1_556 S
C440 O436 1.277 . S
C440 O438 1.245 . S
O441 C415 1.289 . S
O441 Mg418 2.238 1_556 S
O441 Mg419 2.106 1_556 S
O442 Mg419 2.079 1_556 S
O442 C424 1.245 . S
O443 Mg422 2.038 1_556 S
O443 C424 1.274 . S
C444 O456 1.241 . S
C444 O457 1.280 . S
C445 O458 1.277 . S
C445 O459 1.245 . S
C446 O470 1.247 . S
C446 O472 1.289 . S
Mg447 O448 1.926 1_455 S
Mg447 O457 1.984 1_455 S
Mg447 O459 1.988 1_455 S
Mg447 O460 2.061 . S
O448 Mg447 1.926 1_655 S
O448 Mg449 1.986 . S
O448 Mg450 1.917 1_655 S
Mg449 O448 1.986 . S
Mg449 O456 2.042 . S
Mg449 O458 2.041 . S
Mg449 O464 2.038 . S
Mg449 O472 2.238 . S
Mg450 O448 1.917 1_455 S
Mg450 O451 1.917 . S
Mg450 O461 2.106 . S
Mg450 O463 2.079 1_455 S
Mg450 O472 2.106 1_455 S
Mg450 O473 2.079 . S
O451 Mg450 1.917 . S
O451 Mg452 1.926 1_455 S
O451 Mg453 1.986 . S
Mg452 O451 1.926 1_655 S
Mg452 O466 1.984 1_655 S
Mg452 O469 1.988 1_655 S
Mg452 O470 2.061 . S
Mg453 O451 1.986 . S
Mg453 O461 2.238 . S
Mg453 O465 2.042 . S
Mg453 O467 2.041 . S
Mg453 O474 2.038 . S
C454 O460 1.247 . S
C454 O461 1.289 . S
C455 O473 1.245 . S
C455 O474 1.274 . S
O456 C444 1.241 . S
O456 Mg449 2.042 . S
O457 C444 1.280 . S
O457 Mg447 1.984 1_655 S
O458 C445 1.277 . S
O458 Mg449 2.041 . S
O459 C445 1.245 . S
O459 Mg447 1.988 1_655 S
O460 Mg447 2.061 . S
O460 C454 1.247 . S
O461 Mg450 2.106 . S
O461 Mg453 2.238 . S
O461 C454 1.289 . S
C462 O463 1.245 . S
C462 O464 1.274 . S
O463 Mg450 2.079 1_655 S
O463 C462 1.245 . S
O464 Mg449 2.038 . S
O464 C462 1.274 . S
O465 Mg453 2.042 . S
O465 C468 1.241 . S
O466 Mg452 1.984 1_455 S
O466 C468 1.280 . S
O467 Mg453 2.041 . S
O467 C471 1.277 . S
C468 O465 1.241 . S
C468 O466 1.280 . S
O469 Mg452 1.988 1_455 S
O469 C471 1.245 . S
O470 C446 1.247 . S
O470 Mg452 2.061 . S
C471 O467 1.277 . S
C471 O469 1.245 . S
O472 C446 1.289 . S
O472 Mg449 2.238 . S
O472 Mg450 2.106 1_655 S
O473 Mg450 2.079 . S
O473 C455 1.245 . S
O474 Mg453 2.038 . S
O474 C455 1.274 . S
C475 O487 1.241 . S
C475 O488 1.280 . S
C476 O489 1.277 . S
C476 O490 1.245 . S
C477 O501 1.247 . S
C477 O503 1.289 . S
Mg478 O479 1.926 . S
Mg478 O488 1.984 . S
Mg478 O490 1.988 . S
Mg478 O491 2.061 . S
O479 Mg478 1.926 . S
O479 Mg480 1.986 . S
O479 Mg481 1.917 . S
Mg480 O479 1.986 . S
Mg480 O487 2.042 . S
Mg480 O489 2.041 . S
Mg480 O495 2.038 1_545 S
Mg480 O503 2.238 1_545 S
Mg481 O479 1.917 . S
Mg481 O482 1.917 . S
Mg481 O492 2.106 . S
Mg481 O494 2.079 1_545 S
Mg481 O503 2.106 1_545 S
Mg481 O504 2.079 . S
O482 Mg481 1.917 . S
O482 Mg483 1.926 1_545 S
O482 Mg484 1.986 . S
Mg483 O482 1.926 1_565 S
Mg483 O497 1.984 . S
Mg483 O500 1.988 . S
Mg483 O501 2.061 . S
Mg484 O482 1.986 . S
Mg484 O492 2.238 . S
Mg484 O496 2.042 . S
Mg484 O498 2.041 . S
Mg484 O505 2.038 . S
C485 O491 1.247 . S
C485 O492 1.289 . S
C486 O504 1.245 . S
C486 O505 1.274 . S
O487 C475 1.241 . S
O487 Mg480 2.042 . S
O488 C475 1.280 . S
O488 Mg478 1.984 . S
O489 C476 1.277 . S
O489 Mg480 2.041 . S
O490 C476 1.245 . S
O490 Mg478 1.988 . S
O491 Mg478 2.061 . S
O491 C485 1.247 . S
O492 Mg481 2.106 . S
O492 Mg484 2.238 . S
O492 C485 1.289 . S
C493 O494 1.245 . S
C493 O495 1.274 . S
O494 Mg481 2.079 1_565 S
O494 C493 1.245 . S
O495 Mg480 2.038 1_565 S
O495 C493 1.274 . S
O496 Mg484 2.042 . S
O496 C499 1.241 1_545 S
O497 Mg483 1.984 . S
O497 C499 1.280 . S
O498 Mg484 2.041 . S
O498 C502 1.277 1_545 S
C499 O496 1.241 1_565 S
C499 O497 1.280 . S
O500 Mg483 1.988 . S
O500 C502 1.245 . S
O501 C477 1.247 . S
O501 Mg483 2.061 . S
C502 O498 1.277 1_565 S
C502 O500 1.245 . S
O503 C477 1.289 . S
O503 Mg480 2.238 1_565 S
O503 Mg481 2.106 1_565 S
O504 Mg481 2.079 . S
O504 C486 1.245 . S
O505 Mg484 2.038 . S
O505 C486 1.274 . S
C331 C3 2.637 . S
C321 C49 1.198 . S
C322 C95 2.011 . S
C146 C344 2.329 . S
C186 C347 2.009 1_545 S
C330 C215 2.025 . S
C249 C320 2.326 . S
C302 C338 2.653 . S
C351 C2 5.118 . S
C43 C400 3.265 . S
C378 C102 5.013 . S
C392 C135 2.676 . S
C175 C353 2.755 . S
C406 C222 3.049 . S
C243 C362 3.458 . S
C306 C383 3.030 1_554 S
C9 C409 1.772 . S
C182 C393 2.178 . S
C352 C226 2.641 1_554 S
C384 C242 1.212 . S
C295 C375 4.176 . S
C106 C382 2.158 1_455 S
C369 C142 2.000 . S
C42 C361 1.216 . S
C283 C424 2.653 . S
C169 C414 2.009 . S
C415 C202 2.025 . S
C437 C266 2.326 1_556 S
C66 C440 1.199 . S
C423 C82 2.011 . S
C129 C413 2.330 . S
C22 C431 2.637 . S
C282 C444 4.176 . S
C493 C163 2.179 . S
C209 C471 2.641 . S
C255 C485 1.212 . S
C446 C55 1.216 . S
C89 C499 2.160 . S
C455 C123 2.000 . S
C476 C26 1.771 . S
C502 C289 3.030 . S
C62 C486 3.265 . S
C83 C445 5.013 . S
C477 C122 2.676 . S
C15 C468 5.118 . S
C203 C475 3.049 . S
C462 C262 3.458 . S
C454 C162 2.755 . S
