# Generated by pormake.
# Topology nia, (6,6)-cn, num edge types: 1
# Building blocks:
#     Node 0, Type 0, BuildingBlock: KUMJIN_clean_sbu_1, # of connection points: 6
#     Node 1, Type 0, BuildingBlock: KUMJIN_clean_sbu_1, # of connection points: 6
#     Node 2, Type 1, BuildingBlock: MIDCAF_clean_sbu_0, # of connection points: 6
#     Node 3, Type 1, BuildingBlock: MIDCAF_clean_sbu_0, # of connection points: 6
#     Edge 4, Type (0, 1), BuildingBlock: ZUJKAS_clean_linker_0, # of connection points: 2
#     Edge 5, Type (0, 1), BuildingBlock: ZUJKAS_clean_linker_0, # of connection points: 2
#     Edge 6, Type (0, 1), BuildingBlock: ZUJKAS_clean_linker_0, # of connection points: 2
#     Edge 7, Type (0, 1), BuildingBlock: ZUJKAS_clean_linker_0, # of connection points: 2
#     Edge 8, Type (0, 1), BuildingBlock: ZUJKAS_clean_linker_0, # of connection points: 2
#     Edge 9, Type (0, 1), BuildingBlock: ZUJKAS_clean_linker_0, # of connection points: 2
#     Edge 10, Type (0, 1), BuildingBlock: ZUJKAS_clean_linker_0, # of connection points: 2
#     Edge 11, Type (0, 1), BuildingBlock: ZUJKAS_clean_linker_0, # of connection points: 2
#     Edge 12, Type (0, 1), BuildingBlock: ZUJKAS_clean_linker_0, # of connection points: 2
#     Edge 13, Type (0, 1), BuildingBlock: ZUJKAS_clean_linker_0, # of connection points: 2
#     Edge 14, Type (0, 1), BuildingBlock: ZUJKAS_clean_linker_0, # of connection points: 2
#     Edge 15, Type (0, 1), BuildingBlock: ZUJKAS_clean_linker_0, # of connection points: 2
# Relax obj value: 0.166
# Max RMSD: 0.273
# Mean RMSD: 0.199
data_MOF--net-nia--node1-KUMJIN_clean_sbu_1--node2-MIDCAF_clean_sbu_0--edge1-ZUJKAS_clean_linker_0
_symmetry_space_group_name_H-M    P1
_symmetry_Int_Tables_number       1
_symmetry_cell_setting            triclinic
loop_
_symmetry_equiv_pos_as_xyz
'x, y, z'
_cell_length_a     35.416319
_cell_length_b     35.450209
_cell_length_c     39.942324
_cell_angle_alpha  89.728779
_cell_angle_beta   90.039829
_cell_angle_gamma 133.81928
loop_
_atom_site_label
_atom_site_type_symbol
_atom_site_fract_x
_atom_site_fract_y
_atom_site_fract_z
_atom_type_partial_charge
Eu0 Eu 0.02994 0.97885 0.04372 0.0
C1 C 0.9578 0.97492 0.90192 0.0
N2 N 0.00283 0.01648 0.91733 0.0
C3 C 0.05227 0.03708 0.86783 0.0
C4 C 0.95871 0.96186 0.86883 0.0
C5 C 0.04942 0.04843 0.90066 0.0
C6 C 0.00676 0.9934 0.85189 0.0
C7 C 0.86387 0.90042 0.90449 0.0
C8 C 0.91094 0.94453 0.91973 0.0
C9 C 0.8647 0.88705 0.87162 0.0
C10 C 0.91194 0.91769 0.85384 0.0
Eu11 Eu -0.00502 0.03317 0.97246 0.0
N12 N 0.91132 0.95813 0.95173 0.0
C13 C 0.81718 0.87126 0.92262 0.0
C14 C 0.86542 0.93135 0.96872 0.0
C15 C 0.81792 0.88713 0.9547 0.0
H16 H 0.08426 0.08296 0.91262 0.0
H17 H 0.78176 0.86571 0.96851 0.0
H18 H 0.92922 0.9133 0.09877 0.0
H19 H 0.23946 0.13153 0.06691 0.0
H20 H 0.86457 0.94435 0.99271 0.0
H21 H 0.78024 0.83712 0.9118 0.0
H22 H 0.15968 0.06654 0.03328 0.0
H23 H 0.08947 0.06214 0.85479 0.0
H24 H 0.8289 0.85321 0.85963 0.0
H25 H 0.91188 0.90692 0.82848 0.0
H26 H 0.91395 0.9203 0.15748 0.0
H27 H 0.00907 0.98462 0.82646 0.0
H28 H 0.23188 0.14368 0.12664 0.0
N29 N 0.0105 0.98197 0.09974 0.0
C30 C 0.0526 0.01799 0.11958 0.0
C31 C 0.95304 0.94865 0.14702 0.0
C32 C 0.04615 0.02146 0.15395 0.0
C33 C 0.96154 0.94582 0.11335 0.0
C34 C -0.00451 0.98701 0.16735 0.0
N35 N 0.10784 0.04494 0.07298 0.0
C36 C 0.15607 0.07257 0.05908 0.0
C37 C 0.14709 0.08541 0.12632 0.0
C38 C 0.1026 0.04959 0.10601 0.0
C39 C 0.19679 0.11562 0.11188 0.0
C40 C 0.20125 0.10899 0.07815 0.0
H41 H 0.98892 0.98844 0.19361 0.0
H42 H 0.08609 0.06104 0.2005 0.0
H43 H 0.17439 0.11712 0.17628 0.0
O44 O 0.06142 0.94492 0.03126 0.0
O45 O 0.07316 0.06499 0.04499 0.0
O46 O 0.01364 0.06683 0.02472 0.0
O47 O 0.01686 0.92173 0.07692 0.0
O48 O 0.07852 0.01187 0.99602 0.0
O49 O 0.08042 0.07571 0.97847 0.0
O50 O 0.95541 0.05702 0.95488 0.0
O51 O -0.00307 0.97217 0.95992 0.0
O52 O 0.96301 0.92373 1.00781 0.0
O53 O 0.04088 0.11165 0.95176 0.0
O54 O 0.94832 0.00438 0.02075 0.0
O55 O 0.94557 0.94111 0.04087 0.0
C56 C 0.05403 0.08615 0.04353 0.0
C57 C 0.02542 0.86525 0.05724 0.0
C58 C 0.04042 0.81039 0.0741 0.0
C59 C -0.00744 0.76714 0.05933 0.0
C60 C 0.97729 0.8218 0.04327 0.0
C61 C 0.96122 0.77295 0.04401 0.0
C62 C 0.05675 0.85943 0.07236 0.0
C63 C 0.09956 0.05437 0.97866 0.0
C64 C 0.04351 0.91689 0.05854 0.0
C65 C 0.09037 0.05789 0.17408 0.0
C66 C 0.14067 0.08972 0.16032 0.0
C67 C 0.97086 0.9275 0.97545 0.0
C68 C 0.00208 0.1436 0.93174 0.0
C69 C 0.96002 0.17397 0.91618 0.0
C70 C 0.00956 0.22348 0.90881 0.0
C71 C 0.05101 0.19324 0.92381 0.0
C72 C 0.95643 0.13386 0.92737 0.0
C73 C 0.05459 0.23283 0.9124 0.0
C74 C 0.92876 0.96463 0.04064 0.0
C75 C -0.00061 0.10354 0.94649 0.0
H76 H 0.97872 0.72871 0.06043 0.0
H77 H 0.95219 0.82561 0.03227 0.0
H78 H 0.92403 0.73935 0.0332 0.0
H79 H 0.09388 0.89335 0.0832 0.0
H80 H 0.01338 0.25488 0.8998 0.0
H81 H 0.08669 0.20178 0.9269 0.0
H82 H 0.91842 0.09577 0.93346 0.0
H83 H 0.09247 0.27106 0.90652 0.0
Eu84 Eu 0.03043 0.98317 0.48306 0.0
C85 C 0.03965 0.0485 0.62549 0.0
N86 N -0.00448 0.00796 0.60872 0.0
C87 C 0.96795 0.95117 0.65559 0.0
C88 C 0.05077 0.04114 0.65743 0.0
C89 C 0.95844 0.96061 0.62414 0.0
C90 C 0.01477 0.99136 0.67206 0.0
C91 C 0.1179 0.14138 0.62839 0.0
C92 C 0.07286 0.09805 0.61125 0.0
C93 C 0.13003 0.13385 0.65966 0.0
C94 C 0.09661 0.08383 0.67411 0.0
Eu95 Eu 0.98549 0.02734 0.55434 0.0
N96 N 0.0613 0.10379 0.58035 0.0
C97 C 0.14934 0.19095 0.61353 0.0
C98 C 0.09038 0.15222 0.56636 0.0
C99 C 0.13514 0.19646 0.58256 0.0
H100 H 0.92087 0.93035 0.61274 0.0
H101 H 0.1587 0.23472 0.57115 0.0
H102 H 0.09157 0.07769 0.42506 0.0
H103 H 0.8584 0.77252 0.46995 0.0
H104 H 0.0793 0.15655 0.54251 0.0
H105 H 0.18425 0.22523 0.62591 0.0
H106 H 0.93741 0.85116 0.49726 0.0
H107 H 0.93876 0.91314 0.66734 0.0
H108 H 0.16484 0.16653 0.67302 0.0
H109 H 0.10604 0.07876 0.6985 0.0
H110 H 0.07722 0.09002 0.36726 0.0
H111 H 0.02186 0.98407 0.69655 0.0
H112 H 0.83466 0.77861 0.41334 0.0
N113 N 0.02112 -0.00261 0.4273 0.0
C114 C 0.97937 0.95499 0.41019 0.0
C115 C 0.04907 0.05194 0.37912 0.0
C116 C 0.96974 0.96002 0.37697 0.0
C117 C 0.05672 0.04505 0.41206 0.0
C118 C 0.00508 0.00933 0.36158 0.0
N119 N 0.95658 0.90291 0.4581 0.0
C120 C 0.92677 0.8552 0.47329 0.0
C121 C 0.90142 0.86211 0.40918 0.0
C122 C 0.94575 0.90659 0.42617 0.0
C123 C 0.86911 0.81365 0.42551 0.0
C124 C 0.88226 0.81011 0.45752 0.0
H125 H -0.00091 0.01479 0.33609 0.0
H126 H 0.91685 0.91917 0.33488 0.0
H127 H 0.8569 0.83349 0.3631 0.0
O128 O 0.0533 0.94362 0.46385 0.0
O129 O 0.9723 0.9892 0.47087 0.0
O130 O 0.92351 0.96258 0.51875 0.0
O131 O 0.11209 0.02736 0.47172 0.0
O132 O 0.99008 0.9303 0.52896 0.0
O133 O 0.93682 0.93919 0.55357 0.0
O134 O 0.96428 0.07151 0.54563 0.0
O135 O 0.06797 0.06171 0.54957 0.0
O136 O 0.05496 0.9913 0.53683 0.0
O137 O 0.93446 0.02213 0.58935 0.0
O138 O 0.01556 0.07201 0.50514 0.0
O139 O 0.07626 0.07006 0.4864 0.0
C140 C 0.92748 0.96434 0.48595 0.0
C141 C 0.12956 0.99347 0.42996 0.0
C142 C 0.16696 0.96835 0.39666 0.0
C143 C 0.18698 0.00908 0.37403 0.0
C144 C 0.15024 0.03416 0.40715 0.0
C145 C 0.17838 0.04153 0.37921 0.0
C146 C 0.13766 0.96035 0.42442 0.0
C147 C 0.95044 0.91303 0.54833 0.0
C148 C 0.10243 0.98679 0.46071 0.0
C149 C 0.92517 0.91596 0.36028 0.0
C150 C 0.89101 0.86719 0.37638 0.0
C151 C 0.07987 0.0344 0.55359 0.0
C152 C 0.88451 0.03825 0.56762 0.0
C153 C 0.83156 0.05841 0.57532 0.0
C154 C 0.79054 0.01247 0.55783 0.0
C155 C 0.84331 0.99279 0.55021 0.0
C156 C 0.87857 0.07088 0.58008 0.0
C157 C 0.7965 0.98001 0.5454 0.0
C158 C 0.05694 0.09128 0.48715 0.0
C159 C 0.93472 0.05352 0.57207 0.0
H160 H 0.20927 0.01577 0.35228 0.0
H161 H 0.14556 0.06085 0.41113 0.0
H162 H 0.19418 0.07295 0.36173 0.0
H163 H 0.12267 0.9295 0.44229 0.0
H164 H 0.75357 0.00121 0.55411 0.0
H165 H 0.84748 0.96745 0.54027 0.0
H166 H 0.91102 0.1065 0.59297 0.0
H167 H 0.76469 0.94482 0.53198 0.0
Zn168 Zn 0.36342 0.6605 0.19851 0.0
Zn169 Zn 0.3527 0.6547 0.32681 0.0
Zn170 Zn 0.35983 0.65729 0.26367 0.0
C171 C 0.45396 0.70154 0.3123 0.0
C172 C 0.28248 0.55206 0.3084 0.0
O173 O 0.32605 0.6881 0.24508 0.0
O174 O 0.32371 0.6793 0.19009 0.0
C175 C 0.46658 0.72878 0.21969 0.0
O176 O 0.43961 0.70243 0.2829 0.0
O177 O 0.42137 0.67841 0.33611 0.0
O178 O 0.28981 0.57916 0.33264 0.0
O179 O 0.3081 0.57457 0.28083 0.0
O180 O 0.44029 0.71552 0.19337 0.0
O181 O 0.44351 0.70948 0.24831 0.0
O182 O 0.31303 0.57668 0.24579 0.0
O183 O 0.32526 0.58662 0.19086 0.0
C184 C 0.30526 0.55754 0.21646 0.0
O185 O 0.32806 0.69091 0.27991 0.0
O186 O 0.34462 0.70386 0.33423 0.0
C187 C 0.31348 0.69154 0.21569 0.0
C188 C 0.3284 0.70879 0.30808 0.0
Zn189 Zn 0.63564 0.33475 0.82649 0.0
Zn190 Zn 0.67759 0.36199 0.66304 0.0
Zn191 Zn 0.65833 0.34903 0.76709 0.0
C192 C 0.71575 0.43667 0.72365 0.0
C193 C 0.57195 0.29573 0.6994 0.0
O194 O 0.67771 0.30568 0.788 0.0
O195 O 0.64088 0.28417 0.83792 0.0
C196 C 0.71641 0.44173 0.82068 0.0
O197 O 0.70954 0.43186 0.75532 0.0
O198 O 0.69866 0.39618 0.70849 0.0
O199 O 0.59884 0.31166 0.67226 0.0
O200 O 0.59185 0.30863 0.72942 0.0
O201 O 0.69203 0.40677 0.84309 0.0
O202 O 0.70649 0.42837 0.7896 0.0
O203 O 0.57393 0.30064 0.76604 0.0
O204 O 0.56516 0.30783 0.8197 0.0
C205 C 0.54584 0.29248 0.79073 0.0
O206 O 0.69784 0.32346 0.75568 0.0
O207 O 0.6922 0.34832 0.70849 0.0
C208 C 0.66434 0.28105 0.81609 0.0
C209 C 0.70644 0.3289 0.72424 0.0
H210 H 0.064 0.75402 0.05611 0.0
H211 H 0.1168 0.74469 0.0875 0.0
H212 H 0.14305 0.84521 0.16467 0.0
H213 H 0.08972 0.85399 0.13399 0.0
H214 H 0.22954 0.83512 0.11457 0.0
H215 H 0.07405 0.69946 0.20986 0.0
H216 H 0.05876 0.70643 0.16849 0.0
H217 H 0.08847 0.75759 0.19853 0.0
C218 C 0.08079 0.77388 0.07984 0.0
C219 C 0.07262 0.80466 0.09257 0.0
C220 C 0.11124 0.7689 0.09755 0.0
C221 C 0.13357 0.79425 0.12832 0.0
C222 C 0.126 0.82537 0.14095 0.0
H223 H 0.33319 0.77402 0.24423 0.0
H224 H 0.29224 0.8063 0.22874 0.0
C225 C 0.09574 0.83048 0.12328 0.0
C226 C 0.16317 0.7865 0.14782 0.0
H227 H 0.15116 0.71687 0.21354 0.0
C228 C 0.2129 0.81001 0.13653 0.0
C229 C 0.14119 0.75388 0.1765 0.0
C230 C 0.0876 0.72755 0.1892 0.0
C231 C 0.24053 0.80008 0.15263 0.0
C232 C 0.21751 0.76564 0.18039 0.0
C233 C 0.16874 0.74378 0.19247 0.0
C234 C 0.23911 0.74475 0.19298 0.0
C235 C 0.29293 0.82411 0.13898 0.0
C236 C 0.22193 0.69933 0.17835 0.0
C237 C 0.24497 0.6811 0.18708 0.0
C238 C 0.28525 0.7077 0.21085 0.0
C239 C 0.30127 0.75222 0.2265 0.0
C240 C 0.2783 0.77083 0.2175 0.0
H241 H 0.30759 0.85359 0.11909 0.0
H242 H 0.32213 0.84305 0.15948 0.0
H243 H 0.28951 0.79294 0.1284 0.0
H244 H 0.19183 0.67894 0.15931 0.0
H245 H 0.23215 0.6468 0.1746 0.0
H246 H 0.0979 0.98106 0.58739 0.0
H247 H 0.17601 0.01848 0.62019 0.0
H248 H 0.24368 0.17377 0.59697 0.0
H249 H 0.16662 0.13686 0.5639 0.0
H250 H 0.30583 0.14719 0.582 0.0
H251 H 0.23022 0.10426 0.71273 0.0
H252 H 0.18999 0.05429 0.68142 0.0
H253 H 0.20275 0.11271 0.67884 0.0
C254 C 0.12951 0.02314 0.58941 0.0
C255 C 0.12625 0.05615 0.57338 0.0
C256 C 0.17368 0.04437 0.60836 0.0
C257 C 0.21507 0.09878 0.6113 0.0
C258 C 0.2118 0.13167 0.59526 0.0
H259 H 0.50777 0.30888 0.71835 0.0
H260 H 0.41633 0.25486 0.70099 0.0
C261 C 0.16778 0.11055 0.57647 0.0
C262 C 0.26389 0.12195 0.62862 0.0
H263 H 0.31844 0.14661 0.70578 0.0
C264 C 0.30862 0.14684 0.60904 0.0
C265 C 0.26718 0.12187 0.66386 0.0
C266 C 0.22019 0.09712 0.68569 0.0
C267 C 0.35692 0.17191 0.62375 0.0
C268 C 0.36029 0.17115 0.65905 0.0
C269 C 0.31551 0.14648 0.67874 0.0
C270 C 0.41075 0.1974 0.67548 0.0
C271 C 0.40424 0.20018 0.60134 0.0
C272 C 0.43676 0.18153 0.66825 0.0
C273 C 0.48872 0.21242 0.67784 0.0
C274 C 0.51498 0.25891 0.6955 0.0
C275 C 0.48785 0.27277 0.70505 0.0
C276 C 0.43584 0.24206 0.69512 0.0
H277 H 0.39767 0.20802 0.5761 0.0
H278 H 0.4392 0.23795 0.61248 0.0
H279 H 0.41278 0.17563 0.59815 0.0
H280 H 0.41778 0.14676 0.65357 0.0
H281 H 0.50912 0.20114 0.67028 0.0
H282 H 0.14317 0.14375 0.08129 0.0
H283 H 0.1792 0.21621 0.11837 0.0
H284 H 0.06147 0.21366 0.08548 0.0
H285 H 0.02227 0.13775 0.05051 0.0
H286 H 0.22047 0.31226 0.10257 0.0
H287 H 0.04885 0.21513 0.18591 0.0
H288 H 0.05418 0.17894 0.15816 0.0
H289 H 0.0348 0.21093 0.14218 0.0
C290 C 0.1236 0.15703 0.08287 0.0
C291 C 0.07829 0.13302 0.06409 0.0
C292 C 0.14485 0.19923 0.1037 0.0
C293 C 0.12214 0.21945 0.10551 0.0
C294 C 0.07846 0.19743 0.08551 0.0
H295 H 0.21089 0.49334 0.18721 0.0
H296 H 0.16322 0.40596 0.16523 0.0
C297 C 0.05643 0.15432 0.06523 0.0
C298 C 0.1457 0.26496 0.12728 0.0
H299 H 0.1191 0.30734 0.19129 0.0
C300 C 0.19845 0.311 0.1222 0.0
C301 C 0.11686 0.26326 0.15284 0.0
C302 C 0.06067 0.21429 0.16038 0.0
C303 C 0.22278 0.35584 0.14131 0.0
C304 C 0.19384 0.35422 0.1667 0.0
C305 C 0.14124 0.30815 0.17204 0.0
C306 C 0.21662 0.40157 0.18583 0.0
C307 C 0.27867 0.40522 0.1333 0.0
C308 C 0.26097 0.42683 0.20602 0.0
C309 C 0.28822 0.47677 0.21851 0.0
C310 C 0.27075 0.50131 0.21141 0.0
C311 C 0.22442 0.47452 0.19329 0.0
C312 C 0.19731 0.4248 0.18075 0.0
H313 H 0.29167 0.40293 0.10873 0.0
H314 H 0.28344 0.43966 0.13294 0.0
H315 H 0.30486 0.4117 0.15289 0.0
H316 H 0.27614 0.40922 0.21045 0.0
H317 H 0.32464 0.49749 0.23175 0.0
H318 H 0.78393 0.08604 0.5452 0.0
H319 H 0.77 0.13945 0.56819 0.0
H320 H 0.85073 0.16265 0.65838 0.0
H321 H 0.86448 0.10896 0.63574 0.0
H322 H 0.71501 0.11846 0.62557 0.0
H323 H 0.91938 0.31115 0.63575 0.0
H324 H 0.90179 0.25855 0.61086 0.0
H325 H 0.90831 0.25858 0.6555 0.0
C326 C 0.79873 0.10246 0.56994 0.0
C327 C 0.82521 0.093 0.58864 0.0
C328 C 0.79105 0.1333 0.58295 0.0
C329 C 0.80993 0.15567 0.61481 0.0
C330 C 0.8369 0.14686 0.63341 0.0
H331 H 0.76718 0.31453 0.75001 0.0
H332 H 0.7936 0.27406 0.72246 0.0
C333 C 0.84462 0.11602 0.62043 0.0
C334 C 0.79806 0.18495 0.6295 0.0
H335 H 0.8538 0.3023 0.66319 0.0
C336 C 0.74537 0.1588 0.63353 0.0
C337 C 0.83773 0.23753 0.64002 0.0
C338 C 0.89499 0.26834 0.63507 0.0
C339 C 0.73119 0.1833 0.64842 0.0
C340 C 0.77079 0.23576 0.65908 0.0
C341 C 0.82353 0.2621 0.65498 0.0
C342 C 0.75784 0.26341 0.67499 0.0
C343 C 0.67387 0.15232 0.65346 0.0
C344 C 0.73015 0.27203 0.65721 0.0
C345 C 0.71447 0.29446 0.67302 0.0
C346 C 0.72624 0.30867 0.70691 0.0
C347 C 0.7562 0.30241 0.72418 0.0
C348 C 0.77176 0.27984 0.70838 0.0
H349 H 0.64918 0.10958 0.65124 0.0
H350 H 0.66688 0.16028 0.67841 0.0
H351 H 0.66102 0.16392 0.63408 0.0
H352 H 0.71993 0.26062 0.63122 0.0
H353 H 0.69195 0.29937 0.65896 0.0
H354 H 0.90731 0.01888 0.06663 0.0
H355 H 0.83403 0.98557 0.10328 0.0
H356 H 0.77598 0.83137 0.09929 0.0
H357 H 0.84861 0.86409 0.06213 0.0
H358 H 0.71083 0.87525 0.08469 0.0
H359 H 0.80154 0.89265 0.205 0.0
H360 H 0.8406 0.93723 0.17045 0.0
H361 H 0.81084 0.87105 0.16784 0.0
C362 C 0.87873 0.9778 0.07343 0.0
C363 C 0.88383 0.94407 0.06191 0.0
C364 C 0.83721 0.95901 0.09445 0.0
C365 C 0.80031 0.90631 0.10419 0.0
C366 C 0.80466 0.87234 0.09226 0.0
H367 H 0.52661 0.70814 0.23049 0.0
H368 H 0.61342 0.7572 0.20571 0.0
C369 C 0.84604 0.89103 0.07114 0.0
C370 C 0.75621 0.88624 0.12615 0.0
H371 H 0.71446 0.85497 0.20741 0.0
C372 C 0.71155 0.87109 0.11155 0.0
C373 C 0.75755 0.88049 0.16099 0.0
C374 C 0.80512 0.89622 0.17729 0.0
C375 C 0.66739 0.84933 0.13093 0.0
C376 C 0.66873 0.84419 0.16607 0.0
C377 C 0.7137 0.8595 0.18062 0.0
C378 C 0.62272 0.82089 0.18753 0.0
C379 C 0.6191 0.83033 0.11329 0.0
C380 C 0.60093 0.84217 0.18752 0.0
C381 C 0.55131 0.81392 0.20119 0.0
C382 C 0.52357 0.76486 0.21605 0.0
C383 C 0.54771 0.74623 0.21944 0.0
C384 C 0.59708 0.77408 0.20514 0.0
H385 H 0.61977 0.82404 0.08615 0.0
H386 H 0.583 0.79313 0.12445 0.0
H387 H 0.61716 0.86013 0.11569 0.0
H388 H 0.62069 0.87892 0.17489 0.0
H389 H 0.53316 0.82879 0.19819 0.0
H390 H 0.85687 0.85156 0.58342 0.0
H391 H 0.81474 0.77145 0.61529 0.0
H392 H 0.93365 0.77623 0.58155 0.0
H393 H 0.97829 0.85806 0.55259 0.0
H394 H 0.77091 0.67741 0.59994 0.0
H395 H 0.94224 0.76033 0.6779 0.0
H396 H 0.9409 0.80085 0.65164 0.0
H397 H 0.9583 0.7676 0.63441 0.0
C398 C 0.87475 0.83625 0.58349 0.0
C399 C 0.92193 0.86242 0.56615 0.0
C400 C 0.85028 0.79004 0.60144 0.0
C401 C 0.87189 0.76847 0.60187 0.0
C402 C 0.91728 0.79302 0.58299 0.0
H403 H 0.76931 0.47542 0.66458 0.0
H404 H 0.80444 0.55532 0.63512 0.0
C405 C 0.94246 0.83974 0.56594 0.0
C406 C 0.84695 0.72001 0.62146 0.0
H407 H 0.87396 0.66666 0.67611 0.0
C408 C 0.79341 0.67537 0.61686 0.0
C409 C 0.87597 0.7171 0.64393 0.0
C410 C 0.93234 0.76424 0.65253 0.0
C411 C 0.7688 0.6278 0.63316 0.0
C412 C 0.79852 0.6246 0.65426 0.0
C413 C 0.85156 0.66919 0.65946 0.0
C414 C 0.77524 0.57522 0.67129 0.0
C415 C 0.71138 0.58085 0.6275 0.0
C416 C 0.74716 0.56006 0.70127 0.0
C417 C 0.72746 0.51477 0.7182 0.0
C418 C 0.73571 0.48403 0.70548 0.0
C419 C 0.76276 0.49864 0.67503 0.0
C420 C 0.78279 0.54416 0.65823 0.0
H421 H 0.69424 0.5888 0.6089 0.0
H422 H 0.7055 0.54742 0.61872 0.0
H423 H 0.68986 0.56898 0.65154 0.0
H424 H 0.74084 0.58349 0.71167 0.0
H425 H 0.70536 0.50353 0.74108 0.0
H426 H 0.09772 0.86144 0.39744 0.0
H427 H 0.11637 0.80783 0.38452 0.0
H428 H 0.27974 0.9478 0.37159 0.0
H429 H 0.26142 0.00132 0.38418 0.0
H430 H 0.17125 0.82262 0.31983 0.0
H431 H 0.27152 0.84659 0.43639 0.0
H432 H 0.2261 0.85426 0.43514 0.0
H433 H 0.29167 0.90545 0.41965 0.0
C434 C 0.13765 0.88059 0.39222 0.0
C435 C 0.17811 0.93547 0.39151 0.0
C436 C 0.14817 0.85003 0.38479 0.0
C437 C 0.19941 0.874 0.37724 0.0
C438 C 0.24001 0.92867 0.37756 0.0
H439 H 0.38197 0.80801 0.32616 0.0
H440 H 0.34569 0.84478 0.34016 0.0
C441 C 0.22945 0.95914 0.38454 0.0
C442 C 0.21074 0.8427 0.36687 0.0
H443 H 0.2815 0.81406 0.38899 0.0
C444 C 0.1948 0.82 0.33499 0.0
C445 C 0.24148 0.83968 0.38679 0.0
C446 C 0.25846 0.86239 0.42154 0.0
C447 C 0.21134 0.7968 0.32165 0.0
C448 C 0.24362 0.79519 0.3412 0.0
C449 C 0.25739 0.81585 0.37377 0.0
C450 C 0.26563 0.77445 0.32832 0.0
C451 C 0.19617 0.77673 0.2862 0.0
C452 C 0.23309 0.72322 0.31599 0.0
C453 C 0.25423 0.70289 0.30694 0.0
C454 C 0.30788 0.73305 0.31096 0.0
C455 C 0.34053 0.78441 0.3226 0.0
C456 C 0.31971 0.80516 0.3308 0.0
H457 H 0.18481 0.7944 0.27171 0.0
H458 H 0.22868 0.78497 0.27283 0.0
H459 H 0.16198 0.73379 0.2867 0.0
H460 H 0.19116 0.69817 0.31468 0.0
H461 H 0.22834 0.66275 0.29861 0.0
H462 H 0.12351 0.00309 0.95053 0.0
H463 H 0.19312 0.03787 0.90987 0.0
H464 H 0.24315 0.18851 0.91418 0.0
H465 H 0.17388 0.15418 0.95488 0.0
H466 H 0.21209 0.08958 0.8445 0.0
H467 H 0.3757 0.21464 0.93509 0.0
H468 H 0.30879 0.16048 0.94803 0.0
H469 H 0.32993 0.22148 0.93575 0.0
C470 C 0.14977 0.04381 0.94309 0.0
C471 C 0.14355 0.07611 0.95596 0.0
C472 C 0.18909 0.06339 0.91966 0.0
C473 C 0.22315 0.11568 0.90913 0.0
C474 C 0.2173 0.14808 0.92217 0.0
H475 H 0.50289 0.33169 0.79579 0.0
H476 H 0.41492 0.28275 0.81742 0.0
C477 C 0.17785 0.12849 0.9454 0.0
C478 C 0.26561 0.13705 0.88495 0.0
H479 H 0.39847 0.22783 0.87769 0.0
C480 C 0.25292 0.1196 0.85165 0.0
C481 C 0.31863 0.17582 0.89457 0.0
C482 C 0.33432 0.19401 0.93036 0.0
C483 C 0.29228 0.14148 0.82738 0.0
C484 C 0.34526 0.18139 0.83689 0.0
C485 C 0.35771 0.19775 0.87037 0.0
C486 C 0.38937 0.20716 0.81311 0.0
C487 C 0.27724 0.12293 0.79169 0.0
C488 C 0.40283 0.18046 0.80135 0.0
C489 C 0.45307 0.20851 0.78849 0.0
C490 C 0.49017 0.26337 0.78757 0.0
C491 C 0.47458 0.28935 0.79574 0.0
C492 C 0.42448 0.26143 0.80835 0.0
H493 H 0.23474 0.09781 0.7873 0.0
H494 H 0.29972 0.15682 0.7742 0.0
H495 H 0.28707 0.1 0.78576 0.0
H496 H 0.37659 0.13868 0.80523 0.0
H497 H 0.4647 0.18784 0.78301 0.0
H498 H 0.00696 0.11692 0.45961 0.0
H499 H 0.04329 0.18969 0.42156 0.0
H500 H 0.19378 0.2391 0.42585 0.0
H501 H 0.15759 0.16592 0.4639 0.0
H502 H 0.18045 0.31702 0.44099 0.0
H503 H 0.10268 0.21083 0.31967 0.0
H504 H 0.06055 0.18004 0.35599 0.0
H505 H 0.11727 0.18965 0.35431 0.0
C506 C 0.04784 0.14334 0.45253 0.0
C507 C 0.07958 0.13593 0.46475 0.0
C508 C 0.06832 0.18451 0.43059 0.0
C509 C 0.12091 0.21916 0.42072 0.0
C510 C 0.15291 0.21227 0.43302 0.0
H511 H 0.30106 0.49223 0.29009 0.0
H512 H 0.2574 0.40575 0.31289 0.0
C513 C 0.1323 0.1707 0.45476 0.0
C514 C 0.14301 0.26445 0.39919 0.0
H515 H 0.14462 0.29955 0.319 0.0
C516 C 0.17297 0.31338 0.41429 0.0
C517 C 0.1331 0.25922 0.36444 0.0
C518 C 0.10186 0.20724 0.34736 0.0
C519 C 0.19255 0.35736 0.39559 0.0
C520 C 0.18141 0.35201 0.36094 0.0
C521 C 0.15258 0.30328 0.34561 0.0
C522 C 0.1995 0.39718 0.34082 0.0
C523 C 0.22491 0.4093 0.41307 0.0
C524 C 0.17953 0.41938 0.34758 0.0
C525 C 0.20416 0.46837 0.33447 0.0
C526 C 0.24871 0.49559 0.31404 0.0
C527 C 0.26592 0.47134 0.30495 0.0
C528 C 0.24136 0.42227 0.31825 0.0
H529 H 0.23941 0.40922 0.43772 0.0
H530 H 0.25897 0.44135 0.39742 0.0
H531 H 0.20048 0.41782 0.4174 0.0
H532 H 0.147 0.40034 0.36477 0.0
H533 H 0.19028 0.48638 0.34191 0.0
H534 H 0.87054 0.09503 0.88173 0.0
H535 H 0.80193 0.09215 0.86429 0.0
H536 H 0.87517 0.23035 0.92218 0.0
H537 H 0.94357 0.23353 0.93956 0.0
H538 H 0.73179 0.1037 0.90354 0.0
H539 H 0.88493 0.26353 0.81632 0.0
H540 H 0.88776 0.21893 0.83481 0.0
H541 H 0.90461 0.2712 0.85921 0.0
C542 C 0.87104 0.12384 0.89147 0.0
C543 C 0.91282 0.1651 0.91146 0.0
C544 C 0.83191 0.12213 0.88152 0.0
C545 C 0.83405 0.16142 0.89167 0.0
C546 C 0.87317 0.19992 0.91394 0.0
H547 H 0.67551 0.25836 0.87806 0.0
H548 H 0.70656 0.21703 0.89272 0.0
C549 C 0.91228 0.20183 0.9237 0.0
C550 C 0.80064 0.16717 0.87561 0.0
H551 H 0.80864 0.24807 0.82248 0.0
C552 C 0.74818 0.13471 0.88546 0.0
C553 C 0.82202 0.20712 0.85166 0.0
C554 C 0.87781 0.24205 0.83958 0.0
C555 C 0.71728 0.14314 0.87313 0.0
C556 C 0.73984 0.1853 0.85076 0.0
C557 C 0.79139 0.21577 0.83961 0.0
C558 C 0.71332 0.20262 0.84149 0.0
C559 C 0.66114 0.10752 0.88454 0.0
C560 C 0.70674 0.20833 0.80774 0.0
C561 C 0.68896 0.23217 0.79925 0.0
C562 C 0.67869 0.25167 0.82434 0.0
C563 C 0.68334 0.24397 0.85809 0.0
C564 C 0.70069 0.21991 0.86656 0.0
H565 H 0.64505 0.06844 0.89196 0.0
H566 H 0.65915 0.12481 0.90673 0.0
H567 H 0.6361 0.10249 0.86461 0.0
H568 H 0.71637 0.1953 0.78799 0.0
H569 H 0.68344 0.23555 0.77318 0.0
H570 H 0.9266 0.98829 0.4213 0.0
H571 H 0.85076 0.94558 0.38527 0.0
H572 H 0.74797 0.84714 0.46769 0.0
H573 H 0.82405 0.88823 0.50373 0.0
H574 H 0.76181 0.82547 0.37514 0.0
H575 H 0.70482 0.92607 0.42648 0.0
H576 H 0.77075 0.95353 0.42955 0.0
H577 H 0.72015 0.89973 0.45598 0.0
C578 C 0.88792 0.95695 0.43167 0.0
C579 C 0.88127 0.94082 0.46515 0.0
C580 C 0.8447 0.93296 0.4111 0.0
C581 C 0.79405 0.8933 0.42388 0.0
C582 C 0.78699 0.87783 0.4575 0.0
H583 H 0.48492 0.66652 0.35311 0.0
H584 H 0.57321 0.71541 0.37374 0.0
C585 C 0.83036 0.90141 0.47803 0.0
C586 C 0.74853 0.86801 0.40192 0.0
H587 H 0.6475 0.85875 0.38721 0.0
C588 C 0.73694 0.83292 0.37753 0.0
C589 C 0.7168 0.87845 0.40503 0.0
C590 C 0.72863 0.91671 0.4305 0.0
C591 C 0.69293 0.80641 0.35686 0.0
C592 C 0.66034 0.81574 0.36063 0.0
C593 C 0.673 0.85215 0.38426 0.0
C594 C 0.60966 0.78384 0.34324 0.0
C595 C 0.68078 0.76787 0.33156 0.0
C596 C 0.60137 0.80587 0.31861 0.0
C597 C 0.55084 0.77765 0.30642 0.0
C598 C 0.50821 0.72772 0.31937 0.0
C599 C 0.51721 0.70505 0.34283 0.0
C600 C 0.56755 0.73278 0.35453 0.0
H601 H 0.71463 0.77218 0.32737 0.0
H602 H 0.64727 0.72754 0.3407 0.0
H603 H 0.6693 0.77288 0.3073 0.0
H604 H 0.63355 0.84549 0.30986 0.0
H605 H 0.54469 0.79608 0.28861 0.0
H606 H 0.89964 0.82552 0.99553 0.0
H607 H 0.8678 0.74942 0.96397 0.0
H608 H 0.96177 0.84863 0.87911 0.0
H609 H -0.00263 0.92536 0.91167 0.0
H610 H 0.81166 0.7116 0.90901 0.0
H611 H -0.00329 0.76289 0.88248 0.0
H612 H -0.00683 0.79857 0.91216 0.0
H613 H -0.00352 0.8107 0.86798 0.0
C614 C 0.91459 0.83128 0.97048 0.0
C615 C 0.95131 0.88145 0.95623 0.0
C616 C 0.89598 0.78772 0.95233 0.0
C617 C 0.91294 0.79332 0.9193 0.0
C618 C 0.94914 0.84338 0.90481 0.0
H619 H 0.76832 0.53035 0.7818 0.0
H620 H 0.82127 0.62008 0.80176 0.0
C621 C 0.96873 0.88714 0.92329 0.0
C622 C 0.89015 0.74616 0.89977 0.0
H623 H 0.91966 0.68579 0.85716 0.0
C624 C 0.83541 0.70619 0.89758 0.0
C625 C 0.92118 0.73918 0.88469 0.0
C626 C 0.98011 0.77988 0.88714 0.0
C627 C 0.8108 0.65904 0.88152 0.0
C628 C 0.84168 0.65178 0.86702 0.0
C629 C 0.89637 0.69204 0.86814 0.0
C630 C 0.81692 0.6003 0.85382 0.0
C631 C 0.75178 0.61645 0.88097 0.0
C632 C 0.79836 0.5603 0.87643 0.0
C633 C 0.76741 0.50925 0.86524 0.0
C634 C 0.75453 0.49718 0.83113 0.0
C635 C 0.77629 0.53809 0.8082 0.0
C636 C 0.80698 0.58939 0.81952 0.0
H637 H 0.73358 0.63085 0.88892 0.0
H638 H 0.73776 0.59968 0.85548 0.0
H639 H 0.73825 0.58445 0.89825 0.0
H640 H 0.80598 0.56825 0.90298 0.0
H641 H 0.75228 0.47899 0.8836 0.0
loop_
_geom_bond_atom_site_label_1
_geom_bond_atom_site_label_2
_geom_bond_distance
_geom_bond_site_symmetry_2
_ccdc_geom_bond_type
Eu0 N29 2.600 . S
Eu0 N35 2.562 1_565 S
Eu0 O44 2.462 . S
Eu0 O45 2.373 1_565 S
Eu0 O47 2.432 . S
Eu0 O48 2.297 1_565 S
Eu0 O52 2.356 1_455 S
Eu0 O55 2.372 1_455 S
Eu0 C64 2.787 . S
C1 N2 1.365 1_665 S
C1 C4 1.405 . S
C1 C8 1.448 . S
N2 C1 1.365 1_445 S
N2 C5 1.319 . S
N2 Eu11 2.600 1_455 S
C3 C5 1.397 . S
C3 C6 1.367 . S
C3 H23 0.931 . S
C4 C1 1.405 . S
C4 C6 1.403 1_665 S
C4 C10 1.439 . S
C5 N2 1.319 . S
C5 C3 1.397 . S
C5 H16 0.930 . S
C6 C3 1.367 . S
C6 C4 1.403 1_445 S
C6 H27 0.929 1_545 S
C7 C8 1.430 . S
C7 C9 1.387 . S
C7 C13 1.404 . S
C8 C1 1.448 . S
C8 C7 1.430 . S
C8 N12 1.351 . S
C9 C7 1.387 . S
C9 C10 1.374 . S
C9 H24 0.931 . S
C10 C4 1.439 . S
C10 C9 1.374 . S
C10 H25 0.931 . S
Eu11 N2 2.600 1_655 S
Eu11 N12 2.562 1_545 S
Eu11 O46 2.335 1_656 S
Eu11 O49 2.372 1_655 S
Eu11 O50 2.462 . S
Eu11 O51 2.373 1_545 S
Eu11 O53 2.432 1_655 S
Eu11 O54 2.291 1_546 S
Eu11 C75 2.787 . S
N12 C8 1.351 . S
N12 Eu11 2.562 1_565 S
N12 C14 1.325 . S
C13 C7 1.404 . S
C13 C15 1.366 . S
C13 H21 0.930 . S
C14 N12 1.325 . S
C14 C15 1.416 . S
C14 H20 0.929 . S
C15 C13 1.366 . S
C15 C14 1.416 . S
C15 H17 0.930 . S
H16 C5 0.930 . S
H17 C15 0.930 . S
H18 C33 0.930 . S
H19 C40 0.930 . S
H20 C14 0.929 . S
H21 C13 0.930 . S
H22 C36 0.929 . S
H23 C3 0.931 . S
H24 C9 0.931 . S
H25 C10 0.931 . S
H26 C31 0.931 . S
H27 C6 0.929 1_565 S
H28 C39 0.930 . S
N29 Eu0 2.600 . S
N29 C30 1.365 1_565 S
N29 C33 1.319 1_455 S
C30 N29 1.365 1_545 S
C30 C32 1.405 . S
C30 C38 1.448 . S
C31 H26 0.931 . S
C31 C33 1.397 . S
C31 C34 1.367 1_565 S
C32 C30 1.405 . S
C32 C34 1.403 1_455 S
C32 C65 1.439 . S
C33 H18 0.930 . S
C33 N29 1.319 1_655 S
C33 C31 1.397 . S
C34 C31 1.367 1_545 S
C34 C32 1.403 1_655 S
C34 H41 0.929 . S
N35 Eu0 2.562 1_545 S
N35 C36 1.325 . S
N35 C38 1.351 . S
C36 H22 0.929 . S
C36 N35 1.325 . S
C36 C40 1.416 . S
C37 C38 1.430 . S
C37 C39 1.404 . S
C37 C66 1.387 . S
C38 C30 1.448 . S
C38 N35 1.351 . S
C38 C37 1.430 . S
C39 H28 0.930 . S
C39 C37 1.404 . S
C39 C40 1.366 . S
C40 H19 0.930 . S
C40 C36 1.416 . S
C40 C39 1.366 . S
H41 C34 0.929 . S
H42 C65 0.931 . S
H43 C66 0.931 . S
O44 Eu0 2.462 . S
O44 C64 1.252 . S
O45 Eu0 2.373 1_545 S
O45 C56 1.249 . S
O46 Eu11 2.335 1_454 S
O46 C56 1.264 . S
O47 Eu0 2.432 . S
O47 C64 1.268 . S
O48 Eu0 2.297 1_545 S
O48 C63 1.249 1_554 S
O49 Eu11 2.372 1_455 S
O49 C63 1.257 . S
O50 Eu11 2.462 . S
O50 C75 1.252 . S
O51 Eu11 2.373 1_565 S
O51 C67 1.249 . S
O52 Eu0 2.356 1_655 S
O52 C67 1.237 1_554 S
O53 Eu11 2.432 1_455 S
O53 C75 1.268 1_455 S
O54 Eu11 2.291 1_564 S
O54 C74 1.255 . S
O55 Eu0 2.372 1_655 S
O55 C74 1.257 . S
C56 O45 1.249 . S
C56 O46 1.264 . S
C57 C60 1.382 . S
C57 C62 1.390 . S
C57 C64 1.506 . S
C58 C59 1.398 . S
C58 C62 1.392 . S
C59 C58 1.398 . S
C59 C61 1.372 . S
C59 H76 0.931 . S
C60 C57 1.382 . S
C60 C61 1.390 . S
C60 H77 0.914 1_455 S
C61 C59 1.372 . S
C61 C60 1.390 . S
C61 H78 0.929 . S
C62 C57 1.390 . S
C62 C58 1.392 . S
C62 H79 0.930 . S
C63 O48 1.249 1_556 S
C63 O49 1.257 . S
C64 Eu0 2.787 . S
C64 O44 1.252 . S
C64 O47 1.268 . S
C64 C57 1.506 . S
C65 C32 1.439 . S
C65 H42 0.931 . S
C65 C66 1.374 . S
C66 C37 1.387 . S
C66 H43 0.931 . S
C66 C65 1.374 . S
C67 O51 1.249 . S
C67 O52 1.237 1_556 S
C68 C71 1.382 . S
C68 C72 1.390 . S
C68 C75 1.506 . S
C69 C70 1.398 . S
C69 C72 1.392 . S
C70 C69 1.398 . S
C70 C73 1.372 . S
C70 H80 0.931 . S
C71 C68 1.382 . S
C71 C73 1.390 . S
C71 H81 0.931 1_655 S
C72 C68 1.390 . S
C72 C69 1.392 . S
C72 H82 0.930 . S
C73 C70 1.372 . S
C73 C71 1.390 . S
C73 H83 0.929 1_655 S
C74 O54 1.255 . S
C74 O55 1.257 . S
C75 Eu11 2.787 . S
C75 O50 1.252 . S
C75 O53 1.268 1_655 S
C75 C68 1.506 . S
H76 C59 0.931 . S
H77 C60 0.914 1_655 S
H78 C61 0.929 . S
H79 C62 0.930 . S
H80 C70 0.931 . S
H81 C71 0.931 1_455 S
H82 C72 0.930 . S
H83 C73 0.929 1_455 S
Eu84 N113 2.600 1_565 S
Eu84 N119 2.562 1_455 S
Eu84 O128 2.462 . S
Eu84 O129 2.373 1_455 S
Eu84 O131 2.432 1_565 S
Eu84 O132 2.291 1_455 S
Eu84 O136 2.335 1_565 S
Eu84 O139 2.372 1_565 S
Eu84 C148 2.787 . S
C85 N86 1.365 . S
C85 C88 1.405 . S
C85 C92 1.448 . S
N86 C85 1.365 . S
N86 C89 1.319 1_445 S
N86 Eu95 2.596 1_455 S
C87 C89 1.397 . S
C87 C90 1.367 1_665 S
C87 H107 0.931 . S
C88 C85 1.405 . S
C88 C90 1.403 . S
C88 C94 1.439 . S
C89 N86 1.319 1_665 S
C89 C87 1.397 . S
C89 H100 0.930 . S
C90 C87 1.367 1_445 S
C90 C88 1.403 . S
C90 H111 0.929 1_545 S
C91 C92 1.430 . S
C91 C93 1.387 . S
C91 C97 1.404 . S
C92 C85 1.448 . S
C92 C91 1.430 . S
C92 N96 1.351 . S
C93 C91 1.387 . S
C93 C94 1.374 . S
C93 H108 0.931 . S
C94 C88 1.439 . S
C94 C93 1.374 . S
C94 H109 0.931 . S
Eu95 N86 2.596 1_655 S
Eu95 N96 2.559 1_655 S
Eu95 O130 2.345 1_545 S
Eu95 O133 2.366 1_545 S
Eu95 O134 2.478 . S
Eu95 O135 2.354 1_655 S
Eu95 O137 2.448 . S
Eu95 O138 2.287 1_655 S
Eu95 C159 2.805 . S
N96 C92 1.351 . S
N96 Eu95 2.559 1_455 S
N96 C98 1.325 . S
C97 C91 1.404 . S
C97 C99 1.366 . S
C97 H105 0.930 . S
C98 N96 1.325 . S
C98 C99 1.416 . S
C98 H104 0.929 . S
C99 C97 1.366 . S
C99 C98 1.416 . S
C99 H101 0.930 . S
H100 C89 0.930 . S
H101 C99 0.930 . S
H102 C117 0.930 . S
H103 C124 0.930 . S
H104 C98 0.929 . S
H105 C97 0.930 . S
H106 C120 0.929 . S
H107 C87 0.931 . S
H108 C93 0.931 . S
H109 C94 0.931 . S
H110 C115 0.931 . S
H111 C90 0.929 1_565 S
H112 C123 0.930 . S
N113 Eu84 2.600 1_545 S
N113 C114 1.365 1_445 S
N113 C117 1.319 . S
C114 N113 1.365 1_665 S
C114 C116 1.405 . S
C114 C122 1.448 . S
C115 H110 0.931 . S
C115 C117 1.397 . S
C115 C118 1.367 . S
C116 C114 1.405 . S
C116 C118 1.403 1_665 S
C116 C149 1.439 . S
C117 H102 0.930 . S
C117 N113 1.319 . S
C117 C115 1.397 . S
C118 C115 1.367 . S
C118 C116 1.403 1_445 S
C118 H125 0.929 . S
N119 Eu84 2.562 1_655 S
N119 C120 1.325 . S
N119 C122 1.351 . S
C120 H106 0.929 . S
C120 N119 1.325 . S
C120 C124 1.416 . S
C121 C122 1.430 . S
C121 C123 1.404 . S
C121 C150 1.387 . S
C122 C114 1.448 . S
C122 N119 1.351 . S
C122 C121 1.430 . S
C123 H112 0.930 . S
C123 C121 1.404 . S
C123 C124 1.366 . S
C124 H103 0.930 . S
C124 C120 1.416 . S
C124 C123 1.366 . S
H125 C118 0.929 . S
H126 C149 0.931 . S
H127 C150 0.931 . S
O128 Eu84 2.462 . S
O128 C148 1.252 . S
O129 Eu84 2.373 1_655 S
O129 C140 1.249 . S
O130 Eu95 2.345 1_565 S
O130 C140 1.264 . S
O131 Eu84 2.432 1_545 S
O131 C148 1.268 1_545 S
O132 Eu84 2.291 1_655 S
O132 C147 1.255 . S
O133 Eu95 2.366 1_565 S
O133 C147 1.257 . S
O134 Eu95 2.478 . S
O134 C159 1.252 . S
O135 Eu95 2.354 1_455 S
O135 C151 1.249 . S
O136 Eu84 2.335 1_545 S
O136 C151 1.264 . S
O137 Eu95 2.448 . S
O137 C159 1.268 . S
O138 Eu95 2.287 1_455 S
O138 C158 1.255 . S
O139 Eu84 2.372 1_545 S
O139 C158 1.257 . S
C140 O129 1.249 . S
C140 O130 1.264 . S
C141 C144 1.382 . S
C141 C146 1.390 . S
C141 C148 1.506 . S
C142 C143 1.398 . S
C142 C146 1.392 . S
C143 C142 1.398 . S
C143 C145 1.372 . S
C143 H160 0.931 . S
C144 C141 1.382 . S
C144 C145 1.390 . S
C144 H161 0.931 1_565 S
C145 C143 1.372 . S
C145 C144 1.390 . S
C145 H162 0.929 1_565 S
C146 C141 1.390 . S
C146 C142 1.392 . S
C146 H163 0.930 . S
C147 O132 1.255 . S
C147 O133 1.257 . S
C148 Eu84 2.787 . S
C148 O128 1.252 . S
C148 O131 1.268 1_565 S
C148 C141 1.506 . S
C149 C116 1.439 . S
C149 H126 0.931 . S
C149 C150 1.374 . S
C150 C121 1.387 . S
C150 H127 0.931 . S
C150 C149 1.374 . S
C151 O135 1.249 . S
C151 O136 1.264 . S
C152 C155 1.382 . S
C152 C156 1.390 . S
C152 C159 1.506 . S
C153 C154 1.398 . S
C153 C156 1.392 . S
C154 C153 1.398 . S
C154 C157 1.372 . S
C154 H164 0.931 . S
C155 C152 1.382 . S
C155 C157 1.390 . S
C155 H165 0.931 . S
C156 C152 1.390 . S
C156 C153 1.392 . S
C156 H166 0.930 . S
C157 C154 1.372 . S
C157 C155 1.390 . S
C157 H167 0.929 . S
C158 O138 1.255 . S
C158 O139 1.257 . S
C159 Eu95 2.805 . S
C159 O134 1.252 . S
C159 O137 1.268 . S
C159 C152 1.506 . S
H160 C143 0.931 . S
H161 C144 0.931 1_545 S
H162 C145 0.929 1_545 S
H163 C146 0.930 . S
H164 C154 0.931 . S
H165 C155 0.931 . S
H166 C156 0.930 . S
H167 C157 0.929 . S
Zn168 O174 1.920 . S
Zn168 O180 1.898 . S
Zn168 O183 1.905 . S
Zn169 O177 1.905 . S
Zn169 O178 1.898 . S
Zn169 O186 1.920 . S
Zn170 O173 2.080 . S
Zn170 O176 2.114 . S
Zn170 O179 2.120 . S
Zn170 O181 2.120 . S
Zn170 O182 2.114 . S
Zn170 O185 2.080 . S
C171 O176 1.166 . S
C171 O177 1.182 . S
C172 O178 1.167 . S
C172 O179 1.299 . S
O173 Zn170 2.080 . S
O173 C187 1.305 . S
O174 Zn168 1.920 . S
O174 C187 1.234 . S
C175 O180 1.167 . S
C175 O181 1.299 . S
O176 Zn170 2.114 . S
O176 C171 1.166 . S
O177 Zn169 1.905 . S
O177 C171 1.182 . S
O178 Zn169 1.898 . S
O178 C172 1.167 . S
O179 Zn170 2.120 . S
O179 C172 1.299 . S
O180 Zn168 1.898 . S
O180 C175 1.167 . S
O181 Zn170 2.120 . S
O181 C175 1.299 . S
O182 Zn170 2.114 . S
O182 C184 1.166 . S
O183 Zn168 1.905 . S
O183 C184 1.182 . S
C184 O182 1.166 . S
C184 O183 1.182 . S
O185 Zn170 2.080 . S
O185 C188 1.305 . S
O186 Zn169 1.920 . S
O186 C188 1.234 . S
C187 O173 1.305 . S
C187 O174 1.234 . S
C188 O185 1.305 . S
C188 O186 1.234 . S
Zn189 O195 1.920 . S
Zn189 O201 1.898 . S
Zn189 O204 1.905 . S
Zn190 O198 1.905 . S
Zn190 O199 1.898 . S
Zn190 O207 1.920 . S
Zn191 O194 2.080 . S
Zn191 O197 2.114 . S
Zn191 O200 2.120 . S
Zn191 O202 2.120 . S
Zn191 O203 2.114 . S
Zn191 O206 2.080 . S
C192 O197 1.166 . S
C192 O198 1.182 . S
C193 O199 1.167 . S
C193 O200 1.299 . S
O194 Zn191 2.080 . S
O194 C208 1.305 . S
O195 Zn189 1.920 . S
O195 C208 1.234 . S
C196 O201 1.167 . S
C196 O202 1.299 . S
O197 Zn191 2.114 . S
O197 C192 1.166 . S
O198 Zn190 1.905 . S
O198 C192 1.182 . S
O199 Zn190 1.898 . S
O199 C193 1.167 . S
O200 Zn191 2.120 . S
O200 C193 1.299 . S
O201 Zn189 1.898 . S
O201 C196 1.167 . S
O202 Zn191 2.120 . S
O202 C196 1.299 . S
O203 Zn191 2.114 . S
O203 C205 1.166 . S
O204 Zn189 1.905 . S
O204 C205 1.182 . S
C205 O203 1.166 . S
C205 O204 1.182 . S
O206 Zn191 2.080 . S
O206 C209 1.305 . S
O207 Zn190 1.920 . S
O207 C209 1.234 . S
C208 O194 1.305 . S
C208 O195 1.234 . S
C209 O206 1.305 . S
C209 O207 1.234 . S
H210 C218 0.929 . S
H211 C220 0.930 . S
H212 C222 0.930 . S
H213 C225 0.929 . S
H214 C228 0.930 . S
H215 C230 0.960 . S
H216 C230 0.960 . S
H217 C230 0.960 . S
C218 H210 0.929 . S
C218 C219 1.377 . S
C218 C220 1.384 . S
C219 C218 1.377 . S
C219 C225 1.390 . S
C220 H211 0.930 . S
C220 C218 1.384 . S
C220 C221 1.372 . S
C221 C220 1.372 . S
C221 C222 1.400 . S
C221 C226 1.490 . S
C222 H212 0.930 . S
C222 C221 1.400 . S
C222 C225 1.386 . S
H223 C239 0.930 . S
H224 C240 0.931 . S
C225 H213 0.929 . S
C225 C219 1.390 . S
C225 C222 1.386 . S
C226 C221 1.490 . S
C226 C228 1.395 . S
C226 C229 1.403 . S
H227 C233 0.930 . S
C228 H214 0.930 . S
C228 C226 1.395 . S
C228 C231 1.403 . S
C229 C226 1.403 . S
C229 C230 1.524 . S
C229 C233 1.400 . S
C230 H215 0.960 . S
C230 H216 0.960 . S
C230 H217 0.960 . S
C230 C229 1.524 . S
C231 C228 1.403 . S
C231 C232 1.392 . S
C231 C235 1.495 . S
C232 C231 1.392 . S
C232 C233 1.385 . S
C232 C234 1.478 . S
C233 H227 0.930 . S
C233 C229 1.400 . S
C233 C232 1.385 . S
C234 C232 1.478 . S
C234 C236 1.381 . S
C234 C240 1.383 . S
C235 C231 1.495 . S
C235 H241 0.959 . S
C235 H242 0.961 . S
C235 H243 0.960 . S
C236 C234 1.381 . S
C236 C237 1.394 . S
C236 H244 0.930 . S
C237 C236 1.394 . S
C237 C238 1.383 . S
C237 H245 0.929 . S
C238 C237 1.383 . S
C238 C239 1.377 . S
C239 H223 0.930 . S
C239 C238 1.377 . S
C239 C240 1.379 . S
C240 H224 0.931 . S
C240 C234 1.383 . S
C240 C239 1.379 . S
H241 C235 0.959 . S
H242 C235 0.961 . S
H243 C235 0.960 . S
H244 C236 0.930 . S
H245 C237 0.929 . S
H246 C254 0.929 . S
H247 C256 0.930 . S
H248 C258 0.930 . S
H249 C261 0.929 . S
H250 C264 0.930 . S
H251 C266 0.960 . S
H252 C266 0.960 . S
H253 C266 0.960 . S
C254 H246 0.929 . S
C254 C255 1.377 . S
C254 C256 1.384 . S
C255 C254 1.377 . S
C255 C261 1.390 . S
C256 H247 0.930 . S
C256 C254 1.384 . S
C256 C257 1.372 . S
C257 C256 1.372 . S
C257 C258 1.400 . S
C257 C262 1.490 . S
C258 H248 0.930 . S
C258 C257 1.400 . S
C258 C261 1.386 . S
H259 C275 0.930 . S
H260 C276 0.931 . S
C261 H249 0.929 . S
C261 C255 1.390 . S
C261 C258 1.386 . S
C262 C257 1.490 . S
C262 C264 1.395 . S
C262 C265 1.403 . S
H263 C269 0.930 . S
C264 H250 0.930 . S
C264 C262 1.395 . S
C264 C267 1.403 . S
C265 C262 1.403 . S
C265 C266 1.524 . S
C265 C269 1.400 . S
C266 H251 0.960 . S
C266 H252 0.960 . S
C266 H253 0.960 . S
C266 C265 1.524 . S
C267 C264 1.403 . S
C267 C268 1.392 . S
C267 C271 1.495 . S
C268 C267 1.392 . S
C268 C269 1.385 . S
C268 C270 1.478 . S
C269 H263 0.930 . S
C269 C265 1.400 . S
C269 C268 1.385 . S
C270 C268 1.478 . S
C270 C272 1.381 . S
C270 C276 1.383 . S
C271 C267 1.495 . S
C271 H277 0.959 . S
C271 H278 0.961 . S
C271 H279 0.960 . S
C272 C270 1.381 . S
C272 C273 1.394 . S
C272 H280 0.930 . S
C273 C272 1.394 . S
C273 C274 1.383 . S
C273 H281 0.929 . S
C274 C273 1.383 . S
C274 C275 1.377 . S
C275 H259 0.930 . S
C275 C274 1.377 . S
C275 C276 1.379 . S
C276 H260 0.931 . S
C276 C270 1.383 . S
C276 C275 1.379 . S
H277 C271 0.959 . S
H278 C271 0.961 . S
H279 C271 0.960 . S
H280 C272 0.930 . S
H281 C273 0.929 . S
H282 C290 0.929 . S
H283 C292 0.930 . S
H284 C294 0.930 . S
H285 C297 0.929 . S
H286 C300 0.930 . S
H287 C302 0.960 . S
H288 C302 0.960 . S
H289 C302 0.960 . S
C290 H282 0.929 . S
C290 C291 1.377 . S
C290 C292 1.384 . S
C291 C290 1.377 . S
C291 C297 1.390 . S
C292 H283 0.930 . S
C292 C290 1.384 . S
C292 C293 1.372 . S
C293 C292 1.372 . S
C293 C294 1.400 . S
C293 C298 1.490 . S
C294 H284 0.930 . S
C294 C293 1.400 . S
C294 C297 1.386 . S
H295 C311 0.930 . S
H296 C312 0.931 . S
C297 H285 0.929 . S
C297 C291 1.390 . S
C297 C294 1.386 . S
C298 C293 1.490 . S
C298 C300 1.395 . S
C298 C301 1.403 . S
H299 C305 0.930 . S
C300 H286 0.930 . S
C300 C298 1.395 . S
C300 C303 1.403 . S
C301 C298 1.403 . S
C301 C302 1.524 . S
C301 C305 1.400 . S
C302 H287 0.960 . S
C302 H288 0.960 . S
C302 H289 0.960 . S
C302 C301 1.524 . S
C303 C300 1.403 . S
C303 C304 1.392 . S
C303 C307 1.495 . S
C304 C303 1.392 . S
C304 C305 1.385 . S
C304 C306 1.478 . S
C305 H299 0.930 . S
C305 C301 1.400 . S
C305 C304 1.385 . S
C306 C304 1.478 . S
C306 C308 1.381 . S
C306 C312 1.383 . S
C307 C303 1.495 . S
C307 H313 0.959 . S
C307 H314 0.961 . S
C307 H315 0.960 . S
C308 C306 1.381 . S
C308 C309 1.394 . S
C308 H316 0.930 . S
C309 C308 1.394 . S
C309 C310 1.383 . S
C309 H317 0.929 . S
C310 C309 1.383 . S
C310 C311 1.377 . S
C311 H295 0.930 . S
C311 C310 1.377 . S
C311 C312 1.379 . S
C312 H296 0.931 . S
C312 C306 1.383 . S
C312 C311 1.379 . S
H313 C307 0.959 . S
H314 C307 0.961 . S
H315 C307 0.960 . S
H316 C308 0.930 . S
H317 C309 0.929 . S
H318 C326 0.929 . S
H319 C328 0.930 . S
H320 C330 0.930 . S
H321 C333 0.929 . S
H322 C336 0.930 . S
H323 C338 0.960 . S
H324 C338 0.960 . S
H325 C338 0.960 . S
C326 H318 0.929 . S
C326 C327 1.377 . S
C326 C328 1.384 . S
C327 C326 1.377 . S
C327 C333 1.390 . S
C328 H319 0.930 . S
C328 C326 1.384 . S
C328 C329 1.372 . S
C329 C328 1.372 . S
C329 C330 1.400 . S
C329 C334 1.490 . S
C330 H320 0.930 . S
C330 C329 1.400 . S
C330 C333 1.386 . S
H331 C347 0.930 . S
H332 C348 0.931 . S
C333 H321 0.929 . S
C333 C327 1.390 . S
C333 C330 1.386 . S
C334 C329 1.490 . S
C334 C336 1.395 . S
C334 C337 1.403 . S
H335 C341 0.930 . S
C336 H322 0.930 . S
C336 C334 1.395 . S
C336 C339 1.403 . S
C337 C334 1.403 . S
C337 C338 1.524 . S
C337 C341 1.400 . S
C338 H323 0.960 . S
C338 H324 0.960 . S
C338 H325 0.960 . S
C338 C337 1.524 . S
C339 C336 1.403 . S
C339 C340 1.392 . S
C339 C343 1.495 . S
C340 C339 1.392 . S
C340 C341 1.385 . S
C340 C342 1.478 . S
C341 H335 0.930 . S
C341 C337 1.400 . S
C341 C340 1.385 . S
C342 C340 1.478 . S
C342 C344 1.381 . S
C342 C348 1.383 . S
C343 C339 1.495 . S
C343 H349 0.959 . S
C343 H350 0.961 . S
C343 H351 0.960 . S
C344 C342 1.381 . S
C344 C345 1.394 . S
C344 H352 0.930 . S
C345 C344 1.394 . S
C345 C346 1.383 . S
C345 H353 0.929 . S
C346 C345 1.383 . S
C346 C347 1.377 . S
C347 H331 0.930 . S
C347 C346 1.377 . S
C347 C348 1.379 . S
C348 H332 0.931 . S
C348 C342 1.383 . S
C348 C347 1.379 . S
H349 C343 0.959 . S
H350 C343 0.961 . S
H351 C343 0.960 . S
H352 C344 0.930 . S
H353 C345 0.929 . S
H354 C362 0.909 1_545 S
H355 C364 0.930 . S
H356 C366 0.930 . S
H357 C369 0.929 . S
H358 C372 0.930 . S
H359 C374 0.960 . S
H360 C374 0.960 . S
H361 C374 0.960 . S
C362 H354 0.909 1_565 S
C362 C363 1.377 . S
C362 C364 1.384 . S
C363 C362 1.377 . S
C363 C369 1.390 . S
C364 H355 0.930 . S
C364 C362 1.384 . S
C364 C365 1.372 . S
C365 C364 1.372 . S
C365 C366 1.400 . S
C365 C370 1.490 . S
C366 H356 0.930 . S
C366 C365 1.400 . S
C366 C369 1.386 . S
H367 C383 0.930 . S
H368 C384 0.931 . S
C369 H357 0.929 . S
C369 C363 1.390 . S
C369 C366 1.386 . S
C370 C365 1.490 . S
C370 C372 1.395 . S
C370 C373 1.403 . S
H371 C377 0.930 . S
C372 H358 0.930 . S
C372 C370 1.395 . S
C372 C375 1.403 . S
C373 C370 1.403 . S
C373 C374 1.524 . S
C373 C377 1.400 . S
C374 H359 0.960 . S
C374 H360 0.960 . S
C374 H361 0.960 . S
C374 C373 1.524 . S
C375 C372 1.403 . S
C375 C376 1.392 . S
C375 C379 1.495 . S
C376 C375 1.392 . S
C376 C377 1.385 . S
C376 C378 1.478 . S
C377 H371 0.930 . S
C377 C373 1.400 . S
C377 C376 1.385 . S
C378 C376 1.478 . S
C378 C380 1.381 . S
C378 C384 1.383 . S
C379 C375 1.495 . S
C379 H385 0.959 . S
C379 H386 0.961 . S
C379 H387 0.960 . S
C380 C378 1.381 . S
C380 C381 1.394 . S
C380 H388 0.930 . S
C381 C380 1.394 . S
C381 C382 1.383 . S
C381 H389 0.929 . S
C382 C381 1.383 . S
C382 C383 1.377 . S
C383 H367 0.930 . S
C383 C382 1.377 . S
C383 C384 1.379 . S
C384 H368 0.931 . S
C384 C378 1.383 . S
C384 C383 1.379 . S
H385 C379 0.959 . S
H386 C379 0.961 . S
H387 C379 0.960 . S
H388 C380 0.930 . S
H389 C381 0.929 . S
H390 C398 0.929 . S
H391 C400 0.930 . S
H392 C402 0.930 . S
H393 C405 0.929 . S
H394 C408 0.930 . S
H395 C410 0.960 . S
H396 C410 0.960 . S
H397 C410 0.960 . S
C398 H390 0.929 . S
C398 C399 1.377 . S
C398 C400 1.384 . S
C399 C398 1.377 . S
C399 C405 1.390 . S
C400 H391 0.930 . S
C400 C398 1.384 . S
C400 C401 1.372 . S
C401 C400 1.372 . S
C401 C402 1.400 . S
C401 C406 1.490 . S
C402 H392 0.930 . S
C402 C401 1.400 . S
C402 C405 1.386 . S
H403 C419 0.930 . S
H404 C420 0.931 . S
C405 H393 0.929 . S
C405 C399 1.390 . S
C405 C402 1.386 . S
C406 C401 1.490 . S
C406 C408 1.395 . S
C406 C409 1.403 . S
H407 C413 0.930 . S
C408 H394 0.930 . S
C408 C406 1.395 . S
C408 C411 1.403 . S
C409 C406 1.403 . S
C409 C410 1.524 . S
C409 C413 1.400 . S
C410 H395 0.960 . S
C410 H396 0.960 . S
C410 H397 0.960 . S
C410 C409 1.524 . S
C411 C408 1.403 . S
C411 C412 1.392 . S
C411 C415 1.495 . S
C412 C411 1.392 . S
C412 C413 1.385 . S
C412 C414 1.478 . S
C413 H407 0.930 . S
C413 C409 1.400 . S
C413 C412 1.385 . S
C414 C412 1.478 . S
C414 C416 1.381 . S
C414 C420 1.383 . S
C415 C411 1.495 . S
C415 H421 0.959 . S
C415 H422 0.961 . S
C415 H423 0.960 . S
C416 C414 1.381 . S
C416 C417 1.394 . S
C416 H424 0.930 . S
C417 C416 1.394 . S
C417 C418 1.383 . S
C417 H425 0.929 . S
C418 C417 1.383 . S
C418 C419 1.377 . S
C419 H403 0.930 . S
C419 C418 1.377 . S
C419 C420 1.379 . S
C420 H404 0.931 . S
C420 C414 1.383 . S
C420 C419 1.379 . S
H421 C415 0.959 . S
H422 C415 0.961 . S
H423 C415 0.960 . S
H424 C416 0.930 . S
H425 C417 0.929 . S
H426 C434 0.929 . S
H427 C436 0.930 . S
H428 C438 0.930 . S
H429 C441 0.929 . S
H430 C444 0.930 . S
H431 C446 0.960 . S
H432 C446 0.960 . S
H433 C446 0.960 . S
C434 H426 0.929 . S
C434 C435 1.377 . S
C434 C436 1.384 . S
C435 C434 1.377 . S
C435 C441 1.390 . S
C436 H427 0.930 . S
C436 C434 1.384 . S
C436 C437 1.372 . S
C437 C436 1.372 . S
C437 C438 1.400 . S
C437 C442 1.490 . S
C438 H428 0.930 . S
C438 C437 1.400 . S
C438 C441 1.386 . S
H439 C455 0.930 . S
H440 C456 0.931 . S
C441 H429 0.929 . S
C441 C435 1.390 . S
C441 C438 1.386 . S
C442 C437 1.490 . S
C442 C444 1.395 . S
C442 C445 1.403 . S
H443 C449 0.930 . S
C444 H430 0.930 . S
C444 C442 1.395 . S
C444 C447 1.403 . S
C445 C442 1.403 . S
C445 C446 1.524 . S
C445 C449 1.400 . S
C446 H431 0.960 . S
C446 H432 0.960 . S
C446 H433 0.960 . S
C446 C445 1.524 . S
C447 C444 1.403 . S
C447 C448 1.392 . S
C447 C451 1.495 . S
C448 C447 1.392 . S
C448 C449 1.385 . S
C448 C450 1.478 . S
C449 H443 0.930 . S
C449 C445 1.400 . S
C449 C448 1.385 . S
C450 C448 1.478 . S
C450 C452 1.381 . S
C450 C456 1.383 . S
C451 C447 1.495 . S
C451 H457 0.959 . S
C451 H458 0.961 . S
C451 H459 0.960 . S
C452 C450 1.381 . S
C452 C453 1.394 . S
C452 H460 0.930 . S
C453 C452 1.394 . S
C453 C454 1.383 . S
C453 H461 0.929 . S
C454 C453 1.383 . S
C454 C455 1.377 . S
C455 H439 0.930 . S
C455 C454 1.377 . S
C455 C456 1.379 . S
C456 H440 0.931 . S
C456 C450 1.383 . S
C456 C455 1.379 . S
H457 C451 0.959 . S
H458 C451 0.961 . S
H459 C451 0.960 . S
H460 C452 0.930 . S
H461 C453 0.929 . S
H462 C470 0.929 . S
H463 C472 0.930 . S
H464 C474 0.930 . S
H465 C477 0.929 . S
H466 C480 0.930 . S
H467 C482 0.960 . S
H468 C482 0.960 . S
H469 C482 0.960 . S
C470 H462 0.929 . S
C470 C471 1.377 . S
C470 C472 1.384 . S
C471 C470 1.377 . S
C471 C477 1.390 . S
C472 H463 0.930 . S
C472 C470 1.384 . S
C472 C473 1.372 . S
C473 C472 1.372 . S
C473 C474 1.400 . S
C473 C478 1.490 . S
C474 H464 0.930 . S
C474 C473 1.400 . S
C474 C477 1.386 . S
H475 C491 0.930 . S
H476 C492 0.931 . S
C477 H465 0.929 . S
C477 C471 1.390 . S
C477 C474 1.386 . S
C478 C473 1.490 . S
C478 C480 1.395 . S
C478 C481 1.403 . S
H479 C485 0.930 . S
C480 H466 0.930 . S
C480 C478 1.395 . S
C480 C483 1.403 . S
C481 C478 1.403 . S
C481 C482 1.524 . S
C481 C485 1.400 . S
C482 H467 0.960 . S
C482 H468 0.960 . S
C482 H469 0.960 . S
C482 C481 1.524 . S
C483 C480 1.403 . S
C483 C484 1.392 . S
C483 C487 1.495 . S
C484 C483 1.392 . S
C484 C485 1.385 . S
C484 C486 1.478 . S
C485 H479 0.930 . S
C485 C481 1.400 . S
C485 C484 1.385 . S
C486 C484 1.478 . S
C486 C488 1.381 . S
C486 C492 1.383 . S
C487 C483 1.495 . S
C487 H493 0.959 . S
C487 H494 0.961 . S
C487 H495 0.960 . S
C488 C486 1.381 . S
C488 C489 1.394 . S
C488 H496 0.930 . S
C489 C488 1.394 . S
C489 C490 1.383 . S
C489 H497 0.929 . S
C490 C489 1.383 . S
C490 C491 1.377 . S
C491 H475 0.930 . S
C491 C490 1.377 . S
C491 C492 1.379 . S
C492 H476 0.931 . S
C492 C486 1.383 . S
C492 C491 1.379 . S
H493 C487 0.959 . S
H494 C487 0.961 . S
H495 C487 0.960 . S
H496 C488 0.930 . S
H497 C489 0.929 . S
H498 C506 0.929 . S
H499 C508 0.930 . S
H500 C510 0.930 . S
H501 C513 0.929 . S
H502 C516 0.930 . S
H503 C518 0.960 . S
H504 C518 0.960 . S
H505 C518 0.960 . S
C506 H498 0.929 . S
C506 C507 1.377 . S
C506 C508 1.384 . S
C507 C506 1.377 . S
C507 C513 1.390 . S
C508 H499 0.930 . S
C508 C506 1.384 . S
C508 C509 1.372 . S
C509 C508 1.372 . S
C509 C510 1.400 . S
C509 C514 1.490 . S
C510 H500 0.930 . S
C510 C509 1.400 . S
C510 C513 1.386 . S
H511 C527 0.930 . S
H512 C528 0.931 . S
C513 H501 0.929 . S
C513 C507 1.390 . S
C513 C510 1.386 . S
C514 C509 1.490 . S
C514 C516 1.395 . S
C514 C517 1.403 . S
H515 C521 0.930 . S
C516 H502 0.930 . S
C516 C514 1.395 . S
C516 C519 1.403 . S
C517 C514 1.403 . S
C517 C518 1.524 . S
C517 C521 1.400 . S
C518 H503 0.960 . S
C518 H504 0.960 . S
C518 H505 0.960 . S
C518 C517 1.524 . S
C519 C516 1.403 . S
C519 C520 1.392 . S
C519 C523 1.495 . S
C520 C519 1.392 . S
C520 C521 1.385 . S
C520 C522 1.478 . S
C521 H515 0.930 . S
C521 C517 1.400 . S
C521 C520 1.385 . S
C522 C520 1.478 . S
C522 C524 1.381 . S
C522 C528 1.383 . S
C523 C519 1.495 . S
C523 H529 0.959 . S
C523 H530 0.961 . S
C523 H531 0.960 . S
C524 C522 1.381 . S
C524 C525 1.394 . S
C524 H532 0.930 . S
C525 C524 1.394 . S
C525 C526 1.383 . S
C525 H533 0.929 . S
C526 C525 1.383 . S
C526 C527 1.377 . S
C527 H511 0.930 . S
C527 C526 1.377 . S
C527 C528 1.379 . S
C528 H512 0.931 . S
C528 C522 1.383 . S
C528 C527 1.379 . S
H529 C523 0.959 . S
H530 C523 0.961 . S
H531 C523 0.960 . S
H532 C524 0.930 . S
H533 C525 0.929 . S
H534 C542 0.929 . S
H535 C544 0.930 . S
H536 C546 0.930 . S
H537 C549 0.929 . S
H538 C552 0.930 . S
H539 C554 0.960 . S
H540 C554 0.960 . S
H541 C554 0.960 . S
C542 H534 0.929 . S
C542 C543 1.377 . S
C542 C544 1.384 . S
C543 C542 1.377 . S
C543 C549 1.390 . S
C544 H535 0.930 . S
C544 C542 1.384 . S
C544 C545 1.372 . S
C545 C544 1.372 . S
C545 C546 1.400 . S
C545 C550 1.490 . S
C546 H536 0.930 . S
C546 C545 1.400 . S
C546 C549 1.386 . S
H547 C563 0.930 . S
H548 C564 0.931 . S
C549 H537 0.929 . S
C549 C543 1.390 . S
C549 C546 1.386 . S
C550 C545 1.490 . S
C550 C552 1.395 . S
C550 C553 1.403 . S
H551 C557 0.930 . S
C552 H538 0.930 . S
C552 C550 1.395 . S
C552 C555 1.403 . S
C553 C550 1.403 . S
C553 C554 1.524 . S
C553 C557 1.400 . S
C554 H539 0.960 . S
C554 H540 0.960 . S
C554 H541 0.960 . S
C554 C553 1.524 . S
C555 C552 1.403 . S
C555 C556 1.392 . S
C555 C559 1.495 . S
C556 C555 1.392 . S
C556 C557 1.385 . S
C556 C558 1.478 . S
C557 H551 0.930 . S
C557 C553 1.400 . S
C557 C556 1.385 . S
C558 C556 1.478 . S
C558 C560 1.381 . S
C558 C564 1.383 . S
C559 C555 1.495 . S
C559 H565 0.959 . S
C559 H566 0.961 . S
C559 H567 0.960 . S
C560 C558 1.381 . S
C560 C561 1.394 . S
C560 H568 0.930 . S
C561 C560 1.394 . S
C561 C562 1.383 . S
C561 H569 0.929 . S
C562 C561 1.383 . S
C562 C563 1.377 . S
C563 H547 0.930 . S
C563 C562 1.377 . S
C563 C564 1.379 . S
C564 H548 0.931 . S
C564 C558 1.383 . S
C564 C563 1.379 . S
H565 C559 0.959 . S
H566 C559 0.961 . S
H567 C559 0.960 . S
H568 C560 0.930 . S
H569 C561 0.929 . S
H570 C578 0.929 . S
H571 C580 0.930 . S
H572 C582 0.930 . S
H573 C585 0.929 . S
H574 C588 0.930 . S
H575 C590 0.960 . S
H576 C590 0.960 . S
H577 C590 0.960 . S
C578 H570 0.929 . S
C578 C579 1.377 . S
C578 C580 1.384 . S
C579 C578 1.377 . S
C579 C585 1.390 . S
C580 H571 0.930 . S
C580 C578 1.384 . S
C580 C581 1.372 . S
C581 C580 1.372 . S
C581 C582 1.400 . S
C581 C586 1.490 . S
C582 H572 0.930 . S
C582 C581 1.400 . S
C582 C585 1.386 . S
H583 C599 0.930 . S
H584 C600 0.931 . S
C585 H573 0.929 . S
C585 C579 1.390 . S
C585 C582 1.386 . S
C586 C581 1.490 . S
C586 C588 1.395 . S
C586 C589 1.403 . S
H587 C593 0.930 . S
C588 H574 0.930 . S
C588 C586 1.395 . S
C588 C591 1.403 . S
C589 C586 1.403 . S
C589 C590 1.524 . S
C589 C593 1.400 . S
C590 H575 0.960 . S
C590 H576 0.960 . S
C590 H577 0.960 . S
C590 C589 1.524 . S
C591 C588 1.403 . S
C591 C592 1.392 . S
C591 C595 1.495 . S
C592 C591 1.392 . S
C592 C593 1.385 . S
C592 C594 1.478 . S
C593 H587 0.930 . S
C593 C589 1.400 . S
C593 C592 1.385 . S
C594 C592 1.478 . S
C594 C596 1.381 . S
C594 C600 1.383 . S
C595 C591 1.495 . S
C595 H601 0.959 . S
C595 H602 0.961 . S
C595 H603 0.960 . S
C596 C594 1.381 . S
C596 C597 1.394 . S
C596 H604 0.930 . S
C597 C596 1.394 . S
C597 C598 1.383 . S
C597 H605 0.929 . S
C598 C597 1.383 . S
C598 C599 1.377 . S
C599 H583 0.930 . S
C599 C598 1.377 . S
C599 C600 1.379 . S
C600 H584 0.931 . S
C600 C594 1.383 . S
C600 C599 1.379 . S
H601 C595 0.959 . S
H602 C595 0.961 . S
H603 C595 0.960 . S
H604 C596 0.930 . S
H605 C597 0.929 . S
H606 C614 0.929 . S
H607 C616 0.930 . S
H608 C618 0.930 . S
H609 C621 0.929 . S
H610 C624 0.930 . S
H611 C626 0.960 . S
H612 C626 0.960 . S
H613 C626 0.960 . S
C614 H606 0.929 . S
C614 C615 1.377 . S
C614 C616 1.384 . S
C615 C614 1.377 . S
C615 C621 1.390 . S
C616 H607 0.930 . S
C616 C614 1.384 . S
C616 C617 1.372 . S
C617 C616 1.372 . S
C617 C618 1.400 . S
C617 C622 1.490 . S
C618 H608 0.930 . S
C618 C617 1.400 . S
C618 C621 1.386 . S
H619 C635 0.930 . S
H620 C636 0.931 . S
C621 H609 0.929 . S
C621 C615 1.390 . S
C621 C618 1.386 . S
C622 C617 1.490 . S
C622 C624 1.395 . S
C622 C625 1.403 . S
H623 C629 0.930 . S
C624 H610 0.930 . S
C624 C622 1.395 . S
C624 C627 1.403 . S
C625 C622 1.403 . S
C625 C626 1.524 . S
C625 C629 1.400 . S
C626 H611 0.960 . S
C626 H612 0.960 . S
C626 H613 0.960 . S
C626 C625 1.524 . S
C627 C624 1.403 . S
C627 C628 1.392 . S
C627 C631 1.495 . S
C628 C627 1.392 . S
C628 C629 1.385 . S
C628 C630 1.478 . S
C629 H623 0.930 . S
C629 C625 1.400 . S
C629 C628 1.385 . S
C630 C628 1.478 . S
C630 C632 1.381 . S
C630 C636 1.383 . S
C631 C627 1.495 . S
C631 H637 0.959 . S
C631 H638 0.961 . S
C631 H639 0.960 . S
C632 C630 1.381 . S
C632 C633 1.394 . S
C632 H640 0.930 . S
C633 C632 1.394 . S
C633 C634 1.383 . S
C633 H641 0.929 . S
C634 C633 1.383 . S
C634 C635 1.377 . S
C635 H619 0.930 . S
C635 C634 1.377 . S
C635 C636 1.379 . S
C636 H620 0.931 . S
C636 C630 1.383 . S
C636 C635 1.379 . S
H637 C631 0.959 . S
H638 C631 0.961 . S
H639 C631 0.960 . S
H640 C632 0.930 . S
H641 C633 0.929 . S
C219 C58 1.165 . S
C238 C187 1.210 . S
C255 C151 1.517 . S
C274 C193 1.342 . S
C291 C56 1.588 . S
C310 C184 1.452 . S
C327 C153 1.205 . S
C346 C209 1.228 . S
C363 C74 1.562 . S
C382 C175 1.400 . S
C418 C192 1.514 . S
C399 C147 1.602 . S
C435 C142 1.177 . S
C454 C188 1.260 . S
C490 C205 1.542 . S
C471 C63 1.606 . S
C526 C172 1.389 . S
C507 C158 1.564 . S
C562 C208 1.250 . S
C543 C69 1.184 . S
C598 C171 1.490 . S
C579 C140 1.589 . S
C634 C196 1.345 . S
C615 C67 1.519 . S
