# Generated by pormake.
# Topology ctn, (3,4)-cn, num edge types: 1
# Building blocks:
#     Node 0, Type 0, BuildingBlock: WUSLED_clean_sbu_0, # of connection points: 3
#     Node 1, Type 0, BuildingBlock: WUSLED_clean_sbu_0, # of connection points: 3
#     Node 2, Type 0, BuildingBlock: WUSLED_clean_sbu_0, # of connection points: 3
#     Node 3, Type 0, BuildingBlock: WUSLED_clean_sbu_0, # of connection points: 3
#     Node 4, Type 0, BuildingBlock: WUSLED_clean_sbu_0, # of connection points: 3
#     Node 5, Type 0, BuildingBlock: WUSLED_clean_sbu_0, # of connection points: 3
#     Node 6, Type 0, BuildingBlock: WUSLED_clean_sbu_0, # of connection points: 3
#     Node 7, Type 0, BuildingBlock: WUSLED_clean_sbu_0, # of connection points: 3
#     Node 8, Type 0, BuildingBlock: WUSLED_clean_sbu_0, # of connection points: 3
#     Node 9, Type 0, BuildingBlock: WUSLED_clean_sbu_0, # of connection points: 3
#     Node 10, Type 0, BuildingBlock: WUSLED_clean_sbu_0, # of connection points: 3
#     Node 11, Type 0, BuildingBlock: WUSLED_clean_sbu_0, # of connection points: 3
#     Node 12, Type 0, BuildingBlock: WUSLED_clean_sbu_0, # of connection points: 3
#     Node 13, Type 0, BuildingBlock: WUSLED_clean_sbu_0, # of connection points: 3
#     Node 14, Type 0, BuildingBlock: WUSLED_clean_sbu_0, # of connection points: 3
#     Node 15, Type 0, BuildingBlock: WUSLED_clean_sbu_0, # of connection points: 3
#     Node 16, Type 1, BuildingBlock: AZAVOO_clean_sbu_0, # of connection points: 4
#     Node 17, Type 1, BuildingBlock: AZAVOO_clean_sbu_0, # of connection points: 4
#     Node 18, Type 1, BuildingBlock: AZAVOO_clean_sbu_0, # of connection points: 4
#     Node 19, Type 1, BuildingBlock: AZAVOO_clean_sbu_0, # of connection points: 4
#     Node 20, Type 1, BuildingBlock: AZAVOO_clean_sbu_0, # of connection points: 4
#     Node 21, Type 1, BuildingBlock: AZAVOO_clean_sbu_0, # of connection points: 4
#     Node 22, Type 1, BuildingBlock: AZAVOO_clean_sbu_0, # of connection points: 4
#     Node 23, Type 1, BuildingBlock: AZAVOO_clean_sbu_0, # of connection points: 4
#     Node 24, Type 1, BuildingBlock: AZAVOO_clean_sbu_0, # of connection points: 4
#     Node 25, Type 1, BuildingBlock: AZAVOO_clean_sbu_0, # of connection points: 4
#     Node 26, Type 1, BuildingBlock: AZAVOO_clean_sbu_0, # of connection points: 4
#     Node 27, Type 1, BuildingBlock: AZAVOO_clean_sbu_0, # of connection points: 4
#     Edge 28, Type (0, 1), BuildingBlock: ZUJKAS_clean_linker_0, # of connection points: 2
#     Edge 29, Type (0, 1), BuildingBlock: ZUJKAS_clean_linker_0, # of connection points: 2
#     Edge 30, Type (0, 1), BuildingBlock: ZUJKAS_clean_linker_0, # of connection points: 2
#     Edge 31, Type (0, 1), BuildingBlock: ZUJKAS_clean_linker_0, # of connection points: 2
#     Edge 32, Type (0, 1), BuildingBlock: ZUJKAS_clean_linker_0, # of connection points: 2
#     Edge 33, Type (0, 1), BuildingBlock: ZUJKAS_clean_linker_0, # of connection points: 2
#     Edge 34, Type (0, 1), BuildingBlock: ZUJKAS_clean_linker_0, # of connection points: 2
#     Edge 35, Type (0, 1), BuildingBlock: ZUJKAS_clean_linker_0, # of connection points: 2
#     Edge 36, Type (0, 1), BuildingBlock: ZUJKAS_clean_linker_0, # of connection points: 2
#     Edge 37, Type (0, 1), BuildingBlock: ZUJKAS_clean_linker_0, # of connection points: 2
#     Edge 38, Type (0, 1), BuildingBlock: ZUJKAS_clean_linker_0, # of connection points: 2
#     Edge 39, Type (0, 1), BuildingBlock: ZUJKAS_clean_linker_0, # of connection points: 2
#     Edge 40, Type (0, 1), BuildingBlock: ZUJKAS_clean_linker_0, # of connection points: 2
#     Edge 41, Type (0, 1), BuildingBlock: ZUJKAS_clean_linker_0, # of connection points: 2
#     Edge 42, Type (0, 1), BuildingBlock: ZUJKAS_clean_linker_0, # of connection points: 2
#     Edge 43, Type (0, 1), BuildingBlock: ZUJKAS_clean_linker_0, # of connection points: 2
#     Edge 44, Type (0, 1), BuildingBlock: ZUJKAS_clean_linker_0, # of connection points: 2
#     Edge 45, Type (0, 1), BuildingBlock: ZUJKAS_clean_linker_0, # of connection points: 2
#     Edge 46, Type (0, 1), BuildingBlock: ZUJKAS_clean_linker_0, # of connection points: 2
#     Edge 47, Type (0, 1), BuildingBlock: ZUJKAS_clean_linker_0, # of connection points: 2
#     Edge 48, Type (0, 1), BuildingBlock: ZUJKAS_clean_linker_0, # of connection points: 2
#     Edge 49, Type (0, 1), BuildingBlock: ZUJKAS_clean_linker_0, # of connection points: 2
#     Edge 50, Type (0, 1), BuildingBlock: ZUJKAS_clean_linker_0, # of connection points: 2
#     Edge 51, Type (0, 1), BuildingBlock: ZUJKAS_clean_linker_0, # of connection points: 2
#     Edge 52, Type (0, 1), BuildingBlock: ZUJKAS_clean_linker_0, # of connection points: 2
#     Edge 53, Type (0, 1), BuildingBlock: ZUJKAS_clean_linker_0, # of connection points: 2
#     Edge 54, Type (0, 1), BuildingBlock: ZUJKAS_clean_linker_0, # of connection points: 2
#     Edge 55, Type (0, 1), BuildingBlock: ZUJKAS_clean_linker_0, # of connection points: 2
#     Edge 56, Type (0, 1), BuildingBlock: ZUJKAS_clean_linker_0, # of connection points: 2
#     Edge 57, Type (0, 1), BuildingBlock: ZUJKAS_clean_linker_0, # of connection points: 2
#     Edge 58, Type (0, 1), BuildingBlock: ZUJKAS_clean_linker_0, # of connection points: 2
#     Edge 59, Type (0, 1), BuildingBlock: ZUJKAS_clean_linker_0, # of connection points: 2
#     Edge 60, Type (0, 1), BuildingBlock: ZUJKAS_clean_linker_0, # of connection points: 2
#     Edge 61, Type (0, 1), BuildingBlock: ZUJKAS_clean_linker_0, # of connection points: 2
#     Edge 62, Type (0, 1), BuildingBlock: ZUJKAS_clean_linker_0, # of connection points: 2
#     Edge 63, Type (0, 1), BuildingBlock: ZUJKAS_clean_linker_0, # of connection points: 2
#     Edge 64, Type (0, 1), BuildingBlock: ZUJKAS_clean_linker_0, # of connection points: 2
#     Edge 65, Type (0, 1), BuildingBlock: ZUJKAS_clean_linker_0, # of connection points: 2
#     Edge 66, Type (0, 1), BuildingBlock: ZUJKAS_clean_linker_0, # of connection points: 2
#     Edge 67, Type (0, 1), BuildingBlock: ZUJKAS_clean_linker_0, # of connection points: 2
#     Edge 68, Type (0, 1), BuildingBlock: ZUJKAS_clean_linker_0, # of connection points: 2
#     Edge 69, Type (0, 1), BuildingBlock: ZUJKAS_clean_linker_0, # of connection points: 2
#     Edge 70, Type (0, 1), BuildingBlock: ZUJKAS_clean_linker_0, # of connection points: 2
#     Edge 71, Type (0, 1), BuildingBlock: ZUJKAS_clean_linker_0, # of connection points: 2
#     Edge 72, Type (0, 1), BuildingBlock: ZUJKAS_clean_linker_0, # of connection points: 2
#     Edge 73, Type (0, 1), BuildingBlock: ZUJKAS_clean_linker_0, # of connection points: 2
#     Edge 74, Type (0, 1), BuildingBlock: ZUJKAS_clean_linker_0, # of connection points: 2
#     Edge 75, Type (0, 1), BuildingBlock: ZUJKAS_clean_linker_0, # of connection points: 2
# Relax obj value: 0.002
# Max RMSD: 0.044
# Mean RMSD: 0.027
data_MOF--net-ctn--node1-WUSLED_clean_sbu_0--node2-AZAVOO_clean_sbu_0--edge1-ZUJKAS_clean_linker_0
_symmetry_space_group_name_H-M    P1
_symmetry_Int_Tables_number       1
_symmetry_cell_setting            triclinic
loop_
_symmetry_equiv_pos_as_xyz
'x, y, z'
_cell_length_a     86.933684
_cell_length_b     88.577817
_cell_length_c     88.366397
_cell_angle_alpha  90.711545
_cell_angle_beta   92.350239
_cell_angle_gamma 92.572625
loop_
_atom_site_label
_atom_site_type_symbol
_atom_site_fract_x
_atom_site_fract_y
_atom_site_fract_z
_atom_type_partial_charge
C0 C 0.01865 0.04924 0.0676 0.0
C1 C 0.01942 0.03502 0.07437 0.0
C2 C 1.00052 0.04207 0.09265 0.0
C3 C 0.01045 0.03147 0.08681 0.0
C4 C 1.00003 0.05635 0.08589 0.0
C5 C 0.00898 0.05987 0.07352 0.0
U6 U 0.05054 0.04389 0.03874 0.0
O7 O 0.04889 0.04689 0.01399 0.0
O8 O 0.0651 0.06131 0.02804 0.0
C9 C 0.05862 0.05869 0.01449 0.0
C10 C 0.0274 0.05323 0.05414 0.0
C11 C 0.05378 0.07202 0.00588 0.0
C12 C 0.0464 0.0982 1.00463 0.0
C13 C 0.05016 0.08553 0.01314 0.0
C14 C 0.04943 0.08392 0.98149 0.0
C15 C 0.04611 0.09761 0.98867 0.0
C16 C 0.05325 0.07131 0.99001 0.0
C17 C 0.07834 0.01114 0.04223 0.0
C18 C 0.10372 0.00933 0.03175 0.0
C19 C 0.09027 0.98687 0.04071 0.0
C20 C 0.0779 0.99552 0.0446 0.0
C21 C 0.10345 0.99366 0.03441 0.0
C22 C 0.09128 0.01798 0.03561 0.0
C23 C 0.06538 0.01998 0.04723 0.0
O24 O 0.04172 0.05829 0.05667 0.0
O25 O 0.02568 0.04381 0.04252 0.0
O26 O 0.05281 0.01918 0.03842 0.0
O27 O 0.06888 0.0337 0.05253 0.0
H28 H 0.02682 0.02664 0.06995 0.0
H29 H 0.01105 0.02033 0.09165 0.0
H30 H 0.99278 0.06491 0.09023 0.0
H31 H 0.00826 0.07093 0.06848 0.0
H32 H 0.04407 0.10856 0.01058 0.0
H33 H 0.05043 0.08639 0.02539 0.0
H34 H 0.04904 0.08291 0.96926 0.0
H35 H 0.05594 0.061 0.98416 0.0
H36 H 0.11368 0.01499 0.02702 0.0
H37 H 0.08945 0.97482 0.04264 0.0
H38 H 0.06801 0.98998 0.04961 0.0
H39 H 0.09187 0.03003 0.03362 0.0
C40 C 0.29108 0.74243 0.18714 0.0
C41 C 0.30459 0.75059 0.1834 0.0
C42 C 0.29021 0.764 0.16381 0.0
C43 C 0.30415 0.76131 0.17183 0.0
C44 C 0.27671 0.75595 0.16788 0.0
C45 C 0.27717 0.74528 0.17939 0.0
U46 U 0.30791 0.72239 0.22244 0.0
O47 O 0.2953 0.7125 0.24138 0.0
O48 O 0.3085 0.69804 0.22685 0.0
C49 C 0.2987 0.69863 0.23777 0.0
C50 C 0.29111 0.73065 0.19879 0.0
C51 C 0.28573 0.68719 0.2372 0.0
C52 C 0.26916 0.66811 0.22372 0.0
C53 C 0.28081 0.67957 0.22368 0.0
C54 C 0.26683 0.67199 0.25068 0.0
C55 C 0.26211 0.66409 0.23725 0.0
C56 C 0.27853 0.68337 0.25064 0.0
C57 C 0.34604 0.73715 0.24292 0.0
C58 C 0.37262 0.73202 0.25038 0.0
C59 C 0.35648 0.74385 0.2683 0.0
C60 C 0.34424 0.74332 0.25746 0.0
C61 C 0.37088 0.73831 0.26488 0.0
C62 C 0.36039 0.7315 0.23954 0.0
C63 C 0.33355 0.73764 0.23092 0.0
O64 O 0.30187 0.72073 0.19804 0.0
O65 O 0.28882 0.73519 0.2127 0.0
O66 O 0.31986 0.74126 0.23519 0.0
O67 O 0.33292 0.72675 0.22063 0.0
H68 H 0.31546 0.74857 0.18929 0.0
H69 H 0.31478 0.76723 0.16895 0.0
H70 H 0.26573 0.75792 0.16219 0.0
H71 H 0.26661 0.73916 0.18217 0.0
H72 H 0.26568 0.66237 0.21316 0.0
H73 H 0.28608 0.68234 0.21311 0.0
H74 H 0.26179 0.66909 0.26133 0.0
H75 H 0.28216 0.68904 0.26122 0.0
H76 H 0.38346 0.72747 0.24737 0.0
H77 H 0.35476 0.74899 0.27925 0.0
H78 H 0.33346 0.74801 0.26043 0.0
H79 H 0.36224 0.72685 0.2284 0.0
C80 C 0.97668 0.44718 0.01271 0.0
C81 C 0.97867 0.43303 0.01938 0.0
C82 C 0.98495 0.42214 0.99498 0.0
C83 C 0.98272 0.42064 0.0106 0.0
C84 C 0.98332 0.43642 0.98845 0.0
C85 C 0.97919 0.44876 0.99721 0.0
U86 U 0.97755 0.47467 0.0472 0.0
O87 O 0.9746 0.49929 0.0476 0.0
O88 O 0.95825 0.48409 0.05895 0.0
C89 C 0.96163 0.49799 0.05471 0.0
C90 C 0.97121 0.4602 0.02135 0.0
C91 C 0.94872 0.50686 0.04867 0.0
C92 C 0.92207 0.50886 0.03941 0.0
C93 C 0.93444 0.5 0.04378 0.0
C94 C 0.93818 0.53152 0.04432 0.0
C95 C 0.9237 0.52476 0.03984 0.0
C96 C 0.95048 0.52268 0.04871 0.0
C97 C 0.00766 0.46979 0.0802 0.0
C98 C 0.01714 0.48834 0.09936 0.0
C99 C 0.02264 0.46197 0.10238 0.0
C100 C 0.01448 0.45844 0.08872 0.0
C101 C 0.0242 0.47697 0.10785 0.0
C102 C 0.00892 0.48478 0.08569 0.0
C103 C 0.99997 0.46571 0.06539 0.0
O104 O 0.96408 0.45717 0.03388 0.0
O105 O 0.98068 0.47219 0.02264 0.0
O106 O 1.00211 0.47526 0.05433 0.0
O107 O 0.98572 0.46013 0.06569 0.0
H108 H 0.9769 0.43147 0.03133 0.0
H109 H 0.98407 0.40987 0.01604 0.0
H110 H 0.98478 0.43796 0.97644 0.0
H111 H 0.97765 0.45952 0.99178 0.0
H112 H 0.9111 0.50324 0.03614 0.0
H113 H 0.93271 0.48781 0.04362 0.0
H114 H 0.94001 0.54369 0.04451 0.0
H115 H 0.96137 0.52825 0.05242 0.0
H116 H 0.01796 0.49998 0.1033 0.0
H117 H 0.02808 0.45295 0.10844 0.0
H118 H 0.01372 0.44683 0.08467 0.0
H119 H 1.0037 0.49373 0.07932 0.0
C120 C 0.71883 0.77444 0.18995 0.0
C121 C 0.72364 0.78037 0.17615 0.0
C122 C 0.72641 0.75487 0.166 0.0
C123 C 0.72736 0.77068 0.1643 0.0
C124 C 0.72191 0.74905 0.17999 0.0
C125 C 0.71813 0.75872 0.19178 0.0
U126 U 0.72265 0.81006 0.21583 0.0
O127 O 0.7044 0.82416 0.22412 0.0
O128 O 0.71914 0.81217 0.24026 0.0
C129 C 0.70702 0.8204 0.23831 0.0
C130 C 0.71391 0.78425 0.20238 0.0
C131 C 0.69332 0.81578 0.24679 0.0
C132 C 0.67634 0.79649 0.25756 0.0
C133 C 0.68894 0.8005 0.24879 0.0
C134 C 0.67211 0.82296 0.2621 0.0
C135 C 0.66782 0.80768 0.26442 0.0
C136 C 0.68473 0.82695 0.25341 0.0
C137 C 0.75639 0.83931 0.21035 0.0
C138 C 0.76223 0.86198 0.22578 0.0
C139 C 0.77834 0.85606 0.20498 0.0
C140 C 0.76908 0.84304 0.20165 0.0
C141 C 0.77514 0.86567 0.21716 0.0
C142 C 0.75295 0.84888 0.22242 0.0
C143 C 0.74718 0.82526 0.20667 0.0
O144 O 0.72304 0.78518 0.21462 0.0
O145 O 0.70839 0.7973 0.1985 0.0
O146 O 0.73323 0.82684 0.20077 0.0
O147 O 0.74778 0.81458 0.21684 0.0
H148 H 0.72431 0.79246 0.17443 0.0
H149 H 0.73063 0.7756 0.15368 0.0
H150 H 0.72132 0.73699 0.18187 0.0
H151 H 0.71451 0.75389 0.20233 0.0
H152 H 0.67326 0.78462 0.25894 0.0
H153 H 0.69535 0.79168 0.2437 0.0
H154 H 0.66596 0.83187 0.26735 0.0
H155 H 0.68793 0.8388 0.25204 0.0
H156 H 0.75948 0.86905 0.23529 0.0
H157 H 0.78797 0.85865 0.19792 0.0
H158 H 0.77188 0.83583 0.19225 0.0
H159 H 0.74319 0.84616 0.22929 0.0
C160 C 0.0187 0.9732 0.4424 0.0
C161 C 0.01913 0.98827 0.43759 0.0
C162 C 1.00078 0.98158 0.4166 0.0
C163 C 0.01022 0.99243 0.42483 0.0
C164 C 1.00051 0.9665 0.42148 0.0
C165 C 0.00935 0.96239 0.43423 0.0
U166 U 0.05249 0.97681 0.47241 0.0
O167 O 0.05218 0.97254 0.49689 0.0
O168 O 0.06612 0.95876 0.48241 0.0
C169 C 0.06101 0.96091 0.49603 0.0
C170 C 0.02755 0.96841 0.456 0.0
C171 C 0.05609 0.94718 0.50419 0.0
C172 C 0.03635 0.92917 0.51267 0.0
C173 C 0.04057 0.94202 0.50438 0.0
C174 C 0.06309 0.92642 0.52047 0.0
C175 C 0.04758 0.92119 0.52083 0.0
C176 C 0.06727 0.93924 0.51226 0.0
C177 C 0.08369 0.00945 0.47088 0.0
C178 C 0.11146 0.01469 0.46992 0.0
C179 C 0.09611 0.03107 0.48463 0.0
C180 C 0.08285 0.02218 0.48043 0.0
C181 C 0.11058 0.02755 0.4793 0.0
C182 C 0.09819 0.00579 0.46572 0.0
C183 C 0.06937 1.0009 0.46531 0.0
O184 O 0.04119 0.96321 0.4537 0.0
O185 O 0.02741 0.97727 0.46805 0.0
O186 O 0.05733 1.00143 0.47382 0.0
O187 O 0.07098 0.98743 0.45932 0.0
H188 H 0.02631 0.9968 0.44371 0.0
H189 H 0.01084 1.0041 0.42131 0.0
H190 H 0.99324 0.95788 0.41561 0.0
H191 H 0.0088 0.95072 0.43778 0.0
H192 H 0.02433 0.92539 0.51256 0.0
H193 H 0.03174 0.94795 0.49818 0.0
H194 H 0.07202 0.92074 0.52678 0.0
H195 H 0.07929 0.94307 0.51232 0.0
H196 H 0.12234 0.01173 0.46541 0.0
H197 H 0.09499 0.04076 0.49203 0.0
H198 H 0.07188 0.02547 0.48449 0.0
H199 H 0.09928 0.99623 0.45814 0.0
C200 C 0.21348 0.75058 0.81899 0.0
C201 C 0.22179 0.74477 0.8314 0.0
C202 C 0.22135 0.7691 0.84476 0.0
C203 C 0.2257 0.75395 0.84417 0.0
C204 C 0.21327 0.77486 0.83213 0.0
C205 C 0.20938 0.7657 0.81943 0.0
U206 U 0.21563 0.71652 0.79107 0.0
O207 O 0.19631 0.70278 0.78035 0.0
O208 O 0.21177 0.71627 0.7663 0.0
C209 C 0.19888 0.70794 0.76675 0.0
C210 C 0.20842 0.74114 0.80567 0.0
C211 C 0.18529 0.71318 0.7578 0.0
C212 C 0.17414 0.72897 0.73813 0.0
C213 C 0.18679 0.72491 0.74728 0.0
C214 C 0.15809 0.70985 0.74991 0.0
C215 C 0.15964 0.72142 0.73923 0.0
C216 C 0.17076 0.70574 0.75901 0.0
C217 C 0.24731 0.68727 0.79636 0.0
C218 C 0.25962 0.67168 0.77786 0.0
C219 C 0.26148 0.66545 0.80443 0.0
C220 C 0.25264 0.67778 0.80785 0.0
C221 C 0.26528 0.66233 0.78942 0.0
C222 C 0.25071 0.68399 0.78128 0.0
C223 C 0.23913 0.70093 0.80059 0.0
O224 O 0.21767 0.74128 0.79427 0.0
O225 O 0.20239 0.72762 0.80839 0.0
O226 O 0.22514 0.69869 0.80548 0.0
O227 O 0.24044 0.71258 0.79157 0.0
H228 H 0.22507 0.73312 0.8313 0.0
H229 H 0.23182 0.74909 0.85371 0.0
H230 H 0.20998 0.7865 0.83202 0.0
H231 H 0.20301 0.77041 0.80994 0.0
H232 H 0.17572 0.73803 0.73015 0.0
H233 H 0.1978 0.73084 0.74592 0.0
H234 H 0.14717 0.70363 0.75092 0.0
H235 H 0.16923 0.69651 0.76682 0.0
H236 H 0.26214 0.66951 0.76615 0.0
H237 H 0.26576 0.65865 0.81365 0.0
H238 H 0.25025 0.68012 0.81956 0.0
H239 H 0.24669 0.69108 0.77217 0.0
C240 C 0.96898 0.56851 0.49577 0.0
C241 C 0.98437 0.5714 0.50092 0.0
C242 C 0.97754 0.59502 0.51295 0.0
C243 C 0.98859 0.5845 0.50946 0.0
C244 C 0.96223 0.5922 0.50751 0.0
C245 C 0.95801 0.57909 0.49906 0.0
U246 U 0.97203 0.53717 0.46515 0.0
O247 O 0.96779 0.51258 0.46712 0.0
O248 O 0.95342 0.52539 0.45137 0.0
C249 C 0.95567 0.51228 0.45771 0.0
C250 C 0.96383 0.55429 0.48771 0.0
C251 C 0.9418 0.50396 0.46286 0.0
C252 C 0.91856 0.50237 0.47735 0.0
C253 C 0.93168 0.51059 0.47271 0.0
C254 C 0.92562 0.48083 0.46243 0.0
C255 C 0.91538 0.48735 0.4723 0.0
C256 C 0.93866 0.48905 0.45778 0.0
C257 C 1.00553 0.53954 0.43755 0.0
C258 C 0.00819 0.52362 0.41521 0.0
C259 C 0.02908 0.54113 0.4236 0.0
C260 C 0.02038 0.54584 0.43561 0.0
C261 C 0.02313 0.52995 0.41322 0.0
C262 C 0.99947 0.52835 0.42729 0.0
C263 C 0.99666 0.54504 0.45023 0.0
O264 O 0.95838 0.55562 0.47372 0.0
O265 O 0.97257 0.54266 0.48952 0.0
O266 O 0.99714 0.53699 0.46261 0.0
O267 O 0.98283 0.5497 0.44671 0.0
H268 H 0.99311 0.56346 0.49851 0.0
H269 H 1.00051 0.58639 0.51332 0.0
H270 H 0.95338 0.59993 0.51013 0.0
H271 H 0.94607 0.57707 0.49531 0.0
H272 H 0.91102 0.5077 0.48506 0.0
H273 H 0.93394 0.52208 0.47681 0.0
H274 H 0.92345 0.4694 0.45812 0.0
H275 H 0.94631 0.48375 0.45015 0.0
H276 H 1.00329 0.5149 0.40753 0.0
H277 H 0.0404 0.54645 0.42233 0.0
H278 H 0.02523 0.55454 0.44336 0.0
H279 H 0.98803 0.52331 0.42862 0.0
C280 C 0.79424 0.77737 0.8316 0.0
C281 C 0.79295 0.76189 0.82771 0.0
C282 C 0.79473 0.75512 0.85441 0.0
C283 C 0.79316 0.7509 0.83899 0.0
C284 C 0.7963 0.7706 0.85823 0.0
C285 C 0.79601 0.78156 0.84697 0.0
U286 U 0.80659 0.79862 0.79569 0.0
O287 O 0.79217 0.80811 0.77744 0.0
O288 O 0.80773 0.82314 0.79154 0.0
C289 C 0.79681 0.82213 0.78079 0.0
C290 C 0.79284 0.78933 0.82007 0.0
C291 C 0.78466 0.83321 0.78157 0.0
C292 C 0.75971 0.841 0.78964 0.0
C293 C 0.77131 0.83046 0.78973 0.0
C294 C 0.77482 0.85721 0.77349 0.0
C295 C 0.76125 0.85445 0.78137 0.0
C296 C 0.78636 0.84671 0.77359 0.0
C297 C 0.84134 0.78498 0.7738 0.0
C298 C 0.86053 0.79842 0.759 0.0
C299 C 0.85549 0.77154 0.75502 0.0
C300 C 0.84445 0.77158 0.76611 0.0
C301 C 0.86377 0.78493 0.75139 0.0
C302 C 0.8494 0.79846 0.77006 0.0
C303 C 0.83032 0.78431 0.78616 0.0
O304 O 0.8039 0.79996 0.82037 0.0
O305 O 0.78825 0.78503 0.80625 0.0
O306 O 0.81596 0.78027 0.78224 0.0
O307 O 0.83153 0.79527 0.79638 0.0
H308 H 0.79157 0.75825 0.81596 0.0
H309 H 0.79206 0.73909 0.83565 0.0
H310 H 0.79731 0.77429 0.86997 0.0
H311 H 0.79687 0.7934 0.85031 0.0
H312 H 0.74939 0.83844 0.79576 0.0
H313 H 0.76979 0.8201 0.79599 0.0
H314 H 0.77658 0.86755 0.76725 0.0
H315 H 0.7966 0.84908 0.76728 0.0
H316 H 0.86656 0.80896 0.75636 0.0
H317 H 0.8578 0.76092 0.74956 0.0
H318 H 0.83849 0.76102 0.76887 0.0
H319 H 0.84723 0.80899 0.77577 0.0
C320 C 0.29047 0.27629 0.33059 0.0
C321 C 0.30019 0.26409 0.32974 0.0
C322 C 0.29104 0.25449 0.35375 0.0
C323 C 0.30045 0.25326 0.34121 0.0
C324 C 0.28136 0.26679 0.35446 0.0
C325 C 0.28111 0.27754 0.34302 0.0
U326 U 0.30485 0.29667 0.29498 0.0
O327 O 0.29105 0.30534 0.27574 0.0
O328 O 0.30558 0.32099 0.29018 0.0
C329 C 0.29503 0.31951 0.27909 0.0
C330 C 0.28967 0.28778 0.31868 0.0
C331 C 0.28233 0.33005 0.27944 0.0
C332 C 0.26404 0.34458 0.29307 0.0
C333 C 0.27559 0.33402 0.29303 0.0
C334 C 0.26556 0.34705 0.26592 0.0
C335 C 0.25892 0.35131 0.27951 0.0
C336 C 0.27713 0.33657 0.26591 0.0
C337 C 0.34141 0.28358 0.2759 0.0
C338 C 0.35173 0.29368 0.2527 0.0
C339 C 0.36533 0.2746 0.26654 0.0
C340 C 0.35397 0.27425 0.2773 0.0
C341 C 0.3644 0.28432 0.25408 0.0
C342 C 0.34035 0.29334 0.26353 0.0
C343 C 0.32963 0.28278 0.28745 0.0
O344 O 0.30061 0.29852 0.31933 0.0
O345 O 0.28631 0.28273 0.30483 0.0
O346 O 0.3156 0.27841 0.28265 0.0
O347 O 0.32993 0.2941 0.29723 0.0
H348 H 0.30754 0.26295 0.32022 0.0
H349 H 0.30813 0.24403 0.34034 0.0
H350 H 0.27376 0.26799 0.36376 0.0
H351 H 0.27348 0.28684 0.34385 0.0
H352 H 0.25908 0.34746 0.30372 0.0
H353 H 0.27936 0.32906 0.30362 0.0
H354 H 0.2621 0.35212 0.2553 0.0
H355 H 0.28219 0.33369 0.2553 0.0
H356 H 0.3507 0.30141 0.24335 0.0
H357 H 0.37473 0.26704 0.26787 0.0
H358 H 0.35496 0.2666 0.28673 0.0
H359 H 0.33074 0.30066 0.26228 0.0
C360 C 0.47329 0.9461 0.51469 0.0
C361 C 0.48864 0.94173 0.51519 0.0
C362 C 0.48193 0.9212 0.49702 0.0
C363 C 0.49293 0.92941 0.50639 0.0
C364 C 0.46657 0.92564 0.49668 0.0
C365 C 0.46233 0.93794 0.5054 0.0
U366 U 0.47646 0.97473 0.5483 0.0
O367 O 0.47272 0.99914 0.54821 0.0
O368 O 0.45777 0.98399 0.5612 0.0
C369 C 0.46053 0.99782 0.5565 0.0
C370 C 0.46836 0.95926 0.5234 0.0
C371 C 0.44696 0.00612 0.55133 0.0
C372 C 0.42865 0.01397 0.53167 0.0
C373 C 0.44116 1.00537 0.53626 0.0
C374 C 0.42749 0.02392 0.55722 0.0
C375 C 0.42176 0.02351 0.54208 0.0
C376 C 0.43993 0.01534 0.56177 0.0
C377 C 0.50889 0.9723 0.57966 0.0
C378 C 0.51425 0.96946 0.6068 0.0
C379 C 0.53048 0.98643 0.59253 0.0
C380 C 0.52156 0.98274 0.57933 0.0
C381 C 0.52707 0.97971 0.60642 0.0
C382 C 0.50533 0.96576 0.59359 0.0
C383 C 0.50038 0.96724 0.56537 0.0
O384 O 0.46256 0.95633 0.53661 0.0
O385 O 0.47763 0.97142 0.52366 0.0
O386 O 0.50145 0.97619 0.55365 0.0
O387 O 0.48644 0.9611 0.56661 0.0
H388 H 0.49729 0.94784 0.52233 0.0
H389 H 0.50481 0.92622 0.50706 0.0
H390 H 0.45784 0.91976 0.48944 0.0
H391 H 0.45044 0.94116 0.50479 0.0
H392 H 0.42462 0.01344 0.51991 0.0
H393 H 0.44642 0.99829 0.52801 0.0
H394 H 0.42232 0.03087 0.56562 0.0
H395 H 0.44418 0.01602 0.57347 0.0
H396 H 0.51137 0.9639 0.61723 0.0
H397 H 0.54014 0.99451 0.59181 0.0
H398 H 0.5248 0.98788 0.5688 0.0
H399 H 0.49583 0.95748 0.59425 0.0
C400 C 0.21965 0.27309 0.69074 0.0
C401 C 0.22757 0.27928 0.67857 0.0
C402 C 0.22765 0.25438 0.66632 0.0
C403 C 0.23149 0.27002 0.66645 0.0
C404 C 0.21986 0.24827 0.67866 0.0
C405 C 0.2159 0.25753 0.6907 0.0
U406 U 0.22377 0.30849 0.71671 0.0
O407 O 0.20576 0.32214 0.72601 0.0
O408 O 0.22142 0.31031 0.7414 0.0
C409 C 0.20916 0.31842 0.74007 0.0
C410 C 0.21495 0.28259 0.70345 0.0
C411 C 0.1961 0.31374 0.74938 0.0
C412 C 0.17123 0.30063 0.75265 0.0
C413 C 0.18366 0.30444 0.74357 0.0
C414 C 0.18363 0.31518 0.77347 0.0
C415 C 0.17105 0.30597 0.76773 0.0
C416 C 0.19598 0.31901 0.76439 0.0
C417 C 0.25649 0.33848 0.71017 0.0
C418 C 0.26347 0.36021 0.7266 0.0
C419 C 0.27688 0.35653 0.70345 0.0
C420 C 0.26775 0.3434 0.70023 0.0
C421 C 0.27498 0.36506 0.71674 0.0
C422 C 0.25432 0.347 0.72335 0.0
C423 C 0.24751 0.32426 0.70662 0.0
O424 O 0.22461 0.28367 0.71529 0.0
O425 O 0.20905 0.29554 0.69985 0.0
O426 O 0.2333 0.32559 0.70132 0.0
O427 O 0.24879 0.31348 0.71662 0.0
H428 H 0.23067 0.29126 0.6784 0.0
H429 H 0.23764 0.27508 0.65724 0.0
H430 H 0.21654 0.23635 0.67887 0.0
H431 H 0.20976 0.25254 0.69997 0.0
H432 H 0.16182 0.2934 0.74791 0.0
H433 H 0.18354 0.30018 0.73201 0.0
H434 H 0.18382 0.31969 0.78492 0.0
H435 H 0.20542 0.32624 0.76908 0.0
H436 H 0.26175 0.36643 0.73697 0.0
H437 H 0.2854 0.36004 0.69545 0.0
H438 H 0.26956 0.33701 0.68996 0.0
H439 H 0.24567 0.34336 0.73118 0.0
C440 C 0.79292 0.24118 0.68436 0.0
C441 C 0.79907 0.25594 0.68719 0.0
C442 C 0.79241 0.26293 0.66116 0.0
C443 C 0.79876 0.26673 0.67571 0.0
C444 C 0.78647 0.24807 0.65839 0.0
C445 C 0.78672 0.23734 0.66986 0.0
U446 U 0.8087 0.22233 0.72063 0.0
O447 O 0.79587 0.21297 0.73968 0.0
O448 O 0.80953 0.19819 0.72592 0.0
C449 C 0.79949 0.19903 0.73661 0.0
C450 C 0.79239 0.2297 0.69633 0.0
C451 C 0.78663 0.18745 0.73615 0.0
C452 C 0.77093 0.16738 0.72317 0.0
C453 C 0.78248 0.17893 0.72296 0.0
C454 C 0.76717 0.17295 0.74961 0.0
C455 C 0.76321 0.16417 0.73653 0.0
C456 C 0.77878 0.18442 0.74942 0.0
C457 C 0.84646 0.23841 0.74051 0.0
C458 C 0.85707 0.2303 0.76484 0.0
C459 C 0.87161 0.24829 0.74999 0.0
C460 C 0.85976 0.24764 0.73878 0.0
C461 C 0.87041 0.23971 0.76323 0.0
C462 C 0.84519 0.22966 0.75358 0.0
C463 C 0.8341 0.23824 0.72857 0.0
O464 O 0.80308 0.21968 0.69614 0.0
O465 O 0.78971 0.23458 0.71005 0.0
O466 O 0.82037 0.24166 0.7329 0.0
O467 O 0.8337 0.22679 0.71894 0.0
H468 H 0.80399 0.25915 0.69829 0.0
H469 H 0.80357 0.27802 0.67819 0.0
H470 H 0.7813 0.24478 0.64741 0.0
H471 H 0.78187 0.22604 0.66745 0.0
H472 H 0.76804 0.16095 0.71286 0.0
H473 H 0.78826 0.18106 0.71252 0.0
H474 H 0.7616 0.17068 0.76014 0.0
H475 H 0.78181 0.19077 0.75975 0.0
H476 H 0.85568 0.22365 0.77493 0.0
H477 H 0.88179 0.25544 0.74821 0.0
H478 H 0.86098 0.25441 0.72873 0.0
H479 H 0.835 0.22244 0.7551 0.0
C480 C 0.51801 0.5463 0.56712 0.0
C481 C 0.52497 0.54486 0.58165 0.0
C482 C 0.49981 0.53953 0.5923 0.0
C483 C 0.51596 0.54151 0.5941 0.0
C484 C 0.49298 0.54062 0.57766 0.0
C485 C 0.50196 0.54402 0.56526 0.0
U486 U 0.55076 0.54324 0.53871 0.0
O487 O 0.5495 0.54673 0.51402 0.0
O488 O 0.56494 0.56138 0.52865 0.0
C489 C 0.5588 0.55886 0.51495 0.0
C490 C 0.52693 0.55114 0.55392 0.0
C491 C 0.55367 0.57218 0.50646 0.0
C492 C 0.54695 0.59858 0.50531 0.0
C493 C 0.55088 0.58592 0.51377 0.0
C494 C 0.54816 0.58389 0.48216 0.0
C495 C 0.54567 0.59778 0.48937 0.0
C496 C 0.55215 0.57128 0.49061 0.0
C497 C 0.57938 0.51118 0.54227 0.0
C498 C 0.60065 0.50748 0.52569 0.0
C499 C 0.59543 0.48958 0.54553 0.0
C500 C 0.58311 0.49801 0.54994 0.0
C501 C 0.60433 0.49413 0.53329 0.0
C502 C 0.58825 0.51592 0.53012 0.0
C503 C 0.56614 0.51961 0.54711 0.0
O504 O 0.54102 0.55685 0.55667 0.0
O505 O 0.52572 0.54218 0.54192 0.0
O506 O 0.55381 0.5187 0.53798 0.0
O507 O 0.56929 0.53333 0.55255 0.0
H508 H 0.53732 0.54661 0.58348 0.0
H509 H 0.52164 0.54091 0.6052 0.0
H510 H 0.48064 0.53891 0.57575 0.0
H511 H 0.4963 0.54509 0.5542 0.0
H512 H 0.5453 0.60909 0.51129 0.0
H513 H 0.55194 0.58697 0.52599 0.0
H514 H 0.54701 0.58272 0.46995 0.0
H515 H 0.55422 0.56081 0.48471 0.0
H516 H 0.60716 0.51126 0.51616 0.0
H517 H 0.59806 0.47954 0.55182 0.0
H518 H 0.57644 0.49421 0.55938 0.0
H519 H 0.58552 0.52606 0.52403 0.0
C520 C 0.51829 0.47537 0.94378 0.0
C521 C 0.52482 0.47676 0.92953 0.0
C522 C 0.50013 0.48372 0.91807 0.0
C523 C 0.51583 0.48086 0.91683 0.0
C524 C 0.49373 0.48267 0.93241 0.0
C525 C 0.5027 0.47848 0.94508 0.0
U526 U 0.55241 0.47694 0.97352 0.0
O527 O 0.55226 0.47224 0.99792 0.0
O528 O 0.56563 0.45834 0.98301 0.0
C529 C 0.5608 0.46044 0.99675 0.0
C530 C 0.52711 0.46977 0.95717 0.0
C531 C 0.5558 0.4467 1.00487 0.0
C532 C 0.53597 0.42907 0.01384 0.0
C533 C 0.54022 0.44188 0.00549 0.0
C534 C 0.5628 0.42572 0.02085 0.0
C535 C 0.54723 0.42082 0.02165 0.0
C536 C 0.56701 0.43849 0.01257 0.0
C537 C 0.58423 0.50911 0.97225 0.0
C538 C 0.61193 0.51438 0.97061 0.0
C539 C 0.59708 0.53028 0.98635 0.0
C540 C 0.58371 0.52152 0.98227 0.0
C541 C 0.61135 0.52696 0.98043 0.0
C542 C 0.59854 0.50562 0.96652 0.0
C543 C 0.56974 0.50084 0.96672 0.0
O544 O 0.54049 0.46402 0.95476 0.0
O545 O 0.52728 0.47818 0.96954 0.0
O546 O 0.55782 0.50143 0.97537 0.0
O547 O 0.57104 0.48742 0.96049 0.0
H548 H 0.53682 0.47447 0.92811 0.0
H549 H 0.52118 0.48175 0.906 0.0
H550 H 0.48166 0.48461 0.93378 0.0
H551 H 0.49733 0.47737 0.95589 0.0
H552 H 0.5239 0.42555 0.01407 0.0
H553 H 0.53137 0.44803 0.99959 0.0
H554 H 0.57178 0.41985 0.02689 0.0
H555 H 0.57908 0.44206 0.01232 0.0
H556 H 0.62265 0.51158 0.96566 0.0
H557 H 0.5962 0.53974 0.9941 0.0
H558 H 0.57289 0.52469 0.98678 0.0
H559 H 0.59936 0.49631 0.95857 0.0
C560 C 0.713 0.25087 0.31775 0.0
C561 C 0.72185 0.24536 0.32996 0.0
C562 C 0.72065 0.26951 0.34348 0.0
C563 C 0.72564 0.2546 0.34271 0.0
C564 C 0.71203 0.27499 0.33106 0.0
C565 C 0.70824 0.26577 0.31837 0.0
U566 U 0.71645 0.21712 0.28986 0.0
O567 O 0.6977 0.20257 0.27916 0.0
O568 O 0.71262 0.21665 0.26509 0.0
C569 C 0.70005 0.20786 0.26556 0.0
C570 C 0.70815 0.24133 0.30444 0.0
C571 C 0.68621 0.21266 0.25673 0.0
C572 C 0.67366 0.22986 0.23928 0.0
C573 C 0.68651 0.22604 0.24828 0.0
C574 C 0.65978 0.20721 0.24717 0.0
C575 C 0.66016 0.22044 0.23852 0.0
C576 C 0.67267 0.20334 0.2561 0.0
C577 C 0.75009 0.18995 0.2956 0.0
C578 C 0.75382 0.16651 0.28176 0.0
C579 C 0.77384 0.17673 0.29933 0.0
C580 C 0.76471 0.18883 0.30266 0.0
C581 C 0.76858 0.1654 0.2888 0.0
C582 C 0.74467 0.17872 0.2851 0.0
C583 C 0.74089 0.20296 0.29953 0.0
O584 O 0.71728 0.24189 0.29296 0.0
O585 O 0.70274 0.22758 0.30719 0.0
O586 O 0.72695 0.19986 0.3042 0.0
O587 O 0.74155 0.21445 0.29029 0.0
H588 H 0.72565 0.23388 0.3297 0.0
H589 H 0.73219 0.24995 0.35209 0.0
H590 H 0.70823 0.28647 0.33109 0.0
H591 H 0.70146 0.27026 0.30905 0.0
H592 H 0.67429 0.24021 0.2329 0.0
H593 H 0.69673 0.2335 0.24845 0.0
H594 H 0.64966 0.19961 0.24672 0.0
H595 H 0.67213 0.1929 0.26234 0.0
H596 H 0.74944 0.15808 0.27351 0.0
H597 H 0.78498 0.17615 0.30519 0.0
H598 H 0.76908 0.19735 0.31085 0.0
H599 H 0.73341 0.1794 0.27948 0.0
C600 C 0.47013 0.06686 0.9988 0.0
C601 C 0.47245 0.08103 0.99204 0.0
C602 C 0.47856 0.09289 0.01682 0.0
C603 C 0.47661 0.0939 1.00096 0.0
C604 C 0.47657 0.07861 0.02346 0.0
C605 C 0.47236 0.06579 0.01456 0.0
U606 U 0.47181 0.03736 0.96614 0.0
O607 O 0.46732 0.0127 0.96684 0.0
O608 O 0.45274 0.02649 0.95223 0.0
C609 C 0.45497 0.01303 0.95779 0.0
C610 C 0.4645 0.05324 0.98993 0.0
C611 C 0.44116 1.00459 0.96291 0.0
C612 C 0.41822 1.00261 0.97782 0.0
C613 C 0.43129 0.01092 0.97321 0.0
C614 C 0.42481 0.98157 0.96197 0.0
C615 C 0.41484 0.98779 0.97228 0.0
C616 C 0.43781 0.98988 0.95734 0.0
C617 C 0.5048 0.04084 0.93801 0.0
C618 C 0.50852 0.02373 0.9168 0.0
C619 C 0.52713 0.04438 0.92254 0.0
C620 C 0.51845 0.04887 0.93464 0.0
C621 C 0.52237 0.03169 0.91349 0.0
C622 C 0.49983 0.02825 0.92899 0.0
C623 C 0.4962 0.04578 0.95111 0.0
O624 O 0.45868 0.05535 0.97619 0.0
O625 O 0.47314 0.04146 0.99084 0.0
O626 O 0.49679 0.03706 0.96302 0.0
O627 O 0.48239 0.05073 0.94811 0.0
H628 H 0.47079 0.08225 0.97991 0.0
H629 H 0.47788 0.1047 0.99544 0.0
H630 H 0.47823 0.0773 0.03557 0.0
H631 H 0.47063 0.05501 0.02006 0.0
H632 H 0.41089 0.00771 0.98588 0.0
H633 H 0.43372 0.02226 0.97769 0.0
H634 H 0.42247 0.9703 0.95729 0.0
H635 H 0.44526 0.98481 0.94936 0.0
H636 H 0.50456 0.01385 0.91016 0.0
H637 H 0.53755 0.05095 0.92019 0.0
H638 H 0.52245 0.05866 0.94143 0.0
H639 H 0.48932 0.02187 0.93145 0.0
Mg640 Mg 0.25325 0.87255 0.01327 0.0
O641 O 0.27578 0.88697 0.00937 0.0
O642 O 0.29449 0.8705 0.00878 0.0
Mg643 Mg 0.28484 0.84645 0.01249 0.0
C644 C 0.28994 0.88399 0.00798 0.0
C645 C 0.22668 0.89262 0.01748 0.0
O646 O 0.22591 0.88194 0.02765 0.0
O647 O 0.25232 0.86374 0.98846 0.0
O648 O 0.27095 0.84713 0.9898 0.0
O649 O 0.25734 0.87384 0.03864 0.0
O650 O 0.26567 0.85578 0.02425 0.0
C651 C 0.26012 0.85348 0.98242 0.0
C652 C 0.26475 0.86156 0.03758 0.0
O653 O 0.23761 0.89249 0.0083 0.0
Mg654 Mg 0.14786 0.50972 0.26769 0.0
O655 O 0.13293 0.50609 0.24534 0.0
O656 O 0.14944 0.50608 0.22662 0.0
Mg657 Mg 0.17413 0.51024 0.23618 0.0
C658 C 0.13572 0.50497 0.23126 0.0
C659 C 0.12992 0.50552 0.29665 0.0
O660 O 0.14411 0.50917 0.3015 0.0
O661 O 0.15601 0.48515 0.26666 0.0
O662 O 0.17278 0.48739 0.24819 0.0
O663 O 0.14764 0.53509 0.2658 0.0
O664 O 0.16532 0.52132 0.25615 0.0
C665 C 0.16621 0.47961 0.25838 0.0
C666 C 0.16003 0.53447 0.25823 0.0
O667 O 0.12719 0.50384 0.28244 0.0
Mg668 Mg 0.77446 0.64795 0.01638 0.0
O669 O 0.75181 0.63322 0.01179 0.0
O670 O 0.73293 0.64949 0.00996 0.0
Mg671 Mg 0.7426 0.67375 0.01361 0.0
C672 C 0.73755 0.63601 0.00968 0.0
C673 C 0.80182 0.62836 0.02118 0.0
O674 O 0.80369 0.63974 0.03086 0.0
O675 O 0.77449 0.65573 0.99146 0.0
O676 O 0.75567 0.67214 0.99159 0.0
O677 O 0.77128 0.64783 0.04162 0.0
O678 O 0.76233 0.66515 0.02644 0.0
C679 C 0.76633 0.6656 0.98485 0.0
C680 C 0.76372 0.65999 0.03994 0.0
O681 O 0.78988 0.62784 0.01229 0.0
Mg682 Mg 0.89771 0.02635 0.25066 0.0
O683 O 0.88297 1.0041 0.24579 0.0
O684 O 0.8996 0.98644 0.24053 0.0
Mg685 Mg 0.92423 0.99675 0.24148 0.0
C686 C 0.88586 0.99046 0.2423 0.0
C687 C 0.87896 0.05277 0.26083 0.0
O688 O 0.89239 0.05884 0.25731 0.0
O689 O 0.90598 0.01775 0.27416 0.0
O690 O 0.92277 1.00085 0.26712 0.0
O691 O 0.89726 0.03222 0.22585 0.0
O692 O 0.9152 0.01902 0.23695 0.0
C693 C 0.91614 0.00812 0.27741 0.0
C694 C 0.90972 0.02489 0.22475 0.0
O695 O 0.87696 0.03845 0.2599 0.0
Mg696 Mg 0.27427 0.14756 0.51589 0.0
O697 O 0.25141 0.13309 0.51161 0.0
O698 O 0.23277 0.14963 0.5098 0.0
Mg699 Mg 0.24278 0.17379 0.51339 0.0
C700 C 0.23719 0.13607 0.50955 0.0
C701 C 0.30225 0.12855 0.51913 0.0
O702 O 0.30515 0.14079 0.52751 0.0
O703 O 0.27404 0.15516 0.4909 0.0
O704 O 0.25563 0.17199 0.49127 0.0
O705 O 0.27148 0.14764 0.54121 0.0
O706 O 0.26249 0.16494 0.52605 0.0
C707 C 0.26606 0.16523 0.48439 0.0
C708 C 0.26403 0.15987 0.53957 0.0
O709 O 0.28938 0.12725 0.51168 0.0
Mg710 Mg 0.39758 0.52561 0.75115 0.0
O711 O 0.38264 0.50348 0.74619 0.0
O712 O 0.39915 0.48581 0.74061 0.0
Mg713 Mg 0.42386 0.49592 0.74157 0.0
C714 C 0.38544 0.48987 0.74251 0.0
C715 C 0.37641 0.5515 0.75595 0.0
O716 O 0.38716 0.55659 0.74704 0.0
O717 O 0.40586 0.51676 0.77455 0.0
O718 O 0.42258 0.49993 0.76724 0.0
O719 O 0.39705 0.53165 0.72637 0.0
O720 O 0.41494 0.51825 0.73725 0.0
C721 C 0.41604 0.50711 0.77765 0.0
C722 C 0.40944 0.52426 0.72514 0.0
O723 O 0.37701 0.53794 0.76054 0.0
Mg724 Mg 0.75285 0.37285 0.51159 0.0
O725 O 0.7756 0.3871 0.50831 0.0
O726 O 0.79421 0.37052 0.50759 0.0
Mg727 Mg 0.78421 0.3465 0.51068 0.0
C728 C 0.78977 0.38407 0.50702 0.0
C729 C 0.72372 0.39063 0.50992 0.0
O730 O 0.71953 0.37712 0.51468 0.0
O731 O 0.75222 0.36452 0.48665 0.0
O732 O 0.77071 0.34775 0.48783 0.0
O733 O 0.75644 0.37349 0.53704 0.0
O734 O 0.76491 0.35574 0.52234 0.0
C735 C 0.76002 0.35434 0.48048 0.0
C736 C 0.76379 0.36118 0.53579 0.0
O737 O 0.73774 0.39311 0.50664 0.0
Mg738 Mg 0.64825 0.01029 0.76866 0.0
O739 O 0.63367 0.00678 0.74604 0.0
O740 O 0.65066 0.00628 0.72776 0.0
Mg741 Mg 0.67523 0.00985 0.73779 0.0
C742 C 0.6368 0.00551 0.73205 0.0
C743 C 0.62962 0.00877 0.79708 0.0
O744 O 0.64341 0.01419 0.80151 0.0
O745 O 0.65585 0.98556 0.76806 0.0
O746 O 0.67302 0.98707 0.74989 0.0
O747 O 0.64859 0.03565 0.76653 0.0
O748 O 0.66619 0.02142 0.75737 0.0
C749 C 0.66601 0.97962 0.76005 0.0
C750 C 0.66111 0.0347 0.7592 0.0
O751 O 0.62726 1.00498 0.7832 0.0
Mg752 Mg 0.02748 0.26024 0.89299 0.0
O753 O 1.00493 0.25542 0.87836 0.0
O754 O 0.98686 0.24836 0.89443 0.0
Mg755 Mg 0.99731 0.2481 0.91862 0.0
C756 C 0.99104 0.25119 0.88103 0.0
C757 C 0.0545 0.27095 0.87465 0.0
O758 O 0.06042 0.2654 0.88721 0.0
O759 O 0.01845 0.28274 0.90186 0.0
O760 O 1.00142 0.27395 0.91827 0.0
O761 O 0.03376 0.2359 0.89148 0.0
O762 O 0.02006 0.24505 0.90955 0.0
C763 C 0.00872 0.28494 0.91207 0.0
C764 C 0.02622 0.23357 0.90363 0.0
O765 O 0.03988 0.27121 0.87305 0.0
Mg766 Mg 0.52831 0.76102 0.39434 0.0
O767 O 0.50593 0.75639 0.37939 0.0
O768 O 0.48749 0.74967 0.3952 0.0
Mg769 Mg 0.49751 0.74952 0.41954 0.0
C770 C 0.49193 0.75234 0.38186 0.0
C771 C 0.55463 0.7668 0.37332 0.0
O772 O 0.55935 0.75689 0.38324 0.0
O773 O 0.51952 0.78373 0.40294 0.0
O774 O 0.50187 0.77533 0.41893 0.0
O775 O 0.53414 0.73654 0.3931 0.0
O776 O 0.52041 0.74605 0.41094 0.0
C777 C 0.50949 0.78616 0.41282 0.0
C778 C 0.52646 0.73441 0.40517 0.0
O779 O 0.54117 0.77172 0.37447 0.0
Mg780 Mg 1.00108 0.75587 0.61761 0.0
O781 O 0.02361 0.75197 0.63191 0.0
O782 O 0.04136 0.7468 0.61523 0.0
Mg783 Mg 0.03074 0.74664 0.59109 0.0
C784 C 0.03738 0.7488 0.62884 0.0
C785 C 0.9747 0.76156 0.63792 0.0
O786 O 0.96904 0.75307 0.62653 0.0
O787 O 0.0105 0.77925 0.60988 0.0
O788 O 0.02732 0.77221 0.59295 0.0
O789 O 0.99435 0.73104 0.61786 0.0
O790 O 0.008 0.74169 0.60014 0.0
C791 C 0.02027 0.78247 0.5998 0.0
C792 C 1.00171 0.72959 0.60553 0.0
O793 O 0.98898 0.76557 0.63811 0.0
Mg794 Mg 0.50006 0.25595 0.11909 0.0
O795 O 0.52266 0.25184 0.1332 0.0
O796 O 0.54034 0.24689 0.11639 0.0
Mg797 Mg 0.52952 0.24672 0.09233 0.0
C798 C 0.53643 0.24876 0.13004 0.0
C799 C 0.4741 0.26814 0.13761 0.0
O800 O 0.4679 0.26598 0.12389 0.0
O801 O 0.50956 0.27934 0.1114 0.0
O802 O 0.52612 0.27227 0.09423 0.0
O803 O 0.49307 0.23116 0.11915 0.0
O804 O 0.50681 0.24182 0.10152 0.0
C805 C 0.51919 0.28255 0.10119 0.0
C806 C 0.5004 0.22973 0.1068 0.0
O807 O 0.48833 0.26563 0.13983 0.0
H808 H 0.20301 0.78953 0.85791 0.0
H809 H 0.2092 0.806 0.87993 0.0
H810 H 0.25382 0.7869 0.88515 0.0
H811 H 0.24793 0.77072 0.86282 0.0
H812 H 0.21643 0.79851 0.90947 0.0
H813 H 0.26486 0.83213 0.8858 0.0
H814 H 0.25166 0.82021 0.87415 0.0
H815 H 0.26718 0.81211 0.88489 0.0
C816 C 0.21424 0.78896 0.8636 0.0
C817 C 0.22503 0.77886 0.85846 0.0
C818 C 0.21772 0.79833 0.87626 0.0
C819 C 0.23208 0.79791 0.88406 0.0
C820 C 0.24279 0.78768 0.87914 0.0
H821 H 0.27681 0.83519 0.96496 0.0
H822 H 0.26916 0.82321 0.94071 0.0
C823 C 0.23932 0.77829 0.86646 0.0
C824 C 0.23568 0.80786 0.89757 0.0
H825 H 0.26163 0.83481 0.91235 0.0
C826 C 0.22622 0.80656 0.91005 0.0
C827 C 0.24841 0.81843 0.89831 0.0
C828 C 0.25853 0.82095 0.88502 0.0
C829 C 0.22949 0.81508 0.92344 0.0
C830 C 0.24244 0.82539 0.92429 0.0
C831 C 0.25169 0.82693 0.91169 0.0
C832 C 0.24726 0.83378 0.93854 0.0
C833 C 0.21943 0.81251 0.93677 0.0
C834 C 0.23768 0.84412 0.94525 0.0
C835 C 0.24204 0.85107 0.95925 0.0
C836 C 0.25607 0.8478 0.96676 0.0
C837 C 0.26587 0.83793 0.95962 0.0
C838 C 0.26153 0.83105 0.9457 0.0
H839 H 0.21194 0.80205 0.93534 0.0
H840 H 0.22657 0.81171 0.94742 0.0
H841 H 0.2119 0.8222 0.93796 0.0
H842 H 0.22673 0.84663 0.93979 0.0
H843 H 0.23423 0.85862 0.96437 0.0
H844 H 0.05409 0.52517 0.41366 0.0
H845 H 0.06983 0.51881 0.39241 0.0
H846 H 0.02935 0.51681 0.36248 0.0
H847 H 0.01354 0.52367 0.38363 0.0
H848 H 0.06832 0.49366 0.37305 0.0
H849 H 0.05849 0.54618 0.34094 0.0
H850 H 0.05358 0.54418 0.36048 0.0
H851 H 0.04139 0.53542 0.34566 0.0
C852 C 0.04851 0.52352 0.40254 0.0
C853 C 0.03253 0.52512 0.40037 0.0
C854 C 0.05753 0.51976 0.39041 0.0
C855 C 0.05084 0.51756 0.37577 0.0
C856 C 0.03483 0.51873 0.3736 0.0
H857 H 0.09849 0.50353 0.29074 0.0
H858 H 0.07814 0.50475 0.30918 0.0
C859 C 0.02578 0.52248 0.38576 0.0
C860 C 0.06074 0.51415 0.3629 0.0
H861 H 0.07404 0.52836 0.32981 0.0
C862 C 0.0695 0.50121 0.36356 0.0
C863 C 0.06225 0.52395 0.35044 0.0
C864 C 0.05354 0.53828 0.34932 0.0
C865 C 0.07983 0.49791 0.35226 0.0
C866 C 0.0817 0.50796 0.34007 0.0
C867 C 0.0726 0.52065 0.33914 0.0
C868 C 0.09385 0.50615 0.32884 0.0
C869 C 0.08869 0.48369 0.35351 0.0
C870 C 0.10943 0.50654 0.33372 0.0
C871 C 0.12102 0.50587 0.32326 0.0
C872 C 0.11736 0.50485 0.30761 0.0
C873 C 0.10172 0.50421 0.30271 0.0
C874 C 0.09008 0.50496 0.31323 0.0
H875 H 0.08263 0.47508 0.36043 0.0
H876 H 0.09052 0.47871 0.34217 0.0
H877 H 0.10013 0.48644 0.35915 0.0
H878 H 0.11267 0.50779 0.34566 0.0
H879 H 0.13291 0.50645 0.32748 0.0
H880 H 0.81265 0.75425 0.88065 0.0
H881 H 0.8103 0.73642 0.90144 0.0
H882 H 0.77301 0.71217 0.87666 0.0
H883 H 0.77534 0.72991 0.8558 0.0
H884 H 0.78584 0.732 0.91852 0.0
H885 H 0.79839 0.6776 0.89119 0.0
H886 H 0.80274 0.69561 0.88262 0.0
H887 H 0.78348 0.68724 0.88117 0.0
C888 C 0.80401 0.74506 0.87957 0.0
C889 C 0.79417 0.74354 0.86654 0.0
C890 C 0.80273 0.73482 0.89145 0.0
C891 C 0.79162 0.72279 0.89058 0.0
C892 C 0.78195 0.72109 0.87747 0.0
H893 H 0.7477 0.68064 0.96526 0.0
H894 H 0.75469 0.69324 0.942 0.0
C895 C 0.78327 0.73129 0.86555 0.0
C896 C 0.78925 0.71291 0.9039 0.0
H897 H 0.7863 0.67606 0.91512 0.0
C898 C 0.7861 0.71978 0.91777 0.0
C899 C 0.78974 0.69695 0.90304 0.0
C900 C 0.79393 0.68891 0.88875 0.0
C901 C 0.78296 0.71118 0.93061 0.0
C902 C 0.78267 0.69521 0.92955 0.0
C903 C 0.78634 0.6883 0.91587 0.0
C904 C 0.77801 0.6857 0.94249 0.0
C905 C 0.77994 0.7193 0.94524 0.0
C906 C 0.78856 0.67658 0.95011 0.0
C907 C 0.78455 0.6692 0.96348 0.0
C908 C 0.76993 0.67088 0.96942 0.0
C909 C 0.75913 0.67925 0.96116 0.0
C910 C 0.76311 0.68651 0.94785 0.0
H911 H 0.78456 0.7312 0.9453 0.0
H912 H 0.76732 0.71943 0.94664 0.0
H913 H 0.78516 0.71347 0.95511 0.0
H914 H 0.8001 0.67572 0.9461 0.0
H915 H 0.79314 0.66286 0.96954 0.0
H916 H 0.99582 0.96585 0.3898 0.0
H917 H 0.9792 0.97211 0.36803 0.0
H918 H 0.96724 0.01307 0.3907 0.0
H919 H 0.98384 0.00685 0.41262 0.0
H920 H 0.94764 0.97617 0.36715 0.0
H921 H 0.97953 0.02832 0.34922 0.0
H922 H 0.98786 0.0152 0.36233 0.0
H923 H 0.97409 0.02818 0.36862 0.0
C924 C 0.98964 0.97619 0.39021 0.0
C925 C 0.99118 0.98583 0.40302 0.0
C926 C 0.98017 0.97978 0.37771 0.0
C927 C 0.97205 0.99313 0.37763 0.0
C928 C 0.9736 1.00285 0.39034 0.0
H929 H 0.91296 0.02653 0.30244 0.0
H930 H 0.92457 0.02348 0.32803 0.0
C931 C 0.98312 0.99928 0.40288 0.0
C932 C 0.96169 0.99651 0.36436 0.0
H933 H 0.95663 0.02114 0.33524 0.0
C934 C 0.94957 0.98606 0.36023 0.0
C935 C 0.96409 0.00948 0.35538 0.0
C936 C 0.97716 0.02091 0.35899 0.0
C937 C 0.94001 0.98804 0.34725 0.0
C938 C 0.94275 1.0007 0.33797 0.0
C939 C 0.9545 0.01146 0.34238 0.0
C940 C 0.9346 1.00217 0.32294 0.0
C941 C 0.9271 0.97646 0.34353 0.0
C942 C 0.93631 0.99121 0.31162 0.0
C943 C 0.92977 0.99293 0.29708 0.0
C944 C 0.92134 0.00569 0.29342 0.0
C945 C 0.91926 0.01651 0.30489 0.0
C946 C 0.92595 0.01482 0.31949 0.0
H947 H 0.92347 0.97038 0.3538 0.0
H948 H 0.91693 0.9818 0.33823 0.0
H949 H 0.93114 0.96799 0.33542 0.0
H950 H 0.94314 0.9815 0.3139 0.0
H951 H 0.93164 0.98436 0.28858 0.0
H952 H 0.23865 0.22581 0.66724 0.0
H953 H 0.24437 0.20939 0.6459 0.0
H954 H 0.23094 0.24392 0.61469 0.0
H955 H 0.22523 0.26042 0.63595 0.0
H956 H 0.22544 0.19794 0.6225 0.0
H957 H 0.2728 0.23382 0.59984 0.0
H958 H 0.2654 0.23705 0.61833 0.0
H959 H 0.25528 0.24353 0.60164 0.0
C960 C 0.23688 0.22992 0.65583 0.0
C961 C 0.23153 0.24449 0.65334 0.0
C962 C 0.24021 0.22052 0.64364 0.0
C963 C 0.23832 0.22548 0.62867 0.0
C964 C 0.23287 0.23996 0.62613 0.0
H965 H 0.24988 0.18683 0.53945 0.0
H966 H 0.24285 0.20191 0.56122 0.0
C967 C 0.2296 0.2494 0.63832 0.0
C968 C 0.24171 0.21536 0.61574 0.0
H969 H 0.26329 0.21304 0.58438 0.0
C970 C 0.23378 0.20121 0.61422 0.0
C971 C 0.25262 0.21959 0.60491 0.0
C972 C 0.26213 0.23426 0.6063 0.0
C973 C 0.23619 0.19135 0.60201 0.0
C974 C 0.24697 0.19566 0.59111 0.0
C975 C 0.25497 0.20977 0.59268 0.0
C976 C 0.25015 0.1858 0.57794 0.0
C977 C 0.22691 0.17655 0.60067 0.0
C978 C 0.25648 0.17162 0.58004 0.0
C979 C 0.26047 0.1629 0.56756 0.0
C980 C 0.25826 0.16822 0.55273 0.0
C981 C 0.25162 0.18229 0.55067 0.0
C982 C 0.24766 0.19099 0.56313 0.0
H983 H 0.21658 0.17656 0.60767 0.0
H984 H 0.22312 0.17406 0.58871 0.0
H985 H 0.23418 0.16729 0.60464 0.0
H986 H 0.25877 0.16748 0.59135 0.0
H987 H 0.26568 0.15219 0.56957 0.0
H988 H 0.50585 0.52199 0.6172 0.0
H989 H 0.48994 0.51792 0.63916 0.0
H990 H 0.45584 0.5466 0.61968 0.0
H991 H 0.4717 0.55094 0.59785 0.0
H992 H 0.47977 0.53973 0.65949 0.0
H993 H 0.43015 0.50844 0.63028 0.0
H994 H 0.44864 0.51107 0.62185 0.0
H995 H 0.43548 0.52615 0.62182 0.0
C996 C 0.49499 0.52749 0.61759 0.0
C997 C 0.49006 0.53673 0.60564 0.0
C998 C 0.48587 0.52507 0.63013 0.0
C999 C 0.47156 0.53174 0.63096 0.0
C1000 C 0.46664 0.54103 0.61913 0.0
H1001 H 0.40149 0.53716 0.69803 0.0
H1002 H 0.41649 0.53833 0.67516 0.0
C1003 C 0.47576 0.54348 0.60662 0.0
C1004 C 0.46207 0.52949 0.64447 0.0
H1005 H 0.42677 0.5164 0.65567 0.0
C1006 C 0.46823 0.53452 0.65868 0.0
C1007 C 0.44697 0.52278 0.6434 0.0
C1008 C 0.43993 0.51667 0.62855 0.0
C1009 C 0.4596 0.53334 0.67176 0.0
C1010 C 0.44448 0.52661 0.67071 0.0
C1011 C 0.43834 0.52153 0.6565 0.0
C1012 C 0.43485 0.52494 0.68421 0.0
C1013 C 0.46661 0.53973 0.68652 0.0
C1014 C 0.4399 0.51663 0.69674 0.0
C1015 C 0.43138 0.51597 0.70984 0.0
C1016 C 0.41751 0.52349 0.71064 0.0
C1017 C 0.41212 0.53125 0.69782 0.0
C1018 C 0.42069 0.53194 0.68473 0.0
H1019 H 0.47633 0.54798 0.68467 0.0
H1020 H 0.45787 0.5454 0.69313 0.0
H1021 H 0.47115 0.5304 0.6934 0.0
H1022 H 0.4506 0.51083 0.6965 0.0
H1023 H 0.4359 0.50989 0.71946 0.0
H1024 H 0.79821 0.2592 0.63113 0.0
H1025 H 0.79526 0.27744 0.61079 0.0
H1026 H 0.78176 0.31078 0.64303 0.0
H1027 H 0.78468 0.29257 0.66347 0.0
H1028 H 0.7686 0.29087 0.60186 0.0
H1029 H 0.8136 0.33478 0.61939 0.0
H1030 H 0.81295 0.31609 0.62734 0.0
H1031 H 0.8002 0.33005 0.63371 0.0
C1032 C 0.79466 0.27043 0.63392 0.0
C1033 C 0.79166 0.2744 0.64895 0.0
C1034 C 0.79304 0.28087 0.62228 0.0
C1035 C 0.78846 0.29556 0.62538 0.0
C1036 C 0.78565 0.29964 0.64039 0.0
H1037 H 0.76185 0.36894 0.56581 0.0
H1038 H 0.76844 0.35357 0.58785 0.0
C1039 C 0.78731 0.2892 0.65207 0.0
C1040 C 0.78569 0.30617 0.61272 0.0
H1041 H 0.79663 0.3407 0.59876 0.0
C1042 C 0.77479 0.30173 0.60117 0.0
C1043 C 0.79367 0.32041 0.61186 0.0
C1044 C 0.80586 0.3256 0.62366 0.0
C1045 C 0.7716 0.31112 0.58885 0.0
C1046 C 0.77971 0.32527 0.58787 0.0
C1047 C 0.79047 0.32983 0.5995 0.0
C1048 C 0.7772 0.33531 0.57472 0.0
C1049 C 0.75935 0.3059 0.5771 0.0
C1050 C 0.78043 0.33039 0.56007 0.0
C1051 C 0.77667 0.33912 0.54749 0.0
C1052 C 0.7697 0.35303 0.54927 0.0
C1053 C 0.76719 0.35829 0.56402 0.0
C1054 C 0.77095 0.34951 0.57664 0.0
H1055 H 0.75156 0.29681 0.58143 0.0
H1056 H 0.75231 0.31542 0.57335 0.0
H1057 H 0.76497 0.30134 0.56706 0.0
H1058 H 0.7855 0.31959 0.55834 0.0
H1059 H 0.77879 0.33469 0.53633 0.0
H1060 H 0.55861 0.98308 0.60857 0.0
H1061 H 0.57517 0.98815 0.63122 0.0
H1062 H 0.53519 0.9887 0.65848 0.0
H1063 H 0.51847 0.98372 0.63581 0.0
H1064 H 0.57577 0.01265 0.65143 0.0
H1065 H 0.5623 0.95888 0.68095 0.0
H1066 H 0.55734 0.96147 0.66114 0.0
H1067 H 0.54595 0.96956 0.6754 0.0
C1068 C 0.55328 0.9844 0.61934 0.0
C1069 C 0.53715 0.98298 0.62031 0.0
C1070 C 0.5628 0.98722 0.63232 0.0
C1071 C 0.55647 0.9886 0.64661 0.0
C1072 C 0.54038 0.98735 0.64764 0.0
H1073 H 0.60531 1.0037 0.73557 0.0
H1074 H 0.58487 1.00037 0.71559 0.0
C1075 C 0.53083 0.98451 0.63465 0.0
C1076 C 0.5668 0.99166 0.66029 0.0
H1077 H 0.5792 0.9767 0.69392 0.0
C1078 C 0.57647 1.0048 0.66074 0.0
C1079 C 0.56765 0.98149 0.67252 0.0
C1080 C 0.55786 0.96699 0.67251 0.0
C1081 C 0.58706 0.00797 0.67294 0.0
C1082 C 0.58826 0.99758 0.68493 0.0
C1083 C 0.57829 0.98465 0.68473 0.0
C1084 C 0.6005 0.99947 0.6972 0.0
C1085 C 0.59686 0.02246 0.67287 0.0
C1086 C 0.61606 0.99978 0.69356 0.0
C1087 C 0.62771 1.00167 0.70488 0.0
C1088 C 0.62414 1.00322 0.72022 0.0
C1089 C 0.60851 1.00262 0.7239 0.0
C1090 C 0.59681 1.0007 0.7125 0.0
H1091 H 0.59144 0.0311 0.66566 0.0
H1092 H 0.59891 0.02721 0.6845 0.0
H1093 H 0.60819 0.02014 0.66819 0.0
H1094 H 0.61923 0.99849 0.6819 0.0
H1095 H 0.63957 1.00193 0.70153 0.0
H1096 H 0.88211 0.21681 0.78035 0.0
H1097 H 0.90274 0.2187 0.80012 0.0
H1098 H 0.90826 0.26663 0.79279 0.0
H1099 H 0.88735 0.26496 0.77343 0.0
H1100 H 0.93353 0.22868 0.79832 0.0
H1101 H 0.90331 0.26453 0.83842 0.0
H1102 H 0.89346 0.25482 0.8225 0.0
H1103 H 0.90443 0.2722 0.81977 0.0
C1104 C 0.88756 0.22779 0.78307 0.0
C1105 C 0.88298 0.24074 0.7753 0.0
C1106 C 0.89945 0.22883 0.7943 0.0
C1107 C 0.90694 0.24284 0.79808 0.0
C1108 C 0.9025 0.25574 0.79025 0.0
H1109 H 0.99417 0.25772 0.85084 0.0
H1110 H 0.97424 0.25557 0.83038 0.0
C1111 C 0.89063 0.25472 0.77905 0.0
C1112 C 0.91945 0.24395 0.81012 0.0
H1113 H 0.92978 0.26094 0.84418 0.0
C1114 C 0.93271 0.23571 0.80837 0.0
C1115 C 0.91831 0.25301 0.8233 0.0
C1116 C 0.90406 0.26154 0.82623 0.0
C1117 C 0.94492 0.23639 0.81936 0.0
C1118 C 0.94394 0.24576 0.83236 0.0
C1119 C 0.93061 0.25388 0.83415 0.0
C1120 C 0.95629 0.24684 0.84458 0.0
C1121 C 0.95859 0.22682 0.81712 0.0
C1122 C 0.9528 0.24292 0.85943 0.0
C1123 C 0.96411 0.24424 0.87114 0.0
C1124 C 0.97922 0.24958 0.86833 0.0
C1125 C 0.98271 0.25349 0.85342 0.0
C1126 C 0.97134 0.25219 0.84168 0.0
H1127 H 0.95589 0.21758 0.80868 0.0
H1128 H 0.96824 0.23402 0.81293 0.0
H1129 H 0.96253 0.22177 0.82796 0.0
H1130 H 0.94129 0.2388 0.86197 0.0
H1131 H 0.96093 0.2411 0.88244 0.0
H1132 H 0.46589 0.89414 0.49196 0.0
H1133 H 0.47237 0.87316 0.47557 0.0
H1134 H 0.51428 0.89745 0.46407 0.0
H1135 H 0.50784 0.91858 0.48046 0.0
H1136 H 0.47673 0.8734 0.44461 0.0
H1137 H 0.52972 0.85618 0.47598 0.0
H1138 H 0.51631 0.8686 0.48418 0.0
H1139 H 0.52964 0.8757 0.47069 0.0
C1140 C 0.47648 0.89507 0.48594 0.0
C1141 C 0.48632 0.90811 0.48754 0.0
C1142 C 0.4802 0.88302 0.47659 0.0
C1143 C 0.49388 0.88363 0.46867 0.0
C1144 C 0.5038 0.89657 0.47028 0.0
H1145 H 0.52824 0.81189 0.41006 0.0
H1146 H 0.52505 0.83684 0.42175 0.0
C1147 C 0.5001 0.90865 0.47968 0.0
C1148 C 0.49739 0.87083 0.45844 0.0
H1149 H 0.52254 0.84276 0.45339 0.0
C1150 C 0.48679 0.86676 0.4465 0.0
C1151 C 0.5106 0.86222 0.46079 0.0
C1152 C 0.52219 0.86577 0.47366 0.0
C1153 C 0.48886 0.85419 0.43706 0.0
C1154 C 0.50177 0.84526 0.43974 0.0
C1155 C 0.51267 0.84963 0.45132 0.0
C1156 C 0.50335 0.83061 0.43163 0.0
C1157 C 0.47714 0.85051 0.42434 0.0
C1158 C 0.49221 0.81885 0.43324 0.0
C1159 C 0.494 0.80467 0.42664 0.0
C1160 C 0.50702 0.80181 0.41826 0.0
C1161 C 0.51802 0.81371 0.41632 0.0
C1162 C 0.51626 0.82795 0.42307 0.0
H1163 H 0.47089 0.86065 0.42085 0.0
H1164 H 0.48266 0.8458 0.41431 0.0
H1165 H 0.46852 0.84195 0.42824 0.0
H1166 H 0.48229 0.82052 0.44 0.0
H1167 H 0.48528 0.79581 0.42841 0.0
H1168 H 0.14003 0.30484 0.75992 0.0
H1169 H 0.11846 0.29996 0.7765 0.0
H1170 H 0.15054 0.2936 0.81413 0.0
H1171 H 0.17209 0.29836 0.7977 0.0
H1172 H 0.11037 0.275 0.79428 0.0
H1173 H 0.12325 0.32597 0.83031 0.0
H1174 H 0.13178 0.32334 0.81224 0.0
H1175 H 0.13946 0.31427 0.82884 0.0
C1176 C 0.1425 0.30226 0.7717 0.0
C1177 C 0.15783 0.30217 0.7775 0.0
C1178 C 0.13014 0.29955 0.78118 0.0
C1179 C 0.13286 0.29675 0.79665 0.0
C1180 C 0.14814 0.29615 0.80233 0.0
H1181 H 0.08585 0.27341 0.8763 0.0
H1182 H 0.10331 0.28029 0.85639 0.0
C1183 C 0.16046 0.29887 0.7929 0.0
C1184 C 0.11983 0.29441 0.80693 0.0
H1185 H 0.10567 0.30732 0.83997 0.0
C1186 C 0.10919 0.28217 0.80416 0.0
C1187 C 0.11823 0.30384 0.81977 0.0
C1188 C 0.12869 0.31768 0.82291 0.0
C1189 C 0.09751 0.27867 0.81431 0.0
C1190 C 0.09631 0.28778 0.82746 0.0
C1191 C 0.10662 0.30031 0.82992 0.0
C1192 C 0.08527 0.28387 0.83941 0.0
C1193 C 0.08698 0.26488 0.81125 0.0
C1194 C 0.06923 0.2838 0.83659 0.0
C1195 C 0.05911 0.27988 0.84805 0.0
C1196 C 0.06488 0.27596 0.86252 0.0
C1197 C 0.08095 0.27631 0.86531 0.0
C1198 C 0.091 0.28026 0.85392 0.0
H1199 H 0.09116 0.25755 0.80213 0.0
H1200 H 0.08587 0.2581 0.82167 0.0
H1201 H 0.07534 0.26849 0.8077 0.0
H1202 H 0.06454 0.28679 0.82554 0.0
H1203 H 0.04681 0.27975 0.84553 0.0
H1204 H 0.52584 0.6202 0.49576 0.0
H1205 H 0.52064 0.64277 0.48102 0.0
H1206 H 0.55206 0.62888 0.44761 0.0
H1207 H 0.55762 0.6065 0.46237 0.0
H1208 H 0.5424 0.66581 0.47236 0.0
H1209 H 0.51256 0.63762 0.42221 0.0
H1210 H 0.51519 0.62828 0.44012 0.0
H1211 H 0.53088 0.63022 0.42756 0.0
C1212 C 0.53172 0.62195 0.48532 0.0
C1213 C 0.54212 0.61142 0.48027 0.0
C1214 C 0.52865 0.63483 0.47686 0.0
C1215 C 0.53577 0.63739 0.46309 0.0
C1216 C 0.54616 0.62696 0.45802 0.0
H1217 H 0.53993 0.70843 0.39674 0.0
H1218 H 0.54121 0.68487 0.41083 0.0
C1219 C 0.5493 0.61413 0.46649 0.0
C1220 C 0.53286 0.65129 0.45433 0.0
H1221 H 0.51944 0.66375 0.41999 0.0
C1222 C 0.53726 0.66538 0.46096 0.0
C1223 C 0.52623 0.6507 0.43942 0.0
C1224 C 0.5208 0.63591 0.43191 0.0
C1225 C 0.5356 0.67888 0.45296 0.0
C1226 C 0.529 0.67831 0.43802 0.0
C1227 C 0.52447 0.6642 0.43144 0.0
C1228 C 0.52713 0.69221 0.42892 0.0
C1229 C 0.54147 0.69357 0.46042 0.0
C1230 C 0.51836 0.70402 0.4341 0.0
C1231 C 0.51767 0.71754 0.42611 0.0
C1232 C 0.52557 0.71947 0.41264 0.0
C1233 C 0.53372 0.70735 0.40708 0.0
C1234 C 0.53447 0.69386 0.41513 0.0
H1235 H 0.54978 0.69168 0.47002 0.0
H1236 H 0.54718 0.70108 0.45217 0.0
H1237 H 0.53162 0.69949 0.46494 0.0
H1238 H 0.51227 0.70289 0.44451 0.0
H1239 H 0.51125 0.7266 0.43072 0.0
H1240 H 0.86267 0.76975 0.72412 0.0
H1241 H 0.88297 0.76833 0.70585 0.0
H1242 H 0.91256 0.79828 0.73409 0.0
H1243 H 0.89239 0.79952 0.75262 0.0
H1244 H 0.89811 0.79235 0.69005 0.0
H1245 H 0.93915 0.76142 0.72687 0.0
H1246 H 0.91904 0.76252 0.73093 0.0
H1247 H 0.93212 0.77851 0.7347 0.0
C1248 C 0.87352 0.77596 0.72652 0.0
C1249 C 0.87591 0.78467 0.73991 0.0
C1250 C 0.8851 0.7752 0.71601 0.0
C1251 C 0.89937 0.78303 0.71869 0.0
C1252 C 0.90172 0.79196 0.73189 0.0
H1253 H 0.98177 0.7792 0.66351 0.0
H1254 H 0.96421 0.78612 0.68336 0.0
C1255 C 0.89012 0.79278 0.7424 0.0
C1256 C 0.91166 0.78183 0.70754 0.0
H1257 H 0.94706 0.76762 0.70245 0.0
C1258 C 0.90885 0.78702 0.69279 0.0
C1259 C 0.92574 0.77499 0.71115 0.0
C1260 C 0.92924 0.76892 0.72673 0.0
C1261 C 0.9196 0.78537 0.6815 0.0
C1262 C 0.93342 0.778 0.68492 0.0
C1263 C 0.93647 0.77325 0.69981 0.0
C1264 C 0.94421 0.77409 0.67294 0.0
C1265 C 0.91603 0.79156 0.66598 0.0
C1266 C 0.9389 0.76484 0.66065 0.0
C1267 C 0.94884 0.76092 0.64937 0.0
C1268 C 0.96442 0.76602 0.65011 0.0
C1269 C 0.96983 0.77514 0.66255 0.0
C1270 C 0.95982 0.77909 0.6739 0.0
H1271 H 0.90795 0.8009 0.6665 0.0
H1272 H 0.92667 0.79578 0.66058 0.0
H1273 H 0.91043 0.78244 0.65867 0.0
H1274 H 0.92704 0.7605 0.65984 0.0
H1275 H 0.94424 0.75377 0.64006 0.0
H1276 H 0.06275 0.89481 0.52326 0.0
H1277 H 0.05655 0.873 0.53889 0.0
H1278 H 0.01657 0.89469 0.55445 0.0
H1279 H 0.02274 0.91666 0.53885 0.0
H1280 H 0.0543 0.87226 0.57021 0.0
H1281 H 0.99881 0.85281 0.54125 0.0
H1282 H 0.01213 0.86615 0.53283 0.0
H1283 H 1.00001 0.87222 0.5475 0.0
C1284 C 0.05264 0.895 0.53002 0.0
C1285 C 0.04327 0.90755 0.52979 0.0
C1286 C 0.04908 0.88247 0.53892 0.0
C1287 C 0.03602 0.88211 0.54776 0.0
C1288 C 0.02655 0.89456 0.54751 0.0
H1289 H 1.00264 0.80709 0.60472 0.0
H1290 H 1.00607 0.83246 0.59401 0.0
C1291 C 0.03009 0.90712 0.53857 0.0
C1292 C 0.03272 0.86885 0.55752 0.0
H1293 H 0.00693 0.83923 0.5627 0.0
C1294 C 0.0439 0.86509 0.56861 0.0
C1295 C 0.01909 0.85954 0.55555 0.0
C1296 C 0.00684 0.86276 0.54358 0.0
C1297 C 0.04197 0.85218 0.57755 0.0
C1298 C 0.0286 0.84258 0.57521 0.0
C1299 C 0.01716 0.8466 0.56451 0.0
C1300 C 0.02697 0.82767 0.58272 0.0
C1301 C 0.05433 0.84888 0.58938 0.0
C1302 C 0.03757 0.81658 0.58 0.0
C1303 C 0.03565 0.80216 0.58605 0.0
C1304 C 0.02301 0.79839 0.59497 0.0
C1305 C 0.01256 0.80962 0.59801 0.0
C1306 C 0.01446 0.8241 0.59183 0.0
H1307 H 0.06111 0.85932 0.59302 0.0
H1308 H 0.0493 0.84359 0.59949 0.0
H1309 H 0.06239 0.84094 0.58453 0.0
H1310 H 0.04716 0.81894 0.5728 0.0
H1311 H 0.04394 0.79384 0.58343 0.0
H1312 H 0.15987 0.72735 0.70888 0.0
H1313 H 0.13805 0.73275 0.69175 0.0
H1314 H 0.10741 0.72893 0.72878 0.0
H1315 H 0.12925 0.72379 0.7461 0.0
H1316 H 0.11116 0.71335 0.68595 0.0
H1317 H 0.09651 0.76948 0.70878 0.0
H1318 H 0.11495 0.76144 0.71277 0.0
H1319 H 0.09824 0.75459 0.72231 0.0
C1320 C 0.14854 0.7279 0.71347 0.0
C1321 C 0.14636 0.72519 0.72891 0.0
C1322 C 0.13606 0.73089 0.70362 0.0
C1323 C 0.12111 0.73141 0.709 0.0
C1324 C 0.11886 0.72881 0.72441 0.0
H1325 H 0.03339 0.74761 0.65966 0.0
H1326 H 0.05301 0.74312 0.67971 0.0
C1327 C 0.13135 0.72573 0.73427 0.0
C1328 C 0.10787 0.73398 0.69827 0.0
H1329 H 0.08029 0.75899 0.68888 0.0
C1330 C 0.1044 0.72333 0.6866 0.0
C1331 C 0.09894 0.74691 0.69923 0.0
C1332 C 0.10235 0.75885 0.71136 0.0
C1333 C 0.09234 0.72526 0.67583 0.0
C1334 C 0.0837 0.73843 0.67647 0.0
C1335 C 0.08693 0.74893 0.68835 0.0
C1336 C 0.0718 0.74175 0.66449 0.0
C1337 C 0.08886 0.71306 0.66395 0.0
C1338 C 0.07588 0.74288 0.64934 0.0
C1339 C 0.06473 0.74536 0.6379 0.0
C1340 C 0.0492 0.74696 0.64131 0.0
C1341 C 0.04521 0.74637 0.65659 0.0
C1342 C 0.05641 0.7438 0.66807 0.0
H1343 H 0.093 0.70199 0.66774 0.0
H1344 H 0.07631 0.71177 0.6611 0.0
H1345 H 0.09486 0.71612 0.6535 0.0
H1346 H 0.08772 0.74176 0.64631 0.0
H1347 H 0.06834 0.74594 0.62632 0.0
H1348 H 0.99648 0.59709 0.53862 0.0
H1349 H 1.00214 0.61922 0.55515 0.0
H1350 H 0.97396 0.64598 0.52561 0.0
H1351 H 0.96822 0.62394 0.50907 0.0
H1352 H 0.01569 0.64739 0.5502 0.0
H1353 H 0.95524 0.65263 0.56643 0.0
H1354 H 0.96163 0.63614 0.55674 0.0
H1355 H 0.9574 0.65289 0.54633 0.0
C1356 C 0.9916 0.60772 0.53555 0.0
C1357 C 0.98177 0.60868 0.52256 0.0
C1358 C 0.99481 0.62035 0.54505 0.0
C1359 C 0.98823 0.6342 0.54181 0.0
C1360 C 0.97884 0.63533 0.52859 0.0
H1361 H 0.01352 0.72378 0.57791 0.0
H1362 H 0.01136 0.70011 0.56333 0.0
C1363 C 0.97558 0.6227 0.51912 0.0
C1364 C 0.99109 0.64745 0.55226 0.0
H1365 H 0.97279 0.67315 0.57344 0.0
C1366 C 0.00632 0.65298 0.55535 0.0
C1367 C 0.97891 0.6546 0.55921 0.0
C1368 C 0.96239 0.64869 0.55715 0.0
C1369 C 0.00963 0.66569 0.56485 0.0
C1370 C 0.99738 0.67324 0.57124 0.0
C1371 C 0.9822 0.66746 0.56846 0.0
C1372 C 0.99991 0.6873 0.58064 0.0
C1373 C 0.02625 0.67077 0.56809 0.0
C1374 C 0.9941 0.6881 0.59522 0.0
C1375 C 0.99521 0.70168 0.60356 0.0
C1376 C 1.00213 0.71479 0.59748 0.0
C1377 C 0.00828 0.71388 0.58303 0.0
C1378 C 0.00711 0.7003 0.57468 0.0
H1379 H 0.03411 0.66141 0.56633 0.0
H1380 H 0.02944 0.67996 0.56023 0.0
H1381 H 0.02811 0.67515 0.57988 0.0
H1382 H 0.98844 0.67825 0.60006 0.0
H1383 H 0.9903 0.70199 0.61463 0.0
H1384 H 0.7669 0.89414 0.22569 0.0
H1385 H 0.78388 0.91678 0.23029 0.0
H1386 H 0.82339 0.89083 0.22144 0.0
H1387 H 0.80663 0.86824 0.21698 0.0
H1388 H 0.80933 0.92258 0.25118 0.0
H1389 H 0.82736 0.92603 0.19186 0.0
H1390 H 0.81089 0.91449 0.19728 0.0
H1391 H 0.83005 0.90787 0.2001 0.0
C1392 C 0.77922 0.89322 0.22486 0.0
C1393 C 0.78536 0.87937 0.22076 0.0
C1394 C 0.7889 0.90619 0.22743 0.0
C1395 C 0.80488 0.90558 0.2259 0.0
C1396 C 0.81106 0.89168 0.22231 0.0
H1397 H 0.88796 0.96065 0.23462 0.0
H1398 H 0.86727 0.94134 0.23103 0.0
C1399 C 0.80144 0.87876 0.21974 0.0
C1400 C 0.8152 0.91939 0.22798 0.0
H1401 H 0.84228 0.94106 0.21016 0.0
C1402 C 0.8164 0.92676 0.24218 0.0
C1403 C 0.82437 0.9249 0.21619 0.0
C1404 C 0.82303 0.91802 0.20045 0.0
C1405 C 0.82707 0.939 0.2451 0.0
C1406 C 0.83661 0.94415 0.23344 0.0
C1407 C 0.83503 0.93708 0.21912 0.0
C1408 C 0.84901 0.95618 0.23604 0.0
C1409 C 0.82851 0.94591 0.26081 0.0
C1410 C 0.84566 0.97107 0.23999 0.0
C1411 C 0.85756 0.98226 0.24208 0.0
C1412 C 0.87302 0.97878 0.2402 0.0
C1413 C 0.87624 0.96383 0.2362 0.0
C1414 C 0.8644 0.95272 0.23411 0.0
H1415 H 0.82257 0.93876 0.26923 0.0
H1416 H 0.84081 0.94769 0.26456 0.0
H1417 H 0.82323 0.95709 0.2607 0.0
H1418 H 0.83385 0.97408 0.24128 0.0
H1419 H 0.85462 0.99363 0.2451 0.0
H1420 H 0.79976 0.16646 0.28515 0.0
H1421 H 0.8164 0.14546 0.28096 0.0
H1422 H 0.7769 0.11421 0.28034 0.0
H1423 H 0.76011 0.13523 0.28465 0.0
H1424 H 0.82064 0.12069 0.29951 0.0
H1425 H 0.79858 0.10201 0.24204 0.0
H1426 H 0.79434 0.12008 0.25016 0.0
H1427 H 0.78433 0.10315 0.25612 0.0
C1428 C 0.79456 0.15513 0.28416 0.0
C1429 C 0.77855 0.15258 0.28531 0.0
C1430 C 0.80411 0.14312 0.28169 0.0
C1431 C 0.79793 0.12823 0.28021 0.0
C1432 C 0.78194 0.12561 0.28116 0.0
H1433 H 0.84826 0.04511 0.26487 0.0
H1434 H 0.8277 0.06227 0.27056 0.0
C1435 C 0.77234 0.13766 0.28363 0.0
C1436 C 0.80842 0.11554 0.27826 0.0
H1437 H 0.81804 0.08776 0.25358 0.0
C1438 C 0.82002 0.11346 0.28948 0.0
C1439 C 0.80756 0.10599 0.26524 0.0
C1440 C 0.79563 0.10793 0.25262 0.0
C1441 C 0.83087 0.1023 0.28797 0.0
C1442 C 0.83033 0.09308 0.27474 0.0
C1443 C 0.81845 0.09481 0.26372 0.0
C1444 C 0.84269 0.08246 0.27166 0.0
C1445 C 0.84287 0.1005 0.30056 0.0
C1446 C 0.8579 0.08808 0.27027 0.0
C1447 C 0.8696 0.07837 0.26703 0.0
C1448 C 0.8664 0.06273 0.26502 0.0
C1449 C 0.85115 0.05706 0.26645 0.0
C1450 C 0.83938 0.06686 0.26964 0.0
H1451 H 0.83904 0.10498 0.31152 0.0
H1452 H 0.84558 0.08845 0.30198 0.0
H1453 H 0.85362 0.10692 0.29778 0.0
H1454 H 0.86071 0.10009 0.27149 0.0
H1455 H 0.88116 0.08319 0.26595 0.0
H1456 H 0.41285 0.9578 0.97947 0.0
H1457 H 0.3901 0.94269 0.98651 0.0
H1458 H 0.36289 0.98214 0.98382 0.0
H1459 H 0.38556 0.99731 0.97636 0.0
H1460 H 0.37124 0.94646 0.01139 0.0
H1461 H 0.33793 0.95097 0.95664 0.0
H1462 H 0.35831 0.95582 0.95859 0.0
H1463 H 0.34464 0.96852 0.96558 0.0
C1464 C 0.402 0.96326 0.98022 0.0
C1465 C 0.40104 0.97877 0.9772 0.0
C1466 C 0.38902 0.95462 0.98436 0.0
C1467 C 0.37473 0.96122 0.98549 0.0
C1468 C 0.37373 0.97674 0.98277 0.0
H1469 H 0.28561 0.91445 1.00403 0.0
H1470 H 0.30535 0.93446 0.99958 0.0
C1471 C 0.38675 0.98543 0.97866 0.0
C1472 C 0.36099 0.95173 0.98962 0.0
H1473 H 0.32613 0.93689 0.97579 0.0
C1474 C 0.36134 0.94444 1.00364 0.0
C1475 C 0.348 0.94919 0.97955 0.0
C1476 C 0.34715 0.95642 0.96419 0.0
C1477 C 0.34922 0.9345 0.00776 0.0
C1478 C 0.3365 0.93149 0.99746 0.0
C1479 C 0.33588 0.93918 0.98366 0.0
C1480 C 0.3244 0.91955 1.00034 0.0
C1481 C 0.35017 0.92724 0.0231 0.0
C1482 C 0.3285 0.90451 1.00201 0.0
C1483 C 0.31732 0.8931 1.00452 0.0
C1484 C 0.30166 0.8964 1.00535 0.0
C1485 C 0.29753 0.91149 1.00353 0.0
C1486 C 0.3088 0.92294 1.00097 0.0
H1487 H 0.3578 0.93406 0.03123 0.0
H1488 H 0.3386 0.92574 0.02789 0.0
H1489 H 0.35506 0.91595 0.02196 0.0
H1490 H 0.3404 0.90154 1.00122 0.0
H1491 H 0.32101 0.88165 0.00577 0.0
H1492 H 0.2348 0.35476 0.25897 0.0
H1493 H 0.21692 0.37533 0.2577 0.0
H1494 H 0.23806 0.39487 0.2988 0.0
H1495 H 0.25624 0.37454 0.29998 0.0
H1496 H 0.19537 0.38638 0.27875 0.0
H1497 H 0.24249 0.42869 0.2672 0.0
H1498 H 0.24489 0.40861 0.26574 0.0
H1499 H 0.24532 0.41778 0.28401 0.0
C1500 C 0.23568 0.36343 0.26775 0.0
C1501 C 0.2471 0.36305 0.27949 0.0
C1502 C 0.22535 0.37512 0.26707 0.0
C1503 C 0.22626 0.38674 0.27805 0.0
C1504 C 0.23725 0.38612 0.29011 0.0
H1505 H 0.16328 0.46206 0.28384 0.0
H1506 H 0.17654 0.43871 0.28953 0.0
C1507 C 0.24756 0.37441 0.29082 0.0
C1508 C 0.2163 0.39991 0.27637 0.0
H1509 H 0.2176 0.43773 0.26911 0.0
C1510 C 0.2002 0.39764 0.27674 0.0
C1511 C 0.22262 0.41457 0.2736 0.0
C1512 C 0.23976 0.41763 0.27248 0.0
C1513 C 0.19029 0.40963 0.27434 0.0
C1514 C 0.19665 0.42426 0.27155 0.0
C1515 C 0.21274 0.42653 0.27133 0.0
C1516 C 0.18697 0.43725 0.26777 0.0
C1517 C 0.1731 0.4065 0.27432 0.0
C1518 C 0.18822 0.44406 0.2536 0.0
C1519 C 0.18073 0.45732 0.25035 0.0
C1520 C 0.17182 0.46422 0.26121 0.0
C1521 C 0.16995 0.45701 0.27518 0.0
C1522 C 0.17753 0.44366 0.27845 0.0
H1523 H 0.16999 0.39419 0.27404 0.0
H1524 H 0.16856 0.41146 0.28474 0.0
H1525 H 0.16735 0.41183 0.26443 0.0
H1526 H 0.19538 0.43931 0.24517 0.0
H1527 H 0.18237 0.46245 0.23944 0.0
H1528 H 0.11272 0.05853 0.48098 0.0
H1529 H 0.13554 0.07494 0.48698 0.0
H1530 H 0.16308 0.0359 0.49201 0.0
H1531 H 0.14023 0.01932 0.48616 0.0
H1532 H 0.15486 0.07587 0.51328 0.0
H1533 H 0.18748 0.06213 0.46244 0.0
H1534 H 0.16716 0.05736 0.46366 0.0
H1535 H 0.18112 0.04626 0.47342 0.0
C1536 C 0.12358 0.05337 0.48349 0.0
C1537 C 0.12457 0.03755 0.48308 0.0
C1538 C 0.13666 0.0628 0.48683 0.0
C1539 C 0.15108 0.05669 0.48975 0.0
C1540 C 0.15214 0.04091 0.48948 0.0
H1541 H 0.24087 0.10523 0.50909 0.0
H1542 H 0.2207 0.08506 0.50515 0.0
C1543 C 0.13905 0.03144 0.48614 0.0
C1544 C 0.16485 0.06692 0.49338 0.0
H1545 H 0.19974 0.07911 0.48038 0.0
C1546 C 0.16469 0.07653 0.50611 0.0
C1547 C 0.17776 0.0677 0.4841 0.0
C1548 C 0.17843 0.05791 0.47007 0.0
C1549 C 0.17695 0.08701 0.50972 0.0
C1550 C 0.18963 0.08817 0.50017 0.0
C1551 C 0.19003 0.07825 0.48768 0.0
C1552 C 0.20202 0.10026 0.50243 0.0
C1553 C 0.17621 0.09674 0.52379 0.0
C1554 C 0.19829 0.11549 0.50192 0.0
C1555 C 0.20971 0.12699 0.50418 0.0
C1556 C 0.22525 0.12359 0.50689 0.0
C1557 C 0.22904 0.10829 0.5071 0.0
C1558 C 0.21753 0.09674 0.50484 0.0
H1559 H 0.16853 0.09142 0.53215 0.0
H1560 H 0.18783 0.09892 0.52928 0.0
H1561 H 0.17148 0.10776 0.52065 0.0
H1562 H 0.18648 0.11852 0.49972 0.0
H1563 H 0.20629 0.13859 0.50378 0.0
H1564 H 0.76457 0.13573 0.72427 0.0
H1565 H 0.7459 0.11437 0.72617 0.0
H1566 H 0.71684 0.14209 0.75217 0.0
H1567 H 0.73536 0.16359 0.75014 0.0
H1568 H 0.73614 0.10161 0.75413 0.0
H1569 H 0.68691 0.12198 0.71913 0.0
H1570 H 0.70636 0.12981 0.71781 0.0
H1571 H 0.69499 0.13499 0.73342 0.0
C1572 C 0.75408 0.13737 0.73017 0.0
C1573 C 0.75146 0.1514 0.73702 0.0
C1574 C 0.74346 0.12512 0.73131 0.0
C1575 C 0.7299 0.12667 0.73916 0.0
C1576 C 0.72712 0.14069 0.74586 0.0
H1577 H 0.65509 0.06442 0.76429 0.0
H1578 H 0.67149 0.08674 0.75883 0.0
C1579 C 0.73779 0.15293 0.74481 0.0
C1580 C 0.71913 0.11337 0.7411 0.0
H1581 H 0.68239 0.09945 0.73278 0.0
C1582 C 0.72441 0.10109 0.74939 0.0
C1583 C 0.70379 0.11279 0.73504 0.0
C1584 C 0.69764 0.12553 0.72574 0.0
C1585 C 0.71474 0.08833 0.75198 0.0
C1586 C 0.69943 0.08762 0.74574 0.0
C1587 C 0.69412 0.09995 0.73749 0.0
C1588 C 0.6888 0.07421 0.74783 0.0
C1589 C 0.7209 0.07592 0.76175 0.0
C1590 C 0.69275 0.05978 0.743 0.0
C1591 C 0.68346 0.04701 0.74619 0.0
C1592 C 0.66986 0.04838 0.75409 0.0
C1593 C 0.66548 0.06293 0.7582 0.0
C1594 C 0.67486 0.07572 0.75509 0.0
H1595 H 0.73098 0.08003 0.76905 0.0
H1596 H 0.7119 0.07115 0.76911 0.0
H1597 H 0.72472 0.0667 0.75437 0.0
H1598 H 0.70324 0.05836 0.73703 0.0
H1599 H 0.68719 0.03602 0.7428 0.0
H1600 H 0.41757 0.0528 0.55059 0.0
H1601 H 0.39622 0.06862 0.54356 0.0
H1602 H 0.37567 0.03262 0.51516 0.0
H1603 H 0.39687 0.01647 0.5225 0.0
H1604 H 0.38641 0.07809 0.51467 0.0
H1605 H 0.34011 0.04398 0.54184 0.0
H1606 H 0.3603 0.04143 0.54613 0.0
H1607 H 0.35144 0.03413 0.52868 0.0
C1608 C 0.40844 0.04814 0.54298 0.0
C1609 C 0.4089 0.03326 0.53726 0.0
C1610 C 0.39628 0.05726 0.53888 0.0
C1611 C 0.3842 0.05176 0.529 0.0
C1612 C 0.38471 0.03703 0.52301 0.0
H1613 H 0.30023 0.10077 0.50434 0.0
H1614 H 0.31969 0.0814 0.50466 0.0
C1615 C 0.39693 0.02786 0.5271 0.0
C1616 C 0.37128 0.06167 0.52497 0.0
H1617 H 0.3329 0.06626 0.52972 0.0
C1618 C 0.37469 0.07543 0.51785 0.0
C1619 C 0.35594 0.05816 0.52899 0.0
C1620 C 0.35165 0.04369 0.53693 0.0
C1621 C 0.3633 0.08593 0.515 0.0
C1622 C 0.34811 0.08274 0.51965 0.0
C1623 C 0.34453 0.06871 0.52618 0.0
C1624 C 0.33625 0.09439 0.51908 0.0
C1625 C 0.3677 0.10042 0.50713 0.0
C1626 C 0.33897 0.108 0.52723 0.0
C1627 C 0.32796 0.119 0.52707 0.0
C1628 C 0.31383 0.11668 0.51883 0.0
C1629 C 0.31101 0.10297 0.51074 0.0
C1630 C 0.32211 0.09188 0.51093 0.0
H1631 H 0.37786 0.09907 0.5001 0.0
H1632 H 0.358 0.10427 0.49979 0.0
H1633 H 0.37078 0.10936 0.51577 0.0
H1634 H 0.34962 0.11007 0.53389 0.0
H1635 H 0.33055 0.12934 0.53353 0.0
H1636 H 0.63311 0.50386 0.52452 0.0
H1637 H 0.65446 0.48834 0.51746 0.0
H1638 H 0.62637 0.44795 0.52474 0.0
H1639 H 0.60494 0.46328 0.53135 0.0
H1640 H 0.66961 0.46715 0.5349 0.0
H1641 H 0.64279 0.43978 0.4831 0.0
H1642 H 0.63519 0.4563 0.49173 0.0
H1643 H 0.63089 0.43782 0.49913 0.0
C1644 C 0.6314 0.49167 0.52438 0.0
C1645 C 0.61727 0.48484 0.52851 0.0
C1646 C 0.64365 0.48282 0.52043 0.0
C1647 C 0.64198 0.46696 0.52035 0.0
C1648 C 0.62788 0.46014 0.52442 0.0
H1649 H 0.69301 0.38766 0.51476 0.0
H1650 H 0.67446 0.4074 0.51601 0.0
C1651 C 0.61567 0.46895 0.52839 0.0
C1652 C 0.65507 0.45745 0.51668 0.0
H1653 H 0.66475 0.42796 0.49419 0.0
C1654 C 0.66867 0.45874 0.52584 0.0
C1655 C 0.65387 0.4465 0.50482 0.0
C1656 C 0.63996 0.4451 0.49403 0.0
C1657 C 0.68072 0.44885 0.52401 0.0
C1658 C 0.67924 0.43751 0.51254 0.0
C1659 C 0.66588 0.43661 0.50301 0.0
C1660 C 0.69075 0.42566 0.51106 0.0
C1661 C 0.69461 0.45014 0.53484 0.0
C1662 C 0.70611 0.42927 0.50755 0.0
C1663 C 0.71685 0.41792 0.50681 0.0
C1664 C 0.71239 0.40275 0.50954 0.0
C1665 C 0.69691 0.3992 0.51265 0.0
C1666 C 0.68624 0.41049 0.51335 0.0
H1667 H 0.69269 0.45756 0.54475 0.0
H1668 H 0.69764 0.43882 0.539 0.0
H1669 H 0.70461 0.455 0.52885 0.0
H1670 H 0.70981 0.44087 0.50547 0.0
H1671 H 0.72866 0.42104 0.50435 0.0
H1672 H 0.74759 0.27211 0.36096 0.0
H1673 H 0.7533 0.2883 0.38335 0.0
H1674 H 0.70785 0.30573 0.37908 0.0
H1675 H 0.70184 0.28925 0.35706 0.0
H1676 H 0.75336 0.31977 0.38592 0.0
H1677 H 0.7104 0.29307 0.42326 0.0
H1678 H 0.71585 0.28424 0.40588 0.0
H1679 H 0.70252 0.29918 0.40538 0.0
C1680 C 0.73872 0.27923 0.3649 0.0
C1681 C 0.72423 0.2793 0.35718 0.0
C1682 C 0.74205 0.28857 0.37764 0.0
C1683 C 0.73095 0.29811 0.38303 0.0
C1684 C 0.71652 0.29829 0.37531 0.0
H1685 H 0.73352 0.35846 0.46307 0.0
H1686 H 0.72615 0.34656 0.4384 0.0
C1687 C 0.71318 0.28897 0.36259 0.0
C1688 C 0.73456 0.30802 0.39656 0.0
H1689 H 0.72387 0.31523 0.43266 0.0
C1690 C 0.7469 0.31878 0.39613 0.0
C1691 C 0.72607 0.30682 0.40987 0.0
C1692 C 0.71305 0.29513 0.41124 0.0
C1693 C 0.75101 0.32831 0.40864 0.0
C1694 C 0.74271 0.32691 0.42204 0.0
C1695 C 0.73017 0.31637 0.42236 0.0
C1696 C 0.74758 0.33537 0.43622 0.0
C1697 C 0.76417 0.33986 0.40736 0.0
C1698 C 0.76209 0.33313 0.44314 0.0
C1699 C 0.76631 0.33987 0.45717 0.0
C1700 C 0.75609 0.34898 0.4647 0.0
C1701 C 0.74171 0.35161 0.45755 0.0
C1702 C 0.73746 0.34476 0.44349 0.0
H1703 H 0.76608 0.34273 0.39535 0.0
H1704 H 0.76204 0.3504 0.41373 0.0
H1705 H 0.7749 0.33515 0.41215 0.0
H1706 H 0.77 0.32573 0.43794 0.0
H1707 H 0.77747 0.33756 0.4623 0.0
H1708 H 0.51275 0.02162 0.88488 0.0
H1709 H 0.52881 0.01451 0.86396 0.0
H1710 H 0.56969 0.02416 0.89231 0.0
H1711 H 0.55381 0.03084 0.9133 0.0
H1712 H 0.55107 0.03229 0.84978 0.0
H1713 H 0.5775 0.98242 0.8753 0.0
H1714 H 0.56068 0.99063 0.88274 0.0
H1715 H 0.57961 0.99886 0.88741 0.0
C1716 C 0.52516 0.022 0.88673 0.0
C1717 C 0.53197 0.02682 0.90081 0.0
C1718 C 0.53433 0.01801 0.87473 0.0
C1719 C 0.55047 0.01859 0.8766 0.0
C1720 C 0.55727 0.02333 0.89065 0.0
H1721 H 0.63221 0.01455 0.82744 0.0
H1722 H 0.61177 0.01558 0.84542 0.0
C1723 C 0.54815 0.02734 0.90261 0.0
C1724 C 0.56035 0.0149 0.86378 0.0
H1725 H 0.59018 0.99332 0.85416 0.0
C1726 C 0.55946 0.0236 0.85061 0.0
C1727 C 0.57126 1.00353 0.86483 0.0
C1728 C 0.57224 0.99322 0.87827 0.0
C1729 C 0.56973 0.02181 0.83887 0.0
C1730 C 0.58105 0.01084 0.84021 0.0
C1731 C 0.58154 1.00176 0.85313 0.0
C1732 C 0.59332 0.00948 0.82903 0.0
C1733 C 0.56888 0.03217 0.82546 0.0
C1734 C 0.58983 1.00541 0.8138 0.0
C1735 C 0.60159 1.0048 0.80338 0.0
C1736 C 0.61705 0.00823 0.80804 0.0
C1737 C 0.62047 0.0119 0.82339 0.0
C1738 C 0.60877 0.01247 0.83374 0.0
H1739 H 0.56148 0.04183 0.82749 0.0
H1740 H 0.58056 0.03666 0.82275 0.0
H1741 H 0.56397 0.02572 0.81542 0.0
H1742 H 0.57802 1.00278 0.80994 0.0
H1743 H 0.59855 1.00189 0.79167 0.0
H1744 H 0.29234 0.22356 0.35106 0.0
H1745 H 0.29084 0.20488 0.37125 0.0
H1746 H 0.28786 0.24074 0.40429 0.0
H1747 H 0.28991 0.25944 0.38434 0.0
H1748 H 0.30714 0.21866 0.41414 0.0
H1749 H 0.25102 0.19306 0.39186 0.0
H1750 H 0.26644 0.19309 0.37893 0.0
H1751 H 0.25903 0.21069 0.38497 0.0
C1752 C 0.29159 0.22749 0.36265 0.0
C1753 C 0.29108 0.24304 0.36602 0.0
C1754 C 0.29056 0.21677 0.37417 0.0
C1755 C 0.28894 0.22137 0.38927 0.0
C1756 C 0.28898 0.23688 0.39272 0.0
H1757 H 0.24895 0.18331 0.46623 0.0
H1758 H 0.25579 0.19458 0.44235 0.0
C1759 C 0.29002 0.24758 0.38126 0.0
C1760 C 0.28679 0.21018 0.40156 0.0
H1761 H 0.26144 0.1831 0.41436 0.0
C1762 C 0.29725 0.21075 0.41413 0.0
C1763 C 0.27381 0.19993 0.40157 0.0
C1764 C 0.26184 0.19917 0.38869 0.0
C1765 C 0.29484 0.20173 0.42689 0.0
C1766 C 0.28173 0.19165 0.427 0.0
C1767 C 0.27155 0.19072 0.41422 0.0
C1768 C 0.27733 0.18344 0.44091 0.0
C1769 C 0.30591 0.20368 0.44045 0.0
C1770 C 0.28694 0.173 0.44794 0.0
C1771 C 0.28306 0.16648 0.46178 0.0
C1772 C 0.26948 0.17029 0.46881 0.0
C1773 C 0.25958 0.18018 0.4613 0.0
C1774 C 0.26345 0.18663 0.44756 0.0
H1775 H 0.31371 0.21389 0.4396 0.0
H1776 H 0.29955 0.20456 0.45105 0.0
H1777 H 0.31311 0.19368 0.4413 0.0
H1778 H 0.29757 0.1701 0.44288 0.0
H1779 H 0.29093 0.15888 0.4672 0.0
H1780 H 0.49989 0.47046 0.88988 0.0
H1781 H 0.48332 0.47568 0.86768 0.0
H1782 H 0.4612 0.50978 0.89311 0.0
H1783 H 0.47792 0.5048 0.91535 0.0
H1784 H 0.4499 0.47371 0.86602 0.0
H1785 H 0.47376 0.53137 0.85353 0.0
H1786 H 0.48418 0.51835 0.86522 0.0
H1787 H 0.46836 0.52798 0.87267 0.0
C1788 C 0.49166 0.47923 0.89072 0.0
C1789 C 0.49031 0.48726 0.90441 0.0
C1790 C 0.48212 0.48213 0.87803 0.0
C1791 C 0.47111 0.49321 0.87868 0.0
C1792 C 0.46974 0.5013 0.89229 0.0
H1793 H 0.41069 0.52388 0.80336 0.0
H1794 H 0.42203 0.52066 0.82901 0.0
C1795 C 0.47923 0.49835 0.90503 0.0
C1796 C 0.46085 0.49594 0.86518 0.0
H1797 H 0.45313 0.52166 0.83767 0.0
C1798 C 0.45054 0.48423 0.85987 0.0
C1799 C 0.46156 0.50973 0.85726 0.0
C1800 C 0.47261 0.52259 0.86233 0.0
C1801 C 0.44113 0.48581 0.84672 0.0
C1802 C 0.44229 0.49936 0.83841 0.0
C1803 C 0.45222 0.51128 0.84402 0.0
C1804 C 0.43439 0.50086 0.82324 0.0
C1805 C 0.43002 0.47292 0.84184 0.0
C1806 C 0.43752 0.49082 0.81148 0.0
C1807 C 0.43107 0.4926 0.79692 0.0
C1808 C 0.42138 0.50456 0.79363 0.0
C1809 C 0.41799 0.51448 0.80549 0.0
C1810 C 0.42453 0.5127 0.82014 0.0
H1811 H 0.42672 0.46592 0.85164 0.0
H1812 H 0.41941 0.47708 0.83621 0.0
H1813 H 0.43565 0.46551 0.83372 0.0
H1814 H 0.44534 0.4818 0.81345 0.0
H1815 H 0.43401 0.48472 0.78813 0.0
H1816 H 0.71159 0.72778 0.15777 0.0
H1817 H 0.71741 0.71057 0.13718 0.0
H1818 H 0.75414 0.74138 0.12406 0.0
H1819 H 0.74887 0.75836 0.14506 0.0
H1820 H 0.71652 0.71459 0.10693 0.0
H1821 H 0.77593 0.70206 0.12639 0.0
H1822 H 0.76289 0.71147 0.13834 0.0
H1823 H 0.77322 0.7219 0.12433 0.0
C1824 C 0.7211 0.73082 0.15069 0.0
C1825 C 0.72985 0.74446 0.15324 0.0
C1826 C 0.72432 0.721 0.13881 0.0
C1827 C 0.73638 0.72452 0.12919 0.0
C1828 C 0.74499 0.73822 0.13152 0.0
H1829 H 0.7499 0.68712 0.0399 0.0
H1830 H 0.74243 0.70188 0.06168 0.0
C1831 C 0.74182 0.74804 0.14344 0.0
C1832 C 0.73967 0.71403 0.11652 0.0
H1833 H 0.76814 0.69402 0.10129 0.0
C1834 C 0.72779 0.71003 0.10575 0.0
C1835 C 0.75429 0.70785 0.11508 0.0
C1836 C 0.76727 0.7109 0.12673 0.0
C1837 C 0.73023 0.70035 0.09342 0.0
C1838 C 0.74504 0.69471 0.09161 0.0
C1839 C 0.75681 0.69842 0.10258 0.0
C1840 C 0.74871 0.68524 0.07829 0.0
C1841 C 0.71684 0.69609 0.08257 0.0
C1842 C 0.75492 0.67099 0.0803 0.0
C1843 C 0.75931 0.66251 0.06781 0.0
C1844 C 0.75763 0.66815 0.05305 0.0
C1845 C 0.75117 0.68231 0.05106 0.0
C1846 C 0.74683 0.69078 0.06353 0.0
H1847 H 0.70563 0.69736 0.08795 0.0
H1848 H 0.71716 0.70369 0.07269 0.0
H1849 H 0.71739 0.68426 0.0784 0.0
H1850 H 0.75655 0.66649 0.09156 0.0
H1851 H 0.76432 0.6517 0.06976 0.0
H1852 H 0.008 0.02635 0.11839 0.0
H1853 H 0.99193 0.02112 0.14003 0.0
H1854 H 0.95487 0.04462 0.11834 0.0
H1855 H 0.97061 0.04946 0.09652 0.0
H1856 H 0.97947 0.04183 0.15901 0.0
H1857 H 0.93271 0.00573 0.13095 0.0
H1858 H 0.95082 0.00991 0.12226 0.0
H1859 H 0.93602 0.02348 0.12178 0.0
C1860 C 0.99633 0.03018 0.1181 0.0
C1861 C 0.99063 0.03834 0.10567 0.0
C1862 C 0.98719 0.02725 0.13053 0.0
C1863 C 0.97209 0.03228 0.13076 0.0
C1864 C 0.96635 0.04035 0.11834 0.0
H1865 H 0.90139 0.03674 0.19722 0.0
H1866 H 0.91646 0.03774 0.17437 0.0
C1867 C 0.97547 0.04329 0.10593 0.0
C1868 C 0.96265 0.02983 0.14429 0.0
H1869 H 0.92809 0.01497 0.15575 0.0
C1870 C 0.96831 0.03583 0.15832 0.0
C1871 C 0.94802 0.02207 0.14339 0.0
C1872 C 0.94157 0.0148 0.12882 0.0
C1873 C 0.95962 0.03461 0.17137 0.0
C1874 C 0.94496 0.02694 0.17046 0.0
C1875 C 0.93932 0.02086 0.15645 0.0
C1876 C 0.93529 0.02528 0.18392 0.0
C1877 C 0.96605 0.04196 0.18593 0.0
C1878 C 0.94061 0.01755 0.19674 0.0
C1879 C 0.93204 0.01696 0.2098 0.0
C1880 C 0.91787 0.02401 0.21032 0.0
C1881 C 0.91225 0.0312 0.19724 0.0
C1882 C 0.92085 0.03179 0.18416 0.0
H1883 H 0.97544 0.05052 0.18387 0.0
H1884 H 0.95689 0.04751 0.19206 0.0
H1885 H 0.97087 0.03318 0.19336 0.0
H1886 H 0.95156 0.01217 0.19673 0.0
H1887 H 0.93675 0.01132 0.21963 0.0
H1888 H 0.27385 0.76093 0.13673 0.0
H1889 H 0.27191 0.77919 0.11636 0.0
H1890 H 0.30331 0.81016 0.14148 0.0
H1891 H 0.30522 0.79195 0.16208 0.0
H1892 H 0.26148 0.80845 0.11822 0.0
H1893 H 0.32167 0.80871 0.09927 0.0
H1894 H 0.31373 0.79413 0.11116 0.0
H1895 H 0.31964 0.81231 0.11914 0.0
C1896 C 0.28032 0.77165 0.138 0.0
C1897 C 0.28964 0.77497 0.15112 0.0
C1898 C 0.27925 0.78205 0.12628 0.0
C1899 C 0.28756 0.796 0.12731 0.0
C1900 C 0.297 0.79936 0.14031 0.0
H1901 H 0.2639 0.87061 0.06731 0.0
H1902 H 0.2707 0.85602 0.0898 0.0
C1903 C 0.29808 0.78893 0.15208 0.0
C1904 C 0.28578 0.80714 0.11496 0.0
H1905 H 0.30508 0.82578 0.08732 0.0
C1906 C 0.27103 0.81231 0.11151 0.0
C1907 C 0.29822 0.81206 0.10614 0.0
C1908 C 0.31421 0.80646 0.10898 0.0
C1909 C 0.26834 0.82213 0.09942 0.0
C1910 C 0.28079 0.82715 0.09065 0.0
C1911 C 0.29558 0.82206 0.09415 0.0
C1912 C 0.27842 0.83687 0.07722 0.0
C1913 C 0.25206 0.82664 0.09582 0.0
C1914 C 0.28117 0.83127 0.06269 0.0
C1915 C 0.27739 0.83962 0.04983 0.0
C1916 C 0.27085 0.85379 0.05122 0.0
C1917 C 0.26886 0.85972 0.06582 0.0
C1918 C 0.27265 0.85135 0.07869 0.0
H1919 H 0.24343 0.81924 0.10146 0.0
H1920 H 0.25077 0.83841 0.09983 0.0
H1921 H 0.24943 0.82618 0.08342 0.0
H1922 H 0.28566 0.82015 0.06127 0.0
H1923 H 0.27906 0.83467 0.03879 0.0
H1924 H 0.02536 0.46104 0.13432 0.0
H1925 H 0.04211 0.46615 0.15688 0.0
H1926 H 0.06118 0.50627 0.13625 0.0
H1927 H 0.04452 0.50122 0.11361 0.0
H1928 H 0.07352 0.46748 0.15856 0.0
H1929 H 0.05203 0.52197 0.17825 0.0
H1930 H 0.04142 0.5099 0.16449 0.0
H1931 H 0.05714 0.52214 0.15878 0.0
C1932 C 0.03308 0.47099 0.13457 0.0
C1933 C 0.03357 0.4807 0.12208 0.0
C1934 C 0.04261 0.47393 0.14753 0.0
C1935 C 0.0528 0.4867 0.14839 0.0
C1936 C 0.05317 0.49654 0.13604 0.0
H1937 H 0.13776 0.50047 0.20075 0.0
H1938 H 0.11697 0.49577 0.18174 0.0
C1939 C 0.04363 0.49362 0.12307 0.0
C1940 C 0.06373 0.48915 0.16173 0.0
H1941 H 0.07628 0.51492 0.18918 0.0
C1942 C 0.07401 0.47781 0.16532 0.0
C1943 C 0.06429 0.50253 0.17072 0.0
C1944 C 0.05303 0.51477 0.16799 0.0
C1945 C 0.08513 0.47969 0.17728 0.0
C1946 C 0.08618 0.49336 0.18579 0.0
C1947 C 0.07556 0.5045 0.18257 0.0
C1948 C 0.09869 0.49652 0.19757 0.0
C1949 C 0.09569 0.46699 0.18069 0.0
C1950 C 0.09536 0.49889 0.21282 0.0
C1951 C 0.1073 0.50162 0.22384 0.0
C1952 C 0.12282 0.50219 0.21977 0.0
C1953 C 0.12601 0.50005 0.2044 0.0
C1954 C 0.11412 0.49728 0.19347 0.0
H1955 H 0.09076 0.45598 0.17614 0.0
H1956 H 0.10684 0.46935 0.1753 0.0
H1957 H 0.09803 0.46598 0.19307 0.0
H1958 H 0.08352 0.49844 0.21623 0.0
H1959 H 0.10438 0.50327 0.23552 0.0
H1960 H 0.37041 0.7337 0.29556 0.0
H1961 H 0.39197 0.73616 0.31423 0.0
H1962 H 0.42295 0.74721 0.27875 0.0
H1963 H 0.4014 0.74531 0.26006 0.0
H1964 H 0.41892 0.72032 0.31608 0.0
H1965 H 0.43247 0.78168 0.30925 0.0
H1966 H 0.41472 0.77252 0.30185 0.0
H1967 H 0.43226 0.77066 0.29204 0.0
C1968 C 0.38176 0.73684 0.29172 0.0
C1969 C 0.3841 0.73939 0.27627 0.0
C1970 C 0.39411 0.73814 0.30241 0.0
C1971 C 0.40906 0.74209 0.29794 0.0
C1972 C 0.41149 0.74443 0.28252 0.0
H1973 H 0.49618 0.75646 0.35137 0.0
H1974 H 0.47677 0.75345 0.33046 0.0
C1975 C 0.39915 0.74314 0.27181 0.0
C1976 C 0.42209 0.7435 0.30942 0.0
H1977 H 0.44938 0.76848 0.32544 0.0
C1978 C 0.42557 0.73085 0.31813 0.0
C1979 C 0.43086 0.75722 0.31203 0.0
C1980 C 0.42735 0.77135 0.30341 0.0
C1981 C 0.43754 0.73153 0.32934 0.0
C1982 C 0.44611 0.74533 0.33215 0.0
C1983 C 0.44283 0.75791 0.32327 0.0
C1984 C 0.45799 0.7471 0.34476 0.0
C1985 C 0.441 0.7174 0.33797 0.0
C1986 C 0.45386 0.74478 0.35976 0.0
C1987 C 0.46488 0.74647 0.3717 0.0
C1988 C 0.48034 0.75065 0.36897 0.0
C1989 C 0.48443 0.75318 0.35392 0.0
C1990 C 0.47334 0.75147 0.34194 0.0
H1991 H 0.43679 0.70705 0.33156 0.0
H1992 H 0.45356 0.7167 0.34052 0.0
H1993 H 0.43507 0.71757 0.34885 0.0
H1994 H 0.44204 0.74177 0.36227 0.0
H1995 H 0.46121 0.74453 0.3831 0.0
H1996 H 1.00558 0.42062 0.9723 0.0
H1997 H 0.01026 0.39888 0.95592 0.0
H1998 H 0.97696 0.37172 0.97967 0.0
H1999 H 0.97203 0.3934 0.99591 0.0
H2000 H 0.02002 0.36925 0.96427 0.0
H2001 H 0.96254 0.36698 0.93447 0.0
H2002 H 0.97008 0.38341 0.94512 0.0
H2003 H 0.96194 0.36738 0.95477 0.0
C2004 C 0.99919 0.41004 0.97399 0.0
C2005 C 0.98838 0.40879 0.98541 0.0
C2006 C 1.00194 0.39761 0.96466 0.0
C2007 C 0.9938 0.38374 0.96642 0.0
C2008 C 0.98321 0.38238 0.97795 0.0
H2009 H 0.98722 0.29356 0.93172 0.0
H2010 H 0.9845 0.31831 0.94325 0.0
C2011 C 0.98052 0.39475 0.98734 0.0
C2012 C 0.99641 0.37061 0.95633 0.0
H2013 H 0.9779 0.34571 0.93113 0.0
C2014 C 0.01089 0.36418 0.95687 0.0
C2015 C 0.9845 0.36407 0.94664 0.0
C2016 C 0.96892 0.37087 0.94506 0.0
C2017 C 0.01355 0.35095 0.94856 0.0
C2018 C 1.00148 0.34414 0.9392 0.0
C2019 C 0.98716 0.35089 0.93829 0.0
C2020 C 1.00299 0.32934 0.93131 0.0
C2021 C 0.02902 0.34398 0.95044 0.0
C2022 C 0.01409 0.32729 0.92041 0.0
C2023 C 0.01574 0.31301 0.91373 0.0
C2024 C 0.00626 0.30052 0.9178 0.0
C2025 C 0.99482 0.30282 0.92833 0.0
C2026 C 0.99321 0.31702 0.93496 0.0
H2027 H 0.03587 0.34879 0.96039 0.0
H2028 H 0.0276 0.33155 0.95177 0.0
H2029 H 0.03568 0.34616 0.94018 0.0
H2030 H 0.02157 0.3367 0.91716 0.0
H2031 H 0.02463 0.31169 0.90565 0.0
H2032 H 0.66654 0.78539 0.28564 0.0
H2033 H 0.64583 0.77938 0.30282 0.0
H2034 H 0.61925 0.81478 0.28338 0.0
H2035 H 0.63979 0.82067 0.26593 0.0
H2036 H 0.63427 0.79977 0.3243 0.0
H2037 H 0.58813 0.77805 0.2832 0.0
H2038 H 0.60818 0.7795 0.27857 0.0
H2039 H 0.5971 0.79611 0.27898 0.0
C2040 C 0.65618 0.79173 0.28481 0.0
C2041 C 0.65485 0.8035 0.27435 0.0
C2042 C 0.64439 0.78834 0.29472 0.0
C2043 C 0.63091 0.79653 0.2943 0.0
C2044 C 0.62944 0.80816 0.28377 0.0
H2045 H 0.55005 0.78838 0.35144 0.0
H2046 H 0.56807 0.7967 0.33212 0.0
C2047 C 0.64127 0.81161 0.2739 0.0
C2048 C 0.61883 0.79335 0.30543 0.0
H2049 H 0.58148 0.78034 0.30878 0.0
C2050 C 0.62273 0.79554 0.3209 0.0
C2051 C 0.6037 0.788 0.30098 0.0
C2052 C 0.59898 0.78515 0.28455 0.0
C2053 C 0.61199 0.79243 0.33203 0.0
C2054 C 0.597 0.78662 0.32764 0.0
C2055 C 0.59296 0.78478 0.31215 0.0
C2056 C 0.58579 0.78152 0.33903 0.0
C2057 C 0.61681 0.79549 0.34843 0.0
C2058 C 0.58961 0.77003 0.3491 0.0
C2059 C 0.57943 0.76533 0.3601 0.0
C2060 C 0.56506 0.77188 0.36126 0.0
C2061 C 0.56104 0.78315 0.35092 0.0
C2062 C 0.57132 0.7879 0.33987 0.0
H2063 H 0.62651 0.80409 0.34956 0.0
H2064 H 0.60706 0.79947 0.35492 0.0
H2065 H 0.62075 0.7849 0.35358 0.0
H2066 H 0.60052 0.76466 0.34846 0.0
H2067 H 0.58289 0.7565 0.36773 0.0
H2068 H 0.05936 0.10706 0.96251 0.0
H2069 H 0.05392 0.12945 0.94769 0.0
H2070 H 0.02 0.14177 0.97928 0.0
H2071 H 0.02508 0.1192 0.99405 0.0
H2072 H 0.02483 0.13841 0.93408 0.0
H2073 H 0.04966 0.17981 0.97724 0.0
H2074 H 0.05372 0.16 0.97767 0.0
H2075 H 0.03558 0.1662 0.98381 0.0
C2076 C 0.05059 0.11439 0.96625 0.0
C2077 C 0.04268 0.11126 0.97954 0.0
C2078 C 0.04756 0.12725 0.95778 0.0
C2079 C 0.03668 0.13736 0.96246 0.0
C2080 C 0.02863 0.13424 0.9756 0.0
H2081 H 0.01132 0.22543 0.92922 0.0
H2082 H 0.01244 0.20157 0.9427 0.0
C2083 C 0.0316 0.12134 0.98406 0.0
C2084 C 0.03384 0.1512 0.95359 0.0
H2085 H 0.03778 0.18973 0.95529 0.0
C2086 C 0.02764 0.14964 0.9387 0.0
C2087 C 0.03748 0.16583 0.95966 0.0
C2088 C 0.04459 0.16816 0.97543 0.0
C2089 C 0.02485 0.16234 0.92975 0.0
C2090 C 0.0287 0.177 0.93574 0.0
C2091 C 0.03479 0.17852 0.95069 0.0
C2092 C 0.02685 0.19093 0.92668 0.0
C2093 C 0.01753 0.15993 0.91408 0.0
C2094 C 0.03445 0.19292 0.91306 0.0
C2095 C 0.0337 0.20653 0.90522 0.0
C2096 C 0.02548 0.21854 0.91093 0.0
C2097 C 0.01765 0.21642 0.92441 0.0
C2098 C 0.01834 0.20278 0.93219 0.0
H2099 H 0.01104 0.14885 0.91301 0.0
H2100 H 0.00956 0.16901 0.91118 0.0
H2101 H 0.02669 0.16004 0.90569 0.0
H2102 H 0.0414 0.18412 0.90873 0.0
H2103 H 0.04 0.20782 0.89496 0.0
H2104 H 0.36074 0.28626 0.2231 0.0
H2105 H 0.38062 0.28521 0.2043 0.0
H2106 H 0.41542 0.2816 0.24007 0.0
H2107 H 0.39569 0.28275 0.25893 0.0
H2108 H 0.4073 0.30376 0.20028 0.0
H2109 H 0.42235 0.24485 0.21304 0.0
H2110 H 0.40513 0.25297 0.21963 0.0
H2111 H 0.42346 0.2575 0.22912 0.0
C2112 C 0.37263 0.2854 0.227 0.0
C2113 C 0.37655 0.28445 0.24257 0.0
C2114 C 0.38399 0.28473 0.21622 0.0
C2115 C 0.39949 0.28304 0.22074 0.0
C2116 C 0.4035 0.28253 0.23627 0.0
H2117 H 0.48163 0.26977 0.16822 0.0
H2118 H 0.46436 0.27467 0.18887 0.0
C2119 C 0.39217 0.28318 0.24705 0.0
C2120 C 0.41143 0.28175 0.20922 0.0
H2121 H 0.43768 0.25796 0.19556 0.0
C2122 C 0.41394 0.29375 0.19925 0.0
C2123 C 0.42016 0.26871 0.20791 0.0
C2124 C 0.4176 0.2552 0.21789 0.0
C2125 C 0.42497 0.29309 0.18806 0.0
C2126 C 0.43353 0.27995 0.18659 0.0
C2127 C 0.43118 0.26805 0.19671 0.0
C2128 C 0.44433 0.27795 0.17412 0.0
C2129 C 0.42745 0.30655 0.178 0.0
C2130 C 0.43885 0.27814 0.15897 0.0
C2131 C 0.44866 0.27536 0.14719 0.0
C2132 C 0.46421 0.27222 0.15025 0.0
C2133 C 0.46976 0.27222 0.16544 0.0
C2134 C 0.45989 0.27498 0.17726 0.0
H2135 H 0.4237 0.31709 0.1834 0.0
H2136 H 0.43975 0.30816 0.17523 0.0
H2137 H 0.42052 0.30469 0.16726 0.0
H2138 H 0.42685 0.28006 0.15623 0.0
H2139 H 0.44393 0.27539 0.13566 0.0
H2140 H 0.52273 0.4167 0.04021 0.0
H2141 H 0.5167 0.39489 0.05612 0.0
H2142 H 0.55587 0.37255 0.03963 0.0
H2143 H 0.5619 0.39413 0.02366 0.0
H2144 H 0.5104 0.36419 0.04865 0.0
H2145 H 0.56327 0.37137 0.08563 0.0
H2146 H 0.55679 0.386 0.07316 0.0
H2147 H 0.56719 0.37057 0.06586 0.0
C2148 C 0.52999 0.40708 0.03986 0.0
C2149 C 0.54292 0.40728 0.03075 0.0
C2150 C 0.52656 0.39466 0.04903 0.0
C2151 C 0.53603 0.38222 0.04935 0.0
C2152 C 0.54864 0.38218 0.03992 0.0
H2153 H 0.54231 0.29373 0.084 0.0
H2154 H 0.54529 0.31879 0.07321 0.0
C2155 C 0.55207 0.39456 0.03077 0.0
C2156 C 0.53276 0.36915 0.05936 0.0
H2157 H 0.54929 0.34757 0.08683 0.0
C2158 C 0.51879 0.36066 0.05716 0.0
C2159 C 0.54367 0.3646 0.07054 0.0
C2160 C 0.55851 0.37369 0.07407 0.0
C2161 C 0.51581 0.34731 0.06525 0.0
C2162 C 0.527 0.34245 0.076 0.0
C2163 C 0.54072 0.35126 0.07859 0.0
C2164 C 0.52539 0.32758 0.08361 0.0
C2165 C 0.50104 0.33812 0.0617 0.0
C2166 C 0.51342 0.32424 0.09345 0.0
C2167 C 0.51168 0.3098 0.09974 0.0
C2168 C 0.52186 0.29845 0.09627 0.0
C2169 C 0.53415 0.3021 0.08687 0.0
C2170 C 0.53591 0.31647 0.08068 0.0
H2171 H 0.49492 0.34198 0.05126 0.0
H2172 H 0.50339 0.32598 0.06027 0.0
H2173 H 0.49326 0.33918 0.07126 0.0
H2174 H 0.50532 0.33272 0.0961 0.0
H2175 H 0.5021 0.3074 0.10693 0.0
H2176 H 0.62934 0.21822 0.24445 0.0
H2177 H 0.60736 0.22337 0.22725 0.0
H2178 H 0.63857 0.23621 0.19251 0.0
H2179 H 0.66055 0.23096 0.20951 0.0
H2180 H 0.60107 0.25187 0.21057 0.0
H2181 H 0.60845 0.20202 0.1732 0.0
H2182 H 0.61667 0.20349 0.1923 0.0
H2183 H 0.62555 0.21377 0.17734 0.0
C2184 C 0.63152 0.2221 0.23313 0.0
C2185 C 0.64673 0.22413 0.22836 0.0
C2186 C 0.61895 0.22512 0.22335 0.0
C2187 C 0.62133 0.23005 0.20856 0.0
C2188 C 0.63647 0.2323 0.20384 0.0
H2189 H 0.56756 0.24772 0.12744 0.0
H2190 H 0.5872 0.24372 0.14724 0.0
C2191 C 0.64903 0.2294 0.21362 0.0
C2192 C 0.60804 0.23261 0.19791 0.0
H2193 H 0.59044 0.2196 0.16473 0.0
C2194 C 0.59864 0.24478 0.20059 0.0
C2195 C 0.6049 0.22333 0.18493 0.0
C2196 C 0.61432 0.20983 0.18176 0.0
C2197 C 0.58652 0.24823 0.1903 0.0
C2198 C 0.5835 0.23904 0.17717 0.0
C2199 C 0.59274 0.22669 0.17473 0.0
C2200 C 0.5713 0.24231 0.16543 0.0
C2201 C 0.57748 0.26202 0.19331 0.0
C2202 C 0.55571 0.24293 0.16899 0.0
C2203 C 0.54436 0.24537 0.15761 0.0
C2204 C 0.54835 0.24701 0.14242 0.0
C2205 C 0.56399 0.24645 0.13897 0.0
C2206 C 0.57529 0.24415 0.15031 0.0
H2207 H 0.58375 0.26996 0.2015 0.0
H2208 H 0.57494 0.26814 0.18268 0.0
H2209 H 0.56637 0.25846 0.19823 0.0
H2210 H 0.55226 0.24121 0.18049 0.0
H2211 H 0.53244 0.24562 0.16068 0.0
H2212 H 0.49784 0.11746 0.01091 0.0
H2213 H 0.50326 0.14021 0.02661 0.0
H2214 H 0.47312 0.12241 0.06024 0.0
H2215 H 0.4674 0.0998 0.04457 0.0
H2216 H 0.48195 0.1609 0.03688 0.0
H2217 H 0.5129 0.1345 0.08517 0.0
H2218 H 0.50973 0.12519 0.06694 0.0
H2219 H 0.49444 0.12557 0.08001 0.0
C2220 C 0.4923 0.11839 0.02161 0.0
C2221 C 0.48222 0.10669 0.02647 0.0
C2222 C 0.49549 0.13138 0.03062 0.0
C2223 C 0.48881 0.13292 0.04472 0.0
C2224 C 0.47871 0.12132 0.04958 0.0
H2225 H 0.48647 0.20265 0.11431 0.0
H2226 H 0.48445 0.1792 0.09923 0.0
C2227 C 0.47547 0.10837 0.04058 0.0
C2228 C 0.49185 0.1469 0.05409 0.0
H2229 H 0.50595 0.15992 0.08875 0.0
C2230 C 0.48732 0.16072 0.04817 0.0
C2231 C 0.49877 0.14663 0.06886 0.0
C2232 C 0.50438 0.13221 0.07561 0.0
C2233 C 0.48915 0.17421 0.05675 0.0
C2234 C 0.49605 0.17395 0.07155 0.0
C2235 C 0.50069 0.16013 0.07742 0.0
C2236 C 0.49826 0.18787 0.08118 0.0
C2237 C 0.4832 0.18852 0.05004 0.0
C2238 C 0.5071 0.20042 0.07631 0.0
C2239 C 0.50822 0.21385 0.08487 0.0
C2240 C 0.50068 0.21499 0.0986 0.0
C2241 C 0.49241 0.20218 0.10379 0.0
C2242 C 0.49124 0.18876 0.09518 0.0
H2243 H 0.47467 0.18608 0.04051 0.0
H2244 H 0.47771 0.1954 0.05872 0.0
H2245 H 0.49297 0.19536 0.04557 0.0
H2246 H 0.51294 0.1999 0.06573 0.0
H2247 H 0.5147 0.22345 0.08052 0.0
H2248 H 0.26716 0.39243 0.72871 0.0
H2249 H 0.28395 0.41517 0.73341 0.0
H2250 H 0.32258 0.39152 0.71753 0.0
H2251 H 0.30601 0.36883 0.71291 0.0
H2252 H 0.311 0.42011 0.75176 0.0
H2253 H 0.32287 0.42924 0.69139 0.0
H2254 H 0.30746 0.4166 0.6973 0.0
H2255 H 0.32695 0.41055 0.69752 0.0
C2256 C 0.27926 0.39203 0.72632 0.0
C2257 C 0.28516 0.37881 0.72024 0.0
C2258 C 0.28883 0.40507 0.72896 0.0
C2259 C 0.30446 0.40517 0.72551 0.0
C2260 C 0.31047 0.39186 0.71989 0.0
H2261 H 0.38714 0.46068 0.73255 0.0
H2262 H 0.36637 0.44146 0.72888 0.0
C2263 C 0.30095 0.37888 0.71724 0.0
C2264 C 0.31464 0.41906 0.72783 0.0
H2265 H 0.33948 0.44286 0.70953 0.0
C2266 C 0.31707 0.42523 0.7425 0.0
C2267 C 0.3225 0.42581 0.71573 0.0
C2268 C 0.31971 0.42032 0.69957 0.0
C2269 C 0.32773 0.43746 0.74551 0.0
C2270 C 0.33602 0.4438 0.73349 0.0
C2271 C 0.33318 0.43795 0.71875 0.0
C2272 C 0.34846 0.45578 0.73605 0.0
C2273 C 0.33054 0.4431 0.7616 0.0
C2274 C 0.34531 0.47035 0.74122 0.0
C2275 C 0.35724 0.4815 0.74332 0.0
C2276 C 0.37255 0.47827 0.74029 0.0
C2277 C 0.37555 0.46365 0.73506 0.0
C2278 C 0.36366 0.45259 0.73292 0.0
H2279 H 0.32521 0.43535 0.76989 0.0
H2280 H 0.34309 0.44447 0.76443 0.0
H2281 H 0.32553 0.45433 0.76285 0.0
H2282 H 0.33362 0.47313 0.74349 0.0
H2283 H 0.35447 0.49262 0.74732 0.0
H2284 H 0.26525 0.63381 0.80143 0.0
H2285 H 0.28328 0.6139 0.79689 0.0
H2286 H 0.30654 0.64233 0.76496 0.0
H2287 H 0.28881 0.66238 0.76965 0.0
H2288 H 0.29043 0.59872 0.76938 0.0
H2289 H 0.34132 0.63082 0.79526 0.0
H2290 H 0.3218 0.63606 0.79813 0.0
H2291 H 0.33098 0.64089 0.78087 0.0
C2292 C 0.27424 0.63587 0.79349 0.0
C2293 C 0.2756 0.64978 0.78598 0.0
C2294 C 0.28449 0.62443 0.79084 0.0
C2295 C 0.29641 0.62669 0.78076 0.0
C2296 C 0.29758 0.6404 0.77297 0.0
H2297 H 0.3724 0.58032 0.74672 0.0
H2298 H 0.35247 0.59731 0.75347 0.0
C2299 C 0.28731 0.65181 0.77555 0.0
C2300 C 0.30776 0.61483 0.77845 0.0
H2301 H 0.34623 0.60846 0.78149 0.0
C2302 C 0.30262 0.60077 0.77214 0.0
C2303 C 0.32365 0.61749 0.78214 0.0
C2304 C 0.3298 0.63207 0.78961 0.0
C2305 C 0.31302 0.58955 0.76884 0.0
C2306 C 0.32898 0.59236 0.7722 0.0
C2307 C 0.33403 0.60629 0.77887 0.0
C2308 C 0.34079 0.58149 0.76804 0.0
C2309 C 0.30693 0.57503 0.76123 0.0
C2310 C 0.34099 0.56685 0.77403 0.0
C2311 C 0.35246 0.55697 0.77013 0.0
C2312 C 0.364 0.56161 0.76025 0.0
C2313 C 0.36374 0.5763 0.75436 0.0
C2314 C 0.35232 0.58609 0.75822 0.0
H2315 H 0.29501 0.57597 0.75641 0.0
H2316 H 0.31445 0.57171 0.75201 0.0
H2317 H 0.30676 0.56586 0.76968 0.0
H2318 H 0.33239 0.56311 0.78186 0.0
H2319 H 0.35235 0.54577 0.77492 0.0
H2320 H 0.9134 0.45761 0.48044 0.0
H2321 H 0.89056 0.44261 0.4874 0.0
H2322 H 0.86318 0.48181 0.48285 0.0
H2323 H 0.88595 0.49685 0.47546 0.0
H2324 H 0.87105 0.44675 0.51154 0.0
H2325 H 0.83901 0.44998 0.45596 0.0
H2326 H 0.85932 0.45505 0.45833 0.0
H2327 H 0.84532 0.46776 0.46466 0.0
C2328 C 0.90251 0.46304 0.48077 0.0
C2329 C 0.90152 0.47843 0.47723 0.0
C2330 C 0.88946 0.45446 0.48486 0.0
C2331 C 0.87509 0.46101 0.48544 0.0
C2332 C 0.87408 0.47644 0.48223 0.0
H2333 H 0.78556 0.41448 0.50275 0.0
H2334 H 0.80544 0.43444 0.49856 0.0
C2335 C 0.88716 0.48506 0.47816 0.0
C2336 C 0.86128 0.45157 0.48945 0.0
H2337 H 0.82675 0.43637 0.47515 0.0
C2338 C 0.86133 0.44456 0.50362 0.0
C2339 C 0.84852 0.44878 0.47915 0.0
C2340 C 0.84799 0.45567 0.46362 0.0
C2341 C 0.84913 0.43466 0.50766 0.0
C2342 C 0.83664 0.43143 0.49716 0.0
C2343 C 0.83632 0.43884 0.48319 0.0
C2344 C 0.82448 0.41955 0.5 0.0
C2345 C 0.84976 0.4277 0.52316 0.0
C2346 C 0.82854 0.40454 0.50201 0.0
C2347 C 0.81728 0.39316 0.50436 0.0
C2348 C 0.80159 0.39645 0.50471 0.0
C2349 C 0.79751 0.41152 0.50263 0.0
C2350 C 0.80885 0.42294 0.50021 0.0
H2351 H 0.85723 0.43466 0.5313 0.0
H2352 H 0.83807 0.4263 0.52772 0.0
H2353 H 0.85466 0.41638 0.52234 0.0
H2354 H 0.84047 0.40156 0.50157 0.0
H2355 H 0.82093 0.38172 0.50585 0.0
H2356 H 0.75096 0.8703 0.75682 0.0
H2357 H 0.73151 0.88933 0.75582 0.0
H2358 H 0.72313 0.8824 0.80303 0.0
H2359 H 0.74304 0.86364 0.80429 0.0
H2360 H 0.70034 0.88719 0.76157 0.0
H2361 H 0.73159 0.92807 0.80151 0.0
H2362 H 0.74076 0.91218 0.79337 0.0
H2363 H 0.72797 0.90939 0.80864 0.0
C2364 C 0.74513 0.87291 0.76707 0.0
C2365 C 0.74877 0.86554 0.7807 0.0
C2366 C 0.73389 0.88372 0.76643 0.0
C2367 C 0.72599 0.88749 0.77939 0.0
C2368 C 0.72926 0.8799 0.79294 0.0
H2369 H 0.66367 0.96331 0.78629 0.0
H2370 H 0.67582 0.93941 0.7922 0.0
C2371 C 0.74055 0.86905 0.7936 0.0
C2372 C 0.71449 0.89947 0.77855 0.0
H2373 H 0.70781 0.93524 0.79093 0.0
C2374 C 0.70191 0.89764 0.7681 0.0
C2375 C 0.71645 0.91309 0.78713 0.0
C2376 C 0.72996 0.91593 0.79822 0.0
C2377 C 0.6915 0.90916 0.7657 0.0
C2378 C 0.69383 0.92301 0.77381 0.0
C2379 C 0.706 0.92461 0.78474 0.0
C2380 C 0.68488 0.93649 0.76996 0.0
C2381 C 0.67819 0.90647 0.75435 0.0
C2382 C 0.68579 0.94271 0.75548 0.0
C2383 C 0.67895 0.9563 0.75212 0.0
C2384 C 0.67101 0.96407 0.76315 0.0
C2385 C 0.66956 0.95755 0.77749 0.0
C2386 C 0.67658 0.94394 0.78091 0.0
H2387 H 0.6751 0.89422 0.75286 0.0
H2388 H 0.66787 0.91236 0.75784 0.0
H2389 H 0.68154 0.9109 0.7432 0.0
H2390 H 0.69235 0.93735 0.74692 0.0
H2391 H 0.68031 0.96098 0.74095 0.0
H2392 H 0.61345 0.55788 0.9828 0.0
H2393 H 0.63635 0.57424 0.98855 0.0
H2394 H 0.66412 0.53521 0.99182 0.0
H2395 H 0.64118 0.51867 0.98618 0.0
H2396 H 0.65623 0.57476 0.01425 0.0
H2397 H 0.68772 0.56214 0.96238 0.0
H2398 H 0.66749 0.55717 0.96399 0.0
H2399 H 0.68177 0.54604 0.97322 0.0
C2400 C 0.62438 0.55271 0.98487 0.0
C2401 C 0.62541 0.53691 0.98404 0.0
C2402 C 0.63751 0.56212 0.98807 0.0
C2403 C 0.65201 0.55599 0.99043 0.0
C2404 C 0.65312 0.54023 0.98972 0.0
H2405 H 0.74166 0.60523 0.00893 0.0
H2406 H 0.72173 0.58483 1.00506 0.0
C2407 C 0.63997 0.53078 0.98651 0.0
C2408 C 0.66582 0.56621 0.99394 0.0
H2409 H 0.70027 0.57892 0.98033 0.0
C2410 C 0.66588 0.57561 0.00685 0.0
C2411 C 0.67849 0.56725 0.98437 0.0
C2412 C 0.67891 0.55772 0.97014 0.0
C2413 C 0.67812 0.58615 0.01035 0.0
C2414 C 0.69054 0.58757 1.00051 0.0
C2415 C 0.69074 0.57784 0.98785 0.0
C2416 C 0.70281 0.59979 1.00265 0.0
C2417 C 0.67762 0.59569 0.02457 0.0
C2418 C 0.69886 0.61496 1.00227 0.0
C2419 C 0.71016 0.62659 1.00446 0.0
C2420 C 0.72577 0.62339 0.007 0.0
C2421 C 0.72978 0.60815 0.00707 0.0
C2422 C 0.7184 0.59646 1.00485 0.0
H2423 H 0.67015 0.59021 0.03302 0.0
H2424 H 0.68934 0.59785 0.02985 0.0
H2425 H 0.67279 0.60672 0.02168 0.0
H2426 H 0.68698 0.61784 1.00023 0.0
H2427 H 0.70657 0.63814 1.00418 0.0
H2428 H 0.23508 0.66279 0.25231 0.0
H2429 H 0.21659 0.64121 0.25404 0.0
H2430 H 0.24375 0.6151 0.22453 0.0
H2431 H 0.2624 0.63651 0.2229 0.0
H2432 H 0.1993 0.62365 0.22969 0.0
H2433 H 0.23985 0.58976 0.26398 0.0
H2434 H 0.24263 0.60995 0.2619 0.0
H2435 H 0.24716 0.59738 0.24679 0.0
C2436 C 0.23713 0.65245 0.2462 0.0
C2437 C 0.25029 0.65136 0.23753 0.0
C2438 C 0.2265 0.64016 0.24713 0.0
C2439 C 0.22888 0.62651 0.23954 0.0
C2440 C 0.24177 0.62549 0.23059 0.0
H2441 H 0.18587 0.53638 0.24154 0.0
H2442 H 0.20143 0.559 0.23572 0.0
C2443 C 0.25236 0.63779 0.22958 0.0
C2444 C 0.21815 0.61317 0.24135 0.0
H2445 H 0.21606 0.57774 0.25612 0.0
C2446 C 0.20292 0.6136 0.23548 0.0
C2447 C 0.22291 0.6001 0.24891 0.0
C2448 C 0.23898 0.59922 0.25588 0.0
C2449 C 0.19241 0.60115 0.2367 0.0
C2450 C 0.19717 0.58806 0.24431 0.0
C2451 C 0.2124 0.58771 0.25022 0.0
C2452 C 0.18663 0.57457 0.24643 0.0
C2453 C 0.17644 0.60201 0.2295 0.0
C2454 C 0.17294 0.57573 0.25422 0.0
C2455 C 0.16388 0.56276 0.25742 0.0
C2456 C 0.16842 0.54834 0.25308 0.0
C2457 C 0.18193 0.54727 0.24497 0.0
C2458 C 0.19091 0.56022 0.24169 0.0
H2459 H 0.17609 0.61062 0.22047 0.0
H2460 H 0.17227 0.59092 0.22453 0.0
H2461 H 0.16839 0.60528 0.23826 0.0
H2462 H 0.16955 0.58661 0.25832 0.0
H2463 H 0.15363 0.564 0.26382 0.0
H2464 H 0.91613 0.55101 0.0539 0.0
H2465 H 0.89463 0.56694 0.04774 0.0
H2466 H 0.87913 0.53622 0.0115 0.0
H2467 H 0.90083 0.52024 0.01743 0.0
H2468 H 0.88785 0.58112 0.01967 0.0
H2469 H 0.83999 0.54152 0.03591 0.0
H2470 H 0.85978 0.53906 0.04204 0.0
H2471 H 0.85339 0.53434 0.02293 0.0
C2472 C 0.90827 0.54766 0.04451 0.0
C2473 C 0.91033 0.53433 0.03613 0.0
C2474 C 0.8959 0.55676 0.04107 0.0
C2475 C 0.88517 0.55273 0.02925 0.0
C2476 C 0.8871 0.53943 0.02085 0.0
H2477 H 0.80239 0.60281 1.00288 0.0
H2478 H 0.82234 0.58392 1.00295 0.0
C2479 C 0.89953 0.5303 0.02427 0.0
C2480 C 0.87228 0.56278 0.02562 0.0
H2481 H 0.83318 0.56532 0.02683 0.0
C2482 C 0.87589 0.57762 0.02113 0.0
C2483 C 0.85665 0.55818 0.02738 0.0
C2484 C 0.85212 0.54245 0.03242 0.0
C2485 C 0.86438 0.58807 0.01868 0.0
C2486 C 0.84881 0.58369 0.0211 0.0
C2487 C 0.8451 0.56868 0.02501 0.0
C2488 C 0.83653 0.59491 0.02091 0.0
C2489 C 0.86903 0.60377 0.01362 0.0
C2490 C 0.83773 0.60717 0.03114 0.0
C2491 C 0.82645 0.6179 0.03112 0.0
C2492 C 0.81356 0.61663 0.02094 0.0
C2493 C 0.8122 0.60418 0.01082 0.0
C2494 C 0.82357 0.59337 0.01086 0.0
H2495 H 0.88009 0.6039 0.00774 0.0
H2496 H 0.86004 0.60837 0.00591 0.0
H2497 H 0.87066 0.61136 0.0237 0.0
H2498 H 0.84741 0.60843 0.03924 0.0
H2499 H 0.82787 0.62723 0.03917 0.0
H2500 H 0.12235 0.99579 0.0101 0.0
H2501 H 0.14392 0.97999 1.00438 0.0
H2502 H 0.13651 0.95478 0.04503 0.0
H2503 H 0.11526 0.97061 0.05101 0.0
H2504 H 0.17172 0.97401 0.02265 0.0
H2505 H 0.13475 0.92227 0.01065 0.0
H2506 H 0.12721 0.94094 0.01093 0.0
H2507 H 0.13126 0.93138 0.02838 0.0
C2508 C 0.12539 0.98698 0.01791 0.0
C2509 C 0.11688 0.9844 0.03094 0.0
C2510 C 0.1377 0.97792 0.01458 0.0
C2511 C 0.14166 0.96604 0.02414 0.0
C2512 C 0.13345 0.96367 0.03731 0.0
H2513 H 0.20374 0.89592 0.03708 0.0
H2514 H 0.18398 0.91448 0.03682 0.0
C2515 C 0.12123 0.97272 0.04068 0.0
C2516 C 0.15431 0.95598 0.02049 0.0
H2517 H 0.16167 0.91889 0.01446 0.0
C2518 C 0.16955 0.96199 0.02064 0.0
C2519 C 0.15144 0.94032 0.01778 0.0
C2520 C 0.13527 0.93333 0.01677 0.0
C2521 C 0.18206 0.95258 0.01901 0.0
C2522 C 0.1792 0.93681 0.01691 0.0
C2523 C 0.1639 0.93096 0.01613 0.0
C2524 C 0.19182 0.92595 0.0169 0.0
C2525 C 0.19824 0.95949 0.02028 0.0
C2526 C 0.20292 0.92615 0.00574 0.0
C2527 C 0.21442 0.91545 0.00587 0.0
C2528 C 0.21491 0.90433 0.0171 0.0
C2529 C 0.20376 0.90426 0.02821 0.0
C2530 C 0.19239 0.91489 0.0281 0.0
H2531 H 0.19857 0.97129 0.02473 0.0
H2532 H 0.20568 0.95269 0.02782 0.0
H2533 H 0.2032 0.95962 0.00891 0.0
H2534 H 0.20258 0.93441 0.99682 0.0
H2535 H 0.22278 0.9158 0.99712 0.0
loop_
_geom_bond_atom_site_label_1
_geom_bond_atom_site_label_2
_geom_bond_distance
_geom_bond_site_symmetry_2
_ccdc_geom_bond_type
C0 C1 1.264 . S
C0 C5 1.479 1_455 S
C0 C10 1.465 . S
C1 C0 1.264 . S
C1 C3 1.339 1_455 S
C1 H28 0.931 . S
C2 C3 1.395 . S
C2 C4 1.320 . S
C3 C1 1.339 1_655 S
C3 C2 1.395 . S
C3 H29 0.929 . S
C4 C2 1.320 . S
C4 C5 1.405 . S
C4 H30 0.930 . S
C5 C0 1.479 1_655 S
C5 C4 1.405 . S
C5 H31 0.931 . S
U6 O7 2.454 . S
U6 O8 2.458 . S
U6 C9 2.984 . S
U6 C10 2.847 . S
U6 C23 2.882 . S
U6 O24 2.441 . S
U6 O25 2.420 . S
U6 O26 2.455 . S
U6 O27 2.449 . S
O7 U6 2.454 . S
O7 C9 1.353 . S
O8 U6 2.458 . S
O8 C9 1.286 . S
C9 U6 2.984 . S
C9 O7 1.353 . S
C9 O8 1.286 . S
C9 C11 1.363 1_554 S
C10 C0 1.465 . S
C10 U6 2.847 . S
C10 O24 1.249 . S
C10 O25 1.202 . S
C11 C9 1.363 1_556 S
C11 C13 1.414 . S
C11 C16 1.342 . S
C12 C13 1.333 . S
C12 C15 1.461 . S
C12 H32 0.932 . S
C13 C11 1.414 . S
C13 C12 1.333 . S
C13 H33 0.902 1_556 S
C14 C15 1.474 . S
C14 C16 1.285 . S
C14 H34 0.929 . S
C15 C12 1.461 . S
C15 C14 1.474 . S
C16 C11 1.342 . S
C16 C14 1.285 . S
C16 H35 0.930 . S
C17 C20 1.424 1_545 S
C17 C22 1.245 . S
C17 C23 1.428 . S
C18 C21 1.260 . S
C18 C22 1.477 1_565 S
C18 H36 0.901 1_554 S
C19 C20 1.384 . S
C19 C21 1.479 . S
C19 H37 0.929 . S
C20 C17 1.424 1_565 S
C20 C19 1.384 . S
C20 H38 0.928 . S
C21 C18 1.260 . S
C21 C19 1.479 . S
C22 C17 1.245 . S
C22 C18 1.477 1_545 S
C22 H39 0.932 . S
C23 U6 2.882 . S
C23 C17 1.428 . S
C23 O26 1.301 . S
C23 O27 1.282 . S
O24 U6 2.441 . S
O24 C10 1.249 . S
O25 U6 2.420 . S
O25 C10 1.202 . S
O26 U6 2.455 . S
O26 C23 1.301 . S
O27 U6 2.449 . S
O27 C23 1.282 . S
H28 C1 0.931 . S
H29 C3 0.929 . S
H30 C4 0.930 . S
H31 C5 0.931 . S
H32 C12 0.932 . S
H33 C13 0.902 1_554 S
H34 C14 0.929 . S
H35 C16 0.930 . S
H36 C18 0.901 1_556 S
H37 C19 0.929 . S
H38 C20 0.928 . S
H39 C22 0.932 . S
C40 C41 1.264 . S
C40 C45 1.479 . S
C40 C50 1.465 . S
C41 C40 1.264 . S
C41 C43 1.339 . S
C41 H68 0.931 . S
C42 C43 1.395 . S
C42 C44 1.320 . S
C43 C41 1.339 . S
C43 C42 1.395 . S
C43 H69 0.929 . S
C44 C42 1.320 . S
C44 C45 1.405 . S
C44 H70 0.930 . S
C45 C40 1.479 . S
C45 C44 1.405 . S
C45 H71 0.931 . S
U46 O47 2.454 . S
U46 O48 2.458 . S
U46 C49 2.984 . S
U46 C50 2.847 . S
U46 C63 2.882 . S
U46 O64 2.441 . S
U46 O65 2.420 . S
U46 O66 2.455 . S
U46 O67 2.449 . S
O47 U46 2.454 . S
O47 C49 1.353 . S
O48 U46 2.458 . S
O48 C49 1.286 . S
C49 U46 2.984 . S
C49 O47 1.353 . S
C49 O48 1.286 . S
C49 C51 1.363 . S
C50 C40 1.465 . S
C50 U46 2.847 . S
C50 O64 1.249 . S
C50 O65 1.202 . S
C51 C49 1.363 . S
C51 C53 1.408 . S
C51 C56 1.342 . S
C52 C53 1.310 . S
C52 C55 1.461 . S
C52 H72 0.932 . S
C53 C51 1.408 . S
C53 C52 1.310 . S
C53 H73 0.930 . S
C54 C55 1.474 . S
C54 C56 1.285 . S
C54 H74 0.929 . S
C55 C52 1.461 . S
C55 C54 1.474 . S
C56 C51 1.342 . S
C56 C54 1.285 . S
C56 H75 0.930 . S
C57 C60 1.424 . S
C57 C62 1.245 . S
C57 C63 1.428 . S
C58 C61 1.260 . S
C58 C62 1.477 . S
C58 H76 0.932 . S
C59 C60 1.384 . S
C59 C61 1.479 . S
C59 H77 0.929 . S
C60 C57 1.424 . S
C60 C59 1.384 . S
C60 H78 0.928 . S
C61 C58 1.260 . S
C61 C59 1.479 . S
C62 C57 1.245 . S
C62 C58 1.477 . S
C62 H79 0.932 . S
C63 U46 2.882 . S
C63 C57 1.428 . S
C63 O66 1.301 . S
C63 O67 1.282 . S
O64 U46 2.441 . S
O64 C50 1.249 . S
O65 U46 2.420 . S
O65 C50 1.202 . S
O66 U46 2.455 . S
O66 C63 1.301 . S
O67 U46 2.449 . S
O67 C63 1.282 . S
H68 C41 0.931 . S
H69 C43 0.929 . S
H70 C44 0.930 . S
H71 C45 0.931 . S
H72 C52 0.932 . S
H73 C53 0.930 . S
H74 C54 0.929 . S
H75 C56 0.930 . S
H76 C58 0.932 . S
H77 C59 0.929 . S
H78 C60 0.928 . S
H79 C62 0.932 . S
C80 C81 1.264 1_655 S
C80 C85 1.479 1_554 S
C80 C90 1.465 . S
C81 C80 1.264 1_455 S
C81 C83 1.339 . S
C81 H108 0.931 . S
C82 C83 1.395 1_656 S
C82 C84 1.320 . S
C83 C81 1.339 . S
C83 C82 1.395 1_454 S
C83 H109 0.929 . S
C84 C82 1.320 . S
C84 C85 1.405 . S
C84 H110 0.930 . S
C85 C80 1.479 1_556 S
C85 C84 1.405 . S
C85 H111 0.931 . S
U86 O87 2.454 . S
U86 O88 2.458 . S
U86 C89 2.984 . S
U86 C90 2.847 . S
U86 C103 2.882 1_655 S
U86 O104 2.441 . S
U86 O105 2.420 . S
U86 O106 2.455 . S
U86 O107 2.449 1_655 S
O87 U86 2.454 . S
O87 C89 1.353 . S
O88 U86 2.458 . S
O88 C89 1.286 . S
C89 U86 2.984 . S
C89 O87 1.353 . S
C89 O88 1.286 . S
C89 C91 1.363 . S
C90 C80 1.465 . S
C90 U86 2.847 . S
C90 O104 1.249 . S
C90 O105 1.202 . S
C91 C89 1.363 . S
C91 C93 1.408 . S
C91 C96 1.342 . S
C92 C93 1.310 . S
C92 C95 1.461 . S
C92 H112 0.932 . S
C93 C91 1.408 . S
C93 C92 1.310 . S
C93 H113 0.930 . S
C94 C95 1.474 . S
C94 C96 1.285 . S
C94 H114 0.929 . S
C95 C92 1.461 . S
C95 C94 1.474 . S
C96 C91 1.342 . S
C96 C94 1.285 . S
C96 H115 0.930 . S
C97 C100 1.424 . S
C97 C102 1.245 . S
C97 C103 1.428 . S
C98 C101 1.260 . S
C98 C102 1.477 . S
C98 H116 0.932 . S
C99 C100 1.384 . S
C99 C101 1.479 . S
C99 H117 0.929 . S
C100 C97 1.424 . S
C100 C99 1.384 . S
C100 H118 0.928 . S
C101 C98 1.260 . S
C101 C99 1.479 . S
C102 C97 1.245 . S
C102 C98 1.477 . S
C102 H119 0.953 . S
C103 U86 2.882 1_455 S
C103 C97 1.428 . S
C103 O106 1.301 1_455 S
C103 O107 1.282 . S
O104 U86 2.441 . S
O104 C90 1.249 . S
O105 U86 2.420 . S
O105 C90 1.202 . S
O106 U86 2.455 . S
O106 C103 1.301 1_655 S
O107 U86 2.449 1_455 S
O107 C103 1.282 . S
H108 C81 0.931 . S
H109 C83 0.929 . S
H110 C84 0.930 . S
H111 C85 0.931 . S
H112 C92 0.932 . S
H113 C93 0.930 . S
H114 C94 0.929 . S
H115 C96 0.930 . S
H116 C98 0.932 . S
H117 C99 0.929 . S
H118 C100 0.928 . S
H119 C102 0.953 . S
C120 C121 1.264 . S
C120 C125 1.479 . S
C120 C130 1.465 . S
C121 C120 1.264 . S
C121 C123 1.339 . S
C121 H148 0.931 . S
C122 C123 1.395 . S
C122 C124 1.320 . S
C123 C121 1.339 . S
C123 C122 1.395 . S
C123 H149 0.929 . S
C124 C122 1.320 . S
C124 C125 1.405 . S
C124 H150 0.930 . S
C125 C120 1.479 . S
C125 C124 1.405 . S
C125 H151 0.931 . S
U126 O127 2.454 . S
U126 O128 2.458 . S
U126 C129 2.984 . S
U126 C130 2.847 . S
U126 C143 2.882 . S
U126 O144 2.441 . S
U126 O145 2.420 . S
U126 O146 2.455 . S
U126 O147 2.449 . S
O127 U126 2.454 . S
O127 C129 1.353 . S
O128 U126 2.458 . S
O128 C129 1.286 . S
C129 U126 2.984 . S
C129 O127 1.353 . S
C129 O128 1.286 . S
C129 C131 1.363 . S
C130 C120 1.465 . S
C130 U126 2.847 . S
C130 O144 1.249 . S
C130 O145 1.202 . S
C131 C129 1.363 . S
C131 C133 1.408 . S
C131 C136 1.342 . S
C132 C133 1.310 . S
C132 C135 1.461 . S
C132 H152 0.932 . S
C133 C131 1.408 . S
C133 C132 1.310 . S
C133 H153 0.930 . S
C134 C135 1.474 . S
C134 C136 1.285 . S
C134 H154 0.929 . S
C135 C132 1.461 . S
C135 C134 1.474 . S
C136 C131 1.342 . S
C136 C134 1.285 . S
C136 H155 0.930 . S
C137 C140 1.424 . S
C137 C142 1.245 . S
C137 C143 1.428 . S
C138 C141 1.260 . S
C138 C142 1.477 . S
C138 H156 0.932 . S
C139 C140 1.384 . S
C139 C141 1.479 . S
C139 H157 0.929 . S
C140 C137 1.424 . S
C140 C139 1.384 . S
C140 H158 0.928 . S
C141 C138 1.260 . S
C141 C139 1.479 . S
C142 C137 1.245 . S
C142 C138 1.477 . S
C142 H159 0.932 . S
C143 U126 2.882 . S
C143 C137 1.428 . S
C143 O146 1.301 . S
C143 O147 1.282 . S
O144 U126 2.441 . S
O144 C130 1.249 . S
O145 U126 2.420 . S
O145 C130 1.202 . S
O146 U126 2.455 . S
O146 C143 1.301 . S
O147 U126 2.449 . S
O147 C143 1.282 . S
H148 C121 0.931 . S
H149 C123 0.929 . S
H150 C124 0.930 . S
H151 C125 0.931 . S
H152 C132 0.932 . S
H153 C133 0.930 . S
H154 C134 0.929 . S
H155 C136 0.930 . S
H156 C138 0.932 . S
H157 C139 0.929 . S
H158 C140 0.928 . S
H159 C142 0.932 . S
C160 C161 1.264 . S
C160 C165 1.479 . S
C160 C170 1.465 . S
C161 C160 1.264 . S
C161 C163 1.339 . S
C161 H188 0.931 1_565 S
C162 C163 1.440 . S
C162 C164 1.306 1_455 S
C163 C161 1.339 . S
C163 C162 1.440 . S
C163 H189 0.929 1_565 S
C164 C162 1.306 1_655 S
C164 C165 1.405 1_655 S
C164 H190 0.930 . S
C165 C160 1.479 . S
C165 C164 1.405 1_455 S
C165 H191 0.931 . S
U166 O167 2.454 . S
U166 O168 2.458 . S
U166 C169 2.984 . S
U166 C170 2.847 . S
U166 C183 2.882 . S
U166 O184 2.441 . S
U166 O185 2.420 . S
U166 O186 2.455 . S
U166 O187 2.512 . S
O167 U166 2.454 . S
O167 C169 1.353 . S
O168 U166 2.458 . S
O168 C169 1.286 . S
C169 U166 2.984 . S
C169 O167 1.353 . S
C169 O168 1.286 . S
C169 C171 1.363 . S
C170 C160 1.465 . S
C170 U166 2.847 . S
C170 O184 1.249 . S
C170 O185 1.202 . S
C171 C169 1.363 . S
C171 C173 1.408 . S
C171 C176 1.342 . S
C172 C173 1.310 . S
C172 C175 1.461 . S
C172 H192 0.932 . S
C173 C171 1.408 . S
C173 C172 1.310 . S
C173 H193 0.930 . S
C174 C175 1.474 . S
C174 C176 1.285 . S
C174 H194 0.929 . S
C175 C172 1.461 . S
C175 C174 1.474 . S
C176 C171 1.342 . S
C176 C174 1.285 . S
C176 H195 0.930 . S
C177 C180 1.424 . S
C177 C182 1.245 . S
C177 C183 1.428 1_545 S
C178 C181 1.260 . S
C178 C182 1.477 . S
C178 H196 0.932 . S
C179 C180 1.384 . S
C179 C181 1.479 . S
C179 H197 0.929 . S
C180 C177 1.424 . S
C180 C179 1.384 . S
C180 H198 0.928 . S
C181 C178 1.260 . S
C181 C179 1.479 . S
C182 C177 1.245 . S
C182 C178 1.477 . S
C182 H199 0.932 1_545 S
C183 U166 2.882 . S
C183 C177 1.428 1_565 S
C183 O186 1.301 . S
C183 O187 1.303 . S
O184 U166 2.441 . S
O184 C170 1.249 . S
O185 U166 2.420 . S
O185 C170 1.202 . S
O186 U166 2.455 . S
O186 C183 1.301 . S
O187 U166 2.512 . S
O187 C183 1.303 . S
H188 C161 0.931 1_545 S
H189 C163 0.929 1_545 S
H190 C164 0.930 . S
H191 C165 0.931 . S
H192 C172 0.932 . S
H193 C173 0.930 . S
H194 C174 0.929 . S
H195 C176 0.930 . S
H196 C178 0.932 . S
H197 C179 0.929 . S
H198 C180 0.928 . S
H199 C182 0.932 1_565 S
C200 C201 1.264 . S
C200 C205 1.479 . S
C200 C210 1.465 . S
C201 C200 1.264 . S
C201 C203 1.339 . S
C201 H228 0.931 . S
C202 C203 1.395 . S
C202 C204 1.320 . S
C203 C201 1.339 . S
C203 C202 1.395 . S
C203 H229 0.929 . S
C204 C202 1.320 . S
C204 C205 1.405 . S
C204 H230 0.930 . S
C205 C200 1.479 . S
C205 C204 1.405 . S
C205 H231 0.931 . S
U206 O207 2.454 . S
U206 O208 2.458 . S
U206 C209 2.984 . S
U206 C210 2.847 . S
U206 C223 2.882 . S
U206 O224 2.441 . S
U206 O225 2.420 . S
U206 O226 2.455 . S
U206 O227 2.449 . S
O207 U206 2.454 . S
O207 C209 1.353 . S
O208 U206 2.458 . S
O208 C209 1.286 . S
C209 U206 2.984 . S
C209 O207 1.353 . S
C209 O208 1.286 . S
C209 C211 1.363 . S
C210 C200 1.465 . S
C210 U206 2.847 . S
C210 O224 1.249 . S
C210 O225 1.202 . S
C211 C209 1.363 . S
C211 C213 1.408 . S
C211 C216 1.342 . S
C212 C213 1.310 . S
C212 C215 1.461 . S
C212 H232 0.932 . S
C213 C211 1.408 . S
C213 C212 1.310 . S
C213 H233 0.930 . S
C214 C215 1.474 . S
C214 C216 1.285 . S
C214 H234 0.929 . S
C215 C212 1.461 . S
C215 C214 1.474 . S
C216 C211 1.342 . S
C216 C214 1.285 . S
C216 H235 0.930 . S
C217 C220 1.424 . S
C217 C222 1.245 . S
C217 C223 1.428 . S
C218 C221 1.260 . S
C218 C222 1.477 . S
C218 H236 0.932 . S
C219 C220 1.384 . S
C219 C221 1.479 . S
C219 H237 0.929 . S
C220 C217 1.424 . S
C220 C219 1.384 . S
C220 H238 0.928 . S
C221 C218 1.260 . S
C221 C219 1.479 . S
C222 C217 1.245 . S
C222 C218 1.477 . S
C222 H239 0.932 . S
C223 U206 2.882 . S
C223 C217 1.428 . S
C223 O226 1.301 . S
C223 O227 1.282 . S
O224 U206 2.441 . S
O224 C210 1.249 . S
O225 U206 2.420 . S
O225 C210 1.202 . S
O226 U206 2.455 . S
O226 C223 1.301 . S
O227 U206 2.449 . S
O227 C223 1.282 . S
H228 C201 0.931 . S
H229 C203 0.929 . S
H230 C204 0.930 . S
H231 C205 0.931 . S
H232 C212 0.932 . S
H233 C213 0.930 . S
H234 C214 0.929 . S
H235 C216 0.930 . S
H236 C218 0.932 . S
H237 C219 0.929 . S
H238 C220 0.928 . S
H239 C222 0.932 . S
C240 C241 1.264 . S
C240 C245 1.479 . S
C240 C250 1.465 . S
C241 C240 1.264 . S
C241 C243 1.339 . S
C241 H268 0.931 . S
C242 C243 1.395 . S
C242 C244 1.320 . S
C243 C241 1.339 . S
C243 C242 1.395 . S
C243 H269 0.884 1_655 S
C244 C242 1.320 . S
C244 C245 1.405 . S
C244 H270 0.930 . S
C245 C240 1.479 . S
C245 C244 1.405 . S
C245 H271 0.931 . S
U246 O247 2.454 . S
U246 O248 2.458 . S
U246 C249 2.984 . S
U246 C250 2.847 . S
U246 C263 2.882 . S
U246 O264 2.441 . S
U246 O265 2.420 . S
U246 O266 2.455 . S
U246 O267 2.449 . S
O247 U246 2.454 . S
O247 C249 1.353 . S
O248 U246 2.458 . S
O248 C249 1.286 . S
C249 U246 2.984 . S
C249 O247 1.353 . S
C249 O248 1.286 . S
C249 C251 1.363 . S
C250 C240 1.465 . S
C250 U246 2.847 . S
C250 O264 1.249 . S
C250 O265 1.202 . S
C251 C249 1.363 . S
C251 C253 1.408 . S
C251 C256 1.342 . S
C252 C253 1.310 . S
C252 C255 1.461 . S
C252 H272 0.932 . S
C253 C251 1.408 . S
C253 C252 1.310 . S
C253 H273 0.930 . S
C254 C255 1.474 . S
C254 C256 1.285 . S
C254 H274 0.929 . S
C255 C252 1.461 . S
C255 C254 1.474 . S
C256 C251 1.342 . S
C256 C254 1.285 . S
C256 H275 0.930 . S
C257 C260 1.456 . S
C257 C262 1.239 1_455 S
C257 C263 1.399 1_455 S
C258 C261 1.260 . S
C258 C262 1.477 1_455 S
C258 H276 0.932 . S
C259 C260 1.384 . S
C259 C261 1.479 . S
C259 H277 0.929 . S
C260 C257 1.456 . S
C260 C259 1.384 . S
C260 H278 0.928 . S
C261 C258 1.260 . S
C261 C259 1.479 . S
C262 C257 1.239 1_655 S
C262 C258 1.477 1_655 S
C262 H279 0.932 . S
C263 U246 2.882 . S
C263 C257 1.399 1_655 S
C263 O266 1.301 . S
C263 O267 1.282 . S
O264 U246 2.441 . S
O264 C250 1.249 . S
O265 U246 2.420 . S
O265 C250 1.202 . S
O266 U246 2.455 . S
O266 C263 1.301 . S
O267 U246 2.449 . S
O267 C263 1.282 . S
H268 C241 0.931 . S
H269 C243 0.884 1_455 S
H270 C244 0.930 . S
H271 C245 0.931 . S
H272 C252 0.932 . S
H273 C253 0.930 . S
H274 C254 0.929 . S
H275 C256 0.930 . S
H276 C258 0.932 . S
H277 C259 0.929 . S
H278 C260 0.928 . S
H279 C262 0.932 . S
C280 C281 1.264 . S
C280 C285 1.479 . S
C280 C290 1.465 . S
C281 C280 1.264 . S
C281 C283 1.339 . S
C281 H308 0.931 . S
C282 C283 1.395 . S
C282 C284 1.320 . S
C283 C281 1.339 . S
C283 C282 1.395 . S
C283 H309 0.929 . S
C284 C282 1.320 . S
C284 C285 1.405 . S
C284 H310 0.930 . S
C285 C280 1.479 . S
C285 C284 1.405 . S
C285 H311 0.931 . S
U286 O287 2.454 . S
U286 O288 2.458 . S
U286 C289 2.984 . S
U286 C290 2.847 . S
U286 C303 2.882 . S
U286 O304 2.441 . S
U286 O305 2.420 . S
U286 O306 2.455 . S
U286 O307 2.449 . S
O287 U286 2.454 . S
O287 C289 1.353 . S
O288 U286 2.458 . S
O288 C289 1.286 . S
C289 U286 2.984 . S
C289 O287 1.353 . S
C289 O288 1.286 . S
C289 C291 1.363 . S
C290 C280 1.465 . S
C290 U286 2.847 . S
C290 O304 1.249 . S
C290 O305 1.202 . S
C291 C289 1.363 . S
C291 C293 1.408 . S
C291 C296 1.342 . S
C292 C293 1.310 . S
C292 C295 1.461 . S
C292 H312 0.932 . S
C293 C291 1.408 . S
C293 C292 1.310 . S
C293 H313 0.930 . S
C294 C295 1.474 . S
C294 C296 1.285 . S
C294 H314 0.929 . S
C295 C292 1.461 . S
C295 C294 1.474 . S
C296 C291 1.342 . S
C296 C294 1.285 . S
C296 H315 0.930 . S
C297 C300 1.424 . S
C297 C302 1.245 . S
C297 C303 1.428 . S
C298 C301 1.260 . S
C298 C302 1.477 . S
C298 H316 0.932 . S
C299 C300 1.384 . S
C299 C301 1.479 . S
C299 H317 0.929 . S
C300 C297 1.424 . S
C300 C299 1.384 . S
C300 H318 0.928 . S
C301 C298 1.260 . S
C301 C299 1.479 . S
C302 C297 1.245 . S
C302 C298 1.477 . S
C302 H319 0.932 . S
C303 U286 2.882 . S
C303 C297 1.428 . S
C303 O306 1.301 . S
C303 O307 1.282 . S
O304 U286 2.441 . S
O304 C290 1.249 . S
O305 U286 2.420 . S
O305 C290 1.202 . S
O306 U286 2.455 . S
O306 C303 1.301 . S
O307 U286 2.449 . S
O307 C303 1.282 . S
H308 C281 0.931 . S
H309 C283 0.929 . S
H310 C284 0.930 . S
H311 C285 0.931 . S
H312 C292 0.932 . S
H313 C293 0.930 . S
H314 C294 0.929 . S
H315 C296 0.930 . S
H316 C298 0.932 . S
H317 C299 0.929 . S
H318 C300 0.928 . S
H319 C302 0.932 . S
C320 C321 1.264 . S
C320 C325 1.479 . S
C320 C330 1.465 . S
C321 C320 1.264 . S
C321 C323 1.339 . S
C321 H348 0.931 . S
C322 C323 1.395 . S
C322 C324 1.320 . S
C323 C321 1.339 . S
C323 C322 1.395 . S
C323 H349 0.929 . S
C324 C322 1.320 . S
C324 C325 1.405 . S
C324 H350 0.930 . S
C325 C320 1.479 . S
C325 C324 1.405 . S
C325 H351 0.931 . S
U326 O327 2.454 . S
U326 O328 2.458 . S
U326 C329 2.984 . S
U326 C330 2.847 . S
U326 C343 2.882 . S
U326 O344 2.441 . S
U326 O345 2.420 . S
U326 O346 2.455 . S
U326 O347 2.449 . S
O327 U326 2.454 . S
O327 C329 1.353 . S
O328 U326 2.458 . S
O328 C329 1.286 . S
C329 U326 2.984 . S
C329 O327 1.353 . S
C329 O328 1.286 . S
C329 C331 1.363 . S
C330 C320 1.465 . S
C330 U326 2.847 . S
C330 O344 1.249 . S
C330 O345 1.202 . S
C331 C329 1.363 . S
C331 C333 1.408 . S
C331 C336 1.342 . S
C332 C333 1.310 . S
C332 C335 1.461 . S
C332 H352 0.932 . S
C333 C331 1.408 . S
C333 C332 1.310 . S
C333 H353 0.930 . S
C334 C335 1.474 . S
C334 C336 1.285 . S
C334 H354 0.929 . S
C335 C332 1.461 . S
C335 C334 1.474 . S
C336 C331 1.342 . S
C336 C334 1.285 . S
C336 H355 0.930 . S
C337 C340 1.424 . S
C337 C342 1.245 . S
C337 C343 1.428 . S
C338 C341 1.260 . S
C338 C342 1.477 . S
C338 H356 0.932 . S
C339 C340 1.384 . S
C339 C341 1.479 . S
C339 H357 0.929 . S
C340 C337 1.424 . S
C340 C339 1.384 . S
C340 H358 0.928 . S
C341 C338 1.260 . S
C341 C339 1.479 . S
C342 C337 1.245 . S
C342 C338 1.477 . S
C342 H359 0.932 . S
C343 U326 2.882 . S
C343 C337 1.428 . S
C343 O346 1.301 . S
C343 O347 1.282 . S
O344 U326 2.441 . S
O344 C330 1.249 . S
O345 U326 2.420 . S
O345 C330 1.202 . S
O346 U326 2.455 . S
O346 C343 1.301 . S
O347 U326 2.449 . S
O347 C343 1.282 . S
H348 C321 0.931 . S
H349 C323 0.929 . S
H350 C324 0.930 . S
H351 C325 0.931 . S
H352 C332 0.932 . S
H353 C333 0.930 . S
H354 C334 0.929 . S
H355 C336 0.930 . S
H356 C338 0.932 . S
H357 C339 0.929 . S
H358 C340 0.928 . S
H359 C342 0.932 . S
C360 C361 1.264 . S
C360 C365 1.479 . S
C360 C370 1.465 . S
C361 C360 1.264 . S
C361 C363 1.339 . S
C361 H388 0.931 . S
C362 C363 1.395 . S
C362 C364 1.320 . S
C363 C361 1.339 . S
C363 C362 1.395 . S
C363 H389 0.929 . S
C364 C362 1.320 . S
C364 C365 1.405 . S
C364 H390 0.930 . S
C365 C360 1.479 . S
C365 C364 1.405 . S
C365 H391 0.931 . S
U366 O367 2.454 . S
U366 O368 2.458 . S
U366 C369 2.984 . S
U366 C370 2.847 . S
U366 C383 2.882 . S
U366 O384 2.441 . S
U366 O385 2.420 . S
U366 O386 2.455 . S
U366 O387 2.449 . S
O367 U366 2.454 . S
O367 C369 1.353 . S
O368 U366 2.458 . S
O368 C369 1.286 . S
C369 U366 2.984 . S
C369 O367 1.353 . S
C369 O368 1.286 . S
C369 C371 1.363 . S
C370 C360 1.465 . S
C370 U366 2.847 . S
C370 O384 1.249 . S
C370 O385 1.202 . S
C371 C369 1.363 . S
C371 C373 1.408 . S
C371 C376 1.342 1_565 S
C372 C373 1.310 1_545 S
C372 C375 1.461 . S
C372 H392 0.932 . S
C373 C371 1.408 . S
C373 C372 1.310 1_565 S
C373 H393 0.930 . S
C374 C375 1.474 . S
C374 C376 1.285 . S
C374 H394 0.929 . S
C375 C372 1.461 . S
C375 C374 1.474 . S
C376 C371 1.342 1_545 S
C376 C374 1.285 . S
C376 H395 0.930 . S
C377 C380 1.424 . S
C377 C382 1.245 . S
C377 C383 1.428 . S
C378 C381 1.260 . S
C378 C382 1.477 . S
C378 H396 0.932 . S
C379 C380 1.384 . S
C379 C381 1.479 . S
C379 H397 0.929 . S
C380 C377 1.424 . S
C380 C379 1.384 . S
C380 H398 0.928 . S
C381 C378 1.260 . S
C381 C379 1.479 . S
C382 C377 1.245 . S
C382 C378 1.477 . S
C382 H399 0.932 . S
C383 U366 2.882 . S
C383 C377 1.428 . S
C383 O386 1.301 . S
C383 O387 1.282 . S
O384 U366 2.441 . S
O384 C370 1.249 . S
O385 U366 2.420 . S
O385 C370 1.202 . S
O386 U366 2.455 . S
O386 C383 1.301 . S
O387 U366 2.449 . S
O387 C383 1.282 . S
H388 C361 0.931 . S
H389 C363 0.929 . S
H390 C364 0.930 . S
H391 C365 0.931 . S
H392 C372 0.932 . S
H393 C373 0.930 . S
H394 C374 0.929 . S
H395 C376 0.930 . S
H396 C378 0.932 . S
H397 C379 0.929 . S
H398 C380 0.928 . S
H399 C382 0.932 . S
C400 C401 1.264 . S
C400 C405 1.479 . S
C400 C410 1.465 . S
C401 C400 1.264 . S
C401 C403 1.339 . S
C401 H428 0.931 . S
C402 C403 1.395 . S
C402 C404 1.320 . S
C403 C401 1.339 . S
C403 C402 1.395 . S
C403 H429 0.929 . S
C404 C402 1.320 . S
C404 C405 1.405 . S
C404 H430 0.930 . S
C405 C400 1.479 . S
C405 C404 1.405 . S
C405 H431 0.931 . S
U406 O407 2.454 . S
U406 O408 2.458 . S
U406 C409 2.984 . S
U406 C410 2.847 . S
U406 C423 2.882 . S
U406 O424 2.441 . S
U406 O425 2.420 . S
U406 O426 2.455 . S
U406 O427 2.449 . S
O407 U406 2.454 . S
O407 C409 1.353 . S
O408 U406 2.458 . S
O408 C409 1.286 . S
C409 U406 2.984 . S
C409 O407 1.353 . S
C409 O408 1.286 . S
C409 C411 1.363 . S
C410 C400 1.465 . S
C410 U406 2.847 . S
C410 O424 1.249 . S
C410 O425 1.202 . S
C411 C409 1.363 . S
C411 C413 1.408 . S
C411 C416 1.342 . S
C412 C413 1.310 . S
C412 C415 1.461 . S
C412 H432 0.932 . S
C413 C411 1.408 . S
C413 C412 1.310 . S
C413 H433 0.930 . S
C414 C415 1.474 . S
C414 C416 1.285 . S
C414 H434 0.929 . S
C415 C412 1.461 . S
C415 C414 1.474 . S
C416 C411 1.342 . S
C416 C414 1.285 . S
C416 H435 0.930 . S
C417 C420 1.424 . S
C417 C422 1.245 . S
C417 C423 1.428 . S
C418 C421 1.260 . S
C418 C422 1.477 . S
C418 H436 0.932 . S
C419 C420 1.384 . S
C419 C421 1.479 . S
C419 H437 0.929 . S
C420 C417 1.424 . S
C420 C419 1.384 . S
C420 H438 0.928 . S
C421 C418 1.260 . S
C421 C419 1.479 . S
C422 C417 1.245 . S
C422 C418 1.477 . S
C422 H439 0.932 . S
C423 U406 2.882 . S
C423 C417 1.428 . S
C423 O426 1.301 . S
C423 O427 1.282 . S
O424 U406 2.441 . S
O424 C410 1.249 . S
O425 U406 2.420 . S
O425 C410 1.202 . S
O426 U406 2.455 . S
O426 C423 1.301 . S
O427 U406 2.449 . S
O427 C423 1.282 . S
H428 C401 0.931 . S
H429 C403 0.929 . S
H430 C404 0.930 . S
H431 C405 0.931 . S
H432 C412 0.932 . S
H433 C413 0.930 . S
H434 C414 0.929 . S
H435 C416 0.930 . S
H436 C418 0.932 . S
H437 C419 0.929 . S
H438 C420 0.928 . S
H439 C422 0.932 . S
C440 C441 1.264 . S
C440 C445 1.479 . S
C440 C450 1.465 . S
C441 C440 1.264 . S
C441 C443 1.339 . S
C441 H468 0.931 . S
C442 C443 1.395 . S
C442 C444 1.320 . S
C443 C441 1.339 . S
C443 C442 1.395 . S
C443 H469 0.929 . S
C444 C442 1.320 . S
C444 C445 1.405 . S
C444 H470 0.930 . S
C445 C440 1.479 . S
C445 C444 1.405 . S
C445 H471 0.931 . S
U446 O447 2.454 . S
U446 O448 2.458 . S
U446 C449 2.984 . S
U446 C450 2.847 . S
U446 C463 2.882 . S
U446 O464 2.441 . S
U446 O465 2.420 . S
U446 O466 2.455 . S
U446 O467 2.449 . S
O447 U446 2.454 . S
O447 C449 1.353 . S
O448 U446 2.458 . S
O448 C449 1.286 . S
C449 U446 2.984 . S
C449 O447 1.353 . S
C449 O448 1.286 . S
C449 C451 1.363 . S
C450 C440 1.465 . S
C450 U446 2.847 . S
C450 O464 1.249 . S
C450 O465 1.202 . S
C451 C449 1.363 . S
C451 C453 1.408 . S
C451 C456 1.342 . S
C452 C453 1.310 . S
C452 C455 1.461 . S
C452 H472 0.932 . S
C453 C451 1.408 . S
C453 C452 1.310 . S
C453 H473 0.930 . S
C454 C455 1.474 . S
C454 C456 1.285 . S
C454 H474 0.929 . S
C455 C452 1.461 . S
C455 C454 1.474 . S
C456 C451 1.342 . S
C456 C454 1.285 . S
C456 H475 0.930 . S
C457 C460 1.424 . S
C457 C462 1.245 . S
C457 C463 1.428 . S
C458 C461 1.260 . S
C458 C462 1.477 . S
C458 H476 0.932 . S
C459 C460 1.384 . S
C459 C461 1.479 . S
C459 H477 0.929 . S
C460 C457 1.424 . S
C460 C459 1.384 . S
C460 H478 0.928 . S
C461 C458 1.260 . S
C461 C459 1.479 . S
C462 C457 1.245 . S
C462 C458 1.477 . S
C462 H479 0.932 . S
C463 U446 2.882 . S
C463 C457 1.428 . S
C463 O466 1.301 . S
C463 O467 1.282 . S
O464 U446 2.441 . S
O464 C450 1.249 . S
O465 U446 2.420 . S
O465 C450 1.202 . S
O466 U446 2.455 . S
O466 C463 1.301 . S
O467 U446 2.449 . S
O467 C463 1.282 . S
H468 C441 0.931 . S
H469 C443 0.929 . S
H470 C444 0.930 . S
H471 C445 0.931 . S
H472 C452 0.932 . S
H473 C453 0.930 . S
H474 C454 0.929 . S
H475 C456 0.930 . S
H476 C458 0.932 . S
H477 C459 0.929 . S
H478 C460 0.928 . S
H479 C462 0.932 . S
C480 C481 1.264 . S
C480 C485 1.479 . S
C480 C490 1.465 . S
C481 C480 1.264 . S
C481 C483 1.339 . S
C481 H508 0.931 . S
C482 C483 1.395 . S
C482 C484 1.320 . S
C483 C481 1.339 . S
C483 C482 1.395 . S
C483 H509 0.929 . S
C484 C482 1.320 . S
C484 C485 1.405 . S
C484 H510 0.930 . S
C485 C480 1.479 . S
C485 C484 1.405 . S
C485 H511 0.931 . S
U486 O487 2.454 . S
U486 O488 2.458 . S
U486 C489 2.984 . S
U486 C490 2.847 . S
U486 C503 2.882 . S
U486 O504 2.441 . S
U486 O505 2.420 . S
U486 O506 2.455 . S
U486 O507 2.449 . S
O487 U486 2.454 . S
O487 C489 1.353 . S
O488 U486 2.458 . S
O488 C489 1.286 . S
C489 U486 2.984 . S
C489 O487 1.353 . S
C489 O488 1.286 . S
C489 C491 1.363 . S
C490 C480 1.465 . S
C490 U486 2.847 . S
C490 O504 1.249 . S
C490 O505 1.202 . S
C491 C489 1.363 . S
C491 C493 1.408 . S
C491 C496 1.342 . S
C492 C493 1.310 . S
C492 C495 1.461 . S
C492 H512 0.932 . S
C493 C491 1.408 . S
C493 C492 1.310 . S
C493 H513 0.930 . S
C494 C495 1.474 . S
C494 C496 1.285 . S
C494 H514 0.929 . S
C495 C492 1.461 . S
C495 C494 1.474 . S
C496 C491 1.342 . S
C496 C494 1.285 . S
C496 H515 0.930 . S
C497 C500 1.424 . S
C497 C502 1.245 . S
C497 C503 1.428 . S
C498 C501 1.260 . S
C498 C502 1.477 . S
C498 H516 0.932 . S
C499 C500 1.384 . S
C499 C501 1.479 . S
C499 H517 0.929 . S
C500 C497 1.424 . S
C500 C499 1.384 . S
C500 H518 0.928 . S
C501 C498 1.260 . S
C501 C499 1.479 . S
C502 C497 1.245 . S
C502 C498 1.477 . S
C502 H519 0.932 . S
C503 U486 2.882 . S
C503 C497 1.428 . S
C503 O506 1.301 . S
C503 O507 1.282 . S
O504 U486 2.441 . S
O504 C490 1.249 . S
O505 U486 2.420 . S
O505 C490 1.202 . S
O506 U486 2.455 . S
O506 C503 1.301 . S
O507 U486 2.449 . S
O507 C503 1.282 . S
H508 C481 0.931 . S
H509 C483 0.929 . S
H510 C484 0.930 . S
H511 C485 0.931 . S
H512 C492 0.932 . S
H513 C493 0.930 . S
H514 C494 0.929 . S
H515 C496 0.930 . S
H516 C498 0.932 . S
H517 C499 0.929 . S
H518 C500 0.928 . S
H519 C502 0.932 . S
C520 C521 1.264 . S
C520 C525 1.479 . S
C520 C530 1.465 . S
C521 C520 1.264 . S
C521 C523 1.339 . S
C521 H548 0.931 . S
C522 C523 1.395 . S
C522 C524 1.320 . S
C523 C521 1.339 . S
C523 C522 1.395 . S
C523 H549 0.929 . S
C524 C522 1.320 . S
C524 C525 1.405 . S
C524 H550 0.930 . S
C525 C520 1.479 . S
C525 C524 1.405 . S
C525 H551 0.931 . S
U526 O527 2.454 . S
U526 O528 2.458 . S
U526 C529 2.984 . S
U526 C530 2.847 . S
U526 C543 2.882 . S
U526 O544 2.441 . S
U526 O545 2.420 . S
U526 O546 2.455 . S
U526 O547 2.449 . S
O527 U526 2.454 . S
O527 C529 1.353 . S
O528 U526 2.458 . S
O528 C529 1.286 . S
C529 U526 2.984 . S
C529 O527 1.353 . S
C529 O528 1.286 . S
C529 C531 1.363 . S
C530 C520 1.465 . S
C530 U526 2.847 . S
C530 O544 1.249 . S
C530 O545 1.202 . S
C531 C529 1.363 . S
C531 C533 1.408 . S
C531 C536 1.342 1_556 S
C532 C533 1.290 1_554 S
C532 C535 1.486 . S
C532 H552 0.928 1_554 S
C533 C531 1.408 . S
C533 C532 1.290 1_556 S
C533 H553 0.930 . S
C534 C535 1.474 . S
C534 C536 1.285 . S
C534 H554 0.929 . S
C535 C532 1.486 . S
C535 C534 1.474 . S
C536 C531 1.342 1_554 S
C536 C534 1.285 . S
C536 H555 0.930 . S
C537 C540 1.424 . S
C537 C542 1.245 . S
C537 C543 1.428 . S
C538 C541 1.260 . S
C538 C542 1.477 . S
C538 H556 0.932 . S
C539 C540 1.384 . S
C539 C541 1.479 . S
C539 H557 0.929 . S
C540 C537 1.424 . S
C540 C539 1.384 . S
C540 H558 0.928 . S
C541 C538 1.260 . S
C541 C539 1.479 . S
C542 C537 1.245 . S
C542 C538 1.477 . S
C542 H559 0.932 . S
C543 U526 2.882 . S
C543 C537 1.428 . S
C543 O546 1.301 . S
C543 O547 1.282 . S
O544 U526 2.441 . S
O544 C530 1.249 . S
O545 U526 2.420 . S
O545 C530 1.202 . S
O546 U526 2.455 . S
O546 C543 1.301 . S
O547 U526 2.449 . S
O547 C543 1.282 . S
H548 C521 0.931 . S
H549 C523 0.929 . S
H550 C524 0.930 . S
H551 C525 0.931 . S
H552 C532 0.928 1_556 S
H553 C533 0.930 . S
H554 C534 0.929 . S
H555 C536 0.930 . S
H556 C538 0.932 . S
H557 C539 0.929 . S
H558 C540 0.928 . S
H559 C542 0.932 . S
C560 C561 1.264 . S
C560 C565 1.479 . S
C560 C570 1.465 . S
C561 C560 1.264 . S
C561 C563 1.339 . S
C561 H588 0.931 . S
C562 C563 1.395 . S
C562 C564 1.320 . S
C563 C561 1.339 . S
C563 C562 1.395 . S
C563 H589 0.929 . S
C564 C562 1.320 . S
C564 C565 1.405 . S
C564 H590 0.930 . S
C565 C560 1.479 . S
C565 C564 1.405 . S
C565 H591 0.931 . S
U566 O567 2.454 . S
U566 O568 2.458 . S
U566 C569 2.984 . S
U566 C570 2.847 . S
U566 C583 2.882 . S
U566 O584 2.441 . S
U566 O585 2.420 . S
U566 O586 2.455 . S
U566 O587 2.449 . S
O567 U566 2.454 . S
O567 C569 1.353 . S
O568 U566 2.458 . S
O568 C569 1.286 . S
C569 U566 2.984 . S
C569 O567 1.353 . S
C569 O568 1.286 . S
C569 C571 1.363 . S
C570 C560 1.465 . S
C570 U566 2.847 . S
C570 O584 1.249 . S
C570 O585 1.202 . S
C571 C569 1.363 . S
C571 C573 1.408 . S
C571 C576 1.342 . S
C572 C573 1.310 . S
C572 C575 1.461 . S
C572 H592 0.932 . S
C573 C571 1.408 . S
C573 C572 1.310 . S
C573 H593 0.930 . S
C574 C575 1.474 . S
C574 C576 1.285 . S
C574 H594 0.929 . S
C575 C572 1.461 . S
C575 C574 1.474 . S
C576 C571 1.342 . S
C576 C574 1.285 . S
C576 H595 0.930 . S
C577 C580 1.424 . S
C577 C582 1.245 . S
C577 C583 1.428 . S
C578 C581 1.260 . S
C578 C582 1.477 . S
C578 H596 0.932 . S
C579 C580 1.384 . S
C579 C581 1.479 . S
C579 H597 0.929 . S
C580 C577 1.424 . S
C580 C579 1.384 . S
C580 H598 0.928 . S
C581 C578 1.260 . S
C581 C579 1.479 . S
C582 C577 1.245 . S
C582 C578 1.477 . S
C582 H599 0.932 . S
C583 U566 2.882 . S
C583 C577 1.428 . S
C583 O586 1.301 . S
C583 O587 1.282 . S
O584 U566 2.441 . S
O584 C570 1.249 . S
O585 U566 2.420 . S
O585 C570 1.202 . S
O586 U566 2.455 . S
O586 C583 1.301 . S
O587 U566 2.449 . S
O587 C583 1.282 . S
H588 C561 0.931 . S
H589 C563 0.929 . S
H590 C564 0.930 . S
H591 C565 0.931 . S
H592 C572 0.932 . S
H593 C573 0.930 . S
H594 C574 0.929 . S
H595 C576 0.930 . S
H596 C578 0.932 . S
H597 C579 0.929 . S
H598 C580 0.928 . S
H599 C582 0.932 . S
C600 C601 1.264 . S
C600 C605 1.479 . S
C600 C610 1.465 1_554 S
C601 C600 1.264 . S
C601 C603 1.339 . S
C601 H628 0.931 1_554 S
C602 C603 1.395 . S
C602 C604 1.320 . S
C603 C601 1.339 . S
C603 C602 1.395 . S
C603 H629 0.929 . S
C604 C602 1.320 . S
C604 C605 1.405 . S
C604 H630 0.930 . S
C605 C600 1.479 . S
C605 C604 1.405 . S
C605 H631 0.931 . S
U606 O607 2.454 . S
U606 O608 2.458 . S
U606 C609 2.984 . S
U606 C610 2.847 . S
U606 C623 2.882 . S
U606 O624 2.489 . S
U606 O625 2.420 . S
U606 O626 2.455 . S
U606 O627 2.449 . S
O607 U606 2.454 . S
O607 C609 1.353 . S
O608 U606 2.458 . S
O608 C609 1.286 . S
C609 U606 2.984 . S
C609 O607 1.353 . S
C609 O608 1.286 . S
C609 C611 1.326 1_545 S
C610 C600 1.465 1_556 S
C610 U606 2.847 . S
C610 O624 1.257 . S
C610 O625 1.202 . S
C611 C609 1.326 1_565 S
C611 C613 1.397 1_565 S
C611 C616 1.390 . S
C612 C613 1.310 1_565 S
C612 C615 1.461 . S
C612 H632 0.898 1_556 S
C613 C611 1.397 1_545 S
C613 C612 1.310 1_545 S
C613 H633 0.978 . S
C614 C615 1.474 . S
C614 C616 1.285 . S
C614 H634 0.929 . S
C615 C612 1.461 . S
C615 C614 1.474 . S
C616 C611 1.390 . S
C616 C614 1.285 . S
C616 H635 0.930 . S
C617 C620 1.424 . S
C617 C622 1.245 . S
C617 C623 1.428 . S
C618 C621 1.260 . S
C618 C622 1.477 . S
C618 H636 0.982 . S
C619 C620 1.384 . S
C619 C621 1.479 . S
C619 H637 0.929 . S
C620 C617 1.424 . S
C620 C619 1.384 . S
C620 H638 0.928 . S
C621 C618 1.260 . S
C621 C619 1.479 . S
C622 C617 1.245 . S
C622 C618 1.477 . S
C622 H639 0.932 . S
C623 U606 2.882 . S
C623 C617 1.428 . S
C623 O626 1.301 . S
C623 O627 1.282 . S
O624 U606 2.489 . S
O624 C610 1.257 . S
O625 U606 2.420 . S
O625 C610 1.202 . S
O626 U606 2.455 . S
O626 C623 1.301 . S
O627 U606 2.449 . S
O627 C623 1.282 . S
H628 C601 0.931 1_556 S
H629 C603 0.929 . S
H630 C604 0.930 . S
H631 C605 0.931 . S
H632 C612 0.898 1_554 S
H633 C613 0.978 . S
H634 C614 0.929 . S
H635 C616 0.930 . S
H636 C618 0.982 . S
H637 C619 0.929 . S
H638 C620 0.928 . S
H639 C622 0.932 . S
Mg640 O641 2.028 . S
Mg640 O647 1.986 1_554 S
Mg640 O649 2.114 . S
Mg640 O650 2.251 . S
Mg640 O653 2.010 . S
O641 Mg640 2.028 . S
O641 C644 1.250 . S
O642 Mg643 2.028 1_554 S
O642 C644 1.251 . S
Mg643 O642 2.028 1_556 S
Mg643 O648 2.041 . S
Mg643 O650 2.071 1_556 S
C644 O641 1.250 . S
C644 O642 1.251 . S
C645 O646 1.264 . S
C645 O653 1.249 . S
O646 C645 1.264 . S
O647 Mg640 1.986 1_556 S
O647 C651 1.246 . S
O648 Mg643 2.041 . S
O648 C651 1.259 . S
O649 Mg640 2.114 . S
O649 C652 1.252 . S
O650 Mg640 2.251 . S
O650 Mg643 2.071 1_554 S
O650 C652 1.273 . S
C651 O647 1.246 . S
C651 O648 1.259 . S
C652 O649 1.252 . S
C652 O650 1.273 . S
O653 Mg640 2.010 . S
O653 C645 1.249 . S
Mg654 O655 2.028 . S
Mg654 O661 1.986 . S
Mg654 O663 2.114 . S
Mg654 O664 2.251 . S
Mg654 O667 2.010 . S
O655 Mg654 2.028 . S
O655 C658 1.250 . S
O656 Mg657 2.028 . S
O656 C658 1.248 . S
Mg657 O656 2.028 . S
Mg657 O662 2.032 . S
Mg657 O664 2.079 . S
C658 O655 1.250 . S
C658 O656 1.248 . S
C659 O660 1.264 . S
C659 O667 1.249 . S
O660 C659 1.264 . S
O661 Mg654 1.986 . S
O661 C665 1.246 . S
O662 Mg657 2.032 . S
O662 C665 1.259 . S
O663 Mg654 2.114 . S
O663 C666 1.252 . S
O664 Mg654 2.251 . S
O664 Mg657 2.079 . S
O664 C666 1.273 . S
C665 O661 1.246 . S
C665 O662 1.259 . S
C666 O663 1.252 . S
C666 O664 1.273 . S
O667 Mg654 2.010 . S
O667 C659 1.249 . S
Mg668 O669 2.028 . S
Mg668 O675 1.986 1_554 S
Mg668 O677 2.114 . S
Mg668 O678 2.251 . S
Mg668 O681 2.010 . S
O669 Mg668 2.028 . S
O669 C672 1.243 1_554 S
O670 Mg671 2.028 . S
O670 C672 1.255 . S
Mg671 O670 2.028 . S
Mg671 O676 2.032 . S
Mg671 O678 2.079 1_556 S
C672 O669 1.243 1_556 S
C672 O670 1.255 . S
C673 O674 1.264 . S
C673 O681 1.249 . S
O674 C673 1.264 . S
O675 Mg668 1.986 1_556 S
O675 C679 1.246 . S
O676 Mg671 2.032 . S
O676 C679 1.259 . S
O677 Mg668 2.114 . S
O677 C680 1.252 . S
O678 Mg668 2.251 . S
O678 Mg671 2.079 1_554 S
O678 C680 1.273 . S
C679 O675 1.246 . S
C679 O676 1.259 . S
C680 O677 1.252 . S
C680 O678 1.273 . S
O681 Mg668 2.010 . S
O681 C673 1.249 . S
Mg682 O683 2.028 . S
Mg682 O689 1.986 . S
Mg682 O691 2.114 . S
Mg682 O692 2.251 . S
Mg682 O695 2.010 . S
O683 Mg682 2.028 . S
O683 C686 1.250 1_545 S
O684 Mg685 2.028 . S
O684 C686 1.248 . S
Mg685 O684 2.028 . S
Mg685 O690 2.032 . S
Mg685 O692 2.079 1_565 S
C686 O683 1.250 1_565 S
C686 O684 1.248 . S
C687 O688 1.264 . S
C687 O695 1.249 . S
O688 C687 1.264 . S
O689 Mg682 1.986 . S
O689 C693 1.246 . S
O690 Mg685 2.032 . S
O690 C693 1.259 1_565 S
O691 Mg682 2.114 . S
O691 C694 1.252 . S
O692 Mg682 2.251 . S
O692 Mg685 2.079 1_545 S
O692 C694 1.273 . S
C693 O689 1.246 . S
C693 O690 1.259 1_545 S
C694 O691 1.252 . S
C694 O692 1.273 . S
O695 Mg682 2.010 . S
O695 C687 1.249 . S
Mg696 O697 2.028 . S
Mg696 O703 1.986 . S
Mg696 O705 2.114 . S
Mg696 O706 2.251 . S
Mg696 O709 2.010 . S
O697 Mg696 2.028 . S
O697 C700 1.250 . S
O698 Mg699 2.028 . S
O698 C700 1.248 . S
Mg699 O698 2.028 . S
Mg699 O704 2.032 . S
Mg699 O706 2.079 . S
C700 O697 1.250 . S
C700 O698 1.248 . S
C701 O702 1.264 . S
C701 O709 1.249 . S
O702 C701 1.264 . S
O703 Mg696 1.986 . S
O703 C707 1.246 . S
O704 Mg699 2.032 . S
O704 C707 1.259 . S
O705 Mg696 2.114 . S
O705 C708 1.252 . S
O706 Mg696 2.251 . S
O706 Mg699 2.079 . S
O706 C708 1.273 . S
C707 O703 1.246 . S
C707 O704 1.259 . S
C708 O705 1.252 . S
C708 O706 1.273 . S
O709 Mg696 2.010 . S
O709 C701 1.249 . S
Mg710 O711 2.028 . S
Mg710 O717 1.986 . S
Mg710 O719 2.114 . S
Mg710 O720 2.251 . S
Mg710 O723 2.010 . S
O711 Mg710 2.028 . S
O711 C714 1.250 . S
O712 Mg713 2.028 . S
O712 C714 1.248 . S
Mg713 O712 2.028 . S
Mg713 O718 2.032 . S
Mg713 O720 2.079 . S
C714 O711 1.250 . S
C714 O712 1.248 . S
C715 O716 1.264 . S
C715 O723 1.249 . S
O716 C715 1.264 . S
O717 Mg710 1.986 . S
O717 C721 1.246 . S
O718 Mg713 2.032 . S
O718 C721 1.259 . S
O719 Mg710 2.114 . S
O719 C722 1.252 . S
O720 Mg710 2.251 . S
O720 Mg713 2.079 . S
O720 C722 1.273 . S
C721 O717 1.246 . S
C721 O718 1.259 . S
C722 O719 1.252 . S
C722 O720 1.273 . S
O723 Mg710 2.010 . S
O723 C715 1.249 . S
Mg724 O725 2.028 . S
Mg724 O731 1.986 . S
Mg724 O733 2.114 . S
Mg724 O734 2.251 . S
Mg724 O737 2.010 . S
O725 Mg724 2.028 . S
O725 C728 1.250 . S
O726 Mg727 2.028 . S
O726 C728 1.248 . S
Mg727 O726 2.028 . S
Mg727 O732 2.032 . S
Mg727 O734 2.079 . S
C728 O725 1.250 . S
C728 O726 1.248 . S
C729 O730 1.264 . S
C729 O737 1.249 . S
O730 C729 1.264 . S
O731 Mg724 1.986 . S
O731 C735 1.246 . S
O732 Mg727 2.032 . S
O732 C735 1.259 . S
O733 Mg724 2.114 . S
O733 C736 1.252 . S
O734 Mg724 2.251 . S
O734 Mg727 2.079 . S
O734 C736 1.273 . S
C735 O731 1.246 . S
C735 O732 1.259 . S
C736 O733 1.252 . S
C736 O734 1.273 . S
O737 Mg724 2.010 . S
O737 C729 1.249 . S
Mg738 O739 2.022 1_545 S
Mg738 O745 1.986 1_545 S
Mg738 O747 2.114 . S
Mg738 O748 2.251 . S
Mg738 O751 2.010 . S
O739 Mg738 2.022 1_565 S
O739 C742 1.259 . S
O740 Mg741 2.028 . S
O740 C742 1.248 . S
Mg741 O740 2.028 . S
Mg741 O746 2.032 . S
Mg741 O748 2.079 1_565 S
C742 O739 1.259 . S
C742 O740 1.248 . S
C743 O744 1.264 . S
C743 O751 1.249 . S
O744 C743 1.264 . S
O745 Mg738 1.986 1_565 S
O745 C749 1.246 . S
O746 Mg741 2.032 . S
O746 C749 1.259 . S
O747 Mg738 2.114 . S
O747 C750 1.252 . S
O748 Mg738 2.251 . S
O748 Mg741 2.079 1_545 S
O748 C750 1.273 . S
C749 O745 1.246 . S
C749 O746 1.259 . S
C750 O747 1.252 . S
C750 O748 1.273 . S
O751 Mg738 2.010 . S
O751 C743 1.249 . S
Mg752 O753 2.028 . S
Mg752 O759 1.986 . S
Mg752 O761 2.114 . S
Mg752 O762 2.251 . S
Mg752 O765 2.010 . S
O753 Mg752 2.028 . S
O753 C756 1.250 1_455 S
O754 Mg755 2.028 . S
O754 C756 1.248 . S
Mg755 O754 2.028 . S
Mg755 O760 2.032 . S
Mg755 O762 2.079 1_655 S
C756 O753 1.250 1_655 S
C756 O754 1.248 . S
C757 O758 1.264 . S
C757 O765 1.249 . S
O758 C757 1.264 . S
O759 Mg752 1.986 . S
O759 C763 1.246 . S
O760 Mg755 2.032 . S
O760 C763 1.259 1_655 S
O761 Mg752 2.114 . S
O761 C764 1.252 . S
O762 Mg752 2.251 . S
O762 Mg755 2.079 1_455 S
O762 C764 1.273 . S
C763 O759 1.246 . S
C763 O760 1.259 1_455 S
C764 O761 1.252 . S
C764 O762 1.273 . S
O765 Mg752 2.010 . S
O765 C757 1.249 . S
Mg766 O767 2.028 . S
Mg766 O773 1.986 . S
Mg766 O775 2.114 . S
Mg766 O776 2.251 . S
Mg766 O779 2.010 . S
O767 Mg766 2.028 . S
O767 C770 1.250 . S
O768 Mg769 2.028 . S
O768 C770 1.248 . S
Mg769 O768 2.028 . S
Mg769 O774 2.032 . S
Mg769 O776 2.079 . S
C770 O767 1.250 . S
C770 O768 1.248 . S
C771 O772 1.264 . S
C771 O779 1.249 . S
O772 C771 1.264 . S
O773 Mg766 1.986 . S
O773 C777 1.246 . S
O774 Mg769 2.032 . S
O774 C777 1.259 . S
O775 Mg766 2.114 . S
O775 C778 1.252 . S
O776 Mg766 2.251 . S
O776 Mg769 2.079 . S
O776 C778 1.273 . S
C777 O773 1.246 . S
C777 O774 1.259 . S
C778 O775 1.252 . S
C778 O776 1.273 . S
O779 Mg766 2.010 . S
O779 C771 1.249 . S
Mg780 O781 2.028 1_655 S
Mg780 O787 1.999 . S
Mg780 O789 2.114 . S
Mg780 O790 2.251 1_655 S
Mg780 O793 2.010 . S
O781 Mg780 2.028 1_455 S
O781 C784 1.250 . S
O782 Mg783 2.028 . S
O782 C784 1.248 . S
Mg783 O782 2.028 . S
Mg783 O788 2.032 . S
Mg783 O790 2.079 . S
C784 O781 1.250 . S
C784 O782 1.248 . S
C785 O786 1.264 . S
C785 O793 1.249 . S
O786 C785 1.264 . S
O787 Mg780 1.999 . S
O787 C791 1.211 1_655 S
O788 Mg783 2.032 . S
O788 C791 1.259 . S
O789 Mg780 2.114 . S
O789 C792 1.252 . S
O790 Mg780 2.251 1_455 S
O790 Mg783 2.079 . S
O790 C792 1.273 1_455 S
C791 O787 1.211 1_455 S
C791 O788 1.259 . S
C792 O789 1.252 . S
C792 O790 1.273 1_655 S
O793 Mg780 2.010 . S
O793 C785 1.249 . S
Mg794 O795 2.028 . S
Mg794 O801 1.986 . S
Mg794 O803 2.114 . S
Mg794 O804 2.251 . S
Mg794 O807 2.010 . S
O795 Mg794 2.028 . S
O795 C798 1.250 . S
O796 Mg797 2.028 . S
O796 C798 1.248 . S
Mg797 O796 2.028 . S
Mg797 O802 2.032 . S
Mg797 O804 2.079 . S
C798 O795 1.250 . S
C798 O796 1.248 . S
C799 O800 1.264 . S
C799 O807 1.249 . S
O800 C799 1.264 . S
O801 Mg794 1.986 . S
O801 C805 1.246 . S
O802 Mg797 2.032 . S
O802 C805 1.259 . S
O803 Mg794 2.114 . S
O803 C806 1.252 . S
O804 Mg794 2.251 . S
O804 Mg797 2.079 . S
O804 C806 1.273 . S
C805 O801 1.246 . S
C805 O802 1.259 . S
C806 O803 1.252 . S
C806 O804 1.273 . S
O807 Mg794 2.010 . S
O807 C799 1.249 . S
H808 C816 0.929 . S
H809 C818 0.930 . S
H810 C820 0.930 . S
H811 C823 0.929 . S
H812 C826 0.930 . S
H813 C828 0.960 . S
H814 C828 0.960 . S
H815 C828 0.960 . S
C816 H808 0.929 . S
C816 C817 1.377 . S
C816 C818 1.384 . S
C817 C816 1.377 . S
C817 C823 1.390 . S
C818 H809 0.930 . S
C818 C816 1.384 . S
C818 C819 1.372 . S
C819 C818 1.372 . S
C819 C820 1.400 . S
C819 C824 1.490 . S
C820 H810 0.930 . S
C820 C819 1.400 . S
C820 C823 1.386 . S
H821 C837 0.930 . S
H822 C838 0.931 . S
C823 H811 0.929 . S
C823 C817 1.390 . S
C823 C820 1.386 . S
C824 C819 1.490 . S
C824 C826 1.395 . S
C824 C827 1.403 . S
H825 C831 0.930 . S
C826 H812 0.930 . S
C826 C824 1.395 . S
C826 C829 1.403 . S
C827 C824 1.403 . S
C827 C828 1.524 . S
C827 C831 1.400 . S
C828 H813 0.960 . S
C828 H814 0.960 . S
C828 H815 0.960 . S
C828 C827 1.524 . S
C829 C826 1.403 . S
C829 C830 1.392 . S
C829 C833 1.495 . S
C830 C829 1.392 . S
C830 C831 1.385 . S
C830 C832 1.478 . S
C831 H825 0.930 . S
C831 C827 1.400 . S
C831 C830 1.385 . S
C832 C830 1.478 . S
C832 C834 1.381 . S
C832 C838 1.383 . S
C833 C829 1.495 . S
C833 H839 0.959 . S
C833 H840 0.961 . S
C833 H841 0.960 . S
C834 C832 1.381 . S
C834 C835 1.394 . S
C834 H842 0.930 . S
C835 C834 1.394 . S
C835 C836 1.383 . S
C835 H843 0.929 . S
C836 C835 1.383 . S
C836 C837 1.377 . S
C837 H821 0.930 . S
C837 C836 1.377 . S
C837 C838 1.379 . S
C838 H822 0.931 . S
C838 C832 1.383 . S
C838 C837 1.379 . S
H839 C833 0.959 . S
H840 C833 0.961 . S
H841 C833 0.960 . S
H842 C834 0.930 . S
H843 C835 0.929 . S
H844 C852 0.929 . S
H845 C854 0.930 . S
H846 C856 0.930 . S
H847 C859 0.929 . S
H848 C862 0.930 . S
H849 C864 0.960 . S
H850 C864 0.960 . S
H851 C864 0.960 . S
C852 H844 0.929 . S
C852 C853 1.377 . S
C852 C854 1.384 . S
C853 C852 1.377 . S
C853 C859 1.390 . S
C854 H845 0.930 . S
C854 C852 1.384 . S
C854 C855 1.372 . S
C855 C854 1.372 . S
C855 C856 1.400 . S
C855 C860 1.490 . S
C856 H846 0.930 . S
C856 C855 1.400 . S
C856 C859 1.386 . S
H857 C873 0.930 . S
H858 C874 0.931 . S
C859 H847 0.929 . S
C859 C853 1.390 . S
C859 C856 1.386 . S
C860 C855 1.490 . S
C860 C862 1.395 . S
C860 C863 1.403 . S
H861 C867 0.930 . S
C862 H848 0.930 . S
C862 C860 1.395 . S
C862 C865 1.403 . S
C863 C860 1.403 . S
C863 C864 1.524 . S
C863 C867 1.400 . S
C864 H849 0.960 . S
C864 H850 0.960 . S
C864 H851 0.960 . S
C864 C863 1.524 . S
C865 C862 1.403 . S
C865 C866 1.392 . S
C865 C869 1.495 . S
C866 C865 1.392 . S
C866 C867 1.385 . S
C866 C868 1.478 . S
C867 H861 0.930 . S
C867 C863 1.400 . S
C867 C866 1.385 . S
C868 C866 1.478 . S
C868 C870 1.381 . S
C868 C874 1.383 . S
C869 C865 1.495 . S
C869 H875 0.959 . S
C869 H876 0.961 . S
C869 H877 0.960 . S
C870 C868 1.381 . S
C870 C871 1.394 . S
C870 H878 0.930 . S
C871 C870 1.394 . S
C871 C872 1.383 . S
C871 H879 0.929 . S
C872 C871 1.383 . S
C872 C873 1.377 . S
C873 H857 0.930 . S
C873 C872 1.377 . S
C873 C874 1.379 . S
C874 H858 0.931 . S
C874 C868 1.383 . S
C874 C873 1.379 . S
H875 C869 0.959 . S
H876 C869 0.961 . S
H877 C869 0.960 . S
H878 C870 0.930 . S
H879 C871 0.929 . S
H880 C888 0.929 . S
H881 C890 0.930 . S
H882 C892 0.930 . S
H883 C895 0.929 . S
H884 C898 0.930 . S
H885 C900 0.960 . S
H886 C900 0.960 . S
H887 C900 0.960 . S
C888 H880 0.929 . S
C888 C889 1.377 . S
C888 C890 1.384 . S
C889 C888 1.377 . S
C889 C895 1.390 . S
C890 H881 0.930 . S
C890 C888 1.384 . S
C890 C891 1.372 . S
C891 C890 1.372 . S
C891 C892 1.400 . S
C891 C896 1.490 . S
C892 H882 0.930 . S
C892 C891 1.400 . S
C892 C895 1.386 . S
H893 C909 0.930 . S
H894 C910 0.931 . S
C895 H883 0.929 . S
C895 C889 1.390 . S
C895 C892 1.386 . S
C896 C891 1.490 . S
C896 C898 1.395 . S
C896 C899 1.403 . S
H897 C903 0.930 . S
C898 H884 0.930 . S
C898 C896 1.395 . S
C898 C901 1.403 . S
C899 C896 1.403 . S
C899 C900 1.524 . S
C899 C903 1.400 . S
C900 H885 0.960 . S
C900 H886 0.960 . S
C900 H887 0.960 . S
C900 C899 1.524 . S
C901 C898 1.403 . S
C901 C902 1.392 . S
C901 C905 1.495 . S
C902 C901 1.392 . S
C902 C903 1.385 . S
C902 C904 1.478 . S
C903 H897 0.930 . S
C903 C899 1.400 . S
C903 C902 1.385 . S
C904 C902 1.478 . S
C904 C906 1.381 . S
C904 C910 1.383 . S
C905 C901 1.495 . S
C905 H911 0.959 . S
C905 H912 0.961 . S
C905 H913 0.960 . S
C906 C904 1.381 . S
C906 C907 1.394 . S
C906 H914 0.930 . S
C907 C906 1.394 . S
C907 C908 1.383 . S
C907 H915 0.929 . S
C908 C907 1.383 . S
C908 C909 1.377 . S
C909 H893 0.930 . S
C909 C908 1.377 . S
C909 C910 1.379 . S
C910 H894 0.931 . S
C910 C904 1.383 . S
C910 C909 1.379 . S
H911 C905 0.959 . S
H912 C905 0.961 . S
H913 C905 0.960 . S
H914 C906 0.930 . S
H915 C907 0.929 . S
H916 C924 0.929 1_455 S
H917 C926 0.930 . S
H918 C928 0.930 . S
H919 C931 0.930 . S
H920 C934 0.930 . S
H921 C936 0.960 . S
H922 C936 0.960 . S
H923 C936 0.960 . S
C924 H916 0.929 1_655 S
C924 C925 1.377 . S
C924 C926 1.384 . S
C925 C924 1.377 . S
C925 C931 1.389 1_565 S
C926 H917 0.930 . S
C926 C924 1.384 . S
C926 C927 1.372 . S
C927 C926 1.372 . S
C927 C928 1.400 1_565 S
C927 C932 1.490 . S
C928 H918 0.930 . S
C928 C927 1.400 1_545 S
C928 C931 1.386 . S
H929 C945 0.930 . S
H930 C946 0.931 . S
C931 H919 0.930 . S
C931 C925 1.389 1_545 S
C931 C928 1.386 . S
C932 C927 1.490 . S
C932 C934 1.395 . S
C932 C935 1.403 1_565 S
H933 C939 0.930 . S
C934 H920 0.930 . S
C934 C932 1.395 . S
C934 C937 1.403 . S
C935 C932 1.403 1_545 S
C935 C936 1.524 . S
C935 C939 1.400 . S
C936 H921 0.960 . S
C936 H922 0.960 . S
C936 H923 0.960 . S
C936 C935 1.524 . S
C937 C934 1.403 . S
C937 C938 1.392 . S
C937 C941 1.495 . S
C938 C937 1.392 . S
C938 C939 1.385 1_565 S
C938 C940 1.471 1_565 S
C939 H933 0.930 . S
C939 C935 1.400 . S
C939 C938 1.385 1_545 S
C940 C938 1.471 1_545 S
C940 C942 1.364 1_545 S
C940 C946 1.410 . S
C941 C937 1.495 . S
C941 H947 0.959 . S
C941 H948 0.961 . S
C941 H949 0.960 . S
C942 C940 1.364 1_565 S
C942 C943 1.394 . S
C942 H950 0.930 . S
C943 C942 1.394 . S
C943 C944 1.383 1_565 S
C943 H951 0.929 . S
C944 C943 1.383 1_545 S
C944 C945 1.377 . S
C945 H929 0.930 . S
C945 C944 1.377 . S
C945 C946 1.379 . S
C946 H930 0.931 . S
C946 C940 1.410 . S
C946 C945 1.379 . S
H947 C941 0.959 . S
H948 C941 0.961 . S
H949 C941 0.960 . S
H950 C942 0.930 . S
H951 C943 0.929 . S
H952 C960 0.929 . S
H953 C962 0.930 . S
H954 C964 0.930 . S
H955 C967 0.929 . S
H956 C970 0.930 . S
H957 C972 0.960 . S
H958 C972 0.960 . S
H959 C972 0.960 . S
C960 H952 0.929 . S
C960 C961 1.377 . S
C960 C962 1.384 . S
C961 C960 1.377 . S
C961 C967 1.390 . S
C962 H953 0.930 . S
C962 C960 1.384 . S
C962 C963 1.372 . S
C963 C962 1.372 . S
C963 C964 1.400 . S
C963 C968 1.490 . S
C964 H954 0.930 . S
C964 C963 1.400 . S
C964 C967 1.386 . S
H965 C981 0.930 . S
H966 C982 0.931 . S
C967 H955 0.929 . S
C967 C961 1.390 . S
C967 C964 1.386 . S
C968 C963 1.490 . S
C968 C970 1.395 . S
C968 C971 1.403 . S
H969 C975 0.930 . S
C970 H956 0.930 . S
C970 C968 1.395 . S
C970 C973 1.403 . S
C971 C968 1.403 . S
C971 C972 1.524 . S
C971 C975 1.400 . S
C972 H957 0.960 . S
C972 H958 0.960 . S
C972 H959 0.960 . S
C972 C971 1.524 . S
C973 C970 1.403 . S
C973 C974 1.392 . S
C973 C977 1.495 . S
C974 C973 1.392 . S
C974 C975 1.385 . S
C974 C976 1.478 . S
C975 H969 0.930 . S
C975 C971 1.400 . S
C975 C974 1.385 . S
C976 C974 1.478 . S
C976 C978 1.381 . S
C976 C982 1.383 . S
C977 C973 1.495 . S
C977 H983 0.959 . S
C977 H984 0.961 . S
C977 H985 0.960 . S
C978 C976 1.381 . S
C978 C979 1.394 . S
C978 H986 0.930 . S
C979 C978 1.394 . S
C979 C980 1.383 . S
C979 H987 0.929 . S
C980 C979 1.383 . S
C980 C981 1.377 . S
C981 H965 0.930 . S
C981 C980 1.377 . S
C981 C982 1.379 . S
C982 H966 0.931 . S
C982 C976 1.383 . S
C982 C981 1.379 . S
H983 C977 0.959 . S
H984 C977 0.961 . S
H985 C977 0.960 . S
H986 C978 0.930 . S
H987 C979 0.929 . S
H988 C996 0.929 . S
H989 C998 0.930 . S
H990 C1000 0.930 . S
H991 C1003 0.929 . S
H992 C1006 0.930 . S
H993 C1008 0.960 . S
H994 C1008 0.960 . S
H995 C1008 0.960 . S
C996 H988 0.929 . S
C996 C997 1.377 . S
C996 C998 1.384 . S
C997 C996 1.377 . S
C997 C1003 1.390 . S
C998 H989 0.930 . S
C998 C996 1.384 . S
C998 C999 1.372 . S
C999 C998 1.372 . S
C999 C1000 1.400 . S
C999 C1004 1.490 . S
C1000 H990 0.930 . S
C1000 C999 1.400 . S
C1000 C1003 1.386 . S
H1001 C1017 0.930 . S
H1002 C1018 0.931 . S
C1003 H991 0.929 . S
C1003 C997 1.390 . S
C1003 C1000 1.386 . S
C1004 C999 1.490 . S
C1004 C1006 1.395 . S
C1004 C1007 1.403 . S
H1005 C1011 0.930 . S
C1006 H992 0.930 . S
C1006 C1004 1.395 . S
C1006 C1009 1.403 . S
C1007 C1004 1.403 . S
C1007 C1008 1.524 . S
C1007 C1011 1.400 . S
C1008 H993 0.960 . S
C1008 H994 0.960 . S
C1008 H995 0.960 . S
C1008 C1007 1.524 . S
C1009 C1006 1.403 . S
C1009 C1010 1.392 . S
C1009 C1013 1.495 . S
C1010 C1009 1.392 . S
C1010 C1011 1.385 . S
C1010 C1012 1.478 . S
C1011 H1005 0.930 . S
C1011 C1007 1.400 . S
C1011 C1010 1.385 . S
C1012 C1010 1.478 . S
C1012 C1014 1.381 . S
C1012 C1018 1.383 . S
C1013 C1009 1.495 . S
C1013 H1019 0.959 . S
C1013 H1020 0.961 . S
C1013 H1021 0.960 . S
C1014 C1012 1.381 . S
C1014 C1015 1.394 . S
C1014 H1022 0.930 . S
C1015 C1014 1.394 . S
C1015 C1016 1.383 . S
C1015 H1023 0.929 . S
C1016 C1015 1.383 . S
C1016 C1017 1.377 . S
C1017 H1001 0.930 . S
C1017 C1016 1.377 . S
C1017 C1018 1.379 . S
C1018 H1002 0.931 . S
C1018 C1012 1.383 . S
C1018 C1017 1.379 . S
H1019 C1013 0.959 . S
H1020 C1013 0.961 . S
H1021 C1013 0.960 . S
H1022 C1014 0.930 . S
H1023 C1015 0.929 . S
H1024 C1032 0.929 . S
H1025 C1034 0.930 . S
H1026 C1036 0.930 . S
H1027 C1039 0.929 . S
H1028 C1042 0.930 . S
H1029 C1044 0.960 . S
H1030 C1044 0.960 . S
H1031 C1044 0.960 . S
C1032 H1024 0.929 . S
C1032 C1033 1.377 . S
C1032 C1034 1.384 . S
C1033 C1032 1.377 . S
C1033 C1039 1.390 . S
C1034 H1025 0.930 . S
C1034 C1032 1.384 . S
C1034 C1035 1.372 . S
C1035 C1034 1.372 . S
C1035 C1036 1.400 . S
C1035 C1040 1.490 . S
C1036 H1026 0.930 . S
C1036 C1035 1.400 . S
C1036 C1039 1.386 . S
H1037 C1053 0.930 . S
H1038 C1054 0.931 . S
C1039 H1027 0.929 . S
C1039 C1033 1.390 . S
C1039 C1036 1.386 . S
C1040 C1035 1.490 . S
C1040 C1042 1.395 . S
C1040 C1043 1.403 . S
H1041 C1047 0.930 . S
C1042 H1028 0.930 . S
C1042 C1040 1.395 . S
C1042 C1045 1.403 . S
C1043 C1040 1.403 . S
C1043 C1044 1.524 . S
C1043 C1047 1.400 . S
C1044 H1029 0.960 . S
C1044 H1030 0.960 . S
C1044 H1031 0.960 . S
C1044 C1043 1.524 . S
C1045 C1042 1.403 . S
C1045 C1046 1.392 . S
C1045 C1049 1.495 . S
C1046 C1045 1.392 . S
C1046 C1047 1.385 . S
C1046 C1048 1.478 . S
C1047 H1041 0.930 . S
C1047 C1043 1.400 . S
C1047 C1046 1.385 . S
C1048 C1046 1.478 . S
C1048 C1050 1.381 . S
C1048 C1054 1.383 . S
C1049 C1045 1.495 . S
C1049 H1055 0.959 . S
C1049 H1056 0.961 . S
C1049 H1057 0.960 . S
C1050 C1048 1.381 . S
C1050 C1051 1.394 . S
C1050 H1058 0.930 . S
C1051 C1050 1.394 . S
C1051 C1052 1.383 . S
C1051 H1059 0.929 . S
C1052 C1051 1.383 . S
C1052 C1053 1.377 . S
C1053 H1037 0.930 . S
C1053 C1052 1.377 . S
C1053 C1054 1.379 . S
C1054 H1038 0.931 . S
C1054 C1048 1.383 . S
C1054 C1053 1.379 . S
H1055 C1049 0.959 . S
H1056 C1049 0.961 . S
H1057 C1049 0.960 . S
H1058 C1050 0.930 . S
H1059 C1051 0.929 . S
H1060 C1068 0.929 . S
H1061 C1070 0.930 . S
H1062 C1072 0.914 1_545 S
H1063 C1075 0.929 . S
H1064 C1078 0.930 . S
H1065 C1080 0.960 . S
H1066 C1080 0.960 . S
H1067 C1080 0.960 . S
C1068 H1060 0.929 . S
C1068 C1069 1.377 . S
C1068 C1070 1.384 . S
C1069 C1068 1.377 . S
C1069 C1075 1.390 . S
C1070 H1061 0.930 . S
C1070 C1068 1.384 . S
C1070 C1071 1.372 . S
C1071 C1070 1.372 . S
C1071 C1072 1.400 . S
C1071 C1076 1.490 . S
C1072 H1062 0.914 1_565 S
C1072 C1071 1.400 . S
C1072 C1075 1.386 . S
H1073 C1089 0.930 . S
H1074 C1090 0.931 . S
C1075 H1063 0.929 . S
C1075 C1069 1.390 . S
C1075 C1072 1.386 . S
C1076 C1071 1.490 . S
C1076 C1078 1.395 . S
C1076 C1079 1.403 . S
H1077 C1083 0.930 . S
C1078 H1064 0.930 . S
C1078 C1076 1.395 . S
C1078 C1081 1.403 . S
C1079 C1076 1.403 . S
C1079 C1080 1.524 . S
C1079 C1083 1.400 . S
C1080 H1065 0.960 . S
C1080 H1066 0.960 . S
C1080 H1067 0.960 . S
C1080 C1079 1.524 . S
C1081 C1078 1.403 . S
C1081 C1082 1.392 . S
C1081 C1085 1.495 . S
C1082 C1081 1.392 . S
C1082 C1083 1.385 . S
C1082 C1084 1.478 . S
C1083 H1077 0.930 . S
C1083 C1079 1.400 . S
C1083 C1082 1.385 . S
C1084 C1082 1.478 . S
C1084 C1086 1.381 . S
C1084 C1090 1.383 1_565 S
C1085 C1081 1.495 . S
C1085 H1091 0.959 . S
C1085 H1092 0.934 1_565 S
C1085 H1093 0.960 . S
C1086 C1084 1.381 . S
C1086 C1087 1.394 . S
C1086 H1094 0.930 . S
C1087 C1086 1.394 . S
C1087 C1088 1.383 . S
C1087 H1095 0.929 . S
C1088 C1087 1.383 . S
C1088 C1089 1.377 1_565 S
C1089 H1073 0.930 . S
C1089 C1088 1.377 1_545 S
C1089 C1090 1.379 . S
C1090 H1074 0.931 . S
C1090 C1084 1.383 1_545 S
C1090 C1089 1.379 . S
H1091 C1085 0.959 . S
H1092 C1085 0.934 1_545 S
H1093 C1085 0.960 . S
H1094 C1086 0.930 . S
H1095 C1087 0.929 . S
H1096 C1104 0.929 . S
H1097 C1106 0.930 . S
H1098 C1108 0.930 . S
H1099 C1111 0.929 . S
H1100 C1114 0.930 . S
H1101 C1116 0.960 . S
H1102 C1116 0.960 . S
H1103 C1116 0.960 . S
C1104 H1096 0.929 . S
C1104 C1105 1.377 . S
C1104 C1106 1.384 . S
C1105 C1104 1.377 . S
C1105 C1111 1.390 . S
C1106 H1097 0.930 . S
C1106 C1104 1.384 . S
C1106 C1107 1.372 . S
C1107 C1106 1.372 . S
C1107 C1108 1.400 . S
C1107 C1112 1.490 . S
C1108 H1098 0.930 . S
C1108 C1107 1.400 . S
C1108 C1111 1.386 . S
H1109 C1125 0.930 . S
H1110 C1126 0.931 . S
C1111 H1099 0.929 . S
C1111 C1105 1.390 . S
C1111 C1108 1.386 . S
C1112 C1107 1.490 . S
C1112 C1114 1.395 . S
C1112 C1115 1.403 . S
H1113 C1119 0.930 . S
C1114 H1100 0.930 . S
C1114 C1112 1.395 . S
C1114 C1117 1.403 . S
C1115 C1112 1.403 . S
C1115 C1116 1.524 . S
C1115 C1119 1.400 . S
C1116 H1101 0.960 . S
C1116 H1102 0.960 . S
C1116 H1103 0.960 . S
C1116 C1115 1.524 . S
C1117 C1114 1.403 . S
C1117 C1118 1.392 . S
C1117 C1121 1.495 . S
C1118 C1117 1.392 . S
C1118 C1119 1.385 . S
C1118 C1120 1.478 . S
C1119 H1113 0.930 . S
C1119 C1115 1.400 . S
C1119 C1118 1.385 . S
C1120 C1118 1.478 . S
C1120 C1122 1.381 . S
C1120 C1126 1.383 . S
C1121 C1117 1.495 . S
C1121 H1127 0.959 . S
C1121 H1128 0.961 . S
C1121 H1129 0.960 . S
C1122 C1120 1.381 . S
C1122 C1123 1.394 . S
C1122 H1130 0.930 . S
C1123 C1122 1.394 . S
C1123 C1124 1.383 . S
C1123 H1131 0.929 . S
C1124 C1123 1.383 . S
C1124 C1125 1.377 . S
C1125 H1109 0.930 . S
C1125 C1124 1.377 . S
C1125 C1126 1.379 . S
C1126 H1110 0.931 . S
C1126 C1120 1.383 . S
C1126 C1125 1.379 . S
H1127 C1121 0.959 . S
H1128 C1121 0.961 . S
H1129 C1121 0.960 . S
H1130 C1122 0.930 . S
H1131 C1123 0.929 . S
H1132 C1140 0.929 . S
H1133 C1142 0.930 . S
H1134 C1144 0.930 . S
H1135 C1147 0.929 . S
H1136 C1150 0.930 . S
H1137 C1152 0.960 . S
H1138 C1152 0.960 . S
H1139 C1152 0.960 . S
C1140 H1132 0.929 . S
C1140 C1141 1.377 . S
C1140 C1142 1.384 . S
C1141 C1140 1.377 . S
C1141 C1147 1.390 . S
C1142 H1133 0.930 . S
C1142 C1140 1.384 . S
C1142 C1143 1.372 . S
C1143 C1142 1.372 . S
C1143 C1144 1.400 . S
C1143 C1148 1.490 . S
C1144 H1134 0.930 . S
C1144 C1143 1.400 . S
C1144 C1147 1.386 . S
H1145 C1161 0.930 . S
H1146 C1162 0.931 . S
C1147 H1135 0.929 . S
C1147 C1141 1.390 . S
C1147 C1144 1.386 . S
C1148 C1143 1.490 . S
C1148 C1150 1.395 . S
C1148 C1151 1.403 . S
H1149 C1155 0.930 . S
C1150 H1136 0.930 . S
C1150 C1148 1.395 . S
C1150 C1153 1.403 . S
C1151 C1148 1.403 . S
C1151 C1152 1.524 . S
C1151 C1155 1.400 . S
C1152 H1137 0.960 . S
C1152 H1138 0.960 . S
C1152 H1139 0.960 . S
C1152 C1151 1.524 . S
C1153 C1150 1.403 . S
C1153 C1154 1.392 . S
C1153 C1157 1.495 . S
C1154 C1153 1.392 . S
C1154 C1155 1.385 . S
C1154 C1156 1.478 . S
C1155 H1149 0.930 . S
C1155 C1151 1.400 . S
C1155 C1154 1.385 . S
C1156 C1154 1.478 . S
C1156 C1158 1.381 . S
C1156 C1162 1.383 . S
C1157 C1153 1.495 . S
C1157 H1163 0.959 . S
C1157 H1164 0.961 . S
C1157 H1165 0.960 . S
C1158 C1156 1.381 . S
C1158 C1159 1.394 . S
C1158 H1166 0.930 . S
C1159 C1158 1.394 . S
C1159 C1160 1.383 . S
C1159 H1167 0.929 . S
C1160 C1159 1.383 . S
C1160 C1161 1.377 . S
C1161 H1145 0.930 . S
C1161 C1160 1.377 . S
C1161 C1162 1.379 . S
C1162 H1146 0.931 . S
C1162 C1156 1.383 . S
C1162 C1161 1.379 . S
H1163 C1157 0.959 . S
H1164 C1157 0.961 . S
H1165 C1157 0.960 . S
H1166 C1158 0.930 . S
H1167 C1159 0.929 . S
H1168 C1176 0.929 . S
H1169 C1178 0.930 . S
H1170 C1180 0.930 . S
H1171 C1183 0.929 . S
H1172 C1186 0.930 . S
H1173 C1188 0.960 . S
H1174 C1188 0.960 . S
H1175 C1188 0.960 . S
C1176 H1168 0.929 . S
C1176 C1177 1.377 . S
C1176 C1178 1.384 . S
C1177 C1176 1.377 . S
C1177 C1183 1.390 . S
C1178 H1169 0.930 . S
C1178 C1176 1.384 . S
C1178 C1179 1.372 . S
C1179 C1178 1.372 . S
C1179 C1180 1.400 . S
C1179 C1184 1.490 . S
C1180 H1170 0.930 . S
C1180 C1179 1.400 . S
C1180 C1183 1.386 . S
H1181 C1197 0.930 . S
H1182 C1198 0.931 . S
C1183 H1171 0.929 . S
C1183 C1177 1.390 . S
C1183 C1180 1.386 . S
C1184 C1179 1.490 . S
C1184 C1186 1.395 . S
C1184 C1187 1.403 . S
H1185 C1191 0.930 . S
C1186 H1172 0.930 . S
C1186 C1184 1.395 . S
C1186 C1189 1.403 . S
C1187 C1184 1.403 . S
C1187 C1188 1.524 . S
C1187 C1191 1.400 . S
C1188 H1173 0.960 . S
C1188 H1174 0.960 . S
C1188 H1175 0.960 . S
C1188 C1187 1.524 . S
C1189 C1186 1.403 . S
C1189 C1190 1.392 . S
C1189 C1193 1.495 . S
C1190 C1189 1.392 . S
C1190 C1191 1.385 . S
C1190 C1192 1.478 . S
C1191 H1185 0.930 . S
C1191 C1187 1.400 . S
C1191 C1190 1.385 . S
C1192 C1190 1.478 . S
C1192 C1194 1.381 . S
C1192 C1198 1.383 . S
C1193 C1189 1.495 . S
C1193 H1199 0.959 . S
C1193 H1200 0.961 . S
C1193 H1201 0.960 . S
C1194 C1192 1.381 . S
C1194 C1195 1.394 . S
C1194 H1202 0.930 . S
C1195 C1194 1.394 . S
C1195 C1196 1.383 . S
C1195 H1203 0.929 . S
C1196 C1195 1.383 . S
C1196 C1197 1.377 . S
C1197 H1181 0.930 . S
C1197 C1196 1.377 . S
C1197 C1198 1.379 . S
C1198 H1182 0.931 . S
C1198 C1192 1.383 . S
C1198 C1197 1.379 . S
H1199 C1193 0.959 . S
H1200 C1193 0.961 . S
H1201 C1193 0.960 . S
H1202 C1194 0.930 . S
H1203 C1195 0.929 . S
H1204 C1212 0.929 . S
H1205 C1214 0.930 . S
H1206 C1216 0.930 . S
H1207 C1219 0.929 . S
H1208 C1222 0.930 . S
H1209 C1224 0.960 . S
H1210 C1224 0.960 . S
H1211 C1224 0.960 . S
C1212 H1204 0.929 . S
C1212 C1213 1.377 . S
C1212 C1214 1.384 . S
C1213 C1212 1.377 . S
C1213 C1219 1.390 . S
C1214 H1205 0.930 . S
C1214 C1212 1.384 . S
C1214 C1215 1.372 . S
C1215 C1214 1.372 . S
C1215 C1216 1.400 . S
C1215 C1220 1.490 . S
C1216 H1206 0.930 . S
C1216 C1215 1.400 . S
C1216 C1219 1.386 . S
H1217 C1233 0.930 . S
H1218 C1234 0.931 . S
C1219 H1207 0.929 . S
C1219 C1213 1.390 . S
C1219 C1216 1.386 . S
C1220 C1215 1.490 . S
C1220 C1222 1.395 . S
C1220 C1223 1.403 . S
H1221 C1227 0.930 . S
C1222 H1208 0.930 . S
C1222 C1220 1.395 . S
C1222 C1225 1.403 . S
C1223 C1220 1.403 . S
C1223 C1224 1.524 . S
C1223 C1227 1.400 . S
C1224 H1209 0.960 . S
C1224 H1210 0.960 . S
C1224 H1211 0.960 . S
C1224 C1223 1.524 . S
C1225 C1222 1.403 . S
C1225 C1226 1.392 . S
C1225 C1229 1.495 . S
C1226 C1225 1.392 . S
C1226 C1227 1.385 . S
C1226 C1228 1.478 . S
C1227 H1221 0.930 . S
C1227 C1223 1.400 . S
C1227 C1226 1.385 . S
C1228 C1226 1.478 . S
C1228 C1230 1.381 . S
C1228 C1234 1.383 . S
C1229 C1225 1.495 . S
C1229 H1235 0.959 . S
C1229 H1236 0.961 . S
C1229 H1237 0.960 . S
C1230 C1228 1.381 . S
C1230 C1231 1.394 . S
C1230 H1238 0.930 . S
C1231 C1230 1.394 . S
C1231 C1232 1.383 . S
C1231 H1239 0.929 . S
C1232 C1231 1.383 . S
C1232 C1233 1.377 . S
C1233 H1217 0.930 . S
C1233 C1232 1.377 . S
C1233 C1234 1.379 . S
C1234 H1218 0.931 . S
C1234 C1228 1.383 . S
C1234 C1233 1.379 . S
H1235 C1229 0.959 . S
H1236 C1229 0.961 . S
H1237 C1229 0.960 . S
H1238 C1230 0.930 . S
H1239 C1231 0.929 . S
H1240 C1248 0.929 . S
H1241 C1250 0.930 . S
H1242 C1252 0.930 . S
H1243 C1255 0.929 . S
H1244 C1258 0.930 . S
H1245 C1260 0.960 . S
H1246 C1260 0.960 . S
H1247 C1260 0.960 . S
C1248 H1240 0.929 . S
C1248 C1249 1.377 . S
C1248 C1250 1.384 . S
C1249 C1248 1.377 . S
C1249 C1255 1.390 . S
C1250 H1241 0.930 . S
C1250 C1248 1.384 . S
C1250 C1251 1.372 . S
C1251 C1250 1.372 . S
C1251 C1252 1.400 . S
C1251 C1256 1.490 . S
C1252 H1242 0.930 . S
C1252 C1251 1.400 . S
C1252 C1255 1.386 . S
H1253 C1269 0.930 . S
H1254 C1270 0.931 . S
C1255 H1243 0.929 . S
C1255 C1249 1.390 . S
C1255 C1252 1.386 . S
C1256 C1251 1.490 . S
C1256 C1258 1.395 . S
C1256 C1259 1.403 . S
H1257 C1263 0.930 . S
C1258 H1244 0.930 . S
C1258 C1256 1.395 . S
C1258 C1261 1.403 . S
C1259 C1256 1.403 . S
C1259 C1260 1.524 . S
C1259 C1263 1.400 . S
C1260 H1245 0.960 . S
C1260 H1246 0.960 . S
C1260 H1247 0.960 . S
C1260 C1259 1.524 . S
C1261 C1258 1.403 . S
C1261 C1262 1.392 . S
C1261 C1265 1.495 . S
C1262 C1261 1.392 . S
C1262 C1263 1.385 . S
C1262 C1264 1.478 . S
C1263 H1257 0.930 . S
C1263 C1259 1.400 . S
C1263 C1262 1.385 . S
C1264 C1262 1.478 . S
C1264 C1266 1.381 . S
C1264 C1270 1.383 . S
C1265 C1261 1.495 . S
C1265 H1271 0.959 . S
C1265 H1272 0.961 . S
C1265 H1273 0.960 . S
C1266 C1264 1.381 . S
C1266 C1267 1.394 . S
C1266 H1274 0.930 . S
C1267 C1266 1.394 . S
C1267 C1268 1.383 . S
C1267 H1275 0.929 . S
C1268 C1267 1.383 . S
C1268 C1269 1.377 . S
C1269 H1253 0.930 . S
C1269 C1268 1.377 . S
C1269 C1270 1.379 . S
C1270 H1254 0.931 . S
C1270 C1264 1.383 . S
C1270 C1269 1.379 . S
H1271 C1265 0.959 . S
H1272 C1265 0.961 . S
H1273 C1265 0.960 . S
H1274 C1266 0.930 . S
H1275 C1267 0.929 . S
H1276 C1284 0.929 . S
H1277 C1286 0.930 . S
H1278 C1288 0.930 . S
H1279 C1291 0.929 . S
H1280 C1294 0.930 . S
H1281 C1296 0.960 . S
H1282 C1296 0.960 . S
H1283 C1296 0.960 . S
C1284 H1276 0.929 . S
C1284 C1285 1.377 . S
C1284 C1286 1.384 . S
C1285 C1284 1.377 . S
C1285 C1291 1.390 . S
C1286 H1277 0.930 . S
C1286 C1284 1.384 . S
C1286 C1287 1.372 . S
C1287 C1286 1.372 . S
C1287 C1288 1.400 . S
C1287 C1292 1.490 . S
C1288 H1278 0.930 . S
C1288 C1287 1.400 . S
C1288 C1291 1.386 . S
H1289 C1305 0.975 . S
H1290 C1306 0.931 . S
C1291 H1279 0.929 . S
C1291 C1285 1.390 . S
C1291 C1288 1.386 . S
C1292 C1287 1.490 . S
C1292 C1294 1.395 . S
C1292 C1295 1.403 . S
H1293 C1299 0.940 . S
C1294 H1280 0.930 . S
C1294 C1292 1.395 . S
C1294 C1297 1.403 . S
C1295 C1292 1.403 . S
C1295 C1296 1.524 1_455 S
C1295 C1299 1.400 . S
C1296 H1281 0.960 . S
C1296 H1282 0.960 . S
C1296 H1283 0.960 . S
C1296 C1295 1.524 1_655 S
C1297 C1294 1.403 . S
C1297 C1298 1.392 . S
C1297 C1301 1.495 . S
C1298 C1297 1.392 . S
C1298 C1299 1.385 . S
C1298 C1300 1.478 . S
C1299 H1293 0.940 . S
C1299 C1295 1.400 . S
C1299 C1298 1.385 . S
C1300 C1298 1.478 . S
C1300 C1302 1.381 . S
C1300 C1306 1.383 . S
C1301 C1297 1.495 . S
C1301 H1307 0.959 . S
C1301 H1308 0.961 . S
C1301 H1309 0.960 . S
C1302 C1300 1.381 . S
C1302 C1303 1.394 . S
C1302 H1310 0.930 . S
C1303 C1302 1.394 . S
C1303 C1304 1.383 . S
C1303 H1311 0.929 . S
C1304 C1303 1.383 . S
C1304 C1305 1.377 . S
C1305 H1289 0.975 . S
C1305 C1304 1.377 . S
C1305 C1306 1.379 . S
C1306 H1290 0.931 . S
C1306 C1300 1.383 . S
C1306 C1305 1.379 . S
H1307 C1301 0.959 . S
H1308 C1301 0.961 . S
H1309 C1301 0.960 . S
H1310 C1302 0.930 . S
H1311 C1303 0.929 . S
H1312 C1320 0.929 . S
H1313 C1322 0.930 . S
H1314 C1324 0.930 . S
H1315 C1327 0.929 . S
H1316 C1330 0.930 . S
H1317 C1332 0.960 . S
H1318 C1332 0.960 . S
H1319 C1332 0.960 . S
C1320 H1312 0.929 . S
C1320 C1321 1.377 . S
C1320 C1322 1.384 . S
C1321 C1320 1.377 . S
C1321 C1327 1.390 . S
C1322 H1313 0.930 . S
C1322 C1320 1.384 . S
C1322 C1323 1.372 . S
C1323 C1322 1.372 . S
C1323 C1324 1.400 . S
C1323 C1328 1.490 . S
C1324 H1314 0.930 . S
C1324 C1323 1.400 . S
C1324 C1327 1.386 . S
H1325 C1341 0.930 . S
H1326 C1342 0.931 . S
C1327 H1315 0.929 . S
C1327 C1321 1.390 . S
C1327 C1324 1.386 . S
C1328 C1323 1.490 . S
C1328 C1330 1.395 . S
C1328 C1331 1.403 . S
H1329 C1335 0.930 . S
C1330 H1316 0.930 . S
C1330 C1328 1.395 . S
C1330 C1333 1.403 . S
C1331 C1328 1.403 . S
C1331 C1332 1.524 . S
C1331 C1335 1.400 . S
C1332 H1317 0.960 . S
C1332 H1318 0.960 . S
C1332 H1319 0.960 . S
C1332 C1331 1.524 . S
C1333 C1330 1.403 . S
C1333 C1334 1.392 . S
C1333 C1337 1.495 . S
C1334 C1333 1.392 . S
C1334 C1335 1.385 . S
C1334 C1336 1.478 . S
C1335 H1329 0.930 . S
C1335 C1331 1.400 . S
C1335 C1334 1.385 . S
C1336 C1334 1.478 . S
C1336 C1338 1.381 . S
C1336 C1342 1.383 . S
C1337 C1333 1.495 . S
C1337 H1343 0.959 . S
C1337 H1344 0.961 . S
C1337 H1345 0.960 . S
C1338 C1336 1.381 . S
C1338 C1339 1.394 . S
C1338 H1346 0.930 . S
C1339 C1338 1.394 . S
C1339 C1340 1.383 . S
C1339 H1347 0.929 . S
C1340 C1339 1.383 . S
C1340 C1341 1.377 . S
C1341 H1325 0.930 . S
C1341 C1340 1.377 . S
C1341 C1342 1.379 . S
C1342 H1326 0.931 . S
C1342 C1336 1.383 . S
C1342 C1341 1.379 . S
H1343 C1337 0.959 . S
H1344 C1337 0.961 . S
H1345 C1337 0.960 . S
H1346 C1338 0.930 . S
H1347 C1339 0.929 . S
H1348 C1356 0.929 . S
H1349 C1358 0.930 . S
H1350 C1360 0.930 . S
H1351 C1363 0.929 . S
H1352 C1366 0.930 . S
H1353 C1368 0.960 . S
H1354 C1368 0.960 . S
H1355 C1368 0.960 . S
C1356 H1348 0.929 . S
C1356 C1357 1.377 . S
C1356 C1358 1.384 . S
C1357 C1356 1.377 . S
C1357 C1363 1.390 . S
C1358 H1349 0.930 . S
C1358 C1356 1.384 . S
C1358 C1359 1.372 . S
C1359 C1358 1.372 . S
C1359 C1360 1.400 . S
C1359 C1364 1.490 . S
C1360 H1350 0.930 . S
C1360 C1359 1.400 . S
C1360 C1363 1.386 . S
H1361 C1377 0.930 . S
H1362 C1378 0.931 . S
C1363 H1351 0.929 . S
C1363 C1357 1.390 . S
C1363 C1360 1.386 . S
C1364 C1359 1.490 . S
C1364 C1366 1.395 1_655 S
C1364 C1367 1.403 . S
H1365 C1371 0.930 . S
C1366 H1352 0.930 . S
C1366 C1364 1.395 1_455 S
C1366 C1369 1.403 . S
C1367 C1364 1.403 . S
C1367 C1368 1.524 . S
C1367 C1371 1.400 . S
C1368 H1353 0.960 . S
C1368 H1354 0.960 . S
C1368 H1355 0.960 . S
C1368 C1367 1.524 . S
C1369 C1366 1.403 . S
C1369 C1370 1.392 1_455 S
C1369 C1373 1.495 . S
C1370 C1369 1.392 1_655 S
C1370 C1371 1.385 . S
C1370 C1372 1.478 . S
C1371 H1365 0.930 . S
C1371 C1367 1.400 . S
C1371 C1370 1.385 . S
C1372 C1370 1.478 . S
C1372 C1374 1.381 1_655 S
C1372 C1378 1.383 . S
C1373 C1369 1.495 . S
C1373 H1379 0.959 . S
C1373 H1380 0.961 . S
C1373 H1381 0.960 . S
C1374 C1372 1.381 1_455 S
C1374 C1375 1.394 . S
C1374 H1382 0.930 . S
C1375 C1374 1.394 . S
C1375 C1376 1.383 1_455 S
C1375 H1383 0.929 . S
C1376 C1375 1.383 1_655 S
C1376 C1377 1.377 . S
C1377 H1361 0.930 . S
C1377 C1376 1.377 . S
C1377 C1378 1.379 . S
C1378 H1362 0.931 . S
C1378 C1372 1.383 . S
C1378 C1377 1.379 . S
H1379 C1373 0.959 . S
H1380 C1373 0.961 . S
H1381 C1373 0.960 . S
H1382 C1374 0.930 . S
H1383 C1375 0.929 . S
H1384 C1392 0.929 . S
H1385 C1394 0.930 . S
H1386 C1396 0.930 . S
H1387 C1399 0.929 . S
H1388 C1402 0.930 . S
H1389 C1404 0.960 . S
H1390 C1404 0.960 . S
H1391 C1404 0.960 . S
C1392 H1384 0.929 . S
C1392 C1393 1.377 . S
C1392 C1394 1.384 . S
C1393 C1392 1.377 . S
C1393 C1399 1.390 . S
C1394 H1385 0.930 . S
C1394 C1392 1.384 . S
C1394 C1395 1.372 . S
C1395 C1394 1.372 . S
C1395 C1396 1.400 . S
C1395 C1400 1.490 . S
C1396 H1386 0.930 . S
C1396 C1395 1.400 . S
C1396 C1399 1.386 . S
H1397 C1413 0.930 . S
H1398 C1414 0.931 . S
C1399 H1387 0.929 . S
C1399 C1393 1.390 . S
C1399 C1396 1.386 . S
C1400 C1395 1.490 . S
C1400 C1402 1.395 . S
C1400 C1403 1.403 . S
H1401 C1407 0.930 . S
C1402 H1388 0.930 . S
C1402 C1400 1.395 . S
C1402 C1405 1.403 . S
C1403 C1400 1.403 . S
C1403 C1404 1.524 . S
C1403 C1407 1.400 . S
C1404 H1389 0.960 . S
C1404 H1390 0.960 . S
C1404 H1391 0.960 . S
C1404 C1403 1.524 . S
C1405 C1402 1.403 . S
C1405 C1406 1.392 . S
C1405 C1409 1.495 . S
C1406 C1405 1.392 . S
C1406 C1407 1.385 . S
C1406 C1408 1.478 . S
C1407 H1401 0.930 . S
C1407 C1403 1.400 . S
C1407 C1406 1.385 . S
C1408 C1406 1.478 . S
C1408 C1410 1.381 . S
C1408 C1414 1.383 . S
C1409 C1405 1.495 . S
C1409 H1415 0.959 . S
C1409 H1416 0.961 . S
C1409 H1417 0.960 . S
C1410 C1408 1.381 . S
C1410 C1411 1.394 . S
C1410 H1418 0.930 . S
C1411 C1410 1.394 . S
C1411 C1412 1.383 . S
C1411 H1419 0.929 . S
C1412 C1411 1.383 . S
C1412 C1413 1.377 . S
C1413 H1397 0.930 . S
C1413 C1412 1.377 . S
C1413 C1414 1.379 . S
C1414 H1398 0.931 . S
C1414 C1408 1.383 . S
C1414 C1413 1.379 . S
H1415 C1409 0.959 . S
H1416 C1409 0.961 . S
H1417 C1409 0.960 . S
H1418 C1410 0.930 . S
H1419 C1411 0.929 . S
H1420 C1428 0.929 . S
H1421 C1430 0.930 . S
H1422 C1432 0.930 . S
H1423 C1435 0.929 . S
H1424 C1438 0.930 . S
H1425 C1440 0.960 . S
H1426 C1440 0.960 . S
H1427 C1440 0.960 . S
C1428 H1420 0.929 . S
C1428 C1429 1.377 . S
C1428 C1430 1.384 . S
C1429 C1428 1.377 . S
C1429 C1435 1.390 . S
C1430 H1421 0.930 . S
C1430 C1428 1.384 . S
C1430 C1431 1.372 . S
C1431 C1430 1.372 . S
C1431 C1432 1.400 . S
C1431 C1436 1.490 . S
C1432 H1422 0.930 . S
C1432 C1431 1.400 . S
C1432 C1435 1.386 . S
H1433 C1449 0.930 . S
H1434 C1450 0.931 . S
C1435 H1423 0.929 . S
C1435 C1429 1.390 . S
C1435 C1432 1.386 . S
C1436 C1431 1.490 . S
C1436 C1438 1.395 . S
C1436 C1439 1.403 . S
H1437 C1443 0.930 . S
C1438 H1424 0.930 . S
C1438 C1436 1.395 . S
C1438 C1441 1.403 . S
C1439 C1436 1.403 . S
C1439 C1440 1.524 . S
C1439 C1443 1.400 . S
C1440 H1425 0.960 . S
C1440 H1426 0.960 . S
C1440 H1427 0.960 . S
C1440 C1439 1.524 . S
C1441 C1438 1.403 . S
C1441 C1442 1.392 . S
C1441 C1445 1.495 . S
C1442 C1441 1.392 . S
C1442 C1443 1.385 . S
C1442 C1444 1.478 . S
C1443 H1437 0.930 . S
C1443 C1439 1.400 . S
C1443 C1442 1.385 . S
C1444 C1442 1.478 . S
C1444 C1446 1.381 . S
C1444 C1450 1.383 . S
C1445 C1441 1.495 . S
C1445 H1451 0.959 . S
C1445 H1452 0.961 . S
C1445 H1453 0.960 . S
C1446 C1444 1.381 . S
C1446 C1447 1.394 . S
C1446 H1454 0.930 . S
C1447 C1446 1.394 . S
C1447 C1448 1.383 . S
C1447 H1455 0.929 . S
C1448 C1447 1.383 . S
C1448 C1449 1.377 . S
C1449 H1433 0.930 . S
C1449 C1448 1.377 . S
C1449 C1450 1.379 . S
C1450 H1434 0.931 . S
C1450 C1444 1.383 . S
C1450 C1449 1.379 . S
H1451 C1445 0.959 . S
H1452 C1445 0.961 . S
H1453 C1445 0.960 . S
H1454 C1446 0.930 . S
H1455 C1447 0.929 . S
H1456 C1464 0.929 . S
H1457 C1466 0.930 . S
H1458 C1468 0.930 . S
H1459 C1471 0.929 . S
H1460 C1474 0.947 . S
H1461 C1476 0.960 . S
H1462 C1476 0.960 . S
H1463 C1476 0.960 . S
C1464 H1456 0.929 . S
C1464 C1465 1.377 . S
C1464 C1466 1.384 . S
C1465 C1464 1.377 . S
C1465 C1471 1.390 . S
C1466 H1457 0.930 . S
C1466 C1464 1.384 . S
C1466 C1467 1.372 . S
C1467 C1466 1.372 . S
C1467 C1468 1.400 . S
C1467 C1472 1.490 . S
C1468 H1458 0.930 . S
C1468 C1467 1.400 . S
C1468 C1471 1.386 . S
H1469 C1485 0.930 . S
H1470 C1486 0.931 . S
C1471 H1459 0.929 . S
C1471 C1465 1.390 . S
C1471 C1468 1.386 . S
C1472 C1467 1.490 . S
C1472 C1474 1.370 1_556 S
C1472 C1475 1.403 . S
H1473 C1479 0.930 . S
C1474 H1460 0.947 . S
C1474 C1472 1.370 1_554 S
C1474 C1477 1.413 . S
C1475 C1472 1.403 . S
C1475 C1476 1.524 . S
C1475 C1479 1.400 . S
C1476 H1461 0.960 . S
C1476 H1462 0.960 . S
C1476 H1463 0.960 . S
C1476 C1475 1.524 . S
C1477 C1474 1.413 . S
C1477 C1478 1.392 1_554 S
C1477 C1481 1.495 . S
C1478 C1477 1.392 1_556 S
C1478 C1479 1.385 . S
C1478 C1480 1.478 . S
C1479 H1473 0.930 . S
C1479 C1475 1.400 . S
C1479 C1478 1.385 . S
C1480 C1478 1.478 . S
C1480 C1482 1.381 . S
C1480 C1486 1.383 1_556 S
C1481 C1477 1.495 . S
C1481 H1487 0.959 . S
C1481 H1488 0.961 . S
C1481 H1489 0.960 . S
C1482 C1480 1.381 . S
C1482 C1483 1.394 . S
C1482 H1490 0.930 . S
C1483 C1482 1.394 . S
C1483 C1484 1.359 1_556 S
C1483 H1491 0.929 . S
C1484 C1483 1.359 1_554 S
C1484 C1485 1.395 . S
C1485 H1469 0.930 . S
C1485 C1484 1.395 . S
C1485 C1486 1.379 . S
C1486 H1470 0.931 . S
C1486 C1480 1.383 1_554 S
C1486 C1485 1.379 . S
H1487 C1481 0.959 . S
H1488 C1481 0.961 . S
H1489 C1481 0.960 . S
H1490 C1482 0.930 . S
H1491 C1483 0.929 . S
H1492 C1500 0.929 . S
H1493 C1502 0.930 . S
H1494 C1504 0.930 . S
H1495 C1507 0.929 . S
H1496 C1510 0.930 . S
H1497 C1512 0.960 . S
H1498 C1512 0.960 . S
H1499 C1512 0.960 . S
C1500 H1492 0.929 . S
C1500 C1501 1.377 . S
C1500 C1502 1.384 . S
C1501 C1500 1.377 . S
C1501 C1507 1.390 . S
C1502 H1493 0.930 . S
C1502 C1500 1.384 . S
C1502 C1503 1.372 . S
C1503 C1502 1.372 . S
C1503 C1504 1.400 . S
C1503 C1508 1.490 . S
C1504 H1494 0.930 . S
C1504 C1503 1.400 . S
C1504 C1507 1.386 . S
H1505 C1521 0.930 . S
H1506 C1522 0.931 . S
C1507 H1495 0.929 . S
C1507 C1501 1.390 . S
C1507 C1504 1.386 . S
C1508 C1503 1.490 . S
C1508 C1510 1.395 . S
C1508 C1511 1.403 . S
H1509 C1515 0.930 . S
C1510 H1496 0.930 . S
C1510 C1508 1.395 . S
C1510 C1513 1.403 . S
C1511 C1508 1.403 . S
C1511 C1512 1.524 . S
C1511 C1515 1.400 . S
C1512 H1497 0.960 . S
C1512 H1498 0.960 . S
C1512 H1499 0.960 . S
C1512 C1511 1.524 . S
C1513 C1510 1.403 . S
C1513 C1514 1.392 . S
C1513 C1517 1.495 . S
C1514 C1513 1.392 . S
C1514 C1515 1.385 . S
C1514 C1516 1.478 . S
C1515 H1509 0.930 . S
C1515 C1511 1.400 . S
C1515 C1514 1.385 . S
C1516 C1514 1.478 . S
C1516 C1518 1.381 . S
C1516 C1522 1.383 . S
C1517 C1513 1.495 . S
C1517 H1523 0.959 . S
C1517 H1524 0.961 . S
C1517 H1525 0.960 . S
C1518 C1516 1.381 . S
C1518 C1519 1.394 . S
C1518 H1526 0.930 . S
C1519 C1518 1.394 . S
C1519 C1520 1.383 . S
C1519 H1527 0.929 . S
C1520 C1519 1.383 . S
C1520 C1521 1.377 . S
C1521 H1505 0.930 . S
C1521 C1520 1.377 . S
C1521 C1522 1.379 . S
C1522 H1506 0.931 . S
C1522 C1516 1.383 . S
C1522 C1521 1.379 . S
H1523 C1517 0.959 . S
H1524 C1517 0.961 . S
H1525 C1517 0.960 . S
H1526 C1518 0.930 . S
H1527 C1519 0.929 . S
H1528 C1536 0.929 . S
H1529 C1538 0.930 . S
H1530 C1540 0.930 . S
H1531 C1543 0.929 . S
H1532 C1546 0.930 . S
H1533 C1548 0.960 . S
H1534 C1548 0.960 . S
H1535 C1548 0.960 . S
C1536 H1528 0.929 . S
C1536 C1537 1.377 . S
C1536 C1538 1.384 . S
C1537 C1536 1.377 . S
C1537 C1543 1.390 . S
C1538 H1529 0.930 . S
C1538 C1536 1.384 . S
C1538 C1539 1.372 . S
C1539 C1538 1.372 . S
C1539 C1540 1.400 . S
C1539 C1544 1.490 . S
C1540 H1530 0.930 . S
C1540 C1539 1.400 . S
C1540 C1543 1.386 . S
H1541 C1557 0.930 . S
H1542 C1558 0.931 . S
C1543 H1531 0.929 . S
C1543 C1537 1.390 . S
C1543 C1540 1.386 . S
C1544 C1539 1.490 . S
C1544 C1546 1.395 . S
C1544 C1547 1.403 . S
H1545 C1551 0.930 . S
C1546 H1532 0.930 . S
C1546 C1544 1.395 . S
C1546 C1549 1.403 . S
C1547 C1544 1.403 . S
C1547 C1548 1.524 . S
C1547 C1551 1.400 . S
C1548 H1533 0.960 . S
C1548 H1534 0.960 . S
C1548 H1535 0.960 . S
C1548 C1547 1.524 . S
C1549 C1546 1.403 . S
C1549 C1550 1.392 . S
C1549 C1553 1.495 . S
C1550 C1549 1.392 . S
C1550 C1551 1.385 . S
C1550 C1552 1.478 . S
C1551 H1545 0.930 . S
C1551 C1547 1.400 . S
C1551 C1550 1.385 . S
C1552 C1550 1.478 . S
C1552 C1554 1.381 . S
C1552 C1558 1.383 . S
C1553 C1549 1.495 . S
C1553 H1559 0.959 . S
C1553 H1560 0.961 . S
C1553 H1561 0.960 . S
C1554 C1552 1.381 . S
C1554 C1555 1.394 . S
C1554 H1562 0.930 . S
C1555 C1554 1.394 . S
C1555 C1556 1.383 . S
C1555 H1563 0.929 . S
C1556 C1555 1.383 . S
C1556 C1557 1.377 . S
C1557 H1541 0.930 . S
C1557 C1556 1.377 . S
C1557 C1558 1.379 . S
C1558 H1542 0.931 . S
C1558 C1552 1.383 . S
C1558 C1557 1.379 . S
H1559 C1553 0.959 . S
H1560 C1553 0.961 . S
H1561 C1553 0.960 . S
H1562 C1554 0.930 . S
H1563 C1555 0.929 . S
H1564 C1572 0.929 . S
H1565 C1574 0.930 . S
H1566 C1576 0.930 . S
H1567 C1579 0.929 . S
H1568 C1582 0.930 . S
H1569 C1584 0.960 . S
H1570 C1584 0.960 . S
H1571 C1584 0.960 . S
C1572 H1564 0.929 . S
C1572 C1573 1.377 . S
C1572 C1574 1.384 . S
C1573 C1572 1.377 . S
C1573 C1579 1.390 . S
C1574 H1565 0.930 . S
C1574 C1572 1.384 . S
C1574 C1575 1.372 . S
C1575 C1574 1.372 . S
C1575 C1576 1.400 . S
C1575 C1580 1.490 . S
C1576 H1566 0.930 . S
C1576 C1575 1.400 . S
C1576 C1579 1.386 . S
H1577 C1593 0.930 . S
H1578 C1594 0.931 . S
C1579 H1567 0.929 . S
C1579 C1573 1.390 . S
C1579 C1576 1.386 . S
C1580 C1575 1.490 . S
C1580 C1582 1.395 . S
C1580 C1583 1.403 . S
H1581 C1587 0.930 . S
C1582 H1568 0.930 . S
C1582 C1580 1.395 . S
C1582 C1585 1.403 . S
C1583 C1580 1.403 . S
C1583 C1584 1.524 . S
C1583 C1587 1.400 . S
C1584 H1569 0.960 . S
C1584 H1570 0.960 . S
C1584 H1571 0.960 . S
C1584 C1583 1.524 . S
C1585 C1582 1.403 . S
C1585 C1586 1.392 . S
C1585 C1589 1.495 . S
C1586 C1585 1.392 . S
C1586 C1587 1.385 . S
C1586 C1588 1.478 . S
C1587 H1581 0.930 . S
C1587 C1583 1.400 . S
C1587 C1586 1.385 . S
C1588 C1586 1.478 . S
C1588 C1590 1.381 . S
C1588 C1594 1.383 . S
C1589 C1585 1.495 . S
C1589 H1595 0.959 . S
C1589 H1596 0.961 . S
C1589 H1597 0.960 . S
C1590 C1588 1.381 . S
C1590 C1591 1.394 . S
C1590 H1598 0.930 . S
C1591 C1590 1.394 . S
C1591 C1592 1.383 . S
C1591 H1599 0.929 . S
C1592 C1591 1.383 . S
C1592 C1593 1.377 . S
C1593 H1577 0.930 . S
C1593 C1592 1.377 . S
C1593 C1594 1.379 . S
C1594 H1578 0.931 . S
C1594 C1588 1.383 . S
C1594 C1593 1.379 . S
H1595 C1589 0.959 . S
H1596 C1589 0.961 . S
H1597 C1589 0.960 . S
H1598 C1590 0.930 . S
H1599 C1591 0.929 . S
H1600 C1608 0.929 . S
H1601 C1610 0.930 . S
H1602 C1612 0.930 . S
H1603 C1615 0.929 . S
H1604 C1618 0.930 . S
H1605 C1620 0.960 . S
H1606 C1620 0.960 . S
H1607 C1620 0.960 . S
C1608 H1600 0.929 . S
C1608 C1609 1.377 . S
C1608 C1610 1.384 . S
C1609 C1608 1.377 . S
C1609 C1615 1.390 . S
C1610 H1601 0.930 . S
C1610 C1608 1.384 . S
C1610 C1611 1.372 . S
C1611 C1610 1.372 . S
C1611 C1612 1.400 . S
C1611 C1616 1.490 . S
C1612 H1602 0.930 . S
C1612 C1611 1.400 . S
C1612 C1615 1.386 . S
H1613 C1629 0.930 . S
H1614 C1630 0.931 . S
C1615 H1603 0.929 . S
C1615 C1609 1.390 . S
C1615 C1612 1.386 . S
C1616 C1611 1.490 . S
C1616 C1618 1.395 . S
C1616 C1619 1.403 . S
H1617 C1623 0.930 . S
C1618 H1604 0.930 . S
C1618 C1616 1.395 . S
C1618 C1621 1.403 . S
C1619 C1616 1.403 . S
C1619 C1620 1.524 . S
C1619 C1623 1.400 . S
C1620 H1605 0.960 . S
C1620 H1606 0.960 . S
C1620 H1607 0.960 . S
C1620 C1619 1.524 . S
C1621 C1618 1.403 . S
C1621 C1622 1.392 . S
C1621 C1625 1.495 . S
C1622 C1621 1.392 . S
C1622 C1623 1.385 . S
C1622 C1624 1.478 . S
C1623 H1617 0.930 . S
C1623 C1619 1.400 . S
C1623 C1622 1.385 . S
C1624 C1622 1.478 . S
C1624 C1626 1.381 . S
C1624 C1630 1.383 . S
C1625 C1621 1.495 . S
C1625 H1631 0.959 . S
C1625 H1632 0.961 . S
C1625 H1633 0.960 . S
C1626 C1624 1.381 . S
C1626 C1627 1.394 . S
C1626 H1634 0.930 . S
C1627 C1626 1.394 . S
C1627 C1628 1.383 . S
C1627 H1635 0.929 . S
C1628 C1627 1.383 . S
C1628 C1629 1.377 . S
C1629 H1613 0.930 . S
C1629 C1628 1.377 . S
C1629 C1630 1.379 . S
C1630 H1614 0.931 . S
C1630 C1624 1.383 . S
C1630 C1629 1.379 . S
H1631 C1625 0.959 . S
H1632 C1625 0.961 . S
H1633 C1625 0.960 . S
H1634 C1626 0.930 . S
H1635 C1627 0.929 . S
H1636 C1644 0.929 . S
H1637 C1646 0.930 . S
H1638 C1648 0.930 . S
H1639 C1651 0.929 . S
H1640 C1654 0.930 . S
H1641 C1656 0.960 . S
H1642 C1656 0.960 . S
H1643 C1656 0.960 . S
C1644 H1636 0.929 . S
C1644 C1645 1.377 . S
C1644 C1646 1.384 . S
C1645 C1644 1.377 . S
C1645 C1651 1.390 . S
C1646 H1637 0.930 . S
C1646 C1644 1.384 . S
C1646 C1647 1.372 . S
C1647 C1646 1.372 . S
C1647 C1648 1.400 . S
C1647 C1652 1.490 . S
C1648 H1638 0.930 . S
C1648 C1647 1.400 . S
C1648 C1651 1.386 . S
H1649 C1665 0.930 . S
H1650 C1666 0.931 . S
C1651 H1639 0.929 . S
C1651 C1645 1.390 . S
C1651 C1648 1.386 . S
C1652 C1647 1.490 . S
C1652 C1654 1.395 . S
C1652 C1655 1.403 . S
H1653 C1659 0.930 . S
C1654 H1640 0.930 . S
C1654 C1652 1.395 . S
C1654 C1657 1.403 . S
C1655 C1652 1.403 . S
C1655 C1656 1.524 . S
C1655 C1659 1.400 . S
C1656 H1641 0.960 . S
C1656 H1642 0.960 . S
C1656 H1643 0.960 . S
C1656 C1655 1.524 . S
C1657 C1654 1.403 . S
C1657 C1658 1.392 . S
C1657 C1661 1.495 . S
C1658 C1657 1.392 . S
C1658 C1659 1.385 . S
C1658 C1660 1.478 . S
C1659 H1653 0.930 . S
C1659 C1655 1.400 . S
C1659 C1658 1.385 . S
C1660 C1658 1.478 . S
C1660 C1662 1.381 . S
C1660 C1666 1.383 . S
C1661 C1657 1.495 . S
C1661 H1667 0.959 . S
C1661 H1668 0.961 . S
C1661 H1669 0.960 . S
C1662 C1660 1.381 . S
C1662 C1663 1.394 . S
C1662 H1670 0.930 . S
C1663 C1662 1.394 . S
C1663 C1664 1.383 . S
C1663 H1671 0.929 . S
C1664 C1663 1.383 . S
C1664 C1665 1.377 . S
C1665 H1649 0.930 . S
C1665 C1664 1.377 . S
C1665 C1666 1.379 . S
C1666 H1650 0.931 . S
C1666 C1660 1.383 . S
C1666 C1665 1.379 . S
H1667 C1661 0.959 . S
H1668 C1661 0.961 . S
H1669 C1661 0.960 . S
H1670 C1662 0.930 . S
H1671 C1663 0.929 . S
H1672 C1680 0.929 . S
H1673 C1682 0.930 . S
H1674 C1684 0.930 . S
H1675 C1687 0.929 . S
H1676 C1690 0.930 . S
H1677 C1692 0.960 . S
H1678 C1692 0.960 . S
H1679 C1692 0.960 . S
C1680 H1672 0.929 . S
C1680 C1681 1.377 . S
C1680 C1682 1.384 . S
C1681 C1680 1.377 . S
C1681 C1687 1.390 . S
C1682 H1673 0.930 . S
C1682 C1680 1.384 . S
C1682 C1683 1.372 . S
C1683 C1682 1.372 . S
C1683 C1684 1.400 . S
C1683 C1688 1.490 . S
C1684 H1674 0.930 . S
C1684 C1683 1.400 . S
C1684 C1687 1.386 . S
H1685 C1701 0.930 . S
H1686 C1702 0.931 . S
C1687 H1675 0.929 . S
C1687 C1681 1.390 . S
C1687 C1684 1.386 . S
C1688 C1683 1.490 . S
C1688 C1690 1.395 . S
C1688 C1691 1.403 . S
H1689 C1695 0.930 . S
C1690 H1676 0.930 . S
C1690 C1688 1.395 . S
C1690 C1693 1.403 . S
C1691 C1688 1.403 . S
C1691 C1692 1.524 . S
C1691 C1695 1.400 . S
C1692 H1677 0.960 . S
C1692 H1678 0.960 . S
C1692 H1679 0.960 . S
C1692 C1691 1.524 . S
C1693 C1690 1.403 . S
C1693 C1694 1.392 . S
C1693 C1697 1.495 . S
C1694 C1693 1.392 . S
C1694 C1695 1.385 . S
C1694 C1696 1.478 . S
C1695 H1689 0.930 . S
C1695 C1691 1.400 . S
C1695 C1694 1.385 . S
C1696 C1694 1.478 . S
C1696 C1698 1.381 . S
C1696 C1702 1.383 . S
C1697 C1693 1.495 . S
C1697 H1703 0.959 . S
C1697 H1704 0.961 . S
C1697 H1705 0.960 . S
C1698 C1696 1.381 . S
C1698 C1699 1.394 . S
C1698 H1706 0.930 . S
C1699 C1698 1.394 . S
C1699 C1700 1.383 . S
C1699 H1707 0.929 . S
C1700 C1699 1.383 . S
C1700 C1701 1.377 . S
C1701 H1685 0.930 . S
C1701 C1700 1.377 . S
C1701 C1702 1.379 . S
C1702 H1686 0.931 . S
C1702 C1696 1.383 . S
C1702 C1701 1.379 . S
H1703 C1697 0.959 . S
H1704 C1697 0.961 . S
H1705 C1697 0.960 . S
H1706 C1698 0.930 . S
H1707 C1699 0.929 . S
H1708 C1716 0.929 . S
H1709 C1718 0.930 . S
H1710 C1720 0.930 . S
H1711 C1723 0.929 . S
H1712 C1726 0.930 . S
H1713 C1728 0.960 . S
H1714 C1728 0.960 . S
H1715 C1728 0.971 . S
C1716 H1708 0.929 . S
C1716 C1717 1.377 . S
C1716 C1718 1.384 . S
C1717 C1716 1.377 . S
C1717 C1723 1.390 . S
C1718 H1709 0.930 . S
C1718 C1716 1.384 . S
C1718 C1719 1.372 . S
C1719 C1718 1.372 . S
C1719 C1720 1.400 . S
C1719 C1724 1.490 . S
C1720 H1710 0.930 . S
C1720 C1719 1.400 . S
C1720 C1723 1.386 . S
H1721 C1737 0.930 . S
H1722 C1738 0.931 . S
C1723 H1711 0.929 . S
C1723 C1717 1.390 . S
C1723 C1720 1.386 . S
C1724 C1719 1.490 . S
C1724 C1726 1.395 . S
C1724 C1727 1.403 . S
H1725 C1731 0.930 1_565 S
C1726 H1712 0.930 . S
C1726 C1724 1.395 . S
C1726 C1729 1.403 . S
C1727 C1724 1.403 . S
C1727 C1728 1.524 1_545 S
C1727 C1731 1.400 . S
C1728 H1713 0.960 . S
C1728 H1714 0.960 . S
C1728 H1715 0.971 . S
C1728 C1727 1.524 1_565 S
C1729 C1726 1.403 . S
C1729 C1730 1.392 . S
C1729 C1733 1.495 . S
C1730 C1729 1.392 . S
C1730 C1731 1.385 . S
C1730 C1732 1.478 . S
C1731 H1725 0.930 1_545 S
C1731 C1727 1.400 . S
C1731 C1730 1.385 . S
C1732 C1730 1.478 . S
C1732 C1734 1.381 . S
C1732 C1738 1.383 . S
C1733 C1729 1.495 . S
C1733 H1739 0.959 . S
C1733 H1740 0.961 . S
C1733 H1741 0.960 . S
C1734 C1732 1.381 . S
C1734 C1735 1.394 . S
C1734 H1742 0.930 . S
C1735 C1734 1.394 . S
C1735 C1736 1.383 . S
C1735 H1743 0.929 1_545 S
C1736 C1735 1.383 . S
C1736 C1737 1.377 . S
C1737 H1721 0.930 . S
C1737 C1736 1.377 . S
C1737 C1738 1.379 . S
C1738 H1722 0.931 . S
C1738 C1732 1.383 . S
C1738 C1737 1.379 . S
H1739 C1733 0.959 . S
H1740 C1733 0.961 . S
H1741 C1733 0.960 . S
H1742 C1734 0.930 . S
H1743 C1735 0.929 1_565 S
H1744 C1752 0.929 . S
H1745 C1754 0.930 . S
H1746 C1756 0.930 . S
H1747 C1759 0.929 . S
H1748 C1762 0.930 . S
H1749 C1764 0.960 . S
H1750 C1764 0.960 . S
H1751 C1764 0.960 . S
C1752 H1744 0.929 . S
C1752 C1753 1.377 . S
C1752 C1754 1.384 . S
C1753 C1752 1.377 . S
C1753 C1759 1.390 . S
C1754 H1745 0.930 . S
C1754 C1752 1.384 . S
C1754 C1755 1.372 . S
C1755 C1754 1.372 . S
C1755 C1756 1.400 . S
C1755 C1760 1.490 . S
C1756 H1746 0.930 . S
C1756 C1755 1.400 . S
C1756 C1759 1.386 . S
H1757 C1773 0.930 . S
H1758 C1774 0.931 . S
C1759 H1747 0.929 . S
C1759 C1753 1.390 . S
C1759 C1756 1.386 . S
C1760 C1755 1.490 . S
C1760 C1762 1.395 . S
C1760 C1763 1.403 . S
H1761 C1767 0.930 . S
C1762 H1748 0.930 . S
C1762 C1760 1.395 . S
C1762 C1765 1.403 . S
C1763 C1760 1.403 . S
C1763 C1764 1.524 . S
C1763 C1767 1.400 . S
C1764 H1749 0.960 . S
C1764 H1750 0.960 . S
C1764 H1751 0.960 . S
C1764 C1763 1.524 . S
C1765 C1762 1.403 . S
C1765 C1766 1.392 . S
C1765 C1769 1.495 . S
C1766 C1765 1.392 . S
C1766 C1767 1.385 . S
C1766 C1768 1.478 . S
C1767 H1761 0.930 . S
C1767 C1763 1.400 . S
C1767 C1766 1.385 . S
C1768 C1766 1.478 . S
C1768 C1770 1.381 . S
C1768 C1774 1.383 . S
C1769 C1765 1.495 . S
C1769 H1775 0.959 . S
C1769 H1776 0.961 . S
C1769 H1777 0.960 . S
C1770 C1768 1.381 . S
C1770 C1771 1.394 . S
C1770 H1778 0.930 . S
C1771 C1770 1.394 . S
C1771 C1772 1.383 . S
C1771 H1779 0.929 . S
C1772 C1771 1.383 . S
C1772 C1773 1.377 . S
C1773 H1757 0.930 . S
C1773 C1772 1.377 . S
C1773 C1774 1.379 . S
C1774 H1758 0.931 . S
C1774 C1768 1.383 . S
C1774 C1773 1.379 . S
H1775 C1769 0.959 . S
H1776 C1769 0.961 . S
H1777 C1769 0.960 . S
H1778 C1770 0.930 . S
H1779 C1771 0.929 . S
H1780 C1788 0.929 . S
H1781 C1790 0.930 . S
H1782 C1792 0.930 . S
H1783 C1795 0.929 . S
H1784 C1798 0.930 . S
H1785 C1800 0.960 . S
H1786 C1800 0.960 . S
H1787 C1800 0.960 . S
C1788 H1780 0.929 . S
C1788 C1789 1.377 . S
C1788 C1790 1.384 . S
C1789 C1788 1.377 . S
C1789 C1795 1.390 . S
C1790 H1781 0.930 . S
C1790 C1788 1.384 . S
C1790 C1791 1.372 . S
C1791 C1790 1.372 . S
C1791 C1792 1.400 . S
C1791 C1796 1.490 . S
C1792 H1782 0.930 . S
C1792 C1791 1.400 . S
C1792 C1795 1.386 . S
H1793 C1809 0.930 . S
H1794 C1810 0.931 . S
C1795 H1783 0.929 . S
C1795 C1789 1.390 . S
C1795 C1792 1.386 . S
C1796 C1791 1.490 . S
C1796 C1798 1.395 . S
C1796 C1799 1.403 . S
H1797 C1803 0.930 . S
C1798 H1784 0.930 . S
C1798 C1796 1.395 . S
C1798 C1801 1.403 . S
C1799 C1796 1.403 . S
C1799 C1800 1.524 . S
C1799 C1803 1.400 . S
C1800 H1785 0.960 . S
C1800 H1786 0.960 . S
C1800 H1787 0.960 . S
C1800 C1799 1.524 . S
C1801 C1798 1.403 . S
C1801 C1802 1.392 . S
C1801 C1805 1.495 . S
C1802 C1801 1.392 . S
C1802 C1803 1.385 . S
C1802 C1804 1.478 . S
C1803 H1797 0.930 . S
C1803 C1799 1.400 . S
C1803 C1802 1.385 . S
C1804 C1802 1.478 . S
C1804 C1806 1.381 . S
C1804 C1810 1.383 . S
C1805 C1801 1.495 . S
C1805 H1811 0.959 . S
C1805 H1812 0.961 . S
C1805 H1813 0.960 . S
C1806 C1804 1.381 . S
C1806 C1807 1.394 . S
C1806 H1814 0.930 . S
C1807 C1806 1.394 . S
C1807 C1808 1.383 . S
C1807 H1815 0.929 . S
C1808 C1807 1.383 . S
C1808 C1809 1.377 . S
C1809 H1793 0.930 . S
C1809 C1808 1.377 . S
C1809 C1810 1.379 . S
C1810 H1794 0.931 . S
C1810 C1804 1.383 . S
C1810 C1809 1.379 . S
H1811 C1805 0.959 . S
H1812 C1805 0.961 . S
H1813 C1805 0.960 . S
H1814 C1806 0.930 . S
H1815 C1807 0.929 . S
H1816 C1824 0.929 . S
H1817 C1826 0.930 . S
H1818 C1828 0.930 . S
H1819 C1831 0.929 . S
H1820 C1834 0.930 . S
H1821 C1836 0.960 . S
H1822 C1836 0.960 . S
H1823 C1836 0.960 . S
C1824 H1816 0.929 . S
C1824 C1825 1.377 . S
C1824 C1826 1.384 . S
C1825 C1824 1.377 . S
C1825 C1831 1.390 . S
C1826 H1817 0.930 . S
C1826 C1824 1.384 . S
C1826 C1827 1.372 . S
C1827 C1826 1.372 . S
C1827 C1828 1.400 . S
C1827 C1832 1.490 . S
C1828 H1818 0.930 . S
C1828 C1827 1.400 . S
C1828 C1831 1.386 . S
H1829 C1845 0.930 . S
H1830 C1846 0.931 . S
C1831 H1819 0.929 . S
C1831 C1825 1.390 . S
C1831 C1828 1.386 . S
C1832 C1827 1.490 . S
C1832 C1834 1.395 . S
C1832 C1835 1.403 . S
H1833 C1839 0.930 . S
C1834 H1820 0.930 . S
C1834 C1832 1.395 . S
C1834 C1837 1.403 . S
C1835 C1832 1.403 . S
C1835 C1836 1.524 . S
C1835 C1839 1.400 . S
C1836 H1821 0.960 . S
C1836 H1822 0.960 . S
C1836 H1823 0.960 . S
C1836 C1835 1.524 . S
C1837 C1834 1.403 . S
C1837 C1838 1.392 . S
C1837 C1841 1.495 . S
C1838 C1837 1.392 . S
C1838 C1839 1.385 . S
C1838 C1840 1.478 . S
C1839 H1833 0.930 . S
C1839 C1835 1.400 . S
C1839 C1838 1.385 . S
C1840 C1838 1.478 . S
C1840 C1842 1.381 . S
C1840 C1846 1.383 . S
C1841 C1837 1.495 . S
C1841 H1847 0.959 . S
C1841 H1848 0.961 . S
C1841 H1849 0.960 . S
C1842 C1840 1.381 . S
C1842 C1843 1.394 . S
C1842 H1850 0.930 . S
C1843 C1842 1.394 . S
C1843 C1844 1.383 . S
C1843 H1851 0.929 . S
C1844 C1843 1.383 . S
C1844 C1845 1.377 . S
C1845 H1829 0.930 . S
C1845 C1844 1.377 . S
C1845 C1846 1.379 . S
C1846 H1830 0.931 . S
C1846 C1840 1.383 . S
C1846 C1845 1.379 . S
H1847 C1841 0.959 . S
H1848 C1841 0.961 . S
H1849 C1841 0.960 . S
H1850 C1842 0.930 . S
H1851 C1843 0.929 . S
H1852 C1860 0.929 . S
H1853 C1862 0.930 . S
H1854 C1864 0.930 . S
H1855 C1867 0.929 . S
H1856 C1870 0.930 . S
H1857 C1872 0.960 . S
H1858 C1872 0.960 1_565 S
H1859 C1872 0.960 . S
C1860 H1852 0.929 . S
C1860 C1861 1.377 . S
C1860 C1862 1.384 . S
C1861 C1860 1.377 . S
C1861 C1867 1.390 . S
C1862 H1853 0.930 . S
C1862 C1860 1.384 . S
C1862 C1863 1.372 . S
C1863 C1862 1.372 . S
C1863 C1864 1.400 . S
C1863 C1868 1.490 . S
C1864 H1854 0.930 . S
C1864 C1863 1.400 . S
C1864 C1867 1.386 . S
H1865 C1881 0.930 . S
H1866 C1882 0.931 . S
C1867 H1855 0.929 . S
C1867 C1861 1.390 . S
C1867 C1864 1.386 . S
C1868 C1863 1.490 . S
C1868 C1870 1.395 . S
C1868 C1871 1.403 . S
H1869 C1875 0.930 . S
C1870 H1856 0.930 . S
C1870 C1868 1.395 . S
C1870 C1873 1.403 . S
C1871 C1868 1.403 . S
C1871 C1872 1.524 . S
C1871 C1875 1.400 . S
C1872 H1857 0.960 . S
C1872 H1858 0.960 1_545 S
C1872 H1859 0.960 . S
C1872 C1871 1.524 . S
C1873 C1870 1.403 . S
C1873 C1874 1.392 . S
C1873 C1877 1.495 . S
C1874 C1873 1.392 . S
C1874 C1875 1.385 . S
C1874 C1876 1.478 . S
C1875 H1869 0.930 . S
C1875 C1871 1.400 . S
C1875 C1874 1.385 . S
C1876 C1874 1.478 . S
C1876 C1878 1.381 . S
C1876 C1882 1.383 . S
C1877 C1873 1.495 . S
C1877 H1883 0.959 . S
C1877 H1884 0.961 . S
C1877 H1885 0.960 . S
C1878 C1876 1.381 . S
C1878 C1879 1.394 . S
C1878 H1886 0.930 . S
C1879 C1878 1.394 . S
C1879 C1880 1.383 . S
C1879 H1887 0.929 . S
C1880 C1879 1.383 . S
C1880 C1881 1.377 . S
C1881 H1865 0.930 . S
C1881 C1880 1.377 . S
C1881 C1882 1.379 . S
C1882 H1866 0.931 . S
C1882 C1876 1.383 . S
C1882 C1881 1.379 . S
H1883 C1877 0.959 . S
H1884 C1877 0.961 . S
H1885 C1877 0.960 . S
H1886 C1878 0.930 . S
H1887 C1879 0.929 . S
H1888 C1896 0.929 . S
H1889 C1898 0.930 . S
H1890 C1900 0.930 . S
H1891 C1903 0.929 . S
H1892 C1906 0.930 . S
H1893 C1908 0.960 . S
H1894 C1908 0.960 . S
H1895 C1908 0.960 . S
C1896 H1888 0.929 . S
C1896 C1897 1.377 . S
C1896 C1898 1.384 . S
C1897 C1896 1.377 . S
C1897 C1903 1.390 . S
C1898 H1889 0.930 . S
C1898 C1896 1.384 . S
C1898 C1899 1.372 . S
C1899 C1898 1.372 . S
C1899 C1900 1.400 . S
C1899 C1904 1.490 . S
C1900 H1890 0.930 . S
C1900 C1899 1.400 . S
C1900 C1903 1.386 . S
H1901 C1917 0.930 . S
H1902 C1918 0.931 . S
C1903 H1891 0.929 . S
C1903 C1897 1.390 . S
C1903 C1900 1.386 . S
C1904 C1899 1.490 . S
C1904 C1906 1.395 . S
C1904 C1907 1.403 . S
H1905 C1911 0.930 . S
C1906 H1892 0.930 . S
C1906 C1904 1.395 . S
C1906 C1909 1.403 . S
C1907 C1904 1.403 . S
C1907 C1908 1.524 . S
C1907 C1911 1.400 . S
C1908 H1893 0.960 . S
C1908 H1894 0.960 . S
C1908 H1895 0.960 . S
C1908 C1907 1.524 . S
C1909 C1906 1.403 . S
C1909 C1910 1.392 . S
C1909 C1913 1.495 . S
C1910 C1909 1.392 . S
C1910 C1911 1.385 . S
C1910 C1912 1.478 . S
C1911 H1905 0.930 . S
C1911 C1907 1.400 . S
C1911 C1910 1.385 . S
C1912 C1910 1.478 . S
C1912 C1914 1.381 . S
C1912 C1918 1.383 . S
C1913 C1909 1.495 . S
C1913 H1919 0.959 . S
C1913 H1920 0.961 . S
C1913 H1921 0.960 . S
C1914 C1912 1.381 . S
C1914 C1915 1.394 . S
C1914 H1922 0.930 . S
C1915 C1914 1.394 . S
C1915 C1916 1.383 . S
C1915 H1923 0.929 . S
C1916 C1915 1.383 . S
C1916 C1917 1.377 . S
C1917 H1901 0.930 . S
C1917 C1916 1.377 . S
C1917 C1918 1.379 . S
C1918 H1902 0.931 . S
C1918 C1912 1.383 . S
C1918 C1917 1.379 . S
H1919 C1913 0.959 . S
H1920 C1913 0.961 . S
H1921 C1913 0.960 . S
H1922 C1914 0.930 . S
H1923 C1915 0.929 . S
H1924 C1932 0.929 . S
H1925 C1934 0.930 . S
H1926 C1936 0.930 . S
H1927 C1939 0.929 . S
H1928 C1942 0.930 . S
H1929 C1944 0.960 . S
H1930 C1944 0.960 . S
H1931 C1944 0.960 . S
C1932 H1924 0.929 . S
C1932 C1933 1.377 . S
C1932 C1934 1.384 . S
C1933 C1932 1.377 . S
C1933 C1939 1.390 . S
C1934 H1925 0.930 . S
C1934 C1932 1.384 . S
C1934 C1935 1.372 . S
C1935 C1934 1.372 . S
C1935 C1936 1.400 . S
C1935 C1940 1.490 . S
C1936 H1926 0.930 . S
C1936 C1935 1.400 . S
C1936 C1939 1.386 . S
H1937 C1953 0.930 . S
H1938 C1954 0.931 . S
C1939 H1927 0.929 . S
C1939 C1933 1.390 . S
C1939 C1936 1.386 . S
C1940 C1935 1.490 . S
C1940 C1942 1.395 . S
C1940 C1943 1.403 . S
H1941 C1947 0.930 . S
C1942 H1928 0.930 . S
C1942 C1940 1.395 . S
C1942 C1945 1.403 . S
C1943 C1940 1.403 . S
C1943 C1944 1.524 . S
C1943 C1947 1.400 . S
C1944 H1929 0.960 . S
C1944 H1930 0.960 . S
C1944 H1931 0.960 . S
C1944 C1943 1.524 . S
C1945 C1942 1.403 . S
C1945 C1946 1.392 . S
C1945 C1949 1.495 . S
C1946 C1945 1.392 . S
C1946 C1947 1.385 . S
C1946 C1948 1.478 . S
C1947 H1941 0.930 . S
C1947 C1943 1.400 . S
C1947 C1946 1.385 . S
C1948 C1946 1.478 . S
C1948 C1950 1.381 . S
C1948 C1954 1.383 . S
C1949 C1945 1.495 . S
C1949 H1955 0.959 . S
C1949 H1956 0.961 . S
C1949 H1957 0.960 . S
C1950 C1948 1.381 . S
C1950 C1951 1.394 . S
C1950 H1958 0.930 . S
C1951 C1950 1.394 . S
C1951 C1952 1.383 . S
C1951 H1959 0.929 . S
C1952 C1951 1.383 . S
C1952 C1953 1.377 . S
C1953 H1937 0.930 . S
C1953 C1952 1.377 . S
C1953 C1954 1.379 . S
C1954 H1938 0.931 . S
C1954 C1948 1.383 . S
C1954 C1953 1.379 . S
H1955 C1949 0.959 . S
H1956 C1949 0.961 . S
H1957 C1949 0.960 . S
H1958 C1950 0.930 . S
H1959 C1951 0.929 . S
H1960 C1968 0.929 . S
H1961 C1970 0.930 . S
H1962 C1972 0.930 . S
H1963 C1975 0.929 . S
H1964 C1978 0.930 . S
H1965 C1980 0.960 . S
H1966 C1980 0.960 . S
H1967 C1980 0.960 . S
C1968 H1960 0.929 . S
C1968 C1969 1.377 . S
C1968 C1970 1.384 . S
C1969 C1968 1.377 . S
C1969 C1975 1.390 . S
C1970 H1961 0.930 . S
C1970 C1968 1.384 . S
C1970 C1971 1.372 . S
C1971 C1970 1.372 . S
C1971 C1972 1.400 . S
C1971 C1976 1.490 . S
C1972 H1962 0.930 . S
C1972 C1971 1.400 . S
C1972 C1975 1.386 . S
H1973 C1989 0.930 . S
H1974 C1990 0.931 . S
C1975 H1963 0.929 . S
C1975 C1969 1.390 . S
C1975 C1972 1.386 . S
C1976 C1971 1.490 . S
C1976 C1978 1.395 . S
C1976 C1979 1.403 . S
H1977 C1983 0.930 . S
C1978 H1964 0.930 . S
C1978 C1976 1.395 . S
C1978 C1981 1.403 . S
C1979 C1976 1.403 . S
C1979 C1980 1.524 . S
C1979 C1983 1.400 . S
C1980 H1965 0.960 . S
C1980 H1966 0.960 . S
C1980 H1967 0.960 . S
C1980 C1979 1.524 . S
C1981 C1978 1.403 . S
C1981 C1982 1.392 . S
C1981 C1985 1.495 . S
C1982 C1981 1.392 . S
C1982 C1983 1.385 . S
C1982 C1984 1.478 . S
C1983 H1977 0.930 . S
C1983 C1979 1.400 . S
C1983 C1982 1.385 . S
C1984 C1982 1.478 . S
C1984 C1986 1.381 . S
C1984 C1990 1.383 . S
C1985 C1981 1.495 . S
C1985 H1991 0.959 . S
C1985 H1992 0.961 . S
C1985 H1993 0.960 . S
C1986 C1984 1.381 . S
C1986 C1987 1.394 . S
C1986 H1994 0.930 . S
C1987 C1986 1.394 . S
C1987 C1988 1.383 . S
C1987 H1995 0.929 . S
C1988 C1987 1.383 . S
C1988 C1989 1.377 . S
C1989 H1973 0.930 . S
C1989 C1988 1.377 . S
C1989 C1990 1.379 . S
C1990 H1974 0.931 . S
C1990 C1984 1.383 . S
C1990 C1989 1.379 . S
H1991 C1985 0.959 . S
H1992 C1985 0.961 . S
H1993 C1985 0.960 . S
H1994 C1986 0.930 . S
H1995 C1987 0.929 . S
H1996 C2004 0.929 . S
H1997 C2006 0.930 . S
H1998 C2008 0.930 . S
H1999 C2011 0.929 . S
H2000 C2014 0.930 . S
H2001 C2016 0.960 . S
H2002 C2016 0.960 . S
H2003 C2016 0.960 . S
C2004 H1996 0.929 . S
C2004 C2005 1.377 1_455 S
C2004 C2006 1.384 . S
C2005 C2004 1.377 1_655 S
C2005 C2011 1.390 . S
C2006 H1997 0.930 . S
C2006 C2004 1.384 . S
C2006 C2007 1.372 1_455 S
C2007 C2006 1.372 1_655 S
C2007 C2008 1.400 . S
C2007 C2012 1.490 1_655 S
C2008 H1998 0.930 . S
C2008 C2007 1.400 . S
C2008 C2011 1.386 . S
H2009 C2025 0.930 . S
H2010 C2026 0.954 . S
C2011 H1999 0.929 . S
C2011 C2005 1.390 . S
C2011 C2008 1.386 . S
C2012 C2007 1.490 1_455 S
C2012 C2014 1.395 . S
C2012 C2015 1.403 1_455 S
H2013 C2019 0.930 . S
C2014 H2000 0.930 . S
C2014 C2012 1.395 . S
C2014 C2017 1.403 . S
C2015 C2012 1.403 1_655 S
C2015 C2016 1.524 . S
C2015 C2019 1.400 . S
C2016 H2001 0.960 . S
C2016 H2002 0.960 . S
C2016 H2003 0.960 . S
C2016 C2015 1.524 . S
C2017 C2014 1.403 . S
C2017 C2018 1.392 . S
C2017 C2021 1.495 . S
C2018 C2017 1.392 . S
C2018 C2019 1.385 1_455 S
C2018 C2020 1.478 . S
C2019 H2013 0.930 . S
C2019 C2015 1.400 . S
C2019 C2018 1.385 1_655 S
C2020 C2018 1.478 . S
C2020 C2022 1.381 . S
C2020 C2026 1.383 . S
C2021 C2017 1.495 . S
C2021 H2027 0.959 . S
C2021 H2028 0.961 . S
C2021 H2029 0.960 . S
C2022 C2020 1.381 . S
C2022 C2023 1.394 . S
C2022 H2030 0.930 . S
C2023 C2022 1.394 . S
C2023 C2024 1.383 . S
C2023 H2031 0.929 . S
C2024 C2023 1.383 . S
C2024 C2025 1.377 . S
C2025 H2009 0.930 . S
C2025 C2024 1.377 . S
C2025 C2026 1.379 . S
C2026 H2010 0.954 . S
C2026 C2020 1.383 . S
C2026 C2025 1.379 . S
H2027 C2021 0.959 . S
H2028 C2021 0.961 . S
H2029 C2021 0.960 . S
H2030 C2022 0.930 . S
H2031 C2023 0.929 . S
H2032 C2040 0.929 . S
H2033 C2042 0.930 . S
H2034 C2044 0.930 . S
H2035 C2047 0.929 . S
H2036 C2050 0.930 . S
H2037 C2052 0.960 . S
H2038 C2052 0.960 . S
H2039 C2052 0.960 . S
C2040 H2032 0.929 . S
C2040 C2041 1.377 . S
C2040 C2042 1.384 . S
C2041 C2040 1.377 . S
C2041 C2047 1.390 . S
C2042 H2033 0.930 . S
C2042 C2040 1.384 . S
C2042 C2043 1.372 . S
C2043 C2042 1.372 . S
C2043 C2044 1.400 . S
C2043 C2048 1.490 . S
C2044 H2034 0.930 . S
C2044 C2043 1.400 . S
C2044 C2047 1.386 . S
H2045 C2061 0.930 . S
H2046 C2062 0.931 . S
C2047 H2035 0.929 . S
C2047 C2041 1.390 . S
C2047 C2044 1.386 . S
C2048 C2043 1.490 . S
C2048 C2050 1.395 . S
C2048 C2051 1.403 . S
H2049 C2055 0.930 . S
C2050 H2036 0.930 . S
C2050 C2048 1.395 . S
C2050 C2053 1.403 . S
C2051 C2048 1.403 . S
C2051 C2052 1.524 . S
C2051 C2055 1.400 . S
C2052 H2037 0.960 . S
C2052 H2038 0.960 . S
C2052 H2039 0.960 . S
C2052 C2051 1.524 . S
C2053 C2050 1.403 . S
C2053 C2054 1.392 . S
C2053 C2057 1.495 . S
C2054 C2053 1.392 . S
C2054 C2055 1.385 . S
C2054 C2056 1.478 . S
C2055 H2049 0.930 . S
C2055 C2051 1.400 . S
C2055 C2054 1.385 . S
C2056 C2054 1.478 . S
C2056 C2058 1.381 . S
C2056 C2062 1.383 . S
C2057 C2053 1.495 . S
C2057 H2063 0.959 . S
C2057 H2064 0.961 . S
C2057 H2065 0.960 . S
C2058 C2056 1.381 . S
C2058 C2059 1.394 . S
C2058 H2066 0.930 . S
C2059 C2058 1.394 . S
C2059 C2060 1.383 . S
C2059 H2067 0.929 . S
C2060 C2059 1.383 . S
C2060 C2061 1.377 . S
C2061 H2045 0.930 . S
C2061 C2060 1.377 . S
C2061 C2062 1.379 . S
C2062 H2046 0.931 . S
C2062 C2056 1.383 . S
C2062 C2061 1.379 . S
H2063 C2057 0.959 . S
H2064 C2057 0.961 . S
H2065 C2057 0.960 . S
H2066 C2058 0.930 . S
H2067 C2059 0.929 . S
H2068 C2076 0.929 . S
H2069 C2078 0.930 . S
H2070 C2080 0.930 . S
H2071 C2083 0.929 . S
H2072 C2086 0.930 . S
H2073 C2088 0.960 . S
H2074 C2088 0.960 . S
H2075 C2088 0.960 . S
C2076 H2068 0.929 . S
C2076 C2077 1.377 . S
C2076 C2078 1.384 . S
C2077 C2076 1.377 . S
C2077 C2083 1.390 . S
C2078 H2069 0.930 . S
C2078 C2076 1.384 . S
C2078 C2079 1.372 . S
C2079 C2078 1.372 . S
C2079 C2080 1.400 . S
C2079 C2084 1.490 . S
C2080 H2070 0.930 . S
C2080 C2079 1.400 . S
C2080 C2083 1.386 . S
H2081 C2097 0.984 . S
H2082 C2098 0.931 . S
C2083 H2071 0.929 . S
C2083 C2077 1.390 . S
C2083 C2080 1.386 . S
C2084 C2079 1.490 . S
C2084 C2086 1.395 . S
C2084 C2087 1.403 . S
H2085 C2091 0.930 . S
C2086 H2072 0.930 . S
C2086 C2084 1.395 . S
C2086 C2089 1.403 . S
C2087 C2084 1.403 . S
C2087 C2088 1.524 . S
C2087 C2091 1.400 . S
C2088 H2073 0.960 . S
C2088 H2074 0.960 . S
C2088 H2075 0.960 . S
C2088 C2087 1.524 . S
C2089 C2086 1.403 . S
C2089 C2090 1.392 . S
C2089 C2093 1.495 . S
C2090 C2089 1.392 . S
C2090 C2091 1.385 . S
C2090 C2092 1.478 . S
C2091 H2085 0.930 . S
C2091 C2087 1.400 . S
C2091 C2090 1.385 . S
C2092 C2090 1.478 . S
C2092 C2094 1.381 . S
C2092 C2098 1.383 . S
C2093 C2089 1.495 . S
C2093 H2099 0.959 . S
C2093 H2100 0.961 . S
C2093 H2101 0.960 . S
C2094 C2092 1.381 . S
C2094 C2095 1.394 . S
C2094 H2102 0.930 . S
C2095 C2094 1.394 . S
C2095 C2096 1.383 . S
C2095 H2103 0.929 . S
C2096 C2095 1.383 . S
C2096 C2097 1.377 . S
C2097 H2081 0.984 . S
C2097 C2096 1.377 . S
C2097 C2098 1.379 . S
C2098 H2082 0.931 . S
C2098 C2092 1.383 . S
C2098 C2097 1.379 . S
H2099 C2093 0.959 . S
H2100 C2093 0.961 . S
H2101 C2093 0.960 . S
H2102 C2094 0.930 . S
H2103 C2095 0.929 . S
H2104 C2112 0.929 . S
H2105 C2114 0.930 . S
H2106 C2116 0.930 . S
H2107 C2119 0.929 . S
H2108 C2122 0.930 . S
H2109 C2124 0.960 . S
H2110 C2124 0.960 . S
H2111 C2124 0.960 . S
C2112 H2104 0.929 . S
C2112 C2113 1.377 . S
C2112 C2114 1.384 . S
C2113 C2112 1.377 . S
C2113 C2119 1.390 . S
C2114 H2105 0.930 . S
C2114 C2112 1.384 . S
C2114 C2115 1.372 . S
C2115 C2114 1.372 . S
C2115 C2116 1.400 . S
C2115 C2120 1.490 . S
C2116 H2106 0.930 . S
C2116 C2115 1.400 . S
C2116 C2119 1.386 . S
H2117 C2133 0.930 . S
H2118 C2134 0.931 . S
C2119 H2107 0.929 . S
C2119 C2113 1.390 . S
C2119 C2116 1.386 . S
C2120 C2115 1.490 . S
C2120 C2122 1.395 . S
C2120 C2123 1.403 . S
H2121 C2127 0.930 . S
C2122 H2108 0.930 . S
C2122 C2120 1.395 . S
C2122 C2125 1.403 . S
C2123 C2120 1.403 . S
C2123 C2124 1.524 . S
C2123 C2127 1.400 . S
C2124 H2109 0.960 . S
C2124 H2110 0.960 . S
C2124 H2111 0.960 . S
C2124 C2123 1.524 . S
C2125 C2122 1.403 . S
C2125 C2126 1.392 . S
C2125 C2129 1.495 . S
C2126 C2125 1.392 . S
C2126 C2127 1.385 . S
C2126 C2128 1.478 . S
C2127 H2121 0.930 . S
C2127 C2123 1.400 . S
C2127 C2126 1.385 . S
C2128 C2126 1.478 . S
C2128 C2130 1.381 . S
C2128 C2134 1.383 . S
C2129 C2125 1.495 . S
C2129 H2135 0.959 . S
C2129 H2136 0.961 . S
C2129 H2137 0.960 . S
C2130 C2128 1.381 . S
C2130 C2131 1.394 . S
C2130 H2138 0.930 . S
C2131 C2130 1.394 . S
C2131 C2132 1.383 . S
C2131 H2139 0.929 . S
C2132 C2131 1.383 . S
C2132 C2133 1.377 . S
C2133 H2117 0.930 . S
C2133 C2132 1.377 . S
C2133 C2134 1.379 . S
C2134 H2118 0.931 . S
C2134 C2128 1.383 . S
C2134 C2133 1.379 . S
H2135 C2129 0.959 . S
H2136 C2129 0.961 . S
H2137 C2129 0.960 . S
H2138 C2130 0.930 . S
H2139 C2131 0.929 . S
H2140 C2148 0.929 . S
H2141 C2150 0.930 . S
H2142 C2152 0.930 . S
H2143 C2155 0.929 . S
H2144 C2158 0.930 . S
H2145 C2160 0.960 . S
H2146 C2160 0.960 . S
H2147 C2160 0.960 . S
C2148 H2140 0.929 . S
C2148 C2149 1.377 . S
C2148 C2150 1.384 . S
C2149 C2148 1.377 . S
C2149 C2155 1.390 . S
C2150 H2141 0.930 . S
C2150 C2148 1.384 . S
C2150 C2151 1.372 . S
C2151 C2150 1.372 . S
C2151 C2152 1.400 . S
C2151 C2156 1.490 . S
C2152 H2142 0.930 . S
C2152 C2151 1.400 . S
C2152 C2155 1.386 . S
H2153 C2169 0.930 . S
H2154 C2170 0.931 . S
C2155 H2143 0.929 . S
C2155 C2149 1.390 . S
C2155 C2152 1.386 . S
C2156 C2151 1.490 . S
C2156 C2158 1.395 . S
C2156 C2159 1.403 . S
H2157 C2163 0.930 . S
C2158 H2144 0.930 . S
C2158 C2156 1.395 . S
C2158 C2161 1.403 . S
C2159 C2156 1.403 . S
C2159 C2160 1.524 . S
C2159 C2163 1.400 . S
C2160 H2145 0.960 . S
C2160 H2146 0.960 . S
C2160 H2147 0.960 . S
C2160 C2159 1.524 . S
C2161 C2158 1.403 . S
C2161 C2162 1.392 . S
C2161 C2165 1.495 . S
C2162 C2161 1.392 . S
C2162 C2163 1.385 . S
C2162 C2164 1.478 . S
C2163 H2157 0.930 . S
C2163 C2159 1.400 . S
C2163 C2162 1.385 . S
C2164 C2162 1.478 . S
C2164 C2166 1.381 . S
C2164 C2170 1.383 . S
C2165 C2161 1.495 . S
C2165 H2171 0.959 . S
C2165 H2172 0.961 . S
C2165 H2173 0.960 . S
C2166 C2164 1.381 . S
C2166 C2167 1.394 . S
C2166 H2174 0.930 . S
C2167 C2166 1.394 . S
C2167 C2168 1.383 . S
C2167 H2175 0.929 . S
C2168 C2167 1.383 . S
C2168 C2169 1.377 . S
C2169 H2153 0.930 . S
C2169 C2168 1.377 . S
C2169 C2170 1.379 . S
C2170 H2154 0.931 . S
C2170 C2164 1.383 . S
C2170 C2169 1.379 . S
H2171 C2165 0.959 . S
H2172 C2165 0.961 . S
H2173 C2165 0.960 . S
H2174 C2166 0.930 . S
H2175 C2167 0.929 . S
H2176 C2184 0.929 . S
H2177 C2186 0.930 . S
H2178 C2188 0.930 . S
H2179 C2191 0.929 . S
H2180 C2194 0.930 . S
H2181 C2196 0.960 . S
H2182 C2196 0.960 . S
H2183 C2196 0.960 . S
C2184 H2176 0.929 . S
C2184 C2185 1.377 . S
C2184 C2186 1.384 . S
C2185 C2184 1.377 . S
C2185 C2191 1.390 . S
C2186 H2177 0.930 . S
C2186 C2184 1.384 . S
C2186 C2187 1.372 . S
C2187 C2186 1.372 . S
C2187 C2188 1.400 . S
C2187 C2192 1.490 . S
C2188 H2178 0.930 . S
C2188 C2187 1.400 . S
C2188 C2191 1.386 . S
H2189 C2205 0.930 . S
H2190 C2206 0.931 . S
C2191 H2179 0.929 . S
C2191 C2185 1.390 . S
C2191 C2188 1.386 . S
C2192 C2187 1.490 . S
C2192 C2194 1.395 . S
C2192 C2195 1.403 . S
H2193 C2199 0.930 . S
C2194 H2180 0.930 . S
C2194 C2192 1.395 . S
C2194 C2197 1.403 . S
C2195 C2192 1.403 . S
C2195 C2196 1.524 . S
C2195 C2199 1.400 . S
C2196 H2181 0.960 . S
C2196 H2182 0.960 . S
C2196 H2183 0.960 . S
C2196 C2195 1.524 . S
C2197 C2194 1.403 . S
C2197 C2198 1.392 . S
C2197 C2201 1.495 . S
C2198 C2197 1.392 . S
C2198 C2199 1.385 . S
C2198 C2200 1.478 . S
C2199 H2193 0.930 . S
C2199 C2195 1.400 . S
C2199 C2198 1.385 . S
C2200 C2198 1.478 . S
C2200 C2202 1.381 . S
C2200 C2206 1.383 . S
C2201 C2197 1.495 . S
C2201 H2207 0.959 . S
C2201 H2208 0.961 . S
C2201 H2209 0.960 . S
C2202 C2200 1.381 . S
C2202 C2203 1.394 . S
C2202 H2210 0.930 . S
C2203 C2202 1.394 . S
C2203 C2204 1.383 . S
C2203 H2211 0.929 . S
C2204 C2203 1.383 . S
C2204 C2205 1.377 . S
C2205 H2189 0.930 . S
C2205 C2204 1.377 . S
C2205 C2206 1.379 . S
C2206 H2190 0.931 . S
C2206 C2200 1.383 . S
C2206 C2205 1.379 . S
H2207 C2201 0.959 . S
H2208 C2201 0.961 . S
H2209 C2201 0.960 . S
H2210 C2202 0.930 . S
H2211 C2203 0.929 . S
H2212 C2220 0.929 . S
H2213 C2222 0.930 . S
H2214 C2224 0.930 . S
H2215 C2227 0.929 . S
H2216 C2230 0.930 . S
H2217 C2232 0.960 . S
H2218 C2232 0.960 . S
H2219 C2232 0.960 . S
C2220 H2212 0.929 . S
C2220 C2221 1.377 . S
C2220 C2222 1.384 . S
C2221 C2220 1.377 . S
C2221 C2227 1.390 . S
C2222 H2213 0.930 . S
C2222 C2220 1.384 . S
C2222 C2223 1.372 . S
C2223 C2222 1.372 . S
C2223 C2224 1.400 . S
C2223 C2228 1.490 . S
C2224 H2214 0.930 . S
C2224 C2223 1.400 . S
C2224 C2227 1.386 . S
H2225 C2241 0.930 . S
H2226 C2242 0.931 . S
C2227 H2215 0.929 . S
C2227 C2221 1.390 . S
C2227 C2224 1.386 . S
C2228 C2223 1.490 . S
C2228 C2230 1.395 . S
C2228 C2231 1.403 . S
H2229 C2235 0.930 . S
C2230 H2216 0.930 . S
C2230 C2228 1.395 . S
C2230 C2233 1.403 . S
C2231 C2228 1.403 . S
C2231 C2232 1.524 . S
C2231 C2235 1.400 . S
C2232 H2217 0.960 . S
C2232 H2218 0.960 . S
C2232 H2219 0.960 . S
C2232 C2231 1.524 . S
C2233 C2230 1.403 . S
C2233 C2234 1.392 . S
C2233 C2237 1.495 . S
C2234 C2233 1.392 . S
C2234 C2235 1.385 . S
C2234 C2236 1.478 . S
C2235 H2229 0.930 . S
C2235 C2231 1.400 . S
C2235 C2234 1.385 . S
C2236 C2234 1.478 . S
C2236 C2238 1.381 . S
C2236 C2242 1.383 . S
C2237 C2233 1.495 . S
C2237 H2243 0.959 . S
C2237 H2244 0.961 . S
C2237 H2245 0.960 . S
C2238 C2236 1.381 . S
C2238 C2239 1.394 . S
C2238 H2246 0.930 . S
C2239 C2238 1.394 . S
C2239 C2240 1.383 . S
C2239 H2247 0.929 . S
C2240 C2239 1.383 . S
C2240 C2241 1.377 . S
C2241 H2225 0.930 . S
C2241 C2240 1.377 . S
C2241 C2242 1.379 . S
C2242 H2226 0.931 . S
C2242 C2236 1.383 . S
C2242 C2241 1.379 . S
H2243 C2237 0.959 . S
H2244 C2237 0.961 . S
H2245 C2237 0.960 . S
H2246 C2238 0.930 . S
H2247 C2239 0.929 . S
H2248 C2256 0.929 . S
H2249 C2258 0.930 . S
H2250 C2260 0.930 . S
H2251 C2263 0.929 . S
H2252 C2266 0.930 . S
H2253 C2268 0.960 . S
H2254 C2268 0.960 . S
H2255 C2268 0.960 . S
C2256 H2248 0.929 . S
C2256 C2257 1.377 . S
C2256 C2258 1.384 . S
C2257 C2256 1.377 . S
C2257 C2263 1.390 . S
C2258 H2249 0.930 . S
C2258 C2256 1.384 . S
C2258 C2259 1.372 . S
C2259 C2258 1.372 . S
C2259 C2260 1.400 . S
C2259 C2264 1.490 . S
C2260 H2250 0.930 . S
C2260 C2259 1.400 . S
C2260 C2263 1.386 . S
H2261 C2277 0.930 . S
H2262 C2278 0.931 . S
C2263 H2251 0.929 . S
C2263 C2257 1.390 . S
C2263 C2260 1.386 . S
C2264 C2259 1.490 . S
C2264 C2266 1.395 . S
C2264 C2267 1.403 . S
H2265 C2271 0.930 . S
C2266 H2252 0.930 . S
C2266 C2264 1.395 . S
C2266 C2269 1.403 . S
C2267 C2264 1.403 . S
C2267 C2268 1.524 . S
C2267 C2271 1.400 . S
C2268 H2253 0.960 . S
C2268 H2254 0.960 . S
C2268 H2255 0.960 . S
C2268 C2267 1.524 . S
C2269 C2266 1.403 . S
C2269 C2270 1.392 . S
C2269 C2273 1.495 . S
C2270 C2269 1.392 . S
C2270 C2271 1.385 . S
C2270 C2272 1.478 . S
C2271 H2265 0.930 . S
C2271 C2267 1.400 . S
C2271 C2270 1.385 . S
C2272 C2270 1.478 . S
C2272 C2274 1.381 . S
C2272 C2278 1.383 . S
C2273 C2269 1.495 . S
C2273 H2279 0.959 . S
C2273 H2280 0.961 . S
C2273 H2281 0.960 . S
C2274 C2272 1.381 . S
C2274 C2275 1.394 . S
C2274 H2282 0.930 . S
C2275 C2274 1.394 . S
C2275 C2276 1.383 . S
C2275 H2283 0.929 . S
C2276 C2275 1.383 . S
C2276 C2277 1.377 . S
C2277 H2261 0.930 . S
C2277 C2276 1.377 . S
C2277 C2278 1.379 . S
C2278 H2262 0.931 . S
C2278 C2272 1.383 . S
C2278 C2277 1.379 . S
H2279 C2273 0.959 . S
H2280 C2273 0.961 . S
H2281 C2273 0.960 . S
H2282 C2274 0.930 . S
H2283 C2275 0.929 . S
H2284 C2292 0.929 . S
H2285 C2294 0.930 . S
H2286 C2296 0.930 . S
H2287 C2299 0.929 . S
H2288 C2302 0.930 . S
H2289 C2304 0.960 . S
H2290 C2304 0.960 . S
H2291 C2304 0.960 . S
C2292 H2284 0.929 . S
C2292 C2293 1.377 . S
C2292 C2294 1.384 . S
C2293 C2292 1.377 . S
C2293 C2299 1.390 . S
C2294 H2285 0.930 . S
C2294 C2292 1.384 . S
C2294 C2295 1.372 . S
C2295 C2294 1.372 . S
C2295 C2296 1.400 . S
C2295 C2300 1.490 . S
C2296 H2286 0.930 . S
C2296 C2295 1.400 . S
C2296 C2299 1.386 . S
H2297 C2313 0.930 . S
H2298 C2314 0.931 . S
C2299 H2287 0.929 . S
C2299 C2293 1.390 . S
C2299 C2296 1.386 . S
C2300 C2295 1.490 . S
C2300 C2302 1.395 . S
C2300 C2303 1.403 . S
H2301 C2307 0.930 . S
C2302 H2288 0.930 . S
C2302 C2300 1.395 . S
C2302 C2305 1.403 . S
C2303 C2300 1.403 . S
C2303 C2304 1.524 . S
C2303 C2307 1.400 . S
C2304 H2289 0.960 . S
C2304 H2290 0.960 . S
C2304 H2291 0.960 . S
C2304 C2303 1.524 . S
C2305 C2302 1.403 . S
C2305 C2306 1.392 . S
C2305 C2309 1.495 . S
C2306 C2305 1.392 . S
C2306 C2307 1.385 . S
C2306 C2308 1.478 . S
C2307 H2301 0.930 . S
C2307 C2303 1.400 . S
C2307 C2306 1.385 . S
C2308 C2306 1.478 . S
C2308 C2310 1.381 . S
C2308 C2314 1.383 . S
C2309 C2305 1.495 . S
C2309 H2315 0.959 . S
C2309 H2316 0.961 . S
C2309 H2317 0.960 . S
C2310 C2308 1.381 . S
C2310 C2311 1.394 . S
C2310 H2318 0.930 . S
C2311 C2310 1.394 . S
C2311 C2312 1.383 . S
C2311 H2319 0.929 . S
C2312 C2311 1.383 . S
C2312 C2313 1.377 . S
C2313 H2297 0.930 . S
C2313 C2312 1.377 . S
C2313 C2314 1.379 . S
C2314 H2298 0.931 . S
C2314 C2308 1.383 . S
C2314 C2313 1.379 . S
H2315 C2309 0.959 . S
H2316 C2309 0.961 . S
H2317 C2309 0.960 . S
H2318 C2310 0.930 . S
H2319 C2311 0.929 . S
H2320 C2328 0.929 . S
H2321 C2330 0.930 . S
H2322 C2332 0.930 . S
H2323 C2335 0.929 . S
H2324 C2338 0.930 . S
H2325 C2340 0.960 . S
H2326 C2340 0.960 . S
H2327 C2340 0.960 . S
C2328 H2320 0.929 . S
C2328 C2329 1.377 . S
C2328 C2330 1.384 . S
C2329 C2328 1.377 . S
C2329 C2335 1.390 . S
C2330 H2321 0.930 . S
C2330 C2328 1.384 . S
C2330 C2331 1.372 . S
C2331 C2330 1.372 . S
C2331 C2332 1.400 . S
C2331 C2336 1.490 . S
C2332 H2322 0.930 . S
C2332 C2331 1.400 . S
C2332 C2335 1.386 . S
H2333 C2349 0.930 . S
H2334 C2350 0.931 . S
C2335 H2323 0.929 . S
C2335 C2329 1.390 . S
C2335 C2332 1.386 . S
C2336 C2331 1.490 . S
C2336 C2338 1.395 . S
C2336 C2339 1.403 . S
H2337 C2343 0.930 . S
C2338 H2324 0.930 . S
C2338 C2336 1.395 . S
C2338 C2341 1.403 . S
C2339 C2336 1.403 . S
C2339 C2340 1.524 . S
C2339 C2343 1.400 . S
C2340 H2325 0.960 . S
C2340 H2326 0.960 . S
C2340 H2327 0.960 . S
C2340 C2339 1.524 . S
C2341 C2338 1.403 . S
C2341 C2342 1.392 . S
C2341 C2345 1.495 . S
C2342 C2341 1.392 . S
C2342 C2343 1.385 . S
C2342 C2344 1.478 . S
C2343 H2337 0.930 . S
C2343 C2339 1.400 . S
C2343 C2342 1.385 . S
C2344 C2342 1.478 . S
C2344 C2346 1.381 . S
C2344 C2350 1.383 . S
C2345 C2341 1.495 . S
C2345 H2351 0.959 . S
C2345 H2352 0.961 . S
C2345 H2353 0.960 . S
C2346 C2344 1.381 . S
C2346 C2347 1.394 . S
C2346 H2354 0.930 . S
C2347 C2346 1.394 . S
C2347 C2348 1.383 . S
C2347 H2355 0.929 . S
C2348 C2347 1.383 . S
C2348 C2349 1.377 . S
C2349 H2333 0.930 . S
C2349 C2348 1.377 . S
C2349 C2350 1.379 . S
C2350 H2334 0.931 . S
C2350 C2344 1.383 . S
C2350 C2349 1.379 . S
H2351 C2345 0.959 . S
H2352 C2345 0.961 . S
H2353 C2345 0.960 . S
H2354 C2346 0.930 . S
H2355 C2347 0.929 . S
H2356 C2364 0.929 . S
H2357 C2366 0.930 . S
H2358 C2368 0.930 . S
H2359 C2371 0.929 . S
H2360 C2374 0.930 . S
H2361 C2376 0.960 . S
H2362 C2376 0.960 . S
H2363 C2376 0.960 . S
C2364 H2356 0.929 . S
C2364 C2365 1.377 . S
C2364 C2366 1.384 . S
C2365 C2364 1.377 . S
C2365 C2371 1.390 . S
C2366 H2357 0.930 . S
C2366 C2364 1.384 . S
C2366 C2367 1.372 . S
C2367 C2366 1.372 . S
C2367 C2368 1.400 . S
C2367 C2372 1.490 . S
C2368 H2358 0.930 . S
C2368 C2367 1.400 . S
C2368 C2371 1.386 . S
H2369 C2385 0.930 . S
H2370 C2386 0.931 . S
C2371 H2359 0.929 . S
C2371 C2365 1.390 . S
C2371 C2368 1.386 . S
C2372 C2367 1.490 . S
C2372 C2374 1.395 . S
C2372 C2375 1.403 . S
H2373 C2379 0.930 . S
C2374 H2360 0.930 . S
C2374 C2372 1.395 . S
C2374 C2377 1.403 . S
C2375 C2372 1.403 . S
C2375 C2376 1.524 . S
C2375 C2379 1.400 . S
C2376 H2361 0.960 . S
C2376 H2362 0.960 . S
C2376 H2363 0.960 . S
C2376 C2375 1.524 . S
C2377 C2374 1.403 . S
C2377 C2378 1.392 . S
C2377 C2381 1.495 . S
C2378 C2377 1.392 . S
C2378 C2379 1.385 . S
C2378 C2380 1.478 . S
C2379 H2373 0.930 . S
C2379 C2375 1.400 . S
C2379 C2378 1.385 . S
C2380 C2378 1.478 . S
C2380 C2382 1.381 . S
C2380 C2386 1.383 . S
C2381 C2377 1.495 . S
C2381 H2387 0.959 . S
C2381 H2388 0.961 . S
C2381 H2389 0.960 . S
C2382 C2380 1.381 . S
C2382 C2383 1.394 . S
C2382 H2390 0.930 . S
C2383 C2382 1.394 . S
C2383 C2384 1.383 . S
C2383 H2391 0.929 . S
C2384 C2383 1.383 . S
C2384 C2385 1.377 . S
C2385 H2369 0.930 . S
C2385 C2384 1.377 . S
C2385 C2386 1.379 . S
C2386 H2370 0.931 . S
C2386 C2380 1.383 . S
C2386 C2385 1.379 . S
H2387 C2381 0.959 . S
H2388 C2381 0.961 . S
H2389 C2381 0.960 . S
H2390 C2382 0.930 . S
H2391 C2383 0.929 . S
H2392 C2400 0.929 . S
H2393 C2402 0.930 . S
H2394 C2404 0.930 1_554 S
H2395 C2407 0.929 1_554 S
H2396 C2410 0.930 . S
H2397 C2412 0.960 . S
H2398 C2412 0.960 . S
H2399 C2412 0.985 . S
C2400 H2392 0.929 . S
C2400 C2401 1.377 . S
C2400 C2402 1.384 . S
C2401 C2400 1.377 . S
C2401 C2407 1.390 . S
C2402 H2393 0.930 . S
C2402 C2400 1.384 . S
C2402 C2403 1.372 . S
C2403 C2402 1.372 . S
C2403 C2404 1.400 . S
C2403 C2408 1.490 . S
C2404 H2394 0.930 1_556 S
C2404 C2403 1.400 . S
C2404 C2407 1.386 . S
H2405 C2421 0.930 . S
H2406 C2422 0.931 . S
C2407 H2395 0.929 1_556 S
C2407 C2401 1.390 . S
C2407 C2404 1.386 . S
C2408 C2403 1.490 . S
C2408 C2410 1.395 . S
C2408 C2411 1.403 . S
H2409 C2415 0.930 . S
C2410 H2396 0.930 . S
C2410 C2408 1.395 . S
C2410 C2413 1.403 . S
C2411 C2408 1.403 . S
C2411 C2412 1.524 . S
C2411 C2415 1.400 . S
C2412 H2397 0.960 . S
C2412 H2398 0.960 . S
C2412 H2399 0.985 . S
C2412 C2411 1.524 . S
C2413 C2410 1.403 . S
C2413 C2414 1.392 . S
C2413 C2417 1.495 . S
C2414 C2413 1.392 . S
C2414 C2415 1.385 . S
C2414 C2416 1.478 . S
C2415 H2409 0.930 . S
C2415 C2411 1.400 . S
C2415 C2414 1.385 . S
C2416 C2414 1.478 . S
C2416 C2418 1.381 . S
C2416 C2422 1.383 1_556 S
C2417 C2413 1.495 . S
C2417 H2423 0.959 . S
C2417 H2424 0.961 . S
C2417 H2425 0.960 . S
C2418 C2416 1.381 . S
C2418 C2419 1.394 . S
C2418 H2426 0.930 . S
C2419 C2418 1.394 . S
C2419 C2420 1.383 . S
C2419 H2427 0.929 . S
C2420 C2419 1.383 . S
C2420 C2421 1.377 1_556 S
C2421 H2405 0.930 . S
C2421 C2420 1.377 1_554 S
C2421 C2422 1.379 . S
C2422 H2406 0.931 . S
C2422 C2416 1.383 1_554 S
C2422 C2421 1.379 . S
H2423 C2417 0.959 . S
H2424 C2417 0.961 . S
H2425 C2417 0.960 . S
H2426 C2418 0.930 . S
H2427 C2419 0.929 . S
H2428 C2436 0.929 . S
H2429 C2438 0.930 . S
H2430 C2440 0.930 . S
H2431 C2443 0.929 . S
H2432 C2446 0.930 . S
H2433 C2448 0.960 . S
H2434 C2448 0.960 . S
H2435 C2448 0.960 . S
C2436 H2428 0.929 . S
C2436 C2437 1.377 . S
C2436 C2438 1.384 . S
C2437 C2436 1.377 . S
C2437 C2443 1.390 . S
C2438 H2429 0.930 . S
C2438 C2436 1.384 . S
C2438 C2439 1.372 . S
C2439 C2438 1.372 . S
C2439 C2440 1.400 . S
C2439 C2444 1.490 . S
C2440 H2430 0.930 . S
C2440 C2439 1.400 . S
C2440 C2443 1.386 . S
H2441 C2457 0.930 . S
H2442 C2458 0.931 . S
C2443 H2431 0.929 . S
C2443 C2437 1.390 . S
C2443 C2440 1.386 . S
C2444 C2439 1.490 . S
C2444 C2446 1.395 . S
C2444 C2447 1.403 . S
H2445 C2451 0.930 . S
C2446 H2432 0.930 . S
C2446 C2444 1.395 . S
C2446 C2449 1.403 . S
C2447 C2444 1.403 . S
C2447 C2448 1.524 . S
C2447 C2451 1.400 . S
C2448 H2433 0.960 . S
C2448 H2434 0.960 . S
C2448 H2435 0.960 . S
C2448 C2447 1.524 . S
C2449 C2446 1.403 . S
C2449 C2450 1.392 . S
C2449 C2453 1.495 . S
C2450 C2449 1.392 . S
C2450 C2451 1.385 . S
C2450 C2452 1.478 . S
C2451 H2445 0.930 . S
C2451 C2447 1.400 . S
C2451 C2450 1.385 . S
C2452 C2450 1.478 . S
C2452 C2454 1.381 . S
C2452 C2458 1.383 . S
C2453 C2449 1.495 . S
C2453 H2459 0.959 . S
C2453 H2460 0.961 . S
C2453 H2461 0.960 . S
C2454 C2452 1.381 . S
C2454 C2455 1.394 . S
C2454 H2462 0.930 . S
C2455 C2454 1.394 . S
C2455 C2456 1.383 . S
C2455 H2463 0.929 . S
C2456 C2455 1.383 . S
C2456 C2457 1.377 . S
C2457 H2441 0.930 . S
C2457 C2456 1.377 . S
C2457 C2458 1.379 . S
C2458 H2442 0.931 . S
C2458 C2452 1.383 . S
C2458 C2457 1.379 . S
H2459 C2453 0.959 . S
H2460 C2453 0.961 . S
H2461 C2453 0.960 . S
H2462 C2454 0.930 . S
H2463 C2455 0.929 . S
H2464 C2472 0.929 . S
H2465 C2474 0.930 . S
H2466 C2476 0.930 . S
H2467 C2479 0.929 . S
H2468 C2482 0.930 . S
H2469 C2484 0.960 . S
H2470 C2484 0.960 . S
H2471 C2484 0.960 . S
C2472 H2464 0.929 . S
C2472 C2473 1.377 . S
C2472 C2474 1.384 . S
C2473 C2472 1.377 . S
C2473 C2479 1.390 . S
C2474 H2465 0.930 . S
C2474 C2472 1.384 . S
C2474 C2475 1.372 . S
C2475 C2474 1.372 . S
C2475 C2476 1.400 . S
C2475 C2480 1.490 . S
C2476 H2466 0.930 . S
C2476 C2475 1.400 . S
C2476 C2479 1.386 . S
H2477 C2493 0.986 . S
H2478 C2494 0.931 1_556 S
C2479 H2467 0.929 . S
C2479 C2473 1.390 . S
C2479 C2476 1.386 . S
C2480 C2475 1.490 . S
C2480 C2482 1.395 . S
C2480 C2483 1.403 . S
H2481 C2487 0.930 . S
C2482 H2468 0.930 . S
C2482 C2480 1.395 . S
C2482 C2485 1.403 . S
C2483 C2480 1.403 . S
C2483 C2484 1.524 . S
C2483 C2487 1.400 . S
C2484 H2469 0.960 . S
C2484 H2470 0.960 . S
C2484 H2471 0.960 . S
C2484 C2483 1.524 . S
C2485 C2482 1.403 . S
C2485 C2486 1.392 . S
C2485 C2489 1.495 . S
C2486 C2485 1.392 . S
C2486 C2487 1.385 . S
C2486 C2488 1.478 . S
C2487 H2481 0.930 . S
C2487 C2483 1.400 . S
C2487 C2486 1.385 . S
C2488 C2486 1.478 . S
C2488 C2490 1.381 . S
C2488 C2494 1.383 . S
C2489 C2485 1.495 . S
C2489 H2495 0.959 . S
C2489 H2496 0.961 . S
C2489 H2497 0.960 . S
C2490 C2488 1.381 . S
C2490 C2491 1.394 . S
C2490 H2498 0.930 . S
C2491 C2490 1.394 . S
C2491 C2492 1.383 . S
C2491 H2499 0.929 . S
C2492 C2491 1.383 . S
C2492 C2493 1.330 1_554 S
C2493 H2477 0.986 . S
C2493 C2492 1.330 1_556 S
C2493 C2494 1.372 1_556 S
C2494 H2478 0.931 1_554 S
C2494 C2488 1.383 . S
C2494 C2493 1.372 1_554 S
H2495 C2489 0.959 . S
H2496 C2489 0.961 . S
H2497 C2489 0.960 . S
H2498 C2490 0.930 . S
H2499 C2491 0.929 . S
H2500 C2508 0.929 1_556 S
H2501 C2510 0.930 1_556 S
H2502 C2512 0.930 . S
H2503 C2515 0.929 . S
H2504 C2518 0.926 . S
H2505 C2520 0.960 . S
H2506 C2520 0.960 . S
H2507 C2520 0.960 . S
C2508 H2500 0.929 1_554 S
C2508 C2509 1.377 . S
C2508 C2510 1.384 . S
C2509 C2508 1.377 . S
C2509 C2515 1.390 . S
C2510 H2501 0.930 1_554 S
C2510 C2508 1.384 . S
C2510 C2511 1.372 . S
C2511 C2510 1.372 . S
C2511 C2512 1.400 . S
C2511 C2516 1.490 . S
C2512 H2502 0.930 . S
C2512 C2511 1.400 . S
C2512 C2515 1.386 . S
H2513 C2529 0.930 . S
H2514 C2530 0.931 . S
C2515 H2503 0.929 . S
C2515 C2509 1.390 . S
C2515 C2512 1.386 . S
C2516 C2511 1.490 . S
C2516 C2518 1.395 . S
C2516 C2519 1.403 . S
H2517 C2523 0.930 . S
C2518 H2504 0.926 . S
C2518 C2516 1.395 . S
C2518 C2521 1.403 . S
C2519 C2516 1.403 . S
C2519 C2520 1.524 . S
C2519 C2523 1.400 . S
C2520 H2505 0.960 . S
C2520 H2506 0.960 . S
C2520 H2507 0.960 . S
C2520 C2519 1.524 . S
C2521 C2518 1.403 . S
C2521 C2522 1.392 . S
C2521 C2525 1.495 1_554 S
C2522 C2521 1.392 . S
C2522 C2523 1.385 . S
C2522 C2524 1.478 . S
C2523 H2517 0.930 . S
C2523 C2519 1.400 . S
C2523 C2522 1.385 . S
C2524 C2522 1.478 . S
C2524 C2526 1.381 1_554 S
C2524 C2530 1.383 . S
C2525 C2521 1.495 1_556 S
C2525 H2531 0.959 . S
C2525 H2532 0.926 1_556 S
C2525 H2533 0.960 . S
C2526 C2524 1.381 1_556 S
C2526 C2527 1.394 . S
C2526 H2534 0.930 . S
C2527 C2526 1.394 . S
C2527 C2528 1.383 1_556 S
C2527 H2535 0.929 . S
C2528 C2527 1.383 1_554 S
C2528 C2529 1.377 . S
C2529 H2513 0.930 . S
C2529 C2528 1.377 . S
C2529 C2530 1.379 . S
C2530 H2514 0.931 . S
C2530 C2524 1.383 . S
C2530 C2529 1.379 . S
H2531 C2525 0.959 . S
H2532 C2525 0.926 1_554 S
H2533 C2525 0.960 . S
H2534 C2526 0.930 . S
H2535 C2527 0.929 . S
C836 C651 1.420 . S
C817 C202 1.418 . S
C872 C659 1.278 . S
C853 C261 1.566 . S
C889 C282 1.429 . S
C908 C679 1.391 . S
C944 C693 1.495 . S
C925 C162 1.490 1_655 S
C980 C708 1.516 . S
C961 C402 1.505 . S
C1016 C722 1.519 . S
C997 C482 1.513 . S
C1033 C442 1.578 . S
C1052 C736 1.583 . S
C1088 C742 1.425 . S
C1069 C381 1.491 . S
C1105 C461 1.567 . S
C1124 C756 1.554 . S
C1160 C777 1.508 . S
C1141 C362 1.531 . S
C1177 C415 1.408 . S
C1196 C757 1.196 . S
C1232 C778 1.565 . S
C1213 C495 1.566 . S
C1249 C301 1.521 . S
C1268 C785 1.210 . S
C1285 C175 1.536 . S
C1304 C791 1.502 . S
C1321 C215 1.458 . S
C1340 C784 1.388 . S
C1357 C242 1.437 . S
C1376 C792 1.445 . S
C1393 C141 1.525 . S
C1412 C686 1.505 . S
C1429 C581 1.519 . S
C1448 C687 1.279 . S
C1484 C644 1.459 . S
C1465 C615 1.515 . S
C1520 C665 1.426 . S
C1501 C335 1.440 . S
C1537 C181 1.546 . S
C1556 C700 1.489 . S
C1592 C750 1.513 . S
C1573 C455 1.517 . S
C1628 C701 1.098 . S
C1609 C375 1.380 . S
C1664 C729 1.379 . S
C1645 C501 1.628 . S
C1700 C735 1.411 . S
C1681 C562 1.419 . S
C1717 C621 1.567 . S
C1736 C743 1.331 . S
C1753 C322 1.425 . S
C1772 C707 1.425 . S
C1808 C721 1.491 . S
C1789 C522 1.520 . S
C1825 C122 1.502 . S
C1844 C680 1.514 . S
C1880 C694 1.519 . S
C1861 C2 1.516 . S
C1916 C652 1.582 . S
C1897 C42 1.577 . S
C1952 C658 1.427 . S
C1933 C101 1.491 . S
C1969 C61 1.567 . S
C1988 C770 1.513 . S
C2005 C82 1.526 . S
C2024 C763 1.525 . S
C2041 C135 1.408 . S
C2060 C771 1.127 . S
C2077 C15 1.564 . S
C2096 C764 1.563 . S
C2132 C799 1.262 . S
C2113 C341 1.519 . S
C2168 C805 1.514 . S
C2149 C535 1.537 . S
C2204 C798 1.439 . S
C2185 C575 1.459 . S
C2221 C602 1.438 . S
C2240 C806 1.446 . S
C2257 C421 1.525 . S
C2276 C714 1.492 . S
C2312 C715 1.333 . S
C2293 C221 1.514 . S
C2348 C728 1.457 . S
C2329 C255 1.516 . S
C2384 C749 1.417 . S
C2365 C295 1.440 . S
C2401 C541 1.546 . S
C2420 C672 1.495 . S
C2456 C666 1.512 . S
C2437 C55 1.517 . S
C2473 C95 1.380 . S
C2492 C673 1.096 . S
C2528 C645 1.393 . S
C2509 C21 1.627 . S
