# Generated by pormake.
# Topology myd, (4,6)-cn, num edge types: 1
# Building blocks:
#     Node 0, Type 0, BuildingBlock: NAWXER_clean_sbu_0, # of connection points: 4
#     Node 1, Type 0, BuildingBlock: NAWXER_clean_sbu_0, # of connection points: 4
#     Node 2, Type 0, BuildingBlock: NAWXER_clean_sbu_0, # of connection points: 4
#     Node 3, Type 0, BuildingBlock: NAWXER_clean_sbu_0, # of connection points: 4
#     Node 4, Type 0, BuildingBlock: NAWXER_clean_sbu_0, # of connection points: 4
#     Node 5, Type 0, BuildingBlock: NAWXER_clean_sbu_0, # of connection points: 4
#     Node 6, Type 0, BuildingBlock: NAWXER_clean_sbu_0, # of connection points: 4
#     Node 7, Type 0, BuildingBlock: NAWXER_clean_sbu_0, # of connection points: 4
#     Node 8, Type 0, BuildingBlock: NAWXER_clean_sbu_0, # of connection points: 4
#     Node 9, Type 0, BuildingBlock: NAWXER_clean_sbu_0, # of connection points: 4
#     Node 10, Type 0, BuildingBlock: NAWXER_clean_sbu_0, # of connection points: 4
#     Node 11, Type 0, BuildingBlock: NAWXER_clean_sbu_0, # of connection points: 4
#     Node 12, Type 1, BuildingBlock: JUFBIX_clean_sbu_0, # of connection points: 6
#     Node 13, Type 1, BuildingBlock: JUFBIX_clean_sbu_0, # of connection points: 6
#     Node 14, Type 1, BuildingBlock: JUFBIX_clean_sbu_0, # of connection points: 6
#     Node 15, Type 1, BuildingBlock: JUFBIX_clean_sbu_0, # of connection points: 6
#     Node 16, Type 1, BuildingBlock: JUFBIX_clean_sbu_0, # of connection points: 6
#     Node 17, Type 1, BuildingBlock: JUFBIX_clean_sbu_0, # of connection points: 6
#     Node 18, Type 1, BuildingBlock: JUFBIX_clean_sbu_0, # of connection points: 6
#     Node 19, Type 1, BuildingBlock: JUFBIX_clean_sbu_0, # of connection points: 6
#     Edge 20, Type (0, 1), BuildingBlock: KIFKEQ_clean_linker_1, # of connection points: 2
#     Edge 21, Type (0, 1), BuildingBlock: KIFKEQ_clean_linker_1, # of connection points: 2
#     Edge 22, Type (0, 1), BuildingBlock: KIFKEQ_clean_linker_1, # of connection points: 2
#     Edge 23, Type (0, 1), BuildingBlock: KIFKEQ_clean_linker_1, # of connection points: 2
#     Edge 24, Type (0, 1), BuildingBlock: KIFKEQ_clean_linker_1, # of connection points: 2
#     Edge 25, Type (0, 1), BuildingBlock: KIFKEQ_clean_linker_1, # of connection points: 2
#     Edge 26, Type (0, 1), BuildingBlock: KIFKEQ_clean_linker_1, # of connection points: 2
#     Edge 27, Type (0, 1), BuildingBlock: KIFKEQ_clean_linker_1, # of connection points: 2
#     Edge 28, Type (0, 1), BuildingBlock: KIFKEQ_clean_linker_1, # of connection points: 2
#     Edge 29, Type (0, 1), BuildingBlock: KIFKEQ_clean_linker_1, # of connection points: 2
#     Edge 30, Type (0, 1), BuildingBlock: KIFKEQ_clean_linker_1, # of connection points: 2
#     Edge 31, Type (0, 1), BuildingBlock: KIFKEQ_clean_linker_1, # of connection points: 2
#     Edge 32, Type (0, 1), BuildingBlock: KIFKEQ_clean_linker_1, # of connection points: 2
#     Edge 33, Type (0, 1), BuildingBlock: KIFKEQ_clean_linker_1, # of connection points: 2
#     Edge 34, Type (0, 1), BuildingBlock: KIFKEQ_clean_linker_1, # of connection points: 2
#     Edge 35, Type (0, 1), BuildingBlock: KIFKEQ_clean_linker_1, # of connection points: 2
#     Edge 36, Type (0, 1), BuildingBlock: KIFKEQ_clean_linker_1, # of connection points: 2
#     Edge 37, Type (0, 1), BuildingBlock: KIFKEQ_clean_linker_1, # of connection points: 2
#     Edge 38, Type (0, 1), BuildingBlock: KIFKEQ_clean_linker_1, # of connection points: 2
#     Edge 39, Type (0, 1), BuildingBlock: KIFKEQ_clean_linker_1, # of connection points: 2
#     Edge 40, Type (0, 1), BuildingBlock: KIFKEQ_clean_linker_1, # of connection points: 2
#     Edge 41, Type (0, 1), BuildingBlock: KIFKEQ_clean_linker_1, # of connection points: 2
#     Edge 42, Type (0, 1), BuildingBlock: KIFKEQ_clean_linker_1, # of connection points: 2
#     Edge 43, Type (0, 1), BuildingBlock: KIFKEQ_clean_linker_1, # of connection points: 2
#     Edge 44, Type (0, 1), BuildingBlock: KIFKEQ_clean_linker_1, # of connection points: 2
#     Edge 45, Type (0, 1), BuildingBlock: KIFKEQ_clean_linker_1, # of connection points: 2
#     Edge 46, Type (0, 1), BuildingBlock: KIFKEQ_clean_linker_1, # of connection points: 2
#     Edge 47, Type (0, 1), BuildingBlock: KIFKEQ_clean_linker_1, # of connection points: 2
#     Edge 48, Type (0, 1), BuildingBlock: KIFKEQ_clean_linker_1, # of connection points: 2
#     Edge 49, Type (0, 1), BuildingBlock: KIFKEQ_clean_linker_1, # of connection points: 2
#     Edge 50, Type (0, 1), BuildingBlock: KIFKEQ_clean_linker_1, # of connection points: 2
#     Edge 51, Type (0, 1), BuildingBlock: KIFKEQ_clean_linker_1, # of connection points: 2
#     Edge 52, Type (0, 1), BuildingBlock: KIFKEQ_clean_linker_1, # of connection points: 2
#     Edge 53, Type (0, 1), BuildingBlock: KIFKEQ_clean_linker_1, # of connection points: 2
#     Edge 54, Type (0, 1), BuildingBlock: KIFKEQ_clean_linker_1, # of connection points: 2
#     Edge 55, Type (0, 1), BuildingBlock: KIFKEQ_clean_linker_1, # of connection points: 2
#     Edge 56, Type (0, 1), BuildingBlock: KIFKEQ_clean_linker_1, # of connection points: 2
#     Edge 57, Type (0, 1), BuildingBlock: KIFKEQ_clean_linker_1, # of connection points: 2
#     Edge 58, Type (0, 1), BuildingBlock: KIFKEQ_clean_linker_1, # of connection points: 2
#     Edge 59, Type (0, 1), BuildingBlock: KIFKEQ_clean_linker_1, # of connection points: 2
#     Edge 60, Type (0, 1), BuildingBlock: KIFKEQ_clean_linker_1, # of connection points: 2
#     Edge 61, Type (0, 1), BuildingBlock: KIFKEQ_clean_linker_1, # of connection points: 2
#     Edge 62, Type (0, 1), BuildingBlock: KIFKEQ_clean_linker_1, # of connection points: 2
#     Edge 63, Type (0, 1), BuildingBlock: KIFKEQ_clean_linker_1, # of connection points: 2
#     Edge 64, Type (0, 1), BuildingBlock: KIFKEQ_clean_linker_1, # of connection points: 2
#     Edge 65, Type (0, 1), BuildingBlock: KIFKEQ_clean_linker_1, # of connection points: 2
#     Edge 66, Type (0, 1), BuildingBlock: KIFKEQ_clean_linker_1, # of connection points: 2
#     Edge 67, Type (0, 1), BuildingBlock: KIFKEQ_clean_linker_1, # of connection points: 2
# Relax obj value: 0.264
# Max RMSD: 0.230
# Mean RMSD: 0.144
data_MOF--net-myd--node1-NAWXER_clean_sbu_0--node2-JUFBIX_clean_sbu_0--edge1-KIFKEQ_clean_linker_1
_symmetry_space_group_name_H-M    P1
_symmetry_Int_Tables_number       1
_symmetry_cell_setting            triclinic
loop_
_symmetry_equiv_pos_as_xyz
'x, y, z'
_cell_length_a     45.039357
_cell_length_b     48.084201
_cell_length_c     47.255523
_cell_angle_alpha  90.347993
_cell_angle_beta   87.416526
_cell_angle_gamma 91.296494
loop_
_atom_site_label
_atom_site_type_symbol
_atom_site_fract_x
_atom_site_fract_y
_atom_site_fract_z
_atom_type_partial_charge
C0 C 0.03254 0.19158 0.29664 0.0
C1 C 0.03082 0.26173 0.37351 0.0
O2 O 0.05465 0.20596 0.30492 0.0
Zn3 Zn 0.03407 0.2242 0.33712 0.0
O4 O 1.00725 0.19369 0.30992 0.0
Zn5 Zn 0.98741 0.21598 0.34505 0.0
O6 O 0.95793 0.23715 0.32491 0.0
O7 O 1.00474 0.24982 0.31524 0.0
O8 O 1.00565 0.24921 0.37055 0.0
O9 O 0.05365 0.25287 0.35966 0.0
O10 O 0.0246 0.19007 0.36501 0.0
O11 O 0.97597 0.18537 0.37088 0.0
C12 C 0.97698 0.25323 0.31215 0.0
C13 C 1.0018 0.17694 0.37585 0.0
C14 C 0.07147 0.75041 0.21327 0.0
C15 C 0.03463 0.6817 0.14655 0.0
O16 O 0.08736 0.73514 0.19687 0.0
Zn17 Zn 0.05377 0.71803 0.1787 0.0
O18 O 0.04307 0.74948 0.21252 0.0
Zn19 Zn 1.00922 0.72782 0.1897 0.0
O20 O 0.98763 0.70965 0.22122 0.0
O21 O 0.03348 0.69503 0.21442 0.0
O22 O 0.01336 0.69454 0.15952 0.0
O23 O 0.06127 0.6894 0.15049 0.0
O24 O 0.03822 0.75411 0.15698 0.0
O25 O 0.9912 0.75849 0.17051 0.0
C26 C 1.00843 0.69408 0.22854 0.0
C27 C 0.01398 0.76757 0.15629 0.0
C28 C 0.35207 0.98885 0.19199 0.0
C29 C 0.2803 0.97861 0.27416 0.0
O30 O 0.34128 0.96604 0.20193 0.0
Zn31 Zn 0.31619 0.98169 0.23332 0.0
O32 O 0.34483 0.01168 0.20429 0.0
Zn33 Zn 0.31721 0.02616 0.23865 0.0
O34 O 0.34477 0.04291 0.26504 0.0
O35 O 0.34714 0.99719 0.26334 0.0
O36 O 0.28849 1.00362 0.26801 0.0
O37 O 0.29047 0.9586 0.25904 0.0
O38 O 0.28306 1.00334 0.21123 0.0
O39 O 0.28899 0.04843 0.21877 0.0
C40 C 0.35552 0.02051 0.27404 0.0
C41 C 0.27504 0.02838 0.20718 0.0
C42 C 0.75013 0.47568 0.23907 0.0
C43 C 0.67421 0.48495 0.31738 0.0
O44 O 0.73939 0.45576 0.25432 0.0
Zn45 Zn 0.71274 0.47836 0.27891 0.0
O46 O 0.74237 0.50061 0.24482 0.0
Zn47 Zn 0.71351 0.52291 0.27336 0.0
O48 O 0.74138 0.54553 0.2949 0.0
O49 O 0.74344 0.50068 0.30382 0.0
O50 O 0.68262 0.50793 0.3056 0.0
O51 O 0.68564 0.46232 0.3086 0.0
O52 O 0.68409 0.49354 0.24775 0.0
O53 O 0.6883 0.53934 0.2459 0.0
C54 C 0.75239 0.5257 0.30843 0.0
C55 C 0.67724 0.51664 0.23657 0.0
C56 C 0.23043 0.38373 0.01627 0.0
C57 C 0.3104 0.3173 0.99904 0.0
O58 O 0.24131 0.37512 0.99264 0.0
Zn59 Zn 0.27396 0.3536 1.00636 0.0
O60 O 0.24374 0.37816 0.03892 0.0
Zn61 Zn 0.28131 0.35467 0.0503 0.0
O62 O 0.31093 0.38012 0.06436 0.0
O63 O 0.30959 0.38163 0.01786 0.0
O64 O 0.3077 0.32561 0.0249 0.0
O65 O 0.2949 0.32839 0.98042 0.0
O66 O 0.25075 0.3225 0.03211 0.0
O67 O 0.26193 0.32885 0.07695 0.0
C68 C 0.32166 0.38929 0.04085 0.0
C69 C 0.24822 0.31527 0.05818 0.0
C70 C 0.23465 0.72857 0.48432 0.0
C71 C 0.3129 0.65859 0.49559 0.0
O72 O 0.25127 0.71878 0.46425 0.0
Zn73 Zn 0.27286 0.69242 0.48744 0.0
O74 O 0.23718 0.71949 0.5095 0.0
Zn75 Zn 0.26227 0.69079 0.53248 0.0
O76 O 0.28269 0.7169 0.55779 0.0
O77 O 0.29683 0.72112 0.51269 0.0
O78 O 0.29814 0.66474 0.51853 0.0
O79 O 0.30557 0.66931 0.47239 0.0
O80 O 0.23799 0.6634 0.49951 0.0
O81 O 0.23061 0.66485 0.54592 0.0
C82 C 0.29902 0.72881 0.53851 0.0
C83 C 0.22356 0.65502 0.52199 0.0
C84 C 0.71137 0.88236 0.50379 0.0
C85 C 0.78939 0.81234 0.49683 0.0
O86 O 0.72216 0.87058 0.48161 0.0
Zn87 Zn 0.75404 0.85012 0.49835 0.0
O88 O 0.72486 0.88002 0.52701 0.0
Zn89 Zn 0.76263 0.8579 0.54145 0.0
O90 O 0.7945 0.88418 0.5502 0.0
O91 O 0.79191 0.87754 0.50428 0.0
O92 O 0.78721 0.82471 0.52095 0.0
O93 O 0.77358 0.82029 0.47682 0.0
O94 O 0.72925 0.82502 0.52927 0.0
O95 O 0.74366 0.83642 0.57217 0.0
C96 C 0.80543 0.88815 0.52527 0.0
C97 C 0.72749 0.82173 0.55619 0.0
C98 C 0.48088 0.7452 0.78966 0.0
C99 C 0.49991 0.67712 0.86337 0.0
O100 O 0.46071 0.73238 0.80459 0.0
Zn101 Zn 0.4882 0.71245 0.82796 0.0
O102 O 0.50828 0.74185 0.7945 0.0
Zn103 Zn 0.53543 0.71973 0.82175 0.0
O104 O 0.55796 0.69824 0.79353 0.0
O105 O 0.51011 0.68693 0.79633 0.0
O106 O 0.52336 0.68899 0.85236 0.0
O107 O 0.47451 0.68468 0.85596 0.0
O108 O 0.50544 0.74661 0.85181 0.0
O109 O 0.55379 0.75001 0.84276 0.0
C110 C 0.53621 0.68348 0.78507 0.0
C111 C 0.5304 0.7592 0.85533 0.0
C112 C 0.52782 0.18835 0.73617 0.0
C113 C 0.53158 0.26585 0.66783 0.0
O114 O 0.50294 0.19277 0.72498 0.0
Zn115 Zn 0.48517 0.22031 0.69445 0.0
O116 O 0.55086 0.20252 0.72802 0.0
Zn117 Zn 0.53185 0.22505 0.69997 0.0
O118 O 0.50325 0.24812 0.72829 0.0
O119 O 0.45625 0.23987 0.71813 0.0
O120 O 0.55367 0.25518 0.67925 0.0
O121 O 0.50581 0.25433 0.67178 0.0
O122 O 0.47132 0.19556 0.66573 0.0
O123 O 0.52004 0.19479 0.66852 0.0
C124 C 0.47545 0.25194 0.73315 0.0
C125 C 0.49615 0.18562 0.65754 0.0
C126 C 0.77876 0.52074 0.70323 0.0
C127 C 0.84774 0.50891 0.78057 0.0
O128 O 0.78861 0.54012 0.71906 0.0
Zn129 Zn 0.81569 0.51714 0.73967 0.0
O130 O 0.78846 0.49603 0.70569 0.0
Zn131 Zn 0.81887 0.47349 0.73035 0.0
O132 O 0.79112 0.44673 0.74925 0.0
O133 O 0.78324 0.49062 0.76106 0.0
O134 O 0.84269 0.48665 0.76635 0.0
O135 O 0.83785 0.53178 0.77188 0.0
O136 O 0.84765 0.50754 0.70622 0.0
O137 O 0.84857 0.46207 0.70093 0.0
C138 C 0.77611 0.46477 0.76323 0.0
C139 C 0.85777 0.48612 0.693 0.0
C140 C 0.24685 1.00446 0.74465 0.0
C141 C 0.16991 1.00439 0.823 0.0
O142 O 0.24143 0.98107 0.75675 0.0
Zn143 Zn 0.21296 0.96215 0.78833 0.0
O144 O 0.23187 0.02558 0.75243 0.0
Zn145 Zn 0.20704 1.00623 0.78234 0.0
O146 O 0.23951 0.99561 0.81203 0.0
O147 O 0.24334 0.94988 0.81372 0.0
O148 O 0.17779 0.02486 0.80715 0.0
O149 O 0.18112 0.98048 0.81783 0.0
O150 O 0.19016 0.93636 0.76445 0.0
O151 O 0.1805 0.98033 0.75673 0.0
C152 C 0.25149 0.97404 0.82201 0.0
C153 C 0.17627 0.95454 0.75108 0.0
C154 C 0.71571 0.16157 0.02646 0.0
C155 C 0.79437 0.23269 0.03935 0.0
O156 O 0.72315 0.17225 0.0499 0.0
Zn157 Zn 0.75505 0.19692 0.03486 0.0
O158 O 0.7299 0.16888 1.00348 0.0
Zn159 Zn 0.76487 0.197 0.98964 0.0
O160 O 0.79645 0.17269 0.97448 0.0
O161 O 0.78959 0.16941 0.02084 0.0
O162 O 0.7911 0.22483 0.01373 0.0
O163 O 0.77737 0.22243 0.0591 0.0
O164 O 0.73027 0.22555 0.01162 0.0
O165 O 0.7433 0.22319 0.96622 0.0
C166 C 0.8038 0.16236 0.99788 0.0
C167 C 0.72728 0.23384 0.98623 0.0
Co168 Co 0.04177 0.04634 0.06793 0.0
C169 C 0.03601 0.08951 0.10903 0.0
Co170 Co 0.0594 0.08779 0.05485 0.0
C171 C 0.03443 0.98622 0.08284 0.0
C172 C 0.99633 0.011 0.09224 0.0
N173 N 0.02423 0.01249 0.08067 0.0
N174 N 0.01387 0.96867 0.09552 0.0
C175 C 0.98992 0.9844 0.10118 0.0
H176 H 0.05671 0.98032 0.07612 0.0
H177 H 0.9816 0.0284 0.09463 0.0
C178 C 0.06777 0.04648 0.01342 0.0
N179 N 0.07569 0.12136 0.04277 0.0
C180 C 0.09456 0.13845 0.05632 0.0
C181 C 0.07193 0.13359 0.01763 0.0
N182 N 0.10296 0.16075 0.04049 0.0
C183 C 0.08869 0.15779 0.01615 0.0
C184 C 0.0999 0.0552 0.08272 0.0
O185 O 0.05382 0.03012 0.03098 0.0
O186 O 0.07208 0.07163 0.02058 0.0
O187 O 0.09588 0.07853 0.0711 0.0
O188 O 0.07916 0.03672 0.08275 0.0
O189 O 0.04723 0.10413 0.08893 0.0
H190 H 0.05827 0.12518 1.00124 0.0
H191 H 0.10274 0.13412 0.07699 0.0
O192 O 0.03097 0.0636 0.10468 0.0
O193 O 1.00405 0.05685 0.05303 0.0
O194 O 0.02281 0.09708 0.03921 0.0
C195 C 1.00075 0.08023 0.04116 0.0
H196 H 0.96909 0.97723 0.11122 0.0
H197 H 0.09045 0.17197 0.99842 0.0
Co198 Co 0.96589 0.43434 0.09151 0.0
C199 C 0.9778 0.49053 0.0783 0.0
Co200 Co 0.95514 0.44658 0.04783 0.0
C201 C 0.95915 0.40592 0.14524 0.0
C202 C 0.9944 0.43654 0.14503 0.0
N203 N 0.97328 0.42546 0.12876 0.0
N204 N 0.97064 0.40434 0.17106 0.0
C205 C 0.99278 0.42368 0.17103 0.0
H206 H 0.94081 0.393 0.13842 0.0
H207 H 1.01039 0.45254 0.13826 0.0
C208 C 0.94165 0.3909 0.06152 0.0
N209 N 0.94795 0.45413 1.00959 0.0
C210 C 0.93016 0.47205 0.99648 0.0
C211 C 0.96078 0.43929 0.98814 0.0
N212 N 0.93202 0.4689 0.9679 0.0
C213 C 0.95113 0.44829 0.96275 0.0
C214 C 0.01407 0.42822 0.05461 0.0
O215 O 0.95216 0.39741 0.08517 0.0
O216 O 0.94221 0.40895 0.04194 0.0
O217 O 0.99621 0.43754 0.03693 0.0
O218 O 1.00479 0.4246 0.08009 0.0
O219 O 0.96751 0.48415 0.05437 0.0
H220 H 0.97569 0.42228 0.99077 0.0
H221 H 0.9157 0.48654 1.0076 0.0
O222 O 0.97916 0.47186 0.0972 0.0
O223 O 0.92723 0.44392 0.1031 0.0
O224 O 0.91476 0.45545 0.06022 0.0
C225 C 0.90795 0.45225 0.08657 0.0
H226 H 1.00748 0.42754 0.18819 0.0
H227 H 0.95696 0.43976 0.94202 0.0
Co228 Co 0.08215 0.9459 0.4752 0.0
C229 C 0.12379 0.95202 0.42998 0.0
Co230 Co 0.06661 0.93036 0.43425 0.0
C231 C 0.0955 0.94766 0.5354 0.0
C232 C 0.10819 0.98503 0.51313 0.0
N233 N 0.09533 0.95975 0.50956 0.0
N234 N 0.10782 0.96457 0.55494 0.0
C235 C 0.11579 0.98806 0.54082 0.0
H236 H 0.08668 0.92693 0.53978 0.0
H237 H 0.11218 1.0002 0.49651 0.0
C238 C 0.02376 0.92418 0.4779 0.0
N239 N 0.05456 0.91648 0.40012 0.0
C240 C 0.07076 0.89991 0.38262 0.0
C241 C 0.02886 0.91996 0.38716 0.0
N242 N 0.0563 0.89268 0.35927 0.0
C243 C 0.02988 0.90533 0.36195 0.0
C244 C 0.09676 0.8909 0.46493 0.0
O245 O 0.04343 0.93591 0.4929 0.0
O246 O 0.03021 0.91895 0.452 0.0
O247 O 0.08355 0.89521 0.44222 0.0
O248 O 0.09743 0.91014 0.48351 0.0
O249 O 0.10263 0.94181 0.41633 0.0
H250 H 1.01053 0.93207 0.39563 0.0
H251 H 0.09294 0.89338 0.38695 0.0
O252 O 0.12033 0.95579 0.45663 0.0
O253 O 0.0672 0.9818 0.46617 0.0
O254 O 0.05026 0.96573 0.42636 0.0
C255 C 0.05366 0.98592 0.44353 0.0
H256 H 0.127 1.00602 0.54967 0.0
H257 H 1.01225 0.90356 0.34717 0.0
Co258 Co 0.96558 0.57903 0.46703 0.0
C259 C 0.02561 0.56939 0.47657 0.0
Co260 Co 0.98237 0.5392 0.44892 0.0
C261 C 0.93357 0.63051 0.47355 0.0
C262 C 0.95976 0.62208 0.5091 0.0
N263 N 0.95222 0.61174 0.48377 0.0
N264 N 0.92936 0.65225 0.49144 0.0
C265 C 0.94584 0.64695 0.51383 0.0
H266 H 0.92363 0.62846 0.45318 0.0
H267 H 0.97443 0.61214 0.52325 0.0
C268 C 0.92299 0.54979 0.43831 0.0
N269 N 0.99527 0.50599 0.43081 0.0
C270 C 1.00368 0.48092 0.44062 0.0
C271 C 0.99607 0.50267 0.40238 0.0
N272 N 1.0102 0.46269 0.41925 0.0
C273 C 1.00537 0.47653 0.39532 0.0
C274 C 0.95891 0.5336 0.50406 0.0
O275 O 0.92722 0.57152 0.45317 0.0
O276 O 0.94398 0.53269 0.4346 0.0
O277 O 0.97026 0.51931 0.48356 0.0
O278 O 0.95524 0.55948 0.50075 0.0
O279 O 0.02113 0.54659 0.46325 0.0
H280 H 0.98941 0.51797 0.3874 0.0
H281 H 1.00486 0.47608 0.46288 0.0
O282 O 1.00431 0.58618 0.48026 0.0
O283 O 0.97582 0.5986 0.43356 0.0
O284 O 0.99368 0.56042 0.41486 0.0
C285 C 0.9879 0.58612 0.4125 0.0
H286 H 0.94736 0.6599 0.53254 0.0
H287 H 1.0074 0.46795 0.37409 0.0
Co288 Co 0.46049 0.9439 0.58469 0.0
C289 C 0.47459 0.99887 0.57053 0.0
Co290 Co 0.44092 0.95798 0.54501 0.0
C291 C 0.47611 0.90588 0.62842 0.0
C292 C 0.48272 0.94824 0.641 0.0
N293 N 0.47596 0.9322 0.61855 0.0
N294 N 0.48176 0.90483 0.6562 0.0
C295 C 0.4863 0.93151 0.66411 0.0
H296 H 0.46994 0.88784 0.61608 0.0
H297 H 0.48289 0.97073 0.64124 0.0
C298 C 0.42514 0.90338 0.55953 0.0
N299 N 0.42293 0.96914 0.5119 0.0
C300 C 0.43329 0.98078 0.48714 0.0
C301 C 0.3933 0.96641 0.5091 0.0
N302 N 0.41099 0.98581 0.46959 0.0
C303 C 0.38596 0.97673 0.48348 0.0
C304 C 0.49774 0.93523 0.53731 0.0
O305 O 0.44087 0.90862 0.58057 0.0
O306 O 0.42296 0.92195 0.5408 0.0
O307 O 0.47689 0.94611 0.52381 0.0
O308 O 0.49427 0.93151 0.56386 0.0
O309 O 0.45848 0.9938 0.54957 0.0
H310 H 0.37782 0.95724 0.52472 0.0
H311 H 0.4565 0.98577 0.48223 0.0
O312 O 0.47911 0.97957 0.58808 0.0
O313 O 0.42754 0.95677 0.60575 0.0
O314 O 0.40607 0.97028 0.56778 0.0
C315 C 0.40593 0.96824 0.59466 0.0
H316 H 0.49056 0.93862 0.68535 0.0
H317 H 0.36386 0.97705 0.47536 0.0
Co318 Co 0.54966 0.53676 0.55965 0.0
C319 C 0.54398 0.57931 0.59978 0.0
Co320 Co 0.56837 0.5774 0.54511 0.0
C321 C 0.54684 0.47799 0.57653 0.0
C322 C 0.50426 0.49698 0.57824 0.0
N323 N 0.53334 0.50241 0.57196 0.0
N324 N 0.52719 0.45766 0.58494 0.0
C325 C 0.50042 0.46957 0.58594 0.0
H326 H 0.57052 0.47501 0.57338 0.0
H327 H 0.48681 0.51199 0.57747 0.0
C328 C 0.57596 0.53559 0.50482 0.0
N329 N 0.58434 0.61131 0.53332 0.0
C330 C 0.59868 0.63046 0.549 0.0
C331 C 0.58287 0.62287 0.50754 0.0
N332 N 0.60603 0.65367 0.53412 0.0
C333 C 0.59619 0.64888 0.50795 0.0
C334 C 0.60835 0.54577 0.57379 0.0
O335 O 0.56207 0.52037 0.52334 0.0
O336 O 0.58089 0.56107 0.51053 0.0
O337 O 0.60508 0.56856 0.56093 0.0
O338 O 0.58698 0.52796 0.57485 0.0
O339 O 0.55606 0.59343 0.57966 0.0
H340 H 0.57245 0.61315 0.48971 0.0
H341 H 0.60291 0.62765 0.57116 0.0
O342 O 0.53818 0.55354 0.59575 0.0
O343 O 0.51196 0.5469 0.54447 0.0
O344 O 0.53156 0.58657 0.52974 0.0
C345 C 0.50908 0.57021 0.53227 0.0
H346 H 0.47958 0.45926 0.59229 0.0
H347 H 0.5985 0.66308 0.49026 0.0
Co348 Co 0.5848 0.45358 0.96813 0.0
C349 C 0.61094 0.44756 0.91288 0.0
Co350 Co 0.55607 0.43412 0.93649 0.0
C351 C 0.60718 0.47028 0.02267 0.0
C352 C 0.63487 0.48552 0.98804 0.0
N353 N 0.61043 0.46959 0.99407 0.0
N354 N 0.62837 0.48622 0.03479 0.0
C355 C 0.64596 0.49559 0.01282 0.0
H356 H 0.58902 0.45987 0.03429 0.0
H357 H 0.64371 0.49033 0.96694 0.0
C358 C 0.52894 0.43937 0.99045 0.0
N359 N 0.52883 0.4197 0.91179 0.0
C360 C 0.53017 0.39872 0.89271 0.0
C361 C 0.50079 0.4289 0.91103 0.0
N362 N 0.50397 0.39462 0.88013 0.0
C363 C 0.48555 0.41363 0.89172 0.0
C364 C 0.59015 0.39578 0.96319 0.0
O365 O 0.55305 0.45146 0.99702 0.0
O366 O 0.52665 0.42971 0.96572 0.0
O367 O 0.57117 0.39792 0.94409 0.0
O368 O 0.59755 0.41736 0.97725 0.0
O369 O 0.58526 0.43834 0.90704 0.0
H370 H 0.49166 0.44534 0.92426 0.0
H371 H 0.54989 0.38669 0.88831 0.0
O372 O 0.6157 0.45525 0.93822 0.0
O373 O 0.57232 0.48971 0.95878 0.0
O374 O 0.54213 0.47055 0.92902 0.0
C375 C 0.55233 0.49225 0.94095 0.0
H376 H 0.66531 0.50915 0.01419 0.0
H377 H 0.46236 0.41583 0.88732 0.0
Co378 Co 0.46362 0.06854 0.96603 0.0
C379 C 0.52234 0.067 0.9813 0.0
Co380 Co 0.4861 0.0301 0.95137 0.0
C381 C 0.42694 0.11876 0.96951 0.0
C382 C 0.44482 0.10663 1.00871 0.0
N383 N 0.44388 0.09928 0.98116 0.0
N384 N 0.41708 0.1376 0.98899 0.0
C385 C 0.42842 0.12992 0.01356 0.0
H386 H 0.42182 0.11901 0.94735 0.0
H387 H 0.45701 0.09585 0.02434 0.0
C388 C 0.42767 0.03162 0.93574 0.0
N389 N 0.50725 0.99988 0.93681 0.0
C390 C 0.50008 0.97247 0.93435 0.0
C391 C 0.53505 1.00237 0.92512 0.0
N392 N 0.52237 0.95796 0.9214 0.0
C393 C 0.54436 0.97685 0.91576 0.0
C394 C 0.45938 0.02334 1.00427 0.0
O395 O 0.42826 0.05512 0.94848 0.0
O396 O 0.45087 0.01693 0.93463 0.0
O397 O 0.47472 0.00997 0.98563 0.0
O398 O 0.4525 0.04824 0.99937 0.0
O399 O 0.52134 0.04372 0.96847 0.0
H400 H 0.54778 0.02167 0.92333 0.0
H401 H 0.47876 0.96351 0.94135 0.0
O402 O 0.49911 0.08151 0.98301 0.0
O403 O 0.47507 0.08854 0.93288 0.0
O404 O 0.49695 0.0508 0.91716 0.0
C405 C 0.49018 0.0761 0.91351 0.0
H406 H 0.42561 0.14079 0.0336 0.0
H407 H 0.56584 0.97256 0.9057 0.0
H408 H 0.05224 0.15988 0.3998 0.0
H409 H 0.96176 0.13362 0.38577 0.0
H410 H 0.06228 0.11416 0.41862 0.0
H411 H 0.9719 0.0876 0.40468 0.0
H412 H 0.01799 1.00073 0.40078 0.0
H413 H 1.00285 0.04738 0.38816 0.0
H414 H 0.05003 0.08176 0.45826 0.0
H415 H 0.0652 0.03515 0.47091 0.0
C416 C 0.0343 0.14448 0.40116 0.0
C417 C 1.00617 0.1505 0.39124 0.0
C418 C 0.04006 0.11823 0.41206 0.0
C419 C 0.01797 0.09709 0.41305 0.0
C420 C 0.98951 0.10332 0.40397 0.0
C421 C 0.98361 0.12979 0.39339 0.0
C422 C 0.02496 0.0182 0.41365 0.0
C423 C 0.04295 0.01413 0.4368 0.0
C424 C 0.01609 0.04495 0.40652 0.0
C425 C 0.02524 0.06838 0.42215 0.0
C426 C 0.04279 0.06423 0.4456 0.0
C427 C 0.05139 0.03746 0.45292 0.0
H428 H 0.07841 0.29809 0.37891 0.0
H429 H 0.98512 0.28765 0.40258 0.0
H430 H 0.0773 0.34597 0.39635 0.0
H431 H 0.98383 0.33558 0.4193 0.0
H432 H 0.98959 0.42254 0.45609 0.0
H433 H 0.99795 0.3723 0.45164 0.0
H434 H 0.05739 0.38768 0.37881 0.0
H435 H 0.04946 0.4373 0.3838 0.0
C436 C 0.05778 0.30577 0.3883 0.0
C437 C 0.03183 0.2889 0.38906 0.0
C438 C 0.05705 0.3334 0.3981 0.0
C439 C 0.03035 0.345 0.40892 0.0
C440 C 1.00488 0.32752 0.41136 0.0
C441 C 1.00561 0.29991 0.40159 0.0
C442 C 1.00502 0.4151 0.43968 0.0
C443 C 0.01874 0.43387 0.42021 0.0
C444 C 1.00959 0.3863 0.43686 0.0
C445 C 0.02824 0.37568 0.4147 0.0
C446 C 0.04316 0.3948 0.39633 0.0
C447 C 0.03843 0.42336 0.39903 0.0
H448 H 0.06101 0.79665 0.13074 0.0
H449 H 0.96678 0.80188 0.15062 0.0
H450 H 0.06219 0.84479 0.11442 0.0
H451 H 0.96783 0.84969 0.13377 0.0
H452 H 0.9862 0.94238 0.14007 0.0
H453 H 0.98633 0.89331 0.15129 0.0
H454 H 0.04723 0.87895 0.07975 0.0
H455 H 0.04708 0.92881 0.06847 0.0
C456 C 0.0404 0.80784 0.13111 0.0
C457 C 0.0138 0.7953 0.14222 0.0
C458 C 0.04109 0.83552 0.12168 0.0
C459 C 0.01522 0.85143 0.12313 0.0
C460 C 0.98838 0.83838 0.13292 0.0
C461 C 0.98769 0.81079 0.14237 0.0
C462 C 0.99946 0.92885 0.12649 0.0
C463 C 0.01625 0.93963 0.10304 0.0
C464 C 0.99947 0.90053 0.13291 0.0
C465 C 0.01627 0.88185 0.11613 0.0
C466 C 0.03396 0.89267 0.09316 0.0
C467 C 0.03396 0.92125 0.0867 0.0
H468 H 0.07322 0.64115 0.12942 0.0
H469 H 0.98107 0.6638 0.12719 0.0
H470 H 0.06088 0.5956 0.10939 0.0
H471 H 0.96889 0.61829 0.10689 0.0
H472 H 0.96404 0.53855 0.05119 0.0
H473 H 0.97922 0.58631 0.06333 0.0
H474 H 0.02977 0.55521 0.13137 0.0
H475 H 0.0144 0.50774 0.1196 0.0
C476 C 0.05045 0.63667 0.12411 0.0
C477 C 0.0281 0.65608 0.13008 0.0
C478 C 0.04338 0.61051 0.11281 0.0
C479 C 0.01389 0.60333 0.1068 0.0
C480 C 0.99182 0.62329 0.11119 0.0
C481 C 0.99881 0.64932 0.1229 0.0
C482 C 0.97855 0.54194 0.0686 0.0
C483 C 0.98795 0.51938 0.08449 0.0
C484 C 0.98714 0.56925 0.07559 0.0
C485 C 1.00578 0.57445 0.09821 0.0
C486 C 0.01568 0.55183 0.11362 0.0
C487 C 1.00669 0.52465 0.10699 0.0
H488 H 0.37195 0.94577 0.15705 0.0
H489 H 0.37581 0.03518 0.16643 0.0
H490 H 0.4021 0.94978 0.11249 0.0
H491 H 0.40453 0.03918 0.12233 0.0
H492 H 0.47348 0.04432 0.05483 0.0
H493 H 0.45169 0.03213 0.10126 0.0
H494 H 0.40075 0.96551 0.06344 0.0
H495 H 0.42416 0.97713 0.01684 0.0
C496 C 0.3793 0.9662 0.14977 0.0
C497 C 0.37153 0.9901 0.16556 0.0
C498 C 0.39643 0.96853 0.12412 0.0
C499 C 0.4062 0.9948 0.11377 0.0
C500 C 0.39831 0.01851 0.12975 0.0
C501 C 0.38147 0.0162 0.15517 0.0
C502 C 0.45826 0.02656 0.0566 0.0
C503 C 0.45058 0.01161 0.03235 0.0
C504 C 0.44541 0.01974 0.08318 0.0
C505 C 0.42374 0.99825 0.0862 0.0
C506 C 0.41736 0.98214 0.06205 0.0
C507 C 0.43076 0.98873 0.03534 0.0
H508 H 0.64935 0.47174 0.21344 0.0
H509 H 0.66923 0.55893 0.19884 0.0
H510 H 0.63373 0.46656 0.16534 0.0
H511 H 0.65231 0.554 0.15061 0.0
H512 H 0.66661 0.52385 0.05843 0.0
H513 H 0.67222 0.53358 0.10808 0.0
H514 H 0.60048 0.47535 0.12969 0.0
H515 H 0.59573 0.46436 0.08007 0.0
C516 C 0.64959 0.49006 0.2002 0.0
C517 C 0.66094 0.51569 0.20996 0.0
C518 C 0.64044 0.4871 0.17249 0.0
C519 C 0.64213 0.50975 0.15378 0.0
C520 C 0.65135 0.53593 0.16421 0.0
C521 C 0.66069 0.53887 0.192 0.0
C522 C 0.65199 0.51287 0.0735 0.0
C523 C 0.63089 0.49293 0.06462 0.0
C524 C 0.65496 0.51888 0.10224 0.0
C525 C 0.63681 0.50532 0.12309 0.0
C526 C 0.61516 0.48598 0.11431 0.0
C527 C 0.61232 0.47978 0.08556 0.0
H528 H 0.38581 0.97705 0.29483 0.0
H529 H 0.36612 0.06323 0.31155 0.0
H530 H 0.40648 0.97335 0.34129 0.0
H531 H 0.38733 0.05963 0.35808 0.0
H532 H 0.37433 0.02366 0.44995 0.0
H533 H 0.3685 0.03621 0.40074 0.0
H534 H 0.44372 0.98609 0.37561 0.0
H535 H 0.4492 0.97336 0.42543 0.0
C536 C 0.38658 0.99546 0.30812 0.0
C537 C 0.37392 0.02037 0.29948 0.0
C538 C 0.39865 0.99336 0.33481 0.0
C539 C 0.39831 0.01608 0.3537 0.0
C540 C 0.38756 0.04157 0.34427 0.0
C541 C 0.37559 0.04371 0.31746 0.0
C542 C 0.39004 0.01587 0.43395 0.0
C543 C 0.41212 0.99746 0.44147 0.0
C544 C 0.38684 0.02318 0.4057 0.0
C545 C 0.40551 0.01208 0.38402 0.0
C546 C 0.42876 0.99484 0.39172 0.0
C547 C 0.43215 0.98775 0.42022 0.0
H548 H 0.67056 0.45077 0.36414 0.0
H549 H 0.63097 0.52234 0.3277 0.0
H550 H 0.64324 0.45991 0.40932 0.0
H551 H 0.60319 0.53091 0.37206 0.0
H552 H 0.60141 0.56534 0.46123 0.0
H553 H 0.6208 0.54911 0.41582 0.0
H554 H 0.595 0.46472 0.43806 0.0
H555 H 0.57561 0.48119 0.48464 0.0
C556 C 0.65535 0.4679 0.36551 0.0
C557 C 0.65321 0.48607 0.34249 0.0
C558 C 0.6397 0.47315 0.39139 0.0
C559 C 0.62151 0.49654 0.39457 0.0
C560 C 0.61761 0.51318 0.37069 0.0
C561 C 0.6334 0.50816 0.34514 0.0
C562 C 0.59962 0.54328 0.45665 0.0
C563 C 0.58678 0.52461 0.47674 0.0
C564 C 0.61061 0.53396 0.43032 0.0
C565 C 0.60913 0.50562 0.42297 0.0
C566 C 0.59647 0.48671 0.44303 0.0
C567 C 0.58525 0.49614 0.46963 0.0
H568 H 0.20465 0.41045 0.06188 0.0
H569 H 0.18785 0.38458 0.97632 0.0
H570 H 0.15297 0.42339 0.06909 0.0
H571 H 0.13567 0.39684 0.9838 0.0
H572 H 0.045 0.43893 1.00382 0.0
H573 H 0.09806 0.43206 0.99254 0.0
H574 H 0.10741 0.39773 0.07585 0.0
H575 H 0.05519 0.40509 0.08719 0.0
C576 C 0.19001 0.40783 0.04444 0.0
C577 C 0.20046 0.39627 0.01858 0.0
C578 C 0.1602 0.415 0.04867 0.0
C579 C 0.13982 0.41059 0.02727 0.0
C580 C 0.15064 0.40058 1.00078 0.0
C581 C 0.18063 0.39355 0.99648 0.0
C582 C 0.05844 0.42985 0.01964 0.0
C583 C 0.04576 0.42271 0.04647 0.0
C584 C 0.08886 0.42587 0.01318 0.0
C585 C 0.10728 0.41471 0.03342 0.0
C586 C 0.09428 0.40707 0.05994 0.0
C587 C 0.0641 0.41106 0.06638 0.0
H588 H 0.20838 0.62489 0.4755 0.0
H589 H 0.17821 0.64334 0.56147 0.0
H590 H 0.1616 0.60045 0.46754 0.0
H591 H 0.13127 0.61845 0.55355 0.0
H592 H 0.03941 0.61236 0.51193 0.0
H593 H 0.08824 0.62838 0.52582 0.0
H594 H 0.12853 0.5606 0.4789 0.0
H595 H 0.07935 0.5446 0.46465 0.0
C596 C 0.19197 0.62329 0.49292 0.0
C597 C 0.19705 0.63631 0.51909 0.0
C598 C 0.16513 0.60908 0.48837 0.0
C599 C 0.14247 0.60761 0.5098 0.0
C600 C 0.14807 0.61949 0.53644 0.0
C601 C 0.17509 0.63357 0.54107 0.0
C602 C 0.05861 0.60064 0.50474 0.0
C603 C 0.05539 0.57727 0.48695 0.0
C604 C 0.08668 0.60974 0.51294 0.0
C605 C 0.11244 0.59585 0.5035 0.0
C606 C 0.1092 0.57196 0.48636 0.0
C607 C 0.08099 0.5627 0.4783 0.0
H608 H 0.83366 0.90277 0.47494 0.0
H609 H 0.84726 0.89956 0.56472 0.0
H610 H 0.88636 0.913 0.4659 0.0
H611 H 0.90038 0.90918 0.55558 0.0
H612 H 0.99431 0.94566 0.52561 0.0
H613 H 0.94095 0.94094 0.53852 0.0
H614 H 0.92986 0.88542 0.46741 0.0
H615 H 0.98235 0.89046 0.45442 0.0
C616 C 0.84779 0.90467 0.49284 0.0
C617 C 0.8361 0.90013 0.52055 0.0
C618 C 0.87818 0.91024 0.48763 0.0
C619 C 0.89792 0.91124 0.50994 0.0
C620 C 0.88595 0.90853 0.53785 0.0
C621 C 0.8554 0.90306 0.54309 0.0
C622 C 0.98047 0.93217 0.51303 0.0
C623 C 0.99265 0.9186 0.48887 0.0
C624 C 0.94985 0.92953 0.52036 0.0
C625 C 0.93083 0.91329 0.50364 0.0
C626 C 0.94348 0.89881 0.48031 0.0
C627 C 0.97379 0.90148 0.47301 0.0
H628 H 0.35866 0.65135 0.45555 0.0
H629 H 0.32837 0.62642 0.53978 0.0
H630 H 0.40518 0.62694 0.46127 0.0
H631 H 0.37465 0.60239 0.54556 0.0
H632 H 0.49754 0.61589 0.50066 0.0
H633 H 0.44945 0.63378 0.48898 0.0
H634 H 0.40551 0.56345 0.53057 0.0
H635 H 0.45382 0.54561 0.54252 0.0
C636 C 0.36168 0.64035 0.4751 0.0
C637 C 0.3397 0.64099 0.49721 0.0
C638 C 0.38849 0.62652 0.4785 0.0
C639 C 0.39388 0.61273 0.50397 0.0
C640 C 0.37132 0.61247 0.52555 0.0
C641 C 0.34474 0.62644 0.52227 0.0
C642 C 0.47768 0.60401 0.50708 0.0
C643 C 0.47968 0.57932 0.5227 0.0
C644 C 0.45 0.61423 0.50019 0.0
C645 C 0.42342 0.60019 0.50887 0.0
C646 C 0.42544 0.57503 0.52379 0.0
C647 C 0.4532 0.56468 0.5305 0.0
H648 H 0.54962 0.66249 0.88959 0.0
H649 H 0.45862 0.63606 0.87824 0.0
H650 H 0.55924 0.61858 0.91194 0.0
H651 H 0.46811 0.59193 0.90146 0.0
H652 H 0.51198 0.50493 0.90168 0.0
H653 H 0.4959 0.55083 0.88816 0.0
H654 H 0.55047 0.58839 0.95155 0.0
H655 H 0.56718 0.54251 0.96454 0.0
C656 C 0.53142 0.64751 0.89245 0.0
C657 C 0.5034 0.65271 0.88187 0.0
C658 C 0.53692 0.6223 0.90547 0.0
C659 C 0.51455 0.60153 0.90833 0.0
C660 C 0.48598 0.60732 0.8992 0.0
C661 C 0.48043 0.63271 0.88617 0.0
C662 C 0.52044 0.52297 0.91284 0.0
C663 C 0.54118 0.52006 0.93394 0.0
C664 C 0.51097 0.54931 0.90528 0.0
C665 C 0.52193 0.57339 0.91868 0.0
C666 C 0.5419 0.57035 0.94047 0.0
C667 C 0.55145 0.54402 0.94797 0.0
H668 H 0.48358 0.78473 0.88263 0.0
H669 H 0.57775 0.79514 0.86282 0.0
H670 H 0.48192 0.83203 0.90099 0.0
H671 H 0.57623 0.84237 0.88198 0.0
H672 H 0.5536 0.93438 0.87769 0.0
H673 H 0.55683 0.88537 0.86602 0.0
H674 H 0.49601 0.86544 0.93668 0.0
H675 H 0.49269 0.91504 0.94834 0.0
C676 C 0.50412 0.79689 0.88272 0.0
C677 C 0.53078 0.78614 0.87094 0.0
C678 C 0.50315 0.82407 0.89341 0.0
C679 C 0.52883 0.84124 0.89265 0.0
C680 C 0.55586 0.82994 0.88235 0.0
C681 C 0.55682 0.80274 0.87159 0.0
C682 C 0.54114 0.91961 0.89101 0.0
C683 C 0.52308 0.92872 0.91415 0.0
C684 C 0.54309 0.89138 0.88435 0.0
C685 C 0.52705 0.87129 0.90062 0.0
C686 C 0.50861 0.88034 0.9236 0.0
C687 C 0.50662 0.90876 0.93026 0.0
H688 H 0.58216 0.29734 0.65287 0.0
H689 H 0.48665 0.29564 0.64766 0.0
H690 H 0.58462 0.34271 0.62926 0.0
H691 H 0.48886 0.34073 0.62559 0.0
H692 H 0.49636 0.41248 0.56838 0.0
H693 H 0.50102 0.36486 0.58447 0.0
H694 H 0.57413 0.39091 0.63542 0.0
H695 H 0.57019 0.43852 0.61771 0.0
C696 C 0.56175 0.30652 0.6466 0.0
C697 C 0.53425 0.29262 0.65203 0.0
C698 C 0.5631 0.33266 0.63325 0.0
C699 C 0.53697 0.34556 0.62516 0.0
C700 C 0.50962 0.33142 0.63062 0.0
C701 C 0.50832 0.30541 0.6436 0.0
C702 C 0.51368 0.40785 0.5827 0.0
C703 C 0.53273 0.42915 0.59199 0.0
C704 C 0.51625 0.38059 0.5922 0.0
C705 C 0.53749 0.37389 0.61193 0.0
C706 C 0.55757 0.39507 0.62019 0.0
C707 C 0.55533 0.42239 0.61014 0.0
H708 H 0.45067 0.16303 0.62793 0.0
H709 H 0.54396 0.15374 0.64263 0.0
H710 H 0.45058 0.11954 0.60127 0.0
H711 H 0.54383 0.11026 0.61571 0.0
H712 H 0.46046 0.04645 0.54322 0.0
H713 H 0.46995 0.09426 0.55857 0.0
H714 H 0.5205 0.0642 0.62718 0.0
H715 H 0.51127 0.0165 0.6118 0.0
C716 C 0.4713 0.152 0.62502 0.0
C717 C 0.49723 0.16171 0.63768 0.0
C718 C 0.47129 0.12715 0.60956 0.0
C719 C 0.49717 0.11139 0.60656 0.0
C720 C 0.52349 0.12183 0.61795 0.0
C721 C 0.52356 0.1468 0.63325 0.0
C722 C 0.47416 0.05006 0.5612 0.0
C723 C 0.48483 0.02766 0.5765 0.0
C724 C 0.47944 0.07744 0.57006 0.0
C725 C 0.49571 0.08297 0.59423 0.0
C726 C 0.50806 0.06065 0.60835 0.0
C727 C 0.50263 0.03328 0.59962 0.0
H728 H 0.87763 0.53522 0.6699 0.0
H729 H 0.88171 0.4465 0.65622 0.0
H730 H 0.90457 0.54325 0.62529 0.0
H731 H 0.91015 0.45457 0.61139 0.0
H732 H 0.92813 0.48451 0.51684 0.0
H733 H 0.90667 0.47062 0.56355 0.0
H734 H 0.95035 0.54172 0.60136 0.0
H735 H 0.97002 0.55606 0.55493 0.0
C736 C 0.88481 0.51729 0.65763 0.0
C737 C 0.87747 0.49017 0.66694 0.0
C738 C 0.90058 0.52192 0.63188 0.0
C739 C 0.91001 0.49961 0.61448 0.0
C740 C 0.90315 0.47235 0.62396 0.0
C741 C 0.88707 0.46769 0.64986 0.0
C742 C 0.93344 0.49678 0.53531 0.0
C743 C 0.9505 0.5215 0.53223 0.0
C744 C 0.92117 0.48887 0.56214 0.0
C745 C 0.92608 0.50536 0.58643 0.0
C746 C 0.94505 0.52893 0.58326 0.0
C747 C 0.95668 0.53705 0.5566 0.0
H748 H 0.18762 0.91565 0.70947 0.0
H749 H 0.12571 0.97879 0.73605 0.0
H750 H 0.16666 0.91454 0.66249 0.0
H751 H 0.10394 0.97696 0.68985 0.0
H752 H 0.11037 1.00254 0.59718 0.0
H753 H 0.12227 0.99493 0.64589 0.0
H754 H 0.12667 0.90652 0.62987 0.0
H755 H 0.11572 0.91448 0.58018 0.0
C756 C 0.1687 0.92841 0.70565 0.0
C757 C 0.15839 0.94741 0.72636 0.0
C758 C 0.15672 0.92788 0.67866 0.0
C759 C 0.13404 0.94619 0.67203 0.0
C760 C 0.12197 0.96318 0.6938 0.0
C761 C 0.13418 0.964 0.72046 0.0
C762 C 0.1139 0.98145 0.60389 0.0
C763 C 0.11234 0.95919 0.58455 0.0
C764 C 0.12033 0.97697 0.6321 0.0
C765 C 0.12527 0.95003 0.64211 0.0
C766 C 0.12315 0.92757 0.62294 0.0
C767 C 0.1166 0.93209 0.59451 0.0
H768 H 0.8648 0.46169 0.8063 0.0
H769 H 0.86154 0.55065 0.81895 0.0
H770 H 0.8821 0.45618 0.85376 0.0
H771 H 0.87937 0.54495 0.86699 0.0
H772 H 0.94655 0.51502 0.93775 0.0
H773 H 0.92549 0.52813 0.89266 0.0
H774 H 0.85995 0.46164 0.90299 0.0
H775 H 0.88116 0.44888 0.94783 0.0
C776 C 0.86802 0.4802 0.81907 0.0
C777 C 0.86165 0.50666 0.80859 0.0
C778 C 0.8777 0.47695 0.84652 0.0
C779 C 0.88164 0.50004 0.86445 0.0
C780 C 0.87643 0.52671 0.85376 0.0
C781 C 0.8663 0.52997 0.82621 0.0
C782 C 0.92689 0.50407 0.9308 0.0
C783 C 0.915 0.48135 0.94644 0.0
C784 C 0.91495 0.51139 0.90493 0.0
C785 C 0.89125 0.49572 0.894 0.0
C786 C 0.87841 0.47396 0.91059 0.0
C787 C 0.8902 0.46686 0.93645 0.0
H788 H 0.13779 0.05032 0.83869 0.0
H789 H 0.1569 0.96733 0.86596 0.0
H790 H 0.10932 0.05816 0.88298 0.0
H791 H 0.12934 0.97551 0.91074 0.0
H792 H 0.06237 0.99539 0.98534 0.0
H793 H 0.08296 0.98357 0.93768 0.0
H794 H 0.12167 0.06636 0.93013 0.0
H795 H 0.10098 0.07813 0.97626 0.0
C796 C 0.13583 0.03368 0.85406 0.0
C797 C 0.14995 0.00831 0.84874 0.0
C798 C 0.11962 0.0382 0.87964 0.0
C799 C 0.11735 0.01764 0.90087 0.0
C800 C 0.13035 0.9918 0.89499 0.0
C801 C 0.14636 0.98718 0.86926 0.0
C802 C 0.07516 0.01099 0.97333 0.0
C803 C 0.07975 0.03774 0.98479 0.0
C804 C 0.08705 1.00425 0.94604 0.0
C805 C 0.10371 0.02414 0.92967 0.0
C806 C 0.10834 0.05065 0.94146 0.0
C807 C 0.09656 0.05733 0.96834 0.0
H808 H 0.6706 0.88143 0.46191 0.0
H809 H 0.68328 0.91106 0.54703 0.0
H810 H 0.61901 0.8966 0.46543 0.0
H811 H 0.63198 0.92582 0.55066 0.0
H812 H 0.54541 0.96803 0.54604 0.0
H813 H 0.59754 0.95866 0.53431 0.0
H814 H 0.57136 0.88367 0.49028 0.0
H815 H 0.51882 0.89365 0.50176 0.0
C816 C 0.6626 0.89158 0.48121 0.0
C817 C 0.68134 0.89511 0.50413 0.0
C818 C 0.63285 0.90002 0.48333 0.0
C819 C 0.62108 0.91246 0.50834 0.0
C820 C 0.64017 0.91673 0.53087 0.0
C821 C 0.66974 0.90816 0.52882 0.0
C822 C 0.55081 0.94995 0.53315 0.0
C823 C 0.52809 0.93179 0.52445 0.0
C824 C 0.58073 0.94435 0.52673 0.0
C825 C 0.58892 0.92017 0.51166 0.0
C826 C 0.56601 0.90261 0.50173 0.0
C827 C 0.53587 0.90831 0.50818 0.0
H828 H 0.6684 0.15488 0.06495 0.0
H829 H 0.70256 0.12657 0.98317 0.0
H830 H 0.62162 0.12922 0.05779 0.0
H831 H 0.65615 0.10129 0.976 0.0
H832 H 0.53208 0.11523 0.01112 0.0
H833 H 0.57955 0.13461 0.02594 0.0
H834 H 0.62419 0.06225 0.99225 0.0
H835 H 0.57688 0.043 0.97715 0.0
C836 C 0.66617 0.14278 0.04573 0.0
C837 C 0.68919 0.14284 0.02461 0.0
C838 C 0.63929 0.1283 0.0415 0.0
C839 C 0.63506 0.11329 0.01625 0.0
C840 C 0.65867 0.11236 0.99581 0.0
C841 C 0.68529 0.127 0.99988 0.0
C842 C 0.55198 0.10331 1.00713 0.0
C843 C 0.55066 0.07766 0.99271 0.0
C844 C 0.57918 0.11434 0.01582 0.0
C845 C 0.60573 0.10006 0.01016 0.0
C846 C 0.60423 0.07396 0.99663 0.0
C847 C 0.57705 0.06287 0.98806 0.0
H848 H 0.34707 0.41832 0.99608 0.0
H849 H 0.36214 0.39454 0.08218 0.0
H850 H 0.39813 0.43615 0.99086 0.0
H851 H 0.41341 0.41219 0.07677 0.0
H852 H 0.50886 0.40019 0.0284 0.0
H853 H 0.45715 0.39388 0.04613 0.0
H854 H 0.4352 0.47185 1.00825 0.0
H855 H 0.48691 0.47806 0.99082 0.0
C856 C 0.36105 0.41747 0.01411 0.0
C857 C 0.3505 0.40491 0.0395 0.0
C858 C 0.39032 0.42777 0.01115 0.0
C859 C 0.40985 0.42545 0.03339 0.0
C860 C 0.39893 0.41412 0.05924 0.0
C861 C 0.36948 0.40419 0.06235 0.0
C862 C 0.49322 0.41653 0.02514 0.0
C863 C 0.50183 0.43988 1.00888 0.0
C864 C 0.4636 0.4129 0.0351 0.0
C865 C 0.44205 0.43229 0.02838 0.0
C866 C 0.45124 0.45651 0.01363 0.0
C867 C 0.48086 0.46025 1.00399 0.0
H868 H 0.85081 0.15629 0.95903 0.0
H869 H 0.81784 0.12933 0.0418 0.0
H870 H 0.89785 0.13325 0.9663 0.0
H871 H 0.8646 0.10667 0.04912 0.0
H872 H 0.98849 0.12606 0.01006 0.0
H873 H 0.94022 0.14194 0.99634 0.0
H874 H 0.89793 0.06925 0.03498 0.0
H875 H 0.94637 0.05342 0.04899 0.0
C876 C 0.85334 0.14502 0.97852 0.0
C877 C 0.8305 0.14477 0.99984 0.0
C878 C 0.88043 0.13203 0.98282 0.0
C879 C 0.88522 0.11821 1.00841 0.0
C880 C 0.86176 0.11683 0.02906 0.0
C881 C 0.83489 0.13 0.02489 0.0
C882 C 0.96896 0.11328 0.01545 0.0
C883 C 0.9714 0.0885 0.03082 0.0
C884 C 0.94122 0.12232 1.00735 0.0
C885 C 0.91503 0.10696 0.01455 0.0
C886 C 0.91755 0.08178 0.0293 0.0
C887 C 0.94537 0.07262 0.03723 0.0
H888 H 0.07676 0.19088 0.2546 0.0
H889 H 0.99323 0.15098 0.28086 0.0
H890 H 0.07719 0.16403 0.21042 0.0
H891 H 0.99368 0.12429 0.23678 0.0
H892 H 0.02017 0.06512 0.1607 0.0
H893 H 0.02081 0.0874 0.20767 0.0
H894 H 0.04575 0.1658 0.16837 0.0
H895 H 0.04495 0.14404 0.12208 0.0
C896 C 0.05871 0.17617 0.25114 0.0
C897 C 0.03485 0.17332 0.27116 0.0
C898 C 0.05884 0.16089 0.22577 0.0
C899 C 0.03529 0.14219 0.21998 0.0
C900 C 1.01218 0.13839 0.24061 0.0
C901 C 1.01188 0.15386 0.2658 0.0
C902 C 0.02537 0.08716 0.16214 0.0
C903 C 0.03252 0.10269 0.13754 0.0
C904 C 0.02588 0.0999 0.18902 0.0
C905 C 0.03389 0.12828 0.19176 0.0
C906 C 0.04019 0.1438 0.1671 0.0
C907 C 0.03941 0.13127 0.14046 0.0
H908 H 0.92852 0.25845 0.27857 0.0
H909 H 1.00697 0.30189 0.30647 0.0
H910 H 0.91995 0.29694 0.24587 0.0
H911 H 0.99886 0.33947 0.27423 0.0
H912 H 0.97341 0.41253 0.22744 0.0
H913 H 0.96726 0.37747 0.26441 0.0
H914 H 0.94519 0.31565 0.20159 0.0
H915 H 0.95076 0.35104 0.16467 0.0
C916 C 0.94356 0.27635 0.27806 0.0
C917 C 0.96851 0.2771 0.29487 0.0
C918 C 0.93883 0.29825 0.25926 0.0
C919 C 0.95869 0.32136 0.25746 0.0
C920 C 0.98281 0.32235 0.27527 0.0
C921 C 0.98764 0.30058 0.29362 0.0
C922 C 0.96692 0.39153 0.2216 0.0
C923 C 0.96309 0.38446 0.19311 0.0
C924 C 0.96334 0.37142 0.24275 0.0
C925 C 0.95621 0.3436 0.23592 0.0
C926 C 0.95049 0.33688 0.20764 0.0
C927 C 0.95381 0.35715 0.18645 0.0
H928 H 0.07704 0.74257 0.26902 0.0
H929 H 0.09172 0.80265 0.20228 0.0
H930 H 0.08112 0.77945 0.3044 0.0
H931 H 0.0961 0.83985 0.23761 0.0
H932 H 0.04085 0.89237 0.30458 0.0
H933 H 0.05498 0.85849 0.26812 0.0
H934 H 0.10959 0.81719 0.32707 0.0
H935 H 0.09477 0.85054 0.36375 0.0
C936 C 0.08268 0.76355 0.26208 0.0
C937 C 0.08461 0.76991 0.23317 0.0
C938 C 0.08489 0.78471 0.28226 0.0
C939 C 0.08859 0.81259 0.27375 0.0
C940 C 0.09295 0.81857 0.24474 0.0
C941 C 0.09089 0.79733 0.22456 0.0
C942 C 0.05595 0.87613 0.30971 0.0
C943 C 0.06645 0.87403 0.33711 0.0
C944 C 0.06443 0.85697 0.28871 0.0
C945 C 0.08351 0.83523 0.29472 0.0
C946 C 0.09482 0.83368 0.32185 0.0
C947 C 0.08643 0.85291 0.34281 0.0
H948 H 0.9611 0.69102 0.26719 0.0
H949 H 0.04744 0.65648 0.24803 0.0
H950 H 0.95668 0.6639 0.31073 0.0
H951 H 0.04312 0.6296 0.29171 0.0
H952 H 1.0113 0.56638 0.36145 0.0
H953 H 0.01564 0.59092 0.31608 0.0
H954 H 0.97972 0.66439 0.35651 0.0
H955 H 0.97517 0.64004 0.40144 0.0
C956 C 0.97907 0.67754 0.27214 0.0
C957 C 1.00467 0.67608 0.25407 0.0
C958 C 0.97664 0.6621 0.29724 0.0
C959 C 0.99966 0.64469 0.30491 0.0
C960 C 0.02488 0.64262 0.28643 0.0
C961 C 0.02739 0.65817 0.2614 0.0
C962 C 1.00454 0.58782 0.36066 0.0
C963 C 0.99289 0.60116 0.38517 0.0
C964 C 1.00704 0.60191 0.33466 0.0
C965 C 0.99774 0.62958 0.33253 0.0
C966 C 0.98657 0.64296 0.35717 0.0
C967 C 0.98423 0.629 0.38307 0.0
H968 H 0.26556 0.0733 0.17345 0.0
H969 H 0.22724 0.99411 0.19972 0.0
H970 H 0.22531 0.07923 0.14132 0.0
H971 H 0.18587 1.00065 0.16946 0.0
H972 H 0.12553 1.00612 0.09663 0.0
H973 H 0.16874 0.99995 0.12504 0.0
H974 H 0.17696 0.08925 0.1356 0.0
H975 H 0.13537 0.09514 0.10555 0.0
C976 C 0.2482 0.05739 0.17269 0.0
C977 C 0.24961 0.03324 0.18905 0.0
C978 C 0.2249 0.06077 0.15433 0.0
C979 C 0.20195 0.0404 0.1524 0.0
C980 C 0.20326 0.01654 0.16944 0.0
C981 C 0.22691 0.01287 0.18717 0.0
C982 C 0.13691 0.02437 0.10477 0.0
C983 C 0.12712 0.05108 0.09866 0.0
C984 C 0.16158 0.02091 0.12142 0.0
C985 C 0.17662 0.04407 0.13314 0.0
C986 C 0.16671 0.0708 0.12672 0.0
C987 C 0.14259 0.07424 0.1095 0.0
H988 H 0.76152 0.51125 0.19538 0.0
H989 H 0.78326 0.42956 0.22456 0.0
H990 H 0.79433 0.50548 0.15384 0.0
H991 H 0.81737 0.4241 0.18311 0.0
H992 H 0.86488 0.41356 0.09824 0.0
H993 H 0.82329 0.4182 0.13296 0.0
H994 H 0.84553 0.50567 0.14195 0.0
H995 H 0.88629 0.50085 0.10665 0.0
C996 C 0.77353 0.49204 0.19306 0.0
C997 C 0.77002 0.47098 0.21359 0.0
C998 C 0.79249 0.48878 0.16913 0.0
C999 C 0.80887 0.46446 0.16505 0.0
C1000 C 0.80489 0.44303 0.18528 0.0
C1001 C 0.78553 0.4462 0.20921 0.0
C1002 C 0.85983 0.43399 0.10673 0.0
C1003 C 0.87807 0.45707 0.09915 0.0
C1004 C 0.83645 0.43656 0.1271 0.0
C1005 C 0.8311 0.46224 0.14065 0.0
C1006 C 0.84854 0.48562 0.1318 0.0
C1007 C 0.8718 0.48302 0.11134 0.0
H1008 H 0.25329 0.92963 0.29377 0.0
H1009 H 0.2613 0.01755 0.31229 0.0
H1010 H 0.21857 0.92404 0.33502 0.0
H1011 H 0.22758 0.01186 0.35326 0.0
H1012 H 0.13535 0.99727 0.39777 0.0
H1013 H 0.17513 1.00305 0.36137 0.0
H1014 H 0.21327 0.92612 0.3874 0.0
H1015 H 0.17287 0.9204 0.42375 0.0
C1016 C 0.24783 0.94767 0.30665 0.0
C1017 C 0.25984 0.97406 0.29941 0.0
C1018 C 0.22813 0.94446 0.33042 0.0
C1019 C 0.2201 0.96757 0.3474 0.0
C1020 C 0.23278 0.99371 0.34045 0.0
C1021 C 0.25225 0.99691 0.31685 0.0
C1022 C 0.1529 0.9822 0.39634 0.0
C1023 C 0.15172 0.95891 0.41403 0.0
C1024 C 0.17561 0.98534 0.37538 0.0
C1025 C 0.19747 0.96501 0.37137 0.0
C1026 C 0.1967 0.94204 0.38975 0.0
C1027 C 0.17397 0.93901 0.41088 0.0
H1028 H 0.77276 0.48817 0.3452 0.0
H1029 H 0.7836 0.57422 0.32009 0.0
H1030 H 0.81135 0.49447 0.37888 0.0
H1031 H 0.82312 0.58039 0.35379 0.0
H1032 H 0.90681 0.50517 0.40616 0.0
H1033 H 0.86455 0.50071 0.37617 0.0
H1034 H 0.83417 0.58118 0.40464 0.0
H1035 H 0.87703 0.58593 0.43447 0.0
C1036 C 0.78345 0.5085 0.34678 0.0
C1037 C 0.77526 0.53064 0.32965 0.0
C1038 C 0.80571 0.51206 0.36611 0.0
C1039 C 0.82062 0.53782 0.36884 0.0
C1040 C 0.81194 0.56029 0.35232 0.0
C1041 C 0.78944 0.55674 0.33291 0.0
C1042 C 0.89097 0.52181 0.40635 0.0
C1043 C 0.89529 0.54585 0.42282 0.0
C1044 C 0.86664 0.51922 0.38916 0.0
C1045 C 0.84592 0.5406 0.38797 0.0
C1046 C 0.84989 0.56447 0.40485 0.0
C1047 C 0.87427 0.56704 0.42216 0.0
H1048 H 0.19845 0.30903 0.09308 0.0
H1049 H 0.25931 0.26474 0.03706 0.0
H1050 H 0.16363 0.26885 0.09305 0.0
H1051 H 0.22531 0.22458 0.03754 0.0
H1052 H 0.14 0.18797 1.00328 0.0
H1053 H 0.17724 0.22332 0.01371 0.0
H1054 H 0.15357 0.2166 0.10304 0.0
H1055 H 0.11544 0.1812 0.09242 0.0
C1056 C 0.20479 0.29027 0.08176 0.0
C1057 C 0.23125 0.28972 0.06499 0.0
C1058 C 0.18496 0.26738 0.08166 0.0
C1059 C 0.19161 0.24389 0.06482 0.0
C1060 C 0.2194 0.24264 0.05023 0.0
C1061 C 0.23891 0.26546 0.05011 0.0
C1062 C 0.14248 0.19414 0.02512 0.0
C1063 C 0.12475 0.18187 0.047 0.0
C1064 C 0.16411 0.21412 0.03116 0.0
C1065 C 0.16856 0.2224 0.05924 0.0
C1066 C 0.15063 0.21048 0.08124 0.0
C1067 C 0.129 0.19018 0.07517 0.0
H1068 H 0.19378 0.7486 0.52291 0.0
H1069 H 0.22539 0.75885 0.43584 0.0
H1070 H 0.15926 0.78592 0.51781 0.0
H1071 H 0.19071 0.79701 0.43085 0.0
H1072 H 0.10566 0.84871 0.42627 0.0
H1073 H 0.1379 0.8088 0.42974 0.0
H1074 H 0.16065 0.83563 0.51357 0.0
H1075 H 0.12815 0.87517 0.51031 0.0
C1076 C 0.19345 0.75884 0.50257 0.0
C1077 C 0.21267 0.75071 0.47981 0.0
C1078 C 0.17363 0.78047 0.49973 0.0
C1079 C 0.17231 0.79483 0.47404 0.0
C1080 C 0.19097 0.78633 0.45094 0.0
C1081 C 0.21095 0.76452 0.45379 0.0
C1082 C 0.11723 0.8459 0.44562 0.0
C1083 C 0.11406 0.86513 0.46812 0.0
C1084 C 0.13601 0.82314 0.44745 0.0
C1085 C 0.15201 0.8189 0.4719 0.0
C1086 C 0.14843 0.83793 0.49454 0.0
C1087 C 0.12976 0.8607 0.49267 0.0
H1088 H 0.82437 0.7915 0.53655 0.0
H1089 H 0.80169 0.77999 0.44928 0.0
H1090 H 0.85852 0.75352 0.53216 0.0
H1091 H 0.83685 0.74172 0.44472 0.0
H1092 H 0.87807 0.65435 0.46338 0.0
H1093 H 0.84459 0.69373 0.46175 0.0
H1094 H 0.90594 0.74345 0.5096 0.0
H1095 H 0.93889 0.7042 0.5115 0.0
C1096 C 0.82678 0.78098 0.51627 0.0
C1097 C 0.81028 0.78897 0.49321 0.0
C1098 C 0.84663 0.75922 0.51371 0.0
C1099 C 0.85078 0.74473 0.48799 0.0
C1100 C 0.83411 0.75242 0.46487 0.0
C1101 C 0.81409 0.7744 0.46743 0.0
C1102 C 0.88451 0.67384 0.4732 0.0
C1103 C 0.91089 0.67603 0.48799 0.0
C1104 C 0.86537 0.69641 0.47223 0.0
C1105 C 0.87233 0.72163 0.48594 0.0
C1106 C 0.89947 0.72413 0.49945 0.0
C1107 C 0.9184 0.70162 0.50056 0.0
H1108 H 0.34207 0.75054 0.50273 0.0
H1109 H 0.30377 0.76001 0.58766 0.0
H1110 H 0.37347 0.79138 0.50928 0.0
H1111 H 0.3356 0.8016 0.59417 0.0
H1112 H 0.41883 0.86195 0.59925 0.0
H1113 H 0.38945 0.81862 0.59638 0.0
H1114 H 0.36343 0.84141 0.51296 0.0
H1115 H 0.39273 0.88441 0.51567 0.0
C1116 C 0.34037 0.76129 0.52293 0.0
C1117 C 0.32003 0.75213 0.54457 0.0
C1118 C 0.35838 0.78485 0.5266 0.0
C1119 C 0.35669 0.80004 0.55203 0.0
C1120 C 0.33739 0.79029 0.57429 0.0
C1121 C 0.31915 0.76653 0.57058 0.0
C1122 C 0.40697 0.85761 0.58023 0.0
C1123 C 0.40832 0.87658 0.55757 0.0
C1124 C 0.38995 0.8329 0.57872 0.0
C1125 C 0.37421 0.82652 0.55442 0.0
C1126 C 0.37562 0.84551 0.53183 0.0
C1127 C 0.39239 0.87022 0.53341 0.0
H1128 H 0.49733 0.64257 0.76936 0.0
H1129 H 0.58272 0.68039 0.74572 0.0
H1130 H 0.49911 0.61511 0.7258 0.0
H1131 H 0.58453 0.65269 0.70212 0.0
H1132 H 0.55448 0.63364 0.61275 0.0
H1133 H 0.55463 0.65539 0.65911 0.0
H1134 H 0.52613 0.57764 0.69789 0.0
H1135 H 0.52604 0.55543 0.65094 0.0
C1136 C 0.51672 0.64472 0.75506 0.0
C1137 C 0.53977 0.66391 0.76086 0.0
C1138 C 0.51777 0.62883 0.73018 0.0
C1139 C 0.54176 0.63197 0.71039 0.0
C1140 C 0.56552 0.65013 0.71683 0.0
C1141 C 0.56461 0.66585 0.74188 0.0
C1142 C 0.54803 0.62105 0.63104 0.0
C1143 C 0.54027 0.59269 0.62805 0.0
C1144 C 0.54846 0.63354 0.6577 0.0
C1145 C 0.54095 0.61814 0.6822 0.0
C1146 C 0.53214 0.59 0.67934 0.0
C1147 C 0.53194 0.57733 0.65248 0.0
H1148 H 0.51272 0.75263 0.74074 0.0
H1149 H 0.43499 0.78194 0.78757 0.0
H1150 H 0.50946 0.79021 0.70716 0.0
H1151 H 0.43133 0.81991 0.75333 0.0
H1152 H 0.46719 0.90354 0.71272 0.0
H1153 H 0.46161 0.86258 0.74276 0.0
H1154 H 0.48167 0.81001 0.67028 0.0
H1155 H 0.48857 0.85094 0.64053 0.0
C1156 C 0.49445 0.76684 0.74342 0.0
C1157 C 0.47416 0.76449 0.76679 0.0
C1158 C 0.49249 0.78834 0.72407 0.0
C1159 C 0.47025 0.80821 0.72763 0.0
C1160 C 0.44892 0.80507 0.75022 0.0
C1161 C 0.45075 0.78321 0.7696 0.0
C1162 C 0.47074 0.8833 0.70321 0.0
C1163 C 0.47867 0.88065 0.67418 0.0
C1164 C 0.46696 0.85976 0.72036 0.0
C1165 C 0.47107 0.833 0.70892 0.0
C1166 C 0.47852 0.83033 0.67982 0.0
C1167 C 0.48234 0.85383 0.66271 0.0
H1168 H 0.47535 0.24089 0.7888 0.0
H1169 H 0.46005 0.30555 0.72877 0.0
H1170 H 0.47777 0.2755 0.82675 0.0
H1171 H 0.46352 0.34049 0.76625 0.0
H1172 H 0.46013 0.39684 0.8428 0.0
H1173 H 0.44517 0.36077 0.80988 0.0
H1174 H 0.51607 0.30934 0.83669 0.0
H1175 H 0.53 0.34483 0.87083 0.0
C1176 C 0.47137 0.26249 0.78408 0.0
C1177 C 0.46696 0.27075 0.75625 0.0
C1178 C 0.47329 0.28233 0.80559 0.0
C1179 C 0.47144 0.31078 0.7994 0.0
C1180 C 0.46482 0.31875 0.7718 0.0
C1181 C 0.46262 0.29881 0.75035 0.0
C1182 C 0.47228 0.37769 0.84204 0.0
C1183 C 0.49621 0.3737 0.85964 0.0
C1184 C 0.46382 0.3571 0.82294 0.0
C1185 C 0.47922 0.33209 0.8208 0.0
C1186 C 0.5033 0.32814 0.83823 0.0
C1187 C 0.51166 0.3487 0.85747 0.0
H1188 H 0.49358 0.14151 0.74415 0.0
H1189 H 0.56208 0.19105 0.78266 0.0
H1190 H 0.48838 0.11265 0.78659 0.0
H1191 H 0.55629 0.16248 0.82557 0.0
H1192 H 0.49575 0.1322 0.90567 0.0
H1193 H 0.50976 0.15711 0.86195 0.0
H1194 H 0.5194 0.07895 0.81756 0.0
H1195 H 0.50608 0.05386 0.86156 0.0
C1196 C 0.50787 0.14593 0.76153 0.0
C1197 C 0.5283 0.1685 0.76005 0.0
C1198 C 0.50492 0.12937 0.7858 0.0
C1199 C 0.52182 0.13539 0.80942 0.0
C1200 C 0.54291 0.15744 0.80768 0.0
C1201 C 0.54638 0.17364 0.78307 0.0
C1202 C 0.50109 0.12029 0.88665 0.0
C1203 C 0.4997 0.09103 0.88708 0.0
C1204 C 0.50931 0.13457 0.86168 0.0
C1205 C 0.51576 0.11997 0.83638 0.0
C1206 C 0.51455 0.09072 0.83677 0.0
C1207 C 0.50697 0.07639 0.86194 0.0
H1208 H 0.7568 0.4836 0.66537 0.0
H1209 H 0.74812 0.56872 0.69386 0.0
H1210 H 0.71753 0.48979 0.63269 0.0
H1211 H 0.7081 0.5748 0.66112 0.0
H1212 H 0.65521 0.58216 0.5805 0.0
H1213 H 0.69734 0.57695 0.6106 0.0
H1214 H 0.66425 0.4951 0.63482 0.0
H1215 H 0.62241 0.5001 0.60444 0.0
C1216 C 0.74652 0.50372 0.6647 0.0
C1217 C 0.75561 0.52565 0.68245 0.0
C1218 C 0.7238 0.50719 0.64599 0.0
C1219 C 0.7094 0.53269 0.64439 0.0
C1220 C 0.71886 0.55491 0.66165 0.0
C1221 C 0.74172 0.55142 0.68051 0.0
C1222 C 0.65711 0.56289 0.59196 0.0
C1223 C 0.63545 0.54147 0.5899 0.0
C1224 C 0.68113 0.56005 0.60947 0.0
C1225 C 0.68419 0.53567 0.62525 0.0
C1226 C 0.66283 0.51405 0.62273 0.0
C1227 C 0.63877 0.51692 0.60531 0.0
H1228 H 0.25127 0.0359 0.69545 0.0
H1229 H 0.29638 0.97436 0.74272 0.0
H1230 H 0.28941 0.03168 0.65644 0.0
H1231 H 0.33366 0.97017 0.70453 0.0
H1232 H 0.41213 0.9855 0.64844 0.0
H1233 H 0.37415 0.99998 0.68298 0.0
H1234 H 0.30796 0.99248 0.61995 0.0
H1235 H 0.34677 0.97826 0.58453 0.0
C1236 C 0.26952 0.02191 0.6977 0.0
C1237 C 0.27094 1.00558 0.7222 0.0
C1238 C 0.29109 0.01925 0.67531 0.0
C1239 C 0.31461 1.00065 0.67743 0.0
C1240 C 0.31612 0.98494 0.70226 0.0
C1241 C 0.29464 0.98731 0.7242 0.0
C1242 C 0.38956 0.98711 0.64169 0.0
C1243 C 0.38237 0.9801 0.61385 0.0
C1244 C 0.36777 0.9955 0.66156 0.0
C1245 C 0.33794 0.99691 0.65439 0.0
C1246 C 0.3308 0.99161 0.62608 0.0
C1247 C 0.35292 0.98334 0.60588 0.0
H1248 H 0.77162 0.42372 0.80347 0.0
H1249 H 0.72325 0.48986 0.76665 0.0
H1250 H 0.73134 0.41751 0.84012 0.0
H1251 H 0.68303 0.48331 0.8025 0.0
H1252 H 0.6051 0.44478 0.8558 0.0
H1253 H 0.64437 0.44507 0.81848 0.0
H1254 H 0.71066 0.45125 0.88148 0.0
H1255 H 0.67124 0.45137 0.91908 0.0
C1256 C 0.75205 0.43635 0.8028 0.0
C1257 C 0.75033 0.4571 0.7822 0.0
C1258 C 0.72924 0.43304 0.82387 0.0
C1259 C 0.70414 0.45 0.82415 0.0
C1260 C 0.70199 0.46985 0.80273 0.0
C1261 C 0.72497 0.47356 0.7822 0.0
C1262 C 0.62803 0.44622 0.86177 0.0
C1263 C 0.63504 0.44828 0.89042 0.0
C1264 C 0.65049 0.44633 0.84037 0.0
C1265 C 0.68053 0.44802 0.8471 0.0
C1266 C 0.68767 0.44962 0.87574 0.0
C1267 C 0.66512 0.44999 0.8972 0.0
H1268 H 0.25284 0.01223 0.86419 0.0
H1269 H 0.30373 0.94618 0.82541 0.0
H1270 H 0.29367 0.02412 0.89422 0.0
H1271 H 0.34577 0.95912 0.8541 0.0
H1272 H 0.41256 0.97823 0.921 0.0
H1273 H 0.36876 0.96186 0.89682 0.0
H1274 H 0.33894 0.04659 0.89255 0.0
H1275 H 0.38174 0.06244 0.91822 0.0
C1276 C 0.27289 1.00018 0.8622 0.0
C1277 C 0.27513 0.97828 0.84249 0.0
C1278 C 0.29656 0.00723 0.87918 0.0
C1279 C 0.32359 0.99309 0.8764 0.0
C1280 C 0.32539 0.97044 0.85724 0.0
C1281 C 0.3013 0.96295 0.84068 0.0
C1282 C 0.39645 0.99328 0.91506 0.0
C1283 C 0.40058 0.02164 0.92163 0.0
C1284 C 0.37136 0.98392 0.90095 0.0
C1285 C 0.34995 1.00275 0.89252 0.0
C1286 C 0.35429 0.03117 0.89917 0.0
C1287 C 0.37906 0.04042 0.91377 0.0
H1288 H 0.74282 0.77069 0.57304 0.0
H1289 H 0.66769 0.82263 0.56133 0.0
H1290 H 0.71006 0.72951 0.57426 0.0
H1291 H 0.63447 0.78176 0.56376 0.0
H1292 H 0.64333 0.6584 0.57768 0.0
H1293 H 0.66949 0.70046 0.59313 0.0
H1294 H 0.62868 0.74719 0.528 0.0
H1295 H 0.60172 0.70574 0.51356 0.0
C1296 C 0.71903 0.77333 0.57229 0.0
C1297 C 0.70756 0.79962 0.56739 0.0
C1298 C 0.70022 0.74977 0.57287 0.0
C1299 C 0.66967 0.75227 0.56853 0.0
C1300 C 0.65797 0.77905 0.56651 0.0
C1301 C 0.67684 0.80249 0.56556 0.0
C1302 C 0.63953 0.67778 0.56704 0.0
C1303 C 0.62061 0.67861 0.54417 0.0
C1304 C 0.65468 0.70185 0.57579 0.0
C1305 C 0.65116 0.72726 0.5619 0.0
C1306 C 0.63159 0.72815 0.53957 0.0
C1307 C 0.61648 0.70419 0.53089 0.0
H1308 H 0.71491 0.26043 0.93623 0.0
H1309 H 0.68885 0.2568 0.02528 0.0
H1310 H 0.6794 0.29781 0.93022 0.0
H1311 H 0.65363 0.29333 0.0192 0.0
H1312 H 0.625 0.38267 1.00663 0.0
H1313 H 0.65675 0.34284 0.01058 0.0
H1314 H 0.62511 0.30952 0.93212 0.0
H1315 H 0.59325 0.34991 0.92797 0.0
C1316 C 0.70157 0.26741 0.95444 0.0
C1317 C 0.7051 0.25571 0.98128 0.0
C1318 C 0.68109 0.28871 0.95098 0.0
C1319 C 0.66381 0.29882 0.9743 0.0
C1320 C 0.66689 0.28653 1.00086 0.0
C1321 C 0.68716 0.2654 1.00429 0.0
C1322 C 0.62443 0.36673 0.99035 0.0
C1323 C 0.60635 0.3695 0.96708 0.0
C1324 C 0.64268 0.34379 0.99263 0.0
C1325 C 0.64358 0.32287 0.97166 0.0
C1326 C 0.62518 0.32534 0.94853 0.0
C1327 C 0.60664 0.34832 0.94634 0.0
H1328 H 0.31234 0.28457 0.95074 0.0
H1329 H 0.3509 0.29467 0.03238 0.0
H1330 H 0.33774 0.24007 0.9442 0.0
H1331 H 0.37587 0.25077 0.0258 0.0
H1332 H 0.3765 0.1577 0.02669 0.0
H1333 H 0.35194 0.2021 0.02499 0.0
H1334 H 0.39163 0.21694 0.94146 0.0
H1335 H 0.41676 0.17199 0.94333 0.0
C1336 C 0.32664 0.27763 0.96698 0.0
C1337 C 0.32926 0.29301 0.99225 0.0
C1338 C 0.34113 0.25219 0.96323 0.0
C1339 C 0.35828 0.24175 0.98475 0.0
C1340 C 0.36229 0.25801 1.00911 0.0
C1341 C 0.34802 0.28327 0.01281 0.0
C1342 C 0.37993 0.17031 1.00788 0.0
C1343 C 0.39903 0.16162 0.9854 0.0
C1344 C 0.36587 0.19575 1.0069 0.0
C1345 C 0.37042 0.21326 0.98337 0.0
C1346 C 0.38788 0.20388 0.95992 0.0
C1347 C 0.40215 0.17819 0.96095 0.0
H1348 H 0.80244 0.2652 0.08698 0.0
H1349 H 0.84145 0.24622 1.00409 0.0
H1350 H 0.84104 0.30138 0.09304 0.0
H1351 H 0.87989 0.28142 0.01036 0.0
H1352 H 0.91573 0.371 0.01417 0.0
H1353 H 0.88173 0.33132 0.01065 0.0
H1354 H 0.89467 0.31095 0.0981 0.0
H1355 H 0.92846 0.35116 0.10182 0.0
C1356 C 0.81938 0.26851 0.07026 0.0
C1357 C 0.81856 0.25316 0.0449 0.0
C1358 C 0.84156 0.2891 0.07375 0.0
C1359 C 0.86334 0.29455 0.05199 0.0
C1360 C 0.8631 0.27829 0.02725 0.0
C1361 C 0.84101 0.258 0.02372 0.0
C1362 C 0.91176 0.35784 0.03255 0.0
C1363 C 0.9249 0.36427 0.05824 0.0
C1364 C 0.89224 0.33501 0.03054 0.0
C1365 C 0.88536 0.31796 0.05415 0.0
C1366 C 0.89919 0.32386 0.07964 0.0
C1367 C 0.91883 0.34673 0.08164 0.0
loop_
_geom_bond_atom_site_label_1
_geom_bond_atom_site_label_2
_geom_bond_distance
_geom_bond_site_symmetry_2
_ccdc_geom_bond_type
C0 O2 1.247 . S
C0 O4 1.258 . S
C1 O8 1.247 1_455 S
C1 O9 1.258 . S
O2 C0 1.247 . S
O2 Zn3 2.028 . S
Zn3 O2 2.028 . S
Zn3 O7 2.035 . S
Zn3 O9 2.035 . S
Zn3 O10 2.028 . S
O4 C0 1.258 . S
O4 Zn5 2.035 1_455 S
Zn5 O4 2.035 1_655 S
Zn5 O6 2.028 . S
Zn5 O8 2.028 . S
Zn5 O11 2.035 1_655 S
O6 Zn5 2.028 . S
O6 C12 1.247 1_655 S
O7 Zn3 2.035 . S
O7 C12 1.258 . S
O8 C1 1.247 1_655 S
O8 Zn5 2.028 . S
O9 C1 1.258 . S
O9 Zn3 2.035 . S
O10 Zn3 2.028 . S
O10 C13 1.247 . S
O11 Zn5 2.035 1_455 S
O11 C13 1.258 . S
C12 O6 1.247 1_455 S
C12 O7 1.258 . S
C13 O10 1.247 . S
C13 O11 1.258 . S
C14 O16 1.247 . S
C14 O18 1.258 1_455 S
C15 O22 1.247 1_455 S
C15 O23 1.258 . S
O16 C14 1.247 . S
O16 Zn17 2.028 . S
Zn17 O16 2.028 . S
Zn17 O21 2.035 . S
Zn17 O23 2.035 . S
Zn17 O24 2.028 . S
O18 C14 1.258 1_655 S
O18 Zn19 2.035 . S
Zn19 O18 2.035 . S
Zn19 O20 2.028 . S
Zn19 O22 2.028 . S
Zn19 O25 2.035 . S
O20 Zn19 2.028 . S
O20 C26 1.247 1_655 S
O21 Zn17 2.035 . S
O21 C26 1.258 . S
O22 C15 1.247 1_655 S
O22 Zn19 2.028 . S
O23 C15 1.258 . S
O23 Zn17 2.035 . S
O24 Zn17 2.028 . S
O24 C27 1.247 . S
O25 Zn19 2.035 . S
O25 C27 1.258 1_655 S
C26 O20 1.247 1_455 S
C26 O21 1.258 . S
C27 O24 1.247 . S
C27 O25 1.258 1_455 S
C28 O30 1.247 1_545 S
C28 O32 1.258 . S
C29 O36 1.247 1_565 S
C29 O37 1.258 . S
O30 C28 1.247 1_565 S
O30 Zn31 2.028 . S
Zn31 O30 2.028 . S
Zn31 O35 2.035 . S
Zn31 O37 2.035 . S
Zn31 O38 2.028 . S
O32 C28 1.258 . S
O32 Zn33 2.035 . S
Zn33 O32 2.035 . S
Zn33 O34 2.028 . S
Zn33 O36 2.028 . S
Zn33 O39 2.035 . S
O34 Zn33 2.028 . S
O34 C40 1.247 1_545 S
O35 Zn31 2.035 . S
O35 C40 1.258 . S
O36 C29 1.247 1_545 S
O36 Zn33 2.028 . S
O37 C29 1.258 . S
O37 Zn31 2.035 . S
O38 Zn31 2.028 . S
O38 C41 1.247 1_565 S
O39 Zn33 2.035 . S
O39 C41 1.258 . S
C40 O34 1.247 1_565 S
C40 O35 1.258 . S
C41 O38 1.247 1_545 S
C41 O39 1.258 . S
C42 O44 1.247 . S
C42 O46 1.258 . S
C43 O50 1.247 . S
C43 O51 1.258 . S
O44 C42 1.247 . S
O44 Zn45 2.028 . S
Zn45 O44 2.028 . S
Zn45 O49 2.035 . S
Zn45 O51 2.035 . S
Zn45 O52 2.028 . S
O46 C42 1.258 . S
O46 Zn47 2.035 . S
Zn47 O46 2.035 . S
Zn47 O48 2.028 . S
Zn47 O50 2.028 . S
Zn47 O53 2.035 . S
O48 Zn47 2.028 . S
O48 C54 1.247 . S
O49 Zn45 2.035 . S
O49 C54 1.258 . S
O50 C43 1.247 . S
O50 Zn47 2.028 . S
O51 C43 1.258 . S
O51 Zn45 2.035 . S
O52 Zn45 2.028 . S
O52 C55 1.247 . S
O53 Zn47 2.035 . S
O53 C55 1.258 . S
C54 O48 1.247 . S
C54 O49 1.258 . S
C55 O52 1.247 . S
C55 O53 1.258 . S
C56 O58 1.226 1_554 S
C56 O60 1.258 . S
C57 O64 1.247 . S
C57 O65 1.258 1_554 S
O58 C56 1.226 1_556 S
O58 Zn59 2.034 . S
Zn59 O58 2.034 . S
Zn59 O63 2.035 . S
Zn59 O65 2.035 . S
Zn59 O66 2.032 . S
O60 C56 1.258 . S
O60 Zn61 2.035 . S
Zn61 O60 2.035 . S
Zn61 O62 2.028 . S
Zn61 O64 2.028 . S
Zn61 O67 2.035 . S
O62 Zn61 2.028 . S
O62 C68 1.247 . S
O63 Zn59 2.035 . S
O63 C68 1.258 1_556 S
O64 C57 1.247 . S
O64 Zn61 2.028 . S
O65 C57 1.258 1_556 S
O65 Zn59 2.035 . S
O66 Zn59 2.032 . S
O66 C69 1.235 1_556 S
O67 Zn61 2.035 . S
O67 C69 1.258 . S
C68 O62 1.247 . S
C68 O63 1.258 1_554 S
C69 O66 1.235 1_554 S
C69 O67 1.258 . S
C70 O72 1.247 . S
C70 O74 1.258 . S
C71 O78 1.247 . S
C71 O79 1.258 . S
O72 C70 1.247 . S
O72 Zn73 2.028 . S
Zn73 O72 2.028 . S
Zn73 O77 2.035 . S
Zn73 O79 2.035 . S
Zn73 O80 2.028 . S
O74 C70 1.258 . S
O74 Zn75 2.035 . S
Zn75 O74 2.035 . S
Zn75 O76 2.028 . S
Zn75 O78 2.028 . S
Zn75 O81 2.035 . S
O76 Zn75 2.028 . S
O76 C82 1.247 . S
O77 Zn73 2.035 . S
O77 C82 1.258 . S
O78 C71 1.247 . S
O78 Zn75 2.028 . S
O79 C71 1.258 . S
O79 Zn73 2.035 . S
O80 Zn73 2.028 . S
O80 C83 1.247 . S
O81 Zn75 2.035 . S
O81 C83 1.258 . S
C82 O76 1.247 . S
C82 O77 1.258 . S
C83 O80 1.247 . S
C83 O81 1.258 . S
C84 O86 1.247 . S
C84 O88 1.258 . S
C85 O92 1.247 . S
C85 O93 1.258 . S
O86 C84 1.247 . S
O86 Zn87 2.028 . S
Zn87 O86 2.028 . S
Zn87 O91 2.035 . S
Zn87 O93 2.035 . S
Zn87 O94 2.028 . S
O88 C84 1.258 . S
O88 Zn89 2.035 . S
Zn89 O88 2.035 . S
Zn89 O90 2.028 . S
Zn89 O92 2.028 . S
Zn89 O95 2.035 . S
O90 Zn89 2.028 . S
O90 C96 1.247 . S
O91 Zn87 2.035 . S
O91 C96 1.258 . S
O92 C85 1.247 . S
O92 Zn89 2.028 . S
O93 C85 1.258 . S
O93 Zn87 2.035 . S
O94 Zn87 2.028 . S
O94 C97 1.247 . S
O95 Zn89 2.035 . S
O95 C97 1.258 . S
C96 O90 1.247 . S
C96 O91 1.258 . S
C97 O94 1.247 . S
C97 O95 1.258 . S
C98 O100 1.247 . S
C98 O102 1.258 . S
C99 O106 1.247 . S
C99 O107 1.258 . S
O100 C98 1.247 . S
O100 Zn101 2.028 . S
Zn101 O100 2.028 . S
Zn101 O105 2.035 . S
Zn101 O107 2.035 . S
Zn101 O108 2.028 . S
O102 C98 1.258 . S
O102 Zn103 2.035 . S
Zn103 O102 2.035 . S
Zn103 O104 2.028 . S
Zn103 O106 2.028 . S
Zn103 O109 2.035 . S
O104 Zn103 2.028 . S
O104 C110 1.247 . S
O105 Zn101 2.035 . S
O105 C110 1.258 . S
O106 C99 1.247 . S
O106 Zn103 2.028 . S
O107 C99 1.258 . S
O107 Zn101 2.035 . S
O108 Zn101 2.028 . S
O108 C111 1.247 . S
O109 Zn103 2.035 . S
O109 C111 1.258 . S
C110 O104 1.247 . S
C110 O105 1.258 . S
C111 O108 1.247 . S
C111 O109 1.258 . S
C112 O114 1.247 . S
C112 O116 1.258 . S
C113 O120 1.247 . S
C113 O121 1.258 . S
O114 C112 1.247 . S
O114 Zn115 2.028 . S
Zn115 O114 2.028 . S
Zn115 O119 2.035 . S
Zn115 O121 2.035 . S
Zn115 O122 2.028 . S
O116 C112 1.258 . S
O116 Zn117 2.035 . S
Zn117 O116 2.035 . S
Zn117 O118 2.028 . S
Zn117 O120 2.028 . S
Zn117 O123 2.035 . S
O118 Zn117 2.028 . S
O118 C124 1.247 . S
O119 Zn115 2.035 . S
O119 C124 1.258 . S
O120 C113 1.247 . S
O120 Zn117 2.028 . S
O121 C113 1.258 . S
O121 Zn115 2.035 . S
O122 Zn115 2.028 . S
O122 C125 1.247 . S
O123 Zn117 2.035 . S
O123 C125 1.258 . S
C124 O118 1.247 . S
C124 O119 1.258 . S
C125 O122 1.247 . S
C125 O123 1.258 . S
C126 O128 1.247 . S
C126 O130 1.258 . S
C127 O134 1.247 . S
C127 O135 1.258 . S
O128 C126 1.247 . S
O128 Zn129 2.028 . S
Zn129 O128 2.028 . S
Zn129 O133 2.035 . S
Zn129 O135 2.035 . S
Zn129 O136 2.028 . S
O130 C126 1.258 . S
O130 Zn131 2.035 . S
Zn131 O130 2.035 . S
Zn131 O132 2.028 . S
Zn131 O134 2.028 . S
Zn131 O137 2.035 . S
O132 Zn131 2.028 . S
O132 C138 1.247 . S
O133 Zn129 2.035 . S
O133 C138 1.258 . S
O134 C127 1.247 . S
O134 Zn131 2.028 . S
O135 C127 1.258 . S
O135 Zn129 2.035 . S
O136 Zn129 2.028 . S
O136 C139 1.247 . S
O137 Zn131 2.035 . S
O137 C139 1.258 . S
C138 O132 1.247 . S
C138 O133 1.258 . S
C139 O136 1.247 . S
C139 O137 1.258 . S
C140 O142 1.247 . S
C140 O144 1.258 1_565 S
C141 O148 1.247 . S
C141 O149 1.258 1_545 S
O142 C140 1.247 . S
O142 Zn143 2.028 . S
Zn143 O142 2.028 . S
Zn143 O147 2.035 . S
Zn143 O149 2.035 . S
Zn143 O150 2.028 . S
O144 C140 1.258 1_545 S
O144 Zn145 2.035 . S
Zn145 O144 2.035 . S
Zn145 O146 2.028 . S
Zn145 O148 2.028 . S
Zn145 O151 2.035 . S
O146 Zn145 2.028 . S
O146 C152 1.247 . S
O147 Zn143 2.035 . S
O147 C152 1.258 1_565 S
O148 C141 1.247 . S
O148 Zn145 2.028 . S
O149 C141 1.258 1_565 S
O149 Zn143 2.035 . S
O150 Zn143 2.028 . S
O150 C153 1.247 . S
O151 Zn145 2.035 . S
O151 C153 1.258 1_545 S
C152 O146 1.247 . S
C152 O147 1.258 1_545 S
C153 O150 1.247 . S
C153 O151 1.258 1_565 S
C154 O156 1.247 . S
C154 O158 1.258 1_554 S
C155 O162 1.225 1_554 S
C155 O163 1.258 . S
O156 C154 1.247 . S
O156 Zn157 2.028 . S
Zn157 O156 2.028 . S
Zn157 O161 2.035 . S
Zn157 O163 2.035 . S
Zn157 O164 2.028 . S
O158 C154 1.258 1_556 S
O158 Zn159 2.035 . S
Zn159 O158 2.035 . S
Zn159 O160 2.039 . S
Zn159 O162 2.036 . S
Zn159 O165 2.035 . S
O160 Zn159 2.039 . S
O160 C166 1.218 1_556 S
O161 Zn157 2.035 . S
O161 C166 1.258 . S
O162 C155 1.225 1_556 S
O162 Zn159 2.036 . S
O163 C155 1.258 . S
O163 Zn157 2.035 . S
O164 Zn157 2.028 . S
O164 C167 1.247 . S
O165 Zn159 2.035 . S
O165 C167 1.258 1_556 S
C166 O160 1.218 1_554 S
C166 O161 1.258 . S
C167 O164 1.247 . S
C167 O165 1.258 1_554 S
Co168 N173 2.057 1_545 S
Co168 O185 2.021 . S
Co168 O188 2.062 . S
Co168 O192 2.117 . S
Co168 O193 2.020 1_455 S
C169 O189 1.259 . S
C169 O192 1.258 . S
Co170 N179 2.057 . S
Co170 O186 2.117 . S
Co170 O187 2.020 . S
Co170 O189 2.021 . S
Co170 O194 2.062 . S
C171 N173 1.316 . S
C171 N174 1.347 1_455 S
C171 H176 0.931 . S
C172 N173 1.375 1_655 S
C172 C175 1.350 . S
C172 H177 0.930 . S
N173 Co168 2.057 1_565 S
N173 C171 1.316 . S
N173 C172 1.375 1_455 S
N174 C171 1.347 1_655 S
N174 C175 1.373 . S
C175 C172 1.350 . S
C175 N174 1.373 . S
C175 H196 0.931 . S
H176 C171 0.931 . S
H177 C172 0.930 . S
C178 O185 1.259 1_556 S
C178 O186 1.258 1_556 S
N179 Co170 2.057 . S
N179 C180 1.316 . S
N179 C181 1.375 1_554 S
C180 N179 1.316 . S
C180 N182 1.347 . S
C180 H191 0.931 . S
C181 N179 1.375 1_556 S
C181 C183 1.350 . S
C181 H190 0.930 . S
N182 C180 1.347 . S
N182 C183 1.373 1_554 S
C183 C181 1.350 . S
C183 N182 1.373 1_556 S
C183 H197 0.931 . S
C184 O187 1.256 . S
C184 O188 1.255 . S
O185 Co168 2.021 . S
O185 C178 1.259 1_554 S
O186 Co170 2.117 . S
O186 C178 1.258 1_554 S
O187 Co170 2.020 . S
O187 C184 1.256 . S
O188 Co168 2.062 . S
O188 C184 1.255 . S
O189 C169 1.259 . S
O189 Co170 2.021 . S
H190 C181 0.930 . S
H191 C180 0.931 . S
O192 Co168 2.117 . S
O192 C169 1.258 . S
O193 Co168 2.020 1_655 S
O193 C195 1.256 . S
O194 Co170 2.062 . S
O194 C195 1.255 1_455 S
C195 O193 1.256 . S
C195 O194 1.255 1_655 S
H196 C175 0.931 . S
H197 C183 0.931 . S
Co198 N203 2.057 . S
Co198 O215 2.021 . S
Co198 O218 2.062 . S
Co198 O222 2.117 . S
Co198 O223 2.020 . S
C199 O219 1.259 . S
C199 O222 1.258 . S
Co200 N209 2.057 1_554 S
Co200 O216 2.117 . S
Co200 O217 2.020 . S
Co200 O219 2.021 . S
Co200 O224 2.062 . S
C201 N203 1.316 . S
C201 N204 1.347 . S
C201 H206 0.931 . S
C202 N203 1.375 . S
C202 C205 1.336 1_655 S
C202 H207 0.930 . S
N203 Co198 2.057 . S
N203 C201 1.316 . S
N203 C202 1.375 . S
N204 C201 1.347 . S
N204 C205 1.366 1_655 S
C205 C202 1.336 1_455 S
C205 N204 1.366 1_455 S
C205 H226 0.949 . S
H206 C201 0.931 . S
H207 C202 0.930 . S
C208 O215 1.259 . S
C208 O216 1.258 . S
N209 Co200 2.057 1_556 S
N209 C210 1.316 . S
N209 C211 1.375 . S
C210 N209 1.316 . S
C210 N212 1.347 . S
C210 H221 0.931 . S
C211 N209 1.375 . S
C211 C213 1.350 . S
C211 H220 0.930 . S
N212 C210 1.347 . S
N212 C213 1.373 . S
C213 C211 1.350 . S
C213 N212 1.373 . S
C213 H227 0.931 . S
C214 O217 1.253 . S
C214 O218 1.254 . S
O215 Co198 2.021 . S
O215 C208 1.259 . S
O216 Co200 2.117 . S
O216 C208 1.258 . S
O217 Co200 2.020 . S
O217 C214 1.253 . S
O218 Co198 2.062 . S
O218 C214 1.254 . S
O219 C199 1.259 . S
O219 Co200 2.021 . S
H220 C211 0.930 . S
H221 C210 0.931 . S
O222 Co198 2.117 . S
O222 C199 1.258 . S
O223 Co198 2.020 . S
O223 C225 1.256 . S
O224 Co200 2.062 . S
O224 C225 1.255 . S
C225 O223 1.256 . S
C225 O224 1.255 . S
H226 C205 0.949 . S
H227 C213 0.931 . S
Co228 N233 2.057 . S
Co228 O245 2.021 . S
Co228 O248 2.062 . S
Co228 O252 2.117 . S
Co228 O253 2.020 . S
C229 O249 1.259 . S
C229 O252 1.258 . S
Co230 N239 2.057 . S
Co230 O246 2.117 . S
Co230 O247 2.020 . S
Co230 O249 2.021 . S
Co230 O254 2.062 . S
C231 N233 1.316 . S
C231 N234 1.347 . S
C231 H236 0.931 . S
C232 N233 1.375 . S
C232 C235 1.350 . S
C232 H237 0.930 . S
N233 Co228 2.057 . S
N233 C231 1.316 . S
N233 C232 1.375 . S
N234 C231 1.347 . S
N234 C235 1.373 . S
C235 C232 1.350 . S
C235 N234 1.373 . S
C235 H256 0.931 1_565 S
H236 C231 0.931 . S
H237 C232 0.930 . S
C238 O245 1.259 . S
C238 O246 1.258 . S
N239 Co230 2.057 . S
N239 C240 1.316 . S
N239 C241 1.366 1_455 S
C240 N239 1.316 . S
C240 N242 1.347 . S
C240 H251 0.931 . S
C241 N239 1.366 1_655 S
C241 C243 1.353 . S
C241 H250 0.935 . S
N242 C240 1.347 . S
N242 C243 1.373 1_455 S
C243 C241 1.353 . S
C243 N242 1.373 1_655 S
C243 H257 0.931 . S
C244 O247 1.256 . S
C244 O248 1.255 . S
O245 Co228 2.021 . S
O245 C238 1.259 . S
O246 Co230 2.117 . S
O246 C238 1.258 . S
O247 Co230 2.020 . S
O247 C244 1.256 . S
O248 Co228 2.062 . S
O248 C244 1.255 . S
O249 C229 1.259 . S
O249 Co230 2.021 . S
H250 C241 0.935 . S
H251 C240 0.931 . S
O252 Co228 2.117 . S
O252 C229 1.258 . S
O253 Co228 2.020 . S
O253 C255 1.256 . S
O254 Co230 2.062 . S
O254 C255 1.255 . S
C255 O253 1.256 . S
C255 O254 1.255 . S
H256 C235 0.931 1_545 S
H257 C243 0.931 . S
Co258 N263 2.057 . S
Co258 O275 2.021 . S
Co258 O278 2.062 . S
Co258 O282 2.117 . S
Co258 O283 2.020 . S
C259 O279 1.259 . S
C259 O282 1.258 1_455 S
Co260 N269 2.057 . S
Co260 O276 2.117 . S
Co260 O277 2.020 . S
Co260 O279 2.021 1_655 S
Co260 O284 2.062 . S
C261 N263 1.316 . S
C261 N264 1.347 . S
C261 H266 0.931 . S
C262 N263 1.375 . S
C262 C265 1.350 . S
C262 H267 0.930 . S
N263 Co258 2.057 . S
N263 C261 1.316 . S
N263 C262 1.375 . S
N264 C261 1.347 . S
N264 C265 1.373 . S
C265 C262 1.350 . S
C265 N264 1.373 . S
C265 H286 0.931 . S
H266 C261 0.931 . S
H267 C262 0.930 . S
C268 O275 1.259 . S
C268 O276 1.258 . S
N269 Co260 2.057 . S
N269 C270 1.316 1_655 S
N269 C271 1.375 . S
C270 N269 1.316 1_455 S
C270 N272 1.347 . S
C270 H281 0.931 . S
C271 N269 1.375 . S
C271 C273 1.350 . S
C271 H280 0.930 . S
N272 C270 1.347 . S
N272 C273 1.373 1_455 S
C273 C271 1.350 . S
C273 N272 1.373 1_655 S
C273 H287 0.931 . S
C274 O277 1.256 . S
C274 O278 1.255 . S
O275 Co258 2.021 . S
O275 C268 1.259 . S
O276 Co260 2.117 . S
O276 C268 1.258 . S
O277 Co260 2.020 . S
O277 C274 1.256 . S
O278 Co258 2.062 . S
O278 C274 1.255 . S
O279 C259 1.259 . S
O279 Co260 2.021 1_455 S
H280 C271 0.930 . S
H281 C270 0.931 . S
O282 Co258 2.117 . S
O282 C259 1.258 1_655 S
O283 Co258 2.020 . S
O283 C285 1.256 . S
O284 Co260 2.062 . S
O284 C285 1.255 . S
C285 O283 1.256 . S
C285 O284 1.255 . S
H286 C265 0.931 . S
H287 C273 0.931 . S
Co288 N293 2.057 . S
Co288 O305 2.021 . S
Co288 O308 2.062 . S
Co288 O312 2.117 . S
Co288 O313 2.020 . S
C289 O309 1.259 . S
C289 O312 1.258 . S
Co290 N299 2.057 . S
Co290 O306 2.117 . S
Co290 O307 2.020 . S
Co290 O309 2.021 . S
Co290 O314 2.062 . S
C291 N293 1.316 . S
C291 N294 1.347 . S
C291 H296 0.931 . S
C292 N293 1.375 . S
C292 C295 1.350 . S
C292 H297 0.930 . S
N293 Co288 2.057 . S
N293 C291 1.316 . S
N293 C292 1.375 . S
N294 C291 1.347 . S
N294 C295 1.373 . S
C295 C292 1.350 . S
C295 N294 1.373 . S
C295 H316 0.931 . S
H296 C291 0.931 . S
H297 C292 0.930 . S
C298 O305 1.259 . S
C298 O306 1.258 . S
N299 Co290 2.057 . S
N299 C300 1.316 . S
N299 C301 1.375 . S
C300 N299 1.316 . S
C300 N302 1.347 . S
C300 H311 0.931 1_565 S
C301 N299 1.375 . S
C301 C303 1.350 . S
C301 H310 0.930 . S
N302 C300 1.347 . S
N302 C303 1.373 . S
C303 C301 1.350 . S
C303 N302 1.373 . S
C303 H317 0.931 . S
C304 O307 1.256 . S
C304 O308 1.255 . S
O305 Co288 2.021 . S
O305 C298 1.259 . S
O306 Co290 2.117 . S
O306 C298 1.258 . S
O307 Co290 2.020 . S
O307 C304 1.256 . S
O308 Co288 2.062 . S
O308 C304 1.255 . S
O309 C289 1.259 . S
O309 Co290 2.021 . S
H310 C301 0.930 . S
H311 C300 0.931 1_545 S
O312 Co288 2.117 . S
O312 C289 1.258 . S
O313 Co288 2.020 . S
O313 C315 1.256 . S
O314 Co290 2.062 . S
O314 C315 1.255 . S
C315 O313 1.256 . S
C315 O314 1.255 . S
H316 C295 0.931 . S
H317 C303 0.931 . S
Co318 N323 2.057 . S
Co318 O335 2.021 . S
Co318 O338 2.062 . S
Co318 O342 2.117 . S
Co318 O343 2.020 . S
C319 O339 1.259 . S
C319 O342 1.258 . S
Co320 N329 2.057 . S
Co320 O336 2.117 . S
Co320 O337 2.020 . S
Co320 O339 2.021 . S
Co320 O344 2.062 . S
C321 N323 1.316 . S
C321 N324 1.347 . S
C321 H326 0.931 . S
C322 N323 1.375 . S
C322 C325 1.350 . S
C322 H327 0.930 . S
N323 Co318 2.057 . S
N323 C321 1.316 . S
N323 C322 1.375 . S
N324 C321 1.347 . S
N324 C325 1.373 . S
C325 C322 1.350 . S
C325 N324 1.373 . S
C325 H346 0.931 . S
H326 C321 0.931 . S
H327 C322 0.930 . S
C328 O335 1.259 . S
C328 O336 1.258 . S
N329 Co320 2.057 . S
N329 C330 1.316 . S
N329 C331 1.375 . S
C330 N329 1.316 . S
C330 N332 1.347 . S
C330 H341 0.931 . S
C331 N329 1.375 . S
C331 C333 1.350 . S
C331 H340 0.930 . S
N332 C330 1.347 . S
N332 C333 1.373 . S
C333 C331 1.350 . S
C333 N332 1.373 . S
C333 H347 0.931 . S
C334 O337 1.256 . S
C334 O338 1.255 . S
O335 Co318 2.021 . S
O335 C328 1.259 . S
O336 Co320 2.117 . S
O336 C328 1.258 . S
O337 Co320 2.020 . S
O337 C334 1.256 . S
O338 Co318 2.062 . S
O338 C334 1.255 . S
O339 C319 1.259 . S
O339 Co320 2.021 . S
H340 C331 0.930 . S
H341 C330 0.931 . S
O342 Co318 2.117 . S
O342 C319 1.258 . S
O343 Co318 2.020 . S
O343 C345 1.256 . S
O344 Co320 2.062 . S
O344 C345 1.255 . S
C345 O343 1.256 . S
C345 O344 1.255 . S
H346 C325 0.931 . S
H347 C333 0.931 . S
Co348 N353 2.045 1_556 S
Co348 O365 2.021 . S
Co348 O368 2.062 . S
Co348 O372 2.117 . S
Co348 O373 2.020 . S
C349 O369 1.259 . S
C349 O372 1.258 . S
Co350 N359 2.057 . S
Co350 O366 2.117 . S
Co350 O367 2.020 . S
Co350 O369 2.021 . S
Co350 O374 2.062 . S
C351 N353 1.332 . S
C351 N354 1.347 . S
C351 H356 0.931 . S
C352 N353 1.374 1_556 S
C352 C355 1.350 1_556 S
C352 H357 0.930 . S
N353 Co348 2.045 1_554 S
N353 C351 1.332 . S
N353 C352 1.374 1_554 S
N354 C351 1.347 . S
N354 C355 1.373 . S
C355 C352 1.350 1_554 S
C355 N354 1.373 . S
C355 H376 0.931 . S
H356 C351 0.931 . S
H357 C352 0.930 . S
C358 O365 1.259 . S
C358 O366 1.258 . S
N359 Co350 2.057 . S
N359 C360 1.316 . S
N359 C361 1.375 . S
C360 N359 1.316 . S
C360 N362 1.347 . S
C360 H371 0.931 . S
C361 N359 1.375 . S
C361 C363 1.350 . S
C361 H370 0.930 . S
N362 C360 1.347 . S
N362 C363 1.373 . S
C363 C361 1.350 . S
C363 N362 1.373 . S
C363 H377 0.931 . S
C364 O367 1.256 . S
C364 O368 1.255 . S
O365 Co348 2.021 . S
O365 C358 1.259 . S
O366 Co350 2.117 . S
O366 C358 1.258 . S
O367 Co350 2.020 . S
O367 C364 1.256 . S
O368 Co348 2.062 . S
O368 C364 1.255 . S
O369 C349 1.259 . S
O369 Co350 2.021 . S
H370 C361 0.930 . S
H371 C360 0.931 . S
O372 Co348 2.117 . S
O372 C349 1.258 . S
O373 Co348 2.020 . S
O373 C375 1.256 . S
O374 Co350 2.062 . S
O374 C375 1.255 . S
C375 O373 1.256 . S
C375 O374 1.255 . S
H376 C355 0.931 . S
H377 C363 0.931 . S
Co378 N383 2.057 . S
Co378 O395 2.021 . S
Co378 O398 2.062 . S
Co378 O402 2.117 . S
Co378 O403 2.020 . S
C379 O399 1.259 . S
C379 O402 1.258 . S
Co380 N389 2.057 1_545 S
Co380 O396 2.117 . S
Co380 O397 2.020 . S
Co380 O399 2.021 . S
Co380 O404 2.062 . S
C381 N383 1.316 . S
C381 N384 1.347 . S
C381 H386 0.931 . S
C382 N383 1.375 . S
C382 C385 1.350 . S
C382 H387 0.930 . S
N383 Co378 2.057 . S
N383 C381 1.316 . S
N383 C382 1.375 . S
N384 C381 1.347 . S
N384 C385 1.373 . S
C385 C382 1.350 . S
C385 N384 1.373 . S
C385 H406 0.931 1_556 S
H386 C381 0.931 . S
H387 C382 0.930 . S
C388 O395 1.259 . S
C388 O396 1.258 . S
N389 Co380 2.057 1_565 S
N389 C390 1.316 . S
N389 C391 1.375 . S
C390 N389 1.316 . S
C390 N392 1.347 . S
C390 H401 0.931 . S
C391 N389 1.375 . S
C391 C393 1.350 . S
C391 H400 0.930 . S
N392 C390 1.347 . S
N392 C393 1.373 . S
C393 C391 1.350 . S
C393 N392 1.373 . S
C393 H407 0.931 . S
C394 O397 1.256 1_554 S
C394 O398 1.255 1_554 S
O395 Co378 2.021 . S
O395 C388 1.259 . S
O396 Co380 2.117 . S
O396 C388 1.258 . S
O397 Co380 2.020 . S
O397 C394 1.256 1_556 S
O398 Co378 2.062 . S
O398 C394 1.255 1_556 S
O399 C379 1.259 . S
O399 Co380 2.021 . S
H400 C391 0.930 . S
H401 C390 0.931 . S
O402 Co378 2.117 . S
O402 C379 1.258 . S
O403 Co378 2.020 . S
O403 C405 1.256 . S
O404 Co380 2.062 . S
O404 C405 1.255 . S
C405 O403 1.256 . S
C405 O404 1.255 . S
H406 C385 0.931 1_554 S
H407 C393 0.931 . S
H408 C416 0.950 . S
H409 C421 0.950 . S
H410 C418 0.950 . S
H411 C420 0.950 . S
H412 C422 0.928 1_565 S
H413 C424 0.950 . S
H414 C426 0.950 . S
H415 C427 0.950 . S
C416 H408 0.950 . S
C416 C417 1.386 . S
C416 C418 1.391 . S
C417 C416 1.386 . S
C417 C421 1.393 . S
C418 H410 0.950 . S
C418 C416 1.391 . S
C418 C419 1.400 . S
C419 C418 1.400 . S
C419 C420 1.398 . S
C419 C425 1.491 . S
C420 H411 0.950 . S
C420 C419 1.398 . S
C420 C421 1.391 . S
C421 H409 0.950 . S
C421 C417 1.393 . S
C421 C420 1.391 . S
C422 H412 0.928 1_545 S
C422 C423 1.386 . S
C422 C424 1.391 . S
C423 C422 1.386 . S
C423 C427 1.393 . S
C424 H413 0.950 . S
C424 C422 1.391 . S
C424 C425 1.400 . S
C425 C419 1.491 . S
C425 C424 1.400 . S
C425 C426 1.398 . S
C426 H414 0.950 . S
C426 C425 1.398 . S
C426 C427 1.391 . S
C427 H415 0.950 . S
C427 C423 1.393 . S
C427 C426 1.391 . S
H428 C436 0.950 . S
H429 C441 0.950 . S
H430 C438 0.950 . S
H431 C440 0.950 . S
H432 C442 0.950 . S
H433 C444 0.950 . S
H434 C446 0.950 . S
H435 C447 0.950 . S
C436 H428 0.950 . S
C436 C437 1.386 . S
C436 C438 1.391 . S
C437 C436 1.386 . S
C437 C441 1.393 1_455 S
C438 H430 0.950 . S
C438 C436 1.391 . S
C438 C439 1.400 . S
C439 C438 1.400 . S
C439 C440 1.398 1_455 S
C439 C445 1.491 . S
C440 H431 0.950 . S
C440 C439 1.398 1_655 S
C440 C441 1.391 . S
C441 H429 0.950 . S
C441 C437 1.393 1_655 S
C441 C440 1.391 . S
C442 H432 0.950 . S
C442 C443 1.386 1_655 S
C442 C444 1.391 . S
C443 C442 1.386 1_455 S
C443 C447 1.393 . S
C444 H433 0.950 . S
C444 C442 1.391 . S
C444 C445 1.400 1_655 S
C445 C439 1.491 . S
C445 C444 1.400 1_455 S
C445 C446 1.398 . S
C446 H434 0.950 . S
C446 C445 1.398 . S
C446 C447 1.391 . S
C447 H435 0.950 . S
C447 C443 1.393 . S
C447 C446 1.391 . S
H448 C456 0.950 . S
H449 C461 0.950 . S
H450 C458 0.950 . S
H451 C460 0.950 . S
H452 C462 0.950 . S
H453 C464 0.950 . S
H454 C466 0.950 . S
H455 C467 0.954 . S
C456 H448 0.950 . S
C456 C457 1.386 . S
C456 C458 1.391 . S
C457 C456 1.386 . S
C457 C461 1.393 . S
C458 H450 0.950 . S
C458 C456 1.391 . S
C458 C459 1.400 . S
C459 C458 1.400 . S
C459 C460 1.398 . S
C459 C465 1.491 . S
C460 H451 0.950 . S
C460 C459 1.398 . S
C460 C461 1.391 . S
C461 H449 0.950 . S
C461 C457 1.393 . S
C461 C460 1.391 . S
C462 H452 0.950 . S
C462 C463 1.386 . S
C462 C464 1.391 1_655 S
C463 C462 1.386 . S
C463 C467 1.396 . S
C464 H453 0.950 . S
C464 C462 1.391 1_455 S
C464 C465 1.400 . S
C465 C459 1.491 . S
C465 C464 1.400 . S
C465 C466 1.398 . S
C466 H454 0.950 . S
C466 C465 1.398 . S
C466 C467 1.385 1_455 S
C467 H455 0.954 . S
C467 C463 1.396 . S
C467 C466 1.385 1_655 S
H468 C476 0.950 . S
H469 C481 0.950 . S
H470 C478 0.950 . S
H471 C480 0.950 . S
H472 C482 0.950 . S
H473 C484 0.950 . S
H474 C486 0.950 . S
H475 C487 0.950 . S
C476 H468 0.950 . S
C476 C477 1.386 1_455 S
C476 C478 1.391 . S
C477 C476 1.386 1_655 S
C477 C481 1.393 . S
C478 H470 0.950 . S
C478 C476 1.391 . S
C478 C479 1.400 1_455 S
C479 C478 1.400 1_655 S
C479 C480 1.398 . S
C479 C485 1.491 . S
C480 H471 0.950 . S
C480 C479 1.398 . S
C480 C481 1.391 . S
C481 H469 0.950 . S
C481 C477 1.393 . S
C481 C480 1.391 . S
C482 H472 0.950 . S
C482 C483 1.386 . S
C482 C484 1.391 . S
C483 C482 1.386 . S
C483 C487 1.393 1_655 S
C484 H473 0.950 . S
C484 C482 1.391 . S
C484 C485 1.400 . S
C485 C479 1.491 . S
C485 C484 1.400 . S
C485 C486 1.398 1_655 S
C486 H474 0.950 . S
C486 C485 1.398 1_455 S
C486 C487 1.391 . S
C487 H475 0.950 . S
C487 C483 1.393 1_455 S
C487 C486 1.391 . S
H488 C496 0.950 . S
H489 C501 0.950 . S
H490 C498 0.950 . S
H491 C500 0.950 . S
H492 C502 0.950 . S
H493 C504 0.950 . S
H494 C506 0.950 . S
H495 C507 0.950 . S
C496 H488 0.950 . S
C496 C497 1.386 . S
C496 C498 1.391 . S
C497 C496 1.386 . S
C497 C501 1.393 . S
C498 H490 0.950 . S
C498 C496 1.391 . S
C498 C499 1.400 . S
C499 C498 1.400 . S
C499 C500 1.398 . S
C499 C505 1.491 . S
C500 H491 0.950 . S
C500 C499 1.398 . S
C500 C501 1.391 . S
C501 H489 0.950 . S
C501 C497 1.393 . S
C501 C500 1.391 . S
C502 H492 0.950 . S
C502 C503 1.386 . S
C502 C504 1.391 . S
C503 C502 1.386 . S
C503 C507 1.393 . S
C504 H493 0.950 . S
C504 C502 1.391 . S
C504 C505 1.400 . S
C505 C499 1.491 . S
C505 C504 1.400 . S
C505 C506 1.398 . S
C506 H494 0.950 . S
C506 C505 1.398 . S
C506 C507 1.391 . S
C507 H495 0.950 . S
C507 C503 1.393 . S
C507 C506 1.391 . S
H508 C516 0.950 . S
H509 C521 0.950 . S
H510 C518 0.950 . S
H511 C520 0.950 . S
H512 C522 0.950 . S
H513 C524 0.950 . S
H514 C526 0.950 . S
H515 C527 0.950 . S
C516 H508 0.950 . S
C516 C517 1.386 . S
C516 C518 1.391 . S
C517 C516 1.386 . S
C517 C521 1.393 . S
C518 H510 0.950 . S
C518 C516 1.391 . S
C518 C519 1.400 . S
C519 C518 1.400 . S
C519 C520 1.398 . S
C519 C525 1.491 . S
C520 H511 0.950 . S
C520 C519 1.398 . S
C520 C521 1.391 . S
C521 H509 0.950 . S
C521 C517 1.393 . S
C521 C520 1.391 . S
C522 H512 0.950 . S
C522 C523 1.386 . S
C522 C524 1.391 . S
C523 C522 1.386 . S
C523 C527 1.393 . S
C524 H513 0.950 . S
C524 C522 1.391 . S
C524 C525 1.400 . S
C525 C519 1.491 . S
C525 C524 1.400 . S
C525 C526 1.398 . S
C526 H514 0.950 . S
C526 C525 1.398 . S
C526 C527 1.391 . S
C527 H515 0.950 . S
C527 C523 1.393 . S
C527 C526 1.391 . S
H528 C536 0.950 . S
H529 C541 0.950 . S
H530 C538 0.950 . S
H531 C540 0.950 . S
H532 C542 0.950 . S
H533 C544 0.950 . S
H534 C546 0.950 . S
H535 C547 0.950 . S
C536 H528 0.950 . S
C536 C537 1.386 . S
C536 C538 1.391 . S
C537 C536 1.386 . S
C537 C541 1.393 1_565 S
C538 H530 0.950 . S
C538 C536 1.391 . S
C538 C539 1.400 . S
C539 C538 1.400 . S
C539 C540 1.398 1_565 S
C539 C545 1.491 . S
C540 H531 0.950 . S
C540 C539 1.398 1_545 S
C540 C541 1.391 . S
C541 H529 0.950 . S
C541 C537 1.393 1_545 S
C541 C540 1.391 . S
C542 H532 0.950 . S
C542 C543 1.386 1_545 S
C542 C544 1.391 . S
C543 C542 1.386 1_565 S
C543 C547 1.393 . S
C544 H533 0.950 . S
C544 C542 1.391 . S
C544 C545 1.400 1_545 S
C545 C539 1.491 . S
C545 C544 1.400 1_565 S
C545 C546 1.398 . S
C546 H534 0.950 . S
C546 C545 1.398 . S
C546 C547 1.391 . S
C547 H535 0.950 . S
C547 C543 1.393 . S
C547 C546 1.391 . S
H548 C556 0.950 . S
H549 C561 0.950 . S
H550 C558 0.950 . S
H551 C560 0.950 . S
H552 C562 0.950 . S
H553 C564 0.950 . S
H554 C566 0.950 . S
H555 C567 0.950 . S
C556 H548 0.950 . S
C556 C557 1.386 . S
C556 C558 1.391 . S
C557 C556 1.386 . S
C557 C561 1.393 . S
C558 H550 0.950 . S
C558 C556 1.391 . S
C558 C559 1.400 . S
C559 C558 1.400 . S
C559 C560 1.398 . S
C559 C565 1.491 . S
C560 H551 0.950 . S
C560 C559 1.398 . S
C560 C561 1.391 . S
C561 H549 0.950 . S
C561 C557 1.393 . S
C561 C560 1.391 . S
C562 H552 0.950 . S
C562 C563 1.386 . S
C562 C564 1.391 . S
C563 C562 1.386 . S
C563 C567 1.393 . S
C564 H553 0.950 . S
C564 C562 1.391 . S
C564 C565 1.400 . S
C565 C559 1.491 . S
C565 C564 1.400 . S
C565 C566 1.398 . S
C566 H554 0.950 . S
C566 C565 1.398 . S
C566 C567 1.391 . S
C567 H555 0.950 . S
C567 C563 1.393 . S
C567 C566 1.391 . S
H568 C576 0.950 . S
H569 C581 0.950 1_556 S
H570 C578 0.950 . S
H571 C580 0.950 1_556 S
H572 C582 0.950 1_556 S
H573 C584 0.950 1_556 S
H574 C586 0.950 . S
H575 C587 0.950 . S
C576 H568 0.950 . S
C576 C577 1.386 . S
C576 C578 1.391 . S
C577 C576 1.386 . S
C577 C581 1.393 . S
C578 H570 0.950 . S
C578 C576 1.391 . S
C578 C579 1.400 . S
C579 C578 1.400 . S
C579 C580 1.398 . S
C579 C585 1.491 . S
C580 H571 0.950 1_554 S
C580 C579 1.398 . S
C580 C581 1.391 . S
C581 H569 0.950 1_554 S
C581 C577 1.393 . S
C581 C580 1.391 . S
C582 H572 0.950 1_554 S
C582 C583 1.386 . S
C582 C584 1.391 . S
C583 C582 1.386 . S
C583 C587 1.393 . S
C584 H573 0.950 1_554 S
C584 C582 1.391 . S
C584 C585 1.400 . S
C585 C579 1.491 . S
C585 C584 1.400 . S
C585 C586 1.398 . S
C586 H574 0.950 . S
C586 C585 1.398 . S
C586 C587 1.391 . S
C587 H575 0.950 . S
C587 C583 1.393 . S
C587 C586 1.391 . S
H588 C596 0.950 . S
H589 C601 0.950 . S
H590 C598 0.950 . S
H591 C600 0.950 . S
H592 C602 0.950 . S
H593 C604 0.950 . S
H594 C606 0.950 . S
H595 C607 0.950 . S
C596 H588 0.950 . S
C596 C597 1.386 . S
C596 C598 1.391 . S
C597 C596 1.386 . S
C597 C601 1.393 . S
C598 H590 0.950 . S
C598 C596 1.391 . S
C598 C599 1.400 . S
C599 C598 1.400 . S
C599 C600 1.398 . S
C599 C605 1.491 . S
C600 H591 0.950 . S
C600 C599 1.398 . S
C600 C601 1.391 . S
C601 H589 0.950 . S
C601 C597 1.393 . S
C601 C600 1.391 . S
C602 H592 0.950 . S
C602 C603 1.386 . S
C602 C604 1.391 . S
C603 C602 1.386 . S
C603 C607 1.393 . S
C604 H593 0.950 . S
C604 C602 1.391 . S
C604 C605 1.400 . S
C605 C599 1.491 . S
C605 C604 1.400 . S
C605 C606 1.398 . S
C606 H594 0.950 . S
C606 C605 1.398 . S
C606 C607 1.391 . S
C607 H595 0.950 . S
C607 C603 1.393 . S
C607 C606 1.391 . S
H608 C616 0.950 . S
H609 C621 0.950 . S
H610 C618 0.950 . S
H611 C620 0.950 . S
H612 C622 0.950 . S
H613 C624 0.950 . S
H614 C626 0.950 . S
H615 C627 0.950 . S
C616 H608 0.950 . S
C616 C617 1.386 . S
C616 C618 1.391 . S
C617 C616 1.386 . S
C617 C621 1.393 . S
C618 H610 0.950 . S
C618 C616 1.391 . S
C618 C619 1.400 . S
C619 C618 1.400 . S
C619 C620 1.398 . S
C619 C625 1.491 . S
C620 H611 0.950 . S
C620 C619 1.398 . S
C620 C621 1.391 . S
C621 H609 0.950 . S
C621 C617 1.393 . S
C621 C620 1.391 . S
C622 H612 0.950 . S
C622 C623 1.386 . S
C622 C624 1.391 . S
C623 C622 1.386 . S
C623 C627 1.393 . S
C624 H613 0.950 . S
C624 C622 1.391 . S
C624 C625 1.400 . S
C625 C619 1.491 . S
C625 C624 1.400 . S
C625 C626 1.398 . S
C626 H614 0.950 . S
C626 C625 1.398 . S
C626 C627 1.391 . S
C627 H615 0.950 . S
C627 C623 1.393 . S
C627 C626 1.391 . S
H628 C636 0.950 . S
H629 C641 0.950 . S
H630 C638 0.950 . S
H631 C640 0.950 . S
H632 C642 0.950 . S
H633 C644 0.950 . S
H634 C646 0.950 . S
H635 C647 0.950 . S
C636 H628 0.950 . S
C636 C637 1.386 . S
C636 C638 1.391 . S
C637 C636 1.386 . S
C637 C641 1.393 . S
C638 H630 0.950 . S
C638 C636 1.391 . S
C638 C639 1.400 . S
C639 C638 1.400 . S
C639 C640 1.398 . S
C639 C645 1.491 . S
C640 H631 0.950 . S
C640 C639 1.398 . S
C640 C641 1.391 . S
C641 H629 0.950 . S
C641 C637 1.393 . S
C641 C640 1.391 . S
C642 H632 0.950 . S
C642 C643 1.386 . S
C642 C644 1.391 . S
C643 C642 1.386 . S
C643 C647 1.393 . S
C644 H633 0.950 . S
C644 C642 1.391 . S
C644 C645 1.400 . S
C645 C639 1.491 . S
C645 C644 1.400 . S
C645 C646 1.398 . S
C646 H634 0.950 . S
C646 C645 1.398 . S
C646 C647 1.391 . S
C647 H635 0.950 . S
C647 C643 1.393 . S
C647 C646 1.391 . S
H648 C656 0.950 . S
H649 C661 0.950 . S
H650 C658 0.950 . S
H651 C660 0.950 . S
H652 C662 0.950 . S
H653 C664 0.950 . S
H654 C666 0.950 . S
H655 C667 0.950 . S
C656 H648 0.950 . S
C656 C657 1.386 . S
C656 C658 1.391 . S
C657 C656 1.386 . S
C657 C661 1.393 . S
C658 H650 0.950 . S
C658 C656 1.391 . S
C658 C659 1.400 . S
C659 C658 1.400 . S
C659 C660 1.398 . S
C659 C665 1.491 . S
C660 H651 0.950 . S
C660 C659 1.398 . S
C660 C661 1.391 . S
C661 H649 0.950 . S
C661 C657 1.393 . S
C661 C660 1.391 . S
C662 H652 0.950 . S
C662 C663 1.386 . S
C662 C664 1.391 . S
C663 C662 1.386 . S
C663 C667 1.393 . S
C664 H653 0.950 . S
C664 C662 1.391 . S
C664 C665 1.400 . S
C665 C659 1.491 . S
C665 C664 1.400 . S
C665 C666 1.398 . S
C666 H654 0.950 . S
C666 C665 1.398 . S
C666 C667 1.391 . S
C667 H655 0.950 . S
C667 C663 1.393 . S
C667 C666 1.391 . S
H668 C676 0.950 . S
H669 C681 0.950 . S
H670 C678 0.950 . S
H671 C680 0.950 . S
H672 C682 0.950 . S
H673 C684 0.950 . S
H674 C686 0.950 . S
H675 C687 0.950 . S
C676 H668 0.950 . S
C676 C677 1.386 . S
C676 C678 1.391 . S
C677 C676 1.386 . S
C677 C681 1.393 . S
C678 H670 0.950 . S
C678 C676 1.391 . S
C678 C679 1.400 . S
C679 C678 1.400 . S
C679 C680 1.398 . S
C679 C685 1.491 . S
C680 H671 0.950 . S
C680 C679 1.398 . S
C680 C681 1.391 . S
C681 H669 0.950 . S
C681 C677 1.393 . S
C681 C680 1.391 . S
C682 H672 0.950 . S
C682 C683 1.386 . S
C682 C684 1.391 . S
C683 C682 1.386 . S
C683 C687 1.393 . S
C684 H673 0.950 . S
C684 C682 1.391 . S
C684 C685 1.400 . S
C685 C679 1.491 . S
C685 C684 1.400 . S
C685 C686 1.398 . S
C686 H674 0.950 . S
C686 C685 1.398 . S
C686 C687 1.391 . S
C687 H675 0.950 . S
C687 C683 1.393 . S
C687 C686 1.391 . S
H688 C696 0.950 . S
H689 C701 0.950 . S
H690 C698 0.950 . S
H691 C700 0.950 . S
H692 C702 0.950 . S
H693 C704 0.950 . S
H694 C706 0.950 . S
H695 C707 0.950 . S
C696 H688 0.950 . S
C696 C697 1.386 . S
C696 C698 1.391 . S
C697 C696 1.386 . S
C697 C701 1.393 . S
C698 H690 0.950 . S
C698 C696 1.391 . S
C698 C699 1.400 . S
C699 C698 1.400 . S
C699 C700 1.398 . S
C699 C705 1.491 . S
C700 H691 0.950 . S
C700 C699 1.398 . S
C700 C701 1.391 . S
C701 H689 0.950 . S
C701 C697 1.393 . S
C701 C700 1.391 . S
C702 H692 0.950 . S
C702 C703 1.386 . S
C702 C704 1.391 . S
C703 C702 1.386 . S
C703 C707 1.393 . S
C704 H693 0.950 . S
C704 C702 1.391 . S
C704 C705 1.400 . S
C705 C699 1.491 . S
C705 C704 1.400 . S
C705 C706 1.398 . S
C706 H694 0.950 . S
C706 C705 1.398 . S
C706 C707 1.391 . S
C707 H695 0.950 . S
C707 C703 1.393 . S
C707 C706 1.391 . S
H708 C716 0.950 . S
H709 C721 0.950 . S
H710 C718 0.950 . S
H711 C720 0.950 . S
H712 C722 0.950 . S
H713 C724 0.950 . S
H714 C726 0.950 . S
H715 C727 0.950 . S
C716 H708 0.950 . S
C716 C717 1.386 . S
C716 C718 1.391 . S
C717 C716 1.386 . S
C717 C721 1.393 . S
C718 H710 0.950 . S
C718 C716 1.391 . S
C718 C719 1.400 . S
C719 C718 1.400 . S
C719 C720 1.398 . S
C719 C725 1.491 . S
C720 H711 0.950 . S
C720 C719 1.398 . S
C720 C721 1.391 . S
C721 H709 0.950 . S
C721 C717 1.393 . S
C721 C720 1.391 . S
C722 H712 0.950 . S
C722 C723 1.386 . S
C722 C724 1.391 . S
C723 C722 1.386 . S
C723 C727 1.393 . S
C724 H713 0.950 . S
C724 C722 1.391 . S
C724 C725 1.400 . S
C725 C719 1.491 . S
C725 C724 1.400 . S
C725 C726 1.398 . S
C726 H714 0.950 . S
C726 C725 1.398 . S
C726 C727 1.391 . S
C727 H715 0.950 . S
C727 C723 1.393 . S
C727 C726 1.391 . S
H728 C736 0.950 . S
H729 C741 0.950 . S
H730 C738 0.950 . S
H731 C740 0.950 . S
H732 C742 0.950 . S
H733 C744 0.950 . S
H734 C746 0.950 . S
H735 C747 0.950 . S
C736 H728 0.950 . S
C736 C737 1.386 . S
C736 C738 1.391 . S
C737 C736 1.386 . S
C737 C741 1.393 . S
C738 H730 0.950 . S
C738 C736 1.391 . S
C738 C739 1.400 . S
C739 C738 1.400 . S
C739 C740 1.398 . S
C739 C745 1.491 . S
C740 H731 0.950 . S
C740 C739 1.398 . S
C740 C741 1.391 . S
C741 H729 0.950 . S
C741 C737 1.393 . S
C741 C740 1.391 . S
C742 H732 0.950 . S
C742 C743 1.386 . S
C742 C744 1.391 . S
C743 C742 1.386 . S
C743 C747 1.393 . S
C744 H733 0.950 . S
C744 C742 1.391 . S
C744 C745 1.400 . S
C745 C739 1.491 . S
C745 C744 1.400 . S
C745 C746 1.398 . S
C746 H734 0.950 . S
C746 C745 1.398 . S
C746 C747 1.391 . S
C747 H735 0.950 . S
C747 C743 1.393 . S
C747 C746 1.391 . S
H748 C756 0.950 . S
H749 C761 0.950 . S
H750 C758 0.950 . S
H751 C760 0.950 . S
H752 C762 0.950 . S
H753 C764 0.950 . S
H754 C766 0.950 . S
H755 C767 0.950 . S
C756 H748 0.950 . S
C756 C757 1.386 . S
C756 C758 1.391 . S
C757 C756 1.386 . S
C757 C761 1.393 1_565 S
C758 H750 0.950 . S
C758 C756 1.391 . S
C758 C759 1.400 . S
C759 C758 1.400 . S
C759 C760 1.398 1_565 S
C759 C765 1.491 . S
C760 H751 0.950 . S
C760 C759 1.398 1_545 S
C760 C761 1.391 . S
C761 H749 0.950 . S
C761 C757 1.393 1_545 S
C761 C760 1.391 . S
C762 H752 0.950 . S
C762 C763 1.386 1_545 S
C762 C764 1.391 . S
C763 C762 1.386 1_565 S
C763 C767 1.393 . S
C764 H753 0.950 . S
C764 C762 1.391 . S
C764 C765 1.400 1_545 S
C765 C759 1.491 . S
C765 C764 1.400 1_565 S
C765 C766 1.398 . S
C766 H754 0.950 . S
C766 C765 1.398 . S
C766 C767 1.391 . S
C767 H755 0.950 . S
C767 C763 1.393 . S
C767 C766 1.391 . S
H768 C776 0.950 . S
H769 C781 0.950 . S
H770 C778 0.950 . S
H771 C780 0.950 . S
H772 C782 0.950 . S
H773 C784 0.950 . S
H774 C786 0.950 . S
H775 C787 0.950 . S
C776 H768 0.950 . S
C776 C777 1.386 . S
C776 C778 1.391 . S
C777 C776 1.386 . S
C777 C781 1.393 . S
C778 H770 0.950 . S
C778 C776 1.391 . S
C778 C779 1.400 . S
C779 C778 1.400 . S
C779 C780 1.398 . S
C779 C785 1.491 . S
C780 H771 0.950 . S
C780 C779 1.398 . S
C780 C781 1.391 . S
C781 H769 0.950 . S
C781 C777 1.393 . S
C781 C780 1.391 . S
C782 H772 0.950 . S
C782 C783 1.386 . S
C782 C784 1.391 . S
C783 C782 1.386 . S
C783 C787 1.393 . S
C784 H773 0.950 . S
C784 C782 1.391 . S
C784 C785 1.400 . S
C785 C779 1.491 . S
C785 C784 1.400 . S
C785 C786 1.398 . S
C786 H774 0.950 . S
C786 C785 1.398 . S
C786 C787 1.391 . S
C787 H775 0.950 . S
C787 C783 1.393 . S
C787 C786 1.391 . S
H788 C796 0.950 . S
H789 C801 0.950 . S
H790 C798 0.950 . S
H791 C800 0.950 . S
H792 C802 0.937 1_565 S
H793 C804 0.949 1_565 S
H794 C806 0.950 . S
H795 C807 0.950 . S
C796 H788 0.950 . S
C796 C797 1.386 . S
C796 C798 1.391 . S
C797 C796 1.386 . S
C797 C801 1.393 . S
C798 H790 0.950 . S
C798 C796 1.391 . S
C798 C799 1.400 . S
C799 C798 1.400 . S
C799 C800 1.398 . S
C799 C805 1.491 . S
C800 H791 0.950 . S
C800 C799 1.398 . S
C800 C801 1.391 . S
C801 H789 0.950 . S
C801 C797 1.393 . S
C801 C800 1.391 . S
C802 H792 0.937 1_545 S
C802 C803 1.386 . S
C802 C804 1.391 . S
C803 C802 1.386 . S
C803 C807 1.393 . S
C804 H793 0.949 1_545 S
C804 C802 1.391 . S
C804 C805 1.400 . S
C805 C799 1.491 . S
C805 C804 1.400 . S
C805 C806 1.398 . S
C806 H794 0.950 . S
C806 C805 1.398 . S
C806 C807 1.391 . S
C807 H795 0.950 . S
C807 C803 1.393 . S
C807 C806 1.391 . S
H808 C816 0.950 . S
H809 C821 0.950 . S
H810 C818 0.950 . S
H811 C820 0.950 . S
H812 C822 0.950 . S
H813 C824 0.950 . S
H814 C826 0.950 . S
H815 C827 0.950 . S
C816 H808 0.950 . S
C816 C817 1.386 . S
C816 C818 1.391 . S
C817 C816 1.386 . S
C817 C821 1.393 . S
C818 H810 0.950 . S
C818 C816 1.391 . S
C818 C819 1.400 . S
C819 C818 1.400 . S
C819 C820 1.398 . S
C819 C825 1.491 . S
C820 H811 0.950 . S
C820 C819 1.398 . S
C820 C821 1.391 . S
C821 H809 0.950 . S
C821 C817 1.393 . S
C821 C820 1.391 . S
C822 H812 0.950 . S
C822 C823 1.386 . S
C822 C824 1.391 . S
C823 C822 1.386 . S
C823 C827 1.393 . S
C824 H813 0.950 . S
C824 C822 1.391 . S
C824 C825 1.400 . S
C825 C819 1.491 . S
C825 C824 1.400 . S
C825 C826 1.398 . S
C826 H814 0.950 . S
C826 C825 1.398 . S
C826 C827 1.391 . S
C827 H815 0.950 . S
C827 C823 1.393 . S
C827 C826 1.391 . S
H828 C836 0.950 . S
H829 C841 0.950 . S
H830 C838 0.950 . S
H831 C840 0.950 . S
H832 C842 0.950 . S
H833 C844 0.950 . S
H834 C846 0.933 1_554 S
H835 C847 0.950 1_554 S
C836 H828 0.950 . S
C836 C837 1.386 . S
C836 C838 1.391 . S
C837 C836 1.386 . S
C837 C841 1.393 1_554 S
C838 H830 0.950 . S
C838 C836 1.391 . S
C838 C839 1.400 1_554 S
C839 C838 1.400 1_556 S
C839 C840 1.398 . S
C839 C845 1.491 . S
C840 H831 0.950 . S
C840 C839 1.398 . S
C840 C841 1.391 . S
C841 H829 0.950 . S
C841 C837 1.393 1_556 S
C841 C840 1.391 . S
C842 H832 0.950 . S
C842 C843 1.386 . S
C842 C844 1.391 . S
C843 C842 1.386 . S
C843 C847 1.393 . S
C844 H833 0.950 . S
C844 C842 1.391 . S
C844 C845 1.400 . S
C845 C839 1.491 . S
C845 C844 1.400 . S
C845 C846 1.410 . S
C846 H834 0.933 1_556 S
C846 C845 1.410 . S
C846 C847 1.397 . S
C847 H835 0.950 1_556 S
C847 C843 1.393 . S
C847 C846 1.397 . S
H848 C856 0.950 . S
H849 C861 0.950 . S
H850 C858 0.950 . S
H851 C860 0.950 . S
H852 C862 0.950 . S
H853 C864 0.959 . S
H854 C866 0.950 . S
H855 C867 0.950 . S
C856 H848 0.950 . S
C856 C857 1.386 1_556 S
C856 C858 1.391 . S
C857 C856 1.386 1_554 S
C857 C861 1.393 . S
C858 H850 0.950 . S
C858 C856 1.391 . S
C858 C859 1.400 . S
C859 C858 1.400 . S
C859 C860 1.398 1_556 S
C859 C865 1.491 . S
C860 H851 0.950 . S
C860 C859 1.398 1_554 S
C860 C861 1.391 . S
C861 H849 0.950 . S
C861 C857 1.393 . S
C861 C860 1.391 . S
C862 H852 0.950 . S
C862 C863 1.386 . S
C862 C864 1.391 . S
C863 C862 1.386 . S
C863 C867 1.393 . S
C864 H853 0.959 . S
C864 C862 1.391 . S
C864 C865 1.400 . S
C865 C859 1.491 . S
C865 C864 1.400 . S
C865 C866 1.398 . S
C866 H854 0.950 . S
C866 C865 1.398 . S
C866 C867 1.391 . S
C867 H855 0.950 . S
C867 C863 1.393 . S
C867 C866 1.391 . S
H868 C876 0.950 1_556 S
H869 C881 0.950 . S
H870 C878 0.950 1_556 S
H871 C880 0.950 . S
H872 C882 0.950 . S
H873 C884 0.950 . S
H874 C886 0.950 1_556 S
H875 C887 0.950 1_556 S
C876 H868 0.950 1_554 S
C876 C877 1.386 . S
C876 C878 1.391 . S
C877 C876 1.386 . S
C877 C881 1.393 . S
C878 H870 0.950 1_554 S
C878 C876 1.391 . S
C878 C879 1.400 . S
C879 C878 1.400 . S
C879 C880 1.398 . S
C879 C885 1.491 . S
C880 H871 0.950 . S
C880 C879 1.398 . S
C880 C881 1.391 . S
C881 H869 0.950 . S
C881 C877 1.393 . S
C881 C880 1.391 . S
C882 H872 0.950 . S
C882 C883 1.386 . S
C882 C884 1.391 . S
C883 C882 1.386 . S
C883 C887 1.393 . S
C884 H873 0.950 . S
C884 C882 1.391 . S
C884 C885 1.400 . S
C885 C879 1.491 . S
C885 C884 1.400 . S
C885 C886 1.398 . S
C886 H874 0.950 1_554 S
C886 C885 1.398 . S
C886 C887 1.391 . S
C887 H875 0.950 1_554 S
C887 C883 1.393 . S
C887 C886 1.391 . S
H888 C896 0.950 . S
H889 C901 0.950 . S
H890 C898 0.950 . S
H891 C900 0.950 . S
H892 C902 0.951 1_655 S
H893 C904 0.950 . S
H894 C906 0.950 . S
H895 C907 0.950 . S
C896 H888 0.950 . S
C896 C897 1.386 . S
C896 C898 1.391 . S
C897 C896 1.386 . S
C897 C901 1.393 . S
C898 H890 0.950 . S
C898 C896 1.391 . S
C898 C899 1.400 . S
C899 C898 1.400 . S
C899 C900 1.398 . S
C899 C905 1.491 . S
C900 H891 0.950 . S
C900 C899 1.398 . S
C900 C901 1.391 . S
C901 H889 0.950 . S
C901 C897 1.393 . S
C901 C900 1.391 . S
C902 H892 0.951 1_455 S
C902 C903 1.386 . S
C902 C904 1.391 . S
C903 C902 1.386 . S
C903 C907 1.393 . S
C904 H893 0.950 . S
C904 C902 1.391 . S
C904 C905 1.400 . S
C905 C899 1.491 . S
C905 C904 1.400 . S
C905 C906 1.398 . S
C906 H894 0.950 . S
C906 C905 1.398 . S
C906 C907 1.391 . S
C907 H895 0.950 . S
C907 C903 1.393 . S
C907 C906 1.391 . S
H908 C916 0.950 1_655 S
H909 C921 0.950 . S
H910 C918 0.944 1_655 S
H911 C920 0.950 . S
H912 C922 0.950 . S
H913 C924 0.950 . S
H914 C926 0.950 . S
H915 C927 0.950 . S
C916 H908 0.950 1_455 S
C916 C917 1.386 . S
C916 C918 1.393 . S
C917 C916 1.386 . S
C917 C921 1.393 . S
C918 H910 0.944 1_455 S
C918 C916 1.393 . S
C918 C919 1.404 . S
C919 C918 1.404 . S
C919 C920 1.398 . S
C919 C925 1.491 . S
C920 H911 0.950 . S
C920 C919 1.398 . S
C920 C921 1.391 . S
C921 H909 0.950 . S
C921 C917 1.393 . S
C921 C920 1.391 . S
C922 H912 0.950 . S
C922 C923 1.384 . S
C922 C924 1.391 . S
C923 C922 1.384 . S
C923 C927 1.394 1_455 S
C924 H913 0.950 . S
C924 C922 1.391 . S
C924 C925 1.400 . S
C925 C919 1.491 . S
C925 C924 1.400 . S
C925 C926 1.398 1_455 S
C926 H914 0.950 . S
C926 C925 1.398 1_655 S
C926 C927 1.391 . S
C927 H915 0.950 . S
C927 C923 1.394 1_655 S
C927 C926 1.391 . S
H928 C936 0.950 . S
H929 C941 0.950 . S
H930 C938 0.950 . S
H931 C940 0.950 . S
H932 C942 0.950 . S
H933 C944 0.950 . S
H934 C946 0.950 . S
H935 C947 0.950 . S
C936 H928 0.950 . S
C936 C937 1.386 . S
C936 C938 1.391 . S
C937 C936 1.386 . S
C937 C941 1.393 . S
C938 H930 0.950 . S
C938 C936 1.391 . S
C938 C939 1.400 . S
C939 C938 1.400 . S
C939 C940 1.398 . S
C939 C945 1.491 . S
C940 H931 0.950 . S
C940 C939 1.398 . S
C940 C941 1.391 . S
C941 H929 0.950 . S
C941 C937 1.393 . S
C941 C940 1.391 . S
C942 H932 0.950 . S
C942 C943 1.386 . S
C942 C944 1.391 . S
C943 C942 1.386 . S
C943 C947 1.393 . S
C944 H933 0.950 . S
C944 C942 1.391 . S
C944 C945 1.400 . S
C945 C939 1.491 . S
C945 C944 1.400 . S
C945 C946 1.398 . S
C946 H934 0.950 . S
C946 C945 1.398 . S
C946 C947 1.391 . S
C947 H935 0.950 . S
C947 C943 1.393 . S
C947 C946 1.391 . S
H948 C956 0.950 . S
H949 C961 0.950 . S
H950 C958 0.950 . S
H951 C960 0.950 . S
H952 C962 0.950 . S
H953 C964 0.950 . S
H954 C966 0.950 . S
H955 C967 0.950 . S
C956 H948 0.950 . S
C956 C957 1.398 . S
C956 C958 1.391 . S
C957 C956 1.398 . S
C957 C961 1.381 1_655 S
C958 H950 0.950 . S
C958 C956 1.391 . S
C958 C959 1.400 . S
C959 C958 1.400 . S
C959 C960 1.398 1_655 S
C959 C965 1.491 . S
C960 H951 0.950 . S
C960 C959 1.398 1_455 S
C960 C961 1.391 . S
C961 H949 0.950 . S
C961 C957 1.381 1_455 S
C961 C960 1.391 . S
C962 H952 0.950 . S
C962 C963 1.386 1_455 S
C962 C964 1.391 . S
C963 C962 1.386 1_655 S
C963 C967 1.393 . S
C964 H953 0.950 . S
C964 C962 1.391 . S
C964 C965 1.400 1_455 S
C965 C959 1.491 . S
C965 C964 1.400 1_655 S
C965 C966 1.398 . S
C966 H954 0.950 . S
C966 C965 1.398 . S
C966 C967 1.391 . S
C967 H955 0.950 . S
C967 C963 1.393 . S
C967 C966 1.391 . S
H968 C976 0.950 . S
H969 C981 0.950 . S
H970 C978 0.950 . S
H971 C980 0.950 . S
H972 C982 0.976 . S
H973 C984 0.950 . S
H974 C986 0.950 . S
H975 C987 0.950 . S
C976 H968 0.950 . S
C976 C977 1.386 . S
C976 C978 1.391 . S
C977 C976 1.386 . S
C977 C981 1.393 1_545 S
C978 H970 0.950 . S
C978 C976 1.391 . S
C978 C979 1.400 . S
C979 C978 1.400 . S
C979 C980 1.398 1_545 S
C979 C985 1.491 . S
C980 H971 0.950 . S
C980 C979 1.398 1_565 S
C980 C981 1.391 . S
C981 H969 0.950 . S
C981 C977 1.393 1_565 S
C981 C980 1.391 . S
C982 H972 0.976 . S
C982 C983 1.358 1_565 S
C982 C984 1.394 . S
C983 C982 1.358 1_545 S
C983 C987 1.393 . S
C984 H973 0.950 . S
C984 C982 1.394 . S
C984 C985 1.400 1_565 S
C985 C979 1.491 . S
C985 C984 1.400 1_545 S
C985 C986 1.398 . S
C986 H974 0.950 . S
C986 C985 1.398 . S
C986 C987 1.391 . S
C987 H975 0.950 . S
C987 C983 1.393 . S
C987 C986 1.391 . S
H988 C996 0.950 . S
H989 C1001 0.950 . S
H990 C998 0.950 . S
H991 C1000 0.950 . S
H992 C1002 0.950 . S
H993 C1004 0.950 . S
H994 C1006 0.950 . S
H995 C1007 0.950 . S
C996 H988 0.950 . S
C996 C997 1.386 . S
C996 C998 1.391 . S
C997 C996 1.386 . S
C997 C1001 1.393 . S
C998 H990 0.950 . S
C998 C996 1.391 . S
C998 C999 1.400 . S
C999 C998 1.400 . S
C999 C1000 1.398 . S
C999 C1005 1.491 . S
C1000 H991 0.950 . S
C1000 C999 1.398 . S
C1000 C1001 1.391 . S
C1001 H989 0.950 . S
C1001 C997 1.393 . S
C1001 C1000 1.391 . S
C1002 H992 0.950 . S
C1002 C1003 1.386 . S
C1002 C1004 1.391 . S
C1003 C1002 1.386 . S
C1003 C1007 1.393 . S
C1004 H993 0.950 . S
C1004 C1002 1.391 . S
C1004 C1005 1.400 . S
C1005 C999 1.491 . S
C1005 C1004 1.400 . S
C1005 C1006 1.398 . S
C1006 H994 0.950 . S
C1006 C1005 1.398 . S
C1006 C1007 1.391 . S
C1007 H995 0.950 . S
C1007 C1003 1.393 . S
C1007 C1006 1.391 . S
H1008 C1016 0.950 . S
H1009 C1021 0.950 . S
H1010 C1018 0.950 . S
H1011 C1020 0.950 . S
H1012 C1022 0.950 . S
H1013 C1024 0.950 . S
H1014 C1026 0.950 . S
H1015 C1027 0.950 . S
C1016 H1008 0.950 . S
C1016 C1017 1.386 . S
C1016 C1018 1.391 . S
C1017 C1016 1.386 . S
C1017 C1021 1.393 . S
C1018 H1010 0.950 . S
C1018 C1016 1.391 . S
C1018 C1019 1.400 . S
C1019 C1018 1.400 . S
C1019 C1020 1.398 . S
C1019 C1025 1.491 . S
C1020 H1011 0.950 . S
C1020 C1019 1.398 . S
C1020 C1021 1.391 . S
C1021 H1009 0.950 . S
C1021 C1017 1.393 . S
C1021 C1020 1.391 . S
C1022 H1012 0.950 . S
C1022 C1023 1.386 . S
C1022 C1024 1.391 . S
C1023 C1022 1.386 . S
C1023 C1027 1.393 . S
C1024 H1013 0.950 . S
C1024 C1022 1.391 . S
C1024 C1025 1.400 . S
C1025 C1019 1.491 . S
C1025 C1024 1.400 . S
C1025 C1026 1.398 . S
C1026 H1014 0.950 . S
C1026 C1025 1.398 . S
C1026 C1027 1.391 . S
C1027 H1015 0.950 . S
C1027 C1023 1.393 . S
C1027 C1026 1.391 . S
H1028 C1036 0.950 . S
H1029 C1041 0.950 . S
H1030 C1038 0.950 . S
H1031 C1040 0.950 . S
H1032 C1042 0.950 . S
H1033 C1044 0.950 . S
H1034 C1046 0.950 . S
H1035 C1047 0.950 . S
C1036 H1028 0.950 . S
C1036 C1037 1.386 . S
C1036 C1038 1.391 . S
C1037 C1036 1.386 . S
C1037 C1041 1.393 . S
C1038 H1030 0.950 . S
C1038 C1036 1.391 . S
C1038 C1039 1.400 . S
C1039 C1038 1.400 . S
C1039 C1040 1.398 . S
C1039 C1045 1.491 . S
C1040 H1031 0.950 . S
C1040 C1039 1.398 . S
C1040 C1041 1.391 . S
C1041 H1029 0.950 . S
C1041 C1037 1.393 . S
C1041 C1040 1.391 . S
C1042 H1032 0.950 . S
C1042 C1043 1.386 . S
C1042 C1044 1.391 . S
C1043 C1042 1.386 . S
C1043 C1047 1.393 . S
C1044 H1033 0.950 . S
C1044 C1042 1.391 . S
C1044 C1045 1.400 . S
C1045 C1039 1.491 . S
C1045 C1044 1.400 . S
C1045 C1046 1.398 . S
C1046 H1034 0.950 . S
C1046 C1045 1.398 . S
C1046 C1047 1.391 . S
C1047 H1035 0.950 . S
C1047 C1043 1.393 . S
C1047 C1046 1.391 . S
H1048 C1056 0.950 . S
H1049 C1061 0.950 1_556 S
H1050 C1058 0.950 . S
H1051 C1060 0.950 1_556 S
H1052 C1062 0.950 . S
H1053 C1064 0.964 . S
H1054 C1066 0.950 . S
H1055 C1067 0.950 . S
C1056 H1048 0.950 . S
C1056 C1057 1.386 . S
C1056 C1058 1.391 . S
C1057 C1056 1.386 . S
C1057 C1061 1.393 . S
C1058 H1050 0.950 . S
C1058 C1056 1.391 . S
C1058 C1059 1.400 . S
C1059 C1058 1.400 . S
C1059 C1060 1.398 . S
C1059 C1065 1.491 . S
C1060 H1051 0.950 1_554 S
C1060 C1059 1.398 . S
C1060 C1061 1.391 . S
C1061 H1049 0.950 1_554 S
C1061 C1057 1.393 . S
C1061 C1060 1.391 . S
C1062 H1052 0.950 . S
C1062 C1063 1.386 1_556 S
C1062 C1064 1.393 . S
C1063 C1062 1.386 1_554 S
C1063 C1067 1.393 . S
C1064 H1053 0.964 . S
C1064 C1062 1.393 . S
C1064 C1065 1.385 1_556 S
C1065 C1059 1.491 . S
C1065 C1064 1.385 1_554 S
C1065 C1066 1.398 . S
C1066 H1054 0.950 . S
C1066 C1065 1.398 . S
C1066 C1067 1.391 . S
C1067 H1055 0.950 . S
C1067 C1063 1.393 . S
C1067 C1066 1.391 . S
H1068 C1076 0.950 . S
H1069 C1081 0.950 . S
H1070 C1078 0.950 . S
H1071 C1080 0.950 . S
H1072 C1082 0.950 . S
H1073 C1084 0.950 . S
H1074 C1086 0.950 . S
H1075 C1087 0.950 . S
C1076 H1068 0.950 . S
C1076 C1077 1.386 . S
C1076 C1078 1.391 . S
C1077 C1076 1.386 . S
C1077 C1081 1.393 . S
C1078 H1070 0.950 . S
C1078 C1076 1.391 . S
C1078 C1079 1.400 . S
C1079 C1078 1.400 . S
C1079 C1080 1.398 . S
C1079 C1085 1.491 . S
C1080 H1071 0.950 . S
C1080 C1079 1.398 . S
C1080 C1081 1.391 . S
C1081 H1069 0.950 . S
C1081 C1077 1.393 . S
C1081 C1080 1.391 . S
C1082 H1072 0.950 . S
C1082 C1083 1.386 . S
C1082 C1084 1.391 . S
C1083 C1082 1.386 . S
C1083 C1087 1.393 . S
C1084 H1073 0.950 . S
C1084 C1082 1.391 . S
C1084 C1085 1.400 . S
C1085 C1079 1.491 . S
C1085 C1084 1.400 . S
C1085 C1086 1.398 . S
C1086 H1074 0.950 . S
C1086 C1085 1.398 . S
C1086 C1087 1.391 . S
C1087 H1075 0.950 . S
C1087 C1083 1.393 . S
C1087 C1086 1.391 . S
H1088 C1096 0.950 . S
H1089 C1101 0.950 . S
H1090 C1098 0.950 . S
H1091 C1100 0.950 . S
H1092 C1102 0.950 . S
H1093 C1104 0.950 . S
H1094 C1106 0.950 . S
H1095 C1107 0.950 . S
C1096 H1088 0.950 . S
C1096 C1097 1.386 . S
C1096 C1098 1.391 . S
C1097 C1096 1.386 . S
C1097 C1101 1.393 . S
C1098 H1090 0.950 . S
C1098 C1096 1.391 . S
C1098 C1099 1.400 . S
C1099 C1098 1.400 . S
C1099 C1100 1.398 . S
C1099 C1105 1.491 . S
C1100 H1091 0.950 . S
C1100 C1099 1.398 . S
C1100 C1101 1.391 . S
C1101 H1089 0.950 . S
C1101 C1097 1.393 . S
C1101 C1100 1.391 . S
C1102 H1092 0.950 . S
C1102 C1103 1.386 . S
C1102 C1104 1.391 . S
C1103 C1102 1.386 . S
C1103 C1107 1.393 . S
C1104 H1093 0.950 . S
C1104 C1102 1.391 . S
C1104 C1105 1.400 . S
C1105 C1099 1.491 . S
C1105 C1104 1.400 . S
C1105 C1106 1.398 . S
C1106 H1094 0.950 . S
C1106 C1105 1.398 . S
C1106 C1107 1.391 . S
C1107 H1095 0.950 . S
C1107 C1103 1.393 . S
C1107 C1106 1.391 . S
H1108 C1116 0.950 . S
H1109 C1121 0.950 . S
H1110 C1118 0.950 . S
H1111 C1120 0.950 . S
H1112 C1122 0.950 . S
H1113 C1124 0.950 . S
H1114 C1126 0.950 . S
H1115 C1127 0.950 . S
C1116 H1108 0.950 . S
C1116 C1117 1.386 . S
C1116 C1118 1.391 . S
C1117 C1116 1.386 . S
C1117 C1121 1.393 . S
C1118 H1110 0.950 . S
C1118 C1116 1.391 . S
C1118 C1119 1.400 . S
C1119 C1118 1.400 . S
C1119 C1120 1.398 . S
C1119 C1125 1.491 . S
C1120 H1111 0.950 . S
C1120 C1119 1.398 . S
C1120 C1121 1.391 . S
C1121 H1109 0.950 . S
C1121 C1117 1.393 . S
C1121 C1120 1.391 . S
C1122 H1112 0.950 . S
C1122 C1123 1.386 . S
C1122 C1124 1.391 . S
C1123 C1122 1.386 . S
C1123 C1127 1.393 . S
C1124 H1113 0.950 . S
C1124 C1122 1.391 . S
C1124 C1125 1.400 . S
C1125 C1119 1.491 . S
C1125 C1124 1.400 . S
C1125 C1126 1.398 . S
C1126 H1114 0.950 . S
C1126 C1125 1.398 . S
C1126 C1127 1.391 . S
C1127 H1115 0.950 . S
C1127 C1123 1.393 . S
C1127 C1126 1.391 . S
H1128 C1136 0.950 . S
H1129 C1141 0.950 . S
H1130 C1138 0.950 . S
H1131 C1140 0.950 . S
H1132 C1142 0.950 . S
H1133 C1144 0.950 . S
H1134 C1146 0.950 . S
H1135 C1147 0.950 . S
C1136 H1128 0.950 . S
C1136 C1137 1.386 . S
C1136 C1138 1.391 . S
C1137 C1136 1.386 . S
C1137 C1141 1.393 . S
C1138 H1130 0.950 . S
C1138 C1136 1.391 . S
C1138 C1139 1.400 . S
C1139 C1138 1.400 . S
C1139 C1140 1.398 . S
C1139 C1145 1.491 . S
C1140 H1131 0.950 . S
C1140 C1139 1.398 . S
C1140 C1141 1.391 . S
C1141 H1129 0.950 . S
C1141 C1137 1.393 . S
C1141 C1140 1.391 . S
C1142 H1132 0.950 . S
C1142 C1143 1.386 . S
C1142 C1144 1.391 . S
C1143 C1142 1.386 . S
C1143 C1147 1.393 . S
C1144 H1133 0.950 . S
C1144 C1142 1.391 . S
C1144 C1145 1.400 . S
C1145 C1139 1.491 . S
C1145 C1144 1.400 . S
C1145 C1146 1.398 . S
C1146 H1134 0.950 . S
C1146 C1145 1.398 . S
C1146 C1147 1.391 . S
C1147 H1135 0.950 . S
C1147 C1143 1.393 . S
C1147 C1146 1.391 . S
H1148 C1156 0.950 . S
H1149 C1161 0.950 . S
H1150 C1158 0.950 . S
H1151 C1160 0.950 . S
H1152 C1162 0.950 . S
H1153 C1164 0.950 . S
H1154 C1166 0.950 . S
H1155 C1167 0.950 . S
C1156 H1148 0.950 . S
C1156 C1157 1.386 . S
C1156 C1158 1.391 . S
C1157 C1156 1.386 . S
C1157 C1161 1.393 . S
C1158 H1150 0.950 . S
C1158 C1156 1.391 . S
C1158 C1159 1.400 . S
C1159 C1158 1.400 . S
C1159 C1160 1.398 . S
C1159 C1165 1.491 . S
C1160 H1151 0.950 . S
C1160 C1159 1.398 . S
C1160 C1161 1.391 . S
C1161 H1149 0.950 . S
C1161 C1157 1.393 . S
C1161 C1160 1.391 . S
C1162 H1152 0.950 . S
C1162 C1163 1.386 . S
C1162 C1164 1.391 . S
C1163 C1162 1.386 . S
C1163 C1167 1.393 . S
C1164 H1153 0.950 . S
C1164 C1162 1.391 . S
C1164 C1165 1.400 . S
C1165 C1159 1.491 . S
C1165 C1164 1.400 . S
C1165 C1166 1.398 . S
C1166 H1154 0.950 . S
C1166 C1165 1.398 . S
C1166 C1167 1.391 . S
C1167 H1155 0.950 . S
C1167 C1163 1.393 . S
C1167 C1166 1.391 . S
H1168 C1176 0.950 . S
H1169 C1181 0.950 . S
H1170 C1178 0.950 . S
H1171 C1180 0.950 . S
H1172 C1182 0.950 . S
H1173 C1184 0.950 . S
H1174 C1186 0.950 . S
H1175 C1187 0.950 . S
C1176 H1168 0.950 . S
C1176 C1177 1.386 . S
C1176 C1178 1.391 . S
C1177 C1176 1.386 . S
C1177 C1181 1.393 . S
C1178 H1170 0.950 . S
C1178 C1176 1.391 . S
C1178 C1179 1.400 . S
C1179 C1178 1.400 . S
C1179 C1180 1.398 . S
C1179 C1185 1.491 . S
C1180 H1171 0.950 . S
C1180 C1179 1.398 . S
C1180 C1181 1.391 . S
C1181 H1169 0.950 . S
C1181 C1177 1.393 . S
C1181 C1180 1.391 . S
C1182 H1172 0.950 . S
C1182 C1183 1.386 . S
C1182 C1184 1.391 . S
C1183 C1182 1.386 . S
C1183 C1187 1.393 . S
C1184 H1173 0.950 . S
C1184 C1182 1.391 . S
C1184 C1185 1.400 . S
C1185 C1179 1.491 . S
C1185 C1184 1.400 . S
C1185 C1186 1.398 . S
C1186 H1174 0.950 . S
C1186 C1185 1.398 . S
C1186 C1187 1.391 . S
C1187 H1175 0.950 . S
C1187 C1183 1.393 . S
C1187 C1186 1.391 . S
H1188 C1196 0.950 . S
H1189 C1201 0.950 . S
H1190 C1198 0.950 . S
H1191 C1200 0.950 . S
H1192 C1202 0.950 . S
H1193 C1204 0.950 . S
H1194 C1206 0.950 . S
H1195 C1207 0.950 . S
C1196 H1188 0.950 . S
C1196 C1197 1.386 . S
C1196 C1198 1.391 . S
C1197 C1196 1.386 . S
C1197 C1201 1.393 . S
C1198 H1190 0.950 . S
C1198 C1196 1.391 . S
C1198 C1199 1.400 . S
C1199 C1198 1.400 . S
C1199 C1200 1.398 . S
C1199 C1205 1.491 . S
C1200 H1191 0.950 . S
C1200 C1199 1.398 . S
C1200 C1201 1.391 . S
C1201 H1189 0.950 . S
C1201 C1197 1.393 . S
C1201 C1200 1.391 . S
C1202 H1192 0.950 . S
C1202 C1203 1.386 . S
C1202 C1204 1.391 . S
C1203 C1202 1.386 . S
C1203 C1207 1.393 . S
C1204 H1193 0.950 . S
C1204 C1202 1.391 . S
C1204 C1205 1.400 . S
C1205 C1199 1.491 . S
C1205 C1204 1.400 . S
C1205 C1206 1.398 . S
C1206 H1194 0.950 . S
C1206 C1205 1.398 . S
C1206 C1207 1.391 . S
C1207 H1195 0.950 . S
C1207 C1203 1.393 . S
C1207 C1206 1.391 . S
H1208 C1216 0.950 . S
H1209 C1221 0.950 . S
H1210 C1218 0.950 . S
H1211 C1220 0.950 . S
H1212 C1222 0.950 . S
H1213 C1224 0.950 . S
H1214 C1226 0.950 . S
H1215 C1227 0.950 . S
C1216 H1208 0.950 . S
C1216 C1217 1.386 . S
C1216 C1218 1.391 . S
C1217 C1216 1.386 . S
C1217 C1221 1.393 . S
C1218 H1210 0.950 . S
C1218 C1216 1.391 . S
C1218 C1219 1.400 . S
C1219 C1218 1.400 . S
C1219 C1220 1.398 . S
C1219 C1225 1.491 . S
C1220 H1211 0.950 . S
C1220 C1219 1.398 . S
C1220 C1221 1.391 . S
C1221 H1209 0.950 . S
C1221 C1217 1.393 . S
C1221 C1220 1.391 . S
C1222 H1212 0.950 . S
C1222 C1223 1.386 . S
C1222 C1224 1.391 . S
C1223 C1222 1.386 . S
C1223 C1227 1.393 . S
C1224 H1213 0.950 . S
C1224 C1222 1.391 . S
C1224 C1225 1.400 . S
C1225 C1219 1.491 . S
C1225 C1224 1.400 . S
C1225 C1226 1.398 . S
C1226 H1214 0.950 . S
C1226 C1225 1.398 . S
C1226 C1227 1.391 . S
C1227 H1215 0.950 . S
C1227 C1223 1.393 . S
C1227 C1226 1.391 . S
H1228 C1236 0.950 . S
H1229 C1241 0.950 . S
H1230 C1238 0.950 1_545 S
H1231 C1240 0.950 . S
H1232 C1242 0.950 . S
H1233 C1244 0.950 . S
H1234 C1246 0.950 . S
H1235 C1247 0.950 . S
C1236 H1228 0.950 . S
C1236 C1237 1.386 1_545 S
C1236 C1238 1.391 1_545 S
C1237 C1236 1.386 1_565 S
C1237 C1241 1.393 . S
C1238 H1230 0.950 1_565 S
C1238 C1236 1.391 1_565 S
C1238 C1239 1.400 . S
C1239 C1238 1.400 . S
C1239 C1240 1.398 . S
C1239 C1245 1.491 . S
C1240 H1231 0.950 . S
C1240 C1239 1.398 . S
C1240 C1241 1.391 . S
C1241 H1229 0.950 . S
C1241 C1237 1.393 . S
C1241 C1240 1.391 . S
C1242 H1232 0.950 . S
C1242 C1243 1.386 . S
C1242 C1244 1.391 . S
C1243 C1242 1.386 . S
C1243 C1247 1.393 . S
C1244 H1233 0.950 . S
C1244 C1242 1.391 . S
C1244 C1245 1.400 . S
C1245 C1239 1.491 . S
C1245 C1244 1.400 . S
C1245 C1246 1.398 . S
C1246 H1234 0.950 . S
C1246 C1245 1.398 . S
C1246 C1247 1.391 . S
C1247 H1235 0.950 . S
C1247 C1243 1.393 . S
C1247 C1246 1.391 . S
H1248 C1256 0.950 . S
H1249 C1261 0.950 . S
H1250 C1258 0.950 . S
H1251 C1260 0.950 . S
H1252 C1262 0.950 . S
H1253 C1264 0.950 . S
H1254 C1266 0.950 . S
H1255 C1267 0.950 . S
C1256 H1248 0.950 . S
C1256 C1257 1.386 . S
C1256 C1258 1.391 . S
C1257 C1256 1.386 . S
C1257 C1261 1.393 . S
C1258 H1250 0.950 . S
C1258 C1256 1.391 . S
C1258 C1259 1.400 . S
C1259 C1258 1.400 . S
C1259 C1260 1.398 . S
C1259 C1265 1.491 . S
C1260 H1251 0.950 . S
C1260 C1259 1.398 . S
C1260 C1261 1.391 . S
C1261 H1249 0.950 . S
C1261 C1257 1.393 . S
C1261 C1260 1.391 . S
C1262 H1252 0.950 . S
C1262 C1263 1.386 . S
C1262 C1264 1.391 . S
C1263 C1262 1.386 . S
C1263 C1267 1.393 . S
C1264 H1253 0.950 . S
C1264 C1262 1.391 . S
C1264 C1265 1.400 . S
C1265 C1259 1.491 . S
C1265 C1264 1.400 . S
C1265 C1266 1.398 . S
C1266 H1254 0.950 . S
C1266 C1265 1.398 . S
C1266 C1267 1.391 . S
C1267 H1255 0.950 . S
C1267 C1263 1.393 . S
C1267 C1266 1.391 . S
H1268 C1276 0.950 . S
H1269 C1281 0.950 . S
H1270 C1278 0.950 . S
H1271 C1280 0.950 . S
H1272 C1282 0.950 . S
H1273 C1284 0.950 . S
H1274 C1286 0.950 . S
H1275 C1287 0.950 . S
C1276 H1268 0.950 . S
C1276 C1277 1.386 . S
C1276 C1278 1.391 . S
C1277 C1276 1.386 . S
C1277 C1281 1.393 . S
C1278 H1270 0.950 . S
C1278 C1276 1.391 . S
C1278 C1279 1.400 . S
C1279 C1278 1.400 . S
C1279 C1280 1.398 . S
C1279 C1285 1.491 . S
C1280 H1271 0.950 . S
C1280 C1279 1.398 . S
C1280 C1281 1.391 . S
C1281 H1269 0.950 . S
C1281 C1277 1.393 . S
C1281 C1280 1.391 . S
C1282 H1272 0.950 . S
C1282 C1283 1.386 . S
C1282 C1284 1.391 . S
C1283 C1282 1.386 . S
C1283 C1287 1.393 . S
C1284 H1273 0.950 . S
C1284 C1282 1.391 . S
C1284 C1285 1.400 . S
C1285 C1279 1.491 . S
C1285 C1284 1.400 . S
C1285 C1286 1.398 . S
C1286 H1274 0.950 . S
C1286 C1285 1.398 . S
C1286 C1287 1.391 . S
C1287 H1275 0.950 . S
C1287 C1283 1.393 . S
C1287 C1286 1.391 . S
H1288 C1296 0.950 . S
H1289 C1301 0.950 . S
H1290 C1298 0.950 . S
H1291 C1300 0.950 . S
H1292 C1302 0.950 . S
H1293 C1304 0.950 . S
H1294 C1306 0.950 . S
H1295 C1307 0.950 . S
C1296 H1288 0.950 . S
C1296 C1297 1.386 . S
C1296 C1298 1.391 . S
C1297 C1296 1.386 . S
C1297 C1301 1.393 . S
C1298 H1290 0.950 . S
C1298 C1296 1.391 . S
C1298 C1299 1.400 . S
C1299 C1298 1.400 . S
C1299 C1300 1.398 . S
C1299 C1305 1.491 . S
C1300 H1291 0.950 . S
C1300 C1299 1.398 . S
C1300 C1301 1.391 . S
C1301 H1289 0.950 . S
C1301 C1297 1.393 . S
C1301 C1300 1.391 . S
C1302 H1292 0.950 . S
C1302 C1303 1.386 . S
C1302 C1304 1.391 . S
C1303 C1302 1.386 . S
C1303 C1307 1.393 . S
C1304 H1293 0.950 . S
C1304 C1302 1.391 . S
C1304 C1305 1.400 . S
C1305 C1299 1.491 . S
C1305 C1304 1.400 . S
C1305 C1306 1.398 . S
C1306 H1294 0.950 . S
C1306 C1305 1.398 . S
C1306 C1307 1.391 . S
C1307 H1295 0.950 . S
C1307 C1303 1.393 . S
C1307 C1306 1.391 . S
H1308 C1316 0.950 . S
H1309 C1321 0.950 . S
H1310 C1318 0.950 . S
H1311 C1320 0.950 . S
H1312 C1322 0.933 1_554 S
H1313 C1324 0.950 . S
H1314 C1326 0.950 . S
H1315 C1327 0.950 . S
C1316 H1308 0.950 . S
C1316 C1317 1.370 1_556 S
C1316 C1318 1.391 . S
C1317 C1316 1.370 1_554 S
C1317 C1321 1.404 . S
C1318 H1310 0.950 . S
C1318 C1316 1.391 . S
C1318 C1319 1.400 . S
C1319 C1318 1.400 . S
C1319 C1320 1.398 1_556 S
C1319 C1325 1.491 . S
C1320 H1311 0.950 . S
C1320 C1319 1.398 1_554 S
C1320 C1321 1.391 . S
C1321 H1309 0.950 . S
C1321 C1317 1.404 . S
C1321 C1320 1.391 . S
C1322 H1312 0.933 1_556 S
C1322 C1323 1.408 . S
C1322 C1324 1.386 1_556 S
C1323 C1322 1.408 . S
C1323 C1327 1.393 . S
C1324 H1313 0.950 . S
C1324 C1322 1.386 1_554 S
C1324 C1325 1.400 1_554 S
C1325 C1319 1.491 . S
C1325 C1324 1.400 1_556 S
C1325 C1326 1.398 . S
C1326 H1314 0.950 . S
C1326 C1325 1.398 . S
C1326 C1327 1.391 . S
C1327 H1315 0.950 . S
C1327 C1323 1.393 . S
C1327 C1326 1.391 . S
H1328 C1336 0.950 . S
H1329 C1341 0.950 . S
H1330 C1338 0.950 . S
H1331 C1340 0.950 . S
H1332 C1342 0.950 . S
H1333 C1344 0.950 . S
H1334 C1346 0.950 . S
H1335 C1347 0.950 . S
C1336 H1328 0.950 . S
C1336 C1337 1.386 1_556 S
C1336 C1338 1.391 . S
C1337 C1336 1.386 1_554 S
C1337 C1341 1.393 . S
C1338 H1330 0.950 . S
C1338 C1336 1.391 . S
C1338 C1339 1.400 1_556 S
C1339 C1338 1.400 1_554 S
C1339 C1340 1.398 . S
C1339 C1345 1.491 . S
C1340 H1331 0.950 . S
C1340 C1339 1.398 . S
C1340 C1341 1.391 . S
C1341 H1329 0.950 . S
C1341 C1337 1.393 . S
C1341 C1340 1.391 . S
C1342 H1332 0.950 . S
C1342 C1343 1.386 1_554 S
C1342 C1344 1.391 . S
C1343 C1342 1.386 1_556 S
C1343 C1347 1.393 . S
C1344 H1333 0.950 . S
C1344 C1342 1.391 . S
C1344 C1345 1.406 . S
C1345 C1339 1.491 . S
C1345 C1344 1.406 . S
C1345 C1346 1.393 1_554 S
C1346 H1334 0.950 . S
C1346 C1345 1.393 1_556 S
C1346 C1347 1.391 . S
C1347 H1335 0.950 . S
C1347 C1343 1.393 . S
C1347 C1346 1.391 . S
H1348 C1356 0.950 . S
H1349 C1361 0.950 1_556 S
H1350 C1358 0.950 . S
H1351 C1360 0.950 1_556 S
H1352 C1362 0.931 1_556 S
H1353 C1364 0.950 1_556 S
H1354 C1366 0.950 . S
H1355 C1367 0.950 . S
C1356 H1348 0.950 . S
C1356 C1357 1.386 . S
C1356 C1358 1.391 . S
C1357 C1356 1.386 . S
C1357 C1361 1.393 . S
C1358 H1350 0.950 . S
C1358 C1356 1.391 . S
C1358 C1359 1.400 . S
C1359 C1358 1.400 . S
C1359 C1360 1.398 . S
C1359 C1365 1.491 . S
C1360 H1351 0.950 1_554 S
C1360 C1359 1.398 . S
C1360 C1361 1.391 . S
C1361 H1349 0.950 1_554 S
C1361 C1357 1.393 . S
C1361 C1360 1.391 . S
C1362 H1352 0.931 1_554 S
C1362 C1363 1.386 . S
C1362 C1364 1.391 . S
C1363 C1362 1.386 . S
C1363 C1367 1.393 . S
C1364 H1353 0.950 1_554 S
C1364 C1362 1.391 . S
C1364 C1365 1.400 . S
C1365 C1359 1.491 . S
C1365 C1364 1.400 . S
C1365 C1366 1.398 . S
C1366 H1354 0.950 . S
C1366 C1365 1.398 . S
C1366 C1367 1.391 . S
C1367 H1355 0.950 . S
C1367 C1363 1.393 . S
C1367 C1366 1.391 . S
C417 C13 1.577 . S
C423 C255 1.536 1_545 S
C443 N272 1.606 . S
C437 C1 1.736 . S
C463 N174 1.597 . S
C457 C27 1.591 . S
C477 C15 1.218 1_655 S
C483 C199 1.215 . S
C497 C28 1.685 . S
C503 C394 1.678 . S
C517 C55 1.409 . S
C523 N354 1.385 . S
C543 N302 1.502 . S
C537 C40 1.677 . S
C557 C43 1.645 . S
C563 C328 1.643 . S
C583 C214 1.518 1_455 S
C577 C56 1.519 . S
C603 C259 1.724 . S
C597 C83 1.734 . S
C617 C96 1.618 . S
C623 C238 1.632 1_655 S
C637 C71 1.820 . S
C643 C345 1.794 . S
C663 C375 1.537 . S
C657 C99 1.578 . S
C683 N392 1.593 . S
C677 C111 1.744 . S
C697 C113 1.598 . S
C703 N324 1.591 . S
C723 C289 1.225 1_545 S
C717 C125 1.231 . S
C737 C139 1.680 . S
C743 C274 1.666 . S
C757 C153 1.412 . S
C763 N234 1.386 . S
C783 N212 1.533 . S
C777 C127 1.683 . S
C797 C141 1.655 . S
C803 C178 1.649 . S
C823 C304 1.514 . S
C817 C84 1.506 . S
C843 C379 1.725 . S
C837 C154 1.732 . S
C857 C68 1.614 . S
C863 C358 1.620 . S
C877 C166 1.819 . S
C883 C195 1.795 . S
C903 C169 1.309 . S
C897 C0 1.331 . S
C917 C12 0.999 . S
C923 N204 1.002 1_455 S
C943 N242 1.127 . S
C937 C14 1.227 . S
C963 C285 1.712 . S
C957 C26 1.711 1_655 S
C977 C41 1.490 . S
C983 C184 1.465 . S
C997 C42 1.629 . S
C1003 C225 1.614 . S
C1023 C229 1.243 . S
C1017 C29 1.277 . S
C1037 C54 1.483 . S
C1043 C268 1.458 . S
C1057 C69 1.039 . S
C1063 N182 0.981 . S
C1083 C244 1.804 . S
C1077 C70 1.798 . S
C1097 C85 1.171 . S
C1103 N264 1.161 . S
C1117 C82 1.422 . S
C1123 C298 1.415 . S
C1143 C319 1.287 . S
C1137 C110 1.313 . S
C1157 C98 0.996 . S
C1163 N294 0.994 . S
C1177 C124 1.226 . S
C1183 N362 1.111 . S
C1197 C112 1.701 . S
C1203 C405 1.711 . S
C1217 C126 1.478 . S
C1223 C334 1.469 . S
C1243 C315 1.610 . S
C1237 C140 1.630 . S
C1257 C138 1.277 . S
C1263 C349 1.242 . S
C1283 C388 1.456 . S
C1277 C152 1.484 . S
C1303 N332 1.023 . S
C1297 C97 1.032 . S
C1323 C364 1.801 . S
C1317 C167 1.813 . S
C1343 N384 1.185 . S
C1337 C57 1.189 . S
C1357 C155 1.432 . S
C1363 C208 1.400 . S
