# Generated by pormake.
# Topology ssa, (4,4)-cn, num edge types: 1
# Building blocks:
#     Node 0, Type 0, BuildingBlock: ESEHIV_clean_sbu_0, # of connection points: 4
#     Node 1, Type 0, BuildingBlock: ESEHIV_clean_sbu_0, # of connection points: 4
#     Node 2, Type 0, BuildingBlock: ESEHIV_clean_sbu_0, # of connection points: 4
#     Node 3, Type 0, BuildingBlock: ESEHIV_clean_sbu_0, # of connection points: 4
#     Node 4, Type 0, BuildingBlock: ESEHIV_clean_sbu_0, # of connection points: 4
#     Node 5, Type 0, BuildingBlock: ESEHIV_clean_sbu_0, # of connection points: 4
#     Node 6, Type 1, BuildingBlock: ESEHIV_clean_sbu_0, # of connection points: 4
#     Node 7, Type 1, BuildingBlock: ESEHIV_clean_sbu_0, # of connection points: 4
#     Node 8, Type 1, BuildingBlock: ESEHIV_clean_sbu_0, # of connection points: 4
#     Node 9, Type 1, BuildingBlock: ESEHIV_clean_sbu_0, # of connection points: 4
#     Node 10, Type 1, BuildingBlock: ESEHIV_clean_sbu_0, # of connection points: 4
#     Node 11, Type 1, BuildingBlock: ESEHIV_clean_sbu_0, # of connection points: 4
#     Edge 12, Type (0, 1), BuildingBlock: CIFDUS_clean_linker_0, # of connection points: 2
#     Edge 13, Type (0, 1), BuildingBlock: CIFDUS_clean_linker_0, # of connection points: 2
#     Edge 14, Type (0, 1), BuildingBlock: CIFDUS_clean_linker_0, # of connection points: 2
#     Edge 15, Type (0, 1), BuildingBlock: CIFDUS_clean_linker_0, # of connection points: 2
#     Edge 16, Type (0, 1), BuildingBlock: CIFDUS_clean_linker_0, # of connection points: 2
#     Edge 17, Type (0, 1), BuildingBlock: CIFDUS_clean_linker_0, # of connection points: 2
#     Edge 18, Type (0, 1), BuildingBlock: CIFDUS_clean_linker_0, # of connection points: 2
#     Edge 19, Type (0, 1), BuildingBlock: CIFDUS_clean_linker_0, # of connection points: 2
#     Edge 20, Type (0, 1), BuildingBlock: CIFDUS_clean_linker_0, # of connection points: 2
#     Edge 21, Type (0, 1), BuildingBlock: CIFDUS_clean_linker_0, # of connection points: 2
#     Edge 22, Type (0, 1), BuildingBlock: CIFDUS_clean_linker_0, # of connection points: 2
#     Edge 23, Type (0, 1), BuildingBlock: CIFDUS_clean_linker_0, # of connection points: 2
#     Edge 24, Type (0, 1), BuildingBlock: CIFDUS_clean_linker_0, # of connection points: 2
#     Edge 25, Type (0, 1), BuildingBlock: CIFDUS_clean_linker_0, # of connection points: 2
#     Edge 26, Type (0, 1), BuildingBlock: CIFDUS_clean_linker_0, # of connection points: 2
#     Edge 27, Type (0, 1), BuildingBlock: CIFDUS_clean_linker_0, # of connection points: 2
#     Edge 28, Type (0, 1), BuildingBlock: CIFDUS_clean_linker_0, # of connection points: 2
#     Edge 29, Type (0, 1), BuildingBlock: CIFDUS_clean_linker_0, # of connection points: 2
#     Edge 30, Type (0, 1), BuildingBlock: CIFDUS_clean_linker_0, # of connection points: 2
#     Edge 31, Type (0, 1), BuildingBlock: CIFDUS_clean_linker_0, # of connection points: 2
#     Edge 32, Type (0, 1), BuildingBlock: CIFDUS_clean_linker_0, # of connection points: 2
#     Edge 33, Type (0, 1), BuildingBlock: CIFDUS_clean_linker_0, # of connection points: 2
#     Edge 34, Type (0, 1), BuildingBlock: CIFDUS_clean_linker_0, # of connection points: 2
#     Edge 35, Type (0, 1), BuildingBlock: CIFDUS_clean_linker_0, # of connection points: 2
# Relax obj value: 0.042
# Max RMSD: 0.106
# Mean RMSD: 0.096
data_MOF--net-ssa--node1-ESEHIV_clean_sbu_0--node2-ESEHIV_clean_sbu_0--edge1-CIFDUS_clean_linker_0
_symmetry_space_group_name_H-M    P1
_symmetry_Int_Tables_number       1
_symmetry_cell_setting            triclinic
loop_
_symmetry_equiv_pos_as_xyz
'x, y, z'
_cell_length_a     43.208621
_cell_length_b     46.658201
_cell_length_c     32.743343
_cell_angle_alpha  87.819362
_cell_angle_beta   91.393919
_cell_angle_gamma 122.78484
loop_
_atom_site_label
_atom_site_type_symbol
_atom_site_fract_x
_atom_site_fract_y
_atom_site_fract_z
_atom_type_partial_charge
Cu0 Cu 1.02753 0.54516 1.0201 0.0
N1 N 0.03427 0.5207 0.9814 0.0
N2 N 1.02288 0.47349 0.95175 0.0
C3 C 1.01082 0.48691 0.97804 0.0
C4 C 0.05531 0.50021 0.93766 0.0
C5 C 0.0624 0.52934 0.95624 0.0
O6 O 0.97673 0.53595 1.01137 0.0
C7 C 0.07941 0.54629 0.07318 0.0
O8 O 0.09847 0.56298 0.04036 0.0
H9 H 0.98546 0.47254 0.99514 0.0
H10 H 0.08687 0.55463 0.95275 0.0
N11 N 0.05935 0.59236 1.01456 0.0
N12 N 0.09666 0.64422 0.03974 0.0
C13 C 0.06868 0.61184 0.04738 0.0
C14 C 0.08149 0.61325 0.98427 0.0
C15 C 0.1046 0.64545 0.99979 0.0
C16 C 0.96565 0.53514 0.97426 0.0
O17 O 0.98736 0.53853 0.94453 0.0
H18 H 0.05614 0.60171 0.07699 0.0
H19 H 0.08222 0.60533 0.9539 0.0
O20 O 0.04459 0.53415 0.07262 0.0
H21 H 0.07325 0.49873 0.91655 0.0
H22 H 0.12691 0.66738 0.98364 0.0
Cu23 Cu 0.56072 0.0206 0.55647 0.0
N24 N 0.5827 1.0154 0.50982 0.0
N25 N 0.59633 0.99169 0.45982 0.0
C26 C 0.57503 0.98596 0.49295 0.0
C27 C 0.61817 0.02615 0.45635 0.0
C28 C 0.60965 0.04044 0.48661 0.0
O29 O 0.50803 0.98948 0.54917 0.0
C30 C 0.61293 0.02034 0.60807 0.0
O31 O 0.62845 0.02042 0.57405 0.0
H32 H 0.55407 0.9609 0.50466 0.0
H33 H 0.62252 0.06736 0.49137 0.0
N34 N 0.57158 0.06532 0.56539 0.0
N35 N 0.56928 0.10588 0.59851 0.0
C36 C 0.55083 0.07266 0.58776 0.0
C37 C 0.60456 0.09497 0.56249 0.0
C38 C 0.60313 0.11989 0.58235 0.0
C39 C 0.49154 0.99933 0.52546 0.0
O40 O 0.51009 0.03063 0.51006 0.0
H41 H 0.5235 0.05334 0.59834 0.0
H42 H 0.62889 0.09786 0.54951 0.0
O43 O 0.57964 1.01216 0.60673 0.0
H44 H 0.63954 0.04054 0.43388 0.0
H45 H 0.62576 0.14606 0.58563 0.0
Cu46 Cu 0.53997 0.52001 0.0539 0.0
N47 N 0.54647 0.48364 0.04309 0.0
N48 N 0.54501 0.44241 1.00692 0.0
C49 C 0.52977 0.46096 1.01277 0.0
C50 C 0.57246 0.45408 0.03486 0.0
C51 C 0.57346 0.47943 0.05666 0.0
O52 O 0.56581 0.55291 1.00964 0.0
C53 C 0.47109 0.48605 0.08665 0.0
O54 O 0.48837 0.4774 0.11288 0.0
H55 H 0.50814 0.45955 0.99383 0.0
H56 H 0.59384 0.49493 0.07931 0.0
N57 N 0.55847 0.54203 0.10465 0.0
N58 N 0.57299 0.57861 0.15562 0.0
C59 C 0.55905 0.56975 0.1173 0.0
C60 C 0.57193 0.53284 0.13638 0.0
C61 C 0.58107 0.55531 0.16747 0.0
C62 C 0.60025 0.57447 1.0135 0.0
O63 O 0.61584 0.57686 0.04923 0.0
H64 H 0.5501 0.58353 0.09843 0.0
H65 H 0.57458 0.51109 0.13714 0.0
O66 O 0.488 0.50344 0.05466 0.0
H67 H 0.59116 0.44551 0.03889 0.0
H68 H 0.59273 0.55445 0.19679 0.0
Cu69 Cu 1.01313 0.51083 0.53539 0.0
N70 N 1.00532 0.47599 0.50171 0.0
N71 N 1.01303 0.44761 0.45387 0.0
C72 C 1.02288 0.47851 0.4671 0.0
C73 C 0.98748 0.4247 0.48042 0.0
C74 C 0.9824 0.44228 0.50954 0.0
O75 O 0.06068 0.55551 0.52367 0.0
C76 C 0.99523 0.46555 0.61011 0.0
O77 O 1.01631 0.45548 0.59729 0.0
H78 H 0.04365 0.50245 0.45279 0.0
H79 H 0.96414 0.43122 0.53548 0.0
N80 N 0.97811 0.52106 0.5219 0.0
N81 N 0.93812 0.53598 0.53384 0.0
C82 C 0.96108 0.52756 0.55036 0.0
C83 C 0.96583 0.52576 0.48568 0.0
C84 C 0.94106 0.53512 0.49299 0.0
C85 C 0.09017 0.56241 0.50561 0.0
O86 O 0.09564 0.53778 0.49993 0.0
H87 H 0.9665 0.5272 0.58275 0.0
H88 H 0.97465 0.52309 0.45621 0.0
O89 O 0.99631 0.49084 0.59172 0.0
H90 H 0.97435 0.39732 0.47953 0.0
H91 H 0.92645 0.54081 0.47017 0.0
Cu92 Cu 0.52848 1.00522 0.02996 0.0
N93 N 0.49239 0.9967 0.99115 0.0
N94 N 0.46601 1.01309 0.94445 0.0
C95 C 0.4979 0.0186 0.96002 0.0
C96 C 0.43922 0.98617 0.96616 0.0
C97 C 0.45559 0.97605 0.99494 0.0
O98 O 0.5679 0.05422 1.01794 0.0
C99 C 0.48324 0.95696 0.09244 0.0
O100 O 0.48147 0.9363 0.06501 0.0
H101 H 0.52471 0.04063 0.95216 0.0
H102 H 0.44168 0.95728 1.01938 0.0
N103 N 0.54772 0.97869 1.02119 0.0
N104 N 0.57337 0.94926 0.03817 0.0
C105 C 0.56561 0.97202 0.05019 0.0
C106 C 0.54427 0.95993 0.98917 0.0
C107 C 0.56022 0.94172 0.99956 0.0
C108 C 0.60079 0.06467 1.00677 0.0
O109 O 0.61257 0.04409 1.01192 0.0
H110 H 0.57193 0.98324 0.07996 0.0
H111 H 0.52997 0.95859 0.96102 0.0
O112 O 0.50297 0.98932 0.08434 0.0
H113 H 0.41011 0.9763 0.9636 0.0
H114 H 0.56049 0.92321 0.98089 0.0
Cu115 Cu 0.51639 0.51544 0.51262 0.0
N116 N 0.55597 0.53872 0.47709 0.0
N117 N 0.60006 0.58581 0.44403 0.0
C118 C 0.5799 0.57257 0.47853 0.0
C119 C 0.58865 0.55858 0.42042 0.0
C120 C 0.56132 0.52959 0.44083 0.0
O121 O 0.48141 0.5263 0.48655 0.0
C122 C 0.53995 0.51426 0.59798 0.0
O123 O 0.51263 0.48224 0.60146 0.0
H124 H 0.58017 0.58724 0.50344 0.0
H125 H 0.54445 0.50434 0.42866 0.0
N126 N 0.49633 0.46866 0.50955 0.0
N127 N 0.48464 0.41684 0.52654 0.0
C128 C 0.50948 0.45083 0.52729 0.0
C129 C 0.46275 0.44522 0.49527 0.0
C130 C 0.45543 0.41326 0.50573 0.0
C131 C 0.44726 0.51513 0.4912 0.0
O132 O 0.42964 0.49556 0.52321 0.0
H133 H 0.53581 0.46266 0.54282 0.0
H134 H 0.44389 0.45094 0.48072 0.0
O135 O 0.54097 0.53238 0.56683 0.0
H136 H 0.59694 0.55967 0.38919 0.0
H137 H 0.4294 0.38942 0.5014 0.0
Cu138 Cu 0.24119 0.4874 0.27104 0.0
N139 N 0.25845 0.47272 0.22985 0.0
N140 N 0.29761 0.46876 0.19081 0.0
C141 C 0.29401 0.48544 0.22122 0.0
C142 C 0.26306 0.44483 0.1794 0.0
C143 C 0.23892 0.44722 0.20368 0.0
O144 O 0.28134 0.51144 0.31274 0.0
C145 C 0.1853 0.48894 0.22668 0.0
O146 O 0.17377 0.4565 0.22665 0.0
H147 H 0.31688 0.5061 0.23751 0.0
H148 H 0.20927 0.43077 0.20302 0.0
N149 N 0.20327 0.45038 0.29998 0.0
N150 N 0.15076 0.42282 0.33484 0.0
C151 C 0.17835 0.4531 0.31996 0.0
C152 C 0.19165 0.41714 0.30289 0.0
C153 C 0.1591 0.39997 0.32484 0.0
C154 C 0.29762 0.49652 0.32589 0.0
O155 O 0.28791 0.46717 0.31056 0.0
H156 H 0.18005 0.47699 0.3225 0.0
H157 H 0.20512 0.40608 0.28896 0.0
O158 O 0.21645 0.50955 0.24399 0.0
H159 H 0.25584 0.426 0.15653 0.0
H160 H 0.14225 0.3728 0.33151 0.0
Cu161 Cu 0.81672 0.25097 0.80364 0.0
N162 N 0.80371 0.22189 0.7598 0.0
N163 N 0.77639 0.17618 0.72057 0.0
C164 C 0.77445 0.18973 0.75547 0.0
C165 C 0.8079 0.20078 0.70237 0.0
C166 C 0.82463 0.22879 0.7266 0.0
O167 O 0.78035 0.22827 0.84911 0.0
C168 C 0.83723 0.30923 0.74677 0.0
O169 O 0.81356 0.28776 0.72014 0.0
H170 H 0.75278 0.17624 0.77787 0.0
H171 H 0.85063 0.25248 0.72077 0.0
N172 N 0.86023 0.25806 0.82595 0.0
N173 N 0.91564 0.29375 0.85306 0.0
C174 C 0.87972 0.28289 0.85271 0.0
C175 C 0.88457 0.25238 0.80926 0.0
C176 C 0.91892 0.27457 0.82586 0.0
C177 C 0.74509 0.21209 0.84949 0.0
O178 O 0.72757 0.21277 0.8165 0.0
H179 H 0.8688 0.29612 0.86707 0.0
H180 H 0.8788 0.23625 0.78363 0.0
O181 O 0.83644 0.29875 0.78375 0.0
H182 H 0.81804 0.19881 0.67339 0.0
H183 H 0.9447 0.27844 0.81601 0.0
Cu184 Cu 0.61101 0.79934 0.3027 0.0
N185 N 0.63175 0.82948 0.25779 0.0
N186 N 0.63496 0.86421 0.20692 0.0
C187 C 0.61711 0.84628 0.24103 0.0
C188 C 0.66184 0.85826 0.20162 0.0
C189 C 0.65982 0.83678 0.23318 0.0
O190 O 0.58712 0.81709 0.33627 0.0
C191 C 0.60177 0.74237 0.26496 0.0
O192 O 0.6377 0.76305 0.26632 0.0
H193 H 0.59286 0.84432 0.25293 0.0
H194 H 0.67703 0.82661 0.23712 0.0
N195 N 0.64637 0.79918 0.33637 0.0
N196 N 0.66519 0.77276 0.37829 0.0
C197 C 0.63666 0.77498 0.36575 0.0
C198 C 0.68273 0.81348 0.33066 0.0
C199 C 0.69433 0.79676 0.35624 0.0
C200 C 0.60775 0.8488 0.3448 0.0
O201 O 0.64183 0.86598 0.33153 0.0
H202 H 0.60832 0.75664 0.37426 0.0
H203 H 0.69883 0.83227 0.30699 0.0
O204 O 0.58211 0.75262 0.27955 0.0
H205 H 0.6813 0.86845 0.17667 0.0
H206 H 0.72121 0.80021 0.3565 0.0
Cu207 Cu 0.77133 0.56142 0.79033 0.0
N208 N 0.80384 0.57896 0.74661 0.0
N209 N 0.83759 0.57871 0.69628 0.0
C210 C 0.81487 0.56096 0.72778 0.0
C211 C 0.84087 0.6092 0.69512 0.0
C212 C 0.81999 0.60931 0.72638 0.0
O213 O 0.78952 0.53729 0.82579 0.0
C214 C 0.71296 0.55471 0.74265 0.0
O215 O 0.73784 0.58754 0.73906 0.0
H216 H 0.80578 0.535 0.7368 0.0
H217 H 0.81672 0.62993 0.73369 0.0
N218 N 0.77443 0.5966 0.819 0.0
N219 N 0.75587 0.62224 0.85871 0.0
C220 C 0.74594 0.5938 0.83857 0.0
C221 C 0.80358 0.62801 0.82671 0.0
C222 C 0.79222 0.64386 0.85163 0.0
C223 C 0.80496 0.54722 0.86102 0.0
O224 O 0.80304 0.57083 0.87913 0.0
H225 H 0.71878 0.57064 0.83957 0.0
H226 H 0.83127 0.63819 0.81609 0.0
O227 O 0.72106 0.53631 0.76494 0.0
H228 H 0.85752 0.63005 0.67368 0.0
H229 H 0.80945 0.66891 0.86427 0.0
Cu230 Cu 0.27772 0.78782 0.31746 0.0
N231 N 0.24097 0.78224 0.28132 0.0
N232 N 0.20019 0.75811 0.2305 0.0
C233 C 0.2191 0.75359 0.26069 0.0
C234 C 0.21052 0.791 0.23226 0.0
C235 C 0.23576 0.80587 0.26368 0.0
O236 O 0.25694 0.74274 0.34749 0.0
C237 C 0.33795 0.83985 0.27055 0.0
O238 O 0.32477 0.85711 0.28468 0.0
H239 H 0.21914 0.73056 0.26588 0.0
H240 H 0.25076 0.83244 0.2715 0.0
N241 N 0.28767 0.81942 0.3572 0.0
N242 N 0.31784 0.85545 0.40766 0.0
C243 C 0.31644 0.83217 0.38316 0.0
C244 C 0.26996 0.83493 0.36563 0.0
C245 C 0.28867 0.85737 0.39669 0.0
C246 C 0.22881 0.73309 0.37021 0.0
O247 O 0.2165 0.75333 0.37166 0.0
H248 H 0.33669 0.82531 0.38299 0.0
H249 H 0.24547 0.83054 0.35005 0.0
O250 O 0.32271 0.80836 0.28233 0.0
H251 H 0.20144 0.80367 0.21153 0.0
H252 H 0.28148 0.87389 0.40997 0.0
Cu253 Cu 0.51236 0.25455 0.79348 0.0
N254 N 0.48921 0.26536 0.75245 0.0
N255 N 0.48173 0.29395 0.70101 0.0
C256 C 0.50476 0.29478 0.73026 0.0
C257 C 0.45046 0.26283 0.7051 0.0
C258 C 0.45514 0.24527 0.73685 0.0
O259 O 0.5359 0.29324 0.83206 0.0
C260 C 0.52314 0.21452 0.74176 0.0
O261 O 0.48736 0.20052 0.74003 0.0
H262 H 0.53276 0.31599 0.73486 0.0
H263 H 0.43533 0.21942 0.74727 0.0
N264 N 0.47729 0.21555 0.82304 0.0
N265 N 0.45117 0.16425 0.85444 0.0
C266 C 0.48184 0.19047 0.83656 0.0
C267 C 0.44263 0.20513 0.83307 0.0
C268 C 0.42645 0.1735 0.85252 0.0
C269 C 0.51549 0.30314 0.8453 0.0
O270 O 0.48138 0.2877 0.83192 0.0
H271 H 0.50729 0.19154 0.83309 0.0
H272 H 0.42975 0.21916 0.82599 0.0
O273 O 0.54207 0.24055 0.76436 0.0
H274 H 0.42588 0.25347 0.68662 0.0
H275 H 0.3984 0.15822 0.86344 0.0
H276 H 0.05829 0.49264 0.12963 0.0
H277 H 0.14915 0.59333 0.09556 0.0
H278 H 0.18984 0.58689 0.14235 0.0
H279 H 0.2021 0.55011 0.1878 0.0
H280 H 0.11114 0.44923 0.22133 0.0
H281 H 0.06902 0.45843 0.18116 0.0
C282 C 0.0867 0.51347 0.13325 0.0
C283 C 0.10039 0.54337 0.10868 0.0
C284 C 0.1106 0.50943 0.16007 0.0
C285 C 0.13765 0.56985 0.11369 0.0
C286 C 0.16119 0.5662 0.1405 0.0
C287 C 0.17298 0.53046 0.18702 0.0
C288 C 0.16025 0.49885 0.20745 0.0
C289 C 0.1484 0.53571 0.16308 0.0
C290 C 0.12218 0.47371 0.20561 0.0
C291 C 0.0978 0.4789 0.18251 0.0
H292 H 0.68542 0.04481 0.61893 0.0
H293 H 0.5953 0.04533 0.67208 0.0
H294 H 0.63844 0.09215 0.71548 0.0
H295 H 0.70253 0.13848 0.73073 0.0
H296 H 0.79207 0.13868 0.67506 0.0
H297 H 0.74852 0.08635 0.6402 0.0
C298 C 0.67506 0.05461 0.64064 0.0
C299 C 0.63718 0.04176 0.64175 0.0
C300 C 0.70008 0.08226 0.66453 0.0
C301 C 0.6243 0.05465 0.67042 0.0
C302 C 0.64903 0.08173 0.69502 0.0
C303 C 0.71244 0.12665 0.71163 0.0
C304 C 0.7505 0.14286 0.70488 0.0
C305 C 0.6871 0.09662 0.69118 0.0
C306 C 0.76293 0.12722 0.67997 0.0
C307 C 0.73803 0.09717 0.66018 0.0
H308 H 0.53305 0.60844 0.1591 0.0
H309 H 0.63167 0.61572 0.20415 0.0
H310 H 0.64695 0.66476 0.24388 0.0
H311 H 0.63424 0.70691 0.26452 0.0
H312 H 0.53617 0.70166 0.22218 0.0
H313 H 0.51843 0.65049 0.18358 0.0
C314 C 0.55789 0.62089 0.17753 0.0
C315 C 0.58121 0.60817 0.17842 0.0
C316 C 0.56652 0.64938 0.20111 0.0
C317 C 0.61305 0.62451 0.20299 0.0
C318 C 0.6219 0.65273 0.22574 0.0
C319 C 0.60874 0.69452 0.2471 0.0
C320 C 0.58668 0.70838 0.24624 0.0
C321 C 0.59902 0.66546 0.22495 0.0
C322 C 0.55359 0.69154 0.22378 0.0
C323 C 0.54366 0.66242 0.20135 0.0
H324 H 0.91053 0.51303 0.60887 0.0
H325 H 0.91713 0.57946 0.50958 0.0
H326 H 0.88564 0.59866 0.55127 0.0
H327 H 0.85868 0.59812 0.61754 0.0
H328 H 0.85591 0.53321 0.71687 0.0
H329 H 0.88402 0.51226 0.67374 0.0
C330 C 0.90539 0.53193 0.59636 0.0
C331 C 0.91663 0.54514 0.55639 0.0
C332 C 0.88816 0.54327 0.62067 0.0
C333 C 0.90865 0.5688 0.54023 0.0
C334 C 0.89094 0.57998 0.56419 0.0
C335 C 0.86449 0.57959 0.62974 0.0
C336 C 0.85499 0.56717 0.67039 0.0
C337 C 0.88106 0.56774 0.60472 0.0
C338 C 0.8623 0.54281 0.68559 0.0
C339 C 0.87857 0.5309 0.661 0.0
H340 H 0.44921 0.89079 0.12095 0.0
H341 H 0.46499 0.98731 0.15 0.0
H342 H 0.42315 0.95982 0.20827 0.0
H343 H 0.37951 0.90781 0.24884 0.0
H344 H 0.36401 0.81137 0.21997 0.0
H345 H 0.40846 0.83947 0.16406 0.0
C346 C 0.44377 0.90604 0.14008 0.0
C347 C 0.46037 0.94135 0.13054 0.0
C348 C 0.41956 0.88994 0.17363 0.0
C349 C 0.45292 0.96033 0.15625 0.0
C350 C 0.42879 0.94449 0.1896 0.0
C351 C 0.38594 0.8928 0.2306 0.0
C352 C 0.36795 0.85716 0.23888 0.0
C353 C 0.41156 0.90922 0.19828 0.0
C354 C 0.37718 0.8386 0.21473 0.0
C355 C 0.40258 0.85474 0.18252 0.0
H356 H 0.52119 0.42511 0.59776 0.0
H357 H 0.44801 0.34943 0.51181 0.0
H358 H 0.44141 0.30417 0.55822 0.0
H359 H 0.45366 0.28609 0.62491 0.0
H360 H 0.52637 0.36197 0.7108 0.0
H361 H 0.53654 0.40734 0.66228 0.0
C362 C 0.50442 0.39884 0.58863 0.0
C363 C 0.48494 0.39073 0.5513 0.0
C364 C 0.50049 0.37298 0.61563 0.0
C365 C 0.46293 0.35636 0.54052 0.0
C366 C 0.45916 0.33048 0.56705 0.0
C367 C 0.47162 0.31254 0.63303 0.0
C368 C 0.48896 0.32061 0.67157 0.0
C369 C 0.47718 0.33847 0.60505 0.0
C370 C 0.51284 0.35506 0.68129 0.0
C371 C 0.51854 0.38101 0.65362 0.0
H372 H 0.56614 0.92248 0.47287 0.0
H373 H 0.62648 1.00497 0.38413 0.0
H374 H 0.63313 0.96775 0.34127 0.0
H375 H 0.62565 0.91306 0.32931 0.0
H376 H 0.56299 0.82817 0.4134 0.0
H377 H 0.55277 0.86445 0.45661 0.0
C378 C 0.58045 0.93233 0.44405 0.0
C379 C 0.59674 0.96741 0.43304 0.0
C380 C 0.58373 0.91014 0.41823 0.0
C381 C 0.61473 0.97894 0.39495 0.0
C382 C 0.61833 0.9574 0.36981 0.0
C383 C 0.60929 0.90225 0.35685 0.0
C384 C 0.59523 0.86786 0.36802 0.0
C385 C 0.60359 0.92322 0.38135 0.0
C386 C 0.5739 0.85439 0.40372 0.0
C387 C 0.56837 0.87533 0.42866 0.0
H388 H 0.6736 0.62198 1.01168 0.0
H389 H 0.58007 0.561 0.93314 0.0
H390 H 0.62119 0.57502 0.8755 0.0
H391 H 0.6836 0.59662 0.85074 0.0
H392 H 0.77688 0.65519 0.93012 0.0
H393 H 0.73607 0.65067 0.98392 0.0
C394 C 0.66214 0.61233 0.98176 0.0
C395 C 0.62386 0.58988 0.97695 0.0
C396 C 0.68596 0.61976 0.94902 0.0
C397 C 0.60943 0.57809 0.93782 0.0
C398 C 0.63295 0.5859 0.90487 0.0
C399 C 0.69493 0.60878 0.87966 0.0
C400 C 0.73304 0.62563 0.88682 0.0
C401 C 0.67124 0.6054 0.91065 0.0
C402 C 0.74763 0.64204 0.92394 0.0
C403 C 0.72427 0.63921 0.9548 0.0
H404 H 0.1502 0.584 0.45537 0.0
H405 H 0.08811 0.61989 0.51092 0.0
H406 H 0.12576 0.67496 0.47519 0.0
H407 H 0.17446 0.71254 0.42629 0.0
H408 H 0.23719 0.67799 0.36957 0.0
H409 H 0.20137 0.62318 0.40759 0.0
C410 C 0.14507 0.60394 0.4601 0.0
C411 C 0.11598 0.59732 0.48629 0.0
C412 C 0.16691 0.63592 0.43891 0.0
C413 C 0.11002 0.62379 0.49138 0.0
C414 C 0.1316 0.65545 0.47073 0.0
C415 C 0.1806 0.69319 0.42211 0.0
C416 C 0.20874 0.69977 0.3946 0.0
C417 C 0.15981 0.66171 0.44408 0.0
C418 C 0.21596 0.67403 0.39028 0.0
C419 C 0.19531 0.64254 0.41209 0.0
H420 H 0.41906 0.03337 0.95429 0.0
H421 H 0.50702 0.04804 0.87867 0.0
H422 H 0.50866 0.09546 0.84172 0.0
H423 H 0.48799 0.13499 0.83443 0.0
H424 H 0.40258 0.12259 0.9131 0.0
H425 H 0.3964 0.07155 0.94477 0.0
C426 C 0.43793 0.04644 0.92907 0.0
C427 C 0.46278 0.03718 0.91897 0.0
C428 C 0.43936 0.07424 0.90882 0.0
C429 C 0.48768 0.0548 0.88683 0.0
C430 C 0.48868 0.08193 0.86589 0.0
C431 C 0.46817 0.12134 0.85866 0.0
C432 C 0.44612 0.13302 0.87162 0.0
C433 C 0.46526 0.09238 0.8773 0.0
C434 C 0.41984 0.11424 0.90233 0.0
C435 C 0.4164 0.08509 0.92064 0.0
H436 H 0.38253 0.51425 0.49303 0.0
H437 H 0.46362 0.52326 0.41007 0.0
H438 H 0.42631 0.52134 0.35184 0.0
H439 H 0.36776 0.51166 0.32385 0.0
H440 H 0.28833 0.50692 0.40528 0.0
H441 H 0.32769 0.51309 0.46415 0.0
C442 C 0.39231 0.51632 0.46221 0.0
C443 C 0.42601 0.51867 0.45633 0.0
C444 C 0.37086 0.51598 0.42832 0.0
C445 C 0.43809 0.52155 0.41593 0.0
C446 C 0.41659 0.5203 0.38239 0.0
C447 C 0.35961 0.51307 0.35442 0.0
C448 C 0.32527 0.50933 0.35997 0.0
C449 C 0.38262 0.51689 0.38812 0.0
C450 C 0.31488 0.51054 0.39991 0.0
C451 C 0.33727 0.51363 0.43369 0.0
H452 H 0.03179 0.44726 0.88378 0.0
H453 H 0.97312 0.41888 0.99817 0.0
H454 H 0.93699 0.35963 0.97894 0.0
H455 H 0.91789 0.31642 0.92716 0.0
H456 H 0.97643 0.34358 0.81337 0.0
H457 H 1.01754 0.40237 0.83525 0.0
C458 C 1.01159 0.4281 0.90481 0.0
C459 C 1.00466 0.43794 0.94192 0.0
C460 C 0.99094 0.3937 0.89375 0.0
C461 C 0.97832 0.41251 0.96879 0.0
C462 C 0.95777 0.37841 0.95802 0.0
C463 C 0.94023 0.33516 0.90768 0.0
C464 C 0.94427 0.32585 0.86892 0.0
C465 C 0.96321 0.36886 0.92021 0.0
C466 C 0.97318 0.35013 0.84365 0.0
C467 C 0.99637 0.38381 0.85596 0.0
H468 H 0.92699 0.51387 0.90276 0.0
H469 H 0.92587 0.55357 1.01909 0.0
H470 H 0.8747 0.55876 0.99527 0.0
H471 H 0.83351 0.5564 0.93913 0.0
H472 H 0.83421 0.51534 0.82352 0.0
H473 H 0.88183 0.5061 0.8494 0.0
C474 C 0.91532 0.52329 0.92324 0.0
C475 C 0.93072 0.53349 0.96283 0.0
C476 C 0.88578 0.52614 0.90925 0.0
C477 C 0.91475 0.54534 0.98872 0.0
C478 C 0.88555 0.54853 0.9749 0.0
C479 C 0.84364 0.54496 0.91967 0.0
C480 C 0.82999 0.53673 0.87907 0.0
C481 C 0.87128 0.53965 0.93491 0.0
C482 C 0.84369 0.52182 0.85474 0.0
C483 C 0.87124 0.51672 0.86953 0.0
H484 H 0.4564 0.93031 0.52179 0.0
H485 H 0.44319 1.01409 0.49285 0.0
H486 H 0.38577 0.97587 0.45673 0.0
H487 H 0.34298 0.9201 0.42714 0.0
H488 H 0.35761 0.83689 0.45309 0.0
H489 H 0.41075 0.87332 0.49644 0.0
C490 C 0.44052 0.94002 0.50832 0.0
C491 C 0.45405 0.97497 0.50989 0.0
C492 C 0.40806 0.91808 0.48649 0.0
C493 C 0.43341 0.98728 0.49188 0.0
C494 C 0.40063 0.96548 0.4711 0.0
C495 C 0.35735 0.90977 0.44292 0.0
C496 C 0.34655 0.87593 0.43661 0.0
C497 C 0.38823 0.93104 0.46725 0.0
C498 C 0.36577 0.86303 0.45692 0.0
C499 C 0.39606 0.88381 0.48183 0.0
H500 H 0.58734 0.42019 0.97749 0.0
H501 H 0.47991 0.40561 0.96646 0.0
H502 H 0.4624 0.36255 0.91563 0.0
H503 H 0.47648 0.32816 0.87477 0.0
H504 H 0.58302 0.34108 0.885 0.0
H505 H 0.60166 0.38526 0.93564 0.0
C506 C 0.55998 0.40754 0.9643 0.0
C507 C 0.5351 0.41667 0.97634 0.0
C508 C 0.54981 0.38229 0.93476 0.0
C509 C 0.49998 0.39987 0.95794 0.0
C510 C 0.48979 0.37493 0.92883 0.0
C511 C 0.50391 0.34053 0.88789 0.0
C512 C 0.52823 0.33093 0.87574 0.0
C513 C 0.51437 0.36587 0.91703 0.0
C514 C 0.56361 0.34767 0.89344 0.0
C515 C 0.57425 0.37301 0.92255 0.0
H516 H 0.03057 0.40036 0.45733 0.0
H517 H 0.038 0.48155 0.38183 0.0
H518 H 0.07834 0.47764 0.33441 0.0
H519 H 0.1165 0.45557 0.31895 0.0
H520 H 0.1131 0.37725 0.39657 0.0
H521 H 0.06505 0.37459 0.43817 0.0
C522 C 0.04033 0.41656 0.42995 0.0
C523 C 0.03159 0.44136 0.42303 0.0
C524 C 0.0643 0.41476 0.40354 0.0
C525 C 0.04475 0.46256 0.3878 0.0
C526 C 0.06775 0.46032 0.36081 0.0
C527 C 0.10517 0.43786 0.34496 0.0
C528 C 0.1188 0.41717 0.35537 0.0
C529 C 0.07861 0.4373 0.36915 0.0
C530 C 0.10306 0.39349 0.38818 0.0
C531 C 0.07585 0.39219 0.41205 0.0
H532 H 0.67532 0.10142 0.99514 0.0
H533 H 0.57787 0.10006 0.95936 0.0
H534 H 0.61356 0.14582 0.90843 0.0
H535 H 0.67202 0.18359 0.87003 0.0
H536 H 0.76979 0.18663 0.90927 0.0
H537 H 0.73469 0.14343 0.96251 0.0
C538 C 0.6619 0.11147 0.97671 0.0
C539 C 0.62365 0.09686 0.98124 0.0
C540 C 0.68278 0.13814 0.94759 0.0
C541 C 0.6071 0.1106 0.95696 0.0
C542 C 0.62756 0.13674 0.92749 0.0
C543 C 0.68578 0.17512 0.89051 0.0
C544 C 0.72377 0.18851 0.88507 0.0
C545 C 0.66533 0.1503 0.92187 0.0
C546 C 0.74085 0.17713 0.91239 0.0
C547 C 0.72066 0.15218 0.94292 0.0
H548 H 0.60345 0.63897 0.48019 0.0
H549 H 0.64684 0.61443 0.37917 0.0
H550 H 0.67593 0.67289 0.35229 0.0
H551 H 0.68252 0.72907 0.35324 0.0
H552 H 0.63636 0.75134 0.45281 0.0
H553 H 0.61567 0.69574 0.48535 0.0
C554 C 0.61976 0.64608 0.45278 0.0
C555 C 0.62202 0.62155 0.43148 0.0
C556 C 0.63611 0.6796 0.43729 0.0
C557 C 0.64364 0.63221 0.39587 0.0
C558 C 0.66051 0.6658 0.3805 0.0
C559 C 0.66904 0.722 0.38273 0.0
C560 C 0.66119 0.74412 0.40109 0.0
C561 C 0.65602 0.68945 0.40034 0.0
C562 C 0.64286 0.73462 0.43866 0.0
C563 C 0.63082 0.70282 0.45694 0.0
H564 H 0.60998 0.16318 0.64405 0.0
H565 H 0.49847 0.08606 0.6103 0.0
H566 H 0.4753 0.11258 0.65188 0.0
H567 H 0.48589 0.15751 0.69692 0.0
H568 H 0.59648 0.23568 0.73165 0.0
H569 H 0.62066 0.20904 0.69046 0.0
C570 C 0.58062 0.15223 0.64548 0.0
C571 C 0.5561 0.12228 0.62368 0.0
C572 C 0.56723 0.16787 0.66969 0.0
C573 C 0.51811 0.10856 0.62679 0.0
C574 C 0.50477 0.12391 0.65052 0.0
C575 C 0.5154 0.16898 0.69569 0.0
C576 C 0.53925 0.19888 0.71757 0.0
C577 C 0.52899 0.15353 0.67202 0.0
C578 C 0.57734 0.21285 0.71532 0.0
C579 C 0.59116 0.19755 0.69165 0.0
H580 H 0.44898 0.48484 0.16293 0.0
H581 H 0.41479 0.47766 0.03695 0.0
H582 H 0.35688 0.4707 0.05825 0.0
H583 H 0.31627 0.46708 0.11345 0.0
H584 H 0.35398 0.47894 0.23838 0.0
H585 H 0.41045 0.48386 0.21689 0.0
C586 C 0.42871 0.48144 0.1401 0.0
C587 C 0.43575 0.48119 0.09849 0.0
C588 C 0.39631 0.47856 0.15248 0.0
C589 C 0.40975 0.47769 0.06919 0.0
C590 C 0.37674 0.47375 0.08138 0.0
C591 C 0.33696 0.47071 0.13575 0.0
C592 C 0.33113 0.47262 0.17739 0.0
C593 C 0.36975 0.4742 0.12299 0.0
C594 C 0.35815 0.47772 0.20617 0.0
C595 C 0.39028 0.48034 0.19392 0.0
H596 H 0.99317 0.427 0.67754 0.0
H597 H 0.92476 0.44984 0.60371 0.0
H598 H 0.87007 0.40479 0.6399 0.0
H599 H 0.84053 0.35518 0.68892 0.0
H600 H 0.90916 0.33625 0.76801 0.0
H601 H 0.96429 0.38322 0.73418 0.0
C602 C 0.96637 0.42255 0.66991 0.0
C603 C 0.96336 0.44196 0.63764 0.0
C604 C 0.93477 0.39696 0.69181 0.0
C605 C 0.92823 0.4357 0.62844 0.0
C606 C 0.89674 0.40965 0.64903 0.0
C607 C 0.86759 0.36181 0.69932 0.0
C608 C 0.87044 0.34199 0.73112 0.0
C609 C 0.89949 0.38961 0.68026 0.0
C610 C 0.9059 0.3511 0.74404 0.0
C611 C 0.93757 0.37789 0.72437 0.0
H612 H 0.57218 0.94359 0.12033 0.0
H613 H 0.60853 0.91928 1.01294 0.0
H614 H 0.63272 0.89168 0.05613 0.0
H615 H 0.64178 0.8731 0.12482 0.0
H616 H 0.60615 0.89939 0.23108 0.0
H617 H 0.58411 0.92838 0.18776 0.0
C618 C 0.58602 0.93297 0.10613 0.0
C619 C 0.58866 0.93377 0.06332 0.0
C620 C 0.6 0.91748 0.13103 0.0
C621 C 0.60581 0.9188 0.04576 0.0
C622 C 0.61983 0.90318 0.07047 0.0
C623 C 0.6297 0.88564 0.1384 0.0
C624 C 0.62529 0.88385 0.18106 0.0
C625 C 0.61689 0.90221 0.11319 0.0
C626 C 0.60926 0.89992 0.1983 0.0
C627 C 0.59676 0.91658 0.17357 0.0
H628 H 0.55624 0.47764 0.65256 0.0
H629 H 0.59829 0.58018 0.60643 0.0
H630 H 0.65411 0.60101 0.64748 0.0
H631 H 0.69217 0.59033 0.69427 0.0
H632 H 0.65217 0.48809 0.73969 0.0
H633 H 0.59458 0.46705 0.70112 0.0
C634 C 0.57736 0.50466 0.65182 0.0
C635 C 0.57256 0.52732 0.62633 0.0
C636 C 0.61003 0.5165 0.67516 0.0
C637 C 0.60078 0.5621 0.62563 0.0
C638 C 0.6329 0.57404 0.64909 0.0
C639 C 0.67095 0.56336 0.69604 0.0
C640 C 0.67695 0.54088 0.72014 0.0
C641 C 0.63802 0.55148 0.6736 0.0
C642 C 0.6487 0.50608 0.72161 0.0
C643 C 0.61565 0.49405 0.69947 0.0
H644 H 0.10373 0.63336 0.11978 0.0
H645 H 0.13602 0.71308 0.02771 0.0
H646 H 0.17035 0.75623 0.07939 0.0
H647 H 0.19174 0.77089 0.15098 0.0
H648 H 0.1576 0.69001 0.2419 0.0
H649 H 0.12264 0.64755 0.19039 0.0
C650 C 0.11756 0.66011 0.11091 0.0
C651 C 0.11683 0.6699 0.06987 0.0
C652 C 0.13688 0.68455 0.14067 0.0
C653 C 0.13621 0.70483 0.05901 0.0
C654 C 0.15566 0.72948 0.0886 0.0
C655 C 0.17618 0.744 0.15956 0.0
C656 C 0.17735 0.73361 0.20026 0.0
C657 C 0.1562 0.71961 0.12958 0.0
C658 C 0.15749 0.69863 0.21076 0.0
C659 C 0.13744 0.67435 0.18134 0.0
loop_
_geom_bond_atom_site_label_1
_geom_bond_atom_site_label_2
_geom_bond_distance
_geom_bond_site_symmetry_2
_ccdc_geom_bond_type
Cu0 N1 1.999 1_454 S
Cu0 O6 1.974 1_454 S
Cu0 N11 1.985 . S
Cu0 O20 1.959 . S
N1 Cu0 1.999 1_656 S
N1 C3 1.263 . S
N1 C5 1.389 1_556 S
N2 C3 1.358 . S
N2 C4 1.400 . S
C3 N1 1.263 . S
C3 N2 1.358 . S
C3 H9 0.930 . S
C4 N2 1.400 . S
C4 C5 1.351 1_556 S
C4 H21 0.930 . S
C5 N1 1.389 1_554 S
C5 C4 1.351 1_554 S
C5 H10 0.930 . S
O6 Cu0 1.974 1_656 S
O6 C16 1.282 . S
C7 O8 1.259 . S
C7 O20 1.251 . S
O8 C7 1.259 . S
H9 C3 0.930 . S
H10 C5 0.930 . S
N11 Cu0 1.985 . S
N11 C13 1.335 . S
N11 C14 1.390 . S
N12 C13 1.345 . S
N12 C15 1.336 . S
C13 N11 1.335 . S
C13 N12 1.345 . S
C13 H18 0.930 . S
C14 N11 1.390 . S
C14 C15 1.346 . S
C14 H19 0.930 1_554 S
C15 N12 1.336 . S
C15 C14 1.346 . S
C15 H22 0.929 . S
C16 O6 1.282 . S
C16 O17 1.216 1_655 S
O17 C16 1.216 1_455 S
H18 C13 0.930 . S
H19 C14 0.930 1_556 S
O20 Cu0 1.959 . S
O20 C7 1.251 . S
H21 C4 0.930 . S
H22 C15 0.929 . S
Cu23 N24 1.999 . S
Cu23 O29 1.974 . S
Cu23 N34 1.985 1_565 S
Cu23 O43 1.959 1_565 S
N24 Cu23 1.999 . S
N24 C26 1.263 . S
N24 C28 1.389 . S
N25 C26 1.358 . S
N25 C27 1.400 . S
C26 N24 1.263 . S
C26 N25 1.358 . S
C26 H32 0.930 . S
C27 N25 1.400 . S
C27 C28 1.351 . S
C27 H44 0.930 . S
C28 N24 1.389 . S
C28 C27 1.351 . S
C28 H33 0.930 . S
O29 Cu23 1.974 . S
O29 C39 1.282 . S
C30 O31 1.261 . S
C30 O43 1.251 . S
O31 C30 1.261 . S
H32 C26 0.930 . S
H33 C28 0.930 . S
N34 Cu23 1.985 1_545 S
N34 C36 1.335 . S
N34 C37 1.390 . S
N35 C36 1.345 . S
N35 C38 1.336 . S
C36 N34 1.335 . S
C36 N35 1.345 . S
C36 H41 0.930 . S
C37 N34 1.390 . S
C37 C38 1.346 . S
C37 H42 0.930 . S
C38 N35 1.336 . S
C38 C37 1.346 . S
C38 H45 0.929 . S
C39 O29 1.282 . S
C39 O40 1.216 1_565 S
O40 C39 1.216 1_545 S
H41 C36 0.930 . S
H42 C37 0.930 . S
O43 Cu23 1.959 1_545 S
O43 C30 1.251 . S
H44 C27 0.930 . S
H45 C38 0.929 . S
Cu46 N47 1.999 1_554 S
Cu46 O52 1.974 1_554 S
Cu46 N57 1.985 . S
Cu46 O66 1.959 . S
N47 Cu46 1.999 1_556 S
N47 C49 1.263 . S
N47 C51 1.389 . S
N48 C49 1.358 . S
N48 C50 1.400 . S
C49 N47 1.263 . S
C49 N48 1.358 . S
C49 H55 0.930 . S
C50 N48 1.400 . S
C50 C51 1.351 . S
C50 H67 0.930 . S
C51 N47 1.389 . S
C51 C50 1.351 . S
C51 H56 0.930 . S
O52 Cu46 1.974 1_556 S
O52 C62 1.282 . S
C53 O54 1.261 . S
C53 O66 1.251 . S
O54 C53 1.261 . S
H55 C49 0.930 . S
H56 C51 0.930 . S
N57 Cu46 1.985 . S
N57 C59 1.335 . S
N57 C60 1.390 . S
N58 C59 1.345 . S
N58 C61 1.336 . S
C59 N57 1.335 . S
C59 N58 1.345 . S
C59 H64 0.930 . S
C60 N57 1.390 . S
C60 C61 1.346 . S
C60 H65 0.930 . S
C61 N58 1.336 . S
C61 C60 1.346 . S
C61 H68 0.929 . S
C62 O52 1.282 . S
C62 O63 1.216 1_556 S
O63 C62 1.216 1_554 S
H64 C59 0.930 . S
H65 C60 0.930 . S
O66 Cu46 1.959 . S
O66 C53 1.251 . S
H67 C50 0.930 . S
H68 C61 0.929 . S
Cu69 N70 1.999 1_655 S
Cu69 O75 1.974 1_655 S
Cu69 N80 1.985 . S
Cu69 O89 1.959 . S
N70 Cu69 1.999 1_455 S
N70 C72 1.263 . S
N70 C74 1.389 1_455 S
N71 C72 1.358 . S
N71 C73 1.400 . S
C72 N70 1.263 . S
C72 N71 1.358 . S
C72 H78 0.930 . S
C73 N71 1.400 . S
C73 C74 1.351 1_455 S
C73 H90 0.930 . S
C74 N70 1.389 1_655 S
C74 C73 1.351 1_655 S
C74 H79 0.930 . S
O75 Cu69 1.974 1_455 S
O75 C85 1.282 . S
C76 O77 1.261 1_655 S
C76 O89 1.251 . S
O77 C76 1.261 1_455 S
H78 C72 0.930 . S
H79 C74 0.930 . S
N80 Cu69 1.985 . S
N80 C82 1.335 . S
N80 C83 1.390 . S
N81 C82 1.345 . S
N81 C84 1.336 . S
C82 N80 1.335 . S
C82 N81 1.345 . S
C82 H87 0.930 . S
C83 N80 1.390 . S
C83 C84 1.346 . S
C83 H88 0.930 1_655 S
C84 N81 1.336 . S
C84 C83 1.346 . S
C84 H91 0.929 . S
C85 O75 1.282 . S
C85 O86 1.216 . S
O86 C85 1.216 . S
H87 C82 0.930 . S
H88 C83 0.930 1_455 S
O89 Cu69 1.959 . S
O89 C76 1.251 . S
H90 C73 0.930 . S
H91 C84 0.929 . S
Cu92 N93 1.999 . S
Cu92 O98 1.974 1_554 S
Cu92 N103 1.985 1_545 S
Cu92 O112 1.959 1_545 S
N93 Cu92 1.999 . S
N93 C95 1.263 1_554 S
N93 C97 1.389 . S
N94 C95 1.358 . S
N94 C96 1.400 . S
C95 N93 1.263 1_556 S
C95 N94 1.358 . S
C95 H101 0.930 . S
C96 N94 1.400 . S
C96 C97 1.351 1_556 S
C96 H113 0.930 1_556 S
C97 N93 1.389 . S
C97 C96 1.351 1_554 S
C97 H102 0.930 . S
O98 Cu92 1.974 1_556 S
O98 C108 1.282 . S
C99 O100 1.261 . S
C99 O112 1.251 . S
O100 C99 1.261 . S
H101 C95 0.930 . S
H102 C97 0.930 . S
N103 Cu92 1.985 1_565 S
N103 C105 1.335 . S
N103 C106 1.390 . S
N104 C105 1.345 . S
N104 C107 1.336 . S
C105 N103 1.335 . S
C105 N104 1.345 . S
C105 H110 0.930 . S
C106 N103 1.390 . S
C106 C107 1.346 . S
C106 H111 0.930 . S
C107 N104 1.336 . S
C107 C106 1.346 . S
C107 H114 0.929 . S
C108 O98 1.282 . S
C108 O109 1.216 . S
O109 C108 1.216 . S
H110 C105 0.930 . S
H111 C106 0.930 . S
O112 Cu92 1.959 1_565 S
O112 C99 1.251 . S
H113 C96 0.930 1_554 S
H114 C107 0.929 . S
Cu115 N116 1.999 . S
Cu115 O121 1.974 . S
Cu115 N126 1.985 . S
Cu115 O135 1.959 . S
N116 Cu115 1.999 . S
N116 C118 1.263 . S
N116 C120 1.389 . S
N117 C118 1.358 . S
N117 C119 1.400 . S
C118 N116 1.263 . S
C118 N117 1.358 . S
C118 H124 0.930 . S
C119 N117 1.400 . S
C119 C120 1.351 . S
C119 H136 0.930 . S
C120 N116 1.389 . S
C120 C119 1.351 . S
C120 H125 0.930 . S
O121 Cu115 1.974 . S
O121 C131 1.282 . S
C122 O123 1.261 . S
C122 O135 1.251 . S
O123 C122 1.261 . S
H124 C118 0.930 . S
H125 C120 0.930 . S
N126 Cu115 1.985 . S
N126 C128 1.335 . S
N126 C129 1.390 . S
N127 C128 1.345 . S
N127 C130 1.336 . S
C128 N126 1.335 . S
C128 N127 1.345 . S
C128 H133 0.930 . S
C129 N126 1.390 . S
C129 C130 1.346 . S
C129 H134 0.930 . S
C130 N127 1.336 . S
C130 C129 1.346 . S
C130 H137 0.929 . S
C131 O121 1.282 . S
C131 O132 1.216 . S
O132 C131 1.216 . S
H133 C128 0.930 . S
H134 C129 0.930 . S
O135 Cu115 1.959 . S
O135 C122 1.251 . S
H136 C119 0.930 . S
H137 C130 0.929 . S
Cu138 N139 1.999 . S
Cu138 O144 1.974 . S
Cu138 N149 1.985 . S
Cu138 O158 1.959 . S
N139 Cu138 1.999 . S
N139 C141 1.263 . S
N139 C143 1.389 . S
N140 C141 1.358 . S
N140 C142 1.400 . S
C141 N139 1.263 . S
C141 N140 1.358 . S
C141 H147 0.930 . S
C142 N140 1.400 . S
C142 C143 1.351 . S
C142 H159 0.930 . S
C143 N139 1.389 . S
C143 C142 1.351 . S
C143 H148 0.930 . S
O144 Cu138 1.974 . S
O144 C154 1.282 . S
C145 O146 1.261 . S
C145 O158 1.251 . S
O146 C145 1.261 . S
H147 C141 0.930 . S
H148 C143 0.930 . S
N149 Cu138 1.985 . S
N149 C151 1.335 . S
N149 C152 1.390 . S
N150 C151 1.345 . S
N150 C153 1.336 . S
C151 N149 1.335 . S
C151 N150 1.345 . S
C151 H156 0.930 . S
C152 N149 1.390 . S
C152 C153 1.346 . S
C152 H157 0.930 . S
C153 N150 1.336 . S
C153 C152 1.346 . S
C153 H160 0.929 . S
C154 O144 1.282 . S
C154 O155 1.216 . S
O155 C154 1.216 . S
H156 C151 0.930 . S
H157 C152 0.930 . S
O158 Cu138 1.959 . S
O158 C145 1.251 . S
H159 C142 0.930 . S
H160 C153 0.929 . S
Cu161 N162 1.999 . S
Cu161 O167 1.974 . S
Cu161 N172 1.985 . S
Cu161 O181 1.959 . S
N162 Cu161 1.999 . S
N162 C164 1.263 . S
N162 C166 1.389 . S
N163 C164 1.358 . S
N163 C165 1.400 . S
C164 N162 1.263 . S
C164 N163 1.358 . S
C164 H170 0.930 . S
C165 N163 1.400 . S
C165 C166 1.351 . S
C165 H182 0.930 . S
C166 N162 1.389 . S
C166 C165 1.351 . S
C166 H171 0.930 . S
O167 Cu161 1.974 . S
O167 C177 1.282 . S
C168 O169 1.261 . S
C168 O181 1.251 . S
O169 C168 1.261 . S
H170 C164 0.930 . S
H171 C166 0.930 . S
N172 Cu161 1.985 . S
N172 C174 1.335 . S
N172 C175 1.390 . S
N173 C174 1.345 . S
N173 C176 1.336 . S
C174 N172 1.335 . S
C174 N173 1.345 . S
C174 H179 0.930 . S
C175 N172 1.390 . S
C175 C176 1.346 . S
C175 H180 0.930 . S
C176 N173 1.336 . S
C176 C175 1.346 . S
C176 H183 0.929 . S
C177 O167 1.282 . S
C177 O178 1.216 . S
O178 C177 1.216 . S
H179 C174 0.930 . S
H180 C175 0.930 . S
O181 Cu161 1.959 . S
O181 C168 1.251 . S
H182 C165 0.930 . S
H183 C176 0.929 . S
Cu184 N185 1.999 . S
Cu184 O190 1.974 . S
Cu184 N195 1.985 . S
Cu184 O204 1.959 . S
N185 Cu184 1.999 . S
N185 C187 1.263 . S
N185 C189 1.389 . S
N186 C187 1.358 . S
N186 C188 1.400 . S
C187 N185 1.263 . S
C187 N186 1.358 . S
C187 H193 0.930 . S
C188 N186 1.400 . S
C188 C189 1.351 . S
C188 H205 0.930 . S
C189 N185 1.389 . S
C189 C188 1.351 . S
C189 H194 0.930 . S
O190 Cu184 1.974 . S
O190 C200 1.282 . S
C191 O192 1.261 . S
C191 O204 1.251 . S
O192 C191 1.261 . S
H193 C187 0.930 . S
H194 C189 0.930 . S
N195 Cu184 1.985 . S
N195 C197 1.335 . S
N195 C198 1.390 . S
N196 C197 1.345 . S
N196 C199 1.336 . S
C197 N195 1.335 . S
C197 N196 1.345 . S
C197 H202 0.930 . S
C198 N195 1.390 . S
C198 C199 1.346 . S
C198 H203 0.930 . S
C199 N196 1.336 . S
C199 C198 1.346 . S
C199 H206 0.929 . S
C200 O190 1.282 . S
C200 O201 1.216 . S
O201 C200 1.216 . S
H202 C197 0.930 . S
H203 C198 0.930 . S
O204 Cu184 1.959 . S
O204 C191 1.251 . S
H205 C188 0.930 . S
H206 C199 0.929 . S
Cu207 N208 1.999 . S
Cu207 O213 1.974 . S
Cu207 N218 1.985 . S
Cu207 O227 1.959 . S
N208 Cu207 1.999 . S
N208 C210 1.263 . S
N208 C212 1.389 . S
N209 C210 1.358 . S
N209 C211 1.400 . S
C210 N208 1.263 . S
C210 N209 1.358 . S
C210 H216 0.930 . S
C211 N209 1.400 . S
C211 C212 1.351 . S
C211 H228 0.930 . S
C212 N208 1.389 . S
C212 C211 1.351 . S
C212 H217 0.930 . S
O213 Cu207 1.974 . S
O213 C223 1.282 . S
C214 O215 1.261 . S
C214 O227 1.251 . S
O215 C214 1.261 . S
H216 C210 0.930 . S
H217 C212 0.930 . S
N218 Cu207 1.985 . S
N218 C220 1.335 . S
N218 C221 1.390 . S
N219 C220 1.345 . S
N219 C222 1.336 . S
C220 N218 1.335 . S
C220 N219 1.345 . S
C220 H225 0.930 . S
C221 N218 1.390 . S
C221 C222 1.346 . S
C221 H226 0.930 . S
C222 N219 1.336 . S
C222 C221 1.346 . S
C222 H229 0.929 . S
C223 O213 1.282 . S
C223 O224 1.216 . S
O224 C223 1.216 . S
H225 C220 0.930 . S
H226 C221 0.930 . S
O227 Cu207 1.959 . S
O227 C214 1.251 . S
H228 C211 0.930 . S
H229 C222 0.929 . S
Cu230 N231 1.999 . S
Cu230 O236 1.974 . S
Cu230 N241 1.985 . S
Cu230 O250 1.959 . S
N231 Cu230 1.999 . S
N231 C233 1.263 . S
N231 C235 1.389 . S
N232 C233 1.358 . S
N232 C234 1.400 . S
C233 N231 1.263 . S
C233 N232 1.358 . S
C233 H239 0.930 . S
C234 N232 1.400 . S
C234 C235 1.351 . S
C234 H251 0.930 . S
C235 N231 1.389 . S
C235 C234 1.351 . S
C235 H240 0.930 . S
O236 Cu230 1.974 . S
O236 C246 1.282 . S
C237 O238 1.261 . S
C237 O250 1.251 . S
O238 C237 1.261 . S
H239 C233 0.930 . S
H240 C235 0.930 . S
N241 Cu230 1.985 . S
N241 C243 1.335 . S
N241 C244 1.390 . S
N242 C243 1.345 . S
N242 C245 1.336 . S
C243 N241 1.335 . S
C243 N242 1.345 . S
C243 H248 0.930 . S
C244 N241 1.390 . S
C244 C245 1.346 . S
C244 H249 0.930 . S
C245 N242 1.336 . S
C245 C244 1.346 . S
C245 H252 0.929 . S
C246 O236 1.282 . S
C246 O247 1.216 . S
O247 C246 1.216 . S
H248 C243 0.930 . S
H249 C244 0.930 . S
O250 Cu230 1.959 . S
O250 C237 1.251 . S
H251 C234 0.930 . S
H252 C245 0.929 . S
Cu253 N254 1.999 . S
Cu253 O259 1.974 . S
Cu253 N264 1.985 . S
Cu253 O273 1.959 . S
N254 Cu253 1.999 . S
N254 C256 1.263 . S
N254 C258 1.389 . S
N255 C256 1.358 . S
N255 C257 1.400 . S
C256 N254 1.263 . S
C256 N255 1.358 . S
C256 H262 0.930 . S
C257 N255 1.400 . S
C257 C258 1.351 . S
C257 H274 0.930 . S
C258 N254 1.389 . S
C258 C257 1.351 . S
C258 H263 0.930 . S
O259 Cu253 1.974 . S
O259 C269 1.282 . S
C260 O261 1.261 . S
C260 O273 1.251 . S
O261 C260 1.261 . S
H262 C256 0.930 . S
H263 C258 0.930 . S
N264 Cu253 1.985 . S
N264 C266 1.335 . S
N264 C267 1.390 . S
N265 C266 1.345 . S
N265 C268 1.336 . S
C266 N264 1.335 . S
C266 N265 1.345 . S
C266 H271 0.930 . S
C267 N264 1.390 . S
C267 C268 1.346 . S
C267 H272 0.930 . S
C268 N265 1.336 . S
C268 C267 1.346 . S
C268 H275 0.929 . S
C269 O259 1.282 . S
C269 O270 1.216 . S
O270 C269 1.216 . S
H271 C266 0.930 . S
H272 C267 0.930 . S
O273 Cu253 1.959 . S
O273 C260 1.251 . S
H274 C257 0.930 . S
H275 C268 0.929 . S
H276 C282 0.930 . S
H277 C285 0.930 . S
H278 C286 0.930 . S
H279 C287 0.930 . S
H280 C290 0.930 . S
H281 C291 0.930 . S
C282 H276 0.930 . S
C282 C283 1.355 . S
C282 C284 1.415 . S
C283 C282 1.355 . S
C283 C285 1.419 . S
C284 C282 1.415 . S
C284 C289 1.425 . S
C284 C291 1.409 . S
C285 H277 0.930 . S
C285 C283 1.419 . S
C285 C286 1.362 . S
C286 H278 0.930 . S
C286 C285 1.362 . S
C286 C289 1.409 . S
C287 H279 0.930 . S
C287 C288 1.355 . S
C287 C289 1.415 . S
C288 C287 1.355 . S
C288 C290 1.419 . S
C289 C284 1.425 . S
C289 C286 1.409 . S
C289 C287 1.415 . S
C290 H280 0.930 . S
C290 C288 1.419 . S
C290 C291 1.362 . S
C291 H281 0.930 . S
C291 C284 1.409 . S
C291 C290 1.362 . S
H292 C298 0.930 . S
H293 C301 0.930 . S
H294 C302 0.930 . S
H295 C303 0.930 . S
H296 C306 0.930 . S
H297 C307 0.930 . S
C298 H292 0.930 . S
C298 C299 1.355 . S
C298 C300 1.415 . S
C299 C298 1.355 . S
C299 C301 1.419 . S
C300 C298 1.415 . S
C300 C305 1.425 . S
C300 C307 1.409 . S
C301 H293 0.930 . S
C301 C299 1.419 . S
C301 C302 1.362 . S
C302 H294 0.930 . S
C302 C301 1.362 . S
C302 C305 1.409 . S
C303 H295 0.930 . S
C303 C304 1.355 . S
C303 C305 1.415 . S
C304 C303 1.355 . S
C304 C306 1.419 . S
C305 C300 1.425 . S
C305 C302 1.409 . S
C305 C303 1.415 . S
C306 H296 0.930 . S
C306 C304 1.419 . S
C306 C307 1.362 . S
C307 H297 0.930 . S
C307 C300 1.409 . S
C307 C306 1.362 . S
H308 C314 0.930 . S
H309 C317 0.930 . S
H310 C318 0.930 . S
H311 C319 0.930 . S
H312 C322 0.930 . S
H313 C323 0.930 . S
C314 H308 0.930 . S
C314 C315 1.355 . S
C314 C316 1.415 . S
C315 C314 1.355 . S
C315 C317 1.419 . S
C316 C314 1.415 . S
C316 C321 1.425 . S
C316 C323 1.409 . S
C317 H309 0.930 . S
C317 C315 1.419 . S
C317 C318 1.362 . S
C318 H310 0.930 . S
C318 C317 1.362 . S
C318 C321 1.409 . S
C319 H311 0.930 . S
C319 C320 1.355 . S
C319 C321 1.415 . S
C320 C319 1.355 . S
C320 C322 1.419 . S
C321 C316 1.425 . S
C321 C318 1.409 . S
C321 C319 1.415 . S
C322 H312 0.930 . S
C322 C320 1.419 . S
C322 C323 1.362 . S
C323 H313 0.930 . S
C323 C316 1.409 . S
C323 C322 1.362 . S
H324 C330 0.930 . S
H325 C333 0.930 . S
H326 C334 0.930 . S
H327 C335 0.930 . S
H328 C338 0.930 . S
H329 C339 0.930 . S
C330 H324 0.930 . S
C330 C331 1.355 . S
C330 C332 1.415 . S
C331 C330 1.355 . S
C331 C333 1.419 . S
C332 C330 1.415 . S
C332 C337 1.425 . S
C332 C339 1.409 . S
C333 H325 0.930 . S
C333 C331 1.419 . S
C333 C334 1.362 . S
C334 H326 0.930 . S
C334 C333 1.362 . S
C334 C337 1.409 . S
C335 H327 0.930 . S
C335 C336 1.355 . S
C335 C337 1.415 . S
C336 C335 1.355 . S
C336 C338 1.419 . S
C337 C332 1.425 . S
C337 C334 1.409 . S
C337 C335 1.415 . S
C338 H328 0.930 . S
C338 C336 1.419 . S
C338 C339 1.362 . S
C339 H329 0.930 . S
C339 C332 1.409 . S
C339 C338 1.362 . S
H340 C346 0.930 . S
H341 C349 0.930 . S
H342 C350 0.930 . S
H343 C351 0.930 . S
H344 C354 0.930 . S
H345 C355 0.930 . S
C346 H340 0.930 . S
C346 C347 1.355 . S
C346 C348 1.415 . S
C347 C346 1.355 . S
C347 C349 1.419 . S
C348 C346 1.415 . S
C348 C353 1.425 . S
C348 C355 1.409 . S
C349 H341 0.930 . S
C349 C347 1.419 . S
C349 C350 1.362 . S
C350 H342 0.930 . S
C350 C349 1.362 . S
C350 C353 1.409 . S
C351 H343 0.930 . S
C351 C352 1.355 . S
C351 C353 1.415 . S
C352 C351 1.355 . S
C352 C354 1.419 . S
C353 C348 1.425 . S
C353 C350 1.409 . S
C353 C351 1.415 . S
C354 H344 0.930 . S
C354 C352 1.419 . S
C354 C355 1.362 . S
C355 H345 0.930 . S
C355 C348 1.409 . S
C355 C354 1.362 . S
H356 C362 0.930 . S
H357 C365 0.930 . S
H358 C366 0.930 . S
H359 C367 0.930 . S
H360 C370 0.930 . S
H361 C371 0.930 . S
C362 H356 0.930 . S
C362 C363 1.355 . S
C362 C364 1.415 . S
C363 C362 1.355 . S
C363 C365 1.419 . S
C364 C362 1.415 . S
C364 C369 1.425 . S
C364 C371 1.409 . S
C365 H357 0.930 . S
C365 C363 1.419 . S
C365 C366 1.362 . S
C366 H358 0.930 . S
C366 C365 1.362 . S
C366 C369 1.409 . S
C367 H359 0.930 . S
C367 C368 1.355 . S
C367 C369 1.415 . S
C368 C367 1.355 . S
C368 C370 1.419 . S
C369 C364 1.425 . S
C369 C366 1.409 . S
C369 C367 1.415 . S
C370 H360 0.930 . S
C370 C368 1.419 . S
C370 C371 1.362 . S
C371 H361 0.930 . S
C371 C364 1.409 . S
C371 C370 1.362 . S
H372 C378 0.930 . S
H373 C381 0.930 . S
H374 C382 0.930 . S
H375 C383 0.930 . S
H376 C386 0.930 . S
H377 C387 0.930 . S
C378 H372 0.930 . S
C378 C379 1.355 . S
C378 C380 1.415 . S
C379 C378 1.355 . S
C379 C381 1.419 . S
C380 C378 1.415 . S
C380 C385 1.425 . S
C380 C387 1.409 . S
C381 H373 0.930 . S
C381 C379 1.419 . S
C381 C382 1.362 . S
C382 H374 0.930 . S
C382 C381 1.362 . S
C382 C385 1.409 . S
C383 H375 0.930 . S
C383 C384 1.355 . S
C383 C385 1.415 . S
C384 C383 1.355 . S
C384 C386 1.419 . S
C385 C380 1.425 . S
C385 C382 1.409 . S
C385 C383 1.415 . S
C386 H376 0.930 . S
C386 C384 1.419 . S
C386 C387 1.362 . S
C387 H377 0.930 . S
C387 C380 1.409 . S
C387 C386 1.362 . S
H388 C394 0.930 . S
H389 C397 0.930 . S
H390 C398 0.930 . S
H391 C399 0.930 . S
H392 C402 0.930 . S
H393 C403 0.930 . S
C394 H388 0.930 . S
C394 C395 1.355 . S
C394 C396 1.415 . S
C395 C394 1.355 . S
C395 C397 1.419 . S
C396 C394 1.415 . S
C396 C401 1.425 . S
C396 C403 1.409 . S
C397 H389 0.930 . S
C397 C395 1.419 . S
C397 C398 1.362 . S
C398 H390 0.930 . S
C398 C397 1.362 . S
C398 C401 1.409 . S
C399 H391 0.930 . S
C399 C400 1.355 . S
C399 C401 1.415 . S
C400 C399 1.355 . S
C400 C402 1.419 . S
C401 C396 1.425 . S
C401 C398 1.409 . S
C401 C399 1.415 . S
C402 H392 0.930 . S
C402 C400 1.419 . S
C402 C403 1.362 . S
C403 H393 0.930 . S
C403 C396 1.409 . S
C403 C402 1.362 . S
H404 C410 0.930 . S
H405 C413 0.930 . S
H406 C414 0.930 . S
H407 C415 0.930 . S
H408 C418 0.930 . S
H409 C419 0.930 . S
C410 H404 0.930 . S
C410 C411 1.355 . S
C410 C412 1.415 . S
C411 C410 1.355 . S
C411 C413 1.419 . S
C412 C410 1.415 . S
C412 C417 1.425 . S
C412 C419 1.409 . S
C413 H405 0.930 . S
C413 C411 1.419 . S
C413 C414 1.362 . S
C414 H406 0.930 . S
C414 C413 1.362 . S
C414 C417 1.409 . S
C415 H407 0.930 . S
C415 C416 1.355 . S
C415 C417 1.415 . S
C416 C415 1.355 . S
C416 C418 1.419 . S
C417 C412 1.425 . S
C417 C414 1.409 . S
C417 C415 1.415 . S
C418 H408 0.930 . S
C418 C416 1.419 . S
C418 C419 1.362 . S
C419 H409 0.930 . S
C419 C412 1.409 . S
C419 C418 1.362 . S
H420 C426 0.930 . S
H421 C429 0.930 . S
H422 C430 0.930 . S
H423 C431 0.930 . S
H424 C434 0.930 . S
H425 C435 0.930 . S
C426 H420 0.930 . S
C426 C427 1.355 . S
C426 C428 1.415 . S
C427 C426 1.355 . S
C427 C429 1.419 . S
C428 C426 1.415 . S
C428 C433 1.425 . S
C428 C435 1.409 . S
C429 H421 0.930 . S
C429 C427 1.419 . S
C429 C430 1.362 . S
C430 H422 0.930 . S
C430 C429 1.362 . S
C430 C433 1.409 . S
C431 H423 0.930 . S
C431 C432 1.355 . S
C431 C433 1.415 . S
C432 C431 1.355 . S
C432 C434 1.419 . S
C433 C428 1.425 . S
C433 C430 1.409 . S
C433 C431 1.415 . S
C434 H424 0.930 . S
C434 C432 1.419 . S
C434 C435 1.362 . S
C435 H425 0.930 . S
C435 C428 1.409 . S
C435 C434 1.362 . S
H436 C442 0.930 . S
H437 C445 0.930 . S
H438 C446 0.930 . S
H439 C447 0.930 . S
H440 C450 0.930 . S
H441 C451 0.930 . S
C442 H436 0.930 . S
C442 C443 1.355 . S
C442 C444 1.415 . S
C443 C442 1.355 . S
C443 C445 1.419 . S
C444 C442 1.415 . S
C444 C449 1.425 . S
C444 C451 1.409 . S
C445 H437 0.930 . S
C445 C443 1.419 . S
C445 C446 1.362 . S
C446 H438 0.930 . S
C446 C445 1.362 . S
C446 C449 1.409 . S
C447 H439 0.930 . S
C447 C448 1.355 . S
C447 C449 1.415 . S
C448 C447 1.355 . S
C448 C450 1.419 . S
C449 C444 1.425 . S
C449 C446 1.409 . S
C449 C447 1.415 . S
C450 H440 0.930 . S
C450 C448 1.419 . S
C450 C451 1.362 . S
C451 H441 0.930 . S
C451 C444 1.409 . S
C451 C450 1.362 . S
H452 C458 0.930 . S
H453 C461 0.930 . S
H454 C462 0.930 . S
H455 C463 0.930 . S
H456 C466 0.930 . S
H457 C467 0.930 . S
C458 H452 0.930 . S
C458 C459 1.355 . S
C458 C460 1.415 . S
C459 C458 1.355 . S
C459 C461 1.419 . S
C460 C458 1.415 . S
C460 C465 1.425 . S
C460 C467 1.409 . S
C461 H453 0.930 . S
C461 C459 1.419 . S
C461 C462 1.362 . S
C462 H454 0.930 . S
C462 C461 1.362 . S
C462 C465 1.409 . S
C463 H455 0.930 . S
C463 C464 1.355 . S
C463 C465 1.415 . S
C464 C463 1.355 . S
C464 C466 1.419 . S
C465 C460 1.425 . S
C465 C462 1.409 . S
C465 C463 1.415 . S
C466 H456 0.930 . S
C466 C464 1.419 . S
C466 C467 1.362 . S
C467 H457 0.930 . S
C467 C460 1.409 . S
C467 C466 1.362 . S
H468 C474 0.930 . S
H469 C477 0.930 . S
H470 C478 0.930 . S
H471 C479 0.930 . S
H472 C482 0.930 . S
H473 C483 0.930 . S
C474 H468 0.930 . S
C474 C475 1.355 . S
C474 C476 1.415 . S
C475 C474 1.355 . S
C475 C477 1.419 . S
C476 C474 1.415 . S
C476 C481 1.425 . S
C476 C483 1.409 . S
C477 H469 0.930 . S
C477 C475 1.419 . S
C477 C478 1.362 . S
C478 H470 0.930 . S
C478 C477 1.362 . S
C478 C481 1.409 . S
C479 H471 0.930 . S
C479 C480 1.355 . S
C479 C481 1.415 . S
C480 C479 1.355 . S
C480 C482 1.419 . S
C481 C476 1.425 . S
C481 C478 1.409 . S
C481 C479 1.415 . S
C482 H472 0.930 . S
C482 C480 1.419 . S
C482 C483 1.362 . S
C483 H473 0.930 . S
C483 C476 1.409 . S
C483 C482 1.362 . S
H484 C490 0.930 . S
H485 C493 0.930 1_545 S
H486 C494 0.930 . S
H487 C495 0.930 . S
H488 C498 0.930 . S
H489 C499 0.930 . S
C490 H484 0.930 . S
C490 C491 1.355 . S
C490 C492 1.415 . S
C491 C490 1.355 . S
C491 C493 1.419 . S
C492 C490 1.415 . S
C492 C497 1.425 . S
C492 C499 1.409 . S
C493 H485 0.930 1_565 S
C493 C491 1.419 . S
C493 C494 1.362 . S
C494 H486 0.930 . S
C494 C493 1.362 . S
C494 C497 1.409 . S
C495 H487 0.930 . S
C495 C496 1.355 . S
C495 C497 1.415 . S
C496 C495 1.355 . S
C496 C498 1.419 . S
C497 C492 1.425 . S
C497 C494 1.409 . S
C497 C495 1.415 . S
C498 H488 0.930 . S
C498 C496 1.419 . S
C498 C499 1.362 . S
C499 H489 0.930 . S
C499 C492 1.409 . S
C499 C498 1.362 . S
H500 C506 0.930 . S
H501 C509 0.930 . S
H502 C510 0.930 . S
H503 C511 0.930 . S
H504 C514 0.930 . S
H505 C515 0.930 . S
C506 H500 0.930 . S
C506 C507 1.355 . S
C506 C508 1.415 . S
C507 C506 1.355 . S
C507 C509 1.419 . S
C508 C506 1.415 . S
C508 C513 1.425 . S
C508 C515 1.409 . S
C509 H501 0.930 . S
C509 C507 1.419 . S
C509 C510 1.362 . S
C510 H502 0.930 . S
C510 C509 1.362 . S
C510 C513 1.409 . S
C511 H503 0.930 . S
C511 C512 1.355 . S
C511 C513 1.415 . S
C512 C511 1.355 . S
C512 C514 1.419 . S
C513 C508 1.425 . S
C513 C510 1.409 . S
C513 C511 1.415 . S
C514 H504 0.930 . S
C514 C512 1.419 . S
C514 C515 1.362 . S
C515 H505 0.930 . S
C515 C508 1.409 . S
C515 C514 1.362 . S
H516 C522 0.930 . S
H517 C525 0.930 . S
H518 C526 0.930 . S
H519 C527 0.930 . S
H520 C530 0.930 . S
H521 C531 0.930 . S
C522 H516 0.930 . S
C522 C523 1.355 . S
C522 C524 1.415 . S
C523 C522 1.355 . S
C523 C525 1.419 . S
C524 C522 1.415 . S
C524 C529 1.425 . S
C524 C531 1.409 . S
C525 H517 0.930 . S
C525 C523 1.419 . S
C525 C526 1.362 . S
C526 H518 0.930 . S
C526 C525 1.362 . S
C526 C529 1.409 . S
C527 H519 0.930 . S
C527 C528 1.355 . S
C527 C529 1.415 . S
C528 C527 1.355 . S
C528 C530 1.419 . S
C529 C524 1.425 . S
C529 C526 1.409 . S
C529 C527 1.415 . S
C530 H520 0.930 . S
C530 C528 1.419 . S
C530 C531 1.362 . S
C531 H521 0.930 . S
C531 C524 1.409 . S
C531 C530 1.362 . S
H532 C538 0.930 . S
H533 C541 0.930 . S
H534 C542 0.930 . S
H535 C543 0.930 . S
H536 C546 0.930 . S
H537 C547 0.930 . S
C538 H532 0.930 . S
C538 C539 1.355 . S
C538 C540 1.415 . S
C539 C538 1.355 . S
C539 C541 1.419 . S
C540 C538 1.415 . S
C540 C545 1.425 . S
C540 C547 1.409 . S
C541 H533 0.930 . S
C541 C539 1.419 . S
C541 C542 1.362 . S
C542 H534 0.930 . S
C542 C541 1.362 . S
C542 C545 1.409 . S
C543 H535 0.930 . S
C543 C544 1.355 . S
C543 C545 1.415 . S
C544 C543 1.355 . S
C544 C546 1.419 . S
C545 C540 1.425 . S
C545 C542 1.409 . S
C545 C543 1.415 . S
C546 H536 0.930 . S
C546 C544 1.419 . S
C546 C547 1.362 . S
C547 H537 0.930 . S
C547 C540 1.409 . S
C547 C546 1.362 . S
H548 C554 0.930 . S
H549 C557 0.930 . S
H550 C558 0.930 . S
H551 C559 0.930 . S
H552 C562 0.930 . S
H553 C563 0.930 . S
C554 H548 0.930 . S
C554 C555 1.355 . S
C554 C556 1.415 . S
C555 C554 1.355 . S
C555 C557 1.419 . S
C556 C554 1.415 . S
C556 C561 1.425 . S
C556 C563 1.409 . S
C557 H549 0.930 . S
C557 C555 1.419 . S
C557 C558 1.362 . S
C558 H550 0.930 . S
C558 C557 1.362 . S
C558 C561 1.409 . S
C559 H551 0.930 . S
C559 C560 1.355 . S
C559 C561 1.415 . S
C560 C559 1.355 . S
C560 C562 1.419 . S
C561 C556 1.425 . S
C561 C558 1.409 . S
C561 C559 1.415 . S
C562 H552 0.930 . S
C562 C560 1.419 . S
C562 C563 1.362 . S
C563 H553 0.930 . S
C563 C556 1.409 . S
C563 C562 1.362 . S
H564 C570 0.930 . S
H565 C573 0.930 . S
H566 C574 0.930 . S
H567 C575 0.930 . S
H568 C578 0.930 . S
H569 C579 0.930 . S
C570 H564 0.930 . S
C570 C571 1.355 . S
C570 C572 1.415 . S
C571 C570 1.355 . S
C571 C573 1.419 . S
C572 C570 1.415 . S
C572 C577 1.425 . S
C572 C579 1.409 . S
C573 H565 0.930 . S
C573 C571 1.419 . S
C573 C574 1.362 . S
C574 H566 0.930 . S
C574 C573 1.362 . S
C574 C577 1.409 . S
C575 H567 0.930 . S
C575 C576 1.355 . S
C575 C577 1.415 . S
C576 C575 1.355 . S
C576 C578 1.419 . S
C577 C572 1.425 . S
C577 C574 1.409 . S
C577 C575 1.415 . S
C578 H568 0.930 . S
C578 C576 1.419 . S
C578 C579 1.362 . S
C579 H569 0.930 . S
C579 C572 1.409 . S
C579 C578 1.362 . S
H580 C586 0.930 . S
H581 C589 0.930 . S
H582 C590 0.930 . S
H583 C591 0.930 . S
H584 C594 0.930 . S
H585 C595 0.930 . S
C586 H580 0.930 . S
C586 C587 1.355 . S
C586 C588 1.415 . S
C587 C586 1.355 . S
C587 C589 1.419 . S
C588 C586 1.415 . S
C588 C593 1.425 . S
C588 C595 1.409 . S
C589 H581 0.930 . S
C589 C587 1.419 . S
C589 C590 1.362 . S
C590 H582 0.930 . S
C590 C589 1.362 . S
C590 C593 1.409 . S
C591 H583 0.930 . S
C591 C592 1.355 . S
C591 C593 1.415 . S
C592 C591 1.355 . S
C592 C594 1.419 . S
C593 C588 1.425 . S
C593 C590 1.409 . S
C593 C591 1.415 . S
C594 H584 0.930 . S
C594 C592 1.419 . S
C594 C595 1.362 . S
C595 H585 0.930 . S
C595 C588 1.409 . S
C595 C594 1.362 . S
H596 C602 0.930 . S
H597 C605 0.930 . S
H598 C606 0.930 . S
H599 C607 0.930 . S
H600 C610 0.930 . S
H601 C611 0.930 . S
C602 H596 0.930 . S
C602 C603 1.355 . S
C602 C604 1.415 . S
C603 C602 1.355 . S
C603 C605 1.419 . S
C604 C602 1.415 . S
C604 C609 1.425 . S
C604 C611 1.409 . S
C605 H597 0.930 . S
C605 C603 1.419 . S
C605 C606 1.362 . S
C606 H598 0.930 . S
C606 C605 1.362 . S
C606 C609 1.409 . S
C607 H599 0.930 . S
C607 C608 1.355 . S
C607 C609 1.415 . S
C608 C607 1.355 . S
C608 C610 1.419 . S
C609 C604 1.425 . S
C609 C606 1.409 . S
C609 C607 1.415 . S
C610 H600 0.930 . S
C610 C608 1.419 . S
C610 C611 1.362 . S
C611 H601 0.930 . S
C611 C604 1.409 . S
C611 C610 1.362 . S
H612 C618 0.930 . S
H613 C621 0.930 . S
H614 C622 0.930 . S
H615 C623 0.930 . S
H616 C626 0.930 . S
H617 C627 0.930 . S
C618 H612 0.930 . S
C618 C619 1.355 . S
C618 C620 1.415 . S
C619 C618 1.355 . S
C619 C621 1.419 . S
C620 C618 1.415 . S
C620 C625 1.425 . S
C620 C627 1.409 . S
C621 H613 0.930 . S
C621 C619 1.419 . S
C621 C622 1.362 . S
C622 H614 0.930 . S
C622 C621 1.362 . S
C622 C625 1.409 . S
C623 H615 0.930 . S
C623 C624 1.355 . S
C623 C625 1.415 . S
C624 C623 1.355 . S
C624 C626 1.419 . S
C625 C620 1.425 . S
C625 C622 1.409 . S
C625 C623 1.415 . S
C626 H616 0.930 . S
C626 C624 1.419 . S
C626 C627 1.362 . S
C627 H617 0.930 . S
C627 C620 1.409 . S
C627 C626 1.362 . S
H628 C634 0.930 . S
H629 C637 0.930 . S
H630 C638 0.930 . S
H631 C639 0.930 . S
H632 C642 0.930 . S
H633 C643 0.930 . S
C634 H628 0.930 . S
C634 C635 1.355 . S
C634 C636 1.415 . S
C635 C634 1.355 . S
C635 C637 1.419 . S
C636 C634 1.415 . S
C636 C641 1.425 . S
C636 C643 1.409 . S
C637 H629 0.930 . S
C637 C635 1.419 . S
C637 C638 1.362 . S
C638 H630 0.930 . S
C638 C637 1.362 . S
C638 C641 1.409 . S
C639 H631 0.930 . S
C639 C640 1.355 . S
C639 C641 1.415 . S
C640 C639 1.355 . S
C640 C642 1.419 . S
C641 C636 1.425 . S
C641 C638 1.409 . S
C641 C639 1.415 . S
C642 H632 0.930 . S
C642 C640 1.419 . S
C642 C643 1.362 . S
C643 H633 0.930 . S
C643 C636 1.409 . S
C643 C642 1.362 . S
H644 C650 0.930 . S
H645 C653 0.930 . S
H646 C654 0.930 . S
H647 C655 0.930 . S
H648 C658 0.930 . S
H649 C659 0.930 . S
C650 H644 0.930 . S
C650 C651 1.355 . S
C650 C652 1.415 . S
C651 C650 1.355 . S
C651 C653 1.419 . S
C652 C650 1.415 . S
C652 C657 1.425 . S
C652 C659 1.409 . S
C653 H645 0.930 . S
C653 C651 1.419 . S
C653 C654 1.362 . S
C654 H646 0.930 . S
C654 C653 1.362 . S
C654 C657 1.409 . S
C655 H647 0.930 . S
C655 C656 1.355 . S
C655 C657 1.415 . S
C656 C655 1.355 . S
C656 C658 1.419 . S
C657 C652 1.425 . S
C657 C654 1.409 . S
C657 C655 1.415 . S
C658 H648 0.930 . S
C658 C656 1.419 . S
C658 C659 1.362 . S
C659 H649 0.930 . S
C659 C652 1.409 . S
C659 C658 1.362 . S
C283 C7 2.255 . S
C288 C145 2.233 . S
C299 C30 1.356 . S
C304 N163 1.352 . S
C320 C191 2.038 . S
C315 N58 2.005 . S
C336 N209 1.252 . S
C331 N81 1.161 . S
C352 C237 2.148 . S
C347 C99 2.171 . S
C368 N255 1.289 . S
C363 N127 1.201 . S
C379 N25 2.040 . S
C384 C200 2.066 . S
C395 C62 1.359 . S
C400 N219 1.264 . S
C416 C246 2.171 . S
C411 C85 2.173 . S
C432 N265 1.251 . S
C427 N94 1.273 . S
C443 C131 2.180 . S
C448 C154 2.155 . S
C464 N173 1.153 . S
C459 N2 1.242 . S
C480 C223 2.051 . S
C475 C16 2.084 . S
C491 C39 1.154 . S
C496 N242 1.129 . S
C512 C269 1.877 . S
C507 N48 1.891 . S
C523 N71 1.107 . S
C528 N150 1.083 . S
C539 C108 2.038 . S
C544 C177 2.011 . S
C555 N117 1.030 . S
C560 N196 1.059 . S
C571 N35 1.918 . S
C576 C260 1.933 . S
C592 N140 1.107 . S
C587 C53 1.175 . S
C603 C76 2.112 . S
C608 C168 2.105 . S
C619 N104 1.044 . S
C624 N186 0.975 . S
C635 C122 2.046 . S
C640 C214 2.038 . S
C651 N12 0.999 . S
C656 N232 0.966 . S
