# Generated by pormake.
# Topology zzz, (3,6)-cn, num edge types: 1
# Building blocks:
#     Node 0, Type 0, BuildingBlock: OLANEW_clean_sbu_2, # of connection points: 3
#     Node 1, Type 0, BuildingBlock: OLANEW_clean_sbu_2, # of connection points: 3
#     Node 2, Type 0, BuildingBlock: OLANEW_clean_sbu_2, # of connection points: 3
#     Node 3, Type 0, BuildingBlock: OLANEW_clean_sbu_2, # of connection points: 3
#     Node 4, Type 0, BuildingBlock: OLANEW_clean_sbu_2, # of connection points: 3
#     Node 5, Type 0, BuildingBlock: OLANEW_clean_sbu_2, # of connection points: 3
#     Node 6, Type 0, BuildingBlock: OLANEW_clean_sbu_2, # of connection points: 3
#     Node 7, Type 0, BuildingBlock: OLANEW_clean_sbu_2, # of connection points: 3
#     Node 8, Type 1, BuildingBlock: VOLQOD_clean_sbu_1, # of connection points: 6
#     Node 9, Type 1, BuildingBlock: VOLQOD_clean_sbu_1, # of connection points: 6
#     Node 10, Type 1, BuildingBlock: VOLQOD_clean_sbu_1, # of connection points: 6
#     Node 11, Type 1, BuildingBlock: VOLQOD_clean_sbu_1, # of connection points: 6
#     Edge 12, Type (0, 1), BuildingBlock: EZIPEK_clean_linker_0, # of connection points: 2
#     Edge 13, Type (0, 1), BuildingBlock: EZIPEK_clean_linker_0, # of connection points: 2
#     Edge 14, Type (0, 1), BuildingBlock: EZIPEK_clean_linker_0, # of connection points: 2
#     Edge 15, Type (0, 1), BuildingBlock: EZIPEK_clean_linker_0, # of connection points: 2
#     Edge 16, Type (0, 1), BuildingBlock: EZIPEK_clean_linker_0, # of connection points: 2
#     Edge 17, Type (0, 1), BuildingBlock: EZIPEK_clean_linker_0, # of connection points: 2
#     Edge 18, Type (0, 1), BuildingBlock: EZIPEK_clean_linker_0, # of connection points: 2
#     Edge 19, Type (0, 1), BuildingBlock: EZIPEK_clean_linker_0, # of connection points: 2
#     Edge 20, Type (0, 1), BuildingBlock: EZIPEK_clean_linker_0, # of connection points: 2
#     Edge 21, Type (0, 1), BuildingBlock: EZIPEK_clean_linker_0, # of connection points: 2
#     Edge 22, Type (0, 1), BuildingBlock: EZIPEK_clean_linker_0, # of connection points: 2
#     Edge 23, Type (0, 1), BuildingBlock: EZIPEK_clean_linker_0, # of connection points: 2
#     Edge 24, Type (0, 1), BuildingBlock: EZIPEK_clean_linker_0, # of connection points: 2
#     Edge 25, Type (0, 1), BuildingBlock: EZIPEK_clean_linker_0, # of connection points: 2
#     Edge 26, Type (0, 1), BuildingBlock: EZIPEK_clean_linker_0, # of connection points: 2
#     Edge 27, Type (0, 1), BuildingBlock: EZIPEK_clean_linker_0, # of connection points: 2
#     Edge 28, Type (0, 1), BuildingBlock: EZIPEK_clean_linker_0, # of connection points: 2
#     Edge 29, Type (0, 1), BuildingBlock: EZIPEK_clean_linker_0, # of connection points: 2
#     Edge 30, Type (0, 1), BuildingBlock: EZIPEK_clean_linker_0, # of connection points: 2
#     Edge 31, Type (0, 1), BuildingBlock: EZIPEK_clean_linker_0, # of connection points: 2
#     Edge 32, Type (0, 1), BuildingBlock: EZIPEK_clean_linker_0, # of connection points: 2
#     Edge 33, Type (0, 1), BuildingBlock: EZIPEK_clean_linker_0, # of connection points: 2
#     Edge 34, Type (0, 1), BuildingBlock: EZIPEK_clean_linker_0, # of connection points: 2
#     Edge 35, Type (0, 1), BuildingBlock: EZIPEK_clean_linker_0, # of connection points: 2
# Relax obj value: 0.168
# Max RMSD: 0.226
# Mean RMSD: 0.108
data_MOF--net-zzz--node1-OLANEW_clean_sbu_2--node2-VOLQOD_clean_sbu_1--edge1-EZIPEK_clean_linker_0
_symmetry_space_group_name_H-M    P1
_symmetry_Int_Tables_number       1
_symmetry_cell_setting            triclinic
loop_
_symmetry_equiv_pos_as_xyz
'x, y, z'
_cell_length_a     40.979195
_cell_length_b     40.606144
_cell_length_c     14.413899
_cell_angle_alpha  90.168744
_cell_angle_beta   89.648526
_cell_angle_gamma 91.204503
loop_
_atom_site_label
_atom_site_type_symbol
_atom_site_fract_x
_atom_site_fract_y
_atom_site_fract_z
_atom_type_partial_charge
O0 O 0.77549 0.36461 0.87374 0.0
Cd1 Cd 0.72403 0.33611 0.91159 0.0
O2 O 0.78291 0.38035 0.01848 0.0
Cd3 Cd 0.81421 0.40671 0.11737 0.0
O4 O 0.84876 0.42966 0.2139 0.0
C5 C 0.86803 0.45323 0.19089 0.0
O6 O 0.8671 0.46528 0.10649 0.0
C7 C 0.79241 0.37979 0.93451 0.0
C8 C 0.67055 0.37442 0.86914 0.0
O9 O 0.68334 0.35573 0.8077 0.0
O10 O 0.68294 0.37501 0.95058 0.0
O11 O 0.88206 0.80229 0.82067 0.0
Cd12 Cd 0.84339 0.75716 0.85114 0.0
O13 O 0.8944 0.80239 0.96884 0.0
Cd14 Cd 0.9227 0.82561 0.07928 0.0
O15 O 0.94829 0.85612 0.18085 0.0
C16 C 0.94021 0.88597 0.19055 0.0
O17 O 0.91697 0.89778 0.13881 0.0
C18 C 0.89836 0.81414 0.888 0.0
C19 C 0.87318 0.69736 0.82178 0.0
O20 O 0.85712 0.7109 0.75672 0.0
O21 O 0.87492 0.71178 0.90081 0.0
O22 O 0.73579 0.13484 0.87742 0.0
Cd23 Cd 0.78754 0.16506 0.89718 0.0
O24 O 0.73459 0.12096 0.02479 0.0
Cd25 Cd 0.70831 0.09577 0.13684 0.0
O26 O 0.67656 0.07277 0.24095 0.0
C27 C 0.64876 0.06077 0.21902 0.0
O28 O 0.63868 0.0626 0.13304 0.0
C29 C 0.72177 0.12011 0.94484 0.0
C30 C 0.84122 0.12721 0.85076 0.0
O31 O 0.82656 0.1439 0.78888 0.0
O32 O 0.8305 0.12827 0.93443 0.0
O33 O 0.63965 0.69572 0.85121 0.0
Cd34 Cd 0.681 0.7397 0.85338 0.0
O35 O 0.62935 0.69777 0.00132 0.0
Cd36 Cd 0.60057 0.67665 0.11503 0.0
O37 O 0.57225 0.64796 0.21588 0.0
C38 C 0.57766 0.61742 0.2246 0.0
O39 O 0.5999 0.60369 0.17216 0.0
C40 C 0.62394 0.68536 0.92186 0.0
C41 C 0.6513 0.80054 0.84149 0.0
O42 O 0.65511 0.78231 0.76971 0.0
O43 O 0.66201 0.79019 0.91928 0.0
O44 O 0.19092 0.62833 0.60264 0.0
Cd45 Cd 0.24119 0.65605 0.55025 0.0
O46 O 0.18152 0.61224 0.4592 0.0
Cd47 Cd 0.14868 0.58605 0.36384 0.0
O48 O 0.11293 0.56504 0.26735 0.0
C49 C 0.08852 0.54734 0.29275 0.0
O50 O 0.08355 0.54119 0.38109 0.0
C51 C 0.17317 0.61299 0.54411 0.0
C52 C 0.29677 0.62455 0.61102 0.0
O53 O 0.28469 0.64819 0.65826 0.0
O54 O 0.28262 0.61564 0.53573 0.0
O55 O 0.13163 0.21346 0.55546 0.0
Cd56 Cd 0.15655 0.26754 0.52829 0.0
O57 O 0.14195 0.19687 0.41293 0.0
Cd58 Cd 0.13631 0.1572 0.31155 0.0
O59 O 0.11982 0.11802 0.21827 0.0
C60 C 0.11184 0.08942 0.24728 0.0
O61 O 0.11469 0.08225 0.33562 0.0
C62 C 0.12985 0.19145 0.49283 0.0
C63 C 0.11398 0.31663 0.58138 0.0
O64 O 0.11434 0.3058 0.4978 0.0
O65 O 0.13378 0.30449 0.63991 0.0
O66 O 0.32578 0.88927 0.50696 0.0
Cd67 Cd 0.27736 0.88867 0.40933 0.0
O68 O 0.35277 0.92463 0.41685 0.0
Cd69 Cd 0.32303 0.9338 0.29638 0.0
O70 O 0.35863 0.95293 0.19526 0.0
C71 C 0.38249 0.96988 0.22759 0.0
O72 O 0.38297 0.97751 0.3162 0.0
C73 C 0.35094 0.90702 0.48925 0.0
C74 C 0.22098 0.90435 0.50798 0.0
O75 O 0.23011 0.87443 0.50177 0.0
O76 O 0.23863 0.92684 0.46907 0.0
O77 O 0.39138 0.28888 0.57679 0.0
Cd78 Cd 0.37409 0.23464 0.52085 0.0
O79 O 0.37788 0.30785 0.44004 0.0
Cd80 Cd 0.37933 0.34936 0.34493 0.0
O81 O 0.3946 0.38936 0.25357 0.0
C82 C 0.40221 0.41787 0.28405 0.0
O83 O 0.39951 0.42448 0.37299 0.0
C84 C 0.39004 0.3126 0.51984 0.0
C85 C 0.41421 0.18509 0.58561 0.0
O86 O 0.42361 0.20447 0.5203 0.0
O87 O 0.38588 0.18936 0.62129 0.0
O88 O 0.08685 0.94681 0.73711 0.0
Zn89 Zn 0.04576 0.96594 0.79417 0.0
O90 O 0.02591 0.9976 0.70865 0.0
Zn91 Zn 0.02699 0.0415 0.76267 0.0
Zn92 Zn 0.04925 0.99798 0.58985 0.0
Zn93 Zn 0.98054 0.98562 0.68511 0.0
O94 O 0.98192 0.05964 0.78077 0.0
O95 O 0.94935 0.0214 0.71787 0.0
O96 O 0.0594 0.98858 0.91421 0.0
O97 O 0.04848 0.04114 0.88664 0.0
O98 O 0.05245 0.07269 0.68129 0.0
O99 O 0.06389 0.04393 0.55366 0.0
O100 O 0.02278 0.97617 0.4885 0.0
O101 O 0.0134 0.92877 0.82468 0.0
O102 O 0.9738 0.97095 0.55438 0.0
O103 O 0.96793 0.94598 0.75809 0.0
C104 C 0.10112 0.95224 0.65962 0.0
C105 C 0.95361 0.04908 0.75802 0.0
C106 C 0.06456 0.07066 0.60008 0.0
C107 C 0.05966 0.0188 0.93848 0.0
C108 C 0.99289 0.96712 0.48556 0.0
C109 C 0.9831 0.92519 0.80631 0.0
O110 O 0.08953 0.97147 0.59936 0.0
O111 O 0.50792 0.07392 0.77755 0.0
Zn112 Zn 0.53037 0.0362 0.84141 0.0
O113 O 0.53543 -0.00133 0.75641 0.0
Zn114 Zn 0.51829 0.95806 0.81216 0.0
Zn115 Zn 0.51169 0.00699 0.64232 0.0
Zn116 Zn 0.58137 0.99302 0.72828 0.0
O117 O 0.55262 0.92361 0.82431 0.0
O118 O 0.59651 0.94783 0.76143 0.0
O119 O 0.5007 0.02249 0.94819 0.0
O120 O 0.49643 0.96788 0.93335 0.0
O121 O 0.48215 0.93791 0.73664 0.0
O122 O 0.47705 0.97248 0.61857 0.0
O123 O 0.54227 0.01191 0.53308 0.0
O124 O 0.57437 0.05389 0.88639 0.0
O125 O 0.59088 0.00253 0.5944 0.0
O126 O 0.60871 0.0253 0.79904 0.0
C127 C 0.49084 0.07454 0.70404 0.0
C128 C 0.58248 0.923 0.7994 0.0
C129 C 0.46797 0.94686 0.66308 0.0
C130 C 0.48972 0.9945 0.97545 0.0
C131 C 0.57311 0.00976 0.52571 0.0
C132 C 0.60323 0.04755 0.85893 0.0
O133 O 0.48877 0.04978 0.65008 0.0
O134 O 0.4301 0.56123 0.78116 0.0
Zn135 Zn 0.47048 0.54024 0.83285 0.0
O136 O 0.48827 0.50839 0.74359 0.0
Zn137 Zn 0.48654 0.46448 0.79673 0.0
Zn138 Zn 0.46355 0.50916 0.62762 0.0
Zn139 Zn 0.53372 0.51912 0.71588 0.0
O140 O 0.53129 0.44556 0.81229 0.0
O141 O 0.56409 0.48222 0.74284 0.0
O142 O 0.45653 0.51777 0.95232 0.0
O143 O 0.46518 0.4649 0.92153 0.0
O144 O 0.46083 0.43376 0.71538 0.0
O145 O 0.44803 0.46325 0.591 0.0
O146 O 0.48991 0.53078 0.52426 0.0
O147 O 0.50416 0.57584 0.86353 0.0
O148 O 0.5395 0.53435 0.58548 0.0
O149 O 0.54842 0.55775 0.79071 0.0
C150 C 0.41438 0.55676 0.706 0.0
C151 C 0.55956 0.45502 0.78506 0.0
C152 C 0.44789 0.43623 0.63583 0.0
C153 C 0.45508 0.48749 0.97505 0.0
C154 C 0.52002 0.53899 0.51876 0.0
C155 C 0.53436 0.57853 0.84252 0.0
O156 O 0.42394 0.53694 0.64341 0.0
O157 O 0.96014 0.51724 0.52527 0.0
Zn158 Zn 0.98198 0.53221 0.64433 0.0
O159 O 0.98225 0.49672 0.73702 0.0
Zn160 Zn 0.95599 0.50867 0.8455 0.0
Zn161 Zn 0.96459 0.4561 0.68227 0.0
Zn162 Zn 0.02688 0.48943 0.77679 0.0
O163 O 0.98344 0.51266 0.96084 0.0
O164 O 0.03237 0.49645 0.91386 0.0
O165 O 0.9564 0.57049 0.69241 0.0
O166 O 0.93592 0.55283 0.82729 0.0
O167 O 0.9195 0.47573 0.86772 0.0
O168 O 0.92667 0.43809 0.75712 0.0
O169 O -0.00088 0.42169 0.6684 0.0
O170 O 0.0276 0.54943 0.61637 0.0
O171 O 0.04221 0.44482 0.7381 0.0
O172 O 0.05764 0.52162 0.71612 0.0
C173 C 0.94708 0.48973 0.50191 0.0
C174 C 0.01325 0.50673 0.97696 0.0
C175 C 0.91118 0.44899 0.8272 0.0
C176 C 0.93896 0.57469 0.76466 0.0
C177 C 0.0287 0.42095 0.69457 0.0
C178 C 0.05494 0.54328 0.65335 0.0
O179 O 0.94693 0.46489 0.55542 0.0
C180 C 0.15993 0.89984 0.52579 0.0
C181 C 0.19038 0.91291 0.55714 0.0
C182 C 0.16206 0.94898 0.6668 0.0
C183 C 0.13179 0.93554 0.63617 0.0
N184 N 0.10172 0.89315 0.55446 0.0
N185 N 0.22091 0.94379 0.67177 0.0
C186 C 0.13074 0.9092 0.57164 0.0
C187 C 0.19158 0.93563 0.6322 0.0
N188 N 0.15863 0.88022 0.44855 0.0
N189 N 0.16255 0.97536 0.72599 0.0
H190 H 0.24292 0.93402 0.64905 0.0
H191 H 0.22316 0.95774 0.7322 0.0
H192 H 0.1414 0.98499 0.7551 0.0
H193 H 0.18364 0.98888 0.74207 0.0
H194 H 0.13692 0.8731 0.41631 0.0
H195 H 0.17927 0.8732 0.4115 0.0
H196 H 0.09976 0.87164 0.51519 0.0
H197 H 0.07993 0.89962 0.58694 0.0
C198 C 0.45266 0.13878 0.55209 0.0
C199 C 0.43531 0.15801 0.61765 0.0
C200 C 0.45337 0.12158 0.74187 0.0
C201 C 0.47357 0.10487 0.67751 0.0
N202 N 0.49968 0.10503 0.5266 0.0
N203 N 0.42725 0.17283 0.77884 0.0
C204 C 0.47552 0.11583 0.58423 0.0
C205 C 0.43805 0.15099 0.71386 0.0
N206 N 0.44609 0.14071 0.45944 0.0
N207 N 0.44732 0.10877 0.82798 0.0
H208 H 0.4177 0.19559 0.7617 0.0
H209 H 0.43138 0.16999 0.84963 0.0
H210 H 0.45674 0.08656 0.85045 0.0
H211 H 0.43015 0.11854 0.87347 0.0
H212 H 0.45626 0.12488 0.41062 0.0
H213 H 0.42765 0.15507 0.43249 0.0
H214 H 0.50364 0.11461 0.46034 0.0
H215 H 0.51803 0.08952 0.54876 0.0
C216 C 0.35701 0.62527 0.64114 0.0
C217 C 0.32657 0.60793 0.64219 0.0
C218 C 0.35361 0.55726 0.68854 0.0
C219 C 0.38393 0.57485 0.69025 0.0
N220 N 0.41443 0.62626 0.68166 0.0
N221 N 0.2945 0.55958 0.68227 0.0
C222 C 0.38555 0.60915 0.67137 0.0
C223 C 0.32448 0.57447 0.67009 0.0
N224 N 0.35891 0.65658 0.60636 0.0
N225 N 0.35275 0.52401 0.70377 0.0
H226 H 0.27266 0.57151 0.66987 0.0
H227 H 0.29098 0.5364 0.71172 0.0
H228 H 0.37312 0.51092 0.72422 0.0
H229 H 0.33232 0.50898 0.69185 0.0
H230 H 0.38079 0.66926 0.59337 0.0
H231 H 0.3386 0.66925 0.58359 0.0
H232 H 0.41645 0.65184 0.67981 0.0
H233 H 0.4363 0.61508 0.69827 0.0
C234 C 0.09431 0.37435 0.56667 0.0
C235 C 0.09148 0.34297 0.60935 0.0
C236 C 0.04778 0.36296 0.71082 0.0
C237 C 0.04924 0.39353 0.66374 0.0
N238 N 0.06904 0.42655 0.53556 0.0
N239 N 0.06207 0.30529 0.71029 0.0
C240 C 0.07108 0.3987 0.58822 0.0
C241 C 0.06727 0.33666 0.67841 0.0
N242 N 0.12007 0.38144 0.50878 0.0
N243 N 0.02837 0.35937 0.78779 0.0
H244 H 0.07562 0.28534 0.68747 0.0
H245 H 0.0426 0.29845 0.7533 0.0
H246 H 0.0132 0.37791 0.81189 0.0
H247 H 0.02896 0.33901 0.83143 0.0
H248 H 0.12545 0.40499 0.48389 0.0
H249 H 0.13792 0.36444 0.49206 0.0
H250 H 0.08188 0.43011 0.47371 0.0
H251 H 0.05226 0.44496 0.54911 0.0
C252 C 0.87012 0.07324 0.84946 0.0
C253 C 0.86991 0.10718 0.82623 0.0
C254 C 0.923 0.10193 0.74864 0.0
C255 C 0.9248 0.06907 0.78112 0.0
N256 N 0.90299 0.02566 0.87929 0.0
N257 N 0.89922 0.15547 0.77012 0.0
C258 C 0.89916 0.05528 0.83624 0.0
C259 C 0.89719 0.12203 0.78017 0.0
N260 N 0.84223 0.05772 0.88056 0.0
N261 N 0.94522 0.11364 0.68504 0.0
H262 H 0.88137 0.17126 0.79471 0.0
H263 H 0.92011 0.16781 0.74584 0.0
H264 H 0.96411 0.09951 0.65858 0.0
H265 H 0.94302 0.13622 0.65175 0.0
H266 H 0.84019 0.03229 0.88926 0.0
H267 H 0.82011 0.06967 0.88858 0.0
H268 H 0.88643 0.01617 0.92793 0.0
H269 H 0.92423 0.01206 0.8738 0.0
C270 C 0.64173 0.85348 0.75698 0.0
C271 C 0.63485 0.8327 0.83399 0.0
C272 C 0.59844 0.87448 0.8966 0.0
C273 C 0.60105 0.89232 0.81219 0.0
N274 N 0.61943 0.89311 0.65199 0.0
N275 N 0.59996 0.82064 0.96653 0.0
C276 C 0.62112 0.8803 0.73937 0.0
C277 C 0.61138 0.84238 0.90123 0.0
N278 N 0.66855 0.84852 0.70232 0.0
N279 N 0.58467 0.88841 0.97343 0.0
H280 H 0.60686 0.79611 0.96902 0.0
H281 H 0.58069 0.82596 0.01132 0.0
H282 H 0.57655 0.91257 0.97481 0.0
H283 H 0.58489 0.87726 0.03849 0.0
H284 H 0.67586 0.86489 0.65022 0.0
H285 H 0.68561 0.83053 0.7162 0.0
H286 H 0.63166 0.88294 0.59544 0.0
H287 H 0.60295 0.91109 0.63338 0.0
C288 C 0.61373 0.38044 0.80688 0.0
C289 C 0.64222 0.39505 0.84649 0.0
C290 C 0.615 0.44814 0.85482 0.0
C291 C 0.58804 0.43439 0.80561 0.0
N292 N 0.5647 0.389 0.71803 0.0
N293 N 0.67251 0.44449 0.88883 0.0
C294 C 0.58821 0.40095 0.77683 0.0
C295 C 0.6436 0.4294 0.86509 0.0
N296 N 0.61031 0.34693 0.80167 0.0
N297 N 0.61288 0.47853 0.89531 0.0
H298 H 0.69436 0.43193 0.89395 0.0
H299 H 0.6755 0.46998 0.89381 0.0
H300 H 0.592 0.49272 0.89235 0.0
H301 H 0.63059 0.48817 0.93991 0.0
H302 H 0.58863 0.33501 0.78231 0.0
H303 H 0.6279 0.3309 0.82565 0.0
H304 H 0.56562 0.36577 0.68734 0.0
H305 H 0.54601 0.40341 0.69247 0.0
C306 C 0.8714 0.63671 0.78906 0.0
C307 C 0.88998 0.66601 0.80554 0.0
C308 C 0.94059 0.63496 0.80038 0.0
C309 C 0.92218 0.60617 0.77723 0.0
N310 N 0.87099 0.58002 0.73528 0.0
N311 N 0.94218 0.69454 0.81148 0.0
C312 C 0.8878 0.60713 0.76754 0.0
C313 C 0.92459 0.66557 0.80707 0.0
N314 N 0.83815 0.6369 0.79762 0.0
N315 N 0.97318 0.63282 0.81901 0.0
H316 H 0.93133 0.71751 0.8161 0.0
H317 H 0.96739 0.69612 0.80261 0.0
H318 H 0.98584 0.61085 0.81406 0.0
H319 H 0.98716 0.65217 0.84646 0.0
H320 H 0.82348 0.61565 0.79664 0.0
H321 H 0.82525 0.65809 0.81335 0.0
H322 H 0.84646 0.58022 0.71702 0.0
H323 H 0.8822 0.55784 0.71949 0.0
C324 C 0.12997 0.13696 0.57305 0.0
C325 C 0.11407 0.15923 0.51355 0.0
C326 C 0.06636 0.12188 0.504 0.0
C327 C 0.08241 0.09961 0.56284 0.0
N328 N 0.1312 0.08203 0.63893 0.0
N329 N 0.06986 0.17131 0.40996 0.0
C330 C 0.11479 0.10599 0.593 0.0
C331 C 0.08314 0.15109 0.47471 0.0
N332 N 0.15937 0.14565 0.61145 0.0
N333 N 0.03464 0.11562 0.47934 0.0
H334 H 0.08056 0.19377 0.39037 0.0
H335 H 0.04933 0.16501 0.37111 0.0
H336 H 0.02208 0.0939 0.4971 0.0
H337 H 0.02011 0.13249 0.4456 0.0
H338 H 0.17036 0.13247 0.66415 0.0
H339 H 0.17227 0.1672 0.59405 0.0
H340 H 0.15592 0.08364 0.65473 0.0
H341 H 0.12071 0.0591 0.65498 0.0
C342 C 0.37867 0.9244 0.6362 0.0
C343 C 0.37968 0.90737 0.55033 0.0
C344 C 0.4394 0.9102 0.5489 0.0
C345 C 0.43841 0.92879 0.6321 0.0
N346 N 0.40858 0.94713 0.76717 0.0
N347 N 0.40968 0.87587 0.43851 0.0
C348 C 0.40849 0.93339 0.68038 0.0
C349 C 0.40977 0.89746 0.51147 0.0
N350 N 0.34937 0.93408 0.67174 0.0
N351 N 0.46854 0.90578 0.50431 0.0
H352 H 0.38808 0.86594 0.41112 0.0
H353 H 0.43063 0.86555 0.41075 0.0
H354 H 0.49086 0.9133 0.53269 0.0
H355 H 0.4706 0.896 0.43776 0.0
H356 H 0.34704 0.95027 0.72736 0.0
H357 H 0.32705 0.92706 0.64265 0.0
H358 H 0.38801 0.9481 0.80971 0.0
H359 H 0.42975 0.95552 0.8001 0.0
C360 C 0.38704 0.36561 0.60857 0.0
C361 C 0.40385 0.34539 0.54449 0.0
C362 C 0.44867 0.38628 0.53415 0.0
C363 C 0.43151 0.40671 0.59664 0.0
N364 N 0.38234 0.41954 0.68025 0.0
N365 N 0.44778 0.33814 0.43428 0.0
C366 C 0.40002 0.39746 0.62991 0.0
C367 C 0.43372 0.35634 0.50317 0.0
N368 N 0.35892 0.35412 0.6499 0.0
N369 N 0.47982 0.39485 0.50779 0.0
H370 H 0.43871 0.31513 0.4133 0.0
H371 H 0.46722 0.34667 0.39356 0.0
H372 H 0.4911 0.41713 0.52664 0.0
H373 H 0.49524 0.37926 0.47158 0.0
H374 H 0.34748 0.3659 0.70505 0.0
H375 H 0.34778 0.33162 0.63249 0.0
H376 H 0.358 0.41578 0.6991 0.0
H377 H 0.39124 0.44308 0.69695 0.0
C378 C 0.14154 0.56053 0.56957 0.0
C379 C 0.14303 0.59542 0.57423 0.0
C380 C 0.08718 0.59617 0.63575 0.0
C381 C 0.08471 0.56152 0.62302 0.0
N382 N 0.10731 0.51125 0.56324 0.0
N383 N 0.11612 0.64706 0.59754 0.0
C384 C 0.11133 0.5438 0.58611 0.0
C385 C 0.11553 0.61346 0.60344 0.0
N386 N 0.16927 0.54334 0.55199 0.0
N387 N 0.06315 0.61236 0.68241 0.0
H388 H 0.13657 0.66062 0.57508 0.0
H389 H 0.09558 0.66134 0.60771 0.0
H390 H 0.04213 0.60059 0.70811 0.0
H391 H 0.06527 0.63693 0.70279 0.0
H392 H 0.17049 0.51784 0.55771 0.0
H393 H 0.19192 0.55475 0.53964 0.0
H394 H 0.12466 0.49791 0.52687 0.0
H395 H 0.08528 0.4983 0.57226 0.0
C396 C 0.95159 0.8367 0.82735 0.0
C397 C 0.92145 0.84208 0.87313 0.0
C398 C 0.93612 0.90044 0.89385 0.0
C399 C 0.96444 0.89581 0.83856 0.0
N400 N 0.99713 0.86063 0.74147 0.0
N401 N 0.8831 0.87904 0.94319 0.0
C402 C 0.9719 0.86417 0.80301 0.0
C403 C 0.91324 0.87394 0.90513 0.0
N404 N 0.96107 0.80527 0.80866 0.0
N405 N 0.93143 0.93017 0.93627 0.0
H406 H 0.86584 0.86013 0.95354 0.0
H407 H 0.87415 0.90223 0.95858 0.0
H408 H 0.94821 0.94979 0.93118 0.0
H409 H 0.91256 0.93473 0.98286 0.0
H410 H 0.98431 0.79955 0.78473 0.0
H411 H 0.94661 0.78456 0.82449 0.0
H412 H 0.00118 0.83902 0.7045 0.0
H413 H 0.01267 0.88002 0.72145 0.0
C414 C 0.66244 0.11943 0.90346 0.0
C415 C 0.69047 0.102 0.93034 0.0
C416 C 0.65833 0.05043 0.93193 0.0
C417 C 0.63161 0.06715 0.8931 0.0
N418 N 0.60986 0.1169 0.82814 0.0
N419 N 0.71655 0.05033 0.9596 0.0
C420 C 0.63392 0.10156 0.87589 0.0
C421 C 0.6888 0.06733 0.9423 0.0
N422 N 0.66283 0.15309 0.90625 0.0
N423 N 0.65422 0.01863 0.96145 0.0
H424 H 0.73942 0.06174 0.96725 0.0
H425 H 0.71745 0.02473 0.95867 0.0
H426 H 0.63194 0.00582 0.95716 0.0
H427 H 0.67176 0.00617 -0.00114 0.0
H428 H 0.64205 0.16703 0.89705 0.0
H429 H 0.68327 0.16704 0.92639 0.0
H430 H 0.61213 0.14102 0.8042 0.0
H431 H 0.58871 0.10484 0.8051 0.0
C432 C 0.60615 0.6264 0.94145 0.0
C433 C 0.59919 0.6587 0.91123 0.0
C434 C 0.54771 0.63908 0.84328 0.0
C435 C 0.55415 0.60692 0.8759 0.0
N436 N 0.5858 0.57073 0.97019 0.0
N437 N 0.56083 0.6975 0.85222 0.0
C438 C 0.58226 0.60087 0.92971 0.0
C439 C 0.56911 0.66557 0.86812 0.0
N440 N 0.63607 0.61994 0.97797 0.0
N441 N 0.52238 0.64402 0.78386 0.0
H442 H 0.57608 0.71753 0.86894 0.0
H443 H 0.53778 0.70431 0.83014 0.0
H444 H 0.50603 0.62538 0.76368 0.0
H445 H 0.51898 0.66605 0.74876 0.0
H446 H 0.6441 0.59632 0.9917 0.0
H447 H 0.65395 0.63815 0.98913 0.0
H448 H 0.60445 0.56522 0.01589 0.0
H449 H 0.5683 0.5518 0.96445 0.0
C450 C 0.82116 0.42652 0.85329 0.0
C451 C 0.82293 0.39745 0.90739 0.0
C452 C 0.88279 0.40195 0.90824 0.0
C453 C 0.88093 0.43159 0.857 0.0
N454 N 0.84926 0.47436 0.78761 0.0
N455 N 0.85431 0.35871 0.99446 0.0
C456 C 0.85034 0.44455 0.83154 0.0
C457 C 0.85347 0.38555 0.9374 0.0
N458 N 0.79155 0.43667 0.82203 0.0
N459 N 0.91268 0.38928 0.92741 0.0
H460 H 0.83356 0.34483 0.01262 0.0
H461 H 0.8752 0.35097 0.02795 0.0
H462 H 0.93462 0.40145 0.91086 0.0
H463 H 0.91607 0.36602 0.95533 0.0
H464 H 0.78867 0.45518 0.77321 0.0
H465 H 0.76942 0.42548 0.84144 0.0
H466 H 0.82795 0.48722 0.77661 0.0
H467 H 0.87007 0.48752 0.76602 0.0
C468 C 0.12067 0.05112 0.11361 0.0
C469 C 0.09918 0.06461 0.18056 0.0
C470 C 0.05193 0.04101 0.09873 0.0
C471 C 0.07329 0.02904 0.02912 0.0
N472 N 0.12763 0.01608 0.97811 0.0
N473 N 0.04561 0.06672 0.25005 0.0
C474 C 0.10764 0.03173 0.03963 0.0
C475 C 0.06517 0.05747 0.1777 0.0
N476 N 0.15345 0.05785 0.11954 0.0
N477 N 0.01892 0.03773 0.08699 0.0
H478 H 0.0544 0.07962 0.30765 0.0
H479 H 0.02113 0.05977 0.25664 0.0
H480 H 0.00854 0.02387 0.03325 0.0
H481 H 0.00177 0.04962 0.1279 0.0
H482 H 0.17029 0.05227 0.06787 0.0
H483 H 0.16388 0.07027 0.17586 0.0
H484 H 0.15278 0.01455 0.98569 0.0
H485 H 0.11882 0.00239 0.92197 0.0
C486 C 0.40597 -0.00095 0.08875 0.0
C487 C 0.41072 0.97899 0.16759 0.0
C488 C 0.46929 0.97668 0.13161 0.0
C489 C 0.46362 0.9929 0.04662 0.0
N490 N 0.42579 0.0159 0.9374 0.0
N491 N 0.44607 0.9451 0.25912 0.0
C492 C 0.4318 0.0034 0.02354 0.0
C493 C 0.44224 0.96708 0.18843 0.0
N494 N 0.37702 0.01465 0.07739 0.0
N495 N 0.50059 0.97076 0.15812 0.0
H496 H 0.42684 0.93669 0.30107 0.0
H497 H 0.46773 0.93293 0.27132 0.0
H498 H 0.5208 0.97754 0.1175 0.0
H499 H 0.50667 0.96202 0.22349 0.0
H500 H 0.37336 0.03237 0.02663 0.0
H501 H 0.35759 0.01221 0.12413 0.0
H502 H 0.40238 0.02002 0.91283 0.0
H503 H 0.44388 0.01978 0.88721 0.0
C504 C 0.44934 0.44896 0.21363 0.0
C505 C 0.41518 0.44287 0.21855 0.0
C506 C 0.40717 0.47604 0.07892 0.0
C507 C 0.44151 0.47757 0.06614 0.0
N508 N 0.49579 0.46715 0.1201 0.0
N509 N 0.36094 0.45131 0.16143 0.0
C510 C 0.46277 0.46495 0.13406 0.0
C511 C 0.39385 0.45707 0.15343 0.0
N512 N 0.46884 0.4391 0.28458 0.0
N513 N 0.38746 0.49233 0.01897 0.0
H514 H 0.35041 0.43913 0.2182 0.0
H515 H 0.34407 0.45747 0.11107 0.0
H516 H 0.39647 0.50569 0.96236 0.0
H517 H 0.36243 0.49467 0.02833 0.0
H518 H 0.49356 0.44515 0.28956 0.0
H519 H 0.4598 0.42667 0.34273 0.0
H520 H 0.51273 0.45479 0.1598 0.0
H521 H 0.50638 0.48064 0.06578 0.0
C522 C 0.06063 0.50203 0.20154 0.0
C523 C 0.06454 0.53606 0.22263 0.0
C524 C 0.03146 0.55053 0.08863 0.0
C525 C 0.0275 0.51652 0.06714 0.0
N526 N 0.03179 0.4598 0.11226 0.0
N527 N 0.04641 0.59165 0.20375 0.0
C528 C 0.03999 0.49219 0.12682 0.0
C529 C 0.04758 0.55998 0.17163 0.0
N530 N 0.07786 0.47933 0.24979 0.0
N531 N 0.0216 0.5739 0.02721 0.0
H532 H 0.05765 0.59927 0.26517 0.0
H533 H 0.03166 0.60947 0.1749 0.0
H534 H 0.00965 0.5683 0.96533 0.0
H535 H 0.0275 0.59886 0.03394 0.0
H536 H 0.07895 0.45458 0.23129 0.0
H537 H 0.09283 0.48557 0.30566 0.0
H538 H 0.03741 0.44102 0.15812 0.0
H539 H 0.01675 0.45203 0.0579 0.0
C540 C 0.95317 0.89556 0.35801 0.0
C541 C 0.95495 0.90653 0.26478 0.0
C542 C 0.98081 0.95849 0.31592 0.0
C543 C 0.98128 0.94626 0.40785 0.0
N544 N 0.97619 0.89967 0.51153 0.0
N545 N 0.9764 0.94534 0.15223 0.0
C546 C 0.96994 0.91373 0.42749 0.0
C547 C 0.97044 0.93718 0.24277 0.0
N548 N 0.9342 0.86869 0.38134 0.0
N549 N 0.98919 0.99065 0.29888 0.0
H550 H 0.97002 0.92986 0.09711 0.0
H551 H 0.9904 0.96584 0.13221 0.0
H552 H 0.99709 0.00687 0.35073 0.0
H553 H 0.98574 0.00189 0.23497 0.0
H554 H 0.92941 0.86188 0.4498 0.0
H555 H 0.92048 0.85518 0.33329 0.0
H556 H 0.97131 0.87491 0.52581 0.0
H557 H 0.98946 0.91165 0.56364 0.0
C558 C 0.6149 0.06977 0.36062 0.0
C559 C 0.62663 0.04783 0.29209 0.0
C560 C 0.59745 0.00168 0.36745 0.0
C561 C 0.5894 0.02292 0.44185 0.0
N562 N 0.59196 0.0766 0.51449 0.0
N563 N 0.63104 0.99278 0.23061 0.0
C564 C 0.59839 0.05686 0.43969 0.0
C565 C 0.61814 0.01374 0.29488 0.0
N566 N 0.61856 0.10305 0.34835 0.0
N567 N 0.58505 0.97016 0.36614 0.0
H568 H 0.64605 0.00081 0.17615 0.0
H569 H 0.6287 0.96725 0.23434 0.0
H570 H 0.57028 0.96065 0.41932 0.0
H571 H 0.58724 0.9543 0.3097 0.0
H572 H 0.60748 0.12043 0.39066 0.0
H573 H 0.63021 0.11344 0.29057 0.0
H574 H 0.60148 0.10042 0.52199 0.0
H575 H 0.57873 0.06854 0.57249 0.0
C576 C 0.5629 0.60881 0.39186 0.0
C577 C 0.56097 0.59799 0.29835 0.0
C578 C 0.5318 0.54759 0.34838 0.0
C579 C 0.53186 0.55967 0.44072 0.0
N580 N 0.53909 0.60583 0.54541 0.0
N581 N 0.53755 0.5607 0.18496 0.0
C582 C 0.54483 0.59156 0.46092 0.0
C583 C 0.54366 0.56837 0.27569 0.0
N584 N 0.58334 0.63444 0.41599 0.0
N585 N 0.52159 0.51599 0.33052 0.0
H586 H 0.54502 0.57585 0.13019 0.0
H587 H 0.52241 0.5411 0.16452 0.0
H588 H 0.51249 0.50021 0.38193 0.0
H589 H 0.52456 0.50465 0.26626 0.0
H590 H 0.58816 0.64089 0.48466 0.0
H591 H 0.59817 0.64709 0.36848 0.0
H592 H 0.54527 0.63029 0.56033 0.0
H593 H 0.52499 0.59449 0.59721 0.0
C594 C 0.92388 0.46422 0.25666 0.0
C595 C 0.88958 0.46843 0.26201 0.0
C596 C 0.89541 0.49543 0.41379 0.0
C597 C 0.92879 0.48693 0.41409 0.0
N598 N 0.97588 0.46485 0.33761 0.0
N599 N 0.84232 0.48941 0.34099 0.0
C600 C 0.94347 0.4722 0.33533 0.0
C601 C 0.87529 0.48478 0.33896 0.0
N602 N 0.93754 0.45227 0.17688 0.0
N603 N 0.88313 0.51381 0.48519 0.0
H604 H 0.82725 0.48429 0.28444 0.0
H605 H 0.82949 0.49732 0.39913 0.0
H606 H 0.89716 0.52159 0.54162 0.0
H607 H 0.85984 0.52349 0.48614 0.0
H608 H 0.96254 0.45142 0.16469 0.0
H609 H 0.92381 0.44494 0.11948 0.0
H610 H 0.9877 0.45095 0.28741 0.0
H611 H 0.99103 0.47186 0.39249 0.0
loop_
_geom_bond_atom_site_label_1
_geom_bond_atom_site_label_2
_geom_bond_distance
_geom_bond_site_symmetry_2
_ccdc_geom_bond_type
O0 Cd1 2.300 . S
O0 C7 1.275 . S
Cd1 O0 2.300 . S
Cd1 O9 2.381 . S
Cd1 O10 2.378 1_556 S
O2 Cd3 2.384 . S
O2 C7 1.256 1_554 S
Cd3 O2 2.384 . S
Cd3 O4 2.317 . S
O4 Cd3 2.317 . S
O4 C5 1.232 . S
C5 O4 1.232 . S
C5 O6 1.218 . S
O6 C5 1.218 . S
C7 O0 1.275 . S
C7 O2 1.256 1_556 S
C8 O9 1.258 . S
C8 O10 1.256 1_556 S
O9 Cd1 2.381 . S
O9 C8 1.258 . S
O10 Cd1 2.378 1_554 S
O10 C8 1.256 1_554 S
O11 Cd12 2.300 1_656 S
O11 C18 1.275 1_656 S
Cd12 O11 2.300 1_454 S
Cd12 O20 2.381 1_455 S
Cd12 O21 2.378 . S
O13 Cd14 2.385 . S
O13 C18 1.255 . S
Cd14 O13 2.385 . S
Cd14 O15 2.317 . S
O15 Cd14 2.317 . S
O15 C16 1.232 . S
C16 O15 1.232 . S
C16 O17 1.218 . S
O17 C16 1.218 . S
C18 O11 1.275 1_454 S
C18 O13 1.255 . S
C19 O20 1.257 1_455 S
C19 O21 1.256 . S
O20 Cd12 2.381 1_655 S
O20 C19 1.257 1_655 S
O21 Cd12 2.378 . S
O21 C19 1.256 . S
O22 Cd23 2.300 1_566 S
O22 C29 1.275 1_565 S
Cd23 O22 2.300 1_544 S
Cd23 O31 2.381 1_544 S
Cd23 O32 2.378 . S
O24 Cd25 2.385 . S
O24 C29 1.255 1_554 S
Cd25 O24 2.385 . S
Cd25 O26 2.317 . S
O26 Cd25 2.317 . S
O26 C27 1.232 . S
C27 O26 1.232 . S
C27 O28 1.218 . S
O28 C27 1.218 . S
C29 O22 1.275 1_545 S
C29 O24 1.255 1_556 S
C30 O31 1.258 1_544 S
C30 O32 1.256 . S
O31 Cd23 2.381 1_566 S
O31 C30 1.258 1_566 S
O32 Cd23 2.378 . S
O32 C30 1.256 . S
O33 Cd34 2.300 1_556 S
O33 C40 1.275 . S
Cd34 O33 2.300 1_554 S
Cd34 O42 2.381 1_554 S
Cd34 O43 2.378 . S
O35 Cd36 2.385 . S
O35 C40 1.255 1_554 S
Cd36 O35 2.385 . S
Cd36 O37 2.317 . S
O37 Cd36 2.317 . S
O37 C38 1.232 . S
C38 O37 1.232 . S
C38 O39 1.218 . S
O39 C38 1.218 . S
C40 O33 1.275 . S
C40 O35 1.255 1_556 S
C41 O42 1.258 . S
C41 O43 1.256 1_556 S
O42 Cd34 2.381 1_556 S
O42 C41 1.258 . S
O43 Cd34 2.378 . S
O43 C41 1.256 1_554 S
O44 Cd45 2.300 . S
O44 C51 1.275 . S
Cd45 O44 2.300 . S
Cd45 O53 2.381 . S
Cd45 O54 2.378 . S
O46 Cd47 2.385 . S
O46 C51 1.255 . S
Cd47 O46 2.385 . S
Cd47 O48 2.317 . S
O48 Cd47 2.317 . S
O48 C49 1.232 . S
C49 O48 1.232 . S
C49 O50 1.218 . S
O50 C49 1.218 . S
C51 O44 1.275 . S
C51 O46 1.255 . S
C52 O53 1.258 . S
C52 O54 1.256 . S
O53 Cd45 2.381 . S
O53 C52 1.258 . S
O54 Cd45 2.378 . S
O54 C52 1.256 . S
O55 Cd56 2.300 . S
O55 C62 1.275 . S
Cd56 O55 2.300 . S
Cd56 O64 2.381 . S
Cd56 O65 2.378 . S
O57 Cd58 2.385 . S
O57 C62 1.255 . S
Cd58 O57 2.385 . S
Cd58 O59 2.317 . S
O59 Cd58 2.317 . S
O59 C60 1.232 . S
C60 O59 1.232 . S
C60 O61 1.218 . S
O61 C60 1.218 . S
C62 O55 1.275 . S
C62 O57 1.255 . S
C63 O64 1.258 . S
C63 O65 1.256 . S
O64 Cd56 2.381 . S
O64 C63 1.258 . S
O65 Cd56 2.378 . S
O65 C63 1.256 . S
O66 Cd67 2.300 . S
O66 C73 1.275 . S
Cd67 O66 2.300 . S
Cd67 O75 2.381 1_545 S
Cd67 O76 2.378 . S
O68 Cd69 2.385 . S
O68 C73 1.255 . S
Cd69 O68 2.385 . S
Cd69 O70 2.317 . S
O70 Cd69 2.317 . S
O70 C71 1.232 . S
C71 O70 1.232 . S
C71 O72 1.218 . S
O72 C71 1.218 . S
C73 O66 1.275 . S
C73 O68 1.255 . S
C74 O75 1.258 1_545 S
C74 O76 1.256 . S
O75 Cd67 2.381 1_565 S
O75 C74 1.258 1_565 S
O76 Cd67 2.378 . S
O76 C74 1.256 . S
O77 Cd78 2.300 . S
O77 C84 1.275 . S
Cd78 O77 2.300 . S
Cd78 O86 2.381 . S
Cd78 O87 2.378 . S
O79 Cd80 2.385 . S
O79 C84 1.255 . S
Cd80 O79 2.385 . S
Cd80 O81 2.317 . S
O81 Cd80 2.317 . S
O81 C82 1.232 . S
C82 O81 1.232 . S
C82 O83 1.218 . S
O83 C82 1.218 . S
C84 O77 1.275 . S
C84 O79 1.255 . S
C85 O86 1.258 . S
C85 O87 1.256 . S
O86 Cd78 2.381 . S
O86 C85 1.258 . S
O87 Cd78 2.378 . S
O87 C85 1.256 . S
O88 Zn89 1.953 1_545 S
O88 C104 1.225 1_545 S
Zn89 O88 1.953 1_565 S
Zn89 O90 1.949 . S
Zn89 O96 1.917 1_565 S
Zn89 O101 1.926 . S
O90 Zn89 1.949 . S
O90 Zn91 1.899 1_465 S
O90 Zn92 1.952 . S
O90 Zn93 1.967 1_455 S
Zn91 O90 1.899 1_645 S
Zn91 O94 1.933 . S
Zn91 O97 1.941 1_655 S
Zn91 O98 1.962 1_655 S
Zn92 O90 1.952 . S
Zn92 O99 1.938 1_565 S
Zn92 O100 1.906 . S
Zn92 O110 1.953 . S
Zn93 O90 1.967 1_655 S
Zn93 O95 1.932 . S
Zn93 O102 1.977 . S
Zn93 O103 1.910 1_655 S
O94 Zn91 1.933 . S
O94 C105 1.226 . S
O95 Zn93 1.932 . S
O95 C105 1.307 1_565 S
O96 Zn89 1.917 1_545 S
O96 C107 1.253 . S
O97 Zn91 1.941 1_455 S
O97 C107 1.283 . S
O98 Zn91 1.962 1_455 S
O98 C106 1.330 . S
O99 Zn92 1.938 1_545 S
O99 C106 1.247 . S
O100 Zn92 1.906 . S
O100 C108 1.304 1_455 S
O101 Zn89 1.926 . S
O101 C109 1.311 . S
O102 Zn93 1.977 . S
O102 C108 1.272 . S
O103 Zn93 1.910 1_455 S
O103 C109 1.231 . S
C104 O88 1.225 1_565 S
C104 O110 1.298 . S
C105 O94 1.226 . S
C105 O95 1.307 1_545 S
C106 O98 1.330 . S
C106 O99 1.247 . S
C107 O96 1.253 . S
C107 O97 1.283 . S
C108 O100 1.304 1_655 S
C108 O102 1.272 . S
C109 O101 1.311 . S
C109 O103 1.231 . S
O110 Zn92 1.953 . S
O110 C104 1.298 . S
O111 Zn112 1.953 . S
O111 C127 1.225 . S
Zn112 O111 1.953 . S
Zn112 O113 1.949 . S
Zn112 O119 1.919 . S
Zn112 O124 1.924 . S
O113 Zn112 1.949 . S
O113 Zn114 1.923 1_545 S
O113 Zn115 1.950 . S
O113 Zn116 1.945 1_545 S
Zn114 O113 1.923 1_565 S
Zn114 O117 1.933 . S
Zn114 O120 1.941 . S
Zn114 O121 1.965 . S
Zn115 O113 1.950 . S
Zn115 O122 1.938 . S
Zn115 O123 1.906 . S
Zn115 O133 1.953 . S
Zn116 O113 1.945 1_565 S
Zn116 O118 1.932 . S
Zn116 O125 1.977 . S
Zn116 O126 1.910 1_565 S
O117 Zn114 1.933 . S
O117 C128 1.226 . S
O118 Zn116 1.932 . S
O118 C128 1.307 . S
O119 Zn112 1.919 . S
O119 C130 1.253 . S
O120 Zn114 1.941 . S
O120 C130 1.283 1_565 S
O121 Zn114 1.965 . S
O121 C129 1.303 1_565 S
O122 Zn115 1.938 . S
O122 C129 1.247 . S
O123 Zn115 1.906 . S
O123 C131 1.304 1_545 S
O124 Zn112 1.924 . S
O124 C132 1.311 . S
O125 Zn116 1.977 . S
O125 C131 1.272 . S
O126 Zn116 1.910 1_545 S
O126 C132 1.231 . S
C127 O111 1.225 . S
C127 O133 1.298 . S
C128 O117 1.226 . S
C128 O118 1.307 . S
C129 O121 1.303 1_545 S
C129 O122 1.247 . S
C130 O119 1.253 . S
C130 O120 1.283 1_545 S
C131 O123 1.304 1_565 S
C131 O125 1.272 . S
C132 O124 1.311 . S
C132 O126 1.231 . S
O133 Zn115 1.953 . S
O133 C127 1.298 . S
O134 Zn135 1.953 . S
O134 C150 1.225 . S
Zn135 O134 1.953 . S
Zn135 O136 1.949 . S
Zn135 O142 1.919 . S
Zn135 O147 1.924 . S
O136 Zn135 1.949 . S
O136 Zn137 1.923 . S
O136 Zn138 1.950 . S
O136 Zn139 1.945 . S
Zn137 O136 1.923 . S
Zn137 O140 1.933 . S
Zn137 O143 1.941 . S
Zn137 O144 1.965 . S
Zn138 O136 1.950 . S
Zn138 O145 1.938 . S
Zn138 O146 1.906 . S
Zn138 O156 1.953 . S
Zn139 O136 1.945 . S
Zn139 O141 1.932 . S
Zn139 O148 1.977 . S
Zn139 O149 1.910 . S
O140 Zn137 1.933 . S
O140 C151 1.226 . S
O141 Zn139 1.932 . S
O141 C151 1.307 . S
O142 Zn135 1.919 . S
O142 C153 1.253 . S
O143 Zn137 1.941 . S
O143 C153 1.283 . S
O144 Zn137 1.965 . S
O144 C152 1.303 . S
O145 Zn138 1.938 . S
O145 C152 1.247 . S
O146 Zn138 1.906 . S
O146 C154 1.304 . S
O147 Zn135 1.924 . S
O147 C155 1.311 . S
O148 Zn139 1.977 . S
O148 C154 1.272 . S
O149 Zn139 1.910 . S
O149 C155 1.231 . S
C150 O134 1.225 . S
C150 O156 1.298 . S
C151 O140 1.226 . S
C151 O141 1.307 . S
C152 O144 1.303 . S
C152 O145 1.247 . S
C153 O142 1.253 . S
C153 O143 1.283 . S
C154 O146 1.304 . S
C154 O148 1.272 . S
C155 O147 1.311 . S
C155 O149 1.231 . S
O156 Zn138 1.953 . S
O156 C150 1.298 . S
O157 Zn158 1.953 1_655 S
O157 C173 1.225 . S
Zn158 O157 1.953 1_455 S
Zn158 O159 1.949 . S
Zn158 O165 1.919 . S
Zn158 O170 1.924 . S
O159 Zn158 1.949 . S
O159 Zn160 1.917 1_455 S
O159 Zn161 1.929 1_455 S
O159 Zn162 1.973 . S
Zn160 O159 1.917 1_655 S
Zn160 O163 1.933 1_655 S
Zn160 O166 1.941 . S
Zn160 O167 1.965 . S
Zn161 O159 1.929 1_655 S
Zn161 O168 1.938 . S
Zn161 O169 1.906 . S
Zn161 O179 1.953 . S
Zn162 O159 1.973 . S
Zn162 O164 1.932 . S
Zn162 O171 1.977 . S
Zn162 O172 1.910 . S
O163 Zn160 1.933 1_455 S
O163 C174 1.226 . S
O164 Zn162 1.932 . S
O164 C174 1.307 . S
O165 Zn158 1.919 . S
O165 C176 1.252 1_455 S
O166 Zn160 1.941 . S
O166 C176 1.287 . S
O167 Zn160 1.965 . S
O167 C175 1.303 . S
O168 Zn161 1.938 . S
O168 C175 1.247 . S
O169 Zn161 1.906 . S
O169 C177 1.304 1_655 S
O170 Zn158 1.924 . S
O170 C178 1.311 . S
O171 Zn162 1.977 . S
O171 C177 1.272 . S
O172 Zn162 1.910 . S
O172 C178 1.231 . S
C173 O157 1.225 . S
C173 O179 1.298 . S
C174 O163 1.226 . S
C174 O164 1.307 . S
C175 O167 1.303 . S
C175 O168 1.247 . S
C176 O165 1.252 1_655 S
C176 O166 1.287 . S
C177 O169 1.304 1_455 S
C177 O171 1.272 . S
C178 O170 1.311 . S
C178 O172 1.231 . S
O179 Zn161 1.953 . S
O179 C173 1.298 . S
C180 C181 1.363 1_565 S
C180 C186 1.379 . S
C180 N188 1.356 . S
C181 C180 1.363 1_545 S
C181 C187 1.363 . S
C182 C183 1.363 1_545 S
C182 C187 1.379 . S
C182 N189 1.356 . S
C183 C182 1.363 1_565 S
C183 C186 1.363 . S
N184 C186 1.356 . S
N184 H196 0.984 . S
N184 H197 0.985 . S
N185 C187 1.356 . S
N185 H190 0.984 . S
N185 H191 0.985 . S
C186 C180 1.379 . S
C186 C183 1.363 . S
C186 N184 1.356 . S
C187 C181 1.363 . S
C187 C182 1.379 . S
C187 N185 1.356 . S
N188 C180 1.356 . S
N188 H194 0.984 . S
N188 H195 0.984 . S
N189 C182 1.356 . S
N189 H192 0.984 . S
N189 H193 0.985 . S
H190 N185 0.984 . S
H191 N185 0.985 . S
H192 N189 0.984 . S
H193 N189 0.985 . S
H194 N188 0.984 . S
H195 N188 0.984 . S
H196 N184 0.984 . S
H197 N184 0.985 . S
C198 C199 1.363 . S
C198 C204 1.379 . S
C198 N206 1.356 . S
C199 C198 1.363 . S
C199 C205 1.363 . S
C200 C201 1.363 . S
C200 C205 1.379 . S
C200 N207 1.356 . S
C201 C200 1.363 . S
C201 C204 1.363 . S
N202 C204 1.356 . S
N202 H214 0.984 . S
N202 H215 0.985 . S
N203 C205 1.356 . S
N203 H208 0.984 . S
N203 H209 0.985 . S
C204 C198 1.379 . S
C204 C201 1.363 . S
C204 N202 1.356 . S
C205 C199 1.363 . S
C205 C200 1.379 . S
C205 N203 1.356 . S
N206 C198 1.356 . S
N206 H212 0.984 . S
N206 H213 0.984 . S
N207 C200 1.356 . S
N207 H210 0.984 . S
N207 H211 0.985 . S
H208 N203 0.984 . S
H209 N203 0.985 . S
H210 N207 0.984 . S
H211 N207 0.985 . S
H212 N206 0.984 . S
H213 N206 0.984 . S
H214 N202 0.984 . S
H215 N202 0.985 . S
C216 C217 1.363 . S
C216 C222 1.379 . S
C216 N224 1.356 . S
C217 C216 1.363 . S
C217 C223 1.363 . S
C218 C219 1.363 . S
C218 C223 1.379 . S
C218 N225 1.356 . S
C219 C218 1.363 . S
C219 C222 1.363 . S
N220 C222 1.356 . S
N220 H232 0.984 . S
N220 H233 0.985 . S
N221 C223 1.356 . S
N221 H226 0.984 . S
N221 H227 0.985 . S
C222 C216 1.379 . S
C222 C219 1.363 . S
C222 N220 1.356 . S
C223 C217 1.363 . S
C223 C218 1.379 . S
C223 N221 1.356 . S
N224 C216 1.356 . S
N224 H230 0.984 . S
N224 H231 0.984 . S
N225 C218 1.356 . S
N225 H228 0.984 . S
N225 H229 0.985 . S
H226 N221 0.984 . S
H227 N221 0.985 . S
H228 N225 0.984 . S
H229 N225 0.985 . S
H230 N224 0.984 . S
H231 N224 0.984 . S
H232 N220 0.984 . S
H233 N220 0.985 . S
C234 C235 1.363 . S
C234 C240 1.379 . S
C234 N242 1.356 . S
C235 C234 1.363 . S
C235 C241 1.363 . S
C236 C237 1.363 . S
C236 C241 1.379 . S
C236 N243 1.356 1_455 S
C237 C236 1.363 . S
C237 C240 1.363 . S
N238 C240 1.356 . S
N238 H250 0.984 . S
N238 H251 0.985 . S
N239 C241 1.356 . S
N239 H244 0.984 . S
N239 H245 0.985 . S
C240 C234 1.379 . S
C240 C237 1.363 . S
C240 N238 1.356 . S
C241 C235 1.363 . S
C241 C236 1.379 . S
C241 N239 1.356 . S
N242 C234 1.356 . S
N242 H248 0.984 . S
N242 H249 0.984 . S
N243 C236 1.356 1_655 S
N243 H246 0.984 . S
N243 H247 0.985 . S
H244 N239 0.984 . S
H245 N239 0.985 . S
H246 N243 0.984 . S
H247 N243 0.985 . S
H248 N242 0.984 . S
H249 N242 0.984 . S
H250 N238 0.984 . S
H251 N238 0.985 . S
C252 C253 1.373 . S
C252 C258 1.379 . S
C252 N260 1.356 1_556 S
C253 C252 1.373 . S
C253 C259 1.352 1_565 S
C254 C255 1.363 . S
C254 C259 1.379 . S
C254 N261 1.356 . S
C255 C254 1.363 . S
C255 C258 1.363 1_545 S
N256 C258 1.356 . S
N256 H268 0.984 . S
N256 H269 0.985 . S
N257 C259 1.356 . S
N257 H262 0.984 . S
N257 H263 0.985 . S
C258 C252 1.379 . S
C258 C255 1.363 1_565 S
C258 N256 1.356 . S
C259 C253 1.352 1_545 S
C259 C254 1.379 . S
C259 N257 1.356 . S
N260 C252 1.356 1_554 S
N260 H266 0.984 . S
N260 H267 0.984 . S
N261 C254 1.356 . S
N261 H264 0.984 . S
N261 H265 0.985 . S
H262 N257 0.984 . S
H263 N257 0.985 . S
H264 N261 0.984 . S
H265 N261 0.985 . S
H266 N260 0.984 . S
H267 N260 0.984 . S
H268 N256 0.984 . S
H269 N256 0.985 . S
C270 C271 1.363 . S
C270 C276 1.379 . S
C270 N278 1.356 . S
C271 C270 1.363 . S
C271 C277 1.363 . S
C272 C273 1.363 . S
C272 C277 1.379 . S
C272 N279 1.356 . S
C273 C272 1.363 . S
C273 C276 1.363 . S
N274 C276 1.356 . S
N274 H286 0.984 . S
N274 H287 0.985 . S
N275 C277 1.356 1_554 S
N275 H280 0.984 . S
N275 H281 0.985 . S
C276 C270 1.379 . S
C276 C273 1.363 . S
C276 N274 1.356 . S
C277 C271 1.363 . S
C277 C272 1.379 . S
C277 N275 1.356 1_556 S
N278 C270 1.356 . S
N278 H284 0.984 . S
N278 H285 0.984 . S
N279 C272 1.356 . S
N279 H282 0.984 . S
N279 H283 0.985 . S
H280 N275 0.984 . S
H281 N275 0.985 . S
H282 N279 0.984 . S
H283 N279 0.985 . S
H284 N278 0.984 . S
H285 N278 0.984 . S
H286 N274 0.984 . S
H287 N274 0.985 . S
C288 C289 1.363 . S
C288 C294 1.379 . S
C288 N296 1.356 . S
C289 C288 1.363 . S
C289 C295 1.363 . S
C290 C291 1.363 . S
C290 C295 1.379 . S
C290 N297 1.356 . S
C291 C290 1.363 . S
C291 C294 1.363 . S
N292 C294 1.356 . S
N292 H304 0.984 . S
N292 H305 0.985 . S
N293 C295 1.356 . S
N293 H298 0.984 1_556 S
N293 H299 0.985 . S
C294 C288 1.379 . S
C294 C291 1.363 . S
C294 N292 1.356 . S
C295 C289 1.363 . S
C295 C290 1.379 . S
C295 N293 1.356 . S
N296 C288 1.356 . S
N296 H302 0.984 . S
N296 H303 0.984 . S
N297 C290 1.356 . S
N297 H300 0.984 . S
N297 H301 0.985 . S
H298 N293 0.984 1_554 S
H299 N293 0.985 . S
H300 N297 0.984 . S
H301 N297 0.985 . S
H302 N296 0.984 . S
H303 N296 0.984 . S
H304 N292 0.984 . S
H305 N292 0.985 . S
C306 C307 1.363 1_554 S
C306 C312 1.379 1_554 S
C306 N314 1.356 . S
C307 C306 1.363 1_556 S
C307 C313 1.363 1_655 S
C308 C309 1.363 . S
C308 C313 1.379 . S
C308 N315 1.356 . S
C309 C308 1.363 . S
C309 C312 1.363 1_455 S
N310 C312 1.356 . S
N310 H322 0.984 . S
N310 H323 0.985 . S
N311 C313 1.356 . S
N311 H316 0.984 . S
N311 H317 0.985 . S
C312 C306 1.379 1_556 S
C312 C309 1.363 1_655 S
C312 N310 1.356 . S
C313 C307 1.363 1_455 S
C313 C308 1.379 . S
C313 N311 1.356 . S
N314 C306 1.356 . S
N314 H320 0.984 . S
N314 H321 0.984 . S
N315 C308 1.356 . S
N315 H318 0.984 . S
N315 H319 0.985 . S
H316 N311 0.984 . S
H317 N311 0.985 . S
H318 N315 0.984 . S
H319 N315 0.985 . S
H320 N314 0.984 . S
H321 N314 0.984 . S
H322 N310 0.984 . S
H323 N310 0.985 . S
C324 C325 1.363 . S
C324 C330 1.379 . S
C324 N332 1.356 . S
C325 C324 1.363 . S
C325 C331 1.363 . S
C326 C327 1.363 . S
C326 C331 1.379 . S
C326 N333 1.356 . S
C327 C326 1.363 . S
C327 C330 1.363 . S
N328 C330 1.356 . S
N328 H340 0.984 . S
N328 H341 0.985 . S
N329 C331 1.356 . S
N329 H334 0.984 . S
N329 H335 0.985 . S
C330 C324 1.379 . S
C330 C327 1.363 . S
C330 N328 1.356 . S
C331 C325 1.363 . S
C331 C326 1.379 . S
C331 N329 1.356 . S
N332 C324 1.356 . S
N332 H338 0.984 . S
N332 H339 0.984 . S
N333 C326 1.356 . S
N333 H336 0.984 . S
N333 H337 0.985 1_455 S
H334 N329 0.984 . S
H335 N329 0.985 . S
H336 N333 0.984 . S
H337 N333 0.985 1_655 S
H338 N332 0.984 . S
H339 N332 0.984 . S
H340 N328 0.984 . S
H341 N328 0.985 . S
C342 C343 1.363 . S
C342 C348 1.379 . S
C342 N350 1.356 . S
C343 C342 1.363 . S
C343 C349 1.363 1_545 S
C344 C345 1.363 1_565 S
C344 C349 1.379 . S
C344 N351 1.356 . S
C345 C344 1.363 1_545 S
C345 C348 1.363 . S
N346 C348 1.356 . S
N346 H358 0.984 . S
N346 H359 0.985 . S
N347 C349 1.356 . S
N347 H352 0.984 . S
N347 H353 0.985 . S
C348 C342 1.379 . S
C348 C345 1.363 . S
C348 N346 1.356 . S
C349 C343 1.363 1_565 S
C349 C344 1.379 . S
C349 N347 1.356 . S
N350 C342 1.356 . S
N350 H356 0.984 . S
N350 H357 0.984 . S
N351 C344 1.356 . S
N351 H354 0.984 . S
N351 H355 0.985 . S
H352 N347 0.984 . S
H353 N347 0.985 . S
H354 N351 0.984 . S
H355 N351 0.985 . S
H356 N350 0.984 . S
H357 N350 0.984 . S
H358 N346 0.984 . S
H359 N346 0.985 . S
C360 C361 1.363 . S
C360 C366 1.379 . S
C360 N368 1.356 . S
C361 C360 1.363 . S
C361 C367 1.363 . S
C362 C363 1.363 . S
C362 C367 1.379 . S
C362 N369 1.356 . S
C363 C362 1.363 . S
C363 C366 1.363 . S
N364 C366 1.356 . S
N364 H376 0.984 . S
N364 H377 0.985 . S
N365 C367 1.356 . S
N365 H370 0.984 . S
N365 H371 0.985 . S
C366 C360 1.379 . S
C366 C363 1.363 . S
C366 N364 1.356 . S
C367 C361 1.363 . S
C367 C362 1.379 . S
C367 N365 1.356 . S
N368 C360 1.356 . S
N368 H374 0.984 . S
N368 H375 0.984 . S
N369 C362 1.356 . S
N369 H372 0.984 . S
N369 H373 0.985 . S
H370 N365 0.984 . S
H371 N365 0.985 . S
H372 N369 0.984 . S
H373 N369 0.985 . S
H374 N368 0.984 . S
H375 N368 0.984 . S
H376 N364 0.984 . S
H377 N364 0.985 . S
C378 C379 1.363 . S
C378 C384 1.379 . S
C378 N386 1.356 . S
C379 C378 1.363 . S
C379 C385 1.363 . S
C380 C381 1.363 . S
C380 C385 1.379 . S
C380 N387 1.356 . S
C381 C380 1.363 . S
C381 C384 1.363 . S
N382 C384 1.356 . S
N382 H394 0.984 . S
N382 H395 0.985 . S
N383 C385 1.356 . S
N383 H388 0.984 . S
N383 H389 0.985 . S
C384 C378 1.379 . S
C384 C381 1.363 . S
C384 N382 1.356 . S
C385 C379 1.363 . S
C385 C380 1.379 . S
C385 N383 1.356 . S
N386 C378 1.356 . S
N386 H392 0.984 . S
N386 H393 0.984 . S
N387 C380 1.356 . S
N387 H390 0.984 . S
N387 H391 0.985 . S
H388 N383 0.984 . S
H389 N383 0.985 . S
H390 N387 0.984 . S
H391 N387 0.985 . S
H392 N386 0.984 . S
H393 N386 0.984 . S
H394 N382 0.984 . S
H395 N382 0.985 . S
C396 C397 1.363 1_556 S
C396 C402 1.379 . S
C396 N404 1.356 . S
C397 C396 1.363 1_554 S
C397 C403 1.363 . S
C398 C399 1.363 1_554 S
C398 C403 1.379 . S
C398 N405 1.356 . S
C399 C398 1.363 1_556 S
C399 C402 1.363 . S
N400 C402 1.356 . S
N400 H412 0.984 . S
N400 H413 0.985 . S
N401 C403 1.356 1_655 S
N401 H406 0.984 . S
N401 H407 0.985 . S
C402 C396 1.379 . S
C402 C399 1.363 . S
C402 N400 1.356 . S
C403 C397 1.363 . S
C403 C398 1.379 . S
C403 N401 1.356 1_455 S
N404 C396 1.356 . S
N404 H410 0.984 . S
N404 H411 0.984 1_455 S
N405 C398 1.356 . S
N405 H408 0.984 . S
N405 H409 0.985 . S
H406 N401 0.984 . S
H407 N401 0.985 . S
H408 N405 0.984 . S
H409 N405 0.985 . S
H410 N404 0.984 . S
H411 N404 0.984 1_655 S
H412 N400 0.984 . S
H413 N400 0.985 . S
C414 C415 1.363 . S
C414 C420 1.379 . S
C414 N422 1.356 . S
C415 C414 1.363 . S
C415 C421 1.363 1_556 S
C416 C417 1.363 . S
C416 C421 1.379 1_556 S
C416 N423 1.356 1_556 S
C417 C416 1.363 . S
C417 C420 1.363 . S
N418 C420 1.356 . S
N418 H430 0.984 . S
N418 H431 0.985 . S
N419 C421 1.356 1_565 S
N419 H424 0.984 . S
N419 H425 0.985 . S
C420 C414 1.379 . S
C420 C417 1.363 . S
C420 N418 1.356 . S
C421 C415 1.363 1_554 S
C421 C416 1.379 1_554 S
C421 N419 1.356 1_545 S
N422 C414 1.356 . S
N422 H428 0.984 . S
N422 H429 0.984 1_545 S
N423 C416 1.356 1_554 S
N423 H426 0.984 1_554 S
N423 H427 0.985 . S
H424 N419 0.984 . S
H425 N419 0.985 . S
H426 N423 0.984 1_556 S
H427 N423 0.985 . S
H428 N422 0.984 . S
H429 N422 0.984 1_565 S
H430 N418 0.984 . S
H431 N418 0.985 . S
C432 C433 1.363 . S
C432 C438 1.379 . S
C432 N440 1.356 1_556 S
C433 C432 1.363 . S
C433 C439 1.363 . S
C434 C435 1.363 . S
C434 C439 1.379 . S
C434 N441 1.356 . S
C435 C434 1.363 . S
C435 C438 1.363 . S
N436 C438 1.356 . S
N436 H448 0.984 1_556 S
N436 H449 0.985 . S
N437 C439 1.356 . S
N437 H442 0.984 . S
N437 H443 0.985 . S
C438 C432 1.379 . S
C438 C435 1.363 . S
C438 N436 1.356 . S
C439 C433 1.363 . S
C439 C434 1.379 . S
C439 N437 1.356 . S
N440 C432 1.356 1_554 S
N440 H446 0.984 . S
N440 H447 0.984 . S
N441 C434 1.356 . S
N441 H444 0.984 . S
N441 H445 0.985 . S
H442 N437 0.984 . S
H443 N437 0.985 . S
H444 N441 0.984 . S
H445 N441 0.985 . S
H446 N440 0.984 . S
H447 N440 0.984 . S
H448 N436 0.984 1_554 S
H449 N436 0.985 . S
C450 C451 1.363 . S
C450 C456 1.379 . S
C450 N458 1.356 1_556 S
C451 C450 1.363 . S
C451 C457 1.363 . S
C452 C453 1.363 . S
C452 C457 1.379 . S
C452 N459 1.356 . S
C453 C452 1.363 . S
C453 C456 1.363 . S
N454 C456 1.356 . S
N454 H466 0.984 1_556 S
N454 H467 0.985 . S
N455 C457 1.356 . S
N455 H460 0.984 . S
N455 H461 0.985 . S
C456 C450 1.379 . S
C456 C453 1.363 . S
C456 N454 1.356 . S
C457 C451 1.363 . S
C457 C452 1.379 . S
C457 N455 1.356 . S
N458 C450 1.356 1_554 S
N458 H464 0.984 . S
N458 H465 0.984 . S
N459 C452 1.356 . S
N459 H462 0.984 . S
N459 H463 0.985 . S
H460 N455 0.984 . S
H461 N455 0.985 . S
H462 N459 0.984 . S
H463 N459 0.985 . S
H464 N458 0.984 . S
H465 N458 0.984 . S
H466 N454 0.984 1_554 S
H467 N454 0.985 . S
C468 C469 1.363 . S
C468 C474 1.379 . S
C468 N476 1.356 . S
C469 C468 1.363 . S
C469 C475 1.363 . S
C470 C471 1.363 . S
C470 C475 1.379 . S
C470 N477 1.356 . S
C471 C470 1.363 . S
C471 C474 1.363 . S
N472 C474 1.356 1_556 S
N472 H484 0.984 . S
N472 H485 0.985 . S
N473 C475 1.356 . S
N473 H478 0.984 . S
N473 H479 0.985 . S
C474 C468 1.379 . S
C474 C471 1.363 . S
C474 N472 1.356 1_554 S
C475 C469 1.363 . S
C475 C470 1.379 . S
C475 N473 1.356 . S
N476 C468 1.356 . S
N476 H482 0.984 1_554 S
N476 H483 0.984 . S
N477 C470 1.356 . S
N477 H480 0.984 . S
N477 H481 0.985 . S
H478 N473 0.984 . S
H479 N473 0.985 . S
H480 N477 0.984 . S
H481 N477 0.985 . S
H482 N476 0.984 1_556 S
H483 N476 0.984 . S
H484 N472 0.984 . S
H485 N472 0.985 . S
C486 C487 1.363 . S
C486 C492 1.379 1_554 S
C486 N494 1.356 . S
C487 C486 1.363 . S
C487 C493 1.363 1_545 S
C488 C489 1.363 1_564 S
C488 C493 1.379 . S
C488 N495 1.356 . S
C489 C488 1.363 1_546 S
C489 C492 1.363 . S
N490 C492 1.356 . S
N490 H502 0.984 . S
N490 H503 0.985 . S
N491 C493 1.356 . S
N491 H496 0.984 . S
N491 H497 0.985 . S
C492 C486 1.379 1_556 S
C492 C489 1.363 . S
C492 N490 1.356 . S
C493 C487 1.363 1_565 S
C493 C488 1.379 . S
C493 N491 1.356 . S
N494 C486 1.356 . S
N494 H500 0.984 . S
N494 H501 0.984 . S
N495 C488 1.356 . S
N495 H498 0.984 . S
N495 H499 0.985 . S
H496 N491 0.984 . S
H497 N491 0.985 . S
H498 N495 0.984 . S
H499 N495 0.985 . S
H500 N494 0.984 . S
H501 N494 0.984 . S
H502 N490 0.984 . S
H503 N490 0.985 . S
C504 C505 1.363 . S
C504 C510 1.379 . S
C504 N512 1.356 . S
C505 C504 1.363 . S
C505 C511 1.363 1_554 S
C506 C507 1.363 . S
C506 C511 1.379 . S
C506 N513 1.356 . S
C507 C506 1.363 . S
C507 C510 1.363 1_556 S
N508 C510 1.356 . S
N508 H520 0.984 . S
N508 H521 0.985 . S
N509 C511 1.356 . S
N509 H514 0.984 1_556 S
N509 H515 0.985 . S
C510 C504 1.379 . S
C510 C507 1.363 1_554 S
C510 N508 1.356 . S
C511 C505 1.363 1_556 S
C511 C506 1.379 . S
C511 N509 1.356 . S
N512 C504 1.356 . S
N512 H518 0.984 . S
N512 H519 0.984 . S
N513 C506 1.356 . S
N513 H516 0.984 . S
N513 H517 0.985 . S
H514 N509 0.984 1_554 S
H515 N509 0.985 . S
H516 N513 0.984 . S
H517 N513 0.985 . S
H518 N512 0.984 . S
H519 N512 0.984 . S
H520 N508 0.984 . S
H521 N508 0.985 . S
C522 C523 1.363 . S
C522 C528 1.379 1_554 S
C522 N530 1.356 . S
C523 C522 1.363 . S
C523 C529 1.363 . S
C524 C525 1.363 1_554 S
C524 C529 1.379 . S
C524 N531 1.356 . S
C525 C524 1.363 1_556 S
C525 C528 1.363 . S
N526 C528 1.356 . S
N526 H538 0.984 . S
N526 H539 0.985 . S
N527 C529 1.356 . S
N527 H532 0.984 . S
N527 H533 0.985 . S
C528 C522 1.379 1_556 S
C528 C525 1.363 . S
C528 N526 1.356 . S
C529 C523 1.363 . S
C529 C524 1.379 . S
C529 N527 1.356 . S
N530 C522 1.356 . S
N530 H536 0.984 1_554 S
N530 H537 0.984 . S
N531 C524 1.356 . S
N531 H534 0.984 1_554 S
N531 H535 0.985 . S
H532 N527 0.984 . S
H533 N527 0.985 . S
H534 N531 0.984 1_556 S
H535 N531 0.985 . S
H536 N530 0.984 1_556 S
H537 N530 0.984 . S
H538 N526 0.984 . S
H539 N526 0.985 . S
C540 C541 1.363 1_455 S
C540 C546 1.379 . S
C540 N548 1.356 . S
C541 C540 1.363 1_655 S
C541 C547 1.363 . S
C542 C543 1.363 . S
C542 C547 1.379 . S
C542 N549 1.356 . S
C543 C542 1.363 . S
C543 C546 1.363 1_655 S
N544 C546 1.356 . S
N544 H556 0.984 . S
N544 H557 0.985 . S
N545 C547 1.356 . S
N545 H550 0.984 . S
N545 H551 0.985 . S
C546 C540 1.379 . S
C546 C543 1.363 1_455 S
C546 N544 1.356 . S
C547 C541 1.363 . S
C547 C542 1.379 . S
C547 N545 1.356 . S
N548 C540 1.356 . S
N548 H554 0.984 . S
N548 H555 0.984 . S
N549 C542 1.356 . S
N549 H552 0.984 . S
N549 H553 0.985 . S
H550 N545 0.984 . S
H551 N545 0.985 . S
H552 N549 0.984 . S
H553 N549 0.985 . S
H554 N548 0.984 . S
H555 N548 0.984 . S
H556 N544 0.984 . S
H557 N544 0.985 . S
C558 C559 1.363 1_545 S
C558 C564 1.379 . S
C558 N566 1.356 . S
C559 C558 1.363 1_565 S
C559 C565 1.363 . S
C560 C561 1.363 . S
C560 C565 1.379 . S
C560 N567 1.356 . S
C561 C560 1.363 . S
C561 C564 1.363 1_565 S
N562 C564 1.356 . S
N562 H574 0.984 . S
N562 H575 0.985 . S
N563 C565 1.356 . S
N563 H568 0.984 . S
N563 H569 0.985 . S
C564 C558 1.379 . S
C564 C561 1.363 1_545 S
C564 N562 1.356 . S
C565 C559 1.363 . S
C565 C560 1.379 . S
C565 N563 1.356 . S
N566 C558 1.356 . S
N566 H572 0.984 . S
N566 H573 0.984 . S
N567 C560 1.356 . S
N567 H570 0.984 . S
N567 H571 0.985 . S
H568 N563 0.984 . S
H569 N563 0.985 . S
H570 N567 0.984 . S
H571 N567 0.985 . S
H572 N566 0.984 . S
H573 N566 0.984 . S
H574 N562 0.984 . S
H575 N562 0.985 . S
C576 C577 1.363 . S
C576 C582 1.379 . S
C576 N584 1.356 . S
C577 C576 1.363 . S
C577 C583 1.363 . S
C578 C579 1.363 . S
C578 C583 1.379 . S
C578 N585 1.356 . S
C579 C578 1.363 . S
C579 C582 1.363 . S
N580 C582 1.356 . S
N580 H592 0.984 . S
N580 H593 0.985 . S
N581 C583 1.356 . S
N581 H586 0.984 . S
N581 H587 0.985 . S
C582 C576 1.379 . S
C582 C579 1.363 . S
C582 N580 1.356 . S
C583 C577 1.363 . S
C583 C578 1.379 . S
C583 N581 1.356 . S
N584 C576 1.356 . S
N584 H590 0.984 . S
N584 H591 0.984 . S
N585 C578 1.356 . S
N585 H588 0.984 . S
N585 H589 0.985 . S
H586 N581 0.984 . S
H587 N581 0.985 . S
H588 N585 0.984 . S
H589 N585 0.985 . S
H590 N584 0.984 . S
H591 N584 0.984 . S
H592 N580 0.984 . S
H593 N580 0.985 . S
C594 C595 1.363 . S
C594 C600 1.379 . S
C594 N602 1.356 . S
C595 C594 1.363 . S
C595 C601 1.363 . S
C596 C597 1.363 . S
C596 C601 1.379 . S
C596 N603 1.356 . S
C597 C596 1.363 . S
C597 C600 1.363 . S
N598 C600 1.356 . S
N598 H610 0.984 . S
N598 H611 0.985 . S
N599 C601 1.356 . S
N599 H604 0.984 . S
N599 H605 0.985 . S
C600 C594 1.379 . S
C600 C597 1.363 . S
C600 N598 1.356 . S
C601 C595 1.363 . S
C601 C596 1.379 . S
C601 N599 1.356 . S
N602 C594 1.356 . S
N602 H608 0.984 . S
N602 H609 0.984 . S
N603 C596 1.356 . S
N603 H606 0.984 . S
N603 H607 0.985 . S
H604 N599 0.984 . S
H605 N599 0.985 . S
H606 N603 0.984 . S
H607 N603 0.985 . S
H608 N602 0.984 . S
H609 N602 0.984 . S
H610 N598 0.984 . S
H611 N598 0.985 . S
C181 C74 1.571 . S
C183 C104 1.566 . S
C201 C127 1.615 . S
C199 C85 1.631 . S
C219 C150 1.602 . S
C217 C52 1.599 . S
C237 C177 1.512 . S
C235 C63 1.611 . S
C255 C105 1.533 . S
C253 C30 1.513 1_566 S
C271 C41 1.470 . S
C273 C128 1.501 . S
C289 C8 1.460 . S
C291 C151 1.480 . S
C307 C19 1.536 1_656 S
C309 C176 1.544 1_455 S
C327 C106 0.783 . S
C325 C62 0.780 . S
C345 C129 0.711 . S
C343 C73 0.712 . S
C363 C152 0.754 . S
C361 C84 0.754 . S
C379 C51 0.943 . S
C381 C178 0.874 . S
C397 C18 0.998 . S
C399 C109 0.971 . S
C417 C132 0.958 . S
C415 C29 1.005 . S
C435 C155 0.945 . S
C433 C40 0.979 . S
C451 C7 0.738 . S
C453 C175 0.739 . S
C469 C60 1.457 . S
C471 C107 1.544 1_554 S
C487 C71 1.316 . S
C489 C130 1.516 . S
C507 C153 1.537 . S
C505 C82 1.387 . S
C525 C174 1.431 . S
C523 C49 1.136 . S
C541 C16 1.471 1_655 S
C543 C108 1.541 . S
C561 C131 1.494 . S
C559 C27 1.447 1_565 S
C579 C154 1.483 . S
C577 C38 1.376 . S
C595 C5 1.424 . S
C597 C173 1.679 . S
