# Generated by pormake.
# Topology ocu, (6,8)-cn, num edge types: 1
# Building blocks:
#     Node 0, Type 0, BuildingBlock: CUWYAW_clean_sbu_0, # of connection points: 6
#     Node 1, Type 0, BuildingBlock: CUWYAW_clean_sbu_0, # of connection points: 6
#     Node 2, Type 0, BuildingBlock: CUWYAW_clean_sbu_0, # of connection points: 6
#     Node 3, Type 0, BuildingBlock: CUWYAW_clean_sbu_0, # of connection points: 6
#     Node 4, Type 0, BuildingBlock: CUWYAW_clean_sbu_0, # of connection points: 6
#     Node 5, Type 0, BuildingBlock: CUWYAW_clean_sbu_0, # of connection points: 6
#     Node 6, Type 0, BuildingBlock: CUWYAW_clean_sbu_0, # of connection points: 6
#     Node 7, Type 0, BuildingBlock: CUWYAW_clean_sbu_0, # of connection points: 6
#     Node 8, Type 1, BuildingBlock: TAGTUT_clean_sbu_1, # of connection points: 8
#     Node 9, Type 1, BuildingBlock: TAGTUT_clean_sbu_1, # of connection points: 8
#     Node 10, Type 1, BuildingBlock: TAGTUT_clean_sbu_1, # of connection points: 8
#     Node 11, Type 1, BuildingBlock: TAGTUT_clean_sbu_1, # of connection points: 8
#     Node 12, Type 1, BuildingBlock: TAGTUT_clean_sbu_1, # of connection points: 8
#     Node 13, Type 1, BuildingBlock: TAGTUT_clean_sbu_1, # of connection points: 8
#     Edge 14, Type (0, 1), BuildingBlock: ZUJKAS_clean_linker_0, # of connection points: 2
#     Edge 15, Type (0, 1), BuildingBlock: ZUJKAS_clean_linker_0, # of connection points: 2
#     Edge 16, Type (0, 1), BuildingBlock: ZUJKAS_clean_linker_0, # of connection points: 2
#     Edge 17, Type (0, 1), BuildingBlock: ZUJKAS_clean_linker_0, # of connection points: 2
#     Edge 18, Type (0, 1), BuildingBlock: ZUJKAS_clean_linker_0, # of connection points: 2
#     Edge 19, Type (0, 1), BuildingBlock: ZUJKAS_clean_linker_0, # of connection points: 2
#     Edge 20, Type (0, 1), BuildingBlock: ZUJKAS_clean_linker_0, # of connection points: 2
#     Edge 21, Type (0, 1), BuildingBlock: ZUJKAS_clean_linker_0, # of connection points: 2
#     Edge 22, Type (0, 1), BuildingBlock: ZUJKAS_clean_linker_0, # of connection points: 2
#     Edge 23, Type (0, 1), BuildingBlock: ZUJKAS_clean_linker_0, # of connection points: 2
#     Edge 24, Type (0, 1), BuildingBlock: ZUJKAS_clean_linker_0, # of connection points: 2
#     Edge 25, Type (0, 1), BuildingBlock: ZUJKAS_clean_linker_0, # of connection points: 2
#     Edge 26, Type (0, 1), BuildingBlock: ZUJKAS_clean_linker_0, # of connection points: 2
#     Edge 27, Type (0, 1), BuildingBlock: ZUJKAS_clean_linker_0, # of connection points: 2
#     Edge 28, Type (0, 1), BuildingBlock: ZUJKAS_clean_linker_0, # of connection points: 2
#     Edge 29, Type (0, 1), BuildingBlock: ZUJKAS_clean_linker_0, # of connection points: 2
#     Edge 30, Type (0, 1), BuildingBlock: ZUJKAS_clean_linker_0, # of connection points: 2
#     Edge 31, Type (0, 1), BuildingBlock: ZUJKAS_clean_linker_0, # of connection points: 2
#     Edge 32, Type (0, 1), BuildingBlock: ZUJKAS_clean_linker_0, # of connection points: 2
#     Edge 33, Type (0, 1), BuildingBlock: ZUJKAS_clean_linker_0, # of connection points: 2
#     Edge 34, Type (0, 1), BuildingBlock: ZUJKAS_clean_linker_0, # of connection points: 2
#     Edge 35, Type (0, 1), BuildingBlock: ZUJKAS_clean_linker_0, # of connection points: 2
#     Edge 36, Type (0, 1), BuildingBlock: ZUJKAS_clean_linker_0, # of connection points: 2
#     Edge 37, Type (0, 1), BuildingBlock: ZUJKAS_clean_linker_0, # of connection points: 2
#     Edge 38, Type (0, 1), BuildingBlock: ZUJKAS_clean_linker_0, # of connection points: 2
#     Edge 39, Type (0, 1), BuildingBlock: ZUJKAS_clean_linker_0, # of connection points: 2
#     Edge 40, Type (0, 1), BuildingBlock: ZUJKAS_clean_linker_0, # of connection points: 2
#     Edge 41, Type (0, 1), BuildingBlock: ZUJKAS_clean_linker_0, # of connection points: 2
#     Edge 42, Type (0, 1), BuildingBlock: ZUJKAS_clean_linker_0, # of connection points: 2
#     Edge 43, Type (0, 1), BuildingBlock: ZUJKAS_clean_linker_0, # of connection points: 2
#     Edge 44, Type (0, 1), BuildingBlock: ZUJKAS_clean_linker_0, # of connection points: 2
#     Edge 45, Type (0, 1), BuildingBlock: ZUJKAS_clean_linker_0, # of connection points: 2
#     Edge 46, Type (0, 1), BuildingBlock: ZUJKAS_clean_linker_0, # of connection points: 2
#     Edge 47, Type (0, 1), BuildingBlock: ZUJKAS_clean_linker_0, # of connection points: 2
#     Edge 48, Type (0, 1), BuildingBlock: ZUJKAS_clean_linker_0, # of connection points: 2
#     Edge 49, Type (0, 1), BuildingBlock: ZUJKAS_clean_linker_0, # of connection points: 2
#     Edge 50, Type (0, 1), BuildingBlock: ZUJKAS_clean_linker_0, # of connection points: 2
#     Edge 51, Type (0, 1), BuildingBlock: ZUJKAS_clean_linker_0, # of connection points: 2
#     Edge 52, Type (0, 1), BuildingBlock: ZUJKAS_clean_linker_0, # of connection points: 2
#     Edge 53, Type (0, 1), BuildingBlock: ZUJKAS_clean_linker_0, # of connection points: 2
#     Edge 54, Type (0, 1), BuildingBlock: ZUJKAS_clean_linker_0, # of connection points: 2
#     Edge 55, Type (0, 1), BuildingBlock: ZUJKAS_clean_linker_0, # of connection points: 2
#     Edge 56, Type (0, 1), BuildingBlock: ZUJKAS_clean_linker_0, # of connection points: 2
#     Edge 57, Type (0, 1), BuildingBlock: ZUJKAS_clean_linker_0, # of connection points: 2
#     Edge 58, Type (0, 1), BuildingBlock: ZUJKAS_clean_linker_0, # of connection points: 2
#     Edge 59, Type (0, 1), BuildingBlock: ZUJKAS_clean_linker_0, # of connection points: 2
#     Edge 60, Type (0, 1), BuildingBlock: ZUJKAS_clean_linker_0, # of connection points: 2
#     Edge 61, Type (0, 1), BuildingBlock: ZUJKAS_clean_linker_0, # of connection points: 2
# Relax obj value: 0.118
# Max RMSD: 0.217
# Mean RMSD: 0.131
data_MOF--net-ocu--node1-CUWYAW_clean_sbu_0--node2-TAGTUT_clean_sbu_1--edge1-ZUJKAS_clean_linker_0
_symmetry_space_group_name_H-M    P1
_symmetry_Int_Tables_number       1
_symmetry_cell_setting            triclinic
loop_
_symmetry_equiv_pos_as_xyz
'x, y, z'
_cell_length_a     51.696945
_cell_length_b     49.228428
_cell_length_c     50.572705
_cell_angle_alpha  85.497723
_cell_angle_beta   100.63101
_cell_angle_gamma 106.91701
loop_
_atom_site_label
_atom_site_type_symbol
_atom_site_fract_x
_atom_site_fract_y
_atom_site_fract_z
_atom_type_partial_charge
C0 C 0.31745 0.33893 0.33227 0.0
Eu1 Eu 0.30018 0.29903 0.29662 0.0
C2 C 0.31005 0.34395 0.35759 0.0
C3 C 0.32629 0.36719 0.37294 0.0
C4 C 0.31792 0.37386 0.39572 0.0
C5 C 0.29309 0.3574 0.40332 0.0
C6 C 0.27757 0.33326 0.3885 0.0
C7 C 0.28603 0.32656 0.3658 0.0
C8 C 0.32914 0.30725 0.25417 0.0
C9 C 0.2492 0.31025 0.25382 0.0
C10 C 0.25648 0.21752 0.22816 0.0
Eu11 Eu 0.2744 0.25886 0.26234 0.0
C12 C 0.26679 0.20511 0.2085 0.0
C13 C 0.24937 0.18167 0.1941 0.0
C14 C 0.25875 0.16979 0.17492 0.0
C15 C 0.28569 0.18131 0.16989 0.0
C16 C 0.30308 0.20491 0.18442 0.0
C17 C 0.29367 0.21674 0.20362 0.0
C18 C 0.24532 0.25188 0.30458 0.0
C19 C 0.32378 0.24693 0.30492 0.0
O20 O 0.32812 0.31801 0.33252 0.0
O21 O 0.29909 0.33919 0.3109 0.0
O22 O 0.33956 0.30828 0.27935 0.0
O23 O 0.30326 0.30071 0.25202 0.0
O24 O 0.26184 0.31403 0.27904 0.0
O25 O 0.25409 0.29113 0.2403 0.0
O26 O 0.25462 0.24318 0.22243 0.0
O27 O 0.26675 0.21428 0.25332 0.0
O28 O 0.23501 0.25108 0.27934 0.0
O29 O 0.27113 0.25767 0.30686 0.0
O30 O 0.31402 0.24607 0.27887 0.0
O31 O 0.31617 0.26368 0.31901 0.0
H32 H 0.345 0.38066 0.36687 0.0
H33 H 0.33046 0.39235 0.40694 0.0
H34 H 0.25819 0.32035 0.39358 0.0
H35 H 0.27333 0.30846 0.35409 0.0
H36 H 0.22849 0.17261 0.19764 0.0
H37 H 0.24487 0.15178 0.16387 0.0
H38 H 0.32407 0.21395 0.18125 0.0
H39 H 0.30732 0.23489 0.21467 0.0
C40 C 0.8221 0.28352 0.22696 0.0
Eu41 Eu 0.80002 0.28275 0.26929 0.0
C42 C 0.81178 0.2732 0.19953 0.0
C43 C 0.82857 0.26293 0.18664 0.0
C44 C 0.82099 0.25672 0.15942 0.0
C45 C 0.79672 0.2614 0.14447 0.0
C46 C 0.77812 0.2677 0.15852 0.0
C47 C 0.78571 0.27379 0.18589 0.0
C48 C 0.75856 0.2345 0.27481 0.0
C49 C 0.74941 0.31089 0.2557 0.0
C50 C 0.74741 0.28378 0.35044 0.0
Eu51 Eu 0.77403 0.2868 0.31091 0.0
C52 C 0.71982 0.28631 0.35022 0.0
C53 C 0.70749 0.30108 0.32905 0.0
C54 C 0.67921 0.29738 0.32488 0.0
C55 C 0.66291 0.27876 0.34178 0.0
C56 C 0.67602 0.26652 0.36463 0.0
C57 C 0.7042 0.2702 0.36871 0.0
C58 C 0.81414 0.33551 0.30378 0.0
C59 C 0.82588 0.2606 0.32398 0.0
O60 O 0.81464 0.30496 0.23351 0.0
O61 O 0.82117 0.26382 0.24575 0.0
O62 O 0.78324 0.23531 0.27295 0.0
O63 O 0.75702 0.25949 0.27537 0.0
O64 O 0.77328 0.31136 0.24944 0.0
O65 O 0.74236 0.29736 0.2779 0.0
O66 O 0.76539 0.30679 0.34393 0.0
O67 O 0.74813 0.26143 0.33858 0.0
O68 O 0.78923 0.33431 0.30554 0.0
O69 O 0.81654 0.31071 0.30419 0.0
O70 O 0.80167 0.25878 0.33019 0.0
O71 O 0.83293 0.27563 0.30249 0.0
H72 H 0.84837 0.26138 0.19719 0.0
H73 H 0.8358 0.25145 0.14968 0.0
H74 H 0.75894 0.27073 0.14782 0.0
H75 H 0.77194 0.28057 0.19593 0.0
H76 H 0.71936 0.31394 0.31467 0.0
H77 H 0.66989 0.30739 0.30734 0.0
H78 H 0.66434 0.25172 0.37802 0.0
H79 H 0.7134 0.25866 0.38512 0.0
C80 C 0.84667 0.77158 0.34007 0.0
Eu81 Eu 0.80612 0.77471 0.30235 0.0
C82 C 0.87107 0.76184 0.3407 0.0
C83 C 0.88247 0.75003 0.36446 0.0
C84 C 0.90526 0.7401 0.36492 0.0
C85 C 0.91678 0.74161 0.34152 0.0
C86 C 0.9055 0.75372 0.31782 0.0
C87 C 0.883 0.76402 0.31749 0.0
C88 C 0.76057 0.73646 0.27901 0.0
C89 C 0.82163 0.7593 0.24408 0.0
C90 C 0.73803 0.79831 0.20969 0.0
Eu91 Eu 0.77773 0.79393 0.24777 0.0
C92 C 0.71442 0.80916 0.20935 0.0
C93 C 0.71633 0.83124 0.22621 0.0
C94 C 0.69287 0.83872 0.22874 0.0
C95 C 0.66715 0.82417 0.21451 0.0
C96 C 0.6654 0.80229 0.1974 0.0
C97 C 0.68887 0.79482 0.19489 0.0
C98 C 0.82387 0.83173 0.27066 0.0
C99 C 0.76125 0.8081 0.30591 0.0
O100 O 0.84612 0.79453 0.32527 0.0
O101 O 0.82296 0.75197 0.337 0.0
O102 O 0.76729 0.73818 0.30516 0.0
O103 O 0.77886 0.75329 0.26777 0.0
O104 O 0.82731 0.76057 0.27094 0.0
O105 O 0.80225 0.77006 0.2302 0.0
O106 O 0.73742 0.77533 0.22473 0.0
O107 O 0.76235 0.81692 0.21266 0.0
O108 O 0.8164 0.83009 0.24462 0.0
O109 O 0.80544 0.81559 0.28226 0.0
O110 O 0.75557 0.8068 0.27904 0.0
O111 O 0.78096 0.79785 0.31983 0.0
H112 H 0.87359 0.74824 0.38255 0.0
H113 H 0.91342 0.7305 0.38337 0.0
H114 H 0.91409 0.75522 0.29959 0.0
H115 H 0.87493 0.7736 0.29905 0.0
H116 H 0.73585 0.8423 0.23788 0.0
H117 H 0.69489 0.85599 0.24169 0.0
H118 H 0.6458 0.79064 0.18629 0.0
H119 H 0.68697 0.77734 0.18223 0.0
C120 C 0.29448 0.84995 0.3186 0.0
Eu121 Eu 0.28663 0.80106 0.29776 0.0
C122 C 0.29279 0.86033 0.34434 0.0
C123 C 0.28456 0.84129 0.36532 0.0
C124 C 0.28149 0.85143 0.38924 0.0
C125 C 0.28639 0.88075 0.39239 0.0
C126 C 0.29585 0.89974 0.37167 0.0
C127 C 0.29903 0.88957 0.34784 0.0
C128 C 0.25401 0.77629 0.25331 0.0
C129 C 0.25362 0.74185 0.3228 0.0
C130 C 0.29123 0.69819 0.26086 0.0
Eu131 Eu 0.29798 0.74716 0.28106 0.0
C132 C 0.2929 0.6882 0.23495 0.0
C133 C 0.28715 0.65907 0.23113 0.0
C134 C 0.29006 0.64941 0.20693 0.0
C135 C 0.29876 0.66883 0.18622 0.0
C136 C 0.30343 0.69801 0.18982 0.0
C137 C 0.30055 0.70763 0.21405 0.0
C138 C 0.32961 0.77153 0.32632 0.0
C139 C 0.33 0.80628 0.25502 0.0
O140 O 0.31404 0.83785 0.31922 0.0
O141 O 0.27113 0.83621 0.30422 0.0
O142 O 0.24532 0.78908 0.26994 0.0
O143 O 0.27919 0.77912 0.25998 0.0
O144 O 0.26223 0.76976 0.32572 0.0
O145 O 0.263 0.72942 0.30565 0.0
O146 O 0.27113 0.70943 0.26062 0.0
O147 O 0.31449 0.7127 0.27479 0.0
O148 O 0.33904 0.75931 0.30985 0.0
O149 O 0.3046 0.76861 0.31881 0.0
O150 O 0.32155 0.77833 0.25242 0.0
O151 O 0.32093 0.81878 0.27235 0.0
H152 H 0.27988 0.81861 0.36294 0.0
H153 H 0.27451 0.8363 0.40496 0.0
H154 H 0.29946 0.9224 0.37326 0.0
H155 H 0.30559 0.9045 0.33182 0.0
H156 H 0.28104 0.64385 0.24709 0.0
H157 H 0.28661 0.62684 0.20489 0.0
H158 H 0.30984 0.71343 0.17411 0.0
H159 H 0.30483 0.73023 0.21668 0.0
C160 C 0.36611 0.84071 0.75954 0.0
Eu161 Eu 0.32155 0.79973 0.76008 0.0
C162 C 0.38338 0.87017 0.75761 0.0
C163 C 0.38343 0.88498 0.73276 0.0
C164 C 0.40559 0.90827 0.7289 0.0
C165 C 0.4281 0.91707 0.7498 0.0
C166 C 0.42637 0.90431 0.77551 0.0
C167 C 0.4042 0.88098 0.77935 0.0
C168 C 0.30508 0.75229 0.73018 0.0
C169 C 0.26447 0.81359 0.73318 0.0
C170 C 0.21885 0.71948 0.76271 0.0
Eu171 Eu 0.26737 0.75577 0.76927 0.0
C172 C 0.19819 0.70147 0.77752 0.0
C173 C 0.20484 0.69472 0.80485 0.0
C174 C 0.18395 0.68267 0.81983 0.0
C175 C 0.1562 0.67774 0.80773 0.0
C176 C 0.14982 0.68314 0.77995 0.0
C177 C 0.1707 0.69486 0.76498 0.0
C178 C 0.29104 0.79322 0.80895 0.0
C179 C 0.32442 0.74479 0.79845 0.0
O180 O 0.35649 0.83114 0.78179 0.0
O181 O 0.35093 0.8281 0.73769 0.0
O182 O 0.33058 0.76414 0.73986 0.0
O183 O 0.29039 0.76638 0.7359 0.0
O184 O 0.29163 0.82358 0.73807 0.0
O185 O 0.2515 0.78799 0.74161 0.0
O186 O 0.24132 0.71218 0.76278 0.0
O187 O 0.22341 0.74666 0.76566 0.0
O188 O 0.27729 0.76714 0.81366 0.0
O189 O 0.28983 0.79822 0.78417 0.0
O190 O 0.29899 0.73205 0.78674 0.0
O191 O 0.33533 0.77242 0.79492 0.0
H192 H 0.36762 0.87717 0.71565 0.0
H193 H 0.4062 0.91746 0.70878 0.0
H194 H 0.44316 0.91091 0.79211 0.0
H195 H 0.4046 0.86992 0.79875 0.0
H196 H 0.22604 0.69995 0.81482 0.0
H197 H 0.18954 0.67815 0.84107 0.0
H198 H 0.12876 0.67988 0.77002 0.0
H199 H 0.16532 0.70031 0.7439 0.0
C200 C 0.32475 0.26457 0.71901 0.0
Eu201 Eu 0.30597 0.27794 0.75952 0.0
C202 C 0.34042 0.24723 0.70941 0.0
C203 C 0.36457 0.26118 0.69926 0.0
C204 C 0.37843 0.24601 0.68746 0.0
C205 C 0.36859 0.21625 0.68535 0.0
C206 C 0.34456 0.20219 0.69593 0.0
C207 C 0.33062 0.21746 0.70773 0.0
C208 C 0.32161 0.32873 0.78315 0.0
C209 C 0.33324 0.2522 0.81657 0.0
C210 C 0.27585 0.29838 0.85929 0.0
Eu211 Eu 0.28395 0.28129 0.81446 0.0
C212 C 0.25743 0.31235 0.86941 0.0
C213 C 0.23511 0.29628 0.88148 0.0
C214 C 0.21915 0.30961 0.89277 0.0
C215 C 0.22506 0.33948 0.8925 0.0
C216 C 0.24731 0.35549 0.88022 0.0
C217 C 0.26324 0.34218 0.86896 0.0
C218 C 0.25434 0.23809 0.78193 0.0
C219 C 0.25489 0.30323 0.75785 0.0
O220 O 0.30013 0.25208 0.72438 0.0
O221 O 0.33841 0.28532 0.73526 0.0
O222 O 0.31863 0.32624 0.75734 0.0
O223 O 0.31894 0.30492 0.79501 0.0
O224 O 0.33236 0.25718 0.79031 0.0
O225 O 0.31676 0.25921 0.83044 0.0
O226 O 0.29297 0.31393 0.84418 0.0
O227 O 0.26585 0.27201 0.8514 0.0
O228 O 0.24372 0.24898 0.79838 0.0
O229 O 0.28002 0.24836 0.78549 0.0
O230 O 0.26243 0.30701 0.78411 0.0
O231 O 0.26611 0.28899 0.74417 0.0
H232 H 0.37241 0.28412 0.69979 0.0
H233 H 0.39645 0.25785 0.6792 0.0
H234 H 0.33642 0.17932 0.69507 0.0
H235 H 0.31196 0.20597 0.71513 0.0
H236 H 0.23014 0.27332 0.88252 0.0
H237 H 0.20208 0.29638 0.90167 0.0
H238 H 0.25299 0.37847 0.87991 0.0
H239 H 0.28048 0.35543 0.86032 0.0
C240 C 0.74289 0.33458 0.77386 0.0
Eu241 Eu 0.76806 0.29579 0.77373 0.0
C242 C 0.73915 0.35054 0.79541 0.0
C243 C 0.72767 0.37318 0.78908 0.0
C244 C 0.72546 0.3894 0.80956 0.0
C245 C 0.73483 0.38326 0.83668 0.0
C246 C 0.74649 0.36057 0.84288 0.0
C247 C 0.74856 0.34428 0.82238 0.0
C248 C 0.75733 0.25738 0.73406 0.0
C249 C 0.74477 0.24254 0.81306 0.0
C250 C 0.8243 0.21557 0.78784 0.0
Eu251 Eu 0.79833 0.25369 0.78805 0.0
C252 C 0.82593 0.19841 0.76606 0.0
C253 C 0.84912 0.18907 0.7666 0.0
C254 C 0.85102 0.17398 0.74507 0.0
C255 C 0.82964 0.16785 0.72271 0.0
C256 C 0.80631 0.17709 0.72252 0.0
C257 C 0.80463 0.19238 0.74389 0.0
C258 C 0.8091 0.29292 0.82712 0.0
C259 C 0.82172 0.30657 0.74844 0.0
O260 O 0.76817 0.34011 0.76998 0.0
O261 O 0.73038 0.30738 0.77373 0.0
O262 O 0.75856 0.28394 0.72982 0.0
O263 O 0.7599 0.25166 0.759 0.0
O264 O 0.74863 0.27015 0.80851 0.0
O265 O 0.7592 0.22939 0.80264 0.0
O266 O 0.8002 0.21005 0.79488 0.0
O267 O 0.83588 0.2428 0.78555 0.0
O268 O 0.80842 0.26656 0.83196 0.0
O269 O 0.80645 0.29783 0.80215 0.0
O270 O 0.81831 0.27913 0.7536 0.0
O271 O 0.80666 0.31968 0.75795 0.0
H272 H 0.72065 0.37845 0.76831 0.0
H273 H 0.71667 0.40696 0.80416 0.0
H274 H 0.7536 0.35511 0.86356 0.0
H275 H 0.75761 0.32689 0.82755 0.0
H276 H 0.86592 0.19385 0.78343 0.0
H277 H 0.86956 0.16774 0.74569 0.0
H278 H 0.78931 0.17256 0.70587 0.0
H279 H 0.78679 0.19976 0.74309 0.0
C280 C 0.8017 0.84859 0.82827 0.0
Eu281 Eu 0.79714 0.80609 0.79804 0.0
C282 C 0.79336 0.8546 0.85295 0.0
C283 C 0.8069 0.88046 0.86554 0.0
C284 C 0.79663 0.88889 0.88625 0.0
C285 C 0.77249 0.87164 0.89465 0.0
C286 C 0.75985 0.84494 0.88296 0.0
C287 C 0.77021 0.83648 0.86227 0.0
C288 C 0.83244 0.81343 0.76102 0.0
C289 C 0.75555 0.81094 0.74333 0.0
C290 C 0.77422 0.71711 0.73655 0.0
Eu291 Eu 0.77969 0.76068 0.76584 0.0
C292 C 0.78653 0.71061 0.71479 0.0
C293 C 0.78017 0.68242 0.7071 0.0
C294 C 0.79417 0.67509 0.6889 0.0
C295 C 0.81484 0.69589 0.67807 0.0
C296 C 0.82041 0.7244 0.68514 0.0
C297 C 0.80641 0.73169 0.70343 0.0
C298 C 0.74457 0.75374 0.80297 0.0
C299 C 0.82311 0.75713 0.81877 0.0
O300 O 0.82022 0.83494 0.83068 0.0
O301 O 0.7819 0.83996 0.80811 0.0
O302 O 0.83974 0.81901 0.7863 0.0
O303 O 0.8066 0.80374 0.75617 0.0
O304 O 0.76144 0.81665 0.76913 0.0
O305 O 0.76478 0.79133 0.73527 0.0
O306 O 0.7591 0.73453 0.73081 0.0
O307 O 0.7906 0.72248 0.75953 0.0
O308 O 0.73712 0.74897 0.77757 0.0
O309 O 0.77046 0.76291 0.80775 0.0
O310 O 0.81781 0.75284 0.79269 0.0
O311 O 0.81227 0.77494 0.8277 0.0
H312 H 0.82481 0.89469 0.85862 0.0
H313 H 0.80715 0.90933 0.89515 0.0
H314 H 0.74114 0.8312 0.88878 0.0
H315 H 0.75944 0.81641 0.85274 0.0
H316 H 0.76505 0.66587 0.71591 0.0
H317 H 0.78962 0.6529 0.68429 0.0
H318 H 0.83596 0.74099 0.67694 0.0
H319 H 0.81163 0.75359 0.7093 0.0
C320 C 0.95925 0.07297 0.5478 0.0
C321 C 0.99305 0.09271 0.47725 0.0
C322 C 1.00066 0.98056 0.48845 0.0
Mg323 Mg 1.0192 0.08864 0.53725 0.0
O324 O 1.01051 0.04935 0.53584 0.0
Mg325 Mg 0.97667 0.02849 0.51116 0.0
Mg326 Mg 0.03782 0.02988 0.53035 0.0
O327 O 0.06529 1.01037 0.5248 0.0
Mg328 Mg 0.05738 0.97118 0.52296 0.0
Mg329 Mg 0.09897 0.03165 0.54932 0.0
C330 C 0.07563 0.0796 0.57136 0.0
C331 C 0.08612 0.07478 0.49872 0.0
O332 O 0.95256 0.05178 0.53206 0.0
O333 O 0.98398 0.08875 0.55368 0.0
O334 O 0.98062 0.06605 0.47881 0.0
O335 O 1.01115 0.10525 0.49665 0.0
O336 O 0.05977 0.09559 0.56305 0.0
O337 O 0.06968 0.0538 0.56401 0.0
C338 C 0.98904 0.98426 0.56126 0.0
O339 O 1.01517 0.99397 0.56107 0.0
O340 O 0.972 0.99364 0.54405 0.0
O341 O 0.12347 1.00822 0.53 0.0
O342 O 0.09357 0.97088 0.50767 0.0
O343 O 0.09505 0.99491 0.58206 0.0
C344 C 0.11806 0.98686 0.51479 0.0
O345 O 0.06573 0.95512 0.56393 0.0
O346 O 1.01676 0.96474 0.49665 0.0
C347 C 0.08333 0.96809 0.58349 0.0
O348 O 1.00611 1.00617 0.49631 0.0
O349 O 0.06019 0.0658 0.49988 0.0
O350 O 0.10351 0.06532 0.51532 0.0
C351 C 0.45226 0.08212 0.03155 0.0
C352 C 0.49345 0.08617 0.96576 0.0
C353 C 0.48761 0.97532 0.99384 0.0
Mg354 Mg 0.51336 0.09102 0.02659 0.0
O355 O 0.50197 0.05146 0.03075 0.0
Mg356 Mg 0.46869 0.02933 1.00617 0.0
Mg357 Mg 0.52773 0.02898 0.02851 0.0
O358 O 0.55335 1.00598 0.02677 0.0
Mg359 Mg 0.54022 0.96699 0.0343 0.0
Mg360 Mg 0.58546 0.02758 0.05335 0.0
C361 C 0.56561 0.08176 0.06681 0.0
C362 C 0.57905 0.06675 0.99826 0.0
O363 O 0.44574 0.05799 0.02026 0.0
O364 O 0.47711 0.09784 0.03671 0.0
O365 O 0.47769 0.06163 0.97078 0.0
O366 O 0.51156 0.10042 0.98416 0.0
O367 O 0.5519 0.09888 0.05565 0.0
O368 O 0.55852 0.05542 0.06097 0.0
C369 C 0.47781 0.98986 0.06004 0.0
O370 O 0.50372 0.99776 0.05938 0.0
O371 O 0.46082 0.99884 0.0424 0.0
O372 O 0.60837 0.99655 0.04186 0.0
O373 O 0.57602 0.9564 0.02763 0.0
O374 O 0.57317 0.99871 0.08993 0.0
C375 C 0.60117 0.97143 0.03226 0.0
O376 O 0.53737 0.9618 0.07625 0.0
O377 O 0.50151 0.95885 1.00613 0.0
C378 C 0.55425 0.97663 0.09496 0.0
O379 O 0.49582 1.0024 0.99636 0.0
O380 O 0.55287 0.06028 0.99787 0.0
O381 O 0.59463 0.0567 0.01674 0.0
C382 C 0.94481 0.59057 0.10097 0.0
C383 C 0.95858 0.59166 0.01867 0.0
C384 C 0.95626 0.47708 0.03467 0.0
Mg385 Mg 0.99577 0.59223 0.07444 0.0
O386 O 0.98412 0.5524 0.07881 0.0
Mg387 Mg 0.94526 0.53414 0.06234 0.0
Mg388 Mg 1.00442 0.52818 0.06501 0.0
O389 O 0.02615 0.50467 0.05181 0.0
Mg390 Mg 1.01743 0.46503 0.05469 0.0
Mg391 Mg 0.06538 0.52573 0.0658 0.0
C392 C 0.0549 0.5789 0.09231 0.0
C393 C 0.03882 0.56717 0.02164 0.0
O394 O 0.93223 0.56641 0.08943 0.0
O395 O 0.96989 0.6033 0.09889 0.0
O396 O 0.9441 0.56735 0.02616 0.0
O397 O 0.98114 0.6045 0.03331 0.0
O398 O 0.03978 0.59607 0.08751 0.0
O399 O 0.04546 0.55188 0.08961 0.0
C400 C 0.96612 0.48821 0.10493 0.0
O401 O 0.98982 0.49555 0.09765 0.0
O402 O 0.9479 0.50129 0.09618 0.0
O403 O 0.07941 0.49756 0.038 0.0
O404 O 0.0436 0.45903 0.02761 0.0
O405 O 0.07217 0.49205 0.10057 0.0
C406 C 0.06816 0.47392 0.02564 0.0
O407 O 0.03819 0.45189 0.09396 0.0
O408 O 0.97302 0.46144 0.04003 0.0
C409 C 0.06126 0.46603 0.10721 0.0
O410 O 0.96393 0.5041 0.03942 0.0
O411 O 1.01636 0.55945 0.03096 0.0
O412 O 0.05915 0.55742 0.03135 0.0
C413 C 0.45671 0.57596 0.039 0.0
C414 C 0.49401 0.59168 0.97125 0.0
C415 C 0.5006 0.48082 0.98944 0.0
Mg416 Mg 0.51808 0.59105 0.03232 0.0
O417 O 0.50959 0.55145 0.03332 0.0
Mg418 Mg 0.47688 0.52951 1.00798 0.0
Mg419 Mg 0.53738 0.5315 0.02973 0.0
O420 O 0.56498 0.51161 0.02591 0.0
Mg421 Mg 0.55642 0.47205 0.02579 0.0
Mg422 Mg 0.59837 0.5335 0.05047 0.0
C423 C 0.5729 0.58152 0.07128 0.0
C424 C 0.58682 0.57683 0.99928 0.0
O425 O 0.45152 0.5535 0.02529 0.0
O426 O 0.48107 0.59253 0.04536 0.0
O427 O 0.48186 0.56522 0.97445 0.0
O428 O 0.51161 0.60569 0.99027 0.0
O429 O 0.55735 0.59746 0.06121 0.0
O430 O 0.56801 0.5558 0.06397 0.0
C431 C 0.48743 0.48651 0.05958 0.0
O432 O 0.5137 0.49596 0.06017 0.0
O433 O 0.47099 0.49593 0.0417 0.0
O434 O 0.62308 0.50993 0.03076 0.0
O435 O 0.59234 0.47157 0.0106 0.0
O436 O 0.5945 0.49687 0.08362 0.0
C437 C 0.6169 0.48791 0.01613 0.0
O438 O 0.56448 0.4567 0.06728 0.0
O439 O 0.5159 0.46447 0.99885 0.0
C440 C 0.58248 0.47024 0.08629 0.0
O441 O 0.50696 0.50691 0.99596 0.0
O442 O 0.56065 0.56697 0.99902 0.0
O443 O 0.60361 0.56773 0.01702 0.0
C444 C 0.99219 0.58438 0.55842 0.0
C445 C 0.03543 0.58385 0.49257 0.0
C446 C 1.01319 0.4728 0.50827 0.0
Mg447 Mg 0.05129 0.58452 0.55424 0.0
O448 O 0.03533 0.54515 0.55579 0.0
Mg449 Mg 1.00147 0.52895 0.52878 0.0
Mg450 Mg 0.05701 0.5194 0.54959 0.0
O451 O 0.07875 0.49395 0.54321 0.0
Mg452 Mg 0.06321 0.45452 0.54454 0.0
Mg453 Mg 0.11357 0.51093 0.56855 0.0
C454 C 0.10259 0.56667 0.58872 0.0
C455 C 0.10825 0.55638 0.51849 0.0
O456 O 0.98302 0.56135 0.54499 0.0
O457 O 1.01794 0.59648 0.56518 0.0
O458 O 1.01643 0.56099 0.49531 0.0
O459 O 0.0523 0.5963 0.51264 0.0
O460 O 0.09049 0.58598 0.58041 0.0
O461 O 0.09155 0.54048 0.58269 0.0
C462 C 1.00457 0.48382 0.57945 0.0
O463 O 0.03031 0.48764 0.57886 0.0
O464 O 0.99023 0.49707 0.56283 0.0
O465 O 0.1317 0.47987 0.55091 0.0
O466 O 0.09671 0.44365 0.53255 0.0
O467 O 0.10148 0.4769 0.60157 0.0
C468 C 0.12242 0.45648 0.53813 0.0
O469 O 0.06454 0.44169 0.58634 0.0
O470 O 1.02471 0.45306 0.5168 0.0
C471 C 0.08359 0.4534 0.60535 0.0
O472 O 1.02339 0.49836 0.51642 0.0
O473 O 0.08256 0.55104 0.51982 0.0
O474 O 0.12371 0.54403 0.5347 0.0
C475 C 0.51066 0.08474 0.53267 0.0
C476 C 0.51013 0.08701 0.44934 0.0
C477 C 0.52006 0.9737 0.47186 0.0
Mg478 Mg 0.55791 0.0927 0.49911 0.0
O479 O 0.55 0.05321 0.50331 0.0
Mg480 Mg 0.51065 0.03029 0.49454 0.0
Mg481 Mg 0.5704 0.02844 0.49039 0.0
O482 O 0.59009 1.00356 0.47663 0.0
Mg483 Mg 0.58134 0.96423 0.48244 0.0
Mg484 Mg 0.62948 0.02575 0.4862 0.0
C485 C 0.62011 0.08353 0.5144 0.0
C486 C 0.59622 0.05915 0.4388 0.0
O487 O 0.49895 0.06049 0.52162 0.0
O488 O 0.53446 0.09988 0.52847 0.0
O489 O 0.50007 0.06128 0.4577 0.0
O490 O 0.53378 0.10211 0.46059 0.0
O491 O 0.60311 0.09887 0.51065 0.0
O492 O 0.61236 0.05667 0.50933 0.0
C493 C 0.54362 0.99607 0.54118 0.0
O494 O 0.56482 1.00312 0.52972 0.0
O495 O 0.52175 1.0032 0.53133 0.0
O496 O 0.64136 0.99211 0.46024 0.0
O497 O 0.60536 0.95302 0.45555 0.0
O498 O 0.63708 0.99682 0.52559 0.0
C499 C 0.6294 0.96686 0.45084 0.0
O500 O 0.60144 0.95775 0.52291 0.0
O501 O 0.53639 0.95775 0.47516 0.0
C502 C 0.62436 0.97271 0.53543 0.0
O503 O 0.52842 1.00097 0.47198 0.0
O504 O 0.57606 0.05294 0.45165 0.0
O505 O 0.61854 0.05228 0.44766 0.0
H506 H 0.19137 0.22064 0.29705 0.0
H507 H 0.1642 0.19357 0.32992 0.0
H508 H 0.23322 0.2218 0.3935 0.0
H509 H 0.26111 0.24794 0.36008 0.0
H510 H 0.21066 0.1699 0.40401 0.0
H511 H 0.12367 0.2157 0.37852 0.0
H512 H 0.12798 0.2002 0.34936 0.0
H513 H 0.15465 0.23008 0.36452 0.0
C514 C 0.20085 0.22137 0.31805 0.0
C515 C 0.22859 0.23678 0.32572 0.0
C516 C 0.18502 0.20595 0.33707 0.0
C517 C 0.19598 0.20588 0.36475 0.0
C518 C 0.2238 0.22136 0.37249 0.0
H519 H 0.08706 0.13119 0.48627 0.0
H520 H 0.1137 0.16382 0.45497 0.0
C521 C 0.23986 0.23649 0.35331 0.0
C522 C 0.17887 0.18866 0.38512 0.0
H523 H 0.11514 0.1714 0.40373 0.0
C524 C 0.18986 0.17055 0.40395 0.0
C525 C 0.15172 0.18949 0.38605 0.0
C526 C 0.13896 0.21017 0.36873 0.0
C527 C 0.1746 0.15298 0.42261 0.0
C528 C 0.14677 0.15225 0.42217 0.0
C529 C 0.13608 0.1711 0.40403 0.0
C530 C 0.12862 0.13206 0.44012 0.0
C531 C 0.189 0.13593 0.44313 0.0
C532 C 0.12672 0.10286 0.44181 0.0
C533 C 0.11174 0.08438 0.45985 0.0
C534 C 0.09718 0.09403 0.4763 0.0
C535 C 0.0976 0.12285 0.47365 0.0
C536 C 0.11309 0.1416 0.4558 0.0
H537 H 0.21148 0.1462 0.44726 0.0
H538 H 0.18111 0.13327 0.46243 0.0
H539 H 0.18579 0.11463 0.43513 0.0
H540 H 0.13729 0.09426 0.42945 0.0
H541 H 0.11203 0.06238 0.46139 0.0
H542 H 0.86865 0.24817 0.30794 0.0
H543 H 0.89747 0.21941 0.3313 0.0
H544 H 0.85517 0.20829 0.39909 0.0
H545 H 0.82513 0.23595 0.37498 0.0
H546 H 0.93343 0.22437 0.37323 0.0
H547 H 0.85076 0.12805 0.39114 0.0
H548 H 0.844 0.15743 0.37028 0.0
H549 H 0.8477 0.15836 0.40639 0.0
C550 C 0.86537 0.23961 0.32783 0.0
C551 C 0.84438 0.24436 0.33948 0.0
C552 C 0.88198 0.22306 0.34125 0.0
C553 C 0.87839 0.21092 0.36691 0.0
C554 C 0.85795 0.21641 0.37899 0.0
H555 H 1.00369 0.15068 0.47497 0.0
H556 H 0.97701 0.17879 0.44705 0.0
C557 C 0.84091 0.23256 0.36529 0.0
C558 C 0.89643 0.19313 0.3809 0.0
H559 H 0.89564 0.12979 0.41455 0.0
C560 C 0.92503 0.2036 0.38208 0.0
C561 C 0.88582 0.16562 0.39208 0.0
C562 C 0.85539 0.15157 0.38967 0.0
C563 C 0.94309 0.18782 0.39428 0.0
C564 C 0.9326 0.16104 0.40684 0.0
C565 C 0.90398 0.15034 0.40527 0.0
C566 C 0.95077 0.1441 0.42226 0.0
C567 C 0.9732 0.19987 0.39282 0.0
C568 C 0.9452 0.11482 0.41814 0.0
C569 C 0.96027 0.09835 0.43462 0.0
C570 C 0.98148 0.11071 0.45565 0.0
C571 C 0.9879 0.14027 0.45881 0.0
C572 C 0.97257 0.15658 0.44266 0.0
H573 H 0.97631 0.21402 0.37476 0.0
H574 H 0.98359 0.21284 0.41076 0.0
H575 H 0.98319 0.18284 0.39218 0.0
H576 H 0.92859 0.10446 0.40261 0.0
H577 H 0.95447 0.07568 0.43161 0.0
H578 H 0.81097 0.87581 0.28733 0.0
H579 H 0.83955 0.91026 0.32084 0.0
H580 H 0.90742 0.87598 0.32069 0.0
H581 H 0.87879 0.84167 0.28686 0.0
H582 H 0.85958 0.89043 0.37069 0.0
H583 H 0.94452 0.96214 0.3242 0.0
H584 H 0.91297 0.9417 0.30452 0.0
H585 H 0.93927 0.92513 0.3189 0.0
C586 C 0.83238 0.87657 0.29363 0.0
C587 C 0.84304 0.8567 0.28427 0.0
C588 C 0.84858 0.89605 0.31285 0.0
C589 C 0.87566 0.89584 0.32307 0.0
C590 C 0.88679 0.87694 0.31261 0.0
H591 H 0.97527 0.92526 0.47591 0.0
H592 H 0.94152 0.90746 0.4361 0.0
C593 C 0.87052 0.85744 0.29328 0.0
C594 C 0.89072 0.91227 0.34725 0.0
H595 H 0.95103 0.96021 0.37247 0.0
C596 C 0.87939 0.90603 0.37097 0.0
C597 C 0.91642 0.93271 0.34752 0.0
C598 C 0.92895 0.94107 0.32237 0.0
C599 C 0.89368 0.91875 0.39527 0.0
C600 C 0.92001 0.93803 0.39586 0.0
C601 C 0.93082 0.94531 0.37192 0.0
C602 C 0.93768 0.94883 0.42147 0.0
C603 C 0.88078 0.91105 0.42027 0.0
C604 C 0.94629 0.97796 0.42663 0.0
C605 C 0.96546 0.98823 0.44956 0.0
C606 C 0.97666 0.96951 0.46734 0.0
C607 C 0.96707 0.94022 0.4626 0.0
C608 C 0.94774 0.92999 0.4399 0.0
H609 H 0.85816 0.90206 0.41527 0.0
H610 H 0.88926 0.89482 0.43232 0.0
H611 H 0.88545 0.92989 0.43292 0.0
H612 H 0.93876 0.99279 0.41254 0.0
H613 H 0.97258 1.01092 0.45255 0.0
H614 H 0.31344 0.92878 0.42138 0.0
H615 H 0.29516 0.95041 0.45308 0.0
H616 H 0.22276 0.87873 0.44624 0.0
H617 H 0.24061 0.85724 0.4147 0.0
H618 H 0.24849 0.96594 0.43784 0.0
H619 H 0.23652 0.89252 0.52573 0.0
H620 H 0.25869 0.89133 0.50235 0.0
H621 H 0.22247 0.8735 0.49516 0.0
C622 C 0.29389 0.91739 0.42712 0.0
C623 C 0.27842 0.89134 0.41545 0.0
C624 C 0.28356 0.9297 0.44532 0.0
C625 C 0.25776 0.91602 0.45228 0.0
C626 C 0.24305 0.88931 0.44179 0.0
H627 H 0.11573 0.94036 0.48727 0.0
H628 H 0.15395 0.92683 0.47564 0.0
C629 C 0.25331 0.87704 0.42366 0.0
C630 C 0.24405 0.93114 0.46688 0.0
H631 H 0.20363 0.92051 0.51511 0.0
C632 C 0.23934 0.9565 0.45525 0.0
C633 C 0.23218 0.9188 0.4896 0.0
C634 C 0.238 0.89269 0.50407 0.0
C635 C 0.22123 0.96854 0.46436 0.0
C636 C 0.20773 0.9549 0.48568 0.0
C637 C 0.21387 0.93068 0.49853 0.0
C638 C 0.18507 0.96366 0.49298 0.0
C639 C 0.21518 0.99463 0.45002 0.0
C640 C 0.19005 0.98896 0.50643 0.0
C641 C 0.16823 0.99684 0.51311 0.0
C642 C 0.14109 0.97951 0.50638 0.0
C643 C 0.13629 0.95428 0.49266 0.0
C644 C 0.15811 0.94641 0.48612 0.0
H645 H 0.22571 1.00126 0.43232 0.0
H646 H 0.19274 0.9906 0.44319 0.0
H647 H 0.22202 1.01247 0.46415 0.0
H648 H 0.21081 1.00244 0.51194 0.0
H649 H 0.17267 0.01637 0.52374 0.0
H650 H 0.27172 0.85065 0.68932 0.0
H651 H 0.24012 0.87723 0.6662 0.0
H652 H 0.18726 0.84543 0.72529 0.0
H653 H 0.21756 0.81747 0.74689 0.0
H654 H 0.1565 0.84252 0.68169 0.0
H655 H 0.22906 0.94974 0.67952 0.0
H656 H 0.23922 0.92527 0.66212 0.0
H657 H 0.23891 0.92041 0.69782 0.0
C658 C 0.25343 0.84958 0.69738 0.0
C659 C 0.24713 0.83191 0.71989 0.0
C660 C 0.2354 0.86502 0.6843 0.0
C661 C 0.21122 0.864 0.69408 0.0
C662 C 0.20549 0.84674 0.71701 0.0
H663 H 0.11675 0.98537 0.63197 0.0
H664 H 0.14565 0.95953 0.66098 0.0
C665 C 0.22296 0.83075 0.72949 0.0
C666 C 0.19106 0.8795 0.68006 0.0
H667 H 0.18515 0.94341 0.6517 0.0
C668 C 0.16292 0.8647 0.67545 0.0
C669 C 0.19886 0.90866 0.67213 0.0
C670 C 0.22811 0.927 0.67843 0.0
C671 C 0.14271 0.87786 0.66319 0.0
C672 C 0.15066 0.90648 0.65369 0.0
C673 C 0.17875 0.92144 0.65858 0.0
C674 C 0.13048 0.92105 0.63804 0.0
C675 C 0.11299 0.86094 0.66141 0.0
C676 C 0.1115 0.90807 0.61577 0.0
C677 C 0.09424 0.92247 0.59974 0.0
C678 C 0.09602 0.95076 0.60483 0.0
C679 C 0.11448 0.96354 0.62754 0.0
C680 C 0.13132 0.94882 0.644 0.0
H681 H 0.11019 0.84488 0.67814 0.0
H682 H 0.09959 0.87478 0.6621 0.0
H683 H 0.10616 0.84929 0.6423 0.0
H684 H 0.11081 0.88719 0.60988 0.0
H685 H 0.08087 0.91199 0.58214 0.0
H686 H 0.22018 0.18687 0.79371 0.0
H687 H 0.19417 0.14899 0.76201 0.0
H688 H 0.22676 0.20162 0.69672 0.0
H689 H 0.25201 0.23899 0.72806 0.0
H690 H 0.15494 0.15254 0.72011 0.0
H691 H 0.23777 0.12693 0.68122 0.0
H692 H 0.24398 0.14617 0.71183 0.0
H693 H 0.24248 0.16452 0.67955 0.0
C694 C 0.22194 0.18999 0.7726 0.0
C695 C 0.23884 0.21535 0.7633 0.0
C696 C 0.2073 0.1684 0.75461 0.0
C697 C 0.20938 0.17208 0.72716 0.0
C698 C 0.22588 0.19772 0.71797 0.0
H699 H 0.09928 0.13469 0.58549 0.0
H700 H 0.13361 0.15206 0.62493 0.0
C701 C 0.24047 0.21911 0.7359 0.0
C702 C 0.19199 0.15092 0.70734 0.0
H703 H 0.1938 0.11866 0.6506 0.0
C704 C 0.16345 0.14447 0.70536 0.0
C705 C 0.20308 0.14011 0.68826 0.0
C706 C 0.23353 0.14456 0.69052 0.0
C707 C 0.14577 0.12956 0.68353 0.0
C708 C 0.157 0.12127 0.6631 0.0
C709 C 0.18537 0.12556 0.66614 0.0
C710 C 0.13957 0.11096 0.63735 0.0
C711 C 0.11522 0.124 0.68174 0.0
C712 C 0.13271 0.08234 0.63072 0.0
C713 C 0.11306 0.07227 0.60805 0.0
C714 C 0.1001 0.09078 0.59188 0.0
C715 C 0.10859 0.11982 0.59768 0.0
C716 C 0.12818 0.12979 0.62021 0.0
H717 H 0.10965 0.12509 0.70174 0.0
H718 H 0.10831 0.14031 0.66819 0.0
H719 H 0.104 0.10282 0.67327 0.0
H720 H 0.14152 0.06761 0.64374 0.0
H721 H 0.10697 0.04979 0.60412 0.0
H722 H 0.81233 0.17754 0.66902 0.0
H723 H 0.8196 0.15528 0.63067 0.0
H724 H 0.86158 0.10358 0.68486 0.0
H725 H 0.85275 0.12424 0.72323 0.0
H726 H 0.86657 0.16056 0.61778 0.0
H727 H 0.8192 0.04601 0.63054 0.0
H728 H 0.81153 0.07191 0.64891 0.0
H729 H 0.84091 0.05897 0.66147 0.0
C730 C 0.82231 0.16076 0.67284 0.0
C731 C 0.8321 0.15281 0.69931 0.0
C732 C 0.82656 0.14814 0.65083 0.0
C733 C 0.84078 0.12742 0.6548 0.0
C734 C 0.84988 0.11892 0.68118 0.0
H735 H 0.9674 0.10999 0.5877 0.0
H736 H 0.93323 0.12197 0.60787 0.0
C737 C 0.84534 0.13124 0.70318 0.0
C738 C 0.84962 0.11762 0.63187 0.0
H739 H 0.86041 0.05913 0.60894 0.0
C740 C 0.86452 0.13828 0.61538 0.0
C741 C 0.84645 0.08857 0.62807 0.0
C742 C 0.82834 0.06516 0.64303 0.0
C743 C 0.8785 0.13088 0.59713 0.0
C744 C 0.87823 0.1022 0.59594 0.0
C745 C 0.86115 0.08122 0.61037 0.0
C746 C 0.89837 0.09436 0.58299 0.0
C747 C 0.89442 0.15407 0.58016 0.0
C748 C 0.89014 0.0739 0.56299 0.0
C749 C 0.90983 0.06664 0.55148 0.0
C750 C 0.93797 0.0797 0.55995 0.0
C751 C 0.94596 0.09976 0.58036 0.0
C752 C 0.92641 0.10683 0.59184 0.0
H753 H 0.88463 0.17161 0.57569 0.0
H754 H 0.91542 0.16311 0.59144 0.0
H755 H 0.89606 0.14587 0.56087 0.0
H756 H 0.86857 0.06376 0.55617 0.0
H757 H 0.90303 0.05103 0.53587 0.0
H758 H 0.88734 0.84274 0.76911 0.0
H759 H 0.91526 0.86945 0.73619 0.0
H760 H 0.84573 0.84404 0.67269 0.0
H761 H 0.81764 0.8175 0.70565 0.0
H762 H 0.93127 0.85573 0.69119 0.0
H763 H 0.86735 0.92925 0.66014 0.0
H764 H 0.86347 0.9058 0.68929 0.0
H765 H 0.84842 0.89254 0.65613 0.0
C766 C 0.87793 0.84271 0.74812 0.0
C767 C 0.84999 0.82797 0.74027 0.0
C768 C 0.89404 0.85808 0.72918 0.0
C769 C 0.88279 0.85954 0.70168 0.0
C770 C 0.85506 0.84409 0.69369 0.0
H771 H 0.93711 0.94854 0.55653 0.0
H772 H 0.91396 0.91848 0.59056 0.0
C773 C 0.83894 0.82862 0.71264 0.0
C774 C 0.89991 0.87735 0.68164 0.0
H775 H 0.90201 0.93183 0.63454 0.0
C776 C 0.92485 0.87244 0.6789 0.0
C777 C 0.89203 0.89946 0.66542 0.0
C778 C 0.86652 0.90734 0.668 0.0
C779 C 0.94133 0.88808 0.66011 0.0
C780 C 0.93328 0.91003 0.64368 0.0
C781 C 0.90851 0.91513 0.64676 0.0
C782 C 0.94922 0.9272 0.62243 0.0
C783 C 0.96677 0.88015 0.65743 0.0
C784 C 0.97742 0.9423 0.62817 0.0
C785 C 0.9911 0.95963 0.60824 0.0
C786 C 0.97691 0.96272 0.58203 0.0
C787 C 0.94897 0.94702 0.57634 0.0
C788 C 0.9355 0.92971 0.59601 0.0
H789 H 0.96598 0.8583 0.66544 0.0
H790 H 0.96964 0.88151 0.6361 0.0
H791 H 0.98492 0.89504 0.66912 0.0
H792 H 0.98873 0.94155 0.64834 0.0
H793 H 1.01242 0.97156 0.61371 0.0
H794 H 0.31669 0.20843 0.13226 0.0
H795 H 0.3374 0.18708 0.10273 0.0
H796 H 0.29829 0.10366 0.13295 0.0
H797 H 0.27812 0.12491 0.16313 0.0
H798 H 0.35422 0.11504 0.13674 0.0
H799 H 0.30745 0.14141 0.03391 0.0
H800 H 0.32065 0.17159 0.05522 0.0
H801 H 0.29255 0.14259 0.06329 0.0
C802 C 0.31235 0.18553 0.13245 0.0
C803 C 0.29595 0.16833 0.15009 0.0
C804 C 0.32385 0.17335 0.1153 0.0
C805 C 0.31899 0.1438 0.11541 0.0
C806 C 0.30198 0.12651 0.1324 0.0
H807 H 0.39697 0.05564 0.0237 0.0
H808 H 0.36187 0.06904 0.042 0.0
C809 C 0.29044 0.13866 0.14955 0.0
C810 C 0.33441 0.13139 0.1003 0.0
H811 H 0.34981 0.12895 0.0379 0.0
C812 C 0.35291 0.11763 0.11507 0.0
C813 C 0.33252 0.13474 0.07204 0.0
C814 C 0.31202 0.14814 0.05514 0.0
C815 C 0.37058 0.10833 0.10247 0.0
C816 C 0.36978 0.11313 0.0745 0.0
C817 C 0.35043 0.12564 0.05944 0.0
C818 C 0.39008 0.10662 0.06107 0.0
C819 C 0.39056 0.0941 0.11921 0.0
C820 C 0.41725 0.12379 0.06537 0.0
C821 C 0.43732 0.11631 0.05501 0.0
C822 C 0.4305 0.09143 0.04025 0.0
C823 C 0.40294 0.07485 0.03512 0.0
C824 C 0.38284 0.08246 0.04545 0.0
H825 H 0.38516 0.08727 0.13944 0.0
H826 H 0.39122 0.07529 0.10887 0.0
H827 H 0.41144 0.10922 0.12189 0.0
H828 H 0.42302 0.1426 0.07736 0.0
H829 H 0.45827 0.12964 0.05925 0.0
H830 H 0.81269 0.2369 0.10456 0.0
H831 H 0.84222 0.26862 0.07567 0.0
H832 H 0.81041 0.33675 0.09069 0.0
H833 H 0.78015 0.30532 0.1174 0.0
H834 H 0.83859 0.35412 0.05433 0.0
H835 H 0.90326 0.30389 0.13255 0.0
H836 H 0.88336 0.28308 0.10444 0.0
H837 H 0.86661 0.29249 0.12921 0.0
C838 C 0.8108 0.25821 0.10025 0.0
C839 C 0.79624 0.26947 0.11544 0.0
C840 C 0.82809 0.2765 0.0841 0.0
C841 C 0.83067 0.30573 0.08356 0.0
C842 C 0.81007 0.31458 0.09201 0.0
H843 H 0.92207 0.46639 0.1305 0.0
H844 H 0.89198 0.41815 0.12345 0.0
C845 C 0.79242 0.29624 0.10747 0.0
C846 C 0.8574 0.32747 0.08256 0.0
H847 H 0.9206 0.35111 0.12191 0.0
C848 C 0.85678 0.35315 0.06861 0.0
C849 C 0.88142 0.32642 0.10126 0.0
C850 C 0.88385 0.30009 0.1178 0.0
C851 C 0.87751 0.37835 0.07533 0.0
C852 C 0.90028 0.37752 0.09545 0.0
C853 C 0.90278 0.35146 0.10685 0.0
C854 C 0.92074 0.4037 0.1061 0.0
C855 C 0.87346 0.40579 0.06231 0.0
C856 C 0.9478 0.41025 0.10155 0.0
C857 C 0.96529 0.43762 0.10616 0.0
C858 C 0.95556 0.45876 0.11481 0.0
C859 C 0.92998 0.45068 0.12344 0.0
C860 C 0.91259 0.42329 0.11898 0.0
H861 H 0.86321 0.40259 0.04101 0.0
H862 H 0.85981 0.41294 0.07305 0.0
H863 H 0.89296 0.42295 0.06314 0.0
H864 H 0.9546 0.39507 0.09223 0.0
H865 H 0.98493 0.443 0.09949 0.0
H866 H 0.65104 0.83688 0.25977 0.0
H867 H 0.61269 0.85631 0.26145 0.0
H868 H 0.59074 0.8516 0.17493 0.0
H869 H 0.62811 0.83189 0.17333 0.0
H870 H 0.6071 0.90405 0.24361 0.0
H871 H 0.51608 0.83001 0.19153 0.0
H872 H 0.54615 0.81869 0.20566 0.0
H873 H 0.54133 0.83177 0.17115 0.0
C874 C 0.63755 0.8395 0.24123 0.0
C875 C 0.64247 0.83284 0.21638 0.0
C876 C 0.61557 0.85038 0.24225 0.0
C877 C 0.59824 0.85474 0.21844 0.0
C878 C 0.60287 0.84729 0.19379 0.0
H879 H 0.59739 0.98275 0.13576 0.0
H880 H 0.59832 0.95629 0.178 0.0
C881 C 0.62453 0.83626 0.1928 0.0
C882 C 0.57855 0.87155 0.2179 0.0
H883 H 0.52527 0.88131 0.17192 0.0
C884 C 0.5885 0.89877 0.22876 0.0
C885 C 0.55303 0.8645 0.2004 0.0
C886 C 0.53848 0.83443 0.19192 0.0
C887 C 0.57685 0.92047 0.21788 0.0
C888 C 0.55614 0.91493 0.19478 0.0
C889 C 0.54239 0.88644 0.18842 0.0
C890 C 0.55418 0.93706 0.17324 0.0
C891 C 0.58837 0.94951 0.22983 0.0
C892 C 0.5292 0.93566 0.15597 0.0
C893 C 0.52895 0.94988 0.13095 0.0
C894 C 0.55353 0.96638 0.12305 0.0
C895 C 0.5781 0.97024 0.14137 0.0
C896 C 0.57851 0.95535 0.16596 0.0
H897 H 0.58968 0.94757 0.25204 0.0
H898 H 0.6096 0.95904 0.22584 0.0
H899 H 0.57559 0.96391 0.22172 0.0
H900 H 0.51011 0.92183 0.16087 0.0
H901 H 0.50973 0.94688 0.11728 0.0
H902 H 0.19928 0.75001 0.24832 0.0
H903 H 0.17207 0.71393 0.21572 0.0
H904 H 0.24296 0.72394 0.17815 0.0
H905 H 0.27033 0.75928 0.21123 0.0
H906 H 0.15979 0.71768 0.16265 0.0
H907 H 0.21966 0.63939 0.1901 0.0
H908 H 0.22495 0.66992 0.21013 0.0
H909 H 0.23923 0.67373 0.17975 0.0
C910 C 0.2089 0.74459 0.23296 0.0
C911 C 0.23677 0.75715 0.23221 0.0
C912 C 0.19348 0.72394 0.21449 0.0
C913 C 0.2057 0.71584 0.19491 0.0
C914 C 0.23335 0.72925 0.19356 0.0
H915 H 0.08911 0.61967 0.06612 0.0
H916 H 0.13297 0.65129 0.08704 0.0
C917 C 0.24884 0.74959 0.21225 0.0
C918 C 0.18907 0.69395 0.17552 0.0
H919 H 0.18285 0.6282 0.15334 0.0
C920 C 0.16488 0.69817 0.1605 0.0
C921 C 0.19588 0.66853 0.17289 0.0
C922 C 0.2212 0.66242 0.18924 0.0
C923 C 0.1467 0.67731 0.14357 0.0
C924 C 0.15348 0.65191 0.14077 0.0
C925 C 0.17803 0.64791 0.15526 0.0
C926 C 0.13357 0.62826 0.1253 0.0
C927 C 0.11974 0.68216 0.13 0.0
C928 C 0.12112 0.60337 0.13906 0.0
C929 C 0.09655 0.58489 0.12687 0.0
C930 C 0.08424 0.5915 0.10106 0.0
C931 C 0.09835 0.61448 0.08619 0.0
C932 C 0.12324 0.63252 0.09813 0.0
H933 H 0.11536 0.69989 0.13898 0.0
H934 H 0.12047 0.68761 0.10839 0.0
H935 H 0.10246 0.66274 0.13144 0.0
H936 H 0.12894 0.59966 0.16001 0.0
H937 H 0.08582 0.56723 0.13858 0.0
H938 H 0.30703 0.84994 0.80005 0.0
H939 H 0.33381 0.88636 0.83216 0.0
H940 H 0.33491 0.82192 0.89501 0.0
H941 H 0.30706 0.78525 0.86292 0.0
H942 H 0.32763 0.87106 0.91233 0.0
H943 H 0.41501 0.89681 0.85617 0.0
H944 H 0.38361 0.90054 0.83639 0.0
H945 H 0.38588 0.86603 0.84919 0.0
C946 C 0.31277 0.84356 0.82079 0.0
C947 C 0.3053 0.81484 0.82909 0.0
C948 C 0.32814 0.86436 0.83904 0.0
C949 C 0.33683 0.85673 0.86574 0.0
C950 C 0.32847 0.82816 0.87439 0.0
H951 H 0.45511 0.92167 0.9994 0.0
H952 H 0.41425 0.89712 0.96871 0.0
C953 C 0.31266 0.80728 0.85614 0.0
C954 C 0.35578 0.87837 0.88425 0.0
H955 H 0.42002 0.9247 0.89356 0.0
C956 C 0.34777 0.88291 0.9082 0.0
C957 C 0.38201 0.89386 0.87867 0.0
C958 C 0.39229 0.88894 0.85385 0.0
C959 C 0.36557 0.90226 0.927 0.0
C960 C 0.39195 0.91721 0.92167 0.0
C961 C 0.39959 0.9134 0.89734 0.0
C962 C 0.41338 0.93379 0.9424 0.0
C963 C 0.35625 0.90626 0.95262 0.0
C964 C 0.42624 0.96267 0.93784 0.0
C965 C 0.4497 0.97686 0.95545 0.0
C966 C 0.46084 0.96207 0.97738 0.0
C967 C 0.44715 0.93352 0.98246 0.0
C968 C 0.42362 0.91953 0.96514 0.0
H969 H 0.33351 0.89998 0.9503 0.0
H970 H 0.36402 0.89272 0.96891 0.0
H971 H 0.36445 0.92869 0.95892 0.0
H972 H 0.4187 0.97389 0.92019 0.0
H973 H 0.45988 0.99889 0.95111 0.0
H974 H 0.20238 0.32361 0.93875 0.0
H975 H 0.17589 0.34721 0.95958 0.0
H976 H 0.18472 0.41258 0.89733 0.0
H977 H 0.21029 0.38859 0.87579 0.0
H978 H 0.18943 0.39935 0.98091 0.0
H979 H 0.10304 0.39142 0.89611 0.0
H980 H 0.12791 0.37195 0.89736 0.0
H981 H 0.13589 0.4088 0.88686 0.0
C982 C 0.19836 0.34275 0.92914 0.0
C983 C 0.20853 0.3539 0.90531 0.0
C984 C 0.18333 0.35643 0.94129 0.0
C985 C 0.17779 0.3816 0.92996 0.0
C986 C 0.18809 0.39294 0.90633 0.0
H987 H 0.1221 0.49652 0.01817 0.0
H988 H 0.14893 0.47555 0.99481 0.0
C989 C 0.20312 0.37928 0.89415 0.0
C990 C 0.16174 0.39614 0.94314 0.0
H991 H 0.10466 0.42029 0.93219 0.0
C992 C 0.17089 0.4039 0.97021 0.0
C993 C 0.13727 0.40191 0.92948 0.0
C994 C 0.12524 0.39286 0.90094 0.0
C995 C 0.15658 0.41733 0.98377 0.0
C996 C 0.13251 0.42378 0.96989 0.0
C997 C 0.12322 0.41578 0.94289 0.0
C998 C 0.11599 0.43756 0.98328 0.0
C999 C 0.16701 0.42373 0.01315 0.0
C1000 C 0.08812 0.42398 0.98388 0.0
C1001 C 0.07262 0.43608 0.99701 0.0
C1002 C 0.08443 0.46231 0.0099 0.0
C1003 C 0.11219 0.4763 1.00865 0.0
C1004 C 0.1277 0.46414 0.99545 0.0
H1005 H 0.18094 0.41089 0.02253 0.0
H1006 H 0.17872 0.44648 0.01507 0.0
H1007 H 0.14978 0.41955 0.02456 0.0
H1008 H 0.07839 0.40359 0.97461 0.0
H1009 H 0.05137 0.42453 0.99738 0.0
H1010 H 0.72761 0.18485 0.82182 0.0
H1011 H 0.69563 0.15802 0.85099 0.0
H1012 H 0.68432 0.2359 0.87346 0.0
H1013 H 0.71645 0.26304 0.84424 0.0
H1014 H 0.69354 0.20032 0.91759 0.0
H1015 H 0.61187 0.1397 0.83966 0.0
H1016 H 0.6453 0.13677 0.83777 0.0
H1017 H 0.63841 0.17069 0.83168 0.0
C1018 C 0.71824 0.19637 0.83281 0.0
C1019 C 0.72467 0.22622 0.83051 0.0
C1020 C 0.69972 0.18089 0.84939 0.0
C1021 C 0.68706 0.19476 0.86421 0.0
C1022 C 0.69356 0.22459 0.86212 0.0
H1023 H 0.55679 0.09885 0.95725 0.0
H1024 H 0.58095 0.13168 0.9245 0.0
C1025 C 0.71196 0.24011 0.84534 0.0
C1026 C 0.66815 0.17818 0.88276 0.0
H1027 H 0.61011 0.12288 0.88523 0.0
C1028 C 0.67516 0.1836 0.91042 0.0
C1029 C 0.64383 0.15656 0.87357 0.0
C1030 C 0.63419 0.15071 0.84402 0.0
C1031 C 0.65933 0.16733 0.92911 0.0
C1032 C 0.63588 0.14462 0.92011 0.0
C1033 C 0.62815 0.14001 0.89231 0.0
C1034 C 0.62047 0.12437 0.93944 0.0
C1035 C 0.66803 0.17459 0.95846 0.0
C1036 C 0.63426 0.10875 0.95836 0.0
C1037 C 0.62062 0.09016 0.97698 0.0
C1038 C 0.59251 0.08624 0.97727 0.0
C1039 C 0.57838 0.10132 0.95782 0.0
C1040 C 0.59222 0.12013 0.93905 0.0
H1041 H 0.68037 0.19712 0.96103 0.0
H1042 H 0.65001 0.17075 0.96871 0.0
H1043 H 0.68099 0.16108 0.96855 0.0
H1044 H 0.65578 0.1109 0.95873 0.0
H1045 H 0.63233 0.0788 0.99125 0.0
H1046 H 0.84455 0.71506 0.80747 0.0
H1047 H 0.86833 0.68632 0.83922 0.0
H1048 H 0.86239 0.73333 0.90516 0.0
H1049 H 0.83815 0.76167 0.87365 0.0
H1050 H 0.91591 0.69818 0.87486 0.0
H1051 H 0.83009 0.65334 0.9311 0.0
H1052 H 0.82613 0.67289 0.89965 0.0
H1053 H 0.84092 0.69143 0.93058 0.0
C1054 C 0.84833 0.71935 0.82873 0.0
C1055 C 0.83918 0.74069 0.83789 0.0
C1056 C 0.86199 0.70284 0.84693 0.0
C1057 C 0.86681 0.70707 0.87484 0.0
C1058 C 0.85839 0.72894 0.88391 0.0
H1059 H 0.981 0.64544 0.99867 0.0
H1060 H 0.95963 0.67233 0.96297 0.0
C1061 C 0.84466 0.74538 0.86576 0.0
C1062 C 0.88053 0.6887 0.89437 0.0
H1063 H 0.87292 0.64547 0.95063 0.0
C1064 C 0.90642 0.68659 0.89136 0.0
C1065 C 0.86815 0.67298 0.91577 0.0
C1066 C 0.83968 0.67248 0.91936 0.0
C1067 C 0.92038 0.66996 0.90931 0.0
C1068 C 0.9085 0.65523 0.93138 0.0
C1069 C 0.88235 0.65685 0.93401 0.0
C1070 C 0.92263 0.63808 0.95201 0.0
C1071 C 0.94754 0.66791 0.90405 0.0
C1072 C 0.90917 0.60969 0.95826 0.0
C1073 C 0.92133 0.59423 0.97896 0.0
C1074 C 0.94732 0.60671 0.99419 0.0
C1075 C 0.9611 0.63489 0.98739 0.0
C1076 C 0.94888 0.65036 0.96675 0.0
H1077 H 0.94955 0.67253 0.88254 0.0
H1078 H 0.9644 0.6838 0.91622 0.0
H1079 H 0.95018 0.6465 0.90966 0.0
H1080 H 0.88894 0.59954 0.94737 0.0
H1081 H 0.90993 0.57269 0.9835 0.0
H1082 H 0.22273 0.30901 0.20121 0.0
H1083 H 0.19086 0.33544 0.17932 0.0
H1084 H 0.1981 0.37569 0.25398 0.0
H1085 H 0.23011 0.34906 0.27616 0.0
H1086 H 0.1435 0.35879 0.22748 0.0
H1087 H 0.20933 0.41864 0.15536 0.0
H1088 H 0.20286 0.38086 0.15414 0.0
H1089 H 0.22214 0.39923 0.18408 0.0
C1090 C 0.21771 0.32351 0.21312 0.0
C1091 C 0.2294 0.32679 0.24063 0.0
C1092 C 0.19943 0.33887 0.20041 0.0
C1093 C 0.19206 0.35819 0.21463 0.0
C1094 C 0.20332 0.36118 0.24225 0.0
H1095 H 0.11357 0.48769 0.1356 0.0
H1096 H 0.14386 0.46208 0.16248 0.0
C1097 C 0.2218 0.34589 0.255 0.0
C1098 C 0.17264 0.37498 0.20068 0.0
H1099 H 0.16338 0.4213 0.14763 0.0
C1100 C 0.14798 0.37249 0.21007 0.0
C1101 C 0.17818 0.39335 0.17801 0.0
C1102 C 0.20466 0.39847 0.16741 0.0
C1103 C 0.1288 0.38709 0.19729 0.0
C1104 C 0.13396 0.40476 0.17411 0.0
C1105 C 0.15891 0.40771 0.16512 0.0
C1106 C 0.11418 0.42067 0.1591 0.0
C1107 C 0.10333 0.3838 0.20916 0.0
C1108 C 0.08683 0.40645 0.14809 0.0
C1109 C 0.06921 0.42122 0.13258 0.0
C1110 C 0.07825 0.45082 0.12745 0.0
C1111 C 0.10543 0.46506 0.1391 0.0
C1112 C 0.12303 0.45028 0.15446 0.0
H1113 H 0.10593 0.3765 0.23059 0.0
H1114 H 0.09784 0.40412 0.20781 0.0
H1115 H 0.08598 0.36769 0.19781 0.0
H1116 H 0.07927 0.38363 0.15065 0.0
H1117 H 0.04872 0.40918 0.1238 0.0
H1118 H 0.10444 0.64107 0.79509 0.0
H1119 H 0.06809 0.62847 0.82251 0.0
H1120 H 0.12231 0.68172 0.88553 0.0
H1121 H 0.15784 0.69582 0.85777 0.0
H1122 H 0.06872 0.60049 0.86759 0.0
H1123 H 0.05417 0.70238 0.88793 0.0
H1124 H 0.07193 0.69892 0.86133 0.0
H1125 H 0.09016 0.70582 0.89531 0.0
C1126 C 0.10838 0.65058 0.81456 0.0
C1127 C 0.13414 0.66932 0.82431 0.0
C1128 C 0.08758 0.64338 0.83017 0.0
C1129 C 0.09219 0.65475 0.85578 0.0
C1130 C 0.11786 0.67346 0.86546 0.0
H1131 H 0.08522 0.59969 1.00462 0.0
H1132 H 0.0887 0.62392 0.96092 0.0
C1133 C 0.13848 0.68091 0.84981 0.0
C1134 C 0.07201 0.64422 0.87416 0.0
H1135 H 0.0502 0.66662 0.92604 0.0
C1136 C 0.06364 0.61488 0.87962 0.0
C1137 C 0.06489 0.66286 0.88964 0.0
C1138 C 0.07054 0.69421 0.88295 0.0
C1139 C 0.05148 0.60411 0.90219 0.0
C1140 C 0.04798 0.62322 0.91971 0.0
C1141 C 0.05337 0.65214 0.91266 0.0
C1142 C 0.04485 0.61413 0.94756 0.0
C1143 C 0.04502 0.57266 0.90877 0.0
C1144 C 1.01896 0.60167 0.95463 0.0
C1145 C 1.01689 0.58785 0.97971 0.0
C1146 C 0.04072 0.5861 0.99763 0.0
C1147 C 0.06655 0.60037 0.99106 0.0
C1148 C 0.06857 0.61436 0.96623 0.0
H1149 H 0.04514 0.56029 0.89136 0.0
H1150 H 0.06056 0.56873 0.92579 0.0
H1151 H 1.02462 0.56479 0.91511 0.0
H1152 H 1.0005 0.6013 0.94028 0.0
H1153 H 0.9967 0.57705 0.9843 0.0
H1154 H 0.379 0.24822 0.79952 0.0
H1155 H 0.41076 0.22156 0.82054 0.0
H1156 H 0.36447 0.19494 0.88542 0.0
H1157 H 0.33296 0.22247 0.86487 0.0
H1158 H 0.41814 0.20943 0.90402 0.0
H1159 H 0.39668 0.13721 0.819 0.0
H1160 H 0.40854 0.17395 0.80925 0.0
H1161 H 0.37623 0.16081 0.82104 0.0
C1162 C 0.37553 0.23673 0.81829 0.0
C1163 C 0.35327 0.23728 0.83042 0.0
C1164 C 0.39364 0.22129 0.83018 0.0
C1165 C 0.38961 0.20557 0.85417 0.0
C1166 C 0.36786 0.20671 0.86676 0.0
H1167 H 0.44833 0.06784 0.92684 0.0
H1168 H 0.42634 0.09833 0.89628 0.0
C1169 C 0.34989 0.22249 0.85503 0.0
C1170 C 0.40826 0.18824 0.86632 0.0
H1171 H 0.43362 0.13452 0.85384 0.0
C1172 C 0.42155 0.19307 0.89304 0.0
C1173 C 0.41249 0.16667 0.85204 0.0
C1174 C 0.39753 0.15912 0.82385 0.0
C1175 C 0.43874 0.17687 0.90598 0.0
C1176 C 0.44356 0.15579 0.89151 0.0
C1177 C 0.43038 0.15104 0.86472 0.0
C1178 C 0.45983 0.13657 0.90483 0.0
C1179 C 0.45058 0.1817 0.93541 0.0
C1180 C 0.48693 0.1474 0.91814 0.0
C1181 C 0.49958 0.13 0.93593 0.0
C1182 C 0.48538 0.1014 0.94047 0.0
C1183 C 0.45979 0.08983 0.92422 0.0
C1184 C 0.44707 0.10731 0.90672 0.0
H1185 H 0.43975 0.19374 0.94495 0.0
H1186 H 0.4494 0.16121 0.94669 0.0
H1187 H 0.47246 0.19419 0.93742 0.0
H1188 H 0.49758 0.16974 0.91619 0.0
H1189 H 0.51952 0.13953 0.94771 0.0
H1190 H 0.81329 0.34976 0.81995 0.0
H1191 H 0.8289 0.38627 0.8543 0.0
H1192 H 0.84036 0.32261 0.91538 0.0
H1193 H 0.82396 0.28602 0.88131 0.0
H1194 H 0.81749 0.35999 0.93295 0.0
H1195 H 0.90834 0.41956 0.88725 0.0
H1196 H 0.87582 0.41537 0.8656 0.0
H1197 H 0.88761 0.38471 0.87647 0.0
C1198 C 0.81911 0.34358 0.84073 0.0
C1199 C 0.81772 0.31505 0.84787 0.0
C1200 C 0.82816 0.3645 0.86035 0.0
C1201 C 0.83643 0.3574 0.88746 0.0
C1202 C 0.83426 0.32875 0.89465 0.0
H1203 H 0.9278 0.42146 0.03526 0.0
H1204 H 0.89321 0.39593 0.99953 0.0
C1205 C 0.82498 0.30782 0.87511 0.0
C1206 C 0.84815 0.37961 0.90836 0.0
H1207 H 0.9031 0.43703 0.92717 0.0
C1208 C 0.83607 0.37699 0.93152 0.0
C1209 C 0.87233 0.40204 0.90658 0.0
C1210 C 0.88698 0.40558 0.88278 0.0
C1211 C 0.8479 0.39548 0.95317 0.0
C1212 C 0.87268 0.4171 0.95184 0.0
C1213 C 0.88402 0.42061 0.92817 0.0
C1214 C 0.88925 0.43352 0.97588 0.0
C1215 C 0.834 0.39134 0.9775 0.0
C1216 C 0.89826 0.46344 0.97509 0.0
C1217 C 0.91802 0.47832 0.99598 0.0
C1218 C 0.9295 0.46345 0.0177 0.0
C1219 C 0.91918 0.43366 0.01905 0.0
C1220 C 0.8993 0.41894 0.99853 0.0
H1221 H 0.81152 0.38161 0.97199 0.0
H1222 H 0.84229 0.37675 0.99222 0.0
H1223 H 0.83765 0.41177 0.98744 0.0
H1224 H 0.89101 0.47519 0.95771 0.0
H1225 H 0.92593 0.50118 0.99397 0.0
H1226 H 0.76723 0.92511 0.89581 0.0
H1227 H 0.74251 0.94237 0.92437 0.0
H1228 H 0.72162 0.86007 0.96407 0.0
H1229 H 0.74704 0.84272 0.93596 0.0
H1230 H 0.68642 0.91919 0.92518 0.0
H1231 H 0.74809 0.91587 0.02713 0.0
H1232 H 0.76152 0.9154 0.99667 0.0
H1233 H 0.73877 0.88374 1.00861 0.0
C1234 C 0.75802 0.91082 0.91107 0.0
C1235 C 0.75927 0.88253 0.91367 0.0
C1236 C 0.74372 0.9207 0.92726 0.0
C1237 C 0.73047 0.90262 0.94652 0.0
C1238 C 0.73209 0.87453 0.94963 0.0
H1239 H 0.59372 0.91898 0.01268 0.0
H1240 H 0.62644 0.90229 0.99402 0.0
C1241 C 0.74638 0.86457 0.93336 0.0
C1242 C 0.71311 0.9126 0.96162 0.0
H1243 H 0.70507 0.92526 0.0247 0.0
C1244 C 0.69056 0.9206 0.94693 0.0
C1245 C 0.71868 0.91459 0.98998 0.0
C1246 C 0.7432 0.90719 1.0066 0.0
C1247 C 0.67318 0.93016 0.95982 0.0
C1248 C 0.67834 0.93153 0.98819 0.0
C1249 C 0.70113 0.92399 1.00295 0.0
C1250 C 0.65986 0.94049 1.00259 0.0
C1251 C 0.64943 0.93887 0.94301 0.0
C1252 C 0.66816 0.96718 0.0144 0.0
C1253 C 0.64944 0.97694 0.02511 0.0
C1254 C 0.62215 0.96005 0.02421 0.0
C1255 C 0.61445 0.93271 0.01355 0.0
C1256 C 0.63312 0.92307 1.00285 0.0
H1257 H 0.65141 0.94185 0.92139 0.0
H1258 H 0.63006 0.92211 0.94476 0.0
H1259 H 0.64782 0.95892 0.9503 0.0
H1260 H 0.68878 0.9809 0.01439 0.0
H1261 H 0.65612 0.99805 0.0332 0.0
H1262 H 0.85901 0.72902 0.26509 0.0
H1263 H 0.87856 0.70015 0.24136 0.0
H1264 H 0.83348 0.72119 0.16599 0.0
H1265 H 0.81424 0.75031 0.18947 0.0
H1266 H 0.85622 0.65275 0.21097 0.0
H1267 H 0.90838 0.73896 0.14579 0.0
H1268 H 0.89452 0.74592 0.17393 0.0
H1269 H 0.87237 0.73522 0.14239 0.0
C1270 C 0.85345 0.72789 0.24342 0.0
C1271 C 0.8351 0.74264 0.22943 0.0
C1272 C 0.86461 0.71105 0.22975 0.0
C1273 C 0.85808 0.70842 0.20151 0.0
C1274 C 0.83966 0.72305 0.18757 0.0
H1275 H 0.89014 0.57544 0.10983 0.0
H1276 H 0.86829 0.60219 0.13365 0.0
C1277 C 0.82847 0.73981 0.20119 0.0
C1278 C 0.87013 0.69029 0.18676 0.0
H1279 H 0.90615 0.69207 0.13549 0.0
C1280 C 0.86713 0.66148 0.19448 0.0
C1281 C 0.88481 0.70119 0.16524 0.0
C1282 C 0.8905 0.73206 0.15647 0.0
C1283 C 0.87784 0.64361 0.18137 0.0
C1284 C 0.89195 0.65437 0.15942 0.0
C1285 C 0.89519 0.68326 0.15194 0.0
C1286 C 0.90493 0.63684 0.14497 0.0
C1287 C 0.87458 0.61347 0.19178 0.0
C1288 C 0.93284 0.64698 0.14254 0.0
C1289 C 0.94533 0.63173 0.12884 0.0
C1290 C 0.93055 0.60554 0.11662 0.0
C1291 C 0.90252 0.59523 0.11899 0.0
C1292 C 0.88995 0.61061 0.13287 0.0
H1293 H 0.87 0.61063 0.21261 0.0
H1294 H 0.85726 0.59904 0.17867 0.0
H1295 H 0.8934 0.607 0.19159 0.0
H1296 H 0.94523 0.66693 0.15142 0.0
H1297 H 0.96686 0.64083 0.12771 0.0
H1298 H 0.34795 0.86463 0.25103 0.0
H1299 H 0.37484 0.89409 0.2188 0.0
H1300 H 0.38021 0.81885 0.18459 0.0
H1301 H 0.35274 0.78918 0.21632 0.0
H1302 H 0.4259 0.90132 0.20932 0.0
H1303 H 0.35259 0.85853 0.11765 0.0
H1304 H 0.34394 0.85078 0.1509 0.0
H1305 H 0.36402 0.83173 0.13861 0.0
C1306 C 0.35481 0.85424 0.23667 0.0
C1307 C 0.34787 0.82436 0.23631 0.0
C1308 C 0.37027 0.87121 0.21818 0.0
C1309 C 0.37923 0.85888 0.1987 0.0
C1310 C 0.37301 0.82906 0.19879 0.0
H1311 H 0.46857 0.93223 0.06525 0.0
H1312 H 0.4464 0.90017 0.0996 0.0
C1313 C 0.35743 0.81204 0.21721 0.0
C1314 C 0.39514 0.87727 0.17854 0.0
H1315 H 0.39539 0.88996 0.11094 0.0
C1316 C 0.41915 0.89879 0.18781 0.0
C1317 C 0.38654 0.87423 0.15034 0.0
C1318 C 0.36024 0.85277 0.13872 0.0
C1319 C 0.43478 0.91698 0.16992 0.0
C1320 C 0.42613 0.91399 0.14172 0.0
C1321 C 0.40227 0.8923 0.13245 0.0
C1322 C 0.44088 0.9336 0.1215 0.0
C1323 C 0.46057 0.93905 0.18163 0.0
C1324 C 0.44513 0.96315 0.122 0.0
C1325 C 0.45789 0.9814 0.10248 0.0
C1326 C 0.46681 0.97062 0.08198 0.0
C1327 C 0.46241 0.94113 0.08119 0.0
C1328 C 0.4496 0.92282 0.10074 0.0
H1329 H 0.46983 0.93187 0.20156 0.0
H1330 H 0.47612 0.9442 0.16819 0.0
H1331 H 0.45534 0.95879 0.18463 0.0
H1332 H 0.438 0.97212 0.13718 0.0
H1333 H 0.46042 1.00398 0.10314 0.0
H1334 H 0.70361 0.22664 0.2735 0.0
H1335 H 0.66569 0.19209 0.24655 0.0
H1336 H 0.7242 0.15768 0.21998 0.0
H1337 H 0.7613 0.19 0.24831 0.0
H1338 H 0.65466 0.19103 0.19707 0.0
H1339 H 0.6688 0.0861 0.22553 0.0
H1340 H 0.68697 0.11648 0.24593 0.0
H1341 H 0.70103 0.10814 0.21839 0.0
C1342 C 0.7081 0.21089 0.26265 0.0
C1343 C 0.73534 0.211 0.26297 0.0
C1344 C 0.6865 0.19126 0.24715 0.0
C1345 C 0.69189 0.17187 0.23133 0.0
C1346 C 0.71913 0.17146 0.23262 0.0
H1347 H 0.60569 0.13212 0.07125 0.0
H1348 H 0.63609 0.15191 0.11253 0.0
C1349 C 0.74051 0.19035 0.24868 0.0
C1350 C 0.67007 0.1551 0.21055 0.0
H1351 H 0.65071 0.09267 0.17746 0.0
C1352 C 0.65337 0.16926 0.19326 0.0
C1353 C 0.66758 0.12641 0.20566 0.0
C1354 C 0.68188 0.10843 0.22516 0.0
C1355 C 0.63567 0.15625 0.17044 0.0
C1356 C 0.63591 0.12891 0.1637 0.0
C1357 C 0.65119 0.11402 0.18193 0.0
C1358 C 0.62041 0.11548 0.13797 0.0
C1359 C 0.61683 0.17204 0.15407 0.0
C1360 C 0.60346 0.08738 0.13793 0.0
C1361 C 0.58726 0.07554 0.11406 0.0
C1362 C 0.58727 0.09182 0.08999 0.0
C1363 C 0.60525 0.1193 0.08967 0.0
C1364 C 0.62221 0.13074 0.11334 0.0
H1365 H 0.61164 0.18636 0.16689 0.0
H1366 H 0.62737 0.18552 0.13841 0.0
H1367 H 0.59743 0.15727 0.14419 0.0
H1368 H 0.60188 0.07495 0.15652 0.0
H1369 H 0.57336 0.05433 0.11481 0.0
H1370 H 0.68926 0.7264 0.79459 0.0
H1371 H 0.66075 0.69946 0.82688 0.0
H1372 H 0.73118 0.71839 0.89018 0.0
H1373 H 0.75959 0.74599 0.85798 0.0
H1374 H 0.66045 0.65284 0.85585 0.0
H1375 H 0.67846 0.73711 0.9286 0.0
H1376 H 0.68926 0.74457 0.89623 0.0
H1377 H 0.70989 0.73117 0.92392 0.0
C1378 C 0.69869 0.72519 0.81546 0.0
C1379 C 0.72688 0.73875 0.82349 0.0
C1380 C 0.68226 0.70954 0.83404 0.0
C1381 C 0.6933 0.70688 0.86148 0.0
C1382 C 0.72155 0.72045 0.86952 0.0
H1383 H 0.6398 0.61017 1.00321 0.0
H1384 H 0.66272 0.64114 0.96952 0.0
C1385 C 0.73798 0.73624 0.85093 0.0
C1386 C 0.6755 0.68922 0.88117 0.0
H1387 H 0.65722 0.68988 0.94313 0.0
C1388 C 0.65963 0.66119 0.87479 0.0
C1389 C 0.67391 0.6996 0.90613 0.0
C1390 C 0.68855 0.72984 0.91404 0.0
C1391 C 0.64334 0.64334 0.89264 0.0
C1392 C 0.64221 0.65355 0.91779 0.0
C1393 C 0.65778 0.68168 0.92402 0.0
C1394 C 0.62673 0.63499 0.93865 0.0
C1395 C 0.62825 0.6132 0.88474 0.0
C1396 C 0.5982 0.6212 0.93337 0.0
C1397 C 0.58466 0.60323 0.95305 0.0
C1398 C 0.59927 0.59838 0.9786 0.0
C1399 C 0.62757 0.61294 0.9839 0.0
C1400 C 0.64091 0.6309 0.96448 0.0
H1401 H 0.636 0.60657 0.86794 0.0
H1402 H 0.63014 0.59822 0.90211 0.0
H1403 H 0.60616 0.61145 0.87807 0.0
H1404 H 0.58633 0.62423 0.91395 0.0
H1405 H 0.56295 0.59256 0.94798 0.0
H1406 H 0.31438 0.68646 0.80523 0.0
H1407 H 0.34427 0.66013 0.83236 0.0
H1408 H 0.40396 0.73913 0.85704 0.0
H1409 H 0.37442 0.76543 0.83033 0.0
H1410 H 0.39955 0.66169 0.82922 0.0
H1411 H 0.39342 0.69643 0.92897 0.0
H1412 H 0.36948 0.70019 0.899 0.0
H1413 H 0.40304 0.72508 0.90523 0.0
C1414 C 0.33376 0.69824 0.81661 0.0
C1415 C 0.34177 0.72818 0.81559 0.0
C1416 C 0.35093 0.68313 0.83206 0.0
C1417 C 0.37636 0.69754 0.84713 0.0
C1418 C 0.38433 0.72738 0.84607 0.0
H1419 H 0.5064 0.64956 0.9609 0.0
H1420 H 0.47951 0.67501 0.92886 0.0
C1421 C 0.36734 0.74245 0.83058 0.0
C1422 C 0.39483 0.68167 0.86367 0.0
H1423 H 0.42704 0.67267 0.92793 0.0
C1424 C 0.40542 0.66396 0.85083 0.0
C1425 C 0.40278 0.68465 0.8919 0.0
C1426 C 0.39144 0.7024 0.90719 0.0
C1427 C 0.42406 0.64978 0.86525 0.0
C1428 C 0.43202 0.65276 0.89352 0.0
C1429 C 0.42128 0.67039 0.90631 0.0
C1430 C 0.45072 0.63727 0.91046 0.0
C1431 C 0.43564 0.63239 0.84982 0.0
C1432 C 0.44426 0.60747 0.91053 0.0
C1433 C 0.45987 0.59281 0.92867 0.0
C1434 C 0.48228 0.60746 0.94762 0.0
C1435 C 0.48955 0.6374 0.9466 0.0
C1436 C 0.47394 0.65205 0.92837 0.0
H1437 H 0.43486 0.63957 0.82837 0.0
H1438 H 0.45722 0.63356 0.85875 0.0
H1439 H 0.4232 0.60986 0.85032 0.0
H1440 H 0.42625 0.59531 0.89748 0.0
H1441 H 0.45331 0.56981 0.92884 0.0
H1442 H 0.29622 0.35815 0.80762 0.0
H1443 H 0.31887 0.39548 0.84058 0.0
H1444 H 0.39774 0.39456 0.82439 0.0
H1445 H 0.37508 0.35759 0.79145 0.0
H1446 H 0.35172 0.38456 0.88518 0.0
H1447 H 0.40991 0.47834 0.8326 0.0
H1448 H 0.38207 0.451 0.81497 0.0
H1449 H 0.41618 0.44684 0.82305 0.0
C1450 C 0.31834 0.36672 0.81059 0.0
C1451 C 0.33411 0.35533 0.79725 0.0
C1452 C 0.33121 0.38795 0.82932 0.0
C1453 C 0.35995 0.39798 0.83474 0.0
C1454 C 0.37553 0.38771 0.82004 0.0
H1455 H 0.47723 0.4259 0.97352 0.0
H1456 H 0.43815 0.40857 0.93789 0.0
C1457 C 0.36266 0.36655 0.80133 0.0
C1458 C 0.37398 0.41526 0.85858 0.0
H1459 H 0.42974 0.47059 0.87939 0.0
C1460 C 0.36833 0.40382 0.88391 0.0
C1461 C 0.39531 0.44059 0.85696 0.0
C1462 C 0.40099 0.45504 0.83037 0.0
C1463 C 0.38498 0.41572 0.90766 0.0
C1464 C 0.40808 0.43927 0.9059 0.0
C1465 C 0.41229 0.45217 0.88069 0.0
C1466 C 0.42955 0.4492 0.9295 0.0
C1467 C 0.3782 0.40238 0.93434 0.0
C1468 C 0.43781 0.47781 0.93642 0.0
C1469 C 0.46035 0.48785 0.95656 0.0
C1470 C 0.47512 0.46946 0.9701 0.0
C1471 C 0.46629 0.44062 0.9636 0.0
C1472 C 0.44378 0.43061 0.94339 0.0
H1473 H 0.35585 0.39186 0.93289 0.0
H1474 H 0.38907 0.38589 0.94036 0.0
H1475 H 0.38465 0.41838 0.95033 0.0
H1476 H 0.42726 0.49253 0.92574 0.0
H1477 H 0.46671 0.51024 0.96075 0.0
H1478 H 0.77194 0.40337 0.88201 0.0
H1479 H 0.76518 0.42903 0.9187 0.0
H1480 H 0.68365 0.42591 0.87713 0.0
H1481 H 0.69021 0.40046 0.8406 0.0
H1482 H 0.7133 0.47913 0.89867 0.0
H1483 H 0.71597 0.39054 0.97399 0.0
H1484 H 0.7452 0.40458 0.95741 0.0
H1485 H 0.71289 0.38567 0.93845 0.0
C1486 C 0.75258 0.40816 0.88077 0.0
C1487 C 0.73156 0.39985 0.85846 0.0
C1488 C 0.74879 0.42283 0.90169 0.0
C1489 C 0.72384 0.42915 0.90069 0.0
C1490 C 0.70312 0.42137 0.87821 0.0
H1491 H 0.61299 0.43939 0.99145 0.0
H1492 H 0.64631 0.42953 0.9683 0.0
C1493 C 0.70691 0.40687 0.85731 0.0
C1494 C 0.71828 0.44272 0.92329 0.0
H1495 H 0.70111 0.42775 0.98587 0.0
C1496 C 0.71124 0.46832 0.91803 0.0
C1497 C 0.7157 0.42849 0.94848 0.0
C1498 C 0.72267 0.40072 0.95506 0.0
C1499 C 0.69966 0.47896 0.93648 0.0
C1500 C 0.69545 0.46374 0.96095 0.0
C1501 C 0.70449 0.43935 0.96709 0.0
C1502 C 0.67714 0.4695 0.97772 0.0
C1503 C 0.69 0.50507 0.92873 0.0
C1504 C 0.68366 0.4951 0.99122 0.0
C1505 C 0.66445 0.50096 1.0045 0.0
C1506 C 0.63847 0.48127 1.00438 0.0
C1507 C 0.63262 0.45521 0.99173 0.0
C1508 C 0.65174 0.44942 0.9786 0.0
H1509 H 0.69228 0.51263 0.90777 0.0
H1510 H 0.6681 0.50063 0.93071 0.0
H1511 H 0.70214 0.52246 0.9425 0.0
H1512 H 0.70332 0.51073 0.991 0.0
H1513 H 0.66964 0.52116 0.01417 0.0
H1514 H 0.75838 0.34494 0.21033 0.0
H1515 H 0.72854 0.37156 0.18391 0.0
H1516 H 0.66813 0.33762 0.2353 0.0
H1517 H 0.69795 0.3115 0.262 0.0
H1518 H 0.67783 0.35585 0.15442 0.0
H1519 H 0.67513 0.42092 0.23773 0.0
H1520 H 0.69876 0.39974 0.24057 0.0
H1521 H 0.66378 0.38351 0.24503 0.0
C1522 C 0.73876 0.34314 0.21605 0.0
C1523 C 0.73082 0.32616 0.23854 0.0
C1524 C 0.72164 0.35843 0.20088 0.0
C1525 C 0.69615 0.35727 0.20781 0.0
C1526 C 0.68791 0.33971 0.22984 0.0
H1527 H 0.56705 0.41237 0.09677 0.0
H1528 H 0.59305 0.38477 0.12715 0.0
C1529 C 0.70502 0.32452 0.24504 0.0
C1530 C 0.67808 0.37402 0.19182 0.0
H1531 H 0.64383 0.42294 0.19724 0.0
C1532 C 0.67046 0.37052 0.16385 0.0
C1533 C 0.66858 0.39362 0.20382 0.0
C1534 C 0.67719 0.39994 0.23338 0.0
C1535 C 0.65352 0.38558 0.14778 0.0
C1536 C 0.64324 0.40442 0.15992 0.0
C1537 C 0.6512 0.40826 0.18783 0.0
C1538 C 0.62528 0.42122 0.1438 0.0
C1539 C 0.64748 0.38168 0.11774 0.0
C1540 C 0.63344 0.45108 0.14416 0.0
C1541 C 0.61829 0.46703 0.12706 0.0
C1542 C 0.59443 0.45359 0.10906 0.0
C1543 C 0.58527 0.42365 0.11015 0.0
C1544 C 0.60041 0.40773 0.12733 0.0
H1545 H 0.6626 0.3729 0.11095 0.0
H1546 H 0.62686 0.36653 0.11223 0.0
H1547 H 0.64761 0.40211 0.10669 0.0
H1548 H 0.6523 0.46217 0.15682 0.0
H1549 H 0.62618 0.48996 0.12696 0.0
H1550 H 0.71828 0.69458 0.29711 0.0
H1551 H 0.68408 0.65635 0.26997 0.0
H1552 H 0.72147 0.68906 0.20017 0.0
H1553 H 0.75502 0.7263 0.22651 0.0
H1554 H 0.64668 0.66274 0.22229 0.0
H1555 H 0.71654 0.60461 0.20078 0.0
H1556 H 0.72536 0.62839 0.22859 0.0
H1557 H 0.73054 0.64204 0.19526 0.0
C1558 C 0.71911 0.69336 0.276 0.0
C1559 C 0.73928 0.71342 0.26395 0.0
C1560 C 0.69973 0.67157 0.2606 0.0
C1561 C 0.70076 0.66952 0.23324 0.0
C1562 C 0.72076 0.68973 0.22138 0.0
H1563 H 0.5951 0.63618 0.0877 0.0
H1564 H 0.62452 0.65223 0.13034 0.0
C1565 C 0.73979 0.71129 0.23651 0.0
C1566 C 0.68022 0.64787 0.21579 0.0
H1567 H 0.67711 0.60432 0.16535 0.0
C1568 C 0.65305 0.64925 0.21035 0.0
C1569 C 0.68839 0.62987 0.20055 0.0
C1570 C 0.71676 0.6259 0.20682 0.0
C1571 C 0.63462 0.6353 0.18831 0.0
C1572 C 0.64391 0.62025 0.17103 0.0
C1573 C 0.6702 0.61648 0.17815 0.0
C1574 C 0.62757 0.61042 0.14448 0.0
C1575 C 0.60566 0.63768 0.18326 0.0
C1576 C 0.62114 0.58192 0.13743 0.0
C1577 C 0.60475 0.57274 0.11273 0.0
C1578 C 0.59451 0.59196 0.09471 0.0
C1579 C 0.60236 0.62077 0.10123 0.0
C1580 C 0.61889 0.62992 0.12577 0.0
H1581 H 0.59913 0.64044 0.20237 0.0
H1582 H 0.6047 0.65664 0.17013 0.0
H1583 H 0.59096 0.61863 0.1732 0.0
H1584 H 0.62806 0.56661 0.15138 0.0
H1585 H 0.59906 0.55038 0.10837 0.0
H1586 H 0.26984 0.6222 0.15606 0.0
H1587 H 0.2854 0.60226 0.12094 0.0
H1588 H 0.35888 0.67268 0.12779 0.0
H1589 H 0.34362 0.6926 0.16265 0.0
H1590 H 0.33661 0.65584 0.07433 0.0
H1591 H 0.34762 0.56466 0.14393 0.0
H1592 H 0.31418 0.57023 0.13574 0.0
H1593 H 0.34171 0.59581 0.1553 0.0
C1594 C 0.28916 0.63353 0.14981 0.0
C1595 C 0.30564 0.65882 0.16226 0.0
C1596 C 0.29798 0.62215 0.12978 0.0
C1597 C 0.32346 0.6358 0.12214 0.0
C1598 C 0.33911 0.66185 0.13341 0.0
H1599 H 0.45784 0.6254 0.06074 0.0
H1600 H 0.42026 0.63716 0.07559 0.0
C1601 C 0.33032 0.67326 0.15328 0.0
C1602 C 0.33542 0.62217 0.10437 0.0
H1603 H 0.36674 0.56991 0.10479 0.0
C1604 C 0.34272 0.63672 0.08066 0.0
C1605 C 0.34328 0.59717 0.11271 0.0
C1606 C 0.33651 0.58104 0.13836 0.0
C1607 C 0.35902 0.6278 0.06583 0.0
C1608 C 0.36841 0.60397 0.0752 0.0
C1609 C 0.35949 0.58823 0.09778 0.0
C1610 C 0.39023 0.59722 0.06412 0.0
C1611 C 0.36688 0.64453 0.04082 0.0
C1612 C 0.38586 0.57061 0.05324 0.0
C1613 C 0.40739 0.56372 0.04479 0.0
C1614 C 0.43371 0.58321 0.0475 0.0
C1615 C 0.43789 0.60986 0.05841 0.0
C1616 C 0.41636 0.61676 0.06665 0.0
H1617 H 0.35162 0.65598 0.03177 0.0
H1618 H 0.38701 0.66058 0.04619 0.0
H1619 H 0.36876 0.6305 0.02555 0.0
H1620 H 0.36588 0.55515 0.0515 0.0
H1621 H 0.40349 0.54299 0.03653 0.0
H1622 H 0.38496 0.32849 0.25935 0.0
H1623 H 0.4125 0.35696 0.22711 0.0
H1624 H 0.33911 0.34981 0.16839 0.0
H1625 H 0.31132 0.32167 0.20099 0.0
H1626 H 0.4227 0.34872 0.17891 0.0
H1627 H 0.3715 0.43431 0.16606 0.0
H1628 H 0.36559 0.4068 0.1918 0.0
H1629 H 0.34813 0.40009 0.15768 0.0
C1630 C 0.37456 0.33289 0.23956 0.0
C1631 C 0.3457 0.3228 0.23305 0.0
C1632 C 0.39047 0.34928 0.22099 0.0
C1633 C 0.3782 0.35641 0.19516 0.0
C1634 C 0.34937 0.34555 0.18827 0.0
H1635 H 0.43365 0.45587 0.05556 0.0
H1636 H 0.4099 0.4248 0.0885 0.0
C1637 C 0.33338 0.3291 0.20692 0.0
C1638 C 0.39559 0.37518 0.17582 0.0
H1639 H 0.4028 0.4363 0.13662 0.0
C1640 C 0.41833 0.36793 0.1698 0.0
C1641 C 0.39047 0.4006 0.1638 0.0
C1642 C 0.36779 0.41113 0.17033 0.0
C1643 C 0.43518 0.38456 0.15178 0.0
C1644 C 0.42976 0.40973 0.13946 0.0
C1645 C 0.40724 0.41712 0.14576 0.0
C1646 C 0.44591 0.42792 0.11891 0.0
C1647 C 0.45815 0.37442 0.14543 0.0
C1648 C 0.47468 0.44035 0.12428 0.0
C1649 C 0.48873 0.45849 0.10501 0.0
C1650 C 0.47438 0.46492 0.07987 0.0
C1651 C 0.44575 0.45188 0.07456 0.0
C1652 C 0.4319 0.43392 0.09359 0.0
H1653 H 0.45544 0.35158 0.15092 0.0
H1654 H 0.45956 0.37764 0.12371 0.0
H1655 H 0.47788 0.38677 0.15711 0.0
H1656 H 0.48625 0.43673 0.14369 0.0
H1657 H 0.51063 0.46814 0.11015 0.0
H1658 H 0.79798 0.65595 0.63879 0.0
H1659 H 0.82692 0.63793 0.61553 0.0
H1660 H 0.89883 0.69894 0.65537 0.0
H1661 H 0.87029 0.71632 0.67948 0.0
H1662 H 0.86528 0.66387 0.58153 0.0
H1663 H 0.91461 0.62264 0.67685 0.0
H1664 H 0.88405 0.63398 0.67453 0.0
H1665 H 0.91714 0.65977 0.67713 0.0
C1666 C 0.81996 0.66553 0.64262 0.0
C1667 C 0.83182 0.68738 0.66125 0.0
C1668 C 0.83643 0.65533 0.62917 0.0
C1669 C 0.86504 0.66673 0.63415 0.0
C1670 C 0.87682 0.68949 0.65164 0.0
H1671 H 1.00396 0.63195 0.58801 0.0
H1672 H 0.97193 0.65178 0.60429 0.0
C1673 C 0.86041 0.69964 0.66516 0.0
C1674 C 0.88268 0.65412 0.62194 0.0
H1675 H 0.9338 0.62168 0.63792 0.0
C1676 C 0.88017 0.6545 0.5938 0.0
C1677 C 0.90192 0.6417 0.63804 0.0
C1678 C 0.90448 0.63919 0.6683 0.0
C1679 C 0.89705 0.64356 0.58136 0.0
C1680 C 0.91664 0.63169 0.59753 0.0
C1681 C 0.91885 0.63095 0.62561 0.0
C1682 C 0.93558 0.6204 0.5859 0.0
C1683 C 0.89433 0.6454 0.55111 0.0
C1684 C 0.9257 0.59614 0.57012 0.0
C1685 C 0.944 0.5846 0.56077 0.0
C1686 C 0.9725 0.59712 0.56714 0.0
C1687 C 0.98219 0.62168 0.58268 0.0
C1688 C 0.96392 0.6331 0.59203 0.0
H1689 H 0.88229 0.66018 0.54199 0.0
H1690 H 0.91486 0.65256 0.54497 0.0
H1691 H 0.8837 0.62404 0.54284 0.0
H1692 H 0.90389 0.58575 0.56554 0.0
H1693 H 0.9358 0.56565 0.54891 0.0
H1694 H 0.4786 0.90904 0.76731 0.0
H1695 H 0.51878 0.92753 0.74565 0.0
H1696 H 0.47768 0.9816 0.69382 0.0
H1697 H 0.43789 0.96412 0.71618 0.0
H1698 H 0.51188 0.91422 0.69512 0.0
H1699 H 0.55541 0.03006 0.69985 0.0
H1700 H 0.53478 1.01002 0.72391 0.0
H1701 H 0.5188 0.02197 0.69212 0.0
C1702 C 0.47861 0.926 0.75231 0.0
C1703 C 0.45481 0.9348 0.74314 0.0
C1704 C 0.50164 0.93644 0.73983 0.0
C1705 C 0.5013 0.95588 0.71805 0.0
C1706 C 0.47871 0.96696 0.71086 0.0
H1707 H 0.50177 0.96009 0.56268 0.0
H1708 H 0.50165 0.94661 0.61009 0.0
C1709 C 0.45575 0.95666 0.72343 0.0
C1710 C 0.52082 0.95954 0.69907 0.0
H1711 H 0.55304 1.00906 0.656 0.0
C1712 C 0.5218 0.93502 0.68724 0.0
C1713 C 0.53425 0.98655 0.68897 0.0
C1714 C 0.53598 0.01358 0.70216 0.0
C1715 C 0.53279 0.93685 0.66363 0.0
C1716 C 0.54275 0.96377 0.65153 0.0
C1717 C 0.54496 0.98835 0.66513 0.0
C1718 C 0.54499 0.96675 0.62271 0.0
C1719 C 0.5317 0.90991 0.65064 0.0
C1720 C 0.5696 0.98186 0.61404 0.0
C1721 C 0.56976 0.98929 0.58676 0.0
C1722 C 0.54514 0.98235 0.56812 0.0
C1723 C 0.52097 0.96576 0.57667 0.0
C1724 C 0.52093 0.95793 0.60372 0.0
H1725 H 0.53255 0.89255 0.66592 0.0
H1726 H 0.51207 0.90294 0.63641 0.0
H1727 H 0.54886 0.91328 0.63925 0.0
H1728 H 0.58829 0.98901 0.62848 0.0
H1729 H 0.58865 1.00225 0.58065 0.0
H1730 H 0.22972 0.33598 0.77906 0.0
H1731 H 0.19418 0.35695 0.75618 0.0
H1732 H 0.19442 0.31976 0.68185 0.0
H1733 H 0.23049 0.29875 0.7046 0.0
H1734 H 0.19764 0.37641 0.67632 0.0
H1735 H 0.11269 0.32067 0.73084 0.0
H1736 H 0.1439 0.33709 0.75293 0.0
H1737 H 0.14271 0.30855 0.73218 0.0
C1738 C 0.22218 0.33199 0.75787 0.0
C1739 C 0.23304 0.31562 0.74366 0.0
C1740 C 0.2016 0.34384 0.74489 0.0
C1741 C 0.19122 0.33944 0.71747 0.0
C1742 C 0.20198 0.32316 0.70313 0.0
H1743 H 0.06267 0.39615 0.61419 0.0
H1744 H 0.08597 0.36674 0.64522 0.0
C1745 C 0.22264 0.31126 0.71613 0.0
C1746 C 0.1707 0.35369 0.70346 0.0
H1747 H 0.10768 0.36238 0.70493 0.0
C1748 C 0.17789 0.37314 0.68243 0.0
C1749 C 0.14484 0.34926 0.71136 0.0
C1750 C 0.13542 0.32755 0.73289 0.0
C1751 C 0.1603 0.38888 0.66959 0.0
C1752 C 0.13501 0.38542 0.67829 0.0
C1753 C 0.12733 0.36534 0.69872 0.0
C1754 C 0.11633 0.40227 0.66558 0.0
C1755 C 0.1689 0.40913 0.64671 0.0
C1756 C 0.12445 0.43182 0.66827 0.0
C1757 C 0.11123 0.44874 0.65058 0.0
C1758 C 0.08973 0.43629 0.62989 0.0
C1759 C 0.07931 0.40648 0.62971 0.0
C1760 C 0.09266 0.38957 0.64738 0.0
H1761 H 0.18609 0.40501 0.63889 0.0
H1762 H 0.15142 0.40755 0.62987 0.0
H1763 H 0.17577 0.43123 0.65391 0.0
H1764 H 0.14246 0.44194 0.68253 0.0
H1765 H 0.11953 0.47161 0.65155 0.0
H1766 H 0.75481 0.26761 0.68013 0.0
H1767 H 0.73804 0.23337 0.64396 0.0
H1768 H 0.7227 0.16477 0.70274 0.0
H1769 H 0.73823 0.19921 0.73894 0.0
H1770 H 0.75444 0.19023 0.63063 0.0
H1771 H 0.64944 0.14729 0.65498 0.0
H1772 H 0.67358 0.17848 0.67057 0.0
H1773 H 0.67606 0.14365 0.68211 0.0
C1774 C 0.74771 0.24523 0.68535 0.0
C1775 C 0.74785 0.23614 0.71242 0.0
C1776 C 0.73826 0.22561 0.66463 0.0
C1777 C 0.72865 0.19636 0.67041 0.0
C1778 C 0.72933 0.18718 0.69755 0.0
H1779 H 0.64503 0.05818 0.55761 0.0
H1780 H 0.67652 0.08316 0.59625 0.0
C1781 C 0.73848 0.20688 0.71829 0.0
C1782 C 0.71748 0.17586 0.6479 0.0
H1783 H 0.65957 0.12612 0.61949 0.0
C1784 C 0.73371 0.17614 0.62831 0.0
C1785 C 0.69043 0.1573 0.6447 0.0
C1786 C 0.67124 0.15676 0.66404 0.0
C1787 C 0.72354 0.15889 0.60558 0.0
C1788 C 0.69638 0.14081 0.60221 0.0
C1789 C 0.68047 0.1398 0.62217 0.0
C1790 C 0.68295 0.12487 0.57704 0.0
C1791 C 0.74181 0.16026 0.58518 0.0
C1792 C 0.677 0.13976 0.55292 0.0
C1793 C 0.65893 0.12555 0.53086 0.0
C1794 C 0.64655 0.09606 0.53233 0.0
C1795 C 0.6546 0.08079 0.55556 0.0
C1796 C 0.67236 0.09511 0.57783 0.0
H1797 H 0.76382 0.1692 0.59381 0.0
H1798 H 0.73873 0.13885 0.57745 0.0
H1799 H 0.73652 0.17414 0.5679 0.0
H1800 H 0.68458 0.16271 0.55185 0.0
H1801 H 0.65284 0.13797 0.51345 0.0
H1802 H 0.81145 0.38848 0.31185 0.0
H1803 H 0.84583 0.4245 0.34016 0.0
H1804 H 0.90222 0.37353 0.34853 0.0
H1805 H 0.86803 0.33755 0.3201 0.0
H1806 H 0.86185 0.40847 0.39256 0.0
H1807 H 0.9529 0.45424 0.34358 0.0
H1808 H 0.91949 0.4369 0.32493 0.0
H1809 H 0.94126 0.4162 0.3423 0.0
C1810 C 0.83152 0.38542 0.31897 0.0
C1811 C 0.83698 0.36007 0.31415 0.0
C1812 C 0.85112 0.40602 0.33513 0.0
C1813 C 0.87654 0.40168 0.34643 0.0
C1814 C 0.88289 0.37752 0.33966 0.0
H1815 H 0.97722 0.42089 0.49626 0.0
H1816 H 0.94144 0.40878 0.45664 0.0
C1817 C 0.86328 0.35689 0.3235 0.0
C1818 C 0.89425 0.41938 0.36881 0.0
H1819 H 0.96068 0.45541 0.39227 0.0
C1820 C 0.88332 0.41932 0.39228 0.0
C1821 C 0.92216 0.43363 0.36838 0.0
C1822 C 0.93459 0.43552 0.34334 0.0
C1823 C 0.90003 0.4315 0.41589 0.0
C1824 C 0.92832 0.44388 0.416 0.0
C1825 C 0.93894 0.44568 0.39209 0.0
C1826 C 0.94766 0.45208 0.44131 0.0
C1827 C 0.88757 0.4301 0.44086 0.0
C1828 C 0.96262 0.48049 0.44589 0.0
C1829 C 0.9829 0.48752 0.4687 0.0
C1830 C 0.98881 0.46613 0.4869 0.0
C1831 C 0.97312 0.43781 0.48261 0.0
C1832 C 0.95266 0.43087 0.46004 0.0
H1833 H 0.86501 0.42662 0.43592 0.0
H1834 H 0.89154 0.41213 0.45404 0.0
H1835 H 0.89693 0.44992 0.45234 0.0
H1836 H 0.95908 0.49707 0.43151 0.0
H1837 H 0.99488 0.50947 0.47131 0.0
H1838 H 0.77028 0.81948 0.3602 0.0
H1839 H 0.74898 0.84657 0.38368 0.0
H1840 H 0.69805 0.86009 0.30915 0.0
H1841 H 0.71963 0.83321 0.28548 0.0
H1842 H 0.7166 0.90882 0.3368 0.0
H1843 H 0.67615 0.82301 0.40826 0.0
H1844 H 0.71252 0.83061 0.41009 0.0
H1845 H 0.68977 0.81653 0.37976 0.0
C1846 C 0.75436 0.8279 0.34867 0.0
C1847 C 0.74677 0.82364 0.32065 0.0
C1848 C 0.74196 0.84347 0.36231 0.0
C1849 C 0.72126 0.85537 0.34864 0.0
C1850 C 0.71376 0.85131 0.3206 0.0
H1851 H 0.60951 0.914 0.42818 0.0
H1852 H 0.63177 0.88907 0.40371 0.0
C1853 C 0.72616 0.8357 0.30693 0.0
C1854 C 0.70787 0.87223 0.36339 0.0
H1855 H 0.67453 0.86913 0.41703 0.0
C1856 C 0.70741 0.89999 0.35433 0.0
C1857 C 0.6953 0.86114 0.38623 0.0
C1858 C 0.69315 0.83111 0.39654 0.0
C1859 C 0.69543 0.91672 0.36738 0.0
C1860 C 0.6836 0.90593 0.39072 0.0
C1861 C 0.68371 0.87801 0.39951 0.0
C1862 C 0.66997 0.92244 0.4056 0.0
C1863 C 0.69492 0.94563 0.35543 0.0
C1864 C 0.68354 0.95001 0.41545 0.0
C1865 C 0.67061 0.96465 0.42968 0.0
C1866 C 0.6436 0.95226 0.43475 0.0
C1867 C 0.63019 0.92469 0.42487 0.0
C1868 C 0.64307 0.91014 0.41076 0.0
H1869 H 0.69744 0.94756 0.33396 0.0
H1870 H 0.67541 0.95016 0.35689 0.0
H1871 H 0.71212 0.96203 0.36662 0.0
H1872 H 0.70446 0.96016 0.41262 0.0
H1873 H 0.68197 0.9856 0.43699 0.0
H1874 H 0.23884 0.68369 0.32918 0.0
H1875 H 0.21146 0.65427 0.36092 0.0
H1876 H 0.19898 0.72894 0.38957 0.0
H1877 H 0.22724 0.75867 0.35844 0.0
H1878 H 0.21065 0.69696 0.43072 0.0
H1879 H 0.13086 0.62653 0.35859 0.0
H1880 H 0.16439 0.62528 0.35522 0.0
H1881 H 0.1551 0.65797 0.34783 0.0
C1882 C 0.23007 0.69393 0.342 0.0
C1883 C 0.23526 0.72369 0.34101 0.0
C1884 C 0.21414 0.67694 0.36011 0.0
C1885 C 0.20245 0.68909 0.37748 0.0
C1886 C 0.20751 0.71882 0.37641 0.0
H1887 H 0.08269 0.57997 0.47359 0.0
H1888 H 0.10397 0.61404 0.44026 0.0
C1889 C 0.22368 0.73588 0.35847 0.0
C1890 C 0.18629 0.67103 0.39763 0.0
H1891 H 0.13437 0.61049 0.40485 0.0
C1892 C 0.19381 0.67821 0.42492 0.0
C1893 C 0.16382 0.64674 0.39036 0.0
C1894 C 0.15287 0.63886 0.36137 0.0
C1895 C 0.18032 0.66149 0.445 0.0
C1896 C 0.15909 0.63617 0.43795 0.0
C1897 C 0.15087 0.62953 0.41055 0.0
C1898 C 0.14576 0.616 0.45868 0.0
C1899 C 0.18881 0.67154 0.47357 0.0
C1900 C 0.1618 0.60525 0.48012 0.0
C1901 C 0.1496 0.58631 0.49947 0.0
C1902 C 0.12086 0.5771 0.49785 0.0
C1903 C 0.10476 0.5873 0.47602 0.0
C1904 C 0.11701 0.60654 0.45673 0.0
H1905 H 0.19764 0.69498 0.47416 0.0
H1906 H 0.17121 0.66546 0.48463 0.0
H1907 H 0.20487 0.66188 0.48424 0.0
H1908 H 0.1839 0.61124 0.4818 0.0
H1909 H 0.16283 0.57877 0.51571 0.0
H1910 H 0.33863 0.2358 0.35895 0.0
H1911 H 0.3694 0.2082 0.38081 0.0
H1912 H 0.38457 0.19204 0.30336 0.0
H1913 H 0.35256 0.21857 0.28131 0.0
H1914 H 0.38274 0.14648 0.33163 0.0
H1915 H 0.44943 0.23075 0.39931 0.0
H1916 H 0.41482 0.22189 0.40522 0.0
H1917 H 0.423 0.23725 0.37313 0.0
C1918 C 0.34854 0.22649 0.34646 0.0
C1919 C 0.34303 0.22984 0.31819 0.0
C1920 C 0.36656 0.21078 0.35912 0.0
C1921 C 0.38047 0.19836 0.34414 0.0
C1922 C 0.3746 0.20133 0.3158 0.0
H1923 H 0.52328 0.14145 0.42696 0.0
H1924 H 0.4928 0.16687 0.4002 0.0
C1925 C 0.35619 0.21669 0.30307 0.0
C1926 C 0.4005 0.18196 0.35786 0.0
H1927 H 0.45446 0.18425 0.40972 0.0
C1928 C 0.39849 0.15498 0.34861 0.0
C1929 C 0.42182 0.1927 0.37982 0.0
C1930 C 0.42762 0.22235 0.38974 0.0
C1931 C 0.41634 0.1386 0.3607 0.0
C1932 C 0.43661 0.14865 0.38364 0.0
C1933 C 0.43895 0.17587 0.39253 0.0
C1934 C 0.45578 0.13181 0.39851 0.0
C1935 C 0.41366 0.11099 0.34798 0.0
C1936 C 0.44593 0.1031 0.40675 0.0
C1937 C 0.46368 0.08815 0.42168 0.0
C1938 C 0.492 0.10141 0.42951 0.0
C1939 C 0.50185 0.13007 0.42117 0.0
C1940 C 0.48417 0.14488 0.40594 0.0
H1941 H 0.40473 0.1112 0.32625 0.0
H1942 H 0.43381 0.10657 0.35001 0.0
H1943 H 0.39963 0.09338 0.35793 0.0
H1944 H 0.42422 0.0923 0.40246 0.0
H1945 H 0.45488 0.06642 0.42807 0.0
H1946 H 0.73901 0.80387 0.68876 0.0
H1947 H 0.71725 0.83327 0.65599 0.0
H1948 H 0.71801 0.88713 0.71951 0.0
H1949 H 0.73913 0.85733 0.7525 0.0
H1950 H 0.67065 0.87835 0.686 0.0
H1951 H 0.75304 0.90893 0.62438 0.0
H1952 H 0.73907 0.87114 0.62693 0.0
H1953 H 0.75689 0.89083 0.65665 0.0
C1954 C 0.7345 0.82192 0.69584 0.0
C1955 C 0.741 0.82814 0.72341 0.0
C1956 C 0.72225 0.83898 0.67694 0.0
C1957 C 0.71645 0.86306 0.68494 0.0
C1958 C 0.72236 0.86892 0.71257 0.0
H1959 H 0.67634 0.99268 0.56562 0.0
H1960 H 0.69862 0.96834 0.60335 0.0
C1961 C 0.73448 0.85176 0.73151 0.0
C1962 C 0.7039 0.88179 0.66466 0.0
H1963 H 0.71111 0.9194 0.60513 0.0
C1964 C 0.67965 0.88742 0.66842 0.0
C1965 C 0.71572 0.89437 0.64184 0.0
C1966 C 0.74276 0.89129 0.63732 0.0
C1967 C 0.66661 0.90429 0.64983 0.0
C1968 C 0.67761 0.91555 0.62623 0.0
C1969 C 0.70231 0.91066 0.6229 0.0
C1970 C 0.66346 0.93158 0.60442 0.0
C1971 C 0.64134 0.91023 0.65601 0.0
C1972 C 0.63614 0.91942 0.59227 0.0
C1973 C 0.62329 0.93342 0.57087 0.0
C1974 C 0.6374 0.95997 0.56055 0.0
C1975 C 0.66465 0.97243 0.573 0.0
C1976 C 0.67751 0.95838 0.59456 0.0
H1977 H 0.64117 0.90892 0.67801 0.0
H1978 H 0.6399 0.93157 0.64827 0.0
H1979 H 0.62284 0.89405 0.6464 0.0
H1980 H 0.62485 0.89856 0.59876 0.0
H1981 H 0.60238 0.92287 0.5619 0.0
H1982 H 0.62199 0.26296 0.37243 0.0
H1983 H 0.58565 0.21932 0.36378 0.0
H1984 H 0.59613 0.22431 0.2807 0.0
H1985 H 0.63505 0.26617 0.29019 0.0
H1986 H 0.54424 0.18392 0.33807 0.0
H1987 H 0.634 0.16609 0.3023 0.0
H1988 H 0.63659 0.20062 0.31343 0.0
H1989 H 0.61485 0.18753 0.28215 0.0
C1990 C 0.61609 0.25528 0.35208 0.0
C1991 C 0.63296 0.26644 0.33275 0.0
C1992 C 0.59498 0.23027 0.34697 0.0
C1993 C 0.58994 0.21704 0.32211 0.0
C1994 C 0.60129 0.23291 0.30065 0.0
H1995 H 0.55092 0.04976 0.40024 0.0
H1996 H 0.54248 0.07992 0.36066 0.0
C1997 C 0.62333 0.25733 0.30606 0.0
C1998 C 0.58044 0.18543 0.3222 0.0
H1999 H 0.61036 0.1313 0.3288 0.0
C2000 C 0.5582 0.17203 0.33536 0.0
C2001 C 0.59818 0.16948 0.31782 0.0
C2002 C 0.62222 0.18153 0.30317 0.0
C2003 C 0.55655 0.14578 0.34903 0.0
C2004 C 0.57674 0.13185 0.34784 0.0
C2005 C 0.59557 0.14262 0.33032 0.0
C2006 C 0.58263 0.11032 0.36848 0.0
C2007 C 0.53528 0.13516 0.36708 0.0
C2008 C 0.60872 0.1161 0.38485 0.0
C2009 C 0.61392 0.09831 0.40682 0.0
C2010 C 0.59292 0.07481 0.41306 0.0
C2011 C 0.56733 0.06808 0.3959 0.0
C2012 C 0.56239 0.08542 0.37346 0.0
H2013 H 0.52383 0.15077 0.36842 0.0
H2014 H 0.52021 0.11531 0.35904 0.0
H2015 H 0.54507 0.13049 0.3877 0.0
H2016 H 0.62476 0.13518 0.3814 0.0
H2017 H 0.63373 0.10393 0.41985 0.0
H2018 H 0.9641 0.74999 0.37778 0.0
H2019 H 0.99674 0.72196 0.38344 0.0
H2020 H 0.95308 0.67641 0.31164 0.0
H2021 H 0.92022 0.70452 0.30592 0.0
H2022 H 0.95326 0.64353 0.35789 0.0
H2023 H 0.05918 0.70715 0.3526 0.0
H2024 H 0.04263 0.72548 0.37039 0.0
H2025 H 0.02957 0.71776 0.3354 0.0
C2026 C 0.96198 0.73458 0.36278 0.0
C2027 C 0.93951 0.72907 0.34167 0.0
C2028 C 0.98088 0.71889 0.36575 0.0
C2029 C 0.97754 0.69733 0.34775 0.0
C2030 C 0.95625 0.69325 0.32548 0.0
H2031 H 1.02126 0.55821 0.44394 0.0
H2032 H 1.01469 0.58143 0.39951 0.0
C2033 C 0.93745 0.7092 0.32233 0.0
C2034 C 0.99168 0.6752 0.35633 0.0
H2035 H 0.05405 0.6688 0.38728 0.0
C2036 C 0.97538 0.6485 0.36351 0.0
C2037 C 1.02048 0.68179 0.36336 0.0
C2038 C 0.03896 0.70955 0.35475 0.0
C2039 C 0.98671 0.62984 0.38093 0.0
C2040 C 1.01541 0.63776 0.39045 0.0
C2041 C 0.03206 0.66286 0.38027 0.0
C2042 C 0.02722 0.62396 0.41494 0.0
C2043 C 0.9673 0.60359 0.39133 0.0
C2044 C 0.03917 0.64033 0.43792 0.0
C2045 C 0.04386 0.62722 0.46306 0.0
C2046 C 0.03612 0.59751 0.46567 0.0
C2047 C 0.02666 0.58119 0.44243 0.0
C2048 C 1.02284 0.59441 0.41711 0.0
H2049 H 0.94543 0.60306 0.38475 0.0
H2050 H 0.97021 0.58439 0.38364 0.0
H2051 H 0.97135 0.60241 0.41366 0.0
H2052 H 0.04296 0.6632 0.43679 0.0
H2053 H 0.05149 0.6403 0.48065 0.0
H2054 H 0.3849 0.79614 0.33757 0.0
H2055 H 0.40926 0.82919 0.37381 0.0
H2056 H 0.33354 0.81729 0.40362 0.0
H2057 H 0.3092 0.78475 0.36731 0.0
H2058 H 0.35932 0.87231 0.3984 0.0
H2059 H 0.43239 0.81671 0.45332 0.0
H2060 H 0.43451 0.81994 0.41819 0.0
H2061 H 0.40314 0.79921 0.42905 0.0
C2062 C 0.3737 0.80018 0.35223 0.0
C2063 C 0.34532 0.78812 0.34976 0.0
C2064 C 0.38754 0.81894 0.37292 0.0
C2065 C 0.37319 0.82536 0.39156 0.0
C2066 C 0.34496 0.81254 0.38951 0.0
H2067 H 0.49343 0.93535 0.50595 0.0
H2068 H 0.44844 0.90103 0.49396 0.0
C2069 C 0.33114 0.79401 0.36879 0.0
C2070 C 0.38736 0.84706 0.41188 0.0
H2071 H 0.44603 0.86784 0.45731 0.0
C2072 C 0.378 0.87117 0.41177 0.0
C2073 C 0.41106 0.84509 0.42996 0.0
C2074 C 0.42064 0.81866 0.43287 0.0
C2075 C 0.39325 0.89452 0.42758 0.0
C2076 C 0.41871 0.89384 0.44325 0.0
C2077 C 0.42666 0.86866 0.44512 0.0
C2078 C 0.43957 0.91973 0.45433 0.0
C2079 C 0.38224 0.91984 0.42668 0.0
C2080 C 0.44856 0.94286 0.43685 0.0
C2081 C 0.4739 0.96285 0.44401 0.0
C2082 C 0.4907 0.95943 0.46837 0.0
C2083 C 0.48063 0.93813 0.48697 0.0
C2084 C 0.455 0.9186 0.48014 0.0
H2085 H 0.3595 0.91293 0.42451 0.0
H2086 H 0.39085 0.93263 0.44504 0.0
H2087 H 0.38755 0.93349 0.40882 0.0
H2088 H 0.43744 0.94394 0.41662 0.0
H2089 H 0.48156 0.9791 0.42938 0.0
H2090 H 0.26628 0.32508 0.44214 0.0
H2091 H 0.24046 0.34041 0.47131 0.0
H2092 H 0.26849 0.42658 0.4416 0.0
H2093 H 0.29367 0.41152 0.41197 0.0
H2094 H 0.25627 0.38911 0.51139 0.0
H2095 H 0.18148 0.39709 0.41871 0.0
H2096 H 0.20588 0.37692 0.42038 0.0
H2097 H 0.21689 0.41496 0.41718 0.0
C2098 C 0.26723 0.34736 0.44211 0.0
C2099 C 0.28178 0.36704 0.42456 0.0
C2100 C 0.25268 0.35607 0.4589 0.0
C2101 C 0.25251 0.38451 0.4583 0.0
C2102 C 0.26844 0.40452 0.4422 0.0
H2103 H 0.17822 0.47841 0.54331 0.0
H2104 H 0.21015 0.45864 0.52659 0.0
C2105 C 0.28294 0.39587 0.42542 0.0
C2106 C 0.23325 0.39281 0.4719 0.0
H2107 H 0.17477 0.41374 0.45871 0.0
C2108 C 0.23837 0.3944 0.50001 0.0
C2109 C 0.2098 0.39925 0.45684 0.0
C2110 C 0.20293 0.3968 0.42661 0.0
C2111 C 0.22079 0.40305 0.5135 0.0
C2112 C 0.19783 0.41041 0.49831 0.0
C2113 C 0.19247 0.40816 0.47025 0.0
C2114 C 0.17911 0.42095 0.51082 0.0
C2115 C 0.22674 0.40403 0.5438 0.0
C2116 C 0.15109 0.4064 0.5072 0.0
C2117 C 0.13273 0.41774 0.51644 0.0
C2118 C 0.14209 0.44395 0.52937 0.0
C2119 C 0.17032 0.45819 0.53344 0.0
C2120 C 0.18866 0.44682 0.52413 0.0
H2121 H 0.2406 0.39094 0.55265 0.0
H2122 H 0.23695 0.4263 0.5499 0.0
H2123 H 0.20749 0.39648 0.55234 0.0
H2124 H 0.14335 0.38648 0.49679 0.0
H2125 H 0.11117 0.40612 0.51307 0.0
H2126 H 0.34598 0.16956 0.65299 0.0
H2127 H 0.36949 0.14493 0.62941 0.0
H2128 H 0.44725 0.20307 0.66113 0.0
H2129 H 0.42416 0.22687 0.68579 0.0
H2130 H 0.39947 0.16322 0.59043 0.0
H2131 H 0.46583 0.12953 0.67772 0.0
H2132 H 0.43798 0.14324 0.68151 0.0
H2133 H 0.4706 0.16713 0.67657 0.0
C2134 C 0.36815 0.17681 0.65549 0.0
C2135 C 0.38301 0.20032 0.67155 0.0
C2136 C 0.3816 0.16278 0.64171 0.0
C2137 C 0.41032 0.17171 0.64367 0.0
C2138 C 0.4252 0.19517 0.65965 0.0
H2139 H 0.53039 0.13208 0.56402 0.0
H2140 H 0.50557 0.15188 0.59073 0.0
C2141 C 0.41181 0.20911 0.6735 0.0
C2142 C 0.42457 0.1573 0.6282 0.0
H2143 H 0.47694 0.12634 0.63444 0.0
C2144 C 0.41623 0.15493 0.60016 0.0
C2145 C 0.44653 0.14635 0.64068 0.0
C2146 C 0.45559 0.1464 0.6708 0.0
C2147 C 0.42956 0.14275 0.58435 0.0
C2148 C 0.45179 0.1323 0.59679 0.0
C2149 C 0.46002 0.13443 0.62481 0.0
C2150 C 0.46697 0.1195 0.58099 0.0
C2151 C 0.42021 0.14186 0.55427 0.0
C2152 C 0.45381 0.09431 0.5669 0.0
C2153 C 0.46803 0.08275 0.55167 0.0
C2154 C 0.49582 0.09614 0.55006 0.0
C2155 C 0.50904 0.12114 0.5646 0.0
C2156 C 0.49485 0.13253 0.57997 0.0
H2157 H 0.40702 0.15612 0.5472 0.0
H2158 H 0.43808 0.14804 0.54358 0.0
H2159 H 0.40815 0.11987 0.54865 0.0
H2160 H 0.43246 0.08353 0.56765 0.0
H2161 H 0.45708 0.0635 0.54086 0.0
H2162 H 0.86121 0.28896 0.73028 0.0
H2163 H 0.89658 0.31681 0.70475 0.0
H2164 H 0.86464 0.38877 0.70297 0.0
H2165 H 0.8299 0.36146 0.729 0.0
H2166 H 0.89478 0.34174 0.65579 0.0
H2167 H 0.94386 0.42597 0.72994 0.0
H2168 H 0.91899 0.39354 0.7378 0.0
H2169 H 0.90796 0.42259 0.72019 0.0
C2170 C 0.86176 0.31076 0.72454 0.0
C2171 C 0.84274 0.32296 0.732 0.0
C2172 C 0.88206 0.32671 0.7099 0.0
C2173 C 0.8839 0.35527 0.70237 0.0
C2174 C 0.86442 0.36717 0.70918 0.0
H2175 H 0.95629 0.48291 0.59418 0.0
H2176 H 0.93066 0.45032 0.62514 0.0
C2177 C 0.8443 0.35136 0.72395 0.0
C2178 C 0.90564 0.3725 0.68691 0.0
H2179 H 0.95414 0.43688 0.68513 0.0
C2180 C 0.90806 0.36231 0.6625 0.0
C2181 C 0.92336 0.39935 0.69558 0.0
C2182 C 0.92364 0.41086 0.72245 0.0
C2183 C 0.92652 0.37874 0.64605 0.0
C2184 C 0.9431 0.40611 0.65411 0.0
C2185 C 0.94143 0.41591 0.67889 0.0
C2186 C 0.95993 0.42603 0.63579 0.0
C2187 C 0.92744 0.36737 0.61952 0.0
C2188 C 0.98536 0.42358 0.63162 0.0
C2189 C 1.00047 0.44259 0.61386 0.0
C2190 C 0.99022 0.46415 0.59973 0.0
C2191 C 0.96489 0.46653 0.60439 0.0
C2192 C 0.9501 0.44788 0.62221 0.0
H2193 H 0.91278 0.34597 0.61574 0.0
H2194 H 0.92257 0.38214 0.60286 0.0
H2195 H 0.94847 0.36608 0.61924 0.0
H2196 H 0.99346 0.40695 0.64202 0.0
H2197 H 1.01982 0.44006 0.61084 0.0
H2198 H 0.33183 0.71319 0.72273 0.0
H2199 H 0.31067 0.66645 0.70164 0.0
H2200 H 0.23176 0.68311 0.68793 0.0
H2201 H 0.2524 0.72909 0.70844 0.0
H2202 H 0.23693 0.62596 0.71432 0.0
H2203 H 0.27479 0.65641 0.61695 0.0
H2204 H 0.29729 0.66443 0.64894 0.0
H2205 H 0.27293 0.68408 0.63728 0.0
C2206 C 0.31001 0.70673 0.71508 0.0
C2207 C 0.2937 0.72463 0.71718 0.0
C2208 C 0.298 0.68013 0.70321 0.0
C2209 C 0.26968 0.67141 0.69348 0.0
C2210 C 0.25362 0.6894 0.69557 0.0
H2211 H 0.13583 0.62062 0.59523 0.0
H2212 H 0.18199 0.6362 0.62058 0.0
C2213 C 0.26547 0.71571 0.70721 0.0
C2214 C 0.25581 0.64417 0.68009 0.0
H2215 H 0.23153 0.62222 0.61576 0.0
C2216 C 0.23642 0.62411 0.69298 0.0
C2217 C 0.25544 0.64194 0.65238 0.0
C2218 C 0.27625 0.66273 0.63791 0.0
C2219 C 0.21428 0.6044 0.6781 0.0
C2220 C 0.21187 0.60481 0.64978 0.0
C2221 C 0.23339 0.62215 0.63748 0.0
C2222 C 0.18482 0.59385 0.63264 0.0
C2223 C 0.19193 0.58582 0.69233 0.0
C2224 C 0.17108 0.56475 0.63092 0.0
C2225 C 0.14432 0.55568 0.6165 0.0
C2226 C 0.13103 0.57562 0.60363 0.0
C2227 C 0.14525 0.60465 0.60503 0.0
C2228 C 0.1718 0.61362 0.61933 0.0
H2229 H 0.19681 0.58854 0.71446 0.0
H2230 H 0.17228 0.5909 0.6846 0.0
H2231 H 0.18891 0.56319 0.68825 0.0
H2232 H 0.18085 0.54918 0.64102 0.0
H2233 H 0.13392 0.53316 0.61585 0.0
loop_
_geom_bond_atom_site_label_1
_geom_bond_atom_site_label_2
_geom_bond_distance
_geom_bond_site_symmetry_2
_ccdc_geom_bond_type
C0 Eu1 2.835 . S
C0 C2 1.500 . S
C0 O20 1.257 . S
C0 O21 1.260 . S
Eu1 C0 2.835 . S
Eu1 O20 2.473 . S
Eu1 O21 2.480 . S
Eu1 O22 2.430 . S
Eu1 O23 2.670 . S
Eu1 O24 2.394 . S
Eu1 O29 2.355 . S
Eu1 O31 2.374 . S
C2 C0 1.500 . S
C2 C3 1.377 . S
C2 C7 1.377 . S
C3 C2 1.377 . S
C3 C4 1.395 . S
C3 H32 0.931 . S
C4 C3 1.395 . S
C4 C5 1.383 . S
C4 H33 0.931 . S
C5 C4 1.383 . S
C5 C6 1.394 . S
C6 C5 1.394 . S
C6 C7 1.378 . S
C6 H34 0.931 . S
C7 C2 1.377 . S
C7 C6 1.378 . S
C7 H35 0.931 . S
C8 O22 1.259 . S
C8 O23 1.270 . S
C9 O24 1.251 . S
C9 O25 1.251 . S
C10 Eu11 2.835 . S
C10 C12 1.500 . S
C10 O26 1.257 . S
C10 O27 1.260 . S
Eu11 C10 2.835 . S
Eu11 O23 2.355 . S
Eu11 O25 2.374 . S
Eu11 O26 2.473 . S
Eu11 O27 2.480 . S
Eu11 O28 2.430 . S
Eu11 O29 2.670 . S
Eu11 O30 2.394 . S
C12 C10 1.500 . S
C12 C13 1.377 . S
C12 C17 1.377 . S
C13 C12 1.377 . S
C13 C14 1.395 . S
C13 H36 0.931 . S
C14 C13 1.395 . S
C14 C15 1.383 . S
C14 H37 0.931 . S
C15 C14 1.383 . S
C15 C16 1.394 . S
C16 C15 1.394 . S
C16 C17 1.378 . S
C16 H38 0.931 . S
C17 C12 1.377 . S
C17 C16 1.378 . S
C17 H39 0.931 . S
C18 O28 1.259 . S
C18 O29 1.270 . S
C19 O30 1.251 . S
C19 O31 1.251 . S
O20 C0 1.257 . S
O20 Eu1 2.473 . S
O21 C0 1.260 . S
O21 Eu1 2.480 . S
O22 Eu1 2.430 . S
O22 C8 1.259 . S
O23 Eu1 2.670 . S
O23 C8 1.270 . S
O23 Eu11 2.355 . S
O24 Eu1 2.394 . S
O24 C9 1.251 . S
O25 C9 1.251 . S
O25 Eu11 2.374 . S
O26 C10 1.257 . S
O26 Eu11 2.473 . S
O27 C10 1.260 . S
O27 Eu11 2.480 . S
O28 Eu11 2.430 . S
O28 C18 1.259 . S
O29 Eu1 2.355 . S
O29 Eu11 2.670 . S
O29 C18 1.270 . S
O30 Eu11 2.394 . S
O30 C19 1.251 . S
O31 Eu1 2.374 . S
O31 C19 1.251 . S
H32 C3 0.931 . S
H33 C4 0.931 . S
H34 C6 0.931 . S
H35 C7 0.931 . S
H36 C13 0.931 . S
H37 C14 0.931 . S
H38 C16 0.931 . S
H39 C17 0.931 . S
C40 Eu41 2.835 . S
C40 C42 1.500 . S
C40 O60 1.257 . S
C40 O61 1.260 . S
Eu41 C40 2.835 . S
Eu41 O60 2.473 . S
Eu41 O61 2.480 . S
Eu41 O62 2.430 . S
Eu41 O63 2.670 . S
Eu41 O64 2.394 . S
Eu41 O69 2.355 . S
Eu41 O71 2.374 . S
C42 C40 1.500 . S
C42 C43 1.377 . S
C42 C47 1.377 . S
C43 C42 1.377 . S
C43 C44 1.395 . S
C43 H72 0.931 . S
C44 C43 1.395 . S
C44 C45 1.383 . S
C44 H73 0.931 . S
C45 C44 1.383 . S
C45 C46 1.394 . S
C46 C45 1.394 . S
C46 C47 1.378 . S
C46 H74 0.931 . S
C47 C42 1.377 . S
C47 C46 1.378 . S
C47 H75 0.931 . S
C48 O62 1.259 . S
C48 O63 1.270 . S
C49 O64 1.251 . S
C49 O65 1.251 . S
C50 Eu51 2.835 . S
C50 C52 1.500 . S
C50 O66 1.257 . S
C50 O67 1.260 . S
Eu51 C50 2.835 . S
Eu51 O63 2.355 . S
Eu51 O65 2.374 . S
Eu51 O66 2.473 . S
Eu51 O67 2.480 . S
Eu51 O68 2.430 . S
Eu51 O69 2.670 . S
Eu51 O70 2.394 . S
C52 C50 1.500 . S
C52 C53 1.377 . S
C52 C57 1.377 . S
C53 C52 1.377 . S
C53 C54 1.395 . S
C53 H76 0.931 . S
C54 C53 1.395 . S
C54 C55 1.383 . S
C54 H77 0.931 . S
C55 C54 1.383 . S
C55 C56 1.394 . S
C56 C55 1.394 . S
C56 C57 1.378 . S
C56 H78 0.931 . S
C57 C52 1.377 . S
C57 C56 1.378 . S
C57 H79 0.931 . S
C58 O68 1.259 . S
C58 O69 1.270 . S
C59 O70 1.251 . S
C59 O71 1.251 . S
O60 C40 1.257 . S
O60 Eu41 2.473 . S
O61 C40 1.260 . S
O61 Eu41 2.480 . S
O62 Eu41 2.430 . S
O62 C48 1.259 . S
O63 Eu41 2.670 . S
O63 C48 1.270 . S
O63 Eu51 2.355 . S
O64 Eu41 2.394 . S
O64 C49 1.251 . S
O65 C49 1.251 . S
O65 Eu51 2.374 . S
O66 C50 1.257 . S
O66 Eu51 2.473 . S
O67 C50 1.260 . S
O67 Eu51 2.480 . S
O68 Eu51 2.430 . S
O68 C58 1.259 . S
O69 Eu41 2.355 . S
O69 Eu51 2.670 . S
O69 C58 1.270 . S
O70 Eu51 2.394 . S
O70 C59 1.251 . S
O71 Eu41 2.374 . S
O71 C59 1.251 . S
H72 C43 0.931 . S
H73 C44 0.931 . S
H74 C46 0.931 . S
H75 C47 0.931 . S
H76 C53 0.931 . S
H77 C54 0.931 . S
H78 C56 0.931 . S
H79 C57 0.931 . S
C80 Eu81 2.835 . S
C80 C82 1.500 . S
C80 O100 1.257 . S
C80 O101 1.260 . S
Eu81 C80 2.835 . S
Eu81 O100 2.473 . S
Eu81 O101 2.480 . S
Eu81 O102 2.430 . S
Eu81 O103 2.670 . S
Eu81 O104 2.394 . S
Eu81 O109 2.355 . S
Eu81 O111 2.374 . S
C82 C80 1.500 . S
C82 C83 1.377 . S
C82 C87 1.377 . S
C83 C82 1.377 . S
C83 C84 1.395 . S
C83 H112 0.931 . S
C84 C83 1.395 . S
C84 C85 1.383 . S
C84 H113 0.931 . S
C85 C84 1.383 . S
C85 C86 1.394 . S
C86 C85 1.394 . S
C86 C87 1.378 . S
C86 H114 0.931 . S
C87 C82 1.377 . S
C87 C86 1.378 . S
C87 H115 0.931 . S
C88 O102 1.259 . S
C88 O103 1.270 . S
C89 O104 1.251 . S
C89 O105 1.251 . S
C90 Eu91 2.835 . S
C90 C92 1.500 . S
C90 O106 1.257 . S
C90 O107 1.260 . S
Eu91 C90 2.835 . S
Eu91 O103 2.355 . S
Eu91 O105 2.374 . S
Eu91 O106 2.473 . S
Eu91 O107 2.480 . S
Eu91 O108 2.430 . S
Eu91 O109 2.670 . S
Eu91 O110 2.394 . S
C92 C90 1.500 . S
C92 C93 1.377 . S
C92 C97 1.377 . S
C93 C92 1.377 . S
C93 C94 1.395 . S
C93 H116 0.931 . S
C94 C93 1.395 . S
C94 C95 1.383 . S
C94 H117 0.931 . S
C95 C94 1.383 . S
C95 C96 1.394 . S
C96 C95 1.394 . S
C96 C97 1.378 . S
C96 H118 0.931 . S
C97 C92 1.377 . S
C97 C96 1.378 . S
C97 H119 0.931 . S
C98 O108 1.259 . S
C98 O109 1.270 . S
C99 O110 1.251 . S
C99 O111 1.251 . S
O100 C80 1.257 . S
O100 Eu81 2.473 . S
O101 C80 1.260 . S
O101 Eu81 2.480 . S
O102 Eu81 2.430 . S
O102 C88 1.259 . S
O103 Eu81 2.670 . S
O103 C88 1.270 . S
O103 Eu91 2.355 . S
O104 Eu81 2.394 . S
O104 C89 1.251 . S
O105 C89 1.251 . S
O105 Eu91 2.374 . S
O106 C90 1.257 . S
O106 Eu91 2.473 . S
O107 C90 1.260 . S
O107 Eu91 2.480 . S
O108 Eu91 2.430 . S
O108 C98 1.259 . S
O109 Eu81 2.355 . S
O109 Eu91 2.670 . S
O109 C98 1.270 . S
O110 Eu91 2.394 . S
O110 C99 1.251 . S
O111 Eu81 2.374 . S
O111 C99 1.251 . S
H112 C83 0.931 . S
H113 C84 0.931 . S
H114 C86 0.931 . S
H115 C87 0.931 . S
H116 C93 0.931 . S
H117 C94 0.931 . S
H118 C96 0.931 . S
H119 C97 0.931 . S
C120 Eu121 2.835 . S
C120 C122 1.500 . S
C120 O140 1.257 . S
C120 O141 1.260 . S
Eu121 C120 2.835 . S
Eu121 O140 2.473 . S
Eu121 O141 2.480 . S
Eu121 O142 2.430 . S
Eu121 O143 2.670 . S
Eu121 O144 2.394 . S
Eu121 O149 2.355 . S
Eu121 O151 2.374 . S
C122 C120 1.500 . S
C122 C123 1.377 . S
C122 C127 1.377 . S
C123 C122 1.377 . S
C123 C124 1.395 . S
C123 H152 0.931 . S
C124 C123 1.395 . S
C124 C125 1.383 . S
C124 H153 0.931 . S
C125 C124 1.383 . S
C125 C126 1.394 . S
C126 C125 1.394 . S
C126 C127 1.378 . S
C126 H154 0.931 . S
C127 C122 1.377 . S
C127 C126 1.378 . S
C127 H155 0.931 . S
C128 O142 1.259 . S
C128 O143 1.270 . S
C129 O144 1.251 . S
C129 O145 1.251 . S
C130 Eu131 2.835 . S
C130 C132 1.500 . S
C130 O146 1.257 . S
C130 O147 1.260 . S
Eu131 C130 2.835 . S
Eu131 O143 2.355 . S
Eu131 O145 2.374 . S
Eu131 O146 2.473 . S
Eu131 O147 2.480 . S
Eu131 O148 2.430 . S
Eu131 O149 2.670 . S
Eu131 O150 2.394 . S
C132 C130 1.500 . S
C132 C133 1.377 . S
C132 C137 1.377 . S
C133 C132 1.377 . S
C133 C134 1.395 . S
C133 H156 0.931 . S
C134 C133 1.395 . S
C134 C135 1.383 . S
C134 H157 0.931 . S
C135 C134 1.383 . S
C135 C136 1.394 . S
C136 C135 1.394 . S
C136 C137 1.378 . S
C136 H158 0.931 . S
C137 C132 1.377 . S
C137 C136 1.378 . S
C137 H159 0.931 . S
C138 O148 1.259 . S
C138 O149 1.270 . S
C139 O150 1.251 . S
C139 O151 1.251 . S
O140 C120 1.257 . S
O140 Eu121 2.473 . S
O141 C120 1.260 . S
O141 Eu121 2.480 . S
O142 Eu121 2.430 . S
O142 C128 1.259 . S
O143 Eu121 2.670 . S
O143 C128 1.270 . S
O143 Eu131 2.355 . S
O144 Eu121 2.394 . S
O144 C129 1.251 . S
O145 C129 1.251 . S
O145 Eu131 2.374 . S
O146 C130 1.257 . S
O146 Eu131 2.473 . S
O147 C130 1.260 . S
O147 Eu131 2.480 . S
O148 Eu131 2.430 . S
O148 C138 1.259 . S
O149 Eu121 2.355 . S
O149 Eu131 2.670 . S
O149 C138 1.270 . S
O150 Eu131 2.394 . S
O150 C139 1.251 . S
O151 Eu121 2.374 . S
O151 C139 1.251 . S
H152 C123 0.931 . S
H153 C124 0.931 . S
H154 C126 0.931 . S
H155 C127 0.931 . S
H156 C133 0.931 . S
H157 C134 0.931 . S
H158 C136 0.931 . S
H159 C137 0.931 . S
C160 Eu161 2.835 . S
C160 C162 1.500 . S
C160 O180 1.257 . S
C160 O181 1.260 . S
Eu161 C160 2.835 . S
Eu161 O180 2.473 . S
Eu161 O181 2.480 . S
Eu161 O182 2.430 . S
Eu161 O183 2.670 . S
Eu161 O184 2.394 . S
Eu161 O189 2.355 . S
Eu161 O191 2.374 . S
C162 C160 1.500 . S
C162 C163 1.377 . S
C162 C167 1.377 . S
C163 C162 1.377 . S
C163 C164 1.395 . S
C163 H192 0.931 . S
C164 C163 1.395 . S
C164 C165 1.383 . S
C164 H193 0.931 . S
C165 C164 1.383 . S
C165 C166 1.394 . S
C166 C165 1.394 . S
C166 C167 1.378 . S
C166 H194 0.931 . S
C167 C162 1.377 . S
C167 C166 1.378 . S
C167 H195 0.931 . S
C168 O182 1.259 . S
C168 O183 1.270 . S
C169 O184 1.251 . S
C169 O185 1.251 . S
C170 Eu171 2.835 . S
C170 C172 1.500 . S
C170 O186 1.257 . S
C170 O187 1.260 . S
Eu171 C170 2.835 . S
Eu171 O183 2.355 . S
Eu171 O185 2.374 . S
Eu171 O186 2.473 . S
Eu171 O187 2.480 . S
Eu171 O188 2.430 . S
Eu171 O189 2.670 . S
Eu171 O190 2.394 . S
C172 C170 1.500 . S
C172 C173 1.377 . S
C172 C177 1.377 . S
C173 C172 1.377 . S
C173 C174 1.395 . S
C173 H196 0.931 . S
C174 C173 1.395 . S
C174 C175 1.383 . S
C174 H197 0.931 . S
C175 C174 1.383 . S
C175 C176 1.394 . S
C176 C175 1.394 . S
C176 C177 1.378 . S
C176 H198 0.931 . S
C177 C172 1.377 . S
C177 C176 1.378 . S
C177 H199 0.931 . S
C178 O188 1.259 . S
C178 O189 1.270 . S
C179 O190 1.251 . S
C179 O191 1.251 . S
O180 C160 1.257 . S
O180 Eu161 2.473 . S
O181 C160 1.260 . S
O181 Eu161 2.480 . S
O182 Eu161 2.430 . S
O182 C168 1.259 . S
O183 Eu161 2.670 . S
O183 C168 1.270 . S
O183 Eu171 2.355 . S
O184 Eu161 2.394 . S
O184 C169 1.251 . S
O185 C169 1.251 . S
O185 Eu171 2.374 . S
O186 C170 1.257 . S
O186 Eu171 2.473 . S
O187 C170 1.260 . S
O187 Eu171 2.480 . S
O188 Eu171 2.430 . S
O188 C178 1.259 . S
O189 Eu161 2.355 . S
O189 Eu171 2.670 . S
O189 C178 1.270 . S
O190 Eu171 2.394 . S
O190 C179 1.251 . S
O191 Eu161 2.374 . S
O191 C179 1.251 . S
H192 C163 0.931 . S
H193 C164 0.931 . S
H194 C166 0.931 . S
H195 C167 0.931 . S
H196 C173 0.931 . S
H197 C174 0.931 . S
H198 C176 0.931 . S
H199 C177 0.931 . S
C200 Eu201 2.835 . S
C200 C202 1.500 . S
C200 O220 1.257 . S
C200 O221 1.260 . S
Eu201 C200 2.835 . S
Eu201 O220 2.473 . S
Eu201 O221 2.480 . S
Eu201 O222 2.430 . S
Eu201 O223 2.670 . S
Eu201 O224 2.394 . S
Eu201 O229 2.355 . S
Eu201 O231 2.374 . S
C202 C200 1.500 . S
C202 C203 1.377 . S
C202 C207 1.377 . S
C203 C202 1.377 . S
C203 C204 1.395 . S
C203 H232 0.931 . S
C204 C203 1.395 . S
C204 C205 1.383 . S
C204 H233 0.931 . S
C205 C204 1.383 . S
C205 C206 1.394 . S
C206 C205 1.394 . S
C206 C207 1.378 . S
C206 H234 0.931 . S
C207 C202 1.377 . S
C207 C206 1.378 . S
C207 H235 0.931 . S
C208 O222 1.259 . S
C208 O223 1.270 . S
C209 O224 1.251 . S
C209 O225 1.251 . S
C210 Eu211 2.835 . S
C210 C212 1.500 . S
C210 O226 1.257 . S
C210 O227 1.260 . S
Eu211 C210 2.835 . S
Eu211 O223 2.355 . S
Eu211 O225 2.374 . S
Eu211 O226 2.473 . S
Eu211 O227 2.480 . S
Eu211 O228 2.430 . S
Eu211 O229 2.670 . S
Eu211 O230 2.394 . S
C212 C210 1.500 . S
C212 C213 1.377 . S
C212 C217 1.377 . S
C213 C212 1.377 . S
C213 C214 1.395 . S
C213 H236 0.931 . S
C214 C213 1.395 . S
C214 C215 1.383 . S
C214 H237 0.931 . S
C215 C214 1.383 . S
C215 C216 1.394 . S
C216 C215 1.394 . S
C216 C217 1.378 . S
C216 H238 0.931 . S
C217 C212 1.377 . S
C217 C216 1.378 . S
C217 H239 0.931 . S
C218 O228 1.259 . S
C218 O229 1.270 . S
C219 O230 1.251 . S
C219 O231 1.251 . S
O220 C200 1.257 . S
O220 Eu201 2.473 . S
O221 C200 1.260 . S
O221 Eu201 2.480 . S
O222 Eu201 2.430 . S
O222 C208 1.259 . S
O223 Eu201 2.670 . S
O223 C208 1.270 . S
O223 Eu211 2.355 . S
O224 Eu201 2.394 . S
O224 C209 1.251 . S
O225 C209 1.251 . S
O225 Eu211 2.374 . S
O226 C210 1.257 . S
O226 Eu211 2.473 . S
O227 C210 1.260 . S
O227 Eu211 2.480 . S
O228 Eu211 2.430 . S
O228 C218 1.259 . S
O229 Eu201 2.355 . S
O229 Eu211 2.670 . S
O229 C218 1.270 . S
O230 Eu211 2.394 . S
O230 C219 1.251 . S
O231 Eu201 2.374 . S
O231 C219 1.251 . S
H232 C203 0.931 . S
H233 C204 0.931 . S
H234 C206 0.931 . S
H235 C207 0.931 . S
H236 C213 0.931 . S
H237 C214 0.931 . S
H238 C216 0.931 . S
H239 C217 0.931 . S
C240 Eu241 2.835 . S
C240 C242 1.500 . S
C240 O260 1.257 . S
C240 O261 1.260 . S
Eu241 C240 2.835 . S
Eu241 O260 2.473 . S
Eu241 O261 2.480 . S
Eu241 O262 2.430 . S
Eu241 O263 2.670 . S
Eu241 O264 2.394 . S
Eu241 O269 2.355 . S
Eu241 O271 2.374 . S
C242 C240 1.500 . S
C242 C243 1.377 . S
C242 C247 1.377 . S
C243 C242 1.377 . S
C243 C244 1.395 . S
C243 H272 0.931 . S
C244 C243 1.395 . S
C244 C245 1.383 . S
C244 H273 0.931 . S
C245 C244 1.383 . S
C245 C246 1.394 . S
C246 C245 1.394 . S
C246 C247 1.378 . S
C246 H274 0.931 . S
C247 C242 1.377 . S
C247 C246 1.378 . S
C247 H275 0.931 . S
C248 O262 1.259 . S
C248 O263 1.270 . S
C249 O264 1.251 . S
C249 O265 1.251 . S
C250 Eu251 2.835 . S
C250 C252 1.500 . S
C250 O266 1.257 . S
C250 O267 1.260 . S
Eu251 C250 2.835 . S
Eu251 O263 2.355 . S
Eu251 O265 2.374 . S
Eu251 O266 2.473 . S
Eu251 O267 2.480 . S
Eu251 O268 2.430 . S
Eu251 O269 2.670 . S
Eu251 O270 2.394 . S
C252 C250 1.500 . S
C252 C253 1.377 . S
C252 C257 1.377 . S
C253 C252 1.377 . S
C253 C254 1.395 . S
C253 H276 0.931 . S
C254 C253 1.395 . S
C254 C255 1.383 . S
C254 H277 0.931 . S
C255 C254 1.383 . S
C255 C256 1.394 . S
C256 C255 1.394 . S
C256 C257 1.378 . S
C256 H278 0.931 . S
C257 C252 1.377 . S
C257 C256 1.378 . S
C257 H279 0.931 . S
C258 O268 1.259 . S
C258 O269 1.270 . S
C259 O270 1.251 . S
C259 O271 1.251 . S
O260 C240 1.257 . S
O260 Eu241 2.473 . S
O261 C240 1.260 . S
O261 Eu241 2.480 . S
O262 Eu241 2.430 . S
O262 C248 1.259 . S
O263 Eu241 2.670 . S
O263 C248 1.270 . S
O263 Eu251 2.355 . S
O264 Eu241 2.394 . S
O264 C249 1.251 . S
O265 C249 1.251 . S
O265 Eu251 2.374 . S
O266 C250 1.257 . S
O266 Eu251 2.473 . S
O267 C250 1.260 . S
O267 Eu251 2.480 . S
O268 Eu251 2.430 . S
O268 C258 1.259 . S
O269 Eu241 2.355 . S
O269 Eu251 2.670 . S
O269 C258 1.270 . S
O270 Eu251 2.394 . S
O270 C259 1.251 . S
O271 Eu241 2.374 . S
O271 C259 1.251 . S
H272 C243 0.931 . S
H273 C244 0.931 . S
H274 C246 0.931 . S
H275 C247 0.931 . S
H276 C253 0.931 . S
H277 C254 0.931 . S
H278 C256 0.931 . S
H279 C257 0.931 . S
C280 Eu281 2.835 . S
C280 C282 1.500 . S
C280 O300 1.257 . S
C280 O301 1.260 . S
Eu281 C280 2.835 . S
Eu281 O300 2.473 . S
Eu281 O301 2.480 . S
Eu281 O302 2.430 . S
Eu281 O303 2.670 . S
Eu281 O304 2.394 . S
Eu281 O309 2.355 . S
Eu281 O311 2.374 . S
C282 C280 1.500 . S
C282 C283 1.377 . S
C282 C287 1.377 . S
C283 C282 1.377 . S
C283 C284 1.395 . S
C283 H312 0.931 . S
C284 C283 1.395 . S
C284 C285 1.383 . S
C284 H313 0.931 . S
C285 C284 1.383 . S
C285 C286 1.394 . S
C286 C285 1.394 . S
C286 C287 1.378 . S
C286 H314 0.931 . S
C287 C282 1.377 . S
C287 C286 1.378 . S
C287 H315 0.931 . S
C288 O302 1.259 . S
C288 O303 1.270 . S
C289 O304 1.251 . S
C289 O305 1.251 . S
C290 Eu291 2.835 . S
C290 C292 1.500 . S
C290 O306 1.257 . S
C290 O307 1.260 . S
Eu291 C290 2.835 . S
Eu291 O303 2.355 . S
Eu291 O305 2.374 . S
Eu291 O306 2.473 . S
Eu291 O307 2.480 . S
Eu291 O308 2.430 . S
Eu291 O309 2.670 . S
Eu291 O310 2.394 . S
C292 C290 1.500 . S
C292 C293 1.377 . S
C292 C297 1.377 . S
C293 C292 1.377 . S
C293 C294 1.395 . S
C293 H316 0.931 . S
C294 C293 1.395 . S
C294 C295 1.383 . S
C294 H317 0.931 . S
C295 C294 1.383 . S
C295 C296 1.394 . S
C296 C295 1.394 . S
C296 C297 1.378 . S
C296 H318 0.931 . S
C297 C292 1.377 . S
C297 C296 1.378 . S
C297 H319 0.931 . S
C298 O308 1.259 . S
C298 O309 1.270 . S
C299 O310 1.251 . S
C299 O311 1.251 . S
O300 C280 1.257 . S
O300 Eu281 2.473 . S
O301 C280 1.260 . S
O301 Eu281 2.480 . S
O302 Eu281 2.430 . S
O302 C288 1.259 . S
O303 Eu281 2.670 . S
O303 C288 1.270 . S
O303 Eu291 2.355 . S
O304 Eu281 2.394 . S
O304 C289 1.251 . S
O305 C289 1.251 . S
O305 Eu291 2.374 . S
O306 C290 1.257 . S
O306 Eu291 2.473 . S
O307 C290 1.260 . S
O307 Eu291 2.480 . S
O308 Eu291 2.430 . S
O308 C298 1.259 . S
O309 Eu281 2.355 . S
O309 Eu291 2.670 . S
O309 C298 1.270 . S
O310 Eu291 2.394 . S
O310 C299 1.251 . S
O311 Eu281 2.374 . S
O311 C299 1.251 . S
H312 C283 0.931 . S
H313 C284 0.931 . S
H314 C286 0.931 . S
H315 C287 0.931 . S
H316 C293 0.931 . S
H317 C294 0.931 . S
H318 C296 0.931 . S
H319 C297 0.931 . S
C320 O332 1.241 . S
C320 O333 1.280 . S
C321 O334 1.277 . S
C321 O335 1.245 . S
C322 O346 1.247 . S
C322 O348 1.289 . S
Mg323 O324 1.926 1_455 S
Mg323 O333 1.984 1_455 S
Mg323 O335 1.988 1_455 S
Mg323 O336 2.061 . S
O324 Mg323 1.926 1_655 S
O324 Mg325 1.986 . S
O324 Mg326 1.917 1_655 S
Mg325 O324 1.986 . S
Mg325 O332 2.042 . S
Mg325 O334 2.041 . S
Mg325 O340 2.038 1_545 S
Mg325 O348 2.238 1_545 S
Mg326 O324 1.917 1_455 S
Mg326 O327 1.917 1_545 S
Mg326 O337 2.106 . S
Mg326 O339 2.087 1_545 S
Mg326 O348 2.106 1_445 S
Mg326 O349 2.079 . S
O327 Mg326 1.917 1_565 S
O327 Mg328 1.926 . S
O327 Mg329 1.986 1_565 S
Mg328 O327 1.926 . S
Mg328 O342 1.984 . S
Mg328 O345 1.988 . S
Mg328 O346 2.061 1_455 S
Mg329 O327 1.986 1_545 S
Mg329 O337 2.238 . S
Mg329 O341 2.042 1_545 S
Mg329 O343 2.041 1_545 S
Mg329 O350 2.038 . S
C330 O336 1.247 . S
C330 O337 1.289 . S
C331 O349 1.245 . S
C331 O350 1.274 . S
O332 C320 1.241 . S
O332 Mg325 2.042 . S
O333 C320 1.280 . S
O333 Mg323 1.984 1_655 S
O334 C321 1.277 . S
O334 Mg325 2.041 . S
O335 C321 1.245 . S
O335 Mg323 1.988 1_655 S
O336 Mg323 2.061 . S
O336 C330 1.247 . S
O337 Mg326 2.106 . S
O337 Mg329 2.238 . S
O337 C330 1.289 . S
C338 O339 1.217 1_655 S
C338 O340 1.274 . S
O339 Mg326 2.087 1_565 S
O339 C338 1.217 1_455 S
O340 Mg325 2.038 1_565 S
O340 C338 1.274 . S
O341 Mg329 2.042 1_565 S
O341 C344 1.241 . S
O342 Mg328 1.984 . S
O342 C344 1.280 . S
O343 Mg329 2.041 1_565 S
O343 C347 1.277 . S
C344 O341 1.241 . S
C344 O342 1.280 . S
O345 Mg328 1.988 . S
O345 C347 1.245 . S
O346 C322 1.247 . S
O346 Mg328 2.061 1_655 S
C347 O343 1.277 . S
C347 O345 1.245 . S
O348 C322 1.289 . S
O348 Mg325 2.238 1_565 S
O348 Mg326 2.106 1_665 S
O349 Mg326 2.079 . S
O349 C331 1.245 . S
O350 Mg329 2.038 . S
O350 C331 1.274 . S
C351 O363 1.241 . S
C351 O364 1.280 . S
C352 O365 1.277 . S
C352 O366 1.245 . S
C353 O377 1.247 . S
C353 O379 1.289 1_565 S
Mg354 O355 1.926 . S
Mg354 O364 1.984 . S
Mg354 O366 1.988 1_554 S
Mg354 O367 2.061 . S
O355 Mg354 1.926 . S
O355 Mg356 1.986 1_554 S
O355 Mg357 1.918 . S
Mg356 O355 1.986 1_556 S
Mg356 O363 2.042 1_556 S
Mg356 O365 2.041 . S
Mg356 O371 2.038 1_556 S
Mg356 O379 2.238 . S
Mg357 O355 1.918 . S
Mg357 O358 1.916 1_554 S
Mg357 O368 2.107 . S
Mg357 O370 2.081 . S
Mg357 O379 2.105 1_554 S
Mg357 O380 2.077 1_554 S
O358 Mg357 1.916 1_556 S
O358 Mg359 1.926 1_545 S
O358 Mg360 1.986 1_556 S
Mg359 O358 1.926 1_565 S
Mg359 O373 1.984 . S
Mg359 O376 1.988 1_556 S
Mg359 O377 2.061 . S
Mg360 O358 1.986 1_554 S
Mg360 O368 2.238 . S
Mg360 O372 2.042 1_554 S
Mg360 O374 2.041 1_545 S
Mg360 O381 2.038 1_554 S
C361 O367 1.247 . S
C361 O368 1.289 . S
C362 O380 1.245 . S
C362 O381 1.274 . S
O363 C351 1.241 . S
O363 Mg356 2.042 1_554 S
O364 C351 1.280 . S
O364 Mg354 1.984 . S
O365 C352 1.277 . S
O365 Mg356 2.041 . S
O366 C352 1.245 . S
O366 Mg354 1.988 1_556 S
O367 Mg354 2.061 . S
O367 C361 1.247 . S
O368 Mg357 2.107 . S
O368 Mg360 2.238 . S
O368 C361 1.289 . S
C369 O370 1.245 1_565 S
C369 O371 1.274 1_565 S
O370 Mg357 2.081 . S
O370 C369 1.245 1_545 S
O371 Mg356 2.038 1_554 S
O371 C369 1.274 1_545 S
O372 Mg360 2.042 1_556 S
O372 C375 1.241 1_545 S
O373 Mg359 1.984 . S
O373 C375 1.280 . S
O374 Mg360 2.041 1_565 S
O374 C378 1.277 . S
C375 O372 1.241 1_565 S
C375 O373 1.280 . S
O376 Mg359 1.988 1_554 S
O376 C378 1.245 . S
O377 C353 1.247 . S
O377 Mg359 2.061 . S
C378 O374 1.277 . S
C378 O376 1.245 . S
O379 C353 1.289 1_545 S
O379 Mg356 2.238 . S
O379 Mg357 2.105 1_556 S
O380 Mg357 2.077 1_556 S
O380 C362 1.245 . S
O381 Mg360 2.038 1_556 S
O381 C362 1.274 . S
C382 O394 1.241 . S
C382 O395 1.280 . S
C383 O396 1.277 1_556 S
C383 O397 1.245 1_556 S
C384 O408 1.247 1_556 S
C384 O410 1.289 1_556 S
Mg385 O386 1.926 . S
Mg385 O395 1.984 . S
Mg385 O397 1.988 . S
Mg385 O398 2.061 1_655 S
O386 Mg385 1.926 . S
O386 Mg387 1.986 . S
O386 Mg388 1.917 1_655 S
Mg387 O386 1.986 . S
Mg387 O394 2.042 . S
Mg387 O396 2.041 . S
Mg387 O402 2.038 . S
Mg387 O410 2.238 . S
Mg388 O386 1.917 1_455 S
Mg388 O389 1.917 . S
Mg388 O399 2.106 . S
Mg388 O401 2.079 1_455 S
Mg388 O410 2.106 1_455 S
Mg388 O411 2.079 . S
O389 Mg388 1.917 . S
O389 Mg390 1.926 . S
O389 Mg391 1.986 . S
Mg390 O389 1.926 . S
Mg390 O404 1.984 . S
Mg390 O407 1.988 . S
Mg390 O408 2.061 1_455 S
Mg391 O389 1.986 . S
Mg391 O399 2.238 . S
Mg391 O403 2.042 . S
Mg391 O405 2.041 . S
Mg391 O412 2.038 . S
C392 O398 1.247 . S
C392 O399 1.289 . S
C393 O411 1.260 . S
C393 O412 1.285 . S
O394 C382 1.241 . S
O394 Mg387 2.042 . S
O395 C382 1.280 . S
O395 Mg385 1.984 . S
O396 C383 1.277 1_554 S
O396 Mg387 2.041 . S
O397 C383 1.245 1_554 S
O397 Mg385 1.988 . S
O398 Mg385 2.061 1_455 S
O398 C392 1.247 . S
O399 Mg388 2.106 . S
O399 Mg391 2.238 . S
O399 C392 1.289 . S
C400 O401 1.245 . S
C400 O402 1.274 . S
O401 Mg388 2.079 1_655 S
O401 C400 1.245 . S
O402 Mg387 2.038 . S
O402 C400 1.274 . S
O403 Mg391 2.042 . S
O403 C406 1.241 . S
O404 Mg390 1.984 . S
O404 C406 1.280 . S
O405 Mg391 2.041 . S
O405 C409 1.277 . S
C406 O403 1.241 . S
C406 O404 1.280 . S
O407 Mg390 1.988 . S
O407 C409 1.245 . S
O408 C384 1.247 1_554 S
O408 Mg390 2.061 1_655 S
C409 O405 1.277 . S
C409 O407 1.245 . S
O410 C384 1.289 1_554 S
O410 Mg387 2.238 . S
O410 Mg388 2.106 1_655 S
O411 Mg388 2.079 . S
O411 C393 1.260 . S
O412 Mg391 2.038 . S
O412 C393 1.285 . S
C413 O425 1.241 . S
C413 O426 1.280 . S
C414 O427 1.277 . S
C414 O428 1.245 . S
C415 O439 1.247 . S
C415 O441 1.289 . S
Mg416 O417 1.926 . S
Mg416 O426 1.984 . S
Mg416 O428 1.988 1_554 S
Mg416 O429 2.061 . S
O417 Mg416 1.926 . S
O417 Mg418 1.986 . S
O417 Mg419 1.917 . S
Mg418 O417 1.986 . S
Mg418 O425 2.042 . S
Mg418 O427 2.041 1_554 S
Mg418 O433 2.038 . S
Mg418 O441 2.238 1_554 S
Mg419 O417 1.917 . S
Mg419 O420 1.917 . S
Mg419 O430 2.106 . S
Mg419 O432 2.079 . S
Mg419 O441 2.106 1_554 S
Mg419 O442 2.079 1_554 S
O420 Mg419 1.917 . S
O420 Mg421 1.926 . S
O420 Mg422 1.986 . S
Mg421 O420 1.926 . S
Mg421 O435 1.984 1_554 S
Mg421 O438 1.988 . S
Mg421 O439 2.061 1_554 S
Mg422 O420 1.986 . S
Mg422 O430 2.238 . S
Mg422 O434 2.042 . S
Mg422 O436 2.041 . S
Mg422 O443 2.038 1_554 S
C423 O429 1.247 . S
C423 O430 1.289 . S
C424 O442 1.245 . S
C424 O443 1.274 . S
O425 C413 1.241 . S
O425 Mg418 2.042 . S
O426 C413 1.280 . S
O426 Mg416 1.984 . S
O427 C414 1.277 . S
O427 Mg418 2.041 1_556 S
O428 C414 1.245 . S
O428 Mg416 1.988 1_556 S
O429 Mg416 2.061 . S
O429 C423 1.247 . S
O430 Mg419 2.106 . S
O430 Mg422 2.238 . S
O430 C423 1.289 . S
C431 O432 1.245 . S
C431 O433 1.274 . S
O432 Mg419 2.079 . S
O432 C431 1.245 . S
O433 Mg418 2.038 . S
O433 C431 1.274 . S
O434 Mg422 2.042 . S
O434 C437 1.241 1_554 S
O435 Mg421 1.984 1_556 S
O435 C437 1.280 . S
O436 Mg422 2.041 . S
O436 C440 1.277 . S
C437 O434 1.241 1_556 S
C437 O435 1.280 . S
O438 Mg421 1.988 . S
O438 C440 1.245 . S
O439 C415 1.247 . S
O439 Mg421 2.061 1_556 S
C440 O436 1.277 . S
C440 O438 1.245 . S
O441 C415 1.289 . S
O441 Mg418 2.238 1_556 S
O441 Mg419 2.106 1_556 S
O442 Mg419 2.079 1_556 S
O442 C424 1.245 . S
O443 Mg422 2.038 1_556 S
O443 C424 1.274 . S
C444 O456 1.241 . S
C444 O457 1.280 . S
C445 O458 1.277 . S
C445 O459 1.245 1_655 S
C446 O470 1.222 1_655 S
C446 O472 1.289 . S
Mg447 O448 1.926 . S
Mg447 O457 1.984 1_455 S
Mg447 O459 1.988 . S
Mg447 O460 2.061 . S
O448 Mg447 1.926 . S
O448 Mg449 1.986 1_455 S
O448 Mg450 1.917 . S
Mg449 O448 1.986 1_655 S
Mg449 O456 2.042 . S
Mg449 O458 2.041 . S
Mg449 O464 2.038 . S
Mg449 O472 2.238 . S
Mg450 O448 1.917 . S
Mg450 O451 1.917 . S
Mg450 O461 2.106 . S
Mg450 O463 2.079 . S
Mg450 O472 2.106 1_455 S
Mg450 O473 2.079 . S
O451 Mg450 1.917 . S
O451 Mg452 1.926 . S
O451 Mg453 1.986 . S
Mg452 O451 1.926 . S
Mg452 O466 1.984 . S
Mg452 O469 1.988 . S
Mg452 O470 2.093 . S
Mg453 O451 1.986 . S
Mg453 O461 2.238 . S
Mg453 O465 2.042 . S
Mg453 O467 2.041 . S
Mg453 O474 2.038 . S
C454 O460 1.247 . S
C454 O461 1.289 . S
C455 O473 1.245 . S
C455 O474 1.274 . S
O456 C444 1.241 . S
O456 Mg449 2.042 . S
O457 C444 1.280 . S
O457 Mg447 1.984 1_655 S
O458 C445 1.277 . S
O458 Mg449 2.041 . S
O459 C445 1.245 1_455 S
O459 Mg447 1.988 . S
O460 Mg447 2.061 . S
O460 C454 1.247 . S
O461 Mg450 2.106 . S
O461 Mg453 2.238 . S
O461 C454 1.289 . S
C462 O463 1.245 1_655 S
C462 O464 1.274 . S
O463 Mg450 2.079 . S
O463 C462 1.245 1_455 S
O464 Mg449 2.038 . S
O464 C462 1.274 . S
O465 Mg453 2.042 . S
O465 C468 1.241 . S
O466 Mg452 1.984 . S
O466 C468 1.280 . S
O467 Mg453 2.041 . S
O467 C471 1.277 . S
C468 O465 1.241 . S
C468 O466 1.280 . S
O469 Mg452 1.988 . S
O469 C471 1.245 . S
O470 C446 1.222 1_455 S
O470 Mg452 2.093 . S
C471 O467 1.277 . S
C471 O469 1.245 . S
O472 C446 1.289 . S
O472 Mg449 2.238 . S
O472 Mg450 2.106 1_655 S
O473 Mg450 2.079 . S
O473 C455 1.245 . S
O474 Mg453 2.038 . S
O474 C455 1.274 . S
C475 O487 1.241 . S
C475 O488 1.280 . S
C476 O489 1.277 . S
C476 O490 1.245 . S
C477 O501 1.247 . S
C477 O503 1.289 . S
Mg478 O479 1.926 . S
Mg478 O488 1.984 . S
Mg478 O490 1.988 . S
Mg478 O491 2.061 . S
O479 Mg478 1.926 . S
O479 Mg480 1.986 . S
O479 Mg481 1.945 . S
Mg480 O479 1.986 . S
Mg480 O487 2.042 . S
Mg480 O489 2.041 . S
Mg480 O495 2.038 1_545 S
Mg480 O503 2.238 1_545 S
Mg481 O479 1.945 . S
Mg481 O482 1.889 1_545 S
Mg481 O492 2.114 . S
Mg481 O494 2.062 1_545 S
Mg481 O503 2.100 1_545 S
Mg481 O504 2.096 . S
O482 Mg481 1.889 1_565 S
O482 Mg483 1.926 . S
O482 Mg484 1.994 . S
Mg483 O482 1.926 . S
Mg483 O497 1.984 . S
Mg483 O500 1.988 . S
Mg483 O501 2.061 . S
Mg484 O482 1.994 . S
Mg484 O492 2.217 1_565 S
Mg484 O496 2.063 . S
Mg484 O498 2.061 . S
Mg484 O505 2.018 1_565 S
C485 O491 1.247 . S
C485 O492 1.289 . S
C486 O504 1.245 . S
C486 O505 1.274 . S
O487 C475 1.241 . S
O487 Mg480 2.042 . S
O488 C475 1.280 . S
O488 Mg478 1.984 . S
O489 C476 1.277 . S
O489 Mg480 2.041 . S
O490 C476 1.245 . S
O490 Mg478 1.988 . S
O491 Mg478 2.061 . S
O491 C485 1.247 . S
O492 Mg481 2.114 . S
O492 Mg484 2.217 1_545 S
O492 C485 1.289 . S
C493 O494 1.245 . S
C493 O495 1.274 . S
O494 Mg481 2.062 1_565 S
O494 C493 1.245 . S
O495 Mg480 2.038 1_565 S
O495 C493 1.274 . S
O496 Mg484 2.063 . S
O496 C499 1.241 . S
O497 Mg483 1.984 . S
O497 C499 1.280 . S
O498 Mg484 2.061 . S
O498 C502 1.277 . S
C499 O496 1.241 . S
C499 O497 1.280 . S
O500 Mg483 1.988 . S
O500 C502 1.245 . S
O501 C477 1.247 . S
O501 Mg483 2.061 . S
C502 O498 1.277 . S
C502 O500 1.245 . S
O503 C477 1.289 . S
O503 Mg480 2.238 1_565 S
O503 Mg481 2.100 1_565 S
O504 Mg481 2.096 . S
O504 C486 1.245 . S
O505 Mg484 2.018 1_545 S
O505 C486 1.274 . S
H506 C514 0.929 . S
H507 C516 0.930 . S
H508 C518 0.930 . S
H509 C521 0.929 . S
H510 C524 0.930 . S
H511 C526 0.960 . S
H512 C526 0.960 . S
H513 C526 0.960 . S
C514 H506 0.929 . S
C514 C515 1.377 . S
C514 C516 1.384 . S
C515 C514 1.377 . S
C515 C521 1.390 . S
C516 H507 0.930 . S
C516 C514 1.384 . S
C516 C517 1.372 . S
C517 C516 1.372 . S
C517 C518 1.400 . S
C517 C522 1.490 . S
C518 H508 0.930 . S
C518 C517 1.400 . S
C518 C521 1.386 . S
H519 C535 0.930 . S
H520 C536 0.931 . S
C521 H509 0.929 . S
C521 C515 1.390 . S
C521 C518 1.386 . S
C522 C517 1.490 . S
C522 C524 1.395 . S
C522 C525 1.403 . S
H523 C529 0.930 . S
C524 H510 0.930 . S
C524 C522 1.395 . S
C524 C527 1.403 . S
C525 C522 1.403 . S
C525 C526 1.524 . S
C525 C529 1.400 . S
C526 H511 0.960 . S
C526 H512 0.960 . S
C526 H513 0.960 . S
C526 C525 1.524 . S
C527 C524 1.403 . S
C527 C528 1.392 . S
C527 C531 1.495 . S
C528 C527 1.392 . S
C528 C529 1.385 . S
C528 C530 1.478 . S
C529 H523 0.930 . S
C529 C525 1.400 . S
C529 C528 1.385 . S
C530 C528 1.478 . S
C530 C532 1.381 . S
C530 C536 1.383 . S
C531 C527 1.495 . S
C531 H537 0.959 . S
C531 H538 0.961 . S
C531 H539 0.960 . S
C532 C530 1.381 . S
C532 C533 1.394 . S
C532 H540 0.930 . S
C533 C532 1.394 . S
C533 C534 1.383 . S
C533 H541 0.929 . S
C534 C533 1.383 . S
C534 C535 1.377 . S
C535 H519 0.930 . S
C535 C534 1.377 . S
C535 C536 1.379 . S
C536 H520 0.931 . S
C536 C530 1.383 . S
C536 C535 1.379 . S
H537 C531 0.959 . S
H538 C531 0.961 . S
H539 C531 0.960 . S
H540 C532 0.930 . S
H541 C533 0.929 . S
H542 C550 0.929 . S
H543 C552 0.930 . S
H544 C554 0.930 . S
H545 C557 0.929 . S
H546 C560 0.930 . S
H547 C562 0.960 . S
H548 C562 0.960 . S
H549 C562 0.960 . S
C550 H542 0.929 . S
C550 C551 1.377 . S
C550 C552 1.384 . S
C551 C550 1.377 . S
C551 C557 1.390 . S
C552 H543 0.930 . S
C552 C550 1.384 . S
C552 C553 1.372 . S
C553 C552 1.372 . S
C553 C554 1.400 . S
C553 C558 1.490 . S
C554 H544 0.930 . S
C554 C553 1.400 . S
C554 C557 1.386 . S
H555 C571 0.930 . S
H556 C572 0.931 . S
C557 H545 0.929 . S
C557 C551 1.390 . S
C557 C554 1.386 . S
C558 C553 1.490 . S
C558 C560 1.395 . S
C558 C561 1.403 . S
H559 C565 0.930 . S
C560 H546 0.930 . S
C560 C558 1.395 . S
C560 C563 1.403 . S
C561 C558 1.403 . S
C561 C562 1.524 . S
C561 C565 1.400 . S
C562 H547 0.960 . S
C562 H548 0.960 . S
C562 H549 0.960 . S
C562 C561 1.524 . S
C563 C560 1.403 . S
C563 C564 1.392 . S
C563 C567 1.495 . S
C564 C563 1.392 . S
C564 C565 1.385 . S
C564 C566 1.478 . S
C565 H559 0.930 . S
C565 C561 1.400 . S
C565 C564 1.385 . S
C566 C564 1.478 . S
C566 C568 1.381 . S
C566 C572 1.383 . S
C567 C563 1.495 . S
C567 H573 0.959 . S
C567 H574 0.961 . S
C567 H575 0.960 . S
C568 C566 1.381 . S
C568 C569 1.394 . S
C568 H576 0.930 . S
C569 C568 1.394 . S
C569 C570 1.383 . S
C569 H577 0.929 . S
C570 C569 1.383 . S
C570 C571 1.377 . S
C571 H555 0.930 . S
C571 C570 1.377 . S
C571 C572 1.379 . S
C572 H556 0.931 . S
C572 C566 1.383 . S
C572 C571 1.379 . S
H573 C567 0.959 . S
H574 C567 0.961 . S
H575 C567 0.960 . S
H576 C568 0.930 . S
H577 C569 0.929 . S
H578 C586 0.929 . S
H579 C588 0.930 . S
H580 C590 0.930 . S
H581 C593 0.929 . S
H582 C596 0.930 . S
H583 C598 0.960 . S
H584 C598 0.960 . S
H585 C598 0.960 . S
C586 H578 0.929 . S
C586 C587 1.377 . S
C586 C588 1.384 . S
C587 C586 1.377 . S
C587 C593 1.390 . S
C588 H579 0.930 . S
C588 C586 1.384 . S
C588 C589 1.372 . S
C589 C588 1.372 . S
C589 C590 1.400 . S
C589 C594 1.490 . S
C590 H580 0.930 . S
C590 C589 1.400 . S
C590 C593 1.386 . S
H591 C607 0.930 . S
H592 C608 0.931 . S
C593 H581 0.929 . S
C593 C587 1.390 . S
C593 C590 1.386 . S
C594 C589 1.490 . S
C594 C596 1.395 . S
C594 C597 1.403 . S
H595 C601 0.930 . S
C596 H582 0.930 . S
C596 C594 1.395 . S
C596 C599 1.403 . S
C597 C594 1.403 . S
C597 C598 1.524 . S
C597 C601 1.400 . S
C598 H583 0.960 . S
C598 H584 0.960 . S
C598 H585 0.960 . S
C598 C597 1.524 . S
C599 C596 1.403 . S
C599 C600 1.392 . S
C599 C603 1.495 . S
C600 C599 1.392 . S
C600 C601 1.385 . S
C600 C602 1.478 . S
C601 H595 0.930 . S
C601 C597 1.400 . S
C601 C600 1.385 . S
C602 C600 1.478 . S
C602 C604 1.381 . S
C602 C608 1.383 . S
C603 C599 1.495 . S
C603 H609 0.959 . S
C603 H610 0.961 . S
C603 H611 0.960 . S
C604 C602 1.381 . S
C604 C605 1.394 . S
C604 H612 0.930 . S
C605 C604 1.394 . S
C605 C606 1.383 . S
C605 H613 0.929 . S
C606 C605 1.383 . S
C606 C607 1.377 . S
C607 H591 0.930 . S
C607 C606 1.377 . S
C607 C608 1.379 . S
C608 H592 0.931 . S
C608 C602 1.383 . S
C608 C607 1.379 . S
H609 C603 0.959 . S
H610 C603 0.961 . S
H611 C603 0.960 . S
H612 C604 0.930 . S
H613 C605 0.929 . S
H614 C622 0.929 . S
H615 C624 0.930 . S
H616 C626 0.930 . S
H617 C629 0.929 . S
H618 C632 0.930 . S
H619 C634 0.960 . S
H620 C634 0.960 . S
H621 C634 0.960 . S
C622 H614 0.929 . S
C622 C623 1.377 . S
C622 C624 1.384 . S
C623 C622 1.377 . S
C623 C629 1.390 . S
C624 H615 0.930 . S
C624 C622 1.384 . S
C624 C625 1.372 . S
C625 C624 1.372 . S
C625 C626 1.400 . S
C625 C630 1.490 . S
C626 H616 0.930 . S
C626 C625 1.400 . S
C626 C629 1.386 . S
H627 C643 0.930 . S
H628 C644 0.931 . S
C629 H617 0.929 . S
C629 C623 1.390 . S
C629 C626 1.386 . S
C630 C625 1.490 . S
C630 C632 1.395 . S
C630 C633 1.403 . S
H631 C637 0.930 . S
C632 H618 0.930 . S
C632 C630 1.395 . S
C632 C635 1.403 . S
C633 C630 1.403 . S
C633 C634 1.524 . S
C633 C637 1.400 . S
C634 H619 0.960 . S
C634 H620 0.960 . S
C634 H621 0.960 . S
C634 C633 1.524 . S
C635 C632 1.403 . S
C635 C636 1.392 . S
C635 C639 1.495 . S
C636 C635 1.392 . S
C636 C637 1.385 . S
C636 C638 1.478 . S
C637 H631 0.930 . S
C637 C633 1.400 . S
C637 C636 1.385 . S
C638 C636 1.478 . S
C638 C640 1.381 . S
C638 C644 1.383 . S
C639 C635 1.495 . S
C639 H645 0.959 . S
C639 H646 0.961 . S
C639 H647 0.960 . S
C640 C638 1.381 . S
C640 C641 1.394 . S
C640 H648 0.930 . S
C641 C640 1.394 . S
C641 C642 1.383 . S
C641 H649 0.929 . S
C642 C641 1.383 . S
C642 C643 1.377 . S
C643 H627 0.930 . S
C643 C642 1.377 . S
C643 C644 1.379 . S
C644 H628 0.931 . S
C644 C638 1.383 . S
C644 C643 1.379 . S
H645 C639 0.959 . S
H646 C639 0.961 . S
H647 C639 0.960 . S
H648 C640 0.930 . S
H649 C641 0.929 . S
H650 C658 0.929 . S
H651 C660 0.930 . S
H652 C662 0.930 . S
H653 C665 0.929 . S
H654 C668 0.930 . S
H655 C670 0.960 . S
H656 C670 0.960 . S
H657 C670 0.960 . S
C658 H650 0.929 . S
C658 C659 1.377 . S
C658 C660 1.384 . S
C659 C658 1.377 . S
C659 C665 1.390 . S
C660 H651 0.930 . S
C660 C658 1.384 . S
C660 C661 1.372 . S
C661 C660 1.372 . S
C661 C662 1.400 . S
C661 C666 1.490 . S
C662 H652 0.930 . S
C662 C661 1.400 . S
C662 C665 1.386 . S
H663 C679 0.930 . S
H664 C680 0.931 . S
C665 H653 0.929 . S
C665 C659 1.390 . S
C665 C662 1.386 . S
C666 C661 1.490 . S
C666 C668 1.395 . S
C666 C669 1.403 . S
H667 C673 0.930 . S
C668 H654 0.930 . S
C668 C666 1.395 . S
C668 C671 1.403 . S
C669 C666 1.403 . S
C669 C670 1.524 . S
C669 C673 1.400 . S
C670 H655 0.960 . S
C670 H656 0.960 . S
C670 H657 0.960 . S
C670 C669 1.524 . S
C671 C668 1.403 . S
C671 C672 1.392 . S
C671 C675 1.495 . S
C672 C671 1.392 . S
C672 C673 1.385 . S
C672 C674 1.478 . S
C673 H667 0.930 . S
C673 C669 1.400 . S
C673 C672 1.385 . S
C674 C672 1.478 . S
C674 C676 1.381 . S
C674 C680 1.383 . S
C675 C671 1.495 . S
C675 H681 0.959 . S
C675 H682 0.961 . S
C675 H683 0.960 . S
C676 C674 1.381 . S
C676 C677 1.394 . S
C676 H684 0.930 . S
C677 C676 1.394 . S
C677 C678 1.383 . S
C677 H685 0.929 . S
C678 C677 1.383 . S
C678 C679 1.377 . S
C679 H663 0.930 . S
C679 C678 1.377 . S
C679 C680 1.379 . S
C680 H664 0.931 . S
C680 C674 1.383 . S
C680 C679 1.379 . S
H681 C675 0.959 . S
H682 C675 0.961 . S
H683 C675 0.960 . S
H684 C676 0.930 . S
H685 C677 0.929 . S
H686 C694 0.929 . S
H687 C696 0.930 . S
H688 C698 0.930 . S
H689 C701 0.929 . S
H690 C704 0.930 . S
H691 C706 0.960 . S
H692 C706 0.960 . S
H693 C706 0.960 . S
C694 H686 0.929 . S
C694 C695 1.377 . S
C694 C696 1.384 . S
C695 C694 1.377 . S
C695 C701 1.390 . S
C696 H687 0.930 . S
C696 C694 1.384 . S
C696 C697 1.372 . S
C697 C696 1.372 . S
C697 C698 1.400 . S
C697 C702 1.490 . S
C698 H688 0.930 . S
C698 C697 1.400 . S
C698 C701 1.386 . S
H699 C715 0.930 . S
H700 C716 0.931 . S
C701 H689 0.929 . S
C701 C695 1.390 . S
C701 C698 1.386 . S
C702 C697 1.490 . S
C702 C704 1.395 . S
C702 C705 1.403 . S
H703 C709 0.930 . S
C704 H690 0.930 . S
C704 C702 1.395 . S
C704 C707 1.403 . S
C705 C702 1.403 . S
C705 C706 1.524 . S
C705 C709 1.400 . S
C706 H691 0.960 . S
C706 H692 0.960 . S
C706 H693 0.960 . S
C706 C705 1.524 . S
C707 C704 1.403 . S
C707 C708 1.392 . S
C707 C711 1.495 . S
C708 C707 1.392 . S
C708 C709 1.385 . S
C708 C710 1.478 . S
C709 H703 0.930 . S
C709 C705 1.400 . S
C709 C708 1.385 . S
C710 C708 1.478 . S
C710 C712 1.381 . S
C710 C716 1.383 . S
C711 C707 1.495 . S
C711 H717 0.959 . S
C711 H718 0.961 . S
C711 H719 0.960 . S
C712 C710 1.381 . S
C712 C713 1.394 . S
C712 H720 0.930 . S
C713 C712 1.394 . S
C713 C714 1.383 . S
C713 H721 0.929 . S
C714 C713 1.383 . S
C714 C715 1.377 . S
C715 H699 0.930 . S
C715 C714 1.377 . S
C715 C716 1.379 . S
C716 H700 0.931 . S
C716 C710 1.383 . S
C716 C715 1.379 . S
H717 C711 0.959 . S
H718 C711 0.961 . S
H719 C711 0.960 . S
H720 C712 0.930 . S
H721 C713 0.929 . S
H722 C730 0.929 . S
H723 C732 0.930 . S
H724 C734 0.930 . S
H725 C737 0.929 . S
H726 C740 0.930 . S
H727 C742 0.960 . S
H728 C742 0.960 . S
H729 C742 0.960 . S
C730 H722 0.929 . S
C730 C731 1.377 . S
C730 C732 1.384 . S
C731 C730 1.377 . S
C731 C737 1.390 . S
C732 H723 0.930 . S
C732 C730 1.384 . S
C732 C733 1.372 . S
C733 C732 1.372 . S
C733 C734 1.400 . S
C733 C738 1.490 . S
C734 H724 0.930 . S
C734 C733 1.400 . S
C734 C737 1.386 . S
H735 C751 0.930 . S
H736 C752 0.931 . S
C737 H725 0.929 . S
C737 C731 1.390 . S
C737 C734 1.386 . S
C738 C733 1.490 . S
C738 C740 1.395 . S
C738 C741 1.403 . S
H739 C745 0.930 . S
C740 H726 0.930 . S
C740 C738 1.395 . S
C740 C743 1.403 . S
C741 C738 1.403 . S
C741 C742 1.524 . S
C741 C745 1.400 . S
C742 H727 0.960 . S
C742 H728 0.960 . S
C742 H729 0.960 . S
C742 C741 1.524 . S
C743 C740 1.403 . S
C743 C744 1.392 . S
C743 C747 1.495 . S
C744 C743 1.392 . S
C744 C745 1.385 . S
C744 C746 1.478 . S
C745 H739 0.930 . S
C745 C741 1.400 . S
C745 C744 1.385 . S
C746 C744 1.478 . S
C746 C748 1.381 . S
C746 C752 1.383 . S
C747 C743 1.495 . S
C747 H753 0.959 . S
C747 H754 0.961 . S
C747 H755 0.960 . S
C748 C746 1.381 . S
C748 C749 1.394 . S
C748 H756 0.930 . S
C749 C748 1.394 . S
C749 C750 1.383 . S
C749 H757 0.929 . S
C750 C749 1.383 . S
C750 C751 1.377 . S
C751 H735 0.930 . S
C751 C750 1.377 . S
C751 C752 1.379 . S
C752 H736 0.931 . S
C752 C746 1.383 . S
C752 C751 1.379 . S
H753 C747 0.959 . S
H754 C747 0.961 . S
H755 C747 0.960 . S
H756 C748 0.930 . S
H757 C749 0.929 . S
H758 C766 0.929 . S
H759 C768 0.930 . S
H760 C770 0.930 . S
H761 C773 0.929 . S
H762 C776 0.930 . S
H763 C778 0.960 . S
H764 C778 0.960 . S
H765 C778 0.960 . S
C766 H758 0.929 . S
C766 C767 1.377 . S
C766 C768 1.384 . S
C767 C766 1.377 . S
C767 C773 1.390 . S
C768 H759 0.930 . S
C768 C766 1.384 . S
C768 C769 1.372 . S
C769 C768 1.372 . S
C769 C770 1.400 . S
C769 C774 1.490 . S
C770 H760 0.930 . S
C770 C769 1.400 . S
C770 C773 1.386 . S
H771 C787 0.930 . S
H772 C788 0.931 . S
C773 H761 0.929 . S
C773 C767 1.390 . S
C773 C770 1.386 . S
C774 C769 1.490 . S
C774 C776 1.395 . S
C774 C777 1.403 . S
H775 C781 0.930 . S
C776 H762 0.930 . S
C776 C774 1.395 . S
C776 C779 1.403 . S
C777 C774 1.403 . S
C777 C778 1.524 . S
C777 C781 1.400 . S
C778 H763 0.960 . S
C778 H764 0.960 . S
C778 H765 0.960 . S
C778 C777 1.524 . S
C779 C776 1.403 . S
C779 C780 1.392 . S
C779 C783 1.495 . S
C780 C779 1.392 . S
C780 C781 1.385 . S
C780 C782 1.478 . S
C781 H775 0.930 . S
C781 C777 1.400 . S
C781 C780 1.385 . S
C782 C780 1.478 . S
C782 C784 1.381 . S
C782 C788 1.383 . S
C783 C779 1.495 . S
C783 H789 0.959 . S
C783 H790 0.961 . S
C783 H791 0.960 . S
C784 C782 1.381 . S
C784 C785 1.394 . S
C784 H792 0.930 . S
C785 C784 1.394 . S
C785 C786 1.383 . S
C785 H793 0.929 . S
C786 C785 1.383 . S
C786 C787 1.377 . S
C787 H771 0.930 . S
C787 C786 1.377 . S
C787 C788 1.379 . S
C788 H772 0.931 . S
C788 C782 1.383 . S
C788 C787 1.379 . S
H789 C783 0.959 . S
H790 C783 0.961 . S
H791 C783 0.960 . S
H792 C784 0.930 . S
H793 C785 0.929 . S
H794 C802 0.929 . S
H795 C804 0.930 . S
H796 C806 0.930 . S
H797 C809 0.929 . S
H798 C812 0.930 . S
H799 C814 0.960 . S
H800 C814 0.960 . S
H801 C814 0.960 . S
C802 H794 0.929 . S
C802 C803 1.377 . S
C802 C804 1.384 . S
C803 C802 1.377 . S
C803 C809 1.390 . S
C804 H795 0.930 . S
C804 C802 1.384 . S
C804 C805 1.372 . S
C805 C804 1.372 . S
C805 C806 1.400 . S
C805 C810 1.490 . S
C806 H796 0.930 . S
C806 C805 1.400 . S
C806 C809 1.386 . S
H807 C823 0.930 . S
H808 C824 0.931 . S
C809 H797 0.929 . S
C809 C803 1.390 . S
C809 C806 1.386 . S
C810 C805 1.490 . S
C810 C812 1.395 . S
C810 C813 1.403 . S
H811 C817 0.930 . S
C812 H798 0.930 . S
C812 C810 1.395 . S
C812 C815 1.403 . S
C813 C810 1.403 . S
C813 C814 1.524 . S
C813 C817 1.400 . S
C814 H799 0.960 . S
C814 H800 0.960 . S
C814 H801 0.960 . S
C814 C813 1.524 . S
C815 C812 1.403 . S
C815 C816 1.392 . S
C815 C819 1.495 . S
C816 C815 1.392 . S
C816 C817 1.385 . S
C816 C818 1.478 . S
C817 H811 0.930 . S
C817 C813 1.400 . S
C817 C816 1.385 . S
C818 C816 1.478 . S
C818 C820 1.381 . S
C818 C824 1.383 . S
C819 C815 1.495 . S
C819 H825 0.959 . S
C819 H826 0.961 . S
C819 H827 0.960 . S
C820 C818 1.381 . S
C820 C821 1.394 . S
C820 H828 0.930 . S
C821 C820 1.394 . S
C821 C822 1.383 . S
C821 H829 0.929 . S
C822 C821 1.383 . S
C822 C823 1.377 . S
C823 H807 0.930 . S
C823 C822 1.377 . S
C823 C824 1.379 . S
C824 H808 0.931 . S
C824 C818 1.383 . S
C824 C823 1.379 . S
H825 C819 0.959 . S
H826 C819 0.961 . S
H827 C819 0.960 . S
H828 C820 0.930 . S
H829 C821 0.929 . S
H830 C838 0.929 . S
H831 C840 0.930 . S
H832 C842 0.930 . S
H833 C845 0.929 . S
H834 C848 0.930 . S
H835 C850 0.960 . S
H836 C850 0.960 . S
H837 C850 0.960 . S
C838 H830 0.929 . S
C838 C839 1.377 . S
C838 C840 1.384 . S
C839 C838 1.377 . S
C839 C845 1.390 . S
C840 H831 0.930 . S
C840 C838 1.384 . S
C840 C841 1.372 . S
C841 C840 1.372 . S
C841 C842 1.400 . S
C841 C846 1.490 . S
C842 H832 0.930 . S
C842 C841 1.400 . S
C842 C845 1.386 . S
H843 C859 0.930 1_455 S
H844 C860 0.931 . S
C845 H833 0.929 . S
C845 C839 1.390 . S
C845 C842 1.386 . S
C846 C841 1.490 . S
C846 C848 1.395 . S
C846 C849 1.403 . S
H847 C853 0.930 . S
C848 H834 0.930 . S
C848 C846 1.395 . S
C848 C851 1.403 . S
C849 C846 1.403 . S
C849 C850 1.524 . S
C849 C853 1.400 . S
C850 H835 0.960 . S
C850 H836 0.960 . S
C850 H837 0.960 . S
C850 C849 1.524 . S
C851 C848 1.403 . S
C851 C852 1.392 . S
C851 C855 1.495 . S
C852 C851 1.392 . S
C852 C853 1.385 . S
C852 C854 1.478 . S
C853 H847 0.930 . S
C853 C849 1.400 . S
C853 C852 1.385 . S
C854 C852 1.478 . S
C854 C856 1.381 . S
C854 C860 1.383 . S
C855 C851 1.495 . S
C855 H861 0.959 . S
C855 H862 0.961 . S
C855 H863 0.960 . S
C856 C854 1.381 . S
C856 C857 1.394 . S
C856 H864 0.930 . S
C857 C856 1.394 . S
C857 C858 1.383 . S
C857 H865 0.929 . S
C858 C857 1.383 . S
C858 C859 1.377 . S
C859 H843 0.930 1_655 S
C859 C858 1.377 . S
C859 C860 1.379 . S
C860 H844 0.931 . S
C860 C854 1.383 . S
C860 C859 1.379 . S
H861 C855 0.959 . S
H862 C855 0.961 . S
H863 C855 0.960 . S
H864 C856 0.930 . S
H865 C857 0.929 . S
H866 C874 0.929 . S
H867 C876 0.930 . S
H868 C878 0.930 . S
H869 C881 0.929 . S
H870 C884 0.930 . S
H871 C886 0.960 . S
H872 C886 0.960 . S
H873 C886 0.960 . S
C874 H866 0.929 . S
C874 C875 1.377 . S
C874 C876 1.384 . S
C875 C874 1.377 . S
C875 C881 1.390 . S
C876 H867 0.930 . S
C876 C874 1.384 . S
C876 C877 1.372 . S
C877 C876 1.372 . S
C877 C878 1.400 . S
C877 C882 1.490 . S
C878 H868 0.930 . S
C878 C877 1.400 . S
C878 C881 1.386 . S
H879 C895 0.930 . S
H880 C896 0.931 . S
C881 H869 0.929 . S
C881 C875 1.390 . S
C881 C878 1.386 . S
C882 C877 1.490 . S
C882 C884 1.395 . S
C882 C885 1.403 . S
H883 C889 0.930 . S
C884 H870 0.930 . S
C884 C882 1.395 . S
C884 C887 1.403 . S
C885 C882 1.403 . S
C885 C886 1.524 . S
C885 C889 1.400 . S
C886 H871 0.960 . S
C886 H872 0.960 . S
C886 H873 0.960 . S
C886 C885 1.524 . S
C887 C884 1.403 . S
C887 C888 1.392 . S
C887 C891 1.495 . S
C888 C887 1.392 . S
C888 C889 1.385 . S
C888 C890 1.478 . S
C889 H883 0.930 . S
C889 C885 1.400 . S
C889 C888 1.385 . S
C890 C888 1.478 . S
C890 C892 1.381 . S
C890 C896 1.383 . S
C891 C887 1.495 . S
C891 H897 0.959 . S
C891 H898 0.961 . S
C891 H899 0.960 . S
C892 C890 1.381 . S
C892 C893 1.394 . S
C892 H900 0.930 . S
C893 C892 1.394 . S
C893 C894 1.383 . S
C893 H901 0.929 . S
C894 C893 1.383 . S
C894 C895 1.377 . S
C895 H879 0.930 . S
C895 C894 1.377 . S
C895 C896 1.379 . S
C896 H880 0.931 . S
C896 C890 1.383 . S
C896 C895 1.379 . S
H897 C891 0.959 . S
H898 C891 0.961 . S
H899 C891 0.960 . S
H900 C892 0.930 . S
H901 C893 0.929 . S
H902 C910 0.929 . S
H903 C912 0.930 . S
H904 C914 0.930 . S
H905 C917 0.929 . S
H906 C920 0.930 . S
H907 C922 0.960 . S
H908 C922 0.960 . S
H909 C922 0.960 . S
C910 H902 0.929 . S
C910 C911 1.377 . S
C910 C912 1.384 . S
C911 C910 1.377 . S
C911 C917 1.390 . S
C912 H903 0.930 . S
C912 C910 1.384 . S
C912 C913 1.372 . S
C913 C912 1.372 . S
C913 C914 1.400 . S
C913 C918 1.490 . S
C914 H904 0.930 . S
C914 C913 1.400 . S
C914 C917 1.386 . S
H915 C931 0.930 . S
H916 C932 0.931 . S
C917 H905 0.929 . S
C917 C911 1.390 . S
C917 C914 1.386 . S
C918 C913 1.490 . S
C918 C920 1.395 . S
C918 C921 1.403 . S
H919 C925 0.930 . S
C920 H906 0.930 . S
C920 C918 1.395 . S
C920 C923 1.403 . S
C921 C918 1.403 . S
C921 C922 1.524 . S
C921 C925 1.400 . S
C922 H907 0.960 . S
C922 H908 0.960 . S
C922 H909 0.960 . S
C922 C921 1.524 . S
C923 C920 1.403 . S
C923 C924 1.392 . S
C923 C927 1.495 . S
C924 C923 1.392 . S
C924 C925 1.385 . S
C924 C926 1.478 . S
C925 H919 0.930 . S
C925 C921 1.400 . S
C925 C924 1.385 . S
C926 C924 1.478 . S
C926 C928 1.381 . S
C926 C932 1.383 . S
C927 C923 1.495 . S
C927 H933 0.959 . S
C927 H934 0.961 . S
C927 H935 0.960 . S
C928 C926 1.381 . S
C928 C929 1.394 . S
C928 H936 0.930 . S
C929 C928 1.394 . S
C929 C930 1.383 . S
C929 H937 0.929 . S
C930 C929 1.383 . S
C930 C931 1.377 . S
C931 H915 0.930 . S
C931 C930 1.377 . S
C931 C932 1.379 . S
C932 H916 0.931 . S
C932 C926 1.383 . S
C932 C931 1.379 . S
H933 C927 0.959 . S
H934 C927 0.961 . S
H935 C927 0.960 . S
H936 C928 0.930 . S
H937 C929 0.929 . S
H938 C946 0.929 . S
H939 C948 0.930 . S
H940 C950 0.930 . S
H941 C953 0.929 . S
H942 C956 0.930 . S
H943 C958 0.960 . S
H944 C958 0.960 . S
H945 C958 0.960 . S
C946 H938 0.929 . S
C946 C947 1.377 . S
C946 C948 1.384 . S
C947 C946 1.377 . S
C947 C953 1.390 . S
C948 H939 0.930 . S
C948 C946 1.384 . S
C948 C949 1.372 . S
C949 C948 1.372 . S
C949 C950 1.400 . S
C949 C954 1.490 . S
C950 H940 0.930 . S
C950 C949 1.400 . S
C950 C953 1.386 . S
H951 C967 0.930 . S
H952 C968 0.931 . S
C953 H941 0.929 . S
C953 C947 1.390 . S
C953 C950 1.386 . S
C954 C949 1.490 . S
C954 C956 1.395 . S
C954 C957 1.403 . S
H955 C961 0.930 . S
C956 H942 0.930 . S
C956 C954 1.395 . S
C956 C959 1.403 . S
C957 C954 1.403 . S
C957 C958 1.524 . S
C957 C961 1.400 . S
C958 H943 0.960 . S
C958 H944 0.960 . S
C958 H945 0.960 . S
C958 C957 1.524 . S
C959 C956 1.403 . S
C959 C960 1.392 . S
C959 C963 1.495 . S
C960 C959 1.392 . S
C960 C961 1.385 . S
C960 C962 1.478 . S
C961 H955 0.930 . S
C961 C957 1.400 . S
C961 C960 1.385 . S
C962 C960 1.478 . S
C962 C964 1.381 . S
C962 C968 1.383 . S
C963 C959 1.495 . S
C963 H969 0.959 . S
C963 H970 0.961 . S
C963 H971 0.960 . S
C964 C962 1.381 . S
C964 C965 1.394 . S
C964 H972 0.930 . S
C965 C964 1.394 . S
C965 C966 1.383 . S
C965 H973 0.929 1_565 S
C966 C965 1.383 . S
C966 C967 1.377 . S
C967 H951 0.930 . S
C967 C966 1.377 . S
C967 C968 1.379 . S
C968 H952 0.931 . S
C968 C962 1.383 . S
C968 C967 1.379 . S
H969 C963 0.959 . S
H970 C963 0.961 . S
H971 C963 0.960 . S
H972 C964 0.930 . S
H973 C965 0.929 1_545 S
H974 C982 0.929 . S
H975 C984 0.930 . S
H976 C986 0.930 . S
H977 C989 0.929 . S
H978 C992 0.930 . S
H979 C994 0.960 . S
H980 C994 0.960 . S
H981 C994 0.960 . S
C982 H974 0.929 . S
C982 C983 1.377 . S
C982 C984 1.384 . S
C983 C982 1.377 . S
C983 C989 1.390 . S
C984 H975 0.930 . S
C984 C982 1.384 . S
C984 C985 1.372 . S
C985 C984 1.372 . S
C985 C986 1.400 . S
C985 C990 1.490 . S
C986 H976 0.930 . S
C986 C985 1.400 . S
C986 C989 1.386 . S
H987 C1003 0.930 . S
H988 C1004 0.931 . S
C989 H977 0.929 . S
C989 C983 1.390 . S
C989 C986 1.386 . S
C990 C985 1.490 . S
C990 C992 1.395 . S
C990 C993 1.403 . S
H991 C997 0.930 . S
C992 H978 0.930 . S
C992 C990 1.395 . S
C992 C995 1.403 . S
C993 C990 1.403 . S
C993 C994 1.524 . S
C993 C997 1.400 . S
C994 H979 0.960 . S
C994 H980 0.960 . S
C994 H981 0.960 . S
C994 C993 1.524 . S
C995 C992 1.403 . S
C995 C996 1.392 . S
C995 C999 1.495 . S
C996 C995 1.392 . S
C996 C997 1.385 . S
C996 C998 1.478 . S
C997 H991 0.930 . S
C997 C993 1.400 . S
C997 C996 1.385 . S
C998 C996 1.478 . S
C998 C1000 1.381 . S
C998 C1004 1.383 . S
C999 C995 1.495 . S
C999 H1005 0.959 . S
C999 H1006 0.961 . S
C999 H1007 0.960 . S
C1000 C998 1.381 . S
C1000 C1001 1.394 . S
C1000 H1008 0.930 . S
C1001 C1000 1.394 . S
C1001 C1002 1.383 . S
C1001 H1009 0.904 1_556 S
C1002 C1001 1.383 . S
C1002 C1003 1.377 . S
C1003 H987 0.930 . S
C1003 C1002 1.377 . S
C1003 C1004 1.379 . S
C1004 H988 0.931 . S
C1004 C998 1.383 . S
C1004 C1003 1.379 . S
H1005 C999 0.959 . S
H1006 C999 0.961 . S
H1007 C999 0.960 . S
H1008 C1000 0.930 . S
H1009 C1001 0.904 1_554 S
H1010 C1018 0.929 . S
H1011 C1020 0.930 . S
H1012 C1022 0.930 . S
H1013 C1025 0.929 . S
H1014 C1028 0.930 . S
H1015 C1030 0.960 . S
H1016 C1030 0.960 . S
H1017 C1030 0.960 . S
C1018 H1010 0.929 . S
C1018 C1019 1.377 . S
C1018 C1020 1.384 . S
C1019 C1018 1.377 . S
C1019 C1025 1.390 . S
C1020 H1011 0.930 . S
C1020 C1018 1.384 . S
C1020 C1021 1.372 . S
C1021 C1020 1.372 . S
C1021 C1022 1.400 . S
C1021 C1026 1.490 . S
C1022 H1012 0.930 . S
C1022 C1021 1.400 . S
C1022 C1025 1.386 . S
H1023 C1039 0.930 . S
H1024 C1040 0.931 . S
C1025 H1013 0.929 . S
C1025 C1019 1.390 . S
C1025 C1022 1.386 . S
C1026 C1021 1.490 . S
C1026 C1028 1.395 . S
C1026 C1029 1.403 . S
H1027 C1033 0.930 . S
C1028 H1014 0.930 . S
C1028 C1026 1.395 . S
C1028 C1031 1.403 . S
C1029 C1026 1.403 . S
C1029 C1030 1.524 . S
C1029 C1033 1.400 . S
C1030 H1015 0.960 . S
C1030 H1016 0.960 . S
C1030 H1017 0.960 . S
C1030 C1029 1.524 . S
C1031 C1028 1.403 . S
C1031 C1032 1.392 . S
C1031 C1035 1.495 . S
C1032 C1031 1.392 . S
C1032 C1033 1.385 . S
C1032 C1034 1.478 . S
C1033 H1027 0.930 . S
C1033 C1029 1.400 . S
C1033 C1032 1.385 . S
C1034 C1032 1.478 . S
C1034 C1036 1.381 . S
C1034 C1040 1.383 . S
C1035 C1031 1.495 . S
C1035 H1041 0.959 . S
C1035 H1042 0.961 . S
C1035 H1043 0.960 . S
C1036 C1034 1.381 . S
C1036 C1037 1.394 . S
C1036 H1044 0.930 . S
C1037 C1036 1.394 . S
C1037 C1038 1.383 . S
C1037 H1045 0.929 . S
C1038 C1037 1.383 . S
C1038 C1039 1.377 . S
C1039 H1023 0.930 . S
C1039 C1038 1.377 . S
C1039 C1040 1.379 . S
C1040 H1024 0.931 . S
C1040 C1034 1.383 . S
C1040 C1039 1.379 . S
H1041 C1035 0.959 . S
H1042 C1035 0.961 . S
H1043 C1035 0.960 . S
H1044 C1036 0.930 . S
H1045 C1037 0.929 . S
H1046 C1054 0.929 . S
H1047 C1056 0.930 . S
H1048 C1058 0.930 . S
H1049 C1061 0.929 . S
H1050 C1064 0.930 . S
H1051 C1066 0.960 . S
H1052 C1066 0.960 . S
H1053 C1066 0.960 . S
C1054 H1046 0.929 . S
C1054 C1055 1.377 . S
C1054 C1056 1.384 . S
C1055 C1054 1.377 . S
C1055 C1061 1.390 . S
C1056 H1047 0.930 . S
C1056 C1054 1.384 . S
C1056 C1057 1.372 . S
C1057 C1056 1.372 . S
C1057 C1058 1.400 . S
C1057 C1062 1.490 . S
C1058 H1048 0.930 . S
C1058 C1057 1.400 . S
C1058 C1061 1.386 . S
H1059 C1075 0.930 . S
H1060 C1076 0.931 . S
C1061 H1049 0.929 . S
C1061 C1055 1.390 . S
C1061 C1058 1.386 . S
C1062 C1057 1.490 . S
C1062 C1064 1.395 . S
C1062 C1065 1.403 . S
H1063 C1069 0.930 . S
C1064 H1050 0.930 . S
C1064 C1062 1.395 . S
C1064 C1067 1.403 . S
C1065 C1062 1.403 . S
C1065 C1066 1.524 . S
C1065 C1069 1.400 . S
C1066 H1051 0.960 . S
C1066 H1052 0.960 . S
C1066 H1053 0.960 . S
C1066 C1065 1.524 . S
C1067 C1064 1.403 . S
C1067 C1068 1.392 . S
C1067 C1071 1.495 . S
C1068 C1067 1.392 . S
C1068 C1069 1.385 . S
C1068 C1070 1.478 . S
C1069 H1063 0.930 . S
C1069 C1065 1.400 . S
C1069 C1068 1.385 . S
C1070 C1068 1.478 . S
C1070 C1072 1.381 . S
C1070 C1076 1.383 . S
C1071 C1067 1.495 . S
C1071 H1077 0.959 . S
C1071 H1078 0.961 . S
C1071 H1079 0.960 . S
C1072 C1070 1.381 . S
C1072 C1073 1.394 . S
C1072 H1080 0.930 . S
C1073 C1072 1.394 . S
C1073 C1074 1.383 . S
C1073 H1081 0.929 . S
C1074 C1073 1.383 . S
C1074 C1075 1.377 . S
C1075 H1059 0.930 . S
C1075 C1074 1.377 . S
C1075 C1076 1.379 . S
C1076 H1060 0.931 . S
C1076 C1070 1.383 . S
C1076 C1075 1.379 . S
H1077 C1071 0.959 . S
H1078 C1071 0.961 . S
H1079 C1071 0.960 . S
H1080 C1072 0.930 . S
H1081 C1073 0.929 . S
H1082 C1090 0.929 . S
H1083 C1092 0.930 . S
H1084 C1094 0.930 . S
H1085 C1097 0.929 . S
H1086 C1100 0.930 . S
H1087 C1102 0.960 . S
H1088 C1102 0.960 . S
H1089 C1102 0.960 . S
C1090 H1082 0.929 . S
C1090 C1091 1.377 . S
C1090 C1092 1.384 . S
C1091 C1090 1.377 . S
C1091 C1097 1.390 . S
C1092 H1083 0.930 . S
C1092 C1090 1.384 . S
C1092 C1093 1.372 . S
C1093 C1092 1.372 . S
C1093 C1094 1.400 . S
C1093 C1098 1.490 . S
C1094 H1084 0.930 . S
C1094 C1093 1.400 . S
C1094 C1097 1.386 . S
H1095 C1111 0.930 . S
H1096 C1112 0.931 . S
C1097 H1085 0.929 . S
C1097 C1091 1.390 . S
C1097 C1094 1.386 . S
C1098 C1093 1.490 . S
C1098 C1100 1.395 . S
C1098 C1101 1.403 . S
H1099 C1105 0.930 . S
C1100 H1086 0.930 . S
C1100 C1098 1.395 . S
C1100 C1103 1.403 . S
C1101 C1098 1.403 . S
C1101 C1102 1.524 . S
C1101 C1105 1.400 . S
C1102 H1087 0.960 . S
C1102 H1088 0.960 . S
C1102 H1089 0.960 . S
C1102 C1101 1.524 . S
C1103 C1100 1.403 . S
C1103 C1104 1.392 . S
C1103 C1107 1.495 . S
C1104 C1103 1.392 . S
C1104 C1105 1.385 . S
C1104 C1106 1.478 . S
C1105 H1099 0.930 . S
C1105 C1101 1.400 . S
C1105 C1104 1.385 . S
C1106 C1104 1.478 . S
C1106 C1108 1.381 . S
C1106 C1112 1.383 . S
C1107 C1103 1.495 . S
C1107 H1113 0.959 . S
C1107 H1114 0.961 . S
C1107 H1115 0.960 . S
C1108 C1106 1.381 . S
C1108 C1109 1.394 . S
C1108 H1116 0.930 . S
C1109 C1108 1.394 . S
C1109 C1110 1.383 . S
C1109 H1117 0.929 . S
C1110 C1109 1.383 . S
C1110 C1111 1.377 . S
C1111 H1095 0.930 . S
C1111 C1110 1.377 . S
C1111 C1112 1.379 . S
C1112 H1096 0.931 . S
C1112 C1106 1.383 . S
C1112 C1111 1.379 . S
H1113 C1107 0.959 . S
H1114 C1107 0.961 . S
H1115 C1107 0.960 . S
H1116 C1108 0.930 . S
H1117 C1109 0.929 . S
H1118 C1126 0.929 . S
H1119 C1128 0.930 . S
H1120 C1130 0.930 . S
H1121 C1133 0.929 . S
H1122 C1136 0.930 . S
H1123 C1138 0.960 . S
H1124 C1138 0.960 . S
H1125 C1138 0.960 . S
C1126 H1118 0.929 . S
C1126 C1127 1.377 . S
C1126 C1128 1.384 . S
C1127 C1126 1.377 . S
C1127 C1133 1.390 . S
C1128 H1119 0.930 . S
C1128 C1126 1.384 . S
C1128 C1129 1.372 . S
C1129 C1128 1.372 . S
C1129 C1130 1.400 . S
C1129 C1134 1.490 . S
C1130 H1120 0.930 . S
C1130 C1129 1.400 . S
C1130 C1133 1.386 . S
H1131 C1147 0.930 . S
H1132 C1148 0.931 . S
C1133 H1121 0.929 . S
C1133 C1127 1.390 . S
C1133 C1130 1.386 . S
C1134 C1129 1.490 . S
C1134 C1136 1.395 . S
C1134 C1137 1.403 . S
H1135 C1141 0.930 . S
C1136 H1122 0.930 . S
C1136 C1134 1.395 . S
C1136 C1139 1.403 . S
C1137 C1134 1.403 . S
C1137 C1138 1.524 . S
C1137 C1141 1.400 . S
C1138 H1123 0.960 . S
C1138 H1124 0.960 . S
C1138 H1125 0.960 . S
C1138 C1137 1.524 . S
C1139 C1136 1.403 . S
C1139 C1140 1.392 . S
C1139 C1143 1.495 . S
C1140 C1139 1.392 . S
C1140 C1141 1.385 . S
C1140 C1142 1.478 . S
C1141 H1135 0.930 . S
C1141 C1137 1.400 . S
C1141 C1140 1.385 . S
C1142 C1140 1.478 . S
C1142 C1144 1.381 . S
C1142 C1148 1.383 . S
C1143 C1139 1.495 . S
C1143 H1149 0.961 1_556 S
C1143 H1150 0.961 1_556 S
C1143 H1151 0.960 . S
C1144 C1142 1.381 . S
C1144 C1145 1.394 . S
C1144 H1152 0.930 . S
C1145 C1144 1.394 . S
C1145 C1146 1.383 . S
C1145 H1153 0.929 . S
C1146 C1145 1.383 . S
C1146 C1147 1.377 . S
C1147 H1131 0.930 . S
C1147 C1146 1.377 . S
C1147 C1148 1.379 . S
C1148 H1132 0.931 . S
C1148 C1142 1.383 . S
C1148 C1147 1.379 . S
H1149 C1143 0.961 1_554 S
H1150 C1143 0.961 1_554 S
H1151 C1143 0.960 . S
H1152 C1144 0.930 . S
H1153 C1145 0.929 . S
H1154 C1162 0.929 . S
H1155 C1164 0.930 . S
H1156 C1166 0.930 . S
H1157 C1169 0.929 . S
H1158 C1172 0.930 . S
H1159 C1174 0.960 . S
H1160 C1174 0.960 . S
H1161 C1174 0.960 . S
C1162 H1154 0.929 . S
C1162 C1163 1.377 . S
C1162 C1164 1.384 . S
C1163 C1162 1.377 . S
C1163 C1169 1.390 . S
C1164 H1155 0.930 . S
C1164 C1162 1.384 . S
C1164 C1165 1.372 . S
C1165 C1164 1.372 . S
C1165 C1166 1.400 . S
C1165 C1170 1.490 . S
C1166 H1156 0.930 . S
C1166 C1165 1.400 . S
C1166 C1169 1.386 . S
H1167 C1183 0.930 . S
H1168 C1184 0.931 . S
C1169 H1157 0.929 . S
C1169 C1163 1.390 . S
C1169 C1166 1.386 . S
C1170 C1165 1.490 . S
C1170 C1172 1.395 . S
C1170 C1173 1.403 . S
H1171 C1177 0.930 . S
C1172 H1158 0.930 . S
C1172 C1170 1.395 . S
C1172 C1175 1.403 . S
C1173 C1170 1.403 . S
C1173 C1174 1.524 . S
C1173 C1177 1.400 . S
C1174 H1159 0.960 . S
C1174 H1160 0.960 . S
C1174 H1161 0.960 . S
C1174 C1173 1.524 . S
C1175 C1172 1.403 . S
C1175 C1176 1.392 . S
C1175 C1179 1.495 . S
C1176 C1175 1.392 . S
C1176 C1177 1.385 . S
C1176 C1178 1.478 . S
C1177 H1171 0.930 . S
C1177 C1173 1.400 . S
C1177 C1176 1.385 . S
C1178 C1176 1.478 . S
C1178 C1180 1.381 . S
C1178 C1184 1.383 . S
C1179 C1175 1.495 . S
C1179 H1185 0.959 . S
C1179 H1186 0.961 . S
C1179 H1187 0.960 . S
C1180 C1178 1.381 . S
C1180 C1181 1.394 . S
C1180 H1188 0.930 . S
C1181 C1180 1.394 . S
C1181 C1182 1.383 . S
C1181 H1189 0.929 . S
C1182 C1181 1.383 . S
C1182 C1183 1.377 . S
C1183 H1167 0.930 . S
C1183 C1182 1.377 . S
C1183 C1184 1.379 . S
C1184 H1168 0.931 . S
C1184 C1178 1.383 . S
C1184 C1183 1.379 . S
H1185 C1179 0.959 . S
H1186 C1179 0.961 . S
H1187 C1179 0.960 . S
H1188 C1180 0.930 . S
H1189 C1181 0.929 . S
H1190 C1198 0.929 . S
H1191 C1200 0.930 . S
H1192 C1202 0.930 . S
H1193 C1205 0.929 . S
H1194 C1208 0.930 . S
H1195 C1210 0.960 . S
H1196 C1210 0.960 . S
H1197 C1210 0.960 . S
C1198 H1190 0.929 . S
C1198 C1199 1.377 . S
C1198 C1200 1.384 . S
C1199 C1198 1.377 . S
C1199 C1205 1.390 . S
C1200 H1191 0.930 . S
C1200 C1198 1.384 . S
C1200 C1201 1.372 . S
C1201 C1200 1.372 . S
C1201 C1202 1.400 . S
C1201 C1206 1.490 . S
C1202 H1192 0.930 . S
C1202 C1201 1.400 . S
C1202 C1205 1.386 . S
H1203 C1219 0.930 . S
H1204 C1220 0.931 . S
C1205 H1193 0.929 . S
C1205 C1199 1.390 . S
C1205 C1202 1.386 . S
C1206 C1201 1.490 . S
C1206 C1208 1.395 . S
C1206 C1209 1.403 . S
H1207 C1213 0.930 . S
C1208 H1194 0.930 . S
C1208 C1206 1.395 . S
C1208 C1211 1.403 . S
C1209 C1206 1.403 . S
C1209 C1210 1.524 . S
C1209 C1213 1.400 . S
C1210 H1195 0.960 . S
C1210 H1196 0.960 . S
C1210 H1197 0.960 . S
C1210 C1209 1.524 . S
C1211 C1208 1.403 . S
C1211 C1212 1.392 . S
C1211 C1215 1.495 . S
C1212 C1211 1.392 . S
C1212 C1213 1.385 . S
C1212 C1214 1.478 . S
C1213 H1207 0.930 . S
C1213 C1209 1.400 . S
C1213 C1212 1.385 . S
C1214 C1212 1.478 . S
C1214 C1216 1.381 . S
C1214 C1220 1.383 . S
C1215 C1211 1.495 . S
C1215 H1221 0.959 . S
C1215 H1222 0.961 . S
C1215 H1223 0.960 . S
C1216 C1214 1.381 . S
C1216 C1217 1.394 . S
C1216 H1224 0.930 . S
C1217 C1216 1.394 . S
C1217 C1218 1.383 . S
C1217 H1225 0.929 . S
C1218 C1217 1.383 . S
C1218 C1219 1.377 . S
C1219 H1203 0.930 . S
C1219 C1218 1.377 . S
C1219 C1220 1.379 . S
C1220 H1204 0.931 . S
C1220 C1214 1.383 . S
C1220 C1219 1.379 . S
H1221 C1215 0.959 . S
H1222 C1215 0.961 . S
H1223 C1215 0.960 . S
H1224 C1216 0.930 . S
H1225 C1217 0.929 . S
H1226 C1234 0.929 . S
H1227 C1236 0.930 . S
H1228 C1238 0.930 . S
H1229 C1241 0.929 . S
H1230 C1244 0.930 . S
H1231 C1246 0.960 . S
H1232 C1246 0.960 . S
H1233 C1246 0.960 . S
C1234 H1226 0.929 . S
C1234 C1235 1.377 . S
C1234 C1236 1.384 . S
C1235 C1234 1.377 . S
C1235 C1241 1.390 . S
C1236 H1227 0.930 . S
C1236 C1234 1.384 . S
C1236 C1237 1.372 . S
C1237 C1236 1.372 . S
C1237 C1238 1.400 . S
C1237 C1242 1.490 . S
C1238 H1228 0.930 . S
C1238 C1237 1.400 . S
C1238 C1241 1.386 . S
H1239 C1255 0.930 . S
H1240 C1256 0.931 . S
C1241 H1229 0.929 . S
C1241 C1235 1.390 . S
C1241 C1238 1.386 . S
C1242 C1237 1.490 . S
C1242 C1244 1.395 . S
C1242 C1245 1.403 . S
H1243 C1249 0.930 . S
C1244 H1230 0.930 . S
C1244 C1242 1.395 . S
C1244 C1247 1.403 . S
C1245 C1242 1.403 . S
C1245 C1246 1.524 . S
C1245 C1249 1.400 . S
C1246 H1231 0.960 . S
C1246 H1232 0.960 . S
C1246 H1233 0.960 . S
C1246 C1245 1.524 . S
C1247 C1244 1.403 . S
C1247 C1248 1.392 . S
C1247 C1251 1.495 . S
C1248 C1247 1.392 . S
C1248 C1249 1.385 . S
C1248 C1250 1.478 . S
C1249 H1243 0.930 . S
C1249 C1245 1.400 . S
C1249 C1248 1.385 . S
C1250 C1248 1.478 . S
C1250 C1252 1.381 . S
C1250 C1256 1.383 . S
C1251 C1247 1.495 . S
C1251 H1257 0.959 . S
C1251 H1258 0.961 . S
C1251 H1259 0.960 . S
C1252 C1250 1.381 . S
C1252 C1253 1.394 . S
C1252 H1260 0.930 . S
C1253 C1252 1.394 . S
C1253 C1254 1.383 . S
C1253 H1261 0.929 1_565 S
C1254 C1253 1.383 . S
C1254 C1255 1.377 . S
C1255 H1239 0.930 . S
C1255 C1254 1.377 . S
C1255 C1256 1.379 . S
C1256 H1240 0.931 . S
C1256 C1250 1.383 . S
C1256 C1255 1.379 . S
H1257 C1251 0.959 . S
H1258 C1251 0.961 . S
H1259 C1251 0.960 . S
H1260 C1252 0.930 . S
H1261 C1253 0.929 1_545 S
H1262 C1270 0.929 . S
H1263 C1272 0.930 . S
H1264 C1274 0.930 . S
H1265 C1277 0.929 . S
H1266 C1280 0.930 . S
H1267 C1282 0.960 . S
H1268 C1282 0.960 . S
H1269 C1282 0.960 . S
C1270 H1262 0.929 . S
C1270 C1271 1.377 . S
C1270 C1272 1.384 . S
C1271 C1270 1.377 . S
C1271 C1277 1.390 . S
C1272 H1263 0.930 . S
C1272 C1270 1.384 . S
C1272 C1273 1.372 . S
C1273 C1272 1.372 . S
C1273 C1274 1.400 . S
C1273 C1278 1.490 . S
C1274 H1264 0.930 . S
C1274 C1273 1.400 . S
C1274 C1277 1.386 . S
H1275 C1291 0.930 . S
H1276 C1292 0.931 . S
C1277 H1265 0.929 . S
C1277 C1271 1.390 . S
C1277 C1274 1.386 . S
C1278 C1273 1.490 . S
C1278 C1280 1.395 . S
C1278 C1281 1.403 . S
H1279 C1285 0.930 . S
C1280 H1266 0.930 . S
C1280 C1278 1.395 . S
C1280 C1283 1.403 . S
C1281 C1278 1.403 . S
C1281 C1282 1.524 . S
C1281 C1285 1.400 . S
C1282 H1267 0.960 . S
C1282 H1268 0.960 . S
C1282 H1269 0.960 . S
C1282 C1281 1.524 . S
C1283 C1280 1.403 . S
C1283 C1284 1.392 . S
C1283 C1287 1.495 . S
C1284 C1283 1.392 . S
C1284 C1285 1.385 . S
C1284 C1286 1.478 . S
C1285 H1279 0.930 . S
C1285 C1281 1.400 . S
C1285 C1284 1.385 . S
C1286 C1284 1.478 . S
C1286 C1288 1.381 . S
C1286 C1292 1.383 . S
C1287 C1283 1.495 . S
C1287 H1293 0.959 . S
C1287 H1294 0.961 . S
C1287 H1295 0.960 . S
C1288 C1286 1.381 . S
C1288 C1289 1.394 . S
C1288 H1296 0.930 . S
C1289 C1288 1.394 . S
C1289 C1290 1.383 . S
C1289 H1297 0.929 . S
C1290 C1289 1.383 . S
C1290 C1291 1.377 . S
C1291 H1275 0.930 . S
C1291 C1290 1.377 . S
C1291 C1292 1.379 . S
C1292 H1276 0.931 . S
C1292 C1286 1.383 . S
C1292 C1291 1.379 . S
H1293 C1287 0.959 . S
H1294 C1287 0.961 . S
H1295 C1287 0.960 . S
H1296 C1288 0.930 . S
H1297 C1289 0.929 . S
H1298 C1306 0.929 . S
H1299 C1308 0.930 . S
H1300 C1310 0.930 . S
H1301 C1313 0.929 . S
H1302 C1316 0.930 . S
H1303 C1318 0.960 . S
H1304 C1318 0.960 . S
H1305 C1318 0.960 . S
C1306 H1298 0.929 . S
C1306 C1307 1.377 . S
C1306 C1308 1.384 . S
C1307 C1306 1.377 . S
C1307 C1313 1.390 . S
C1308 H1299 0.930 . S
C1308 C1306 1.384 . S
C1308 C1309 1.372 . S
C1309 C1308 1.372 . S
C1309 C1310 1.400 . S
C1309 C1314 1.490 . S
C1310 H1300 0.930 . S
C1310 C1309 1.400 . S
C1310 C1313 1.386 . S
H1311 C1327 0.930 . S
H1312 C1328 0.931 . S
C1313 H1301 0.929 . S
C1313 C1307 1.390 . S
C1313 C1310 1.386 . S
C1314 C1309 1.490 . S
C1314 C1316 1.395 . S
C1314 C1317 1.403 . S
H1315 C1321 0.930 . S
C1316 H1302 0.930 . S
C1316 C1314 1.395 . S
C1316 C1319 1.403 . S
C1317 C1314 1.403 . S
C1317 C1318 1.524 . S
C1317 C1321 1.400 . S
C1318 H1303 0.960 . S
C1318 H1304 0.960 . S
C1318 H1305 0.960 . S
C1318 C1317 1.524 . S
C1319 C1316 1.403 . S
C1319 C1320 1.392 . S
C1319 C1323 1.495 . S
C1320 C1319 1.392 . S
C1320 C1321 1.385 . S
C1320 C1322 1.478 . S
C1321 H1315 0.930 . S
C1321 C1317 1.400 . S
C1321 C1320 1.385 . S
C1322 C1320 1.478 . S
C1322 C1324 1.381 . S
C1322 C1328 1.383 . S
C1323 C1319 1.495 . S
C1323 H1329 0.959 . S
C1323 H1330 0.961 . S
C1323 H1331 0.960 . S
C1324 C1322 1.381 . S
C1324 C1325 1.394 . S
C1324 H1332 0.930 . S
C1325 C1324 1.394 . S
C1325 C1326 1.383 . S
C1325 H1333 0.929 . S
C1326 C1325 1.383 . S
C1326 C1327 1.377 . S
C1327 H1311 0.930 . S
C1327 C1326 1.377 . S
C1327 C1328 1.379 . S
C1328 H1312 0.931 . S
C1328 C1322 1.383 . S
C1328 C1327 1.379 . S
H1329 C1323 0.959 . S
H1330 C1323 0.961 . S
H1331 C1323 0.960 . S
H1332 C1324 0.930 . S
H1333 C1325 0.929 . S
H1334 C1342 0.929 . S
H1335 C1344 0.930 . S
H1336 C1346 0.930 . S
H1337 C1349 0.929 . S
H1338 C1352 0.930 . S
H1339 C1354 0.960 . S
H1340 C1354 0.960 . S
H1341 C1354 0.960 . S
C1342 H1334 0.929 . S
C1342 C1343 1.377 . S
C1342 C1344 1.384 . S
C1343 C1342 1.377 . S
C1343 C1349 1.390 . S
C1344 H1335 0.930 . S
C1344 C1342 1.384 . S
C1344 C1345 1.372 . S
C1345 C1344 1.372 . S
C1345 C1346 1.400 . S
C1345 C1350 1.490 . S
C1346 H1336 0.930 . S
C1346 C1345 1.400 . S
C1346 C1349 1.386 . S
H1347 C1363 0.930 . S
H1348 C1364 0.931 . S
C1349 H1337 0.929 . S
C1349 C1343 1.390 . S
C1349 C1346 1.386 . S
C1350 C1345 1.490 . S
C1350 C1352 1.395 . S
C1350 C1353 1.403 . S
H1351 C1357 0.930 . S
C1352 H1338 0.930 . S
C1352 C1350 1.395 . S
C1352 C1355 1.403 . S
C1353 C1350 1.403 . S
C1353 C1354 1.524 . S
C1353 C1357 1.400 . S
C1354 H1339 0.960 . S
C1354 H1340 0.960 . S
C1354 H1341 0.960 . S
C1354 C1353 1.524 . S
C1355 C1352 1.403 . S
C1355 C1356 1.392 . S
C1355 C1359 1.495 . S
C1356 C1355 1.392 . S
C1356 C1357 1.385 . S
C1356 C1358 1.478 . S
C1357 H1351 0.930 . S
C1357 C1353 1.400 . S
C1357 C1356 1.385 . S
C1358 C1356 1.478 . S
C1358 C1360 1.381 . S
C1358 C1364 1.383 . S
C1359 C1355 1.495 . S
C1359 H1365 0.959 . S
C1359 H1366 0.961 . S
C1359 H1367 0.960 . S
C1360 C1358 1.381 . S
C1360 C1361 1.394 . S
C1360 H1368 0.930 . S
C1361 C1360 1.394 . S
C1361 C1362 1.383 . S
C1361 H1369 0.929 . S
C1362 C1361 1.383 . S
C1362 C1363 1.377 . S
C1363 H1347 0.930 . S
C1363 C1362 1.377 . S
C1363 C1364 1.379 . S
C1364 H1348 0.931 . S
C1364 C1358 1.383 . S
C1364 C1363 1.379 . S
H1365 C1359 0.959 . S
H1366 C1359 0.961 . S
H1367 C1359 0.960 . S
H1368 C1360 0.930 . S
H1369 C1361 0.929 . S
H1370 C1378 0.929 . S
H1371 C1380 0.930 . S
H1372 C1382 0.930 . S
H1373 C1385 0.929 . S
H1374 C1388 0.930 . S
H1375 C1390 0.960 . S
H1376 C1390 0.960 . S
H1377 C1390 0.960 . S
C1378 H1370 0.929 . S
C1378 C1379 1.377 . S
C1378 C1380 1.384 . S
C1379 C1378 1.377 . S
C1379 C1385 1.390 . S
C1380 H1371 0.930 . S
C1380 C1378 1.384 . S
C1380 C1381 1.372 . S
C1381 C1380 1.372 . S
C1381 C1382 1.400 . S
C1381 C1386 1.490 . S
C1382 H1372 0.930 . S
C1382 C1381 1.400 . S
C1382 C1385 1.386 . S
H1383 C1399 0.930 . S
H1384 C1400 0.931 . S
C1385 H1373 0.929 . S
C1385 C1379 1.390 . S
C1385 C1382 1.386 . S
C1386 C1381 1.490 . S
C1386 C1388 1.395 . S
C1386 C1389 1.403 . S
H1387 C1393 0.930 . S
C1388 H1374 0.930 . S
C1388 C1386 1.395 . S
C1388 C1391 1.403 . S
C1389 C1386 1.403 . S
C1389 C1390 1.524 . S
C1389 C1393 1.400 . S
C1390 H1375 0.960 . S
C1390 H1376 0.960 . S
C1390 H1377 0.960 . S
C1390 C1389 1.524 . S
C1391 C1388 1.403 . S
C1391 C1392 1.392 . S
C1391 C1395 1.495 . S
C1392 C1391 1.392 . S
C1392 C1393 1.385 . S
C1392 C1394 1.478 . S
C1393 H1387 0.930 . S
C1393 C1389 1.400 . S
C1393 C1392 1.385 . S
C1394 C1392 1.478 . S
C1394 C1396 1.381 . S
C1394 C1400 1.383 . S
C1395 C1391 1.495 . S
C1395 H1401 0.959 . S
C1395 H1402 0.961 . S
C1395 H1403 0.960 . S
C1396 C1394 1.381 . S
C1396 C1397 1.394 . S
C1396 H1404 0.930 . S
C1397 C1396 1.394 . S
C1397 C1398 1.383 . S
C1397 H1405 0.929 . S
C1398 C1397 1.383 . S
C1398 C1399 1.377 . S
C1399 H1383 0.930 . S
C1399 C1398 1.377 . S
C1399 C1400 1.379 . S
C1400 H1384 0.931 . S
C1400 C1394 1.383 . S
C1400 C1399 1.379 . S
H1401 C1395 0.959 . S
H1402 C1395 0.961 . S
H1403 C1395 0.960 . S
H1404 C1396 0.930 . S
H1405 C1397 0.929 . S
H1406 C1414 0.929 . S
H1407 C1416 0.930 . S
H1408 C1418 0.930 . S
H1409 C1421 0.929 . S
H1410 C1424 0.930 . S
H1411 C1426 0.960 . S
H1412 C1426 0.960 . S
H1413 C1426 0.960 . S
C1414 H1406 0.929 . S
C1414 C1415 1.377 . S
C1414 C1416 1.384 . S
C1415 C1414 1.377 . S
C1415 C1421 1.390 . S
C1416 H1407 0.930 . S
C1416 C1414 1.384 . S
C1416 C1417 1.372 . S
C1417 C1416 1.372 . S
C1417 C1418 1.400 . S
C1417 C1422 1.490 . S
C1418 H1408 0.930 . S
C1418 C1417 1.400 . S
C1418 C1421 1.386 . S
H1419 C1435 0.930 . S
H1420 C1436 0.931 . S
C1421 H1409 0.929 . S
C1421 C1415 1.390 . S
C1421 C1418 1.386 . S
C1422 C1417 1.490 . S
C1422 C1424 1.395 . S
C1422 C1425 1.403 . S
H1423 C1429 0.930 . S
C1424 H1410 0.930 . S
C1424 C1422 1.395 . S
C1424 C1427 1.403 . S
C1425 C1422 1.403 . S
C1425 C1426 1.524 . S
C1425 C1429 1.400 . S
C1426 H1411 0.960 . S
C1426 H1412 0.960 . S
C1426 H1413 0.960 . S
C1426 C1425 1.524 . S
C1427 C1424 1.403 . S
C1427 C1428 1.392 . S
C1427 C1431 1.495 . S
C1428 C1427 1.392 . S
C1428 C1429 1.385 . S
C1428 C1430 1.478 . S
C1429 H1423 0.930 . S
C1429 C1425 1.400 . S
C1429 C1428 1.385 . S
C1430 C1428 1.478 . S
C1430 C1432 1.381 . S
C1430 C1436 1.383 . S
C1431 C1427 1.495 . S
C1431 H1437 0.959 . S
C1431 H1438 0.961 . S
C1431 H1439 0.960 . S
C1432 C1430 1.381 . S
C1432 C1433 1.394 . S
C1432 H1440 0.930 . S
C1433 C1432 1.394 . S
C1433 C1434 1.383 . S
C1433 H1441 0.929 . S
C1434 C1433 1.383 . S
C1434 C1435 1.377 . S
C1435 H1419 0.930 . S
C1435 C1434 1.377 . S
C1435 C1436 1.379 . S
C1436 H1420 0.931 . S
C1436 C1430 1.383 . S
C1436 C1435 1.379 . S
H1437 C1431 0.959 . S
H1438 C1431 0.961 . S
H1439 C1431 0.960 . S
H1440 C1432 0.930 . S
H1441 C1433 0.929 . S
H1442 C1450 0.929 . S
H1443 C1452 0.930 . S
H1444 C1454 0.930 . S
H1445 C1457 0.929 . S
H1446 C1460 0.930 . S
H1447 C1462 0.960 . S
H1448 C1462 0.960 . S
H1449 C1462 0.960 . S
C1450 H1442 0.929 . S
C1450 C1451 1.377 . S
C1450 C1452 1.384 . S
C1451 C1450 1.377 . S
C1451 C1457 1.390 . S
C1452 H1443 0.930 . S
C1452 C1450 1.384 . S
C1452 C1453 1.372 . S
C1453 C1452 1.372 . S
C1453 C1454 1.400 . S
C1453 C1458 1.490 . S
C1454 H1444 0.930 . S
C1454 C1453 1.400 . S
C1454 C1457 1.386 . S
H1455 C1471 0.930 . S
H1456 C1472 0.931 . S
C1457 H1445 0.929 . S
C1457 C1451 1.390 . S
C1457 C1454 1.386 . S
C1458 C1453 1.490 . S
C1458 C1460 1.395 . S
C1458 C1461 1.403 . S
H1459 C1465 0.930 . S
C1460 H1446 0.930 . S
C1460 C1458 1.395 . S
C1460 C1463 1.403 . S
C1461 C1458 1.403 . S
C1461 C1462 1.524 . S
C1461 C1465 1.400 . S
C1462 H1447 0.960 . S
C1462 H1448 0.960 . S
C1462 H1449 0.960 . S
C1462 C1461 1.524 . S
C1463 C1460 1.403 . S
C1463 C1464 1.392 . S
C1463 C1467 1.495 . S
C1464 C1463 1.392 . S
C1464 C1465 1.385 . S
C1464 C1466 1.478 . S
C1465 H1459 0.930 . S
C1465 C1461 1.400 . S
C1465 C1464 1.385 . S
C1466 C1464 1.478 . S
C1466 C1468 1.381 . S
C1466 C1472 1.383 . S
C1467 C1463 1.495 . S
C1467 H1473 0.959 . S
C1467 H1474 0.961 . S
C1467 H1475 0.960 . S
C1468 C1466 1.381 . S
C1468 C1469 1.394 . S
C1468 H1476 0.930 . S
C1469 C1468 1.394 . S
C1469 C1470 1.383 . S
C1469 H1477 0.929 . S
C1470 C1469 1.383 . S
C1470 C1471 1.377 . S
C1471 H1455 0.930 . S
C1471 C1470 1.377 . S
C1471 C1472 1.379 . S
C1472 H1456 0.931 . S
C1472 C1466 1.383 . S
C1472 C1471 1.379 . S
H1473 C1467 0.959 . S
H1474 C1467 0.961 . S
H1475 C1467 0.960 . S
H1476 C1468 0.930 . S
H1477 C1469 0.929 . S
H1478 C1486 0.929 . S
H1479 C1488 0.930 . S
H1480 C1490 0.930 . S
H1481 C1493 0.929 . S
H1482 C1496 0.930 . S
H1483 C1498 0.960 . S
H1484 C1498 0.960 . S
H1485 C1498 0.960 . S
C1486 H1478 0.929 . S
C1486 C1487 1.377 . S
C1486 C1488 1.384 . S
C1487 C1486 1.377 . S
C1487 C1493 1.390 . S
C1488 H1479 0.930 . S
C1488 C1486 1.384 . S
C1488 C1489 1.372 . S
C1489 C1488 1.372 . S
C1489 C1490 1.400 . S
C1489 C1494 1.490 . S
C1490 H1480 0.930 . S
C1490 C1489 1.400 . S
C1490 C1493 1.386 . S
H1491 C1507 0.930 . S
H1492 C1508 0.931 . S
C1493 H1481 0.929 . S
C1493 C1487 1.390 . S
C1493 C1490 1.386 . S
C1494 C1489 1.490 . S
C1494 C1496 1.395 . S
C1494 C1497 1.403 . S
H1495 C1501 0.930 . S
C1496 H1482 0.930 . S
C1496 C1494 1.395 . S
C1496 C1499 1.403 . S
C1497 C1494 1.403 . S
C1497 C1498 1.524 . S
C1497 C1501 1.400 . S
C1498 H1483 0.960 . S
C1498 H1484 0.960 . S
C1498 H1485 0.960 . S
C1498 C1497 1.524 . S
C1499 C1496 1.403 . S
C1499 C1500 1.392 . S
C1499 C1503 1.495 . S
C1500 C1499 1.392 . S
C1500 C1501 1.385 . S
C1500 C1502 1.478 . S
C1501 H1495 0.930 . S
C1501 C1497 1.400 . S
C1501 C1500 1.385 . S
C1502 C1500 1.478 . S
C1502 C1504 1.381 . S
C1502 C1508 1.383 . S
C1503 C1499 1.495 . S
C1503 H1509 0.959 . S
C1503 H1510 0.961 . S
C1503 H1511 0.960 . S
C1504 C1502 1.381 . S
C1504 C1505 1.394 . S
C1504 H1512 0.930 . S
C1505 C1504 1.394 . S
C1505 C1506 1.383 . S
C1505 H1513 0.929 . S
C1506 C1505 1.383 . S
C1506 C1507 1.377 . S
C1507 H1491 0.930 . S
C1507 C1506 1.377 . S
C1507 C1508 1.379 . S
C1508 H1492 0.931 . S
C1508 C1502 1.383 . S
C1508 C1507 1.379 . S
H1509 C1503 0.959 . S
H1510 C1503 0.961 . S
H1511 C1503 0.960 . S
H1512 C1504 0.930 . S
H1513 C1505 0.929 . S
H1514 C1522 0.929 . S
H1515 C1524 0.930 . S
H1516 C1526 0.930 . S
H1517 C1529 0.929 . S
H1518 C1532 0.930 . S
H1519 C1534 0.960 . S
H1520 C1534 0.960 . S
H1521 C1534 0.960 . S
C1522 H1514 0.929 . S
C1522 C1523 1.377 . S
C1522 C1524 1.384 . S
C1523 C1522 1.377 . S
C1523 C1529 1.390 . S
C1524 H1515 0.930 . S
C1524 C1522 1.384 . S
C1524 C1525 1.372 . S
C1525 C1524 1.372 . S
C1525 C1526 1.400 . S
C1525 C1530 1.490 . S
C1526 H1516 0.930 . S
C1526 C1525 1.400 . S
C1526 C1529 1.386 . S
H1527 C1543 0.930 . S
H1528 C1544 0.931 . S
C1529 H1517 0.929 . S
C1529 C1523 1.390 . S
C1529 C1526 1.386 . S
C1530 C1525 1.490 . S
C1530 C1532 1.395 . S
C1530 C1533 1.403 . S
H1531 C1537 0.930 . S
C1532 H1518 0.930 . S
C1532 C1530 1.395 . S
C1532 C1535 1.403 . S
C1533 C1530 1.403 . S
C1533 C1534 1.524 . S
C1533 C1537 1.400 . S
C1534 H1519 0.960 . S
C1534 H1520 0.960 . S
C1534 H1521 0.960 . S
C1534 C1533 1.524 . S
C1535 C1532 1.403 . S
C1535 C1536 1.392 . S
C1535 C1539 1.495 . S
C1536 C1535 1.392 . S
C1536 C1537 1.385 . S
C1536 C1538 1.478 . S
C1537 H1531 0.930 . S
C1537 C1533 1.400 . S
C1537 C1536 1.385 . S
C1538 C1536 1.478 . S
C1538 C1540 1.381 . S
C1538 C1544 1.383 . S
C1539 C1535 1.495 . S
C1539 H1545 0.959 . S
C1539 H1546 0.961 . S
C1539 H1547 0.960 . S
C1540 C1538 1.381 . S
C1540 C1541 1.394 . S
C1540 H1548 0.930 . S
C1541 C1540 1.394 . S
C1541 C1542 1.383 . S
C1541 H1549 0.929 . S
C1542 C1541 1.383 . S
C1542 C1543 1.377 . S
C1543 H1527 0.930 . S
C1543 C1542 1.377 . S
C1543 C1544 1.379 . S
C1544 H1528 0.931 . S
C1544 C1538 1.383 . S
C1544 C1543 1.379 . S
H1545 C1539 0.959 . S
H1546 C1539 0.961 . S
H1547 C1539 0.960 . S
H1548 C1540 0.930 . S
H1549 C1541 0.929 . S
H1550 C1558 0.929 . S
H1551 C1560 0.930 . S
H1552 C1562 0.930 . S
H1553 C1565 0.929 . S
H1554 C1568 0.930 . S
H1555 C1570 0.960 . S
H1556 C1570 0.960 . S
H1557 C1570 0.960 . S
C1558 H1550 0.929 . S
C1558 C1559 1.377 . S
C1558 C1560 1.384 . S
C1559 C1558 1.377 . S
C1559 C1565 1.390 . S
C1560 H1551 0.930 . S
C1560 C1558 1.384 . S
C1560 C1561 1.372 . S
C1561 C1560 1.372 . S
C1561 C1562 1.400 . S
C1561 C1566 1.490 . S
C1562 H1552 0.930 . S
C1562 C1561 1.400 . S
C1562 C1565 1.386 . S
H1563 C1579 0.930 . S
H1564 C1580 0.931 . S
C1565 H1553 0.929 . S
C1565 C1559 1.390 . S
C1565 C1562 1.386 . S
C1566 C1561 1.490 . S
C1566 C1568 1.395 . S
C1566 C1569 1.403 . S
H1567 C1573 0.930 . S
C1568 H1554 0.930 . S
C1568 C1566 1.395 . S
C1568 C1571 1.403 . S
C1569 C1566 1.403 . S
C1569 C1570 1.524 . S
C1569 C1573 1.400 . S
C1570 H1555 0.960 . S
C1570 H1556 0.960 . S
C1570 H1557 0.960 . S
C1570 C1569 1.524 . S
C1571 C1568 1.403 . S
C1571 C1572 1.392 . S
C1571 C1575 1.495 . S
C1572 C1571 1.392 . S
C1572 C1573 1.385 . S
C1572 C1574 1.478 . S
C1573 H1567 0.930 . S
C1573 C1569 1.400 . S
C1573 C1572 1.385 . S
C1574 C1572 1.478 . S
C1574 C1576 1.381 . S
C1574 C1580 1.383 . S
C1575 C1571 1.495 . S
C1575 H1581 0.959 . S
C1575 H1582 0.961 . S
C1575 H1583 0.960 . S
C1576 C1574 1.381 . S
C1576 C1577 1.394 . S
C1576 H1584 0.930 . S
C1577 C1576 1.394 . S
C1577 C1578 1.383 . S
C1577 H1585 0.929 . S
C1578 C1577 1.383 . S
C1578 C1579 1.377 . S
C1579 H1563 0.930 . S
C1579 C1578 1.377 . S
C1579 C1580 1.379 . S
C1580 H1564 0.931 . S
C1580 C1574 1.383 . S
C1580 C1579 1.379 . S
H1581 C1575 0.959 . S
H1582 C1575 0.961 . S
H1583 C1575 0.960 . S
H1584 C1576 0.930 . S
H1585 C1577 0.929 . S
H1586 C1594 0.929 . S
H1587 C1596 0.930 . S
H1588 C1598 0.930 . S
H1589 C1601 0.929 . S
H1590 C1604 0.930 . S
H1591 C1606 0.960 . S
H1592 C1606 0.960 . S
H1593 C1606 0.960 . S
C1594 H1586 0.929 . S
C1594 C1595 1.377 . S
C1594 C1596 1.384 . S
C1595 C1594 1.377 . S
C1595 C1601 1.390 . S
C1596 H1587 0.930 . S
C1596 C1594 1.384 . S
C1596 C1597 1.372 . S
C1597 C1596 1.372 . S
C1597 C1598 1.400 . S
C1597 C1602 1.490 . S
C1598 H1588 0.930 . S
C1598 C1597 1.400 . S
C1598 C1601 1.386 . S
H1599 C1615 0.930 . S
H1600 C1616 0.931 . S
C1601 H1589 0.929 . S
C1601 C1595 1.390 . S
C1601 C1598 1.386 . S
C1602 C1597 1.490 . S
C1602 C1604 1.395 . S
C1602 C1605 1.403 . S
H1603 C1609 0.930 . S
C1604 H1590 0.930 . S
C1604 C1602 1.395 . S
C1604 C1607 1.403 . S
C1605 C1602 1.403 . S
C1605 C1606 1.524 . S
C1605 C1609 1.400 . S
C1606 H1591 0.960 . S
C1606 H1592 0.960 . S
C1606 H1593 0.960 . S
C1606 C1605 1.524 . S
C1607 C1604 1.403 . S
C1607 C1608 1.392 . S
C1607 C1611 1.495 . S
C1608 C1607 1.392 . S
C1608 C1609 1.385 . S
C1608 C1610 1.478 . S
C1609 H1603 0.930 . S
C1609 C1605 1.400 . S
C1609 C1608 1.385 . S
C1610 C1608 1.478 . S
C1610 C1612 1.381 . S
C1610 C1616 1.383 . S
C1611 C1607 1.495 . S
C1611 H1617 0.959 . S
C1611 H1618 0.961 . S
C1611 H1619 0.960 . S
C1612 C1610 1.381 . S
C1612 C1613 1.394 . S
C1612 H1620 0.930 . S
C1613 C1612 1.394 . S
C1613 C1614 1.383 . S
C1613 H1621 0.929 . S
C1614 C1613 1.383 . S
C1614 C1615 1.377 . S
C1615 H1599 0.930 . S
C1615 C1614 1.377 . S
C1615 C1616 1.379 . S
C1616 H1600 0.931 . S
C1616 C1610 1.383 . S
C1616 C1615 1.379 . S
H1617 C1611 0.959 . S
H1618 C1611 0.961 . S
H1619 C1611 0.960 . S
H1620 C1612 0.930 . S
H1621 C1613 0.929 . S
H1622 C1630 0.929 . S
H1623 C1632 0.930 . S
H1624 C1634 0.930 . S
H1625 C1637 0.929 . S
H1626 C1640 0.930 . S
H1627 C1642 0.960 . S
H1628 C1642 0.960 . S
H1629 C1642 0.960 . S
C1630 H1622 0.929 . S
C1630 C1631 1.377 . S
C1630 C1632 1.384 . S
C1631 C1630 1.377 . S
C1631 C1637 1.390 . S
C1632 H1623 0.930 . S
C1632 C1630 1.384 . S
C1632 C1633 1.372 . S
C1633 C1632 1.372 . S
C1633 C1634 1.400 . S
C1633 C1638 1.490 . S
C1634 H1624 0.930 . S
C1634 C1633 1.400 . S
C1634 C1637 1.386 . S
H1635 C1651 0.930 . S
H1636 C1652 0.931 . S
C1637 H1625 0.929 . S
C1637 C1631 1.390 . S
C1637 C1634 1.386 . S
C1638 C1633 1.490 . S
C1638 C1640 1.395 . S
C1638 C1641 1.403 . S
H1639 C1645 0.930 . S
C1640 H1626 0.930 . S
C1640 C1638 1.395 . S
C1640 C1643 1.403 . S
C1641 C1638 1.403 . S
C1641 C1642 1.524 . S
C1641 C1645 1.400 . S
C1642 H1627 0.960 . S
C1642 H1628 0.960 . S
C1642 H1629 0.960 . S
C1642 C1641 1.524 . S
C1643 C1640 1.403 . S
C1643 C1644 1.392 . S
C1643 C1647 1.495 . S
C1644 C1643 1.392 . S
C1644 C1645 1.385 . S
C1644 C1646 1.478 . S
C1645 H1639 0.930 . S
C1645 C1641 1.400 . S
C1645 C1644 1.385 . S
C1646 C1644 1.478 . S
C1646 C1648 1.381 . S
C1646 C1652 1.383 . S
C1647 C1643 1.495 . S
C1647 H1653 0.959 . S
C1647 H1654 0.961 . S
C1647 H1655 0.960 . S
C1648 C1646 1.381 . S
C1648 C1649 1.394 . S
C1648 H1656 0.930 . S
C1649 C1648 1.394 . S
C1649 C1650 1.383 . S
C1649 H1657 0.929 . S
C1650 C1649 1.383 . S
C1650 C1651 1.377 . S
C1651 H1635 0.930 . S
C1651 C1650 1.377 . S
C1651 C1652 1.379 . S
C1652 H1636 0.931 . S
C1652 C1646 1.383 . S
C1652 C1651 1.379 . S
H1653 C1647 0.959 . S
H1654 C1647 0.961 . S
H1655 C1647 0.960 . S
H1656 C1648 0.930 . S
H1657 C1649 0.929 . S
H1658 C1666 0.929 . S
H1659 C1668 0.930 . S
H1660 C1670 0.930 . S
H1661 C1673 0.929 . S
H1662 C1676 0.930 . S
H1663 C1678 0.960 . S
H1664 C1678 0.960 . S
H1665 C1678 0.960 . S
C1666 H1658 0.929 . S
C1666 C1667 1.377 . S
C1666 C1668 1.384 . S
C1667 C1666 1.377 . S
C1667 C1673 1.390 . S
C1668 H1659 0.930 . S
C1668 C1666 1.384 . S
C1668 C1669 1.372 . S
C1669 C1668 1.372 . S
C1669 C1670 1.400 . S
C1669 C1674 1.490 . S
C1670 H1660 0.930 . S
C1670 C1669 1.400 . S
C1670 C1673 1.386 . S
H1671 C1687 0.930 . S
H1672 C1688 0.931 . S
C1673 H1661 0.929 . S
C1673 C1667 1.390 . S
C1673 C1670 1.386 . S
C1674 C1669 1.490 . S
C1674 C1676 1.395 . S
C1674 C1677 1.403 . S
H1675 C1681 0.930 . S
C1676 H1662 0.930 . S
C1676 C1674 1.395 . S
C1676 C1679 1.403 . S
C1677 C1674 1.403 . S
C1677 C1678 1.524 . S
C1677 C1681 1.400 . S
C1678 H1663 0.960 . S
C1678 H1664 0.960 . S
C1678 H1665 0.960 . S
C1678 C1677 1.524 . S
C1679 C1676 1.403 . S
C1679 C1680 1.392 . S
C1679 C1683 1.495 . S
C1680 C1679 1.392 . S
C1680 C1681 1.385 . S
C1680 C1682 1.478 . S
C1681 H1675 0.930 . S
C1681 C1677 1.400 . S
C1681 C1680 1.385 . S
C1682 C1680 1.478 . S
C1682 C1684 1.381 . S
C1682 C1688 1.383 . S
C1683 C1679 1.495 . S
C1683 H1689 0.959 . S
C1683 H1690 0.961 . S
C1683 H1691 0.960 . S
C1684 C1682 1.381 . S
C1684 C1685 1.394 . S
C1684 H1692 0.930 . S
C1685 C1684 1.394 . S
C1685 C1686 1.383 . S
C1685 H1693 0.929 . S
C1686 C1685 1.383 . S
C1686 C1687 1.377 . S
C1687 H1671 0.930 . S
C1687 C1686 1.377 . S
C1687 C1688 1.379 . S
C1688 H1672 0.931 . S
C1688 C1682 1.383 . S
C1688 C1687 1.379 . S
H1689 C1683 0.959 . S
H1690 C1683 0.961 . S
H1691 C1683 0.960 . S
H1692 C1684 0.930 . S
H1693 C1685 0.929 . S
H1694 C1702 0.929 . S
H1695 C1704 0.930 . S
H1696 C1706 0.930 . S
H1697 C1709 0.929 . S
H1698 C1712 0.930 . S
H1699 C1714 0.960 . S
H1700 C1714 0.960 . S
H1701 C1714 0.960 . S
C1702 H1694 0.929 . S
C1702 C1703 1.377 . S
C1702 C1704 1.384 . S
C1703 C1702 1.377 . S
C1703 C1709 1.390 . S
C1704 H1695 0.930 . S
C1704 C1702 1.384 . S
C1704 C1705 1.372 . S
C1705 C1704 1.372 . S
C1705 C1706 1.400 . S
C1705 C1710 1.490 . S
C1706 H1696 0.930 . S
C1706 C1705 1.400 . S
C1706 C1709 1.386 . S
H1707 C1723 0.930 . S
H1708 C1724 0.931 . S
C1709 H1697 0.929 . S
C1709 C1703 1.390 . S
C1709 C1706 1.386 . S
C1710 C1705 1.490 . S
C1710 C1712 1.395 . S
C1710 C1713 1.403 . S
H1711 C1717 0.930 . S
C1712 H1698 0.930 . S
C1712 C1710 1.395 . S
C1712 C1715 1.403 . S
C1713 C1710 1.403 . S
C1713 C1714 1.524 . S
C1713 C1717 1.400 . S
C1714 H1699 0.960 . S
C1714 H1700 0.960 . S
C1714 H1701 0.960 . S
C1714 C1713 1.524 . S
C1715 C1712 1.403 . S
C1715 C1716 1.392 . S
C1715 C1719 1.495 . S
C1716 C1715 1.392 . S
C1716 C1717 1.385 . S
C1716 C1718 1.478 . S
C1717 H1711 0.930 . S
C1717 C1713 1.400 . S
C1717 C1716 1.385 . S
C1718 C1716 1.478 . S
C1718 C1720 1.381 . S
C1718 C1724 1.383 . S
C1719 C1715 1.495 . S
C1719 H1725 0.959 . S
C1719 H1726 0.961 . S
C1719 H1727 0.960 . S
C1720 C1718 1.381 . S
C1720 C1721 1.394 . S
C1720 H1728 0.930 . S
C1721 C1720 1.394 . S
C1721 C1722 1.383 . S
C1721 H1729 0.929 . S
C1722 C1721 1.383 . S
C1722 C1723 1.377 . S
C1723 H1707 0.930 . S
C1723 C1722 1.377 . S
C1723 C1724 1.379 . S
C1724 H1708 0.931 . S
C1724 C1718 1.383 . S
C1724 C1723 1.379 . S
H1725 C1719 0.959 . S
H1726 C1719 0.961 . S
H1727 C1719 0.960 . S
H1728 C1720 0.930 . S
H1729 C1721 0.929 . S
H1730 C1738 0.929 . S
H1731 C1740 0.930 . S
H1732 C1742 0.930 . S
H1733 C1745 0.929 . S
H1734 C1748 0.930 . S
H1735 C1750 0.960 . S
H1736 C1750 0.960 . S
H1737 C1750 0.960 . S
C1738 H1730 0.929 . S
C1738 C1739 1.377 . S
C1738 C1740 1.384 . S
C1739 C1738 1.377 . S
C1739 C1745 1.390 . S
C1740 H1731 0.930 . S
C1740 C1738 1.384 . S
C1740 C1741 1.372 . S
C1741 C1740 1.372 . S
C1741 C1742 1.400 . S
C1741 C1746 1.490 . S
C1742 H1732 0.930 . S
C1742 C1741 1.400 . S
C1742 C1745 1.386 . S
H1743 C1759 0.930 . S
H1744 C1760 0.931 . S
C1745 H1733 0.929 . S
C1745 C1739 1.390 . S
C1745 C1742 1.386 . S
C1746 C1741 1.490 . S
C1746 C1748 1.395 . S
C1746 C1749 1.403 . S
H1747 C1753 0.930 . S
C1748 H1734 0.930 . S
C1748 C1746 1.395 . S
C1748 C1751 1.403 . S
C1749 C1746 1.403 . S
C1749 C1750 1.524 . S
C1749 C1753 1.400 . S
C1750 H1735 0.960 . S
C1750 H1736 0.960 . S
C1750 H1737 0.960 . S
C1750 C1749 1.524 . S
C1751 C1748 1.403 . S
C1751 C1752 1.392 . S
C1751 C1755 1.495 . S
C1752 C1751 1.392 . S
C1752 C1753 1.385 . S
C1752 C1754 1.478 . S
C1753 H1747 0.930 . S
C1753 C1749 1.400 . S
C1753 C1752 1.385 . S
C1754 C1752 1.478 . S
C1754 C1756 1.381 . S
C1754 C1760 1.383 . S
C1755 C1751 1.495 . S
C1755 H1761 0.959 . S
C1755 H1762 0.961 . S
C1755 H1763 0.960 . S
C1756 C1754 1.381 . S
C1756 C1757 1.394 . S
C1756 H1764 0.930 . S
C1757 C1756 1.394 . S
C1757 C1758 1.383 . S
C1757 H1765 0.929 . S
C1758 C1757 1.383 . S
C1758 C1759 1.377 . S
C1759 H1743 0.930 . S
C1759 C1758 1.377 . S
C1759 C1760 1.379 . S
C1760 H1744 0.931 . S
C1760 C1754 1.383 . S
C1760 C1759 1.379 . S
H1761 C1755 0.959 . S
H1762 C1755 0.961 . S
H1763 C1755 0.960 . S
H1764 C1756 0.930 . S
H1765 C1757 0.929 . S
H1766 C1774 0.929 . S
H1767 C1776 0.930 . S
H1768 C1778 0.930 . S
H1769 C1781 0.929 . S
H1770 C1784 0.930 . S
H1771 C1786 0.960 . S
H1772 C1786 0.960 . S
H1773 C1786 0.960 . S
C1774 H1766 0.929 . S
C1774 C1775 1.377 . S
C1774 C1776 1.384 . S
C1775 C1774 1.377 . S
C1775 C1781 1.390 . S
C1776 H1767 0.930 . S
C1776 C1774 1.384 . S
C1776 C1777 1.372 . S
C1777 C1776 1.372 . S
C1777 C1778 1.400 . S
C1777 C1782 1.490 . S
C1778 H1768 0.930 . S
C1778 C1777 1.400 . S
C1778 C1781 1.386 . S
H1779 C1795 0.930 . S
H1780 C1796 0.931 . S
C1781 H1769 0.929 . S
C1781 C1775 1.390 . S
C1781 C1778 1.386 . S
C1782 C1777 1.490 . S
C1782 C1784 1.395 . S
C1782 C1785 1.403 . S
H1783 C1789 0.930 . S
C1784 H1770 0.930 . S
C1784 C1782 1.395 . S
C1784 C1787 1.403 . S
C1785 C1782 1.403 . S
C1785 C1786 1.524 . S
C1785 C1789 1.400 . S
C1786 H1771 0.960 . S
C1786 H1772 0.960 . S
C1786 H1773 0.960 . S
C1786 C1785 1.524 . S
C1787 C1784 1.403 . S
C1787 C1788 1.392 . S
C1787 C1791 1.495 . S
C1788 C1787 1.392 . S
C1788 C1789 1.385 . S
C1788 C1790 1.478 . S
C1789 H1783 0.930 . S
C1789 C1785 1.400 . S
C1789 C1788 1.385 . S
C1790 C1788 1.478 . S
C1790 C1792 1.381 . S
C1790 C1796 1.383 . S
C1791 C1787 1.495 . S
C1791 H1797 0.959 . S
C1791 H1798 0.961 . S
C1791 H1799 0.960 . S
C1792 C1790 1.381 . S
C1792 C1793 1.394 . S
C1792 H1800 0.930 . S
C1793 C1792 1.394 . S
C1793 C1794 1.383 . S
C1793 H1801 0.929 . S
C1794 C1793 1.383 . S
C1794 C1795 1.377 . S
C1795 H1779 0.930 . S
C1795 C1794 1.377 . S
C1795 C1796 1.379 . S
C1796 H1780 0.931 . S
C1796 C1790 1.383 . S
C1796 C1795 1.379 . S
H1797 C1791 0.959 . S
H1798 C1791 0.961 . S
H1799 C1791 0.960 . S
H1800 C1792 0.930 . S
H1801 C1793 0.929 . S
H1802 C1810 0.929 . S
H1803 C1812 0.930 . S
H1804 C1814 0.930 . S
H1805 C1817 0.929 . S
H1806 C1820 0.930 . S
H1807 C1822 0.960 . S
H1808 C1822 0.960 . S
H1809 C1822 0.960 . S
C1810 H1802 0.929 . S
C1810 C1811 1.377 . S
C1810 C1812 1.384 . S
C1811 C1810 1.377 . S
C1811 C1817 1.390 . S
C1812 H1803 0.930 . S
C1812 C1810 1.384 . S
C1812 C1813 1.372 . S
C1813 C1812 1.372 . S
C1813 C1814 1.400 . S
C1813 C1818 1.490 . S
C1814 H1804 0.930 . S
C1814 C1813 1.400 . S
C1814 C1817 1.386 . S
H1815 C1831 0.930 . S
H1816 C1832 0.931 . S
C1817 H1805 0.929 . S
C1817 C1811 1.390 . S
C1817 C1814 1.386 . S
C1818 C1813 1.490 . S
C1818 C1820 1.395 . S
C1818 C1821 1.403 . S
H1819 C1825 0.930 . S
C1820 H1806 0.930 . S
C1820 C1818 1.395 . S
C1820 C1823 1.403 . S
C1821 C1818 1.403 . S
C1821 C1822 1.524 . S
C1821 C1825 1.400 . S
C1822 H1807 0.960 . S
C1822 H1808 0.960 . S
C1822 H1809 0.960 . S
C1822 C1821 1.524 . S
C1823 C1820 1.403 . S
C1823 C1824 1.392 . S
C1823 C1827 1.495 . S
C1824 C1823 1.392 . S
C1824 C1825 1.385 . S
C1824 C1826 1.478 . S
C1825 H1819 0.930 . S
C1825 C1821 1.400 . S
C1825 C1824 1.385 . S
C1826 C1824 1.478 . S
C1826 C1828 1.381 . S
C1826 C1832 1.383 . S
C1827 C1823 1.495 . S
C1827 H1833 0.959 . S
C1827 H1834 0.961 . S
C1827 H1835 0.960 . S
C1828 C1826 1.381 . S
C1828 C1829 1.394 . S
C1828 H1836 0.930 . S
C1829 C1828 1.394 . S
C1829 C1830 1.383 . S
C1829 H1837 0.929 . S
C1830 C1829 1.383 . S
C1830 C1831 1.377 . S
C1831 H1815 0.930 . S
C1831 C1830 1.377 . S
C1831 C1832 1.379 . S
C1832 H1816 0.931 . S
C1832 C1826 1.383 . S
C1832 C1831 1.379 . S
H1833 C1827 0.959 . S
H1834 C1827 0.961 . S
H1835 C1827 0.960 . S
H1836 C1828 0.930 . S
H1837 C1829 0.929 . S
H1838 C1846 0.929 . S
H1839 C1848 0.930 . S
H1840 C1850 0.930 . S
H1841 C1853 0.929 . S
H1842 C1856 0.930 . S
H1843 C1858 0.960 . S
H1844 C1858 0.960 . S
H1845 C1858 0.960 . S
C1846 H1838 0.929 . S
C1846 C1847 1.377 . S
C1846 C1848 1.384 . S
C1847 C1846 1.377 . S
C1847 C1853 1.390 . S
C1848 H1839 0.930 . S
C1848 C1846 1.384 . S
C1848 C1849 1.372 . S
C1849 C1848 1.372 . S
C1849 C1850 1.400 . S
C1849 C1854 1.490 . S
C1850 H1840 0.930 . S
C1850 C1849 1.400 . S
C1850 C1853 1.386 . S
H1851 C1867 0.930 . S
H1852 C1868 0.931 . S
C1853 H1841 0.929 . S
C1853 C1847 1.390 . S
C1853 C1850 1.386 . S
C1854 C1849 1.490 . S
C1854 C1856 1.395 . S
C1854 C1857 1.403 . S
H1855 C1861 0.930 . S
C1856 H1842 0.930 . S
C1856 C1854 1.395 . S
C1856 C1859 1.403 . S
C1857 C1854 1.403 . S
C1857 C1858 1.524 . S
C1857 C1861 1.400 . S
C1858 H1843 0.960 . S
C1858 H1844 0.960 . S
C1858 H1845 0.960 . S
C1858 C1857 1.524 . S
C1859 C1856 1.403 . S
C1859 C1860 1.392 . S
C1859 C1863 1.495 . S
C1860 C1859 1.392 . S
C1860 C1861 1.385 . S
C1860 C1862 1.478 . S
C1861 H1855 0.930 . S
C1861 C1857 1.400 . S
C1861 C1860 1.385 . S
C1862 C1860 1.478 . S
C1862 C1864 1.381 . S
C1862 C1868 1.383 . S
C1863 C1859 1.495 . S
C1863 H1869 0.959 . S
C1863 H1870 0.961 . S
C1863 H1871 0.960 . S
C1864 C1862 1.381 . S
C1864 C1865 1.394 . S
C1864 H1872 0.930 . S
C1865 C1864 1.394 . S
C1865 C1866 1.383 . S
C1865 H1873 0.929 . S
C1866 C1865 1.383 . S
C1866 C1867 1.377 . S
C1867 H1851 0.930 . S
C1867 C1866 1.377 . S
C1867 C1868 1.379 . S
C1868 H1852 0.931 . S
C1868 C1862 1.383 . S
C1868 C1867 1.379 . S
H1869 C1863 0.959 . S
H1870 C1863 0.961 . S
H1871 C1863 0.960 . S
H1872 C1864 0.930 . S
H1873 C1865 0.929 . S
H1874 C1882 0.929 . S
H1875 C1884 0.930 . S
H1876 C1886 0.930 . S
H1877 C1889 0.929 . S
H1878 C1892 0.930 . S
H1879 C1894 0.960 . S
H1880 C1894 0.960 . S
H1881 C1894 0.960 . S
C1882 H1874 0.929 . S
C1882 C1883 1.377 . S
C1882 C1884 1.384 . S
C1883 C1882 1.377 . S
C1883 C1889 1.390 . S
C1884 H1875 0.930 . S
C1884 C1882 1.384 . S
C1884 C1885 1.372 . S
C1885 C1884 1.372 . S
C1885 C1886 1.400 . S
C1885 C1890 1.490 . S
C1886 H1876 0.930 . S
C1886 C1885 1.400 . S
C1886 C1889 1.386 . S
H1887 C1903 0.930 . S
H1888 C1904 0.931 . S
C1889 H1877 0.929 . S
C1889 C1883 1.390 . S
C1889 C1886 1.386 . S
C1890 C1885 1.490 . S
C1890 C1892 1.395 . S
C1890 C1893 1.403 . S
H1891 C1897 0.930 . S
C1892 H1878 0.930 . S
C1892 C1890 1.395 . S
C1892 C1895 1.403 . S
C1893 C1890 1.403 . S
C1893 C1894 1.524 . S
C1893 C1897 1.400 . S
C1894 H1879 0.960 . S
C1894 H1880 0.960 . S
C1894 H1881 0.960 . S
C1894 C1893 1.524 . S
C1895 C1892 1.403 . S
C1895 C1896 1.392 . S
C1895 C1899 1.495 . S
C1896 C1895 1.392 . S
C1896 C1897 1.385 . S
C1896 C1898 1.478 . S
C1897 H1891 0.930 . S
C1897 C1893 1.400 . S
C1897 C1896 1.385 . S
C1898 C1896 1.478 . S
C1898 C1900 1.381 . S
C1898 C1904 1.383 . S
C1899 C1895 1.495 . S
C1899 H1905 0.959 . S
C1899 H1906 0.961 . S
C1899 H1907 0.960 . S
C1900 C1898 1.381 . S
C1900 C1901 1.394 . S
C1900 H1908 0.930 . S
C1901 C1900 1.394 . S
C1901 C1902 1.383 . S
C1901 H1909 0.929 . S
C1902 C1901 1.383 . S
C1902 C1903 1.377 . S
C1903 H1887 0.930 . S
C1903 C1902 1.377 . S
C1903 C1904 1.379 . S
C1904 H1888 0.931 . S
C1904 C1898 1.383 . S
C1904 C1903 1.379 . S
H1905 C1899 0.959 . S
H1906 C1899 0.961 . S
H1907 C1899 0.960 . S
H1908 C1900 0.930 . S
H1909 C1901 0.929 . S
H1910 C1918 0.929 . S
H1911 C1920 0.930 . S
H1912 C1922 0.930 . S
H1913 C1925 0.929 . S
H1914 C1928 0.930 . S
H1915 C1930 0.960 . S
H1916 C1930 0.960 . S
H1917 C1930 0.960 . S
C1918 H1910 0.929 . S
C1918 C1919 1.377 . S
C1918 C1920 1.384 . S
C1919 C1918 1.377 . S
C1919 C1925 1.390 . S
C1920 H1911 0.930 . S
C1920 C1918 1.384 . S
C1920 C1921 1.372 . S
C1921 C1920 1.372 . S
C1921 C1922 1.400 . S
C1921 C1926 1.490 . S
C1922 H1912 0.930 . S
C1922 C1921 1.400 . S
C1922 C1925 1.386 . S
H1923 C1939 0.930 . S
H1924 C1940 0.931 . S
C1925 H1913 0.929 . S
C1925 C1919 1.390 . S
C1925 C1922 1.386 . S
C1926 C1921 1.490 . S
C1926 C1928 1.395 . S
C1926 C1929 1.403 . S
H1927 C1933 0.930 . S
C1928 H1914 0.930 . S
C1928 C1926 1.395 . S
C1928 C1931 1.403 . S
C1929 C1926 1.403 . S
C1929 C1930 1.524 . S
C1929 C1933 1.400 . S
C1930 H1915 0.960 . S
C1930 H1916 0.960 . S
C1930 H1917 0.960 . S
C1930 C1929 1.524 . S
C1931 C1928 1.403 . S
C1931 C1932 1.392 . S
C1931 C1935 1.495 . S
C1932 C1931 1.392 . S
C1932 C1933 1.385 . S
C1932 C1934 1.478 . S
C1933 H1927 0.930 . S
C1933 C1929 1.400 . S
C1933 C1932 1.385 . S
C1934 C1932 1.478 . S
C1934 C1936 1.381 . S
C1934 C1940 1.383 . S
C1935 C1931 1.495 . S
C1935 H1941 0.959 . S
C1935 H1942 0.961 . S
C1935 H1943 0.960 . S
C1936 C1934 1.381 . S
C1936 C1937 1.394 . S
C1936 H1944 0.930 . S
C1937 C1936 1.394 . S
C1937 C1938 1.383 . S
C1937 H1945 0.929 . S
C1938 C1937 1.383 . S
C1938 C1939 1.377 . S
C1939 H1923 0.930 . S
C1939 C1938 1.377 . S
C1939 C1940 1.379 . S
C1940 H1924 0.931 . S
C1940 C1934 1.383 . S
C1940 C1939 1.379 . S
H1941 C1935 0.959 . S
H1942 C1935 0.961 . S
H1943 C1935 0.960 . S
H1944 C1936 0.930 . S
H1945 C1937 0.929 . S
H1946 C1954 0.929 . S
H1947 C1956 0.930 . S
H1948 C1958 0.930 . S
H1949 C1961 0.929 . S
H1950 C1964 0.930 . S
H1951 C1966 0.960 . S
H1952 C1966 0.960 . S
H1953 C1966 0.960 . S
C1954 H1946 0.929 . S
C1954 C1955 1.377 . S
C1954 C1956 1.384 . S
C1955 C1954 1.377 . S
C1955 C1961 1.390 . S
C1956 H1947 0.930 . S
C1956 C1954 1.384 . S
C1956 C1957 1.372 . S
C1957 C1956 1.372 . S
C1957 C1958 1.400 . S
C1957 C1962 1.490 . S
C1958 H1948 0.930 . S
C1958 C1957 1.400 . S
C1958 C1961 1.386 . S
H1959 C1975 0.930 . S
H1960 C1976 0.931 . S
C1961 H1949 0.929 . S
C1961 C1955 1.390 . S
C1961 C1958 1.386 . S
C1962 C1957 1.490 . S
C1962 C1964 1.395 . S
C1962 C1965 1.403 . S
H1963 C1969 0.930 . S
C1964 H1950 0.930 . S
C1964 C1962 1.395 . S
C1964 C1967 1.403 . S
C1965 C1962 1.403 . S
C1965 C1966 1.524 . S
C1965 C1969 1.400 . S
C1966 H1951 0.960 . S
C1966 H1952 0.960 . S
C1966 H1953 0.960 . S
C1966 C1965 1.524 . S
C1967 C1964 1.403 . S
C1967 C1968 1.392 . S
C1967 C1971 1.495 . S
C1968 C1967 1.392 . S
C1968 C1969 1.385 . S
C1968 C1970 1.478 . S
C1969 H1963 0.930 . S
C1969 C1965 1.400 . S
C1969 C1968 1.385 . S
C1970 C1968 1.478 . S
C1970 C1972 1.381 . S
C1970 C1976 1.383 . S
C1971 C1967 1.495 . S
C1971 H1977 0.959 . S
C1971 H1978 0.961 . S
C1971 H1979 0.960 . S
C1972 C1970 1.381 . S
C1972 C1973 1.394 . S
C1972 H1980 0.930 . S
C1973 C1972 1.394 . S
C1973 C1974 1.383 . S
C1973 H1981 0.929 . S
C1974 C1973 1.383 . S
C1974 C1975 1.377 . S
C1975 H1959 0.930 . S
C1975 C1974 1.377 . S
C1975 C1976 1.379 . S
C1976 H1960 0.931 . S
C1976 C1970 1.383 . S
C1976 C1975 1.379 . S
H1977 C1971 0.959 . S
H1978 C1971 0.961 . S
H1979 C1971 0.960 . S
H1980 C1972 0.930 . S
H1981 C1973 0.929 . S
H1982 C1990 0.929 . S
H1983 C1992 0.930 . S
H1984 C1994 0.930 . S
H1985 C1997 0.929 . S
H1986 C2000 0.930 . S
H1987 C2002 0.960 . S
H1988 C2002 0.960 . S
H1989 C2002 0.960 . S
C1990 H1982 0.929 . S
C1990 C1991 1.377 . S
C1990 C1992 1.384 . S
C1991 C1990 1.377 . S
C1991 C1997 1.390 . S
C1992 H1983 0.930 . S
C1992 C1990 1.384 . S
C1992 C1993 1.372 . S
C1993 C1992 1.372 . S
C1993 C1994 1.400 . S
C1993 C1998 1.490 . S
C1994 H1984 0.930 . S
C1994 C1993 1.400 . S
C1994 C1997 1.386 . S
H1995 C2011 0.930 . S
H1996 C2012 0.931 . S
C1997 H1985 0.929 . S
C1997 C1991 1.390 . S
C1997 C1994 1.386 . S
C1998 C1993 1.490 . S
C1998 C2000 1.395 . S
C1998 C2001 1.403 . S
H1999 C2005 0.930 . S
C2000 H1986 0.930 . S
C2000 C1998 1.395 . S
C2000 C2003 1.403 . S
C2001 C1998 1.403 . S
C2001 C2002 1.524 . S
C2001 C2005 1.400 . S
C2002 H1987 0.960 . S
C2002 H1988 0.960 . S
C2002 H1989 0.960 . S
C2002 C2001 1.524 . S
C2003 C2000 1.403 . S
C2003 C2004 1.392 . S
C2003 C2007 1.495 . S
C2004 C2003 1.392 . S
C2004 C2005 1.385 . S
C2004 C2006 1.478 . S
C2005 H1999 0.930 . S
C2005 C2001 1.400 . S
C2005 C2004 1.385 . S
C2006 C2004 1.478 . S
C2006 C2008 1.381 . S
C2006 C2012 1.383 . S
C2007 C2003 1.495 . S
C2007 H2013 0.959 . S
C2007 H2014 0.961 . S
C2007 H2015 0.960 . S
C2008 C2006 1.381 . S
C2008 C2009 1.394 . S
C2008 H2016 0.930 . S
C2009 C2008 1.394 . S
C2009 C2010 1.383 . S
C2009 H2017 0.940 . S
C2010 C2009 1.383 . S
C2010 C2011 1.377 . S
C2011 H1995 0.930 . S
C2011 C2010 1.377 . S
C2011 C2012 1.379 . S
C2012 H1996 0.931 . S
C2012 C2006 1.383 . S
C2012 C2011 1.379 . S
H2013 C2007 0.959 . S
H2014 C2007 0.961 . S
H2015 C2007 0.960 . S
H2016 C2008 0.930 . S
H2017 C2009 0.940 . S
H2018 C2026 0.929 . S
H2019 C2028 0.930 . S
H2020 C2030 0.930 . S
H2021 C2033 0.929 . S
H2022 C2036 0.930 . S
H2023 C2038 0.960 . S
H2024 C2038 0.960 . S
H2025 C2038 0.960 . S
C2026 H2018 0.929 . S
C2026 C2027 1.377 . S
C2026 C2028 1.384 . S
C2027 C2026 1.377 . S
C2027 C2033 1.390 . S
C2028 H2019 0.930 . S
C2028 C2026 1.384 . S
C2028 C2029 1.372 . S
C2029 C2028 1.372 . S
C2029 C2030 1.400 . S
C2029 C2034 1.490 . S
C2030 H2020 0.930 . S
C2030 C2029 1.400 . S
C2030 C2033 1.386 . S
H2031 C2047 0.930 . S
H2032 C2048 0.931 . S
C2033 H2021 0.929 . S
C2033 C2027 1.390 . S
C2033 C2030 1.386 . S
C2034 C2029 1.490 . S
C2034 C2036 1.395 . S
C2034 C2037 1.403 . S
H2035 C2041 0.930 . S
C2036 H2022 0.930 . S
C2036 C2034 1.395 . S
C2036 C2039 1.403 . S
C2037 C2034 1.403 . S
C2037 C2038 1.524 . S
C2037 C2041 1.400 . S
C2038 H2023 0.960 . S
C2038 H2024 0.960 . S
C2038 H2025 0.960 . S
C2038 C2037 1.524 . S
C2039 C2036 1.403 . S
C2039 C2040 1.392 . S
C2039 C2043 1.495 . S
C2040 C2039 1.392 . S
C2040 C2041 1.385 . S
C2040 C2042 1.478 . S
C2041 H2035 0.930 . S
C2041 C2037 1.400 . S
C2041 C2040 1.385 . S
C2042 C2040 1.478 . S
C2042 C2044 1.381 . S
C2042 C2048 1.383 . S
C2043 C2039 1.495 . S
C2043 H2049 0.959 . S
C2043 H2050 0.961 . S
C2043 H2051 0.960 . S
C2044 C2042 1.381 . S
C2044 C2045 1.394 . S
C2044 H2052 0.930 . S
C2045 C2044 1.394 . S
C2045 C2046 1.383 . S
C2045 H2053 0.929 . S
C2046 C2045 1.383 . S
C2046 C2047 1.377 . S
C2047 H2031 0.930 . S
C2047 C2046 1.377 . S
C2047 C2048 1.379 . S
C2048 H2032 0.931 . S
C2048 C2042 1.383 . S
C2048 C2047 1.379 . S
H2049 C2043 0.959 . S
H2050 C2043 0.961 . S
H2051 C2043 0.960 . S
H2052 C2044 0.930 . S
H2053 C2045 0.929 . S
H2054 C2062 0.929 . S
H2055 C2064 0.930 . S
H2056 C2066 0.930 . S
H2057 C2069 0.929 . S
H2058 C2072 0.930 . S
H2059 C2074 0.960 . S
H2060 C2074 0.960 . S
H2061 C2074 0.960 . S
C2062 H2054 0.929 . S
C2062 C2063 1.377 . S
C2062 C2064 1.384 . S
C2063 C2062 1.377 . S
C2063 C2069 1.390 . S
C2064 H2055 0.930 . S
C2064 C2062 1.384 . S
C2064 C2065 1.372 . S
C2065 C2064 1.372 . S
C2065 C2066 1.400 . S
C2065 C2070 1.490 . S
C2066 H2056 0.930 . S
C2066 C2065 1.400 . S
C2066 C2069 1.386 . S
H2067 C2083 0.930 . S
H2068 C2084 0.931 . S
C2069 H2057 0.929 . S
C2069 C2063 1.390 . S
C2069 C2066 1.386 . S
C2070 C2065 1.490 . S
C2070 C2072 1.395 . S
C2070 C2073 1.403 . S
H2071 C2077 0.930 . S
C2072 H2058 0.930 . S
C2072 C2070 1.395 . S
C2072 C2075 1.403 . S
C2073 C2070 1.403 . S
C2073 C2074 1.524 . S
C2073 C2077 1.400 . S
C2074 H2059 0.960 . S
C2074 H2060 0.960 . S
C2074 H2061 0.960 . S
C2074 C2073 1.524 . S
C2075 C2072 1.403 . S
C2075 C2076 1.392 . S
C2075 C2079 1.495 . S
C2076 C2075 1.392 . S
C2076 C2077 1.385 . S
C2076 C2078 1.478 . S
C2077 H2071 0.930 . S
C2077 C2073 1.400 . S
C2077 C2076 1.385 . S
C2078 C2076 1.478 . S
C2078 C2080 1.381 . S
C2078 C2084 1.383 . S
C2079 C2075 1.495 . S
C2079 H2085 0.959 . S
C2079 H2086 0.961 . S
C2079 H2087 0.960 . S
C2080 C2078 1.381 . S
C2080 C2081 1.394 . S
C2080 H2088 0.930 . S
C2081 C2080 1.394 . S
C2081 C2082 1.383 . S
C2081 H2089 0.929 . S
C2082 C2081 1.383 . S
C2082 C2083 1.377 . S
C2083 H2067 0.930 . S
C2083 C2082 1.377 . S
C2083 C2084 1.379 . S
C2084 H2068 0.931 . S
C2084 C2078 1.383 . S
C2084 C2083 1.379 . S
H2085 C2079 0.959 . S
H2086 C2079 0.961 . S
H2087 C2079 0.960 . S
H2088 C2080 0.930 . S
H2089 C2081 0.929 . S
H2090 C2098 0.929 . S
H2091 C2100 0.930 . S
H2092 C2102 0.930 . S
H2093 C2105 0.929 . S
H2094 C2108 0.930 . S
H2095 C2110 0.960 . S
H2096 C2110 0.960 . S
H2097 C2110 0.960 . S
C2098 H2090 0.929 . S
C2098 C2099 1.377 . S
C2098 C2100 1.384 . S
C2099 C2098 1.377 . S
C2099 C2105 1.390 . S
C2100 H2091 0.930 . S
C2100 C2098 1.384 . S
C2100 C2101 1.372 . S
C2101 C2100 1.372 . S
C2101 C2102 1.400 . S
C2101 C2106 1.490 . S
C2102 H2092 0.930 . S
C2102 C2101 1.400 . S
C2102 C2105 1.386 . S
H2103 C2119 0.930 . S
H2104 C2120 0.931 . S
C2105 H2093 0.929 . S
C2105 C2099 1.390 . S
C2105 C2102 1.386 . S
C2106 C2101 1.490 . S
C2106 C2108 1.395 . S
C2106 C2109 1.403 . S
H2107 C2113 0.930 . S
C2108 H2094 0.930 . S
C2108 C2106 1.395 . S
C2108 C2111 1.403 . S
C2109 C2106 1.403 . S
C2109 C2110 1.524 . S
C2109 C2113 1.400 . S
C2110 H2095 0.960 . S
C2110 H2096 0.960 . S
C2110 H2097 0.960 . S
C2110 C2109 1.524 . S
C2111 C2108 1.403 . S
C2111 C2112 1.392 . S
C2111 C2115 1.495 . S
C2112 C2111 1.392 . S
C2112 C2113 1.385 . S
C2112 C2114 1.478 . S
C2113 H2107 0.930 . S
C2113 C2109 1.400 . S
C2113 C2112 1.385 . S
C2114 C2112 1.478 . S
C2114 C2116 1.381 . S
C2114 C2120 1.383 . S
C2115 C2111 1.495 . S
C2115 H2121 0.959 . S
C2115 H2122 0.961 . S
C2115 H2123 0.960 . S
C2116 C2114 1.381 . S
C2116 C2117 1.394 . S
C2116 H2124 0.930 . S
C2117 C2116 1.394 . S
C2117 C2118 1.383 . S
C2117 H2125 0.929 . S
C2118 C2117 1.383 . S
C2118 C2119 1.377 . S
C2119 H2103 0.930 . S
C2119 C2118 1.377 . S
C2119 C2120 1.379 . S
C2120 H2104 0.931 . S
C2120 C2114 1.383 . S
C2120 C2119 1.379 . S
H2121 C2115 0.959 . S
H2122 C2115 0.961 . S
H2123 C2115 0.960 . S
H2124 C2116 0.930 . S
H2125 C2117 0.929 . S
H2126 C2134 0.929 . S
H2127 C2136 0.930 . S
H2128 C2138 0.930 . S
H2129 C2141 0.929 . S
H2130 C2144 0.930 . S
H2131 C2146 0.960 . S
H2132 C2146 0.960 . S
H2133 C2146 0.960 . S
C2134 H2126 0.929 . S
C2134 C2135 1.377 . S
C2134 C2136 1.384 . S
C2135 C2134 1.377 . S
C2135 C2141 1.390 . S
C2136 H2127 0.930 . S
C2136 C2134 1.384 . S
C2136 C2137 1.372 . S
C2137 C2136 1.372 . S
C2137 C2138 1.400 . S
C2137 C2142 1.490 . S
C2138 H2128 0.930 . S
C2138 C2137 1.400 . S
C2138 C2141 1.386 . S
H2139 C2155 0.930 . S
H2140 C2156 0.931 . S
C2141 H2129 0.929 . S
C2141 C2135 1.390 . S
C2141 C2138 1.386 . S
C2142 C2137 1.490 . S
C2142 C2144 1.395 . S
C2142 C2145 1.403 . S
H2143 C2149 0.930 . S
C2144 H2130 0.930 . S
C2144 C2142 1.395 . S
C2144 C2147 1.403 . S
C2145 C2142 1.403 . S
C2145 C2146 1.524 . S
C2145 C2149 1.400 . S
C2146 H2131 0.960 . S
C2146 H2132 0.960 . S
C2146 H2133 0.960 . S
C2146 C2145 1.524 . S
C2147 C2144 1.403 . S
C2147 C2148 1.392 . S
C2147 C2151 1.495 . S
C2148 C2147 1.392 . S
C2148 C2149 1.385 . S
C2148 C2150 1.478 . S
C2149 H2143 0.930 . S
C2149 C2145 1.400 . S
C2149 C2148 1.385 . S
C2150 C2148 1.478 . S
C2150 C2152 1.381 . S
C2150 C2156 1.383 . S
C2151 C2147 1.495 . S
C2151 H2157 0.959 . S
C2151 H2158 0.961 . S
C2151 H2159 0.960 . S
C2152 C2150 1.381 . S
C2152 C2153 1.394 . S
C2152 H2160 0.930 . S
C2153 C2152 1.394 . S
C2153 C2154 1.383 . S
C2153 H2161 0.929 . S
C2154 C2153 1.383 . S
C2154 C2155 1.377 . S
C2155 H2139 0.930 . S
C2155 C2154 1.377 . S
C2155 C2156 1.379 . S
C2156 H2140 0.931 . S
C2156 C2150 1.383 . S
C2156 C2155 1.379 . S
H2157 C2151 0.959 . S
H2158 C2151 0.961 . S
H2159 C2151 0.960 . S
H2160 C2152 0.930 . S
H2161 C2153 0.929 . S
H2162 C2170 0.929 . S
H2163 C2172 0.930 . S
H2164 C2174 0.930 . S
H2165 C2177 0.929 . S
H2166 C2180 0.930 . S
H2167 C2182 0.960 . S
H2168 C2182 0.960 . S
H2169 C2182 0.960 . S
C2170 H2162 0.929 . S
C2170 C2171 1.377 . S
C2170 C2172 1.384 . S
C2171 C2170 1.377 . S
C2171 C2177 1.390 . S
C2172 H2163 0.930 . S
C2172 C2170 1.384 . S
C2172 C2173 1.372 . S
C2173 C2172 1.372 . S
C2173 C2174 1.400 . S
C2173 C2178 1.490 . S
C2174 H2164 0.930 . S
C2174 C2173 1.400 . S
C2174 C2177 1.386 . S
H2175 C2191 0.930 . S
H2176 C2192 0.931 . S
C2177 H2165 0.929 . S
C2177 C2171 1.390 . S
C2177 C2174 1.386 . S
C2178 C2173 1.490 . S
C2178 C2180 1.395 . S
C2178 C2181 1.403 . S
H2179 C2185 0.930 . S
C2180 H2166 0.930 . S
C2180 C2178 1.395 . S
C2180 C2183 1.403 . S
C2181 C2178 1.403 . S
C2181 C2182 1.524 . S
C2181 C2185 1.400 . S
C2182 H2167 0.960 . S
C2182 H2168 0.960 . S
C2182 H2169 0.960 . S
C2182 C2181 1.524 . S
C2183 C2180 1.403 . S
C2183 C2184 1.392 . S
C2183 C2187 1.495 . S
C2184 C2183 1.392 . S
C2184 C2185 1.385 . S
C2184 C2186 1.478 . S
C2185 H2179 0.930 . S
C2185 C2181 1.400 . S
C2185 C2184 1.385 . S
C2186 C2184 1.478 . S
C2186 C2188 1.381 . S
C2186 C2192 1.383 . S
C2187 C2183 1.495 . S
C2187 H2193 0.959 . S
C2187 H2194 0.961 . S
C2187 H2195 0.960 . S
C2188 C2186 1.381 . S
C2188 C2189 1.394 . S
C2188 H2196 0.930 . S
C2189 C2188 1.394 . S
C2189 C2190 1.383 . S
C2189 H2197 0.929 1_655 S
C2190 C2189 1.383 . S
C2190 C2191 1.377 . S
C2191 H2175 0.930 . S
C2191 C2190 1.377 . S
C2191 C2192 1.379 . S
C2192 H2176 0.931 . S
C2192 C2186 1.383 . S
C2192 C2191 1.379 . S
H2193 C2187 0.959 . S
H2194 C2187 0.961 . S
H2195 C2187 0.960 . S
H2196 C2188 0.930 . S
H2197 C2189 0.929 1_455 S
H2198 C2206 0.929 . S
H2199 C2208 0.930 . S
H2200 C2210 0.930 . S
H2201 C2213 0.929 . S
H2202 C2216 0.930 . S
H2203 C2218 0.960 . S
H2204 C2218 0.960 . S
H2205 C2218 0.960 . S
C2206 H2198 0.929 . S
C2206 C2207 1.377 . S
C2206 C2208 1.384 . S
C2207 C2206 1.377 . S
C2207 C2213 1.390 . S
C2208 H2199 0.930 . S
C2208 C2206 1.384 . S
C2208 C2209 1.372 . S
C2209 C2208 1.372 . S
C2209 C2210 1.400 . S
C2209 C2214 1.490 . S
C2210 H2200 0.930 . S
C2210 C2209 1.400 . S
C2210 C2213 1.386 . S
H2211 C2227 0.930 . S
H2212 C2228 0.931 . S
C2213 H2201 0.929 . S
C2213 C2207 1.390 . S
C2213 C2210 1.386 . S
C2214 C2209 1.490 . S
C2214 C2216 1.395 . S
C2214 C2217 1.403 . S
H2215 C2221 0.930 . S
C2216 H2202 0.930 . S
C2216 C2214 1.395 . S
C2216 C2219 1.403 . S
C2217 C2214 1.403 . S
C2217 C2218 1.524 . S
C2217 C2221 1.400 . S
C2218 H2203 0.960 . S
C2218 H2204 0.960 . S
C2218 H2205 0.960 . S
C2218 C2217 1.524 . S
C2219 C2216 1.403 . S
C2219 C2220 1.392 . S
C2219 C2223 1.495 . S
C2220 C2219 1.392 . S
C2220 C2221 1.385 . S
C2220 C2222 1.478 . S
C2221 H2215 0.930 . S
C2221 C2217 1.400 . S
C2221 C2220 1.385 . S
C2222 C2220 1.478 . S
C2222 C2224 1.381 . S
C2222 C2228 1.383 . S
C2223 C2219 1.495 . S
C2223 H2229 0.959 . S
C2223 H2230 0.961 . S
C2223 H2231 0.960 . S
C2224 C2222 1.381 . S
C2224 C2225 1.394 . S
C2224 H2232 0.930 . S
C2225 C2224 1.394 . S
C2225 C2226 1.383 . S
C2225 H2233 0.929 . S
C2226 C2225 1.383 . S
C2226 C2227 1.377 . S
C2227 H2211 0.930 . S
C2227 C2226 1.377 . S
C2227 C2228 1.379 . S
C2228 H2212 0.931 . S
C2228 C2222 1.383 . S
C2228 C2227 1.379 . S
H2229 C2223 0.959 . S
H2230 C2223 0.961 . S
H2231 C2223 0.960 . S
H2232 C2224 0.930 . S
H2233 C2225 0.929 . S
C534 C331 2.535 . S
C515 C18 2.613 . S
C570 C321 2.468 . S
C551 C59 2.477 . S
C606 C322 0.770 . S
C587 C98 0.757 . S
C623 C125 0.923 . S
C642 C344 0.931 . S
C659 C169 2.419 . S
C678 C347 2.389 . S
C714 C330 0.756 . S
C695 C218 0.785 . S
C731 C255 1.066 . S
C750 C320 1.018 . S
C767 C288 2.622 . S
C786 C338 2.571 . S
C822 C351 0.949 . S
C803 C15 0.947 . S
C839 C45 0.695 . S
C858 C400 0.946 . S
C894 C378 0.490 . S
C875 C95 0.322 . S
C930 C392 0.514 . S
C911 C128 0.505 . S
C947 C178 0.511 . S
C966 C353 0.540 . S
C1002 C406 1.595 1_556 S
C983 C215 1.654 . S
C1019 C249 2.264 . S
C1038 C362 2.169 . S
C1055 C299 2.240 . S
C1074 C383 2.263 . S
C1091 C9 2.687 . S
C1110 C409 2.655 . S
C1127 C175 0.282 . S
C1146 C393 0.499 1_556 S
C1182 C352 1.682 . S
C1163 C209 1.719 . S
C1218 C384 1.127 . S
C1199 C258 1.128 . S
C1235 C285 1.289 . S
C1254 C375 1.284 . S
C1271 C89 3.194 . S
C1290 C382 3.191 . S
C1326 C369 2.653 . S
C1307 C139 2.696 . S
C1343 C48 1.122 . S
C1362 C361 1.106 . S
C1379 C298 2.625 . S
C1398 C424 2.574 . S
C1415 C179 2.416 . S
C1434 C414 2.376 . S
C1470 C415 0.744 . S
C1451 C208 0.788 . S
C1506 C437 1.080 . S
C1487 C245 1.067 . S
C1523 C49 2.475 . S
C1542 C440 2.444 . S
C1578 C423 0.714 . S
C1559 C88 0.757 . S
C1595 C135 0.922 . S
C1614 C413 0.901 . S
C1631 C8 2.614 . S
C1650 C431 2.563 . S
C1667 C295 1.290 . S
C1686 C444 1.233 . S
C1722 C493 0.641 . S
C1703 C165 0.278 . S
C1739 C219 1.718 . S
C1758 C471 1.683 . S
C1775 C248 1.132 . S
C1794 C485 1.043 . S
C1830 C446 1.101 . S
C1811 C58 1.124 . S
C1847 C99 3.193 . S
C1866 C499 3.193 . S
C1902 C455 2.645 . S
C1883 C129 2.691 . S
C1938 C476 2.635 . S
C1919 C19 2.687 . S
C1974 C502 2.250 . S
C1955 C289 2.241 . S
C1991 C55 0.696 . S
C2010 C486 0.935 . S
C2027 C85 0.322 . S
C2046 C445 0.343 . S
C2082 C477 0.579 . S
C2063 C138 0.493 . S
C2099 C5 0.941 . S
C2118 C468 0.934 . S
C2135 C205 1.651 . S
C2154 C475 1.588 . S
C2190 C462 2.191 . S
C2171 C259 2.264 . S
C2226 C454 0.622 . S
C2207 C168 0.501 . S
