# Generated by pormake.
# Topology ocu, (6,8)-cn, num edge types: 1
# Building blocks:
#     Node 0, Type 0, BuildingBlock: CUWYAW_clean_sbu_0, # of connection points: 6
#     Node 1, Type 0, BuildingBlock: CUWYAW_clean_sbu_0, # of connection points: 6
#     Node 2, Type 0, BuildingBlock: CUWYAW_clean_sbu_0, # of connection points: 6
#     Node 3, Type 0, BuildingBlock: CUWYAW_clean_sbu_0, # of connection points: 6
#     Node 4, Type 0, BuildingBlock: CUWYAW_clean_sbu_0, # of connection points: 6
#     Node 5, Type 0, BuildingBlock: CUWYAW_clean_sbu_0, # of connection points: 6
#     Node 6, Type 0, BuildingBlock: CUWYAW_clean_sbu_0, # of connection points: 6
#     Node 7, Type 0, BuildingBlock: CUWYAW_clean_sbu_0, # of connection points: 6
#     Node 8, Type 1, BuildingBlock: AJUNOK_clean_sbu_0, # of connection points: 8
#     Node 9, Type 1, BuildingBlock: AJUNOK_clean_sbu_0, # of connection points: 8
#     Node 10, Type 1, BuildingBlock: AJUNOK_clean_sbu_0, # of connection points: 8
#     Node 11, Type 1, BuildingBlock: AJUNOK_clean_sbu_0, # of connection points: 8
#     Node 12, Type 1, BuildingBlock: AJUNOK_clean_sbu_0, # of connection points: 8
#     Node 13, Type 1, BuildingBlock: AJUNOK_clean_sbu_0, # of connection points: 8
#     Edge 14, Type (0, 1), BuildingBlock: ZUJKAS_clean_linker_0, # of connection points: 2
#     Edge 15, Type (0, 1), BuildingBlock: ZUJKAS_clean_linker_0, # of connection points: 2
#     Edge 16, Type (0, 1), BuildingBlock: ZUJKAS_clean_linker_0, # of connection points: 2
#     Edge 17, Type (0, 1), BuildingBlock: ZUJKAS_clean_linker_0, # of connection points: 2
#     Edge 18, Type (0, 1), BuildingBlock: ZUJKAS_clean_linker_0, # of connection points: 2
#     Edge 19, Type (0, 1), BuildingBlock: ZUJKAS_clean_linker_0, # of connection points: 2
#     Edge 20, Type (0, 1), BuildingBlock: ZUJKAS_clean_linker_0, # of connection points: 2
#     Edge 21, Type (0, 1), BuildingBlock: ZUJKAS_clean_linker_0, # of connection points: 2
#     Edge 22, Type (0, 1), BuildingBlock: ZUJKAS_clean_linker_0, # of connection points: 2
#     Edge 23, Type (0, 1), BuildingBlock: ZUJKAS_clean_linker_0, # of connection points: 2
#     Edge 24, Type (0, 1), BuildingBlock: ZUJKAS_clean_linker_0, # of connection points: 2
#     Edge 25, Type (0, 1), BuildingBlock: ZUJKAS_clean_linker_0, # of connection points: 2
#     Edge 26, Type (0, 1), BuildingBlock: ZUJKAS_clean_linker_0, # of connection points: 2
#     Edge 27, Type (0, 1), BuildingBlock: ZUJKAS_clean_linker_0, # of connection points: 2
#     Edge 28, Type (0, 1), BuildingBlock: ZUJKAS_clean_linker_0, # of connection points: 2
#     Edge 29, Type (0, 1), BuildingBlock: ZUJKAS_clean_linker_0, # of connection points: 2
#     Edge 30, Type (0, 1), BuildingBlock: ZUJKAS_clean_linker_0, # of connection points: 2
#     Edge 31, Type (0, 1), BuildingBlock: ZUJKAS_clean_linker_0, # of connection points: 2
#     Edge 32, Type (0, 1), BuildingBlock: ZUJKAS_clean_linker_0, # of connection points: 2
#     Edge 33, Type (0, 1), BuildingBlock: ZUJKAS_clean_linker_0, # of connection points: 2
#     Edge 34, Type (0, 1), BuildingBlock: ZUJKAS_clean_linker_0, # of connection points: 2
#     Edge 35, Type (0, 1), BuildingBlock: ZUJKAS_clean_linker_0, # of connection points: 2
#     Edge 36, Type (0, 1), BuildingBlock: ZUJKAS_clean_linker_0, # of connection points: 2
#     Edge 37, Type (0, 1), BuildingBlock: ZUJKAS_clean_linker_0, # of connection points: 2
#     Edge 38, Type (0, 1), BuildingBlock: ZUJKAS_clean_linker_0, # of connection points: 2
#     Edge 39, Type (0, 1), BuildingBlock: ZUJKAS_clean_linker_0, # of connection points: 2
#     Edge 40, Type (0, 1), BuildingBlock: ZUJKAS_clean_linker_0, # of connection points: 2
#     Edge 41, Type (0, 1), BuildingBlock: ZUJKAS_clean_linker_0, # of connection points: 2
#     Edge 42, Type (0, 1), BuildingBlock: ZUJKAS_clean_linker_0, # of connection points: 2
#     Edge 43, Type (0, 1), BuildingBlock: ZUJKAS_clean_linker_0, # of connection points: 2
#     Edge 44, Type (0, 1), BuildingBlock: ZUJKAS_clean_linker_0, # of connection points: 2
#     Edge 45, Type (0, 1), BuildingBlock: ZUJKAS_clean_linker_0, # of connection points: 2
#     Edge 46, Type (0, 1), BuildingBlock: ZUJKAS_clean_linker_0, # of connection points: 2
#     Edge 47, Type (0, 1), BuildingBlock: ZUJKAS_clean_linker_0, # of connection points: 2
#     Edge 48, Type (0, 1), BuildingBlock: ZUJKAS_clean_linker_0, # of connection points: 2
#     Edge 49, Type (0, 1), BuildingBlock: ZUJKAS_clean_linker_0, # of connection points: 2
#     Edge 50, Type (0, 1), BuildingBlock: ZUJKAS_clean_linker_0, # of connection points: 2
#     Edge 51, Type (0, 1), BuildingBlock: ZUJKAS_clean_linker_0, # of connection points: 2
#     Edge 52, Type (0, 1), BuildingBlock: ZUJKAS_clean_linker_0, # of connection points: 2
#     Edge 53, Type (0, 1), BuildingBlock: ZUJKAS_clean_linker_0, # of connection points: 2
#     Edge 54, Type (0, 1), BuildingBlock: ZUJKAS_clean_linker_0, # of connection points: 2
#     Edge 55, Type (0, 1), BuildingBlock: ZUJKAS_clean_linker_0, # of connection points: 2
#     Edge 56, Type (0, 1), BuildingBlock: ZUJKAS_clean_linker_0, # of connection points: 2
#     Edge 57, Type (0, 1), BuildingBlock: ZUJKAS_clean_linker_0, # of connection points: 2
#     Edge 58, Type (0, 1), BuildingBlock: ZUJKAS_clean_linker_0, # of connection points: 2
#     Edge 59, Type (0, 1), BuildingBlock: ZUJKAS_clean_linker_0, # of connection points: 2
#     Edge 60, Type (0, 1), BuildingBlock: ZUJKAS_clean_linker_0, # of connection points: 2
#     Edge 61, Type (0, 1), BuildingBlock: ZUJKAS_clean_linker_0, # of connection points: 2
# Relax obj value: 0.155
# Max RMSD: 0.204
# Mean RMSD: 0.170
data_MOF--net-ocu--node1-CUWYAW_clean_sbu_0--node2-AJUNOK_clean_sbu_0--edge1-ZUJKAS_clean_linker_0
_symmetry_space_group_name_H-M    P1
_symmetry_Int_Tables_number       1
_symmetry_cell_setting            triclinic
loop_
_symmetry_equiv_pos_as_xyz
'x, y, z'
_cell_length_a     56.05578
_cell_length_b     55.495049
_cell_length_c     45.509099
_cell_angle_alpha  92.27256
_cell_angle_beta   105.27991
_cell_angle_gamma 106.74275
loop_
_atom_site_label
_atom_site_type_symbol
_atom_site_fract_x
_atom_site_fract_y
_atom_site_fract_z
_atom_type_partial_charge
C0 C 0.30863 0.31316 0.36552 0.0
Eu1 Eu 0.29453 0.29426 0.30846 0.0
C2 C 0.29529 0.32094 0.38575 0.0
C3 C 0.30982 0.33765 0.41244 0.0
C4 C 0.29722 0.3476 0.43009 0.0
C5 C 0.26995 0.34099 0.42107 0.0
C6 C 0.25544 0.32374 0.39459 0.0
C7 C 0.26806 0.31383 0.37695 0.0
C8 C 0.31968 0.31072 0.26491 0.0
C9 C 0.24567 0.30795 0.26113 0.0
C10 C 0.2516 0.24033 0.18755 0.0
Eu11 Eu 0.26467 0.25968 0.24428 0.0
C12 C 0.26457 0.23118 0.1675 0.0
C13 C 0.25651 0.20519 0.15721 0.0
C14 C 0.26982 0.19553 0.14037 0.0
C15 C 0.29113 0.21181 0.13291 0.0
C16 C 0.29879 0.23797 0.1426 0.0
C17 C 0.28575 0.24757 0.15999 0.0
C18 C 0.238 0.24333 0.28621 0.0
C19 C 0.31365 0.24593 0.29187 0.0
O20 O 0.3017 0.28875 0.35665 0.0
O21 O 0.31065 0.32702 0.34315 0.0
O22 O 0.32672 0.32178 0.29277 0.0
O23 O 0.29996 0.29185 0.26248 0.0
O24 O 0.26071 0.31041 0.28988 0.0
O25 O 0.24561 0.29121 0.23933 0.0
O26 O 0.25894 0.26487 0.19607 0.0
O27 O 0.24821 0.22679 0.20988 0.0
O28 O 0.23078 0.23386 0.25768 0.0
O29 O 0.25878 0.26165 0.29068 0.0
O30 O 0.29754 0.24242 0.26355 0.0
O31 O 0.31477 0.26366 0.31315 0.0
H32 H 0.33089 0.34352 0.41916 0.0
H33 H 0.3088 0.36077 0.45051 0.0
H34 H 0.23442 0.31871 0.38685 0.0
H35 H 0.25667 0.30128 0.35596 0.0
H36 H 0.24031 0.1922 0.16294 0.0
H37 H 0.26376 0.17522 0.13392 0.0
H38 H 0.31491 0.25107 0.13689 0.0
H39 H 0.29248 0.26772 0.16779 0.0
C40 C 0.82936 0.32934 0.25858 0.0
Eu41 Eu 0.79438 0.29648 0.27586 0.0
C42 C 0.82279 0.34353 0.23287 0.0
C43 C 0.79663 0.33733 0.21553 0.0
C44 C 0.78949 0.34795 0.18883 0.0
C45 C 0.80855 0.36464 0.17852 0.0
C46 C 0.83472 0.3722 0.19692 0.0
C47 C 0.8418 0.36168 0.22409 0.0
C48 C 0.75981 0.25539 0.23765 0.0
C49 C 0.73892 0.30461 0.25745 0.0
C50 C 0.71744 0.23613 0.32154 0.0
Eu51 Eu 0.75357 0.26494 0.30242 0.0
C52 C 0.72212 0.22213 0.34798 0.0
C53 C 0.71236 0.22569 0.37262 0.0
C54 C 0.71942 0.21467 0.39934 0.0
C55 C 0.73624 0.19979 0.40169 0.0
C56 C 0.74676 0.19727 0.3773 0.0
C57 C 0.7398 0.20828 0.35085 0.0
C58 C 0.78842 0.30602 0.33994 0.0
C59 C 0.80876 0.2553 0.31959 0.0
O60 O 0.82175 0.33456 0.2822 0.0
O61 O 0.82328 0.30492 0.25067 0.0
O62 O 0.76886 0.27705 0.22854 0.0
O63 O 0.76991 0.25606 0.26593 0.0
O64 O 0.76406 0.31613 0.26435 0.0
O65 O 0.72976 0.28225 0.26613 0.0
O66 O 0.72362 0.22874 0.29759 0.0
O67 O 0.72558 0.26077 0.32859 0.0
O68 O 0.78042 0.28421 0.34926 0.0
O69 O 0.7776 0.30508 0.31186 0.0
O70 O 0.78364 0.24489 0.316 0.0
O71 O 0.81797 0.27715 0.30957 0.0
H72 H 0.78171 0.32312 0.22154 0.0
H73 H 0.76928 0.34177 0.17519 0.0
H74 H 0.84997 0.38475 0.18923 0.0
H75 H 0.86208 0.36671 0.23724 0.0
H76 H 0.69941 0.23708 0.37122 0.0
H77 H 0.71106 0.21709 0.41773 0.0
H78 H 0.75931 0.18559 0.3777 0.0
H79 H 0.74828 0.20577 0.33259 0.0
C80 C 0.79554 0.76177 0.36879 0.0
Eu81 Eu 0.78198 0.76517 0.31046 0.0
C82 C 0.8143 0.75173 0.38872 0.0
C83 C 0.81146 0.74573 0.41739 0.0
C84 C 0.82763 0.73371 0.43537 0.0
C85 C 0.84678 0.72758 0.42476 0.0
C86 C 0.84999 0.73424 0.39626 0.0
C87 C 0.83377 0.74622 0.37828 0.0
C88 C 0.73864 0.73659 0.26803 0.0
C89 C 0.80558 0.74054 0.26308 0.0
C90 C 0.75939 0.78784 0.18978 0.0
Eu91 Eu 0.7733 0.78296 0.24772 0.0
C92 C 0.73996 0.79759 0.16992 0.0
C93 C 0.748 0.81636 0.15179 0.0
C94 C 0.73024 0.82703 0.13415 0.0
C95 C 0.70411 0.81888 0.13422 0.0
C96 C 0.69598 0.79989 0.15209 0.0
C97 C 0.71381 0.78946 0.16996 0.0
C98 C 0.81697 0.81101 0.29059 0.0
C99 C 0.74972 0.80738 0.29508 0.0
O100 O 0.80532 0.78202 0.35682 0.0
O101 O 0.77617 0.74474 0.34899 0.0
O102 O 0.75297 0.72707 0.28855 0.0
O103 O 0.74721 0.7604 0.27179 0.0
O104 O 0.80711 0.74534 0.29255 0.0
O105 O 0.79184 0.75115 0.24192 0.0
O106 O 0.75069 0.7667 0.20088 0.0
O107 O 0.77845 0.80484 0.21 0.0
O108 O 0.80272 0.8209 0.27047 0.0
O109 O 0.80803 0.7873 0.28625 0.0
O110 O 0.74776 0.8022 0.2656 0.0
O111 O 0.76385 0.79717 0.31622 0.0
H112 H 0.79635 0.74979 0.42552 0.0
H113 H 0.82497 0.72892 0.45738 0.0
H114 H 0.86437 0.72938 0.38739 0.0
H115 H 0.83593 0.75053 0.35593 0.0
H116 H 0.76813 0.82302 0.15163 0.0
H117 H 0.7369 0.84161 0.12042 0.0
H118 H 0.676 0.79358 0.15286 0.0
H119 H 0.70718 0.77543 0.18413 0.0
C120 C 0.26947 0.84074 0.31549 0.0
Eu121 Eu 0.27119 0.79979 0.28824 0.0
C122 C 0.25192 0.84515 0.33216 0.0
C123 C 0.22576 0.83002 0.32352 0.0
C124 C 0.20894 0.83449 0.33916 0.0
C125 C 0.2182 0.85384 0.36389 0.0
C126 C 0.24461 0.86826 0.37331 0.0
C127 C 0.26141 0.86395 0.35743 0.0
C128 C 0.23618 0.77221 0.23635 0.0
C129 C 0.24595 0.74628 0.30752 0.0
C130 C 0.28551 0.71448 0.23594 0.0
Eu131 Eu 0.28454 0.75572 0.26343 0.0
C132 C 0.30235 0.70886 0.21878 0.0
C133 C 0.32947 0.71685 0.23154 0.0
C134 C 0.34526 0.71158 0.21487 0.0
C135 C 0.33427 0.69863 0.18498 0.0
C136 C 0.30716 0.6913 0.17194 0.0
C137 C 0.29131 0.69628 0.18881 0.0
C138 C 0.32045 0.78388 0.31414 0.0
C139 C 0.31037 0.80961 0.24498 0.0
O140 O 0.28441 0.82767 0.32873 0.0
O141 O 0.25912 0.8336 0.28597 0.0
O142 O 0.22945 0.7811 0.2587 0.0
O143 O 0.26047 0.77876 0.24226 0.0
O144 O 0.25311 0.77097 0.31553 0.0
O145 O 0.25275 0.73658 0.28514 0.0
O146 O 0.27099 0.72797 0.22282 0.0
O147 O 0.29598 0.72153 0.26548 0.0
O148 O 0.32641 0.77405 0.29174 0.0
O149 O 0.29619 0.77734 0.30939 0.0
O150 O 0.30378 0.7849 0.23707 0.0
O151 O 0.30275 0.81918 0.26666 0.0
H152 H 0.21827 0.81496 0.30448 0.0
H153 H 0.18867 0.82302 0.33178 0.0
H154 H 0.25205 0.8834 0.39225 0.0
H155 H 0.28167 0.87542 0.36461 0.0
H156 H 0.33852 0.72699 0.25447 0.0
H157 H 0.36603 0.71712 0.22575 0.0
H158 H 0.2982 0.68164 0.14876 0.0
H159 H 0.27044 0.69038 0.17845 0.0
C160 C 0.34266 0.81551 0.73351 0.0
Eu161 Eu 0.30402 0.79102 0.75187 0.0
C162 C 0.3408 0.8287 0.70628 0.0
C163 C 0.322 0.81682 0.67844 0.0
C164 C 0.31623 0.83083 0.65439 0.0
C165 C 0.32902 0.85692 0.65794 0.0
C166 C 0.34818 0.86868 0.68555 0.0
C167 C 0.35402 0.85465 0.70957 0.0
C168 C 0.25949 0.7621 0.71053 0.0
C169 C 0.25881 0.81447 0.75161 0.0
C170 C 0.22035 0.7326 0.78869 0.0
Eu171 Eu 0.26187 0.76154 0.77903 0.0
C172 C 0.21883 0.71413 0.8103 0.0
C173 C 0.242 0.71229 0.82994 0.0
C174 C 0.24124 0.6968 0.85307 0.0
C175 C 0.21725 0.68281 0.85655 0.0
C176 C 0.19401 0.68353 0.83562 0.0
C177 C 0.19482 0.69922 0.81254 0.0
C178 C 0.30561 0.78944 0.8216 0.0
C179 C 0.31025 0.7416 0.7849 0.0
O180 O 0.33552 0.82555 0.75496 0.0
O181 O 0.33309 0.79071 0.72845 0.0
O182 O 0.27332 0.78359 0.70536 0.0
O183 O 0.27061 0.75631 0.73569 0.0
O184 O 0.28303 0.81989 0.75055 0.0
O185 O 0.24665 0.79291 0.75988 0.0
O186 O 0.2291 0.72701 0.76621 0.0
O187 O 0.23141 0.75617 0.80153 0.0
O188 O 0.29004 0.76876 0.82665 0.0
O189 O 0.29582 0.79605 0.79613 0.0
O190 O 0.28531 0.73465 0.78308 0.0
O191 O 0.32219 0.76369 0.77752 0.0
H192 H 0.31111 0.79686 0.67547 0.0
H193 H 0.30163 0.82138 0.63317 0.0
H194 H 0.35888 0.8887 0.68847 0.0
H195 H 0.36819 0.86419 0.73106 0.0
H196 H 0.2607 0.72351 0.82806 0.0
H197 H 0.25933 0.69645 0.8689 0.0
H198 H 0.17525 0.67311 0.83819 0.0
H199 H 0.17687 0.70041 0.79726 0.0
C200 C 0.29566 0.2375 0.70677 0.0
Eu201 Eu 0.28782 0.26186 0.75199 0.0
C202 C 0.31243 0.22298 0.69966 0.0
C203 C 0.33955 0.23106 0.71285 0.0
C204 C 0.35511 0.21823 0.7035 0.0
C205 C 0.34395 0.19698 0.68074 0.0
C206 C 0.31667 0.18857 0.66834 0.0
C207 C 0.30118 0.20142 0.67764 0.0
C208 C 0.32311 0.30103 0.79225 0.0
C209 C 0.29971 0.24653 0.81954 0.0
C210 C 0.26003 0.31151 0.84641 0.0
Eu211 Eu 0.26805 0.28708 0.80145 0.0
C212 C 0.24273 0.32562 0.8531 0.0
C213 C 0.2158 0.31398 0.84726 0.0
C214 C 0.20029 0.32697 0.85632 0.0
C215 C 0.21124 0.35194 0.8716 0.0
C216 C 0.23814 0.3637 0.87679 0.0
C217 C 0.25362 0.35071 0.86768 0.0
C218 C 0.23272 0.24797 0.76087 0.0
C219 C 0.25561 0.30237 0.73408 0.0
O220 O 0.27899 0.22687 0.72155 0.0
O221 O 0.30628 0.26196 0.7154 0.0
O222 O 0.32895 0.28203 0.78178 0.0
O223 O 0.29972 0.29899 0.77979 0.0
O224 O 0.29461 0.23843 0.79017 0.0
O225 O 0.29466 0.26688 0.82915 0.0
O226 O 0.27639 0.32224 0.83128 0.0
O227 O 0.25017 0.28689 0.83859 0.0
O228 O 0.22687 0.26686 0.77162 0.0
O229 O 0.25608 0.25005 0.77349 0.0
O230 O 0.26073 0.31032 0.76346 0.0
O231 O 0.26156 0.2826 0.72431 0.0
H232 H 0.34882 0.24762 0.72992 0.0
H233 H 0.37598 0.2255 0.7135 0.0
H234 H 0.30718 0.17202 0.6513 0.0
H235 H 0.28032 0.19474 0.66714 0.0
H236 H 0.20669 0.29468 0.83603 0.0
H237 H 0.17964 0.31734 0.85131 0.0
H238 H 0.24751 0.38272 0.88876 0.0
H239 H 0.27433 0.36013 0.87272 0.0
C240 C 0.75381 0.33706 0.78773 0.0
Eu241 Eu 0.77037 0.29963 0.77681 0.0
C242 C 0.73699 0.34147 0.80556 0.0
C243 C 0.71716 0.35145 0.79177 0.0
C244 C 0.70061 0.3556 0.80797 0.0
C245 C 0.7039 0.35014 0.8384 0.0
C246 C 0.7235 0.33964 0.85205 0.0
C247 C 0.73991 0.3352 0.83566 0.0
C248 C 0.74965 0.26462 0.726 0.0
C249 C 0.74737 0.25192 0.81163 0.0
C250 C 0.80892 0.22014 0.76937 0.0
Eu251 Eu 0.7924 0.25744 0.78105 0.0
C252 C 0.82472 0.21591 0.74986 0.0
C253 C 0.85096 0.23046 0.75617 0.0
C254 C 0.86563 0.22607 0.73743 0.0
C255 C 0.85425 0.20722 0.71205 0.0
C256 C 0.82782 0.19326 0.70514 0.0
C257 C 0.81318 0.19752 0.72401 0.0
C258 C 0.81316 0.2927 0.83168 0.0
C259 C 0.8151 0.30501 0.74589 0.0
O260 O 0.77628 0.33525 0.80337 0.0
O261 O 0.7423 0.32017 0.76347 0.0
O262 O 0.75504 0.28888 0.72508 0.0
O263 O 0.75461 0.25996 0.75352 0.0
O264 O 0.75096 0.27627 0.80905 0.0
O265 O 0.75928 0.23908 0.79908 0.0
O266 O 0.78608 0.22159 0.75466 0.0
O267 O 0.82065 0.23704 0.79365 0.0
O268 O 0.80773 0.26844 0.83281 0.0
O269 O 0.80825 0.29714 0.80411 0.0
O270 O 0.8113 0.28062 0.74832 0.0
O271 O 0.80361 0.318 0.75894 0.0
H272 H 0.71445 0.35598 0.76841 0.0
H273 H 0.68525 0.36316 0.79668 0.0
H274 H 0.72651 0.33538 0.87552 0.0
H275 H 0.75492 0.32707 0.84658 0.0
H276 H 0.86026 0.24508 0.77567 0.0
H277 H 0.88597 0.23716 0.74296 0.0
H278 H 0.81875 0.17844 0.68582 0.0
H279 H 0.79288 0.18628 0.71857 0.0
C280 C 0.76982 0.80903 0.85089 0.0
Eu281 Eu 0.78225 0.79349 0.80427 0.0
C282 C 0.75941 0.82804 0.86127 0.0
C283 C 0.76016 0.85043 0.84774 0.0
C284 C 0.74793 0.86698 0.85675 0.0
C285 C 0.73461 0.86114 0.87912 0.0
C286 C 0.73395 0.83857 0.89232 0.0
C287 C 0.74633 0.8223 0.88357 0.0
C288 C 0.81463 0.81689 0.77046 0.0
C289 C 0.74539 0.79958 0.7371 0.0
C290 C 0.78891 0.74155 0.69495 0.0
Eu291 Eu 0.77603 0.75716 0.74127 0.0
C292 C 0.80138 0.7239 0.68534 0.0
C293 C 0.79589 0.69865 0.69172 0.0
C294 C 0.80928 0.68312 0.68294 0.0
C295 C 0.82843 0.69276 0.66796 0.0
C296 C 0.83358 0.718 0.66158 0.0
C297 C 0.82024 0.73335 0.67022 0.0
C298 C 0.74401 0.73359 0.77544 0.0
C299 C 0.81265 0.75108 0.80853 0.0
O300 O 0.75344 0.79208 0.82826 0.0
O301 O 0.79367 0.81659 0.84858 0.0
O302 O 0.81495 0.82707 0.79697 0.0
O303 O 0.79762 0.79539 0.76492 0.0
O304 O 0.75269 0.80464 0.76755 0.0
O305 O 0.75258 0.78314 0.72204 0.0
O306 O 0.80438 0.7601 0.71624 0.0
O307 O 0.76545 0.73249 0.69815 0.0
O308 O 0.74375 0.72338 0.74898 0.0
O309 O 0.76069 0.75526 0.78073 0.0
O310 O 0.806 0.74646 0.77808 0.0
O311 O 0.80483 0.76701 0.82344 0.0
H312 H 0.76985 0.85489 0.83004 0.0
H313 H 0.7489 0.88426 0.84622 0.0
H314 H 0.72329 0.83305 0.90892 0.0
H315 H 0.74514 0.8048 0.89374 0.0
H316 H 0.78157 0.69105 0.7037 0.0
H317 H 0.80504 0.6638 0.68838 0.0
H318 H 0.84785 0.72592 0.64966 0.0
H319 H 0.82482 0.75282 0.66524 0.0
Cd320 Cd 0.02111 0.99968 0.57646 0.0
Cd321 Cd 0.03848 0.05766 0.48339 0.0
C322 C 0.06397 0.98341 0.62441 0.0
N323 N 0.0539 0.9815 0.59348 0.0
C324 C 0.07944 0.95542 0.58545 0.0
C325 C 0.08971 0.95651 0.61739 0.0
C326 C 0.08199 0.97104 0.63692 0.0
C327 C 0.06135 0.96807 0.5739 0.0
H328 H 0.05758 0.9942 0.63937 0.0
H329 H 0.05277 0.96672 0.54939 0.0
C330 C 0.9967 1.00159 0.49421 0.0
C331 C 0.99768 0.0774 0.4362 0.0
C332 C 0.98089 0.09125 0.42447 0.0
C333 C 0.97254 0.10456 0.44457 0.0
C334 C 0.98088 0.1029 0.47621 0.0
C335 C 0.99787 0.0889 0.487 0.0
N336 N 1.00604 0.07674 0.46695 0.0
H337 H 1.00462 0.06765 0.4208 0.0
H338 H 1.00514 0.08835 0.5114 0.0
C339 C 0.03798 0.00865 0.44239 0.0
N340 N 0.05146 0.02581 0.46767 0.0
C341 C 0.08337 1.00484 0.48207 0.0
C342 C 0.06953 0.98623 0.45674 0.0
C343 C 0.04664 0.98833 0.43658 0.0
C344 C 0.0738 0.02451 0.48721 0.0
H345 H 0.02025 0.01042 0.42731 0.0
H346 H 0.08399 0.03874 0.50695 0.0
C347 C 0.06401 0.05308 0.56368 0.0
C348 C 0.98384 0.96598 0.60367 0.0
N349 N 1.0093 0.03243 0.59158 0.0
C350 C 0.02359 0.05007 0.61617 0.0
C351 C 1.01529 0.07063 0.62202 0.0
C352 C 0.99199 0.0725 0.60256 0.0
C353 C 0.97746 0.05351 0.57783 0.0
C354 C 0.98666 0.03359 0.57265 0.0
C355 C 0.07634 0.09198 0.45725 0.0
O356 O 1.01073 0.00766 0.52182 0.0
O357 O 1.00095 0.01675 0.47424 0.0
O358 O 0.04728 0.04796 0.53757 0.0
O359 O 0.0605 0.03856 0.58441 0.0
O360 O 0.98151 0.96247 0.57499 0.0
O361 O 1.00294 0.98467 0.61905 0.0
O362 O 0.07903 0.09407 0.48606 0.0
O363 O 0.05663 0.07425 0.44106 0.0
H364 H 0.04155 0.04839 0.63077 0.0
H365 H 0.97587 0.01897 0.55344 0.0
H366 H 0.0847 0.94426 0.56959 0.0
H367 H 0.0897 0.97274 0.66164 0.0
H368 H 0.97467 0.09168 0.3999 0.0
H369 H 0.9751 0.11304 0.49255 0.0
H370 H 0.10148 1.00435 0.49766 0.0
H371 H 0.03538 0.97429 0.41688 0.0
H372 H 0.02706 0.08497 0.64125 0.0
H373 H 0.95906 0.05387 0.56281 0.0
Cd374 Cd 0.48224 0.01229 0.04009 0.0
Cd375 Cd 0.53028 0.06378 0.97671 0.0
C376 C 0.51935 0.99061 0.01316 0.0
N377 N 0.49836 0.98241 0.02383 0.0
C378 C 0.50226 0.94084 0.02456 0.0
C379 C 0.52501 0.94935 0.0154 0.0
C380 C 0.53275 0.97415 0.00819 0.0
C381 C 0.4891 0.95791 0.02868 0.0
H382 H 0.52654 0.01024 0.0101 0.0
H383 H 0.47247 0.952 0.03746 0.0
C384 C 0.48048 0.01697 0.96272 0.0
C385 C 0.48425 0.08314 0.94316 0.0
C386 C 0.46598 0.09604 0.93825 0.0
C387 C 0.464 0.11034 0.96316 0.0
C388 C 0.48061 0.11126 0.99257 0.0
C389 C 0.49847 0.09778 0.99648 0.0
N390 N 0.49986 0.0842 0.97187 0.0
H391 H 0.48636 0.0726 0.924 0.0
H392 H 0.5115 0.09843 0.01897 0.0
C393 C 0.54312 0.01986 0.94296 0.0
N394 N 0.55128 0.03482 0.97029 0.0
C395 C 0.58805 0.02006 0.987 0.0
C396 C 0.58005 1.00444 0.95889 0.0
C397 C 0.55706 1.00418 0.93693 0.0
C398 C 0.57322 0.03524 0.99225 0.0
H399 H 0.52627 0.02067 0.92534 0.0
H400 H 0.57952 0.04788 0.01344 0.0
C401 C 0.53744 0.05691 0.05887 0.0
C402 C 0.45114 0.98025 0.07295 0.0
N403 N 0.46003 0.04098 0.03102 0.0
C404 C 0.46835 0.06082 0.05345 0.0
C405 C 0.45584 0.07918 0.05119 0.0
C406 C 0.4346 0.077 0.02553 0.0
C407 C 0.42679 0.0566 0.00228 0.0
C408 C 0.43988 0.03857 0.00556 0.0
C409 C 0.56566 0.10137 0.95447 0.0
O410 O 0.48738 0.02613 0.9907 0.0
O411 O 0.49219 0.02944 0.94512 0.0
O412 O 0.52988 0.05506 0.02975 0.0
O413 O 0.52324 0.04206 0.07257 0.0
O414 O 0.44221 0.98073 0.04426 0.0
O415 O 0.474 0.99493 0.0861 0.0
O416 O 0.56884 0.10115 0.9832 0.0
O417 O 0.54582 0.08479 0.93671 0.0
H418 H 0.48437 0.06199 0.07343 0.0
H419 H 0.43372 0.02259 0.98803 0.0
H420 H 0.49585 0.92188 0.03069 0.0
H421 H 0.55 0.98114 0.00077 0.0
H422 H 0.45413 0.09546 0.91505 0.0
H423 H 0.47992 0.1223 0.01225 0.0
H424 H 0.60586 0.02104 0.00434 0.0
H425 H 0.55017 0.99232 0.91504 0.0
H426 H 0.4621 0.09433 0.06993 0.0
H427 H 0.41052 0.05441 0.98214 0.0
Cd428 Cd 1.00454 0.51815 0.13963 0.0
Cd429 Cd 0.01585 0.54467 0.02779 0.0
C430 C 0.05686 0.50417 0.19062 0.0
N431 N 0.04077 0.50004 0.16129 0.0
C432 C 0.05946 0.46792 0.14898 0.0
C433 C 0.07636 0.47142 0.17906 0.0
C434 C 0.07478 0.49029 0.19984 0.0
C435 C 0.04223 0.48235 0.14068 0.0
H436 H 0.05568 0.51797 0.20721 0.0
H437 H 0.02939 0.47884 0.11752 0.0
C438 C 0.97306 0.50083 0.05312 0.0
C439 C 0.96247 0.55394 0.9829 0.0
C440 C 0.94709 0.56822 0.96758 0.0
C441 C 0.95603 0.5949 0.97361 0.0
C442 C 0.98008 0.60637 0.99569 0.0
C443 C 0.99463 0.59144 0.01058 0.0
N444 N 0.98584 0.56574 0.0039 0.0
H445 H 0.95598 0.53351 0.97752 0.0
H446 H 1.01329 0.60047 0.0272 0.0
C447 C 0.01872 0.49301 0.98859 0.0
N448 N 0.0327 0.5136 0.00994 0.0
C449 C 0.07249 0.50568 0.00921 0.0
C450 C 0.05882 0.48466 0.98671 0.0
C451 C 0.03144 0.47807 0.97685 0.0
C452 C 0.05906 0.51972 0.02063 0.0
H453 H 0.99782 0.48855 0.98001 0.0
H454 H 0.06985 0.53619 0.03741 0.0
C455 C 0.04497 0.55968 0.10924 0.0
C456 C 0.97283 0.46867 0.13577 0.0
N457 N 0.98203 0.54679 0.1592 0.0
C458 C 0.99442 0.57196 0.16973 0.0
C459 C 0.98112 0.58806 0.17861 0.0
C460 C 0.95432 0.5788 0.17676 0.0
C461 C 0.94222 0.55265 0.16586 0.0
C462 C 0.95623 0.53722 0.15735 0.0
C463 C 0.05558 0.57922 0.01182 0.0
O464 O 0.98715 0.51156 0.08022 0.0
O465 O 0.97863 0.50994 0.02963 0.0
O466 O 0.02861 0.54737 0.08449 0.0
O467 O 0.04156 0.55351 0.13484 0.0
O468 O 0.98026 0.47809 0.11355 0.0
O469 O 0.97944 0.48311 0.16103 0.0
O470 O 0.05294 0.58179 0.03863 0.0
O471 O 0.0385 0.56147 0.99223 0.0
H472 H 1.01477 0.57987 0.17106 0.0
H473 H 0.94611 0.51745 0.14867 0.0
H474 H 0.05877 0.4536 0.13171 0.0
H475 H 0.08726 0.4945 0.22321 0.0
H476 H 0.92879 0.55851 0.95055 0.0
H477 H 0.98767 0.62678 0.0015 0.0
H478 H 0.09349 0.51137 0.0179 0.0
H479 H 0.02005 0.46209 0.95945 0.0
H480 H 0.99211 0.60768 0.18706 0.0
H481 H 0.92172 0.54395 0.16311 0.0
Cd482 Cd 0.51631 0.49698 0.0638 0.0
Cd483 Cd 0.53954 0.55249 0.97306 0.0
C484 C 0.56487 0.48552 0.10709 0.0
N485 N 0.54794 0.47742 0.0786 0.0
C486 C 0.56319 0.44195 0.07355 0.0
C487 C 0.58034 0.44939 0.1034 0.0
C488 C 0.58144 0.47179 0.11995 0.0
C489 C 0.54694 0.4563 0.06156 0.0
H490 H 0.56473 0.50209 0.1203 0.0
H491 H 0.53275 0.45002 0.03928 0.0
C492 C 0.49432 0.50044 0.983 0.0
C493 C 0.50147 0.5728 0.92372 0.0
C494 C 0.4844 0.58595 0.91069 0.0
C495 C 0.47325 0.59728 0.92934 0.0
C496 C 0.47908 0.59439 0.96076 0.0
C497 C 0.49648 0.58116 0.9729 0.0
N498 N 0.50742 0.57099 0.95431 0.0
H499 H 0.51043 0.56442 0.9095 0.0
H500 H 0.50175 0.57952 0.99721 0.0
C501 C 0.54047 0.50145 0.93853 0.0
N502 N 0.55295 0.51936 0.96327 0.0
C503 C 0.58363 0.49793 0.98298 0.0
C504 C 0.57112 0.47896 0.95787 0.0
C505 C 0.54928 0.48075 0.9354 0.0
C506 C 0.57413 0.51816 0.9852 0.0
H507 H 0.52367 0.50319 0.9215 0.0
H508 H 0.58346 0.53292 0.0045 0.0
C509 C 0.56075 0.55157 0.05595 0.0
C510 C 0.48007 0.46245 0.09177 0.0
N511 N 0.50273 0.52878 0.07774 0.0
C512 C 0.51395 0.54426 0.10474 0.0
C513 C 0.50402 0.56356 0.11089 0.0
C514 C 0.48237 0.56638 0.08906 0.0
C515 C 0.47138 0.5501 0.06138 0.0
C516 C 0.48196 0.53123 0.0562 0.0
C517 C 0.57746 0.58546 0.94591 0.0
O518 O 0.51022 0.506 0.00963 0.0
O519 O 0.49899 0.51432 0.96204 0.0
O520 O 0.54725 0.54579 0.0281 0.0
O521 O 0.55482 0.53697 0.07583 0.0
O522 O 0.47457 0.46258 0.06271 0.0
O523 O 0.50176 0.47806 0.10732 0.0
O524 O 0.57852 0.5902 0.97402 0.0
O525 O 0.55947 0.56571 0.93108 0.0
H526 H 0.53044 0.54154 0.12135 0.0
H527 H 0.47362 0.51836 0.03507 0.0
H528 H 0.56149 0.42464 0.06018 0.0
H529 H 0.59457 0.47837 0.14287 0.0
H530 H 0.4801 0.58737 0.8863 0.0
H531 H 0.47097 0.60297 0.97591 0.0
H532 H 0.60047 0.49705 0.00072 0.0
H533 H 0.53948 0.46659 0.91548 0.0
H534 H 0.51271 0.5757 0.13262 0.0
H535 H 0.45478 0.55191 0.044 0.0
Cd536 Cd 0.02902 0.48717 0.57248 0.0
Cd537 Cd 0.0777 0.5424 0.51417 0.0
C538 C 0.06219 0.454 0.60444 0.0
N539 N 0.05635 0.46293 0.57697 0.0
C540 C 0.08251 0.4426 0.55832 0.0
C541 C 0.08882 0.4331 0.5865 0.0
C542 C 0.07846 0.43893 0.60973 0.0
C543 C 0.06604 0.45762 0.55397 0.0
H544 H 0.05427 0.45873 0.62232 0.0
H545 H 0.06095 0.46494 0.53231 0.0
C546 C 0.02705 0.49541 0.49367 0.0
C547 C 0.02823 0.55943 0.49509 0.0
C548 C 1.0085 0.56923 0.49687 0.0
C549 C 1.01019 0.58241 0.52464 0.0
C550 C 0.03193 0.58574 0.54999 0.0
C551 C 0.0512 0.57546 0.54716 0.0
N552 N 0.04875 0.56233 0.52015 0.0
H553 H 0.02723 0.54957 0.47365 0.0
H554 H 0.06796 0.57801 0.56642 0.0
C555 C 0.09537 0.49848 0.49428 0.0
N556 N 0.10058 0.51446 0.52006 0.0
C557 C 0.13189 0.49621 0.5478 0.0
C558 C 0.12682 0.47945 0.52141 0.0
C559 C 0.10828 0.48063 0.49445 0.0
C560 C 0.1184 0.5138 0.54659 0.0
H561 H 0.08145 0.49992 0.47343 0.0
H562 H 0.12227 0.52694 0.56666 0.0
C563 C 0.08012 0.53346 0.59394 0.0
C564 C 0.99118 0.45224 0.59426 0.0
N565 N 1.00811 0.51752 0.57232 0.0
C566 C 0.0163 0.53537 0.59715 0.0
C567 C 1.00178 0.55138 0.60009 0.0
C568 C 0.97829 0.54868 0.57756 0.0
C569 C 0.97037 0.53016 0.552 0.0
C570 C 0.98576 0.51475 0.54975 0.0
C571 C 0.10833 0.57824 0.48429 0.0
O572 O 0.0352 0.49877 0.52272 0.0
O573 O 0.04028 0.51001 0.47892 0.0
O574 O 0.07408 0.52908 0.56489 0.0
O575 O 0.06709 0.51792 0.60803 0.0
O576 O 0.98931 0.45072 0.56567 0.0
O577 O 1.01037 0.46961 0.61182 0.0
O578 O 0.11292 0.58165 0.51341 0.0
O579 O 0.08986 0.55869 0.46998 0.0
H580 H 0.03346 0.53651 0.61546 0.0
H581 H 0.97939 0.49988 0.53069 0.0
H582 H 0.08991 0.43816 0.53981 0.0
H583 H 0.08317 0.43222 0.63191 0.0
H584 H 0.99242 0.56704 0.47651 0.0
H585 H 0.03395 0.59603 0.57168 0.0
H586 H 0.14608 0.49572 0.56898 0.0
H587 H 0.10432 0.46839 0.47345 0.0
H588 H 1.00831 0.56493 0.62055 0.0
H589 H 0.95232 0.52733 0.5342 0.0
Cd590 Cd 0.54593 0.01266 0.52588 0.0
Cd591 Cd 0.55271 0.03233 0.41018 0.0
C592 C 0.58947 0.99791 0.58114 0.0
N593 N 0.57548 0.9914 0.55102 0.0
C594 C 0.58973 0.9547 0.54865 0.0
C595 C 0.60408 0.96061 0.57982 0.0
C596 C 0.6041 0.98283 0.59597 0.0
C597 C 0.57564 0.9704 0.5347 0.0
H598 H 0.58873 0.01442 0.59389 0.0
H599 H 0.56436 0.96552 0.51087 0.0
C600 C 0.518 0.99023 0.44519 0.0
C601 C 0.49569 0.04502 0.37394 0.0
C602 C 0.47829 0.05948 0.36556 0.0
C603 C 0.48472 0.08475 0.37935 0.0
C604 C 0.50917 0.09421 0.40179 0.0
C605 C 0.52586 0.07912 0.40956 0.0
N606 N 0.51918 0.05489 0.39571 0.0
H607 H 0.49035 0.02589 0.36272 0.0
H608 H 0.54457 0.0871 0.42652 0.0
C609 C 0.56243 0.97931 0.38009 0.0
N610 N 0.57445 0.99914 0.40315 0.0
C611 C 0.61386 0.98691 0.41203 0.0
C612 C 0.60232 0.9668 0.38764 0.0
C613 C 0.57589 0.96316 0.37198 0.0
C614 C 0.59982 1.00284 0.41913 0.0
H615 H 0.5425 0.97647 0.36693 0.0
H616 H 0.60967 0.0188 0.43692 0.0
C617 C 0.58704 0.06062 0.49035 0.0
C618 C 0.50047 0.98564 0.5387 0.0
N619 N 0.53369 0.04676 0.54463 0.0
C620 C 0.54472 0.06107 0.57258 0.0
C621 C 0.53129 0.07542 0.584 0.0
C622 C 0.50587 0.0745 0.56701 0.0
C623 C 0.49547 0.05976 0.538 0.0
C624 C 0.50977 0.0464 0.52719 0.0
C625 C 0.57655 0.05 0.36515 0.0
O626 O 0.53428 1.00448 0.46892 0.0
O627 O 0.5193 0.99601 0.41877 0.0
O628 O 0.58246 0.05882 0.46108 0.0
O629 O 0.573 0.04423 0.50258 0.0
O630 O 0.50247 0.98377 0.51162 0.0
O631 O 0.52027 0.99887 0.55989 0.0
O632 O 0.5817 0.06304 0.39091 0.0
O633 O 0.55732 0.02976 0.35848 0.0
H634 H 0.56334 0.06047 0.58667 0.0
H635 H 0.50092 0.03415 0.50558 0.0
H636 H 0.58933 0.93805 0.53506 0.0
H637 H 0.61462 0.98807 0.6201 0.0
H638 H 0.45983 0.05065 0.34847 0.0
H639 H 0.5159 0.11347 0.41304 0.0
H640 H 0.63403 0.99101 0.42505 0.0
H641 H 0.56551 0.94797 0.35332 0.0
H642 H 0.54063 0.08662 0.60625 0.0
H643 H 0.47587 0.05738 0.52406 0.0
H644 H 0.25215 0.25163 0.35065 0.0
H645 H 0.22788 0.22806 0.38428 0.0
H646 H 0.16664 0.18606 0.3044 0.0
H647 H 0.19048 0.20885 0.27137 0.0
H648 H 0.17761 0.22088 0.39107 0.0
H649 H 0.18377 0.12892 0.3484 0.0
H650 H 0.20317 0.15874 0.34067 0.0
H651 H 0.16993 0.14453 0.31775 0.0
C652 C 0.23344 0.23751 0.3404 0.0
C653 C 0.22346 0.23206 0.30823 0.0
C654 C 0.21956 0.22394 0.35961 0.0
C655 C 0.1956 0.2046 0.347 0.0
C656 C 0.18532 0.20017 0.31495 0.0
H657 H 0.07354 0.09232 0.39613 0.0
H658 H 0.10317 0.12044 0.37221 0.0
C659 C 0.19903 0.2135 0.29598 0.0
C660 C 0.18099 0.18869 0.36659 0.0
H661 H 0.15188 0.12696 0.37501 0.0
C662 C 0.17229 0.20036 0.38789 0.0
C663 C 0.17381 0.16179 0.36254 0.0
C664 C 0.18337 0.14777 0.34133 0.0
C665 C 0.1558 0.186 0.40404 0.0
C666 C 0.14806 0.15904 0.39939 0.0
C667 C 0.15742 0.14749 0.37867 0.0
C668 C 0.12968 0.1423 0.41474 0.0
C669 C 0.14595 0.19998 0.4249 0.0
C670 C 0.13444 0.14466 0.44691 0.0
C671 C 0.11725 0.12853 0.46076 0.0
C672 C 0.09492 0.10934 0.4429 0.0
C673 C 0.0904 0.10683 0.41078 0.0
C674 C 0.10746 0.12299 0.39698 0.0
H675 H 0.1473 0.21952 0.41919 0.0
H676 H 0.12542 0.18979 0.42352 0.0
H677 H 0.15801 0.20153 0.44895 0.0
H678 H 0.15168 0.15876 0.46147 0.0
H679 H 0.12158 0.13101 0.48553 0.0
H680 H 0.80051 0.21862 0.35705 0.0
H681 H 0.82955 0.19472 0.37987 0.0
H682 H 0.88598 0.23565 0.33623 0.0
H683 H 0.8575 0.26053 0.31461 0.0
H684 H 0.84611 0.16312 0.35458 0.0
H685 H 0.93277 0.24193 0.41981 0.0
H686 H 0.90201 0.24681 0.40216 0.0
H687 H 0.9237 0.24503 0.37969 0.0
C688 C 0.81925 0.22276 0.35264 0.0
C689 C 0.82682 0.24158 0.33425 0.0
C690 C 0.83584 0.20905 0.36566 0.0
C691 C 0.86023 0.21366 0.3603 0.0
C692 C 0.8677 0.23229 0.34161 0.0
H693 H 0.97686 0.13615 0.40025 0.0
H694 H 0.9491 0.16205 0.37982 0.0
C695 C 0.8513 0.24639 0.32907 0.0
C696 C 0.87713 0.19805 0.37314 0.0
H697 H 0.93862 0.20118 0.41472 0.0
C698 C 0.86627 0.1715 0.36796 0.0
C699 C 0.9035 0.20893 0.39059 0.0
C700 C 0.91609 0.23723 0.39865 0.0
C701 C 0.88104 0.15559 0.37943 0.0
C702 C 0.9074 0.16648 0.39646 0.0
C703 C 0.91837 0.19295 0.40156 0.0
C704 C 0.92402 0.15067 0.40897 0.0
C705 C 0.86845 0.12722 0.37286 0.0
C706 C 0.91922 0.13592 0.43237 0.0
C707 C 0.93501 0.12102 0.44407 0.0
C708 C 0.95585 0.1206 0.43253 0.0
C709 C 0.96071 0.13568 0.40929 0.0
C710 C 0.94499 0.15063 0.39772 0.0
H711 H 0.84962 0.12187 0.35452 0.0
H712 H 0.88153 0.11792 0.36588 0.0
H713 H 0.86471 0.11975 0.39402 0.0
H714 H 0.9033 0.13598 0.44162 0.0
H715 H 0.93068 0.10957 0.46185 0.0
H716 H 0.82938 0.86087 0.31117 0.0
H717 H 0.85996 0.88337 0.35998 0.0
H718 H 0.87922 0.81508 0.38222 0.0
H719 H 0.84932 0.79272 0.33275 0.0
H720 H 0.85867 0.87126 0.41964 0.0
H721 H 0.95025 0.86814 0.39485 0.0
H722 H 0.92008 0.86121 0.36466 0.0
H723 H 0.92478 0.83878 0.39122 0.0
C724 C 0.84041 0.85079 0.32628 0.0
C725 C 0.837 0.82512 0.31844 0.0
C726 C 0.85764 0.86353 0.35422 0.0
C727 C 0.87168 0.8508 0.37467 0.0
C728 C 0.86867 0.82524 0.36664 0.0
H729 H 0.99469 0.95887 0.52184 0.0
H730 H 0.96266 0.91673 0.50371 0.0
C731 C 0.8516 0.81254 0.33849 0.0
C732 C 0.88974 0.86497 0.40396 0.0
H733 H 0.95404 0.8966 0.43621 0.0
C734 C 0.87958 0.87629 0.42385 0.0
C735 C 0.91696 0.87104 0.40964 0.0
C736 C 0.92883 0.8593 0.38902 0.0
C737 C 0.89591 0.8957 0.44721 0.0
C738 C 0.9228 0.90372 0.45052 0.0
C739 C 0.93325 0.89029 0.43326 0.0
C740 C 0.9392 0.92923 0.46533 0.0
C741 C 0.88424 0.909 0.46647 0.0
C742 C 0.93629 0.94996 0.4497 0.0
C743 C 0.95465 0.9738 0.45958 0.0
C744 C 0.97594 0.97723 0.48548 0.0
C745 C 0.97817 0.95669 0.502 0.0
C746 C 0.95999 0.93269 0.49177 0.0
H747 H 0.86494 0.89666 0.46723 0.0
H748 H 0.89734 0.91499 0.49027 0.0
H749 H 0.88157 0.92625 0.45634 0.0
H750 H 0.92052 0.94737 0.42888 0.0
H751 H 0.95255 0.98936 0.44654 0.0
H752 H 0.17274 0.86148 0.33496 0.0
H753 H 0.14465 0.8769 0.35846 0.0
H754 H 0.1942 0.87574 0.44855 0.0
H755 H 0.22294 0.86101 0.42498 0.0
H756 H 0.11684 0.85911 0.39733 0.0
H757 H 0.19595 0.94886 0.45088 0.0
H758 H 0.19923 0.92653 0.42355 0.0
H759 H 0.20282 0.92053 0.46277 0.0
C760 C 0.1774 0.86418 0.35977 0.0
C761 C 0.19997 0.8603 0.3783 0.0
C762 C 0.16141 0.87297 0.37314 0.0
C763 C 0.16769 0.87779 0.40516 0.0
C764 C 0.18946 0.87263 0.42377 0.0
H765 H 0.09252 0.96016 0.49917 0.0
H766 H 0.11446 0.92959 0.49016 0.0
C767 C 0.20573 0.86419 0.41037 0.0
C768 C 0.1521 0.88966 0.41861 0.0
H769 H 0.15492 0.9446 0.45749 0.0
C770 C 0.12517 0.87764 0.41087 0.0
C771 C 0.16318 0.91393 0.43604 0.0
C772 C 0.19183 0.92836 0.44361 0.0
C773 C 0.10881 0.88971 0.41919 0.0
C774 C 0.11983 0.91413 0.43583 0.0
C775 C 0.14681 0.92566 0.44492 0.0
C776 C 0.1037 0.92945 0.44091 0.0
C777 C 0.07983 0.87675 0.40931 0.0
C778 C 0.09054 0.93921 0.41602 0.0
C779 C 0.07857 0.95707 0.42104 0.0
C780 C 0.07959 0.96528 0.45107 0.0
C781 C 0.09184 0.95452 0.47583 0.0
C782 C 0.10409 0.93689 0.47078 0.0
H783 H 0.07496 0.856 0.40299 0.0
H784 H 0.07118 0.88004 0.42785 0.0
H785 H 0.07077 0.8848 0.38895 0.0
H786 H 0.09062 0.93393 0.39287 0.0
H787 H 0.06965 0.96529 0.40158 0.0
H788 H 0.27021 0.85224 0.71604 0.0
H789 H 0.24255 0.87757 0.69278 0.0
H790 H 0.18526 0.84016 0.73706 0.0
H791 H 0.21258 0.81467 0.76028 0.0
H792 H 0.18448 0.85336 0.65464 0.0
H793 H 0.20385 0.92101 0.75814 0.0
H794 H 0.22664 0.90482 0.75358 0.0
H795 H 0.19759 0.88787 0.7627 0.0
C796 C 0.25194 0.84973 0.72126 0.0
C797 C 0.24369 0.83168 0.74025 0.0
C798 C 0.23612 0.86404 0.70777 0.0
C799 C 0.21206 0.86072 0.71342 0.0
C800 C 0.20392 0.84303 0.73269 0.0
H801 H 0.08995 0.92947 0.66634 0.0
H802 H 0.11992 0.90619 0.68826 0.0
C803 C 0.21957 0.82856 0.74594 0.0
C804 C 0.19506 0.87535 0.69871 0.0
H805 H 0.17143 0.92306 0.71392 0.0
C806 C 0.18167 0.86873 0.66741 0.0
C807 C 0.19143 0.89512 0.71571 0.0
C808 C 0.20569 0.90285 0.74939 0.0
C809 C 0.16412 0.88112 0.65267 0.0
C810 C 0.16054 0.9011 0.66963 0.0
C811 C 0.17422 0.90779 0.70094 0.0
C812 C 0.14223 0.91494 0.65566 0.0
C813 C 0.14898 0.8721 0.61943 0.0
C814 C 0.14493 0.92777 0.63018 0.0
C815 C 0.12776 0.94109 0.61752 0.0
C816 C 0.10781 0.94212 0.63042 0.0
C817 C 0.1053 0.92935 0.65608 0.0
C818 C 0.12234 0.91593 0.66856 0.0
H819 H 0.14833 0.85242 0.61262 0.0
H820 H 0.12873 0.87276 0.61481 0.0
H821 H 0.15858 0.8846 0.60471 0.0
H822 H 0.16053 0.9278 0.62032 0.0
H823 H 0.13043 0.95101 0.59804 0.0
H824 H 0.20203 0.26133 0.71153 0.0
H825 H 0.18048 0.23651 0.66087 0.0
H826 H 0.20885 0.17508 0.69376 0.0
H827 H 0.23217 0.20077 0.74353 0.0
H828 H 0.2091 0.1786 0.63582 0.0
H829 H 0.1137 0.18241 0.64798 0.0
H830 H 0.13642 0.21237 0.64691 0.0
H831 H 0.14331 0.19477 0.6788 0.0
C832 C 0.20354 0.2425 0.70781 0.0
C833 C 0.21815 0.23256 0.73134 0.0
C834 C 0.19133 0.22839 0.67892 0.0
C835 C 0.19256 0.20373 0.67376 0.0
C836 C 0.20764 0.19408 0.69722 0.0
H837 H 0.11154 0.06076 0.60504 0.0
H838 H 0.14751 0.10052 0.61931 0.0
C839 C 0.22059 0.20852 0.72571 0.0
C840 C 0.17628 0.18678 0.64532 0.0
H841 H 0.11296 0.15459 0.60848 0.0
C842 C 0.18806 0.17364 0.6294 0.0
C843 C 0.14884 0.18055 0.63674 0.0
C844 C 0.13475 0.19308 0.65357 0.0
C845 C 0.17301 0.15293 0.60702 0.0
C846 C 0.14572 0.14562 0.60034 0.0
C847 C 0.134 0.16039 0.6138 0.0
C848 C 0.12885 0.12035 0.58488 0.0
C849 C 0.18631 0.13821 0.59193 0.0
C850 C 0.1067 0.11833 0.56064 0.0
C851 C 0.08593 0.09597 0.55321 0.0
C852 C 0.08727 0.07518 0.5694 0.0
C853 C 0.11014 0.07658 0.59222 0.0
C854 C 0.13087 0.09908 0.59991 0.0
H855 H 0.20579 0.15037 0.59152 0.0
H856 H 0.18907 0.12238 0.6052 0.0
H857 H 0.17441 0.13004 0.56808 0.0
H858 H 0.10458 0.13472 0.54931 0.0
H859 H 0.06811 0.09556 0.53626 0.0
H860 H 0.84403 0.19968 0.64979 0.0
H861 H 0.8693 0.18413 0.62126 0.0
H862 H 0.92514 0.18307 0.70676 0.0
H863 H 0.90044 0.19905 0.73514 0.0
H864 H 0.94825 0.20114 0.66331 0.0
H865 H 0.86774 0.11064 0.61752 0.0
H866 H 0.86002 0.13898 0.60727 0.0
H867 H 0.86706 0.13313 0.64672 0.0
C868 C 0.86188 0.19636 0.66231 0.0
C869 C 0.8704 0.20048 0.69452 0.0
C870 C 0.87616 0.18745 0.6461 0.0
C871 C 0.89877 0.18219 0.66204 0.0
C872 C 0.90774 0.18715 0.69413 0.0
H873 H 0.9933 0.09396 0.65806 0.0
H874 H 0.97269 0.12548 0.66745 0.0
C875 C 0.89369 0.1963 0.71028 0.0
C876 C 0.91262 0.17018 0.64588 0.0
H877 H 0.90732 0.11419 0.60722 0.0
C878 C 0.93924 0.18232 0.65053 0.0
C879 C 0.90066 0.14556 0.62948 0.0
C880 C 0.87237 0.13116 0.6251 0.0
C881 C 0.95459 0.16991 0.64049 0.0
C882 C 0.94281 0.14505 0.6252 0.0
C883 C 0.91598 0.13345 0.61883 0.0
C884 C 0.95837 0.12938 0.61942 0.0
C885 C 0.98344 0.18285 0.64748 0.0
C886 C 0.95716 0.12163 0.58934 0.0
C887 C 0.96925 0.10397 0.5839 0.0
C888 C 0.98214 0.09351 0.60851 0.0
C889 C 0.9839 0.10198 0.63871 0.0
C890 C 0.97211 0.11988 0.64411 0.0
H891 H 0.98859 0.20367 0.65347 0.0
H892 H 0.99385 0.17513 0.66726 0.0
H893 H 0.99037 0.17909 0.62756 0.0
H894 H 0.94635 0.12877 0.57014 0.0
H895 H 0.96797 0.09807 0.56041 0.0
H896 H 0.85868 0.85724 0.78884 0.0
H897 H 0.88571 0.87995 0.75824 0.0
H898 H 0.83658 0.82776 0.67793 0.0
H899 H 0.80865 0.8058 0.7084 0.0
H900 H 0.91511 0.86705 0.72751 0.0
H901 H 0.838 0.89304 0.64341 0.0
H902 H 0.83297 0.87965 0.67759 0.0
H903 H 0.83124 0.85953 0.6446 0.0
C904 C 0.85359 0.85053 0.76465 0.0
C905 C 0.83165 0.82931 0.7513 0.0
C906 C 0.86916 0.86358 0.74707 0.0
C907 C 0.86326 0.85603 0.71542 0.0
C908 C 0.84151 0.83452 0.70207 0.0
H909 H 0.94095 0.92366 0.57805 0.0
H910 H 0.91209 0.89639 0.60408 0.0
C911 C 0.82578 0.8215 0.71971 0.0
C912 C 0.88014 0.87068 0.69698 0.0
H913 H 0.87943 0.90392 0.63484 0.0
C914 C 0.9072 0.87508 0.70725 0.0
C915 C 0.87014 0.88126 0.67031 0.0
C916 C 0.84155 0.87837 0.65842 0.0
C917 C 0.92429 0.88944 0.69189 0.0
C918 C 0.9144 0.90045 0.66556 0.0
C919 C 0.88728 0.89568 0.65492 0.0
C920 C 0.93188 0.91737 0.64932 0.0
C921 C 0.95285 0.89217 0.70387 0.0
C922 C 0.95249 0.93878 0.66555 0.0
C923 C 0.9691 0.95433 0.65072 0.0
C924 C 0.96554 0.94926 0.61897 0.0
C925 C 0.94452 0.92818 0.6025 0.0
C926 C 0.9279 0.91253 0.61744 0.0
H927 H 0.95604 0.87634 0.71697 0.0
H928 H 0.96199 0.89273 0.68492 0.0
H929 H 0.96287 0.91008 0.71973 0.0
H930 H 0.95574 0.94367 0.68986 0.0
H931 H 0.98482 0.97044 0.66429 0.0
H932 H 0.34367 0.2272 0.14129 0.0
H933 H 0.36785 0.20867 0.11473 0.0
H934 H 0.29639 0.15234 0.06259 0.0
H935 H 0.27179 0.17229 0.08662 0.0
H936 H 0.37224 0.16371 0.11775 0.0
H937 H 0.32787 0.17054 0.99552 0.0
H938 H 0.32236 0.18757 0.02638 0.0
H939 H 0.30399 0.15466 0.01353 0.0
C940 C 0.33297 0.21146 0.12337 0.0
C941 C 0.30576 0.20133 0.11595 0.0
C942 C 0.34686 0.20074 0.10844 0.0
C943 C 0.33383 0.17948 0.08626 0.0
C944 C 0.30673 0.16927 0.07887 0.0
H945 H 0.38191 0.06493 0.00975 0.0
H946 H 0.35706 0.09203 0.02065 0.0
C947 C 0.29276 0.18038 0.09316 0.0
C948 C 0.3488 0.16664 0.07291 0.0
H949 H 0.35211 0.14084 0.00555 0.0
C950 C 0.36835 0.15934 0.09317 0.0
C951 C 0.34326 0.16056 0.04086 0.0
C952 C 0.3234 0.16898 0.01787 0.0
C953 C 0.38242 0.14588 0.08222 0.0
C954 C 0.37673 0.13969 0.05021 0.0
C955 C 0.3569 0.14648 0.02997 0.0
C956 C 0.39071 0.12531 0.03764 0.0
C957 C 0.40259 0.13759 0.10499 0.0
C958 C 0.41747 0.13571 0.04205 0.0
C959 C 0.4317 0.12035 0.03591 0.0
C960 C 0.41921 0.09451 0.02502 0.0
C961 C 0.392 0.08482 0.01793 0.0
C962 C 0.37781 0.10019 0.02425 0.0
H963 H 0.40053 0.13905 0.12857 0.0
H964 H 0.4012 0.1177 0.09806 0.0
H965 H 0.42229 0.14988 0.10571 0.0
H966 H 0.42753 0.15527 0.05195 0.0
H967 H 0.4526 0.12835 0.04134 0.0
H968 H 0.82463 0.4094 0.15592 0.0
H969 H 0.8334 0.4116 0.10684 0.0
H970 H 0.7875 0.33303 0.07849 0.0
H971 H 0.77894 0.33071 0.12799 0.0
H972 H 0.83733 0.33742 0.09898 0.0
H973 H 0.83423 0.40852 0.02004 0.0
H974 H 0.8311 0.42198 0.05464 0.0
H975 H 0.80652 0.39334 0.03349 0.0
C976 C 0.81514 0.39304 0.13856 0.0
C977 C 0.80238 0.36962 0.14623 0.0
C978 C 0.81972 0.39434 0.10999 0.0
C979 C 0.8121 0.37202 0.08937 0.0
C980 C 0.79403 0.35031 0.09428 0.0
H981 H 0.9703 0.42999 0.0958 0.0
H982 H 0.93113 0.39413 0.07213 0.0
C983 C 0.78939 0.34899 0.1229 0.0
C984 C 0.8316 0.36887 0.07436 0.0
H985 H 0.87973 0.4146 0.05851 0.0
C986 C 0.84624 0.35337 0.0883 0.0
C987 C 0.84317 0.38859 0.05915 0.0
C988 C 0.82768 0.40379 0.04069 0.0
C989 C 0.87337 0.36175 0.09528 0.0
C990 C 0.88535 0.38503 0.08634 0.0
C991 C 0.87029 0.3969 0.06589 0.0
C992 C 0.91119 0.40094 0.10468 0.0
C993 C 0.88912 0.34798 0.11616 0.0
C994 C 0.91312 0.41557 0.13162 0.0
C995 C 0.93494 0.43657 0.14441 0.0
C996 C 0.95489 0.44281 0.1303 0.0
C997 C 0.95444 0.426 0.10605 0.0
C998 C 0.93237 0.40541 0.09278 0.0
H999 H 0.87798 0.32765 0.11474 0.0
H1000 H 0.9075 0.3495 0.11035 0.0
H1001 H 0.89424 0.35681 0.14024 0.0
H1002 H 0.89672 0.41219 0.14099 0.0
H1003 H 0.93498 0.44916 0.16326 0.0
H1004 H 0.65528 0.79503 0.0969 0.0
H1005 H 0.6239 0.81485 0.06859 0.0
H1006 H 0.67943 0.88888 0.10395 0.0
H1007 H 0.71094 0.86921 0.13201 0.0
H1008 H 0.60426 0.84761 0.09423 0.0
H1009 H 0.65559 0.894 0.01263 0.0
H1010 H 0.66479 0.86972 0.03396 0.0
H1011 H 0.67483 0.90186 0.05205 0.0
C1012 C 0.66078 0.81552 0.09842 0.0
C1013 C 0.68551 0.83066 0.11636 0.0
C1014 C 0.64297 0.82676 0.08219 0.0
C1015 C 0.64967 0.85323 0.08374 0.0
C1016 C 0.67428 0.86839 0.10177 0.0
H1017 H 0.57732 0.96582 0.04046 0.0
H1018 H 0.60636 0.94019 0.0522 0.0
C1019 C 0.69217 0.85717 0.11782 0.0
C1020 C 0.63025 0.86506 0.0683 0.0
H1021 H 0.6196 0.907 0.01759 0.0
C1022 C 0.60734 0.86029 0.0771 0.0
C1023 C 0.63465 0.88169 0.04621 0.0
C1024 C 0.6587 0.88697 0.03543 0.0
C1025 C 0.58898 0.87253 0.0652 0.0
C1026 C 0.59354 0.88941 0.0434 0.0
C1027 C 0.61618 0.89377 0.03408 0.0
C1028 C 0.57631 0.90466 0.03237 0.0
C1029 C 0.56558 0.86823 0.0772 0.0
C1030 C 0.55003 0.8931 0.01636 0.0
C1031 C 0.53328 0.90773 0.00949 0.0
C1032 C 0.54281 0.93405 0.01829 0.0
C1033 C 0.56947 0.94562 0.0329 0.0
C1034 C 0.58609 0.93102 0.0398 0.0
H1035 H 0.56798 0.85903 0.09857 0.0
H1036 H 0.56192 0.88642 0.08195 0.0
H1037 H 0.54815 0.85567 0.05964 0.0
H1038 H 0.54237 0.87275 0.01002 0.0
H1039 H 0.51285 0.89847 0.998 0.0
H1040 H 0.18454 0.74767 0.22588 0.0
H1041 H 0.15655 0.71457 0.18373 0.0
H1042 H 0.21966 0.72404 0.14333 0.0
H1043 H 0.24775 0.75739 0.18541 0.0
H1044 H 0.14311 0.71276 0.1154 0.0
H1045 H 0.20086 0.6491 0.16311 0.0
H1046 H 0.20418 0.67786 0.18596 0.0
H1047 H 0.21656 0.67957 0.15331 0.0
C1048 C 0.19229 0.74301 0.20775 0.0
C1049 C 0.21837 0.75467 0.20915 0.0
C1050 C 0.17632 0.72419 0.18366 0.0
C1051 C 0.18618 0.71674 0.16067 0.0
C1052 C 0.21181 0.72937 0.16104 0.0
H1053 H 0.0868 0.56172 0.08843 0.0
H1054 H 0.12284 0.59985 0.089 0.0
C1055 C 0.22779 0.74829 0.18512 0.0
C1056 C 0.17003 0.69399 0.13866 0.0
H1057 H 0.1576 0.62997 0.13416 0.0
C1058 C 0.14653 0.69464 0.11869 0.0
C1059 C 0.17493 0.67051 0.14214 0.0
C1060 C 0.20046 0.66896 0.16223 0.0
C1061 C 0.12645 0.67219 0.10522 0.0
C1062 C 0.12991 0.64864 0.11272 0.0
C1063 C 0.15471 0.64801 0.12904 0.0
C1064 C 0.10745 0.62565 0.10955 0.0
C1065 C 0.10128 0.67432 0.08492 0.0
C1066 C 0.0873 0.62734 0.12169 0.0
C1067 C 0.06692 0.60577 0.12127 0.0
C1068 C 0.06636 0.5821 0.10887 0.0
C1069 C 0.08673 0.58003 0.09747 0.0
C1070 C 0.10723 0.60172 0.09784 0.0
H1071 H 0.10537 0.68779 0.06814 0.0
H1072 H 0.08786 0.65592 0.07215 0.0
H1073 H 0.09136 0.68221 0.09923 0.0
H1074 H 0.0876 0.64533 0.13219 0.0
H1075 H 0.05161 0.60756 0.13077 0.0
H1076 H 0.34764 0.82116 0.80962 0.0
H1077 H 0.38548 0.85103 0.84644 0.0
H1078 H 0.35697 0.82076 0.92088 0.0
H1079 H 0.31912 0.79036 0.8837 0.0
H1080 H 0.35748 0.87203 0.90908 0.0
H1081 H 0.45306 0.85806 0.91851 0.0
H1082 H 0.43125 0.85064 0.8802 0.0
H1083 H 0.42302 0.83205 0.90962 0.0
C1084 C 0.34974 0.82057 0.83377 0.0
C1085 C 0.3302 0.80426 0.84386 0.0
C1086 C 0.37163 0.8372 0.85485 0.0
C1087 C 0.37401 0.83795 0.88633 0.0
C1088 C 0.35556 0.82017 0.89664 0.0
H1089 H 0.44918 0.98786 0.99259 0.0
H1090 H 0.42519 0.94291 0.97991 0.0
C1091 C 0.33386 0.80312 0.87544 0.0
C1092 C 0.3909 0.86137 0.90633 0.0
H1093 H 0.45309 0.90126 0.92713 0.0
C1094 C 0.37849 0.8783 0.91393 0.0
C1095 C 0.41814 0.86935 0.91203 0.0
C1096 C 0.43223 0.8515 0.90492 0.0
C1097 C 0.39231 0.90378 0.92449 0.0
C1098 C 0.41946 0.91216 0.92884 0.0
C1099 C 0.4322 0.89476 0.92343 0.0
C1100 C 0.43463 0.9392 0.93714 0.0
C1101 C 0.37732 0.92176 0.92848 0.0
C1102 C 0.44819 0.95192 0.91754 0.0
C1103 C 0.46235 0.97761 0.92515 0.0
C1104 C 0.46309 0.99085 0.95248 0.0
C1105 C 0.44893 0.97815 0.97151 0.0
C1106 C 0.43517 0.95246 0.96422 0.0
H1107 H 0.35619 0.91345 0.91668 0.0
H1108 H 0.37964 0.9261 0.95327 0.0
H1109 H 0.38466 0.93985 0.91938 0.0
H1110 H 0.44786 0.94195 0.89641 0.0
H1111 H 0.47322 0.98688 0.91008 0.0
H1112 H 0.16991 0.33188 0.89478 0.0
H1113 H 0.1432 0.35377 0.91243 0.0
H1114 H 0.18956 0.42477 0.89348 0.0
H1115 H 0.21545 0.40289 0.87417 0.0
H1116 H 0.15493 0.39016 0.95896 0.0
H1117 H 0.1182 0.42715 0.85062 0.0
H1118 H 0.13511 0.40383 0.85246 0.0
H1119 H 0.15304 0.43694 0.86395 0.0
C1120 C 0.17418 0.35208 0.8937 0.0
C1121 C 0.19485 0.36543 0.88261 0.0
C1122 C 0.15897 0.36465 0.90416 0.0
C1123 C 0.16392 0.39094 0.90383 0.0
C1124 C 0.18479 0.40441 0.89331 0.0
H1125 H 0.10338 0.50384 0.96962 0.0
H1126 H 0.12817 0.48064 0.94991 0.0
C1127 C 0.19991 0.39184 0.88264 0.0
C1128 C 0.14763 0.40425 0.91512 0.0
H1129 H 0.11054 0.44375 0.89519 0.0
C1130 C 0.14507 0.4017 0.94487 0.0
C1131 C 0.13464 0.41937 0.89686 0.0
C1132 C 0.13514 0.42181 0.8641 0.0
C1133 C 0.13047 0.41418 0.957 0.0
C1134 C 0.1178 0.42952 0.93888 0.0
C1135 C 0.12026 0.43204 0.90914 0.0
C1136 C 0.10227 0.44344 0.95058 0.0
C1137 C 0.12919 0.41135 0.98942 0.0
C1138 C 0.07913 0.43033 0.95714 0.0
C1139 C 0.06476 0.44359 0.96834 0.0
C1140 C 0.07332 0.47029 0.97348 0.0
C1141 C 0.09635 0.48331 0.96644 0.0
C1142 C 0.11052 0.47006 0.95499 0.0
H1143 H 0.14414 0.40321 0.00242 0.0
H1144 H 0.13186 0.42997 0.00193 0.0
H1145 H 0.10975 0.3985 0.98882 0.0
H1146 H 0.07215 0.40979 0.95357 0.0
H1147 H 0.04723 0.43291 0.97357 0.0
H1148 H 0.73443 0.20178 0.81914 0.0
H1149 H 0.70404 0.17902 0.84572 0.0
H1150 H 0.68963 0.24848 0.86957 0.0
H1151 H 0.71975 0.27148 0.84236 0.0
H1152 H 0.70496 0.18552 0.90583 0.0
H1153 H 0.61663 0.20045 0.82932 0.0
H1154 H 0.64687 0.20699 0.8196 0.0
H1155 H 0.64264 0.22915 0.84617 0.0
C1156 C 0.7248 0.21229 0.82995 0.0
C1157 C 0.72938 0.23845 0.82846 0.0
C1158 C 0.70746 0.19922 0.84521 0.0
C1159 C 0.69435 0.21199 0.85926 0.0
C1160 C 0.69919 0.23819 0.85834 0.0
H1161 H 0.60902 0.14051 0.98586 0.0
H1162 H 0.64074 0.16888 0.96442 0.0
C1163 C 0.7165 0.25132 0.84293 0.0
C1164 C 0.67567 0.19769 0.87487 0.0
H1165 H 0.61172 0.18015 0.87305 0.0
C1166 C 0.68457 0.18437 0.89878 0.0
C1167 C 0.64905 0.19598 0.86525 0.0
C1168 C 0.6381 0.20869 0.8385 0.0
C1169 C 0.66752 0.16921 0.91326 0.0
C1170 C 0.64095 0.16788 0.90409 0.0
C1171 C 0.63213 0.18138 0.88028 0.0
C1172 C 0.62159 0.15141 0.91745 0.0
C1173 C 0.67801 0.15407 0.93744 0.0
C1174 C 0.59984 0.13276 0.89809 0.0
C1175 C 0.58153 0.11689 0.91016 0.0
C1176 C 0.58458 0.11925 0.94192 0.0
C1177 C 0.60618 0.13817 0.96131 0.0
C1178 C 0.62444 0.15424 0.94912 0.0
H1179 H 0.69671 0.15185 0.93576 0.0
H1180 H 0.68163 0.16412 0.96051 0.0
H1181 H 0.66392 0.13493 0.93548 0.0
H1182 H 0.59718 0.13026 0.87358 0.0
H1183 H 0.56514 0.10251 0.89457 0.0
H1184 H 0.83675 0.7204 0.78769 0.0
H1185 H 0.86065 0.69456 0.81688 0.0
H1186 H 0.8477 0.72179 0.8996 0.0
H1187 H 0.82447 0.74848 0.87071 0.0
H1188 H 0.89543 0.71977 0.91158 0.0
H1189 H 0.82998 0.62861 0.84456 0.0
H1190 H 0.84348 0.65004 0.82048 0.0
H1191 H 0.82222 0.65786 0.84024 0.0
C1192 C 0.83902 0.72103 0.81212 0.0
C1193 C 0.82849 0.73648 0.82674 0.0
C1194 C 0.85251 0.70597 0.82876 0.0
C1195 C 0.85538 0.70557 0.86033 0.0
C1196 C 0.84554 0.72152 0.87521 0.0
H1197 H 0.90309 0.5864 0.9577 0.0
H1198 H 0.87865 0.61343 0.93174 0.0
C1199 C 0.83225 0.73682 0.85862 0.0
C1200 C 0.86897 0.68881 0.87782 0.0
H1201 H 0.87073 0.62773 0.87734 0.0
C1202 C 0.88989 0.6996 0.90421 0.0
C1203 C 0.86148 0.66235 0.86868 0.0
C1204 C 0.83788 0.64899 0.84215 0.0
C1205 C 0.90389 0.68489 0.92121 0.0
C1206 C 0.89739 0.6587 0.91101 0.0
C1207 C 0.87605 0.64781 0.88504 0.0
C1208 C 0.91238 0.64225 0.92686 0.0
C1209 C 0.92513 0.69761 0.95027 0.0
C1210 C 0.93947 0.64899 0.93226 0.0
C1211 C 0.9535 0.63363 0.94728 0.0
C1212 C 0.94078 0.61085 0.95686 0.0
C1213 C 0.91355 0.60372 0.9506 0.0
C1214 C 0.89954 0.61925 0.93583 0.0
H1215 H 0.92177 0.71456 0.96013 0.0
H1216 H 0.92659 0.68444 0.96792 0.0
H1217 H 0.94402 0.70409 0.94495 0.0
H1218 H 0.94982 0.66607 0.92462 0.0
H1219 H 0.97435 0.63948 0.95101 0.0
H1220 H 0.2342 0.34047 0.2994 0.0
H1221 H 0.20574 0.367 0.28565 0.0
H1222 H 0.19024 0.3415 0.18984 0.0
H1223 H 0.21747 0.31402 0.20359 0.0
H1224 H 0.20532 0.40545 0.25851 0.0
H1225 H 0.11807 0.33205 0.18541 0.0
H1226 H 0.14591 0.32414 0.2075 0.0
H1227 H 0.14526 0.33528 0.17063 0.0
C1228 C 0.22451 0.34022 0.27537 0.0
C1229 C 0.22817 0.32459 0.25278 0.0
C1230 C 0.20812 0.35561 0.26741 0.0
C1231 C 0.19477 0.35618 0.23651 0.0
C1232 C 0.19904 0.34104 0.21392 0.0
H1233 H 0.09623 0.44521 0.14219 0.0
H1234 H 0.12381 0.41836 0.1565 0.0
C1235 C 0.21507 0.32535 0.22188 0.0
C1236 C 0.17729 0.3731 0.22816 0.0
H1237 H 0.11796 0.3748 0.18306 0.0
C1238 C 0.18613 0.39847 0.2422 0.0
C1239 C 0.15197 0.36465 0.20675 0.0
C1240 C 0.13964 0.33749 0.19197 0.0
C1241 C 0.17107 0.41531 0.23529 0.0
C1242 C 0.14594 0.40692 0.21368 0.0
C1243 C 0.13709 0.38163 0.19954 0.0
C1244 C 0.12865 0.42394 0.20522 0.0
C1245 C 0.18268 0.44227 0.25078 0.0
C1246 C 0.1213 0.4363 0.22747 0.0
C1247 C 0.10479 0.4516 0.21925 0.0
C1248 C 0.09485 0.45534 0.18832 0.0
C1249 C 0.10248 0.44292 0.1662 0.0
C1250 C 0.11873 0.42744 0.17442 0.0
H1251 H 0.20422 0.44774 0.25955 0.0
H1252 H 0.17742 0.45576 0.23482 0.0
H1253 H 0.17508 0.44414 0.27065 0.0
H1254 H 0.1279 0.43373 0.25138 0.0
H1255 H 0.09946 0.46002 0.23738 0.0
H1256 H 0.18727 0.63553 0.85998 0.0
H1257 H 0.17585 0.62082 0.90576 0.0
H1258 H 0.23313 0.68785 0.96124 0.0
H1259 H 0.24426 0.70297 0.91538 0.0
H1260 H 0.20136 0.61483 0.9695 0.0
H1261 H 0.1597 0.69532 0.95536 0.0
H1262 H 0.17158 0.68407 0.9261 0.0
H1263 H 0.1941 0.70185 0.96127 0.0
C1264 C 0.198 0.64665 0.88211 0.0
C1265 C 0.21621 0.67048 0.88426 0.0
C1266 C 0.19167 0.63819 0.90821 0.0
C1267 C 0.2035 0.65354 0.93656 0.0
C1268 C 0.22386 0.67592 0.9394 0.0
H1269 H 0.09149 0.62299 0.04328 0.0
H1270 H 0.1341 0.64358 0.03571 0.0
C1271 C 0.23019 0.68443 0.91324 0.0
C1272 C 0.19042 0.64855 0.96058 0.0
H1273 H 0.1422 0.66339 0.98228 0.0
C1274 C 0.18908 0.62586 0.97337 0.0
C1275 C 0.17445 0.66311 0.96528 0.0
C1276 C 0.17481 0.68741 0.95127 0.0
C1277 C 0.17036 0.61609 0.98849 0.0
C1278 C 0.1527 0.62939 0.99042 0.0
C1279 C 0.15589 0.65337 0.9806 0.0
C1280 C 0.12802 0.61676 0.99655 0.0
C1281 C 0.16841 0.59078 0.00026 0.0
C1282 C 0.1104 0.59569 0.97627 0.0
C1283 C 0.08626 0.58414 0.9805 0.0
C1284 C 0.07938 0.59363 0.00501 0.0
C1285 C 0.09666 0.61529 0.02459 0.0
C1286 C 0.1209 0.62689 0.02038 0.0
H1287 H 0.18768 0.58754 0.0068 0.0
H1288 H 0.16061 0.58939 0.02039 0.0
H1289 H 0.15511 0.57546 0.9818 0.0
H1290 H 0.1153 0.58822 0.95706 0.0
H1291 H 0.07333 0.56739 0.96508 0.0
H1292 H 0.33105 0.26535 0.87795 0.0
H1293 H 0.36076 0.24566 0.91036 0.0
H1294 H 0.32893 0.17844 0.84415 0.0
H1295 H 0.30009 0.19816 0.81133 0.0
H1296 H 0.35466 0.20048 0.93698 0.0
H1297 H 0.40552 0.20116 0.84781 0.0
H1298 H 0.38296 0.21887 0.84692 0.0
H1299 H 0.37123 0.18558 0.83272 0.0
C1300 C 0.33021 0.24626 0.87058 0.0
C1301 C 0.31375 0.23343 0.84189 0.0
C1302 C 0.34716 0.2351 0.88904 0.0
C1303 C 0.34747 0.21099 0.87905 0.0
C1304 C 0.32947 0.1974 0.8517 0.0
H1305 H 0.41433 0.09585 0.92547 0.0
H1306 H 0.38716 0.12306 0.90931 0.0
C1307 C 0.31293 0.20863 0.83309 0.0
C1308 C 0.3672 0.20013 0.89614 0.0
H1309 H 0.41237 0.17317 0.88599 0.0
C1310 C 0.36765 0.1949 0.92614 0.0
C1311 C 0.38436 0.19331 0.88197 0.0
C1312 C 0.38623 0.20028 0.85071 0.0
C1313 C 0.38378 0.18146 0.94162 0.0
C1314 C 0.39936 0.17303 0.92649 0.0
C1315 C 0.39993 0.17942 0.89719 0.0
C1316 C 0.41413 0.1562 0.93971 0.0
C1317 C 0.38341 0.17531 0.97344 0.0
C1318 C 0.43784 0.1659 0.96265 0.0
C1319 C 0.45359 0.15053 0.97165 0.0
C1320 C 0.4457 0.12533 0.95771 0.0
C1321 C 0.42112 0.11534 0.93613 0.0
C1322 C 0.40553 0.13074 0.92703 0.0
H1323 H 0.36877 0.18166 0.98121 0.0
H1324 H 0.37925 0.15456 0.974 0.0
H1325 H 0.40287 0.18472 0.98985 0.0
H1326 H 0.44469 0.18563 0.97246 0.0
H1327 H 0.47249 0.15878 0.9882 0.0
H1328 H 0.82789 0.28577 0.89229 0.0
H1329 H 0.85241 0.31818 0.93662 0.0
H1330 H 0.85433 0.37654 0.87671 0.0
H1331 H 0.83023 0.34421 0.83232 0.0
H1332 H 0.90237 0.38162 0.91617 0.0
H1333 H 0.82971 0.36899 0.98154 0.0
H1334 H 0.83656 0.34059 0.97152 0.0
H1335 H 0.82108 0.35607 0.94175 0.0
C1336 C 0.83337 0.30554 0.88861 0.0
C1337 C 0.82706 0.3124 0.85875 0.0
C1338 C 0.84724 0.32408 0.91404 0.0
C1339 C 0.85499 0.34993 0.91019 0.0
C1340 C 0.84851 0.35678 0.88038 0.0
H1341 H 0.92049 0.48988 0.03365 0.0
H1342 H 0.89045 0.45023 0.00274 0.0
C1343 C 0.83467 0.33826 0.85498 0.0
C1344 C 0.87114 0.36977 0.93677 0.0
H1345 H 0.87167 0.39755 0.00549 0.0
C1346 C 0.89568 0.38498 0.93579 0.0
C1347 C 0.8624 0.37438 0.96236 0.0
C1348 C 0.83591 0.35934 0.96439 0.0
C1349 C 0.91162 0.40458 0.95942 0.0
C1350 C 0.9031 0.40897 0.98526 0.0
C1351 C 0.87849 0.39389 0.98619 0.0
C1352 C 0.91901 0.43021 0.01028 0.0
C1353 C 0.93713 0.42101 0.9559 0.0
C1354 C 0.94456 0.43167 0.02655 0.0
C1355 C 0.96164 0.45428 0.04425 0.0
C1356 C 0.95334 0.47562 0.0469 0.0
C1357 C 0.92713 0.47342 0.03296 0.0
C1358 C 0.91004 0.45083 0.015 0.0
H1359 H 0.93789 0.4191 0.9318 0.0
H1360 H 0.94047 0.4413 0.96336 0.0
H1361 H 0.9533 0.4152 0.97043 0.0
H1362 H 0.95186 0.41591 0.02377 0.0
H1363 H 0.98195 0.45573 0.05379 0.0
H1364 H 0.7066 0.88769 0.84266 0.0
H1365 H 0.68191 0.91331 0.85785 0.0
H1366 H 0.70466 0.89625 0.95087 0.0
H1367 H 0.73085 0.87228 0.93651 0.0
H1368 H 0.64107 0.89776 0.87979 0.0
H1369 H 0.71985 0.9711 0.96616 0.0
H1370 H 0.72643 0.94981 0.9406 0.0
H1371 H 0.71816 0.93951 0.97468 0.0
C1372 C 0.70697 0.88998 0.86653 0.0
C1373 C 0.72079 0.87796 0.88836 0.0
C1374 C 0.69263 0.90441 0.8751 0.0
C1375 C 0.69179 0.90699 0.90559 0.0
C1376 C 0.70556 0.89506 0.9274 0.0
H1377 H 0.60499 0.97644 0.99652 0.0
H1378 H 0.63145 0.95149 0.98391 0.0
C1379 C 0.7202 0.881 0.91899 0.0
C1380 C 0.67539 0.92102 0.91425 0.0
H1381 H 0.67645 0.96904 0.96428 0.0
C1382 C 0.64884 0.91345 0.89813 0.0
C1383 C 0.68556 0.94134 0.93838 0.0
C1384 C 0.71411 0.95108 0.95574 0.0
C1385 C 0.6321 0.92556 0.9056 0.0
C1386 C 0.64231 0.94589 0.92963 0.0
C1387 C 0.66876 0.95332 0.94598 0.0
C1388 C 0.6261 0.9605 0.93723 0.0
C1389 C 0.60361 0.91632 0.88792 0.0
C1390 C 0.61483 0.97404 0.91529 0.0
C1391 C 0.59988 0.98827 0.92242 0.0
C1392 C 0.59606 0.98932 0.9517 0.0
C1393 C 0.6077 0.97602 0.97383 0.0
C1394 C 0.62268 0.96172 0.96664 0.0
H1395 H 0.5977 0.89654 0.87665 0.0
H1396 H 0.59124 0.91721 0.90314 0.0
H1397 H 0.59983 0.92859 0.8697 0.0
H1398 H 0.61785 0.97383 0.89274 0.0
H1399 H 0.59165 0.99879 0.90513 0.0
H1400 H 0.80541 0.72353 0.20456 0.0
H1401 H 0.82987 0.69735 0.18963 0.0
H1402 H 0.86443 0.69283 0.28487 0.0
H1403 H 0.84034 0.71939 0.29989 0.0
H1404 H 0.90089 0.69864 0.25744 0.0
H1405 H 0.81683 0.623 0.18229 0.0
H1406 H 0.81886 0.65359 0.16986 0.0
H1407 H 0.81287 0.64736 0.20625 0.0
C1408 C 0.81809 0.71693 0.22247 0.0
C1409 C 0.82044 0.72377 0.25364 0.0
C1410 C 0.83209 0.70156 0.2138 0.0
C1411 C 0.84902 0.69216 0.23584 0.0
C1412 C 0.85161 0.69932 0.26698 0.0
H1413 H 0.90842 0.56587 0.19503 0.0
H1414 H 0.88445 0.59284 0.20848 0.0
C1415 C 0.83758 0.71462 0.27567 0.0
C1416 C 0.86437 0.67553 0.22678 0.0
H1417 H 0.8586 0.62185 0.18102 0.0
C1418 C 0.89145 0.68185 0.24071 0.0
C1419 C 0.85267 0.65313 0.2052 0.0
C1420 C 0.82369 0.64367 0.19025 0.0
C1421 C 0.90676 0.6671 0.23371 0.0
C1422 C 0.89521 0.64509 0.21146 0.0
C1423 C 0.86805 0.6386 0.19781 0.0
C1424 C 0.91056 0.62831 0.20263 0.0
C1425 C 0.93524 0.67504 0.25121 0.0
C1426 C 0.93358 0.63839 0.19397 0.0
C1427 C 0.94755 0.62271 0.18585 0.0
C1428 C 0.93921 0.59599 0.18574 0.0
C1429 C 0.91594 0.58599 0.19412 0.0
C1430 C 0.90198 0.60168 0.20215 0.0
H1431 H 0.93928 0.68671 0.27341 0.0
H1432 H 0.94213 0.65835 0.25593 0.0
H1433 H 0.94665 0.68677 0.23741 0.0
H1434 H 0.94071 0.65855 0.19291 0.0
H1435 H 0.96474 0.63178 0.17905 0.0
H1436 H 0.31308 0.85906 0.23988 0.0
H1437 H 0.33555 0.88748 0.20938 0.0
H1438 H 0.36537 0.82909 0.1828 0.0
H1439 H 0.34156 0.80005 0.21179 0.0
H1440 H 0.38261 0.90803 0.21224 0.0
H1441 H 0.33844 0.84709 0.1007 0.0
H1442 H 0.32711 0.83936 0.13374 0.0
H1443 H 0.35501 0.83142 0.12904 0.0
C1444 C 0.32436 0.85223 0.22744 0.0
C1445 C 0.3254 0.82724 0.22804 0.0
C1446 C 0.33721 0.86852 0.20996 0.0
C1447 C 0.35172 0.86033 0.19303 0.0
C1448 C 0.35355 0.83564 0.19459 0.0
H1449 H 0.46914 0.96788 0.13015 0.0
H1450 H 0.44503 0.93869 0.15849 0.0
C1451 C 0.34016 0.81912 0.21149 0.0
C1452 C 0.3654 0.87791 0.17451 0.0
H1453 H 0.37584 0.8825 0.10398 0.0
C1454 C 0.3809 0.90247 0.18847 0.0
C1455 C 0.36287 0.87099 0.14325 0.0
C1456 C 0.34472 0.84589 0.12574 0.0
C1457 C 0.39412 0.92011 0.17233 0.0
C1458 C 0.39293 0.91266 0.14167 0.0
C1459 C 0.37713 0.88822 0.12756 0.0
C1460 C 0.40783 0.92989 0.12384 0.0
C1461 C 0.40855 0.94673 0.18824 0.0
C1462 C 0.39541 0.93378 0.09406 0.0
C1463 C 0.40941 0.94999 0.07734 0.0
C1464 C 0.43608 0.96286 0.09022 0.0
C1465 C 0.44853 0.95864 0.11978 0.0
C1466 C 0.43466 0.94207 0.13617 0.0
H1467 H 0.40007 0.95163 0.20627 0.0
H1468 H 0.42908 0.94813 0.19972 0.0
H1469 H 0.40822 0.96095 0.17179 0.0
H1470 H 0.37479 0.92445 0.08379 0.0
H1471 H 0.3993 0.95264 0.0545 0.0
H1472 H 0.74037 0.20856 0.25361 0.0
H1473 H 0.70497 0.17264 0.22148 0.0
H1474 H 0.6998 0.21596 0.14475 0.0
H1475 H 0.73492 0.25215 0.17688 0.0
H1476 H 0.65282 0.18109 0.18771 0.0
H1477 H 0.70132 0.14127 0.11441 0.0
H1478 H 0.71884 0.15824 0.15229 0.0
H1479 H 0.70898 0.17525 0.12104 0.0
C1480 C 0.73175 0.21037 0.22986 0.0
C1481 C 0.74008 0.23316 0.21776 0.0
C1482 C 0.71171 0.18984 0.21156 0.0
C1483 C 0.70003 0.19174 0.18083 0.0
C1484 C 0.70886 0.21417 0.16838 0.0
H1485 H 0.56788 0.09585 0.03787 0.0
H1486 H 0.60813 0.12809 0.06748 0.0
C1487 C 0.72879 0.23479 0.18675 0.0
C1488 C 0.67699 0.17119 0.16267 0.0
H1489 H 0.65578 0.12335 0.10355 0.0
C1490 C 0.65341 0.16834 0.16939 0.0
C1491 C 0.67801 0.15494 0.1387 0.0
C1492 C 0.70312 0.15733 0.13108 0.0
C1493 C 0.63055 0.1497 0.15243 0.0
C1494 C 0.63158 0.13314 0.1287 0.0
C1495 C 0.65518 0.13604 0.1219 0.0
C1496 C 0.60818 0.11286 0.11054 0.0
C1497 C 0.60539 0.14831 0.15956 0.0
C1498 C 0.59527 0.09345 0.12489 0.0
C1499 C 0.57232 0.07509 0.10802 0.0
C1500 C 0.56212 0.07574 0.07648 0.0
C1501 C 0.57546 0.09483 0.06204 0.0
C1502 C 0.59838 0.11324 0.07893 0.0
H1503 H 0.60673 0.16616 0.17276 0.0
H1504 H 0.58905 0.14441 0.13815 0.0
H1505 H 0.6008 0.13266 0.1736 0.0
H1506 H 0.60283 0.09265 0.1492 0.0
H1507 H 0.56255 0.06048 0.11972 0.0
H1508 H 0.74913 0.74581 0.83717 0.0
H1509 H 0.72238 0.72264 0.86832 0.0
H1510 H 0.67494 0.66878 0.78887 0.0
H1511 H 0.70145 0.69176 0.75798 0.0
H1512 H 0.6708 0.71006 0.86591 0.0
H1513 H 0.69395 0.62131 0.84819 0.0
H1514 H 0.71116 0.65073 0.83729 0.0
H1515 H 0.6801 0.6314 0.81251 0.0
C1516 C 0.73272 0.72933 0.82624 0.0
C1517 C 0.72735 0.72091 0.79488 0.0
C1518 C 0.71751 0.71587 0.84418 0.0
C1519 C 0.69676 0.69344 0.83133 0.0
C1520 C 0.69112 0.68549 0.79983 0.0
H1521 H 0.57849 0.57921 0.88612 0.0
H1522 H 0.60753 0.60609 0.8605 0.0
C1523 C 0.70625 0.69886 0.78202 0.0
C1524 C 0.68095 0.67826 0.85047 0.0
H1525 H 0.65835 0.61813 0.86884 0.0
C1526 C 0.66831 0.69001 0.86676 0.0
C1527 C 0.67752 0.65199 0.85191 0.0
C1528 C 0.69161 0.63817 0.83681 0.0
C1529 C 0.65172 0.67622 0.88319 0.0
C1530 C 0.64786 0.64982 0.88408 0.0
C1531 C 0.66094 0.63822 0.86824 0.0
C1532 C 0.6299 0.63364 0.90039 0.0
C1533 C 0.63773 0.69001 0.89845 0.0
C1534 C 0.6326 0.6396 0.93178 0.0
C1535 C 0.61578 0.62414 0.94662 0.0
C1536 C 0.59586 0.60207 0.93063 0.0
C1537 C 0.59345 0.59599 0.89936 0.0
C1538 C 0.61018 0.61144 0.88457 0.0
H1539 H 0.63677 0.70778 0.88848 0.0
H1540 H 0.61762 0.67789 0.89631 0.0
H1541 H 0.64842 0.69522 0.92322 0.0
H1542 H 0.64795 0.65611 0.94502 0.0
H1543 H 0.61845 0.62945 0.9707 0.0
H1544 H 0.35957 0.74491 0.78405 0.0
H1545 H 0.38627 0.71957 0.80922 0.0
H1546 H 0.32379 0.67802 0.84391 0.0
H1547 H 0.29662 0.70251 0.81781 0.0
H1548 H 0.40372 0.71572 0.86819 0.0
H1549 H 0.34093 0.62071 0.80812 0.0
H1550 H 0.3354 0.64958 0.79561 0.0
H1551 H 0.32437 0.63658 0.82706 0.0
C1552 C 0.35138 0.73009 0.79663 0.0
C1553 C 0.32587 0.72542 0.79855 0.0
C1554 C 0.36669 0.7157 0.81109 0.0
C1555 C 0.35683 0.69655 0.82791 0.0
C1556 C 0.33149 0.69212 0.83022 0.0
H1557 H 0.4272 0.59725 0.93946 0.0
H1558 H 0.39897 0.62219 0.91641 0.0
C1559 C 0.31602 0.70621 0.81537 0.0
C1560 C 0.37343 0.68185 0.84387 0.0
H1561 H 0.37634 0.6217 0.85119 0.0
C1562 C 0.39777 0.69517 0.86436 0.0
C1563 C 0.36558 0.65502 0.83889 0.0
C1564 C 0.34026 0.63965 0.816 0.0
C1565 C 0.41446 0.68238 0.88012 0.0
C1566 C 0.40658 0.65562 0.87516 0.0
C1567 C 0.38217 0.64225 0.855 0.0
C1568 C 0.42388 0.64116 0.88973 0.0
C1569 C 0.44032 0.69757 0.90211 0.0
C1570 C 0.44701 0.64355 0.8821 0.0
C1571 C 0.46311 0.62944 0.89519 0.0
C1572 C 0.45628 0.61257 0.91605 0.0
C1573 C 0.43307 0.61027 0.92371 0.0
C1574 C 0.41691 0.62437 0.91048 0.0
H1575 H 0.44075 0.71717 0.90892 0.0
H1576 H 0.44481 0.68824 0.92312 0.0
H1577 H 0.45588 0.69885 0.89085 0.0
H1578 H 0.45249 0.65617 0.86578 0.0
H1579 H 0.481 0.63182 0.88909 0.0
H1580 H 0.32278 0.34817 0.80825 0.0
H1581 H 0.34696 0.37532 0.8568 0.0
H1582 H 0.37811 0.31584 0.89107 0.0
H1583 H 0.35591 0.28971 0.84129 0.0
H1584 H 0.34874 0.37403 0.91481 0.0
H1585 H 0.44364 0.37022 0.90094 0.0
H1586 H 0.41362 0.35658 0.87108 0.0
H1587 H 0.42173 0.34039 0.90404 0.0
C1588 C 0.33516 0.34117 0.82608 0.0
C1589 C 0.33814 0.31729 0.82108 0.0
C1590 C 0.34862 0.35645 0.85392 0.0
C1591 C 0.36473 0.34778 0.87741 0.0
C1592 C 0.36651 0.32325 0.87295 0.0
H1593 H 0.48822 0.45956 0.01358 0.0
H1594 H 0.45166 0.4205 0.00062 0.0
C1595 C 0.35386 0.30836 0.8446 0.0
C1596 C 0.38137 0.36561 0.90504 0.0
H1597 H 0.44482 0.39902 0.93972 0.0
C1598 C 0.36978 0.37922 0.92067 0.0
C1599 C 0.40883 0.37218 0.91291 0.0
C1600 C 0.42274 0.35926 0.89628 0.0
C1601 C 0.38495 0.40067 0.9419 0.0
C1602 C 0.41217 0.40813 0.94788 0.0
C1603 C 0.42381 0.39303 0.93486 0.0
C1604 C 0.42894 0.43367 0.96224 0.0
C1605 C 0.37188 0.41601 0.95646 0.0
C1606 C 0.42784 0.45416 0.94534 0.0
C1607 C 0.44875 0.47651 0.95268 0.0
C1608 C 0.47083 0.47855 0.97708 0.0
C1609 C 0.47111 0.45862 0.99511 0.0
C1610 C 0.45026 0.43635 0.98784 0.0
H1611 H 0.35202 0.40446 0.9563 0.0
H1612 H 0.38356 0.42384 0.98049 0.0
H1613 H 0.37018 0.43216 0.94333 0.0
H1614 H 0.4118 0.45211 0.92498 0.0
H1615 H 0.44812 0.49168 0.93852 0.0
H1616 H 0.68154 0.32179 0.87771 0.0
H1617 H 0.65323 0.33243 0.9057 0.0
H1618 H 0.66088 0.40269 0.86627 0.0
H1619 H 0.68958 0.39276 0.83915 0.0
H1620 H 0.66593 0.38097 0.94743 0.0
H1621 H 0.5803 0.36339 0.84546 0.0
H1622 H 0.60584 0.3492 0.84712 0.0
H1623 H 0.61031 0.3814 0.83903 0.0
C1624 C 0.67731 0.33958 0.87527 0.0
C1625 C 0.6874 0.35632 0.85596 0.0
C1626 C 0.66111 0.34549 0.89105 0.0
C1627 C 0.65476 0.36799 0.88734 0.0
C1628 C 0.66527 0.38496 0.86873 0.0
H1629 H 0.62153 0.48274 0.96484 0.0
H1630 H 0.63893 0.44913 0.954 0.0
C1631 C 0.68152 0.37921 0.85321 0.0
C1632 C 0.63757 0.37461 0.90318 0.0
H1633 H 0.58341 0.39322 0.8874 0.0
C1634 C 0.64742 0.38292 0.9347 0.0
C1635 C 0.61341 0.37673 0.88636 0.0
C1636 C 0.60169 0.36697 0.85264 0.0
C1637 C 0.63469 0.39561 0.94938 0.0
C1638 C 0.61199 0.40026 0.93174 0.0
C1639 C 0.6009 0.38972 0.90087 0.0
C1640 C 0.6019 0.41932 0.943 0.0
C1641 C 0.64644 0.40504 0.98316 0.0
C1642 C 0.57524 0.41376 0.93976 0.0
C1643 C 0.56517 0.4331 0.94539 0.0
C1644 C 0.58172 0.45812 0.95434 0.0
C1645 C 0.60849 0.46348 0.95848 0.0
C1646 C 0.61847 0.44425 0.95259 0.0
H1647 H 0.65621 0.39192 0.99521 0.0
H1648 H 0.66148 0.42376 0.98613 0.0
H1649 H 0.63156 0.40714 0.99418 0.0
H1650 H 0.56215 0.39466 0.93189 0.0
H1651 H 0.54446 0.4286 0.94223 0.0
H1652 H 0.68554 0.29013 0.24243 0.0
H1653 H 0.65707 0.31282 0.21388 0.0
H1654 H 0.72399 0.3696 0.20237 0.0
H1655 H 0.75236 0.348 0.23182 0.0
H1656 H 0.69433 0.39092 0.22216 0.0
H1657 H 0.63313 0.31795 0.1235 0.0
H1658 H 0.63225 0.30731 0.16004 0.0
H1659 H 0.6622 0.31495 0.14975 0.0
C1660 C 0.6941 0.3074 0.2337 0.0
C1661 C 0.72119 0.31727 0.23944 0.0
C1662 C 0.67782 0.32019 0.21713 0.0
C1663 C 0.68841 0.34271 0.20565 0.0
C1664 C 0.71539 0.35224 0.21097 0.0
H1665 H 0.60643 0.42403 0.07711 0.0
H1666 H 0.63263 0.39788 0.10163 0.0
C1667 C 0.7316 0.33978 0.22781 0.0
C1668 C 0.67189 0.35752 0.18985 0.0
H1669 H 0.62013 0.35481 0.12873 0.0
C1670 C 0.67816 0.38303 0.20165 0.0
C1671 C 0.65107 0.34728 0.16287 0.0
C1672 C 0.64439 0.32045 0.14809 0.0
C1673 C 0.66418 0.39862 0.1873 0.0
C1674 C 0.64267 0.38814 0.16107 0.0
C1675 C 0.63649 0.36269 0.14904 0.0
C1676 C 0.62629 0.40332 0.14599 0.0
C1677 C 0.673 0.4263 0.20005 0.0
C1678 C 0.61367 0.41456 0.16266 0.0
C1679 C 0.5988 0.4295 0.1488 0.0
C1680 C 0.59606 0.43331 0.11786 0.0
C1681 C 0.60816 0.42144 0.10095 0.0
C1682 C 0.62315 0.40655 0.11492 0.0
H1683 H 0.69384 0.43279 0.21361 0.0
H1684 H 0.67019 0.43844 0.18144 0.0
H1685 H 0.66146 0.42907 0.21558 0.0
H1686 H 0.61526 0.41171 0.18643 0.0
H1687 H 0.58918 0.4378 0.16224 0.0
H1688 H 0.70526 0.75327 0.22576 0.0
H1689 H 0.67798 0.73105 0.17499 0.0
H1690 H 0.70007 0.66426 0.19795 0.0
H1691 H 0.72865 0.68701 0.24763 0.0
H1692 H 0.70336 0.675 0.14126 0.0
H1693 H 0.6084 0.67893 0.1548 0.0
H1694 H 0.63297 0.70881 0.15831 0.0
H1695 H 0.63751 0.68764 0.1867 0.0
C1696 C 0.70427 0.73388 0.21968 0.0
C1697 C 0.71931 0.72194 0.24003 0.0
C1698 C 0.6886 0.72119 0.19092 0.0
C1699 C 0.68712 0.69609 0.18271 0.0
C1700 C 0.70126 0.68378 0.20372 0.0
H1701 H 0.60437 0.56011 0.10364 0.0
H1702 H 0.63912 0.6003 0.12243 0.0
C1703 C 0.71731 0.69664 0.23219 0.0
C1704 C 0.67073 0.68211 0.15251 0.0
H1705 H 0.60733 0.65343 0.11237 0.0
C1706 C 0.68237 0.67068 0.13455 0.0
C1707 C 0.64342 0.67704 0.14341 0.0
C1708 C 0.62973 0.68858 0.16182 0.0
C1709 C 0.66719 0.65212 0.10973 0.0
C1710 C 0.63993 0.64524 0.10274 0.0
C1711 C 0.62838 0.65889 0.11811 0.0
C1712 C 0.62332 0.62034 0.08615 0.0
C1713 C 0.68023 0.63858 0.09267 0.0
C1714 C 0.60335 0.6184 0.05928 0.0
C1715 C 0.58357 0.59542 0.04846 0.0
C1716 C 0.58335 0.57445 0.06486 0.0
C1717 C 0.60407 0.57612 0.09082 0.0
C1718 C 0.62405 0.59891 0.10127 0.0
H1719 H 0.70028 0.65058 0.0942 0.0
H1720 H 0.68151 0.62105 0.103 0.0
H1721 H 0.66883 0.63308 0.06812 0.0
H1722 H 0.60233 0.63494 0.04774 0.0
H1723 H 0.56761 0.59453 0.02845 0.0
H1724 H 0.38269 0.72687 0.18335 0.0
H1725 H 0.41232 0.71255 0.16125 0.0
H1726 H 0.35332 0.64024 0.12715 0.0
H1727 H 0.3239 0.65394 0.14983 0.0
H1728 H 0.42693 0.66923 0.17909 0.0
H1729 H 0.38148 0.65974 0.05352 0.0
H1730 H 0.37427 0.67912 0.0808 0.0
H1731 H 0.35906 0.64531 0.0743 0.0
C1732 C 0.37596 0.708 0.17091 0.0
C1733 C 0.35098 0.6915 0.16834 0.0
C1734 C 0.3928 0.7 0.15813 0.0
C1735 C 0.38469 0.67561 0.14223 0.0
C1736 C 0.35955 0.6594 0.13871 0.0
H1737 H 0.43113 0.55917 0.0808 0.0
H1738 H 0.41083 0.59024 0.09259 0.0
C1739 C 0.34279 0.66728 0.15166 0.0
C1740 C 0.4033 0.66576 0.13243 0.0
H1741 H 0.41098 0.63574 0.07061 0.0
C1742 C 0.42396 0.66241 0.15532 0.0
C1743 C 0.39901 0.65689 0.10144 0.0
C1744 C 0.37737 0.66064 0.07606 0.0
C1745 C 0.43946 0.64867 0.14823 0.0
C1746 C 0.43441 0.63879 0.11734 0.0
C1747 C 0.41472 0.64347 0.09425 0.0
C1748 C 0.44706 0.62095 0.10902 0.0
C1749 C 0.45983 0.64336 0.17403 0.0
C1750 C 0.47406 0.62819 0.11416 0.0
C1751 C 0.48573 0.61041 0.10765 0.0
C1752 C 0.47038 0.58541 0.09556 0.0
C1753 C 0.4433 0.57843 0.08984 0.0
C1754 C 0.43173 0.59609 0.09655 0.0
H1755 H 0.45765 0.64815 0.19692 0.0
H1756 H 0.4588 0.62308 0.17141 0.0
H1757 H 0.47943 0.65495 0.17345 0.0
H1758 H 0.48605 0.64746 0.12334 0.0
H1759 H 0.50664 0.61618 0.11186 0.0
H1760 H 0.3251 0.35857 0.25151 0.0
H1761 H 0.3491 0.38154 0.21836 0.0
H1762 H 0.36669 0.31405 0.19363 0.0
H1763 H 0.34057 0.29055 0.22503 0.0
H1764 H 0.39495 0.39618 0.22238 0.0
H1765 H 0.35387 0.33393 0.11185 0.0
H1766 H 0.33921 0.32832 0.14272 0.0
H1767 H 0.36651 0.31744 0.14219 0.0
C1768 C 0.33329 0.34839 0.23807 0.0
C1769 C 0.33035 0.32257 0.24032 0.0
C1770 C 0.34742 0.36167 0.2193 0.0
C1771 C 0.35989 0.34984 0.20276 0.0
C1772 C 0.35675 0.32379 0.20491 0.0
H1773 H 0.49201 0.45045 0.15063 0.0
H1774 H 0.46389 0.4226 0.1763 0.0
C1775 C 0.34181 0.31023 0.22306 0.0
C1776 C 0.37733 0.36545 0.18534 0.0
H1777 H 0.39396 0.36664 0.11783 0.0
C1778 C 0.39434 0.38962 0.19935 0.0
C1779 C 0.3769 0.35756 0.15503 0.0
C1780 C 0.35794 0.33303 0.13696 0.0
C1781 C 0.4104 0.40587 0.18432 0.0
C1782 C 0.41106 0.39745 0.1547 0.0
C1783 C 0.39403 0.3733 0.14058 0.0
C1784 C 0.4289 0.41345 0.13802 0.0
C1785 C 0.42564 0.43236 0.2002 0.0
C1786 C 0.41956 0.41676 0.10693 0.0
C1787 C 0.43606 0.4322 0.0917 0.0
C1788 C 0.46239 0.44507 0.10717 0.0
C1789 C 0.47181 0.44129 0.13798 0.0
C1790 C 0.45552 0.42545 0.15293 0.0
H1791 H 0.41604 0.43868 0.21617 0.0
H1792 H 0.44521 0.43255 0.21409 0.0
H1793 H 0.42785 0.44628 0.18349 0.0
H1794 H 0.39931 0.40771 0.09444 0.0
H1795 H 0.42805 0.43443 0.06794 0.0
H1796 H 0.81016 0.64295 0.64226 0.0
H1797 H 0.8348 0.61786 0.62538 0.0
H1798 H 0.90432 0.68227 0.65472 0.0
H1799 H 0.8803 0.70695 0.67291 0.0
H1800 H 0.86173 0.62668 0.58189 0.0
H1801 H 0.92866 0.62706 0.69608 0.0
H1802 H 0.8997 0.63631 0.6916 0.0
H1803 H 0.92879 0.65825 0.68706 0.0
C1804 C 0.8308 0.65157 0.64564 0.0
C1805 C 0.84327 0.67692 0.65897 0.0
C1806 C 0.84477 0.63732 0.63573 0.0
C1807 C 0.87143 0.64813 0.63916 0.0
C1808 C 0.88388 0.6734 0.65239 0.0
H1809 H 0.99358 0.59898 0.59954 0.0
H1810 H 0.96663 0.62336 0.6115 0.0
C1811 C 0.87003 0.68757 0.66245 0.0
C1812 C 0.88629 0.63324 0.62852 0.0
H1813 H 0.93936 0.61297 0.65267 0.0
C1814 C 0.87862 0.62352 0.59735 0.0
C1815 C 0.90829 0.62917 0.64878 0.0
C1816 C 0.91672 0.63803 0.68279 0.0
C1817 C 0.89271 0.61025 0.58574 0.0
C1818 C 0.91496 0.60654 0.60596 0.0
C1819 C 0.92248 0.61611 0.63715 0.0
C1820 C 0.93061 0.5924 0.59566 0.0
C1821 C 0.88366 0.60057 0.55194 0.0
C1822 C 0.91924 0.567 0.58243 0.0
C1823 C 0.93458 0.55305 0.5754 0.0
C1824 C 0.96162 0.56416 0.58193 0.0
C1825 C 0.97284 0.58978 0.59458 0.0
C1826 C 0.95747 0.60376 0.60132 0.0
H1827 H 0.8735 0.61274 0.53829 0.0
H1828 H 0.89998 0.59956 0.54298 0.0
H1829 H 0.86965 0.58119 0.54831 0.0
H1830 H 0.89863 0.5577 0.57848 0.0
H1831 H 0.9254 0.53326 0.56612 0.0
H1832 H 0.32164 0.90335 0.65797 0.0
H1833 H 0.33368 0.93342 0.62268 0.0
H1834 H 0.34017 0.87354 0.56482 0.0
H1835 H 0.32813 0.8436 0.59973 0.0
H1836 H 0.38377 0.93165 0.62848 0.0
H1837 H 0.33148 0.92586 0.50553 0.0
H1838 H 0.31487 0.91564 0.53414 0.0
H1839 H 0.32967 0.89543 0.5185 0.0
C1840 C 0.32424 0.89642 0.63679 0.0
C1841 C 0.32493 0.87153 0.63191 0.0
C1842 C 0.33074 0.91351 0.61647 0.0
C1843 C 0.33816 0.90573 0.59148 0.0
C1844 C 0.33426 0.87988 0.58381 0.0
H1845 H 0.46295 0.94055 0.51521 0.0
H1846 H 0.42103 0.92502 0.52633 0.0
C1847 C 0.32764 0.86277 0.60402 0.0
C1848 C 0.35864 0.92391 0.58198 0.0
H1849 H 0.37867 0.94079 0.51926 0.0
C1850 C 0.38247 0.93444 0.6047 0.0
C1851 C 0.35698 0.92659 0.55092 0.0
C1852 C 0.33178 0.91542 0.52589 0.0
C1853 C 0.40517 0.94618 0.59704 0.0
C1854 C 0.40366 0.94851 0.56583 0.0
C1855 C 0.3796 0.93909 0.54318 0.0
C1856 C 0.42728 0.95895 0.55636 0.0
C1857 C 0.43071 0.9541 0.62224 0.0
C1858 C 0.44423 0.9832 0.56916 0.0
C1859 C 0.46837 0.99153 0.56381 0.0
C1860 C 0.47538 0.97611 0.54463 0.0
C1861 C 0.45786 0.95251 0.53029 0.0
C1862 C 0.43396 0.94381 0.53641 0.0
H1863 H 0.42908 0.94467 0.64303 0.0
H1864 H 0.44624 0.94953 0.61439 0.0
H1865 H 0.43682 0.97486 0.62909 0.0
H1866 H 0.43905 0.99538 0.58394 0.0
H1867 H 0.48146 0.01015 0.57438 0.0
H1868 H 0.24307 0.29549 0.67099 0.0
H1869 H 0.21792 0.31733 0.63517 0.0
H1870 H 0.20829 0.35819 0.71165 0.0
H1871 H 0.23382 0.3376 0.74715 0.0
H1872 H 0.16849 0.31821 0.62556 0.0
H1873 H 0.23518 0.41542 0.66661 0.0
H1874 H 0.24473 0.38774 0.67677 0.0
H1875 H 0.22691 0.40006 0.69804 0.0
C1876 C 0.23594 0.30947 0.68007 0.0
C1877 C 0.241 0.31529 0.71189 0.0
C1878 C 0.22155 0.32181 0.65965 0.0
C1879 C 0.21209 0.33998 0.67091 0.0
C1880 C 0.21636 0.34503 0.70256 0.0
H1881 H 0.08245 0.38942 0.61285 0.0
H1882 H 0.11358 0.36593 0.62694 0.0
C1883 C 0.23089 0.33307 0.72284 0.0
C1884 C 0.19673 0.3532 0.65005 0.0
H1885 H 0.18991 0.41182 0.64239 0.0
C1886 C 0.17344 0.33872 0.62858 0.0
C1887 C 0.20346 0.37996 0.65372 0.0
C1888 C 0.22909 0.39665 0.67483 0.0
C1889 C 0.15575 0.35027 0.61228 0.0
C1890 C 0.16137 0.37682 0.61827 0.0
C1891 C 0.1855 0.39142 0.63806 0.0
C1892 C 0.14164 0.3896 0.60686 0.0
C1893 C 0.13095 0.33388 0.58945 0.0
C1894 C 0.14742 0.41111 0.59167 0.0
C1895 C 0.12995 0.42498 0.58443 0.0
C1896 C 0.10643 0.41744 0.59207 0.0
C1897 C 0.10047 0.39562 0.60671 0.0
C1898 C 0.11805 0.38196 0.61431 0.0
H1899 H 0.13377 0.31666 0.57946 0.0
H1900 H 0.11571 0.3275 0.60132 0.0
H1901 H 0.12389 0.3444 0.57052 0.0
H1902 H 0.16575 0.41755 0.58621 0.0
H1903 H 0.13528 0.44217 0.57409 0.0
H1904 H 0.73489 0.21292 0.72437 0.0
H1905 H 0.71199 0.18084 0.67946 0.0
H1906 H 0.70993 0.23984 0.62094 0.0
H1907 H 0.7333 0.27208 0.6658 0.0
H1908 H 0.66072 0.20108 0.6122 0.0
H1909 H 0.73909 0.15992 0.60832 0.0
H1910 H 0.73458 0.16319 0.64579 0.0
H1911 H 0.74538 0.19103 0.62799 0.0
C1912 C 0.7299 0.21909 0.70191 0.0
C1913 C 0.7361 0.24508 0.69869 0.0
C1914 C 0.71683 0.20071 0.67621 0.0
C1915 C 0.70948 0.20785 0.64668 0.0
C1916 C 0.71553 0.23381 0.6434 0.0
H1917 H 0.60829 0.10804 0.47562 0.0
H1918 H 0.64004 0.14505 0.51042 0.0
C1919 C 0.72888 0.25223 0.66909 0.0
C1920 C 0.69427 0.18814 0.61971 0.0
H1921 H 0.69579 0.13527 0.57972 0.0
C1922 C 0.66851 0.18691 0.60479 0.0
C1923 C 0.70446 0.16975 0.6098 0.0
C1924 C 0.73247 0.17107 0.62355 0.0
C1925 C 0.65229 0.16706 0.5815 0.0
C1926 C 0.66211 0.148 0.57259 0.0
C1927 C 0.68818 0.14976 0.58666 0.0
C1928 C 0.64489 0.1252 0.55048 0.0
C1929 C 0.62435 0.1659 0.56748 0.0
C1930 C 0.63745 0.1016 0.5612 0.0
C1931 C 0.61908 0.08056 0.54151 0.0
C1932 C 0.60808 0.0825 0.51043 0.0
C1933 C 0.61644 0.10588 0.49938 0.0
C1934 C 0.63452 0.12707 0.51927 0.0
H1935 H 0.61875 0.18012 0.57976 0.0
H1936 H 0.62145 0.16956 0.54319 0.0
H1937 H 0.61111 0.14671 0.56768 0.0
H1938 H 0.64521 0.09965 0.58514 0.0
H1939 H 0.61325 0.0628 0.55074 0.0
H1940 H 0.80328 0.35386 0.32512 0.0
H1941 H 0.84226 0.38866 0.35261 0.0
H1942 H 0.86054 0.34196 0.42343 0.0
H1943 H 0.82169 0.30696 0.3959 0.0
H1944 H 0.86663 0.39826 0.44181 0.0
H1945 H 0.91599 0.37868 0.3562 0.0
H1946 H 0.88389 0.38152 0.34182 0.0
H1947 H 0.8882 0.3553 0.36204 0.0
C1948 C 0.81555 0.35112 0.34666 0.0
C1949 C 0.80989 0.32771 0.35823 0.0
C1950 C 0.83764 0.37097 0.36233 0.0
C1951 C 0.8542 0.36762 0.38975 0.0
C1952 C 0.84786 0.34474 0.40222 0.0
H1953 H 1.00242 0.45326 0.51498 0.0
H1954 H 0.95965 0.42272 0.48962 0.0
C1955 C 0.82577 0.32484 0.38651 0.0
C1956 C 0.87925 0.38717 0.4041 0.0
H1957 H 0.93982 0.41227 0.39576 0.0
C1958 C 0.88267 0.40145 0.43183 0.0
C1959 C 0.8999 0.39114 0.39073 0.0
C1960 C 0.89705 0.37582 0.36114 0.0
C1961 C 0.90649 0.41984 0.44665 0.0
C1962 C 0.92735 0.42342 0.43361 0.0
C1963 C 0.92374 0.40934 0.40565 0.0
C1964 C 0.95322 0.44152 0.44877 0.0
C1965 C 0.90902 0.4355 0.47585 0.0
C1966 C 0.96404 0.46153 0.43365 0.0
C1967 C 0.98844 0.47882 0.44802 0.0
C1968 C 1.00225 0.47629 0.47769 0.0
C1969 C 0.99173 0.45586 0.49242 0.0
C1970 C 0.9674 0.43851 0.478 0.0
H1971 H 0.88972 0.43544 0.47804 0.0
H1972 H 0.91857 0.42742 0.49587 0.0
H1973 H 0.9211 0.45544 0.47685 0.0
H1974 H 0.95342 0.46396 0.41094 0.0
H1975 H 0.99619 0.49447 0.43622 0.0
H1976 H 0.75242 0.82661 0.35371 0.0
H1977 H 0.72805 0.85282 0.36901 0.0
H1978 H 0.68913 0.85306 0.27391 0.0
H1979 H 0.7132 0.82668 0.25855 0.0
H1980 H 0.72498 0.89984 0.35996 0.0
H1981 H 0.62663 0.83337 0.30485 0.0
H1982 H 0.65558 0.82418 0.309 0.0
H1983 H 0.64552 0.84198 0.27847 0.0
C1984 C 0.73859 0.83208 0.33592 0.0
C1985 C 0.73494 0.82408 0.30469 0.0
C1986 C 0.72455 0.84727 0.34479 0.0
C1987 C 0.70595 0.85488 0.32289 0.0
C1988 C 0.70259 0.84719 0.29168 0.0
H1989 H 0.59672 0.94252 0.32993 0.0
H1990 H 0.62161 0.91678 0.31546 0.0
C1991 C 0.71671 0.83213 0.28279 0.0
C1992 C 0.69059 0.87109 0.3326 0.0
H1993 H 0.62874 0.87441 0.32432 0.0
C1994 C 0.70391 0.8941 0.3522 0.0
C1995 C 0.66294 0.86422 0.32271 0.0
C1996 C 0.64677 0.83949 0.30284 0.0
C1997 C 0.69082 0.91036 0.36127 0.0
C1998 C 0.66308 0.90342 0.35159 0.0
C1999 C 0.64981 0.8803 0.33207 0.0
C2000 C 0.64753 0.91968 0.36103 0.0
C2001 C 0.70729 0.93542 0.38021 0.0
C2002 C 0.65273 0.93014 0.39177 0.0
C2003 C 0.63841 0.94523 0.4002 0.0
C2004 C 0.61772 0.95025 0.37847 0.0
C2005 C 0.61212 0.93927 0.34781 0.0
C2006 C 0.62663 0.92439 0.33934 0.0
H2007 H 0.7269 0.94168 0.37662 0.0
H2008 H 0.69805 0.9505 0.37455 0.0
H2009 H 0.71004 0.93328 0.40491 0.0
H2010 H 0.66773 0.92637 0.40968 0.0
H2011 H 0.64338 0.95253 0.42416 0.0
H2012 H 0.22185 0.69484 0.29396 0.0
H2013 H 0.19818 0.66666 0.32397 0.0
H2014 H 0.21438 0.73027 0.39175 0.0
H2015 H 0.23698 0.75857 0.36139 0.0
H2016 H 0.21304 0.65409 0.37928 0.0
H2017 H 0.1385 0.70132 0.37886 0.0
H2018 H 0.15989 0.70916 0.35484 0.0
H2019 H 0.17073 0.72283 0.39449 0.0
C2020 C 0.22005 0.70287 0.31505 0.0
C2021 C 0.23099 0.72905 0.32502 0.0
C2022 C 0.20658 0.68672 0.33226 0.0
C2023 C 0.20389 0.69637 0.35984 0.0
C2024 C 0.21531 0.72242 0.37007 0.0
H2025 H 0.14328 0.62607 0.50512 0.0
H2026 H 0.16727 0.6549 0.47556 0.0
C2027 C 0.22842 0.7386 0.35272 0.0
C2028 C 0.18989 0.67918 0.37842 0.0
H2029 H 0.14228 0.6712 0.41456 0.0
C2030 C 0.19746 0.65778 0.38679 0.0
C2031 C 0.16945 0.68387 0.38824 0.0
C2032 C 0.15898 0.70539 0.37837 0.0
C2033 C 0.1855 0.64127 0.40503 0.0
C2034 C 0.16551 0.64631 0.41532 0.0
C2035 C 0.15788 0.66761 0.40699 0.0
C2036 C 0.15143 0.62893 0.43349 0.0
C2037 C 0.19443 0.61864 0.41344 0.0
C2038 C 0.13445 0.60496 0.41954 0.0
C2039 C 0.12064 0.58864 0.43619 0.0
C2040 C 0.12356 0.59585 0.46727 0.0
C2041 C 0.14068 0.6199 0.4813 0.0
C2042 C 0.15435 0.63638 0.46444 0.0
H2043 H 0.21313 0.61994 0.40854 0.0
H2044 H 0.19675 0.61672 0.43815 0.0
H2045 H 0.17951 0.60117 0.39993 0.0
H2046 H 0.13171 0.59896 0.39561 0.0
H2047 H 0.10765 0.57029 0.42462 0.0
H2048 H 0.35142 0.24861 0.34644 0.0
H2049 H 0.37956 0.22183 0.36023 0.0
H2050 H 0.34327 0.1775 0.27129 0.0
H2051 H 0.31571 0.20476 0.25703 0.0
H2052 H 0.3726 0.17445 0.36821 0.0
H2053 H 0.4158 0.18741 0.27172 0.0
H2054 H 0.39609 0.20608 0.2793 0.0
H2055 H 0.38107 0.17458 0.25872 0.0
C2056 C 0.34949 0.23333 0.32957 0.0
C2057 C 0.33117 0.2293 0.30033 0.0
C2058 C 0.36572 0.21782 0.3376 0.0
C2059 C 0.36441 0.19761 0.31677 0.0
C2060 C 0.34574 0.19327 0.28775 0.0
H2061 H 0.44655 0.08201 0.32408 0.0
H2062 H 0.41772 0.10802 0.31039 0.0
C2063 C 0.32963 0.2089 0.27961 0.0
C2064 C 0.382 0.18091 0.32573 0.0
H2065 H 0.42405 0.15532 0.3022 0.0
C2066 C 0.38392 0.17048 0.35372 0.0
C2067 C 0.39706 0.17525 0.30721 0.0
C2068 C 0.39765 0.18661 0.27774 0.0
C2069 C 0.39958 0.15449 0.3632 0.0
C2070 C 0.41466 0.14881 0.34469 0.0
C2071 C 0.41272 0.15926 0.31668 0.0
C2072 C 0.43245 0.13228 0.35376 0.0
C2073 C 0.39899 0.14321 0.39272 0.0
C2074 C 0.45108 0.13678 0.38277 0.0
C2075 C 0.4675 0.12145 0.39102 0.0
C2076 C 0.46651 0.10108 0.37047 0.0
C2077 C 0.44807 0.09689 0.34119 0.0
C2078 C 0.43149 0.11213 0.33306 0.0
H2079 H 0.38073 0.14225 0.39857 0.0
H2080 H 0.40077 0.12382 0.39133 0.0
H2081 H 0.41542 0.15541 0.41176 0.0
H2082 H 0.45325 0.15245 0.39921 0.0
H2083 H 0.48087 0.12566 0.4139 0.0
H2084 H 0.72814 0.79853 0.67423 0.0
H2085 H 0.70364 0.82458 0.64576 0.0
H2086 H 0.70257 0.86049 0.73095 0.0
H2087 H 0.72645 0.83439 0.75947 0.0
H2088 H 0.65538 0.8477 0.68859 0.0
H2089 H 0.7319 0.89933 0.63724 0.0
H2090 H 0.72201 0.86544 0.62863 0.0
H2091 H 0.73809 0.88 0.66758 0.0
C2092 C 0.72259 0.81187 0.68693 0.0
C2093 C 0.72938 0.81429 0.71924 0.0
C2094 C 0.70876 0.82694 0.67059 0.0
C2095 C 0.70161 0.84486 0.6862 0.0
C2096 C 0.70794 0.84692 0.71835 0.0
H2097 H 0.65243 0.97359 0.62219 0.0
H2098 H 0.67554 0.94523 0.64748 0.0
C2099 C 0.72166 0.8319 0.73465 0.0
C2100 C 0.68727 0.86136 0.66936 0.0
H2101 H 0.69132 0.9073 0.62127 0.0
C2102 C 0.66323 0.86068 0.67381 0.0
C2103 C 0.69765 0.8786 0.6504 0.0
C2104 C 0.72393 0.88114 0.64583 0.0
C2105 C 0.64926 0.87659 0.65978 0.0
C2106 C 0.65935 0.89345 0.64032 0.0
C2107 C 0.68348 0.89426 0.63599 0.0
C2108 C 0.64531 0.91063 0.62465 0.0
C2109 C 0.62408 0.87563 0.66653 0.0
C2110 C 0.6207 0.90069 0.60317 0.0
C2111 C 0.6074 0.91685 0.58873 0.0
C2112 C 0.6184 0.94342 0.59535 0.0
C2113 C 0.64317 0.9533 0.61677 0.0
C2114 C 0.65652 0.93709 0.6311 0.0
H2115 H 0.62227 0.86643 0.68743 0.0
H2116 H 0.62248 0.89499 0.6697 0.0
H2117 H 0.60753 0.86449 0.64689 0.0
H2118 H 0.61176 0.88036 0.59748 0.0
H2119 H 0.58829 0.90847 0.57263 0.0
H2120 H 0.77837 0.18443 0.43095 0.0
H2121 H 0.772 0.13998 0.43886 0.0
H2122 H 0.6919 0.13075 0.43394 0.0
H2123 H 0.69786 0.17418 0.42554 0.0
H2124 H 0.70838 0.09032 0.45762 0.0
H2125 H 0.73479 0.10999 0.34931 0.0
H2126 H 0.75823 0.1215 0.38631 0.0
H2127 H 0.73358 0.13648 0.37225 0.0
C2128 C 0.75977 0.17319 0.43321 0.0
C2129 C 0.73806 0.18213 0.42518 0.0
C2130 C 0.7562 0.14777 0.43778 0.0
C2131 C 0.73106 0.13172 0.43481 0.0
C2132 C 0.71138 0.14259 0.43531 0.0
H2133 H 0.60692 0.09406 0.35388 0.0
H2134 H 0.65345 0.10186 0.36378 0.0
C2135 C 0.71485 0.16777 0.43047 0.0
C2136 C 0.72226 0.10513 0.42026 0.0
H2137 H 0.69354 0.08122 0.34491 0.0
C2138 C 0.70613 0.08721 0.43322 0.0
C2139 C 0.71981 0.10063 0.38848 0.0
C2140 C 0.73761 0.11804 0.37318 0.0
C2141 C 0.68382 0.06893 0.41434 0.0
C2142 C 0.67838 0.06831 0.38206 0.0
C2143 C 0.69763 0.08218 0.36968 0.0
C2144 C 0.65114 0.06219 0.36316 0.0
C2145 C 0.66411 0.0535 0.42881 0.0
C2146 C 0.63439 0.03723 0.35624 0.0
C2147 C 0.60754 0.03279 0.3494 0.0
C2148 C 0.59768 0.0533 0.35095 0.0
C2149 C 0.61409 0.078 0.35257 0.0
C2150 C 0.64075 0.08242 0.35861 0.0
H2151 H 0.67221 0.05443 0.45405 0.0
H2152 H 0.64701 0.06057 0.42429 0.0
H2153 H 0.65731 0.03343 0.41847 0.0
H2154 H 0.64208 0.0214 0.35941 0.0
H2155 H 0.59519 0.01351 0.34797 0.0
H2156 H 0.82976 0.6861 0.45249 0.0
H2157 H 0.85525 0.66003 0.47867 0.0
H2158 H 0.92416 0.70982 0.46249 0.0
H2159 H 0.89891 0.73613 0.4365 0.0
H2160 H 0.91026 0.65718 0.44037 0.0
H2161 H 0.91279 0.67373 0.56293 0.0
H2162 H 0.88159 0.66595 0.53465 0.0
H2163 H 0.90592 0.69551 0.53578 0.0
C2164 C 0.85047 0.69182 0.45521 0.0
C2165 C 0.86247 0.71311 0.44261 0.0
C2166 C 0.86493 0.67697 0.47015 0.0
C2167 C 0.89148 0.68336 0.47274 0.0
C2168 C 0.90364 0.70488 0.46081 0.0
H2169 H 0.01767 0.63003 0.55028 0.0
H2170 H 0.98531 0.65244 0.54257 0.0
C2171 C 0.88923 0.71972 0.44586 0.0
C2172 C 0.90612 0.66622 0.48485 0.0
H2173 H 0.93255 0.64406 0.55034 0.0
C2174 C 0.915 0.6541 0.46435 0.0
C2175 C 0.91205 0.66245 0.51611 0.0
C2176 C 0.90278 0.67519 0.5388 0.0
C2177 C 0.93021 0.63849 0.47443 0.0
C2178 C 0.93621 0.63475 0.50573 0.0
C2179 C 0.92734 0.6468 0.52629 0.0
C2180 C 0.95338 0.6198 0.51751 0.0
C2181 C 0.94046 0.62683 0.45176 0.0
C2182 C 0.9455 0.59388 0.50725 0.0
C2183 C 0.96389 0.58115 0.51124 0.0
C2184 C 0.99018 0.59419 0.52602 0.0
C2185 C 0.9975 0.61956 0.53891 0.0
C2186 C 0.9791 0.63234 0.53463 0.0
H2187 H 0.93804 0.63552 0.43002 0.0
H2188 H 0.9614 0.62897 0.46176 0.0
H2189 H 0.92971 0.60626 0.44612 0.0
H2190 H 0.92555 0.58404 0.49417 0.0
H2191 H 0.95779 0.56151 0.50137 0.0
H2192 H 0.37065 0.80922 0.31933 0.0
H2193 H 0.40209 0.83939 0.36195 0.0
H2194 H 0.34503 0.82786 0.41213 0.0
H2195 H 0.3129 0.79812 0.36849 0.0
H2196 H 0.36924 0.87578 0.41832 0.0
H2197 H 0.4453 0.83032 0.44225 0.0
H2198 H 0.43677 0.83145 0.40171 0.0
H2199 H 0.41268 0.81345 0.41887 0.0
C2200 C 0.36488 0.81284 0.33959 0.0
C2201 C 0.33949 0.80123 0.34078 0.0
C2202 C 0.38296 0.82991 0.36414 0.0
C2203 C 0.37628 0.83527 0.39082 0.0
C2204 C 0.35079 0.82372 0.39205 0.0
H2205 H 0.5214 0.95161 0.47975 0.0
H2206 H 0.48597 0.91401 0.48125 0.0
C2207 C 0.33248 0.80682 0.36714 0.0
C2208 C 0.39569 0.85469 0.41569 0.0
H2209 H 0.46143 0.87765 0.44434 0.0
C2210 C 0.38934 0.87594 0.42488 0.0
C2211 C 0.42172 0.85454 0.42634 0.0
C2212 C 0.42933 0.83098 0.42206 0.0
C2213 C 0.40894 0.89832 0.44006 0.0
C2214 C 0.43532 0.89975 0.44437 0.0
C2215 C 0.44133 0.87726 0.43977 0.0
C2216 C 0.45614 0.92433 0.44792 0.0
C2217 C 0.40104 0.92039 0.45002 0.0
C2218 C 0.45146 0.94277 0.42878 0.0
C2219 C 0.47153 0.96448 0.42867 0.0
C2220 C 0.49684 0.96807 0.44728 0.0
C2221 C 0.50186 0.94949 0.46583 0.0
C2222 C 0.48161 0.928 0.46657 0.0
H2223 H 0.3853 0.91366 0.46113 0.0
H2224 H 0.41752 0.93515 0.46637 0.0
H2225 H 0.39308 0.92897 0.42955 0.0
H2226 H 0.43247 0.93998 0.41286 0.0
H2227 H 0.46737 0.97828 0.41355 0.0
H2228 H 0.28401 0.39099 0.44227 0.0
H2229 H 0.26077 0.41205 0.46763 0.0
H2230 H 0.20228 0.34034 0.46197 0.0
H2231 H 0.22583 0.31889 0.43729 0.0
H2232 H 0.20794 0.40943 0.43844 0.0
H2233 H 0.22163 0.37404 0.55264 0.0
H2234 H 0.2429 0.37354 0.52903 0.0
H2235 H 0.21119 0.35054 0.51965 0.0
C2236 C 0.26656 0.37961 0.44713 0.0
C2237 C 0.25676 0.35331 0.43808 0.0
C2238 C 0.2533 0.39166 0.46144 0.0
C2239 C 0.23017 0.37758 0.46693 0.0
C2240 C 0.22044 0.35131 0.45834 0.0
H2241 H 0.10817 0.42999 0.49639 0.0
H2242 H 0.13385 0.4031 0.48732 0.0
C2243 C 0.23371 0.3392 0.44402 0.0
C2244 C 0.21503 0.39082 0.47907 0.0
H2245 H 0.19285 0.39865 0.54058 0.0
C2246 C 0.20468 0.40717 0.46079 0.0
C2247 C 0.21098 0.38763 0.50819 0.0
C2248 C 0.22238 0.37063 0.52872 0.0
C2249 C 0.19013 0.42048 0.47093 0.0
C2250 C 0.18594 0.41714 0.49993 0.0
C2251 C 0.19627 0.40088 0.51831 0.0
C2252 C 0.17079 0.43074 0.51116 0.0
C2253 C 0.17931 0.43805 0.45073 0.0
C2254 C 0.1834 0.45461 0.52841 0.0
C2255 C 0.16889 0.47008 0.53339 0.0
C2256 C 0.14173 0.46169 0.52102 0.0
C2257 C 0.12914 0.43698 0.50569 0.0
C2258 C 0.14366 0.42156 0.50076 0.0
H2259 H 0.18566 0.43954 0.42953 0.0
H2260 H 0.15773 0.43103 0.44402 0.0
H2261 H 0.18557 0.4573 0.46358 0.0
H2262 H 0.20444 0.46183 0.53629 0.0
H2263 H 0.179 0.48911 0.54513 0.0
H2264 H 0.38916 0.18837 0.71362 0.0
H2265 H 0.41657 0.16814 0.69454 0.0
H2266 H 0.36373 0.15505 0.60337 0.0
H2267 H 0.33675 0.17603 0.62188 0.0
H2268 H 0.40407 0.11849 0.66494 0.0
H2269 H 0.43375 0.18989 0.58883 0.0
H2270 H 0.41878 0.19583 0.6178 0.0
H2271 H 0.39925 0.17671 0.58201 0.0
C2272 C 0.38346 0.1815 0.68942 0.0
C2273 C 0.36062 0.18405 0.66939 0.0
C2274 C 0.39911 0.16972 0.67857 0.0
C2275 C 0.3925 0.16032 0.64739 0.0
C2276 C 0.36958 0.16251 0.62741 0.0
H2277 H 0.46597 0.09209 0.53501 0.0
H2278 H 0.43827 0.11063 0.55493 0.0
C2279 C 0.35393 0.17428 0.6382 0.0
C2280 C 0.40936 0.148 0.63584 0.0
H2281 H 0.44607 0.15277 0.58576 0.0
C2282 C 0.41336 0.12603 0.64771 0.0
C2283 C 0.42132 0.15763 0.61313 0.0
C2284 C 0.41829 0.18143 0.59983 0.0
C2285 C 0.42845 0.11317 0.63712 0.0
C2286 C 0.44083 0.12303 0.61471 0.0
C2287 C 0.43679 0.14507 0.60292 0.0
C2288 C 0.45773 0.11076 0.60282 0.0
C2289 C 0.43005 0.08864 0.64937 0.0
C2290 C 0.47837 0.10461 0.62282 0.0
C2291 C 0.49389 0.09297 0.61141 0.0
C2292 C 0.48982 0.08778 0.57953 0.0
C2293 C 0.46963 0.09485 0.55964 0.0
C2294 C 0.45378 0.10591 0.57107 0.0
H2295 H 0.41306 0.07958 0.65773 0.0
H2296 H 0.43099 0.07493 0.63159 0.0
H2297 H 0.44777 0.09261 0.66912 0.0
H2298 H 0.48262 0.10884 0.64742 0.0
H2299 H 0.50883 0.08779 0.62783 0.0
H2300 H 0.8396 0.28448 0.71162 0.0
H2301 H 0.86814 0.3068 0.68227 0.0
H2302 H 0.85866 0.37756 0.71133 0.0
H2303 H 0.82973 0.35547 0.74002 0.0
H2304 H 0.8542 0.37166 0.65013 0.0
H2305 H 0.94283 0.35171 0.71825 0.0
H2306 H 0.91549 0.32393 0.70199 0.0
H2307 H 0.91391 0.34615 0.7307 0.0
C2308 C 0.84363 0.3048 0.71178 0.0
C2309 C 0.8325 0.31821 0.72826 0.0
C2310 C 0.86002 0.31752 0.69512 0.0
C2311 C 0.86578 0.34387 0.695 0.0
C2312 C 0.85449 0.35722 0.71118 0.0
H2313 H 0.99262 0.4513 0.65434 0.0
H2314 H 0.96112 0.42387 0.67622 0.0
C2315 C 0.83801 0.34454 0.72764 0.0
C2316 C 0.88357 0.35771 0.67805 0.0
H2317 H 0.94614 0.37276 0.67465 0.0
C2318 C 0.87429 0.37186 0.65535 0.0
C2319 C 0.90981 0.35811 0.68525 0.0
C2320 C 0.92124 0.34437 0.71056 0.0
C2321 C 0.89064 0.38663 0.63979 0.0
C2322 C 0.91682 0.38677 0.64667 0.0
C2323 C 0.92599 0.3724 0.66917 0.0
C2324 C 0.93562 0.40317 0.6326 0.0
C2325 C 0.87999 0.40266 0.61698 0.0
C2326 C 0.93187 0.40052 0.60072 0.0
C2327 C 0.94991 0.41636 0.58801 0.0
C2328 C 0.97202 0.43495 0.60705 0.0
C2329 C 0.97577 0.43725 0.63897 0.0
C2330 C 0.9578 0.42153 0.65156 0.0
H2331 H 0.86167 0.40504 0.61977 0.0
H2332 H 0.89436 0.42172 0.61939 0.0
H2333 H 0.87575 0.3933 0.59336 0.0
H2334 H 0.91511 0.38614 0.58571 0.0
H2335 H 0.94652 0.41408 0.56336 0.0
H2336 H 0.21472 0.75848 0.72549 0.0
H2337 H 0.17278 0.72694 0.70265 0.0
H2338 H 0.20196 0.70176 0.63234 0.0
H2339 H 0.24429 0.7341 0.65501 0.0
H2340 H 0.14292 0.69444 0.61676 0.0
H2341 H 0.18843 0.65868 0.72368 0.0
H2342 H 0.18258 0.68869 0.72729 0.0
H2343 H 0.20664 0.68556 0.7093 0.0
C2344 C 0.21207 0.74705 0.70454 0.0
C2345 C 0.23286 0.74829 0.69234 0.0
C2346 C 0.1879 0.72912 0.69133 0.0
C2347 C 0.18457 0.71189 0.66623 0.0
C2348 C 0.20433 0.71503 0.6518 0.0
H2349 H 0.11708 0.56693 0.57456 0.0
H2350 H 0.13861 0.61142 0.59513 0.0
C2351 C 0.22849 0.73328 0.66484 0.0
C2352 C 0.1643 0.68722 0.66048 0.0
H2353 H 0.15348 0.62978 0.68735 0.0
C2354 C 0.1448 0.68038 0.63238 0.0
C2355 C 0.16668 0.66915 0.6813 0.0
C2356 C 0.18723 0.67571 0.71205 0.0
C2357 C 0.12856 0.65527 0.62369 0.0
C2358 C 0.13279 0.6368 0.64323 0.0
C2359 C 0.15074 0.64408 0.67235 0.0
C2360 C 0.12114 0.60958 0.63247 0.0
C2361 C 0.10758 0.64852 0.59336 0.0
C2362 C 0.10599 0.59361 0.64824 0.0
C2363 C 0.09428 0.56799 0.63706 0.0
C2364 C 0.09754 0.55823 0.6099 0.0
C2365 C 0.11433 0.57392 0.59555 0.0
C2366 C 0.12613 0.59943 0.60687 0.0
H2367 H 0.10097 0.66506 0.58654 0.0
H2368 H 0.11545 0.64265 0.57526 0.0
H2369 H 0.09054 0.63259 0.59432 0.0
H2370 H 0.10249 0.60113 0.66849 0.0
H2371 H 0.08145 0.55627 0.6486 0.0
loop_
_geom_bond_atom_site_label_1
_geom_bond_atom_site_label_2
_geom_bond_distance
_geom_bond_site_symmetry_2
_ccdc_geom_bond_type
C0 Eu1 2.835 . S
C0 C2 1.500 . S
C0 O20 1.257 . S
C0 O21 1.260 . S
Eu1 C0 2.835 . S
Eu1 O20 2.473 . S
Eu1 O21 2.480 . S
Eu1 O22 2.430 . S
Eu1 O23 2.670 . S
Eu1 O24 2.394 . S
Eu1 O29 2.355 . S
Eu1 O31 2.374 . S
C2 C0 1.500 . S
C2 C3 1.377 . S
C2 C7 1.377 . S
C3 C2 1.377 . S
C3 C4 1.395 . S
C3 H32 0.931 . S
C4 C3 1.395 . S
C4 C5 1.383 . S
C4 H33 0.931 . S
C5 C4 1.383 . S
C5 C6 1.394 . S
C6 C5 1.394 . S
C6 C7 1.378 . S
C6 H34 0.931 . S
C7 C2 1.377 . S
C7 C6 1.378 . S
C7 H35 0.931 . S
C8 O22 1.259 . S
C8 O23 1.270 . S
C9 O24 1.251 . S
C9 O25 1.251 . S
C10 Eu11 2.835 . S
C10 C12 1.500 . S
C10 O26 1.257 . S
C10 O27 1.260 . S
Eu11 C10 2.835 . S
Eu11 O23 2.355 . S
Eu11 O25 2.374 . S
Eu11 O26 2.473 . S
Eu11 O27 2.480 . S
Eu11 O28 2.430 . S
Eu11 O29 2.670 . S
Eu11 O30 2.394 . S
C12 C10 1.500 . S
C12 C13 1.377 . S
C12 C17 1.377 . S
C13 C12 1.377 . S
C13 C14 1.395 . S
C13 H36 0.931 . S
C14 C13 1.395 . S
C14 C15 1.383 . S
C14 H37 0.931 . S
C15 C14 1.383 . S
C15 C16 1.394 . S
C16 C15 1.394 . S
C16 C17 1.378 . S
C16 H38 0.931 . S
C17 C12 1.377 . S
C17 C16 1.378 . S
C17 H39 0.931 . S
C18 O28 1.259 . S
C18 O29 1.270 . S
C19 O30 1.251 . S
C19 O31 1.251 . S
O20 C0 1.257 . S
O20 Eu1 2.473 . S
O21 C0 1.260 . S
O21 Eu1 2.480 . S
O22 Eu1 2.430 . S
O22 C8 1.259 . S
O23 Eu1 2.670 . S
O23 C8 1.270 . S
O23 Eu11 2.355 . S
O24 Eu1 2.394 . S
O24 C9 1.251 . S
O25 C9 1.251 . S
O25 Eu11 2.374 . S
O26 C10 1.257 . S
O26 Eu11 2.473 . S
O27 C10 1.260 . S
O27 Eu11 2.480 . S
O28 Eu11 2.430 . S
O28 C18 1.259 . S
O29 Eu1 2.355 . S
O29 Eu11 2.670 . S
O29 C18 1.270 . S
O30 Eu11 2.394 . S
O30 C19 1.251 . S
O31 Eu1 2.374 . S
O31 C19 1.251 . S
H32 C3 0.931 . S
H33 C4 0.931 . S
H34 C6 0.931 . S
H35 C7 0.931 . S
H36 C13 0.931 . S
H37 C14 0.931 . S
H38 C16 0.931 . S
H39 C17 0.931 . S
C40 Eu41 2.835 . S
C40 C42 1.500 . S
C40 O60 1.257 . S
C40 O61 1.260 . S
Eu41 C40 2.835 . S
Eu41 O60 2.473 . S
Eu41 O61 2.480 . S
Eu41 O62 2.430 . S
Eu41 O63 2.670 . S
Eu41 O64 2.394 . S
Eu41 O69 2.355 . S
Eu41 O71 2.374 . S
C42 C40 1.500 . S
C42 C43 1.377 . S
C42 C47 1.377 . S
C43 C42 1.377 . S
C43 C44 1.395 . S
C43 H72 0.931 . S
C44 C43 1.395 . S
C44 C45 1.383 . S
C44 H73 0.931 . S
C45 C44 1.383 . S
C45 C46 1.394 . S
C46 C45 1.394 . S
C46 C47 1.378 . S
C46 H74 0.931 . S
C47 C42 1.377 . S
C47 C46 1.378 . S
C47 H75 0.931 . S
C48 O62 1.259 . S
C48 O63 1.270 . S
C49 O64 1.251 . S
C49 O65 1.251 . S
C50 Eu51 2.835 . S
C50 C52 1.500 . S
C50 O66 1.257 . S
C50 O67 1.260 . S
Eu51 C50 2.835 . S
Eu51 O63 2.355 . S
Eu51 O65 2.374 . S
Eu51 O66 2.473 . S
Eu51 O67 2.480 . S
Eu51 O68 2.430 . S
Eu51 O69 2.670 . S
Eu51 O70 2.394 . S
C52 C50 1.500 . S
C52 C53 1.377 . S
C52 C57 1.377 . S
C53 C52 1.377 . S
C53 C54 1.395 . S
C53 H76 0.931 . S
C54 C53 1.395 . S
C54 C55 1.383 . S
C54 H77 0.931 . S
C55 C54 1.383 . S
C55 C56 1.394 . S
C56 C55 1.394 . S
C56 C57 1.378 . S
C56 H78 0.931 . S
C57 C52 1.377 . S
C57 C56 1.378 . S
C57 H79 0.931 . S
C58 O68 1.259 . S
C58 O69 1.270 . S
C59 O70 1.251 . S
C59 O71 1.251 . S
O60 C40 1.257 . S
O60 Eu41 2.473 . S
O61 C40 1.260 . S
O61 Eu41 2.480 . S
O62 Eu41 2.430 . S
O62 C48 1.259 . S
O63 Eu41 2.670 . S
O63 C48 1.270 . S
O63 Eu51 2.355 . S
O64 Eu41 2.394 . S
O64 C49 1.251 . S
O65 C49 1.251 . S
O65 Eu51 2.374 . S
O66 C50 1.257 . S
O66 Eu51 2.473 . S
O67 C50 1.260 . S
O67 Eu51 2.480 . S
O68 Eu51 2.430 . S
O68 C58 1.259 . S
O69 Eu41 2.355 . S
O69 Eu51 2.670 . S
O69 C58 1.270 . S
O70 Eu51 2.394 . S
O70 C59 1.251 . S
O71 Eu41 2.374 . S
O71 C59 1.251 . S
H72 C43 0.931 . S
H73 C44 0.931 . S
H74 C46 0.931 . S
H75 C47 0.931 . S
H76 C53 0.931 . S
H77 C54 0.931 . S
H78 C56 0.931 . S
H79 C57 0.931 . S
C80 Eu81 2.835 . S
C80 C82 1.500 . S
C80 O100 1.257 . S
C80 O101 1.260 . S
Eu81 C80 2.835 . S
Eu81 O100 2.473 . S
Eu81 O101 2.480 . S
Eu81 O102 2.430 . S
Eu81 O103 2.670 . S
Eu81 O104 2.394 . S
Eu81 O109 2.355 . S
Eu81 O111 2.374 . S
C82 C80 1.500 . S
C82 C83 1.377 . S
C82 C87 1.377 . S
C83 C82 1.377 . S
C83 C84 1.395 . S
C83 H112 0.931 . S
C84 C83 1.395 . S
C84 C85 1.383 . S
C84 H113 0.931 . S
C85 C84 1.383 . S
C85 C86 1.394 . S
C86 C85 1.394 . S
C86 C87 1.378 . S
C86 H114 0.931 . S
C87 C82 1.377 . S
C87 C86 1.378 . S
C87 H115 0.931 . S
C88 O102 1.259 . S
C88 O103 1.270 . S
C89 O104 1.251 . S
C89 O105 1.251 . S
C90 Eu91 2.835 . S
C90 C92 1.500 . S
C90 O106 1.257 . S
C90 O107 1.260 . S
Eu91 C90 2.835 . S
Eu91 O103 2.355 . S
Eu91 O105 2.374 . S
Eu91 O106 2.473 . S
Eu91 O107 2.480 . S
Eu91 O108 2.430 . S
Eu91 O109 2.670 . S
Eu91 O110 2.394 . S
C92 C90 1.500 . S
C92 C93 1.377 . S
C92 C97 1.377 . S
C93 C92 1.377 . S
C93 C94 1.395 . S
C93 H116 0.931 . S
C94 C93 1.395 . S
C94 C95 1.383 . S
C94 H117 0.931 . S
C95 C94 1.383 . S
C95 C96 1.394 . S
C96 C95 1.394 . S
C96 C97 1.378 . S
C96 H118 0.931 . S
C97 C92 1.377 . S
C97 C96 1.378 . S
C97 H119 0.931 . S
C98 O108 1.259 . S
C98 O109 1.270 . S
C99 O110 1.251 . S
C99 O111 1.251 . S
O100 C80 1.257 . S
O100 Eu81 2.473 . S
O101 C80 1.260 . S
O101 Eu81 2.480 . S
O102 Eu81 2.430 . S
O102 C88 1.259 . S
O103 Eu81 2.670 . S
O103 C88 1.270 . S
O103 Eu91 2.355 . S
O104 Eu81 2.394 . S
O104 C89 1.251 . S
O105 C89 1.251 . S
O105 Eu91 2.374 . S
O106 C90 1.257 . S
O106 Eu91 2.473 . S
O107 C90 1.260 . S
O107 Eu91 2.480 . S
O108 Eu91 2.430 . S
O108 C98 1.259 . S
O109 Eu81 2.355 . S
O109 Eu91 2.670 . S
O109 C98 1.270 . S
O110 Eu91 2.394 . S
O110 C99 1.251 . S
O111 Eu81 2.374 . S
O111 C99 1.251 . S
H112 C83 0.931 . S
H113 C84 0.931 . S
H114 C86 0.931 . S
H115 C87 0.931 . S
H116 C93 0.931 . S
H117 C94 0.931 . S
H118 C96 0.931 . S
H119 C97 0.931 . S
C120 Eu121 2.835 . S
C120 C122 1.500 . S
C120 O140 1.257 . S
C120 O141 1.260 . S
Eu121 C120 2.835 . S
Eu121 O140 2.473 . S
Eu121 O141 2.480 . S
Eu121 O142 2.430 . S
Eu121 O143 2.670 . S
Eu121 O144 2.394 . S
Eu121 O149 2.355 . S
Eu121 O151 2.374 . S
C122 C120 1.500 . S
C122 C123 1.377 . S
C122 C127 1.377 . S
C123 C122 1.377 . S
C123 C124 1.395 . S
C123 H152 0.931 . S
C124 C123 1.395 . S
C124 C125 1.383 . S
C124 H153 0.931 . S
C125 C124 1.383 . S
C125 C126 1.394 . S
C126 C125 1.394 . S
C126 C127 1.378 . S
C126 H154 0.931 . S
C127 C122 1.377 . S
C127 C126 1.378 . S
C127 H155 0.931 . S
C128 O142 1.259 . S
C128 O143 1.270 . S
C129 O144 1.251 . S
C129 O145 1.251 . S
C130 Eu131 2.835 . S
C130 C132 1.500 . S
C130 O146 1.257 . S
C130 O147 1.260 . S
Eu131 C130 2.835 . S
Eu131 O143 2.355 . S
Eu131 O145 2.374 . S
Eu131 O146 2.473 . S
Eu131 O147 2.480 . S
Eu131 O148 2.430 . S
Eu131 O149 2.670 . S
Eu131 O150 2.394 . S
C132 C130 1.500 . S
C132 C133 1.377 . S
C132 C137 1.377 . S
C133 C132 1.377 . S
C133 C134 1.395 . S
C133 H156 0.931 . S
C134 C133 1.395 . S
C134 C135 1.383 . S
C134 H157 0.931 . S
C135 C134 1.383 . S
C135 C136 1.394 . S
C136 C135 1.394 . S
C136 C137 1.378 . S
C136 H158 0.931 . S
C137 C132 1.377 . S
C137 C136 1.378 . S
C137 H159 0.931 . S
C138 O148 1.259 . S
C138 O149 1.270 . S
C139 O150 1.251 . S
C139 O151 1.251 . S
O140 C120 1.257 . S
O140 Eu121 2.473 . S
O141 C120 1.260 . S
O141 Eu121 2.480 . S
O142 Eu121 2.430 . S
O142 C128 1.259 . S
O143 Eu121 2.670 . S
O143 C128 1.270 . S
O143 Eu131 2.355 . S
O144 Eu121 2.394 . S
O144 C129 1.251 . S
O145 C129 1.251 . S
O145 Eu131 2.374 . S
O146 C130 1.257 . S
O146 Eu131 2.473 . S
O147 C130 1.260 . S
O147 Eu131 2.480 . S
O148 Eu131 2.430 . S
O148 C138 1.259 . S
O149 Eu121 2.355 . S
O149 Eu131 2.670 . S
O149 C138 1.270 . S
O150 Eu131 2.394 . S
O150 C139 1.251 . S
O151 Eu121 2.374 . S
O151 C139 1.251 . S
H152 C123 0.931 . S
H153 C124 0.931 . S
H154 C126 0.931 . S
H155 C127 0.931 . S
H156 C133 0.931 . S
H157 C134 0.931 . S
H158 C136 0.931 . S
H159 C137 0.931 . S
C160 Eu161 2.835 . S
C160 C162 1.500 . S
C160 O180 1.257 . S
C160 O181 1.260 . S
Eu161 C160 2.835 . S
Eu161 O180 2.473 . S
Eu161 O181 2.480 . S
Eu161 O182 2.430 . S
Eu161 O183 2.670 . S
Eu161 O184 2.394 . S
Eu161 O189 2.355 . S
Eu161 O191 2.374 . S
C162 C160 1.500 . S
C162 C163 1.377 . S
C162 C167 1.377 . S
C163 C162 1.377 . S
C163 C164 1.395 . S
C163 H192 0.931 . S
C164 C163 1.395 . S
C164 C165 1.383 . S
C164 H193 0.931 . S
C165 C164 1.383 . S
C165 C166 1.394 . S
C166 C165 1.394 . S
C166 C167 1.378 . S
C166 H194 0.931 . S
C167 C162 1.377 . S
C167 C166 1.378 . S
C167 H195 0.931 . S
C168 O182 1.259 . S
C168 O183 1.270 . S
C169 O184 1.251 . S
C169 O185 1.251 . S
C170 Eu171 2.835 . S
C170 C172 1.500 . S
C170 O186 1.257 . S
C170 O187 1.260 . S
Eu171 C170 2.835 . S
Eu171 O183 2.355 . S
Eu171 O185 2.374 . S
Eu171 O186 2.473 . S
Eu171 O187 2.480 . S
Eu171 O188 2.430 . S
Eu171 O189 2.670 . S
Eu171 O190 2.394 . S
C172 C170 1.500 . S
C172 C173 1.377 . S
C172 C177 1.377 . S
C173 C172 1.377 . S
C173 C174 1.395 . S
C173 H196 0.931 . S
C174 C173 1.395 . S
C174 C175 1.383 . S
C174 H197 0.931 . S
C175 C174 1.383 . S
C175 C176 1.394 . S
C176 C175 1.394 . S
C176 C177 1.378 . S
C176 H198 0.931 . S
C177 C172 1.377 . S
C177 C176 1.378 . S
C177 H199 0.931 . S
C178 O188 1.259 . S
C178 O189 1.270 . S
C179 O190 1.251 . S
C179 O191 1.251 . S
O180 C160 1.257 . S
O180 Eu161 2.473 . S
O181 C160 1.260 . S
O181 Eu161 2.480 . S
O182 Eu161 2.430 . S
O182 C168 1.259 . S
O183 Eu161 2.670 . S
O183 C168 1.270 . S
O183 Eu171 2.355 . S
O184 Eu161 2.394 . S
O184 C169 1.251 . S
O185 C169 1.251 . S
O185 Eu171 2.374 . S
O186 C170 1.257 . S
O186 Eu171 2.473 . S
O187 C170 1.260 . S
O187 Eu171 2.480 . S
O188 Eu171 2.430 . S
O188 C178 1.259 . S
O189 Eu161 2.355 . S
O189 Eu171 2.670 . S
O189 C178 1.270 . S
O190 Eu171 2.394 . S
O190 C179 1.251 . S
O191 Eu161 2.374 . S
O191 C179 1.251 . S
H192 C163 0.931 . S
H193 C164 0.931 . S
H194 C166 0.931 . S
H195 C167 0.931 . S
H196 C173 0.931 . S
H197 C174 0.931 . S
H198 C176 0.931 . S
H199 C177 0.931 . S
C200 Eu201 2.835 . S
C200 C202 1.500 . S
C200 O220 1.257 . S
C200 O221 1.260 . S
Eu201 C200 2.835 . S
Eu201 O220 2.473 . S
Eu201 O221 2.480 . S
Eu201 O222 2.430 . S
Eu201 O223 2.670 . S
Eu201 O224 2.394 . S
Eu201 O229 2.355 . S
Eu201 O231 2.374 . S
C202 C200 1.500 . S
C202 C203 1.377 . S
C202 C207 1.377 . S
C203 C202 1.377 . S
C203 C204 1.395 . S
C203 H232 0.931 . S
C204 C203 1.395 . S
C204 C205 1.383 . S
C204 H233 0.931 . S
C205 C204 1.383 . S
C205 C206 1.394 . S
C206 C205 1.394 . S
C206 C207 1.378 . S
C206 H234 0.931 . S
C207 C202 1.377 . S
C207 C206 1.378 . S
C207 H235 0.931 . S
C208 O222 1.259 . S
C208 O223 1.270 . S
C209 O224 1.251 . S
C209 O225 1.251 . S
C210 Eu211 2.835 . S
C210 C212 1.500 . S
C210 O226 1.257 . S
C210 O227 1.260 . S
Eu211 C210 2.835 . S
Eu211 O223 2.355 . S
Eu211 O225 2.374 . S
Eu211 O226 2.473 . S
Eu211 O227 2.480 . S
Eu211 O228 2.430 . S
Eu211 O229 2.670 . S
Eu211 O230 2.394 . S
C212 C210 1.500 . S
C212 C213 1.377 . S
C212 C217 1.377 . S
C213 C212 1.377 . S
C213 C214 1.395 . S
C213 H236 0.931 . S
C214 C213 1.395 . S
C214 C215 1.383 . S
C214 H237 0.931 . S
C215 C214 1.383 . S
C215 C216 1.394 . S
C216 C215 1.394 . S
C216 C217 1.378 . S
C216 H238 0.931 . S
C217 C212 1.377 . S
C217 C216 1.378 . S
C217 H239 0.931 . S
C218 O228 1.259 . S
C218 O229 1.270 . S
C219 O230 1.251 . S
C219 O231 1.251 . S
O220 C200 1.257 . S
O220 Eu201 2.473 . S
O221 C200 1.260 . S
O221 Eu201 2.480 . S
O222 Eu201 2.430 . S
O222 C208 1.259 . S
O223 Eu201 2.670 . S
O223 C208 1.270 . S
O223 Eu211 2.355 . S
O224 Eu201 2.394 . S
O224 C209 1.251 . S
O225 C209 1.251 . S
O225 Eu211 2.374 . S
O226 C210 1.257 . S
O226 Eu211 2.473 . S
O227 C210 1.260 . S
O227 Eu211 2.480 . S
O228 Eu211 2.430 . S
O228 C218 1.259 . S
O229 Eu201 2.355 . S
O229 Eu211 2.670 . S
O229 C218 1.270 . S
O230 Eu211 2.394 . S
O230 C219 1.251 . S
O231 Eu201 2.374 . S
O231 C219 1.251 . S
H232 C203 0.931 . S
H233 C204 0.931 . S
H234 C206 0.931 . S
H235 C207 0.931 . S
H236 C213 0.931 . S
H237 C214 0.931 . S
H238 C216 0.931 . S
H239 C217 0.931 . S
C240 Eu241 2.835 . S
C240 C242 1.500 . S
C240 O260 1.257 . S
C240 O261 1.260 . S
Eu241 C240 2.835 . S
Eu241 O260 2.473 . S
Eu241 O261 2.480 . S
Eu241 O262 2.430 . S
Eu241 O263 2.670 . S
Eu241 O264 2.394 . S
Eu241 O269 2.355 . S
Eu241 O271 2.374 . S
C242 C240 1.500 . S
C242 C243 1.377 . S
C242 C247 1.377 . S
C243 C242 1.377 . S
C243 C244 1.395 . S
C243 H272 0.931 . S
C244 C243 1.395 . S
C244 C245 1.383 . S
C244 H273 0.931 . S
C245 C244 1.383 . S
C245 C246 1.394 . S
C246 C245 1.394 . S
C246 C247 1.378 . S
C246 H274 0.931 . S
C247 C242 1.377 . S
C247 C246 1.378 . S
C247 H275 0.931 . S
C248 O262 1.259 . S
C248 O263 1.270 . S
C249 O264 1.251 . S
C249 O265 1.251 . S
C250 Eu251 2.835 . S
C250 C252 1.500 . S
C250 O266 1.257 . S
C250 O267 1.260 . S
Eu251 C250 2.835 . S
Eu251 O263 2.355 . S
Eu251 O265 2.374 . S
Eu251 O266 2.473 . S
Eu251 O267 2.480 . S
Eu251 O268 2.430 . S
Eu251 O269 2.670 . S
Eu251 O270 2.394 . S
C252 C250 1.500 . S
C252 C253 1.377 . S
C252 C257 1.377 . S
C253 C252 1.377 . S
C253 C254 1.395 . S
C253 H276 0.931 . S
C254 C253 1.395 . S
C254 C255 1.383 . S
C254 H277 0.931 . S
C255 C254 1.383 . S
C255 C256 1.394 . S
C256 C255 1.394 . S
C256 C257 1.378 . S
C256 H278 0.931 . S
C257 C252 1.377 . S
C257 C256 1.378 . S
C257 H279 0.931 . S
C258 O268 1.259 . S
C258 O269 1.270 . S
C259 O270 1.251 . S
C259 O271 1.251 . S
O260 C240 1.257 . S
O260 Eu241 2.473 . S
O261 C240 1.260 . S
O261 Eu241 2.480 . S
O262 Eu241 2.430 . S
O262 C248 1.259 . S
O263 Eu241 2.670 . S
O263 C248 1.270 . S
O263 Eu251 2.355 . S
O264 Eu241 2.394 . S
O264 C249 1.251 . S
O265 C249 1.251 . S
O265 Eu251 2.374 . S
O266 C250 1.257 . S
O266 Eu251 2.473 . S
O267 C250 1.260 . S
O267 Eu251 2.480 . S
O268 Eu251 2.430 . S
O268 C258 1.259 . S
O269 Eu241 2.355 . S
O269 Eu251 2.670 . S
O269 C258 1.270 . S
O270 Eu251 2.394 . S
O270 C259 1.251 . S
O271 Eu241 2.374 . S
O271 C259 1.251 . S
H272 C243 0.931 . S
H273 C244 0.931 . S
H274 C246 0.931 . S
H275 C247 0.931 . S
H276 C253 0.931 . S
H277 C254 0.931 . S
H278 C256 0.931 . S
H279 C257 0.931 . S
C280 Eu281 2.835 . S
C280 C282 1.500 . S
C280 O300 1.257 . S
C280 O301 1.260 . S
Eu281 C280 2.835 . S
Eu281 O300 2.473 . S
Eu281 O301 2.480 . S
Eu281 O302 2.430 . S
Eu281 O303 2.670 . S
Eu281 O304 2.394 . S
Eu281 O309 2.355 . S
Eu281 O311 2.374 . S
C282 C280 1.500 . S
C282 C283 1.377 . S
C282 C287 1.377 . S
C283 C282 1.377 . S
C283 C284 1.395 . S
C283 H312 0.931 . S
C284 C283 1.395 . S
C284 C285 1.383 . S
C284 H313 0.931 . S
C285 C284 1.383 . S
C285 C286 1.394 . S
C286 C285 1.394 . S
C286 C287 1.378 . S
C286 H314 0.931 . S
C287 C282 1.377 . S
C287 C286 1.378 . S
C287 H315 0.931 . S
C288 O302 1.259 . S
C288 O303 1.270 . S
C289 O304 1.251 . S
C289 O305 1.251 . S
C290 Eu291 2.835 . S
C290 C292 1.500 . S
C290 O306 1.257 . S
C290 O307 1.260 . S
Eu291 C290 2.835 . S
Eu291 O303 2.355 . S
Eu291 O305 2.374 . S
Eu291 O306 2.473 . S
Eu291 O307 2.480 . S
Eu291 O308 2.430 . S
Eu291 O309 2.670 . S
Eu291 O310 2.394 . S
C292 C290 1.500 . S
C292 C293 1.377 . S
C292 C297 1.377 . S
C293 C292 1.377 . S
C293 C294 1.395 . S
C293 H316 0.931 . S
C294 C293 1.395 . S
C294 C295 1.383 . S
C294 H317 0.931 . S
C295 C294 1.383 . S
C295 C296 1.394 . S
C296 C295 1.394 . S
C296 C297 1.378 . S
C296 H318 0.931 . S
C297 C292 1.377 . S
C297 C296 1.378 . S
C297 H319 0.931 . S
C298 O308 1.259 . S
C298 O309 1.270 . S
C299 O310 1.251 . S
C299 O311 1.251 . S
O300 C280 1.257 . S
O300 Eu281 2.473 . S
O301 C280 1.260 . S
O301 Eu281 2.480 . S
O302 Eu281 2.430 . S
O302 C288 1.259 . S
O303 Eu281 2.670 . S
O303 C288 1.270 . S
O303 Eu291 2.355 . S
O304 Eu281 2.394 . S
O304 C289 1.251 . S
O305 C289 1.251 . S
O305 Eu291 2.374 . S
O306 C290 1.257 . S
O306 Eu291 2.473 . S
O307 C290 1.260 . S
O307 Eu291 2.480 . S
O308 Eu291 2.430 . S
O308 C298 1.259 . S
O309 Eu281 2.355 . S
O309 Eu291 2.670 . S
O309 C298 1.270 . S
O310 Eu291 2.394 . S
O310 C299 1.251 . S
O311 Eu281 2.374 . S
O311 C299 1.251 . S
H312 C283 0.931 . S
H313 C284 0.931 . S
H314 C286 0.931 . S
H315 C287 0.931 . S
H316 C293 0.931 . S
H317 C294 0.931 . S
H318 C296 0.931 . S
H319 C297 0.931 . S
Cd320 N323 2.334 1_545 S
Cd320 N349 2.304 1_455 S
Cd320 O356 2.268 1_445 S
Cd320 O359 2.273 . S
Cd320 O360 2.417 1_445 S
Cd320 O361 2.330 1_445 S
Cd321 N336 2.323 . S
Cd321 N340 2.334 . S
Cd321 O357 2.273 1_445 S
Cd321 O358 2.268 . S
Cd321 O362 2.417 . S
Cd321 O363 2.330 . S
C322 N323 1.332 . S
C322 C326 1.381 . S
C322 H328 0.962 . S
N323 Cd320 2.334 1_565 S
N323 C322 1.332 . S
N323 C327 1.328 . S
C324 C325 1.396 . S
C324 C327 1.378 . S
C324 H366 0.931 . S
C325 C324 1.396 . S
C325 C326 1.382 . S
C326 C322 1.381 . S
C326 C325 1.382 . S
C326 H367 0.930 . S
C327 N323 1.328 . S
C327 C324 1.378 . S
C327 H329 0.930 . S
H328 C322 0.962 . S
H329 C327 0.930 . S
C330 O356 1.238 . S
C330 O357 1.253 . S
C331 C332 1.379 . S
C331 N336 1.323 1_655 S
C331 H337 0.929 . S
C332 C331 1.379 . S
C332 C333 1.380 . S
C332 H368 0.929 . S
C333 C332 1.380 . S
C333 C334 1.399 . S
C334 C333 1.399 . S
C334 C335 1.376 1_655 S
C334 H369 0.931 . S
C335 C334 1.376 1_455 S
C335 N336 1.333 . S
C335 H338 0.930 . S
N336 Cd321 2.323 . S
N336 C331 1.323 1_455 S
N336 C335 1.333 . S
H337 C331 0.929 . S
H338 C335 0.930 . S
C339 N340 1.332 1_565 S
C339 C343 1.381 . S
C339 H345 0.931 . S
N340 Cd321 2.334 . S
N340 C339 1.332 1_545 S
N340 C344 1.328 . S
C341 C342 1.396 . S
C341 C344 1.378 1_565 S
C341 H370 0.928 . S
C342 C341 1.396 . S
C342 C343 1.382 . S
C343 C339 1.381 . S
C343 C342 1.382 . S
C343 H371 0.930 . S
C344 N340 1.328 . S
C344 C341 1.378 1_545 S
C344 H346 0.930 . S
H345 C339 0.931 . S
H346 C344 0.930 . S
C347 O358 1.238 . S
C347 O359 1.253 . S
C348 O360 1.239 . S
C348 O361 1.230 . S
N349 Cd320 2.304 1_655 S
N349 C350 1.337 . S
N349 C354 1.338 . S
C350 N349 1.337 . S
C350 C351 1.379 . S
C350 H364 0.929 . S
C351 C350 1.379 . S
C351 C352 1.380 . S
C351 H372 0.929 . S
C352 C351 1.380 . S
C352 C353 1.399 . S
C353 C352 1.399 . S
C353 C354 1.376 . S
C353 H373 0.931 . S
C354 N349 1.338 . S
C354 C353 1.376 . S
C354 H365 0.930 . S
C355 O362 1.239 . S
C355 O363 1.230 . S
O356 Cd320 2.268 1_665 S
O356 C330 1.238 . S
O357 Cd321 2.273 1_665 S
O357 C330 1.253 . S
O358 Cd321 2.268 . S
O358 C347 1.238 . S
O359 Cd320 2.273 . S
O359 C347 1.253 . S
O360 Cd320 2.417 1_665 S
O360 C348 1.239 . S
O361 Cd320 2.330 1_665 S
O361 C348 1.230 . S
O362 Cd321 2.417 . S
O362 C355 1.239 . S
O363 Cd321 2.330 . S
O363 C355 1.230 . S
H364 C350 0.929 . S
H365 C354 0.930 . S
H366 C324 0.931 . S
H367 C326 0.930 . S
H368 C332 0.929 . S
H369 C334 0.931 . S
H370 C341 0.928 . S
H371 C343 0.930 . S
H372 C351 0.929 . S
H373 C353 0.931 . S
Cd374 N377 2.334 1_545 S
Cd374 N403 2.304 . S
Cd374 O410 2.268 1_544 S
Cd374 O413 2.273 . S
Cd374 O414 2.417 1_545 S
Cd374 O415 2.330 . S
Cd375 N390 2.304 . S
Cd375 N394 2.334 . S
Cd375 O411 2.273 . S
Cd375 O412 2.268 1_556 S
Cd375 O416 2.417 . S
Cd375 O417 2.330 . S
C376 N377 1.332 . S
C376 C380 1.381 . S
C376 H382 0.931 1_565 S
N377 Cd374 2.334 1_565 S
N377 C376 1.332 . S
N377 C381 1.328 . S
C378 C379 1.396 . S
C378 C381 1.378 . S
C378 H420 0.909 1_554 S
C379 C378 1.396 . S
C379 C380 1.382 . S
C380 C376 1.381 . S
C380 C379 1.382 . S
C380 H421 0.930 . S
C381 N377 1.328 . S
C381 C378 1.378 . S
C381 H383 0.930 1_554 S
H382 C376 0.931 1_545 S
H383 C381 0.930 1_556 S
C384 O410 1.238 . S
C384 O411 1.253 1_565 S
C385 C386 1.379 . S
C385 N390 1.337 . S
C385 H391 0.929 . S
C386 C385 1.379 . S
C386 C387 1.380 . S
C386 H422 0.929 . S
C387 C386 1.380 . S
C387 C388 1.399 . S
C388 C387 1.399 . S
C388 C389 1.376 . S
C388 H423 0.931 1_556 S
C389 C388 1.376 . S
C389 N390 1.338 . S
C389 H392 0.930 1_556 S
N390 Cd375 2.304 . S
N390 C385 1.337 . S
N390 C389 1.338 . S
H391 C385 0.929 . S
H392 C389 0.930 1_554 S
C393 N394 1.332 1_565 S
C393 C397 1.381 . S
C393 H399 0.931 . S
N394 Cd375 2.334 . S
N394 C393 1.332 1_545 S
N394 C398 1.328 . S
C395 C396 1.396 1_545 S
C395 C398 1.378 . S
C395 H424 0.931 1_556 S
C396 C395 1.396 1_565 S
C396 C397 1.382 . S
C397 C393 1.381 . S
C397 C396 1.382 . S
C397 H425 0.930 . S
C398 N394 1.328 . S
C398 C395 1.378 . S
C398 H400 0.930 1_556 S
H399 C393 0.931 . S
H400 C398 0.930 1_554 S
C401 O412 1.238 . S
C401 O413 1.253 . S
C402 O414 1.239 . S
C402 O415 1.230 1_565 S
N403 Cd374 2.304 . S
N403 C404 1.337 . S
N403 C408 1.338 . S
C404 N403 1.337 . S
C404 C405 1.379 . S
C404 H418 0.929 . S
C405 C404 1.379 . S
C405 C406 1.380 . S
C405 H426 0.929 . S
C406 C405 1.380 . S
C406 C407 1.399 . S
C407 C406 1.399 . S
C407 C408 1.376 . S
C407 H427 0.931 1_554 S
C408 N403 1.338 . S
C408 C407 1.376 . S
C408 H419 0.930 1_554 S
C409 O416 1.239 . S
C409 O417 1.230 . S
O410 Cd374 2.268 1_566 S
O410 C384 1.238 . S
O411 Cd375 2.273 . S
O411 C384 1.253 1_545 S
O412 Cd375 2.268 1_554 S
O412 C401 1.238 . S
O413 Cd374 2.273 . S
O413 C401 1.253 . S
O414 Cd374 2.417 1_565 S
O414 C402 1.239 . S
O415 Cd374 2.330 . S
O415 C402 1.230 1_545 S
O416 Cd375 2.417 . S
O416 C409 1.239 . S
O417 Cd375 2.330 . S
O417 C409 1.230 . S
H418 C404 0.929 . S
H419 C408 0.930 1_556 S
H420 C378 0.909 1_556 S
H421 C380 0.930 . S
H422 C386 0.929 . S
H423 C388 0.931 1_554 S
H424 C395 0.931 1_554 S
H425 C397 0.930 . S
H426 C405 0.929 . S
H427 C407 0.931 1_556 S
Cd428 N431 2.334 1_655 S
Cd428 N457 2.304 . S
Cd428 O464 2.268 . S
Cd428 O467 2.273 1_655 S
Cd428 O468 2.417 . S
Cd428 O469 2.330 . S
Cd429 N444 2.304 1_455 S
Cd429 N448 2.334 . S
Cd429 O465 2.273 1_454 S
Cd429 O466 2.268 . S
Cd429 O470 2.433 . S
Cd429 O471 2.330 1_554 S
C430 N431 1.332 . S
C430 C434 1.381 . S
C430 H436 0.931 . S
N431 Cd428 2.334 1_455 S
N431 C430 1.332 . S
N431 C435 1.328 . S
C432 C433 1.396 . S
C432 C435 1.378 . S
C432 H474 0.931 . S
C433 C432 1.396 . S
C433 C434 1.382 . S
C434 C430 1.381 . S
C434 C433 1.382 . S
C434 H475 0.930 . S
C435 N431 1.328 . S
C435 C432 1.378 . S
C435 H437 0.938 . S
H436 C430 0.931 . S
H437 C435 0.938 . S
C438 O464 1.238 1_556 S
C438 O465 1.253 . S
C439 C440 1.379 . S
C439 N444 1.337 1_556 S
C439 H445 0.929 . S
C440 C439 1.379 . S
C440 C441 1.380 1_556 S
C440 H476 0.929 . S
C441 C440 1.380 1_554 S
C441 C442 1.399 . S
C442 C441 1.399 . S
C442 C443 1.376 . S
C442 H477 0.931 . S
C443 C442 1.376 . S
C443 N444 1.338 . S
C443 H446 0.930 1_655 S
N444 Cd429 2.304 1_655 S
N444 C439 1.337 1_554 S
N444 C443 1.338 . S
H445 C439 0.929 . S
H446 C443 0.930 1_455 S
C447 N448 1.332 1_556 S
C447 C451 1.381 . S
C447 H453 0.931 . S
N448 Cd429 2.334 . S
N448 C447 1.332 1_554 S
N448 C452 1.328 . S
C449 C450 1.396 . S
C449 C452 1.378 . S
C449 H478 0.931 . S
C450 C449 1.396 . S
C450 C451 1.382 1_554 S
C451 C447 1.381 . S
C451 C450 1.382 1_556 S
C451 H479 0.930 . S
C452 N448 1.328 . S
C452 C449 1.378 . S
C452 H454 0.930 . S
H453 C447 0.931 . S
H454 C452 0.930 . S
C455 O466 1.238 . S
C455 O467 1.253 . S
C456 O468 1.239 . S
C456 O469 1.230 . S
N457 Cd428 2.304 . S
N457 C458 1.337 . S
N457 C462 1.338 . S
C458 N457 1.337 . S
C458 C459 1.379 . S
C458 H472 0.929 . S
C459 C458 1.379 . S
C459 C460 1.380 . S
C459 H480 0.929 . S
C460 C459 1.380 . S
C460 C461 1.399 . S
C461 C460 1.399 . S
C461 C462 1.376 . S
C461 H481 0.931 . S
C462 N457 1.338 . S
C462 C461 1.376 . S
C462 H473 0.930 . S
C463 O470 1.206 1_556 S
C463 O471 1.230 . S
O464 Cd428 2.268 . S
O464 C438 1.238 1_554 S
O465 Cd429 2.273 1_656 S
O465 C438 1.253 . S
O466 Cd429 2.268 . S
O466 C455 1.238 . S
O467 Cd428 2.273 1_455 S
O467 C455 1.253 . S
O468 Cd428 2.417 . S
O468 C456 1.239 . S
O469 Cd428 2.330 . S
O469 C456 1.230 . S
O470 Cd429 2.433 . S
O470 C463 1.206 1_554 S
O471 Cd429 2.330 1_556 S
O471 C463 1.230 . S
H472 C458 0.929 . S
H473 C462 0.930 . S
H474 C432 0.931 . S
H475 C434 0.930 . S
H476 C440 0.929 . S
H477 C442 0.931 . S
H478 C449 0.931 . S
H479 C451 0.930 . S
H480 C459 0.929 . S
H481 C461 0.931 . S
Cd482 N485 2.334 . S
Cd482 N511 2.304 . S
Cd482 O518 2.268 . S
Cd482 O521 2.273 . S
Cd482 O522 2.417 . S
Cd482 O523 2.330 . S
Cd483 N498 2.304 . S
Cd483 N502 2.334 . S
Cd483 O519 2.273 . S
Cd483 O520 2.268 1_556 S
Cd483 O524 2.417 . S
Cd483 O525 2.330 . S
C484 N485 1.332 . S
C484 C488 1.381 . S
C484 H490 0.931 . S
N485 Cd482 2.334 . S
N485 C484 1.332 . S
N485 C489 1.328 . S
C486 C487 1.396 . S
C486 C489 1.378 . S
C486 H528 0.931 . S
C487 C486 1.396 . S
C487 C488 1.382 . S
C488 C484 1.381 . S
C488 C487 1.382 . S
C488 H529 0.930 . S
C489 N485 1.328 . S
C489 C486 1.378 . S
C489 H491 0.930 . S
H490 C484 0.931 . S
H491 C489 0.930 . S
C492 O518 1.238 1_556 S
C492 O519 1.253 . S
C493 C494 1.379 . S
C493 N498 1.337 . S
C493 H499 0.929 . S
C494 C493 1.379 . S
C494 C495 1.380 . S
C494 H530 0.929 . S
C495 C494 1.380 . S
C495 C496 1.399 1_556 S
C496 C495 1.399 1_554 S
C496 C497 1.376 . S
C496 H531 0.931 . S
C497 C496 1.376 . S
C497 N498 1.338 1_554 S
C497 H500 0.930 . S
N498 Cd483 2.304 . S
N498 C493 1.337 . S
N498 C497 1.338 1_556 S
H499 C493 0.929 . S
H500 C497 0.930 . S
C501 N502 1.332 . S
C501 C505 1.381 . S
C501 H507 0.931 . S
N502 Cd483 2.334 . S
N502 C501 1.332 . S
N502 C506 1.328 1_556 S
C503 C504 1.372 1_554 S
C503 C506 1.378 . S
C503 H532 0.931 . S
C504 C503 1.372 1_556 S
C504 C505 1.404 . S
C505 C501 1.381 . S
C505 C504 1.404 . S
C505 H533 0.930 . S
C506 N502 1.328 1_554 S
C506 C503 1.378 . S
C506 H508 0.930 . S
H507 C501 0.931 . S
H508 C506 0.930 . S
C509 O520 1.238 . S
C509 O521 1.253 . S
C510 O522 1.239 . S
C510 O523 1.230 . S
N511 Cd482 2.304 . S
N511 C512 1.337 . S
N511 C516 1.338 . S
C512 N511 1.337 . S
C512 C513 1.379 . S
C512 H526 0.929 . S
C513 C512 1.379 . S
C513 C514 1.380 . S
C513 H534 0.929 . S
C514 C513 1.380 . S
C514 C515 1.399 . S
C515 C514 1.399 . S
C515 C516 1.376 . S
C515 H535 0.931 . S
C516 N511 1.338 . S
C516 C515 1.376 . S
C516 H527 0.930 . S
C517 O524 1.239 . S
C517 O525 1.230 . S
O518 Cd482 2.268 . S
O518 C492 1.238 1_554 S
O519 Cd483 2.273 . S
O519 C492 1.253 . S
O520 Cd483 2.268 1_554 S
O520 C509 1.238 . S
O521 Cd482 2.273 . S
O521 C509 1.253 . S
O522 Cd482 2.417 . S
O522 C510 1.239 . S
O523 Cd482 2.330 . S
O523 C510 1.230 . S
O524 Cd483 2.417 . S
O524 C517 1.239 . S
O525 Cd483 2.330 . S
O525 C517 1.230 . S
H526 C512 0.929 . S
H527 C516 0.930 . S
H528 C486 0.931 . S
H529 C488 0.930 . S
H530 C494 0.929 . S
H531 C496 0.931 . S
H532 C503 0.931 . S
H533 C505 0.930 . S
H534 C513 0.929 . S
H535 C515 0.931 . S
Cd536 N539 2.334 . S
Cd536 N565 2.304 1_455 S
Cd536 O572 2.268 . S
Cd536 O575 2.273 . S
Cd536 O576 2.417 1_455 S
Cd536 O577 2.330 . S
Cd537 N552 2.304 . S
Cd537 N556 2.334 . S
Cd537 O573 2.273 . S
Cd537 O574 2.268 . S
Cd537 O578 2.417 . S
Cd537 O579 2.330 . S
C538 N539 1.332 . S
C538 C542 1.381 . S
C538 H544 0.931 . S
N539 Cd536 2.334 . S
N539 C538 1.332 . S
N539 C543 1.328 . S
C540 C541 1.396 . S
C540 C543 1.378 . S
C540 H582 0.931 . S
C541 C540 1.396 . S
C541 C542 1.382 . S
C542 C538 1.381 . S
C542 C541 1.382 . S
C542 H583 0.930 . S
C543 N539 1.328 . S
C543 C540 1.378 . S
C543 H545 0.930 . S
H544 C538 0.931 . S
H545 C543 0.930 . S
C546 O572 1.238 1_655 S
C546 O573 1.253 1_655 S
C547 C548 1.379 . S
C547 N552 1.337 1_655 S
C547 H553 0.929 . S
C548 C547 1.379 . S
C548 C549 1.380 . S
C548 H584 0.929 . S
C549 C548 1.380 . S
C549 C550 1.399 1_655 S
C550 C549 1.399 1_455 S
C550 C551 1.376 . S
C550 H585 0.931 . S
C551 C550 1.376 . S
C551 N552 1.338 . S
C551 H554 0.930 . S
N552 Cd537 2.304 . S
N552 C547 1.337 1_455 S
N552 C551 1.338 . S
H553 C547 0.929 . S
H554 C551 0.930 . S
C555 N556 1.332 . S
C555 C559 1.381 . S
C555 H561 0.931 . S
N556 Cd537 2.334 . S
N556 C555 1.332 . S
N556 C560 1.328 . S
C557 C558 1.396 . S
C557 C560 1.378 . S
C557 H586 0.931 . S
C558 C557 1.396 . S
C558 C559 1.382 . S
C559 C555 1.381 . S
C559 C558 1.382 . S
C559 H587 0.930 . S
C560 N556 1.328 . S
C560 C557 1.378 . S
C560 H562 0.930 . S
H561 C555 0.931 . S
H562 C560 0.930 . S
C563 O574 1.238 . S
C563 O575 1.253 . S
C564 O576 1.239 . S
C564 O577 1.230 1_655 S
N565 Cd536 2.304 1_655 S
N565 C566 1.337 1_655 S
N565 C570 1.338 . S
C566 N565 1.337 1_455 S
C566 C567 1.379 1_455 S
C566 H580 0.929 . S
C567 C566 1.379 1_655 S
C567 C568 1.380 . S
C567 H588 0.929 . S
C568 C567 1.380 . S
C568 C569 1.399 . S
C569 C568 1.399 . S
C569 C570 1.376 . S
C569 H589 0.931 . S
C570 N565 1.338 . S
C570 C569 1.376 . S
C570 H581 0.930 . S
C571 O578 1.239 . S
C571 O579 1.230 . S
O572 Cd536 2.268 . S
O572 C546 1.238 1_455 S
O573 Cd537 2.273 . S
O573 C546 1.253 1_455 S
O574 Cd537 2.268 . S
O574 C563 1.238 . S
O575 Cd536 2.273 . S
O575 C563 1.253 . S
O576 Cd536 2.417 1_655 S
O576 C564 1.239 . S
O577 Cd536 2.330 . S
O577 C564 1.230 1_455 S
O578 Cd537 2.417 . S
O578 C571 1.239 . S
O579 Cd537 2.330 . S
O579 C571 1.230 . S
H580 C566 0.929 . S
H581 C570 0.930 . S
H582 C540 0.931 . S
H583 C542 0.930 . S
H584 C548 0.929 . S
H585 C550 0.931 . S
H586 C557 0.931 . S
H587 C559 0.930 . S
H588 C567 0.929 . S
H589 C569 0.931 . S
Cd590 N593 2.334 . S
Cd590 N619 2.304 1_565 S
Cd590 O626 2.268 . S
Cd590 O629 2.273 1_565 S
Cd590 O630 2.417 . S
Cd590 O631 2.330 . S
Cd591 N606 2.304 . S
Cd591 N610 2.334 1_545 S
Cd591 O627 2.273 1_545 S
Cd591 O628 2.268 . S
Cd591 O632 2.417 . S
Cd591 O633 2.330 . S
C592 N593 1.332 . S
C592 C596 1.381 . S
C592 H598 0.931 . S
N593 Cd590 2.334 . S
N593 C592 1.332 . S
N593 C597 1.328 . S
C594 C595 1.396 . S
C594 C597 1.378 . S
C594 H636 0.931 . S
C595 C594 1.396 . S
C595 C596 1.382 . S
C596 C592 1.381 . S
C596 C595 1.382 . S
C596 H637 0.930 . S
C597 N593 1.328 . S
C597 C594 1.378 . S
C597 H599 0.930 . S
H598 C592 0.931 . S
H599 C597 0.930 . S
C600 O626 1.238 . S
C600 O627 1.253 . S
C601 C602 1.379 . S
C601 N606 1.337 . S
C601 H607 0.929 . S
C602 C601 1.379 . S
C602 C603 1.380 . S
C602 H638 0.929 . S
C603 C602 1.380 . S
C603 C604 1.399 . S
C604 C603 1.399 . S
C604 C605 1.376 . S
C604 H639 0.931 . S
C605 C604 1.376 . S
C605 N606 1.338 . S
C605 H608 0.930 . S
N606 Cd591 2.304 . S
N606 C601 1.337 . S
N606 C605 1.338 . S
H607 C601 0.929 . S
H608 C605 0.930 . S
C609 N610 1.332 . S
C609 C613 1.381 . S
C609 H615 0.931 . S
N610 Cd591 2.334 1_565 S
N610 C609 1.332 . S
N610 C614 1.328 . S
C611 C612 1.396 . S
C611 C614 1.378 . S
C611 H640 0.931 . S
C612 C611 1.396 . S
C612 C613 1.382 . S
C613 C609 1.381 . S
C613 C612 1.382 . S
C613 H641 0.930 . S
C614 N610 1.328 . S
C614 C611 1.378 . S
C614 H616 0.930 1_565 S
H615 C609 0.931 . S
H616 C614 0.930 1_545 S
C617 O628 1.238 . S
C617 O629 1.253 . S
C618 O630 1.239 . S
C618 O631 1.230 . S
N619 Cd590 2.304 1_545 S
N619 C620 1.337 . S
N619 C624 1.338 . S
C620 N619 1.337 . S
C620 C621 1.379 . S
C620 H634 0.929 . S
C621 C620 1.379 . S
C621 C622 1.380 . S
C621 H642 0.929 . S
C622 C621 1.380 . S
C622 C623 1.399 . S
C623 C622 1.399 . S
C623 C624 1.376 . S
C623 H643 0.931 . S
C624 N619 1.338 . S
C624 C623 1.376 . S
C624 H635 0.930 1_545 S
C625 O632 1.239 . S
C625 O633 1.230 . S
O626 Cd590 2.268 . S
O626 C600 1.238 . S
O627 Cd591 2.273 1_565 S
O627 C600 1.253 . S
O628 Cd591 2.268 . S
O628 C617 1.238 . S
O629 Cd590 2.273 1_545 S
O629 C617 1.253 . S
O630 Cd590 2.417 . S
O630 C618 1.239 . S
O631 Cd590 2.330 . S
O631 C618 1.230 . S
O632 Cd591 2.417 . S
O632 C625 1.239 . S
O633 Cd591 2.330 . S
O633 C625 1.230 . S
H634 C620 0.929 . S
H635 C624 0.930 1_565 S
H636 C594 0.931 . S
H637 C596 0.930 . S
H638 C602 0.929 . S
H639 C604 0.931 . S
H640 C611 0.931 . S
H641 C613 0.930 . S
H642 C621 0.929 . S
H643 C623 0.931 . S
H644 C652 0.929 . S
H645 C654 0.930 . S
H646 C656 0.930 . S
H647 C659 0.929 . S
H648 C662 0.930 . S
H649 C664 0.960 . S
H650 C664 0.960 . S
H651 C664 0.960 . S
C652 H644 0.929 . S
C652 C653 1.377 . S
C652 C654 1.384 . S
C653 C652 1.377 . S
C653 C659 1.390 . S
C654 H645 0.930 . S
C654 C652 1.384 . S
C654 C655 1.372 . S
C655 C654 1.372 . S
C655 C656 1.400 . S
C655 C660 1.490 . S
C656 H646 0.930 . S
C656 C655 1.400 . S
C656 C659 1.386 . S
H657 C673 0.930 . S
H658 C674 0.931 . S
C659 H647 0.929 . S
C659 C653 1.390 . S
C659 C656 1.386 . S
C660 C655 1.490 . S
C660 C662 1.395 . S
C660 C663 1.403 . S
H661 C667 0.930 . S
C662 H648 0.930 . S
C662 C660 1.395 . S
C662 C665 1.403 . S
C663 C660 1.403 . S
C663 C664 1.524 . S
C663 C667 1.400 . S
C664 H649 0.960 . S
C664 H650 0.960 . S
C664 H651 0.960 . S
C664 C663 1.524 . S
C665 C662 1.403 . S
C665 C666 1.392 . S
C665 C669 1.495 . S
C666 C665 1.392 . S
C666 C667 1.385 . S
C666 C668 1.478 . S
C667 H661 0.930 . S
C667 C663 1.400 . S
C667 C666 1.385 . S
C668 C666 1.478 . S
C668 C670 1.381 . S
C668 C674 1.383 . S
C669 C665 1.495 . S
C669 H675 0.959 . S
C669 H676 0.961 . S
C669 H677 0.960 . S
C670 C668 1.381 . S
C670 C671 1.394 . S
C670 H678 0.930 . S
C671 C670 1.394 . S
C671 C672 1.383 . S
C671 H679 0.929 . S
C672 C671 1.383 . S
C672 C673 1.377 . S
C673 H657 0.930 . S
C673 C672 1.377 . S
C673 C674 1.379 . S
C674 H658 0.931 . S
C674 C668 1.383 . S
C674 C673 1.379 . S
H675 C669 0.959 . S
H676 C669 0.961 . S
H677 C669 0.960 . S
H678 C670 0.930 . S
H679 C671 0.929 . S
H680 C688 0.929 . S
H681 C690 0.930 . S
H682 C692 0.930 . S
H683 C695 0.929 . S
H684 C698 0.930 . S
H685 C700 0.960 . S
H686 C700 0.960 . S
H687 C700 0.960 . S
C688 H680 0.929 . S
C688 C689 1.377 . S
C688 C690 1.384 . S
C689 C688 1.377 . S
C689 C695 1.390 . S
C690 H681 0.930 . S
C690 C688 1.384 . S
C690 C691 1.372 . S
C691 C690 1.372 . S
C691 C692 1.400 . S
C691 C696 1.490 . S
C692 H682 0.930 . S
C692 C691 1.400 . S
C692 C695 1.386 . S
H693 C709 0.930 . S
H694 C710 0.931 . S
C695 H683 0.929 . S
C695 C689 1.390 . S
C695 C692 1.386 . S
C696 C691 1.490 . S
C696 C698 1.395 . S
C696 C699 1.403 . S
H697 C703 0.930 . S
C698 H684 0.930 . S
C698 C696 1.395 . S
C698 C701 1.403 . S
C699 C696 1.403 . S
C699 C700 1.524 . S
C699 C703 1.400 . S
C700 H685 0.960 . S
C700 H686 0.960 . S
C700 H687 0.960 . S
C700 C699 1.524 . S
C701 C698 1.403 . S
C701 C702 1.392 . S
C701 C705 1.495 . S
C702 C701 1.392 . S
C702 C703 1.385 . S
C702 C704 1.478 . S
C703 H697 0.930 . S
C703 C699 1.400 . S
C703 C702 1.385 . S
C704 C702 1.478 . S
C704 C706 1.381 . S
C704 C710 1.383 . S
C705 C701 1.495 . S
C705 H711 0.959 . S
C705 H712 0.961 . S
C705 H713 0.960 . S
C706 C704 1.381 . S
C706 C707 1.394 . S
C706 H714 0.930 . S
C707 C706 1.394 . S
C707 C708 1.383 . S
C707 H715 0.929 . S
C708 C707 1.383 . S
C708 C709 1.377 . S
C709 H693 0.930 . S
C709 C708 1.377 . S
C709 C710 1.379 . S
C710 H694 0.931 . S
C710 C704 1.383 . S
C710 C709 1.379 . S
H711 C705 0.959 . S
H712 C705 0.961 . S
H713 C705 0.960 . S
H714 C706 0.930 . S
H715 C707 0.929 . S
H716 C724 0.929 . S
H717 C726 0.930 . S
H718 C728 0.930 . S
H719 C731 0.929 . S
H720 C734 0.930 . S
H721 C736 0.960 . S
H722 C736 0.960 . S
H723 C736 0.960 . S
C724 H716 0.929 . S
C724 C725 1.377 . S
C724 C726 1.384 . S
C725 C724 1.377 . S
C725 C731 1.390 . S
C726 H717 0.930 . S
C726 C724 1.384 . S
C726 C727 1.372 . S
C727 C726 1.372 . S
C727 C728 1.400 . S
C727 C732 1.490 . S
C728 H718 0.930 . S
C728 C727 1.400 . S
C728 C731 1.386 . S
H729 C745 0.930 . S
H730 C746 0.931 . S
C731 H719 0.929 . S
C731 C725 1.390 . S
C731 C728 1.386 . S
C732 C727 1.490 . S
C732 C734 1.395 . S
C732 C735 1.403 . S
H733 C739 0.930 . S
C734 H720 0.930 . S
C734 C732 1.395 . S
C734 C737 1.403 . S
C735 C732 1.403 . S
C735 C736 1.524 . S
C735 C739 1.400 . S
C736 H721 0.960 . S
C736 H722 0.960 . S
C736 H723 0.960 . S
C736 C735 1.524 . S
C737 C734 1.403 . S
C737 C738 1.392 . S
C737 C741 1.495 . S
C738 C737 1.392 . S
C738 C739 1.385 . S
C738 C740 1.478 . S
C739 H733 0.930 . S
C739 C735 1.400 . S
C739 C738 1.385 . S
C740 C738 1.478 . S
C740 C742 1.381 . S
C740 C746 1.383 . S
C741 C737 1.495 . S
C741 H747 0.959 . S
C741 H748 0.961 . S
C741 H749 0.960 . S
C742 C740 1.381 . S
C742 C743 1.394 . S
C742 H750 0.930 . S
C743 C742 1.394 . S
C743 C744 1.383 . S
C743 H751 0.929 . S
C744 C743 1.383 . S
C744 C745 1.377 . S
C745 H729 0.930 . S
C745 C744 1.377 . S
C745 C746 1.379 . S
C746 H730 0.931 . S
C746 C740 1.383 . S
C746 C745 1.379 . S
H747 C741 0.959 . S
H748 C741 0.961 . S
H749 C741 0.960 . S
H750 C742 0.930 . S
H751 C743 0.929 . S
H752 C760 0.929 . S
H753 C762 0.930 . S
H754 C764 0.930 . S
H755 C767 0.929 . S
H756 C770 0.930 . S
H757 C772 0.960 . S
H758 C772 0.960 . S
H759 C772 0.960 . S
C760 H752 0.929 . S
C760 C761 1.377 . S
C760 C762 1.384 . S
C761 C760 1.377 . S
C761 C767 1.390 . S
C762 H753 0.930 . S
C762 C760 1.384 . S
C762 C763 1.372 . S
C763 C762 1.372 . S
C763 C764 1.400 . S
C763 C768 1.490 . S
C764 H754 0.930 . S
C764 C763 1.400 . S
C764 C767 1.386 . S
H765 C781 0.930 . S
H766 C782 0.931 . S
C767 H755 0.929 . S
C767 C761 1.390 . S
C767 C764 1.386 . S
C768 C763 1.490 . S
C768 C770 1.395 . S
C768 C771 1.403 . S
H769 C775 0.930 . S
C770 H756 0.930 . S
C770 C768 1.395 . S
C770 C773 1.403 . S
C771 C768 1.403 . S
C771 C772 1.524 . S
C771 C775 1.400 . S
C772 H757 0.960 . S
C772 H758 0.960 . S
C772 H759 0.960 . S
C772 C771 1.524 . S
C773 C770 1.403 . S
C773 C774 1.392 . S
C773 C777 1.495 . S
C774 C773 1.392 . S
C774 C775 1.385 . S
C774 C776 1.478 . S
C775 H769 0.930 . S
C775 C771 1.400 . S
C775 C774 1.385 . S
C776 C774 1.478 . S
C776 C778 1.381 . S
C776 C782 1.383 . S
C777 C773 1.495 . S
C777 H783 0.959 . S
C777 H784 0.961 . S
C777 H785 0.960 . S
C778 C776 1.381 . S
C778 C779 1.394 . S
C778 H786 0.930 . S
C779 C778 1.394 . S
C779 C780 1.383 . S
C779 H787 0.929 . S
C780 C779 1.383 . S
C780 C781 1.377 . S
C781 H765 0.930 . S
C781 C780 1.377 . S
C781 C782 1.379 . S
C782 H766 0.931 . S
C782 C776 1.383 . S
C782 C781 1.379 . S
H783 C777 0.959 . S
H784 C777 0.961 . S
H785 C777 0.960 . S
H786 C778 0.930 . S
H787 C779 0.929 . S
H788 C796 0.929 . S
H789 C798 0.930 . S
H790 C800 0.930 . S
H791 C803 0.929 . S
H792 C806 0.930 . S
H793 C808 0.960 . S
H794 C808 0.960 . S
H795 C808 0.960 . S
C796 H788 0.929 . S
C796 C797 1.377 . S
C796 C798 1.384 . S
C797 C796 1.377 . S
C797 C803 1.390 . S
C798 H789 0.930 . S
C798 C796 1.384 . S
C798 C799 1.372 . S
C799 C798 1.372 . S
C799 C800 1.400 . S
C799 C804 1.490 . S
C800 H790 0.930 . S
C800 C799 1.400 . S
C800 C803 1.386 . S
H801 C817 0.930 . S
H802 C818 0.931 . S
C803 H791 0.929 . S
C803 C797 1.390 . S
C803 C800 1.386 . S
C804 C799 1.490 . S
C804 C806 1.395 . S
C804 C807 1.403 . S
H805 C811 0.930 . S
C806 H792 0.930 . S
C806 C804 1.395 . S
C806 C809 1.403 . S
C807 C804 1.403 . S
C807 C808 1.524 . S
C807 C811 1.400 . S
C808 H793 0.960 . S
C808 H794 0.960 . S
C808 H795 0.960 . S
C808 C807 1.524 . S
C809 C806 1.403 . S
C809 C810 1.392 . S
C809 C813 1.495 . S
C810 C809 1.392 . S
C810 C811 1.385 . S
C810 C812 1.478 . S
C811 H805 0.930 . S
C811 C807 1.400 . S
C811 C810 1.385 . S
C812 C810 1.478 . S
C812 C814 1.381 . S
C812 C818 1.383 . S
C813 C809 1.495 . S
C813 H819 0.959 . S
C813 H820 0.961 . S
C813 H821 0.960 . S
C814 C812 1.381 . S
C814 C815 1.394 . S
C814 H822 0.930 . S
C815 C814 1.394 . S
C815 C816 1.383 . S
C815 H823 0.929 . S
C816 C815 1.383 . S
C816 C817 1.377 . S
C817 H801 0.930 . S
C817 C816 1.377 . S
C817 C818 1.379 . S
C818 H802 0.931 . S
C818 C812 1.383 . S
C818 C817 1.379 . S
H819 C813 0.959 . S
H820 C813 0.961 . S
H821 C813 0.960 . S
H822 C814 0.930 . S
H823 C815 0.929 . S
H824 C832 0.929 . S
H825 C834 0.930 . S
H826 C836 0.930 . S
H827 C839 0.929 . S
H828 C842 0.930 . S
H829 C844 0.960 . S
H830 C844 0.960 . S
H831 C844 0.960 . S
C832 H824 0.929 . S
C832 C833 1.377 . S
C832 C834 1.384 . S
C833 C832 1.377 . S
C833 C839 1.390 . S
C834 H825 0.930 . S
C834 C832 1.384 . S
C834 C835 1.372 . S
C835 C834 1.372 . S
C835 C836 1.400 . S
C835 C840 1.490 . S
C836 H826 0.930 . S
C836 C835 1.400 . S
C836 C839 1.386 . S
H837 C853 0.930 . S
H838 C854 0.931 . S
C839 H827 0.929 . S
C839 C833 1.390 . S
C839 C836 1.386 . S
C840 C835 1.490 . S
C840 C842 1.395 . S
C840 C843 1.403 . S
H841 C847 0.930 . S
C842 H828 0.930 . S
C842 C840 1.395 . S
C842 C845 1.403 . S
C843 C840 1.403 . S
C843 C844 1.524 . S
C843 C847 1.400 . S
C844 H829 0.960 . S
C844 H830 0.960 . S
C844 H831 0.960 . S
C844 C843 1.524 . S
C845 C842 1.403 . S
C845 C846 1.392 . S
C845 C849 1.495 . S
C846 C845 1.392 . S
C846 C847 1.385 . S
C846 C848 1.478 . S
C847 H841 0.930 . S
C847 C843 1.400 . S
C847 C846 1.385 . S
C848 C846 1.478 . S
C848 C850 1.381 . S
C848 C854 1.383 . S
C849 C845 1.495 . S
C849 H855 0.959 . S
C849 H856 0.961 . S
C849 H857 0.960 . S
C850 C848 1.381 . S
C850 C851 1.394 . S
C850 H858 0.930 . S
C851 C850 1.394 . S
C851 C852 1.383 . S
C851 H859 0.929 . S
C852 C851 1.383 . S
C852 C853 1.377 . S
C853 H837 0.930 . S
C853 C852 1.377 . S
C853 C854 1.379 . S
C854 H838 0.931 . S
C854 C848 1.383 . S
C854 C853 1.379 . S
H855 C849 0.959 . S
H856 C849 0.961 . S
H857 C849 0.960 . S
H858 C850 0.930 . S
H859 C851 0.929 . S
H860 C868 0.929 . S
H861 C870 0.930 . S
H862 C872 0.930 . S
H863 C875 0.929 . S
H864 C878 0.930 . S
H865 C880 0.960 . S
H866 C880 0.960 . S
H867 C880 0.960 . S
C868 H860 0.929 . S
C868 C869 1.377 . S
C868 C870 1.384 . S
C869 C868 1.377 . S
C869 C875 1.390 . S
C870 H861 0.930 . S
C870 C868 1.384 . S
C870 C871 1.372 . S
C871 C870 1.372 . S
C871 C872 1.400 . S
C871 C876 1.490 . S
C872 H862 0.930 . S
C872 C871 1.400 . S
C872 C875 1.386 . S
H873 C889 0.930 . S
H874 C890 0.931 . S
C875 H863 0.929 . S
C875 C869 1.390 . S
C875 C872 1.386 . S
C876 C871 1.490 . S
C876 C878 1.395 . S
C876 C879 1.403 . S
H877 C883 0.930 . S
C878 H864 0.930 . S
C878 C876 1.395 . S
C878 C881 1.403 . S
C879 C876 1.403 . S
C879 C880 1.524 . S
C879 C883 1.400 . S
C880 H865 0.960 . S
C880 H866 0.960 . S
C880 H867 0.960 . S
C880 C879 1.524 . S
C881 C878 1.403 . S
C881 C882 1.392 . S
C881 C885 1.495 . S
C882 C881 1.392 . S
C882 C883 1.385 . S
C882 C884 1.478 . S
C883 H877 0.930 . S
C883 C879 1.400 . S
C883 C882 1.385 . S
C884 C882 1.478 . S
C884 C886 1.381 . S
C884 C890 1.383 . S
C885 C881 1.495 . S
C885 H891 0.959 . S
C885 H892 0.961 . S
C885 H893 0.960 . S
C886 C884 1.381 . S
C886 C887 1.394 . S
C886 H894 0.930 . S
C887 C886 1.394 . S
C887 C888 1.383 . S
C887 H895 0.929 . S
C888 C887 1.383 . S
C888 C889 1.377 . S
C889 H873 0.930 . S
C889 C888 1.377 . S
C889 C890 1.379 . S
C890 H874 0.931 . S
C890 C884 1.383 . S
C890 C889 1.379 . S
H891 C885 0.959 . S
H892 C885 0.961 . S
H893 C885 0.960 . S
H894 C886 0.930 . S
H895 C887 0.929 . S
H896 C904 0.929 . S
H897 C906 0.930 . S
H898 C908 0.930 . S
H899 C911 0.929 . S
H900 C914 0.930 . S
H901 C916 0.960 . S
H902 C916 0.960 . S
H903 C916 0.960 . S
C904 H896 0.929 . S
C904 C905 1.377 . S
C904 C906 1.384 . S
C905 C904 1.377 . S
C905 C911 1.390 . S
C906 H897 0.930 . S
C906 C904 1.384 . S
C906 C907 1.372 . S
C907 C906 1.372 . S
C907 C908 1.400 . S
C907 C912 1.490 . S
C908 H898 0.930 . S
C908 C907 1.400 . S
C908 C911 1.386 . S
H909 C925 0.930 . S
H910 C926 0.931 . S
C911 H899 0.929 . S
C911 C905 1.390 . S
C911 C908 1.386 . S
C912 C907 1.490 . S
C912 C914 1.395 . S
C912 C915 1.403 . S
H913 C919 0.930 . S
C914 H900 0.930 . S
C914 C912 1.395 . S
C914 C917 1.403 . S
C915 C912 1.403 . S
C915 C916 1.524 . S
C915 C919 1.400 . S
C916 H901 0.960 . S
C916 H902 0.960 . S
C916 H903 0.960 . S
C916 C915 1.524 . S
C917 C914 1.403 . S
C917 C918 1.392 . S
C917 C921 1.495 . S
C918 C917 1.392 . S
C918 C919 1.385 . S
C918 C920 1.478 . S
C919 H913 0.930 . S
C919 C915 1.400 . S
C919 C918 1.385 . S
C920 C918 1.478 . S
C920 C922 1.381 . S
C920 C926 1.383 . S
C921 C917 1.495 . S
C921 H927 0.959 . S
C921 H928 0.961 . S
C921 H929 0.960 . S
C922 C920 1.381 . S
C922 C923 1.394 . S
C922 H930 0.930 . S
C923 C922 1.394 . S
C923 C924 1.383 . S
C923 H931 0.929 . S
C924 C923 1.383 . S
C924 C925 1.377 . S
C925 H909 0.930 . S
C925 C924 1.377 . S
C925 C926 1.379 . S
C926 H910 0.931 . S
C926 C920 1.383 . S
C926 C925 1.379 . S
H927 C921 0.959 . S
H928 C921 0.961 . S
H929 C921 0.960 . S
H930 C922 0.930 . S
H931 C923 0.929 . S
H932 C940 0.929 . S
H933 C942 0.930 . S
H934 C944 0.930 . S
H935 C947 0.929 . S
H936 C950 0.930 . S
H937 C952 0.960 . S
H938 C952 0.960 . S
H939 C952 0.960 . S
C940 H932 0.929 . S
C940 C941 1.377 . S
C940 C942 1.384 . S
C941 C940 1.377 . S
C941 C947 1.390 . S
C942 H933 0.930 . S
C942 C940 1.384 . S
C942 C943 1.372 . S
C943 C942 1.372 . S
C943 C944 1.400 . S
C943 C948 1.490 . S
C944 H934 0.930 . S
C944 C943 1.400 . S
C944 C947 1.386 . S
H945 C961 0.930 . S
H946 C962 0.931 . S
C947 H935 0.929 . S
C947 C941 1.390 . S
C947 C944 1.386 . S
C948 C943 1.490 . S
C948 C950 1.395 . S
C948 C951 1.403 . S
H949 C955 0.930 . S
C950 H936 0.930 . S
C950 C948 1.395 . S
C950 C953 1.403 . S
C951 C948 1.403 . S
C951 C952 1.524 . S
C951 C955 1.400 . S
C952 H937 0.960 . S
C952 H938 0.960 . S
C952 H939 0.960 . S
C952 C951 1.524 . S
C953 C950 1.403 . S
C953 C954 1.392 . S
C953 C957 1.495 . S
C954 C953 1.392 . S
C954 C955 1.385 . S
C954 C956 1.478 . S
C955 H949 0.930 . S
C955 C951 1.400 . S
C955 C954 1.385 . S
C956 C954 1.478 . S
C956 C958 1.381 . S
C956 C962 1.383 . S
C957 C953 1.495 . S
C957 H963 0.959 . S
C957 H964 0.961 . S
C957 H965 0.960 . S
C958 C956 1.381 . S
C958 C959 1.394 . S
C958 H966 0.930 . S
C959 C958 1.394 . S
C959 C960 1.383 . S
C959 H967 0.929 . S
C960 C959 1.383 . S
C960 C961 1.377 . S
C961 H945 0.930 . S
C961 C960 1.377 . S
C961 C962 1.379 . S
C962 H946 0.931 . S
C962 C956 1.383 . S
C962 C961 1.379 . S
H963 C957 0.959 . S
H964 C957 0.961 . S
H965 C957 0.960 . S
H966 C958 0.930 . S
H967 C959 0.929 . S
H968 C976 0.929 . S
H969 C978 0.930 . S
H970 C980 0.930 . S
H971 C983 0.929 . S
H972 C986 0.930 . S
H973 C988 0.960 . S
H974 C988 0.960 . S
H975 C988 0.960 . S
C976 H968 0.929 . S
C976 C977 1.377 . S
C976 C978 1.384 . S
C977 C976 1.377 . S
C977 C983 1.390 . S
C978 H969 0.930 . S
C978 C976 1.384 . S
C978 C979 1.372 . S
C979 C978 1.372 . S
C979 C980 1.400 . S
C979 C984 1.490 . S
C980 H970 0.930 . S
C980 C979 1.400 . S
C980 C983 1.386 . S
H981 C997 0.930 . S
H982 C998 0.931 . S
C983 H971 0.929 . S
C983 C977 1.390 . S
C983 C980 1.386 . S
C984 C979 1.490 . S
C984 C986 1.395 . S
C984 C987 1.403 . S
H985 C991 0.930 . S
C986 H972 0.930 . S
C986 C984 1.395 . S
C986 C989 1.403 . S
C987 C984 1.403 . S
C987 C988 1.524 . S
C987 C991 1.400 . S
C988 H973 0.960 . S
C988 H974 0.960 . S
C988 H975 0.960 . S
C988 C987 1.524 . S
C989 C986 1.403 . S
C989 C990 1.392 . S
C989 C993 1.495 . S
C990 C989 1.392 . S
C990 C991 1.385 . S
C990 C992 1.478 . S
C991 H985 0.930 . S
C991 C987 1.400 . S
C991 C990 1.385 . S
C992 C990 1.478 . S
C992 C994 1.381 . S
C992 C998 1.383 . S
C993 C989 1.495 . S
C993 H999 0.959 . S
C993 H1000 0.961 . S
C993 H1001 0.960 . S
C994 C992 1.381 . S
C994 C995 1.394 . S
C994 H1002 0.930 . S
C995 C994 1.394 . S
C995 C996 1.383 . S
C995 H1003 0.929 . S
C996 C995 1.383 . S
C996 C997 1.377 . S
C997 H981 0.930 . S
C997 C996 1.377 . S
C997 C998 1.379 . S
C998 H982 0.931 . S
C998 C992 1.383 . S
C998 C997 1.379 . S
H999 C993 0.959 . S
H1000 C993 0.961 . S
H1001 C993 0.960 . S
H1002 C994 0.930 . S
H1003 C995 0.929 . S
H1004 C1012 0.929 . S
H1005 C1014 0.930 . S
H1006 C1016 0.930 . S
H1007 C1019 0.929 . S
H1008 C1022 0.930 . S
H1009 C1024 0.960 . S
H1010 C1024 0.960 . S
H1011 C1024 0.960 . S
C1012 H1004 0.929 . S
C1012 C1013 1.377 . S
C1012 C1014 1.384 . S
C1013 C1012 1.377 . S
C1013 C1019 1.390 . S
C1014 H1005 0.930 . S
C1014 C1012 1.384 . S
C1014 C1015 1.372 . S
C1015 C1014 1.372 . S
C1015 C1016 1.400 . S
C1015 C1020 1.490 . S
C1016 H1006 0.930 . S
C1016 C1015 1.400 . S
C1016 C1019 1.386 . S
H1017 C1033 0.930 . S
H1018 C1034 0.931 . S
C1019 H1007 0.929 . S
C1019 C1013 1.390 . S
C1019 C1016 1.386 . S
C1020 C1015 1.490 . S
C1020 C1022 1.395 . S
C1020 C1023 1.403 . S
H1021 C1027 0.930 . S
C1022 H1008 0.930 . S
C1022 C1020 1.395 . S
C1022 C1025 1.403 . S
C1023 C1020 1.403 . S
C1023 C1024 1.524 . S
C1023 C1027 1.400 . S
C1024 H1009 0.960 . S
C1024 H1010 0.960 . S
C1024 H1011 0.960 . S
C1024 C1023 1.524 . S
C1025 C1022 1.403 . S
C1025 C1026 1.392 . S
C1025 C1029 1.495 . S
C1026 C1025 1.392 . S
C1026 C1027 1.385 . S
C1026 C1028 1.478 . S
C1027 H1021 0.930 . S
C1027 C1023 1.400 . S
C1027 C1026 1.385 . S
C1028 C1026 1.478 . S
C1028 C1030 1.381 . S
C1028 C1034 1.383 . S
C1029 C1025 1.495 . S
C1029 H1035 0.959 . S
C1029 H1036 0.961 . S
C1029 H1037 0.960 . S
C1030 C1028 1.381 . S
C1030 C1031 1.394 . S
C1030 H1038 0.930 . S
C1031 C1030 1.394 . S
C1031 C1032 1.383 . S
C1031 H1039 0.929 . S
C1032 C1031 1.383 . S
C1032 C1033 1.377 . S
C1033 H1017 0.930 . S
C1033 C1032 1.377 . S
C1033 C1034 1.379 . S
C1034 H1018 0.931 . S
C1034 C1028 1.383 . S
C1034 C1033 1.379 . S
H1035 C1029 0.959 . S
H1036 C1029 0.961 . S
H1037 C1029 0.960 . S
H1038 C1030 0.930 . S
H1039 C1031 0.929 . S
H1040 C1048 0.929 . S
H1041 C1050 0.930 . S
H1042 C1052 0.930 . S
H1043 C1055 0.929 . S
H1044 C1058 0.930 . S
H1045 C1060 0.960 . S
H1046 C1060 0.960 . S
H1047 C1060 0.960 . S
C1048 H1040 0.929 . S
C1048 C1049 1.377 . S
C1048 C1050 1.384 . S
C1049 C1048 1.377 . S
C1049 C1055 1.390 . S
C1050 H1041 0.930 . S
C1050 C1048 1.384 . S
C1050 C1051 1.372 . S
C1051 C1050 1.372 . S
C1051 C1052 1.400 . S
C1051 C1056 1.490 . S
C1052 H1042 0.930 . S
C1052 C1051 1.400 . S
C1052 C1055 1.386 . S
H1053 C1069 0.930 . S
H1054 C1070 0.931 . S
C1055 H1043 0.929 . S
C1055 C1049 1.390 . S
C1055 C1052 1.386 . S
C1056 C1051 1.490 . S
C1056 C1058 1.395 . S
C1056 C1059 1.403 . S
H1057 C1063 0.930 . S
C1058 H1044 0.930 . S
C1058 C1056 1.395 . S
C1058 C1061 1.403 . S
C1059 C1056 1.403 . S
C1059 C1060 1.524 . S
C1059 C1063 1.400 . S
C1060 H1045 0.960 . S
C1060 H1046 0.960 . S
C1060 H1047 0.960 . S
C1060 C1059 1.524 . S
C1061 C1058 1.403 . S
C1061 C1062 1.392 . S
C1061 C1065 1.495 . S
C1062 C1061 1.392 . S
C1062 C1063 1.385 . S
C1062 C1064 1.478 . S
C1063 H1057 0.930 . S
C1063 C1059 1.400 . S
C1063 C1062 1.385 . S
C1064 C1062 1.478 . S
C1064 C1066 1.381 . S
C1064 C1070 1.383 . S
C1065 C1061 1.495 . S
C1065 H1071 0.959 . S
C1065 H1072 0.961 . S
C1065 H1073 0.960 . S
C1066 C1064 1.381 . S
C1066 C1067 1.394 . S
C1066 H1074 0.930 . S
C1067 C1066 1.394 . S
C1067 C1068 1.383 . S
C1067 H1075 0.929 . S
C1068 C1067 1.383 . S
C1068 C1069 1.377 . S
C1069 H1053 0.930 . S
C1069 C1068 1.377 . S
C1069 C1070 1.379 . S
C1070 H1054 0.931 . S
C1070 C1064 1.383 . S
C1070 C1069 1.379 . S
H1071 C1065 0.959 . S
H1072 C1065 0.961 . S
H1073 C1065 0.960 . S
H1074 C1066 0.930 . S
H1075 C1067 0.929 . S
H1076 C1084 0.929 . S
H1077 C1086 0.930 . S
H1078 C1088 0.930 . S
H1079 C1091 0.929 . S
H1080 C1094 0.930 . S
H1081 C1096 0.960 . S
H1082 C1096 0.960 . S
H1083 C1096 0.960 . S
C1084 H1076 0.929 . S
C1084 C1085 1.377 . S
C1084 C1086 1.384 . S
C1085 C1084 1.377 . S
C1085 C1091 1.390 . S
C1086 H1077 0.930 . S
C1086 C1084 1.384 . S
C1086 C1087 1.372 . S
C1087 C1086 1.372 . S
C1087 C1088 1.400 . S
C1087 C1092 1.490 . S
C1088 H1078 0.930 . S
C1088 C1087 1.400 . S
C1088 C1091 1.386 . S
H1089 C1105 0.930 . S
H1090 C1106 0.931 . S
C1091 H1079 0.929 . S
C1091 C1085 1.390 . S
C1091 C1088 1.386 . S
C1092 C1087 1.490 . S
C1092 C1094 1.395 . S
C1092 C1095 1.403 . S
H1093 C1099 0.930 . S
C1094 H1080 0.930 . S
C1094 C1092 1.395 . S
C1094 C1097 1.403 . S
C1095 C1092 1.403 . S
C1095 C1096 1.524 . S
C1095 C1099 1.400 . S
C1096 H1081 0.960 . S
C1096 H1082 0.960 . S
C1096 H1083 0.960 . S
C1096 C1095 1.524 . S
C1097 C1094 1.403 . S
C1097 C1098 1.392 . S
C1097 C1101 1.495 . S
C1098 C1097 1.392 . S
C1098 C1099 1.385 . S
C1098 C1100 1.478 . S
C1099 H1093 0.930 . S
C1099 C1095 1.400 . S
C1099 C1098 1.385 . S
C1100 C1098 1.478 . S
C1100 C1102 1.381 . S
C1100 C1106 1.383 . S
C1101 C1097 1.495 . S
C1101 H1107 0.959 . S
C1101 H1108 0.961 . S
C1101 H1109 0.960 . S
C1102 C1100 1.381 . S
C1102 C1103 1.394 . S
C1102 H1110 0.930 . S
C1103 C1102 1.394 . S
C1103 C1104 1.383 . S
C1103 H1111 0.929 . S
C1104 C1103 1.383 . S
C1104 C1105 1.377 . S
C1105 H1089 0.930 . S
C1105 C1104 1.377 . S
C1105 C1106 1.379 . S
C1106 H1090 0.931 . S
C1106 C1100 1.383 . S
C1106 C1105 1.379 . S
H1107 C1101 0.959 . S
H1108 C1101 0.961 . S
H1109 C1101 0.960 . S
H1110 C1102 0.930 . S
H1111 C1103 0.929 . S
H1112 C1120 0.929 . S
H1113 C1122 0.930 . S
H1114 C1124 0.930 . S
H1115 C1127 0.929 . S
H1116 C1130 0.930 . S
H1117 C1132 0.960 . S
H1118 C1132 0.960 . S
H1119 C1132 0.960 . S
C1120 H1112 0.929 . S
C1120 C1121 1.377 . S
C1120 C1122 1.384 . S
C1121 C1120 1.377 . S
C1121 C1127 1.390 . S
C1122 H1113 0.930 . S
C1122 C1120 1.384 . S
C1122 C1123 1.372 . S
C1123 C1122 1.372 . S
C1123 C1124 1.400 . S
C1123 C1128 1.490 . S
C1124 H1114 0.930 . S
C1124 C1123 1.400 . S
C1124 C1127 1.386 . S
H1125 C1141 0.930 . S
H1126 C1142 0.931 . S
C1127 H1115 0.929 . S
C1127 C1121 1.390 . S
C1127 C1124 1.386 . S
C1128 C1123 1.490 . S
C1128 C1130 1.395 . S
C1128 C1131 1.403 . S
H1129 C1135 0.930 . S
C1130 H1116 0.930 . S
C1130 C1128 1.395 . S
C1130 C1133 1.403 . S
C1131 C1128 1.403 . S
C1131 C1132 1.524 . S
C1131 C1135 1.400 . S
C1132 H1117 0.960 . S
C1132 H1118 0.960 . S
C1132 H1119 0.960 . S
C1132 C1131 1.524 . S
C1133 C1130 1.403 . S
C1133 C1134 1.392 . S
C1133 C1137 1.495 1_556 S
C1134 C1133 1.392 . S
C1134 C1135 1.385 . S
C1134 C1136 1.478 . S
C1135 H1129 0.930 . S
C1135 C1131 1.400 . S
C1135 C1134 1.385 . S
C1136 C1134 1.478 . S
C1136 C1138 1.381 . S
C1136 C1142 1.383 . S
C1137 C1133 1.495 1_554 S
C1137 H1143 0.959 . S
C1137 H1144 0.961 . S
C1137 H1145 0.960 . S
C1138 C1136 1.381 . S
C1138 C1139 1.394 1_556 S
C1138 H1146 0.930 . S
C1139 C1138 1.394 1_554 S
C1139 C1140 1.383 . S
C1139 H1147 0.929 . S
C1140 C1139 1.383 . S
C1140 C1141 1.377 1_554 S
C1141 H1125 0.930 . S
C1141 C1140 1.377 1_556 S
C1141 C1142 1.379 . S
C1142 H1126 0.931 . S
C1142 C1136 1.383 . S
C1142 C1141 1.379 . S
H1143 C1137 0.959 . S
H1144 C1137 0.961 . S
H1145 C1137 0.960 . S
H1146 C1138 0.930 . S
H1147 C1139 0.929 . S
H1148 C1156 0.929 . S
H1149 C1158 0.930 . S
H1150 C1160 0.930 . S
H1151 C1163 0.929 . S
H1152 C1166 0.930 . S
H1153 C1168 0.960 . S
H1154 C1168 0.960 . S
H1155 C1168 0.960 . S
C1156 H1148 0.929 . S
C1156 C1157 1.377 . S
C1156 C1158 1.384 . S
C1157 C1156 1.377 . S
C1157 C1163 1.390 . S
C1158 H1149 0.930 . S
C1158 C1156 1.384 . S
C1158 C1159 1.372 . S
C1159 C1158 1.372 . S
C1159 C1160 1.400 . S
C1159 C1164 1.490 . S
C1160 H1150 0.930 . S
C1160 C1159 1.400 . S
C1160 C1163 1.386 . S
H1161 C1177 0.930 . S
H1162 C1178 0.931 . S
C1163 H1151 0.929 . S
C1163 C1157 1.390 . S
C1163 C1160 1.386 . S
C1164 C1159 1.490 . S
C1164 C1166 1.395 . S
C1164 C1167 1.403 . S
H1165 C1171 0.930 . S
C1166 H1152 0.930 . S
C1166 C1164 1.395 . S
C1166 C1169 1.403 . S
C1167 C1164 1.403 . S
C1167 C1168 1.524 . S
C1167 C1171 1.400 . S
C1168 H1153 0.960 . S
C1168 H1154 0.960 . S
C1168 H1155 0.960 . S
C1168 C1167 1.524 . S
C1169 C1166 1.403 . S
C1169 C1170 1.392 . S
C1169 C1173 1.495 . S
C1170 C1169 1.392 . S
C1170 C1171 1.385 . S
C1170 C1172 1.478 . S
C1171 H1165 0.930 . S
C1171 C1167 1.400 . S
C1171 C1170 1.385 . S
C1172 C1170 1.478 . S
C1172 C1174 1.381 . S
C1172 C1178 1.383 . S
C1173 C1169 1.495 . S
C1173 H1179 0.959 . S
C1173 H1180 0.961 . S
C1173 H1181 0.960 . S
C1174 C1172 1.381 . S
C1174 C1175 1.394 . S
C1174 H1182 0.930 . S
C1175 C1174 1.394 . S
C1175 C1176 1.383 . S
C1175 H1183 0.929 . S
C1176 C1175 1.383 . S
C1176 C1177 1.377 . S
C1177 H1161 0.930 . S
C1177 C1176 1.377 . S
C1177 C1178 1.379 . S
C1178 H1162 0.931 . S
C1178 C1172 1.383 . S
C1178 C1177 1.379 . S
H1179 C1173 0.959 . S
H1180 C1173 0.961 . S
H1181 C1173 0.960 . S
H1182 C1174 0.930 . S
H1183 C1175 0.929 . S
H1184 C1192 0.929 . S
H1185 C1194 0.930 . S
H1186 C1196 0.930 . S
H1187 C1199 0.929 . S
H1188 C1202 0.930 . S
H1189 C1204 0.960 . S
H1190 C1204 0.960 . S
H1191 C1204 0.960 . S
C1192 H1184 0.929 . S
C1192 C1193 1.377 . S
C1192 C1194 1.384 . S
C1193 C1192 1.377 . S
C1193 C1199 1.390 . S
C1194 H1185 0.930 . S
C1194 C1192 1.384 . S
C1194 C1195 1.372 . S
C1195 C1194 1.372 . S
C1195 C1196 1.400 . S
C1195 C1200 1.490 . S
C1196 H1186 0.930 . S
C1196 C1195 1.400 . S
C1196 C1199 1.386 . S
H1197 C1213 0.934 . S
H1198 C1214 0.931 . S
C1199 H1187 0.929 . S
C1199 C1193 1.390 . S
C1199 C1196 1.386 . S
C1200 C1195 1.490 . S
C1200 C1202 1.395 . S
C1200 C1203 1.403 . S
H1201 C1207 0.930 . S
C1202 H1188 0.930 . S
C1202 C1200 1.395 . S
C1202 C1205 1.403 . S
C1203 C1200 1.403 . S
C1203 C1204 1.524 . S
C1203 C1207 1.400 . S
C1204 H1189 0.960 . S
C1204 H1190 0.960 . S
C1204 H1191 0.960 . S
C1204 C1203 1.524 . S
C1205 C1202 1.403 . S
C1205 C1206 1.392 . S
C1205 C1209 1.495 . S
C1206 C1205 1.392 . S
C1206 C1207 1.385 . S
C1206 C1208 1.478 . S
C1207 H1201 0.930 . S
C1207 C1203 1.400 . S
C1207 C1206 1.385 . S
C1208 C1206 1.478 . S
C1208 C1210 1.381 . S
C1208 C1214 1.383 . S
C1209 C1205 1.495 . S
C1209 H1215 0.959 . S
C1209 H1216 0.961 . S
C1209 H1217 0.960 . S
C1210 C1208 1.381 . S
C1210 C1211 1.394 . S
C1210 H1218 0.930 . S
C1211 C1210 1.394 . S
C1211 C1212 1.383 . S
C1211 H1219 0.929 . S
C1212 C1211 1.383 . S
C1212 C1213 1.377 . S
C1213 H1197 0.934 . S
C1213 C1212 1.377 . S
C1213 C1214 1.379 . S
C1214 H1198 0.931 . S
C1214 C1208 1.383 . S
C1214 C1213 1.379 . S
H1215 C1209 0.959 . S
H1216 C1209 0.961 . S
H1217 C1209 0.960 . S
H1218 C1210 0.930 . S
H1219 C1211 0.929 . S
H1220 C1228 0.929 . S
H1221 C1230 0.930 . S
H1222 C1232 0.930 . S
H1223 C1235 0.929 . S
H1224 C1238 0.930 . S
H1225 C1240 0.960 . S
H1226 C1240 0.960 . S
H1227 C1240 0.960 . S
C1228 H1220 0.929 . S
C1228 C1229 1.377 . S
C1228 C1230 1.384 . S
C1229 C1228 1.377 . S
C1229 C1235 1.390 . S
C1230 H1221 0.930 . S
C1230 C1228 1.384 . S
C1230 C1231 1.372 . S
C1231 C1230 1.372 . S
C1231 C1232 1.400 . S
C1231 C1236 1.490 . S
C1232 H1222 0.930 . S
C1232 C1231 1.400 . S
C1232 C1235 1.386 . S
H1233 C1249 0.930 . S
H1234 C1250 0.931 . S
C1235 H1223 0.929 . S
C1235 C1229 1.390 . S
C1235 C1232 1.386 . S
C1236 C1231 1.490 . S
C1236 C1238 1.395 . S
C1236 C1239 1.403 . S
H1237 C1243 0.930 . S
C1238 H1224 0.930 . S
C1238 C1236 1.395 . S
C1238 C1241 1.403 . S
C1239 C1236 1.403 . S
C1239 C1240 1.524 . S
C1239 C1243 1.400 . S
C1240 H1225 0.960 . S
C1240 H1226 0.960 . S
C1240 H1227 0.960 . S
C1240 C1239 1.524 . S
C1241 C1238 1.403 . S
C1241 C1242 1.392 . S
C1241 C1245 1.495 . S
C1242 C1241 1.392 . S
C1242 C1243 1.385 . S
C1242 C1244 1.478 . S
C1243 H1237 0.930 . S
C1243 C1239 1.400 . S
C1243 C1242 1.385 . S
C1244 C1242 1.478 . S
C1244 C1246 1.381 . S
C1244 C1250 1.383 . S
C1245 C1241 1.495 . S
C1245 H1251 0.959 . S
C1245 H1252 0.961 . S
C1245 H1253 0.960 . S
C1246 C1244 1.381 . S
C1246 C1247 1.394 . S
C1246 H1254 0.930 . S
C1247 C1246 1.394 . S
C1247 C1248 1.383 . S
C1247 H1255 0.929 . S
C1248 C1247 1.383 . S
C1248 C1249 1.377 . S
C1249 H1233 0.930 . S
C1249 C1248 1.377 . S
C1249 C1250 1.379 . S
C1250 H1234 0.931 . S
C1250 C1244 1.383 . S
C1250 C1249 1.379 . S
H1251 C1245 0.959 . S
H1252 C1245 0.961 . S
H1253 C1245 0.960 . S
H1254 C1246 0.930 . S
H1255 C1247 0.929 . S
H1256 C1264 0.929 . S
H1257 C1266 0.930 . S
H1258 C1268 0.930 . S
H1259 C1271 0.929 . S
H1260 C1274 0.930 . S
H1261 C1276 0.960 . S
H1262 C1276 0.960 . S
H1263 C1276 0.960 . S
C1264 H1256 0.929 . S
C1264 C1265 1.377 . S
C1264 C1266 1.384 . S
C1265 C1264 1.377 . S
C1265 C1271 1.390 . S
C1266 H1257 0.930 . S
C1266 C1264 1.384 . S
C1266 C1267 1.372 . S
C1267 C1266 1.372 . S
C1267 C1268 1.400 . S
C1267 C1272 1.490 . S
C1268 H1258 0.930 . S
C1268 C1267 1.400 . S
C1268 C1271 1.386 . S
H1269 C1285 0.930 1_554 S
H1270 C1286 0.931 . S
C1271 H1259 0.929 . S
C1271 C1265 1.390 . S
C1271 C1268 1.386 . S
C1272 C1267 1.490 . S
C1272 C1274 1.395 . S
C1272 C1275 1.403 . S
H1273 C1279 0.930 . S
C1274 H1260 0.930 . S
C1274 C1272 1.395 . S
C1274 C1277 1.403 . S
C1275 C1272 1.403 . S
C1275 C1276 1.524 . S
C1275 C1279 1.400 . S
C1276 H1261 0.960 . S
C1276 H1262 0.960 . S
C1276 H1263 0.960 . S
C1276 C1275 1.524 . S
C1277 C1274 1.403 . S
C1277 C1278 1.392 . S
C1277 C1281 1.495 . S
C1278 C1277 1.392 . S
C1278 C1279 1.385 . S
C1278 C1280 1.478 . S
C1279 H1273 0.930 . S
C1279 C1275 1.400 . S
C1279 C1278 1.385 . S
C1280 C1278 1.478 . S
C1280 C1282 1.381 . S
C1280 C1286 1.383 . S
C1281 C1277 1.495 . S
C1281 H1287 0.959 . S
C1281 H1288 0.961 . S
C1281 H1289 0.960 . S
C1282 C1280 1.381 . S
C1282 C1283 1.394 . S
C1282 H1290 0.930 . S
C1283 C1282 1.394 . S
C1283 C1284 1.383 . S
C1283 H1291 0.929 . S
C1284 C1283 1.383 . S
C1284 C1285 1.377 . S
C1285 H1269 0.930 1_556 S
C1285 C1284 1.377 . S
C1285 C1286 1.379 . S
C1286 H1270 0.931 . S
C1286 C1280 1.383 . S
C1286 C1285 1.379 . S
H1287 C1281 0.959 . S
H1288 C1281 0.961 . S
H1289 C1281 0.960 . S
H1290 C1282 0.930 . S
H1291 C1283 0.929 . S
H1292 C1300 0.929 . S
H1293 C1302 0.930 . S
H1294 C1304 0.930 . S
H1295 C1307 0.929 . S
H1296 C1310 0.930 . S
H1297 C1312 0.960 . S
H1298 C1312 0.960 . S
H1299 C1312 0.960 . S
C1300 H1292 0.929 . S
C1300 C1301 1.377 . S
C1300 C1302 1.384 . S
C1301 C1300 1.377 . S
C1301 C1307 1.390 . S
C1302 H1293 0.930 . S
C1302 C1300 1.384 . S
C1302 C1303 1.372 . S
C1303 C1302 1.372 . S
C1303 C1304 1.400 . S
C1303 C1308 1.490 . S
C1304 H1294 0.930 . S
C1304 C1303 1.400 . S
C1304 C1307 1.386 . S
H1305 C1321 0.930 . S
H1306 C1322 0.931 . S
C1307 H1295 0.929 . S
C1307 C1301 1.390 . S
C1307 C1304 1.386 . S
C1308 C1303 1.490 . S
C1308 C1310 1.395 . S
C1308 C1311 1.403 . S
H1309 C1315 0.930 . S
C1310 H1296 0.930 . S
C1310 C1308 1.395 . S
C1310 C1313 1.403 . S
C1311 C1308 1.403 . S
C1311 C1312 1.524 . S
C1311 C1315 1.400 . S
C1312 H1297 0.960 . S
C1312 H1298 0.960 . S
C1312 H1299 0.960 . S
C1312 C1311 1.524 . S
C1313 C1310 1.403 . S
C1313 C1314 1.392 . S
C1313 C1317 1.495 . S
C1314 C1313 1.392 . S
C1314 C1315 1.385 . S
C1314 C1316 1.478 . S
C1315 H1309 0.930 . S
C1315 C1311 1.400 . S
C1315 C1314 1.385 . S
C1316 C1314 1.478 . S
C1316 C1318 1.381 . S
C1316 C1322 1.383 . S
C1317 C1313 1.495 . S
C1317 H1323 0.959 . S
C1317 H1324 0.961 . S
C1317 H1325 0.960 . S
C1318 C1316 1.381 . S
C1318 C1319 1.394 . S
C1318 H1326 0.930 . S
C1319 C1318 1.394 . S
C1319 C1320 1.383 . S
C1319 H1327 0.929 . S
C1320 C1319 1.383 . S
C1320 C1321 1.377 . S
C1321 H1305 0.930 . S
C1321 C1320 1.377 . S
C1321 C1322 1.379 . S
C1322 H1306 0.931 . S
C1322 C1316 1.383 . S
C1322 C1321 1.379 . S
H1323 C1317 0.959 . S
H1324 C1317 0.961 . S
H1325 C1317 0.960 . S
H1326 C1318 0.930 . S
H1327 C1319 0.929 . S
H1328 C1336 0.929 . S
H1329 C1338 0.930 . S
H1330 C1340 0.930 . S
H1331 C1343 0.929 . S
H1332 C1346 0.930 . S
H1333 C1348 0.960 . S
H1334 C1348 0.960 . S
H1335 C1348 0.960 . S
C1336 H1328 0.929 . S
C1336 C1337 1.377 . S
C1336 C1338 1.384 . S
C1337 C1336 1.377 . S
C1337 C1343 1.390 . S
C1338 H1329 0.930 . S
C1338 C1336 1.384 . S
C1338 C1339 1.372 . S
C1339 C1338 1.372 . S
C1339 C1340 1.400 . S
C1339 C1344 1.490 . S
C1340 H1330 0.930 . S
C1340 C1339 1.400 . S
C1340 C1343 1.386 . S
H1341 C1357 0.930 . S
H1342 C1358 0.931 . S
C1343 H1331 0.929 . S
C1343 C1337 1.390 . S
C1343 C1340 1.386 . S
C1344 C1339 1.490 . S
C1344 C1346 1.395 . S
C1344 C1347 1.403 . S
H1345 C1351 0.930 . S
C1346 H1332 0.930 . S
C1346 C1344 1.395 . S
C1346 C1349 1.403 . S
C1347 C1344 1.403 . S
C1347 C1348 1.524 . S
C1347 C1351 1.400 . S
C1348 H1333 0.960 . S
C1348 H1334 0.960 . S
C1348 H1335 0.960 . S
C1348 C1347 1.524 . S
C1349 C1346 1.403 . S
C1349 C1350 1.392 . S
C1349 C1353 1.495 . S
C1350 C1349 1.392 . S
C1350 C1351 1.385 . S
C1350 C1352 1.478 . S
C1351 H1345 0.930 . S
C1351 C1347 1.400 . S
C1351 C1350 1.385 . S
C1352 C1350 1.478 . S
C1352 C1354 1.381 . S
C1352 C1358 1.383 . S
C1353 C1349 1.495 . S
C1353 H1359 0.959 . S
C1353 H1360 0.961 . S
C1353 H1361 0.960 . S
C1354 C1352 1.381 . S
C1354 C1355 1.394 . S
C1354 H1362 0.930 . S
C1355 C1354 1.394 . S
C1355 C1356 1.383 . S
C1355 H1363 0.929 . S
C1356 C1355 1.383 . S
C1356 C1357 1.377 . S
C1357 H1341 0.930 . S
C1357 C1356 1.377 . S
C1357 C1358 1.379 . S
C1358 H1342 0.931 . S
C1358 C1352 1.383 . S
C1358 C1357 1.379 . S
H1359 C1353 0.959 . S
H1360 C1353 0.961 . S
H1361 C1353 0.960 . S
H1362 C1354 0.930 . S
H1363 C1355 0.929 . S
H1364 C1372 0.929 . S
H1365 C1374 0.930 . S
H1366 C1376 0.930 . S
H1367 C1379 0.929 . S
H1368 C1382 0.930 . S
H1369 C1384 0.960 . S
H1370 C1384 0.960 . S
H1371 C1384 0.960 . S
C1372 H1364 0.929 . S
C1372 C1373 1.377 . S
C1372 C1374 1.384 . S
C1373 C1372 1.377 . S
C1373 C1379 1.390 . S
C1374 H1365 0.930 . S
C1374 C1372 1.384 . S
C1374 C1375 1.372 . S
C1375 C1374 1.372 . S
C1375 C1376 1.400 . S
C1375 C1380 1.490 . S
C1376 H1366 0.930 . S
C1376 C1375 1.400 . S
C1376 C1379 1.386 . S
H1377 C1393 0.930 . S
H1378 C1394 0.931 . S
C1379 H1367 0.929 . S
C1379 C1373 1.390 . S
C1379 C1376 1.386 . S
C1380 C1375 1.490 . S
C1380 C1382 1.395 . S
C1380 C1383 1.403 . S
H1381 C1387 0.930 . S
C1382 H1368 0.930 . S
C1382 C1380 1.395 . S
C1382 C1385 1.403 . S
C1383 C1380 1.403 . S
C1383 C1384 1.524 . S
C1383 C1387 1.400 . S
C1384 H1369 0.960 . S
C1384 H1370 0.960 . S
C1384 H1371 0.960 . S
C1384 C1383 1.524 . S
C1385 C1382 1.403 . S
C1385 C1386 1.392 . S
C1385 C1389 1.495 . S
C1386 C1385 1.392 . S
C1386 C1387 1.385 . S
C1386 C1388 1.478 . S
C1387 H1381 0.930 . S
C1387 C1383 1.400 . S
C1387 C1386 1.385 . S
C1388 C1386 1.478 . S
C1388 C1390 1.381 . S
C1388 C1394 1.383 . S
C1389 C1385 1.495 . S
C1389 H1395 0.959 . S
C1389 H1396 0.961 . S
C1389 H1397 0.960 . S
C1390 C1388 1.381 . S
C1390 C1391 1.394 . S
C1390 H1398 0.930 . S
C1391 C1390 1.394 . S
C1391 C1392 1.383 . S
C1391 H1399 0.929 . S
C1392 C1391 1.383 . S
C1392 C1393 1.377 . S
C1393 H1377 0.930 . S
C1393 C1392 1.377 . S
C1393 C1394 1.379 . S
C1394 H1378 0.931 . S
C1394 C1388 1.383 . S
C1394 C1393 1.379 . S
H1395 C1389 0.959 . S
H1396 C1389 0.961 . S
H1397 C1389 0.960 . S
H1398 C1390 0.930 . S
H1399 C1391 0.929 . S
H1400 C1408 0.929 . S
H1401 C1410 0.930 . S
H1402 C1412 0.930 . S
H1403 C1415 0.929 . S
H1404 C1418 0.930 . S
H1405 C1420 0.960 . S
H1406 C1420 0.960 . S
H1407 C1420 0.960 . S
C1408 H1400 0.929 . S
C1408 C1409 1.377 . S
C1408 C1410 1.384 . S
C1409 C1408 1.377 . S
C1409 C1415 1.390 . S
C1410 H1401 0.930 . S
C1410 C1408 1.384 . S
C1410 C1411 1.372 . S
C1411 C1410 1.372 . S
C1411 C1412 1.400 . S
C1411 C1416 1.490 . S
C1412 H1402 0.930 . S
C1412 C1411 1.400 . S
C1412 C1415 1.386 . S
H1413 C1429 0.930 . S
H1414 C1430 0.931 . S
C1415 H1403 0.929 . S
C1415 C1409 1.390 . S
C1415 C1412 1.386 . S
C1416 C1411 1.490 . S
C1416 C1418 1.395 . S
C1416 C1419 1.403 . S
H1417 C1423 0.930 . S
C1418 H1404 0.930 . S
C1418 C1416 1.395 . S
C1418 C1421 1.403 . S
C1419 C1416 1.403 . S
C1419 C1420 1.524 . S
C1419 C1423 1.400 . S
C1420 H1405 0.960 . S
C1420 H1406 0.960 . S
C1420 H1407 0.960 . S
C1420 C1419 1.524 . S
C1421 C1418 1.403 . S
C1421 C1422 1.392 . S
C1421 C1425 1.495 . S
C1422 C1421 1.392 . S
C1422 C1423 1.385 . S
C1422 C1424 1.478 . S
C1423 H1417 0.930 . S
C1423 C1419 1.400 . S
C1423 C1422 1.385 . S
C1424 C1422 1.478 . S
C1424 C1426 1.381 . S
C1424 C1430 1.383 . S
C1425 C1421 1.495 . S
C1425 H1431 0.959 . S
C1425 H1432 0.961 . S
C1425 H1433 0.960 . S
C1426 C1424 1.381 . S
C1426 C1427 1.394 . S
C1426 H1434 0.930 . S
C1427 C1426 1.394 . S
C1427 C1428 1.383 . S
C1427 H1435 0.929 . S
C1428 C1427 1.383 . S
C1428 C1429 1.377 . S
C1429 H1413 0.930 . S
C1429 C1428 1.377 . S
C1429 C1430 1.379 . S
C1430 H1414 0.931 . S
C1430 C1424 1.383 . S
C1430 C1429 1.379 . S
H1431 C1425 0.959 . S
H1432 C1425 0.961 . S
H1433 C1425 0.960 . S
H1434 C1426 0.930 . S
H1435 C1427 0.929 . S
H1436 C1444 0.929 . S
H1437 C1446 0.930 . S
H1438 C1448 0.930 . S
H1439 C1451 0.929 . S
H1440 C1454 0.930 . S
H1441 C1456 0.960 . S
H1442 C1456 0.960 . S
H1443 C1456 0.960 . S
C1444 H1436 0.929 . S
C1444 C1445 1.377 . S
C1444 C1446 1.384 . S
C1445 C1444 1.377 . S
C1445 C1451 1.390 . S
C1446 H1437 0.930 . S
C1446 C1444 1.384 . S
C1446 C1447 1.372 . S
C1447 C1446 1.372 . S
C1447 C1448 1.400 . S
C1447 C1452 1.490 . S
C1448 H1438 0.930 . S
C1448 C1447 1.400 . S
C1448 C1451 1.386 . S
H1449 C1465 0.930 . S
H1450 C1466 0.931 . S
C1451 H1439 0.929 . S
C1451 C1445 1.390 . S
C1451 C1448 1.386 . S
C1452 C1447 1.490 . S
C1452 C1454 1.395 . S
C1452 C1455 1.403 . S
H1453 C1459 0.930 . S
C1454 H1440 0.930 . S
C1454 C1452 1.395 . S
C1454 C1457 1.403 . S
C1455 C1452 1.403 . S
C1455 C1456 1.524 . S
C1455 C1459 1.400 . S
C1456 H1441 0.960 . S
C1456 H1442 0.960 . S
C1456 H1443 0.960 . S
C1456 C1455 1.524 . S
C1457 C1454 1.403 . S
C1457 C1458 1.392 . S
C1457 C1461 1.495 . S
C1458 C1457 1.392 . S
C1458 C1459 1.385 . S
C1458 C1460 1.478 . S
C1459 H1453 0.930 . S
C1459 C1455 1.400 . S
C1459 C1458 1.385 . S
C1460 C1458 1.478 . S
C1460 C1462 1.381 . S
C1460 C1466 1.383 . S
C1461 C1457 1.495 . S
C1461 H1467 0.959 . S
C1461 H1468 0.961 . S
C1461 H1469 0.960 . S
C1462 C1460 1.381 . S
C1462 C1463 1.394 . S
C1462 H1470 0.930 . S
C1463 C1462 1.394 . S
C1463 C1464 1.383 . S
C1463 H1471 0.929 . S
C1464 C1463 1.383 . S
C1464 C1465 1.377 . S
C1465 H1449 0.930 . S
C1465 C1464 1.377 . S
C1465 C1466 1.379 . S
C1466 H1450 0.931 . S
C1466 C1460 1.383 . S
C1466 C1465 1.379 . S
H1467 C1461 0.959 . S
H1468 C1461 0.961 . S
H1469 C1461 0.960 . S
H1470 C1462 0.930 . S
H1471 C1463 0.929 . S
H1472 C1480 0.929 . S
H1473 C1482 0.930 . S
H1474 C1484 0.930 . S
H1475 C1487 0.929 . S
H1476 C1490 0.930 . S
H1477 C1492 0.960 . S
H1478 C1492 0.960 . S
H1479 C1492 0.960 . S
C1480 H1472 0.929 . S
C1480 C1481 1.377 . S
C1480 C1482 1.384 . S
C1481 C1480 1.377 . S
C1481 C1487 1.390 . S
C1482 H1473 0.930 . S
C1482 C1480 1.384 . S
C1482 C1483 1.372 . S
C1483 C1482 1.372 . S
C1483 C1484 1.400 . S
C1483 C1488 1.490 . S
C1484 H1474 0.930 . S
C1484 C1483 1.400 . S
C1484 C1487 1.386 . S
H1485 C1501 0.930 . S
H1486 C1502 0.931 . S
C1487 H1475 0.929 . S
C1487 C1481 1.390 . S
C1487 C1484 1.386 . S
C1488 C1483 1.490 . S
C1488 C1490 1.395 . S
C1488 C1491 1.403 . S
H1489 C1495 0.930 . S
C1490 H1476 0.930 . S
C1490 C1488 1.395 . S
C1490 C1493 1.403 . S
C1491 C1488 1.403 . S
C1491 C1492 1.524 . S
C1491 C1495 1.400 . S
C1492 H1477 0.960 . S
C1492 H1478 0.960 . S
C1492 H1479 0.960 . S
C1492 C1491 1.524 . S
C1493 C1490 1.403 . S
C1493 C1494 1.392 . S
C1493 C1497 1.495 . S
C1494 C1493 1.392 . S
C1494 C1495 1.385 . S
C1494 C1496 1.478 . S
C1495 H1489 0.930 . S
C1495 C1491 1.400 . S
C1495 C1494 1.385 . S
C1496 C1494 1.478 . S
C1496 C1498 1.381 . S
C1496 C1502 1.383 . S
C1497 C1493 1.495 . S
C1497 H1503 0.959 . S
C1497 H1504 0.961 . S
C1497 H1505 0.960 . S
C1498 C1496 1.381 . S
C1498 C1499 1.394 . S
C1498 H1506 0.930 . S
C1499 C1498 1.394 . S
C1499 C1500 1.383 . S
C1499 H1507 0.929 . S
C1500 C1499 1.383 . S
C1500 C1501 1.377 . S
C1501 H1485 0.930 . S
C1501 C1500 1.377 . S
C1501 C1502 1.379 . S
C1502 H1486 0.931 . S
C1502 C1496 1.383 . S
C1502 C1501 1.379 . S
H1503 C1497 0.959 . S
H1504 C1497 0.961 . S
H1505 C1497 0.960 . S
H1506 C1498 0.930 . S
H1507 C1499 0.929 . S
H1508 C1516 0.929 . S
H1509 C1518 0.930 . S
H1510 C1520 0.930 . S
H1511 C1523 0.929 . S
H1512 C1526 0.930 . S
H1513 C1528 0.960 . S
H1514 C1528 0.960 . S
H1515 C1528 0.960 . S
C1516 H1508 0.929 . S
C1516 C1517 1.377 . S
C1516 C1518 1.384 . S
C1517 C1516 1.377 . S
C1517 C1523 1.390 . S
C1518 H1509 0.930 . S
C1518 C1516 1.384 . S
C1518 C1519 1.372 . S
C1519 C1518 1.372 . S
C1519 C1520 1.400 . S
C1519 C1524 1.490 . S
C1520 H1510 0.930 . S
C1520 C1519 1.400 . S
C1520 C1523 1.386 . S
H1521 C1537 0.930 . S
H1522 C1538 0.931 . S
C1523 H1511 0.929 . S
C1523 C1517 1.390 . S
C1523 C1520 1.386 . S
C1524 C1519 1.490 . S
C1524 C1526 1.395 . S
C1524 C1527 1.403 . S
H1525 C1531 0.930 . S
C1526 H1512 0.930 . S
C1526 C1524 1.395 . S
C1526 C1529 1.403 . S
C1527 C1524 1.403 . S
C1527 C1528 1.524 . S
C1527 C1531 1.400 . S
C1528 H1513 0.960 . S
C1528 H1514 0.960 . S
C1528 H1515 0.960 . S
C1528 C1527 1.524 . S
C1529 C1526 1.403 . S
C1529 C1530 1.392 . S
C1529 C1533 1.495 . S
C1530 C1529 1.392 . S
C1530 C1531 1.385 . S
C1530 C1532 1.478 . S
C1531 H1525 0.930 . S
C1531 C1527 1.400 . S
C1531 C1530 1.385 . S
C1532 C1530 1.478 . S
C1532 C1534 1.381 . S
C1532 C1538 1.383 . S
C1533 C1529 1.495 . S
C1533 H1539 0.959 . S
C1533 H1540 0.961 . S
C1533 H1541 0.960 . S
C1534 C1532 1.381 . S
C1534 C1535 1.394 . S
C1534 H1542 0.930 . S
C1535 C1534 1.394 . S
C1535 C1536 1.383 . S
C1535 H1543 0.929 . S
C1536 C1535 1.383 . S
C1536 C1537 1.377 . S
C1537 H1521 0.930 . S
C1537 C1536 1.377 . S
C1537 C1538 1.379 . S
C1538 H1522 0.931 . S
C1538 C1532 1.383 . S
C1538 C1537 1.379 . S
H1539 C1533 0.959 . S
H1540 C1533 0.961 . S
H1541 C1533 0.960 . S
H1542 C1534 0.930 . S
H1543 C1535 0.929 . S
H1544 C1552 0.929 . S
H1545 C1554 0.930 . S
H1546 C1556 0.930 . S
H1547 C1559 0.929 . S
H1548 C1562 0.930 . S
H1549 C1564 0.960 . S
H1550 C1564 0.960 . S
H1551 C1564 0.960 . S
C1552 H1544 0.929 . S
C1552 C1553 1.377 . S
C1552 C1554 1.384 . S
C1553 C1552 1.377 . S
C1553 C1559 1.390 . S
C1554 H1545 0.930 . S
C1554 C1552 1.384 . S
C1554 C1555 1.372 . S
C1555 C1554 1.372 . S
C1555 C1556 1.400 . S
C1555 C1560 1.490 . S
C1556 H1546 0.930 . S
C1556 C1555 1.400 . S
C1556 C1559 1.386 . S
H1557 C1573 0.930 . S
H1558 C1574 0.931 . S
C1559 H1547 0.929 . S
C1559 C1553 1.390 . S
C1559 C1556 1.386 . S
C1560 C1555 1.490 . S
C1560 C1562 1.395 . S
C1560 C1563 1.403 . S
H1561 C1567 0.930 . S
C1562 H1548 0.930 . S
C1562 C1560 1.395 . S
C1562 C1565 1.403 . S
C1563 C1560 1.403 . S
C1563 C1564 1.524 . S
C1563 C1567 1.400 . S
C1564 H1549 0.960 . S
C1564 H1550 0.960 . S
C1564 H1551 0.960 . S
C1564 C1563 1.524 . S
C1565 C1562 1.403 . S
C1565 C1566 1.392 . S
C1565 C1569 1.495 . S
C1566 C1565 1.392 . S
C1566 C1567 1.385 . S
C1566 C1568 1.478 . S
C1567 H1561 0.930 . S
C1567 C1563 1.400 . S
C1567 C1566 1.385 . S
C1568 C1566 1.478 . S
C1568 C1570 1.381 . S
C1568 C1574 1.383 . S
C1569 C1565 1.495 . S
C1569 H1575 0.959 . S
C1569 H1576 0.961 . S
C1569 H1577 0.960 . S
C1570 C1568 1.381 . S
C1570 C1571 1.394 . S
C1570 H1578 0.930 . S
C1571 C1570 1.394 . S
C1571 C1572 1.383 . S
C1571 H1579 0.929 . S
C1572 C1571 1.383 . S
C1572 C1573 1.377 . S
C1573 H1557 0.930 . S
C1573 C1572 1.377 . S
C1573 C1574 1.379 . S
C1574 H1558 0.931 . S
C1574 C1568 1.383 . S
C1574 C1573 1.379 . S
H1575 C1569 0.959 . S
H1576 C1569 0.961 . S
H1577 C1569 0.960 . S
H1578 C1570 0.930 . S
H1579 C1571 0.929 . S
H1580 C1588 0.929 . S
H1581 C1590 0.930 . S
H1582 C1592 0.930 . S
H1583 C1595 0.929 . S
H1584 C1598 0.930 . S
H1585 C1600 0.960 . S
H1586 C1600 0.960 . S
H1587 C1600 0.960 . S
C1588 H1580 0.929 . S
C1588 C1589 1.377 . S
C1588 C1590 1.384 . S
C1589 C1588 1.377 . S
C1589 C1595 1.390 . S
C1590 H1581 0.930 . S
C1590 C1588 1.384 . S
C1590 C1591 1.372 . S
C1591 C1590 1.372 . S
C1591 C1592 1.400 . S
C1591 C1596 1.490 . S
C1592 H1582 0.930 . S
C1592 C1591 1.400 . S
C1592 C1595 1.386 . S
H1593 C1609 0.939 . S
H1594 C1610 0.931 . S
C1595 H1583 0.929 . S
C1595 C1589 1.390 . S
C1595 C1592 1.386 . S
C1596 C1591 1.490 . S
C1596 C1598 1.395 . S
C1596 C1599 1.403 . S
H1597 C1603 0.930 . S
C1598 H1584 0.930 . S
C1598 C1596 1.395 . S
C1598 C1601 1.403 . S
C1599 C1596 1.403 . S
C1599 C1600 1.524 . S
C1599 C1603 1.400 . S
C1600 H1585 0.960 . S
C1600 H1586 0.960 . S
C1600 H1587 0.960 . S
C1600 C1599 1.524 . S
C1601 C1598 1.403 . S
C1601 C1602 1.392 . S
C1601 C1605 1.495 . S
C1602 C1601 1.392 . S
C1602 C1603 1.385 . S
C1602 C1604 1.478 . S
C1603 H1597 0.930 . S
C1603 C1599 1.400 . S
C1603 C1602 1.385 . S
C1604 C1602 1.478 . S
C1604 C1606 1.381 . S
C1604 C1610 1.383 . S
C1605 C1601 1.495 . S
C1605 H1611 0.959 . S
C1605 H1612 0.961 . S
C1605 H1613 0.960 . S
C1606 C1604 1.381 . S
C1606 C1607 1.394 . S
C1606 H1614 0.930 . S
C1607 C1606 1.394 . S
C1607 C1608 1.383 . S
C1607 H1615 0.929 . S
C1608 C1607 1.383 . S
C1608 C1609 1.377 . S
C1609 H1593 0.939 . S
C1609 C1608 1.377 . S
C1609 C1610 1.379 . S
C1610 H1594 0.931 . S
C1610 C1604 1.383 . S
C1610 C1609 1.379 . S
H1611 C1605 0.959 . S
H1612 C1605 0.961 . S
H1613 C1605 0.960 . S
H1614 C1606 0.930 . S
H1615 C1607 0.929 . S
H1616 C1624 0.929 . S
H1617 C1626 0.930 . S
H1618 C1628 0.930 . S
H1619 C1631 0.929 . S
H1620 C1634 0.930 . S
H1621 C1636 0.960 . S
H1622 C1636 0.960 . S
H1623 C1636 0.960 . S
C1624 H1616 0.929 . S
C1624 C1625 1.377 . S
C1624 C1626 1.384 . S
C1625 C1624 1.377 . S
C1625 C1631 1.390 . S
C1626 H1617 0.930 . S
C1626 C1624 1.384 . S
C1626 C1627 1.372 . S
C1627 C1626 1.372 . S
C1627 C1628 1.400 . S
C1627 C1632 1.490 . S
C1628 H1618 0.930 . S
C1628 C1627 1.400 . S
C1628 C1631 1.386 . S
H1629 C1645 0.930 . S
H1630 C1646 0.931 . S
C1631 H1619 0.929 . S
C1631 C1625 1.390 . S
C1631 C1628 1.386 . S
C1632 C1627 1.490 . S
C1632 C1634 1.395 . S
C1632 C1635 1.403 . S
H1633 C1639 0.930 . S
C1634 H1620 0.930 . S
C1634 C1632 1.395 . S
C1634 C1637 1.403 . S
C1635 C1632 1.403 . S
C1635 C1636 1.524 . S
C1635 C1639 1.400 . S
C1636 H1621 0.960 . S
C1636 H1622 0.960 . S
C1636 H1623 0.960 . S
C1636 C1635 1.524 . S
C1637 C1634 1.403 . S
C1637 C1638 1.392 . S
C1637 C1641 1.495 . S
C1638 C1637 1.392 . S
C1638 C1639 1.385 . S
C1638 C1640 1.478 . S
C1639 H1633 0.930 . S
C1639 C1635 1.400 . S
C1639 C1638 1.385 . S
C1640 C1638 1.478 . S
C1640 C1642 1.381 . S
C1640 C1646 1.383 . S
C1641 C1637 1.495 . S
C1641 H1647 0.959 . S
C1641 H1648 0.961 . S
C1641 H1649 0.960 1_556 S
C1642 C1640 1.381 . S
C1642 C1643 1.394 . S
C1642 H1650 0.930 . S
C1643 C1642 1.394 . S
C1643 C1644 1.383 . S
C1643 H1651 0.929 1_556 S
C1644 C1643 1.383 . S
C1644 C1645 1.377 . S
C1645 H1629 0.930 . S
C1645 C1644 1.377 . S
C1645 C1646 1.379 . S
C1646 H1630 0.931 . S
C1646 C1640 1.383 . S
C1646 C1645 1.379 . S
H1647 C1641 0.959 . S
H1648 C1641 0.961 . S
H1649 C1641 0.960 1_554 S
H1650 C1642 0.930 . S
H1651 C1643 0.929 1_554 S
H1652 C1660 0.929 . S
H1653 C1662 0.930 . S
H1654 C1664 0.930 . S
H1655 C1667 0.929 . S
H1656 C1670 0.930 . S
H1657 C1672 0.960 . S
H1658 C1672 0.960 . S
H1659 C1672 0.960 . S
C1660 H1652 0.929 . S
C1660 C1661 1.377 . S
C1660 C1662 1.384 . S
C1661 C1660 1.377 . S
C1661 C1667 1.390 . S
C1662 H1653 0.930 . S
C1662 C1660 1.384 . S
C1662 C1663 1.372 . S
C1663 C1662 1.372 . S
C1663 C1664 1.400 . S
C1663 C1668 1.490 . S
C1664 H1654 0.930 . S
C1664 C1663 1.400 . S
C1664 C1667 1.386 . S
H1665 C1681 0.930 . S
H1666 C1682 0.931 . S
C1667 H1655 0.929 . S
C1667 C1661 1.390 . S
C1667 C1664 1.386 . S
C1668 C1663 1.490 . S
C1668 C1670 1.395 . S
C1668 C1671 1.403 . S
H1669 C1675 0.930 . S
C1670 H1656 0.930 . S
C1670 C1668 1.395 . S
C1670 C1673 1.403 . S
C1671 C1668 1.403 . S
C1671 C1672 1.524 . S
C1671 C1675 1.400 . S
C1672 H1657 0.960 . S
C1672 H1658 0.960 . S
C1672 H1659 0.960 . S
C1672 C1671 1.524 . S
C1673 C1670 1.403 . S
C1673 C1674 1.392 . S
C1673 C1677 1.495 . S
C1674 C1673 1.392 . S
C1674 C1675 1.385 . S
C1674 C1676 1.478 . S
C1675 H1669 0.930 . S
C1675 C1671 1.400 . S
C1675 C1674 1.385 . S
C1676 C1674 1.478 . S
C1676 C1678 1.381 . S
C1676 C1682 1.383 . S
C1677 C1673 1.495 . S
C1677 H1683 0.959 . S
C1677 H1684 0.961 . S
C1677 H1685 0.960 . S
C1678 C1676 1.381 . S
C1678 C1679 1.394 . S
C1678 H1686 0.930 . S
C1679 C1678 1.394 . S
C1679 C1680 1.383 . S
C1679 H1687 0.929 . S
C1680 C1679 1.383 . S
C1680 C1681 1.377 . S
C1681 H1665 0.930 . S
C1681 C1680 1.377 . S
C1681 C1682 1.379 . S
C1682 H1666 0.931 . S
C1682 C1676 1.383 . S
C1682 C1681 1.379 . S
H1683 C1677 0.959 . S
H1684 C1677 0.961 . S
H1685 C1677 0.960 . S
H1686 C1678 0.930 . S
H1687 C1679 0.929 . S
H1688 C1696 0.929 . S
H1689 C1698 0.930 . S
H1690 C1700 0.930 . S
H1691 C1703 0.929 . S
H1692 C1706 0.930 . S
H1693 C1708 0.960 . S
H1694 C1708 0.960 . S
H1695 C1708 0.960 . S
C1696 H1688 0.929 . S
C1696 C1697 1.377 . S
C1696 C1698 1.384 . S
C1697 C1696 1.377 . S
C1697 C1703 1.390 . S
C1698 H1689 0.930 . S
C1698 C1696 1.384 . S
C1698 C1699 1.372 . S
C1699 C1698 1.372 . S
C1699 C1700 1.400 . S
C1699 C1704 1.490 . S
C1700 H1690 0.930 . S
C1700 C1699 1.400 . S
C1700 C1703 1.386 . S
H1701 C1717 0.930 . S
H1702 C1718 0.931 . S
C1703 H1691 0.929 . S
C1703 C1697 1.390 . S
C1703 C1700 1.386 . S
C1704 C1699 1.490 . S
C1704 C1706 1.395 . S
C1704 C1707 1.403 . S
H1705 C1711 0.930 . S
C1706 H1692 0.930 . S
C1706 C1704 1.395 . S
C1706 C1709 1.403 . S
C1707 C1704 1.403 . S
C1707 C1708 1.524 . S
C1707 C1711 1.400 . S
C1708 H1693 0.960 . S
C1708 H1694 0.960 . S
C1708 H1695 0.960 . S
C1708 C1707 1.524 . S
C1709 C1706 1.403 . S
C1709 C1710 1.392 . S
C1709 C1713 1.495 . S
C1710 C1709 1.392 . S
C1710 C1711 1.385 . S
C1710 C1712 1.478 . S
C1711 H1705 0.930 . S
C1711 C1707 1.400 . S
C1711 C1710 1.385 . S
C1712 C1710 1.478 . S
C1712 C1714 1.381 . S
C1712 C1718 1.383 . S
C1713 C1709 1.495 . S
C1713 H1719 0.959 . S
C1713 H1720 0.961 . S
C1713 H1721 0.960 . S
C1714 C1712 1.381 . S
C1714 C1715 1.394 . S
C1714 H1722 0.930 . S
C1715 C1714 1.394 . S
C1715 C1716 1.383 . S
C1715 H1723 0.929 . S
C1716 C1715 1.383 . S
C1716 C1717 1.377 . S
C1717 H1701 0.930 . S
C1717 C1716 1.377 . S
C1717 C1718 1.379 . S
C1718 H1702 0.931 . S
C1718 C1712 1.383 . S
C1718 C1717 1.379 . S
H1719 C1713 0.959 . S
H1720 C1713 0.961 . S
H1721 C1713 0.960 . S
H1722 C1714 0.930 . S
H1723 C1715 0.929 . S
H1724 C1732 0.929 . S
H1725 C1734 0.930 . S
H1726 C1736 0.930 . S
H1727 C1739 0.929 . S
H1728 C1742 0.930 . S
H1729 C1744 0.960 . S
H1730 C1744 0.960 . S
H1731 C1744 0.960 . S
C1732 H1724 0.929 . S
C1732 C1733 1.377 . S
C1732 C1734 1.384 . S
C1733 C1732 1.377 . S
C1733 C1739 1.390 . S
C1734 H1725 0.930 . S
C1734 C1732 1.384 . S
C1734 C1735 1.372 . S
C1735 C1734 1.372 . S
C1735 C1736 1.400 . S
C1735 C1740 1.490 . S
C1736 H1726 0.930 . S
C1736 C1735 1.400 . S
C1736 C1739 1.386 . S
H1737 C1753 0.930 . S
H1738 C1754 0.931 . S
C1739 H1727 0.929 . S
C1739 C1733 1.390 . S
C1739 C1736 1.386 . S
C1740 C1735 1.490 . S
C1740 C1742 1.395 . S
C1740 C1743 1.403 . S
H1741 C1747 0.930 . S
C1742 H1728 0.930 . S
C1742 C1740 1.395 . S
C1742 C1745 1.403 . S
C1743 C1740 1.403 . S
C1743 C1744 1.524 . S
C1743 C1747 1.400 . S
C1744 H1729 0.960 . S
C1744 H1730 0.960 . S
C1744 H1731 0.960 . S
C1744 C1743 1.524 . S
C1745 C1742 1.403 . S
C1745 C1746 1.392 . S
C1745 C1749 1.495 . S
C1746 C1745 1.392 . S
C1746 C1747 1.385 . S
C1746 C1748 1.478 . S
C1747 H1741 0.930 . S
C1747 C1743 1.400 . S
C1747 C1746 1.385 . S
C1748 C1746 1.478 . S
C1748 C1750 1.381 . S
C1748 C1754 1.383 . S
C1749 C1745 1.495 . S
C1749 H1755 0.959 . S
C1749 H1756 0.961 . S
C1749 H1757 0.960 . S
C1750 C1748 1.381 . S
C1750 C1751 1.394 . S
C1750 H1758 0.930 . S
C1751 C1750 1.394 . S
C1751 C1752 1.383 . S
C1751 H1759 0.929 . S
C1752 C1751 1.383 . S
C1752 C1753 1.377 . S
C1753 H1737 0.930 . S
C1753 C1752 1.377 . S
C1753 C1754 1.379 . S
C1754 H1738 0.931 . S
C1754 C1748 1.383 . S
C1754 C1753 1.379 . S
H1755 C1749 0.959 . S
H1756 C1749 0.961 . S
H1757 C1749 0.960 . S
H1758 C1750 0.930 . S
H1759 C1751 0.929 . S
H1760 C1768 0.929 . S
H1761 C1770 0.930 . S
H1762 C1772 0.930 . S
H1763 C1775 0.929 . S
H1764 C1778 0.930 . S
H1765 C1780 0.960 . S
H1766 C1780 0.960 . S
H1767 C1780 0.960 . S
C1768 H1760 0.929 . S
C1768 C1769 1.377 . S
C1768 C1770 1.384 . S
C1769 C1768 1.377 . S
C1769 C1775 1.390 . S
C1770 H1761 0.930 . S
C1770 C1768 1.384 . S
C1770 C1771 1.372 . S
C1771 C1770 1.372 . S
C1771 C1772 1.400 . S
C1771 C1776 1.490 . S
C1772 H1762 0.930 . S
C1772 C1771 1.400 . S
C1772 C1775 1.386 . S
H1773 C1789 0.930 . S
H1774 C1790 0.931 . S
C1775 H1763 0.929 . S
C1775 C1769 1.390 . S
C1775 C1772 1.386 . S
C1776 C1771 1.490 . S
C1776 C1778 1.395 . S
C1776 C1779 1.403 . S
H1777 C1783 0.930 . S
C1778 H1764 0.930 . S
C1778 C1776 1.395 . S
C1778 C1781 1.403 . S
C1779 C1776 1.403 . S
C1779 C1780 1.524 . S
C1779 C1783 1.400 . S
C1780 H1765 0.960 . S
C1780 H1766 0.960 . S
C1780 H1767 0.960 . S
C1780 C1779 1.524 . S
C1781 C1778 1.403 . S
C1781 C1782 1.392 . S
C1781 C1785 1.495 . S
C1782 C1781 1.392 . S
C1782 C1783 1.385 . S
C1782 C1784 1.478 . S
C1783 H1777 0.930 . S
C1783 C1779 1.400 . S
C1783 C1782 1.385 . S
C1784 C1782 1.478 . S
C1784 C1786 1.381 . S
C1784 C1790 1.383 . S
C1785 C1781 1.495 . S
C1785 H1791 0.959 . S
C1785 H1792 0.961 . S
C1785 H1793 0.960 . S
C1786 C1784 1.381 . S
C1786 C1787 1.394 . S
C1786 H1794 0.930 . S
C1787 C1786 1.394 . S
C1787 C1788 1.383 . S
C1787 H1795 0.929 . S
C1788 C1787 1.383 . S
C1788 C1789 1.377 . S
C1789 H1773 0.930 . S
C1789 C1788 1.377 . S
C1789 C1790 1.379 . S
C1790 H1774 0.931 . S
C1790 C1784 1.383 . S
C1790 C1789 1.379 . S
H1791 C1785 0.959 . S
H1792 C1785 0.961 . S
H1793 C1785 0.960 . S
H1794 C1786 0.930 . S
H1795 C1787 0.929 . S
H1796 C1804 0.929 . S
H1797 C1806 0.930 . S
H1798 C1808 0.930 . S
H1799 C1811 0.929 . S
H1800 C1814 0.930 . S
H1801 C1816 0.960 . S
H1802 C1816 0.960 . S
H1803 C1816 0.960 . S
C1804 H1796 0.929 . S
C1804 C1805 1.377 . S
C1804 C1806 1.384 . S
C1805 C1804 1.377 . S
C1805 C1811 1.390 . S
C1806 H1797 0.930 . S
C1806 C1804 1.384 . S
C1806 C1807 1.372 . S
C1807 C1806 1.372 . S
C1807 C1808 1.400 . S
C1807 C1812 1.490 . S
C1808 H1798 0.930 . S
C1808 C1807 1.400 . S
C1808 C1811 1.386 . S
H1809 C1825 0.930 . S
H1810 C1826 0.931 . S
C1811 H1799 0.929 . S
C1811 C1805 1.390 . S
C1811 C1808 1.386 . S
C1812 C1807 1.490 . S
C1812 C1814 1.395 . S
C1812 C1815 1.403 . S
H1813 C1819 0.930 . S
C1814 H1800 0.930 . S
C1814 C1812 1.395 . S
C1814 C1817 1.403 . S
C1815 C1812 1.403 . S
C1815 C1816 1.524 . S
C1815 C1819 1.400 . S
C1816 H1801 0.960 . S
C1816 H1802 0.960 . S
C1816 H1803 0.960 . S
C1816 C1815 1.524 . S
C1817 C1814 1.403 . S
C1817 C1818 1.392 . S
C1817 C1821 1.495 . S
C1818 C1817 1.392 . S
C1818 C1819 1.385 . S
C1818 C1820 1.478 . S
C1819 H1813 0.930 . S
C1819 C1815 1.400 . S
C1819 C1818 1.385 . S
C1820 C1818 1.478 . S
C1820 C1822 1.381 . S
C1820 C1826 1.383 . S
C1821 C1817 1.495 . S
C1821 H1827 0.959 . S
C1821 H1828 0.961 . S
C1821 H1829 0.960 . S
C1822 C1820 1.381 . S
C1822 C1823 1.394 . S
C1822 H1830 0.930 . S
C1823 C1822 1.394 . S
C1823 C1824 1.383 . S
C1823 H1831 0.929 . S
C1824 C1823 1.383 . S
C1824 C1825 1.377 . S
C1825 H1809 0.930 . S
C1825 C1824 1.377 . S
C1825 C1826 1.379 . S
C1826 H1810 0.931 . S
C1826 C1820 1.383 . S
C1826 C1825 1.379 . S
H1827 C1821 0.959 . S
H1828 C1821 0.961 . S
H1829 C1821 0.960 . S
H1830 C1822 0.930 . S
H1831 C1823 0.929 . S
H1832 C1840 0.929 . S
H1833 C1842 0.930 . S
H1834 C1844 0.930 . S
H1835 C1847 0.929 . S
H1836 C1850 0.930 . S
H1837 C1852 0.960 . S
H1838 C1852 0.960 . S
H1839 C1852 0.960 . S
C1840 H1832 0.929 . S
C1840 C1841 1.377 . S
C1840 C1842 1.384 . S
C1841 C1840 1.377 . S
C1841 C1847 1.390 . S
C1842 H1833 0.930 . S
C1842 C1840 1.384 . S
C1842 C1843 1.372 . S
C1843 C1842 1.372 . S
C1843 C1844 1.400 . S
C1843 C1848 1.490 . S
C1844 H1834 0.930 . S
C1844 C1843 1.400 . S
C1844 C1847 1.386 . S
H1845 C1861 0.930 . S
H1846 C1862 0.931 . S
C1847 H1835 0.929 . S
C1847 C1841 1.390 . S
C1847 C1844 1.386 . S
C1848 C1843 1.490 . S
C1848 C1850 1.395 . S
C1848 C1851 1.403 . S
H1849 C1855 0.930 . S
C1850 H1836 0.930 . S
C1850 C1848 1.395 . S
C1850 C1853 1.403 . S
C1851 C1848 1.403 . S
C1851 C1852 1.524 . S
C1851 C1855 1.400 . S
C1852 H1837 0.960 . S
C1852 H1838 0.960 . S
C1852 H1839 0.960 . S
C1852 C1851 1.524 . S
C1853 C1850 1.403 . S
C1853 C1854 1.392 . S
C1853 C1857 1.495 . S
C1854 C1853 1.392 . S
C1854 C1855 1.385 . S
C1854 C1856 1.478 . S
C1855 H1849 0.930 . S
C1855 C1851 1.400 . S
C1855 C1854 1.385 . S
C1856 C1854 1.478 . S
C1856 C1858 1.381 . S
C1856 C1862 1.383 . S
C1857 C1853 1.495 . S
C1857 H1863 0.959 . S
C1857 H1864 0.961 . S
C1857 H1865 0.960 . S
C1858 C1856 1.381 . S
C1858 C1859 1.394 . S
C1858 H1866 0.930 . S
C1859 C1858 1.394 . S
C1859 C1860 1.383 . S
C1859 H1867 0.929 . S
C1860 C1859 1.383 . S
C1860 C1861 1.377 . S
C1861 H1845 0.930 . S
C1861 C1860 1.377 . S
C1861 C1862 1.379 . S
C1862 H1846 0.931 . S
C1862 C1856 1.383 . S
C1862 C1861 1.379 . S
H1863 C1857 0.959 . S
H1864 C1857 0.961 . S
H1865 C1857 0.960 . S
H1866 C1858 0.930 . S
H1867 C1859 0.929 . S
H1868 C1876 0.929 . S
H1869 C1878 0.930 . S
H1870 C1880 0.930 . S
H1871 C1883 0.929 . S
H1872 C1886 0.930 . S
H1873 C1888 0.960 . S
H1874 C1888 0.960 . S
H1875 C1888 0.960 . S
C1876 H1868 0.929 . S
C1876 C1877 1.377 . S
C1876 C1878 1.384 . S
C1877 C1876 1.377 . S
C1877 C1883 1.390 . S
C1878 H1869 0.930 . S
C1878 C1876 1.384 . S
C1878 C1879 1.372 . S
C1879 C1878 1.372 . S
C1879 C1880 1.400 . S
C1879 C1884 1.490 . S
C1880 H1870 0.930 . S
C1880 C1879 1.400 . S
C1880 C1883 1.386 . S
H1881 C1897 0.930 . S
H1882 C1898 0.931 . S
C1883 H1871 0.929 . S
C1883 C1877 1.390 . S
C1883 C1880 1.386 . S
C1884 C1879 1.490 . S
C1884 C1886 1.395 . S
C1884 C1887 1.403 . S
H1885 C1891 0.930 . S
C1886 H1872 0.930 . S
C1886 C1884 1.395 . S
C1886 C1889 1.403 . S
C1887 C1884 1.403 . S
C1887 C1888 1.524 . S
C1887 C1891 1.400 . S
C1888 H1873 0.960 . S
C1888 H1874 0.960 . S
C1888 H1875 0.960 . S
C1888 C1887 1.524 . S
C1889 C1886 1.403 . S
C1889 C1890 1.392 . S
C1889 C1893 1.495 . S
C1890 C1889 1.392 . S
C1890 C1891 1.385 . S
C1890 C1892 1.478 . S
C1891 H1885 0.930 . S
C1891 C1887 1.400 . S
C1891 C1890 1.385 . S
C1892 C1890 1.478 . S
C1892 C1894 1.381 . S
C1892 C1898 1.383 . S
C1893 C1889 1.495 . S
C1893 H1899 0.959 . S
C1893 H1900 0.961 . S
C1893 H1901 0.960 . S
C1894 C1892 1.381 . S
C1894 C1895 1.394 . S
C1894 H1902 0.930 . S
C1895 C1894 1.394 . S
C1895 C1896 1.383 . S
C1895 H1903 0.929 . S
C1896 C1895 1.383 . S
C1896 C1897 1.377 . S
C1897 H1881 0.930 . S
C1897 C1896 1.377 . S
C1897 C1898 1.379 . S
C1898 H1882 0.931 . S
C1898 C1892 1.383 . S
C1898 C1897 1.379 . S
H1899 C1893 0.959 . S
H1900 C1893 0.961 . S
H1901 C1893 0.960 . S
H1902 C1894 0.930 . S
H1903 C1895 0.929 . S
H1904 C1912 0.929 . S
H1905 C1914 0.930 . S
H1906 C1916 0.930 . S
H1907 C1919 0.929 . S
H1908 C1922 0.930 . S
H1909 C1924 0.960 . S
H1910 C1924 0.960 . S
H1911 C1924 0.960 . S
C1912 H1904 0.929 . S
C1912 C1913 1.377 . S
C1912 C1914 1.384 . S
C1913 C1912 1.377 . S
C1913 C1919 1.390 . S
C1914 H1905 0.930 . S
C1914 C1912 1.384 . S
C1914 C1915 1.372 . S
C1915 C1914 1.372 . S
C1915 C1916 1.400 . S
C1915 C1920 1.490 . S
C1916 H1906 0.930 . S
C1916 C1915 1.400 . S
C1916 C1919 1.386 . S
H1917 C1933 0.930 . S
H1918 C1934 0.931 . S
C1919 H1907 0.929 . S
C1919 C1913 1.390 . S
C1919 C1916 1.386 . S
C1920 C1915 1.490 . S
C1920 C1922 1.395 . S
C1920 C1923 1.403 . S
H1921 C1927 0.930 . S
C1922 H1908 0.930 . S
C1922 C1920 1.395 . S
C1922 C1925 1.403 . S
C1923 C1920 1.403 . S
C1923 C1924 1.524 . S
C1923 C1927 1.400 . S
C1924 H1909 0.960 . S
C1924 H1910 0.960 . S
C1924 H1911 0.960 . S
C1924 C1923 1.524 . S
C1925 C1922 1.403 . S
C1925 C1926 1.392 . S
C1925 C1929 1.495 . S
C1926 C1925 1.392 . S
C1926 C1927 1.385 . S
C1926 C1928 1.478 . S
C1927 H1921 0.930 . S
C1927 C1923 1.400 . S
C1927 C1926 1.385 . S
C1928 C1926 1.478 . S
C1928 C1930 1.381 . S
C1928 C1934 1.383 . S
C1929 C1925 1.495 . S
C1929 H1935 0.959 . S
C1929 H1936 0.961 . S
C1929 H1937 0.960 . S
C1930 C1928 1.381 . S
C1930 C1931 1.394 . S
C1930 H1938 0.930 . S
C1931 C1930 1.394 . S
C1931 C1932 1.383 . S
C1931 H1939 0.929 . S
C1932 C1931 1.383 . S
C1932 C1933 1.377 . S
C1933 H1917 0.930 . S
C1933 C1932 1.377 . S
C1933 C1934 1.379 . S
C1934 H1918 0.931 . S
C1934 C1928 1.383 . S
C1934 C1933 1.379 . S
H1935 C1929 0.959 . S
H1936 C1929 0.961 . S
H1937 C1929 0.960 . S
H1938 C1930 0.930 . S
H1939 C1931 0.929 . S
H1940 C1948 0.929 . S
H1941 C1950 0.930 . S
H1942 C1952 0.930 . S
H1943 C1955 0.929 . S
H1944 C1958 0.930 . S
H1945 C1960 0.960 . S
H1946 C1960 0.960 . S
H1947 C1960 0.960 . S
C1948 H1940 0.929 . S
C1948 C1949 1.377 . S
C1948 C1950 1.384 . S
C1949 C1948 1.377 . S
C1949 C1955 1.390 . S
C1950 H1941 0.930 . S
C1950 C1948 1.384 . S
C1950 C1951 1.372 . S
C1951 C1950 1.372 . S
C1951 C1952 1.400 . S
C1951 C1956 1.490 . S
C1952 H1942 0.930 . S
C1952 C1951 1.400 . S
C1952 C1955 1.386 . S
H1953 C1969 0.930 . S
H1954 C1970 0.931 . S
C1955 H1943 0.929 . S
C1955 C1949 1.390 . S
C1955 C1952 1.386 . S
C1956 C1951 1.490 . S
C1956 C1958 1.395 . S
C1956 C1959 1.403 . S
H1957 C1963 0.930 . S
C1958 H1944 0.930 . S
C1958 C1956 1.395 . S
C1958 C1961 1.403 . S
C1959 C1956 1.403 . S
C1959 C1960 1.524 . S
C1959 C1963 1.400 . S
C1960 H1945 0.960 . S
C1960 H1946 0.960 . S
C1960 H1947 0.960 . S
C1960 C1959 1.524 . S
C1961 C1958 1.403 . S
C1961 C1962 1.392 . S
C1961 C1965 1.495 . S
C1962 C1961 1.392 . S
C1962 C1963 1.385 . S
C1962 C1964 1.478 . S
C1963 H1957 0.930 . S
C1963 C1959 1.400 . S
C1963 C1962 1.385 . S
C1964 C1962 1.478 . S
C1964 C1966 1.381 . S
C1964 C1970 1.383 . S
C1965 C1961 1.495 . S
C1965 H1971 0.959 . S
C1965 H1972 0.961 . S
C1965 H1973 0.960 . S
C1966 C1964 1.381 . S
C1966 C1967 1.394 . S
C1966 H1974 0.930 . S
C1967 C1966 1.394 . S
C1967 C1968 1.383 . S
C1967 H1975 0.929 . S
C1968 C1967 1.383 . S
C1968 C1969 1.377 . S
C1969 H1953 0.930 . S
C1969 C1968 1.377 . S
C1969 C1970 1.379 . S
C1970 H1954 0.931 . S
C1970 C1964 1.383 . S
C1970 C1969 1.379 . S
H1971 C1965 0.959 . S
H1972 C1965 0.961 . S
H1973 C1965 0.960 . S
H1974 C1966 0.930 . S
H1975 C1967 0.929 . S
H1976 C1984 0.929 . S
H1977 C1986 0.930 . S
H1978 C1988 0.930 . S
H1979 C1991 0.929 . S
H1980 C1994 0.930 . S
H1981 C1996 0.960 . S
H1982 C1996 0.960 . S
H1983 C1996 0.960 . S
C1984 H1976 0.929 . S
C1984 C1985 1.377 . S
C1984 C1986 1.384 . S
C1985 C1984 1.377 . S
C1985 C1991 1.390 . S
C1986 H1977 0.930 . S
C1986 C1984 1.384 . S
C1986 C1987 1.372 . S
C1987 C1986 1.372 . S
C1987 C1988 1.400 . S
C1987 C1992 1.490 . S
C1988 H1978 0.930 . S
C1988 C1987 1.400 . S
C1988 C1991 1.386 . S
H1989 C2005 0.930 . S
H1990 C2006 0.931 . S
C1991 H1979 0.929 . S
C1991 C1985 1.390 . S
C1991 C1988 1.386 . S
C1992 C1987 1.490 . S
C1992 C1994 1.395 . S
C1992 C1995 1.403 . S
H1993 C1999 0.930 . S
C1994 H1980 0.930 . S
C1994 C1992 1.395 . S
C1994 C1997 1.403 . S
C1995 C1992 1.403 . S
C1995 C1996 1.524 . S
C1995 C1999 1.400 . S
C1996 H1981 0.960 . S
C1996 H1982 0.960 . S
C1996 H1983 0.960 . S
C1996 C1995 1.524 . S
C1997 C1994 1.403 . S
C1997 C1998 1.392 . S
C1997 C2001 1.495 . S
C1998 C1997 1.392 . S
C1998 C1999 1.385 . S
C1998 C2000 1.478 . S
C1999 H1993 0.930 . S
C1999 C1995 1.400 . S
C1999 C1998 1.385 . S
C2000 C1998 1.478 . S
C2000 C2002 1.381 . S
C2000 C2006 1.383 . S
C2001 C1997 1.495 . S
C2001 H2007 0.959 . S
C2001 H2008 0.961 . S
C2001 H2009 0.960 . S
C2002 C2000 1.381 . S
C2002 C2003 1.394 . S
C2002 H2010 0.930 . S
C2003 C2002 1.394 . S
C2003 C2004 1.383 . S
C2003 H2011 0.929 . S
C2004 C2003 1.383 . S
C2004 C2005 1.377 . S
C2005 H1989 0.930 . S
C2005 C2004 1.377 . S
C2005 C2006 1.379 . S
C2006 H1990 0.931 . S
C2006 C2000 1.383 . S
C2006 C2005 1.379 . S
H2007 C2001 0.959 . S
H2008 C2001 0.961 . S
H2009 C2001 0.960 . S
H2010 C2002 0.930 . S
H2011 C2003 0.929 . S
H2012 C2020 0.929 . S
H2013 C2022 0.930 . S
H2014 C2024 0.930 . S
H2015 C2027 0.929 . S
H2016 C2030 0.930 . S
H2017 C2032 0.960 . S
H2018 C2032 0.960 . S
H2019 C2032 0.960 . S
C2020 H2012 0.929 . S
C2020 C2021 1.377 . S
C2020 C2022 1.384 . S
C2021 C2020 1.377 . S
C2021 C2027 1.390 . S
C2022 H2013 0.930 . S
C2022 C2020 1.384 . S
C2022 C2023 1.372 . S
C2023 C2022 1.372 . S
C2023 C2024 1.400 . S
C2023 C2028 1.490 . S
C2024 H2014 0.930 . S
C2024 C2023 1.400 . S
C2024 C2027 1.386 . S
H2025 C2041 0.930 . S
H2026 C2042 0.931 . S
C2027 H2015 0.929 . S
C2027 C2021 1.390 . S
C2027 C2024 1.386 . S
C2028 C2023 1.490 . S
C2028 C2030 1.395 . S
C2028 C2031 1.403 . S
H2029 C2035 0.930 . S
C2030 H2016 0.930 . S
C2030 C2028 1.395 . S
C2030 C2033 1.403 . S
C2031 C2028 1.403 . S
C2031 C2032 1.524 . S
C2031 C2035 1.400 . S
C2032 H2017 0.960 . S
C2032 H2018 0.960 . S
C2032 H2019 0.960 . S
C2032 C2031 1.524 . S
C2033 C2030 1.403 . S
C2033 C2034 1.392 . S
C2033 C2037 1.495 . S
C2034 C2033 1.392 . S
C2034 C2035 1.385 . S
C2034 C2036 1.478 . S
C2035 H2029 0.930 . S
C2035 C2031 1.400 . S
C2035 C2034 1.385 . S
C2036 C2034 1.478 . S
C2036 C2038 1.381 . S
C2036 C2042 1.383 . S
C2037 C2033 1.495 . S
C2037 H2043 0.959 . S
C2037 H2044 0.961 . S
C2037 H2045 0.960 . S
C2038 C2036 1.381 . S
C2038 C2039 1.394 . S
C2038 H2046 0.930 . S
C2039 C2038 1.394 . S
C2039 C2040 1.383 . S
C2039 H2047 0.929 . S
C2040 C2039 1.383 . S
C2040 C2041 1.377 . S
C2041 H2025 0.930 . S
C2041 C2040 1.377 . S
C2041 C2042 1.379 . S
C2042 H2026 0.931 . S
C2042 C2036 1.383 . S
C2042 C2041 1.379 . S
H2043 C2037 0.959 . S
H2044 C2037 0.961 . S
H2045 C2037 0.960 . S
H2046 C2038 0.930 . S
H2047 C2039 0.929 . S
H2048 C2056 0.929 . S
H2049 C2058 0.930 . S
H2050 C2060 0.930 . S
H2051 C2063 0.929 . S
H2052 C2066 0.930 . S
H2053 C2068 0.960 . S
H2054 C2068 0.960 . S
H2055 C2068 0.960 . S
C2056 H2048 0.929 . S
C2056 C2057 1.377 . S
C2056 C2058 1.384 . S
C2057 C2056 1.377 . S
C2057 C2063 1.390 . S
C2058 H2049 0.930 . S
C2058 C2056 1.384 . S
C2058 C2059 1.372 . S
C2059 C2058 1.372 . S
C2059 C2060 1.400 . S
C2059 C2064 1.490 . S
C2060 H2050 0.930 . S
C2060 C2059 1.400 . S
C2060 C2063 1.386 . S
H2061 C2077 0.930 . S
H2062 C2078 0.931 . S
C2063 H2051 0.929 . S
C2063 C2057 1.390 . S
C2063 C2060 1.386 . S
C2064 C2059 1.490 . S
C2064 C2066 1.395 . S
C2064 C2067 1.403 . S
H2065 C2071 0.930 . S
C2066 H2052 0.930 . S
C2066 C2064 1.395 . S
C2066 C2069 1.403 . S
C2067 C2064 1.403 . S
C2067 C2068 1.524 . S
C2067 C2071 1.400 . S
C2068 H2053 0.960 . S
C2068 H2054 0.960 . S
C2068 H2055 0.960 . S
C2068 C2067 1.524 . S
C2069 C2066 1.403 . S
C2069 C2070 1.392 . S
C2069 C2073 1.495 . S
C2070 C2069 1.392 . S
C2070 C2071 1.385 . S
C2070 C2072 1.478 . S
C2071 H2065 0.930 . S
C2071 C2067 1.400 . S
C2071 C2070 1.385 . S
C2072 C2070 1.478 . S
C2072 C2074 1.381 . S
C2072 C2078 1.383 . S
C2073 C2069 1.495 . S
C2073 H2079 0.959 . S
C2073 H2080 0.961 . S
C2073 H2081 0.960 . S
C2074 C2072 1.381 . S
C2074 C2075 1.394 . S
C2074 H2082 0.930 . S
C2075 C2074 1.394 . S
C2075 C2076 1.383 . S
C2075 H2083 0.929 . S
C2076 C2075 1.383 . S
C2076 C2077 1.377 . S
C2077 H2061 0.930 . S
C2077 C2076 1.377 . S
C2077 C2078 1.379 . S
C2078 H2062 0.931 . S
C2078 C2072 1.383 . S
C2078 C2077 1.379 . S
H2079 C2073 0.959 . S
H2080 C2073 0.961 . S
H2081 C2073 0.960 . S
H2082 C2074 0.930 . S
H2083 C2075 0.929 . S
H2084 C2092 0.929 . S
H2085 C2094 0.930 . S
H2086 C2096 0.930 . S
H2087 C2099 0.929 . S
H2088 C2102 0.930 . S
H2089 C2104 0.960 . S
H2090 C2104 0.960 . S
H2091 C2104 0.960 . S
C2092 H2084 0.929 . S
C2092 C2093 1.377 . S
C2092 C2094 1.384 . S
C2093 C2092 1.377 . S
C2093 C2099 1.390 . S
C2094 H2085 0.930 . S
C2094 C2092 1.384 . S
C2094 C2095 1.372 . S
C2095 C2094 1.372 . S
C2095 C2096 1.400 . S
C2095 C2100 1.490 . S
C2096 H2086 0.930 . S
C2096 C2095 1.400 . S
C2096 C2099 1.386 . S
H2097 C2113 0.930 . S
H2098 C2114 0.931 . S
C2099 H2087 0.929 . S
C2099 C2093 1.390 . S
C2099 C2096 1.386 . S
C2100 C2095 1.490 . S
C2100 C2102 1.395 . S
C2100 C2103 1.403 . S
H2101 C2107 0.930 . S
C2102 H2088 0.930 . S
C2102 C2100 1.395 . S
C2102 C2105 1.403 . S
C2103 C2100 1.403 . S
C2103 C2104 1.524 . S
C2103 C2107 1.400 . S
C2104 H2089 0.960 . S
C2104 H2090 0.960 . S
C2104 H2091 0.960 . S
C2104 C2103 1.524 . S
C2105 C2102 1.403 . S
C2105 C2106 1.392 . S
C2105 C2109 1.495 . S
C2106 C2105 1.392 . S
C2106 C2107 1.385 . S
C2106 C2108 1.478 . S
C2107 H2101 0.930 . S
C2107 C2103 1.400 . S
C2107 C2106 1.385 . S
C2108 C2106 1.478 . S
C2108 C2110 1.381 . S
C2108 C2114 1.383 . S
C2109 C2105 1.495 . S
C2109 H2115 0.959 . S
C2109 H2116 0.961 . S
C2109 H2117 0.960 . S
C2110 C2108 1.381 . S
C2110 C2111 1.394 . S
C2110 H2118 0.930 . S
C2111 C2110 1.394 . S
C2111 C2112 1.383 . S
C2111 H2119 0.929 . S
C2112 C2111 1.383 . S
C2112 C2113 1.377 . S
C2113 H2097 0.930 . S
C2113 C2112 1.377 . S
C2113 C2114 1.379 . S
C2114 H2098 0.931 . S
C2114 C2108 1.383 . S
C2114 C2113 1.379 . S
H2115 C2109 0.959 . S
H2116 C2109 0.961 . S
H2117 C2109 0.960 . S
H2118 C2110 0.930 . S
H2119 C2111 0.929 . S
H2120 C2128 0.929 . S
H2121 C2130 0.930 . S
H2122 C2132 0.930 . S
H2123 C2135 0.929 . S
H2124 C2138 0.930 . S
H2125 C2140 0.960 . S
H2126 C2140 0.960 . S
H2127 C2140 0.960 . S
C2128 H2120 0.929 . S
C2128 C2129 1.377 . S
C2128 C2130 1.384 . S
C2129 C2128 1.377 . S
C2129 C2135 1.390 . S
C2130 H2121 0.930 . S
C2130 C2128 1.384 . S
C2130 C2131 1.372 . S
C2131 C2130 1.372 . S
C2131 C2132 1.400 . S
C2131 C2136 1.490 . S
C2132 H2122 0.930 . S
C2132 C2131 1.400 . S
C2132 C2135 1.386 . S
H2133 C2149 0.930 . S
H2134 C2150 0.931 . S
C2135 H2123 0.929 . S
C2135 C2129 1.390 . S
C2135 C2132 1.386 . S
C2136 C2131 1.490 . S
C2136 C2138 1.395 . S
C2136 C2139 1.403 . S
H2137 C2143 0.930 . S
C2138 H2124 0.930 . S
C2138 C2136 1.395 . S
C2138 C2141 1.403 . S
C2139 C2136 1.403 . S
C2139 C2140 1.524 . S
C2139 C2143 1.400 . S
C2140 H2125 0.960 . S
C2140 H2126 0.960 . S
C2140 H2127 0.960 . S
C2140 C2139 1.524 . S
C2141 C2138 1.403 . S
C2141 C2142 1.392 . S
C2141 C2145 1.495 . S
C2142 C2141 1.392 . S
C2142 C2143 1.385 . S
C2142 C2144 1.478 . S
C2143 H2137 0.930 . S
C2143 C2139 1.400 . S
C2143 C2142 1.385 . S
C2144 C2142 1.478 . S
C2144 C2146 1.381 . S
C2144 C2150 1.383 . S
C2145 C2141 1.495 . S
C2145 H2151 0.959 . S
C2145 H2152 0.961 . S
C2145 H2153 0.960 . S
C2146 C2144 1.381 . S
C2146 C2147 1.394 . S
C2146 H2154 0.930 . S
C2147 C2146 1.394 . S
C2147 C2148 1.383 . S
C2147 H2155 0.929 . S
C2148 C2147 1.383 . S
C2148 C2149 1.377 . S
C2149 H2133 0.930 . S
C2149 C2148 1.377 . S
C2149 C2150 1.379 . S
C2150 H2134 0.931 . S
C2150 C2144 1.383 . S
C2150 C2149 1.379 . S
H2151 C2145 0.959 . S
H2152 C2145 0.961 . S
H2153 C2145 0.960 . S
H2154 C2146 0.930 . S
H2155 C2147 0.929 . S
H2156 C2164 0.929 . S
H2157 C2166 0.930 . S
H2158 C2168 0.930 . S
H2159 C2171 0.929 . S
H2160 C2174 0.930 . S
H2161 C2176 0.960 . S
H2162 C2176 0.960 . S
H2163 C2176 0.960 . S
C2164 H2156 0.929 . S
C2164 C2165 1.377 . S
C2164 C2166 1.384 . S
C2165 C2164 1.377 . S
C2165 C2171 1.390 . S
C2166 H2157 0.930 . S
C2166 C2164 1.384 . S
C2166 C2167 1.372 . S
C2167 C2166 1.372 . S
C2167 C2168 1.400 . S
C2167 C2172 1.490 . S
C2168 H2158 0.930 . S
C2168 C2167 1.400 . S
C2168 C2171 1.386 . S
H2169 C2185 0.930 1_455 S
H2170 C2186 0.931 . S
C2171 H2159 0.929 . S
C2171 C2165 1.390 . S
C2171 C2168 1.386 . S
C2172 C2167 1.490 . S
C2172 C2174 1.395 . S
C2172 C2175 1.403 . S
H2173 C2179 0.930 . S
C2174 H2160 0.930 . S
C2174 C2172 1.395 . S
C2174 C2177 1.403 . S
C2175 C2172 1.403 . S
C2175 C2176 1.524 . S
C2175 C2179 1.400 . S
C2176 H2161 0.960 . S
C2176 H2162 0.960 . S
C2176 H2163 0.960 . S
C2176 C2175 1.524 . S
C2177 C2174 1.403 . S
C2177 C2178 1.392 . S
C2177 C2181 1.495 . S
C2178 C2177 1.392 . S
C2178 C2179 1.385 . S
C2178 C2180 1.478 . S
C2179 H2173 0.930 . S
C2179 C2175 1.400 . S
C2179 C2178 1.385 . S
C2180 C2178 1.478 . S
C2180 C2182 1.381 . S
C2180 C2186 1.383 . S
C2181 C2177 1.495 . S
C2181 H2187 0.959 . S
C2181 H2188 0.961 . S
C2181 H2189 0.960 . S
C2182 C2180 1.381 . S
C2182 C2183 1.394 . S
C2182 H2190 0.930 . S
C2183 C2182 1.394 . S
C2183 C2184 1.383 . S
C2183 H2191 0.929 . S
C2184 C2183 1.383 . S
C2184 C2185 1.377 . S
C2185 H2169 0.930 1_655 S
C2185 C2184 1.377 . S
C2185 C2186 1.379 . S
C2186 H2170 0.931 . S
C2186 C2180 1.383 . S
C2186 C2185 1.379 . S
H2187 C2181 0.959 . S
H2188 C2181 0.961 . S
H2189 C2181 0.960 . S
H2190 C2182 0.930 . S
H2191 C2183 0.929 . S
H2192 C2200 0.929 . S
H2193 C2202 0.930 . S
H2194 C2204 0.930 . S
H2195 C2207 0.929 . S
H2196 C2210 0.930 . S
H2197 C2212 0.960 . S
H2198 C2212 0.960 . S
H2199 C2212 0.960 . S
C2200 H2192 0.929 . S
C2200 C2201 1.377 . S
C2200 C2202 1.384 . S
C2201 C2200 1.377 . S
C2201 C2207 1.390 . S
C2202 H2193 0.930 . S
C2202 C2200 1.384 . S
C2202 C2203 1.372 . S
C2203 C2202 1.372 . S
C2203 C2204 1.400 . S
C2203 C2208 1.490 . S
C2204 H2194 0.930 . S
C2204 C2203 1.400 . S
C2204 C2207 1.386 . S
H2205 C2221 0.930 . S
H2206 C2222 0.931 . S
C2207 H2195 0.929 . S
C2207 C2201 1.390 . S
C2207 C2204 1.386 . S
C2208 C2203 1.490 . S
C2208 C2210 1.395 . S
C2208 C2211 1.403 . S
H2209 C2215 0.930 . S
C2210 H2196 0.930 . S
C2210 C2208 1.395 . S
C2210 C2213 1.403 . S
C2211 C2208 1.403 . S
C2211 C2212 1.524 . S
C2211 C2215 1.400 . S
C2212 H2197 0.960 . S
C2212 H2198 0.960 . S
C2212 H2199 0.960 . S
C2212 C2211 1.524 . S
C2213 C2210 1.403 . S
C2213 C2214 1.392 . S
C2213 C2217 1.495 . S
C2214 C2213 1.392 . S
C2214 C2215 1.385 . S
C2214 C2216 1.478 . S
C2215 H2209 0.930 . S
C2215 C2211 1.400 . S
C2215 C2214 1.385 . S
C2216 C2214 1.478 . S
C2216 C2218 1.381 . S
C2216 C2222 1.383 . S
C2217 C2213 1.495 . S
C2217 H2223 0.959 . S
C2217 H2224 0.961 . S
C2217 H2225 0.960 . S
C2218 C2216 1.381 . S
C2218 C2219 1.394 . S
C2218 H2226 0.930 . S
C2219 C2218 1.394 . S
C2219 C2220 1.383 . S
C2219 H2227 0.929 . S
C2220 C2219 1.383 . S
C2220 C2221 1.377 . S
C2221 H2205 0.930 . S
C2221 C2220 1.377 . S
C2221 C2222 1.379 . S
C2222 H2206 0.931 . S
C2222 C2216 1.383 . S
C2222 C2221 1.379 . S
H2223 C2217 0.959 . S
H2224 C2217 0.961 . S
H2225 C2217 0.960 . S
H2226 C2218 0.930 . S
H2227 C2219 0.929 . S
H2228 C2236 0.929 . S
H2229 C2238 0.930 . S
H2230 C2240 0.930 . S
H2231 C2243 0.929 . S
H2232 C2246 0.930 . S
H2233 C2248 0.960 . S
H2234 C2248 0.960 . S
H2235 C2248 0.960 . S
C2236 H2228 0.929 . S
C2236 C2237 1.377 . S
C2236 C2238 1.384 . S
C2237 C2236 1.377 . S
C2237 C2243 1.390 . S
C2238 H2229 0.930 . S
C2238 C2236 1.384 . S
C2238 C2239 1.372 . S
C2239 C2238 1.372 . S
C2239 C2240 1.400 . S
C2239 C2244 1.490 . S
C2240 H2230 0.930 . S
C2240 C2239 1.400 . S
C2240 C2243 1.386 . S
H2241 C2257 0.930 . S
H2242 C2258 0.931 . S
C2243 H2231 0.929 . S
C2243 C2237 1.390 . S
C2243 C2240 1.386 . S
C2244 C2239 1.490 . S
C2244 C2246 1.395 . S
C2244 C2247 1.403 . S
H2245 C2251 0.930 . S
C2246 H2232 0.930 . S
C2246 C2244 1.395 . S
C2246 C2249 1.403 . S
C2247 C2244 1.403 . S
C2247 C2248 1.524 . S
C2247 C2251 1.400 . S
C2248 H2233 0.960 . S
C2248 H2234 0.960 . S
C2248 H2235 0.960 . S
C2248 C2247 1.524 . S
C2249 C2246 1.403 . S
C2249 C2250 1.392 . S
C2249 C2253 1.495 . S
C2250 C2249 1.392 . S
C2250 C2251 1.385 . S
C2250 C2252 1.478 . S
C2251 H2245 0.930 . S
C2251 C2247 1.400 . S
C2251 C2250 1.385 . S
C2252 C2250 1.478 . S
C2252 C2254 1.381 . S
C2252 C2258 1.383 . S
C2253 C2249 1.495 . S
C2253 H2259 0.959 . S
C2253 H2260 0.961 . S
C2253 H2261 0.960 . S
C2254 C2252 1.381 . S
C2254 C2255 1.394 . S
C2254 H2262 0.930 . S
C2255 C2254 1.394 . S
C2255 C2256 1.383 . S
C2255 H2263 0.929 . S
C2256 C2255 1.383 . S
C2256 C2257 1.377 . S
C2257 H2241 0.930 . S
C2257 C2256 1.377 . S
C2257 C2258 1.379 . S
C2258 H2242 0.931 . S
C2258 C2252 1.383 . S
C2258 C2257 1.379 . S
H2259 C2253 0.959 . S
H2260 C2253 0.961 . S
H2261 C2253 0.960 . S
H2262 C2254 0.930 . S
H2263 C2255 0.929 . S
H2264 C2272 0.929 . S
H2265 C2274 0.930 . S
H2266 C2276 0.930 . S
H2267 C2279 0.929 . S
H2268 C2282 0.930 . S
H2269 C2284 0.960 . S
H2270 C2284 0.960 . S
H2271 C2284 0.960 . S
C2272 H2264 0.929 . S
C2272 C2273 1.377 . S
C2272 C2274 1.384 . S
C2273 C2272 1.377 . S
C2273 C2279 1.390 . S
C2274 H2265 0.930 . S
C2274 C2272 1.384 . S
C2274 C2275 1.372 . S
C2275 C2274 1.372 . S
C2275 C2276 1.400 . S
C2275 C2280 1.490 . S
C2276 H2266 0.930 . S
C2276 C2275 1.400 . S
C2276 C2279 1.386 . S
H2277 C2293 0.930 . S
H2278 C2294 0.931 . S
C2279 H2267 0.929 . S
C2279 C2273 1.390 . S
C2279 C2276 1.386 . S
C2280 C2275 1.490 . S
C2280 C2282 1.395 . S
C2280 C2283 1.403 . S
H2281 C2287 0.930 . S
C2282 H2268 0.930 . S
C2282 C2280 1.395 . S
C2282 C2285 1.403 . S
C2283 C2280 1.403 . S
C2283 C2284 1.524 . S
C2283 C2287 1.400 . S
C2284 H2269 0.960 . S
C2284 H2270 0.960 . S
C2284 H2271 0.960 . S
C2284 C2283 1.524 . S
C2285 C2282 1.403 . S
C2285 C2286 1.392 . S
C2285 C2289 1.495 . S
C2286 C2285 1.392 . S
C2286 C2287 1.385 . S
C2286 C2288 1.478 . S
C2287 H2281 0.930 . S
C2287 C2283 1.400 . S
C2287 C2286 1.385 . S
C2288 C2286 1.478 . S
C2288 C2290 1.381 . S
C2288 C2294 1.383 . S
C2289 C2285 1.495 . S
C2289 H2295 0.959 . S
C2289 H2296 0.961 . S
C2289 H2297 0.960 . S
C2290 C2288 1.381 . S
C2290 C2291 1.394 . S
C2290 H2298 0.930 . S
C2291 C2290 1.394 . S
C2291 C2292 1.383 . S
C2291 H2299 0.929 . S
C2292 C2291 1.383 . S
C2292 C2293 1.377 . S
C2293 H2277 0.930 . S
C2293 C2292 1.377 . S
C2293 C2294 1.379 . S
C2294 H2278 0.931 . S
C2294 C2288 1.383 . S
C2294 C2293 1.379 . S
H2295 C2289 0.959 . S
H2296 C2289 0.961 . S
H2297 C2289 0.960 . S
H2298 C2290 0.930 . S
H2299 C2291 0.929 . S
H2300 C2308 0.929 . S
H2301 C2310 0.930 . S
H2302 C2312 0.930 . S
H2303 C2315 0.929 . S
H2304 C2318 0.930 . S
H2305 C2320 0.960 . S
H2306 C2320 0.960 . S
H2307 C2320 0.960 . S
C2308 H2300 0.929 . S
C2308 C2309 1.377 . S
C2308 C2310 1.384 . S
C2309 C2308 1.377 . S
C2309 C2315 1.390 . S
C2310 H2301 0.930 . S
C2310 C2308 1.384 . S
C2310 C2311 1.372 . S
C2311 C2310 1.372 . S
C2311 C2312 1.400 . S
C2311 C2316 1.490 . S
C2312 H2302 0.930 . S
C2312 C2311 1.400 . S
C2312 C2315 1.386 . S
H2313 C2329 0.930 . S
H2314 C2330 0.931 . S
C2315 H2303 0.929 . S
C2315 C2309 1.390 . S
C2315 C2312 1.386 . S
C2316 C2311 1.490 . S
C2316 C2318 1.395 . S
C2316 C2319 1.403 . S
H2317 C2323 0.930 . S
C2318 H2304 0.930 . S
C2318 C2316 1.395 . S
C2318 C2321 1.403 . S
C2319 C2316 1.403 . S
C2319 C2320 1.524 . S
C2319 C2323 1.400 . S
C2320 H2305 0.960 . S
C2320 H2306 0.960 . S
C2320 H2307 0.960 . S
C2320 C2319 1.524 . S
C2321 C2318 1.403 . S
C2321 C2322 1.392 . S
C2321 C2325 1.495 . S
C2322 C2321 1.392 . S
C2322 C2323 1.385 . S
C2322 C2324 1.478 . S
C2323 H2317 0.930 . S
C2323 C2319 1.400 . S
C2323 C2322 1.385 . S
C2324 C2322 1.478 . S
C2324 C2326 1.381 . S
C2324 C2330 1.383 . S
C2325 C2321 1.495 . S
C2325 H2331 0.959 . S
C2325 H2332 0.961 . S
C2325 H2333 0.960 . S
C2326 C2324 1.381 . S
C2326 C2327 1.394 . S
C2326 H2334 0.930 . S
C2327 C2326 1.394 . S
C2327 C2328 1.383 . S
C2327 H2335 0.929 . S
C2328 C2327 1.383 . S
C2328 C2329 1.377 . S
C2329 H2313 0.930 . S
C2329 C2328 1.377 . S
C2329 C2330 1.379 . S
C2330 H2314 0.931 . S
C2330 C2324 1.383 . S
C2330 C2329 1.379 . S
H2331 C2325 0.959 . S
H2332 C2325 0.961 . S
H2333 C2325 0.960 . S
H2334 C2326 0.930 . S
H2335 C2327 0.929 . S
H2336 C2344 0.929 . S
H2337 C2346 0.930 . S
H2338 C2348 0.930 . S
H2339 C2351 0.929 . S
H2340 C2354 0.930 . S
H2341 C2356 0.960 . S
H2342 C2356 0.960 . S
H2343 C2356 0.960 . S
C2344 H2336 0.929 . S
C2344 C2345 1.377 . S
C2344 C2346 1.384 . S
C2345 C2344 1.377 . S
C2345 C2351 1.390 . S
C2346 H2337 0.930 . S
C2346 C2344 1.384 . S
C2346 C2347 1.372 . S
C2347 C2346 1.372 . S
C2347 C2348 1.400 . S
C2347 C2352 1.490 . S
C2348 H2338 0.930 . S
C2348 C2347 1.400 . S
C2348 C2351 1.386 . S
H2349 C2365 0.930 . S
H2350 C2366 0.931 . S
C2351 H2339 0.929 . S
C2351 C2345 1.390 . S
C2351 C2348 1.386 . S
C2352 C2347 1.490 . S
C2352 C2354 1.395 . S
C2352 C2355 1.403 . S
H2353 C2359 0.930 . S
C2354 H2340 0.930 . S
C2354 C2352 1.395 . S
C2354 C2357 1.403 . S
C2355 C2352 1.403 . S
C2355 C2356 1.524 . S
C2355 C2359 1.400 . S
C2356 H2341 0.960 . S
C2356 H2342 0.960 . S
C2356 H2343 0.960 . S
C2356 C2355 1.524 . S
C2357 C2354 1.403 . S
C2357 C2358 1.392 . S
C2357 C2361 1.495 . S
C2358 C2357 1.392 . S
C2358 C2359 1.385 . S
C2358 C2360 1.478 . S
C2359 H2353 0.930 . S
C2359 C2355 1.400 . S
C2359 C2358 1.385 . S
C2360 C2358 1.478 . S
C2360 C2362 1.381 . S
C2360 C2366 1.383 . S
C2361 C2357 1.495 . S
C2361 H2367 0.959 . S
C2361 H2368 0.961 . S
C2361 H2369 0.960 . S
C2362 C2360 1.381 . S
C2362 C2363 1.394 . S
C2362 H2370 0.930 . S
C2363 C2362 1.394 . S
C2363 C2364 1.383 . S
C2363 H2371 0.929 . S
C2364 C2363 1.383 . S
C2364 C2365 1.377 . S
C2365 H2349 0.930 . S
C2365 C2364 1.377 . S
C2365 C2366 1.379 . S
C2366 H2350 0.931 . S
C2366 C2360 1.383 . S
C2366 C2365 1.379 . S
H2367 C2361 0.959 . S
H2368 C2361 0.961 . S
H2369 C2361 0.960 . S
H2370 C2362 0.930 . S
H2371 C2363 0.929 . S
C672 C355 2.314 . S
C653 C18 2.299 . S
C708 C333 2.686 . S
C689 C59 2.685 . S
C744 C330 0.448 . S
C725 C98 0.458 . S
C761 C125 1.144 . S
C780 C342 1.095 . S
C797 C169 2.583 . S
C816 C325 2.573 . S
C852 C347 0.452 . S
C833 C218 0.464 . S
C869 C255 1.327 . S
C888 C352 1.271 . S
C905 C288 2.301 . S
C924 C348 2.328 . S
C960 C406 0.968 . S
C941 C15 1.049 . S
C977 C45 0.825 . S
C996 C456 0.882 . S
C1032 C379 0.500 . S
C1013 C95 0.452 . S
C1068 C455 0.193 . S
C1049 C128 0.354 . S
C1085 C178 0.338 . S
C1104 C384 0.254 . S
C1140 C450 1.782 . S
C1121 C215 1.835 . S
C1157 C249 2.040 . S
C1176 C409 2.085 . S
C1193 C299 2.378 . S
C1212 C441 2.354 1_556 S
C1229 C9 2.941 . S
C1248 C433 2.927 . S
C1265 C175 0.467 . S
C1284 C463 0.442 . S
C1320 C387 1.893 . S
C1301 C209 1.899 . S
C1356 C438 0.735 . S
C1337 C258 0.756 . S
C1373 C285 1.530 . S
C1392 C396 1.471 . S
C1409 C89 3.420 . S
C1428 C460 3.373 . S
C1464 C402 2.458 . S
C1445 C139 2.381 . S
C1481 C48 0.742 . S
C1500 C401 0.735 . S
C1517 C298 2.301 . S
C1536 C517 2.320 . S
C1553 C179 2.581 . S
C1572 C495 2.571 . S
C1608 C492 0.454 . S
C1589 C208 0.451 . S
C1644 C504 1.319 . S
C1625 C245 1.332 . S
C1661 C49 2.686 . S
C1680 C487 2.676 . S
C1716 C509 0.454 . S
C1697 C88 0.480 . S
C1733 C135 1.149 . S
C1752 C514 1.073 . S
C1769 C8 2.304 . S
C1788 C510 2.326 . S
C1805 C295 1.521 . S
C1824 C568 1.497 . S
C1860 C618 0.536 . S
C1841 C165 0.496 . S
C1877 C219 1.890 . S
C1896 C541 1.875 . S
C1913 C248 0.748 . S
C1932 C617 0.725 . S
C1968 C546 0.750 . S
C1949 C58 0.734 . S
C1985 C99 3.409 . S
C2004 C612 3.367 . S
C2040 C571 2.447 . S
C2021 C129 2.374 . S
C2076 C603 2.940 . S
C2057 C19 2.933 . S
C2112 C595 2.336 . S
C2093 C289 2.381 . S
C2129 C55 0.819 . S
C2148 C625 0.810 . S
C2165 C85 0.469 . S
C2184 C549 0.449 . S
C2220 C600 0.217 . S
C2201 C138 0.347 . S
C2237 C5 1.065 . S
C2256 C558 0.970 . S
C2273 C205 1.848 . S
C2292 C622 1.759 . S
C2328 C564 2.102 . S
C2309 C259 2.059 . S
C2364 C563 0.165 . S
C2345 C168 0.320 . S
