# Generated by pormake.
# Topology ssa, (4,4)-cn, num edge types: 1
# Building blocks:
#     Node 0, Type 0, BuildingBlock: ESEHIV_clean_sbu_0, # of connection points: 4
#     Node 1, Type 0, BuildingBlock: ESEHIV_clean_sbu_0, # of connection points: 4
#     Node 2, Type 0, BuildingBlock: ESEHIV_clean_sbu_0, # of connection points: 4
#     Node 3, Type 0, BuildingBlock: ESEHIV_clean_sbu_0, # of connection points: 4
#     Node 4, Type 0, BuildingBlock: ESEHIV_clean_sbu_0, # of connection points: 4
#     Node 5, Type 0, BuildingBlock: ESEHIV_clean_sbu_0, # of connection points: 4
#     Node 6, Type 1, BuildingBlock: NAWXER_clean_sbu_0, # of connection points: 4
#     Node 7, Type 1, BuildingBlock: NAWXER_clean_sbu_0, # of connection points: 4
#     Node 8, Type 1, BuildingBlock: NAWXER_clean_sbu_0, # of connection points: 4
#     Node 9, Type 1, BuildingBlock: NAWXER_clean_sbu_0, # of connection points: 4
#     Node 10, Type 1, BuildingBlock: NAWXER_clean_sbu_0, # of connection points: 4
#     Node 11, Type 1, BuildingBlock: NAWXER_clean_sbu_0, # of connection points: 4
#     Edge 12, Type (0, 1), BuildingBlock: KIFKEQ_clean_linker_1, # of connection points: 2
#     Edge 13, Type (0, 1), BuildingBlock: KIFKEQ_clean_linker_1, # of connection points: 2
#     Edge 14, Type (0, 1), BuildingBlock: KIFKEQ_clean_linker_1, # of connection points: 2
#     Edge 15, Type (0, 1), BuildingBlock: KIFKEQ_clean_linker_1, # of connection points: 2
#     Edge 16, Type (0, 1), BuildingBlock: KIFKEQ_clean_linker_1, # of connection points: 2
#     Edge 17, Type (0, 1), BuildingBlock: KIFKEQ_clean_linker_1, # of connection points: 2
#     Edge 18, Type (0, 1), BuildingBlock: KIFKEQ_clean_linker_1, # of connection points: 2
#     Edge 19, Type (0, 1), BuildingBlock: KIFKEQ_clean_linker_1, # of connection points: 2
#     Edge 20, Type (0, 1), BuildingBlock: KIFKEQ_clean_linker_1, # of connection points: 2
#     Edge 21, Type (0, 1), BuildingBlock: KIFKEQ_clean_linker_1, # of connection points: 2
#     Edge 22, Type (0, 1), BuildingBlock: KIFKEQ_clean_linker_1, # of connection points: 2
#     Edge 23, Type (0, 1), BuildingBlock: KIFKEQ_clean_linker_1, # of connection points: 2
#     Edge 24, Type (0, 1), BuildingBlock: KIFKEQ_clean_linker_1, # of connection points: 2
#     Edge 25, Type (0, 1), BuildingBlock: KIFKEQ_clean_linker_1, # of connection points: 2
#     Edge 26, Type (0, 1), BuildingBlock: KIFKEQ_clean_linker_1, # of connection points: 2
#     Edge 27, Type (0, 1), BuildingBlock: KIFKEQ_clean_linker_1, # of connection points: 2
#     Edge 28, Type (0, 1), BuildingBlock: KIFKEQ_clean_linker_1, # of connection points: 2
#     Edge 29, Type (0, 1), BuildingBlock: KIFKEQ_clean_linker_1, # of connection points: 2
#     Edge 30, Type (0, 1), BuildingBlock: KIFKEQ_clean_linker_1, # of connection points: 2
#     Edge 31, Type (0, 1), BuildingBlock: KIFKEQ_clean_linker_1, # of connection points: 2
#     Edge 32, Type (0, 1), BuildingBlock: KIFKEQ_clean_linker_1, # of connection points: 2
#     Edge 33, Type (0, 1), BuildingBlock: KIFKEQ_clean_linker_1, # of connection points: 2
#     Edge 34, Type (0, 1), BuildingBlock: KIFKEQ_clean_linker_1, # of connection points: 2
#     Edge 35, Type (0, 1), BuildingBlock: KIFKEQ_clean_linker_1, # of connection points: 2
# Relax obj value: 0.016
# Max RMSD: 0.108
# Mean RMSD: 0.057
data_MOF--net-ssa--node1-ESEHIV_clean_sbu_0--node2-NAWXER_clean_sbu_0--edge1-KIFKEQ_clean_linker_1
_symmetry_space_group_name_H-M    P1
_symmetry_Int_Tables_number       1
_symmetry_cell_setting            triclinic
loop_
_symmetry_equiv_pos_as_xyz
'x, y, z'
_cell_length_a     45.146415
_cell_length_b     49.288406
_cell_length_c     38.96105
_cell_angle_alpha  88.282148
_cell_angle_beta   91.134399
_cell_angle_gamma 122.96436
loop_
_atom_site_label
_atom_site_type_symbol
_atom_site_fract_x
_atom_site_fract_y
_atom_site_fract_z
_atom_type_partial_charge
Cu0 Cu 0.03381 0.55126 1.01177 0.0
N1 N 0.04082 0.53655 0.97089 0.0
N2 N 0.02551 0.49931 0.93107 0.0
C3 C 1.01441 0.50923 0.95682 0.0
C4 C 0.06054 0.52135 0.92859 0.0
C5 C 0.06994 0.54455 0.95313 0.0
O6 O 0.98435 0.53807 1.00886 0.0
C7 C 0.07955 0.54348 0.05006 0.0
O8 O 0.09951 0.56421 0.02579 0.0
H9 H 0.98778 0.49568 0.96681 0.0
H10 H 0.0963 0.56487 0.95851 0.0
N11 N 0.06274 0.59608 0.01856 0.0
N12 N 0.09439 0.64104 0.04908 0.0
C13 C 0.07285 0.60855 0.05009 0.0
C14 C 0.0786 0.62174 0.9966 0.0
C15 C 0.09796 0.64963 1.01548 0.0
C16 C 0.97857 0.55307 0.98514 0.0
O17 O 1.00563 0.57657 0.96806 0.0
H18 H 0.06485 0.59391 0.0735 0.0
H19 H 0.07677 0.62028 0.96892 0.0
O20 O 0.04652 0.53223 0.0493 0.0
H21 H 0.07811 0.52034 0.91094 0.0
H22 H 0.11433 0.67412 1.00532 0.0
Cu23 Cu 0.56713 0.03537 0.51793 0.0
N24 N 0.58734 0.0272 0.48152 0.0
N25 N 0.59426 0.99855 0.44259 0.0
C26 C 0.57703 0.99748 0.47112 0.0
C27 C 0.61636 0.03042 0.43494 0.0
C28 C 0.61197 0.04799 0.45892 0.0
O29 O 0.51625 1.00478 0.51297 0.0
C30 C 0.62072 0.04814 0.56371 0.0
O31 O 0.63892 0.05867 0.53509 0.0
H32 H 0.55706 0.97556 0.48431 0.0
H33 H 0.62541 0.07401 0.45951 0.0
N34 N 0.57777 0.07769 0.51698 0.0
N35 N 0.5888 0.12361 0.53923 0.0
C36 C 0.58046 0.09325 0.5458 0.0
C37 C 0.58478 0.09901 0.49103 0.0
C38 C 0.59132 0.12736 0.50472 0.0
C39 C 0.502 0.0093 0.48669 0.0
O40 O 0.52155 0.03507 0.4671 0.0
H41 H 0.57563 0.08212 0.57117 0.0
H42 H 0.58495 0.09429 0.46413 0.0
O43 O 0.58713 0.03287 0.56185 0.0
H44 H 0.63392 0.04051 0.41314 0.0
H45 H 0.59755 0.14901 0.49044 0.0
Cu46 Cu 0.49676 0.47527 0.04902 0.0
N47 N 0.50265 0.44081 0.04393 0.0
N48 N 0.51159 0.40644 0.01678 0.0
C49 C 0.50467 0.42983 1.01338 0.0
C50 C 0.51402 0.40258 0.05098 0.0
C51 C 0.5085 0.42381 0.06765 0.0
O52 O 0.52014 0.50352 1.00907 0.0
C53 C 0.42978 0.43925 0.0769 0.0
O54 O 0.44475 0.42613 0.09348 0.0
H55 H 0.50217 0.43963 0.98906 0.0
H56 H 0.50915 0.42688 0.09508 0.0
N57 N 0.51705 0.4977 0.08935 0.0
N58 N 0.52822 0.53224 0.13107 0.0
C59 C 0.50917 0.5179 0.10259 0.0
C60 C 0.54186 0.49898 0.11021 0.0
C61 C 0.5489 0.5204 0.13598 0.0
C62 C 0.5516 0.52834 1.01068 0.0
O63 O 0.56632 0.53866 0.04089 0.0
H64 H 0.49071 0.52286 0.09062 0.0
H65 H 0.55453 0.48595 0.10651 0.0
O66 O 0.44708 0.4601 0.05308 0.0
H67 H 0.51928 0.38558 0.06314 0.0
H68 H 0.56803 0.52698 0.15646 0.0
Cu69 Cu 0.98413 0.50661 0.51513 0.0
N70 N 0.97845 0.48029 0.47877 0.0
N71 N 0.99534 0.45808 0.44085 0.0
C72 C 1.00511 0.48435 0.45958 0.0
C73 C 0.96104 0.43664 0.44853 0.0
C74 C 0.95075 0.45035 0.47204 0.0
O75 O 0.0294 0.54721 0.50783 0.0
C76 C 0.97536 0.48727 0.58636 0.0
O77 O 0.98204 0.51602 0.59307 0.0
H78 H 0.03193 0.5051 0.46155 0.0
H79 H 0.92565 0.43845 0.48512 0.0
N80 N 0.94746 0.51389 0.51713 0.0
N81 N 0.91232 0.52709 0.54124 0.0
C82 C 0.94523 0.5329 0.53974 0.0
C83 C 0.9152 0.49618 0.50287 0.0
C84 C 0.89355 0.50424 0.51759 0.0
C85 C 0.02984 0.56458 0.48269 0.0
O86 O 1.00009 0.55509 0.46637 0.0
H87 H 0.96696 0.54945 0.55603 0.0
H88 H 0.9072 0.47707 0.4849 0.0
O89 O 0.97985 0.48127 0.55605 0.0
H90 H 0.94498 0.41229 0.43905 0.0
H91 H 0.86546 0.49221 0.51303 0.0
Cu92 Cu 0.51831 0.98639 1.01075 0.0
N93 N 0.48924 0.98396 0.97448 0.0
N94 N 0.46802 1.00285 0.93479 0.0
C95 C 0.48689 0.00903 0.96404 0.0
C96 C 0.4579 0.97259 0.92646 0.0
C97 C 0.4708 0.96085 0.95119 0.0
O98 O 0.55886 0.03095 1.00895 0.0
C99 C 0.46788 0.94233 0.05522 0.0
O100 O 0.4611 0.92517 0.02759 0.0
H101 H 0.50058 0.03212 0.97659 0.0
H102 H 0.4679 0.93759 0.95146 0.0
N103 N 0.53483 0.95904 1.0065 0.0
N104 N 0.55734 0.93024 0.0241 0.0
C105 C 0.5495 0.95193 0.03273 0.0
C106 C 0.53347 0.94136 0.98011 0.0
C107 C 0.54723 0.92343 0.99096 0.0
C108 C 0.57929 0.03714 0.98368 0.0
O109 O 0.57231 0.01359 0.96331 0.0
H110 H 0.55295 0.96156 0.05814 0.0
H111 H 0.52297 0.94122 0.9549 0.0
O112 O 0.49201 0.9724 0.05365 0.0
H113 H 0.44299 0.96017 0.90373 0.0
H114 H 0.54935 0.90655 0.97576 0.0
Cu115 Cu 0.52014 0.50031 0.50789 0.0
N116 N 0.55808 0.53238 0.48203 0.0
N117 N 0.58934 0.57798 0.45046 0.0
C118 C 0.55842 0.55721 0.46638 0.0
C119 C 0.60944 0.5657 0.45657 0.0
C120 C 0.59001 0.53747 0.47608 0.0
O121 O 0.47945 0.50036 0.49053 0.0
C122 C 0.5147 0.49014 0.5799 0.0
O123 O 0.48437 0.46349 0.57282 0.0
H124 H 0.53652 0.56033 0.46754 0.0
H125 H 0.59863 0.52199 0.48553 0.0
N126 N 0.51448 0.46002 0.5036 0.0
N127 N 0.50982 0.41535 0.52588 0.0
C128 C 0.52648 0.44784 0.52734 0.0
C129 C 0.49053 0.43465 0.48508 0.0
C130 C 0.48763 0.40709 0.49868 0.0
C131 C 0.44687 0.47813 0.49278 0.0
O132 O 0.43709 0.45181 0.51118 0.0
H133 H 0.54437 0.46231 0.54759 0.0
H134 H 0.47398 0.43561 0.46526 0.0
O135 O 0.53113 0.51113 0.55597 0.0
H136 H 0.63613 0.57621 0.44753 0.0
H137 H 0.46875 0.38272 0.49052 0.0
C138 C 0.27994 0.48267 0.31929 0.0
C139 C 0.21031 0.49559 0.22982 0.0
O140 O 0.25432 0.45559 0.30797 0.0
Zn141 Zn 0.21282 0.43882 0.27012 0.0
O142 O 0.28512 0.50893 0.30643 0.0
Zn143 Zn 0.24666 0.49019 0.2735 0.0
O144 O 0.20129 0.46778 0.30591 0.0
O145 O 0.16989 0.41513 0.29778 0.0
O146 O 0.23782 0.51796 0.24484 0.0
O147 O 0.19926 0.46598 0.23682 0.0
O148 O 0.22448 0.41657 0.2377 0.0
O149 O 0.26285 0.4693 0.23689 0.0
C150 C 0.17405 0.43963 0.31269 0.0
C151 C 0.25243 0.44131 0.22551 0.0
C152 C 0.81258 0.29787 0.74283 0.0
C153 C 0.74729 0.22643 0.84089 0.0
O154 O 0.78603 0.29513 0.75736 0.0
Zn155 Zn 0.77729 0.26095 0.79034 0.0
O156 O 0.82292 0.27926 0.75247 0.0
Zn157 Zn 0.81057 0.24231 0.79006 0.0
O158 O 0.79584 0.20438 0.76268 0.0
O159 O 0.7581 0.21954 0.75912 0.0
O160 O 0.77229 0.22366 0.83047 0.0
O161 O 0.74047 0.24523 0.82471 0.0
O162 O 0.82455 0.28645 0.82072 0.0
O163 O 0.85533 0.26405 0.81518 0.0
C164 C 0.76719 0.20011 0.75076 0.0
C165 C 0.8521 0.2859 0.82767 0.0
C166 C 0.56947 0.81363 0.31128 0.0
C167 C 0.55096 0.72438 0.24118 0.0
O168 O 0.59801 0.8182 0.29894 0.0
Zn169 Zn 0.61415 0.79452 0.26622 0.0
O170 O 0.54008 0.78791 0.30423 0.0
Zn171 Zn 0.5582 0.76831 0.27576 0.0
O172 O 0.58798 0.75821 0.31095 0.0
O173 O 0.64414 0.7864 0.29585 0.0
O174 O 0.527 0.72541 0.25663 0.0
O175 O 0.58307 0.74843 0.24287 0.0
O176 O 0.63317 0.82405 0.22643 0.0
O177 O 0.57527 0.79855 0.23072 0.0
C178 C 0.61972 0.76576 0.31583 0.0
C179 C 0.6039 0.81843 0.21462 0.0
C180 C 0.77319 0.50604 0.8389 0.0
C181 C 0.68608 0.49687 0.75373 0.0
O182 O 0.74844 0.47986 0.82585 0.0
Zn183 Zn 0.72999 0.49899 0.79374 0.0
O184 O 0.77883 0.5331 0.82755 0.0
Zn185 Zn 0.75863 0.55132 0.79029 0.0
O186 O 0.74522 0.57466 0.81936 0.0
O187 O 0.71281 0.52155 0.8271 0.0
O188 O 0.7114 0.52578 0.76034 0.0
O189 O 0.68632 0.47297 0.76691 0.0
O190 O 0.76781 0.52008 0.75377 0.0
O191 O 0.79587 0.57317 0.75537 0.0
C192 C 0.71964 0.54963 0.83431 0.0
C193 C 0.7911 0.54804 0.74146 0.0
C194 C 0.32434 0.81679 0.26329 0.0
C195 C 0.23604 0.74228 0.34856 0.0
O196 O 0.3025 0.82427 0.27193 0.0
Zn197 Zn 0.25783 0.80682 0.30403 0.0
O198 O 0.32148 0.79149 0.27643 0.0
Zn199 Zn 0.28083 0.77832 0.3059 0.0
O200 O 0.23968 0.76364 0.26878 0.0
O201 O 0.22121 0.79691 0.26956 0.0
O202 O 0.26053 0.74007 0.33618 0.0
O203 O 0.23285 0.76559 0.33844 0.0
O204 O 0.2751 0.84263 0.33536 0.0
O205 O 0.30244 0.81689 0.34171 0.0
C206 C 0.21948 0.77253 0.25703 0.0
C207 C 0.29839 0.83953 0.35053 0.0
C208 C 0.53458 0.28581 0.8249 0.0
C209 C 0.55668 0.23699 0.72867 0.0
O210 O 0.56396 0.29076 0.81548 0.0
Zn211 Zn 0.54683 0.26094 0.77736 0.0
O212 O 0.50637 0.26517 0.8089 0.0
Zn213 Zn 0.49143 0.23305 0.76714 0.0
O214 O 0.46213 0.19027 0.78877 0.0
O215 O 0.51871 0.21373 0.80115 0.0
O216 O 0.52398 0.22644 0.73299 0.0
O217 O 0.57975 0.25747 0.74934 0.0
O218 O 0.52863 0.28177 0.73993 0.0
O219 O 0.47085 0.24902 0.73458 0.0
C220 C 0.48687 0.18921 0.80351 0.0
C221 C 0.49957 0.27488 0.7256 0.0
H222 H 0.04867 0.49956 0.10431 0.0
H223 H 0.14974 0.57066 0.05957 0.0
H224 H 0.07914 0.48852 0.15017 0.0
H225 H 0.1796 0.55951 0.10454 0.0
H226 H 0.22587 0.55514 0.20675 0.0
H227 H 0.1921 0.5667 0.16598 0.0
H228 H 0.11507 0.46434 0.15651 0.0
H229 H 0.14841 0.45275 0.19748 0.0
C230 C 0.07723 0.51277 0.10423 0.0
C231 C 0.09668 0.53589 0.07821 0.0
C232 C 0.09468 0.50643 0.13039 0.0
C233 C 0.13184 0.52333 0.1311 0.0
C234 C 0.15106 0.54648 0.10515 0.0
C235 C 0.13377 0.55263 0.07911 0.0
C236 C 0.20172 0.53512 0.19602 0.0
C237 C 0.19008 0.50305 0.20517 0.0
C238 C 0.18237 0.54172 0.17264 0.0
C239 C 0.1509 0.5164 0.15795 0.0
C240 C 0.13894 0.48438 0.16763 0.0
C241 C 0.15832 0.47778 0.19088 0.0
H242 H 0.59422 0.05314 0.62445 0.0
H243 H 0.69053 0.0746 0.57697 0.0
H244 H 0.62823 0.08549 0.67364 0.0
H245 H 0.72448 0.10733 0.62554 0.0
H246 H 0.77752 0.15414 0.72586 0.0
H247 H 0.74002 0.1113 0.68563 0.0
H248 H 0.66758 0.14292 0.68177 0.0
H249 H 0.7044 0.18501 0.72225 0.0
C250 C 0.62252 0.06406 0.62487 0.0
C251 C 0.63966 0.06138 0.59668 0.0
C252 C 0.6421 0.08296 0.65289 0.0
C253 C 0.67923 0.09946 0.65342 0.0
C254 C 0.696 0.0949 0.62624 0.0
C255 C 0.67648 0.07616 0.59824 0.0
C256 C 0.75346 0.15177 0.7166 0.0
C257 C 0.74417 0.1732 0.72721 0.0
C258 C 0.73197 0.12725 0.69345 0.0
C259 C 0.70065 0.12352 0.68042 0.0
C260 C 0.6911 0.14459 0.69164 0.0
C261 C 0.71251 0.16903 0.71468 0.0
H262 H 0.47468 0.54177 0.13696 0.0
H263 H 0.58256 0.57965 0.16781 0.0
H264 H 0.47746 0.58742 0.16342 0.0
H265 H 0.58491 0.62452 0.19516 0.0
H266 H 0.59434 0.72017 0.19765 0.0
H267 H 0.58648 0.67216 0.17288 0.0
H268 H 0.4833 0.61393 0.21909 0.0
H269 H 0.49105 0.66261 0.24396 0.0
C270 C 0.49891 0.5597 0.14955 0.0
C271 C 0.52858 0.55724 0.14984 0.0
C272 C 0.50035 0.58567 0.16502 0.0
C273 C 0.53153 0.60981 0.18099 0.0
C274 C 0.56067 0.60662 0.1825 0.0
C275 C 0.55921 0.58066 0.16714 0.0
C276 C 0.5698 0.69722 0.20248 0.0
C277 C 0.54342 0.69522 0.22308 0.0
C278 C 0.56544 0.66961 0.18844 0.0
C279 C 0.5346 0.63912 0.1946 0.0
C280 C 0.50742 0.63711 0.21396 0.0
C281 C 0.51181 0.66496 0.22813 0.0
H282 H 0.8504 0.52427 0.53897 0.0
H283 H 0.94186 0.55381 0.60324 0.0
H284 H 0.82259 0.53386 0.5859 0.0
H285 H 0.91425 0.56425 0.64957 0.0
H286 H 0.85651 0.59805 0.71856 0.0
H287 H 0.88843 0.59845 0.66777 0.0
H288 H 0.80076 0.50274 0.64336 0.0
H289 H 0.76946 0.50206 0.69372 0.0
C290 C 0.86482 0.53307 0.56284 0.0
C291 C 0.89826 0.53761 0.56716 0.0
C292 C 0.84888 0.53873 0.58971 0.0
C293 C 0.86613 0.54956 0.6215 0.0
C294 C 0.90042 0.55612 0.62528 0.0
C295 C 0.91624 0.55009 0.59852 0.0
C296 C 0.8441 0.57725 0.70215 0.0
C297 C 0.81056 0.54998 0.71025 0.0
C298 C 0.86236 0.57743 0.67322 0.0
C299 C 0.84696 0.55069 0.65149 0.0
C300 C 0.81315 0.52385 0.65931 0.0
C301 C 0.79534 0.5234 0.68839 0.0
H302 H 0.47361 0.96874 0.11835 0.0
H303 H 0.42138 0.87778 0.06601 0.0
H304 H 0.44397 0.93981 0.17179 0.0
H305 H 0.39193 0.84924 0.11885 0.0
H306 H 0.3641 0.8023 0.22447 0.0
H307 H 0.40287 0.83438 0.17642 0.0
H308 H 0.38328 0.90934 0.19432 0.0
H309 H 0.34517 0.87772 0.24219 0.0
C310 C 0.45583 0.94268 0.1182 0.0
C311 C 0.44975 0.92566 0.08782 0.0
C312 C 0.43887 0.92609 0.14878 0.0
C313 C 0.41576 0.89215 0.14965 0.0
C314 C 0.41001 0.87527 0.1193 0.0
C315 C 0.42667 0.89177 0.08884 0.0
C316 C 0.36858 0.82584 0.21845 0.0
C317 C 0.35127 0.83727 0.23694 0.0
C318 C 0.39057 0.84414 0.19082 0.0
C319 C 0.39595 0.87434 0.18135 0.0
C320 C 0.37999 0.88636 0.201 0.0
C321 C 0.35788 0.86804 0.22833 0.0
H322 H 0.55786 0.43174 0.57773 0.0
H323 H 0.46158 0.35049 0.53613 0.0
H324 H 0.55371 0.3987 0.62662 0.0
H325 H 0.45903 0.31673 0.58408 0.0
H326 H 0.44389 0.27272 0.69241 0.0
H327 H 0.44667 0.30647 0.6437 0.0
H328 H 0.56052 0.3569 0.6442 0.0
H329 H 0.55775 0.32439 0.69336 0.0
C330 C 0.53587 0.40682 0.57863 0.0
C331 C 0.5098 0.39425 0.5527 0.0
C332 C 0.53375 0.38759 0.60675 0.0
C333 C 0.50594 0.3549 0.60959 0.0
C334 C 0.48047 0.34195 0.58321 0.0
C335 C 0.4823 0.36134 0.55524 0.0
C336 C 0.46947 0.29123 0.68224 0.0
C337 C 0.50056 0.29594 0.69697 0.0
C338 C 0.4711 0.31041 0.65408 0.0
C339 C 0.50385 0.33452 0.6398 0.0
C340 C 0.53484 0.33911 0.65472 0.0
C341 C 0.53322 0.32027 0.68297 0.0
H342 H 0.63922 0.99932 0.39648 0.0
H343 H 0.53849 0.93566 0.44591 0.0
H344 H 0.63147 0.95414 0.36515 0.0
H345 H 0.53177 0.89007 0.41598 0.0
H346 H 0.51573 0.82104 0.32955 0.0
H347 H 0.52081 0.86552 0.36122 0.0
H348 H 0.63281 0.90727 0.37389 0.0
H349 H 0.62789 0.86374 0.34142 0.0
C350 C 0.61541 0.97578 0.4008 0.0
C351 C 0.58961 0.97145 0.42401 0.0
C352 C 0.61115 0.94962 0.38308 0.0
C353 C 0.58112 0.91823 0.38819 0.0
C354 C 0.55514 0.91387 0.41114 0.0
C355 C 0.55927 0.9401 0.42874 0.0
C356 C 0.54136 0.83967 0.33928 0.0
C357 C 0.57142 0.83895 0.33271 0.0
C358 C 0.54429 0.86514 0.35755 0.0
C359 C 0.57733 0.89031 0.36987 0.0
C360 C 0.6071 0.88888 0.3641 0.0
C361 C 0.60422 0.8637 0.34565 0.0
H362 H 0.62106 0.57786 1.00593 0.0
H363 H 0.53394 0.50508 0.94542 0.0
H364 H 0.66173 0.58787 0.95977 0.0
H365 H 0.57461 0.51562 0.89907 0.0
H366 H 0.65935 0.49929 0.86207 0.0
H367 H 0.61819 0.50034 0.89968 0.0
H368 H 0.68268 0.60475 0.89859 0.0
H369 H 0.72479 0.60381 0.86027 0.0
C370 C 0.61039 0.56464 0.98241 0.0
C371 C 0.57429 0.54016 0.97969 0.0
C372 C 0.63377 0.57053 0.95587 0.0
C373 C 0.62151 0.55206 0.92609 0.0
C374 C 0.58495 0.52977 0.92206 0.0
C375 C 0.56159 0.52387 0.94856 0.0
C376 C 0.66503 0.52264 0.86964 0.0
C377 C 0.69559 0.55152 0.85814 0.0
C378 C 0.64103 0.52319 0.89098 0.0
C379 C 0.64679 0.55262 0.9017 0.0
C380 C 0.67747 0.58168 0.89059 0.0
C381 C 0.70158 0.58115 0.86875 0.0
H382 H 0.03635 0.61224 0.44068 0.0
H383 H 0.09828 0.58082 0.49287 0.0
H384 H 0.08892 0.65577 0.41235 0.0
H385 H 0.1517 0.6252 0.46443 0.0
H386 H 0.22397 0.68258 0.36725 0.0
H387 H 0.17683 0.64112 0.40451 0.0
H388 H 0.14367 0.70639 0.42463 0.0
H389 H 0.18983 0.74719 0.38729 0.0
C390 C 0.06136 0.61491 0.44649 0.0
C391 C 0.0631 0.59309 0.46911 0.0
C392 C 0.09163 0.64004 0.43032 0.0
C393 C 0.12462 0.64411 0.43617 0.0
C394 C 0.12663 0.62261 0.45926 0.0
C395 C 0.09615 0.59744 0.47579 0.0
C396 C 0.20682 0.68812 0.37997 0.0
C397 C 0.21034 0.71802 0.37381 0.0
C398 C 0.17994 0.66444 0.40145 0.0
C399 C 0.15616 0.67028 0.41718 0.0
C400 C 0.16101 0.70081 0.41235 0.0
C401 C 0.1876 0.72427 0.39093 0.0
H402 H 0.455 0.04628 0.95842 0.0
H403 H 0.47324 0.01173 0.86586 0.0
H404 H 0.45475 0.08919 0.92495 0.0
H405 H 0.47387 0.05509 0.83253 0.0
H406 H 0.5319 0.16914 0.81092 0.0
H407 H 0.52209 0.12079 0.84103 0.0
H408 H 0.41723 0.094 0.86835 0.0
H409 H 0.42657 0.14222 0.83704 0.0
C410 C 0.45854 0.0477 0.93088 0.0
C411 C 0.46413 0.02575 0.91468 0.0
C412 C 0.4582 0.07206 0.91177 0.0
C413 C 0.46427 0.07533 0.87624 0.0
C414 C 0.46903 0.05295 0.85991 0.0
C415 C 0.46853 0.02813 0.87889 0.0
C416 C 0.50666 0.15293 0.82322 0.0
C417 C 0.48002 0.15952 0.82173 0.0
C418 C 0.50103 0.12518 0.84024 0.0
C419 C 0.46891 0.10372 0.85684 0.0
C420 C 0.44221 0.11024 0.85564 0.0
C421 C 0.44752 0.13771 0.83775 0.0
H422 H 0.37493 0.43568 0.48978 0.0
H423 H 0.46006 0.52621 0.44649 0.0
H424 H 0.3334 0.4379 0.4506 0.0
H425 H 0.41895 0.52789 0.40673 0.0
H426 H 0.33265 0.53473 0.35433 0.0
H427 H 0.37098 0.53472 0.39939 0.0
H428 H 0.31879 0.43119 0.39113 0.0
H429 H 0.27991 0.43111 0.34704 0.0
C430 C 0.38478 0.45613 0.47206 0.0
C431 C 0.42088 0.48066 0.47126 0.0
C432 C 0.361 0.45729 0.44936 0.0
C433 C 0.37276 0.48294 0.42518 0.0
C434 C 0.40874 0.50795 0.42517 0.0
C435 C 0.43243 0.50687 0.44794 0.0
C436 C 0.32928 0.51196 0.36225 0.0
C437 C 0.30322 0.48294 0.34697 0.0
C438 C 0.35138 0.51195 0.38802 0.0
C439 C 0.34809 0.48294 0.39903 0.0
C440 C 0.32178 0.45393 0.38386 0.0
C441 C 0.29961 0.45392 0.35829 0.0
H442 H 0.04359 0.45747 0.91255 0.0
H443 H 0.95862 0.47331 0.90995 0.0
H444 H 1.00369 0.40312 0.88982 0.0
H445 H 0.91918 0.41999 0.88641 0.0
H446 H 0.84466 0.3148 0.88158 0.0
H447 H 0.88926 0.36586 0.90675 0.0
H448 H 0.9685 0.37082 0.84151 0.0
H449 H 0.92359 0.31852 0.81738 0.0
C450 C 1.01658 0.44953 0.90642 0.0
C451 C 1.00402 0.46939 0.91327 0.0
C452 C 0.99368 0.41841 0.89352 0.0
C453 C 0.95791 0.40675 0.88703 0.0
C454 C 0.94615 0.42755 0.89221 0.0
C455 C 0.9688 0.45827 0.90539 0.0
C456 C 0.87179 0.32643 0.87323 0.0
C457 C 0.88068 0.3128 0.84751 0.0
C458 C 0.89733 0.35595 0.88729 0.0
C459 C 0.93237 0.37307 0.87544 0.0
C460 C 0.94179 0.35839 0.85123 0.0
C461 C 0.91614 0.32838 0.83748 0.0
H462 H 0.95906 0.59149 0.95683 0.0
H463 H 0.91785 0.49172 0.98448 0.0
H464 H 0.90482 0.57573 0.92668 0.0
H465 H 0.86231 0.47554 0.95428 0.0
H466 H 0.79674 0.46534 0.85162 0.0
H467 H 0.84191 0.4733 0.89381 0.0
H468 H 0.84388 0.5552 0.93346 0.0
H469 H 0.80036 0.54804 0.89082 0.0
C470 C 0.93791 0.56614 0.95715 0.0
C471 C 0.94266 0.5429 0.97322 0.0
C472 C 0.9066 0.55703 0.93991 0.0
C473 C 0.87893 0.5243 0.93804 0.0
C474 C 0.88312 0.50094 0.95509 0.0
C475 C 0.91468 0.5102 0.97276 0.0
C476 C 0.80651 0.48465 0.86979 0.0
C477 C 0.79559 0.50646 0.86751 0.0
C478 C 0.83227 0.48917 0.89406 0.0
C479 C 0.84713 0.51533 0.91664 0.0
C480 C 0.83386 0.53538 0.91591 0.0
C481 C 0.80878 0.53121 0.8915 0.0
H482 H 0.46321 0.01619 0.43714 0.0
H483 H 0.45947 0.94572 0.50862 0.0
H484 H 0.40941 0.97406 0.40987 0.0
H485 H 0.40466 0.90328 0.48169 0.0
H486 H 0.34773 0.83658 0.38891 0.0
H487 H 0.39142 0.87652 0.42765 0.0
H488 H 0.34699 0.93455 0.412 0.0
H489 H 0.30345 0.89462 0.37226 0.0
C490 C 0.45046 0.99173 0.44754 0.0
C491 C 0.46593 0.98428 0.47483 0.0
C492 C 0.41932 0.96753 0.432 0.0
C493 C 0.40272 0.93512 0.44329 0.0
C494 C 0.41704 0.92792 0.47196 0.0
C495 C 0.4483 0.95226 0.48761 0.0
C496 C 0.34693 0.85767 0.39391 0.0
C497 C 0.32225 0.86252 0.37707 0.0
C498 C 0.37189 0.88051 0.4165 0.0
C499 C 0.37293 0.90891 0.42298 0.0
C500 C 0.34727 0.91316 0.40728 0.0
C501 C 0.32219 0.89021 0.38459 0.0
H502 H 0.55015 0.37905 0.01842 0.0
H503 H 0.48303 0.39567 0.95288 0.0
H504 H 0.55673 0.35016 0.97231 0.0
H505 H 0.49034 0.36765 0.90669 0.0
H506 H 0.47613 0.28295 0.84747 0.0
H507 H 0.47163 0.31227 0.89397 0.0
H508 H 0.58325 0.35908 0.91434 0.0
H509 H 0.5878 0.32931 0.86768 0.0
C510 C 0.53675 0.37653 0.99425 0.0
C511 C 0.51594 0.38964 0.98949 0.0
C512 C 0.54086 0.36027 0.96768 0.0
C513 C 0.524 0.3565 0.93581 0.0
C514 C 0.50339 0.36978 0.93102 0.0
C515 C 0.49947 0.38616 0.95745 0.0
C516 C 0.4998 0.29945 0.8618 0.0
C517 C 0.53237 0.30377 0.85371 0.0
C518 C 0.49723 0.31644 0.88839 0.0
C519 C 0.5271 0.3382 0.9078 0.0
C520 C 0.55967 0.34233 0.90005 0.0
C521 C 0.56231 0.32539 0.8732 0.0
H522 H 0.98959 0.40098 0.43068 0.0
H523 H 0.0537 0.50325 0.40635 0.0
H524 H 0.03186 0.39329 0.40145 0.0
H525 H 0.09561 0.49564 0.37694 0.0
H526 H 0.18374 0.48163 0.36163 0.0
H527 H 0.13901 0.48367 0.39282 0.0
H528 H 0.05756 0.3952 0.34571 0.0
H529 H 0.1029 0.39276 0.31488 0.0
C530 C 1.0124 0.42174 0.41865 0.0
C531 C 0.01845 0.45282 0.42111 0.0
C532 C 0.03667 0.41733 0.40194 0.0
C533 C 0.06746 0.4439 0.38731 0.0
C534 C 0.07271 0.47474 0.38874 0.0
C535 C 0.04861 0.47913 0.40549 0.0
C536 C 0.15633 0.46233 0.35823 0.0
C537 C 0.14683 0.43718 0.33555 0.0
C538 C 0.13061 0.46366 0.3759 0.0
C539 C 0.09459 0.44005 0.37115 0.0
C540 C 0.08508 0.41381 0.34993 0.0
C541 C 0.11101 0.41235 0.33233 0.0
H542 H 0.64096 0.054 0.95526 0.0
H543 H 0.58249 0.09423 0.98896 0.0
H544 H 0.68399 0.10521 0.92786 0.0
H545 H 0.62624 0.14641 0.96138 0.0
H546 H 0.67917 0.20637 0.85697 0.0
H547 H 0.64148 0.16535 0.90032 0.0
H548 H 0.73011 0.16102 0.93581 0.0
H549 H 0.7672 0.20098 0.89203 0.0
C550 C 0.6379 0.07421 0.95756 0.0
C551 C 0.6085 0.07022 0.97426 0.0
C552 C 0.66268 0.1037 0.94196 0.0
C553 C 0.65862 0.13001 0.94236 0.0
C554 C 0.63 0.12653 0.96049 0.0
C555 C 0.60523 0.09687 0.97659 0.0
C556 C 0.69068 0.19708 0.87452 0.0
C557 C 0.72591 0.20636 0.87066 0.0
C558 C 0.66916 0.17371 0.89949 0.0
C559 C 0.68265 0.1595 0.92117 0.0
C560 C 0.71867 0.17091 0.91902 0.0
C561 C 0.73995 0.19385 0.89394 0.0
H562 H 0.54423 0.59062 0.41859 0.0
H563 H 0.65506 0.63181 0.43891 0.0
H564 H 0.55821 0.64068 0.3904 0.0
H565 H 0.66917 0.68235 0.40976 0.0
H566 H 0.66763 0.74775 0.31475 0.0
H567 H 0.66474 0.70404 0.34968 0.0
H568 H 0.58122 0.69657 0.40987 0.0
H569 H 0.58375 0.73954 0.37498 0.0
C570 C 0.57162 0.61044 0.41735 0.0
C571 C 0.59842 0.60724 0.43166 0.0
C572 C 0.57965 0.63922 0.4011 0.0
C573 C 0.61475 0.66572 0.39848 0.0
C574 C 0.64186 0.66236 0.41156 0.0
C575 C 0.63376 0.63339 0.42813 0.0
C576 C 0.64954 0.73746 0.3362 0.0
C577 C 0.62562 0.74675 0.34192 0.0
C578 C 0.64777 0.71237 0.35608 0.0
C579 C 0.62214 0.69637 0.38193 0.0
C580 C 0.60064 0.70789 0.38957 0.0
C581 C 0.60228 0.73267 0.36975 0.0
H582 H 0.61188 0.12915 0.60487 0.0
H583 H 0.57232 0.16863 0.53038 0.0
H584 H 0.60921 0.16152 0.64942 0.0
H585 H 0.57027 0.20153 0.57482 0.0
H586 H 0.51691 0.2073 0.67236 0.0
H587 H 0.53057 0.18514 0.62495 0.0
H588 H 0.63247 0.21769 0.67012 0.0
H589 H 0.61868 0.24012 0.71817 0.0
C590 C 0.60298 0.14503 0.59795 0.0
C591 C 0.59177 0.14597 0.56422 0.0
C592 C 0.60184 0.16385 0.62339 0.0
C593 C 0.58922 0.18385 0.6157 0.0
C594 C 0.57974 0.18604 0.58159 0.0
C595 C 0.58115 0.1674 0.55608 0.0
C596 C 0.54236 0.20996 0.67223 0.0
C597 C 0.56663 0.2253 0.6992 0.0
C598 C 0.55032 0.19751 0.6448 0.0
C599 C 0.58266 0.19978 0.64368 0.0
C600 C 0.60727 0.21551 0.67037 0.0
C601 C 0.59944 0.22841 0.69778 0.0
H602 H 0.38507 0.39346 0.1236 0.0
H603 H 0.40053 0.47486 0.06274 0.0
H604 H 0.33814 0.39175 0.15511 0.0
H605 H 0.3528 0.4727 0.09391 0.0
H606 H 0.24232 0.38608 0.19769 0.0
H607 H 0.27961 0.38238 0.15579 0.0
H608 H 0.34807 0.4866 0.15163 0.0
H609 H 0.31076 0.49031 0.19266 0.0
C610 C 0.3779 0.41056 0.11638 0.0
C611 C 0.39685 0.43451 0.09084 0.0
C612 C 0.35077 0.40945 0.13439 0.0
C613 C 0.34187 0.43231 0.12739 0.0
C614 C 0.35937 0.45506 0.10038 0.0
C615 C 0.38652 0.45611 0.08226 0.0
C616 C 0.26514 0.40817 0.18756 0.0
C617 C 0.2736 0.43846 0.19877 0.0
C618 C 0.2866 0.40607 0.16361 0.0
C619 C 0.3169 0.4342 0.15024 0.0
C620 C 0.3247 0.46443 0.16085 0.0
C621 C 0.3034 0.46653 0.18475 0.0
H622 H 0.95021 0.4884 0.64945 0.0
H623 H 0.95319 0.42397 0.57879 0.0
H624 H 0.90977 0.44213 0.68619 0.0
H625 H 0.91225 0.37789 0.61496 0.0
H626 H 0.86718 0.30617 0.7053 0.0
H627 H 0.90789 0.35215 0.66922 0.0
H628 H 0.84855 0.39577 0.68636 0.0
H629 H 0.80794 0.34971 0.7236 0.0
C630 C 0.94261 0.46444 0.64193 0.0
C631 C 0.95508 0.45996 0.61118 0.0
C632 C 0.91902 0.43788 0.66277 0.0
C633 C 0.90742 0.40623 0.65337 0.0
C634 C 0.92079 0.4019 0.62316 0.0
C635 C 0.94434 0.4284 0.60238 0.0
C636 C 0.86248 0.32537 0.70123 0.0
C637 C 0.83422 0.32421 0.71743 0.0
C638 C 0.88588 0.35177 0.68037 0.0
C639 C 0.88167 0.37779 0.67497 0.0
C640 C 0.85288 0.37634 0.69043 0.0
C641 C 0.82934 0.34979 0.71142 0.0
H642 H 0.6008 0.95726 0.07882 0.0
H643 H 0.54323 0.8694 0.02132 0.0
H644 H 0.61674 0.93007 0.12164 0.0
H645 H 0.55968 0.84235 0.0638 0.0
H646 H 0.54643 0.79805 0.17397 0.0
H647 H 0.54023 0.82556 0.12432 0.0
H648 H 0.65004 0.90273 0.13294 0.0
H649 H 0.65637 0.87489 0.18317 0.0
C650 C 0.59189 0.93224 0.07514 0.0
C651 C 0.57037 0.91537 0.04689 0.0
C652 C 0.60136 0.91678 0.09945 0.0
C653 C 0.58928 0.88401 0.09621 0.0
C654 C 0.56912 0.86755 0.06715 0.0
C655 C 0.5599 0.8831 0.04268 0.0
C656 C 0.56943 0.82074 0.16518 0.0
C657 C 0.60187 0.8344 0.18266 0.0
C658 C 0.56591 0.83638 0.13648 0.0
C659 C 0.59464 0.86628 0.12464 0.0
C660 C 0.6274 0.87974 0.1416 0.0
C661 C 0.63107 0.86377 0.1702 0.0
H662 H 0.57706 0.54128 0.60347 0.0
H663 H 0.49899 0.44036 0.62519 0.0
H664 H 0.61543 0.54038 0.64738 0.0
H665 H 0.53728 0.43963 0.6699 0.0
H666 H 0.63799 0.44479 0.71451 0.0
H667 H 0.59297 0.44212 0.67558 0.0
H668 H 0.62178 0.53671 0.70766 0.0
H669 H 0.66681 0.53971 0.74513 0.0
C670 C 0.5677 0.51908 0.61819 0.0
C671 C 0.53482 0.49101 0.61091 0.0
C672 C 0.58973 0.51853 0.64348 0.0
C673 C 0.57949 0.4899 0.66228 0.0
C674 C 0.54613 0.462 0.65573 0.0
C675 C 0.52397 0.46258 0.63042 0.0
C676 C 0.63441 0.46481 0.71327 0.0
C677 C 0.65641 0.49269 0.73234 0.0
C678 C 0.60856 0.46328 0.69113 0.0
C679 C 0.60415 0.48949 0.68803 0.0
C680 C 0.62505 0.51649 0.70857 0.0
C681 C 0.65087 0.51815 0.73019 0.0
H682 H 0.1031 0.69876 0.06168 0.0
H683 H 0.12527 0.62923 0.10185 0.0
H684 H 0.12936 0.73117 0.11313 0.0
H685 H 0.15338 0.662 0.15194 0.0
H686 H 0.17591 0.70773 0.25272 0.0
H687 H 0.14309 0.67667 0.20291 0.0
H688 H 0.17963 0.76568 0.14501 0.0
H689 H 0.21031 0.79651 0.19624 0.0
C690 C 0.11408 0.69073 0.0814 0.0
C691 C 0.11188 0.6614 0.07807 0.0
C692 C 0.12925 0.70929 0.11088 0.0
C693 C 0.14319 0.69918 0.13736 0.0
C694 C 0.14191 0.67025 0.13307 0.0
C695 C 0.12609 0.65148 0.10411 0.0
C696 C 0.17619 0.72055 0.2295 0.0
C697 C 0.19547 0.75443 0.2283 0.0
C698 C 0.15783 0.70279 0.20063 0.0
C699 C 0.15928 0.71845 0.16924 0.0
C700 C 0.17754 0.75254 0.16855 0.0
C701 C 0.19518 0.77032 0.19791 0.0
loop_
_geom_bond_atom_site_label_1
_geom_bond_atom_site_label_2
_geom_bond_distance
_geom_bond_site_symmetry_2
_ccdc_geom_bond_type
Cu0 N1 1.998 1_554 S
Cu0 O6 1.997 1_554 S
Cu0 N11 1.984 1_655 S
Cu0 O20 1.936 1_655 S
N1 Cu0 1.998 1_556 S
N1 C3 1.263 . S
N1 C5 1.389 1_556 S
N2 C3 1.358 . S
N2 C4 1.400 . S
C3 N1 1.263 . S
C3 N2 1.358 . S
C3 H9 0.930 . S
C4 N2 1.400 . S
C4 C5 1.351 1_556 S
C4 H21 0.930 . S
C5 N1 1.389 1_554 S
C5 C4 1.351 1_554 S
C5 H10 0.930 . S
O6 Cu0 1.997 1_556 S
O6 C16 1.282 . S
C7 O8 1.261 . S
C7 O20 1.251 . S
O8 C7 1.261 . S
H9 C3 0.930 . S
H10 C5 0.930 . S
N11 Cu0 1.984 1_455 S
N11 C13 1.335 . S
N11 C14 1.390 . S
N12 C13 1.345 . S
N12 C15 1.336 . S
C13 N11 1.335 . S
C13 N12 1.345 . S
C13 H18 0.930 . S
C14 N11 1.390 . S
C14 C15 1.346 . S
C14 H19 0.930 1_554 S
C15 N12 1.336 . S
C15 C14 1.346 . S
C15 H22 0.929 . S
C16 O6 1.282 . S
C16 O17 1.216 1_655 S
O17 C16 1.216 1_455 S
H18 C13 0.930 . S
H19 C14 0.930 1_556 S
O20 Cu0 1.936 1_455 S
O20 C7 1.251 . S
H21 C4 0.930 . S
H22 C15 0.929 . S
Cu23 N24 1.999 . S
Cu23 O29 1.974 . S
Cu23 N34 1.985 1_565 S
Cu23 O43 1.959 1_565 S
N24 Cu23 1.999 . S
N24 C26 1.263 . S
N24 C28 1.389 . S
N25 C26 1.358 . S
N25 C27 1.400 . S
C26 N24 1.263 . S
C26 N25 1.358 . S
C26 H32 0.930 . S
C27 N25 1.400 . S
C27 C28 1.351 . S
C27 H44 0.930 . S
C28 N24 1.389 . S
C28 C27 1.351 . S
C28 H33 0.930 . S
O29 Cu23 1.974 . S
O29 C39 1.282 . S
C30 O31 1.261 . S
C30 O43 1.251 . S
O31 C30 1.261 . S
H32 C26 0.930 . S
H33 C28 0.930 . S
N34 Cu23 1.985 1_545 S
N34 C36 1.335 . S
N34 C37 1.390 . S
N35 C36 1.345 . S
N35 C38 1.336 . S
C36 N34 1.335 . S
C36 N35 1.345 . S
C36 H41 0.930 . S
C37 N34 1.390 . S
C37 C38 1.346 . S
C37 H42 0.930 . S
C38 N35 1.336 . S
C38 C37 1.346 . S
C38 H45 0.929 . S
C39 O29 1.282 . S
C39 O40 1.216 1_565 S
O40 C39 1.216 1_545 S
H41 C36 0.930 . S
H42 C37 0.930 . S
O43 Cu23 1.959 1_545 S
O43 C30 1.251 . S
H44 C27 0.930 . S
H45 C38 0.929 . S
Cu46 N47 1.999 1_554 S
Cu46 O52 1.974 1_554 S
Cu46 N57 1.985 . S
Cu46 O66 1.959 . S
N47 Cu46 1.999 1_556 S
N47 C49 1.263 . S
N47 C51 1.389 . S
N48 C49 1.358 . S
N48 C50 1.400 . S
C49 N47 1.263 . S
C49 N48 1.358 . S
C49 H55 0.930 . S
C50 N48 1.400 . S
C50 C51 1.351 . S
C50 H67 0.930 . S
C51 N47 1.389 . S
C51 C50 1.351 . S
C51 H56 0.930 . S
O52 Cu46 1.974 1_556 S
O52 C62 1.282 . S
C53 O54 1.261 . S
C53 O66 1.251 . S
O54 C53 1.261 . S
H55 C49 0.930 . S
H56 C51 0.930 . S
N57 Cu46 1.985 . S
N57 C59 1.335 . S
N57 C60 1.390 . S
N58 C59 1.345 . S
N58 C61 1.336 . S
C59 N57 1.335 . S
C59 N58 1.345 . S
C59 H64 0.930 . S
C60 N57 1.390 . S
C60 C61 1.346 . S
C60 H65 0.930 . S
C61 N58 1.336 . S
C61 C60 1.346 . S
C61 H68 0.929 . S
C62 O52 1.282 . S
C62 O63 1.216 1_556 S
O63 C62 1.216 1_554 S
H64 C59 0.930 . S
H65 C60 0.930 . S
O66 Cu46 1.959 . S
O66 C53 1.251 . S
H67 C50 0.930 . S
H68 C61 0.929 . S
Cu69 N70 1.999 1_655 S
Cu69 O75 1.974 1_655 S
Cu69 N80 1.985 . S
Cu69 O89 1.959 . S
N70 Cu69 1.999 1_455 S
N70 C72 1.263 . S
N70 C74 1.389 1_455 S
N71 C72 1.358 . S
N71 C73 1.400 . S
C72 N70 1.263 . S
C72 N71 1.358 . S
C72 H78 0.930 . S
C73 N71 1.400 . S
C73 C74 1.351 1_455 S
C73 H90 0.930 1_455 S
C74 N70 1.389 1_655 S
C74 C73 1.351 1_655 S
C74 H79 0.930 . S
O75 Cu69 1.974 1_455 S
O75 C85 1.282 . S
C76 O77 1.261 1_655 S
C76 O89 1.251 . S
O77 C76 1.261 1_455 S
H78 C72 0.930 . S
H79 C74 0.930 . S
N80 Cu69 1.985 . S
N80 C82 1.335 . S
N80 C83 1.390 . S
N81 C82 1.345 . S
N81 C84 1.336 . S
C82 N80 1.335 . S
C82 N81 1.345 . S
C82 H87 0.930 . S
C83 N80 1.390 . S
C83 C84 1.346 . S
C83 H88 0.930 1_655 S
C84 N81 1.336 . S
C84 C83 1.346 . S
C84 H91 0.929 . S
C85 O75 1.282 . S
C85 O86 1.216 . S
O86 C85 1.216 . S
H87 C82 0.930 . S
H88 C83 0.930 1_455 S
O89 Cu69 1.959 . S
O89 C76 1.251 . S
H90 C73 0.930 1_655 S
H91 C84 0.929 . S
Cu92 N93 1.998 1_554 S
Cu92 O98 1.974 1_554 S
Cu92 N103 1.985 1_545 S
Cu92 O112 1.959 1_545 S
N93 Cu92 1.998 1_556 S
N93 C95 1.267 . S
N93 C97 1.387 1_556 S
N94 C95 1.358 . S
N94 C96 1.400 . S
C95 N93 1.267 . S
C95 N94 1.358 . S
C95 H101 0.930 . S
C96 N94 1.400 . S
C96 C97 1.351 1_556 S
C96 H113 0.930 . S
C97 N93 1.387 1_554 S
C97 C96 1.351 1_554 S
C97 H102 0.930 . S
O98 Cu92 1.974 1_556 S
O98 C108 1.282 . S
C99 O100 1.261 . S
C99 O112 1.251 . S
O100 C99 1.261 . S
H101 C95 0.930 . S
H102 C97 0.930 . S
N103 Cu92 1.985 1_565 S
N103 C105 1.335 . S
N103 C106 1.390 . S
N104 C105 1.345 . S
N104 C107 1.336 . S
C105 N103 1.335 . S
C105 N104 1.345 . S
C105 H110 0.930 . S
C106 N103 1.390 . S
C106 C107 1.346 . S
C106 H111 0.937 . S
C107 N104 1.336 . S
C107 C106 1.346 . S
C107 H114 0.929 . S
C108 O98 1.282 . S
C108 O109 1.216 . S
O109 C108 1.216 . S
H110 C105 0.930 . S
H111 C106 0.937 . S
O112 Cu92 1.959 1_565 S
O112 C99 1.251 . S
H113 C96 0.930 . S
H114 C107 0.929 . S
Cu115 N116 1.999 . S
Cu115 O121 1.974 . S
Cu115 N126 1.985 . S
Cu115 O135 1.959 . S
N116 Cu115 1.999 . S
N116 C118 1.263 . S
N116 C120 1.389 . S
N117 C118 1.358 . S
N117 C119 1.400 . S
C118 N116 1.263 . S
C118 N117 1.358 . S
C118 H124 0.930 . S
C119 N117 1.400 . S
C119 C120 1.351 . S
C119 H136 0.930 . S
C120 N116 1.389 . S
C120 C119 1.351 . S
C120 H125 0.930 . S
O121 Cu115 1.974 . S
O121 C131 1.282 . S
C122 O123 1.261 . S
C122 O135 1.251 . S
O123 C122 1.261 . S
H124 C118 0.930 . S
H125 C120 0.930 . S
N126 Cu115 1.985 . S
N126 C128 1.335 . S
N126 C129 1.390 . S
N127 C128 1.345 . S
N127 C130 1.336 . S
C128 N126 1.335 . S
C128 N127 1.345 . S
C128 H133 0.930 . S
C129 N126 1.390 . S
C129 C130 1.346 . S
C129 H134 0.930 . S
C130 N127 1.336 . S
C130 C129 1.346 . S
C130 H137 0.929 . S
C131 O121 1.282 . S
C131 O132 1.216 . S
O132 C131 1.216 . S
H133 C128 0.930 . S
H134 C129 0.930 . S
O135 Cu115 1.959 . S
O135 C122 1.251 . S
H136 C119 0.930 . S
H137 C130 0.929 . S
C138 O140 1.247 . S
C138 O142 1.258 . S
C139 O146 1.247 . S
C139 O147 1.258 . S
O140 C138 1.247 . S
O140 Zn141 2.028 . S
Zn141 O140 2.028 . S
Zn141 O145 2.035 . S
Zn141 O147 2.035 . S
Zn141 O148 2.028 . S
O142 C138 1.258 . S
O142 Zn143 2.035 . S
Zn143 O142 2.035 . S
Zn143 O144 2.028 . S
Zn143 O146 2.028 . S
Zn143 O149 2.035 . S
O144 Zn143 2.028 . S
O144 C150 1.247 . S
O145 Zn141 2.035 . S
O145 C150 1.258 . S
O146 C139 1.247 . S
O146 Zn143 2.028 . S
O147 C139 1.258 . S
O147 Zn141 2.035 . S
O148 Zn141 2.028 . S
O148 C151 1.247 . S
O149 Zn143 2.035 . S
O149 C151 1.258 . S
C150 O144 1.247 . S
C150 O145 1.258 . S
C151 O148 1.247 . S
C151 O149 1.258 . S
C152 O154 1.247 . S
C152 O156 1.258 . S
C153 O160 1.247 . S
C153 O161 1.258 . S
O154 C152 1.247 . S
O154 Zn155 2.028 . S
Zn155 O154 2.028 . S
Zn155 O159 2.035 . S
Zn155 O161 2.035 . S
Zn155 O162 2.028 . S
O156 C152 1.258 . S
O156 Zn157 2.035 . S
Zn157 O156 2.035 . S
Zn157 O158 2.028 . S
Zn157 O160 2.028 . S
Zn157 O163 2.035 . S
O158 Zn157 2.028 . S
O158 C164 1.247 . S
O159 Zn155 2.035 . S
O159 C164 1.258 . S
O160 C153 1.247 . S
O160 Zn157 2.028 . S
O161 C153 1.258 . S
O161 Zn155 2.035 . S
O162 Zn155 2.028 . S
O162 C165 1.247 . S
O163 Zn157 2.035 . S
O163 C165 1.258 . S
C164 O158 1.247 . S
C164 O159 1.258 . S
C165 O162 1.247 . S
C165 O163 1.258 . S
C166 O168 1.247 . S
C166 O170 1.258 . S
C167 O174 1.247 . S
C167 O175 1.258 . S
O168 C166 1.247 . S
O168 Zn169 2.028 . S
Zn169 O168 2.028 . S
Zn169 O173 2.035 . S
Zn169 O175 2.035 . S
Zn169 O176 2.028 . S
O170 C166 1.258 . S
O170 Zn171 2.035 . S
Zn171 O170 2.035 . S
Zn171 O172 2.028 . S
Zn171 O174 2.028 . S
Zn171 O177 2.035 . S
O172 Zn171 2.028 . S
O172 C178 1.247 . S
O173 Zn169 2.035 . S
O173 C178 1.258 . S
O174 C167 1.247 . S
O174 Zn171 2.028 . S
O175 C167 1.258 . S
O175 Zn169 2.035 . S
O176 Zn169 2.028 . S
O176 C179 1.247 . S
O177 Zn171 2.035 . S
O177 C179 1.258 . S
C178 O172 1.247 . S
C178 O173 1.258 . S
C179 O176 1.247 . S
C179 O177 1.258 . S
C180 O182 1.247 . S
C180 O184 1.258 . S
C181 O188 1.247 . S
C181 O189 1.258 . S
O182 C180 1.247 . S
O182 Zn183 2.028 . S
Zn183 O182 2.028 . S
Zn183 O187 2.035 . S
Zn183 O189 2.035 . S
Zn183 O190 2.028 . S
O184 C180 1.258 . S
O184 Zn185 2.035 . S
Zn185 O184 2.035 . S
Zn185 O186 2.028 . S
Zn185 O188 2.028 . S
Zn185 O191 2.035 . S
O186 Zn185 2.028 . S
O186 C192 1.247 . S
O187 Zn183 2.035 . S
O187 C192 1.258 . S
O188 C181 1.247 . S
O188 Zn185 2.028 . S
O189 C181 1.258 . S
O189 Zn183 2.035 . S
O190 Zn183 2.028 . S
O190 C193 1.247 . S
O191 Zn185 2.035 . S
O191 C193 1.258 . S
C192 O186 1.247 . S
C192 O187 1.258 . S
C193 O190 1.247 . S
C193 O191 1.258 . S
C194 O196 1.247 . S
C194 O198 1.258 . S
C195 O202 1.247 . S
C195 O203 1.258 . S
O196 C194 1.247 . S
O196 Zn197 2.028 . S
Zn197 O196 2.028 . S
Zn197 O201 2.035 . S
Zn197 O203 2.035 . S
Zn197 O204 2.028 . S
O198 C194 1.258 . S
O198 Zn199 2.035 . S
Zn199 O198 2.035 . S
Zn199 O200 2.028 . S
Zn199 O202 2.028 . S
Zn199 O205 2.035 . S
O200 Zn199 2.028 . S
O200 C206 1.247 . S
O201 Zn197 2.035 . S
O201 C206 1.258 . S
O202 C195 1.247 . S
O202 Zn199 2.028 . S
O203 C195 1.258 . S
O203 Zn197 2.035 . S
O204 Zn197 2.028 . S
O204 C207 1.247 . S
O205 Zn199 2.035 . S
O205 C207 1.258 . S
C206 O200 1.247 . S
C206 O201 1.258 . S
C207 O204 1.247 . S
C207 O205 1.258 . S
C208 O210 1.247 . S
C208 O212 1.258 . S
C209 O216 1.247 . S
C209 O217 1.258 . S
O210 C208 1.247 . S
O210 Zn211 2.028 . S
Zn211 O210 2.028 . S
Zn211 O215 2.035 . S
Zn211 O217 2.035 . S
Zn211 O218 2.028 . S
O212 C208 1.258 . S
O212 Zn213 2.035 . S
Zn213 O212 2.035 . S
Zn213 O214 2.028 . S
Zn213 O216 2.028 . S
Zn213 O219 2.035 . S
O214 Zn213 2.028 . S
O214 C220 1.247 . S
O215 Zn211 2.035 . S
O215 C220 1.258 . S
O216 C209 1.247 . S
O216 Zn213 2.028 . S
O217 C209 1.258 . S
O217 Zn211 2.035 . S
O218 Zn211 2.028 . S
O218 C221 1.247 . S
O219 Zn213 2.035 . S
O219 C221 1.258 . S
C220 O214 1.247 . S
C220 O215 1.258 . S
C221 O218 1.247 . S
C221 O219 1.258 . S
H222 C230 0.950 . S
H223 C235 0.950 . S
H224 C232 0.950 . S
H225 C234 0.950 . S
H226 C236 0.950 . S
H227 C238 0.950 . S
H228 C240 0.950 . S
H229 C241 0.950 . S
C230 H222 0.950 . S
C230 C231 1.386 . S
C230 C232 1.391 . S
C231 C230 1.386 . S
C231 C235 1.393 . S
C232 H224 0.950 . S
C232 C230 1.391 . S
C232 C233 1.400 . S
C233 C232 1.400 . S
C233 C234 1.398 . S
C233 C239 1.491 . S
C234 H225 0.950 . S
C234 C233 1.398 . S
C234 C235 1.391 . S
C235 H223 0.950 . S
C235 C231 1.393 . S
C235 C234 1.391 . S
C236 H226 0.950 . S
C236 C237 1.386 . S
C236 C238 1.391 . S
C237 C236 1.386 . S
C237 C241 1.393 . S
C238 H227 0.950 . S
C238 C236 1.391 . S
C238 C239 1.400 . S
C239 C233 1.491 . S
C239 C238 1.400 . S
C239 C240 1.398 . S
C240 H228 0.950 . S
C240 C239 1.398 . S
C240 C241 1.391 . S
C241 H229 0.950 . S
C241 C237 1.393 . S
C241 C240 1.391 . S
H242 C250 0.950 . S
H243 C255 0.950 . S
H244 C252 0.950 . S
H245 C254 0.950 . S
H246 C256 0.950 . S
H247 C258 0.950 . S
H248 C260 0.950 . S
H249 C261 0.950 . S
C250 H242 0.950 . S
C250 C251 1.386 . S
C250 C252 1.391 . S
C251 C250 1.386 . S
C251 C255 1.393 . S
C252 H244 0.950 . S
C252 C250 1.391 . S
C252 C253 1.400 . S
C253 C252 1.400 . S
C253 C254 1.398 . S
C253 C259 1.491 . S
C254 H245 0.950 . S
C254 C253 1.398 . S
C254 C255 1.391 . S
C255 H243 0.950 . S
C255 C251 1.393 . S
C255 C254 1.391 . S
C256 H246 0.950 . S
C256 C257 1.386 . S
C256 C258 1.391 . S
C257 C256 1.386 . S
C257 C261 1.393 . S
C258 H247 0.950 . S
C258 C256 1.391 . S
C258 C259 1.400 . S
C259 C253 1.491 . S
C259 C258 1.400 . S
C259 C260 1.398 . S
C260 H248 0.950 . S
C260 C259 1.398 . S
C260 C261 1.391 . S
C261 H249 0.950 . S
C261 C257 1.393 . S
C261 C260 1.391 . S
H262 C270 0.950 . S
H263 C275 0.950 . S
H264 C272 0.950 . S
H265 C274 0.950 . S
H266 C276 0.950 . S
H267 C278 0.950 . S
H268 C280 0.950 . S
H269 C281 0.950 . S
C270 H262 0.950 . S
C270 C271 1.386 . S
C270 C272 1.391 . S
C271 C270 1.386 . S
C271 C275 1.393 . S
C272 H264 0.950 . S
C272 C270 1.391 . S
C272 C273 1.400 . S
C273 C272 1.400 . S
C273 C274 1.398 . S
C273 C279 1.491 . S
C274 H265 0.950 . S
C274 C273 1.398 . S
C274 C275 1.391 . S
C275 H263 0.950 . S
C275 C271 1.393 . S
C275 C274 1.391 . S
C276 H266 0.950 . S
C276 C277 1.386 . S
C276 C278 1.391 . S
C277 C276 1.386 . S
C277 C281 1.393 . S
C278 H267 0.950 . S
C278 C276 1.391 . S
C278 C279 1.400 . S
C279 C273 1.491 . S
C279 C278 1.400 . S
C279 C280 1.398 . S
C280 H268 0.950 . S
C280 C279 1.398 . S
C280 C281 1.391 . S
C281 H269 0.950 . S
C281 C277 1.393 . S
C281 C280 1.391 . S
H282 C290 0.950 . S
H283 C295 0.950 . S
H284 C292 0.950 . S
H285 C294 0.950 . S
H286 C296 0.950 . S
H287 C298 0.950 . S
H288 C300 0.950 . S
H289 C301 0.950 . S
C290 H282 0.950 . S
C290 C291 1.386 . S
C290 C292 1.391 . S
C291 C290 1.386 . S
C291 C295 1.393 . S
C292 H284 0.950 . S
C292 C290 1.391 . S
C292 C293 1.400 . S
C293 C292 1.400 . S
C293 C294 1.398 . S
C293 C299 1.491 . S
C294 H285 0.950 . S
C294 C293 1.398 . S
C294 C295 1.391 . S
C295 H283 0.950 . S
C295 C291 1.393 . S
C295 C294 1.391 . S
C296 H286 0.950 . S
C296 C297 1.386 . S
C296 C298 1.391 . S
C297 C296 1.386 . S
C297 C301 1.393 . S
C298 H287 0.950 . S
C298 C296 1.391 . S
C298 C299 1.400 . S
C299 C293 1.491 . S
C299 C298 1.400 . S
C299 C300 1.398 . S
C300 H288 0.950 . S
C300 C299 1.398 . S
C300 C301 1.391 . S
C301 H289 0.950 . S
C301 C297 1.393 . S
C301 C300 1.391 . S
H302 C310 0.950 . S
H303 C315 0.950 . S
H304 C312 0.950 . S
H305 C314 0.950 . S
H306 C316 0.950 . S
H307 C318 0.950 . S
H308 C320 0.950 . S
H309 C321 0.950 . S
C310 H302 0.950 . S
C310 C311 1.386 . S
C310 C312 1.391 . S
C311 C310 1.386 . S
C311 C315 1.393 . S
C312 H304 0.950 . S
C312 C310 1.391 . S
C312 C313 1.400 . S
C313 C312 1.400 . S
C313 C314 1.398 . S
C313 C319 1.491 . S
C314 H305 0.950 . S
C314 C313 1.398 . S
C314 C315 1.391 . S
C315 H303 0.950 . S
C315 C311 1.393 . S
C315 C314 1.391 . S
C316 H306 0.950 . S
C316 C317 1.386 . S
C316 C318 1.391 . S
C317 C316 1.386 . S
C317 C321 1.393 . S
C318 H307 0.950 . S
C318 C316 1.391 . S
C318 C319 1.400 . S
C319 C313 1.491 . S
C319 C318 1.400 . S
C319 C320 1.398 . S
C320 H308 0.950 . S
C320 C319 1.398 . S
C320 C321 1.391 . S
C321 H309 0.950 . S
C321 C317 1.393 . S
C321 C320 1.391 . S
H322 C330 0.950 . S
H323 C335 0.950 . S
H324 C332 0.950 . S
H325 C334 0.950 . S
H326 C336 0.950 . S
H327 C338 0.950 . S
H328 C340 0.950 . S
H329 C341 0.950 . S
C330 H322 0.950 . S
C330 C331 1.386 . S
C330 C332 1.391 . S
C331 C330 1.386 . S
C331 C335 1.393 . S
C332 H324 0.950 . S
C332 C330 1.391 . S
C332 C333 1.400 . S
C333 C332 1.400 . S
C333 C334 1.398 . S
C333 C339 1.491 . S
C334 H325 0.950 . S
C334 C333 1.398 . S
C334 C335 1.391 . S
C335 H323 0.950 . S
C335 C331 1.393 . S
C335 C334 1.391 . S
C336 H326 0.950 . S
C336 C337 1.386 . S
C336 C338 1.391 . S
C337 C336 1.386 . S
C337 C341 1.393 . S
C338 H327 0.950 . S
C338 C336 1.391 . S
C338 C339 1.400 . S
C339 C333 1.491 . S
C339 C338 1.400 . S
C339 C340 1.398 . S
C340 H328 0.950 . S
C340 C339 1.398 . S
C340 C341 1.391 . S
C341 H329 0.950 . S
C341 C337 1.393 . S
C341 C340 1.391 . S
H342 C350 0.950 . S
H343 C355 0.950 . S
H344 C352 0.950 . S
H345 C354 0.950 . S
H346 C356 0.950 . S
H347 C358 0.950 . S
H348 C360 0.950 . S
H349 C361 0.950 . S
C350 H342 0.950 . S
C350 C351 1.386 . S
C350 C352 1.391 . S
C351 C350 1.386 . S
C351 C355 1.393 . S
C352 H344 0.950 . S
C352 C350 1.391 . S
C352 C353 1.400 . S
C353 C352 1.400 . S
C353 C354 1.398 . S
C353 C359 1.491 . S
C354 H345 0.950 . S
C354 C353 1.398 . S
C354 C355 1.391 . S
C355 H343 0.950 . S
C355 C351 1.393 . S
C355 C354 1.391 . S
C356 H346 0.950 . S
C356 C357 1.386 . S
C356 C358 1.391 . S
C357 C356 1.386 . S
C357 C361 1.393 . S
C358 H347 0.950 . S
C358 C356 1.391 . S
C358 C359 1.400 . S
C359 C353 1.491 . S
C359 C358 1.400 . S
C359 C360 1.398 . S
C360 H348 0.950 . S
C360 C359 1.398 . S
C360 C361 1.391 . S
C361 H349 0.950 . S
C361 C357 1.393 . S
C361 C360 1.391 . S
H362 C370 0.950 . S
H363 C375 0.950 . S
H364 C372 0.950 . S
H365 C374 0.950 . S
H366 C376 0.950 . S
H367 C378 0.950 . S
H368 C380 0.950 . S
H369 C381 0.950 . S
C370 H362 0.950 . S
C370 C371 1.386 . S
C370 C372 1.391 . S
C371 C370 1.386 . S
C371 C375 1.393 . S
C372 H364 0.950 . S
C372 C370 1.391 . S
C372 C373 1.400 . S
C373 C372 1.400 . S
C373 C374 1.398 . S
C373 C379 1.491 . S
C374 H365 0.950 . S
C374 C373 1.398 . S
C374 C375 1.391 . S
C375 H363 0.950 . S
C375 C371 1.393 . S
C375 C374 1.391 . S
C376 H366 0.950 . S
C376 C377 1.386 . S
C376 C378 1.391 . S
C377 C376 1.386 . S
C377 C381 1.393 . S
C378 H367 0.950 . S
C378 C376 1.391 . S
C378 C379 1.400 . S
C379 C373 1.491 . S
C379 C378 1.400 . S
C379 C380 1.398 . S
C380 H368 0.950 . S
C380 C379 1.398 . S
C380 C381 1.391 . S
C381 H369 0.950 . S
C381 C377 1.393 . S
C381 C380 1.391 . S
H382 C390 0.950 . S
H383 C395 0.950 . S
H384 C392 0.950 . S
H385 C394 0.950 . S
H386 C396 0.950 . S
H387 C398 0.950 . S
H388 C400 0.950 . S
H389 C401 0.950 . S
C390 H382 0.950 . S
C390 C391 1.386 . S
C390 C392 1.391 . S
C391 C390 1.386 . S
C391 C395 1.393 . S
C392 H384 0.950 . S
C392 C390 1.391 . S
C392 C393 1.400 . S
C393 C392 1.400 . S
C393 C394 1.398 . S
C393 C399 1.491 . S
C394 H385 0.950 . S
C394 C393 1.398 . S
C394 C395 1.391 . S
C395 H383 0.950 . S
C395 C391 1.393 . S
C395 C394 1.391 . S
C396 H386 0.950 . S
C396 C397 1.386 . S
C396 C398 1.391 . S
C397 C396 1.386 . S
C397 C401 1.393 . S
C398 H387 0.950 . S
C398 C396 1.391 . S
C398 C399 1.400 . S
C399 C393 1.491 . S
C399 C398 1.400 . S
C399 C400 1.398 . S
C400 H388 0.950 . S
C400 C399 1.398 . S
C400 C401 1.391 . S
C401 H389 0.950 . S
C401 C397 1.393 . S
C401 C400 1.391 . S
H402 C410 0.950 . S
H403 C415 0.950 . S
H404 C412 0.950 . S
H405 C414 0.950 . S
H406 C416 0.950 . S
H407 C418 0.950 . S
H408 C420 0.950 . S
H409 C421 0.950 . S
C410 H402 0.950 . S
C410 C411 1.386 . S
C410 C412 1.391 . S
C411 C410 1.386 . S
C411 C415 1.393 . S
C412 H404 0.950 . S
C412 C410 1.391 . S
C412 C413 1.400 . S
C413 C412 1.400 . S
C413 C414 1.398 . S
C413 C419 1.491 . S
C414 H405 0.950 . S
C414 C413 1.398 . S
C414 C415 1.391 . S
C415 H403 0.950 . S
C415 C411 1.393 . S
C415 C414 1.391 . S
C416 H406 0.950 . S
C416 C417 1.386 . S
C416 C418 1.391 . S
C417 C416 1.386 . S
C417 C421 1.393 . S
C418 H407 0.950 . S
C418 C416 1.391 . S
C418 C419 1.400 . S
C419 C413 1.491 . S
C419 C418 1.400 . S
C419 C420 1.398 . S
C420 H408 0.950 . S
C420 C419 1.398 . S
C420 C421 1.391 . S
C421 H409 0.950 . S
C421 C417 1.393 . S
C421 C420 1.391 . S
H422 C430 0.950 . S
H423 C435 0.950 . S
H424 C432 0.950 . S
H425 C434 0.950 . S
H426 C436 0.950 . S
H427 C438 0.950 . S
H428 C440 0.950 . S
H429 C441 0.950 . S
C430 H422 0.950 . S
C430 C431 1.386 . S
C430 C432 1.391 . S
C431 C430 1.386 . S
C431 C435 1.393 . S
C432 H424 0.950 . S
C432 C430 1.391 . S
C432 C433 1.400 . S
C433 C432 1.400 . S
C433 C434 1.398 . S
C433 C439 1.491 . S
C434 H425 0.950 . S
C434 C433 1.398 . S
C434 C435 1.391 . S
C435 H423 0.950 . S
C435 C431 1.393 . S
C435 C434 1.391 . S
C436 H426 0.950 . S
C436 C437 1.386 . S
C436 C438 1.391 . S
C437 C436 1.386 . S
C437 C441 1.393 . S
C438 H427 0.950 . S
C438 C436 1.391 . S
C438 C439 1.400 . S
C439 C433 1.491 . S
C439 C438 1.400 . S
C439 C440 1.398 . S
C440 H428 0.950 . S
C440 C439 1.398 . S
C440 C441 1.391 . S
C441 H429 0.950 . S
C441 C437 1.393 . S
C441 C440 1.391 . S
H442 C450 0.950 . S
H443 C455 0.950 . S
H444 C452 0.950 . S
H445 C454 0.950 . S
H446 C456 0.950 . S
H447 C458 0.950 . S
H448 C460 0.950 . S
H449 C461 0.950 . S
C450 H442 0.950 . S
C450 C451 1.386 . S
C450 C452 1.391 . S
C451 C450 1.386 . S
C451 C455 1.393 . S
C452 H444 0.950 . S
C452 C450 1.391 . S
C452 C453 1.400 . S
C453 C452 1.400 . S
C453 C454 1.398 . S
C453 C459 1.491 . S
C454 H445 0.950 . S
C454 C453 1.398 . S
C454 C455 1.391 . S
C455 H443 0.950 . S
C455 C451 1.393 . S
C455 C454 1.391 . S
C456 H446 0.950 . S
C456 C457 1.386 . S
C456 C458 1.391 . S
C457 C456 1.386 . S
C457 C461 1.393 . S
C458 H447 0.950 . S
C458 C456 1.391 . S
C458 C459 1.400 . S
C459 C453 1.491 . S
C459 C458 1.400 . S
C459 C460 1.398 . S
C460 H448 0.950 . S
C460 C459 1.398 . S
C460 C461 1.391 . S
C461 H449 0.950 . S
C461 C457 1.393 . S
C461 C460 1.391 . S
H462 C470 0.950 . S
H463 C475 0.950 . S
H464 C472 0.950 . S
H465 C474 0.950 . S
H466 C476 0.950 . S
H467 C478 0.950 . S
H468 C480 0.950 . S
H469 C481 0.950 . S
C470 H462 0.950 . S
C470 C471 1.386 . S
C470 C472 1.391 . S
C471 C470 1.386 . S
C471 C475 1.393 . S
C472 H464 0.950 . S
C472 C470 1.391 . S
C472 C473 1.400 . S
C473 C472 1.400 . S
C473 C474 1.398 . S
C473 C479 1.491 . S
C474 H465 0.950 . S
C474 C473 1.398 . S
C474 C475 1.391 . S
C475 H463 0.950 . S
C475 C471 1.393 . S
C475 C474 1.391 . S
C476 H466 0.950 . S
C476 C477 1.386 . S
C476 C478 1.391 . S
C477 C476 1.386 . S
C477 C481 1.393 . S
C478 H467 0.950 . S
C478 C476 1.391 . S
C478 C479 1.400 . S
C479 C473 1.491 . S
C479 C478 1.400 . S
C479 C480 1.398 . S
C480 H468 0.950 . S
C480 C479 1.398 . S
C480 C481 1.391 . S
C481 H469 0.950 . S
C481 C477 1.393 . S
C481 C480 1.391 . S
H482 C490 0.950 . S
H483 C495 0.950 . S
H484 C492 0.950 . S
H485 C494 0.950 . S
H486 C496 0.950 . S
H487 C498 0.950 . S
H488 C500 0.950 . S
H489 C501 0.950 . S
C490 H482 0.950 . S
C490 C491 1.386 . S
C490 C492 1.391 . S
C491 C490 1.386 . S
C491 C495 1.393 . S
C492 H484 0.950 . S
C492 C490 1.391 . S
C492 C493 1.400 . S
C493 C492 1.400 . S
C493 C494 1.398 . S
C493 C499 1.491 . S
C494 H485 0.950 . S
C494 C493 1.398 . S
C494 C495 1.391 . S
C495 H483 0.950 . S
C495 C491 1.393 . S
C495 C494 1.391 . S
C496 H486 0.950 . S
C496 C497 1.386 . S
C496 C498 1.391 . S
C497 C496 1.386 . S
C497 C501 1.393 . S
C498 H487 0.950 . S
C498 C496 1.391 . S
C498 C499 1.400 . S
C499 C493 1.491 . S
C499 C498 1.400 . S
C499 C500 1.398 . S
C500 H488 0.950 . S
C500 C499 1.398 . S
C500 C501 1.391 . S
C501 H489 0.950 . S
C501 C497 1.393 . S
C501 C500 1.391 . S
H502 C510 0.950 . S
H503 C515 0.950 . S
H504 C512 0.950 . S
H505 C514 0.950 . S
H506 C516 0.950 . S
H507 C518 0.950 . S
H508 C520 0.950 . S
H509 C521 0.950 . S
C510 H502 0.950 . S
C510 C511 1.386 . S
C510 C512 1.391 . S
C511 C510 1.386 . S
C511 C515 1.393 . S
C512 H504 0.950 . S
C512 C510 1.391 . S
C512 C513 1.400 . S
C513 C512 1.400 . S
C513 C514 1.398 . S
C513 C519 1.491 . S
C514 H505 0.950 . S
C514 C513 1.398 . S
C514 C515 1.391 . S
C515 H503 0.950 . S
C515 C511 1.393 . S
C515 C514 1.391 . S
C516 H506 0.950 . S
C516 C517 1.386 . S
C516 C518 1.391 . S
C517 C516 1.386 . S
C517 C521 1.393 . S
C518 H507 0.950 . S
C518 C516 1.391 . S
C518 C519 1.400 . S
C519 C513 1.491 . S
C519 C518 1.400 . S
C519 C520 1.398 . S
C520 H508 0.950 . S
C520 C519 1.398 . S
C520 C521 1.391 . S
C521 H509 0.950 . S
C521 C517 1.393 . S
C521 C520 1.391 . S
H522 C530 0.950 . S
H523 C535 0.950 . S
H524 C532 0.950 . S
H525 C534 0.950 . S
H526 C536 0.950 . S
H527 C538 0.950 . S
H528 C540 0.950 . S
H529 C541 0.950 . S
C530 H522 0.950 . S
C530 C531 1.386 . S
C530 C532 1.391 . S
C531 C530 1.386 . S
C531 C535 1.393 . S
C532 H524 0.950 . S
C532 C530 1.391 . S
C532 C533 1.400 . S
C533 C532 1.400 . S
C533 C534 1.398 . S
C533 C539 1.491 . S
C534 H525 0.950 . S
C534 C533 1.398 . S
C534 C535 1.391 . S
C535 H523 0.950 . S
C535 C531 1.393 . S
C535 C534 1.391 . S
C536 H526 0.950 . S
C536 C537 1.386 . S
C536 C538 1.391 . S
C537 C536 1.386 . S
C537 C541 1.393 . S
C538 H527 0.950 . S
C538 C536 1.391 . S
C538 C539 1.400 . S
C539 C533 1.491 . S
C539 C538 1.400 . S
C539 C540 1.398 . S
C540 H528 0.950 . S
C540 C539 1.398 . S
C540 C541 1.391 . S
C541 H529 0.950 . S
C541 C537 1.393 . S
C541 C540 1.391 . S
H542 C550 0.950 . S
H543 C555 0.950 . S
H544 C552 0.950 . S
H545 C554 0.950 . S
H546 C556 0.950 . S
H547 C558 0.950 . S
H548 C560 0.950 . S
H549 C561 0.950 . S
C550 H542 0.950 . S
C550 C551 1.386 . S
C550 C552 1.391 . S
C551 C550 1.386 . S
C551 C555 1.393 . S
C552 H544 0.950 . S
C552 C550 1.391 . S
C552 C553 1.400 . S
C553 C552 1.400 . S
C553 C554 1.398 . S
C553 C559 1.491 . S
C554 H545 0.950 . S
C554 C553 1.398 . S
C554 C555 1.391 . S
C555 H543 0.950 . S
C555 C551 1.393 . S
C555 C554 1.391 . S
C556 H546 0.950 . S
C556 C557 1.386 . S
C556 C558 1.391 . S
C557 C556 1.386 . S
C557 C561 1.393 . S
C558 H547 0.950 . S
C558 C556 1.391 . S
C558 C559 1.400 . S
C559 C553 1.491 . S
C559 C558 1.400 . S
C559 C560 1.398 . S
C560 H548 0.950 . S
C560 C559 1.398 . S
C560 C561 1.391 . S
C561 H549 0.950 . S
C561 C557 1.393 . S
C561 C560 1.391 . S
H562 C570 0.950 . S
H563 C575 0.950 . S
H564 C572 0.950 . S
H565 C574 0.950 . S
H566 C576 0.950 . S
H567 C578 0.950 . S
H568 C580 0.950 . S
H569 C581 0.950 . S
C570 H562 0.950 . S
C570 C571 1.386 . S
C570 C572 1.391 . S
C571 C570 1.386 . S
C571 C575 1.393 . S
C572 H564 0.950 . S
C572 C570 1.391 . S
C572 C573 1.400 . S
C573 C572 1.400 . S
C573 C574 1.398 . S
C573 C579 1.491 . S
C574 H565 0.950 . S
C574 C573 1.398 . S
C574 C575 1.391 . S
C575 H563 0.950 . S
C575 C571 1.393 . S
C575 C574 1.391 . S
C576 H566 0.950 . S
C576 C577 1.386 . S
C576 C578 1.391 . S
C577 C576 1.386 . S
C577 C581 1.393 . S
C578 H567 0.950 . S
C578 C576 1.391 . S
C578 C579 1.400 . S
C579 C573 1.491 . S
C579 C578 1.400 . S
C579 C580 1.398 . S
C580 H568 0.950 . S
C580 C579 1.398 . S
C580 C581 1.391 . S
C581 H569 0.950 . S
C581 C577 1.393 . S
C581 C580 1.391 . S
H582 C590 0.950 . S
H583 C595 0.950 . S
H584 C592 0.950 . S
H585 C594 0.950 . S
H586 C596 0.950 . S
H587 C598 0.950 . S
H588 C600 0.950 . S
H589 C601 0.950 . S
C590 H582 0.950 . S
C590 C591 1.386 . S
C590 C592 1.391 . S
C591 C590 1.386 . S
C591 C595 1.393 . S
C592 H584 0.950 . S
C592 C590 1.391 . S
C592 C593 1.400 . S
C593 C592 1.400 . S
C593 C594 1.398 . S
C593 C599 1.491 . S
C594 H585 0.950 . S
C594 C593 1.398 . S
C594 C595 1.391 . S
C595 H583 0.950 . S
C595 C591 1.393 . S
C595 C594 1.391 . S
C596 H586 0.950 . S
C596 C597 1.386 . S
C596 C598 1.391 . S
C597 C596 1.386 . S
C597 C601 1.393 . S
C598 H587 0.950 . S
C598 C596 1.391 . S
C598 C599 1.400 . S
C599 C593 1.491 . S
C599 C598 1.400 . S
C599 C600 1.398 . S
C600 H588 0.950 . S
C600 C599 1.398 . S
C600 C601 1.391 . S
C601 H589 0.950 . S
C601 C597 1.393 . S
C601 C600 1.391 . S
H602 C610 0.950 . S
H603 C615 0.950 . S
H604 C612 0.950 . S
H605 C614 0.950 . S
H606 C616 0.950 . S
H607 C618 0.950 . S
H608 C620 0.950 . S
H609 C621 0.950 . S
C610 H602 0.950 . S
C610 C611 1.386 . S
C610 C612 1.391 . S
C611 C610 1.386 . S
C611 C615 1.393 . S
C612 H604 0.950 . S
C612 C610 1.391 . S
C612 C613 1.400 . S
C613 C612 1.400 . S
C613 C614 1.398 . S
C613 C619 1.491 . S
C614 H605 0.950 . S
C614 C613 1.398 . S
C614 C615 1.391 . S
C615 H603 0.950 . S
C615 C611 1.393 . S
C615 C614 1.391 . S
C616 H606 0.950 . S
C616 C617 1.386 . S
C616 C618 1.391 . S
C617 C616 1.386 . S
C617 C621 1.393 . S
C618 H607 0.950 . S
C618 C616 1.391 . S
C618 C619 1.400 . S
C619 C613 1.491 . S
C619 C618 1.400 . S
C619 C620 1.398 . S
C620 H608 0.950 . S
C620 C619 1.398 . S
C620 C621 1.391 . S
C621 H609 0.950 . S
C621 C617 1.393 . S
C621 C620 1.391 . S
H622 C630 0.950 . S
H623 C635 0.950 . S
H624 C632 0.950 . S
H625 C634 0.950 . S
H626 C636 0.950 . S
H627 C638 0.950 . S
H628 C640 0.950 . S
H629 C641 0.950 . S
C630 H622 0.950 . S
C630 C631 1.386 . S
C630 C632 1.391 . S
C631 C630 1.386 . S
C631 C635 1.393 . S
C632 H624 0.950 . S
C632 C630 1.391 . S
C632 C633 1.400 . S
C633 C632 1.400 . S
C633 C634 1.398 . S
C633 C639 1.491 . S
C634 H625 0.950 . S
C634 C633 1.398 . S
C634 C635 1.391 . S
C635 H623 0.950 . S
C635 C631 1.393 . S
C635 C634 1.391 . S
C636 H626 0.950 . S
C636 C637 1.386 . S
C636 C638 1.391 . S
C637 C636 1.386 . S
C637 C641 1.393 . S
C638 H627 0.950 . S
C638 C636 1.391 . S
C638 C639 1.400 . S
C639 C633 1.491 . S
C639 C638 1.400 . S
C639 C640 1.398 . S
C640 H628 0.950 . S
C640 C639 1.398 . S
C640 C641 1.391 . S
C641 H629 0.950 . S
C641 C637 1.393 . S
C641 C640 1.391 . S
H642 C650 0.950 . S
H643 C655 0.950 . S
H644 C652 0.950 . S
H645 C654 0.950 . S
H646 C656 0.950 . S
H647 C658 0.950 . S
H648 C660 0.950 . S
H649 C661 0.950 . S
C650 H642 0.950 . S
C650 C651 1.386 . S
C650 C652 1.391 . S
C651 C650 1.386 . S
C651 C655 1.393 . S
C652 H644 0.950 . S
C652 C650 1.391 . S
C652 C653 1.400 . S
C653 C652 1.400 . S
C653 C654 1.398 . S
C653 C659 1.491 . S
C654 H645 0.950 . S
C654 C653 1.398 . S
C654 C655 1.391 . S
C655 H643 0.950 . S
C655 C651 1.393 . S
C655 C654 1.391 . S
C656 H646 0.950 . S
C656 C657 1.386 . S
C656 C658 1.391 . S
C657 C656 1.386 . S
C657 C661 1.393 . S
C658 H647 0.950 . S
C658 C656 1.391 . S
C658 C659 1.400 . S
C659 C653 1.491 . S
C659 C658 1.400 . S
C659 C660 1.398 . S
C660 H648 0.950 . S
C660 C659 1.398 . S
C660 C661 1.391 . S
C661 H649 0.950 . S
C661 C657 1.393 . S
C661 C660 1.391 . S
H662 C670 0.950 . S
H663 C675 0.950 . S
H664 C672 0.950 . S
H665 C674 0.950 . S
H666 C676 0.950 . S
H667 C678 0.950 . S
H668 C680 0.950 . S
H669 C681 0.950 . S
C670 H662 0.950 . S
C670 C671 1.386 . S
C670 C672 1.391 . S
C671 C670 1.386 . S
C671 C675 1.393 . S
C672 H664 0.950 . S
C672 C670 1.391 . S
C672 C673 1.400 . S
C673 C672 1.400 . S
C673 C674 1.398 . S
C673 C679 1.491 . S
C674 H665 0.950 . S
C674 C673 1.398 . S
C674 C675 1.391 . S
C675 H663 0.950 . S
C675 C671 1.393 . S
C675 C674 1.391 . S
C676 H666 0.950 . S
C676 C677 1.386 . S
C676 C678 1.391 . S
C677 C676 1.386 . S
C677 C681 1.393 . S
C678 H667 0.950 . S
C678 C676 1.391 . S
C678 C679 1.400 . S
C679 C673 1.491 . S
C679 C678 1.400 . S
C679 C680 1.398 . S
C680 H668 0.950 . S
C680 C679 1.398 . S
C680 C681 1.391 . S
C681 H669 0.950 . S
C681 C677 1.393 . S
C681 C680 1.391 . S
H682 C690 0.950 . S
H683 C695 0.950 . S
H684 C692 0.950 . S
H685 C694 0.950 . S
H686 C696 0.950 . S
H687 C698 0.950 . S
H688 C700 0.950 . S
H689 C701 0.950 . S
C690 H682 0.950 . S
C690 C691 1.386 . S
C690 C692 1.391 . S
C691 C690 1.386 . S
C691 C695 1.393 . S
C692 H684 0.950 . S
C692 C690 1.391 . S
C692 C693 1.400 . S
C693 C692 1.400 . S
C693 C694 1.398 . S
C693 C699 1.491 . S
C694 H685 0.950 . S
C694 C693 1.398 . S
C694 C695 1.391 . S
C695 H683 0.950 . S
C695 C691 1.393 . S
C695 C694 1.391 . S
C696 H686 0.950 . S
C696 C697 1.386 . S
C696 C698 1.391 . S
C697 C696 1.386 . S
C697 C701 1.393 . S
C698 H687 0.950 . S
C698 C696 1.391 . S
C698 C699 1.400 . S
C699 C693 1.491 . S
C699 C698 1.400 . S
C699 C700 1.398 . S
C700 H688 0.950 . S
C700 C699 1.398 . S
C700 C701 1.391 . S
C701 H689 0.950 . S
C701 C697 1.393 . S
C701 C700 1.391 . S
C231 C7 1.811 . S
C237 C139 1.786 . S
C251 C30 1.598 . S
C257 C164 1.574 . S
C277 C167 1.648 . S
C271 N58 1.632 . S
C297 C193 1.448 . S
C291 N81 1.431 . S
C317 C194 1.721 . S
C311 C99 1.749 . S
C337 C221 1.435 . S
C331 N127 1.424 . S
C351 N25 1.637 . S
C357 C166 1.656 . S
C371 C62 1.590 . S
C377 C192 1.576 . S
C397 C195 1.746 . S
C391 C85 1.754 . S
C417 C220 1.450 . S
C411 N94 1.439 . S
C431 C131 1.779 . S
C437 C138 1.758 . S
C457 C165 1.459 . S
C451 N2 1.439 . S
C477 C180 1.756 . S
C471 C16 1.767 . S
C491 C39 1.565 . S
C497 C207 1.560 . S
C517 C208 1.635 . S
C511 N48 1.614 . S
C531 N71 1.422 . S
C537 C150 1.445 . S
C551 C108 1.746 . S
C557 C153 1.736 . S
C571 N117 1.410 . S
C577 C178 1.428 . S
C591 N35 1.614 . S
C597 C209 1.643 . S
C617 C151 1.586 . S
C611 C53 1.597 . S
C631 C76 1.793 . S
C637 C152 1.779 . S
C651 N104 1.404 . S
C657 C179 1.432 . S
C671 C122 1.744 . S
C677 C181 1.721 . S
C691 N12 1.406 . S
C697 C206 1.422 . S
