# Generated by pormake.
# Topology ocu, (6,8)-cn, num edge types: 1
# Building blocks:
#     Node 0, Type 0, BuildingBlock: NUHQIS_clean_sbu_0, # of connection points: 6
#     Node 1, Type 0, BuildingBlock: NUHQIS_clean_sbu_0, # of connection points: 6
#     Node 2, Type 0, BuildingBlock: NUHQIS_clean_sbu_0, # of connection points: 6
#     Node 3, Type 0, BuildingBlock: NUHQIS_clean_sbu_0, # of connection points: 6
#     Node 4, Type 0, BuildingBlock: NUHQIS_clean_sbu_0, # of connection points: 6
#     Node 5, Type 0, BuildingBlock: NUHQIS_clean_sbu_0, # of connection points: 6
#     Node 6, Type 0, BuildingBlock: NUHQIS_clean_sbu_0, # of connection points: 6
#     Node 7, Type 0, BuildingBlock: NUHQIS_clean_sbu_0, # of connection points: 6
#     Node 8, Type 1, BuildingBlock: TAGTUT_clean_sbu_1, # of connection points: 8
#     Node 9, Type 1, BuildingBlock: TAGTUT_clean_sbu_1, # of connection points: 8
#     Node 10, Type 1, BuildingBlock: TAGTUT_clean_sbu_1, # of connection points: 8
#     Node 11, Type 1, BuildingBlock: TAGTUT_clean_sbu_1, # of connection points: 8
#     Node 12, Type 1, BuildingBlock: TAGTUT_clean_sbu_1, # of connection points: 8
#     Node 13, Type 1, BuildingBlock: TAGTUT_clean_sbu_1, # of connection points: 8
#     Edge 14, Type (0, 1), BuildingBlock: MIFKUJ_clean_linker_0, # of connection points: 2
#     Edge 15, Type (0, 1), BuildingBlock: MIFKUJ_clean_linker_0, # of connection points: 2
#     Edge 16, Type (0, 1), BuildingBlock: MIFKUJ_clean_linker_0, # of connection points: 2
#     Edge 17, Type (0, 1), BuildingBlock: MIFKUJ_clean_linker_0, # of connection points: 2
#     Edge 18, Type (0, 1), BuildingBlock: MIFKUJ_clean_linker_0, # of connection points: 2
#     Edge 19, Type (0, 1), BuildingBlock: MIFKUJ_clean_linker_0, # of connection points: 2
#     Edge 20, Type (0, 1), BuildingBlock: MIFKUJ_clean_linker_0, # of connection points: 2
#     Edge 21, Type (0, 1), BuildingBlock: MIFKUJ_clean_linker_0, # of connection points: 2
#     Edge 22, Type (0, 1), BuildingBlock: MIFKUJ_clean_linker_0, # of connection points: 2
#     Edge 23, Type (0, 1), BuildingBlock: MIFKUJ_clean_linker_0, # of connection points: 2
#     Edge 24, Type (0, 1), BuildingBlock: MIFKUJ_clean_linker_0, # of connection points: 2
#     Edge 25, Type (0, 1), BuildingBlock: MIFKUJ_clean_linker_0, # of connection points: 2
#     Edge 26, Type (0, 1), BuildingBlock: MIFKUJ_clean_linker_0, # of connection points: 2
#     Edge 27, Type (0, 1), BuildingBlock: MIFKUJ_clean_linker_0, # of connection points: 2
#     Edge 28, Type (0, 1), BuildingBlock: MIFKUJ_clean_linker_0, # of connection points: 2
#     Edge 29, Type (0, 1), BuildingBlock: MIFKUJ_clean_linker_0, # of connection points: 2
#     Edge 30, Type (0, 1), BuildingBlock: MIFKUJ_clean_linker_0, # of connection points: 2
#     Edge 31, Type (0, 1), BuildingBlock: MIFKUJ_clean_linker_0, # of connection points: 2
#     Edge 32, Type (0, 1), BuildingBlock: MIFKUJ_clean_linker_0, # of connection points: 2
#     Edge 33, Type (0, 1), BuildingBlock: MIFKUJ_clean_linker_0, # of connection points: 2
#     Edge 34, Type (0, 1), BuildingBlock: MIFKUJ_clean_linker_0, # of connection points: 2
#     Edge 35, Type (0, 1), BuildingBlock: MIFKUJ_clean_linker_0, # of connection points: 2
#     Edge 36, Type (0, 1), BuildingBlock: MIFKUJ_clean_linker_0, # of connection points: 2
#     Edge 37, Type (0, 1), BuildingBlock: MIFKUJ_clean_linker_0, # of connection points: 2
#     Edge 38, Type (0, 1), BuildingBlock: MIFKUJ_clean_linker_0, # of connection points: 2
#     Edge 39, Type (0, 1), BuildingBlock: MIFKUJ_clean_linker_0, # of connection points: 2
#     Edge 40, Type (0, 1), BuildingBlock: MIFKUJ_clean_linker_0, # of connection points: 2
#     Edge 41, Type (0, 1), BuildingBlock: MIFKUJ_clean_linker_0, # of connection points: 2
#     Edge 42, Type (0, 1), BuildingBlock: MIFKUJ_clean_linker_0, # of connection points: 2
#     Edge 43, Type (0, 1), BuildingBlock: MIFKUJ_clean_linker_0, # of connection points: 2
#     Edge 44, Type (0, 1), BuildingBlock: MIFKUJ_clean_linker_0, # of connection points: 2
#     Edge 45, Type (0, 1), BuildingBlock: MIFKUJ_clean_linker_0, # of connection points: 2
#     Edge 46, Type (0, 1), BuildingBlock: MIFKUJ_clean_linker_0, # of connection points: 2
#     Edge 47, Type (0, 1), BuildingBlock: MIFKUJ_clean_linker_0, # of connection points: 2
#     Edge 48, Type (0, 1), BuildingBlock: MIFKUJ_clean_linker_0, # of connection points: 2
#     Edge 49, Type (0, 1), BuildingBlock: MIFKUJ_clean_linker_0, # of connection points: 2
#     Edge 50, Type (0, 1), BuildingBlock: MIFKUJ_clean_linker_0, # of connection points: 2
#     Edge 51, Type (0, 1), BuildingBlock: MIFKUJ_clean_linker_0, # of connection points: 2
#     Edge 52, Type (0, 1), BuildingBlock: MIFKUJ_clean_linker_0, # of connection points: 2
#     Edge 53, Type (0, 1), BuildingBlock: MIFKUJ_clean_linker_0, # of connection points: 2
#     Edge 54, Type (0, 1), BuildingBlock: MIFKUJ_clean_linker_0, # of connection points: 2
#     Edge 55, Type (0, 1), BuildingBlock: MIFKUJ_clean_linker_0, # of connection points: 2
#     Edge 56, Type (0, 1), BuildingBlock: MIFKUJ_clean_linker_0, # of connection points: 2
#     Edge 57, Type (0, 1), BuildingBlock: MIFKUJ_clean_linker_0, # of connection points: 2
#     Edge 58, Type (0, 1), BuildingBlock: MIFKUJ_clean_linker_0, # of connection points: 2
#     Edge 59, Type (0, 1), BuildingBlock: MIFKUJ_clean_linker_0, # of connection points: 2
#     Edge 60, Type (0, 1), BuildingBlock: MIFKUJ_clean_linker_0, # of connection points: 2
#     Edge 61, Type (0, 1), BuildingBlock: MIFKUJ_clean_linker_0, # of connection points: 2
# Relax obj value: 0.110
# Max RMSD: 0.241
# Mean RMSD: 0.127
data_MOF--net-ocu--node1-NUHQIS_clean_sbu_0--node2-TAGTUT_clean_sbu_1--edge1-MIFKUJ_clean_linker_0
_symmetry_space_group_name_H-M    P1
_symmetry_Int_Tables_number       1
_symmetry_cell_setting            triclinic
loop_
_symmetry_equiv_pos_as_xyz
'x, y, z'
_cell_length_a     49.733774
_cell_length_b     49.712922
_cell_length_c     52.842869
_cell_angle_alpha  96.337303
_cell_angle_beta   89.036935
_cell_angle_gamma 110.90416
loop_
_atom_site_label
_atom_site_type_symbol
_atom_site_fract_x
_atom_site_fract_y
_atom_site_fract_z
_atom_type_partial_charge
Tb0 Tb 0.2688 0.26341 0.25248 0.0
Eu1 Eu 0.31867 0.28917 0.29554 0.0
C2 C 0.32436 0.24198 0.24707 0.0
C3 C 0.26253 0.23404 0.30305 0.0
C4 C 0.20085 0.24851 0.21639 0.0
C5 C 0.16238 0.24818 0.18863 0.0
C6 C 0.18581 0.23989 0.19297 0.0
C7 C 0.19091 0.26364 0.2361 0.0
C8 C 0.16769 0.27223 0.2317 0.0
C9 C 0.15393 0.26554 0.20758 0.0
C10 C 0.22954 0.24671 0.2184 0.0
O11 O 0.25373 0.29558 0.27702 0.0
O12 O 0.28531 0.30934 0.31132 0.0
O13 O 0.32585 0.32461 0.27029 0.0
O14 O 0.30543 0.29394 0.23515 0.0
C15 C 0.26166 0.30973 0.30029 0.0
O16 O 0.33492 0.29298 0.33447 0.0
O17 O 0.36302 0.31608 0.30615 0.0
O18 O 0.33722 0.26282 0.2656 0.0
O19 O 0.29657 0.23637 0.24158 0.0
O20 O 0.24966 0.24246 0.28577 0.0
O21 O 0.29067 0.24484 0.30588 0.0
C22 C 0.32261 0.31924 0.24554 0.0
O23 O 0.25042 0.27181 0.22046 0.0
O24 O 0.23312 0.2298 0.23424 0.0
C25 C 0.3832 0.29642 0.33566 0.0
C26 C 0.42242 0.27127 0.34972 0.0
C27 C 0.41722 0.29297 0.36632 0.0
C28 C 0.3977 0.30544 0.35931 0.0
C29 C 0.38894 0.2754 0.31877 0.0
C30 C 0.40847 0.26303 0.32568 0.0
C31 C 0.3613 0.30799 0.32893 0.0
H32 H 0.15237 0.24293 0.16979 0.0
H33 H 0.19337 0.22844 0.17748 0.0
H34 H 0.20227 0.27044 0.25431 0.0
H35 H 0.16148 0.28541 0.2467 0.0
H36 H 0.42733 0.29949 0.3851 0.0
H37 H 0.39342 0.32159 0.37258 0.0
H38 H 0.37794 0.26817 0.30041 0.0
H39 H 0.41225 0.24662 0.31238 0.0
Tb40 Tb 0.80765 0.2675 0.28342 0.0
Eu41 Eu 0.74965 0.26004 0.25018 0.0
C42 C 0.77237 0.20936 0.25291 0.0
C43 C 0.81171 0.29292 0.23102 0.0
C44 C 0.86783 0.25499 0.31675 0.0
C45 C 0.87911 0.21121 0.31583 0.0
C46 C 0.8633 0.22639 0.30647 0.0
C47 C 0.88752 0.26776 0.33711 0.0
C48 C 0.90315 0.25251 0.34664 0.0
C49 C 0.89955 0.22424 0.33578 0.0
C50 C 0.85452 0.27275 0.30493 0.0
O51 O 0.80404 0.31011 0.28657 0.0
O52 O 0.75518 0.29752 0.28002 0.0
O53 O 0.73415 0.23458 0.28358 0.0
O54 O 0.77323 0.25563 0.31113 0.0
C55 C 0.78019 0.31583 0.28903 0.0
O56 O 0.70301 0.24566 0.24607 0.0
O57 O 0.72938 0.25957 0.21366 0.0
O58 O 0.76817 0.22583 0.23687 0.0
O59 O 0.78474 0.22118 0.27505 0.0
O60 O 0.81932 0.27569 0.24411 0.0
O61 O 0.7863 0.29504 0.23413 0.0
C62 C 0.74582 0.23972 0.30659 0.0
O63 O 0.84916 0.26643 0.28053 0.0
O64 O 0.83368 0.27838 0.31689 0.0
C65 C 0.68574 0.26813 0.21685 0.0
C66 C 0.65112 0.29964 0.2058 0.0
C67 C 0.67422 0.31183 0.22353 0.0
C68 C 0.69143 0.2962 0.229 0.0
C69 C 0.66256 0.2557 0.19943 0.0
C70 C 0.64537 0.27133 0.19391 0.0
C71 C 0.70345 0.25143 0.22261 0.0
H72 H 0.8759 0.18959 0.30687 0.0
H73 H 0.8482 0.21609 0.29069 0.0
H74 H 0.8913 0.28982 0.34526 0.0
H75 H 0.91819 0.26297 0.36241 0.0
H76 H 0.67946 0.33373 0.2327 0.0
H77 H 0.70927 0.30604 0.24256 0.0
H78 H 0.65782 0.23395 0.19007 0.0
H79 H 0.6276 0.26128 0.18032 0.0
Tb80 Tb 0.77049 0.76184 0.28778 0.0
Eu81 Eu 0.82932 0.79436 0.26128 0.0
C82 C 0.78555 0.73187 0.23661 0.0
C83 C 0.82627 0.74723 0.30186 0.0
C84 C 0.71436 0.7517 0.3347 0.0
C85 C 0.68042 0.74694 0.36885 0.0
C86 C 0.69059 0.73457 0.3475 0.0
C87 C 0.72815 0.78102 0.34353 0.0
C88 C 0.71829 0.79326 0.36486 0.0
C89 C 0.69426 0.77641 0.37765 0.0
C90 C 0.72551 0.73934 0.31247 0.0
O91 O 0.79526 0.7982 0.315 0.0
O92 O 0.81935 0.82862 0.28668 0.0
O93 O 0.79763 0.8086 0.23977 0.0
O94 O 0.75835 0.79197 0.26495 0.0
C95 C 0.8097 0.82447 0.30956 0.0
O96 O 0.87365 0.82426 0.26699 0.0
O97 O 0.85727 0.80532 0.22885 0.0
O98 O 0.81242 0.74989 0.23875 0.0
O99 O 0.76576 0.73505 0.25203 0.0
O100 O 0.79812 0.73685 0.29694 0.0
O101 O 0.84185 0.77186 0.29306 0.0
C102 C 0.77106 0.80668 0.24568 0.0
O103 O 0.7259 0.75135 0.29177 0.0
O104 O 0.74988 0.7363 0.31648 0.0
C105 C 0.90418 0.80948 0.23891 0.0
C106 C 0.93974 0.77797 0.22398 0.0
C107 C 0.93681 0.79828 0.20871 0.0
C108 C 0.91909 0.81392 0.21615 0.0
C109 C 0.90909 0.79114 0.25524 0.0
C110 C 0.92688 0.77561 0.24787 0.0
C111 C 0.88005 0.81964 0.24326 0.0
H112 H 0.66172 0.73364 0.37835 0.0
H113 H 0.67984 0.71183 0.34088 0.0
H114 H 0.74634 0.79461 0.3337 0.0
H115 H 0.72888 0.81621 0.3708 0.0
H116 H 0.94616 0.8003 0.19003 0.0
H117 H 0.91536 0.82782 0.20327 0.0
H118 H 0.89771 0.78729 0.27291 0.0
H119 H 0.929 0.7603 0.26007 0.0
Tb120 Tb 0.31409 0.76832 0.29309 0.0
Eu121 Eu 0.27978 0.79943 0.26108 0.0
C122 C 0.31272 0.82965 0.31376 0.0
C123 C 0.25046 0.76061 0.30488 0.0
C124 C 0.35237 0.72086 0.30689 0.0
C125 C 0.34923 0.67788 0.27859 0.0
C126 C 0.33585 0.69392 0.29375 0.0
C127 C 0.38252 0.72973 0.30699 0.0
C128 C 0.39589 0.71377 0.29166 0.0
C129 C 0.37925 0.68859 0.27628 0.0
C130 C 0.33879 0.74179 0.31657 0.0
O131 O 0.29024 0.73578 0.2623 0.0
O132 O 0.28819 0.766 0.23342 0.0
O133 O 0.32642 0.81992 0.25193 0.0
O134 O 0.34258 0.78421 0.26188 0.0
C135 C 0.28622 0.74031 0.23885 0.0
O136 O 0.24686 0.79463 0.2325 0.0
O137 O 0.2712 0.83722 0.25136 0.0
O138 O 0.2891 0.82447 0.30028 0.0
O139 O 0.32819 0.81306 0.31 0.0
O140 O 0.27639 0.76767 0.31477 0.0
O141 O 0.2468 0.76568 0.28163 0.0
C142 C 0.34605 0.80782 0.25106 0.0
O143 O 0.35157 0.76803 0.31057 0.0
O144 O 0.31095 0.73334 0.31334 0.0
C145 C 0.22142 0.82563 0.24548 0.0
C146 C 0.17648 0.83463 0.27375 0.0
C147 C 0.19932 0.85831 0.26611 0.0
C148 C 0.22159 0.85383 0.25197 0.0
C149 C 0.19707 0.8019 0.25092 0.0
C150 C 0.17473 0.80641 0.2649 0.0
C151 C 0.24833 0.82142 0.23755 0.0
H152 H 0.33592 0.65857 0.26683 0.0
H153 H 0.31255 0.68627 0.29349 0.0
H154 H 0.39571 0.75022 0.31723 0.0
H155 H 0.41913 0.72225 0.29033 0.0
H156 H 0.20091 0.8803 0.27256 0.0
H157 H 0.24 0.87243 0.24784 0.0
H158 H 0.19616 0.77984 0.24611 0.0
H159 H 0.1574 0.78781 0.27065 0.0
Tb160 Tb 0.30869 0.76208 0.77544 0.0
Eu161 Eu 0.26317 0.79535 0.78765 0.0
C162 C 0.2546 0.74755 0.73883 0.0
C163 C 0.31357 0.8176 0.74949 0.0
C164 C 0.36221 0.72417 0.77804 0.0
C165 C 0.36763 0.68264 0.79468 0.0
C166 C 0.35037 0.69538 0.7838 0.0
C167 C 0.39162 0.73983 0.78319 0.0
C168 C 0.4088 0.72716 0.79416 0.0
C169 C 0.397 0.69843 0.79997 0.0
C170 C 0.34482 0.73753 0.76518 0.0
O171 O 0.32039 0.78304 0.81448 0.0
O172 O 0.30334 0.81992 0.8123 0.0
O173 O 0.25765 0.76569 0.81794 0.0
O174 O 0.27371 0.73256 0.79552 0.0
C175 C 0.32014 0.80888 0.8231 0.0
O176 O 0.25422 0.83522 0.7954 0.0
O177 O 0.21959 0.79379 0.79645 0.0
O178 O 0.24159 0.75789 0.75723 0.0
O179 O 0.28241 0.75268 0.74047 0.0
O180 O 0.32699 0.80452 0.76193 0.0
O181 O 0.28612 0.81269 0.75265 0.0
C182 C 0.25898 0.73971 0.81426 0.0
O183 O 0.31701 0.72408 0.7636 0.0
O184 O 0.3516 0.76538 0.77053 0.0
C185 C 0.20763 0.83208 0.78352 0.0
C186 C 0.17173 0.85337 0.75762 0.0
C187 C 0.16601 0.84668 0.78278 0.0
C188 C 0.18389 0.83619 0.79563 0.0
C189 C 0.21313 0.83816 0.75825 0.0
C190 C 0.19537 0.84881 0.74543 0.0
C191 C 0.2266 0.82181 0.79757 0.0
H192 H 0.35792 0.66053 0.7992 0.0
H193 H 0.32785 0.68261 0.77978 0.0
H194 H 0.40146 0.76186 0.7785 0.0
H195 H 0.43145 0.73971 0.79773 0.0
H196 H 0.14808 0.85016 0.79269 0.0
H197 H 0.17934 0.83154 0.81514 0.0
H198 H 0.23125 0.83486 0.74852 0.0
H199 H 0.20006 0.85336 0.72593 0.0
Tb200 Tb 0.26438 0.27699 0.75298 0.0
Eu201 Eu 0.29835 0.25425 0.79782 0.0
C202 C 0.31244 0.32005 0.79023 0.0
C203 C 0.31589 0.25345 0.73905 0.0
C204 C 0.22181 0.31016 0.71295 0.0
C205 C 0.21539 0.35528 0.70589 0.0
C206 C 0.23183 0.34063 0.71552 0.0
C207 C 0.19475 0.29482 0.70109 0.0
C208 C 0.17841 0.30939 0.69142 0.0
C209 C 0.18862 0.33986 0.69326 0.0
C210 C 0.24034 0.29377 0.71905 0.0
O211 O 0.2491 0.23012 0.74531 0.0
O212 O 0.26617 0.21301 0.77851 0.0
O213 O 0.26736 0.27253 0.81821 0.0
O214 O 0.23678 0.27285 0.78576 0.0
C215 C 0.25068 0.20904 0.75755 0.0
O216 O 0.29867 0.23032 0.8303 0.0
O217 O 0.33869 0.26034 0.81746 0.0
O218 O 0.32362 0.29985 0.79006 0.0
O219 O 0.28671 0.31428 0.78033 0.0
O220 O 0.30222 0.27104 0.73487 0.0
O221 O 0.31452 0.24187 0.76042 0.0
C222 C 0.24382 0.27554 0.81008 0.0
O223 O 0.26669 0.30775 0.72765 0.0
O224 O 0.22823 0.26995 0.72956 0.0
C225 C 0.34247 0.22307 0.84109 0.0
C226 C 0.37529 0.19467 0.86337 0.0
C227 C 0.34586 0.18789 0.86855 0.0
C228 C 0.32974 0.20196 0.85765 0.0
C229 C 0.3716 0.2291 0.83514 0.0
C230 C 0.38774 0.21504 0.84605 0.0
C231 C 0.32667 0.24146 0.83339 0.0
H232 H 0.22388 0.37874 0.70805 0.0
H233 H 0.2527 0.35318 0.72433 0.0
H234 H 0.18664 0.27135 0.69835 0.0
H235 H 0.15827 0.29658 0.6815 0.0
H236 H 0.33531 0.17202 0.88143 0.0
H237 H 0.30749 0.19702 0.86293 0.0
H238 H 0.38233 0.24554 0.82279 0.0
H239 H 0.41036 0.22114 0.84175 0.0
Tb240 Tb 0.82832 0.27853 0.78805 0.0
Eu241 Eu 0.76873 0.27636 0.76289 0.0
C242 C 0.79879 0.3219 0.80857 0.0
C243 C 0.76906 0.24442 0.81399 0.0
C244 C 0.90493 0.28836 0.79461 0.0
C245 C 0.94785 0.27616 0.7898 0.0
C246 C 0.92411 0.27678 0.80399 0.0
C247 C 0.91112 0.30175 0.77209 0.0
C248 C 0.93479 0.30106 0.75783 0.0
C249 C 0.95247 0.28685 0.76591 0.0
C250 C 0.8765 0.28195 0.80583 0.0
O251 O 0.8067 0.23522 0.76869 0.0
O252 O 0.78776 0.24984 0.73671 0.0
O253 O 0.80432 0.31144 0.74471 0.0
O254 O 0.84075 0.29449 0.75039 0.0
C255 C 0.79616 0.23057 0.74548 0.0
O256 O 0.72801 0.25042 0.74319 0.0
O257 O 0.74002 0.29709 0.75068 0.0
O258 O 0.77373 0.30318 0.80068 0.0
O259 O 0.82256 0.31943 0.79957 0.0
O260 O 0.79678 0.26035 0.81749 0.0
O261 O 0.75538 0.24417 0.79268 0.0
C262 C 0.83011 0.31101 0.7389 0.0
O263 O 0.86662 0.30301 0.80876 0.0
O264 O 0.85704 0.25801 0.79582 0.0
C265 C 0.69253 0.26894 0.75886 0.0
C266 C 0.65653 0.27505 0.79886 0.0
C267 C 0.66332 0.29419 0.78001 0.0
C268 C 0.68114 0.29108 0.7601 0.0
C269 C 0.68277 0.24771 0.77582 0.0
C270 C 0.66482 0.25071 0.79561 0.0
C271 C 0.7191 0.2723 0.74474 0.0
H272 H 0.96137 0.26541 0.7966 0.0
H273 H 0.91964 0.26641 0.82137 0.0
H274 H 0.89655 0.31089 0.76459 0.0
H275 H 0.93765 0.30932 0.73945 0.0
H276 H 0.65737 0.31325 0.78198 0.0
H277 H 0.68836 0.30767 0.74724 0.0
H278 H 0.691 0.23021 0.77529 0.0
H279 H 0.65941 0.2353 0.80957 0.0
Tb280 Tb 0.77362 0.77226 0.75914 0.0
Eu281 Eu 0.82716 0.78025 0.79889 0.0
C282 C 0.81945 0.74073 0.74321 0.0
C283 C 0.76487 0.73115 0.80106 0.0
C284 C 0.71637 0.78818 0.72402 0.0
C285 C 0.70737 0.82037 0.69633 0.0
C286 C 0.72355 0.80408 0.7029 0.0
C287 C 0.69251 0.78898 0.7384 0.0
C288 C 0.67626 0.80523 0.73176 0.0
C289 C 0.68339 0.82103 0.71056 0.0
C290 C 0.73259 0.76948 0.72985 0.0
O291 O 0.76395 0.79481 0.79465 0.0
O292 O 0.80774 0.81355 0.8162 0.0
O293 O 0.84672 0.80722 0.76724 0.0
O294 O 0.80623 0.81507 0.75578 0.0
C295 C 0.78068 0.81186 0.81362 0.0
O296 O 0.84083 0.76144 0.82907 0.0
O297 O 0.87033 0.80142 0.8169 0.0
O298 O 0.83039 0.74688 0.76669 0.0
O299 O 0.7988 0.74973 0.73648 0.0
O300 O 0.76116 0.73171 0.7766 0.0
O301 O 0.78543 0.75214 0.81402 0.0
C302 C 0.83423 0.82112 0.75476 0.0
O303 O 0.75944 0.77737 0.72329 0.0
O304 O 0.72909 0.75984 0.75208 0.0
C305 C 0.88993 0.76901 0.83337 0.0
C306 C 0.9267 0.73884 0.84333 0.0
C307 C 0.92607 0.76263 0.86017 0.0
C308 C 0.90784 0.77748 0.85524 0.0
C309 C 0.89154 0.74631 0.8158 0.0
C310 C 0.90976 0.73139 0.82072 0.0
C311 C 0.86674 0.78078 0.83138 0.0
H312 H 0.71325 0.83189 0.67966 0.0
H313 H 0.74147 0.8036 0.69116 0.0
H314 H 0.68616 0.77682 0.75466 0.0
H315 H 0.65812 0.80546 0.7433 0.0
H316 H 0.93847 0.76883 0.87789 0.0
H317 H 0.90666 0.79468 0.86921 0.0
H318 H 0.87777 0.73927 0.79886 0.0
H319 H 0.90998 0.7135 0.80713 0.0
C320 C 1.02225 0.12283 0.5615 0.0
C321 C 0.03516 0.09338 0.48418 0.0
C322 C 0.98046 0.98725 0.50595 0.0
Mg323 Mg 0.06682 0.09938 0.53454 0.0
O324 O 0.03901 0.06457 0.54343 0.0
Mg325 Mg 0.99837 0.05461 0.53086 0.0
Mg326 Mg 0.0447 0.02855 0.52862 0.0
O327 O 0.05063 0.99265 0.51383 0.0
Mg328 Mg 0.02366 0.95697 0.52174 0.0
Mg329 Mg 0.09144 1.00268 0.52609 0.0
C330 C 0.10844 0.06894 0.55352 0.0
C331 C 0.09298 0.04632 0.48376 0.0
O332 O 1.00169 0.09869 0.55442 0.0
O333 O 0.04864 0.12746 0.55609 0.0
O334 O 1.01287 0.07784 0.49519 0.0
O335 O 0.06004 0.10316 0.49504 0.0
O336 O 0.10491 0.09238 0.54885 0.0
O337 O 0.08837 0.04403 0.54881 0.0
C338 C 0.99707 0.0119 0.57388 0.0
O339 O 1.01934 1.00818 0.56362 0.0
O340 O 0.98586 0.02886 0.56539 0.0
O341 O 0.08871 0.96031 0.50086 0.0
O342 O 0.04208 0.93078 0.49757 0.0
O343 O 0.0774 0.97746 0.56088 0.0
C344 C 0.06863 0.93658 0.49205 0.0
O345 O 0.03048 0.95168 0.56075 0.0
O346 O 0.98491 0.96415 0.5102 0.0
C347 C 0.05534 0.96105 0.57156 0.0
O348 O 1.00055 0.0124 0.50896 0.0
O349 O 0.07018 0.04933 0.49353 0.0
O350 O 0.10428 0.02961 0.49247 0.0
C351 C 0.50542 0.08424 0.10247 0.0
C352 C 0.52935 0.07845 0.02254 0.0
C353 C 0.526 0.96616 0.02643 0.0
Mg354 Mg 0.56499 0.08936 0.07385 0.0
O355 O 0.55505 0.04808 0.07134 0.0
Mg356 Mg 0.51378 0.0248 0.06055 0.0
Mg357 Mg 0.57872 0.02131 0.05476 0.0
O358 O 0.59959 0.99396 0.03939 0.0
Mg359 Mg 0.58674 0.95305 0.03915 0.0
Mg360 Mg 0.64109 0.01469 0.04941 0.0
C361 C 0.61338 0.06605 0.08829 0.0
C362 C 0.62474 0.0568 0.01124 0.0
O363 O 0.495 0.05867 0.08937 0.0
O364 O 0.53275 0.09869 0.10163 0.0
O365 O 0.51469 0.05302 0.02828 0.0
O366 O 0.55062 0.09564 0.03663 0.0
O367 O 0.6076 0.08353 0.07484 0.0
O368 O 0.62246 0.0464 0.07766 0.0
C369 C 0.53528 0.98829 0.09894 0.0
O370 O 0.55938 0.99328 0.08756 0.0
O371 O 0.51618 0.99825 0.09243 0.0
O372 O 0.65422 0.98239 0.01752 0.0
O373 O 0.61417 0.94338 1.00852 0.0
O374 O 0.64291 0.98169 0.0804 0.0
C375 C 0.64084 0.95758 1.00449 0.0
O376 O 0.60424 0.94132 0.07438 0.0
O377 O 0.54162 0.95021 0.02823 0.0
C378 C 0.62851 0.95584 0.08613 0.0
O379 O 0.5355 0.99384 0.03402 0.0
O380 O 0.59922 0.05096 0.02046 0.0
O381 O 0.64198 0.04556 0.01946 0.0
C382 C 1.01006 0.57935 0.04827 0.0
C383 C 0.03888 0.5661 0.97351 0.0
C384 C 0.9995 0.45453 0.98457 0.0
Mg385 Mg 0.06425 0.56868 0.02644 0.0
O386 O 0.04002 0.53099 0.03215 0.0
Mg387 Mg 1.00181 0.51636 0.01315 0.0
Mg388 Mg 0.05483 0.50008 0.01872 0.0
O389 O 0.06987 0.46982 1.00384 0.0
Mg390 Mg 0.04659 0.43063 1.00329 0.0
Mg391 Mg 0.108 0.48403 0.02246 0.0
C392 C 0.11082 0.5468 0.05017 0.0
C393 C 0.10908 0.53013 0.98303 0.0
O394 O 0.99354 0.55443 0.03767 0.0
O395 O 0.03755 0.58868 0.04658 0.0
O396 O 1.01706 0.54577 0.9807 0.0
O397 O 0.06177 0.57713 0.98735 0.0
O398 O 0.10358 0.56764 0.04386 0.0
O399 O 0.09444 0.51998 0.04542 0.0
C400 C 0.99964 0.47134 0.05467 0.0
O401 O 0.02508 0.47218 0.04844 0.0
O402 O 0.98756 0.48647 0.04441 0.0
O403 O 0.11775 0.4471 0.99675 0.0
O404 O 0.07547 0.41273 0.98299 0.0
O405 O 0.09018 0.45278 0.05349 0.0
C406 C 0.1031 0.42288 0.98377 0.0
O407 O 0.04644 0.42094 0.04173 0.0
O408 O 1.007 0.43267 0.987 0.0
C409 C 0.0673 0.43168 0.05794 0.0
O410 O 1.0159 0.48062 0.99201 0.0
O411 O 0.08368 0.52809 0.99007 0.0
O412 O 0.12257 0.51531 0.99179 0.0
C413 C 0.48864 0.59947 0.04804 0.0
C414 C 0.52217 0.58508 0.97361 0.0
C415 C 0.48476 0.47468 0.98892 0.0
Mg416 Mg 0.54573 0.59418 0.0282 0.0
O417 O 0.52451 0.55523 0.03174 0.0
Mg418 Mg 0.48567 0.53697 0.01399 0.0
Mg419 Mg 0.54057 0.5248 0.0202 0.0
O420 O 0.55563 0.49374 1.0087 0.0
Mg421 Mg 0.53142 0.45632 0.01485 0.0
Mg422 Mg 0.59392 0.51076 0.02716 0.0
C423 C 0.59585 0.57608 0.05022 0.0
C424 C 0.59325 0.54913 0.98064 0.0
O425 O 0.47476 0.57434 0.03625 0.0
O426 O 0.51619 0.61101 0.04809 0.0
O427 O 0.50095 0.56379 0.98029 0.0
O428 O 0.5433 0.5997 0.98874 0.0
O429 O 0.58618 0.59583 0.04532 0.0
O430 O 0.58088 0.54893 0.04499 0.0
C431 C 0.48775 0.49805 0.05926 0.0
O432 O 0.51369 0.50098 0.05308 0.0
O433 O 0.47304 0.50952 0.0474 0.0
O434 O 0.60244 0.47008 1.00711 0.0
O435 O 0.55894 0.43498 0.99877 0.0
O436 O 0.57701 0.48579 0.06221 0.0
C437 C 0.58648 0.44418 0.9981 0.0
O438 O 0.53229 0.45378 0.05499 0.0
O439 O 0.49211 0.45385 0.99494 0.0
C440 C 0.55422 0.46673 0.06973 0.0
O441 O 0.50071 0.50126 0.99496 0.0
O442 O 0.56801 0.54836 0.98751 0.0
O443 O 0.60697 0.53635 0.99229 0.0
C444 C 0.95261 0.59577 0.54605 0.0
C445 C 0.96516 0.59684 0.46419 0.0
C446 C 0.96371 0.48005 0.46844 0.0
Mg447 Mg 1.00681 0.60039 0.51172 0.0
O448 O 0.99419 0.55979 0.51232 0.0
Mg449 Mg 0.95261 0.53849 0.50148 0.0
Mg450 Mg 1.0158 0.53286 0.49711 0.0
O451 O 0.03726 0.50648 0.4798 0.0
Mg452 Mg 0.02448 0.46563 0.47667 0.0
Mg453 Mg 0.07838 0.52774 0.49144 0.0
C454 C 0.06765 0.58775 0.52506 0.0
C455 C 0.05991 0.56685 0.4541 0.0
O456 O 0.93886 0.57123 0.53268 0.0
O457 O 0.97941 0.60964 0.54231 0.0
O458 O 0.95102 0.57075 0.46954 0.0
O459 O 0.98897 0.61168 0.47652 0.0
O460 O 0.05189 0.60341 0.52263 0.0
O461 O 0.05831 0.55989 0.51832 0.0
C462 C 0.97007 0.49779 0.54078 0.0
O463 O 0.9952 0.50301 0.53088 0.0
O464 O 0.95255 0.50889 0.53272 0.0
O465 O 0.09548 0.49328 0.46208 0.0
O466 O 0.05669 0.45409 0.4502 0.0
O467 O 0.07425 0.49744 0.52278 0.0
C468 C 0.08418 0.46776 0.44909 0.0
O469 O 0.03538 0.45718 0.51448 0.0
O470 O 0.97905 0.4635 0.46774 0.0
C471 C 0.05748 0.47266 0.52851 0.0
O472 O 0.97403 0.50749 0.47579 0.0
O473 O 0.03545 0.5616 0.46489 0.0
O474 O 0.07849 0.55618 0.46051 0.0
C475 C 0.47638 0.12033 0.57752 0.0
C476 C 0.51875 0.11688 0.50576 0.0
C477 C 0.47766 1.0002 0.51088 0.0
Mg478 Mg 0.53571 0.11718 0.56188 0.0
O479 O 0.51448 0.07734 0.55781 0.0
Mg480 Mg 0.47741 0.06204 0.53761 0.0
Mg481 Mg 0.53163 0.04874 0.54287 0.0
O482 O 0.5485 0.0194 0.52911 0.0
Mg483 Mg 0.52685 0.98059 0.53298 0.0
Mg484 Mg 0.5871 0.03594 0.54712 0.0
C485 C 0.5834 0.09453 0.58146 0.0
C486 C 0.58517 0.0795 0.50571 0.0
O487 O 0.46409 0.09726 0.56219 0.0
O488 O 0.50372 0.131 0.5815 0.0
O489 O 0.49673 0.09411 0.50821 0.0
O490 O 0.5375 0.12901 0.52373 0.0
O491 O 0.57381 0.11542 0.58153 0.0
O492 O 0.57035 0.06952 0.56933 0.0
C493 C 0.4769 0.01704 0.57773 0.0
O494 O 0.50308 0.02021 0.57211 0.0
O495 O 0.4631 0.03057 0.56734 0.0
O496 O 0.59798 0.99976 0.52235 0.0
O497 O 0.55544 0.96418 0.51124 0.0
O498 O 0.57432 1.00548 0.57846 0.0
C499 C 0.58298 0.97501 0.51043 0.0
O500 O 0.53109 0.97106 0.57165 0.0
O501 O 0.48649 0.98006 0.51637 0.0
C502 C 0.55415 0.98335 0.5852 0.0
O503 O 0.49299 0.02727 0.51603 0.0
O504 O 0.55973 0.07755 0.5129 0.0
O505 O 0.59895 0.06574 0.51565 0.0
H506 H 0.2042 0.21657 0.30874 0.0
H507 H 0.17444 0.18425 0.33816 0.0
H508 H 0.24955 0.17191 0.36637 0.0
H509 H 0.27971 0.20462 0.33703 0.0
H510 H 0.20177 0.11992 0.35696 0.0
H511 H 0.22283 0.21607 0.39844 0.0
H512 H 0.22431 0.26643 0.40281 0.0
H513 H 0.13197 0.23609 0.3984 0.0
H514 H 0.12997 0.18554 0.39375 0.0
H515 H 0.14883 0.05849 0.47002 0.0
H516 H 0.17523 0.08895 0.43816 0.0
H517 H 0.09886 0.10503 0.4187 0.0
H518 H 0.07208 0.07404 0.4507 0.0
H519 H 0.14536 0.15464 0.42241 0.0
H520 H 0.12318 0.0599 0.37922 0.0
H521 H 0.11984 1.00892 0.37369 0.0
H522 H 0.21184 0.03601 0.38065 0.0
H523 H 0.21572 0.0872 0.38668 0.0
C524 C 0.2145 0.20694 0.32109 0.0
C525 C 0.24449 0.21331 0.32044 0.0
C526 C 0.19738 0.1885 0.33802 0.0
C527 C 0.2097 0.17575 0.35468 0.0
C528 C 0.23951 0.1815 0.35374 0.0
C529 C 0.25677 0.20028 0.33699 0.0
C530 C 0.19147 0.15661 0.37315 0.0
C531 C 0.18974 0.12764 0.37147 0.0
C532 C 0.17495 0.16636 0.39162 0.0
C533 C 0.17625 0.1969 0.39497 0.0
C534 C 0.20283 0.22008 0.39801 0.0
C535 C 0.20378 0.2487 0.40067 0.0
C536 C 0.17827 0.25447 0.40067 0.0
C537 C 0.15174 0.23162 0.39822 0.0
C538 C 0.1507 0.20297 0.39553 0.0
C539 C 0.13743 0.06822 0.45887 0.0
C540 C 0.10823 0.06394 0.46319 0.0
C541 C 0.15266 0.08571 0.44055 0.0
C542 C 0.13913 0.09923 0.42575 0.0
C543 C 0.10992 0.09498 0.42989 0.0
C544 C 0.09461 0.07737 0.4483 0.0
C545 C 0.15581 0.11801 0.40631 0.0
C546 C 0.15729 0.1469 0.40781 0.0
C547 C 0.1719 0.10817 0.38751 0.0
C548 C 0.16972 0.07741 0.38362 0.0
C549 C 0.1427 0.055 0.37976 0.0
C550 C 0.1407 0.02605 0.37651 0.0
C551 C 0.1656 0.01922 0.37686 0.0
C552 C 0.19256 0.04134 0.3804 0.0
C553 C 0.19468 0.07033 0.38372 0.0
H554 H 0.164 0.99679 0.37434 0.0
H555 H 0.17905 0.27665 0.40272 0.0
H556 H 0.88282 0.16645 0.34162 0.0
H557 H 0.91146 0.1412 0.35825 0.0
H558 H 0.98459 0.22118 0.36872 0.0
H559 H 0.95657 0.24638 0.3507 0.0
H560 H 1.00175 0.17619 0.35342 0.0
H561 H 0.94118 0.19819 0.41788 0.0
H562 H 0.89553 0.19889 0.43636 0.0
H563 H 0.86093 0.10586 0.42753 0.0
H564 H 0.90627 0.10461 0.40867 0.0
H565 H 0.06507 0.14388 0.46413 0.0
H566 H 0.04805 0.1627 0.42909 0.0
H567 H 0.97825 0.08074 0.41306 0.0
H568 H 0.9949 0.06206 0.44799 0.0
H569 H 0.96059 0.12593 0.42883 0.0
H570 H 0.02627 0.10545 0.36979 0.0
H571 H 0.07336 0.10701 0.3533 0.0
H572 H 0.10063 0.1993 0.35375 0.0
H573 H 0.05407 0.1985 0.3711 0.0
C574 C 0.90515 0.17862 0.34694 0.0
C575 C 0.91725 0.20856 0.3451 0.0
C576 C 0.92146 0.16416 0.35661 0.0
C577 C 0.95003 0.17941 0.3651 0.0
C578 C 0.96256 0.20902 0.36237 0.0
C579 C 0.94634 0.22347 0.35244 0.0
C580 C 0.96593 0.16494 0.37869 0.0
C581 C 0.99296 0.16536 0.37005 0.0
C582 C 0.95426 0.15063 0.40021 0.0
C583 C 0.92699 0.15131 0.41161 0.0
C584 C 0.92375 0.17788 0.4197 0.0
C585 C 0.89795 0.17838 0.43027 0.0
C586 C 0.87532 0.15243 0.43305 0.0
C587 C 0.87847 0.12594 0.42533 0.0
C588 C 0.90421 0.12532 0.41471 0.0
C589 C 0.04674 0.1296 0.4525 0.0
C590 C 0.03079 0.10183 0.45914 0.0
C591 C 0.03708 0.14034 0.43247 0.0
C592 C 1.01164 0.12322 0.41878 0.0
C593 C 0.99776 0.09436 0.42357 0.0
C594 C 1.00723 0.08377 0.4436 0.0
C595 C 0.99633 0.13667 0.40344 0.0
C596 C 0.96939 0.13639 0.41201 0.0
C597 C 1.00843 0.15136 0.38219 0.0
C598 C 0.03667 0.15194 0.37205 0.0
C599 C 0.04242 0.12616 0.36675 0.0
C600 C 0.06903 0.1269 0.35718 0.0
C601 C 0.08997 0.15323 0.35248 0.0
C602 C 0.08437 0.1789 0.35738 0.0
C603 C 0.05789 0.17833 0.36717 0.0
H604 H 0.11057 0.15377 0.34508 0.0
H605 H 0.85536 0.15286 0.44125 0.0
H606 H 0.79942 0.82288 0.36055 0.0
H607 H 0.81968 0.86193 0.39477 0.0
H608 H 0.85945 0.92094 0.33945 0.0
H609 H 0.83984 0.88175 0.3051 0.0
H610 H 0.89776 0.92419 0.37254 0.0
H611 H 0.80483 0.9287 0.37895 0.0
H612 H 0.75215 0.91353 0.38268 0.0
H613 H 0.75725 0.88272 0.45455 0.0
H614 H 0.80983 0.89701 0.45102 0.0
H615 H 0.96944 0.02239 0.47439 0.0
H616 H 0.93009 1.0071 0.44262 0.0
H617 H 0.89039 0.92741 0.47621 0.0
H618 H 0.92937 0.94263 0.50803 0.0
H619 H 0.84998 0.94556 0.4514 0.0
H620 H 0.94137 0.92831 0.4343 0.0
H621 H 0.99448 0.94886 0.43395 0.0
H622 H 0.99065 1.00857 0.38248 0.0
H623 H 0.93748 0.98841 0.38268 0.0
C624 C 0.81208 0.84427 0.3556 0.0
C625 C 0.81832 0.84906 0.33006 0.0
C626 C 0.82349 0.86672 0.37524 0.0
C627 C 0.84106 0.89454 0.36978 0.0
C628 C 0.84605 0.8997 0.3442 0.0
C629 C 0.83479 0.87722 0.32455 0.0
C630 C 0.85691 0.91701 0.3907 0.0
C631 C 0.88704 0.92939 0.38941 0.0
C632 C 0.84323 0.92381 0.41298 0.0
C633 C 0.81137 0.91386 0.41465 0.0
C634 C 0.79471 0.91832 0.39539 0.0
C635 C 0.76484 0.90992 0.39749 0.0
C636 C 0.75139 0.89723 0.41885 0.0
C637 C 0.7677 0.89256 0.43801 0.0
C638 C 0.79754 0.90081 0.43597 0.0
C639 C 0.95167 1.00224 0.47571 0.0
C640 C 0.95285 0.98336 0.49325 0.0
C641 C 0.9292 0.99348 0.4575 0.0
C642 C 0.90771 0.96581 0.45672 0.0
C643 C 0.90683 0.94876 0.47637 0.0
C644 C 0.92927 0.95743 0.49447 0.0
C645 C 0.89034 0.95188 0.43311 0.0
C646 C 0.86022 0.94089 0.43403 0.0
C647 C 0.90383 0.94651 0.41033 0.0
C648 C 0.93559 0.95696 0.40856 0.0
C649 C 0.95191 0.9457 0.42279 0.0
C650 C 0.98198 0.95734 0.4227 0.0
C651 C 0.99591 0.98011 0.40831 0.0
C652 C 0.97981 0.99098 0.39366 0.0
C653 C 0.94972 0.97941 0.3937 0.0
H654 H 1.01919 0.98932 0.40848 0.0
H655 H 0.72836 0.89122 0.42066 0.0
H656 H 0.19368 0.86754 0.31871 0.0
H657 H 0.16425 0.87171 0.35522 0.0
H658 H 0.08786 0.81544 0.3128 0.0
H659 H 0.11754 0.81078 0.27589 0.0
H660 H 0.08858 0.8729 0.34105 0.0
H661 H 0.10088 0.7843 0.35373 0.0
H662 H 0.12884 0.75214 0.35418 0.0
H663 H 0.1852 0.81097 0.41273 0.0
H664 H 0.15778 0.84363 0.4125 0.0
H665 H 0.03661 0.87988 0.47624 0.0
H666 H 0.04475 0.85025 0.4387 0.0
H667 H 0.12361 0.91953 0.42509 0.0
H668 H 0.11614 0.94904 0.46269 0.0
H669 H 0.10574 0.84042 0.42285 0.0
H670 H 0.10275 0.92739 0.36156 0.0
H671 H 0.07838 0.96242 0.35904 0.0
H672 H 1.00524 0.9079 0.39661 0.0
H673 H 0.02888 0.87219 0.3988 0.0
C674 C 0.17057 0.85641 0.31698 0.0
C675 C 0.15776 0.83916 0.29443 0.0
C676 C 0.15388 0.85851 0.33791 0.0
C677 C 0.12407 0.84359 0.33665 0.0
C678 C 0.11094 0.82689 0.31402 0.0
C679 C 0.12779 0.82436 0.29306 0.0
C680 C 0.10715 0.84669 0.35914 0.0
C681 C 0.09157 0.86517 0.35884 0.0
C682 C 0.11124 0.8365 0.38219 0.0
C683 C 0.12729 0.81648 0.38302 0.0
C684 C 0.1193 0.79043 0.36665 0.0
C685 C 0.13505 0.77211 0.36687 0.0
C686 C 0.15885 0.77959 0.3834 0.0
C687 C 0.16676 0.80523 0.39993 0.0
C688 C 0.15106 0.82362 0.39982 0.0
C689 C 0.05599 0.88856 0.46555 0.0
C690 C 0.07569 0.91685 0.47234 0.0
C691 C 0.06055 0.87162 0.44418 0.0
C692 C 0.08454 0.88299 0.42917 0.0
C693 C 0.1049 0.91058 0.43654 0.0
C694 C 0.10065 0.92732 0.45807 0.0
C695 C 0.08788 0.86725 0.4048 0.0
C696 C 0.10144 0.84693 0.40488 0.0
C697 C 0.08199 0.87577 0.3815 0.0
C698 C 0.0677 0.89724 0.38054 0.0
C699 C 0.08145 0.92285 0.36924 0.0
C700 C 0.06777 0.94282 0.36787 0.0
C701 C 0.04034 0.93743 0.37772 0.0
C702 C 0.02654 0.91209 0.38906 0.0
C703 C 0.04009 0.89199 0.39041 0.0
H704 H 0.02972 0.9528 0.3764 0.0
H705 H 0.17122 0.76558 0.38337 0.0
H706 H 0.18943 0.89863 0.72897 0.0
H707 H 0.15961 0.9176 0.70544 0.0
H708 H 0.08295 0.85508 0.73266 0.0
H709 H 0.11282 0.83555 0.756 0.0
H710 H 0.08041 0.85637 0.68146 0.0
H711 H 0.10012 0.92604 0.75469 0.0
H712 H 0.12981 0.96151 0.78889 0.0
H713 H 0.17946 0.01404 0.73318 0.0
H714 H 0.15013 0.97893 0.69866 0.0
H715 H 1.01537 0.92299 0.59984 0.0
H716 H 0.02437 0.90575 0.63946 0.0
H717 H 0.11384 0.96096 0.63857 0.0
H718 H 0.10491 0.97894 0.60002 0.0
H719 H 0.09663 0.96114 0.68508 0.0
H720 H 0.08613 0.88624 0.61328 0.0
H721 H 0.05911 0.8504 0.57804 0.0
H722 H 0.99495 0.80752 0.63011 0.0
H723 H 1.02146 0.84335 0.66561 0.0
C724 C 0.16623 0.8889 0.72996 0.0
C725 C 0.15346 0.86552 0.74422 0.0
C726 C 0.14921 0.9 0.71676 0.0
C727 C 0.11906 0.88803 0.71762 0.0
C728 C 0.10618 0.86478 0.73196 0.0
C729 C 0.12325 0.85374 0.74532 0.0
C730 C 0.10136 0.89864 0.70189 0.0
C731 C 0.08334 0.87918 0.68264 0.0
C732 C 0.10535 0.9284 0.70335 0.0
C733 C 0.12295 0.94975 0.72408 0.0
C734 C 0.11743 0.94511 0.74973 0.0
C735 C 0.13416 0.9652 0.76918 0.0
C736 C 0.15647 0.99005 0.76321 0.0
C737 C 0.16209 0.99487 0.73778 0.0
C738 C 0.14535 0.97492 0.71827 0.0
C739 C 0.03685 0.9317 0.60833 0.0
C740 C 0.05948 0.9521 0.59658 0.0
C741 C 0.04198 0.92175 0.63091 0.0
C742 C 0.06989 0.93171 0.64179 0.0
C743 C 0.09211 0.95293 0.6306 0.0
C744 C 0.08698 0.96306 0.60835 0.0
C745 C 0.0771 0.91914 0.66378 0.0
C746 C 0.09301 0.93821 0.68434 0.0
C747 C 0.07148 0.88907 0.66333 0.0
C748 C 0.05553 0.86769 0.64199 0.0
C749 C 0.06614 0.8693 0.61715 0.0
C750 C 0.05094 0.84897 0.59716 0.0
C751 C 0.02527 0.82677 0.60182 0.0
C752 C 1.01479 0.82479 0.62652 0.0
C753 C 0.02988 0.8451 0.64657 0.0
H754 H 1.01353 0.81106 0.58632 0.0
H755 H 0.16942 1.00557 0.77829 0.0
H756 H 0.19718 0.1855 0.73634 0.0
H757 H 0.17956 0.14305 0.70484 0.0
H758 H 0.257 0.12504 0.71577 0.0
H759 H 0.2745 0.16753 0.74789 0.0
H760 H 0.24895 0.13185 0.66679 0.0
H761 H 0.19483 0.0732 0.72583 0.0
H762 H 0.1631 0.05803 0.76195 0.0
H763 H 0.09314 0.06691 0.7215 0.0
H764 H 0.12455 0.0828 0.68534 0.0
H765 H 0.11918 0.02615 0.57548 0.0
H766 H 0.15315 0.0331 0.61053 0.0
H767 H 0.18848 0.12465 0.60304 0.0
H768 H 0.15508 0.11776 0.56784 0.0
H769 H 0.14925 0.06123 0.65314 0.0
H770 H 0.25387 0.15793 0.62972 0.0
H771 H 0.2866 0.17046 0.59388 0.0
H772 H 0.25794 0.08096 0.56314 0.0
H773 H 0.22561 0.06766 0.59919 0.0
C774 C 0.20986 0.17176 0.7328 0.0
C775 C 0.23703 0.17955 0.74458 0.0
C776 C 0.19979 0.14747 0.71483 0.0
C777 C 0.21692 0.13078 0.70799 0.0
C778 C 0.24336 0.13748 0.72092 0.0
C779 C 0.25322 0.16158 0.73936 0.0
C780 C 0.20902 0.10997 0.68457 0.0
C781 C 0.22732 0.11603 0.66376 0.0
C782 C 0.18128 0.08842 0.68096 0.0
C783 C 0.16216 0.07922 0.70279 0.0
C784 C 0.17275 0.07218 0.72468 0.0
C785 C 0.1548 0.06342 0.74518 0.0
C786 C 0.12611 0.06145 0.744 0.0
C787 C 0.11535 0.06836 0.72235 0.0
C788 C 0.13323 0.07722 0.70183 0.0
C789 C 0.13485 0.04758 0.58064 0.0
C790 C 0.13395 0.07147 0.56912 0.0
C791 C 0.15427 0.05153 0.60079 0.0
C792 C 0.17333 0.07941 0.60961 0.0
C793 C 0.17432 0.10282 0.59648 0.0
C794 C 0.15495 0.09888 0.57636 0.0
C795 C 0.18821 0.08524 0.6349 0.0
C796 C 0.17122 0.0763 0.6561 0.0
C797 C 0.2173 0.10389 0.63885 0.0
C798 C 0.23711 0.11177 0.61723 0.0
C799 C 0.25469 0.14082 0.6155 0.0
C800 C 0.27317 0.14808 0.59509 0.0
C801 C 0.27427 0.12653 0.5762 0.0
C802 C 0.25695 0.09765 0.57772 0.0
C803 C 0.23857 0.09023 0.59818 0.0
H804 H 0.28861 0.1322 0.56043 0.0
H805 H 0.11223 0.05458 0.75986 0.0
H806 H 0.99028 0.31954 0.73268 0.0
H807 H 1.01297 0.30107 0.69661 0.0
H808 H 0.97745 0.21526 0.7205 0.0
H809 H 0.95584 0.23357 0.75654 0.0
H810 H 0.02665 0.22155 0.70129 0.0
H811 H 0.94197 0.24208 0.67568 0.0
H812 H 0.91589 0.27554 0.67215 0.0
H813 H 0.98475 0.32842 0.62913 0.0
H814 H 1.0113 0.29536 0.63264 0.0
H815 H 0.97995 0.11634 0.5964 0.0
H816 H 0.97594 0.15368 0.62907 0.0
H817 H 0.04663 0.2183 0.59664 0.0
H818 H 0.05131 0.18104 0.56427 0.0
H819 H 0.99095 0.23215 0.61713 0.0
H820 H 0.07127 0.20371 0.63852 0.0
H821 H 0.09343 0.16716 0.64259 0.0
H822 H 0.0283 0.12629 0.69469 0.0
H823 H 1.0055 0.16237 0.6906 0.0
C824 C 0.98804 0.29691 0.73051 0.0
C825 C 0.97128 0.278 0.74741 0.0
C826 C 1.00085 0.28636 0.70986 0.0
C827 C 0.99639 0.25664 0.70553 0.0
C828 C 0.9813 0.23827 0.72341 0.0
C829 C 0.96898 0.24883 0.74414 0.0
C830 C 1.00457 0.24355 0.68143 0.0
C831 C 1.01902 0.22411 0.68291 0.0
C832 C 0.99502 0.24711 0.6573 0.0
C833 C 0.97866 0.2664 0.65452 0.0
C834 C 0.95151 0.26085 0.66547 0.0
C835 C 0.93667 0.27974 0.6635 0.0
C836 C 0.94865 0.30407 0.65041 0.0
C837 C 0.97548 0.30954 0.63923 0.0
C838 C 0.99042 0.29073 0.64117 0.0
C839 C 0.99416 0.1386 0.59585 0.0
C840 C 1.01609 0.14577 0.57799 0.0
C841 C 0.99188 0.15986 0.61449 0.0
C842 C 1.01112 0.18859 0.61519 0.0
C843 C 0.03163 0.19623 0.59628 0.0
C844 C 0.03431 0.17491 0.57795 0.0
C845 C 1.01188 0.20956 0.63744 0.0
C846 C 0.99923 0.23034 0.63548 0.0
C847 C 1.02264 0.20698 0.66125 0.0
C848 C 0.03657 0.18558 0.66408 0.0
C849 C 0.06156 0.18679 0.65068 0.0
C850 C 0.07425 0.16619 0.65302 0.0
C851 C 0.06225 0.14438 0.66885 0.0
C852 C 0.03756 0.14319 0.68242 0.0
C853 C 0.02477 0.16372 0.68012 0.0
H854 H 0.0721 0.12845 0.67063 0.0
H855 H 0.93712 0.31864 0.64889 0.0
H856 H 0.89232 0.83806 0.74709 0.0
H857 H 0.92103 0.87164 0.71815 0.0
H858 H 0.84571 0.88819 0.6963 0.0
H859 H 0.81662 0.85409 0.72492 0.0
H860 H 0.87432 0.87982 0.65528 0.0
H861 H 0.90086 0.93838 0.73594 0.0
H862 H 0.91864 0.95029 0.78056 0.0
H863 H 0.99923 0.94301 0.75765 0.0
H864 H 0.98179 0.93066 0.71291 0.0
H865 H 0.94215 1.00149 0.58996 0.0
H866 H 0.91662 0.97078 0.62211 0.0
H867 H 0.99272 0.95236 0.63769 0.0
H868 H 1.01872 0.98369 0.60561 0.0
H869 H 0.9651 0.96117 0.68168 0.0
H870 H 0.93933 0.90342 0.60134 0.0
H871 H 0.92244 0.89248 0.55647 0.0
H872 H 0.841 0.89811 0.57867 0.0
H873 H 0.85758 0.90959 0.62366 0.0
C874 C 0.88181 0.84901 0.73635 0.0
C875 C 0.85207 0.84336 0.73852 0.0
C876 C 0.89837 0.86836 0.7198 0.0
C877 C 0.88573 0.88283 0.70513 0.0
C878 C 0.85607 0.8774 0.70739 0.0
C879 C 0.83945 0.85796 0.72391 0.0
C880 C 0.90319 0.90282 0.68685 0.0
C881 C 0.89392 0.89785 0.66121 0.0
C882 C 0.92937 0.92589 0.69422 0.0
C883 C 0.9399 0.9333 0.72111 0.0
C884 C 0.92228 0.93908 0.74044 0.0
C885 C 0.93232 0.94596 0.76575 0.0
C886 C 0.96001 0.94733 0.77194 0.0
C887 C 0.97777 0.9419 0.75283 0.0
C888 C 0.96782 0.93498 0.72749 0.0
C889 C 0.95365 0.99116 0.60032 0.0
C890 C 0.98247 0.99476 0.59487 0.0
C891 C 0.9389 0.9734 0.61864 0.0
C892 C 0.95251 0.95875 0.63204 0.0
C893 C 0.98163 0.96318 0.62743 0.0
C894 C 0.99642 0.9809 0.60894 0.0
C895 C 0.93597 0.93833 0.65031 0.0
C896 C 0.94547 0.94313 0.67584 0.0
C897 C 0.91005 0.91504 0.64285 0.0
C898 C 0.8998 0.90763 0.61586 0.0
C899 C 0.91788 0.90252 0.59664 0.0
C900 C 0.90836 0.89621 0.57119 0.0
C901 C 0.88069 0.89467 0.56472 0.0
C902 C 0.86244 0.89934 0.58371 0.0
C903 C 0.87188 0.90574 0.6092 0.0
H904 H 0.87337 0.88981 0.54499 0.0
H905 H 0.96774 0.95267 0.79155 0.0
H906 H 0.38251 0.24807 0.25298 0.0
H907 H 0.41106 0.2224 0.23027 0.0
H908 H 0.33716 0.17061 0.1831 0.0
H909 H 0.30825 0.19609 0.20636 0.0
H910 H 0.36336 0.13537 0.1878 0.0
H911 H 0.40855 0.23332 0.16413 0.0
H912 H 0.43407 0.28633 0.17142 0.0
H913 H 0.49997 0.27414 0.21503 0.0
H914 H 0.47511 0.22113 0.20783 0.0
H915 H 0.44475 0.07047 0.10075 0.0
H916 H 0.41506 0.09537 0.1229 0.0
H917 H 0.49041 0.1564 0.16327 0.0
H918 H 0.52018 0.13248 0.13991 0.0
H919 H 0.46296 0.18716 0.16197 0.0
H920 H 0.42113 0.09214 0.18778 0.0
H921 H 0.39818 0.03886 0.18289 0.0
H922 H 0.32783 0.04445 0.14046 0.0
H923 H 0.35053 0.09777 0.14488 0.0
C924 C 0.37195 0.23129 0.23777 0.0
C925 C 0.34225 0.22493 0.23214 0.0
C926 C 0.38883 0.21642 0.22421 0.0
C927 C 0.37749 0.19408 0.20372 0.0
C928 C 0.34763 0.18741 0.19832 0.0
C929 C 0.33069 0.20235 0.21191 0.0
C930 C 0.39612 0.1777 0.18859 0.0
C931 C 0.38499 0.14715 0.18196 0.0
C932 C 0.42526 0.19146 0.18096 0.0
C933 C 0.43981 0.22329 0.18566 0.0
C934 C 0.42837 0.24197 0.17542 0.0
C935 C 0.44273 0.27199 0.17949 0.0
C936 C 0.46845 0.28357 0.19383 0.0
C937 C 0.48 0.26515 0.20399 0.0
C938 C 0.46585 0.23513 0.19985 0.0
C939 C 0.45525 0.08901 0.1145 0.0
C940 C 0.48565 0.09856 0.1181 0.0
C941 C 0.43779 0.10355 0.12775 0.0
C942 C 0.44922 0.12835 0.14619 0.0
C943 C 0.47968 0.13778 0.14968 0.0
C944 C 0.49717 0.12359 0.13611 0.0
C945 C 0.4303 0.14466 0.16114 0.0
C946 C 0.44134 0.17525 0.16774 0.0
C947 C 0.40131 0.13085 0.16924 0.0
C948 C 0.38768 0.09889 0.16641 0.0
C949 C 0.40085 0.08198 0.17727 0.0
C950 C 0.38788 0.05178 0.1746 0.0
C951 C 0.36161 0.03827 0.1613 0.0
C952 C 0.34822 0.05494 0.1507 0.0
C953 C 0.36111 0.08514 0.15329 0.0
H954 H 0.3516 0.01489 0.15926 0.0
H955 H 0.47948 0.3068 0.197 0.0
H956 H 0.86699 0.29573 0.22168 0.0
H957 H 0.90052 0.32351 0.19159 0.0
H958 H 0.83631 0.35588 0.16796 0.0
H959 H 0.80246 0.3279 0.19791 0.0
H960 H 0.86302 0.34036 0.12731 0.0
H961 H 0.89314 0.39908 0.20755 0.0
H962 H 0.90886 0.40968 0.25263 0.0
H963 H 0.98239 0.3858 0.23421 0.0
H964 H 0.96698 0.37499 0.18888 0.0
H965 H 0.94416 0.46192 0.06838 0.0
H966 H 0.9152 0.42939 0.09757 0.0
H967 H 0.98664 0.40322 0.11286 0.0
H968 H 1.01636 0.43669 0.08378 0.0
H969 H 0.95881 0.41169 0.15647 0.0
H970 H 0.9309 0.35938 0.07429 0.0
H971 H 0.91525 0.35202 0.02923 0.0
H972 H 0.83668 0.36454 0.05128 0.0
H973 H 0.85217 0.37274 0.09642 0.0
C974 C 0.85989 0.30868 0.21006 0.0
C975 C 0.83192 0.30952 0.21229 0.0
C976 C 0.87922 0.32471 0.1929 0.0
C977 C 0.87115 0.34209 0.17759 0.0
C978 C 0.84311 0.34267 0.17953 0.0
C979 C 0.82377 0.32669 0.19675 0.0
C980 C 0.89188 0.35969 0.15961 0.0
C981 C 0.88384 0.35614 0.13375 0.0
C982 C 0.91949 0.3797 0.16773 0.0
C983 C 0.92873 0.38592 0.19492 0.0
C984 C 0.91253 0.39587 0.21315 0.0
C985 C 0.92143 0.40199 0.23874 0.0
C986 C 0.94656 0.3983 0.24634 0.0
C987 C 0.9629 0.38859 0.22831 0.0
C988 C 0.95413 0.38253 0.20265 0.0
C989 C 0.95397 0.4494 0.0779 0.0
C990 C 0.98271 0.45182 0.07339 0.0
C991 C 0.93717 0.43057 0.09456 0.0
C992 C 0.94843 0.41332 0.10709 0.0
C993 C 0.97733 0.41609 0.10324 0.0
C994 C 0.99429 0.43512 0.08649 0.0
C995 C 0.92973 0.39273 0.12426 0.0
C996 C 0.93814 0.39566 0.14995 0.0
C997 C 0.9024 0.3722 0.11597 0.0
C998 C 0.89282 0.36689 0.08879 0.0
C999 C 0.91039 0.36081 0.06954 0.0
C1000 C 0.90155 0.3565 0.04396 0.0
C1001 C 0.87503 0.35791 0.03738 0.0
C1002 C 0.85727 0.36356 0.05637 0.0
C1003 C 0.86607 0.36803 0.08197 0.0
H1004 H 0.86823 0.35455 0.01756 0.0
H1005 H 0.95342 0.40303 0.26619 0.0
H1006 H 0.79391 0.84998 0.21337 0.0
H1007 H 0.76996 0.87439 0.18867 0.0
H1008 H 0.68804 0.82317 0.21661 0.0
H1009 H 0.71213 0.7991 0.24194 0.0
H1010 H 0.68206 0.82768 0.16474 0.0
H1011 H 0.72199 0.89712 0.23744 0.0
H1012 H 0.76051 0.92869 0.26761 0.0
H1013 H 0.8069 0.97334 0.20627 0.0
H1014 H 0.76882 0.94175 0.17566 0.0
H1015 H 0.60278 0.90524 0.11028 0.0
H1016 H 0.62447 0.8813 0.13754 0.0
H1017 H 0.70744 0.94764 0.1306 0.0
H1018 H 0.68532 0.97244 0.10462 0.0
H1019 H 0.71265 0.93465 0.17265 0.0
H1020 H 0.67743 0.86577 0.09939 0.0
H1021 H 0.64203 0.83361 0.06693 0.0
H1022 H 0.59084 0.78735 0.1254 0.0
H1023 H 0.62581 0.81946 0.15824 0.0
C1024 C 0.77077 0.84376 0.21454 0.0
C1025 C 0.75548 0.82212 0.23027 0.0
C1026 C 0.75684 0.85806 0.20019 0.0
C1027 C 0.72661 0.85134 0.20024 0.0
C1028 C 0.7112 0.8294 0.21566 0.0
C1029 C 0.72523 0.81548 0.23047 0.0
C1030 C 0.71144 0.86703 0.18449 0.0
C1031 C 0.68866 0.8511 0.16689 0.0
C1032 C 0.71983 0.89783 0.18588 0.0
C1033 C 0.74268 0.91689 0.20423 0.0
C1034 C 0.74051 0.91353 0.23036 0.0
C1035 C 0.76225 0.93145 0.24754 0.0
C1036 C 0.78618 0.95296 0.23885 0.0
C1037 C 0.78837 0.95664 0.21296 0.0
C1038 C 0.76671 0.93875 0.19569 0.0
C1039 C 0.62566 0.91504 0.11459 0.0
C1040 C 0.64179 0.94136 0.10473 0.0
C1041 C 0.63848 0.90081 0.1302 0.0
C1042 C 0.66851 0.9114 0.13634 0.0
C1043 C 0.68446 0.93804 0.12679 0.0
C1044 C 0.67155 0.95255 0.1116 0.0
C1045 C 0.68313 0.89537 0.15255 0.0
C1046 C 0.7059 0.91123 0.17031 0.0
C1047 C 0.67515 0.86448 0.15088 0.0
C1048 C 0.65405 0.84522 0.13127 0.0
C1049 C 0.65852 0.84886 0.10532 0.0
C1050 C 0.63856 0.83062 0.08686 0.0
C1051 C 0.61416 0.80851 0.09411 0.0
C1052 C 0.60972 0.80453 0.11982 0.0
C1053 C 0.62961 0.82272 0.13837 0.0
H1054 H 0.59872 0.79442 0.07978 0.0
H1055 H 0.80298 0.96682 0.25219 0.0
H1056 H 0.26789 0.74081 0.19059 0.0
H1057 H 0.24508 0.69935 0.15915 0.0
H1058 H 0.25935 0.64233 0.2088 0.0
H1059 H 0.28214 0.68387 0.24082 0.0
H1060 H 0.26761 0.63241 0.1488 0.0
H1061 H 0.20285 0.64525 0.21534 0.0
H1062 H 0.18348 0.67763 0.24199 0.0
H1063 H 0.14758 0.69586 0.17553 0.0
H1064 H 0.16858 0.66528 0.14823 0.0
H1065 H 0.11751 0.5236 0.09294 0.0
H1066 H 0.15457 0.54717 0.12655 0.0
H1067 H 0.19954 0.61277 0.0783 0.0
H1068 H 0.16209 0.58995 0.04508 0.0
H1069 H 0.16221 0.61016 0.14289 0.0
H1070 H 0.27488 0.63086 0.10025 0.0
H1071 H 0.29901 0.60608 0.06994 0.0
H1072 H 0.23822 0.52347 0.0851 0.0
H1073 H 0.21403 0.54769 0.11585 0.0
C1074 C 0.26672 0.71958 0.19478 0.0
C1075 C 0.27645 0.71563 0.21846 0.0
C1076 C 0.25374 0.69592 0.17668 0.0
C1077 C 0.25043 0.66785 0.18174 0.0
C1078 C 0.26182 0.6639 0.20457 0.0
C1079 C 0.27463 0.68763 0.22289 0.0
C1080 C 0.23185 0.64275 0.16453 0.0
C1081 C 0.24452 0.62721 0.14763 0.0
C1082 C 0.20175 0.63619 0.16312 0.0
C1083 C 0.18759 0.65314 0.17968 0.0
C1084 C 0.19112 0.65639 0.20634 0.0
C1085 C 0.17988 0.67448 0.22158 0.0
C1086 C 0.16411 0.68861 0.2105 0.0
C1087 C 0.15976 0.68486 0.1841 0.0
C1088 C 0.17152 0.66731 0.16871 0.0
C1089 C 0.1359 0.54238 0.08915 0.0
C1090 C 0.13697 0.55503 0.06648 0.0
C1091 C 0.15695 0.5559 0.1084 0.0
C1092 C 0.17977 0.58168 0.10487 0.0
C1093 C 0.18225 0.59276 0.0813 0.0
C1094 C 0.16087 0.5797 0.06235 0.0
C1095 C 0.1979 0.59986 0.12683 0.0
C1096 C 0.18515 0.61459 0.14447 0.0
C1097 C 0.22792 0.60599 0.12852 0.0
C1098 C 0.24244 0.59115 0.11019 0.0
C1099 C 0.26671 0.6074 0.09721 0.0
C1100 C 0.28041 0.59345 0.07994 0.0
C1101 C 0.27009 0.56322 0.07553 0.0
C1102 C 0.24611 0.54688 0.08845 0.0
C1103 C 0.23235 0.56073 0.10576 0.0
H1104 H 0.28072 0.55246 0.06214 0.0
H1105 H 0.15531 0.70248 0.22238 0.0
H1106 H 0.33392 0.86663 0.8402 0.0
H1107 H 0.36544 0.89495 0.87623 0.0
H1108 H 0.38121 0.8189 0.89297 0.0
H1109 H 0.34989 0.79045 0.85677 0.0
H1110 H 0.37057 0.84913 0.93653 0.0
H1111 H 0.43168 0.87102 0.86472 0.0
H1112 H 0.44712 0.8878 0.82284 0.0
H1113 H 0.4445 0.97157 0.84955 0.0
H1114 H 0.42872 0.95519 0.89156 0.0
H1115 H 0.49508 0.90829 0.01635 0.0
H1116 H 0.45712 0.88432 0.98435 0.0
H1117 H 0.45595 0.96722 0.96873 0.0
H1118 H 0.49498 0.99163 1.00057 0.0
H1119 H 0.45636 0.93623 0.92539 0.0
H1120 H 0.39841 0.91563 0.99834 0.0
H1121 H 0.38444 0.89926 0.0406 0.0
H1122 H 0.38075 0.81366 0.01222 0.0
H1123 H 0.39511 0.82961 0.96986 0.0
C1124 C 0.34404 0.85583 0.85151 0.0
C1125 C 0.33924 0.82611 0.84539 0.0
C1126 C 0.36224 0.87217 0.87213 0.0
C1127 C 0.37602 0.85927 0.88742 0.0
C1128 C 0.37095 0.82951 0.88158 0.0
C1129 C 0.35304 0.81323 0.86074 0.0
C1130 C 0.39558 0.87669 0.90948 0.0
C1131 C 0.38948 0.86801 0.93402 0.0
C1132 C 0.41984 0.902 0.90659 0.0
C1133 C 0.42866 0.91174 0.88119 0.0
C1134 C 0.43406 0.89291 0.86158 0.0
C1135 C 0.44297 0.90238 0.83785 0.0
C1136 C 0.44677 0.93071 0.83354 0.0
C1137 C 0.44155 0.94962 0.85293 0.0
C1138 C 0.43263 0.94026 0.87671 0.0
C1139 C 0.48644 0.92158 1.00658 0.0
C1140 C 0.49829 0.95206 0.01128 0.0
C1141 C 0.46446 0.9077 0.98818 0.0
C1142 C 0.45319 0.92371 0.97396 0.0
C1143 C 0.4641 0.95417 0.97931 0.0
C1144 C 0.48626 0.96818 0.99782 0.0
C1145 C 0.43156 0.90855 0.95254 0.0
C1146 C 0.43726 0.91759 0.92805 0.0
C1147 C 0.40683 0.88364 0.95551 0.0
C1148 C 0.39806 0.8739 0.98095 0.0
C1149 C 0.39482 0.89336 1.00114 0.0
C1150 C 0.3868 0.88415 0.02512 0.0
C1151 C 0.38177 0.85545 0.02911 0.0
C1152 C 0.38468 0.83589 1.0091 0.0
C1153 C 0.39272 0.845 0.98509 0.0
H1154 H 0.37558 0.84836 0.04768 0.0
H1155 H 0.45394 0.93804 0.81523 0.0
H1156 H 0.242 0.27204 0.86148 0.0
H1157 H 0.21653 0.29316 0.89306 0.0
H1158 H 0.18253 0.32533 0.83326 0.0
H1159 H 0.20684 0.30326 0.80163 0.0
H1160 H 0.22249 0.3456 0.90746 0.0
H1161 H 0.12055 0.33362 0.84843 0.0
H1162 H 0.08822 0.29941 0.81496 0.0
H1163 H 0.11082 0.23009 0.83846 0.0
H1164 H 0.14299 0.26379 0.87228 0.0
H1165 H 0.15674 0.44302 0.96341 0.0
H1166 H 0.18022 0.41517 0.93631 0.0
H1167 H 0.10804 0.3366 0.94447 0.0
H1168 H 0.08401 0.36454 0.97045 0.0
H1169 H 0.12027 0.3358 0.89844 0.0
H1170 H 0.17787 0.35577 0.97448 0.0
H1171 H 0.20951 0.38471 0.01067 0.0
H1172 H 0.27306 0.42929 0.95889 0.0
H1173 H 0.24165 0.40094 0.92239 0.0
C1174 C 0.22867 0.28318 0.85504 0.0
C1175 C 0.22623 0.28571 0.82901 0.0
C1176 C 0.21424 0.2954 0.87313 0.0
C1177 C 0.19732 0.31066 0.86561 0.0
C1178 C 0.1948 0.31308 0.83958 0.0
C1179 C 0.2088 0.30045 0.82146 0.0
C1180 C 0.1833 0.32508 0.885 0.0
C1181 C 0.20008 0.34336 0.90556 0.0
C1182 C 0.15394 0.32184 0.88285 0.0
C1183 C 0.13437 0.30131 0.86275 0.0
C1184 C 0.11852 0.31105 0.84653 0.0
C1185 C 0.10024 0.29175 0.82748 0.0
C1186 C 0.09753 0.26262 0.82454 0.0
C1187 C 0.11302 0.25269 0.8407 0.0
C1188 C 0.1313 0.27189 0.85979 0.0
C1189 C 0.14602 0.41978 0.95956 0.0
C1190 C 0.11846 0.40599 0.96893 0.0
C1191 C 0.15954 0.40381 0.94417 0.0
C1192 C 0.1461 0.37363 0.93844 0.0
C1193 C 0.11887 0.35983 0.94841 0.0
C1194 C 0.10513 0.37583 0.96331 0.0
C1195 C 0.15948 0.35657 0.92093 0.0
C1196 C 0.14261 0.33792 0.90056 0.0
C1197 C 0.18854 0.35885 0.92372 0.0
C1198 C 0.20723 0.37641 0.94568 0.0
C1199 C 0.19845 0.37196 0.9708 0.0
C1200 C 0.21639 0.38822 0.99138 0.0
C1201 C 0.24325 0.40887 0.98708 0.0
C1202 C 0.25224 0.41332 0.9622 0.0
C1203 C 0.23437 0.39715 0.94156 0.0
H1204 H 0.25714 0.42138 1.00303 0.0
H1205 H 0.0834 0.24772 0.80976 0.0
H1206 H 0.79004 0.23188 0.85784 0.0
H1207 H 0.76347 0.20137 0.8901 0.0
H1208 H 0.68379 0.18486 0.84956 0.0
H1209 H 0.71026 0.2153 0.81719 0.0
H1210 H 0.67544 0.19233 0.90077 0.0
H1211 H 0.71599 0.13346 0.84684 0.0
H1212 H 0.75461 0.12138 0.82409 0.0
H1213 H 0.79887 0.12936 0.89518 0.0
H1214 H 0.76069 0.14189 0.91833 0.0
H1215 H 0.59545 0.07566 0.9758 0.0
H1216 H 0.61638 0.10676 0.94191 0.0
H1217 H 0.70159 0.11711 0.9679 0.0
H1218 H 0.68097 0.08547 1.00047 0.0
H1219 H 0.7042 0.11137 0.92128 0.0
H1220 H 0.66577 0.17312 0.97545 0.0
H1221 H 0.62766 0.18574 0.99865 0.0
H1222 H 0.58 0.1728 0.92855 0.0
H1223 H 0.61776 0.1599 0.90494 0.0
C1224 C 0.76686 0.22186 0.85569 0.0
C1225 C 0.75262 0.22621 0.83448 0.0
C1226 C 0.75153 0.20417 0.87427 0.0
C1227 C 0.72129 0.19016 0.87253 0.0
C1228 C 0.70696 0.19509 0.8517 0.0
C1229 C 0.7223 0.21256 0.83297 0.0
C1230 C 0.70494 0.16995 0.89193 0.0
C1231 C 0.68162 0.17446 0.90501 0.0
C1232 C 0.7127 0.14655 0.89813 0.0
C1233 C 0.73561 0.13888 0.88429 0.0
C1234 C 0.73406 0.13284 0.8576 0.0
C1235 C 0.75585 0.12588 0.84464 0.0
C1236 C 0.77921 0.12467 0.85818 0.0
C1237 C 0.78078 0.13034 0.88472 0.0
C1238 C 0.75906 0.13735 0.89777 0.0
C1239 C 0.61864 0.08468 0.97436 0.0
C1240 C 0.63626 0.07757 0.99113 0.0
C1241 C 0.63079 0.10279 0.95489 0.0
C1242 C 0.66102 0.115 0.95189 0.0
C1243 C 0.67836 0.10819 0.96906 0.0
C1244 C 0.66633 0.08991 0.98804 0.0
C1245 C 0.67511 0.13412 0.93091 0.0
C1246 C 0.69798 0.1293 0.91728 0.0
C1247 C 0.66702 0.15731 0.92442 0.0
C1248 C 0.64445 0.16531 0.93848 0.0
C1249 C 0.6471 0.17285 0.96501 0.0
C1250 C 0.62558 0.18007 0.97822 0.0
C1251 C 0.60143 0.18005 0.96508 0.0
C1252 C 0.59874 0.17283 0.93869 0.0
C1253 C 0.62021 0.1656 0.92538 0.0
H1254 H 0.58484 0.18571 0.97535 0.0
H1255 H 0.79607 0.11928 0.84811 0.0
H1256 H 0.90991 0.67961 0.83649 0.0
H1257 H 0.934 0.64937 0.85197 0.0
H1258 H 1.00384 0.72579 0.88296 0.0
H1259 H 0.98023 0.75635 0.86683 0.0
H1260 H 0.02358 0.68282 0.86233 0.0
H1261 H 0.95169 0.69146 0.92105 0.0
H1262 H 0.90316 0.68908 0.93419 0.0
H1263 H 0.86926 0.59809 0.90838 0.0
H1264 H 0.91756 0.60002 0.89473 0.0
H1265 H 0.07211 0.61972 0.96021 0.0
H1266 H 0.0582 0.64741 0.93085 0.0
H1267 H 0.98344 0.57234 0.90644 0.0
H1268 H 0.99675 0.54485 0.93627 0.0
H1269 H 0.96721 0.61491 0.92225 0.0
H1270 H 0.03913 0.60647 0.86212 0.0
H1271 H 0.08743 0.60979 0.8473 0.0
H1272 H 0.12167 0.69955 0.8772 0.0
H1273 H 0.0734 0.697 0.89154 0.0
C1274 C 0.93071 0.6901 0.84605 0.0
C1275 C 0.94299 0.72053 0.85048 0.0
C1276 C 0.94437 0.67271 0.85512 0.0
C1277 C 0.97057 0.68525 0.86898 0.0
C1278 C 0.9836 0.71558 0.87242 0.0
C1279 C 0.96992 0.73304 0.86336 0.0
C1280 C 0.98322 0.66672 0.8813 0.0
C1281 C 1.01136 0.66811 0.87559 0.0
C1282 C 0.96723 0.6472 0.89836 0.0
C1283 C 0.93818 0.64596 0.90662 0.0
C1284 C 0.93385 0.671 0.91798 0.0
C1285 C 0.90639 0.66972 0.92555 0.0
C1286 C 0.88313 0.64347 0.92206 0.0
C1287 C 0.88729 0.61842 0.91104 0.0
C1288 C 0.9147 0.61959 0.90339 0.0
C1289 C 0.05316 0.60883 0.94806 0.0
C1290 C 0.03526 0.58019 0.951 0.0
C1291 C 0.04524 0.62472 0.93112 0.0
C1292 C 1.01954 0.61215 0.91647 0.0
C1293 C 1.00317 0.58272 0.9177 0.0
C1294 C 1.01088 0.56695 0.93477 0.0
C1295 C 1.00749 0.63038 0.90294 0.0
C1296 C 0.97942 0.62924 0.90871 0.0
C1297 C 0.02362 0.65007 0.88604 0.0
C1298 C 0.05274 0.65148 0.87807 0.0
C1299 C 0.057 0.62687 0.86566 0.0
C1300 C 0.08433 0.62865 0.85723 0.0
C1301 C 0.10764 0.65478 0.86151 0.0
C1302 C 0.10361 0.6793 0.87397 0.0
C1303 C 0.07624 0.67777 0.88206 0.0
H1304 H 0.12877 0.65611 0.85502 0.0
H1305 H 0.86189 0.64252 0.92794 0.0
H1306 H 0.16225 0.32271 0.21732 0.0
H1307 H 0.1354 0.34883 0.19938 0.0
H1308 H 0.07468 0.26808 0.16389 0.0
H1309 H 0.10209 0.24179 0.18148 0.0
H1310 H 0.09417 0.30322 0.13014 0.0
H1311 H 0.05344 0.31293 0.21076 0.0
H1312 H 0.0505 0.32336 0.25722 0.0
H1313 H 0.1059 0.41165 0.25362 0.0
H1314 H 0.10931 0.40174 0.20714 0.0
H1315 H 0.02621 0.38157 0.07023 0.0
H1316 H 0.0298 0.35242 0.10335 0.0
H1317 H 0.10931 0.41914 0.13134 0.0
H1318 H 0.10616 0.4485 0.09807 0.0
H1319 H 0.071 0.38705 0.17054 0.0
H1320 H 0.11726 0.37275 0.09056 0.0
H1321 H 0.11722 0.36249 0.0438 0.0
H1322 H 0.04847 0.28082 0.04726 0.0
H1323 H 0.04781 0.29087 0.09404 0.0
C1324 C 0.14264 0.3104 0.2064 0.0
C1325 C 0.13422 0.28019 0.20084 0.0
C1326 C 0.12721 0.32539 0.19617 0.0
C1327 C 0.10279 0.31047 0.18046 0.0
C1328 C 0.09341 0.28008 0.17602 0.0
C1329 C 0.10905 0.26507 0.18605 0.0
C1330 C 0.08993 0.32694 0.16581 0.0
C1331 C 0.08835 0.321 0.13916 0.0
C1332 C 0.0829 0.35063 0.17737 0.0
C1333 C 0.0817 0.35654 0.20544 0.0
C1334 C 0.06518 0.33451 0.21989 0.0
C1335 C 0.06331 0.34038 0.24621 0.0
C1336 C 0.07788 0.36819 0.25834 0.0
C1337 C 0.09449 0.39016 0.24418 0.0
C1338 C 0.09635 0.38445 0.21783 0.0
C1339 C 0.04416 0.39043 0.08374 0.0
C1340 C 0.06628 0.41712 0.08112 0.0
C1341 C 0.04608 0.37374 0.10273 0.0
C1342 C 0.06998 0.38353 0.11952 0.0
C1343 C 0.0907 0.41127 0.1185 0.0
C1344 C 0.08895 0.42791 0.09936 0.0
C1345 C 0.0757 0.36329 0.13526 0.0
C1346 C 0.07616 0.36872 0.16187 0.0
C1347 C 0.08155 0.33897 0.12378 0.0
C1348 C 0.08224 0.33271 0.09572 0.0
C1349 C 0.10198 0.35272 0.08132 0.0
C1350 C 0.10211 0.34693 0.05482 0.0
C1351 C 0.08279 0.32106 0.04256 0.0
C1352 C 0.06338 0.30088 0.05678 0.0
C1353 C 0.06312 0.30661 0.08328 0.0
H1354 H 0.08292 0.31662 0.02205 0.0
H1355 H 0.07644 0.37266 0.27873 0.0
H1356 H 0.23204 0.7486 0.85822 0.0
H1357 H 0.20557 0.71285 0.88643 0.0
H1358 H 0.22291 0.64584 0.83756 0.0
H1359 H 0.24957 0.68151 0.80911 0.0
H1360 H 0.16461 0.63006 0.85385 0.0
H1361 H 0.26156 0.67194 0.88973 0.0
H1362 H 0.30513 0.71253 0.90621 0.0
H1363 H 0.25586 0.73922 0.96457 0.0
H1364 H 0.21189 0.69901 0.94819 0.0
H1365 H 0.13568 0.52165 0.93899 0.0
H1366 H 0.15993 0.55794 0.90998 0.0
H1367 H 0.14096 0.62335 0.95981 0.0
H1368 H 0.11669 0.58713 0.98866 0.0
H1369 H 0.19898 0.64053 0.94333 0.0
H1370 H 0.10337 0.6013 0.91087 0.0
H1371 H 0.05754 0.56335 0.89564 0.0
H1372 H 0.10019 0.53532 0.83245 0.0
H1373 H 0.14652 0.57278 0.84761 0.0
C1374 C 0.23027 0.72628 0.8534 0.0
C1375 C 0.24309 0.71797 0.83144 0.0
C1376 C 0.21512 0.70588 0.86958 0.0
C1377 C 0.21243 0.67675 0.86414 0.0
C1378 C 0.22475 0.66823 0.84206 0.0
C1379 C 0.24012 0.68869 0.82592 0.0
C1380 C 0.19734 0.65539 0.8819 0.0
C1381 C 0.1723 0.6321 0.87331 0.0
C1382 C 0.20689 0.65867 0.90753 0.0
C1383 C 0.23339 0.68263 0.91759 0.0
C1384 C 0.25997 0.68659 0.90596 0.0
C1385 C 0.28475 0.70951 0.9153 0.0
C1386 C 0.28325 0.72849 0.93639 0.0
C1387 C 0.25698 0.72452 0.94823 0.0
C1388 C 0.23213 0.70166 0.93893 0.0
C1389 C 0.13669 0.54377 0.9436 0.0
C1390 C 0.12388 0.55162 0.96564 0.0
C1391 C 0.15044 0.56441 0.92709 0.0
C1392 C 0.15203 0.59324 0.93272 0.0
C1393 C 0.13983 0.6012 0.9551 0.0
C1394 C 0.12569 0.58048 0.97134 0.0
C1395 C 0.16643 0.61507 0.9152 0.0
C1396 C 0.19129 0.63846 0.92386 0.0
C1397 C 0.15634 0.61223 0.88983 0.0
C1398 C 0.12856 0.58958 0.88061 0.0
C1399 C 0.10312 0.58674 0.89396 0.0
C1400 C 0.07701 0.56536 0.88531 0.0
C1401 C 0.07598 0.54682 0.86317 0.0
C1402 C 0.10105 0.54966 0.84963 0.0
C1403 C 0.12725 0.57098 0.85824 0.0
H1404 H 0.05572 0.53034 0.85644 0.0
H1405 H 0.30245 0.74623 0.94358 0.0
H1406 H 0.37241 0.18334 0.91328 0.0
H1407 H 0.40238 0.16383 0.93597 0.0
H1408 H 0.44983 0.1583 0.86778 0.0
H1409 H 0.41916 0.17693 0.8446 0.0
H1410 H 0.44073 0.11142 0.89134 0.0
H1411 H 0.47869 0.21297 0.91619 0.0
H1412 H 0.478 0.26122 0.93219 0.0
H1413 H 0.44575 0.23052 1.00354 0.0
H1414 H 0.44591 0.18196 0.98785 0.0
H1415 H 0.55421 0.13071 1.0028 0.0
H1416 H 0.53317 0.15042 0.97115 0.0
H1417 H 0.45907 0.07123 0.96259 0.0
H1418 H 0.48021 0.05111 0.99333 0.0
H1419 H 0.48811 0.1639 0.97337 0.0
H1420 H 0.42491 0.05968 0.90633 0.0
H1421 H 0.43083 0.01412 0.88863 0.0
H1422 H 0.52264 0.05486 0.89745 0.0
H1423 H 0.51733 0.10074 0.91486 0.0
C1424 C 0.3889 0.1776 0.9029 0.0
C1425 C 0.39322 0.18179 0.87699 0.0
C1426 C 0.40633 0.16673 0.91605 0.0
C1427 C 0.42876 0.15992 0.90378 0.0
C1428 C 0.4328 0.16348 0.87778 0.0
C1429 C 0.41535 0.17438 0.86458 0.0
C1430 C 0.44797 0.14932 0.91821 0.0
C1431 C 0.45113 0.12292 0.90925 0.0
C1432 C 0.46235 0.16463 0.94125 0.0
C1433 C 0.46209 0.19376 0.95076 0.0
C1434 C 0.47124 0.21645 0.93522 0.0
C1435 C 0.47099 0.24387 0.94425 0.0
C1436 C 0.46177 0.24892 0.96885 0.0
C1437 C 0.45285 0.22657 0.98449 0.0
C1438 C 0.45305 0.1991 0.97554 0.0
C1439 C 0.53371 0.11725 0.9938 0.0
C1440 C 0.51897 0.08927 1.00077 0.0
C1441 C 0.5216 0.12864 0.97575 0.0
C1442 C 0.4945 0.11238 0.96424 0.0
C1443 C 0.48021 0.08415 0.97066 0.0
C1444 C 0.49237 0.07266 0.98845 0.0
C1445 C 0.48018 0.12549 0.94697 0.0
C1446 C 0.4779 0.1524 0.95539 0.0
C1447 C 0.46725 0.11097 0.92314 0.0
C1448 C 0.47068 0.08361 0.9121 0.0
C1449 C 0.44637 0.05898 0.90434 0.0
C1450 C 0.44962 0.03307 0.8944 0.0
C1451 C 0.47708 0.03157 0.89199 0.0
C1452 C 0.50137 0.05601 0.8994 0.0
C1453 C 0.49825 0.08197 0.90934 0.0
H1454 H 0.47955 0.01149 0.88437 0.0
H1455 H 0.4616 0.27016 0.97581 0.0
H1456 H 0.81166 0.37984 0.8095 0.0
H1457 H 0.83317 0.41557 0.8462 0.0
H1458 H 0.81727 0.3462 0.89349 0.0
H1459 H 0.79418 0.31092 0.85728 0.0
H1460 H 0.8216 0.39354 0.92278 0.0
H1461 H 0.87756 0.36704 0.85422 0.0
H1462 H 0.89244 0.36292 0.80957 0.0
H1463 H 0.91642 0.4548 0.80892 0.0
H1464 H 0.90144 0.45941 0.85351 0.0
H1465 H 0.9521 0.40491 0.98166 0.0
H1466 H 0.90701 0.39477 0.95818 0.0
H1467 H 0.93761 0.48213 0.93771 0.0
H1468 H 0.98278 0.49246 0.96122 0.0
H1469 H 0.92258 0.43952 0.89668 0.0
H1470 H 0.88092 0.46246 0.97369 0.0
H1471 H 0.8692 0.46101 0.01913 0.0
H1472 H 0.82092 0.36977 1.00518 0.0
H1473 H 0.83292 0.37047 0.95978 0.0
C1474 C 0.81136 0.37255 0.82812 0.0
C1475 C 0.80145 0.3429 0.83084 0.0
C1476 C 0.82382 0.39286 0.84901 0.0
C1477 C 0.82774 0.38348 0.87236 0.0
C1478 C 0.81466 0.354 0.87567 0.0
C1479 C 0.80149 0.33381 0.85498 0.0
C1480 C 0.85013 0.40254 0.89115 0.0
C1481 C 0.84366 0.40383 0.91714 0.0
C1482 C 0.87892 0.41624 0.88375 0.0
C1483 C 0.88805 0.41352 0.85702 0.0
C1484 C 0.88588 0.38632 0.84449 0.0
C1485 C 0.89432 0.38389 0.81922 0.0
C1486 C 0.90525 0.40855 0.80639 0.0
C1487 C 0.90786 0.43571 0.81885 0.0
C1488 C 0.89941 0.43825 0.84411 0.0
C1489 C 0.94903 0.4221 0.97251 0.0
C1490 C 0.97104 0.4494 0.97306 0.0
C1491 C 0.92315 0.41639 0.95936 0.0
C1492 C 0.91894 0.4378 0.94641 0.0
C1493 C 0.94039 0.46544 0.94781 0.0
C1494 C 0.96616 0.47128 0.96123 0.0
C1495 C 0.89425 0.42974 0.92835 0.0
C1496 C 0.90038 0.43034 0.90241 0.0
C1497 C 0.86546 0.41704 0.93593 0.0
C1498 C 0.85793 0.41652 0.96326 0.0
C1499 C 0.86799 0.44202 0.98032 0.0
C1500 C 0.86129 0.44133 1.0061 0.0
C1501 C 0.84436 0.41531 0.01505 0.0
C1502 C 0.83404 0.38992 0.99823 0.0
C1503 C 0.84078 0.39046 0.97246 0.0
H1504 H 0.83919 0.41483 0.03501 0.0
H1505 H 0.91177 0.40662 0.78683 0.0
H1506 H 0.72343 0.80462 0.82028 0.0
H1507 H 0.70153 0.82948 0.85185 0.0
H1508 H 0.78556 0.88215 0.88344 0.0
H1509 H 0.80759 0.85623 0.8523 0.0
H1510 H 0.75262 0.87207 0.92136 0.0
H1511 H 0.73974 0.90659 0.84332 0.0
H1512 H 0.72487 0.90338 0.79845 0.0
H1513 H 0.63704 0.8575 0.81657 0.0
H1514 H 0.65143 0.86013 0.86151 0.0
H1515 H 0.69964 0.97388 0.99505 0.0
H1516 H 0.72412 0.95113 0.96345 0.0
H1517 H 0.64222 0.88826 0.93633 0.0
H1518 H 0.61774 0.91071 0.96786 0.0
H1519 H 0.67539 0.90564 0.89604 0.0
H1520 H 0.68968 0.8715 0.97452 0.0
H1521 H 0.70547 0.87648 0.01934 0.0
H1522 H 0.79228 0.92449 0.99985 0.0
H1523 H 0.77693 0.92012 0.95494 0.0
C1524 C 0.73748 0.82161 0.83377 0.0
C1525 C 0.7676 0.82834 0.83317 0.0
C1526 C 0.72476 0.83616 0.85197 0.0
C1527 C 0.74154 0.85868 0.87017 0.0
C1528 C 0.77167 0.86519 0.86984 0.0
C1529 C 0.78442 0.85031 0.85177 0.0
C1530 C 0.72767 0.87491 0.88951 0.0
C1531 C 0.73609 0.87975 0.91553 0.0
C1532 C 0.70549 0.88491 0.88274 0.0
C1533 C 0.69672 0.88332 0.85575 0.0
C1534 C 0.71728 0.89565 0.8377 0.0
C1535 C 0.70893 0.89396 0.81226 0.0
C1536 C 0.68004 0.88018 0.80465 0.0
C1537 C 0.65942 0.86814 0.82249 0.0
C1538 C 0.66765 0.86974 0.84795 0.0
C1539 C 0.68672 0.95525 0.98237 0.0
C1540 C 0.65643 0.94438 0.98442 0.0
C1541 C 0.70088 0.94202 0.96422 0.0
C1542 C 0.68536 0.91747 0.9472 0.0
C1543 C 0.6551 0.907 0.94893 0.0
C1544 C 0.64099 0.91997 0.96723 0.0
C1545 C 0.70033 0.90267 0.92775 0.0
C1546 C 0.69204 0.89805 0.90176 0.0
C1547 C 0.72281 0.89318 0.93449 0.0
C1548 C 0.7321 0.89575 0.96143 0.0
C1549 C 0.7121 0.88331 0.97983 0.0
C1550 C 0.72097 0.88599 1.00524 0.0
C1551 C 0.74984 0.90086 0.01245 0.0
C1552 C 0.76992 0.91302 0.99425 0.0
C1553 C 0.76114 0.91044 0.96881 0.0
H1554 H 0.75668 0.90291 0.03214 0.0
H1555 H 0.67362 0.87888 0.78494 0.0
H1556 H 0.98841 0.78606 0.19619 0.0
H1557 H 0.99936 0.74856 0.16863 0.0
H1558 H 0.92727 0.68263 0.19828 0.0
H1559 H 0.91622 0.7198 0.22579 0.0
H1560 H 0.97215 0.66359 0.1861 0.0
H1561 H 0.91581 0.70952 0.14793 0.0
H1562 H 0.9046 0.75123 0.13661 0.0
H1563 H 0.98132 0.77795 0.09283 0.0
H1564 H 0.99328 0.73668 0.10431 0.0
H1565 H 0.96056 0.56263 0.07546 0.0
H1566 H 0.94479 0.59367 0.1071 0.0
H1567 H 1.01614 0.6684 0.08864 0.0
H1568 H 0.0319 0.6378 0.05726 0.0
H1569 H 0.96548 0.67914 0.09553 0.0
H1570 H 1.0229 0.63427 0.13721 0.0
H1571 H 0.03324 0.59229 0.14914 0.0
H1572 H 0.95189 0.5622 0.18591 0.0
H1573 H 0.94092 0.60385 0.17389 0.0
C1574 C 0.97543 0.76352 0.19731 0.0
C1575 C 0.95128 0.75586 0.21284 0.0
C1576 C 0.98167 0.74216 0.18162 0.0
C1577 C 0.96364 0.713 0.18109 0.0
C1578 C 0.94132 0.70506 0.1984 0.0
C1579 C 0.93513 0.72637 0.21418 0.0
C1580 C 0.96564 0.6915 0.16031 0.0
C1581 C 0.97038 0.66676 0.1663 0.0
C1582 C 0.96297 0.69562 0.13453 0.0
C1583 C 0.95556 0.72015 0.12717 0.0
C1584 C 0.93038 0.7244 0.13603 0.0
C1585 C 0.92389 0.74796 0.12958 0.0
C1586 C 0.94226 0.76726 0.11405 0.0
C1587 C 0.96712 0.763 0.10488 0.0
C1588 C 0.97377 0.73952 0.11135 0.0
C1589 C 0.97245 0.58577 0.07784 0.0
C1590 C 0.99758 0.59786 0.06418 0.0
C1591 C 0.96355 0.60337 0.09595 0.0
C1592 C 0.97958 0.63316 0.10031 0.0
C1593 C 1.00359 0.64542 0.08555 0.0
C1594 C 1.01261 0.62791 0.06773 0.0
C1595 C 0.97288 0.65168 0.12128 0.0
C1596 C 0.96701 0.67582 0.11533 0.0
C1597 C 0.97426 0.64683 0.14703 0.0
C1598 C 0.98096 0.62195 0.1544 0.0
C1599 C 1.00713 0.61857 0.14767 0.0
C1600 C 1.01312 0.59487 0.15447 0.0
C1601 C 0.9932 0.57454 0.1682 0.0
C1602 C 0.96728 0.57793 0.17523 0.0
C1603 C 0.96117 0.60159 0.16844 0.0
H1604 H 0.99787 0.5562 0.17345 0.0
H1605 H 0.9372 0.7855 0.10908 0.0
H1606 H 0.35214 0.84027 0.21178 0.0
H1607 H 0.39597 0.8642 0.18925 0.0
H1608 H 0.44392 0.83032 0.2359 0.0
H1609 H 0.39966 0.80547 0.25831 0.0
H1610 H 0.4675 0.89487 0.23094 0.0
H1611 H 0.44023 0.80291 0.18223 0.0
H1612 H 0.40726 0.75793 0.15871 0.0
H1613 H 0.38737 0.80721 0.10486 0.0
H1614 H 0.41993 0.85255 0.12827 0.0
H1615 H 0.55181 0.94216 0.1045 0.0
H1616 H 0.53275 0.9062 0.13494 0.0
H1617 H 0.48355 0.95576 0.16985 0.0
H1618 H 0.50204 0.99122 0.13953 0.0
H1619 H 0.47434 0.87417 0.13749 0.0
H1620 H 0.47753 0.94834 0.23243 0.0
H1621 H 0.51128 0.9933 0.25537 0.0
H1622 H 0.58235 0.97848 0.21705 0.0
H1623 H 0.54914 0.93314 0.1942 0.0
C1624 C 0.37194 0.83772 0.21718 0.0
C1625 C 0.3725 0.82105 0.23684 0.0
C1626 C 0.39693 0.85133 0.20424 0.0
C1627 C 0.42309 0.84895 0.21091 0.0
C1628 C 0.42386 0.83231 0.23049 0.0
C1629 C 0.39861 0.8181 0.24316 0.0
C1630 C 0.44945 0.86499 0.19766 0.0
C1631 C 0.46941 0.89019 0.2106 0.0
C1632 C 0.45221 0.85835 0.17127 0.0
C1633 C 0.43247 0.83117 0.15709 0.0
C1634 C 0.42865 0.80419 0.16549 0.0
C1635 C 0.41006 0.7786 0.15215 0.0
C1636 C 0.3952 0.7797 0.13031 0.0
C1637 C 0.39891 0.80639 0.12177 0.0
C1638 C 0.41748 0.83204 0.13505 0.0
C1639 C 0.53745 0.94564 0.11909 0.0
C1640 C 0.52817 0.96931 0.11957 0.0
C1641 C 0.52655 0.92509 0.13637 0.0
C1642 C 0.50685 0.9284 0.15472 0.0
C1643 C 0.49898 0.95294 0.15608 0.0
C1644 C 0.50941 0.9731 0.13862 0.0
C1645 C 0.49148 0.90493 0.1705 0.0
C1646 C 0.47327 0.87843 0.158 0.0
C1647 C 0.49055 0.91031 0.19731 0.0
C1648 C 0.51075 0.93729 0.21151 0.0
C1649 C 0.50037 0.95449 0.22904 0.0
C1650 C 0.51942 0.9801 0.242 0.0
C1651 C 0.54894 0.98876 0.23764 0.0
C1652 C 0.55948 0.97178 0.22037 0.0
C1653 C 0.54054 0.94613 0.20739 0.0
H1654 H 0.56364 1.00862 0.24765 0.0
H1655 H 0.38086 0.75989 0.11996 0.0
H1656 H 0.73768 0.17945 0.2886 0.0
H1657 H 0.69131 0.14045 0.27812 0.0
H1658 H 0.71696 0.13141 0.20025 0.0
H1659 H 0.7623 0.17157 0.21021 0.0
H1660 H 0.67154 0.15989 0.21711 0.0
H1661 H 0.70439 0.07774 0.22544 0.0
H1662 H 0.71873 0.04654 0.25136 0.0
H1663 H 0.63954 0.02776 0.29163 0.0
H1664 H 0.62492 0.05918 0.26613 0.0
H1665 H 0.6324 0.03903 0.12163 0.0
H1666 H 0.63661 0.05022 0.16705 0.0
H1667 H 0.58248 0.10125 0.16412 0.0
H1668 H 0.58156 0.09312 0.11768 0.0
H1669 H 0.62005 0.05368 0.21035 0.0
H1670 H 0.60156 0.15433 0.20743 0.0
H1671 H 0.59263 0.18756 0.17994 0.0
H1672 H 0.65116 0.17088 0.12515 0.0
H1673 H 0.66045 0.13766 0.15244 0.0
C1674 C 0.73395 0.16821 0.26952 0.0
C1675 C 0.75313 0.17886 0.24997 0.0
C1676 C 0.70746 0.14586 0.26364 0.0
C1677 C 0.70072 0.13341 0.2384 0.0
C1678 C 0.72191 0.14088 0.21987 0.0
C1679 C 0.74784 0.16375 0.22553 0.0
C1680 C 0.67057 0.11969 0.22927 0.0
C1681 C 0.65982 0.13667 0.216 0.0
C1682 C 0.65478 0.08983 0.2289 0.0
C1683 C 0.66384 0.07126 0.24426 0.0
C1684 C 0.69024 0.06732 0.24008 0.0
C1685 C 0.69836 0.04948 0.25461 0.0
C1686 C 0.68014 0.0353 0.27323 0.0
C1687 C 0.65369 0.03884 0.27728 0.0
C1688 C 0.64548 0.05665 0.2628 0.0
C1689 C 0.62102 0.05241 0.13053 0.0
C1690 C 0.60778 0.0663 0.11587 0.0
C1691 C 0.62307 0.05852 0.15686 0.0
C1692 C 0.61127 0.07811 0.16927 0.0
C1693 C 0.5934 0.0876 0.15499 0.0
C1694 C 0.59258 0.08268 0.12834 0.0
C1695 C 0.62396 0.09324 0.19464 0.0
C1696 C 0.63085 0.07703 0.21214 0.0
C1697 C 0.6371 0.12391 0.19834 0.0
C1698 C 0.63129 0.1433 0.18169 0.0
C1699 C 0.61239 0.15773 0.18946 0.0
C1700 C 0.60729 0.17653 0.17395 0.0
C1701 C 0.6212 0.1812 0.15076 0.0
C1702 C 0.64033 0.16717 0.14307 0.0
C1703 C 0.64553 0.14838 0.15854 0.0
H1704 H 0.61725 0.19579 0.1388 0.0
H1705 H 0.68645 0.02149 0.28445 0.0
H1706 H 0.716 0.6847 0.78346 0.0
H1707 H 0.68182 0.6497 0.80908 0.0
H1708 H 0.73438 0.69098 0.87639 0.0
H1709 H 0.76831 0.72544 0.85139 0.0
H1710 H 0.68891 0.61008 0.84359 0.0
H1711 H 0.68791 0.70034 0.92306 0.0
H1712 H 0.69516 0.75237 0.92686 0.0
H1713 H 0.66883 0.74417 0.84856 0.0
H1714 H 0.66068 0.69198 0.84444 0.0
H1715 H 0.6472 0.55738 0.96234 0.0
H1716 H 0.67079 0.58456 0.92747 0.0
H1717 H 0.59532 0.60516 0.91447 0.0
H1718 H 0.57143 0.57775 0.94941 0.0
H1719 H 0.64391 0.65262 0.91392 0.0
H1720 H 0.61085 0.55559 0.87333 0.0
H1721 H 0.60382 0.5036 0.86839 0.0
H1722 H 0.69533 0.5245 0.86637 0.0
H1723 H 0.70294 0.57664 0.87166 0.0
C1724 C 0.72039 0.68608 0.80366 0.0
C1725 C 0.74483 0.70813 0.81532 0.0
C1726 C 0.70089 0.66603 0.81825 0.0
C1727 C 0.70541 0.66794 0.84471 0.0
C1728 C 0.73028 0.68924 0.85609 0.0
C1729 C 0.74969 0.70902 0.84164 0.0
C1730 C 0.68377 0.64904 0.86111 0.0
C1731 C 0.67886 0.61928 0.85884 0.0
C1732 C 0.67029 0.66101 0.88078 0.0
C1733 C 0.67397 0.69222 0.88339 0.0
C1734 C 0.68344 0.70956 0.9067 0.0
C1735 C 0.68772 0.73911 0.9089 0.0
C1736 C 0.68259 0.7516 0.88793 0.0
C1737 C 0.67296 0.73452 0.86475 0.0
C1738 C 0.66852 0.70494 0.86247 0.0
C1739 C 0.63543 0.56752 0.95206 0.0
C1740 C 0.6073 0.56536 0.9589 0.0
C1741 C 0.64899 0.58302 0.93198 0.0
C1742 C 0.63481 0.59673 0.91807 0.0
C1743 C 0.60676 0.59477 0.92485 0.0
C1744 C 0.5931 0.5791 0.94491 0.0
C1745 C 0.64972 0.61367 0.89699 0.0
C1746 C 0.65354 0.64321 0.89848 0.0
C1747 C 0.66194 0.60141 0.87646 0.0
C1748 C 0.65746 0.57005 0.87304 0.0
C1749 C 0.62949 0.54911 0.87199 0.0
C1750 C 0.6254 0.51961 0.86911 0.0
C1751 C 0.64911 0.51075 0.86711 0.0
C1752 C 0.67697 0.53139 0.86793 0.0
C1753 C 0.68119 0.56093 0.87083 0.0
H1754 H 0.6459 0.4879 0.86488 0.0
H1755 H 0.68601 0.77449 0.88966 0.0
H1756 H 0.3992 0.64436 0.78755 0.0
H1757 H 0.428 0.62194 0.80863 0.0
H1758 H 0.46452 0.70012 0.86022 0.0
H1759 H 0.43604 0.72264 0.83915 0.0
H1760 H 0.50484 0.67761 0.84599 0.0
H1761 H 0.40702 0.64255 0.87639 0.0
H1762 H 0.35434 0.61824 0.87166 0.0
H1763 H 0.3652 0.54004 0.83846 0.0
H1764 H 0.418 0.56405 0.84268 0.0
H1765 H 0.53777 0.6404 0.96263 0.0
H1766 H 0.52376 0.65644 0.92481 0.0
H1767 H 0.48871 0.56774 0.89017 0.0
H1768 H 0.50075 0.55152 0.92911 0.0
H1769 H 0.45098 0.58989 0.88751 0.0
H1770 H 0.55098 0.62487 0.86673 0.0
H1771 H 0.60248 0.65042 0.87772 0.0
H1772 H 0.58757 0.73011 0.89645 0.0
H1773 H 0.53594 0.70504 0.88581 0.0
C1774 C 0.41342 0.65673 0.80337 0.0
C1775 C 0.41525 0.68516 0.81185 0.0
C1776 C 0.42994 0.64397 0.81529 0.0
C1777 C 0.44822 0.6593 0.8361 0.0
C1778 C 0.45068 0.68797 0.84409 0.0
C1779 C 0.43436 0.70079 0.83208 0.0
C1780 C 0.46332 0.64508 0.85084 0.0
C1781 C 0.49318 0.65835 0.85502 0.0
C1782 C 0.44814 0.61959 0.86212 0.0
C1783 C 0.41643 0.60521 0.8595 0.0
C1784 C 0.39817 0.62025 0.86786 0.0
C1785 C 0.36829 0.60652 0.86531 0.0
C1786 C 0.35643 0.57765 0.85467 0.0
C1787 C 0.37442 0.56243 0.84662 0.0
C1788 C 0.40431 0.57609 0.84908 0.0
C1789 C 0.52783 0.62443 0.94664 0.0
C1790 C 0.5202 0.59478 0.9487 0.0
C1791 C 0.51998 0.63362 0.92486 0.0
C1792 C 0.50547 0.61337 0.90433 0.0
C1793 C 0.49984 0.58379 0.90572 0.0
C1794 C 0.50681 0.57454 0.92787 0.0
C1795 C 0.49266 0.6227 0.88327 0.0
C1796 C 0.46307 0.60854 0.87786 0.0
C1797 C 0.50811 0.64749 0.87107 0.0
C1798 C 0.53953 0.66301 0.87557 0.0
C1799 C 0.5587 0.64786 0.87311 0.0
C1800 C 0.58791 0.66225 0.87935 0.0
C1801 C 0.59821 0.69181 0.88797 0.0
C1802 C 0.5795 0.70719 0.88983 0.0
C1803 C 0.55028 0.69292 0.88361 0.0
H1804 H 0.62062 0.70283 0.89339 0.0
H1805 H 0.33329 0.56705 0.85274 0.0
H1806 H 0.28906 0.35913 0.81189 0.0
H1807 H 0.31184 0.39989 0.84451 0.0
H1808 H 0.39138 0.38359 0.83708 0.0
H1809 H 0.36901 0.34339 0.80451 0.0
H1810 H 0.33048 0.39506 0.88938 0.0
H1811 H 0.44824 0.44126 0.85204 0.0
H1812 H 0.47193 0.45485 0.81161 0.0
H1813 H 0.39597 0.46524 0.78387 0.0
H1814 H 0.37193 0.45213 0.82426 0.0
H1815 H 0.44183 0.42196 0.97759 0.0
H1816 H 0.40399 0.40906 0.94489 0.0
H1817 H 0.4305 0.49854 0.93065 0.0
H1818 H 0.46863 0.51153 0.96313 0.0
H1819 H 0.43008 0.46628 0.88845 0.0
H1820 H 0.36278 0.4644 0.95127 0.0
H1821 H 0.33623 0.4547 0.99105 0.0
H1822 H 0.30744 0.36324 0.96767 0.0
H1823 H 0.33426 0.37227 0.92795 0.0
C1824 C 0.31167 0.36488 0.81665 0.0
C1825 C 0.32725 0.34802 0.80571 0.0
C1826 C 0.32459 0.38805 0.8354 0.0
C1827 C 0.35336 0.39492 0.84318 0.0
C1828 C 0.36932 0.3791 0.83113 0.0
C1829 C 0.35644 0.35595 0.81259 0.0
C1830 C 0.36602 0.41588 0.8659 0.0
C1831 C 0.35212 0.41093 0.88921 0.0
C1832 C 0.39373 0.43747 0.86553 0.0
C1833 C 0.40823 0.44561 0.84122 0.0
C1834 C 0.43663 0.44664 0.83741 0.0
C1835 C 0.45011 0.45421 0.81446 0.0
C1836 C 0.43545 0.46087 0.79518 0.0
C1837 C 0.40728 0.46 0.7988 0.0
C1838 C 0.3937 0.45246 0.82171 0.0
C1839 C 0.43922 0.43904 0.96795 0.0
C1840 C 0.45849 0.46777 0.97286 0.0
C1841 C 0.41737 0.43166 0.94936 0.0
C1842 C 0.4143 0.45284 0.93532 0.0
C1843 C 0.43239 0.48183 0.94127 0.0
C1844 C 0.45417 0.48924 0.95994 0.0
C1845 C 0.39539 0.44383 0.91212 0.0
C1846 C 0.40815 0.45102 0.88868 0.0
C1847 C 0.36639 0.42484 0.9124 0.0
C1848 C 0.35073 0.41906 0.9366 0.0
C1849 C 0.35107 0.44218 0.9547 0.0
C1850 C 0.33593 0.4368 0.97725 0.0
C1851 C 0.32022 0.40837 0.98191 0.0
C1852 C 0.31964 0.38525 0.96404 0.0
C1853 C 0.3348 0.3905 0.94148 0.0
H1854 H 0.30842 0.40426 0.99933 0.0
H1855 H 0.44593 0.46671 0.77742 0.0
H1856 H 0.6149 0.29889 0.80826 0.0
H1857 H 0.6075 0.32407 0.84873 0.0
H1858 H 0.66847 0.29702 0.88611 0.0
H1859 H 0.6762 0.27209 0.84588 0.0
H1860 H 0.6244 0.29829 0.91727 0.0
H1861 H 0.69258 0.36018 0.86561 0.0
H1862 H 0.71131 0.38209 0.82631 0.0
H1863 H 0.64491 0.41852 0.82678 0.0
H1864 H 0.62542 0.39632 0.86582 0.0
H1865 H 0.64288 0.45598 0.98444 0.0
H1866 H 0.66215 0.42336 0.95839 0.0
H1867 H 0.57874 0.35505 0.95647 0.0
H1868 H 0.5598 0.38675 0.98286 0.0
H1869 H 0.64652 0.40306 0.91198 0.0
H1870 H 0.58091 0.28946 0.94519 0.0
H1871 H 0.56643 0.26811 0.98545 0.0
H1872 H 0.63623 0.33732 0.02525 0.0
H1873 H 0.65144 0.35887 0.98517 0.0
C1874 C 0.62623 0.29779 0.82521 0.0
C1875 C 0.64632 0.28376 0.82381 0.0
C1876 C 0.62203 0.31217 0.84827 0.0
C1877 C 0.63796 0.31286 0.87018 0.0
C1878 C 0.65609 0.29678 0.86936 0.0
C1879 C 0.66031 0.28239 0.84633 0.0
C1880 C 0.63782 0.33264 0.89312 0.0
C1881 C 0.62923 0.32122 0.91626 0.0
C1882 C 0.64561 0.36275 0.89193 0.0
C1883 C 0.6574 0.37638 0.86855 0.0
C1884 C 0.68183 0.37267 0.85723 0.0
C1885 C 0.69259 0.38515 0.835 0.0
C1886 C 0.67927 0.40163 0.82403 0.0
C1887 C 0.65518 0.40571 0.83529 0.0
C1888 C 0.64427 0.39319 0.85747 0.0
C1889 C 0.6289 0.43379 0.97896 0.0
C1890 C 0.59972 0.42411 0.98542 0.0
C1891 C 0.63992 0.41519 0.96409 0.0
C1892 C 0.62195 0.38668 0.95562 0.0
C1893 C 0.59325 0.37669 0.96318 0.0
C1894 C 0.58232 0.39508 0.97805 0.0
C1895 C 0.63148 0.36855 0.93603 0.0
C1896 C 0.64204 0.38026 0.91334 0.0
C1897 C 0.62615 0.33888 0.93791 0.0
C1898 C 0.61724 0.32588 0.96212 0.0
C1899 C 0.59331 0.30004 0.96248 0.0
C1900 C 0.58494 0.28792 0.98529 0.0
C1901 C 0.60037 0.30138 1.0079 0.0
C1902 C 0.62424 0.32696 1.00773 0.0
C1903 C 0.63272 0.33917 0.98497 0.0
H1904 H 0.59385 0.29196 0.02555 0.0
H1905 H 0.68765 0.4113 0.80683 0.0
H1906 H 0.63445 0.30405 0.15809 0.0
H1907 H 0.61141 0.3366 0.1456 0.0
H1908 H 0.60725 0.36792 0.22443 0.0
H1909 H 0.63011 0.33496 0.23722 0.0
H1910 H 0.55627 0.36015 0.19152 0.0
H1911 H 0.65865 0.40821 0.19803 0.0
H1912 H 0.70903 0.41217 0.1912 0.0
H1913 H 0.69448 0.40132 0.11022 0.0
H1914 H 0.64385 0.39681 0.11658 0.0
H1915 H 0.59071 0.49455 0.11024 0.0
H1916 H 0.60002 0.47244 0.14655 0.0
H1917 H 0.53012 0.3931 0.12118 0.0
H1918 H 0.51987 0.41551 0.08576 0.0
H1919 H 0.61997 0.43261 0.13861 0.0
H1920 H 0.51049 0.34622 0.16509 0.0
H1921 H 0.46073 0.34322 0.17376 0.0
H1922 H 0.48984 0.43546 0.19249 0.0
H1923 H 0.53989 0.43908 0.18445 0.0
C1924 C 0.62803 0.31731 0.17284 0.0
C1925 C 0.63427 0.31709 0.19863 0.0
C1926 C 0.61494 0.33595 0.16567 0.0
C1927 C 0.60783 0.35471 0.18411 0.0
C1928 C 0.61257 0.35353 0.20997 0.0
C1929 C 0.62587 0.33495 0.21719 0.0
C1930 C 0.59838 0.37745 0.17586 0.0
C1931 C 0.57008 0.37624 0.18011 0.0
C1932 C 0.61687 0.39891 0.16174 0.0
C1933 C 0.64742 0.402 0.1578 0.0
C1934 C 0.66615 0.40647 0.17877 0.0
C1935 C 0.69475 0.40884 0.17498 0.0
C1936 C 0.70494 0.40696 0.15029 0.0
C1937 C 0.68655 0.40277 0.12934 0.0
C1938 C 0.65791 0.40034 0.13302 0.0
C1939 C 0.5767 0.47273 0.11295 0.0
C1940 C 0.55501 0.45653 0.09484 0.0
C1941 C 0.58203 0.4601 0.13372 0.0
C1942 C 0.56604 0.43094 0.13651 0.0
C1943 C 0.54259 0.4157 0.11976 0.0
C1944 C 0.53689 0.42852 0.09929 0.0
C1945 C 0.57717 0.41499 0.15331 0.0
C1946 C 0.60601 0.41723 0.15054 0.0
C1947 C 0.55917 0.3949 0.16906 0.0
C1948 C 0.52905 0.39291 0.17409 0.0
C1949 C 0.50636 0.36587 0.17124 0.0
C1950 C 0.47807 0.36407 0.17602 0.0
C1951 C 0.47216 0.38913 0.18373 0.0
C1952 C 0.49447 0.41608 0.18653 0.0
C1953 C 0.52282 0.41802 0.18184 0.0
H1954 H 0.45033 0.38766 0.18769 0.0
H1955 H 0.7271 0.40879 0.14739 0.0
H1956 H 0.7327 0.6897 0.22952 0.0
H1957 H 0.71427 0.6542 0.19314 0.0
H1958 H 0.79792 0.68256 0.1592 0.0
H1959 H 0.81658 0.71965 0.19577 0.0
H1960 H 0.7613 0.67791 0.12503 0.0
H1961 H 0.76581 0.61123 0.17746 0.0
H1962 H 0.7631 0.58665 0.21595 0.0
H1963 H 0.67131 0.56376 0.21597 0.0
H1964 H 0.67344 0.58861 0.17775 0.0
H1965 H 0.62657 0.54289 0.064 0.0
H1966 H 0.67241 0.56006 0.08813 0.0
H1967 H 0.6745 0.64791 0.09115 0.0
H1968 H 0.63029 0.63137 0.06625 0.0
H1969 H 0.68536 0.58227 0.13281 0.0
H1970 H 0.73584 0.69856 0.0978 0.0
H1971 H 0.74335 0.71927 0.05687 0.0
H1972 H 0.73477 0.63627 0.0174 0.0
H1973 H 0.72769 0.6151 0.05813 0.0
C1974 C 0.7475 0.68835 0.21458 0.0
C1975 C 0.77616 0.70782 0.21558 0.0
C1976 C 0.73691 0.66757 0.19377 0.0
C1977 C 0.75472 0.66511 0.17345 0.0
C1978 C 0.78373 0.68384 0.17468 0.0
C1979 C 0.7944 0.705 0.19562 0.0
C1980 C 0.74153 0.64529 0.15006 0.0
C1981 C 0.74503 0.65679 0.12661 0.0
C1982 C 0.72146 0.6169 0.15153 0.0
C1983 C 0.71982 0.60183 0.17463 0.0
C1984 C 0.74504 0.6011 0.18573 0.0
C1985 C 0.74361 0.5871 0.20752 0.0
C1986 C 0.71705 0.57364 0.21839 0.0
C1987 C 0.69186 0.57415 0.20749 0.0
C1988 C 0.69317 0.58813 0.18571 0.0
C1989 C 0.63722 0.56592 0.06928 0.0
C1990 C 0.62467 0.58569 0.063 0.0
C1991 C 0.66343 0.57573 0.08316 0.0
C1992 C 0.67746 0.60544 0.09112 0.0
C1993 C 0.66496 0.62504 0.08455 0.0
C1994 C 0.63924 0.61539 0.07047 0.0
C1995 C 0.70324 0.61625 0.10865 0.0
C1996 C 0.70223 0.60295 0.13092 0.0
C1997 C 0.72647 0.64236 0.10568 0.0
C1998 C 0.73121 0.65521 0.08112 0.0
C1999 C 0.73585 0.68475 0.08046 0.0
C2000 C 0.73994 0.69657 0.05726 0.0
C2001 C 0.73952 0.6791 0.03455 0.0
C2002 C 0.73504 0.64977 0.035 0.0
C2003 C 0.73095 0.63784 0.05815 0.0
H2004 H 0.74266 0.68829 0.01661 0.0
H2005 H 0.71599 0.56282 0.23527 0.0
H2006 H 0.4139 0.71955 0.24181 0.0
H2007 H 0.42785 0.70101 0.20103 0.0
H2008 H 0.38659 0.61344 0.21942 0.0
H2009 H 0.37208 0.63195 0.2605 0.0
H2010 H 0.44506 0.62929 0.19581 0.0
H2011 H 0.34983 0.62727 0.18327 0.0
H2012 H 0.31011 0.64596 0.18682 0.0
H2013 H 0.35735 0.71569 0.14392 0.0
H2014 H 0.39772 0.69771 0.14048 0.0
H2015 H 0.43045 0.58104 0.05532 0.0
H2016 H 0.40681 0.5958 0.09232 0.0
H2017 H 0.48695 0.66339 0.11755 0.0
H2018 H 0.51084 0.64907 0.08071 0.0
H2019 H 0.40177 0.64855 0.11886 0.0
H2020 H 0.49787 0.64756 0.17925 0.0
H2021 H 0.53596 0.62649 0.17529 0.0
H2022 H 0.48278 0.55697 0.12206 0.0
H2023 H 0.44409 0.5771 0.12629 0.0
C2024 C 0.40848 0.69638 0.23753 0.0
C2025 C 0.39213 0.67712 0.25433 0.0
C2026 C 0.41618 0.68585 0.21415 0.0
C2027 C 0.40788 0.65596 0.2073 0.0
C2028 C 0.39298 0.63661 0.22453 0.0
C2029 C 0.38483 0.64715 0.24787 0.0
C2030 C 0.41405 0.64536 0.18162 0.0
C2031 C 0.43549 0.63324 0.17895 0.0
C2032 C 0.40102 0.65017 0.15981 0.0
C2033 C 0.37693 0.66127 0.16184 0.0
C2034 C 0.35192 0.64678 0.17484 0.0
C2035 C 0.32926 0.65724 0.17679 0.0
C2036 C 0.33126 0.6821 0.1657 0.0
C2037 C 0.35591 0.6965 0.15256 0.0
C2038 C 0.37868 0.68616 0.15058 0.0
C2039 C 0.44288 0.59965 0.06828 0.0
C2040 C 0.47273 0.61334 0.06549 0.0
C2041 C 0.42927 0.60809 0.08933 0.0
C2042 C 0.44542 0.63014 0.10779 0.0
C2043 C 0.47435 0.64602 0.10355 0.0
C2044 C 0.48794 0.63774 0.08248 0.0
C2045 C 0.43359 0.63356 0.13311 0.0
C2046 C 0.41112 0.64432 0.13569 0.0
C2047 C 0.44534 0.627 0.15485 0.0
C2048 C 0.46817 0.61411 0.15285 0.0
C2049 C 0.49421 0.62768 0.16683 0.0
C2050 C 0.51592 0.61588 0.16455 0.0
C2051 C 0.51186 0.59049 0.14834 0.0
C2052 C 0.48601 0.57676 0.13448 0.0
C2053 C 0.46416 0.58834 0.13684 0.0
H2054 H 0.5287 0.58142 0.14658 0.0
H2055 H 0.3137 0.69017 0.16719 0.0
H2056 H 0.3106 0.32386 0.19647 0.0
H2057 H 0.34155 0.35546 0.1672 0.0
H2058 H 0.40691 0.39317 0.22657 0.0
H2059 H 0.37527 0.36238 0.25635 0.0
H2060 H 0.40623 0.43381 0.19977 0.0
H2061 H 0.40686 0.33852 0.17904 0.0
H2062 H 0.38555 0.28561 0.16819 0.0
H2063 H 0.35182 0.2973 0.0977 0.0
H2064 H 0.37169 0.35028 0.1086 0.0
H2065 H 0.51287 0.48804 0.10164 0.0
H2066 H 0.48854 0.45855 0.13561 0.0
H2067 H 0.40675 0.43804 0.09717 0.0
H2068 H 0.43066 0.46763 0.06363 0.0
H2069 H 0.42223 0.38835 0.11526 0.0
H2070 H 0.4104 0.4808 0.14243 0.0
H2071 H 0.4279 0.53361 0.15441 0.0
H2072 H 0.48445 0.52586 0.21141 0.0
H2073 H 0.46681 0.47282 0.19999 0.0
C2074 C 0.33145 0.3391 0.20339 0.0
C2075 C 0.34052 0.34049 0.22871 0.0
C2076 C 0.34926 0.35706 0.18656 0.0
C2077 C 0.37701 0.37626 0.19437 0.0
C2078 C 0.38572 0.37847 0.21995 0.0
C2079 C 0.3676 0.36086 0.23699 0.0
C2080 C 0.39694 0.39348 0.17566 0.0
C2081 C 0.41004 0.42366 0.18151 0.0
C2082 C 0.40207 0.38047 0.15162 0.0
C2083 C 0.3907 0.34852 0.14474 0.0
C2084 C 0.39479 0.32988 0.16127 0.0
C2085 C 0.38293 0.29984 0.15513 0.0
C2086 C 0.36753 0.28812 0.13221 0.0
C2087 C 0.36381 0.30641 0.11544 0.0
C2088 C 0.37527 0.33647 0.12164 0.0
C2089 C 0.48973 0.4771 0.10041 0.0
C2090 C 0.47371 0.48015 0.07991 0.0
C2091 C 0.47586 0.4604 0.11987 0.0
C2092 C 0.44582 0.44611 0.11889 0.0
C2093 C 0.42992 0.44884 0.09829 0.0
C2094 C 0.44364 0.46589 0.07919 0.0
C2095 C 0.43056 0.42839 0.13926 0.0
C2096 C 0.41858 0.39818 0.13373 0.0
C2097 C 0.42654 0.4412 0.16356 0.0
C2098 C 0.43766 0.473 0.1701 0.0
C2099 C 0.42678 0.49042 0.15734 0.0
C2100 C 0.43661 0.52037 0.16411 0.0
C2101 C 0.45747 0.53315 0.18352 0.0
C2102 C 0.46838 0.51595 0.19631 0.0
C2103 C 0.45838 0.48593 0.18977 0.0
H2104 H 0.46507 0.55636 0.18873 0.0
H2105 H 0.35843 0.26485 0.12748 0.0
H2106 H 0.79578 0.71109 0.69637 0.0
H2107 H 0.81669 0.68568 0.66373 0.0
H2108 H 0.89278 0.70792 0.71109 0.0
H2109 H 0.8717 0.73264 0.74405 0.0
H2110 H 0.90552 0.71838 0.65915 0.0
H2111 H 0.84676 0.64015 0.70488 0.0
H2112 H 0.80149 0.60947 0.72272 0.0
H2113 H 0.76205 0.5856 0.64793 0.0
H2114 H 0.80699 0.61649 0.62968 0.0
H2115 H 0.97693 0.63558 0.58744 0.0
H2116 H 0.95411 0.65811 0.62011 0.0
H2117 H 0.87119 0.6104 0.58386 0.0
H2118 H 0.89406 0.58635 0.55183 0.0
H2119 H 0.86053 0.61362 0.62969 0.0
H2120 H 0.91564 0.69042 0.58275 0.0
H2121 H 0.95804 0.72339 0.56281 0.0
H2122 H 1.00098 0.75299 0.63593 0.0
H2123 H 0.959 0.71987 0.65628 0.0
C2124 C 0.81689 0.71045 0.70003 0.0
C2125 C 0.83176 0.72403 0.72325 0.0
C2126 C 0.82892 0.69578 0.6812 0.0
C2127 C 0.85656 0.69456 0.68458 0.0
C2128 C 0.87152 0.7083 0.70766 0.0
C2129 C 0.85926 0.72242 0.72671 0.0
C2130 C 0.86995 0.67938 0.66414 0.0
C2131 C 0.89583 0.69537 0.65299 0.0
C2132 C 0.85711 0.64951 0.65503 0.0
C2133 C 0.83014 0.63087 0.66596 0.0
C2134 C 0.82835 0.62856 0.69227 0.0
C2135 C 0.80277 0.61109 0.70245 0.0
C2136 C 0.77888 0.59566 0.68648 0.0
C2137 C 0.78056 0.5976 0.66029 0.0
C2138 C 0.80609 0.61507 0.65001 0.0
C2139 C 0.95378 0.62973 0.58629 0.0
C2140 C 0.93761 0.60901 0.56654 0.0
C2141 C 0.94058 0.64307 0.60508 0.0
C2142 C 0.91059 0.63712 0.60462 0.0
C2143 C 0.89428 0.61596 0.5851 0.0
C2144 C 0.90748 0.60207 0.56655 0.0
C2145 C 0.89648 0.65255 0.62451 0.0
C2146 C 0.87039 0.63665 0.63564 0.0
C2147 C 0.90881 0.68276 0.63319 0.0
C2148 C 0.93428 0.70239 0.62099 0.0
C2149 C 0.93423 0.70376 0.59455 0.0
C2150 C 0.95817 0.72251 0.58318 0.0
C2151 C 0.98222 0.74019 0.59809 0.0
C2152 C 0.98236 0.73921 0.6244 0.0
C2153 C 0.9585 0.72046 0.63586 0.0
H2154 H 1.00073 0.7547 0.58925 0.0
H2155 H 0.7591 0.58214 0.6944 0.0
H2156 H 0.37156 0.83687 0.74278 0.0
H2157 H 0.39938 0.87082 0.71387 0.0
H2158 H 0.32174 0.88004 0.68777 0.0
H2159 H 0.29347 0.84575 0.71672 0.0
H2160 H 0.35576 0.87314 0.64826 0.0
H2161 H 0.36664 0.93316 0.72659 0.0
H2162 H 0.37705 0.94876 0.77241 0.0
H2163 H 0.46407 0.95228 0.76258 0.0
H2164 H 0.45407 0.93631 0.71667 0.0
H2165 H 0.41983 0.99957 0.58825 0.0
H2166 H 0.39357 0.96551 0.61755 0.0
H2167 H 0.47187 0.95378 0.6382 0.0
H2168 H 0.49874 0.98849 0.60895 0.0
H2169 H 0.43816 0.96141 0.68009 0.0
H2170 H 0.42509 0.90314 0.59898 0.0
H2171 H 0.41263 0.89205 0.55309 0.0
H2172 H 0.32653 0.88871 0.56853 0.0
H2173 H 0.33861 0.90031 0.61449 0.0
C2174 C 0.36029 0.84609 0.73096 0.0
C2175 C 0.33025 0.83863 0.73212 0.0
C2176 C 0.3763 0.8656 0.71449 0.0
C2177 C 0.36266 0.87812 0.69884 0.0
C2178 C 0.33266 0.8706 0.69973 0.0
C2179 C 0.31657 0.85112 0.71635 0.0
C2180 C 0.37991 0.89891 0.68147 0.0
C2181 C 0.37357 0.8926 0.65523 0.0
C2182 C 0.40343 0.92405 0.69058 0.0
C2183 C 0.40952 0.93324 0.71823 0.0
C2184 C 0.38792 0.93696 0.73423 0.0
C2185 C 0.39376 0.94594 0.7602 0.0
C2186 C 0.42119 0.95148 0.7704 0.0
C2187 C 0.44283 0.94797 0.75464 0.0
C2188 C 0.43709 0.93897 0.72863 0.0
C2189 C 0.43165 0.98991 0.59901 0.0
C2190 C 0.46145 0.99666 0.59609 0.0
C2191 C 0.41649 0.9703 0.61569 0.0
C2192 C 0.43069 0.95686 0.62975 0.0
C2193 C 0.46052 0.96386 0.62736 0.0
C2194 C 0.4758 0.98355 0.61056 0.0
C2195 C 0.41409 0.93555 0.64693 0.0
C2196 C 0.42052 0.94179 0.67313 0.0
C2197 C 0.39037 0.9106 0.6378 0.0
C2198 C 0.38283 0.90281 0.6102 0.0
C2199 C 0.40354 0.9002 0.59259 0.0
C2200 C 0.39655 0.89383 0.56655 0.0
C2201 C 0.36883 0.88976 0.55789 0.0
C2202 C 0.34801 0.89192 0.57526 0.0
C2203 C 0.35491 0.89836 0.60131 0.0
H2204 H 0.36348 0.88489 0.53772 0.0
H2205 H 0.42567 0.95864 0.79048 0.0
H2206 H 0.1297 0.32549 0.68933 0.0
H2207 H 0.10304 0.34804 0.66583 0.0
H2208 H 0.18294 0.41168 0.6456 0.0
H2209 H 0.20982 0.38894 0.66853 0.0
H2210 H 0.142 0.43608 0.65969 0.0
H2211 H 0.14636 0.35322 0.60352 0.0
H2212 H 0.13795 0.30122 0.59304 0.0
H2213 H 0.04734 0.28046 0.60402 0.0
H2214 H 0.05528 0.33243 0.6148 0.0
H2215 H 0.10954 0.49257 0.55362 0.0
H2216 H 0.12656 0.47031 0.58534 0.0
H2217 H 0.04273 0.40305 0.58543 0.0
H2218 H 0.02582 0.42467 0.55233 0.0
H2219 H 0.07969 0.37875 0.58583 0.0
H2220 H 0.07215 0.45964 0.63746 0.0
H2221 H 0.07803 0.51066 0.65034 0.0
H2222 H 0.16993 0.53435 0.65184 0.0
H2223 H 0.16465 0.48352 0.63861 0.0
C2224 C 0.14171 0.34421 0.67982 0.0
C2225 C 0.17209 0.35514 0.6808 0.0
C2226 C 0.12635 0.35717 0.66643 0.0
C2227 C 0.14092 0.38143 0.65365 0.0
C2228 C 0.17114 0.39302 0.65531 0.0
C2229 C 0.18653 0.38001 0.6686 0.0
C2230 C 0.12489 0.39425 0.63784 0.0
C2231 C 0.12855 0.42364 0.64341 0.0
C2232 C 0.10628 0.37776 0.61723 0.0
C2233 C 0.10144 0.34664 0.61022 0.0
C2234 C 0.12466 0.33756 0.60383 0.0
C2235 C 0.11998 0.30811 0.59781 0.0
C2236 C 0.09214 0.28756 0.59795 0.0
C2237 C 0.06889 0.29642 0.60398 0.0
C2238 C 0.07346 0.32586 0.61 0.0
C2239 C 0.09444 0.47327 0.56056 0.0
C2240 C 0.06616 0.46056 0.55034 0.0
C2241 C 0.10425 0.46056 0.57897 0.0
C2242 C 0.08593 0.43514 0.58839 0.0
C2243 C 0.05742 0.42266 0.57864 0.0
C2244 C 0.04768 0.43514 0.55977 0.0
C2245 C 0.09729 0.42101 0.60721 0.0
C2246 C 0.09278 0.39129 0.60226 0.0
C2247 C 0.11465 0.4371 0.62875 0.0
C2248 C 0.11799 0.46774 0.63686 0.0
C2249 C 0.09363 0.47574 0.64037 0.0
C2250 C 0.09686 0.50464 0.64776 0.0
C2251 C 0.12434 0.52575 0.65186 0.0
C2252 C 0.14865 0.51798 0.64864 0.0
C2253 C 0.14555 0.48911 0.64124 0.0
H2254 H 0.1268 0.54811 0.65757 0.0
H2255 H 0.0886 0.26479 0.59331 0.0
H2256 H 0.81865 0.20189 0.70893 0.0
H2257 H 0.79002 0.15942 0.67993 0.0
H2258 H 0.71464 0.15391 0.72416 0.0
H2259 H 0.74361 0.19421 0.75379 0.0
H2260 H 0.70482 0.1051 0.70232 0.0
H2261 H 0.74216 0.20161 0.67285 0.0
H2262 H 0.78115 0.24542 0.66154 0.0
H2263 H 0.81174 0.19312 0.60683 0.0
H2264 H 0.77305 0.14897 0.61805 0.0
H2265 H 0.59857 0.12532 0.62779 0.0
H2266 H 0.64051 0.1312 0.65443 0.0
H2267 H 0.66893 0.0801 0.59626 0.0
H2268 H 0.62679 0.07389 0.56955 0.0
H2269 H 0.70963 0.14053 0.61763 0.0
H2270 H 0.64792 0.04791 0.64346 0.0
H2271 H 0.60259 0.01455 0.65922 0.0
H2272 H 0.61004 0.07342 0.72659 0.0
H2273 H 0.65504 0.10745 0.71128 0.0
C2274 C 0.7963 0.19042 0.71298 0.0
C2275 C 0.78307 0.20099 0.73332 0.0
C2276 C 0.77987 0.16645 0.69633 0.0
C2277 C 0.74989 0.15406 0.69923 0.0
C2278 C 0.73761 0.16294 0.72125 0.0
C2279 C 0.75414 0.1861 0.73823 0.0
C2280 C 0.73027 0.13618 0.67791 0.0
C2281 C 0.70605 0.11264 0.68368 0.0
C2282 C 0.73192 0.14565 0.65336 0.0
C2283 C 0.75506 0.17206 0.64652 0.0
C2284 C 0.7573 0.1995 0.65848 0.0
C2285 C 0.77933 0.22436 0.6521 0.0
C2286 C 0.79898 0.22204 0.63354 0.0
C2287 C 0.79657 0.19486 0.62126 0.0
C2288 C 0.77462 0.16992 0.62763 0.0
C2289 C 0.61376 0.11536 0.62069 0.0
C2290 C 0.60943 0.09905 0.59671 0.0
C2291 C 0.63745 0.11843 0.636 0.0
C2292 C 0.65736 0.10559 0.62741 0.0
C2293 C 0.65342 0.08968 0.6033 0.0
C2294 C 0.62939 0.08615 0.58813 0.0
C2295 C 0.68349 0.11127 0.64299 0.0
C2296 C 0.70897 0.1322 0.63587 0.0
C2297 C 0.68206 0.10093 0.66701 0.0
C2298 C 0.65495 0.08026 0.67618 0.0
C2299 C 0.63984 0.05384 0.66156 0.0
C2300 C 0.61422 0.03479 0.67042 0.0
C2301 C 0.60351 0.0418 0.69382 0.0
C2302 C 0.61838 0.06795 0.70848 0.0
C2303 C 0.64397 0.08712 0.69975 0.0
H2304 H 0.58367 0.02697 0.70058 0.0
H2305 H 0.81602 0.24131 0.62862 0.0
H2306 H 0.80814 0.37205 0.28142 0.0
H2307 H 0.82645 0.4118 0.3157 0.0
H2308 H 0.77713 0.35565 0.36984 0.0
H2309 H 0.75733 0.31675 0.33533 0.0
H2310 H 0.79105 0.41114 0.38969 0.0
H2311 H 0.84074 0.35074 0.34492 0.0
H2312 H 0.8628 0.3329 0.30771 0.0
H2313 H 0.91904 0.41972 0.2996 0.0
H2314 H 0.89667 0.43826 0.33611 0.0
H2315 H 0.93079 0.42265 0.46036 0.0
H2316 H 0.88603 0.40119 0.43533 0.0
H2317 H 0.8836 0.48613 0.42965 0.0
H2318 H 0.92852 0.508 0.4548 0.0
H2319 H 0.89431 0.42286 0.38568 0.0
H2320 H 0.80325 0.46487 0.41569 0.0
H2321 H 0.78305 0.48086 0.45499 0.0
H2322 H 0.81252 0.427 0.49689 0.0
H2323 H 0.83246 0.41035 0.4578 0.0
C2324 C 0.7999 0.36893 0.30041 0.0
C2325 C 0.78165 0.34156 0.30602 0.0
C2326 C 0.8104 0.39154 0.32 0.0
C2327 C 0.804 0.38626 0.34541 0.0
C2328 C 0.78257 0.36014 0.35042 0.0
C2329 C 0.7713 0.33787 0.33071 0.0
C2330 C 0.82428 0.40376 0.36632 0.0
C2331 C 0.81372 0.41412 0.38873 0.0
C2332 C 0.85382 0.40719 0.36527 0.0
C2333 C 0.86671 0.39592 0.34296 0.0
C2334 C 0.85757 0.36604 0.335 0.0
C2335 C 0.8701 0.3558 0.31403 0.0
C2336 C 0.89218 0.3751 0.30124 0.0
C2337 C 0.90177 0.40476 0.30935 0.0
C2338 C 0.8891 0.41518 0.3301 0.0
C2339 C 0.92038 0.43679 0.45443 0.0
C2340 C 0.93358 0.46704 0.45895 0.0
C2341 C 0.89467 0.42446 0.44034 0.0
C2342 C 0.88176 0.44215 0.43061 0.0
C2343 C 0.89323 0.47219 0.43722 0.0
C2344 C 0.91899 0.4846 0.45145 0.0
C2345 C 0.86107 0.42981 0.40906 0.0
C2346 C 0.87175 0.4205 0.38649 0.0
C2347 C 0.83186 0.42711 0.41026 0.0
C2348 C 0.8197 0.4367 0.43386 0.0
C2349 C 0.80536 0.4564 0.43328 0.0
C2350 C 0.79394 0.46557 0.45552 0.0
C2351 C 0.79661 0.45505 0.47844 0.0
C2352 C 0.8106 0.43525 0.47915 0.0
C2353 C 0.82203 0.426 0.45696 0.0
H2354 H 0.78777 0.46218 0.49564 0.0
H2355 H 0.90191 0.36702 0.28511 0.0
H2356 H 0.63847 0.77198 0.38334 0.0
H2357 H 0.62143 0.80563 0.4101 0.0
H2358 H 0.70627 0.8478 0.44449 0.0
H2359 H 0.7234 0.81396 0.41802 0.0
H2360 H 0.66679 0.851 0.47752 0.0
H2361 H 0.68802 0.87063 0.39158 0.0
H2362 H 0.6853 0.86036 0.34485 0.0
H2363 H 0.59503 0.84668 0.34528 0.0
H2364 H 0.59714 0.85644 0.39214 0.0
H2365 H 0.64045 0.98284 0.51197 0.0
H2366 H 0.66337 0.9503 0.49111 0.0
H2367 H 0.58169 0.89491 0.45629 0.0
H2368 H 0.5588 0.92718 0.4766 0.0
H2369 H 0.62585 0.90306 0.42328 0.0
H2370 H 0.60591 0.8802 0.51089 0.0
H2371 H 0.61105 0.89225 0.55743 0.0
H2372 H 0.70261 0.91514 0.55298 0.0
H2373 H 0.69809 0.9036 0.50623 0.0
C2374 C 0.65321 0.78775 0.39726 0.0
C2375 C 0.68235 0.79086 0.39832 0.0
C2376 C 0.64355 0.80712 0.41233 0.0
C2377 C 0.663 0.82989 0.42838 0.0
C2378 C 0.69121 0.83083 0.43167 0.0
C2379 C 0.70092 0.81152 0.4166 0.0
C2380 C 0.65492 0.85445 0.43932 0.0
C2381 C 0.65812 0.86259 0.46566 0.0
C2382 C 0.64403 0.8698 0.4237 0.0
C2383 C 0.64271 0.86405 0.39545 0.0
C2384 C 0.66756 0.86527 0.38177 0.0
C2385 C 0.66612 0.85954 0.35523 0.0
C2386 C 0.63999 0.85282 0.3421 0.0
C2387 C 0.61526 0.85186 0.35548 0.0
C2388 C 0.61656 0.8575 0.38204 0.0
C2389 C 0.62749 0.96393 0.49959 0.0
C2390 C 0.59777 0.95742 0.49612 0.0
C2391 C 0.64058 0.94534 0.48782 0.0
C2392 C 0.62407 0.9201 0.47248 0.0
C2393 C 0.59473 0.91427 0.46814 0.0
C2394 C 0.58168 0.9327 0.47988 0.0
C2395 C 0.63667 0.89883 0.46155 0.0
C2396 C 0.63466 0.89153 0.43511 0.0
C2397 C 0.64903 0.8846 0.47702 0.0
C2398 C 0.65169 0.89137 0.50507 0.0
C2399 C 0.62716 0.88802 0.51981 0.0
C2400 C 0.62995 0.89472 0.54624 0.0
C2401 C 0.65711 0.90454 0.55819 0.0
C2402 C 0.68158 0.9076 0.5437 0.0
C2403 C 0.67892 0.90098 0.51724 0.0
H2404 H 0.65917 0.90969 0.57868 0.0
H2405 H 0.63892 0.8484 0.32154 0.0
H2406 H 0.25022 0.73711 0.34907 0.0
H2407 H 0.20881 0.7097 0.37246 0.0
H2408 H 0.15188 0.72424 0.31921 0.0
H2409 H 0.19348 0.75102 0.29505 0.0
H2410 H 0.16841 0.71925 0.39782 0.0
H2411 H 0.08944 0.66858 0.31395 0.0
H2412 H 0.08779 0.65363 0.26767 0.0
H2413 H 0.16808 0.64049 0.27416 0.0
H2414 H 0.17029 0.65564 0.3204 0.0
H2415 H 0.04714 0.61581 0.45206 0.0
H2416 H 0.06949 0.65426 0.42446 0.0
H2417 H 0.11422 0.60238 0.38546 0.0
H2418 H 0.09252 0.56445 0.41305 0.0
H2419 H 0.09437 0.63227 0.35272 0.0
H2420 H 0.14646 0.64787 0.4338 0.0
H2421 H 0.1513 0.65628 0.48069 0.0
H2422 H 0.1305 0.73298 0.48037 0.0
H2423 H 0.1252 0.72479 0.43346 0.0
C2424 C 0.22893 0.73468 0.34236 0.0
C2425 C 0.22517 0.74601 0.32004 0.0
C2426 C 0.20519 0.71906 0.35586 0.0
C2427 C 0.17709 0.71455 0.34752 0.0
C2428 C 0.17327 0.72689 0.32579 0.0
C2429 C 0.19709 0.74228 0.31203 0.0
C2430 C 0.15222 0.69571 0.36112 0.0
C2431 C 0.15188 0.7006 0.38783 0.0
C2432 C 0.13055 0.67122 0.34833 0.0
C2433 C 0.13018 0.66355 0.32046 0.0
C2434 C 0.10682 0.66269 0.30541 0.0
C2435 C 0.10579 0.6542 0.27922 0.0
C2436 C 0.12785 0.6462 0.26797 0.0
C2437 C 0.15109 0.64685 0.28287 0.0
C2438 C 0.15232 0.65554 0.30903 0.0
C2439 C 0.06116 0.6124 0.43712 0.0
C2440 C 0.06832 0.58732 0.43472 0.0
C2441 C 0.07395 0.63436 0.42149 0.0
C2442 C 0.0936 0.63116 0.40305 0.0
C2443 C 0.09905 0.60522 0.39951 0.0
C2444 C 0.08675 0.58363 0.41534 0.0
C2445 C 0.11119 0.65556 0.3892 0.0
C2446 C 0.11012 0.65171 0.36251 0.0
C2447 C 0.13195 0.68065 0.40203 0.0
C2448 C 0.13495 0.68546 0.4302 0.0
C2449 C 0.14261 0.66634 0.44376 0.0
C2450 C 0.14551 0.6711 0.47033 0.0
C2451 C 0.14107 0.69507 0.48351 0.0
C2452 C 0.13382 0.71436 0.47014 0.0
C2453 C 0.13085 0.70967 0.44358 0.0
H2454 H 0.14337 0.69873 0.50407 0.0
H2455 H 0.12686 0.63937 0.24773 0.0
H2456 H 0.4739 0.29361 0.37654 0.0
H2457 H 0.49936 0.26632 0.39548 0.0
H2458 H 0.43662 0.18622 0.36121 0.0
H2459 H 0.41081 0.21311 0.34278 0.0
H2460 H 0.44161 0.18896 0.41282 0.0
H2461 H 0.50401 0.20695 0.34159 0.0
H2462 H 0.53752 0.23653 0.31189 0.0
H2463 H 0.59718 0.28101 0.37378 0.0
H2464 H 0.5638 0.25204 0.40395 0.0
H2465 H 0.49112 0.09271 0.46018 0.0
H2466 H 0.48511 0.11859 0.42536 0.0
H2467 H 0.54441 0.19859 0.46326 0.0
H2468 H 0.55092 0.17279 0.49814 0.0
H2469 H 0.54359 0.19579 0.40806 0.0
H2470 H 0.47989 0.18366 0.47929 0.0
H2471 H 0.44753 0.15506 0.51027 0.0
H2472 H 0.39086 0.10189 0.44922 0.0
H2473 H 0.42321 0.12991 0.41785 0.0
C2474 C 0.46577 0.27019 0.37282 0.0
C2475 C 0.44026 0.2555 0.35831 0.0
C2476 C 0.4805 0.25468 0.3834 0.0
C2477 C 0.46988 0.22429 0.37963 0.0
C2478 C 0.4452 0.20969 0.36421 0.0
C2479 C 0.43056 0.22512 0.3536 0.0
C2480 C 0.48201 0.20756 0.3944 0.0
C2481 C 0.46377 0.19008 0.41138 0.0
C2482 C 0.51121 0.2099 0.39317 0.0
C2483 C 0.53123 0.22752 0.37509 0.0
C2484 C 0.52412 0.22327 0.34893 0.0
C2485 C 0.54313 0.23988 0.33199 0.0
C2486 C 0.56942 0.2607 0.34095 0.0
C2487 C 0.57678 0.26491 0.36687 0.0
C2488 C 0.55783 0.24839 0.3839 0.0
C2489 C 0.50353 0.11567 0.4608 0.0
C2490 C 0.52079 0.13092 0.48224 0.0
C2491 C 0.50023 0.13036 0.4408 0.0
C2492 C 0.51385 0.16053 0.44211 0.0
C2493 C 0.53366 0.17529 0.46202 0.0
C2494 C 0.53716 0.16054 0.48201 0.0
C2495 C 0.50295 0.17694 0.42591 0.0
C2496 C 0.52138 0.19453 0.40909 0.0
C2497 C 0.47395 0.17513 0.4274 0.0
C2498 C 0.45411 0.15867 0.44623 0.0
C2499 C 0.46063 0.16575 0.47248 0.0
C2500 C 0.44229 0.14966 0.4901 0.0
C2501 C 0.41719 0.12663 0.48171 0.0
C2502 C 0.41034 0.11971 0.45569 0.0
C2503 C 0.42866 0.13569 0.43797 0.0
H2504 H 0.40303 0.11418 0.49539 0.0
H2505 H 0.58412 0.27351 0.3278 0.0
H2506 H 0.70214 0.87492 0.69403 0.0
H2507 H 0.67318 0.90125 0.67967 0.0
H2508 H 0.59553 0.83166 0.69567 0.0
H2509 H 0.62445 0.8048 0.70952 0.0
H2510 H 0.59131 0.84914 0.64985 0.0
H2511 H 0.61728 0.89492 0.73402 0.0
H2512 H 0.6498 0.91884 0.77103 0.0
H2513 H 0.69603 0.98943 0.72859 0.0
H2514 H 0.66412 0.96569 0.69114 0.0
H2515 H 0.5175 0.93762 0.60915 0.0
H2516 H 0.53157 0.90938 0.63832 0.0
H2517 H 0.61998 0.96697 0.63625 0.0
H2518 H 0.60617 0.99551 0.60836 0.0
H2519 H 0.6097 0.95187 0.68194 0.0
H2520 H 0.58791 0.90159 0.59622 0.0
H2521 H 0.55605 0.87683 0.55888 0.0
H2522 H 0.50166 0.81403 0.605 0.0
H2523 H 0.53296 0.83872 0.64266 0.0
C2524 C 0.6789 0.86514 0.69445 0.0
C2525 C 0.66567 0.83769 0.70294 0.0
C2526 C 0.66233 0.88036 0.68645 0.0
C2527 C 0.63211 0.86863 0.68683 0.0
C2528 C 0.61879 0.84125 0.69531 0.0
C2529 C 0.63538 0.82602 0.70341 0.0
C2530 C 0.61465 0.88469 0.67756 0.0
C2531 C 0.59487 0.87142 0.65723 0.0
C2532 C 0.61932 0.9138 0.68708 0.0
C2533 C 0.63838 0.9284 0.70968 0.0
C2534 C 0.63449 0.91545 0.7325 0.0
C2535 C 0.65282 0.92899 0.75358 0.0
C2536 C 0.67499 0.95562 0.75215 0.0
C2537 C 0.67885 0.9688 0.72966 0.0
C2538 C 0.66062 0.95532 0.70851 0.0
C2539 C 0.5398 0.9446 0.61544 0.0
C2540 C 0.56064 0.96886 0.60628 0.0
C2541 C 0.54787 0.92833 0.63199 0.0
C2542 C 0.57699 0.9357 0.63922 0.0
C2543 C 0.59741 0.9607 0.63105 0.0
C2544 C 0.58937 0.97708 0.61495 0.0
C2545 C 0.58721 0.91672 0.65354 0.0
C2546 C 0.60565 0.9294 0.6749 0.0
C2547 C 0.5813 0.88706 0.64495 0.0
C2548 C 0.5626 0.87218 0.62228 0.0
C2549 C 0.56908 0.88258 0.59839 0.0
C2550 C 0.55112 0.86858 0.57718 0.0
C2551 C 0.52683 0.8439 0.57958 0.0
C2552 C 0.52046 0.83317 0.60318 0.0
C2553 C 0.53828 0.84719 0.62446 0.0
H2554 H 0.51297 0.83307 0.56314 0.0
H2555 H 0.68916 0.96606 0.76848 0.0
H2556 H 0.68857 0.20614 0.30409 0.0
H2557 H 0.65873 0.18179 0.33773 0.0
H2558 H 0.73168 0.21587 0.3901 0.0
H2559 H 0.76168 0.24095 0.35654 0.0
H2560 H 0.66055 0.14058 0.3624 0.0
H2561 H 0.70927 0.22389 0.45075 0.0
H2562 H 0.73191 0.27686 0.46116 0.0
H2563 H 0.68814 0.29008 0.39697 0.0
H2564 H 0.66493 0.23723 0.38639 0.0
H2565 H 0.62828 0.07403 0.47545 0.0
H2566 H 0.65219 0.10301 0.44169 0.0
H2567 H 0.59845 0.15447 0.45495 0.0
H2568 H 0.57481 0.12567 0.48926 0.0
H2569 H 0.65465 0.18844 0.44874 0.0
H2570 H 0.58493 0.10559 0.40411 0.0
H2571 H 0.55773 0.05371 0.39179 0.0
H2572 H 0.63516 0.04157 0.36534 0.0
H2573 H 0.66295 0.09331 0.37793 0.0
C2574 C 0.69834 0.20873 0.32279 0.0
C2575 C 0.72763 0.22565 0.32754 0.0
C2576 C 0.68117 0.19464 0.34205 0.0
C2577 C 0.69276 0.19707 0.36661 0.0
C2578 C 0.72201 0.214 0.37147 0.0
C2579 C 0.73922 0.22825 0.35219 0.0
C2580 C 0.67444 0.18103 0.38674 0.0
C2581 C 0.65932 0.15112 0.38126 0.0
C2582 C 0.67207 0.19476 0.41122 0.0
C2583 C 0.6856 0.22659 0.41765 0.0
C2584 C 0.70438 0.23811 0.43892 0.0
C2585 C 0.71733 0.26811 0.44484 0.0
C2586 C 0.71154 0.28682 0.42969 0.0
C2587 C 0.69269 0.27557 0.40864 0.0
C2588 C 0.67967 0.24559 0.40266 0.0
C2589 C 0.62147 0.09151 0.47126 0.0
C2590 C 0.59922 0.09728 0.48495 0.0
C2591 C 0.63512 0.10801 0.45182 0.0
C2592 C 0.62697 0.13077 0.44552 0.0
C2593 C 0.60506 0.13693 0.45934 0.0
C2594 C 0.59127 0.12025 0.47878 0.0
C2595 C 0.64153 0.14795 0.42453 0.0
C2596 C 0.65591 0.178 0.42984 0.0
C2597 C 0.64266 0.13451 0.39967 0.0
C2598 C 0.62609 0.10331 0.3922 0.0
C2599 C 0.59623 0.09182 0.3959 0.0
C2600 C 0.58069 0.06243 0.38883 0.0
C2601 C 0.59472 0.04434 0.37785 0.0
C2602 C 0.62433 0.05561 0.37389 0.0
C2603 C 0.63998 0.08497 0.38098 0.0
H2604 H 0.58265 0.0216 0.37236 0.0
H2605 H 0.72162 0.31003 0.43428 0.0
H2606 H 0.80306 0.69241 0.31964 0.0
H2607 H 0.82579 0.66716 0.34447 0.0
H2608 H 0.90568 0.73982 0.34658 0.0
H2609 H 0.88318 0.76448 0.32068 0.0
H2610 H 0.92278 0.69871 0.34622 0.0
H2611 H 0.8517 0.71492 0.40152 0.0
H2612 H 0.80332 0.71299 0.41483 0.0
H2613 H 0.77227 0.62002 0.40286 0.0
H2614 H 0.8204 0.62141 0.3892 0.0
H2615 H 0.98807 0.65207 0.4472 0.0
H2616 H 0.96604 0.67629 0.42045 0.0
H2617 H 0.88942 0.5999 0.4113 0.0
H2618 H 0.91136 0.57573 0.43833 0.0
H2619 H 0.87101 0.6428 0.41535 0.0
H2620 H 0.94439 0.62809 0.36133 0.0
H2621 H 0.9938 0.63179 0.34995 0.0
H2622 H 1.02177 0.72463 0.3619 0.0
H2623 H 0.97259 0.72147 0.37366 0.0
C2624 C 0.82549 0.70326 0.3253 0.0
C2625 C 0.84072 0.7311 0.3177 0.0
C2626 C 0.83874 0.68866 0.34009 0.0
C2627 C 0.86799 0.70114 0.3488 0.0
C2628 C 0.88328 0.72885 0.34083 0.0
C2629 C 0.87012 0.74331 0.32578 0.0
C2630 C 0.88251 0.68563 0.36567 0.0
C2631 C 0.91123 0.68692 0.36151 0.0
C2632 C 0.86848 0.66923 0.3859 0.0
C2633 C 0.83955 0.66829 0.39408 0.0
C2634 C 0.8345 0.69407 0.40158 0.0
C2635 C 0.80713 0.69307 0.4092 0.0
C2636 C 0.78472 0.6664 0.40962 0.0
C2637 C 0.78964 0.64066 0.40248 0.0
C2638 C 0.81696 0.64154 0.39481 0.0
C2639 C 0.96664 0.64003 0.43934 0.0
C2640 C 0.95214 0.61126 0.44528 0.0
C2641 C 0.9538 0.65414 0.42364 0.0
C2642 C 0.92556 0.64046 0.41279 0.0
C2643 C 0.91104 0.61173 0.41882 0.0
C2644 C 0.92394 0.59755 0.43443 0.0
C2645 C 0.91114 0.6559 0.39586 0.0
C2646 C 0.88248 0.65459 0.40003 0.0
C2647 C 0.92536 0.67256 0.37587 0.0
C2648 C 0.95486 0.67453 0.36862 0.0
C2649 C 0.96112 0.64929 0.36168 0.0
C2650 C 0.98908 0.65129 0.35515 0.0
C2651 C 1.01093 0.67842 0.35527 0.0
C2652 C 1.00484 0.70362 0.36185 0.0
C2653 C 0.97691 0.70174 0.36843 0.0
H2654 H 0.03257 0.67993 0.35023 0.0
H2655 H 0.76355 0.66567 0.41552 0.0
H2656 H 0.28219 0.86181 0.33706 0.0
H2657 H 0.29948 0.90184 0.37165 0.0
H2658 H 0.38288 0.89346 0.3699 0.0
H2659 H 0.36604 0.85396 0.33583 0.0
H2660 H 0.32133 0.90121 0.42011 0.0
H2661 H 0.43427 0.95776 0.37773 0.0
H2662 H 0.4546 0.96917 0.33568 0.0
H2663 H 0.37257 0.96586 0.30829 0.0
H2664 H 0.35181 0.95487 0.35028 0.0
H2665 H 0.43654 0.94633 0.50408 0.0
H2666 H 0.39725 0.92859 0.47304 0.0
H2667 H 0.41575 0.01547 0.45379 0.0
H2668 H 0.45639 0.03341 0.48449 0.0
H2669 H 0.41382 0.98239 0.41295 0.0
H2670 H 0.34823 0.97459 0.47907 0.0
H2671 H 0.328 0.96408 0.52132 0.0
H2672 H 0.31315 0.87372 0.50171 0.0
H2673 H 0.33359 0.88366 0.45944 0.0
C2674 C 0.30427 0.86875 0.34396 0.0
C2675 C 0.32273 0.85467 0.33373 0.0
C2676 C 0.31406 0.89152 0.36373 0.0
C2677 C 0.34255 0.90083 0.37312 0.0
C2678 C 0.36095 0.88695 0.3627 0.0
C2679 C 0.35119 0.86418 0.34328 0.0
C2680 C 0.35345 0.92407 0.39461 0.0
C2681 C 0.34127 0.91932 0.41861 0.0
C2682 C 0.3789 0.94826 0.39242 0.0
C2683 C 0.39146 0.95543 0.36721 0.0
C2684 C 0.4206 0.95971 0.36283 0.0
C2685 C 0.43219 0.96604 0.33897 0.0
C2686 C 0.41488 0.96821 0.31932 0.0
C2687 C 0.38594 0.96411 0.32351 0.0
C2688 C 0.37425 0.9578 0.34733 0.0
C2689 C 0.43199 0.96189 0.49369 0.0
C2690 C 0.44997 0.99125 0.49649 0.0
C2691 C 0.40912 0.9517 0.47607 0.0
C2692 C 0.4032 0.97065 0.46108 0.0
C2693 C 0.41983 1.0004 0.46513 0.0
C2694 C 0.44299 1.01066 0.48276 0.0
C2695 C 0.38286 0.95835 0.43884 0.0
C2696 C 0.3933 0.96508 0.41459 0.0
C2697 C 0.3556 0.93629 0.44084 0.0
C2698 C 0.34244 0.92991 0.46599 0.0
C2699 C 0.34069 0.95247 0.48375 0.0
C2700 C 0.32919 0.94661 0.50772 0.0
C2701 C 0.31928 0.91825 0.51418 0.0
C2702 C 0.32075 0.89567 0.49664 0.0
C2703 C 0.3322 0.9014 0.47263 0.0
H2704 H 0.31045 0.91378 0.53277 0.0
H2705 H 0.42389 0.97308 0.30085 0.0
H2706 H 0.2026 0.30142 0.29549 0.0
H2707 H 0.17361 0.32544 0.31957 0.0
H2708 H 0.24929 0.38229 0.36233 0.0
H2709 H 0.2777 0.35628 0.33959 0.0
H2710 H 0.21459 0.38311 0.39348 0.0
H2711 H 0.19665 0.3972 0.30625 0.0
H2712 H 0.18105 0.3817 0.26114 0.0
H2713 H 0.09917 0.32478 0.28413 0.0
H2714 H 0.11414 0.34021 0.32928 0.0
H2715 H 0.145 0.48382 0.44565 0.0
H2716 H 0.17384 0.45895 0.4216 0.0
H2717 H 0.09621 0.39149 0.39139 0.0
H2718 H 0.06745 0.41632 0.41533 0.0
H2719 H 0.13131 0.39653 0.35419 0.0
H2720 H 0.14783 0.38619 0.44094 0.0
H2721 H 0.16249 0.40249 0.48606 0.0
H2722 H 0.24752 0.45283 0.46396 0.0
H2723 H 0.23325 0.43709 0.41867 0.0
C2724 C 0.2134 0.31917 0.30985 0.0
C2725 C 0.24332 0.32644 0.31475 0.0
C2726 C 0.19646 0.3337 0.32382 0.0
C2727 C 0.20828 0.35752 0.34312 0.0
C2728 C 0.23829 0.3646 0.34799 0.0
C2729 C 0.25506 0.34948 0.33454 0.0
C2730 C 0.19 0.37432 0.35836 0.0
C2731 C 0.19682 0.38625 0.38426 0.0
C2732 C 0.16553 0.37886 0.3481 0.0
C2733 C 0.15657 0.36969 0.32105 0.0
C2734 C 0.17534 0.38137 0.30162 0.0
C2735 C 0.16659 0.37265 0.27608 0.0
C2736 C 0.13913 0.35231 0.26981 0.0
C2737 C 0.12039 0.3406 0.28902 0.0
C2738 C 0.12892 0.34942 0.31458 0.0
C2739 C 0.13376 0.46372 0.43392 0.0
C2740 C 0.10311 0.45278 0.43307 0.0
C2741 C 0.15063 0.44899 0.42 0.0
C2742 C 0.13812 0.42224 0.40416 0.0
C2743 C 0.1075 0.41167 0.403 0.0
C2744 C 0.09067 0.42622 0.41706 0.0
C2745 C 0.15633 0.40558 0.38894 0.0
C2746 C 0.14935 0.39359 0.36318 0.0
C2747 C 0.18075 0.40121 0.39928 0.0
C2748 C 0.18938 0.41071 0.42642 0.0
C2749 C 0.16959 0.4009 0.4457 0.0
C2750 C 0.17784 0.41001 0.47131 0.0
C2751 C 0.2059 0.42875 0.47787 0.0
C2752 C 0.22579 0.43836 0.45884 0.0
C2753 C 0.21764 0.42934 0.43321 0.0
H2754 H 0.21224 0.43578 0.4977 0.0
H2755 H 0.13227 0.34576 0.25008 0.0
H2756 H 0.36522 0.24293 0.74463 0.0
H2757 H 0.39104 0.22414 0.71164 0.0
H2758 H 0.33033 0.22491 0.65466 0.0
H2759 H 0.3047 0.24458 0.68768 0.0
H2760 H 0.34142 0.16925 0.6577 0.0
H2761 H 0.38991 0.27033 0.64934 0.0
H2762 H 0.41556 0.3216 0.66536 0.0
H2763 H 0.48287 0.29946 0.69702 0.0
H2764 H 0.4574 0.24798 0.68151 0.0
H2765 H 0.42282 0.11859 0.56377 0.0
H2766 H 0.39404 0.14427 0.58621 0.0
H2767 H 0.46034 0.1804 0.64501 0.0
H2768 H 0.48958 0.15589 0.62214 0.0
H2769 H 0.44284 0.22029 0.63533 0.0
H2770 H 0.39455 0.12117 0.65083 0.0
H2771 H 0.36939 0.06865 0.63981 0.0
H2772 H 0.30279 0.08479 0.60054 0.0
H2773 H 0.32778 0.13753 0.61101 0.0
C2774 C 0.35764 0.23954 0.72501 0.0
C2775 C 0.33309 0.24533 0.71864 0.0
C2776 C 0.37238 0.22882 0.70622 0.0
C2777 C 0.36257 0.2232 0.68078 0.0
C2778 C 0.33824 0.22924 0.67423 0.0
C2779 C 0.3238 0.24063 0.69301 0.0
C2780 C 0.37724 0.20971 0.66154 0.0
C2781 C 0.36338 0.1805 0.65224 0.0
C2782 C 0.40612 0.22426 0.65522 0.0
C2783 C 0.42162 0.25525 0.6644 0.0
C2784 C 0.41006 0.27636 0.65989 0.0
C2785 C 0.4246 0.30546 0.66884 0.0
C2786 C 0.4508 0.31378 0.68223 0.0
C2787 C 0.46256 0.293 0.68664 0.0
C2788 C 0.4481 0.26385 0.67774 0.0
C2789 C 0.43118 0.13197 0.58152 0.0
C2790 C 0.45844 0.13516 0.59122 0.0
C2791 C 0.41467 0.14658 0.59439 0.0
C2792 C 0.4248 0.16408 0.61752 0.0
C2793 C 0.45203 0.16719 0.62717 0.0
C2794 C 0.46873 0.15307 0.6141 0.0
C2795 C 0.40736 0.17935 0.63184 0.0
C2796 C 0.42071 0.20898 0.64029 0.0
C2797 C 0.3782 0.16494 0.63789 0.0
C2798 C 0.36325 0.1333 0.63137 0.0
C2799 C 0.37468 0.11354 0.63962 0.0
C2800 C 0.36042 0.08374 0.63352 0.0
C2801 C 0.33456 0.07342 0.61939 0.0
C2802 C 0.32286 0.09287 0.6114 0.0
C2803 C 0.33706 0.1227 0.61741 0.0
H2804 H 0.32353 0.05034 0.6147 0.0
H2805 H 0.46202 0.33632 0.68915 0.0
H2806 H 0.87938 0.30924 0.71407 0.0
H2807 H 0.90518 0.33761 0.68027 0.0
H2808 H 0.84549 0.38293 0.68389 0.0
H2809 H 0.81905 0.35381 0.71677 0.0
H2810 H 0.85484 0.3734 0.63706 0.0
H2811 H 0.92249 0.41134 0.70965 0.0
H2812 H 0.95231 0.40494 0.7437 0.0
H2813 H 0.99801 0.36954 0.68788 0.0
H2814 H 0.9684 0.37567 0.65352 0.0
H2815 H 0.92495 0.49375 0.57239 0.0
H2816 H 0.9053 0.46145 0.60478 0.0
H2817 H 0.97076 0.42402 0.59041 0.0
H2818 H 0.99138 0.45748 0.558 0.0
H2819 H 0.9606 0.42505 0.63983 0.0
H2820 H 0.89796 0.38884 0.56765 0.0
H2821 H 0.86756 0.39012 0.53175 0.0
H2822 H 0.81197 0.41611 0.58398 0.0
H2823 H 0.84229 0.41541 0.6202 0.0
C2824 C 0.87173 0.3253 0.70776 0.0
C2825 C 0.84691 0.32901 0.71851 0.0
C2826 C 0.88676 0.34185 0.68835 0.0
C2827 C 0.87798 0.36327 0.67931 0.0
C2828 C 0.85314 0.36683 0.6901 0.0
C2829 C 0.83792 0.35006 0.70918 0.0
C2830 C 0.89389 0.38165 0.65853 0.0
C2831 C 0.87793 0.38498 0.63807 0.0
C2832 C 0.92436 0.39599 0.65851 0.0
C2833 C 0.94308 0.39373 0.67906 0.0
C2834 C 0.93893 0.40223 0.70466 0.0
C2835 C 0.95578 0.39864 0.72401 0.0
C2836 C 0.977 0.38678 0.71796 0.0
C2837 C 0.98158 0.37873 0.69254 0.0
C2838 C 0.96482 0.38233 0.67312 0.0
C2839 C 0.93544 0.47877 0.57595 0.0
C2840 C 0.95981 0.47837 0.56199 0.0
C2841 C 0.92389 0.45994 0.59462 0.0
C2842 C 0.9357 0.43925 0.6 0.0
C2843 C 0.96075 0.43936 0.58678 0.0
C2844 C 0.97262 0.45861 0.5681 0.0
C2845 C 0.9213 0.41763 0.61899 0.0
C2846 C 0.9375 0.41356 0.63893 0.0
C2847 C 0.89104 0.40209 0.61834 0.0
C2848 C 0.87255 0.4023 0.59664 0.0
C2849 C 0.87935 0.395 0.57148 0.0
C2850 C 0.86213 0.39561 0.55107 0.0
C2851 C 0.83789 0.40326 0.55558 0.0
C2852 C 0.83077 0.41022 0.58052 0.0
C2853 C 0.84796 0.4097 0.601 0.0
H2854 H 0.82459 0.40373 0.53975 0.0
H2855 H 0.98991 0.38387 0.73297 0.0
H2856 H 0.19595 0.72799 0.7294 0.0
H2857 H 0.16885 0.69888 0.69139 0.0
H2858 H 0.24784 0.69804 0.65711 0.0
H2859 H 0.27507 0.72721 0.69495 0.0
H2860 H 0.21518 0.70712 0.62243 0.0
H2861 H 0.20079 0.63777 0.68133 0.0
H2862 H 0.18761 0.61631 0.72171 0.0
H2863 H 0.10101 0.61339 0.7122 0.0
H2864 H 0.11377 0.63523 0.67191 0.0
H2865 H 0.09822 0.56299 0.55225 0.0
H2866 H 0.13497 0.58785 0.58589 0.0
H2867 H 0.13235 0.6701 0.56984 0.0
H2868 H 0.09718 0.64579 0.53576 0.0
H2869 H 0.1316 0.61648 0.62861 0.0
H2870 H 0.19051 0.72611 0.58846 0.0
H2871 H 0.20457 0.74375 0.54662 0.0
H2872 H 0.20701 0.66075 0.51685 0.0
H2873 H 0.19339 0.64273 0.5586 0.0
C2874 C 0.20763 0.72166 0.7138 0.0
C2875 C 0.23783 0.73005 0.71546 0.0
C2876 C 0.19202 0.70481 0.69203 0.0
C2877 C 0.20611 0.69583 0.67124 0.0
C2878 C 0.23629 0.70453 0.67274 0.0
C2879 C 0.25189 0.72122 0.69454 0.0
C2880 C 0.18949 0.67768 0.64795 0.0
C2881 C 0.19693 0.68729 0.62384 0.0
C2882 C 0.16604 0.65128 0.64938 0.0
C2883 C 0.15832 0.63842 0.67372 0.0
C2884 C 0.179 0.63281 0.68796 0.0
C2885 C 0.17159 0.62052 0.71081 0.0
C2886 C 0.14351 0.61356 0.71955 0.0
C2887 C 0.12276 0.61883 0.70543 0.0
C2888 C 0.13007 0.63115 0.68257 0.0
C2889 C 0.10628 0.58644 0.55526 0.0
C2890 C 0.09461 0.60225 0.54109 0.0
C2891 C 0.12706 0.60069 0.57482 0.0
C2892 C 0.13679 0.63108 0.58064 0.0
C2893 C 0.12596 0.64682 0.56571 0.0
C2894 C 0.10556 0.63273 0.54611 0.0
C2895 C 0.15672 0.64635 0.60313 0.0
C2896 C 0.14992 0.63622 0.62713 0.0
C2897 C 0.18113 0.67195 0.6015 0.0
C2898 C 0.19075 0.68303 0.57666 0.0
C2899 C 0.19433 0.71171 0.57307 0.0
C2900 C 0.20215 0.72175 0.54934 0.0
C2901 C 0.20661 0.70336 0.52907 0.0
C2902 C 0.20348 0.67495 0.53255 0.0
C2903 C 0.19571 0.66481 0.55624 0.0
H2904 H 0.21249 0.71112 0.51068 0.0
H2905 H 0.13781 0.60403 0.73724 0.0
loop_
_geom_bond_atom_site_label_1
_geom_bond_atom_site_label_2
_geom_bond_distance
_geom_bond_site_symmetry_2
_ccdc_geom_bond_type
Tb0 C10 2.825 . S
Tb0 O11 2.347 . S
Tb0 O14 2.366 . S
Tb0 O19 2.418 . S
Tb0 O20 2.384 . S
Tb0 O23 2.479 . S
Tb0 O24 2.471 . S
Eu1 O12 2.418 . S
Eu1 O13 2.384 . S
Eu1 O16 2.479 . S
Eu1 O17 2.471 . S
Eu1 O18 2.347 . S
Eu1 O21 2.366 . S
Eu1 C31 2.825 . S
C2 O18 1.259 . S
C2 O19 1.265 . S
C3 O20 1.255 . S
C3 O21 1.265 . S
C4 C6 1.380 . S
C4 C7 1.374 . S
C4 C10 1.507 . S
C5 C6 1.384 . S
C5 C9 1.387 . S
C5 H32 0.930 . S
C6 C4 1.380 . S
C6 C5 1.384 . S
C6 H33 0.931 . S
C7 C4 1.374 . S
C7 C8 1.390 . S
C7 H34 0.930 . S
C8 C7 1.390 . S
C8 C9 1.391 . S
C8 H35 0.930 . S
C9 C5 1.387 . S
C9 C8 1.391 . S
C10 Tb0 2.825 . S
C10 C4 1.507 . S
C10 O23 1.238 . S
C10 O24 1.247 . S
O11 Tb0 2.347 . S
O11 C15 1.259 . S
O12 Eu1 2.418 . S
O12 C15 1.265 . S
O13 Eu1 2.384 . S
O13 C22 1.255 . S
O14 Tb0 2.366 . S
O14 C22 1.265 . S
C15 O11 1.259 . S
C15 O12 1.265 . S
O16 Eu1 2.479 . S
O16 C31 1.238 . S
O17 Eu1 2.471 . S
O17 C31 1.247 . S
O18 Eu1 2.347 . S
O18 C2 1.259 . S
O19 Tb0 2.418 . S
O19 C2 1.265 . S
O20 Tb0 2.384 . S
O20 C3 1.255 . S
O21 Eu1 2.366 . S
O21 C3 1.265 . S
C22 O13 1.255 . S
C22 O14 1.265 . S
O23 Tb0 2.479 . S
O23 C10 1.238 . S
O24 Tb0 2.471 . S
O24 C10 1.247 . S
C25 C28 1.380 . S
C25 C29 1.374 . S
C25 C31 1.507 . S
C26 C27 1.387 . S
C26 C30 1.391 . S
C27 C26 1.387 . S
C27 C28 1.384 . S
C27 H36 0.930 . S
C28 C25 1.380 . S
C28 C27 1.384 . S
C28 H37 0.931 . S
C29 C25 1.374 . S
C29 C30 1.390 . S
C29 H38 0.930 . S
C30 C26 1.391 . S
C30 C29 1.390 . S
C30 H39 0.930 . S
C31 Eu1 2.825 . S
C31 O16 1.238 . S
C31 O17 1.247 . S
C31 C25 1.507 . S
H32 C5 0.930 . S
H33 C6 0.931 . S
H34 C7 0.930 . S
H35 C8 0.930 . S
H36 C27 0.930 . S
H37 C28 0.931 . S
H38 C29 0.930 . S
H39 C30 0.930 . S
Tb40 C50 2.825 . S
Tb40 O51 2.347 . S
Tb40 O54 2.366 . S
Tb40 O59 2.418 . S
Tb40 O60 2.384 . S
Tb40 O63 2.479 . S
Tb40 O64 2.471 . S
Eu41 O52 2.418 . S
Eu41 O53 2.384 . S
Eu41 O56 2.479 . S
Eu41 O57 2.471 . S
Eu41 O58 2.347 . S
Eu41 O61 2.366 . S
Eu41 C71 2.825 . S
C42 O58 1.259 . S
C42 O59 1.265 . S
C43 O60 1.255 . S
C43 O61 1.265 . S
C44 C46 1.380 . S
C44 C47 1.374 . S
C44 C50 1.507 . S
C45 C46 1.384 . S
C45 C49 1.387 . S
C45 H72 0.930 . S
C46 C44 1.380 . S
C46 C45 1.384 . S
C46 H73 0.931 . S
C47 C44 1.374 . S
C47 C48 1.390 . S
C47 H74 0.930 . S
C48 C47 1.390 . S
C48 C49 1.391 . S
C48 H75 0.930 . S
C49 C45 1.387 . S
C49 C48 1.391 . S
C50 Tb40 2.825 . S
C50 C44 1.507 . S
C50 O63 1.238 . S
C50 O64 1.247 . S
O51 Tb40 2.347 . S
O51 C55 1.259 . S
O52 Eu41 2.418 . S
O52 C55 1.265 . S
O53 Eu41 2.384 . S
O53 C62 1.255 . S
O54 Tb40 2.366 . S
O54 C62 1.265 . S
C55 O51 1.259 . S
C55 O52 1.265 . S
O56 Eu41 2.479 . S
O56 C71 1.238 . S
O57 Eu41 2.471 . S
O57 C71 1.247 . S
O58 Eu41 2.347 . S
O58 C42 1.259 . S
O59 Tb40 2.418 . S
O59 C42 1.265 . S
O60 Tb40 2.384 . S
O60 C43 1.255 . S
O61 Eu41 2.366 . S
O61 C43 1.265 . S
C62 O53 1.255 . S
C62 O54 1.265 . S
O63 Tb40 2.479 . S
O63 C50 1.238 . S
O64 Tb40 2.471 . S
O64 C50 1.247 . S
C65 C68 1.380 . S
C65 C69 1.374 . S
C65 C71 1.507 . S
C66 C67 1.387 . S
C66 C70 1.391 . S
C67 C66 1.387 . S
C67 C68 1.384 . S
C67 H76 0.930 . S
C68 C65 1.380 . S
C68 C67 1.384 . S
C68 H77 0.931 . S
C69 C65 1.374 . S
C69 C70 1.390 . S
C69 H78 0.930 . S
C70 C66 1.391 . S
C70 C69 1.390 . S
C70 H79 0.930 . S
C71 Eu41 2.825 . S
C71 O56 1.238 . S
C71 O57 1.247 . S
C71 C65 1.507 . S
H72 C45 0.930 . S
H73 C46 0.931 . S
H74 C47 0.930 . S
H75 C48 0.930 . S
H76 C67 0.930 . S
H77 C68 0.931 . S
H78 C69 0.930 . S
H79 C70 0.930 . S
Tb80 C90 2.825 . S
Tb80 O91 2.347 . S
Tb80 O94 2.366 . S
Tb80 O99 2.418 . S
Tb80 O100 2.384 . S
Tb80 O103 2.479 . S
Tb80 O104 2.471 . S
Eu81 O92 2.418 . S
Eu81 O93 2.384 . S
Eu81 O96 2.479 . S
Eu81 O97 2.471 . S
Eu81 O98 2.347 . S
Eu81 O101 2.366 . S
Eu81 C111 2.825 . S
C82 O98 1.259 . S
C82 O99 1.265 . S
C83 O100 1.255 . S
C83 O101 1.265 . S
C84 C86 1.380 . S
C84 C87 1.374 . S
C84 C90 1.507 . S
C85 C86 1.384 . S
C85 C89 1.387 . S
C85 H112 0.930 . S
C86 C84 1.380 . S
C86 C85 1.384 . S
C86 H113 0.931 . S
C87 C84 1.374 . S
C87 C88 1.390 . S
C87 H114 0.930 . S
C88 C87 1.390 . S
C88 C89 1.391 . S
C88 H115 0.930 . S
C89 C85 1.387 . S
C89 C88 1.391 . S
C90 Tb80 2.825 . S
C90 C84 1.507 . S
C90 O103 1.238 . S
C90 O104 1.247 . S
O91 Tb80 2.347 . S
O91 C95 1.259 . S
O92 Eu81 2.418 . S
O92 C95 1.265 . S
O93 Eu81 2.384 . S
O93 C102 1.255 . S
O94 Tb80 2.366 . S
O94 C102 1.265 . S
C95 O91 1.259 . S
C95 O92 1.265 . S
O96 Eu81 2.479 . S
O96 C111 1.238 . S
O97 Eu81 2.471 . S
O97 C111 1.247 . S
O98 Eu81 2.347 . S
O98 C82 1.259 . S
O99 Tb80 2.418 . S
O99 C82 1.265 . S
O100 Tb80 2.384 . S
O100 C83 1.255 . S
O101 Eu81 2.366 . S
O101 C83 1.265 . S
C102 O93 1.255 . S
C102 O94 1.265 . S
O103 Tb80 2.479 . S
O103 C90 1.238 . S
O104 Tb80 2.471 . S
O104 C90 1.247 . S
C105 C108 1.380 . S
C105 C109 1.374 . S
C105 C111 1.507 . S
C106 C107 1.387 . S
C106 C110 1.391 . S
C107 C106 1.387 . S
C107 C108 1.384 . S
C107 H116 0.930 . S
C108 C105 1.380 . S
C108 C107 1.384 . S
C108 H117 0.931 . S
C109 C105 1.374 . S
C109 C110 1.390 . S
C109 H118 0.930 . S
C110 C106 1.391 . S
C110 C109 1.390 . S
C110 H119 0.930 . S
C111 Eu81 2.825 . S
C111 O96 1.238 . S
C111 O97 1.247 . S
C111 C105 1.507 . S
H112 C85 0.930 . S
H113 C86 0.931 . S
H114 C87 0.930 . S
H115 C88 0.930 . S
H116 C107 0.930 . S
H117 C108 0.931 . S
H118 C109 0.930 . S
H119 C110 0.930 . S
Tb120 C130 2.825 . S
Tb120 O131 2.347 . S
Tb120 O134 2.366 . S
Tb120 O139 2.418 . S
Tb120 O140 2.384 . S
Tb120 O143 2.479 . S
Tb120 O144 2.471 . S
Eu121 O132 2.418 . S
Eu121 O133 2.384 . S
Eu121 O136 2.479 . S
Eu121 O137 2.471 . S
Eu121 O138 2.347 . S
Eu121 O141 2.366 . S
Eu121 C151 2.825 . S
C122 O138 1.259 . S
C122 O139 1.265 . S
C123 O140 1.255 . S
C123 O141 1.265 . S
C124 C126 1.380 . S
C124 C127 1.374 . S
C124 C130 1.507 . S
C125 C126 1.384 . S
C125 C129 1.387 . S
C125 H152 0.930 . S
C126 C124 1.380 . S
C126 C125 1.384 . S
C126 H153 0.931 . S
C127 C124 1.374 . S
C127 C128 1.390 . S
C127 H154 0.930 . S
C128 C127 1.390 . S
C128 C129 1.391 . S
C128 H155 0.930 . S
C129 C125 1.387 . S
C129 C128 1.391 . S
C130 Tb120 2.825 . S
C130 C124 1.507 . S
C130 O143 1.238 . S
C130 O144 1.247 . S
O131 Tb120 2.347 . S
O131 C135 1.259 . S
O132 Eu121 2.418 . S
O132 C135 1.265 . S
O133 Eu121 2.384 . S
O133 C142 1.255 . S
O134 Tb120 2.366 . S
O134 C142 1.265 . S
C135 O131 1.259 . S
C135 O132 1.265 . S
O136 Eu121 2.479 . S
O136 C151 1.238 . S
O137 Eu121 2.471 . S
O137 C151 1.247 . S
O138 Eu121 2.347 . S
O138 C122 1.259 . S
O139 Tb120 2.418 . S
O139 C122 1.265 . S
O140 Tb120 2.384 . S
O140 C123 1.255 . S
O141 Eu121 2.366 . S
O141 C123 1.265 . S
C142 O133 1.255 . S
C142 O134 1.265 . S
O143 Tb120 2.479 . S
O143 C130 1.238 . S
O144 Tb120 2.471 . S
O144 C130 1.247 . S
C145 C148 1.380 . S
C145 C149 1.374 . S
C145 C151 1.507 . S
C146 C147 1.387 . S
C146 C150 1.391 . S
C147 C146 1.387 . S
C147 C148 1.384 . S
C147 H156 0.930 . S
C148 C145 1.380 . S
C148 C147 1.384 . S
C148 H157 0.931 . S
C149 C145 1.374 . S
C149 C150 1.390 . S
C149 H158 0.930 . S
C150 C146 1.391 . S
C150 C149 1.390 . S
C150 H159 0.930 . S
C151 Eu121 2.825 . S
C151 O136 1.238 . S
C151 O137 1.247 . S
C151 C145 1.507 . S
H152 C125 0.930 . S
H153 C126 0.931 . S
H154 C127 0.930 . S
H155 C128 0.930 . S
H156 C147 0.930 . S
H157 C148 0.931 . S
H158 C149 0.930 . S
H159 C150 0.930 . S
Tb160 C170 2.825 . S
Tb160 O171 2.347 . S
Tb160 O174 2.366 . S
Tb160 O179 2.418 . S
Tb160 O180 2.384 . S
Tb160 O183 2.479 . S
Tb160 O184 2.471 . S
Eu161 O172 2.418 . S
Eu161 O173 2.384 . S
Eu161 O176 2.479 . S
Eu161 O177 2.471 . S
Eu161 O178 2.347 . S
Eu161 O181 2.366 . S
Eu161 C191 2.825 . S
C162 O178 1.259 . S
C162 O179 1.265 . S
C163 O180 1.255 . S
C163 O181 1.265 . S
C164 C166 1.380 . S
C164 C167 1.374 . S
C164 C170 1.507 . S
C165 C166 1.384 . S
C165 C169 1.387 . S
C165 H192 0.930 . S
C166 C164 1.380 . S
C166 C165 1.384 . S
C166 H193 0.931 . S
C167 C164 1.374 . S
C167 C168 1.390 . S
C167 H194 0.930 . S
C168 C167 1.390 . S
C168 C169 1.391 . S
C168 H195 0.930 . S
C169 C165 1.387 . S
C169 C168 1.391 . S
C170 Tb160 2.825 . S
C170 C164 1.507 . S
C170 O183 1.238 . S
C170 O184 1.247 . S
O171 Tb160 2.347 . S
O171 C175 1.259 . S
O172 Eu161 2.418 . S
O172 C175 1.265 . S
O173 Eu161 2.384 . S
O173 C182 1.255 . S
O174 Tb160 2.366 . S
O174 C182 1.265 . S
C175 O171 1.259 . S
C175 O172 1.265 . S
O176 Eu161 2.479 . S
O176 C191 1.238 . S
O177 Eu161 2.471 . S
O177 C191 1.247 . S
O178 Eu161 2.347 . S
O178 C162 1.259 . S
O179 Tb160 2.418 . S
O179 C162 1.265 . S
O180 Tb160 2.384 . S
O180 C163 1.255 . S
O181 Eu161 2.366 . S
O181 C163 1.265 . S
C182 O173 1.255 . S
C182 O174 1.265 . S
O183 Tb160 2.479 . S
O183 C170 1.238 . S
O184 Tb160 2.471 . S
O184 C170 1.247 . S
C185 C188 1.380 . S
C185 C189 1.374 . S
C185 C191 1.507 . S
C186 C187 1.387 . S
C186 C190 1.391 . S
C187 C186 1.387 . S
C187 C188 1.384 . S
C187 H196 0.930 . S
C188 C185 1.380 . S
C188 C187 1.384 . S
C188 H197 0.931 . S
C189 C185 1.374 . S
C189 C190 1.390 . S
C189 H198 0.930 . S
C190 C186 1.391 . S
C190 C189 1.390 . S
C190 H199 0.930 . S
C191 Eu161 2.825 . S
C191 O176 1.238 . S
C191 O177 1.247 . S
C191 C185 1.507 . S
H192 C165 0.930 . S
H193 C166 0.931 . S
H194 C167 0.930 . S
H195 C168 0.930 . S
H196 C187 0.930 . S
H197 C188 0.931 . S
H198 C189 0.930 . S
H199 C190 0.930 . S
Tb200 C210 2.825 . S
Tb200 O211 2.347 . S
Tb200 O214 2.366 . S
Tb200 O219 2.418 . S
Tb200 O220 2.384 . S
Tb200 O223 2.479 . S
Tb200 O224 2.471 . S
Eu201 O212 2.418 . S
Eu201 O213 2.384 . S
Eu201 O216 2.479 . S
Eu201 O217 2.471 . S
Eu201 O218 2.347 . S
Eu201 O221 2.366 . S
Eu201 C231 2.825 . S
C202 O218 1.259 . S
C202 O219 1.265 . S
C203 O220 1.255 . S
C203 O221 1.265 . S
C204 C206 1.380 . S
C204 C207 1.374 . S
C204 C210 1.507 . S
C205 C206 1.384 . S
C205 C209 1.387 . S
C205 H232 0.930 . S
C206 C204 1.380 . S
C206 C205 1.384 . S
C206 H233 0.931 . S
C207 C204 1.374 . S
C207 C208 1.390 . S
C207 H234 0.930 . S
C208 C207 1.390 . S
C208 C209 1.391 . S
C208 H235 0.930 . S
C209 C205 1.387 . S
C209 C208 1.391 . S
C210 Tb200 2.825 . S
C210 C204 1.507 . S
C210 O223 1.238 . S
C210 O224 1.247 . S
O211 Tb200 2.347 . S
O211 C215 1.259 . S
O212 Eu201 2.418 . S
O212 C215 1.265 . S
O213 Eu201 2.384 . S
O213 C222 1.255 . S
O214 Tb200 2.366 . S
O214 C222 1.265 . S
C215 O211 1.259 . S
C215 O212 1.265 . S
O216 Eu201 2.479 . S
O216 C231 1.238 . S
O217 Eu201 2.471 . S
O217 C231 1.247 . S
O218 Eu201 2.347 . S
O218 C202 1.259 . S
O219 Tb200 2.418 . S
O219 C202 1.265 . S
O220 Tb200 2.384 . S
O220 C203 1.255 . S
O221 Eu201 2.366 . S
O221 C203 1.265 . S
C222 O213 1.255 . S
C222 O214 1.265 . S
O223 Tb200 2.479 . S
O223 C210 1.238 . S
O224 Tb200 2.471 . S
O224 C210 1.247 . S
C225 C228 1.380 . S
C225 C229 1.374 . S
C225 C231 1.507 . S
C226 C227 1.387 . S
C226 C230 1.391 . S
C227 C226 1.387 . S
C227 C228 1.384 . S
C227 H236 0.930 . S
C228 C225 1.380 . S
C228 C227 1.384 . S
C228 H237 0.931 . S
C229 C225 1.374 . S
C229 C230 1.390 . S
C229 H238 0.930 . S
C230 C226 1.391 . S
C230 C229 1.390 . S
C230 H239 0.930 . S
C231 Eu201 2.825 . S
C231 O216 1.238 . S
C231 O217 1.247 . S
C231 C225 1.507 . S
H232 C205 0.930 . S
H233 C206 0.931 . S
H234 C207 0.930 . S
H235 C208 0.930 . S
H236 C227 0.930 . S
H237 C228 0.931 . S
H238 C229 0.930 . S
H239 C230 0.930 . S
Tb240 C250 2.825 . S
Tb240 O251 2.347 . S
Tb240 O254 2.366 . S
Tb240 O259 2.418 . S
Tb240 O260 2.384 . S
Tb240 O263 2.479 . S
Tb240 O264 2.471 . S
Eu241 O252 2.418 . S
Eu241 O253 2.384 . S
Eu241 O256 2.479 . S
Eu241 O257 2.471 . S
Eu241 O258 2.347 . S
Eu241 O261 2.366 . S
Eu241 C271 2.825 . S
C242 O258 1.259 . S
C242 O259 1.265 . S
C243 O260 1.255 . S
C243 O261 1.265 . S
C244 C246 1.380 . S
C244 C247 1.374 . S
C244 C250 1.507 . S
C245 C246 1.384 . S
C245 C249 1.387 . S
C245 H272 0.930 . S
C246 C244 1.380 . S
C246 C245 1.384 . S
C246 H273 0.931 . S
C247 C244 1.374 . S
C247 C248 1.390 . S
C247 H274 0.930 . S
C248 C247 1.390 . S
C248 C249 1.391 . S
C248 H275 0.930 . S
C249 C245 1.387 . S
C249 C248 1.391 . S
C250 Tb240 2.825 . S
C250 C244 1.507 . S
C250 O263 1.238 . S
C250 O264 1.247 . S
O251 Tb240 2.347 . S
O251 C255 1.259 . S
O252 Eu241 2.418 . S
O252 C255 1.265 . S
O253 Eu241 2.384 . S
O253 C262 1.255 . S
O254 Tb240 2.366 . S
O254 C262 1.265 . S
C255 O251 1.259 . S
C255 O252 1.265 . S
O256 Eu241 2.479 . S
O256 C271 1.238 . S
O257 Eu241 2.471 . S
O257 C271 1.247 . S
O258 Eu241 2.347 . S
O258 C242 1.259 . S
O259 Tb240 2.418 . S
O259 C242 1.265 . S
O260 Tb240 2.384 . S
O260 C243 1.255 . S
O261 Eu241 2.366 . S
O261 C243 1.265 . S
C262 O253 1.255 . S
C262 O254 1.265 . S
O263 Tb240 2.479 . S
O263 C250 1.238 . S
O264 Tb240 2.471 . S
O264 C250 1.247 . S
C265 C268 1.380 . S
C265 C269 1.374 . S
C265 C271 1.507 . S
C266 C267 1.387 . S
C266 C270 1.391 . S
C267 C266 1.387 . S
C267 C268 1.384 . S
C267 H276 0.930 . S
C268 C265 1.380 . S
C268 C267 1.384 . S
C268 H277 0.931 . S
C269 C265 1.374 . S
C269 C270 1.390 . S
C269 H278 0.930 . S
C270 C266 1.391 . S
C270 C269 1.390 . S
C270 H279 0.930 . S
C271 Eu241 2.825 . S
C271 O256 1.238 . S
C271 O257 1.247 . S
C271 C265 1.507 . S
H272 C245 0.930 . S
H273 C246 0.931 . S
H274 C247 0.930 . S
H275 C248 0.930 . S
H276 C267 0.930 . S
H277 C268 0.931 . S
H278 C269 0.930 . S
H279 C270 0.930 . S
Tb280 C290 2.825 . S
Tb280 O291 2.347 . S
Tb280 O294 2.366 . S
Tb280 O299 2.418 . S
Tb280 O300 2.384 . S
Tb280 O303 2.479 . S
Tb280 O304 2.471 . S
Eu281 O292 2.418 . S
Eu281 O293 2.384 . S
Eu281 O296 2.479 . S
Eu281 O297 2.471 . S
Eu281 O298 2.347 . S
Eu281 O301 2.366 . S
Eu281 C311 2.825 . S
C282 O298 1.259 . S
C282 O299 1.265 . S
C283 O300 1.255 . S
C283 O301 1.265 . S
C284 C286 1.380 . S
C284 C287 1.374 . S
C284 C290 1.507 . S
C285 C286 1.384 . S
C285 C289 1.387 . S
C285 H312 0.930 . S
C286 C284 1.380 . S
C286 C285 1.384 . S
C286 H313 0.931 . S
C287 C284 1.374 . S
C287 C288 1.390 . S
C287 H314 0.930 . S
C288 C287 1.390 . S
C288 C289 1.391 . S
C288 H315 0.930 . S
C289 C285 1.387 . S
C289 C288 1.391 . S
C290 Tb280 2.825 . S
C290 C284 1.507 . S
C290 O303 1.238 . S
C290 O304 1.247 . S
O291 Tb280 2.347 . S
O291 C295 1.259 . S
O292 Eu281 2.418 . S
O292 C295 1.265 . S
O293 Eu281 2.384 . S
O293 C302 1.255 . S
O294 Tb280 2.366 . S
O294 C302 1.265 . S
C295 O291 1.259 . S
C295 O292 1.265 . S
O296 Eu281 2.479 . S
O296 C311 1.238 . S
O297 Eu281 2.471 . S
O297 C311 1.247 . S
O298 Eu281 2.347 . S
O298 C282 1.259 . S
O299 Tb280 2.418 . S
O299 C282 1.265 . S
O300 Tb280 2.384 . S
O300 C283 1.255 . S
O301 Eu281 2.366 . S
O301 C283 1.265 . S
C302 O293 1.255 . S
C302 O294 1.265 . S
O303 Tb280 2.479 . S
O303 C290 1.238 . S
O304 Tb280 2.471 . S
O304 C290 1.247 . S
C305 C308 1.380 . S
C305 C309 1.374 . S
C305 C311 1.507 . S
C306 C307 1.387 . S
C306 C310 1.391 . S
C307 C306 1.387 . S
C307 C308 1.384 . S
C307 H316 0.930 . S
C308 C305 1.380 . S
C308 C307 1.384 . S
C308 H317 0.931 . S
C309 C305 1.374 . S
C309 C310 1.390 . S
C309 H318 0.930 . S
C310 C306 1.391 . S
C310 C309 1.390 . S
C310 H319 0.930 . S
C311 Eu281 2.825 . S
C311 O296 1.238 . S
C311 O297 1.247 . S
C311 C305 1.507 . S
H312 C285 0.930 . S
H313 C286 0.931 . S
H314 C287 0.930 . S
H315 C288 0.930 . S
H316 C307 0.930 . S
H317 C308 0.931 . S
H318 C309 0.930 . S
H319 C310 0.930 . S
C320 O332 1.241 . S
C320 O333 1.280 . S
C321 O334 1.277 . S
C321 O335 1.245 . S
C322 O346 1.247 . S
C322 O348 1.289 . S
Mg323 O324 1.926 1_455 S
Mg323 O333 1.984 1_455 S
Mg323 O335 1.988 1_455 S
Mg323 O336 2.061 . S
O324 Mg323 1.926 1_655 S
O324 Mg325 1.986 . S
O324 Mg326 1.917 1_655 S
Mg325 O324 1.986 . S
Mg325 O332 2.042 . S
Mg325 O334 2.041 . S
Mg325 O340 2.038 1_545 S
Mg325 O348 2.238 1_545 S
Mg326 O324 1.917 1_455 S
Mg326 O327 1.917 1_545 S
Mg326 O337 2.106 . S
Mg326 O339 2.077 1_445 S
Mg326 O348 2.106 1_445 S
Mg326 O349 2.079 . S
O327 Mg326 1.917 1_565 S
O327 Mg328 1.926 . S
O327 Mg329 1.986 1_565 S
Mg328 O327 1.926 . S
Mg328 O342 1.984 . S
Mg328 O345 1.988 . S
Mg328 O346 2.061 1_455 S
Mg329 O327 1.986 1_545 S
Mg329 O337 2.238 . S
Mg329 O341 2.042 1_545 S
Mg329 O343 2.041 1_545 S
Mg329 O350 2.038 . S
C330 O336 1.247 . S
C330 O337 1.289 . S
C331 O349 1.245 . S
C331 O350 1.274 . S
O332 C320 1.241 . S
O332 Mg325 2.042 . S
O333 C320 1.280 . S
O333 Mg323 1.984 1_655 S
O334 C321 1.277 . S
O334 Mg325 2.041 . S
O335 C321 1.245 . S
O335 Mg323 1.988 1_655 S
O336 Mg323 2.061 . S
O336 C330 1.247 . S
O337 Mg326 2.106 . S
O337 Mg329 2.238 . S
O337 C330 1.289 . S
C338 O339 1.252 . S
C338 O340 1.274 . S
O339 Mg326 2.077 1_665 S
O339 C338 1.252 . S
O340 Mg325 2.038 1_565 S
O340 C338 1.274 . S
O341 Mg329 2.042 1_565 S
O341 C344 1.241 . S
O342 Mg328 1.984 . S
O342 C344 1.280 . S
O343 Mg329 2.041 1_565 S
O343 C347 1.277 . S
C344 O341 1.241 . S
C344 O342 1.280 . S
O345 Mg328 1.988 . S
O345 C347 1.245 . S
O346 C322 1.247 . S
O346 Mg328 2.061 1_655 S
C347 O343 1.277 . S
C347 O345 1.245 . S
O348 C322 1.289 . S
O348 Mg325 2.238 1_565 S
O348 Mg326 2.106 1_665 S
O349 Mg326 2.079 . S
O349 C331 1.245 . S
O350 Mg329 2.038 . S
O350 C331 1.274 . S
C351 O363 1.241 . S
C351 O364 1.280 . S
C352 O365 1.278 . S
C352 O366 1.246 . S
C353 O377 1.247 . S
C353 O379 1.289 1_556 S
Mg354 O355 1.926 . S
Mg354 O364 1.984 . S
Mg354 O366 1.988 . S
Mg354 O367 2.061 . S
O355 Mg354 1.926 . S
O355 Mg356 1.986 . S
O355 Mg357 1.917 . S
Mg356 O355 1.986 . S
Mg356 O363 2.042 . S
Mg356 O365 2.041 . S
Mg356 O371 2.038 1_545 S
Mg356 O379 2.238 1_545 S
Mg357 O355 1.917 . S
Mg357 O358 1.917 1_545 S
Mg357 O368 2.106 . S
Mg357 O370 2.079 1_545 S
Mg357 O379 2.106 1_545 S
Mg357 O380 2.079 . S
O358 Mg357 1.917 1_565 S
O358 Mg359 1.926 . S
O358 Mg360 1.986 1_565 S
Mg359 O358 1.926 . S
Mg359 O373 1.984 1_554 S
Mg359 O376 1.988 . S
Mg359 O377 2.061 1_554 S
Mg360 O358 1.986 1_545 S
Mg360 O368 2.238 . S
Mg360 O372 2.042 1_545 S
Mg360 O374 2.041 1_545 S
Mg360 O381 2.038 . S
C361 O367 1.247 . S
C361 O368 1.289 . S
C362 O380 1.245 1_556 S
C362 O381 1.274 1_556 S
O363 C351 1.241 . S
O363 Mg356 2.042 . S
O364 C351 1.280 . S
O364 Mg354 1.984 . S
O365 C352 1.278 . S
O365 Mg356 2.041 . S
O366 C352 1.246 . S
O366 Mg354 1.988 . S
O367 Mg354 2.061 . S
O367 C361 1.247 . S
O368 Mg357 2.106 . S
O368 Mg360 2.238 . S
O368 C361 1.289 . S
C369 O370 1.245 . S
C369 O371 1.274 . S
O370 Mg357 2.079 1_565 S
O370 C369 1.245 . S
O371 Mg356 2.038 1_565 S
O371 C369 1.274 . S
O372 Mg360 2.042 1_565 S
O372 C375 1.241 1_554 S
O373 Mg359 1.984 1_556 S
O373 C375 1.280 . S
O374 Mg360 2.041 1_565 S
O374 C378 1.277 . S
C375 O372 1.241 1_556 S
C375 O373 1.280 . S
O376 Mg359 1.988 . S
O376 C378 1.245 . S
O377 C353 1.247 . S
O377 Mg359 2.061 1_556 S
C378 O374 1.277 . S
C378 O376 1.245 . S
O379 C353 1.289 1_554 S
O379 Mg356 2.238 1_565 S
O379 Mg357 2.106 1_565 S
O380 Mg357 2.079 . S
O380 C362 1.245 1_554 S
O381 Mg360 2.038 . S
O381 C362 1.274 1_554 S
C382 O394 1.241 . S
C382 O395 1.280 . S
C383 O396 1.277 . S
C383 O397 1.245 1_655 S
C384 O408 1.247 . S
C384 O410 1.289 . S
Mg385 O386 1.926 . S
Mg385 O395 1.984 1_455 S
Mg385 O397 1.988 1_554 S
Mg385 O398 2.061 . S
O386 Mg385 1.926 . S
O386 Mg387 1.986 1_455 S
O386 Mg388 1.917 . S
Mg387 O386 1.986 1_655 S
Mg387 O394 2.042 . S
Mg387 O396 2.041 1_554 S
Mg387 O402 2.038 . S
Mg387 O410 2.238 1_554 S
Mg388 O386 1.917 . S
Mg388 O389 1.917 1_554 S
Mg388 O399 2.106 . S
Mg388 O401 2.079 . S
Mg388 O410 2.106 1_454 S
Mg388 O411 2.079 1_554 S
O389 Mg388 1.917 1_556 S
O389 Mg390 1.926 . S
O389 Mg391 1.979 1_556 S
Mg390 O389 1.926 . S
Mg390 O404 1.984 . S
Mg390 O407 1.988 1_556 S
Mg390 O408 2.061 1_455 S
Mg391 O389 1.979 1_554 S
Mg391 O399 2.261 . S
Mg391 O403 2.015 1_554 S
Mg391 O405 2.076 . S
Mg391 O412 2.005 1_554 S
C392 O398 1.247 . S
C392 O399 1.289 . S
C393 O411 1.245 . S
C393 O412 1.274 . S
O394 C382 1.241 . S
O394 Mg387 2.042 . S
O395 C382 1.280 . S
O395 Mg385 1.984 1_655 S
O396 C383 1.277 . S
O396 Mg387 2.041 1_556 S
O397 C383 1.245 1_455 S
O397 Mg385 1.988 1_556 S
O398 Mg385 2.061 . S
O398 C392 1.247 . S
O399 Mg388 2.106 . S
O399 Mg391 2.261 . S
O399 C392 1.289 . S
C400 O401 1.245 1_655 S
C400 O402 1.274 . S
O401 Mg388 2.079 . S
O401 C400 1.245 1_455 S
O402 Mg387 2.038 . S
O402 C400 1.274 . S
O403 Mg391 2.015 1_556 S
O403 C406 1.241 . S
O404 Mg390 1.984 . S
O404 C406 1.280 . S
O405 Mg391 2.076 . S
O405 C409 1.277 . S
C406 O403 1.241 . S
C406 O404 1.280 . S
O407 Mg390 1.988 1_554 S
O407 C409 1.245 . S
O408 C384 1.247 . S
O408 Mg390 2.061 1_655 S
C409 O405 1.277 . S
C409 O407 1.245 . S
O410 C384 1.289 . S
O410 Mg387 2.238 1_556 S
O410 Mg388 2.106 1_656 S
O411 Mg388 2.079 1_556 S
O411 C393 1.245 . S
O412 Mg391 2.005 1_556 S
O412 C393 1.274 . S
C413 O425 1.241 . S
C413 O426 1.280 . S
C414 O427 1.277 . S
C414 O428 1.245 . S
C415 O439 1.247 . S
C415 O441 1.289 . S
Mg416 O417 1.926 . S
Mg416 O426 1.984 . S
Mg416 O428 1.988 1_554 S
Mg416 O429 2.061 . S
O417 Mg416 1.926 . S
O417 Mg418 1.986 . S
O417 Mg419 1.917 . S
Mg418 O417 1.986 . S
Mg418 O425 2.042 . S
Mg418 O427 2.041 1_554 S
Mg418 O433 2.038 . S
Mg418 O441 2.238 1_554 S
Mg419 O417 1.917 . S
Mg419 O420 1.917 . S
Mg419 O430 2.106 . S
Mg419 O432 2.079 . S
Mg419 O441 2.106 1_554 S
Mg419 O442 2.079 1_554 S
O420 Mg419 1.917 . S
O420 Mg421 1.926 . S
O420 Mg422 1.986 . S
Mg421 O420 1.926 . S
Mg421 O435 1.984 1_554 S
Mg421 O438 1.988 . S
Mg421 O439 2.061 1_554 S
Mg422 O420 1.986 . S
Mg422 O430 2.238 . S
Mg422 O434 2.042 1_554 S
Mg422 O436 2.041 . S
Mg422 O443 2.038 1_554 S
C423 O429 1.247 . S
C423 O430 1.289 . S
C424 O442 1.245 . S
C424 O443 1.274 . S
O425 C413 1.241 . S
O425 Mg418 2.042 . S
O426 C413 1.280 . S
O426 Mg416 1.984 . S
O427 C414 1.277 . S
O427 Mg418 2.041 1_556 S
O428 C414 1.245 . S
O428 Mg416 1.988 1_556 S
O429 Mg416 2.061 . S
O429 C423 1.247 . S
O430 Mg419 2.106 . S
O430 Mg422 2.238 . S
O430 C423 1.289 . S
C431 O432 1.245 . S
C431 O433 1.274 . S
O432 Mg419 2.079 . S
O432 C431 1.245 . S
O433 Mg418 2.038 . S
O433 C431 1.274 . S
O434 Mg422 2.042 1_556 S
O434 C437 1.241 . S
O435 Mg421 1.984 1_556 S
O435 C437 1.280 . S
O436 Mg422 2.041 . S
O436 C440 1.277 . S
C437 O434 1.241 . S
C437 O435 1.280 . S
O438 Mg421 1.988 . S
O438 C440 1.245 . S
O439 C415 1.247 . S
O439 Mg421 2.061 1_556 S
C440 O436 1.277 . S
C440 O438 1.245 . S
O441 C415 1.289 . S
O441 Mg418 2.238 1_556 S
O441 Mg419 2.106 1_556 S
O442 Mg419 2.079 1_556 S
O442 C424 1.245 . S
O443 Mg422 2.038 1_556 S
O443 C424 1.274 . S
C444 O456 1.241 . S
C444 O457 1.280 . S
C445 O458 1.277 . S
C445 O459 1.245 . S
C446 O470 1.247 . S
C446 O472 1.289 . S
Mg447 O448 1.926 . S
Mg447 O457 1.995 . S
Mg447 O459 1.993 . S
Mg447 O460 2.049 1_655 S
O448 Mg447 1.926 . S
O448 Mg449 1.986 . S
O448 Mg450 1.917 1_655 S
Mg449 O448 1.986 . S
Mg449 O456 2.042 . S
Mg449 O458 2.041 . S
Mg449 O464 2.038 . S
Mg449 O472 2.238 . S
Mg450 O448 1.917 1_455 S
Mg450 O451 1.917 . S
Mg450 O461 2.106 . S
Mg450 O463 2.079 1_455 S
Mg450 O472 2.106 1_455 S
Mg450 O473 2.079 . S
O451 Mg450 1.917 . S
O451 Mg452 1.926 . S
O451 Mg453 1.986 . S
Mg452 O451 1.926 . S
Mg452 O466 1.984 . S
Mg452 O469 1.988 . S
Mg452 O470 2.061 1_455 S
Mg453 O451 1.986 . S
Mg453 O461 2.238 . S
Mg453 O465 2.042 . S
Mg453 O467 2.041 . S
Mg453 O474 2.038 . S
C454 O460 1.247 . S
C454 O461 1.289 . S
C455 O473 1.245 . S
C455 O474 1.274 . S
O456 C444 1.241 . S
O456 Mg449 2.042 . S
O457 C444 1.280 . S
O457 Mg447 1.995 . S
O458 C445 1.277 . S
O458 Mg449 2.041 . S
O459 C445 1.245 . S
O459 Mg447 1.993 . S
O460 Mg447 2.049 1_455 S
O460 C454 1.247 . S
O461 Mg450 2.106 . S
O461 Mg453 2.238 . S
O461 C454 1.289 . S
C462 O463 1.245 . S
C462 O464 1.274 . S
O463 Mg450 2.079 1_655 S
O463 C462 1.245 . S
O464 Mg449 2.038 . S
O464 C462 1.274 . S
O465 Mg453 2.042 . S
O465 C468 1.241 . S
O466 Mg452 1.984 . S
O466 C468 1.280 . S
O467 Mg453 2.041 . S
O467 C471 1.277 . S
C468 O465 1.241 . S
C468 O466 1.280 . S
O469 Mg452 1.988 . S
O469 C471 1.245 . S
O470 C446 1.247 . S
O470 Mg452 2.061 1_655 S
C471 O467 1.277 . S
C471 O469 1.245 . S
O472 C446 1.289 . S
O472 Mg449 2.238 . S
O472 Mg450 2.106 1_655 S
O473 Mg450 2.079 . S
O473 C455 1.245 . S
O474 Mg453 2.038 . S
O474 C455 1.274 . S
C475 O487 1.241 . S
C475 O488 1.280 . S
C476 O489 1.277 . S
C476 O490 1.245 . S
C477 O501 1.247 . S
C477 O503 1.289 1_565 S
Mg478 O479 1.926 . S
Mg478 O488 1.984 . S
Mg478 O490 1.988 . S
Mg478 O491 2.061 . S
O479 Mg478 1.926 . S
O479 Mg480 1.986 . S
O479 Mg481 1.917 . S
Mg480 O479 1.986 . S
Mg480 O487 2.042 . S
Mg480 O489 2.041 . S
Mg480 O495 2.038 . S
Mg480 O503 2.238 . S
Mg481 O479 1.917 . S
Mg481 O482 1.917 . S
Mg481 O492 2.106 . S
Mg481 O494 2.079 . S
Mg481 O503 2.106 . S
Mg481 O504 2.079 . S
O482 Mg481 1.917 . S
O482 Mg483 1.926 1_545 S
O482 Mg484 1.986 . S
Mg483 O482 1.926 1_565 S
Mg483 O497 1.984 . S
Mg483 O500 1.988 . S
Mg483 O501 2.061 . S
Mg484 O482 1.986 . S
Mg484 O492 2.238 . S
Mg484 O496 2.042 . S
Mg484 O498 2.041 . S
Mg484 O505 2.038 . S
C485 O491 1.247 . S
C485 O492 1.289 . S
C486 O504 1.245 . S
C486 O505 1.274 . S
O487 C475 1.241 . S
O487 Mg480 2.042 . S
O488 C475 1.280 . S
O488 Mg478 1.984 . S
O489 C476 1.277 . S
O489 Mg480 2.041 . S
O490 C476 1.245 . S
O490 Mg478 1.988 . S
O491 Mg478 2.061 . S
O491 C485 1.247 . S
O492 Mg481 2.106 . S
O492 Mg484 2.238 . S
O492 C485 1.289 . S
C493 O494 1.245 1_565 S
C493 O495 1.274 1_565 S
O494 Mg481 2.079 . S
O494 C493 1.245 1_545 S
O495 Mg480 2.038 . S
O495 C493 1.274 1_545 S
O496 Mg484 2.042 . S
O496 C499 1.241 1_545 S
O497 Mg483 1.984 . S
O497 C499 1.280 . S
O498 Mg484 2.041 . S
O498 C502 1.277 1_545 S
C499 O496 1.241 1_565 S
C499 O497 1.280 . S
O500 Mg483 1.988 . S
O500 C502 1.245 . S
O501 C477 1.247 . S
O501 Mg483 2.061 . S
C502 O498 1.277 1_565 S
C502 O500 1.245 . S
O503 C477 1.289 1_545 S
O503 Mg480 2.238 . S
O503 Mg481 2.106 . S
O504 Mg481 2.079 . S
O504 C486 1.245 . S
O505 Mg484 2.038 . S
O505 C486 1.274 . S
H506 C524 0.951 . S
H507 C526 0.951 . S
H508 C528 0.950 . S
H509 C529 0.950 . S
H510 C531 0.950 . S
H511 C534 0.950 . S
H512 C535 0.950 . S
H513 C537 0.950 . S
H514 C538 0.950 . S
H515 C539 0.951 . S
H516 C541 0.951 . S
H517 C543 0.950 . S
H518 C544 0.950 . S
H519 C546 0.950 . S
H520 C549 0.950 . S
H521 C550 0.950 . S
H522 C552 0.950 . S
H523 C553 0.950 . S
C524 H506 0.951 . S
C524 C525 1.366 . S
C524 C526 1.388 . S
C525 C524 1.366 . S
C525 C529 1.385 . S
C526 H507 0.951 . S
C526 C524 1.388 . S
C526 C527 1.366 . S
C527 C526 1.366 . S
C527 C528 1.414 . S
C527 C530 1.499 . S
C528 H508 0.950 . S
C528 C527 1.414 . S
C528 C529 1.374 . S
C529 H509 0.950 . S
C529 C525 1.385 . S
C529 C528 1.374 . S
C530 C527 1.499 . S
C530 C531 1.373 . S
C530 C532 1.389 . S
C531 H510 0.950 . S
C531 C530 1.373 . S
C531 C547 1.377 . S
C532 C530 1.389 . S
C532 C533 1.524 . S
C532 C546 1.377 . S
C533 C532 1.524 . S
C533 C534 1.397 . S
C533 C538 1.363 . S
C534 H511 0.950 . S
C534 C533 1.397 . S
C534 C535 1.334 . S
C535 H512 0.950 . S
C535 C534 1.334 . S
C535 C536 1.287 . S
C536 C535 1.287 . S
C536 C537 1.524 . S
C536 H555 0.913 . S
C537 H513 0.950 . S
C537 C536 1.524 . S
C537 C538 1.415 . S
C538 H514 0.950 . S
C538 C533 1.363 . S
C538 C537 1.415 . S
C539 H515 0.951 . S
C539 C540 1.366 . S
C539 C541 1.388 . S
C540 C539 1.366 . S
C540 C544 1.385 . S
C541 H516 0.951 . S
C541 C539 1.388 . S
C541 C542 1.366 . S
C542 C541 1.366 . S
C542 C543 1.414 . S
C542 C545 1.499 . S
C543 H517 0.950 . S
C543 C542 1.414 . S
C543 C544 1.374 . S
C544 H518 0.950 . S
C544 C540 1.385 . S
C544 C543 1.374 . S
C545 C542 1.499 . S
C545 C546 1.373 . S
C545 C547 1.389 . S
C546 H519 0.950 . S
C546 C532 1.377 . S
C546 C545 1.373 . S
C547 C531 1.377 . S
C547 C545 1.389 . S
C547 C548 1.524 . S
C548 C547 1.524 . S
C548 C549 1.397 . S
C548 C553 1.363 . S
C549 H520 0.950 . S
C549 C548 1.397 . S
C549 C550 1.334 . S
C550 H521 0.950 . S
C550 C549 1.334 . S
C550 C551 1.287 . S
C551 C550 1.287 . S
C551 C552 1.524 . S
C551 H554 0.999 . S
C552 H522 0.950 . S
C552 C551 1.524 . S
C552 C553 1.415 . S
C553 H523 0.950 . S
C553 C548 1.363 . S
C553 C552 1.415 . S
H554 C551 0.999 . S
H555 C536 0.913 . S
H556 C574 0.951 . S
H557 C576 0.951 . S
H558 C578 0.950 . S
H559 C579 0.950 . S
H560 C581 0.950 . S
H561 C584 0.950 . S
H562 C585 0.950 . S
H563 C587 0.950 . S
H564 C588 0.950 . S
H565 C589 0.951 . S
H566 C591 0.951 . S
H567 C593 0.950 . S
H568 C594 0.950 . S
H569 C596 0.950 . S
H570 C599 0.950 . S
H571 C600 0.950 . S
H572 C602 0.948 . S
H573 C603 0.950 . S
C574 H556 0.951 . S
C574 C575 1.366 . S
C574 C576 1.388 . S
C575 C574 1.366 . S
C575 C579 1.385 . S
C576 H557 0.951 . S
C576 C574 1.388 . S
C576 C577 1.366 . S
C577 C576 1.366 . S
C577 C578 1.414 . S
C577 C580 1.499 . S
C578 H558 0.950 . S
C578 C577 1.414 . S
C578 C579 1.374 . S
C579 H559 0.950 . S
C579 C575 1.385 . S
C579 C578 1.374 . S
C580 C577 1.499 . S
C580 C581 1.373 . S
C580 C582 1.389 . S
C581 H560 0.950 . S
C581 C580 1.373 . S
C581 C597 1.377 . S
C582 C580 1.389 . S
C582 C583 1.524 . S
C582 C596 1.377 . S
C583 C582 1.524 . S
C583 C584 1.397 . S
C583 C588 1.363 . S
C584 H561 0.950 . S
C584 C583 1.397 . S
C584 C585 1.334 . S
C585 H562 0.950 . S
C585 C584 1.334 . S
C585 C586 1.287 . S
C586 C585 1.287 . S
C586 C587 1.524 . S
C586 H605 0.913 . S
C587 H563 0.950 . S
C587 C586 1.524 . S
C587 C588 1.415 . S
C588 H564 0.950 . S
C588 C583 1.363 . S
C588 C587 1.415 . S
C589 H565 0.951 . S
C589 C590 1.366 . S
C589 C591 1.388 . S
C590 C589 1.366 . S
C590 C594 1.385 . S
C591 H566 0.951 . S
C591 C589 1.388 . S
C591 C592 1.366 . S
C592 C591 1.366 . S
C592 C593 1.414 . S
C592 C595 1.499 . S
C593 H567 0.950 . S
C593 C592 1.414 . S
C593 C594 1.374 . S
C594 H568 0.950 . S
C594 C590 1.385 . S
C594 C593 1.374 . S
C595 C592 1.499 . S
C595 C596 1.373 . S
C595 C597 1.389 . S
C596 H569 0.950 . S
C596 C582 1.377 . S
C596 C595 1.373 . S
C597 C581 1.377 . S
C597 C595 1.389 . S
C597 C598 1.524 . S
C598 C597 1.524 . S
C598 C599 1.397 . S
C598 C603 1.363 . S
C599 H570 0.950 . S
C599 C598 1.397 . S
C599 C600 1.334 . S
C600 H571 0.950 . S
C600 C599 1.334 . S
C600 C601 1.287 1_655 S
C601 C600 1.287 1_455 S
C601 C602 1.522 . S
C601 H604 0.999 . S
C602 H572 0.948 . S
C602 C601 1.522 . S
C602 C603 1.418 1_455 S
C603 H573 0.950 . S
C603 C598 1.363 . S
C603 C602 1.418 1_655 S
H604 C601 0.999 . S
H605 C586 0.913 . S
H606 C624 0.951 . S
H607 C626 0.951 . S
H608 C628 0.950 . S
H609 C629 0.950 . S
H610 C631 0.950 . S
H611 C634 0.950 . S
H612 C635 0.950 . S
H613 C637 0.950 . S
H614 C638 0.950 . S
H615 C639 0.951 . S
H616 C641 0.951 . S
H617 C643 0.950 . S
H618 C644 0.950 . S
H619 C646 0.950 . S
H620 C649 0.950 . S
H621 C650 0.950 . S
H622 C652 0.950 1_455 S
H623 C653 0.950 . S
C624 H606 0.951 . S
C624 C625 1.366 . S
C624 C626 1.388 . S
C625 C624 1.366 . S
C625 C629 1.385 . S
C626 H607 0.951 . S
C626 C624 1.388 . S
C626 C627 1.366 . S
C627 C626 1.366 . S
C627 C628 1.414 . S
C627 C630 1.499 . S
C628 H608 0.950 . S
C628 C627 1.414 . S
C628 C629 1.374 . S
C629 H609 0.950 . S
C629 C625 1.385 . S
C629 C628 1.374 . S
C630 C627 1.499 . S
C630 C631 1.373 . S
C630 C632 1.389 . S
C631 H610 0.950 . S
C631 C630 1.373 . S
C631 C647 1.377 . S
C632 C630 1.389 . S
C632 C633 1.524 . S
C632 C646 1.377 . S
C633 C632 1.524 . S
C633 C634 1.397 . S
C633 C638 1.363 . S
C634 H611 0.950 . S
C634 C633 1.397 . S
C634 C635 1.334 . S
C635 H612 0.950 . S
C635 C634 1.334 . S
C635 C636 1.287 . S
C636 C635 1.287 . S
C636 C637 1.524 . S
C636 H655 0.913 . S
C637 H613 0.950 . S
C637 C636 1.524 . S
C637 C638 1.415 . S
C638 H614 0.950 . S
C638 C633 1.363 . S
C638 C637 1.415 . S
C639 H615 0.951 . S
C639 C640 1.366 . S
C639 C641 1.388 . S
C640 C639 1.366 . S
C640 C644 1.385 . S
C641 H616 0.951 . S
C641 C639 1.388 . S
C641 C642 1.366 . S
C642 C641 1.366 . S
C642 C643 1.414 . S
C642 C645 1.499 . S
C643 H617 0.950 . S
C643 C642 1.414 . S
C643 C644 1.374 . S
C644 H618 0.950 . S
C644 C640 1.385 . S
C644 C643 1.374 . S
C645 C642 1.499 . S
C645 C646 1.373 . S
C645 C647 1.389 . S
C646 H619 0.950 . S
C646 C632 1.377 . S
C646 C645 1.373 . S
C647 C631 1.377 . S
C647 C645 1.389 . S
C647 C648 1.524 . S
C648 C647 1.524 . S
C648 C649 1.397 . S
C648 C653 1.363 . S
C649 H620 0.950 . S
C649 C648 1.397 . S
C649 C650 1.334 . S
C650 H621 0.950 . S
C650 C649 1.334 . S
C650 C651 1.287 . S
C651 C650 1.287 . S
C651 C652 1.524 . S
C651 H654 0.999 1_655 S
C652 H622 0.950 1_655 S
C652 C651 1.524 . S
C652 C653 1.415 . S
C653 H623 0.950 . S
C653 C648 1.363 . S
C653 C652 1.415 . S
H654 C651 0.999 1_455 S
H655 C636 0.913 . S
H656 C674 0.951 . S
H657 C676 0.951 . S
H658 C678 0.950 . S
H659 C679 0.950 . S
H660 C681 0.950 . S
H661 C684 0.950 . S
H662 C685 0.950 . S
H663 C687 0.950 . S
H664 C688 0.950 . S
H665 C689 0.951 . S
H666 C691 0.951 . S
H667 C693 0.950 . S
H668 C694 0.950 . S
H669 C696 0.950 . S
H670 C699 0.950 . S
H671 C700 0.950 . S
H672 C702 0.950 . S
H673 C703 0.950 . S
C674 H656 0.951 . S
C674 C675 1.366 . S
C674 C676 1.388 . S
C675 C674 1.366 . S
C675 C679 1.385 . S
C676 H657 0.951 . S
C676 C674 1.388 . S
C676 C677 1.366 . S
C677 C676 1.366 . S
C677 C678 1.414 . S
C677 C680 1.499 . S
C678 H658 0.950 . S
C678 C677 1.414 . S
C678 C679 1.374 . S
C679 H659 0.950 . S
C679 C675 1.385 . S
C679 C678 1.374 . S
C680 C677 1.499 . S
C680 C681 1.373 . S
C680 C682 1.389 . S
C681 H660 0.950 . S
C681 C680 1.373 . S
C681 C697 1.377 . S
C682 C680 1.389 . S
C682 C683 1.524 . S
C682 C696 1.377 . S
C683 C682 1.524 . S
C683 C684 1.397 . S
C683 C688 1.363 . S
C684 H661 0.950 . S
C684 C683 1.397 . S
C684 C685 1.334 . S
C685 H662 0.950 . S
C685 C684 1.334 . S
C685 C686 1.287 . S
C686 C685 1.287 . S
C686 C687 1.524 . S
C686 H705 0.913 . S
C687 H663 0.950 . S
C687 C686 1.524 . S
C687 C688 1.415 . S
C688 H664 0.950 . S
C688 C683 1.363 . S
C688 C687 1.415 . S
C689 H665 0.951 . S
C689 C690 1.366 . S
C689 C691 1.388 . S
C690 C689 1.366 . S
C690 C694 1.385 . S
C691 H666 0.951 . S
C691 C689 1.388 . S
C691 C692 1.366 . S
C692 C691 1.366 . S
C692 C693 1.414 . S
C692 C695 1.499 . S
C693 H667 0.950 . S
C693 C692 1.414 . S
C693 C694 1.374 . S
C694 H668 0.950 . S
C694 C690 1.385 . S
C694 C693 1.374 . S
C695 C692 1.499 . S
C695 C696 1.373 . S
C695 C697 1.389 . S
C696 H669 0.950 . S
C696 C682 1.377 . S
C696 C695 1.373 . S
C697 C681 1.377 . S
C697 C695 1.389 . S
C697 C698 1.524 . S
C698 C697 1.524 . S
C698 C699 1.397 . S
C698 C703 1.363 . S
C699 H670 0.950 . S
C699 C698 1.397 . S
C699 C700 1.334 . S
C700 H671 0.950 . S
C700 C699 1.334 . S
C700 C701 1.287 . S
C701 C700 1.287 . S
C701 C702 1.524 . S
C701 H704 0.999 . S
C702 H672 0.950 . S
C702 C701 1.524 . S
C702 C703 1.415 . S
C703 H673 0.950 . S
C703 C698 1.363 . S
C703 C702 1.415 . S
H704 C701 0.999 . S
H705 C686 0.913 . S
H706 C724 0.951 . S
H707 C726 0.951 . S
H708 C728 0.950 . S
H709 C729 0.950 . S
H710 C731 0.950 . S
H711 C734 0.950 . S
H712 C735 0.950 . S
H713 C737 0.950 . S
H714 C738 0.950 . S
H715 C739 0.951 . S
H716 C741 0.951 . S
H717 C743 0.950 . S
H718 C744 0.950 . S
H719 C746 0.950 . S
H720 C749 0.950 . S
H721 C750 0.950 . S
H722 C752 0.950 . S
H723 C753 0.950 . S
C724 H706 0.951 . S
C724 C725 1.366 . S
C724 C726 1.388 . S
C725 C724 1.366 . S
C725 C729 1.385 . S
C726 H707 0.951 . S
C726 C724 1.388 . S
C726 C727 1.366 . S
C727 C726 1.366 . S
C727 C728 1.414 . S
C727 C730 1.499 . S
C728 H708 0.950 . S
C728 C727 1.414 . S
C728 C729 1.374 . S
C729 H709 0.950 . S
C729 C725 1.385 . S
C729 C728 1.374 . S
C730 C727 1.499 . S
C730 C731 1.373 . S
C730 C732 1.389 . S
C731 H710 0.950 . S
C731 C730 1.373 . S
C731 C747 1.377 . S
C732 C730 1.389 . S
C732 C733 1.524 . S
C732 C746 1.377 . S
C733 C732 1.524 . S
C733 C734 1.397 . S
C733 C738 1.363 . S
C734 H711 0.950 . S
C734 C733 1.397 . S
C734 C735 1.334 . S
C735 H712 0.950 . S
C735 C734 1.334 . S
C735 C736 1.287 . S
C736 C735 1.287 . S
C736 C737 1.524 . S
C736 H755 0.913 1_565 S
C737 H713 0.950 . S
C737 C736 1.524 . S
C737 C738 1.415 . S
C738 H714 0.950 . S
C738 C733 1.363 . S
C738 C737 1.415 . S
C739 H715 0.951 . S
C739 C740 1.366 . S
C739 C741 1.388 . S
C740 C739 1.366 . S
C740 C744 1.385 . S
C741 H716 0.951 . S
C741 C739 1.388 . S
C741 C742 1.366 . S
C742 C741 1.366 . S
C742 C743 1.414 . S
C742 C745 1.499 . S
C743 H717 0.950 . S
C743 C742 1.414 . S
C743 C744 1.374 . S
C744 H718 0.950 . S
C744 C740 1.385 . S
C744 C743 1.374 . S
C745 C742 1.499 . S
C745 C746 1.373 . S
C745 C747 1.389 . S
C746 H719 0.950 . S
C746 C732 1.377 . S
C746 C745 1.373 . S
C747 C731 1.377 . S
C747 C745 1.389 . S
C747 C748 1.524 . S
C748 C747 1.524 . S
C748 C749 1.397 . S
C748 C753 1.363 . S
C749 H720 0.950 . S
C749 C748 1.397 . S
C749 C750 1.334 . S
C750 H721 0.950 . S
C750 C749 1.334 . S
C750 C751 1.287 . S
C751 C750 1.287 . S
C751 C752 1.524 . S
C751 H754 0.982 1_455 S
C752 H722 0.950 . S
C752 C751 1.524 . S
C752 C753 1.415 . S
C753 H723 0.950 . S
C753 C748 1.363 . S
C753 C752 1.415 . S
H754 C751 0.982 1_655 S
H755 C736 0.913 1_545 S
H756 C774 0.951 . S
H757 C776 0.951 . S
H758 C778 0.950 . S
H759 C779 0.950 . S
H760 C781 0.950 . S
H761 C784 0.950 . S
H762 C785 0.950 . S
H763 C787 0.950 . S
H764 C788 0.950 . S
H765 C789 0.951 . S
H766 C791 0.951 . S
H767 C793 0.950 . S
H768 C794 0.950 . S
H769 C796 0.950 . S
H770 C799 0.950 . S
H771 C800 0.950 . S
H772 C802 0.950 . S
H773 C803 0.950 . S
C774 H756 0.951 . S
C774 C775 1.366 . S
C774 C776 1.388 . S
C775 C774 1.366 . S
C775 C779 1.385 . S
C776 H757 0.951 . S
C776 C774 1.388 . S
C776 C777 1.366 . S
C777 C776 1.366 . S
C777 C778 1.414 . S
C777 C780 1.499 . S
C778 H758 0.950 . S
C778 C777 1.414 . S
C778 C779 1.374 . S
C779 H759 0.950 . S
C779 C775 1.385 . S
C779 C778 1.374 . S
C780 C777 1.499 . S
C780 C781 1.373 . S
C780 C782 1.389 . S
C781 H760 0.950 . S
C781 C780 1.373 . S
C781 C797 1.377 . S
C782 C780 1.389 . S
C782 C783 1.524 . S
C782 C796 1.377 . S
C783 C782 1.524 . S
C783 C784 1.397 . S
C783 C788 1.363 . S
C784 H761 0.950 . S
C784 C783 1.397 . S
C784 C785 1.334 . S
C785 H762 0.950 . S
C785 C784 1.334 . S
C785 C786 1.287 . S
C786 C785 1.287 . S
C786 C787 1.524 . S
C786 H805 0.913 . S
C787 H763 0.950 . S
C787 C786 1.524 . S
C787 C788 1.415 . S
C788 H764 0.950 . S
C788 C783 1.363 . S
C788 C787 1.415 . S
C789 H765 0.951 . S
C789 C790 1.366 . S
C789 C791 1.388 . S
C790 C789 1.366 . S
C790 C794 1.385 . S
C791 H766 0.951 . S
C791 C789 1.388 . S
C791 C792 1.366 . S
C792 C791 1.366 . S
C792 C793 1.414 . S
C792 C795 1.499 . S
C793 H767 0.950 . S
C793 C792 1.414 . S
C793 C794 1.374 . S
C794 H768 0.950 . S
C794 C790 1.385 . S
C794 C793 1.374 . S
C795 C792 1.499 . S
C795 C796 1.373 . S
C795 C797 1.389 . S
C796 H769 0.950 . S
C796 C782 1.377 . S
C796 C795 1.373 . S
C797 C781 1.377 . S
C797 C795 1.389 . S
C797 C798 1.524 . S
C798 C797 1.524 . S
C798 C799 1.397 . S
C798 C803 1.363 . S
C799 H770 0.950 . S
C799 C798 1.397 . S
C799 C800 1.334 . S
C800 H771 0.950 . S
C800 C799 1.334 . S
C800 C801 1.287 . S
C801 C800 1.287 . S
C801 C802 1.524 . S
C801 H804 0.999 . S
C802 H772 0.950 . S
C802 C801 1.524 . S
C802 C803 1.415 . S
C803 H773 0.950 . S
C803 C798 1.363 . S
C803 C802 1.415 . S
H804 C801 0.999 . S
H805 C786 0.913 . S
H806 C824 0.951 . S
H807 C826 0.951 . S
H808 C828 0.950 . S
H809 C829 0.950 . S
H810 C831 0.950 . S
H811 C834 0.950 . S
H812 C835 0.950 . S
H813 C837 0.950 . S
H814 C838 0.950 . S
H815 C839 0.951 . S
H816 C841 0.951 . S
H817 C843 0.950 . S
H818 C844 0.950 . S
H819 C846 0.950 . S
H820 C849 0.950 . S
H821 C850 0.950 . S
H822 C852 0.950 . S
H823 C853 0.950 . S
C824 H806 0.951 . S
C824 C825 1.366 . S
C824 C826 1.388 . S
C825 C824 1.366 . S
C825 C829 1.385 . S
C826 H807 0.951 . S
C826 C824 1.388 . S
C826 C827 1.366 . S
C827 C826 1.366 . S
C827 C828 1.414 . S
C827 C830 1.499 . S
C828 H808 0.950 . S
C828 C827 1.414 . S
C828 C829 1.374 . S
C829 H809 0.950 . S
C829 C825 1.385 . S
C829 C828 1.374 . S
C830 C827 1.499 . S
C830 C831 1.373 . S
C830 C832 1.389 . S
C831 H810 0.950 . S
C831 C830 1.373 . S
C831 C847 1.377 . S
C832 C830 1.389 . S
C832 C833 1.524 . S
C832 C846 1.377 . S
C833 C832 1.524 . S
C833 C834 1.397 . S
C833 C838 1.363 . S
C834 H811 0.950 . S
C834 C833 1.397 . S
C834 C835 1.334 . S
C835 H812 0.950 . S
C835 C834 1.334 . S
C835 C836 1.287 . S
C836 C835 1.287 . S
C836 C837 1.524 . S
C836 H855 0.913 . S
C837 H813 0.950 . S
C837 C836 1.524 . S
C837 C838 1.415 . S
C838 H814 0.950 . S
C838 C833 1.363 . S
C838 C837 1.415 . S
C839 H815 0.951 . S
C839 C840 1.366 . S
C839 C841 1.388 . S
C840 C839 1.366 . S
C840 C844 1.385 . S
C841 H816 0.951 . S
C841 C839 1.388 . S
C841 C842 1.366 . S
C842 C841 1.366 . S
C842 C843 1.414 . S
C842 C845 1.499 . S
C843 H817 0.950 . S
C843 C842 1.414 . S
C843 C844 1.374 . S
C844 H818 0.950 . S
C844 C840 1.385 . S
C844 C843 1.374 . S
C845 C842 1.499 . S
C845 C846 1.373 . S
C845 C847 1.389 . S
C846 H819 0.950 . S
C846 C832 1.377 . S
C846 C845 1.373 . S
C847 C831 1.377 . S
C847 C845 1.389 . S
C847 C848 1.524 . S
C848 C847 1.524 . S
C848 C849 1.397 . S
C848 C853 1.363 . S
C849 H820 0.950 . S
C849 C848 1.397 . S
C849 C850 1.334 1_655 S
C850 H821 0.950 . S
C850 C849 1.334 1_455 S
C850 C851 1.287 1_455 S
C851 C850 1.287 1_655 S
C851 C852 1.524 . S
C851 H854 0.999 1_655 S
C852 H822 0.950 . S
C852 C851 1.524 . S
C852 C853 1.415 . S
C853 H823 0.950 . S
C853 C848 1.363 . S
C853 C852 1.415 . S
H854 C851 0.999 1_455 S
H855 C836 0.913 . S
H856 C874 0.951 . S
H857 C876 0.951 . S
H858 C878 0.950 . S
H859 C879 0.950 . S
H860 C881 0.950 . S
H861 C884 0.950 . S
H862 C885 0.950 . S
H863 C887 0.950 . S
H864 C888 0.950 . S
H865 C889 0.951 . S
H866 C891 0.951 . S
H867 C893 0.950 . S
H868 C894 0.950 . S
H869 C896 0.950 . S
H870 C899 0.950 . S
H871 C900 0.950 . S
H872 C902 0.950 . S
H873 C903 0.950 . S
C874 H856 0.951 . S
C874 C875 1.366 . S
C874 C876 1.388 . S
C875 C874 1.366 . S
C875 C879 1.385 . S
C876 H857 0.951 . S
C876 C874 1.388 . S
C876 C877 1.366 . S
C877 C876 1.366 . S
C877 C878 1.414 . S
C877 C880 1.499 . S
C878 H858 0.950 . S
C878 C877 1.414 . S
C878 C879 1.374 . S
C879 H859 0.950 . S
C879 C875 1.385 . S
C879 C878 1.374 . S
C880 C877 1.499 . S
C880 C881 1.373 . S
C880 C882 1.389 . S
C881 H860 0.950 . S
C881 C880 1.373 . S
C881 C897 1.377 . S
C882 C880 1.389 . S
C882 C883 1.524 . S
C882 C896 1.377 . S
C883 C882 1.524 . S
C883 C884 1.397 . S
C883 C888 1.363 . S
C884 H861 0.950 . S
C884 C883 1.397 . S
C884 C885 1.334 . S
C885 H862 0.950 . S
C885 C884 1.334 . S
C885 C886 1.287 . S
C886 C885 1.287 . S
C886 C887 1.524 . S
C886 H905 0.913 . S
C887 H863 0.950 . S
C887 C886 1.524 . S
C887 C888 1.415 . S
C888 H864 0.950 . S
C888 C883 1.363 . S
C888 C887 1.415 . S
C889 H865 0.951 . S
C889 C890 1.366 . S
C889 C891 1.388 . S
C890 C889 1.366 . S
C890 C894 1.385 . S
C891 H866 0.951 . S
C891 C889 1.388 . S
C891 C892 1.366 . S
C892 C891 1.366 . S
C892 C893 1.414 . S
C892 C895 1.499 . S
C893 H867 0.950 . S
C893 C892 1.414 . S
C893 C894 1.374 . S
C894 H868 0.950 . S
C894 C890 1.385 . S
C894 C893 1.374 . S
C895 C892 1.499 . S
C895 C896 1.373 . S
C895 C897 1.389 . S
C896 H869 0.950 . S
C896 C882 1.377 . S
C896 C895 1.373 . S
C897 C881 1.377 . S
C897 C895 1.389 . S
C897 C898 1.524 . S
C898 C897 1.524 . S
C898 C899 1.397 . S
C898 C903 1.363 . S
C899 H870 0.950 . S
C899 C898 1.397 . S
C899 C900 1.334 . S
C900 H871 0.950 . S
C900 C899 1.334 . S
C900 C901 1.287 . S
C901 C900 1.287 . S
C901 C902 1.524 . S
C901 H904 0.999 . S
C902 H872 0.950 . S
C902 C901 1.524 . S
C902 C903 1.415 . S
C903 H873 0.950 . S
C903 C898 1.363 . S
C903 C902 1.415 . S
H904 C901 0.999 . S
H905 C886 0.913 . S
H906 C924 0.951 . S
H907 C926 0.951 . S
H908 C928 0.950 . S
H909 C929 0.950 . S
H910 C931 0.950 . S
H911 C934 0.950 . S
H912 C935 0.950 . S
H913 C937 0.950 . S
H914 C938 0.950 . S
H915 C939 0.951 . S
H916 C941 0.951 . S
H917 C943 0.950 . S
H918 C944 0.950 . S
H919 C946 0.950 . S
H920 C949 0.950 . S
H921 C950 0.950 . S
H922 C952 0.950 . S
H923 C953 0.950 . S
C924 H906 0.951 . S
C924 C925 1.366 . S
C924 C926 1.388 . S
C925 C924 1.366 . S
C925 C929 1.385 . S
C926 H907 0.951 . S
C926 C924 1.388 . S
C926 C927 1.366 . S
C927 C926 1.366 . S
C927 C928 1.414 . S
C927 C930 1.499 . S
C928 H908 0.950 . S
C928 C927 1.414 . S
C928 C929 1.374 . S
C929 H909 0.950 . S
C929 C925 1.385 . S
C929 C928 1.374 . S
C930 C927 1.499 . S
C930 C931 1.373 . S
C930 C932 1.389 . S
C931 H910 0.950 . S
C931 C930 1.373 . S
C931 C947 1.377 . S
C932 C930 1.389 . S
C932 C933 1.524 . S
C932 C946 1.377 . S
C933 C932 1.524 . S
C933 C934 1.397 . S
C933 C938 1.363 . S
C934 H911 0.950 . S
C934 C933 1.397 . S
C934 C935 1.334 . S
C935 H912 0.950 . S
C935 C934 1.334 . S
C935 C936 1.287 . S
C936 C935 1.287 . S
C936 C937 1.524 . S
C936 H955 0.913 . S
C937 H913 0.950 . S
C937 C936 1.524 . S
C937 C938 1.415 . S
C938 H914 0.950 . S
C938 C933 1.363 . S
C938 C937 1.415 . S
C939 H915 0.951 . S
C939 C940 1.366 . S
C939 C941 1.388 . S
C940 C939 1.366 . S
C940 C944 1.385 . S
C941 H916 0.951 . S
C941 C939 1.388 . S
C941 C942 1.366 . S
C942 C941 1.366 . S
C942 C943 1.414 . S
C942 C945 1.499 . S
C943 H917 0.950 . S
C943 C942 1.414 . S
C943 C944 1.374 . S
C944 H918 0.950 . S
C944 C940 1.385 . S
C944 C943 1.374 . S
C945 C942 1.499 . S
C945 C946 1.373 . S
C945 C947 1.389 . S
C946 H919 0.950 . S
C946 C932 1.377 . S
C946 C945 1.373 . S
C947 C931 1.377 . S
C947 C945 1.389 . S
C947 C948 1.524 . S
C948 C947 1.524 . S
C948 C949 1.397 . S
C948 C953 1.363 . S
C949 H920 0.950 . S
C949 C948 1.397 . S
C949 C950 1.334 . S
C950 H921 0.950 . S
C950 C949 1.334 . S
C950 C951 1.287 . S
C951 C950 1.287 . S
C951 C952 1.524 . S
C951 H954 0.999 . S
C952 H922 0.950 . S
C952 C951 1.524 . S
C952 C953 1.415 . S
C953 H923 0.950 . S
C953 C948 1.363 . S
C953 C952 1.415 . S
H954 C951 0.999 . S
H955 C936 0.913 . S
H956 C974 0.951 . S
H957 C976 0.951 . S
H958 C978 0.950 . S
H959 C979 0.950 . S
H960 C981 0.950 . S
H961 C984 0.950 . S
H962 C985 0.950 . S
H963 C987 0.950 . S
H964 C988 0.950 . S
H965 C989 0.951 . S
H966 C991 0.951 . S
H967 C993 0.950 . S
H968 C994 0.950 . S
H969 C996 0.950 . S
H970 C999 0.950 . S
H971 C1000 0.950 . S
H972 C1002 0.950 . S
H973 C1003 0.950 . S
C974 H956 0.951 . S
C974 C975 1.366 . S
C974 C976 1.388 . S
C975 C974 1.366 . S
C975 C979 1.385 . S
C976 H957 0.951 . S
C976 C974 1.388 . S
C976 C977 1.366 . S
C977 C976 1.366 . S
C977 C978 1.414 . S
C977 C980 1.499 . S
C978 H958 0.950 . S
C978 C977 1.414 . S
C978 C979 1.374 . S
C979 H959 0.950 . S
C979 C975 1.385 . S
C979 C978 1.374 . S
C980 C977 1.499 . S
C980 C981 1.373 . S
C980 C982 1.389 . S
C981 H960 0.950 . S
C981 C980 1.373 . S
C981 C997 1.377 . S
C982 C980 1.389 . S
C982 C983 1.524 . S
C982 C996 1.377 . S
C983 C982 1.524 . S
C983 C984 1.397 . S
C983 C988 1.363 . S
C984 H961 0.950 . S
C984 C983 1.397 . S
C984 C985 1.334 . S
C985 H962 0.950 . S
C985 C984 1.334 . S
C985 C986 1.287 . S
C986 C985 1.287 . S
C986 C987 1.524 . S
C986 H1005 0.913 . S
C987 H963 0.950 . S
C987 C986 1.524 . S
C987 C988 1.415 . S
C988 H964 0.950 . S
C988 C983 1.363 . S
C988 C987 1.415 . S
C989 H965 0.951 . S
C989 C990 1.366 . S
C989 C991 1.388 . S
C990 C989 1.366 . S
C990 C994 1.385 . S
C991 H966 0.951 . S
C991 C989 1.388 . S
C991 C992 1.366 . S
C992 C991 1.366 . S
C992 C993 1.414 . S
C992 C995 1.499 . S
C993 H967 0.950 . S
C993 C992 1.414 . S
C993 C994 1.374 . S
C994 H968 0.950 . S
C994 C990 1.385 . S
C994 C993 1.374 . S
C995 C992 1.499 . S
C995 C996 1.373 . S
C995 C997 1.389 . S
C996 H969 0.950 . S
C996 C982 1.377 . S
C996 C995 1.373 . S
C997 C981 1.377 . S
C997 C995 1.389 . S
C997 C998 1.524 . S
C998 C997 1.524 . S
C998 C999 1.397 . S
C998 C1003 1.363 . S
C999 H970 0.950 . S
C999 C998 1.397 . S
C999 C1000 1.334 . S
C1000 H971 0.950 . S
C1000 C999 1.334 . S
C1000 C1001 1.287 . S
C1001 C1000 1.287 . S
C1001 C1002 1.524 . S
C1001 H1004 0.999 . S
C1002 H972 0.950 . S
C1002 C1001 1.524 . S
C1002 C1003 1.415 . S
C1003 H973 0.950 . S
C1003 C998 1.363 . S
C1003 C1002 1.415 . S
H1004 C1001 0.999 . S
H1005 C986 0.913 . S
H1006 C1024 0.951 . S
H1007 C1026 0.951 . S
H1008 C1028 0.950 . S
H1009 C1029 0.950 . S
H1010 C1031 0.950 . S
H1011 C1034 0.950 . S
H1012 C1035 0.950 . S
H1013 C1037 0.950 . S
H1014 C1038 0.950 . S
H1015 C1039 0.951 . S
H1016 C1041 0.951 . S
H1017 C1043 0.950 . S
H1018 C1044 0.950 . S
H1019 C1046 0.950 . S
H1020 C1049 0.950 . S
H1021 C1050 0.950 . S
H1022 C1052 0.950 . S
H1023 C1053 0.950 . S
C1024 H1006 0.951 . S
C1024 C1025 1.366 . S
C1024 C1026 1.388 . S
C1025 C1024 1.366 . S
C1025 C1029 1.385 . S
C1026 H1007 0.951 . S
C1026 C1024 1.388 . S
C1026 C1027 1.366 . S
C1027 C1026 1.366 . S
C1027 C1028 1.414 . S
C1027 C1030 1.499 . S
C1028 H1008 0.950 . S
C1028 C1027 1.414 . S
C1028 C1029 1.374 . S
C1029 H1009 0.950 . S
C1029 C1025 1.385 . S
C1029 C1028 1.374 . S
C1030 C1027 1.499 . S
C1030 C1031 1.373 . S
C1030 C1032 1.389 . S
C1031 H1010 0.950 . S
C1031 C1030 1.373 . S
C1031 C1047 1.377 . S
C1032 C1030 1.389 . S
C1032 C1033 1.524 . S
C1032 C1046 1.377 . S
C1033 C1032 1.524 . S
C1033 C1034 1.397 . S
C1033 C1038 1.363 . S
C1034 H1011 0.950 . S
C1034 C1033 1.397 . S
C1034 C1035 1.334 . S
C1035 H1012 0.950 . S
C1035 C1034 1.334 . S
C1035 C1036 1.287 . S
C1036 C1035 1.287 . S
C1036 C1037 1.524 . S
C1036 H1055 0.913 . S
C1037 H1013 0.950 . S
C1037 C1036 1.524 . S
C1037 C1038 1.415 . S
C1038 H1014 0.950 . S
C1038 C1033 1.363 . S
C1038 C1037 1.415 . S
C1039 H1015 0.951 . S
C1039 C1040 1.366 . S
C1039 C1041 1.388 . S
C1040 C1039 1.366 . S
C1040 C1044 1.385 . S
C1041 H1016 0.951 . S
C1041 C1039 1.388 . S
C1041 C1042 1.366 . S
C1042 C1041 1.366 . S
C1042 C1043 1.414 . S
C1042 C1045 1.499 . S
C1043 H1017 0.950 . S
C1043 C1042 1.414 . S
C1043 C1044 1.374 . S
C1044 H1018 0.950 . S
C1044 C1040 1.385 . S
C1044 C1043 1.374 . S
C1045 C1042 1.499 . S
C1045 C1046 1.373 . S
C1045 C1047 1.389 . S
C1046 H1019 0.950 . S
C1046 C1032 1.377 . S
C1046 C1045 1.373 . S
C1047 C1031 1.377 . S
C1047 C1045 1.389 . S
C1047 C1048 1.524 . S
C1048 C1047 1.524 . S
C1048 C1049 1.397 . S
C1048 C1053 1.363 . S
C1049 H1020 0.950 . S
C1049 C1048 1.397 . S
C1049 C1050 1.334 . S
C1050 H1021 0.950 . S
C1050 C1049 1.334 . S
C1050 C1051 1.287 . S
C1051 C1050 1.287 . S
C1051 C1052 1.524 . S
C1051 H1054 0.999 . S
C1052 H1022 0.950 . S
C1052 C1051 1.524 . S
C1052 C1053 1.415 . S
C1053 H1023 0.950 . S
C1053 C1048 1.363 . S
C1053 C1052 1.415 . S
H1054 C1051 0.999 . S
H1055 C1036 0.913 . S
H1056 C1074 0.951 . S
H1057 C1076 0.951 . S
H1058 C1078 0.950 . S
H1059 C1079 0.950 . S
H1060 C1081 0.950 . S
H1061 C1084 0.950 . S
H1062 C1085 0.950 . S
H1063 C1087 0.950 . S
H1064 C1088 0.950 . S
H1065 C1089 0.951 . S
H1066 C1091 0.951 . S
H1067 C1093 0.950 . S
H1068 C1094 0.950 . S
H1069 C1096 0.950 . S
H1070 C1099 0.950 . S
H1071 C1100 0.950 . S
H1072 C1102 0.950 . S
H1073 C1103 0.950 . S
C1074 H1056 0.951 . S
C1074 C1075 1.366 . S
C1074 C1076 1.388 . S
C1075 C1074 1.366 . S
C1075 C1079 1.385 . S
C1076 H1057 0.951 . S
C1076 C1074 1.388 . S
C1076 C1077 1.366 . S
C1077 C1076 1.366 . S
C1077 C1078 1.414 . S
C1077 C1080 1.499 . S
C1078 H1058 0.950 . S
C1078 C1077 1.414 . S
C1078 C1079 1.374 . S
C1079 H1059 0.950 . S
C1079 C1075 1.385 . S
C1079 C1078 1.374 . S
C1080 C1077 1.499 . S
C1080 C1081 1.373 . S
C1080 C1082 1.389 . S
C1081 H1060 0.950 . S
C1081 C1080 1.373 . S
C1081 C1097 1.377 . S
C1082 C1080 1.389 . S
C1082 C1083 1.524 . S
C1082 C1096 1.377 . S
C1083 C1082 1.524 . S
C1083 C1084 1.397 . S
C1083 C1088 1.363 . S
C1084 H1061 0.950 . S
C1084 C1083 1.397 . S
C1084 C1085 1.334 . S
C1085 H1062 0.950 . S
C1085 C1084 1.334 . S
C1085 C1086 1.287 . S
C1086 C1085 1.287 . S
C1086 C1087 1.524 . S
C1086 H1105 0.913 . S
C1087 H1063 0.950 . S
C1087 C1086 1.524 . S
C1087 C1088 1.415 . S
C1088 H1064 0.950 . S
C1088 C1083 1.363 . S
C1088 C1087 1.415 . S
C1089 H1065 0.951 . S
C1089 C1090 1.366 . S
C1089 C1091 1.388 . S
C1090 C1089 1.366 . S
C1090 C1094 1.385 . S
C1091 H1066 0.951 . S
C1091 C1089 1.388 . S
C1091 C1092 1.366 . S
C1092 C1091 1.366 . S
C1092 C1093 1.414 . S
C1092 C1095 1.499 . S
C1093 H1067 0.950 . S
C1093 C1092 1.414 . S
C1093 C1094 1.374 . S
C1094 H1068 0.950 . S
C1094 C1090 1.385 . S
C1094 C1093 1.374 . S
C1095 C1092 1.499 . S
C1095 C1096 1.373 . S
C1095 C1097 1.389 . S
C1096 H1069 0.950 . S
C1096 C1082 1.377 . S
C1096 C1095 1.373 . S
C1097 C1081 1.377 . S
C1097 C1095 1.389 . S
C1097 C1098 1.524 . S
C1098 C1097 1.524 . S
C1098 C1099 1.397 . S
C1098 C1103 1.363 . S
C1099 H1070 0.950 . S
C1099 C1098 1.397 . S
C1099 C1100 1.334 . S
C1100 H1071 0.950 . S
C1100 C1099 1.334 . S
C1100 C1101 1.287 . S
C1101 C1100 1.287 . S
C1101 C1102 1.524 . S
C1101 H1104 0.999 . S
C1102 H1072 0.950 . S
C1102 C1101 1.524 . S
C1102 C1103 1.415 . S
C1103 H1073 0.950 . S
C1103 C1098 1.363 . S
C1103 C1102 1.415 . S
H1104 C1101 0.999 . S
H1105 C1086 0.913 . S
H1106 C1124 0.951 . S
H1107 C1126 0.951 . S
H1108 C1128 0.950 . S
H1109 C1129 0.950 . S
H1110 C1131 0.950 . S
H1111 C1134 0.950 . S
H1112 C1135 0.950 . S
H1113 C1137 0.950 . S
H1114 C1138 0.950 . S
H1115 C1139 0.951 . S
H1116 C1141 0.951 . S
H1117 C1143 0.950 . S
H1118 C1144 0.950 . S
H1119 C1146 0.950 . S
H1120 C1149 0.950 . S
H1121 C1150 0.950 . S
H1122 C1152 0.950 . S
H1123 C1153 0.950 . S
C1124 H1106 0.951 . S
C1124 C1125 1.366 . S
C1124 C1126 1.388 . S
C1125 C1124 1.366 . S
C1125 C1129 1.385 . S
C1126 H1107 0.951 . S
C1126 C1124 1.388 . S
C1126 C1127 1.366 . S
C1127 C1126 1.366 . S
C1127 C1128 1.414 . S
C1127 C1130 1.499 . S
C1128 H1108 0.950 . S
C1128 C1127 1.414 . S
C1128 C1129 1.374 . S
C1129 H1109 0.950 . S
C1129 C1125 1.385 . S
C1129 C1128 1.374 . S
C1130 C1127 1.499 . S
C1130 C1131 1.373 . S
C1130 C1132 1.389 . S
C1131 H1110 0.950 . S
C1131 C1130 1.373 . S
C1131 C1147 1.377 . S
C1132 C1130 1.389 . S
C1132 C1133 1.524 . S
C1132 C1146 1.377 . S
C1133 C1132 1.524 . S
C1133 C1134 1.397 . S
C1133 C1138 1.363 . S
C1134 H1111 0.950 . S
C1134 C1133 1.397 . S
C1134 C1135 1.334 . S
C1135 H1112 0.950 . S
C1135 C1134 1.334 . S
C1135 C1136 1.287 . S
C1136 C1135 1.287 . S
C1136 C1137 1.524 . S
C1136 H1155 0.913 . S
C1137 H1113 0.950 . S
C1137 C1136 1.524 . S
C1137 C1138 1.415 . S
C1138 H1114 0.950 . S
C1138 C1133 1.363 . S
C1138 C1137 1.415 . S
C1139 H1115 0.951 . S
C1139 C1140 1.366 . S
C1139 C1141 1.388 . S
C1140 C1139 1.366 . S
C1140 C1144 1.385 . S
C1141 H1116 0.951 . S
C1141 C1139 1.388 . S
C1141 C1142 1.366 . S
C1142 C1141 1.366 . S
C1142 C1143 1.414 . S
C1142 C1145 1.499 . S
C1143 H1117 0.950 . S
C1143 C1142 1.414 . S
C1143 C1144 1.374 . S
C1144 H1118 0.950 . S
C1144 C1140 1.385 . S
C1144 C1143 1.374 . S
C1145 C1142 1.499 . S
C1145 C1146 1.373 . S
C1145 C1147 1.389 . S
C1146 H1119 0.950 . S
C1146 C1132 1.377 . S
C1146 C1145 1.373 . S
C1147 C1131 1.377 . S
C1147 C1145 1.389 . S
C1147 C1148 1.524 . S
C1148 C1147 1.524 . S
C1148 C1149 1.397 . S
C1148 C1153 1.363 . S
C1149 H1120 0.950 . S
C1149 C1148 1.397 . S
C1149 C1150 1.334 . S
C1150 H1121 0.950 . S
C1150 C1149 1.334 . S
C1150 C1151 1.287 . S
C1151 C1150 1.287 . S
C1151 C1152 1.524 . S
C1151 H1154 0.999 . S
C1152 H1122 0.950 . S
C1152 C1151 1.524 . S
C1152 C1153 1.415 . S
C1153 H1123 0.950 . S
C1153 C1148 1.363 . S
C1153 C1152 1.415 . S
H1154 C1151 0.999 . S
H1155 C1136 0.913 . S
H1156 C1174 0.951 . S
H1157 C1176 0.951 . S
H1158 C1178 0.950 . S
H1159 C1179 0.950 . S
H1160 C1181 0.950 . S
H1161 C1184 0.950 . S
H1162 C1185 0.950 . S
H1163 C1187 0.950 . S
H1164 C1188 0.950 . S
H1165 C1189 0.951 . S
H1166 C1191 0.951 . S
H1167 C1193 0.950 . S
H1168 C1194 0.950 . S
H1169 C1196 0.950 . S
H1170 C1199 0.950 . S
H1171 C1200 0.950 . S
H1172 C1202 0.950 . S
H1173 C1203 0.950 . S
C1174 H1156 0.951 . S
C1174 C1175 1.366 . S
C1174 C1176 1.388 . S
C1175 C1174 1.366 . S
C1175 C1179 1.385 . S
C1176 H1157 0.951 . S
C1176 C1174 1.388 . S
C1176 C1177 1.366 . S
C1177 C1176 1.366 . S
C1177 C1178 1.414 . S
C1177 C1180 1.499 . S
C1178 H1158 0.950 . S
C1178 C1177 1.414 . S
C1178 C1179 1.374 . S
C1179 H1159 0.950 . S
C1179 C1175 1.385 . S
C1179 C1178 1.374 . S
C1180 C1177 1.499 . S
C1180 C1181 1.373 . S
C1180 C1182 1.389 . S
C1181 H1160 0.950 . S
C1181 C1180 1.373 . S
C1181 C1197 1.377 . S
C1182 C1180 1.389 . S
C1182 C1183 1.524 . S
C1182 C1196 1.377 . S
C1183 C1182 1.524 . S
C1183 C1184 1.397 . S
C1183 C1188 1.363 . S
C1184 H1161 0.950 . S
C1184 C1183 1.397 . S
C1184 C1185 1.334 . S
C1185 H1162 0.950 . S
C1185 C1184 1.334 . S
C1185 C1186 1.287 . S
C1186 C1185 1.287 . S
C1186 C1187 1.524 . S
C1186 H1205 0.913 . S
C1187 H1163 0.950 . S
C1187 C1186 1.524 . S
C1187 C1188 1.415 . S
C1188 H1164 0.950 . S
C1188 C1183 1.363 . S
C1188 C1187 1.415 . S
C1189 H1165 0.951 . S
C1189 C1190 1.366 . S
C1189 C1191 1.388 . S
C1190 C1189 1.366 . S
C1190 C1194 1.385 . S
C1191 H1166 0.951 . S
C1191 C1189 1.388 . S
C1191 C1192 1.366 . S
C1192 C1191 1.366 . S
C1192 C1193 1.414 . S
C1192 C1195 1.499 . S
C1193 H1167 0.950 . S
C1193 C1192 1.414 . S
C1193 C1194 1.374 . S
C1194 H1168 0.950 . S
C1194 C1190 1.385 . S
C1194 C1193 1.374 . S
C1195 C1192 1.499 . S
C1195 C1196 1.373 . S
C1195 C1197 1.389 . S
C1196 H1169 0.950 . S
C1196 C1182 1.377 . S
C1196 C1195 1.373 . S
C1197 C1181 1.377 . S
C1197 C1195 1.389 . S
C1197 C1198 1.524 . S
C1198 C1197 1.524 . S
C1198 C1199 1.397 . S
C1198 C1203 1.363 . S
C1199 H1170 0.950 . S
C1199 C1198 1.397 . S
C1199 C1200 1.334 . S
C1200 H1171 0.950 . S
C1200 C1199 1.334 . S
C1200 C1201 1.287 . S
C1201 C1200 1.287 . S
C1201 C1202 1.524 . S
C1201 H1204 0.999 . S
C1202 H1172 0.950 . S
C1202 C1201 1.524 . S
C1202 C1203 1.415 . S
C1203 H1173 0.950 . S
C1203 C1198 1.363 . S
C1203 C1202 1.415 . S
H1204 C1201 0.999 . S
H1205 C1186 0.913 . S
H1206 C1224 0.951 . S
H1207 C1226 0.951 . S
H1208 C1228 0.950 . S
H1209 C1229 0.950 . S
H1210 C1231 0.950 . S
H1211 C1234 0.950 . S
H1212 C1235 0.950 . S
H1213 C1237 0.950 . S
H1214 C1238 0.950 . S
H1215 C1239 0.951 . S
H1216 C1241 0.951 . S
H1217 C1243 0.950 . S
H1218 C1244 0.950 . S
H1219 C1246 0.950 . S
H1220 C1249 0.950 . S
H1221 C1250 0.950 . S
H1222 C1252 0.950 . S
H1223 C1253 0.950 . S
C1224 H1206 0.951 . S
C1224 C1225 1.366 . S
C1224 C1226 1.388 . S
C1225 C1224 1.366 . S
C1225 C1229 1.385 . S
C1226 H1207 0.951 . S
C1226 C1224 1.388 . S
C1226 C1227 1.366 . S
C1227 C1226 1.366 . S
C1227 C1228 1.414 . S
C1227 C1230 1.499 . S
C1228 H1208 0.950 . S
C1228 C1227 1.414 . S
C1228 C1229 1.374 . S
C1229 H1209 0.950 . S
C1229 C1225 1.385 . S
C1229 C1228 1.374 . S
C1230 C1227 1.499 . S
C1230 C1231 1.373 . S
C1230 C1232 1.389 . S
C1231 H1210 0.950 . S
C1231 C1230 1.373 . S
C1231 C1247 1.377 . S
C1232 C1230 1.389 . S
C1232 C1233 1.524 . S
C1232 C1246 1.377 . S
C1233 C1232 1.524 . S
C1233 C1234 1.397 . S
C1233 C1238 1.363 . S
C1234 H1211 0.950 . S
C1234 C1233 1.397 . S
C1234 C1235 1.334 . S
C1235 H1212 0.950 . S
C1235 C1234 1.334 . S
C1235 C1236 1.287 . S
C1236 C1235 1.287 . S
C1236 C1237 1.524 . S
C1236 H1255 0.913 . S
C1237 H1213 0.950 . S
C1237 C1236 1.524 . S
C1237 C1238 1.415 . S
C1238 H1214 0.950 . S
C1238 C1233 1.363 . S
C1238 C1237 1.415 . S
C1239 H1215 0.951 . S
C1239 C1240 1.366 . S
C1239 C1241 1.388 . S
C1240 C1239 1.366 . S
C1240 C1244 1.385 . S
C1241 H1216 0.951 . S
C1241 C1239 1.388 . S
C1241 C1242 1.366 . S
C1242 C1241 1.366 . S
C1242 C1243 1.414 . S
C1242 C1245 1.499 . S
C1243 H1217 0.950 . S
C1243 C1242 1.414 . S
C1243 C1244 1.374 . S
C1244 H1218 0.950 . S
C1244 C1240 1.385 . S
C1244 C1243 1.374 . S
C1245 C1242 1.499 . S
C1245 C1246 1.373 . S
C1245 C1247 1.389 . S
C1246 H1219 0.950 . S
C1246 C1232 1.377 . S
C1246 C1245 1.373 . S
C1247 C1231 1.377 . S
C1247 C1245 1.389 . S
C1247 C1248 1.524 . S
C1248 C1247 1.524 . S
C1248 C1249 1.397 . S
C1248 C1253 1.363 . S
C1249 H1220 0.950 . S
C1249 C1248 1.397 . S
C1249 C1250 1.334 . S
C1250 H1221 0.950 . S
C1250 C1249 1.334 . S
C1250 C1251 1.287 . S
C1251 C1250 1.287 . S
C1251 C1252 1.524 . S
C1251 H1254 0.999 . S
C1252 H1222 0.950 . S
C1252 C1251 1.524 . S
C1252 C1253 1.415 . S
C1253 H1223 0.950 . S
C1253 C1248 1.363 . S
C1253 C1252 1.415 . S
H1254 C1251 0.999 . S
H1255 C1236 0.913 . S
H1256 C1274 0.951 . S
H1257 C1276 0.951 . S
H1258 C1278 0.950 . S
H1259 C1279 0.950 . S
H1260 C1281 0.950 . S
H1261 C1284 0.950 . S
H1262 C1285 0.950 . S
H1263 C1287 0.950 . S
H1264 C1288 0.950 . S
H1265 C1289 0.951 . S
H1266 C1291 0.951 . S
H1267 C1293 0.950 . S
H1268 C1294 0.950 . S
H1269 C1296 0.950 . S
H1270 C1299 0.950 . S
H1271 C1300 0.950 . S
H1272 C1302 0.950 . S
H1273 C1303 0.950 . S
C1274 H1256 0.951 . S
C1274 C1275 1.366 . S
C1274 C1276 1.388 . S
C1275 C1274 1.366 . S
C1275 C1279 1.385 . S
C1276 H1257 0.951 . S
C1276 C1274 1.388 . S
C1276 C1277 1.366 . S
C1277 C1276 1.366 . S
C1277 C1278 1.414 . S
C1277 C1280 1.499 . S
C1278 H1258 0.950 . S
C1278 C1277 1.414 . S
C1278 C1279 1.374 . S
C1279 H1259 0.950 . S
C1279 C1275 1.385 . S
C1279 C1278 1.374 . S
C1280 C1277 1.499 . S
C1280 C1281 1.373 . S
C1280 C1282 1.389 . S
C1281 H1260 0.950 . S
C1281 C1280 1.373 . S
C1281 C1297 1.377 . S
C1282 C1280 1.389 . S
C1282 C1283 1.524 . S
C1282 C1296 1.377 . S
C1283 C1282 1.524 . S
C1283 C1284 1.397 . S
C1283 C1288 1.363 . S
C1284 H1261 0.950 . S
C1284 C1283 1.397 . S
C1284 C1285 1.334 . S
C1285 H1262 0.950 . S
C1285 C1284 1.334 . S
C1285 C1286 1.287 . S
C1286 C1285 1.287 . S
C1286 C1287 1.524 . S
C1286 H1305 0.913 . S
C1287 H1263 0.950 . S
C1287 C1286 1.524 . S
C1287 C1288 1.415 . S
C1288 H1264 0.950 . S
C1288 C1283 1.363 . S
C1288 C1287 1.415 . S
C1289 H1265 0.951 . S
C1289 C1290 1.366 . S
C1289 C1291 1.388 . S
C1290 C1289 1.366 . S
C1290 C1294 1.385 . S
C1291 H1266 0.951 . S
C1291 C1289 1.388 . S
C1291 C1292 1.366 . S
C1292 C1291 1.366 . S
C1292 C1293 1.414 . S
C1292 C1295 1.499 . S
C1293 H1267 0.950 . S
C1293 C1292 1.414 . S
C1293 C1294 1.374 . S
C1294 H1268 0.950 . S
C1294 C1290 1.385 . S
C1294 C1293 1.374 . S
C1295 C1292 1.499 . S
C1295 C1296 1.373 . S
C1295 C1297 1.389 . S
C1296 H1269 0.950 . S
C1296 C1282 1.377 . S
C1296 C1295 1.373 . S
C1297 C1281 1.377 . S
C1297 C1295 1.389 . S
C1297 C1298 1.524 . S
C1298 C1297 1.524 . S
C1298 C1299 1.397 . S
C1298 C1303 1.363 . S
C1299 H1270 0.950 . S
C1299 C1298 1.397 . S
C1299 C1300 1.334 1_655 S
C1300 H1271 0.950 . S
C1300 C1299 1.334 1_455 S
C1300 C1301 1.287 . S
C1301 C1300 1.287 . S
C1301 C1302 1.524 . S
C1301 H1304 0.999 . S
C1302 H1272 0.950 . S
C1302 C1301 1.524 . S
C1302 C1303 1.415 1_455 S
C1303 H1273 0.950 . S
C1303 C1298 1.363 . S
C1303 C1302 1.415 1_655 S
H1304 C1301 0.999 . S
H1305 C1286 0.913 . S
H1306 C1324 0.951 . S
H1307 C1326 0.951 . S
H1308 C1328 0.950 . S
H1309 C1329 0.950 . S
H1310 C1331 0.950 . S
H1311 C1334 0.950 . S
H1312 C1335 0.950 . S
H1313 C1337 0.950 . S
H1314 C1338 0.950 . S
H1315 C1339 0.951 . S
H1316 C1341 0.951 . S
H1317 C1343 0.950 . S
H1318 C1344 0.950 . S
H1319 C1346 0.950 . S
H1320 C1349 0.950 . S
H1321 C1350 0.950 1_556 S
H1322 C1352 0.950 . S
H1323 C1353 0.950 . S
C1324 H1306 0.951 . S
C1324 C1325 1.366 . S
C1324 C1326 1.388 . S
C1325 C1324 1.366 . S
C1325 C1329 1.385 . S
C1326 H1307 0.951 . S
C1326 C1324 1.388 . S
C1326 C1327 1.366 . S
C1327 C1326 1.366 . S
C1327 C1328 1.414 . S
C1327 C1330 1.499 . S
C1328 H1308 0.950 . S
C1328 C1327 1.414 . S
C1328 C1329 1.374 . S
C1329 H1309 0.950 . S
C1329 C1325 1.385 . S
C1329 C1328 1.374 . S
C1330 C1327 1.499 . S
C1330 C1331 1.373 . S
C1330 C1332 1.389 . S
C1331 H1310 0.950 . S
C1331 C1330 1.373 . S
C1331 C1347 1.377 . S
C1332 C1330 1.389 . S
C1332 C1333 1.524 . S
C1332 C1346 1.377 . S
C1333 C1332 1.524 . S
C1333 C1334 1.397 . S
C1333 C1338 1.363 . S
C1334 H1311 0.950 . S
C1334 C1333 1.397 . S
C1334 C1335 1.334 . S
C1335 H1312 0.950 . S
C1335 C1334 1.334 . S
C1335 C1336 1.287 . S
C1336 C1335 1.287 . S
C1336 C1337 1.524 . S
C1336 H1355 0.913 . S
C1337 H1313 0.950 . S
C1337 C1336 1.524 . S
C1337 C1338 1.415 . S
C1338 H1314 0.950 . S
C1338 C1333 1.363 . S
C1338 C1337 1.415 . S
C1339 H1315 0.951 . S
C1339 C1340 1.366 . S
C1339 C1341 1.388 . S
C1340 C1339 1.366 . S
C1340 C1344 1.385 . S
C1341 H1316 0.951 . S
C1341 C1339 1.388 . S
C1341 C1342 1.366 . S
C1342 C1341 1.366 . S
C1342 C1343 1.414 . S
C1342 C1345 1.499 . S
C1343 H1317 0.950 . S
C1343 C1342 1.414 . S
C1343 C1344 1.374 . S
C1344 H1318 0.950 . S
C1344 C1340 1.385 . S
C1344 C1343 1.374 . S
C1345 C1342 1.499 . S
C1345 C1346 1.373 . S
C1345 C1347 1.389 . S
C1346 H1319 0.950 . S
C1346 C1332 1.377 . S
C1346 C1345 1.373 . S
C1347 C1331 1.377 . S
C1347 C1345 1.389 . S
C1347 C1348 1.524 . S
C1348 C1347 1.524 . S
C1348 C1349 1.397 . S
C1348 C1353 1.363 . S
C1349 H1320 0.950 . S
C1349 C1348 1.397 . S
C1349 C1350 1.334 . S
C1350 H1321 0.950 1_554 S
C1350 C1349 1.334 . S
C1350 C1351 1.287 . S
C1351 C1350 1.287 . S
C1351 C1352 1.524 . S
C1351 H1354 0.999 1_554 S
C1352 H1322 0.950 . S
C1352 C1351 1.524 . S
C1352 C1353 1.415 . S
C1353 H1323 0.950 . S
C1353 C1348 1.363 . S
C1353 C1352 1.415 . S
H1354 C1351 0.999 1_556 S
H1355 C1336 0.913 . S
H1356 C1374 0.951 . S
H1357 C1376 0.951 . S
H1358 C1378 0.950 . S
H1359 C1379 0.950 . S
H1360 C1381 0.950 . S
H1361 C1384 0.950 . S
H1362 C1385 0.950 . S
H1363 C1387 0.950 . S
H1364 C1388 0.950 . S
H1365 C1389 0.951 . S
H1366 C1391 0.951 . S
H1367 C1393 0.950 . S
H1368 C1394 0.950 . S
H1369 C1396 0.950 . S
H1370 C1399 0.950 . S
H1371 C1400 0.950 . S
H1372 C1402 0.950 . S
H1373 C1403 0.950 . S
C1374 H1356 0.951 . S
C1374 C1375 1.366 . S
C1374 C1376 1.388 . S
C1375 C1374 1.366 . S
C1375 C1379 1.385 . S
C1376 H1357 0.951 . S
C1376 C1374 1.388 . S
C1376 C1377 1.366 . S
C1377 C1376 1.366 . S
C1377 C1378 1.414 . S
C1377 C1380 1.499 . S
C1378 H1358 0.950 . S
C1378 C1377 1.414 . S
C1378 C1379 1.374 . S
C1379 H1359 0.950 . S
C1379 C1375 1.385 . S
C1379 C1378 1.374 . S
C1380 C1377 1.499 . S
C1380 C1381 1.373 . S
C1380 C1382 1.389 . S
C1381 H1360 0.950 . S
C1381 C1380 1.373 . S
C1381 C1397 1.377 . S
C1382 C1380 1.389 . S
C1382 C1383 1.524 . S
C1382 C1396 1.377 . S
C1383 C1382 1.524 . S
C1383 C1384 1.397 . S
C1383 C1388 1.363 . S
C1384 H1361 0.950 . S
C1384 C1383 1.397 . S
C1384 C1385 1.334 . S
C1385 H1362 0.950 . S
C1385 C1384 1.334 . S
C1385 C1386 1.287 . S
C1386 C1385 1.287 . S
C1386 C1387 1.524 . S
C1386 H1405 0.913 . S
C1387 H1363 0.950 . S
C1387 C1386 1.524 . S
C1387 C1388 1.415 . S
C1388 H1364 0.950 . S
C1388 C1383 1.363 . S
C1388 C1387 1.415 . S
C1389 H1365 0.951 . S
C1389 C1390 1.366 . S
C1389 C1391 1.388 . S
C1390 C1389 1.366 . S
C1390 C1394 1.385 . S
C1391 H1366 0.951 . S
C1391 C1389 1.388 . S
C1391 C1392 1.366 . S
C1392 C1391 1.366 . S
C1392 C1393 1.414 . S
C1392 C1395 1.499 . S
C1393 H1367 0.950 . S
C1393 C1392 1.414 . S
C1393 C1394 1.374 . S
C1394 H1368 0.950 . S
C1394 C1390 1.385 . S
C1394 C1393 1.374 . S
C1395 C1392 1.499 . S
C1395 C1396 1.373 . S
C1395 C1397 1.389 . S
C1396 H1369 0.950 . S
C1396 C1382 1.377 . S
C1396 C1395 1.373 . S
C1397 C1381 1.377 . S
C1397 C1395 1.389 . S
C1397 C1398 1.524 . S
C1398 C1397 1.524 . S
C1398 C1399 1.397 . S
C1398 C1403 1.363 . S
C1399 H1370 0.950 . S
C1399 C1398 1.397 . S
C1399 C1400 1.334 . S
C1400 H1371 0.950 . S
C1400 C1399 1.334 . S
C1400 C1401 1.287 . S
C1401 C1400 1.287 . S
C1401 C1402 1.524 . S
C1401 H1404 0.999 . S
C1402 H1372 0.950 . S
C1402 C1401 1.524 . S
C1402 C1403 1.415 . S
C1403 H1373 0.950 . S
C1403 C1398 1.363 . S
C1403 C1402 1.415 . S
H1404 C1401 0.999 . S
H1405 C1386 0.913 . S
H1406 C1424 0.951 . S
H1407 C1426 0.951 . S
H1408 C1428 0.950 . S
H1409 C1429 0.950 . S
H1410 C1431 0.950 . S
H1411 C1434 0.950 . S
H1412 C1435 0.950 . S
H1413 C1437 0.950 . S
H1414 C1438 0.950 . S
H1415 C1439 0.951 . S
H1416 C1441 0.951 . S
H1417 C1443 0.950 . S
H1418 C1444 0.950 1_554 S
H1419 C1446 0.950 . S
H1420 C1449 0.950 . S
H1421 C1450 0.955 . S
H1422 C1452 0.950 . S
H1423 C1453 0.950 . S
C1424 H1406 0.951 . S
C1424 C1425 1.366 . S
C1424 C1426 1.388 . S
C1425 C1424 1.366 . S
C1425 C1429 1.385 . S
C1426 H1407 0.951 . S
C1426 C1424 1.388 . S
C1426 C1427 1.366 . S
C1427 C1426 1.366 . S
C1427 C1428 1.414 . S
C1427 C1430 1.499 . S
C1428 H1408 0.950 . S
C1428 C1427 1.414 . S
C1428 C1429 1.374 . S
C1429 H1409 0.950 . S
C1429 C1425 1.385 . S
C1429 C1428 1.374 . S
C1430 C1427 1.499 . S
C1430 C1431 1.373 . S
C1430 C1432 1.389 . S
C1431 H1410 0.950 . S
C1431 C1430 1.373 . S
C1431 C1447 1.377 . S
C1432 C1430 1.389 . S
C1432 C1433 1.524 . S
C1432 C1446 1.377 . S
C1433 C1432 1.524 . S
C1433 C1434 1.397 . S
C1433 C1438 1.363 . S
C1434 H1411 0.950 . S
C1434 C1433 1.397 . S
C1434 C1435 1.334 . S
C1435 H1412 0.950 . S
C1435 C1434 1.334 . S
C1435 C1436 1.287 . S
C1436 C1435 1.287 . S
C1436 C1437 1.524 . S
C1436 H1455 0.913 . S
C1437 H1413 0.950 . S
C1437 C1436 1.524 . S
C1437 C1438 1.415 . S
C1438 H1414 0.950 . S
C1438 C1433 1.363 . S
C1438 C1437 1.415 . S
C1439 H1415 0.951 . S
C1439 C1440 1.366 . S
C1439 C1441 1.388 . S
C1440 C1439 1.366 . S
C1440 C1444 1.385 . S
C1441 H1416 0.951 . S
C1441 C1439 1.388 . S
C1441 C1442 1.366 . S
C1442 C1441 1.366 . S
C1442 C1443 1.414 . S
C1442 C1445 1.499 . S
C1443 H1417 0.950 . S
C1443 C1442 1.414 . S
C1443 C1444 1.374 . S
C1444 H1418 0.950 1_556 S
C1444 C1440 1.385 . S
C1444 C1443 1.374 . S
C1445 C1442 1.499 . S
C1445 C1446 1.373 . S
C1445 C1447 1.389 . S
C1446 H1419 0.950 . S
C1446 C1432 1.377 . S
C1446 C1445 1.373 . S
C1447 C1431 1.377 . S
C1447 C1445 1.389 . S
C1447 C1448 1.524 . S
C1448 C1447 1.524 . S
C1448 C1449 1.397 . S
C1448 C1453 1.363 . S
C1449 H1420 0.950 . S
C1449 C1448 1.397 . S
C1449 C1450 1.328 1_545 S
C1450 H1421 0.955 . S
C1450 C1449 1.328 1_565 S
C1450 C1451 1.288 . S
C1451 C1450 1.288 . S
C1451 C1452 1.524 1_565 S
C1451 H1454 0.999 . S
C1452 H1422 0.950 . S
C1452 C1451 1.524 1_545 S
C1452 C1453 1.415 . S
C1453 H1423 0.950 . S
C1453 C1448 1.363 . S
C1453 C1452 1.415 . S
H1454 C1451 0.999 . S
H1455 C1436 0.913 . S
H1456 C1474 0.951 . S
H1457 C1476 0.951 . S
H1458 C1478 0.950 . S
H1459 C1479 0.950 . S
H1460 C1481 0.950 . S
H1461 C1484 0.950 . S
H1462 C1485 0.950 . S
H1463 C1487 0.950 . S
H1464 C1488 0.950 . S
H1465 C1489 0.951 . S
H1466 C1491 0.951 . S
H1467 C1493 0.950 . S
H1468 C1494 0.950 1_455 S
H1469 C1496 0.950 . S
H1470 C1499 0.950 . S
H1471 C1500 0.950 . S
H1472 C1502 0.950 . S
H1473 C1503 0.950 . S
C1474 H1456 0.951 . S
C1474 C1475 1.366 . S
C1474 C1476 1.388 . S
C1475 C1474 1.366 . S
C1475 C1479 1.385 . S
C1476 H1457 0.951 . S
C1476 C1474 1.388 . S
C1476 C1477 1.366 . S
C1477 C1476 1.366 . S
C1477 C1478 1.414 . S
C1477 C1480 1.499 . S
C1478 H1458 0.950 . S
C1478 C1477 1.414 . S
C1478 C1479 1.374 . S
C1479 H1459 0.950 . S
C1479 C1475 1.385 . S
C1479 C1478 1.374 . S
C1480 C1477 1.499 . S
C1480 C1481 1.373 . S
C1480 C1482 1.389 . S
C1481 H1460 0.950 . S
C1481 C1480 1.373 . S
C1481 C1497 1.377 . S
C1482 C1480 1.389 . S
C1482 C1483 1.524 . S
C1482 C1496 1.377 . S
C1483 C1482 1.524 . S
C1483 C1484 1.397 . S
C1483 C1488 1.363 . S
C1484 H1461 0.950 . S
C1484 C1483 1.397 . S
C1484 C1485 1.334 . S
C1485 H1462 0.950 . S
C1485 C1484 1.334 . S
C1485 C1486 1.287 . S
C1486 C1485 1.287 . S
C1486 C1487 1.524 . S
C1486 H1505 0.913 . S
C1487 H1463 0.950 . S
C1487 C1486 1.524 . S
C1487 C1488 1.415 . S
C1488 H1464 0.950 . S
C1488 C1483 1.363 . S
C1488 C1487 1.415 . S
C1489 H1465 0.951 . S
C1489 C1490 1.366 . S
C1489 C1491 1.388 . S
C1490 C1489 1.366 . S
C1490 C1494 1.385 . S
C1491 H1466 0.951 . S
C1491 C1489 1.388 . S
C1491 C1492 1.366 . S
C1492 C1491 1.366 . S
C1492 C1493 1.414 . S
C1492 C1495 1.499 . S
C1493 H1467 0.950 . S
C1493 C1492 1.414 . S
C1493 C1494 1.374 . S
C1494 H1468 0.950 1_655 S
C1494 C1490 1.385 . S
C1494 C1493 1.374 . S
C1495 C1492 1.499 . S
C1495 C1496 1.373 . S
C1495 C1497 1.389 . S
C1496 H1469 0.950 . S
C1496 C1482 1.377 . S
C1496 C1495 1.373 . S
C1497 C1481 1.377 . S
C1497 C1495 1.389 . S
C1497 C1498 1.524 . S
C1498 C1497 1.524 . S
C1498 C1499 1.397 . S
C1498 C1503 1.363 . S
C1499 H1470 0.950 . S
C1499 C1498 1.397 . S
C1499 C1500 1.334 . S
C1500 H1471 0.950 . S
C1500 C1499 1.334 . S
C1500 C1501 1.287 . S
C1501 C1500 1.287 . S
C1501 C1502 1.524 . S
C1501 H1504 0.999 . S
C1502 H1472 0.950 . S
C1502 C1501 1.524 . S
C1502 C1503 1.415 . S
C1503 H1473 0.950 . S
C1503 C1498 1.363 . S
C1503 C1502 1.415 . S
H1504 C1501 0.999 . S
H1505 C1486 0.913 . S
H1506 C1524 0.951 . S
H1507 C1526 0.951 . S
H1508 C1528 0.950 . S
H1509 C1529 0.950 . S
H1510 C1531 0.950 . S
H1511 C1534 0.950 . S
H1512 C1535 0.950 . S
H1513 C1537 0.950 . S
H1514 C1538 0.950 . S
H1515 C1539 0.951 . S
H1516 C1541 0.951 . S
H1517 C1543 0.950 . S
H1518 C1544 0.950 . S
H1519 C1546 0.950 . S
H1520 C1549 0.950 . S
H1521 C1550 0.950 . S
H1522 C1552 0.950 . S
H1523 C1553 0.950 . S
C1524 H1506 0.951 . S
C1524 C1525 1.366 . S
C1524 C1526 1.388 . S
C1525 C1524 1.366 . S
C1525 C1529 1.385 . S
C1526 H1507 0.951 . S
C1526 C1524 1.388 . S
C1526 C1527 1.366 . S
C1527 C1526 1.366 . S
C1527 C1528 1.414 . S
C1527 C1530 1.499 . S
C1528 H1508 0.950 . S
C1528 C1527 1.414 . S
C1528 C1529 1.374 . S
C1529 H1509 0.950 . S
C1529 C1525 1.385 . S
C1529 C1528 1.374 . S
C1530 C1527 1.499 . S
C1530 C1531 1.373 . S
C1530 C1532 1.389 . S
C1531 H1510 0.950 . S
C1531 C1530 1.373 . S
C1531 C1547 1.377 . S
C1532 C1530 1.389 . S
C1532 C1533 1.524 . S
C1532 C1546 1.377 . S
C1533 C1532 1.524 . S
C1533 C1534 1.397 . S
C1533 C1538 1.363 . S
C1534 H1511 0.950 . S
C1534 C1533 1.397 . S
C1534 C1535 1.334 . S
C1535 H1512 0.950 . S
C1535 C1534 1.334 . S
C1535 C1536 1.287 . S
C1536 C1535 1.287 . S
C1536 C1537 1.524 . S
C1536 H1555 0.913 . S
C1537 H1513 0.950 . S
C1537 C1536 1.524 . S
C1537 C1538 1.415 . S
C1538 H1514 0.950 . S
C1538 C1533 1.363 . S
C1538 C1537 1.415 . S
C1539 H1515 0.951 . S
C1539 C1540 1.366 . S
C1539 C1541 1.388 . S
C1540 C1539 1.366 . S
C1540 C1544 1.385 . S
C1541 H1516 0.951 . S
C1541 C1539 1.388 . S
C1541 C1542 1.366 . S
C1542 C1541 1.366 . S
C1542 C1543 1.414 . S
C1542 C1545 1.499 . S
C1543 H1517 0.950 . S
C1543 C1542 1.414 . S
C1543 C1544 1.374 . S
C1544 H1518 0.950 . S
C1544 C1540 1.385 . S
C1544 C1543 1.374 . S
C1545 C1542 1.499 . S
C1545 C1546 1.373 . S
C1545 C1547 1.389 . S
C1546 H1519 0.950 . S
C1546 C1532 1.377 . S
C1546 C1545 1.373 . S
C1547 C1531 1.377 . S
C1547 C1545 1.389 . S
C1547 C1548 1.524 . S
C1548 C1547 1.524 . S
C1548 C1549 1.397 . S
C1548 C1553 1.363 . S
C1549 H1520 0.950 . S
C1549 C1548 1.397 . S
C1549 C1550 1.334 . S
C1550 H1521 0.950 . S
C1550 C1549 1.334 . S
C1550 C1551 1.287 . S
C1551 C1550 1.287 . S
C1551 C1552 1.524 . S
C1551 H1554 0.999 . S
C1552 H1522 0.950 . S
C1552 C1551 1.524 . S
C1552 C1553 1.415 . S
C1553 H1523 0.950 . S
C1553 C1548 1.363 . S
C1553 C1552 1.415 . S
H1554 C1551 0.999 . S
H1555 C1536 0.913 . S
H1556 C1574 0.951 . S
H1557 C1576 0.951 . S
H1558 C1578 0.950 . S
H1559 C1579 0.950 . S
H1560 C1581 0.950 . S
H1561 C1584 0.950 . S
H1562 C1585 0.950 . S
H1563 C1587 0.950 1_455 S
H1564 C1588 0.950 . S
H1565 C1589 0.951 . S
H1566 C1591 0.951 . S
H1567 C1593 0.950 . S
H1568 C1594 0.950 1_455 S
H1569 C1596 0.950 . S
H1570 C1599 0.950 . S
H1571 C1600 0.950 . S
H1572 C1602 0.950 . S
H1573 C1603 0.950 . S
C1574 H1556 0.951 . S
C1574 C1575 1.366 . S
C1574 C1576 1.388 . S
C1575 C1574 1.366 . S
C1575 C1579 1.385 . S
C1576 H1557 0.951 . S
C1576 C1574 1.388 . S
C1576 C1577 1.366 . S
C1577 C1576 1.366 . S
C1577 C1578 1.414 . S
C1577 C1580 1.499 . S
C1578 H1558 0.950 . S
C1578 C1577 1.414 . S
C1578 C1579 1.374 . S
C1579 H1559 0.950 . S
C1579 C1575 1.385 . S
C1579 C1578 1.374 . S
C1580 C1577 1.499 . S
C1580 C1581 1.373 . S
C1580 C1582 1.389 . S
C1581 H1560 0.950 . S
C1581 C1580 1.373 . S
C1581 C1597 1.377 . S
C1582 C1580 1.389 . S
C1582 C1583 1.524 . S
C1582 C1596 1.377 . S
C1583 C1582 1.524 . S
C1583 C1584 1.397 . S
C1583 C1588 1.363 . S
C1584 H1561 0.950 . S
C1584 C1583 1.397 . S
C1584 C1585 1.334 . S
C1585 H1562 0.950 . S
C1585 C1584 1.334 . S
C1585 C1586 1.287 . S
C1586 C1585 1.287 . S
C1586 C1587 1.524 . S
C1586 H1605 0.913 . S
C1587 H1563 0.950 1_655 S
C1587 C1586 1.524 . S
C1587 C1588 1.415 . S
C1588 H1564 0.950 . S
C1588 C1583 1.363 . S
C1588 C1587 1.415 . S
C1589 H1565 0.951 . S
C1589 C1590 1.366 . S
C1589 C1591 1.388 . S
C1590 C1589 1.366 . S
C1590 C1594 1.385 . S
C1591 H1566 0.951 . S
C1591 C1589 1.388 . S
C1591 C1592 1.366 . S
C1592 C1591 1.366 . S
C1592 C1593 1.414 . S
C1592 C1595 1.499 . S
C1593 H1567 0.950 . S
C1593 C1592 1.414 . S
C1593 C1594 1.374 . S
C1594 H1568 0.950 1_655 S
C1594 C1590 1.385 . S
C1594 C1593 1.374 . S
C1595 C1592 1.499 . S
C1595 C1596 1.373 . S
C1595 C1597 1.389 . S
C1596 H1569 0.950 . S
C1596 C1582 1.377 . S
C1596 C1595 1.373 . S
C1597 C1581 1.377 . S
C1597 C1595 1.389 . S
C1597 C1598 1.524 . S
C1598 C1597 1.524 . S
C1598 C1599 1.397 . S
C1598 C1603 1.363 . S
C1599 H1570 0.950 . S
C1599 C1598 1.397 . S
C1599 C1600 1.334 . S
C1600 H1571 0.950 . S
C1600 C1599 1.334 . S
C1600 C1601 1.287 . S
C1601 C1600 1.287 . S
C1601 C1602 1.524 . S
C1601 H1604 0.999 . S
C1602 H1572 0.950 . S
C1602 C1601 1.524 . S
C1602 C1603 1.415 . S
C1603 H1573 0.950 . S
C1603 C1598 1.363 . S
C1603 C1602 1.415 . S
H1604 C1601 0.999 . S
H1605 C1586 0.913 . S
H1606 C1624 0.951 . S
H1607 C1626 0.951 . S
H1608 C1628 0.950 . S
H1609 C1629 0.950 . S
H1610 C1631 0.950 . S
H1611 C1634 0.950 . S
H1612 C1635 0.950 . S
H1613 C1637 0.950 . S
H1614 C1638 0.950 . S
H1615 C1639 0.951 . S
H1616 C1641 0.951 . S
H1617 C1643 0.950 . S
H1618 C1644 0.950 . S
H1619 C1646 0.950 . S
H1620 C1649 0.950 . S
H1621 C1650 0.950 . S
H1622 C1652 0.950 . S
H1623 C1653 0.950 . S
C1624 H1606 0.951 . S
C1624 C1625 1.366 . S
C1624 C1626 1.388 . S
C1625 C1624 1.366 . S
C1625 C1629 1.385 . S
C1626 H1607 0.951 . S
C1626 C1624 1.388 . S
C1626 C1627 1.366 . S
C1627 C1626 1.366 . S
C1627 C1628 1.414 . S
C1627 C1630 1.499 . S
C1628 H1608 0.950 . S
C1628 C1627 1.414 . S
C1628 C1629 1.374 . S
C1629 H1609 0.950 . S
C1629 C1625 1.385 . S
C1629 C1628 1.374 . S
C1630 C1627 1.499 . S
C1630 C1631 1.373 . S
C1630 C1632 1.389 . S
C1631 H1610 0.950 . S
C1631 C1630 1.373 . S
C1631 C1647 1.377 . S
C1632 C1630 1.389 . S
C1632 C1633 1.524 . S
C1632 C1646 1.377 . S
C1633 C1632 1.524 . S
C1633 C1634 1.397 . S
C1633 C1638 1.363 . S
C1634 H1611 0.950 . S
C1634 C1633 1.397 . S
C1634 C1635 1.334 . S
C1635 H1612 0.950 . S
C1635 C1634 1.334 . S
C1635 C1636 1.287 . S
C1636 C1635 1.287 . S
C1636 C1637 1.524 . S
C1636 H1655 0.913 . S
C1637 H1613 0.950 . S
C1637 C1636 1.524 . S
C1637 C1638 1.415 . S
C1638 H1614 0.950 . S
C1638 C1633 1.363 . S
C1638 C1637 1.415 . S
C1639 H1615 0.951 . S
C1639 C1640 1.366 . S
C1639 C1641 1.388 . S
C1640 C1639 1.366 . S
C1640 C1644 1.385 . S
C1641 H1616 0.951 . S
C1641 C1639 1.388 . S
C1641 C1642 1.366 . S
C1642 C1641 1.366 . S
C1642 C1643 1.414 . S
C1642 C1645 1.499 . S
C1643 H1617 0.950 . S
C1643 C1642 1.414 . S
C1643 C1644 1.374 . S
C1644 H1618 0.950 . S
C1644 C1640 1.385 . S
C1644 C1643 1.374 . S
C1645 C1642 1.499 . S
C1645 C1646 1.373 . S
C1645 C1647 1.389 . S
C1646 H1619 0.950 . S
C1646 C1632 1.377 . S
C1646 C1645 1.373 . S
C1647 C1631 1.377 . S
C1647 C1645 1.389 . S
C1647 C1648 1.524 . S
C1648 C1647 1.524 . S
C1648 C1649 1.397 . S
C1648 C1653 1.363 . S
C1649 H1620 0.950 . S
C1649 C1648 1.397 . S
C1649 C1650 1.334 . S
C1650 H1621 0.950 . S
C1650 C1649 1.334 . S
C1650 C1651 1.287 . S
C1651 C1650 1.287 . S
C1651 C1652 1.524 . S
C1651 H1654 0.999 . S
C1652 H1622 0.950 . S
C1652 C1651 1.524 . S
C1652 C1653 1.415 . S
C1653 H1623 0.950 . S
C1653 C1648 1.363 . S
C1653 C1652 1.415 . S
H1654 C1651 0.999 . S
H1655 C1636 0.913 . S
H1656 C1674 0.951 . S
H1657 C1676 0.951 . S
H1658 C1678 0.950 . S
H1659 C1679 0.950 . S
H1660 C1681 0.950 . S
H1661 C1684 0.950 . S
H1662 C1685 0.950 . S
H1663 C1687 0.950 . S
H1664 C1688 0.950 . S
H1665 C1689 0.951 . S
H1666 C1691 0.951 . S
H1667 C1693 0.950 . S
H1668 C1694 0.950 . S
H1669 C1696 0.950 . S
H1670 C1699 0.950 . S
H1671 C1700 0.950 . S
H1672 C1702 0.950 . S
H1673 C1703 0.950 . S
C1674 H1656 0.951 . S
C1674 C1675 1.366 . S
C1674 C1676 1.388 . S
C1675 C1674 1.366 . S
C1675 C1679 1.385 . S
C1676 H1657 0.951 . S
C1676 C1674 1.388 . S
C1676 C1677 1.366 . S
C1677 C1676 1.366 . S
C1677 C1678 1.414 . S
C1677 C1680 1.499 . S
C1678 H1658 0.950 . S
C1678 C1677 1.414 . S
C1678 C1679 1.374 . S
C1679 H1659 0.950 . S
C1679 C1675 1.385 . S
C1679 C1678 1.374 . S
C1680 C1677 1.499 . S
C1680 C1681 1.373 . S
C1680 C1682 1.389 . S
C1681 H1660 0.950 . S
C1681 C1680 1.373 . S
C1681 C1697 1.377 . S
C1682 C1680 1.389 . S
C1682 C1683 1.524 . S
C1682 C1696 1.377 . S
C1683 C1682 1.524 . S
C1683 C1684 1.397 . S
C1683 C1688 1.363 . S
C1684 H1661 0.950 . S
C1684 C1683 1.397 . S
C1684 C1685 1.334 . S
C1685 H1662 0.950 . S
C1685 C1684 1.334 . S
C1685 C1686 1.287 . S
C1686 C1685 1.287 . S
C1686 C1687 1.524 . S
C1686 H1705 0.913 . S
C1687 H1663 0.950 . S
C1687 C1686 1.524 . S
C1687 C1688 1.415 . S
C1688 H1664 0.950 . S
C1688 C1683 1.363 . S
C1688 C1687 1.415 . S
C1689 H1665 0.951 . S
C1689 C1690 1.366 . S
C1689 C1691 1.388 . S
C1690 C1689 1.366 . S
C1690 C1694 1.385 . S
C1691 H1666 0.951 . S
C1691 C1689 1.388 . S
C1691 C1692 1.366 . S
C1692 C1691 1.366 . S
C1692 C1693 1.414 . S
C1692 C1695 1.499 . S
C1693 H1667 0.950 . S
C1693 C1692 1.414 . S
C1693 C1694 1.374 . S
C1694 H1668 0.950 . S
C1694 C1690 1.385 . S
C1694 C1693 1.374 . S
C1695 C1692 1.499 . S
C1695 C1696 1.373 . S
C1695 C1697 1.389 . S
C1696 H1669 0.950 . S
C1696 C1682 1.377 . S
C1696 C1695 1.373 . S
C1697 C1681 1.377 . S
C1697 C1695 1.389 . S
C1697 C1698 1.524 . S
C1698 C1697 1.524 . S
C1698 C1699 1.397 . S
C1698 C1703 1.363 . S
C1699 H1670 0.950 . S
C1699 C1698 1.397 . S
C1699 C1700 1.334 . S
C1700 H1671 0.950 . S
C1700 C1699 1.334 . S
C1700 C1701 1.287 . S
C1701 C1700 1.287 . S
C1701 C1702 1.524 . S
C1701 H1704 0.999 . S
C1702 H1672 0.950 . S
C1702 C1701 1.524 . S
C1702 C1703 1.415 . S
C1703 H1673 0.950 . S
C1703 C1698 1.363 . S
C1703 C1702 1.415 . S
H1704 C1701 0.999 . S
H1705 C1686 0.913 . S
H1706 C1724 0.951 . S
H1707 C1726 0.951 . S
H1708 C1728 0.950 . S
H1709 C1729 0.950 . S
H1710 C1731 0.950 . S
H1711 C1734 0.950 . S
H1712 C1735 0.950 . S
H1713 C1737 0.950 . S
H1714 C1738 0.950 . S
H1715 C1739 0.951 . S
H1716 C1741 0.951 . S
H1717 C1743 0.950 . S
H1718 C1744 0.950 . S
H1719 C1746 0.950 . S
H1720 C1749 0.950 . S
H1721 C1750 0.950 . S
H1722 C1752 0.950 . S
H1723 C1753 0.950 . S
C1724 H1706 0.951 . S
C1724 C1725 1.366 . S
C1724 C1726 1.388 . S
C1725 C1724 1.366 . S
C1725 C1729 1.385 . S
C1726 H1707 0.951 . S
C1726 C1724 1.388 . S
C1726 C1727 1.366 . S
C1727 C1726 1.366 . S
C1727 C1728 1.414 . S
C1727 C1730 1.499 . S
C1728 H1708 0.950 . S
C1728 C1727 1.414 . S
C1728 C1729 1.374 . S
C1729 H1709 0.950 . S
C1729 C1725 1.385 . S
C1729 C1728 1.374 . S
C1730 C1727 1.499 . S
C1730 C1731 1.373 . S
C1730 C1732 1.389 . S
C1731 H1710 0.950 . S
C1731 C1730 1.373 . S
C1731 C1747 1.377 . S
C1732 C1730 1.389 . S
C1732 C1733 1.524 . S
C1732 C1746 1.377 . S
C1733 C1732 1.524 . S
C1733 C1734 1.397 . S
C1733 C1738 1.363 . S
C1734 H1711 0.950 . S
C1734 C1733 1.397 . S
C1734 C1735 1.334 . S
C1735 H1712 0.950 . S
C1735 C1734 1.334 . S
C1735 C1736 1.287 . S
C1736 C1735 1.287 . S
C1736 C1737 1.524 . S
C1736 H1755 0.913 . S
C1737 H1713 0.950 . S
C1737 C1736 1.524 . S
C1737 C1738 1.415 . S
C1738 H1714 0.950 . S
C1738 C1733 1.363 . S
C1738 C1737 1.415 . S
C1739 H1715 0.951 . S
C1739 C1740 1.366 . S
C1739 C1741 1.388 . S
C1740 C1739 1.366 . S
C1740 C1744 1.385 . S
C1741 H1716 0.951 . S
C1741 C1739 1.388 . S
C1741 C1742 1.366 . S
C1742 C1741 1.366 . S
C1742 C1743 1.414 . S
C1742 C1745 1.499 . S
C1743 H1717 0.950 . S
C1743 C1742 1.414 . S
C1743 C1744 1.374 . S
C1744 H1718 0.950 . S
C1744 C1740 1.385 . S
C1744 C1743 1.374 . S
C1745 C1742 1.499 . S
C1745 C1746 1.373 . S
C1745 C1747 1.389 . S
C1746 H1719 0.950 . S
C1746 C1732 1.377 . S
C1746 C1745 1.373 . S
C1747 C1731 1.377 . S
C1747 C1745 1.389 . S
C1747 C1748 1.524 . S
C1748 C1747 1.524 . S
C1748 C1749 1.397 . S
C1748 C1753 1.363 . S
C1749 H1720 0.950 . S
C1749 C1748 1.397 . S
C1749 C1750 1.334 . S
C1750 H1721 0.950 . S
C1750 C1749 1.334 . S
C1750 C1751 1.287 . S
C1751 C1750 1.287 . S
C1751 C1752 1.524 . S
C1751 H1754 0.999 . S
C1752 H1722 0.950 . S
C1752 C1751 1.524 . S
C1752 C1753 1.415 . S
C1753 H1723 0.950 . S
C1753 C1748 1.363 . S
C1753 C1752 1.415 . S
H1754 C1751 0.999 . S
H1755 C1736 0.913 . S
H1756 C1774 0.951 . S
H1757 C1776 0.951 . S
H1758 C1778 0.950 . S
H1759 C1779 0.950 . S
H1760 C1781 0.950 . S
H1761 C1784 0.950 . S
H1762 C1785 0.950 . S
H1763 C1787 0.950 . S
H1764 C1788 0.950 . S
H1765 C1789 0.951 . S
H1766 C1791 0.951 . S
H1767 C1793 0.950 . S
H1768 C1794 0.950 . S
H1769 C1796 0.950 . S
H1770 C1799 0.950 . S
H1771 C1800 0.950 . S
H1772 C1802 0.950 . S
H1773 C1803 0.950 . S
C1774 H1756 0.951 . S
C1774 C1775 1.366 . S
C1774 C1776 1.388 . S
C1775 C1774 1.366 . S
C1775 C1779 1.385 . S
C1776 H1757 0.951 . S
C1776 C1774 1.388 . S
C1776 C1777 1.366 . S
C1777 C1776 1.366 . S
C1777 C1778 1.414 . S
C1777 C1780 1.499 . S
C1778 H1758 0.950 . S
C1778 C1777 1.414 . S
C1778 C1779 1.374 . S
C1779 H1759 0.950 . S
C1779 C1775 1.385 . S
C1779 C1778 1.374 . S
C1780 C1777 1.499 . S
C1780 C1781 1.373 . S
C1780 C1782 1.389 . S
C1781 H1760 0.950 . S
C1781 C1780 1.373 . S
C1781 C1797 1.377 . S
C1782 C1780 1.389 . S
C1782 C1783 1.524 . S
C1782 C1796 1.377 . S
C1783 C1782 1.524 . S
C1783 C1784 1.397 . S
C1783 C1788 1.363 . S
C1784 H1761 0.950 . S
C1784 C1783 1.397 . S
C1784 C1785 1.334 . S
C1785 H1762 0.950 . S
C1785 C1784 1.334 . S
C1785 C1786 1.287 . S
C1786 C1785 1.287 . S
C1786 C1787 1.524 . S
C1786 H1805 0.913 . S
C1787 H1763 0.950 . S
C1787 C1786 1.524 . S
C1787 C1788 1.415 . S
C1788 H1764 0.950 . S
C1788 C1783 1.363 . S
C1788 C1787 1.415 . S
C1789 H1765 0.951 . S
C1789 C1790 1.366 . S
C1789 C1791 1.388 . S
C1790 C1789 1.366 . S
C1790 C1794 1.385 . S
C1791 H1766 0.951 . S
C1791 C1789 1.388 . S
C1791 C1792 1.366 . S
C1792 C1791 1.366 . S
C1792 C1793 1.414 . S
C1792 C1795 1.499 . S
C1793 H1767 0.950 . S
C1793 C1792 1.414 . S
C1793 C1794 1.374 . S
C1794 H1768 0.950 . S
C1794 C1790 1.385 . S
C1794 C1793 1.374 . S
C1795 C1792 1.499 . S
C1795 C1796 1.373 . S
C1795 C1797 1.389 . S
C1796 H1769 0.950 . S
C1796 C1782 1.377 . S
C1796 C1795 1.373 . S
C1797 C1781 1.377 . S
C1797 C1795 1.389 . S
C1797 C1798 1.524 . S
C1798 C1797 1.524 . S
C1798 C1799 1.397 . S
C1798 C1803 1.363 . S
C1799 H1770 0.950 . S
C1799 C1798 1.397 . S
C1799 C1800 1.334 . S
C1800 H1771 0.950 . S
C1800 C1799 1.334 . S
C1800 C1801 1.287 . S
C1801 C1800 1.287 . S
C1801 C1802 1.524 . S
C1801 H1804 0.999 . S
C1802 H1772 0.950 . S
C1802 C1801 1.524 . S
C1802 C1803 1.415 . S
C1803 H1773 0.950 . S
C1803 C1798 1.363 . S
C1803 C1802 1.415 . S
H1804 C1801 0.999 . S
H1805 C1786 0.913 . S
H1806 C1824 0.951 . S
H1807 C1826 0.951 . S
H1808 C1828 0.950 . S
H1809 C1829 0.950 . S
H1810 C1831 0.950 . S
H1811 C1834 0.950 . S
H1812 C1835 0.950 . S
H1813 C1837 0.950 . S
H1814 C1838 0.950 . S
H1815 C1839 0.951 . S
H1816 C1841 0.951 . S
H1817 C1843 0.950 . S
H1818 C1844 0.950 . S
H1819 C1846 0.950 . S
H1820 C1849 0.950 . S
H1821 C1850 0.950 . S
H1822 C1852 0.950 . S
H1823 C1853 0.950 . S
C1824 H1806 0.951 . S
C1824 C1825 1.366 . S
C1824 C1826 1.388 . S
C1825 C1824 1.366 . S
C1825 C1829 1.385 . S
C1826 H1807 0.951 . S
C1826 C1824 1.388 . S
C1826 C1827 1.366 . S
C1827 C1826 1.366 . S
C1827 C1828 1.414 . S
C1827 C1830 1.499 . S
C1828 H1808 0.950 . S
C1828 C1827 1.414 . S
C1828 C1829 1.374 . S
C1829 H1809 0.950 . S
C1829 C1825 1.385 . S
C1829 C1828 1.374 . S
C1830 C1827 1.499 . S
C1830 C1831 1.373 . S
C1830 C1832 1.389 . S
C1831 H1810 0.950 . S
C1831 C1830 1.373 . S
C1831 C1847 1.377 . S
C1832 C1830 1.389 . S
C1832 C1833 1.524 . S
C1832 C1846 1.377 . S
C1833 C1832 1.524 . S
C1833 C1834 1.397 . S
C1833 C1838 1.363 . S
C1834 H1811 0.950 . S
C1834 C1833 1.397 . S
C1834 C1835 1.334 . S
C1835 H1812 0.950 . S
C1835 C1834 1.334 . S
C1835 C1836 1.287 . S
C1836 C1835 1.287 . S
C1836 C1837 1.524 . S
C1836 H1855 0.913 . S
C1837 H1813 0.950 . S
C1837 C1836 1.524 . S
C1837 C1838 1.415 . S
C1838 H1814 0.950 . S
C1838 C1833 1.363 . S
C1838 C1837 1.415 . S
C1839 H1815 0.951 . S
C1839 C1840 1.366 . S
C1839 C1841 1.388 . S
C1840 C1839 1.366 . S
C1840 C1844 1.385 . S
C1841 H1816 0.951 . S
C1841 C1839 1.388 . S
C1841 C1842 1.366 . S
C1842 C1841 1.366 . S
C1842 C1843 1.414 . S
C1842 C1845 1.499 . S
C1843 H1817 0.950 . S
C1843 C1842 1.414 . S
C1843 C1844 1.374 . S
C1844 H1818 0.950 . S
C1844 C1840 1.385 . S
C1844 C1843 1.374 . S
C1845 C1842 1.499 . S
C1845 C1846 1.373 . S
C1845 C1847 1.389 . S
C1846 H1819 0.950 . S
C1846 C1832 1.377 . S
C1846 C1845 1.373 . S
C1847 C1831 1.377 . S
C1847 C1845 1.389 . S
C1847 C1848 1.524 . S
C1848 C1847 1.524 . S
C1848 C1849 1.397 . S
C1848 C1853 1.363 . S
C1849 H1820 0.950 . S
C1849 C1848 1.397 . S
C1849 C1850 1.334 . S
C1850 H1821 0.950 . S
C1850 C1849 1.334 . S
C1850 C1851 1.287 . S
C1851 C1850 1.287 . S
C1851 C1852 1.524 . S
C1851 H1854 0.999 . S
C1852 H1822 0.950 . S
C1852 C1851 1.524 . S
C1852 C1853 1.415 . S
C1853 H1823 0.950 . S
C1853 C1848 1.363 . S
C1853 C1852 1.415 . S
H1854 C1851 0.999 . S
H1855 C1836 0.913 . S
H1856 C1874 0.951 . S
H1857 C1876 0.951 . S
H1858 C1878 0.950 . S
H1859 C1879 0.950 . S
H1860 C1881 0.950 . S
H1861 C1884 0.950 . S
H1862 C1885 0.950 . S
H1863 C1887 0.950 . S
H1864 C1888 0.950 . S
H1865 C1889 0.951 . S
H1866 C1891 0.951 . S
H1867 C1893 0.950 . S
H1868 C1894 0.950 . S
H1869 C1896 0.950 . S
H1870 C1899 0.950 . S
H1871 C1900 0.950 . S
H1872 C1902 0.950 . S
H1873 C1903 0.950 . S
C1874 H1856 0.951 . S
C1874 C1875 1.366 . S
C1874 C1876 1.388 . S
C1875 C1874 1.366 . S
C1875 C1879 1.385 . S
C1876 H1857 0.951 . S
C1876 C1874 1.388 . S
C1876 C1877 1.366 . S
C1877 C1876 1.366 . S
C1877 C1878 1.414 . S
C1877 C1880 1.499 . S
C1878 H1858 0.950 . S
C1878 C1877 1.414 . S
C1878 C1879 1.374 . S
C1879 H1859 0.950 . S
C1879 C1875 1.385 . S
C1879 C1878 1.374 . S
C1880 C1877 1.499 . S
C1880 C1881 1.373 . S
C1880 C1882 1.389 . S
C1881 H1860 0.950 . S
C1881 C1880 1.373 . S
C1881 C1897 1.377 . S
C1882 C1880 1.389 . S
C1882 C1883 1.524 . S
C1882 C1896 1.377 . S
C1883 C1882 1.524 . S
C1883 C1884 1.397 . S
C1883 C1888 1.363 . S
C1884 H1861 0.950 . S
C1884 C1883 1.397 . S
C1884 C1885 1.334 . S
C1885 H1862 0.950 . S
C1885 C1884 1.334 . S
C1885 C1886 1.287 . S
C1886 C1885 1.287 . S
C1886 C1887 1.524 . S
C1886 H1905 0.913 . S
C1887 H1863 0.950 . S
C1887 C1886 1.524 . S
C1887 C1888 1.415 . S
C1888 H1864 0.950 . S
C1888 C1883 1.363 . S
C1888 C1887 1.415 . S
C1889 H1865 0.951 . S
C1889 C1890 1.366 . S
C1889 C1891 1.388 . S
C1890 C1889 1.366 . S
C1890 C1894 1.385 . S
C1891 H1866 0.951 . S
C1891 C1889 1.388 . S
C1891 C1892 1.366 . S
C1892 C1891 1.366 . S
C1892 C1893 1.414 . S
C1892 C1895 1.499 . S
C1893 H1867 0.950 . S
C1893 C1892 1.414 . S
C1893 C1894 1.374 . S
C1894 H1868 0.950 . S
C1894 C1890 1.385 . S
C1894 C1893 1.374 . S
C1895 C1892 1.499 . S
C1895 C1896 1.373 . S
C1895 C1897 1.389 . S
C1896 H1869 0.950 . S
C1896 C1882 1.377 . S
C1896 C1895 1.373 . S
C1897 C1881 1.377 . S
C1897 C1895 1.389 . S
C1897 C1898 1.524 . S
C1898 C1897 1.524 . S
C1898 C1899 1.397 . S
C1898 C1903 1.363 . S
C1899 H1870 0.950 . S
C1899 C1898 1.397 . S
C1899 C1900 1.334 1_556 S
C1900 H1871 0.950 . S
C1900 C1899 1.334 1_554 S
C1900 C1901 1.287 . S
C1901 C1900 1.287 . S
C1901 C1902 1.524 . S
C1901 H1904 0.999 . S
C1902 H1872 0.950 . S
C1902 C1901 1.524 . S
C1902 C1903 1.415 1_554 S
C1903 H1873 0.950 . S
C1903 C1898 1.363 . S
C1903 C1902 1.415 1_556 S
H1904 C1901 0.999 . S
H1905 C1886 0.913 . S
H1906 C1924 0.951 . S
H1907 C1926 0.951 . S
H1908 C1928 0.950 . S
H1909 C1929 0.950 . S
H1910 C1931 0.950 . S
H1911 C1934 0.950 . S
H1912 C1935 0.950 . S
H1913 C1937 0.950 . S
H1914 C1938 0.950 . S
H1915 C1939 0.951 . S
H1916 C1941 0.951 . S
H1917 C1943 0.950 . S
H1918 C1944 0.950 . S
H1919 C1946 0.950 . S
H1920 C1949 0.950 . S
H1921 C1950 0.950 . S
H1922 C1952 0.950 . S
H1923 C1953 0.950 . S
C1924 H1906 0.951 . S
C1924 C1925 1.366 . S
C1924 C1926 1.388 . S
C1925 C1924 1.366 . S
C1925 C1929 1.385 . S
C1926 H1907 0.951 . S
C1926 C1924 1.388 . S
C1926 C1927 1.366 . S
C1927 C1926 1.366 . S
C1927 C1928 1.414 . S
C1927 C1930 1.499 . S
C1928 H1908 0.950 . S
C1928 C1927 1.414 . S
C1928 C1929 1.374 . S
C1929 H1909 0.950 . S
C1929 C1925 1.385 . S
C1929 C1928 1.374 . S
C1930 C1927 1.499 . S
C1930 C1931 1.373 . S
C1930 C1932 1.389 . S
C1931 H1910 0.950 . S
C1931 C1930 1.373 . S
C1931 C1947 1.377 . S
C1932 C1930 1.389 . S
C1932 C1933 1.524 . S
C1932 C1946 1.377 . S
C1933 C1932 1.524 . S
C1933 C1934 1.397 . S
C1933 C1938 1.363 . S
C1934 H1911 0.950 . S
C1934 C1933 1.397 . S
C1934 C1935 1.334 . S
C1935 H1912 0.950 . S
C1935 C1934 1.334 . S
C1935 C1936 1.287 . S
C1936 C1935 1.287 . S
C1936 C1937 1.524 . S
C1936 H1955 0.913 . S
C1937 H1913 0.950 . S
C1937 C1936 1.524 . S
C1937 C1938 1.415 . S
C1938 H1914 0.950 . S
C1938 C1933 1.363 . S
C1938 C1937 1.415 . S
C1939 H1915 0.951 . S
C1939 C1940 1.366 . S
C1939 C1941 1.388 . S
C1940 C1939 1.366 . S
C1940 C1944 1.385 . S
C1941 H1916 0.951 . S
C1941 C1939 1.388 . S
C1941 C1942 1.366 . S
C1942 C1941 1.366 . S
C1942 C1943 1.414 . S
C1942 C1945 1.499 . S
C1943 H1917 0.950 . S
C1943 C1942 1.414 . S
C1943 C1944 1.374 . S
C1944 H1918 0.950 . S
C1944 C1940 1.385 . S
C1944 C1943 1.374 . S
C1945 C1942 1.499 . S
C1945 C1946 1.373 . S
C1945 C1947 1.389 . S
C1946 H1919 0.950 . S
C1946 C1932 1.377 . S
C1946 C1945 1.373 . S
C1947 C1931 1.377 . S
C1947 C1945 1.389 . S
C1947 C1948 1.524 . S
C1948 C1947 1.524 . S
C1948 C1949 1.397 . S
C1948 C1953 1.363 . S
C1949 H1920 0.950 . S
C1949 C1948 1.397 . S
C1949 C1950 1.334 . S
C1950 H1921 0.950 . S
C1950 C1949 1.334 . S
C1950 C1951 1.287 . S
C1951 C1950 1.287 . S
C1951 C1952 1.524 . S
C1951 H1954 0.999 . S
C1952 H1922 0.950 . S
C1952 C1951 1.524 . S
C1952 C1953 1.415 . S
C1953 H1923 0.950 . S
C1953 C1948 1.363 . S
C1953 C1952 1.415 . S
H1954 C1951 0.999 . S
H1955 C1936 0.913 . S
H1956 C1974 0.951 . S
H1957 C1976 0.951 . S
H1958 C1978 0.950 . S
H1959 C1979 0.950 . S
H1960 C1981 0.950 . S
H1961 C1984 0.950 . S
H1962 C1985 0.950 . S
H1963 C1987 0.950 . S
H1964 C1988 0.950 . S
H1965 C1989 0.951 . S
H1966 C1991 0.951 . S
H1967 C1993 0.950 . S
H1968 C1994 0.950 . S
H1969 C1996 0.950 . S
H1970 C1999 0.950 . S
H1971 C2000 0.950 . S
H1972 C2002 0.950 . S
H1973 C2003 0.950 . S
C1974 H1956 0.951 . S
C1974 C1975 1.366 . S
C1974 C1976 1.388 . S
C1975 C1974 1.366 . S
C1975 C1979 1.385 . S
C1976 H1957 0.951 . S
C1976 C1974 1.388 . S
C1976 C1977 1.366 . S
C1977 C1976 1.366 . S
C1977 C1978 1.414 . S
C1977 C1980 1.499 . S
C1978 H1958 0.950 . S
C1978 C1977 1.414 . S
C1978 C1979 1.374 . S
C1979 H1959 0.950 . S
C1979 C1975 1.385 . S
C1979 C1978 1.374 . S
C1980 C1977 1.499 . S
C1980 C1981 1.373 . S
C1980 C1982 1.389 . S
C1981 H1960 0.950 . S
C1981 C1980 1.373 . S
C1981 C1997 1.377 . S
C1982 C1980 1.389 . S
C1982 C1983 1.524 . S
C1982 C1996 1.377 . S
C1983 C1982 1.524 . S
C1983 C1984 1.397 . S
C1983 C1988 1.363 . S
C1984 H1961 0.950 . S
C1984 C1983 1.397 . S
C1984 C1985 1.334 . S
C1985 H1962 0.950 . S
C1985 C1984 1.334 . S
C1985 C1986 1.287 . S
C1986 C1985 1.287 . S
C1986 C1987 1.524 . S
C1986 H2005 0.913 . S
C1987 H1963 0.950 . S
C1987 C1986 1.524 . S
C1987 C1988 1.415 . S
C1988 H1964 0.950 . S
C1988 C1983 1.363 . S
C1988 C1987 1.415 . S
C1989 H1965 0.951 . S
C1989 C1990 1.366 . S
C1989 C1991 1.388 . S
C1990 C1989 1.366 . S
C1990 C1994 1.385 . S
C1991 H1966 0.951 . S
C1991 C1989 1.388 . S
C1991 C1992 1.366 . S
C1992 C1991 1.366 . S
C1992 C1993 1.414 . S
C1992 C1995 1.499 . S
C1993 H1967 0.950 . S
C1993 C1992 1.414 . S
C1993 C1994 1.374 . S
C1994 H1968 0.950 . S
C1994 C1990 1.385 . S
C1994 C1993 1.374 . S
C1995 C1992 1.499 . S
C1995 C1996 1.373 . S
C1995 C1997 1.389 . S
C1996 H1969 0.950 . S
C1996 C1982 1.377 . S
C1996 C1995 1.373 . S
C1997 C1981 1.377 . S
C1997 C1995 1.389 . S
C1997 C1998 1.524 . S
C1998 C1997 1.524 . S
C1998 C1999 1.397 . S
C1998 C2003 1.363 . S
C1999 H1970 0.950 . S
C1999 C1998 1.397 . S
C1999 C2000 1.334 . S
C2000 H1971 0.950 . S
C2000 C1999 1.334 . S
C2000 C2001 1.287 . S
C2001 C2000 1.287 . S
C2001 C2002 1.524 . S
C2001 H2004 0.999 . S
C2002 H1972 0.950 . S
C2002 C2001 1.524 . S
C2002 C2003 1.415 . S
C2003 H1973 0.950 . S
C2003 C1998 1.363 . S
C2003 C2002 1.415 . S
H2004 C2001 0.999 . S
H2005 C1986 0.913 . S
H2006 C2024 0.951 . S
H2007 C2026 0.951 . S
H2008 C2028 0.950 . S
H2009 C2029 0.950 . S
H2010 C2031 0.950 . S
H2011 C2034 0.950 . S
H2012 C2035 0.950 . S
H2013 C2037 0.950 . S
H2014 C2038 0.950 . S
H2015 C2039 0.951 . S
H2016 C2041 0.951 . S
H2017 C2043 0.950 . S
H2018 C2044 0.950 . S
H2019 C2046 0.950 . S
H2020 C2049 0.950 . S
H2021 C2050 0.950 . S
H2022 C2052 0.950 . S
H2023 C2053 0.950 . S
C2024 H2006 0.951 . S
C2024 C2025 1.366 . S
C2024 C2026 1.388 . S
C2025 C2024 1.366 . S
C2025 C2029 1.385 . S
C2026 H2007 0.951 . S
C2026 C2024 1.388 . S
C2026 C2027 1.366 . S
C2027 C2026 1.366 . S
C2027 C2028 1.414 . S
C2027 C2030 1.499 . S
C2028 H2008 0.950 . S
C2028 C2027 1.414 . S
C2028 C2029 1.374 . S
C2029 H2009 0.950 . S
C2029 C2025 1.385 . S
C2029 C2028 1.374 . S
C2030 C2027 1.499 . S
C2030 C2031 1.373 . S
C2030 C2032 1.389 . S
C2031 H2010 0.950 . S
C2031 C2030 1.373 . S
C2031 C2047 1.377 . S
C2032 C2030 1.389 . S
C2032 C2033 1.524 . S
C2032 C2046 1.377 . S
C2033 C2032 1.524 . S
C2033 C2034 1.397 . S
C2033 C2038 1.363 . S
C2034 H2011 0.950 . S
C2034 C2033 1.397 . S
C2034 C2035 1.334 . S
C2035 H2012 0.950 . S
C2035 C2034 1.334 . S
C2035 C2036 1.287 . S
C2036 C2035 1.287 . S
C2036 C2037 1.524 . S
C2036 H2055 0.913 . S
C2037 H2013 0.950 . S
C2037 C2036 1.524 . S
C2037 C2038 1.415 . S
C2038 H2014 0.950 . S
C2038 C2033 1.363 . S
C2038 C2037 1.415 . S
C2039 H2015 0.951 . S
C2039 C2040 1.366 . S
C2039 C2041 1.388 . S
C2040 C2039 1.366 . S
C2040 C2044 1.385 . S
C2041 H2016 0.951 . S
C2041 C2039 1.388 . S
C2041 C2042 1.366 . S
C2042 C2041 1.366 . S
C2042 C2043 1.414 . S
C2042 C2045 1.499 . S
C2043 H2017 0.950 . S
C2043 C2042 1.414 . S
C2043 C2044 1.374 . S
C2044 H2018 0.950 . S
C2044 C2040 1.385 . S
C2044 C2043 1.374 . S
C2045 C2042 1.499 . S
C2045 C2046 1.373 . S
C2045 C2047 1.389 . S
C2046 H2019 0.950 . S
C2046 C2032 1.377 . S
C2046 C2045 1.373 . S
C2047 C2031 1.377 . S
C2047 C2045 1.389 . S
C2047 C2048 1.524 . S
C2048 C2047 1.524 . S
C2048 C2049 1.397 . S
C2048 C2053 1.363 . S
C2049 H2020 0.950 . S
C2049 C2048 1.397 . S
C2049 C2050 1.334 . S
C2050 H2021 0.950 . S
C2050 C2049 1.334 . S
C2050 C2051 1.287 . S
C2051 C2050 1.287 . S
C2051 C2052 1.524 . S
C2051 H2054 0.999 . S
C2052 H2022 0.950 . S
C2052 C2051 1.524 . S
C2052 C2053 1.415 . S
C2053 H2023 0.950 . S
C2053 C2048 1.363 . S
C2053 C2052 1.415 . S
H2054 C2051 0.999 . S
H2055 C2036 0.913 . S
H2056 C2074 0.951 . S
H2057 C2076 0.951 . S
H2058 C2078 0.950 . S
H2059 C2079 0.950 . S
H2060 C2081 0.950 . S
H2061 C2084 0.950 . S
H2062 C2085 0.950 . S
H2063 C2087 0.950 . S
H2064 C2088 0.950 . S
H2065 C2089 0.951 . S
H2066 C2091 0.951 . S
H2067 C2093 0.950 . S
H2068 C2094 0.950 . S
H2069 C2096 0.950 . S
H2070 C2099 0.950 . S
H2071 C2100 0.950 . S
H2072 C2102 0.950 . S
H2073 C2103 0.950 . S
C2074 H2056 0.951 . S
C2074 C2075 1.366 . S
C2074 C2076 1.388 . S
C2075 C2074 1.366 . S
C2075 C2079 1.385 . S
C2076 H2057 0.951 . S
C2076 C2074 1.388 . S
C2076 C2077 1.366 . S
C2077 C2076 1.366 . S
C2077 C2078 1.414 . S
C2077 C2080 1.499 . S
C2078 H2058 0.950 . S
C2078 C2077 1.414 . S
C2078 C2079 1.374 . S
C2079 H2059 0.950 . S
C2079 C2075 1.385 . S
C2079 C2078 1.374 . S
C2080 C2077 1.499 . S
C2080 C2081 1.373 . S
C2080 C2082 1.389 . S
C2081 H2060 0.950 . S
C2081 C2080 1.373 . S
C2081 C2097 1.377 . S
C2082 C2080 1.389 . S
C2082 C2083 1.524 . S
C2082 C2096 1.377 . S
C2083 C2082 1.524 . S
C2083 C2084 1.397 . S
C2083 C2088 1.363 . S
C2084 H2061 0.950 . S
C2084 C2083 1.397 . S
C2084 C2085 1.334 . S
C2085 H2062 0.950 . S
C2085 C2084 1.334 . S
C2085 C2086 1.287 . S
C2086 C2085 1.287 . S
C2086 C2087 1.524 . S
C2086 H2105 0.913 . S
C2087 H2063 0.950 . S
C2087 C2086 1.524 . S
C2087 C2088 1.415 . S
C2088 H2064 0.950 . S
C2088 C2083 1.363 . S
C2088 C2087 1.415 . S
C2089 H2065 0.951 . S
C2089 C2090 1.366 . S
C2089 C2091 1.388 . S
C2090 C2089 1.366 . S
C2090 C2094 1.385 . S
C2091 H2066 0.951 . S
C2091 C2089 1.388 . S
C2091 C2092 1.366 . S
C2092 C2091 1.366 . S
C2092 C2093 1.414 . S
C2092 C2095 1.499 . S
C2093 H2067 0.950 . S
C2093 C2092 1.414 . S
C2093 C2094 1.374 . S
C2094 H2068 0.950 . S
C2094 C2090 1.385 . S
C2094 C2093 1.374 . S
C2095 C2092 1.499 . S
C2095 C2096 1.373 . S
C2095 C2097 1.389 . S
C2096 H2069 0.950 . S
C2096 C2082 1.377 . S
C2096 C2095 1.373 . S
C2097 C2081 1.377 . S
C2097 C2095 1.389 . S
C2097 C2098 1.524 . S
C2098 C2097 1.524 . S
C2098 C2099 1.397 . S
C2098 C2103 1.363 . S
C2099 H2070 0.950 . S
C2099 C2098 1.397 . S
C2099 C2100 1.334 . S
C2100 H2071 0.950 . S
C2100 C2099 1.334 . S
C2100 C2101 1.287 . S
C2101 C2100 1.287 . S
C2101 C2102 1.524 . S
C2101 H2104 0.999 . S
C2102 H2072 0.950 . S
C2102 C2101 1.524 . S
C2102 C2103 1.415 . S
C2103 H2073 0.950 . S
C2103 C2098 1.363 . S
C2103 C2102 1.415 . S
H2104 C2101 0.999 . S
H2105 C2086 0.913 . S
H2106 C2124 0.951 . S
H2107 C2126 0.951 . S
H2108 C2128 0.950 . S
H2109 C2129 0.950 . S
H2110 C2131 0.950 . S
H2111 C2134 0.950 . S
H2112 C2135 0.950 . S
H2113 C2137 0.950 . S
H2114 C2138 0.950 . S
H2115 C2139 0.951 . S
H2116 C2141 0.951 . S
H2117 C2143 0.950 . S
H2118 C2144 0.950 . S
H2119 C2146 0.950 . S
H2120 C2149 0.950 . S
H2121 C2150 0.950 . S
H2122 C2152 0.950 . S
H2123 C2153 0.950 . S
C2124 H2106 0.951 . S
C2124 C2125 1.366 . S
C2124 C2126 1.388 . S
C2125 C2124 1.366 . S
C2125 C2129 1.385 . S
C2126 H2107 0.951 . S
C2126 C2124 1.388 . S
C2126 C2127 1.366 . S
C2127 C2126 1.366 . S
C2127 C2128 1.414 . S
C2127 C2130 1.499 . S
C2128 H2108 0.950 . S
C2128 C2127 1.414 . S
C2128 C2129 1.374 . S
C2129 H2109 0.950 . S
C2129 C2125 1.385 . S
C2129 C2128 1.374 . S
C2130 C2127 1.499 . S
C2130 C2131 1.373 . S
C2130 C2132 1.389 . S
C2131 H2110 0.950 . S
C2131 C2130 1.373 . S
C2131 C2147 1.377 . S
C2132 C2130 1.389 . S
C2132 C2133 1.524 . S
C2132 C2146 1.377 . S
C2133 C2132 1.524 . S
C2133 C2134 1.397 . S
C2133 C2138 1.363 . S
C2134 H2111 0.950 . S
C2134 C2133 1.397 . S
C2134 C2135 1.334 . S
C2135 H2112 0.950 . S
C2135 C2134 1.334 . S
C2135 C2136 1.287 . S
C2136 C2135 1.287 . S
C2136 C2137 1.524 . S
C2136 H2155 0.913 . S
C2137 H2113 0.950 . S
C2137 C2136 1.524 . S
C2137 C2138 1.415 . S
C2138 H2114 0.950 . S
C2138 C2133 1.363 . S
C2138 C2137 1.415 . S
C2139 H2115 0.951 . S
C2139 C2140 1.366 . S
C2139 C2141 1.388 . S
C2140 C2139 1.366 . S
C2140 C2144 1.385 . S
C2141 H2116 0.951 . S
C2141 C2139 1.388 . S
C2141 C2142 1.366 . S
C2142 C2141 1.366 . S
C2142 C2143 1.414 . S
C2142 C2145 1.499 . S
C2143 H2117 0.950 . S
C2143 C2142 1.414 . S
C2143 C2144 1.374 . S
C2144 H2118 0.950 . S
C2144 C2140 1.385 . S
C2144 C2143 1.374 . S
C2145 C2142 1.499 . S
C2145 C2146 1.373 . S
C2145 C2147 1.389 . S
C2146 H2119 0.950 . S
C2146 C2132 1.377 . S
C2146 C2145 1.373 . S
C2147 C2131 1.377 . S
C2147 C2145 1.389 . S
C2147 C2148 1.524 . S
C2148 C2147 1.524 . S
C2148 C2149 1.397 . S
C2148 C2153 1.363 . S
C2149 H2120 0.950 . S
C2149 C2148 1.397 . S
C2149 C2150 1.334 . S
C2150 H2121 0.950 . S
C2150 C2149 1.334 . S
C2150 C2151 1.287 . S
C2151 C2150 1.287 . S
C2151 C2152 1.524 . S
C2151 H2154 0.999 . S
C2152 H2122 0.950 . S
C2152 C2151 1.524 . S
C2152 C2153 1.415 . S
C2153 H2123 0.950 . S
C2153 C2148 1.363 . S
C2153 C2152 1.415 . S
H2154 C2151 0.999 . S
H2155 C2136 0.913 . S
H2156 C2174 0.951 . S
H2157 C2176 0.951 . S
H2158 C2178 0.950 . S
H2159 C2179 0.950 . S
H2160 C2181 0.950 . S
H2161 C2184 0.950 . S
H2162 C2185 0.950 . S
H2163 C2187 0.950 . S
H2164 C2188 0.950 . S
H2165 C2189 0.951 . S
H2166 C2191 0.951 . S
H2167 C2193 0.950 . S
H2168 C2194 0.950 . S
H2169 C2196 0.950 . S
H2170 C2199 0.950 . S
H2171 C2200 0.950 . S
H2172 C2202 0.950 . S
H2173 C2203 0.950 . S
C2174 H2156 0.951 . S
C2174 C2175 1.366 . S
C2174 C2176 1.388 . S
C2175 C2174 1.366 . S
C2175 C2179 1.385 . S
C2176 H2157 0.951 . S
C2176 C2174 1.388 . S
C2176 C2177 1.366 . S
C2177 C2176 1.366 . S
C2177 C2178 1.414 . S
C2177 C2180 1.499 . S
C2178 H2158 0.950 . S
C2178 C2177 1.414 . S
C2178 C2179 1.374 . S
C2179 H2159 0.950 . S
C2179 C2175 1.385 . S
C2179 C2178 1.374 . S
C2180 C2177 1.499 . S
C2180 C2181 1.373 . S
C2180 C2182 1.389 . S
C2181 H2160 0.950 . S
C2181 C2180 1.373 . S
C2181 C2197 1.377 . S
C2182 C2180 1.389 . S
C2182 C2183 1.524 . S
C2182 C2196 1.377 . S
C2183 C2182 1.524 . S
C2183 C2184 1.397 . S
C2183 C2188 1.363 . S
C2184 H2161 0.950 . S
C2184 C2183 1.397 . S
C2184 C2185 1.334 . S
C2185 H2162 0.950 . S
C2185 C2184 1.334 . S
C2185 C2186 1.287 . S
C2186 C2185 1.287 . S
C2186 C2187 1.524 . S
C2186 H2205 0.913 . S
C2187 H2163 0.950 . S
C2187 C2186 1.524 . S
C2187 C2188 1.415 . S
C2188 H2164 0.950 . S
C2188 C2183 1.363 . S
C2188 C2187 1.415 . S
C2189 H2165 0.951 . S
C2189 C2190 1.366 . S
C2189 C2191 1.388 . S
C2190 C2189 1.366 . S
C2190 C2194 1.385 . S
C2191 H2166 0.951 . S
C2191 C2189 1.388 . S
C2191 C2192 1.366 . S
C2192 C2191 1.366 . S
C2192 C2193 1.414 . S
C2192 C2195 1.499 . S
C2193 H2167 0.950 . S
C2193 C2192 1.414 . S
C2193 C2194 1.374 . S
C2194 H2168 0.950 . S
C2194 C2190 1.385 . S
C2194 C2193 1.374 . S
C2195 C2192 1.499 . S
C2195 C2196 1.373 . S
C2195 C2197 1.389 . S
C2196 H2169 0.950 . S
C2196 C2182 1.377 . S
C2196 C2195 1.373 . S
C2197 C2181 1.377 . S
C2197 C2195 1.389 . S
C2197 C2198 1.524 . S
C2198 C2197 1.524 . S
C2198 C2199 1.397 . S
C2198 C2203 1.363 . S
C2199 H2170 0.950 . S
C2199 C2198 1.397 . S
C2199 C2200 1.334 . S
C2200 H2171 0.950 . S
C2200 C2199 1.334 . S
C2200 C2201 1.287 . S
C2201 C2200 1.287 . S
C2201 C2202 1.524 . S
C2201 H2204 0.999 . S
C2202 H2172 0.950 . S
C2202 C2201 1.524 . S
C2202 C2203 1.415 . S
C2203 H2173 0.950 . S
C2203 C2198 1.363 . S
C2203 C2202 1.415 . S
H2204 C2201 0.999 . S
H2205 C2186 0.913 . S
H2206 C2224 0.951 . S
H2207 C2226 0.951 . S
H2208 C2228 0.950 . S
H2209 C2229 0.950 . S
H2210 C2231 0.950 . S
H2211 C2234 0.950 . S
H2212 C2235 0.950 . S
H2213 C2237 0.950 . S
H2214 C2238 0.950 . S
H2215 C2239 0.951 . S
H2216 C2241 0.951 . S
H2217 C2243 0.950 . S
H2218 C2244 0.950 . S
H2219 C2246 0.950 . S
H2220 C2249 0.950 . S
H2221 C2250 0.950 . S
H2222 C2252 0.950 . S
H2223 C2253 0.950 . S
C2224 H2206 0.951 . S
C2224 C2225 1.366 . S
C2224 C2226 1.388 . S
C2225 C2224 1.366 . S
C2225 C2229 1.385 . S
C2226 H2207 0.951 . S
C2226 C2224 1.388 . S
C2226 C2227 1.366 . S
C2227 C2226 1.366 . S
C2227 C2228 1.414 . S
C2227 C2230 1.499 . S
C2228 H2208 0.950 . S
C2228 C2227 1.414 . S
C2228 C2229 1.374 . S
C2229 H2209 0.950 . S
C2229 C2225 1.385 . S
C2229 C2228 1.374 . S
C2230 C2227 1.499 . S
C2230 C2231 1.373 . S
C2230 C2232 1.389 . S
C2231 H2210 0.950 . S
C2231 C2230 1.373 . S
C2231 C2247 1.377 . S
C2232 C2230 1.389 . S
C2232 C2233 1.524 . S
C2232 C2246 1.377 . S
C2233 C2232 1.524 . S
C2233 C2234 1.397 . S
C2233 C2238 1.363 . S
C2234 H2211 0.950 . S
C2234 C2233 1.397 . S
C2234 C2235 1.334 . S
C2235 H2212 0.950 . S
C2235 C2234 1.334 . S
C2235 C2236 1.287 . S
C2236 C2235 1.287 . S
C2236 C2237 1.524 . S
C2236 H2255 0.913 . S
C2237 H2213 0.950 . S
C2237 C2236 1.524 . S
C2237 C2238 1.415 . S
C2238 H2214 0.950 . S
C2238 C2233 1.363 . S
C2238 C2237 1.415 . S
C2239 H2215 0.951 . S
C2239 C2240 1.366 . S
C2239 C2241 1.388 . S
C2240 C2239 1.366 . S
C2240 C2244 1.385 . S
C2241 H2216 0.951 . S
C2241 C2239 1.388 . S
C2241 C2242 1.366 . S
C2242 C2241 1.366 . S
C2242 C2243 1.414 . S
C2242 C2245 1.499 . S
C2243 H2217 0.950 . S
C2243 C2242 1.414 . S
C2243 C2244 1.374 . S
C2244 H2218 0.950 . S
C2244 C2240 1.385 . S
C2244 C2243 1.374 . S
C2245 C2242 1.499 . S
C2245 C2246 1.373 . S
C2245 C2247 1.389 . S
C2246 H2219 0.950 . S
C2246 C2232 1.377 . S
C2246 C2245 1.373 . S
C2247 C2231 1.377 . S
C2247 C2245 1.389 . S
C2247 C2248 1.524 . S
C2248 C2247 1.524 . S
C2248 C2249 1.397 . S
C2248 C2253 1.363 . S
C2249 H2220 0.950 . S
C2249 C2248 1.397 . S
C2249 C2250 1.334 . S
C2250 H2221 0.950 . S
C2250 C2249 1.334 . S
C2250 C2251 1.287 . S
C2251 C2250 1.287 . S
C2251 C2252 1.524 . S
C2251 H2254 0.999 . S
C2252 H2222 0.950 . S
C2252 C2251 1.524 . S
C2252 C2253 1.415 . S
C2253 H2223 0.950 . S
C2253 C2248 1.363 . S
C2253 C2252 1.415 . S
H2254 C2251 0.999 . S
H2255 C2236 0.913 . S
H2256 C2274 0.951 . S
H2257 C2276 0.951 . S
H2258 C2278 0.950 . S
H2259 C2279 0.950 . S
H2260 C2281 0.950 . S
H2261 C2284 0.950 . S
H2262 C2285 0.950 . S
H2263 C2287 0.950 . S
H2264 C2288 0.950 . S
H2265 C2289 0.951 . S
H2266 C2291 0.951 . S
H2267 C2293 0.950 . S
H2268 C2294 0.950 . S
H2269 C2296 0.950 . S
H2270 C2299 0.950 . S
H2271 C2300 0.950 . S
H2272 C2302 0.950 . S
H2273 C2303 0.950 . S
C2274 H2256 0.951 . S
C2274 C2275 1.366 . S
C2274 C2276 1.388 . S
C2275 C2274 1.366 . S
C2275 C2279 1.385 . S
C2276 H2257 0.951 . S
C2276 C2274 1.388 . S
C2276 C2277 1.366 . S
C2277 C2276 1.366 . S
C2277 C2278 1.414 . S
C2277 C2280 1.499 . S
C2278 H2258 0.950 . S
C2278 C2277 1.414 . S
C2278 C2279 1.374 . S
C2279 H2259 0.950 . S
C2279 C2275 1.385 . S
C2279 C2278 1.374 . S
C2280 C2277 1.499 . S
C2280 C2281 1.373 . S
C2280 C2282 1.389 . S
C2281 H2260 0.950 . S
C2281 C2280 1.373 . S
C2281 C2297 1.377 . S
C2282 C2280 1.389 . S
C2282 C2283 1.524 . S
C2282 C2296 1.377 . S
C2283 C2282 1.524 . S
C2283 C2284 1.397 . S
C2283 C2288 1.363 . S
C2284 H2261 0.950 . S
C2284 C2283 1.397 . S
C2284 C2285 1.334 . S
C2285 H2262 0.950 . S
C2285 C2284 1.334 . S
C2285 C2286 1.287 . S
C2286 C2285 1.287 . S
C2286 C2287 1.524 . S
C2286 H2305 0.913 . S
C2287 H2263 0.950 . S
C2287 C2286 1.524 . S
C2287 C2288 1.415 . S
C2288 H2264 0.950 . S
C2288 C2283 1.363 . S
C2288 C2287 1.415 . S
C2289 H2265 0.951 . S
C2289 C2290 1.366 . S
C2289 C2291 1.388 . S
C2290 C2289 1.366 . S
C2290 C2294 1.385 . S
C2291 H2266 0.951 . S
C2291 C2289 1.388 . S
C2291 C2292 1.366 . S
C2292 C2291 1.366 . S
C2292 C2293 1.414 . S
C2292 C2295 1.499 . S
C2293 H2267 0.950 . S
C2293 C2292 1.414 . S
C2293 C2294 1.374 . S
C2294 H2268 0.950 . S
C2294 C2290 1.385 . S
C2294 C2293 1.374 . S
C2295 C2292 1.499 . S
C2295 C2296 1.373 . S
C2295 C2297 1.389 . S
C2296 H2269 0.950 . S
C2296 C2282 1.377 . S
C2296 C2295 1.373 . S
C2297 C2281 1.377 . S
C2297 C2295 1.389 . S
C2297 C2298 1.524 . S
C2298 C2297 1.524 . S
C2298 C2299 1.397 . S
C2298 C2303 1.363 . S
C2299 H2270 0.950 . S
C2299 C2298 1.397 . S
C2299 C2300 1.334 . S
C2300 H2271 0.950 . S
C2300 C2299 1.334 . S
C2300 C2301 1.287 . S
C2301 C2300 1.287 . S
C2301 C2302 1.524 . S
C2301 H2304 0.999 . S
C2302 H2272 0.950 . S
C2302 C2301 1.524 . S
C2302 C2303 1.415 . S
C2303 H2273 0.950 . S
C2303 C2298 1.363 . S
C2303 C2302 1.415 . S
H2304 C2301 0.999 . S
H2305 C2286 0.913 . S
H2306 C2324 0.951 . S
H2307 C2326 0.951 . S
H2308 C2328 0.950 . S
H2309 C2329 0.950 . S
H2310 C2331 0.950 . S
H2311 C2334 0.950 . S
H2312 C2335 0.950 . S
H2313 C2337 0.950 . S
H2314 C2338 0.950 . S
H2315 C2339 0.951 . S
H2316 C2341 0.951 . S
H2317 C2343 0.950 . S
H2318 C2344 0.950 . S
H2319 C2346 0.950 . S
H2320 C2349 0.950 . S
H2321 C2350 0.950 . S
H2322 C2352 0.950 . S
H2323 C2353 0.950 . S
C2324 H2306 0.951 . S
C2324 C2325 1.366 . S
C2324 C2326 1.388 . S
C2325 C2324 1.366 . S
C2325 C2329 1.385 . S
C2326 H2307 0.951 . S
C2326 C2324 1.388 . S
C2326 C2327 1.366 . S
C2327 C2326 1.366 . S
C2327 C2328 1.414 . S
C2327 C2330 1.499 . S
C2328 H2308 0.950 . S
C2328 C2327 1.414 . S
C2328 C2329 1.374 . S
C2329 H2309 0.950 . S
C2329 C2325 1.385 . S
C2329 C2328 1.374 . S
C2330 C2327 1.499 . S
C2330 C2331 1.373 . S
C2330 C2332 1.389 . S
C2331 H2310 0.950 . S
C2331 C2330 1.373 . S
C2331 C2347 1.377 . S
C2332 C2330 1.389 . S
C2332 C2333 1.524 . S
C2332 C2346 1.377 . S
C2333 C2332 1.524 . S
C2333 C2334 1.397 . S
C2333 C2338 1.363 . S
C2334 H2311 0.950 . S
C2334 C2333 1.397 . S
C2334 C2335 1.334 . S
C2335 H2312 0.950 . S
C2335 C2334 1.334 . S
C2335 C2336 1.287 . S
C2336 C2335 1.287 . S
C2336 C2337 1.524 . S
C2336 H2355 0.913 . S
C2337 H2313 0.950 . S
C2337 C2336 1.524 . S
C2337 C2338 1.415 . S
C2338 H2314 0.950 . S
C2338 C2333 1.363 . S
C2338 C2337 1.415 . S
C2339 H2315 0.951 . S
C2339 C2340 1.366 . S
C2339 C2341 1.388 . S
C2340 C2339 1.366 . S
C2340 C2344 1.385 . S
C2341 H2316 0.951 . S
C2341 C2339 1.388 . S
C2341 C2342 1.366 . S
C2342 C2341 1.366 . S
C2342 C2343 1.414 . S
C2342 C2345 1.499 . S
C2343 H2317 0.950 . S
C2343 C2342 1.414 . S
C2343 C2344 1.374 . S
C2344 H2318 0.950 . S
C2344 C2340 1.385 . S
C2344 C2343 1.374 . S
C2345 C2342 1.499 . S
C2345 C2346 1.373 . S
C2345 C2347 1.389 . S
C2346 H2319 0.950 . S
C2346 C2332 1.377 . S
C2346 C2345 1.373 . S
C2347 C2331 1.377 . S
C2347 C2345 1.389 . S
C2347 C2348 1.524 . S
C2348 C2347 1.524 . S
C2348 C2349 1.397 . S
C2348 C2353 1.363 . S
C2349 H2320 0.950 . S
C2349 C2348 1.397 . S
C2349 C2350 1.334 . S
C2350 H2321 0.950 . S
C2350 C2349 1.334 . S
C2350 C2351 1.287 . S
C2351 C2350 1.287 . S
C2351 C2352 1.524 . S
C2351 H2354 0.999 . S
C2352 H2322 0.950 . S
C2352 C2351 1.524 . S
C2352 C2353 1.415 . S
C2353 H2323 0.950 . S
C2353 C2348 1.363 . S
C2353 C2352 1.415 . S
H2354 C2351 0.999 . S
H2355 C2336 0.913 . S
H2356 C2374 0.951 . S
H2357 C2376 0.951 . S
H2358 C2378 0.950 . S
H2359 C2379 0.950 . S
H2360 C2381 0.950 . S
H2361 C2384 0.950 . S
H2362 C2385 0.950 . S
H2363 C2387 0.950 . S
H2364 C2388 0.950 . S
H2365 C2389 0.951 1_545 S
H2366 C2391 0.951 . S
H2367 C2393 0.950 . S
H2368 C2394 0.950 . S
H2369 C2396 0.950 . S
H2370 C2399 0.950 . S
H2371 C2400 0.950 . S
H2372 C2402 0.950 . S
H2373 C2403 0.950 . S
C2374 H2356 0.951 . S
C2374 C2375 1.366 . S
C2374 C2376 1.388 . S
C2375 C2374 1.366 . S
C2375 C2379 1.385 . S
C2376 H2357 0.951 . S
C2376 C2374 1.388 . S
C2376 C2377 1.366 . S
C2377 C2376 1.366 . S
C2377 C2378 1.414 . S
C2377 C2380 1.499 . S
C2378 H2358 0.950 . S
C2378 C2377 1.414 . S
C2378 C2379 1.374 . S
C2379 H2359 0.950 . S
C2379 C2375 1.385 . S
C2379 C2378 1.374 . S
C2380 C2377 1.499 . S
C2380 C2381 1.373 . S
C2380 C2382 1.389 . S
C2381 H2360 0.950 . S
C2381 C2380 1.373 . S
C2381 C2397 1.377 . S
C2382 C2380 1.389 . S
C2382 C2383 1.524 . S
C2382 C2396 1.377 . S
C2383 C2382 1.524 . S
C2383 C2384 1.397 . S
C2383 C2388 1.363 . S
C2384 H2361 0.950 . S
C2384 C2383 1.397 . S
C2384 C2385 1.334 . S
C2385 H2362 0.950 . S
C2385 C2384 1.334 . S
C2385 C2386 1.287 . S
C2386 C2385 1.287 . S
C2386 C2387 1.524 . S
C2386 H2405 0.913 . S
C2387 H2363 0.950 . S
C2387 C2386 1.524 . S
C2387 C2388 1.415 . S
C2388 H2364 0.950 . S
C2388 C2383 1.363 . S
C2388 C2387 1.415 . S
C2389 H2365 0.951 1_565 S
C2389 C2390 1.366 . S
C2389 C2391 1.388 . S
C2390 C2389 1.366 . S
C2390 C2394 1.385 . S
C2391 H2366 0.951 . S
C2391 C2389 1.388 . S
C2391 C2392 1.366 . S
C2392 C2391 1.366 . S
C2392 C2393 1.414 . S
C2392 C2395 1.499 . S
C2393 H2367 0.950 . S
C2393 C2392 1.414 . S
C2393 C2394 1.374 . S
C2394 H2368 0.950 . S
C2394 C2390 1.385 . S
C2394 C2393 1.374 . S
C2395 C2392 1.499 . S
C2395 C2396 1.373 . S
C2395 C2397 1.389 . S
C2396 H2369 0.950 . S
C2396 C2382 1.377 . S
C2396 C2395 1.373 . S
C2397 C2381 1.377 . S
C2397 C2395 1.389 . S
C2397 C2398 1.524 . S
C2398 C2397 1.524 . S
C2398 C2399 1.397 . S
C2398 C2403 1.363 . S
C2399 H2370 0.950 . S
C2399 C2398 1.397 . S
C2399 C2400 1.334 . S
C2400 H2371 0.950 . S
C2400 C2399 1.334 . S
C2400 C2401 1.287 . S
C2401 C2400 1.287 . S
C2401 C2402 1.524 . S
C2401 H2404 0.999 . S
C2402 H2372 0.950 . S
C2402 C2401 1.524 . S
C2402 C2403 1.415 . S
C2403 H2373 0.950 . S
C2403 C2398 1.363 . S
C2403 C2402 1.415 . S
H2404 C2401 0.999 . S
H2405 C2386 0.913 . S
H2406 C2424 0.951 . S
H2407 C2426 0.951 . S
H2408 C2428 0.950 . S
H2409 C2429 0.950 . S
H2410 C2431 0.950 . S
H2411 C2434 0.950 . S
H2412 C2435 0.950 . S
H2413 C2437 0.950 . S
H2414 C2438 0.950 . S
H2415 C2439 0.951 . S
H2416 C2441 0.951 . S
H2417 C2443 0.950 . S
H2418 C2444 0.950 . S
H2419 C2446 0.950 . S
H2420 C2449 0.950 . S
H2421 C2450 0.950 . S
H2422 C2452 0.950 . S
H2423 C2453 0.950 . S
C2424 H2406 0.951 . S
C2424 C2425 1.366 . S
C2424 C2426 1.388 . S
C2425 C2424 1.366 . S
C2425 C2429 1.385 . S
C2426 H2407 0.951 . S
C2426 C2424 1.388 . S
C2426 C2427 1.366 . S
C2427 C2426 1.366 . S
C2427 C2428 1.414 . S
C2427 C2430 1.499 . S
C2428 H2408 0.950 . S
C2428 C2427 1.414 . S
C2428 C2429 1.374 . S
C2429 H2409 0.950 . S
C2429 C2425 1.385 . S
C2429 C2428 1.374 . S
C2430 C2427 1.499 . S
C2430 C2431 1.373 . S
C2430 C2432 1.389 . S
C2431 H2410 0.950 . S
C2431 C2430 1.373 . S
C2431 C2447 1.377 . S
C2432 C2430 1.389 . S
C2432 C2433 1.524 . S
C2432 C2446 1.377 . S
C2433 C2432 1.524 . S
C2433 C2434 1.397 . S
C2433 C2438 1.363 . S
C2434 H2411 0.950 . S
C2434 C2433 1.397 . S
C2434 C2435 1.334 . S
C2435 H2412 0.950 . S
C2435 C2434 1.334 . S
C2435 C2436 1.287 . S
C2436 C2435 1.287 . S
C2436 C2437 1.524 . S
C2436 H2455 0.913 . S
C2437 H2413 0.950 . S
C2437 C2436 1.524 . S
C2437 C2438 1.415 . S
C2438 H2414 0.950 . S
C2438 C2433 1.363 . S
C2438 C2437 1.415 . S
C2439 H2415 0.951 . S
C2439 C2440 1.366 . S
C2439 C2441 1.388 . S
C2440 C2439 1.366 . S
C2440 C2444 1.385 . S
C2441 H2416 0.951 . S
C2441 C2439 1.388 . S
C2441 C2442 1.366 . S
C2442 C2441 1.366 . S
C2442 C2443 1.414 . S
C2442 C2445 1.499 . S
C2443 H2417 0.950 . S
C2443 C2442 1.414 . S
C2443 C2444 1.374 . S
C2444 H2418 0.950 . S
C2444 C2440 1.385 . S
C2444 C2443 1.374 . S
C2445 C2442 1.499 . S
C2445 C2446 1.373 . S
C2445 C2447 1.389 . S
C2446 H2419 0.950 . S
C2446 C2432 1.377 . S
C2446 C2445 1.373 . S
C2447 C2431 1.377 . S
C2447 C2445 1.389 . S
C2447 C2448 1.524 . S
C2448 C2447 1.524 . S
C2448 C2449 1.397 . S
C2448 C2453 1.363 . S
C2449 H2420 0.950 . S
C2449 C2448 1.397 . S
C2449 C2450 1.334 . S
C2450 H2421 0.950 . S
C2450 C2449 1.334 . S
C2450 C2451 1.287 . S
C2451 C2450 1.287 . S
C2451 C2452 1.524 . S
C2451 H2454 0.999 . S
C2452 H2422 0.950 . S
C2452 C2451 1.524 . S
C2452 C2453 1.415 . S
C2453 H2423 0.950 . S
C2453 C2448 1.363 . S
C2453 C2452 1.415 . S
H2454 C2451 0.999 . S
H2455 C2436 0.913 . S
H2456 C2474 0.951 . S
H2457 C2476 0.951 . S
H2458 C2478 0.950 . S
H2459 C2479 0.950 . S
H2460 C2481 0.950 . S
H2461 C2484 0.950 . S
H2462 C2485 0.950 . S
H2463 C2487 0.950 . S
H2464 C2488 0.950 . S
H2465 C2489 0.951 . S
H2466 C2491 0.951 . S
H2467 C2493 0.950 . S
H2468 C2494 0.950 . S
H2469 C2496 0.950 . S
H2470 C2499 0.950 . S
H2471 C2500 0.950 . S
H2472 C2502 0.950 . S
H2473 C2503 0.950 . S
C2474 H2456 0.951 . S
C2474 C2475 1.366 . S
C2474 C2476 1.388 . S
C2475 C2474 1.366 . S
C2475 C2479 1.385 . S
C2476 H2457 0.951 . S
C2476 C2474 1.388 . S
C2476 C2477 1.366 . S
C2477 C2476 1.366 . S
C2477 C2478 1.414 . S
C2477 C2480 1.499 . S
C2478 H2458 0.950 . S
C2478 C2477 1.414 . S
C2478 C2479 1.374 . S
C2479 H2459 0.950 . S
C2479 C2475 1.385 . S
C2479 C2478 1.374 . S
C2480 C2477 1.499 . S
C2480 C2481 1.373 . S
C2480 C2482 1.389 . S
C2481 H2460 0.950 . S
C2481 C2480 1.373 . S
C2481 C2497 1.377 . S
C2482 C2480 1.389 . S
C2482 C2483 1.524 . S
C2482 C2496 1.377 . S
C2483 C2482 1.524 . S
C2483 C2484 1.397 . S
C2483 C2488 1.363 . S
C2484 H2461 0.950 . S
C2484 C2483 1.397 . S
C2484 C2485 1.334 . S
C2485 H2462 0.950 . S
C2485 C2484 1.334 . S
C2485 C2486 1.287 . S
C2486 C2485 1.287 . S
C2486 C2487 1.524 . S
C2486 H2505 0.913 . S
C2487 H2463 0.950 . S
C2487 C2486 1.524 . S
C2487 C2488 1.415 . S
C2488 H2464 0.950 . S
C2488 C2483 1.363 . S
C2488 C2487 1.415 . S
C2489 H2465 0.951 . S
C2489 C2490 1.366 . S
C2489 C2491 1.388 . S
C2490 C2489 1.366 . S
C2490 C2494 1.385 . S
C2491 H2466 0.951 . S
C2491 C2489 1.388 . S
C2491 C2492 1.366 . S
C2492 C2491 1.366 . S
C2492 C2493 1.414 . S
C2492 C2495 1.499 . S
C2493 H2467 0.950 . S
C2493 C2492 1.414 . S
C2493 C2494 1.374 . S
C2494 H2468 0.950 . S
C2494 C2490 1.385 . S
C2494 C2493 1.374 . S
C2495 C2492 1.499 . S
C2495 C2496 1.373 . S
C2495 C2497 1.389 . S
C2496 H2469 0.950 . S
C2496 C2482 1.377 . S
C2496 C2495 1.373 . S
C2497 C2481 1.377 . S
C2497 C2495 1.389 . S
C2497 C2498 1.524 . S
C2498 C2497 1.524 . S
C2498 C2499 1.397 . S
C2498 C2503 1.363 . S
C2499 H2470 0.950 . S
C2499 C2498 1.397 . S
C2499 C2500 1.334 . S
C2500 H2471 0.950 . S
C2500 C2499 1.334 . S
C2500 C2501 1.287 . S
C2501 C2500 1.287 . S
C2501 C2502 1.524 . S
C2501 H2504 0.999 . S
C2502 H2472 0.950 . S
C2502 C2501 1.524 . S
C2502 C2503 1.415 . S
C2503 H2473 0.950 . S
C2503 C2498 1.363 . S
C2503 C2502 1.415 . S
H2504 C2501 0.999 . S
H2505 C2486 0.913 . S
H2506 C2524 0.951 . S
H2507 C2526 0.951 . S
H2508 C2528 0.950 . S
H2509 C2529 0.950 . S
H2510 C2531 0.950 . S
H2511 C2534 0.950 . S
H2512 C2535 0.950 . S
H2513 C2537 0.950 . S
H2514 C2538 0.950 . S
H2515 C2539 0.951 . S
H2516 C2541 0.951 . S
H2517 C2543 0.950 . S
H2518 C2544 0.950 . S
H2519 C2546 0.950 . S
H2520 C2549 0.950 . S
H2521 C2550 0.950 . S
H2522 C2552 0.950 . S
H2523 C2553 0.950 . S
C2524 H2506 0.951 . S
C2524 C2525 1.366 . S
C2524 C2526 1.388 . S
C2525 C2524 1.366 . S
C2525 C2529 1.385 . S
C2526 H2507 0.951 . S
C2526 C2524 1.388 . S
C2526 C2527 1.366 . S
C2527 C2526 1.366 . S
C2527 C2528 1.414 . S
C2527 C2530 1.499 . S
C2528 H2508 0.950 . S
C2528 C2527 1.414 . S
C2528 C2529 1.374 . S
C2529 H2509 0.950 . S
C2529 C2525 1.385 . S
C2529 C2528 1.374 . S
C2530 C2527 1.499 . S
C2530 C2531 1.373 . S
C2530 C2532 1.389 . S
C2531 H2510 0.950 . S
C2531 C2530 1.373 . S
C2531 C2547 1.377 . S
C2532 C2530 1.389 . S
C2532 C2533 1.524 . S
C2532 C2546 1.377 . S
C2533 C2532 1.524 . S
C2533 C2534 1.397 . S
C2533 C2538 1.363 . S
C2534 H2511 0.950 . S
C2534 C2533 1.397 . S
C2534 C2535 1.334 . S
C2535 H2512 0.950 . S
C2535 C2534 1.334 . S
C2535 C2536 1.287 . S
C2536 C2535 1.287 . S
C2536 C2537 1.524 . S
C2536 H2555 0.913 . S
C2537 H2513 0.950 . S
C2537 C2536 1.524 . S
C2537 C2538 1.415 . S
C2538 H2514 0.950 . S
C2538 C2533 1.363 . S
C2538 C2537 1.415 . S
C2539 H2515 0.951 . S
C2539 C2540 1.366 . S
C2539 C2541 1.388 . S
C2540 C2539 1.366 . S
C2540 C2544 1.385 . S
C2541 H2516 0.951 . S
C2541 C2539 1.388 . S
C2541 C2542 1.366 . S
C2542 C2541 1.366 . S
C2542 C2543 1.414 . S
C2542 C2545 1.499 . S
C2543 H2517 0.950 . S
C2543 C2542 1.414 . S
C2543 C2544 1.374 . S
C2544 H2518 0.950 . S
C2544 C2540 1.385 . S
C2544 C2543 1.374 . S
C2545 C2542 1.499 . S
C2545 C2546 1.373 . S
C2545 C2547 1.389 . S
C2546 H2519 0.950 . S
C2546 C2532 1.377 . S
C2546 C2545 1.373 . S
C2547 C2531 1.377 . S
C2547 C2545 1.389 . S
C2547 C2548 1.524 . S
C2548 C2547 1.524 . S
C2548 C2549 1.397 . S
C2548 C2553 1.363 . S
C2549 H2520 0.950 . S
C2549 C2548 1.397 . S
C2549 C2550 1.334 . S
C2550 H2521 0.950 . S
C2550 C2549 1.334 . S
C2550 C2551 1.287 . S
C2551 C2550 1.287 . S
C2551 C2552 1.524 . S
C2551 H2554 0.999 . S
C2552 H2522 0.950 . S
C2552 C2551 1.524 . S
C2552 C2553 1.415 . S
C2553 H2523 0.950 . S
C2553 C2548 1.363 . S
C2553 C2552 1.415 . S
H2554 C2551 0.999 . S
H2555 C2536 0.913 . S
H2556 C2574 0.951 . S
H2557 C2576 0.951 . S
H2558 C2578 0.950 . S
H2559 C2579 0.950 . S
H2560 C2581 0.950 . S
H2561 C2584 0.950 . S
H2562 C2585 0.950 . S
H2563 C2587 0.950 . S
H2564 C2588 0.950 . S
H2565 C2589 0.951 . S
H2566 C2591 0.951 . S
H2567 C2593 0.950 . S
H2568 C2594 0.950 . S
H2569 C2596 0.950 . S
H2570 C2599 0.950 . S
H2571 C2600 0.950 . S
H2572 C2602 0.950 . S
H2573 C2603 0.950 . S
C2574 H2556 0.951 . S
C2574 C2575 1.366 . S
C2574 C2576 1.388 . S
C2575 C2574 1.366 . S
C2575 C2579 1.385 . S
C2576 H2557 0.951 . S
C2576 C2574 1.388 . S
C2576 C2577 1.366 . S
C2577 C2576 1.366 . S
C2577 C2578 1.414 . S
C2577 C2580 1.499 . S
C2578 H2558 0.950 . S
C2578 C2577 1.414 . S
C2578 C2579 1.374 . S
C2579 H2559 0.950 . S
C2579 C2575 1.385 . S
C2579 C2578 1.374 . S
C2580 C2577 1.499 . S
C2580 C2581 1.373 . S
C2580 C2582 1.389 . S
C2581 H2560 0.950 . S
C2581 C2580 1.373 . S
C2581 C2597 1.377 . S
C2582 C2580 1.389 . S
C2582 C2583 1.524 . S
C2582 C2596 1.377 . S
C2583 C2582 1.524 . S
C2583 C2584 1.397 . S
C2583 C2588 1.363 . S
C2584 H2561 0.950 . S
C2584 C2583 1.397 . S
C2584 C2585 1.334 . S
C2585 H2562 0.950 . S
C2585 C2584 1.334 . S
C2585 C2586 1.287 . S
C2586 C2585 1.287 . S
C2586 C2587 1.524 . S
C2586 H2605 0.913 . S
C2587 H2563 0.950 . S
C2587 C2586 1.524 . S
C2587 C2588 1.415 . S
C2588 H2564 0.950 . S
C2588 C2583 1.363 . S
C2588 C2587 1.415 . S
C2589 H2565 0.951 . S
C2589 C2590 1.366 . S
C2589 C2591 1.388 . S
C2590 C2589 1.366 . S
C2590 C2594 1.385 . S
C2591 H2566 0.951 . S
C2591 C2589 1.388 . S
C2591 C2592 1.366 . S
C2592 C2591 1.366 . S
C2592 C2593 1.414 . S
C2592 C2595 1.499 . S
C2593 H2567 0.950 . S
C2593 C2592 1.414 . S
C2593 C2594 1.374 . S
C2594 H2568 0.950 . S
C2594 C2590 1.385 . S
C2594 C2593 1.374 . S
C2595 C2592 1.499 . S
C2595 C2596 1.373 . S
C2595 C2597 1.389 . S
C2596 H2569 0.950 . S
C2596 C2582 1.377 . S
C2596 C2595 1.373 . S
C2597 C2581 1.377 . S
C2597 C2595 1.389 . S
C2597 C2598 1.524 . S
C2598 C2597 1.524 . S
C2598 C2599 1.397 . S
C2598 C2603 1.363 . S
C2599 H2570 0.950 . S
C2599 C2598 1.397 . S
C2599 C2600 1.334 . S
C2600 H2571 0.950 . S
C2600 C2599 1.334 . S
C2600 C2601 1.287 . S
C2601 C2600 1.287 . S
C2601 C2602 1.524 . S
C2601 H2604 0.999 . S
C2602 H2572 0.950 . S
C2602 C2601 1.524 . S
C2602 C2603 1.415 . S
C2603 H2573 0.950 . S
C2603 C2598 1.363 . S
C2603 C2602 1.415 . S
H2604 C2601 0.999 . S
H2605 C2586 0.913 . S
H2606 C2624 0.951 . S
H2607 C2626 0.951 . S
H2608 C2628 0.950 . S
H2609 C2629 0.950 . S
H2610 C2631 0.950 . S
H2611 C2634 0.950 . S
H2612 C2635 0.950 . S
H2613 C2637 0.950 . S
H2614 C2638 0.950 . S
H2615 C2639 0.951 . S
H2616 C2641 0.951 . S
H2617 C2643 0.950 . S
H2618 C2644 0.950 . S
H2619 C2646 0.950 . S
H2620 C2649 0.950 . S
H2621 C2650 0.950 . S
H2622 C2652 0.950 . S
H2623 C2653 0.950 . S
C2624 H2606 0.951 . S
C2624 C2625 1.366 . S
C2624 C2626 1.388 . S
C2625 C2624 1.366 . S
C2625 C2629 1.385 . S
C2626 H2607 0.951 . S
C2626 C2624 1.388 . S
C2626 C2627 1.366 . S
C2627 C2626 1.366 . S
C2627 C2628 1.414 . S
C2627 C2630 1.499 . S
C2628 H2608 0.950 . S
C2628 C2627 1.414 . S
C2628 C2629 1.374 . S
C2629 H2609 0.950 . S
C2629 C2625 1.385 . S
C2629 C2628 1.374 . S
C2630 C2627 1.499 . S
C2630 C2631 1.373 . S
C2630 C2632 1.389 . S
C2631 H2610 0.950 . S
C2631 C2630 1.373 . S
C2631 C2647 1.377 . S
C2632 C2630 1.389 . S
C2632 C2633 1.524 . S
C2632 C2646 1.377 . S
C2633 C2632 1.524 . S
C2633 C2634 1.397 . S
C2633 C2638 1.363 . S
C2634 H2611 0.950 . S
C2634 C2633 1.397 . S
C2634 C2635 1.334 . S
C2635 H2612 0.950 . S
C2635 C2634 1.334 . S
C2635 C2636 1.287 . S
C2636 C2635 1.287 . S
C2636 C2637 1.524 . S
C2636 H2655 0.913 . S
C2637 H2613 0.950 . S
C2637 C2636 1.524 . S
C2637 C2638 1.415 . S
C2638 H2614 0.950 . S
C2638 C2633 1.363 . S
C2638 C2637 1.415 . S
C2639 H2615 0.951 . S
C2639 C2640 1.366 . S
C2639 C2641 1.388 . S
C2640 C2639 1.366 . S
C2640 C2644 1.385 . S
C2641 H2616 0.951 . S
C2641 C2639 1.388 . S
C2641 C2642 1.366 . S
C2642 C2641 1.366 . S
C2642 C2643 1.414 . S
C2642 C2645 1.499 . S
C2643 H2617 0.950 . S
C2643 C2642 1.414 . S
C2643 C2644 1.374 . S
C2644 H2618 0.950 . S
C2644 C2640 1.385 . S
C2644 C2643 1.374 . S
C2645 C2642 1.499 . S
C2645 C2646 1.373 . S
C2645 C2647 1.389 . S
C2646 H2619 0.950 . S
C2646 C2632 1.377 . S
C2646 C2645 1.373 . S
C2647 C2631 1.377 . S
C2647 C2645 1.389 . S
C2647 C2648 1.524 . S
C2648 C2647 1.524 . S
C2648 C2649 1.397 . S
C2648 C2653 1.363 . S
C2649 H2620 0.950 . S
C2649 C2648 1.397 . S
C2649 C2650 1.334 . S
C2650 H2621 0.950 . S
C2650 C2649 1.334 . S
C2650 C2651 1.287 . S
C2651 C2650 1.287 . S
C2651 C2652 1.524 . S
C2651 H2654 0.999 1_655 S
C2652 H2622 0.950 . S
C2652 C2651 1.524 . S
C2652 C2653 1.415 . S
C2653 H2623 0.950 . S
C2653 C2648 1.363 . S
C2653 C2652 1.415 . S
H2654 C2651 0.999 1_455 S
H2655 C2636 0.913 . S
H2656 C2674 0.951 . S
H2657 C2676 0.951 . S
H2658 C2678 0.950 . S
H2659 C2679 0.950 . S
H2660 C2681 0.950 . S
H2661 C2684 0.950 . S
H2662 C2685 0.950 . S
H2663 C2687 0.950 . S
H2664 C2688 0.950 . S
H2665 C2689 0.951 . S
H2666 C2691 0.951 . S
H2667 C2693 0.950 . S
H2668 C2694 0.950 1_545 S
H2669 C2696 0.950 . S
H2670 C2699 0.950 . S
H2671 C2700 0.950 . S
H2672 C2702 0.950 . S
H2673 C2703 0.950 . S
C2674 H2656 0.951 . S
C2674 C2675 1.366 . S
C2674 C2676 1.388 . S
C2675 C2674 1.366 . S
C2675 C2679 1.385 . S
C2676 H2657 0.951 . S
C2676 C2674 1.388 . S
C2676 C2677 1.366 . S
C2677 C2676 1.366 . S
C2677 C2678 1.414 . S
C2677 C2680 1.499 . S
C2678 H2658 0.950 . S
C2678 C2677 1.414 . S
C2678 C2679 1.374 . S
C2679 H2659 0.950 . S
C2679 C2675 1.385 . S
C2679 C2678 1.374 . S
C2680 C2677 1.499 . S
C2680 C2681 1.373 . S
C2680 C2682 1.389 . S
C2681 H2660 0.950 . S
C2681 C2680 1.373 . S
C2681 C2697 1.377 . S
C2682 C2680 1.389 . S
C2682 C2683 1.524 . S
C2682 C2696 1.377 . S
C2683 C2682 1.524 . S
C2683 C2684 1.397 . S
C2683 C2688 1.363 . S
C2684 H2661 0.950 . S
C2684 C2683 1.397 . S
C2684 C2685 1.334 . S
C2685 H2662 0.950 . S
C2685 C2684 1.334 . S
C2685 C2686 1.287 . S
C2686 C2685 1.287 . S
C2686 C2687 1.524 . S
C2686 H2705 0.913 . S
C2687 H2663 0.950 . S
C2687 C2686 1.524 . S
C2687 C2688 1.415 . S
C2688 H2664 0.950 . S
C2688 C2683 1.363 . S
C2688 C2687 1.415 . S
C2689 H2665 0.951 . S
C2689 C2690 1.366 . S
C2689 C2691 1.388 . S
C2690 C2689 1.366 . S
C2690 C2694 1.385 . S
C2691 H2666 0.951 . S
C2691 C2689 1.388 . S
C2691 C2692 1.366 . S
C2692 C2691 1.366 . S
C2692 C2693 1.414 . S
C2692 C2695 1.499 . S
C2693 H2667 0.950 . S
C2693 C2692 1.414 . S
C2693 C2694 1.374 . S
C2694 H2668 0.950 1_565 S
C2694 C2690 1.385 . S
C2694 C2693 1.374 . S
C2695 C2692 1.499 . S
C2695 C2696 1.373 . S
C2695 C2697 1.389 . S
C2696 H2669 0.950 . S
C2696 C2682 1.377 . S
C2696 C2695 1.373 . S
C2697 C2681 1.377 . S
C2697 C2695 1.389 . S
C2697 C2698 1.524 . S
C2698 C2697 1.524 . S
C2698 C2699 1.397 . S
C2698 C2703 1.363 . S
C2699 H2670 0.950 . S
C2699 C2698 1.397 . S
C2699 C2700 1.334 . S
C2700 H2671 0.950 . S
C2700 C2699 1.334 . S
C2700 C2701 1.287 . S
C2701 C2700 1.287 . S
C2701 C2702 1.524 . S
C2701 H2704 0.999 . S
C2702 H2672 0.950 . S
C2702 C2701 1.524 . S
C2702 C2703 1.415 . S
C2703 H2673 0.950 . S
C2703 C2698 1.363 . S
C2703 C2702 1.415 . S
H2704 C2701 0.999 . S
H2705 C2686 0.913 . S
H2706 C2724 0.951 . S
H2707 C2726 0.951 . S
H2708 C2728 0.950 . S
H2709 C2729 0.950 . S
H2710 C2731 0.950 . S
H2711 C2734 0.950 . S
H2712 C2735 0.950 . S
H2713 C2737 0.950 . S
H2714 C2738 0.950 . S
H2715 C2739 0.951 . S
H2716 C2741 0.951 . S
H2717 C2743 0.950 . S
H2718 C2744 0.950 . S
H2719 C2746 0.950 . S
H2720 C2749 0.950 . S
H2721 C2750 0.950 . S
H2722 C2752 0.950 . S
H2723 C2753 0.950 . S
C2724 H2706 0.951 . S
C2724 C2725 1.366 . S
C2724 C2726 1.388 . S
C2725 C2724 1.366 . S
C2725 C2729 1.385 . S
C2726 H2707 0.951 . S
C2726 C2724 1.388 . S
C2726 C2727 1.366 . S
C2727 C2726 1.366 . S
C2727 C2728 1.414 . S
C2727 C2730 1.499 . S
C2728 H2708 0.950 . S
C2728 C2727 1.414 . S
C2728 C2729 1.374 . S
C2729 H2709 0.950 . S
C2729 C2725 1.385 . S
C2729 C2728 1.374 . S
C2730 C2727 1.499 . S
C2730 C2731 1.373 . S
C2730 C2732 1.389 . S
C2731 H2710 0.950 . S
C2731 C2730 1.373 . S
C2731 C2747 1.377 . S
C2732 C2730 1.389 . S
C2732 C2733 1.524 . S
C2732 C2746 1.377 . S
C2733 C2732 1.524 . S
C2733 C2734 1.397 . S
C2733 C2738 1.363 . S
C2734 H2711 0.950 . S
C2734 C2733 1.397 . S
C2734 C2735 1.334 . S
C2735 H2712 0.950 . S
C2735 C2734 1.334 . S
C2735 C2736 1.287 . S
C2736 C2735 1.287 . S
C2736 C2737 1.524 . S
C2736 H2755 0.913 . S
C2737 H2713 0.950 . S
C2737 C2736 1.524 . S
C2737 C2738 1.415 . S
C2738 H2714 0.950 . S
C2738 C2733 1.363 . S
C2738 C2737 1.415 . S
C2739 H2715 0.951 . S
C2739 C2740 1.366 . S
C2739 C2741 1.388 . S
C2740 C2739 1.366 . S
C2740 C2744 1.385 . S
C2741 H2716 0.951 . S
C2741 C2739 1.388 . S
C2741 C2742 1.366 . S
C2742 C2741 1.366 . S
C2742 C2743 1.414 . S
C2742 C2745 1.499 . S
C2743 H2717 0.950 . S
C2743 C2742 1.414 . S
C2743 C2744 1.374 . S
C2744 H2718 0.950 . S
C2744 C2740 1.385 . S
C2744 C2743 1.374 . S
C2745 C2742 1.499 . S
C2745 C2746 1.373 . S
C2745 C2747 1.389 . S
C2746 H2719 0.950 . S
C2746 C2732 1.377 . S
C2746 C2745 1.373 . S
C2747 C2731 1.377 . S
C2747 C2745 1.389 . S
C2747 C2748 1.524 . S
C2748 C2747 1.524 . S
C2748 C2749 1.397 . S
C2748 C2753 1.363 . S
C2749 H2720 0.950 . S
C2749 C2748 1.397 . S
C2749 C2750 1.334 . S
C2750 H2721 0.950 . S
C2750 C2749 1.334 . S
C2750 C2751 1.287 . S
C2751 C2750 1.287 . S
C2751 C2752 1.524 . S
C2751 H2754 0.999 . S
C2752 H2722 0.950 . S
C2752 C2751 1.524 . S
C2752 C2753 1.415 . S
C2753 H2723 0.950 . S
C2753 C2748 1.363 . S
C2753 C2752 1.415 . S
H2754 C2751 0.999 . S
H2755 C2736 0.913 . S
H2756 C2774 0.951 . S
H2757 C2776 0.951 . S
H2758 C2778 0.950 . S
H2759 C2779 0.950 . S
H2760 C2781 0.950 . S
H2761 C2784 0.950 . S
H2762 C2785 0.950 . S
H2763 C2787 0.950 . S
H2764 C2788 0.950 . S
H2765 C2789 0.951 . S
H2766 C2791 0.951 . S
H2767 C2793 0.950 . S
H2768 C2794 0.950 . S
H2769 C2796 0.950 . S
H2770 C2799 0.950 . S
H2771 C2800 0.950 . S
H2772 C2802 0.950 . S
H2773 C2803 0.950 . S
C2774 H2756 0.951 . S
C2774 C2775 1.366 . S
C2774 C2776 1.388 . S
C2775 C2774 1.366 . S
C2775 C2779 1.385 . S
C2776 H2757 0.951 . S
C2776 C2774 1.388 . S
C2776 C2777 1.366 . S
C2777 C2776 1.366 . S
C2777 C2778 1.414 . S
C2777 C2780 1.499 . S
C2778 H2758 0.950 . S
C2778 C2777 1.414 . S
C2778 C2779 1.374 . S
C2779 H2759 0.950 . S
C2779 C2775 1.385 . S
C2779 C2778 1.374 . S
C2780 C2777 1.499 . S
C2780 C2781 1.373 . S
C2780 C2782 1.389 . S
C2781 H2760 0.950 . S
C2781 C2780 1.373 . S
C2781 C2797 1.377 . S
C2782 C2780 1.389 . S
C2782 C2783 1.524 . S
C2782 C2796 1.377 . S
C2783 C2782 1.524 . S
C2783 C2784 1.397 . S
C2783 C2788 1.363 . S
C2784 H2761 0.950 . S
C2784 C2783 1.397 . S
C2784 C2785 1.334 . S
C2785 H2762 0.950 . S
C2785 C2784 1.334 . S
C2785 C2786 1.287 . S
C2786 C2785 1.287 . S
C2786 C2787 1.524 . S
C2786 H2805 0.913 . S
C2787 H2763 0.950 . S
C2787 C2786 1.524 . S
C2787 C2788 1.415 . S
C2788 H2764 0.950 . S
C2788 C2783 1.363 . S
C2788 C2787 1.415 . S
C2789 H2765 0.951 . S
C2789 C2790 1.366 . S
C2789 C2791 1.388 . S
C2790 C2789 1.366 . S
C2790 C2794 1.385 . S
C2791 H2766 0.951 . S
C2791 C2789 1.388 . S
C2791 C2792 1.366 . S
C2792 C2791 1.366 . S
C2792 C2793 1.414 . S
C2792 C2795 1.499 . S
C2793 H2767 0.950 . S
C2793 C2792 1.414 . S
C2793 C2794 1.374 . S
C2794 H2768 0.950 . S
C2794 C2790 1.385 . S
C2794 C2793 1.374 . S
C2795 C2792 1.499 . S
C2795 C2796 1.373 . S
C2795 C2797 1.389 . S
C2796 H2769 0.950 . S
C2796 C2782 1.377 . S
C2796 C2795 1.373 . S
C2797 C2781 1.377 . S
C2797 C2795 1.389 . S
C2797 C2798 1.524 . S
C2798 C2797 1.524 . S
C2798 C2799 1.397 . S
C2798 C2803 1.363 . S
C2799 H2770 0.950 . S
C2799 C2798 1.397 . S
C2799 C2800 1.334 . S
C2800 H2771 0.950 . S
C2800 C2799 1.334 . S
C2800 C2801 1.287 . S
C2801 C2800 1.287 . S
C2801 C2802 1.524 . S
C2801 H2804 0.999 . S
C2802 H2772 0.950 . S
C2802 C2801 1.524 . S
C2802 C2803 1.415 . S
C2803 H2773 0.950 . S
C2803 C2798 1.363 . S
C2803 C2802 1.415 . S
H2804 C2801 0.999 . S
H2805 C2786 0.913 . S
H2806 C2824 0.951 . S
H2807 C2826 0.951 . S
H2808 C2828 0.950 . S
H2809 C2829 0.950 . S
H2810 C2831 0.950 . S
H2811 C2834 0.950 . S
H2812 C2835 0.950 . S
H2813 C2837 0.950 . S
H2814 C2838 0.950 . S
H2815 C2839 0.951 . S
H2816 C2841 0.951 . S
H2817 C2843 0.950 . S
H2818 C2844 0.950 . S
H2819 C2846 0.950 . S
H2820 C2849 0.950 . S
H2821 C2850 0.950 . S
H2822 C2852 0.950 . S
H2823 C2853 0.950 . S
C2824 H2806 0.951 . S
C2824 C2825 1.366 . S
C2824 C2826 1.388 . S
C2825 C2824 1.366 . S
C2825 C2829 1.385 . S
C2826 H2807 0.951 . S
C2826 C2824 1.388 . S
C2826 C2827 1.366 . S
C2827 C2826 1.366 . S
C2827 C2828 1.414 . S
C2827 C2830 1.499 . S
C2828 H2808 0.950 . S
C2828 C2827 1.414 . S
C2828 C2829 1.374 . S
C2829 H2809 0.950 . S
C2829 C2825 1.385 . S
C2829 C2828 1.374 . S
C2830 C2827 1.499 . S
C2830 C2831 1.373 . S
C2830 C2832 1.389 . S
C2831 H2810 0.950 . S
C2831 C2830 1.373 . S
C2831 C2847 1.377 . S
C2832 C2830 1.389 . S
C2832 C2833 1.524 . S
C2832 C2846 1.377 . S
C2833 C2832 1.524 . S
C2833 C2834 1.397 . S
C2833 C2838 1.363 . S
C2834 H2811 0.950 . S
C2834 C2833 1.397 . S
C2834 C2835 1.334 . S
C2835 H2812 0.950 . S
C2835 C2834 1.334 . S
C2835 C2836 1.287 . S
C2836 C2835 1.287 . S
C2836 C2837 1.524 . S
C2836 H2855 0.913 . S
C2837 H2813 0.950 . S
C2837 C2836 1.524 . S
C2837 C2838 1.415 . S
C2838 H2814 0.950 . S
C2838 C2833 1.363 . S
C2838 C2837 1.415 . S
C2839 H2815 0.951 . S
C2839 C2840 1.366 . S
C2839 C2841 1.388 . S
C2840 C2839 1.366 . S
C2840 C2844 1.385 . S
C2841 H2816 0.951 . S
C2841 C2839 1.388 . S
C2841 C2842 1.366 . S
C2842 C2841 1.366 . S
C2842 C2843 1.414 . S
C2842 C2845 1.499 . S
C2843 H2817 0.950 . S
C2843 C2842 1.414 . S
C2843 C2844 1.374 . S
C2844 H2818 0.950 . S
C2844 C2840 1.385 . S
C2844 C2843 1.374 . S
C2845 C2842 1.499 . S
C2845 C2846 1.373 . S
C2845 C2847 1.389 . S
C2846 H2819 0.950 . S
C2846 C2832 1.377 . S
C2846 C2845 1.373 . S
C2847 C2831 1.377 . S
C2847 C2845 1.389 . S
C2847 C2848 1.524 . S
C2848 C2847 1.524 . S
C2848 C2849 1.397 . S
C2848 C2853 1.363 . S
C2849 H2820 0.950 . S
C2849 C2848 1.397 . S
C2849 C2850 1.334 . S
C2850 H2821 0.950 . S
C2850 C2849 1.334 . S
C2850 C2851 1.287 . S
C2851 C2850 1.287 . S
C2851 C2852 1.524 . S
C2851 H2854 0.999 . S
C2852 H2822 0.950 . S
C2852 C2851 1.524 . S
C2852 C2853 1.415 . S
C2853 H2823 0.950 . S
C2853 C2848 1.363 . S
C2853 C2852 1.415 . S
H2854 C2851 0.999 . S
H2855 C2836 0.913 . S
H2856 C2874 0.951 . S
H2857 C2876 0.951 . S
H2858 C2878 0.950 . S
H2859 C2879 0.950 . S
H2860 C2881 0.950 . S
H2861 C2884 0.950 . S
H2862 C2885 0.950 . S
H2863 C2887 0.950 . S
H2864 C2888 0.950 . S
H2865 C2889 0.951 . S
H2866 C2891 0.951 . S
H2867 C2893 0.950 . S
H2868 C2894 0.950 . S
H2869 C2896 0.950 . S
H2870 C2899 0.950 . S
H2871 C2900 0.950 . S
H2872 C2902 0.950 . S
H2873 C2903 0.950 . S
C2874 H2856 0.951 . S
C2874 C2875 1.366 . S
C2874 C2876 1.388 . S
C2875 C2874 1.366 . S
C2875 C2879 1.385 . S
C2876 H2857 0.951 . S
C2876 C2874 1.388 . S
C2876 C2877 1.366 . S
C2877 C2876 1.366 . S
C2877 C2878 1.414 . S
C2877 C2880 1.499 . S
C2878 H2858 0.950 . S
C2878 C2877 1.414 . S
C2878 C2879 1.374 . S
C2879 H2859 0.950 . S
C2879 C2875 1.385 . S
C2879 C2878 1.374 . S
C2880 C2877 1.499 . S
C2880 C2881 1.373 . S
C2880 C2882 1.389 . S
C2881 H2860 0.950 . S
C2881 C2880 1.373 . S
C2881 C2897 1.377 . S
C2882 C2880 1.389 . S
C2882 C2883 1.524 . S
C2882 C2896 1.377 . S
C2883 C2882 1.524 . S
C2883 C2884 1.397 . S
C2883 C2888 1.363 . S
C2884 H2861 0.950 . S
C2884 C2883 1.397 . S
C2884 C2885 1.334 . S
C2885 H2862 0.950 . S
C2885 C2884 1.334 . S
C2885 C2886 1.287 . S
C2886 C2885 1.287 . S
C2886 C2887 1.524 . S
C2886 H2905 0.913 . S
C2887 H2863 0.950 . S
C2887 C2886 1.524 . S
C2887 C2888 1.415 . S
C2888 H2864 0.950 . S
C2888 C2883 1.363 . S
C2888 C2887 1.415 . S
C2889 H2865 0.951 . S
C2889 C2890 1.366 . S
C2889 C2891 1.388 . S
C2890 C2889 1.366 . S
C2890 C2894 1.385 . S
C2891 H2866 0.951 . S
C2891 C2889 1.388 . S
C2891 C2892 1.366 . S
C2892 C2891 1.366 . S
C2892 C2893 1.414 . S
C2892 C2895 1.499 . S
C2893 H2867 0.950 . S
C2893 C2892 1.414 . S
C2893 C2894 1.374 . S
C2894 H2868 0.950 . S
C2894 C2890 1.385 . S
C2894 C2893 1.374 . S
C2895 C2892 1.499 . S
C2895 C2896 1.373 . S
C2895 C2897 1.389 . S
C2896 H2869 0.950 . S
C2896 C2882 1.377 . S
C2896 C2895 1.373 . S
C2897 C2881 1.377 . S
C2897 C2895 1.389 . S
C2897 C2898 1.524 . S
C2898 C2897 1.524 . S
C2898 C2899 1.397 . S
C2898 C2903 1.363 . S
C2899 H2870 0.950 . S
C2899 C2898 1.397 . S
C2899 C2900 1.334 . S
C2900 H2871 0.950 . S
C2900 C2899 1.334 . S
C2900 C2901 1.287 . S
C2901 C2900 1.287 . S
C2901 C2902 1.524 . S
C2901 H2904 0.999 . S
C2902 H2872 0.950 . S
C2902 C2901 1.524 . S
C2902 C2903 1.415 . S
C2903 H2873 0.950 . S
C2903 C2898 1.363 . S
C2903 C2902 1.415 . S
H2904 C2901 0.999 . S
H2905 C2886 0.913 . S
C540 C331 1.896 . S
C525 C3 1.930 . S
C590 C321 1.019 . S
C575 C49 1.032 . S
C640 C322 0.820 . S
C625 C95 0.823 . S
C675 C146 0.364 . S
C690 C344 0.458 . S
C725 C186 1.165 . S
C740 C347 1.154 . S
C790 C330 0.798 . S
C775 C215 0.801 . S
C825 C249 0.336 . S
C840 C320 0.484 . S
C875 C302 1.918 . S
C890 C338 1.890 . S
C940 C351 3.219 . S
C925 C2 3.317 . S
C975 C43 2.160 . S
C990 C400 2.105 . S
C1040 C378 3.337 . S
C1025 C102 3.372 . S
C1090 C392 1.104 . S
C1075 C135 1.135 . S
C1125 C175 1.118 . S
C1140 C353 1.106 . S
C1190 C406 2.244 . S
C1175 C222 2.306 . S
C1225 C243 2.147 . S
C1240 C362 2.120 . S
C1275 C306 1.431 . S
C1290 C383 1.370 . S
C1325 C9 0.957 . S
C1340 C409 0.941 . S
C1375 C182 1.675 . S
C1390 C393 1.628 . S
C1440 C352 1.714 1_556 S
C1425 C226 1.728 . S
C1490 C384 0.532 . S
C1475 C242 0.519 . S
C1525 C295 2.887 . S
C1540 C375 2.833 . S
C1575 C106 0.853 . S
C1590 C382 0.843 . S
C1640 C369 1.631 . S
C1625 C142 1.684 . S
C1675 C42 0.523 . S
C1690 C361 0.556 . S
C1725 C283 1.919 . S
C1740 C424 1.891 . S
C1775 C169 1.165 . S
C1790 C414 1.155 . S
C1840 C415 0.798 . S
C1825 C202 0.801 . S
C1890 C437 0.487 . S
C1875 C266 0.338 . S
C1925 C66 1.031 . S
C1940 C440 1.019 . S
C1990 C423 0.820 . S
C1975 C82 0.823 . S
C2025 C129 0.367 . S
C2040 C413 0.462 . S
C2075 C22 1.930 . S
C2090 C431 1.895 . S
C2125 C282 2.887 . S
C2140 C444 2.833 . S
C2190 C493 1.628 . S
C2175 C163 1.675 . S
C2225 C209 1.728 . S
C2240 C471 1.715 . S
C2275 C255 0.518 . S
C2290 C485 0.532 . S
C2340 C446 0.554 . S
C2325 C55 0.521 . S
C2375 C89 0.853 . S
C2390 C499 0.845 . S
C2440 C455 1.633 . S
C2425 C123 1.685 . S
C2490 C476 0.941 . S
C2475 C26 0.958 . S
C2540 C502 1.370 . S
C2525 C289 1.431 . S
C2575 C62 2.160 . S
C2590 C486 2.105 . S
C2625 C83 3.373 . S
C2640 C445 3.337 . S
C2690 C477 1.104 . S
C2675 C122 1.135 . S
C2725 C15 3.317 . S
C2740 C468 3.219 . S
C2775 C203 2.306 . S
C2790 C475 2.244 . S
C2840 C462 2.120 . S
C2825 C262 2.147 . S
C2890 C454 1.105 . S
C2875 C162 1.118 . S
