# Generated by pormake.
# Topology scu, (8,4)-cn, num edge types: 1
# Building blocks:
#     Node 0, Type 0, BuildingBlock: VETTIZ_charged_sbu_0, # of connection points: 8
#     Node 1, Type 1, BuildingBlock: KOZSID_clean_sbu_0, # of connection points: 4
#     Node 2, Type 1, BuildingBlock: KOZSID_clean_sbu_0, # of connection points: 4
#     Edge 3, Type (0, 1), BuildingBlock: KIFKEQ_clean_linker_1, # of connection points: 2
#     Edge 4, Type (0, 1), BuildingBlock: KIFKEQ_clean_linker_1, # of connection points: 2
#     Edge 5, Type (0, 1), BuildingBlock: KIFKEQ_clean_linker_1, # of connection points: 2
#     Edge 6, Type (0, 1), BuildingBlock: KIFKEQ_clean_linker_1, # of connection points: 2
#     Edge 7, Type (0, 1), BuildingBlock: KIFKEQ_clean_linker_1, # of connection points: 2
#     Edge 8, Type (0, 1), BuildingBlock: KIFKEQ_clean_linker_1, # of connection points: 2
#     Edge 9, Type (0, 1), BuildingBlock: KIFKEQ_clean_linker_1, # of connection points: 2
#     Edge 10, Type (0, 1), BuildingBlock: KIFKEQ_clean_linker_1, # of connection points: 2
# Relax obj value: 0.002
# Max RMSD: 0.028
# Mean RMSD: 0.015
data_MOF--net-scu--node1-VETTIZ_charged_sbu_0--node2-KOZSID_clean_sbu_0--edge1-KIFKEQ_clean_linker_1
_symmetry_space_group_name_H-M    P1
_symmetry_Int_Tables_number       1
_symmetry_cell_setting            triclinic
loop_
_symmetry_equiv_pos_as_xyz
'x, y, z'
_cell_length_a     29.178636
_cell_length_b     28.402508
_cell_length_c     20.972674
_cell_angle_alpha  85.729256
_cell_angle_beta   85.380821
_cell_angle_gamma 90.850631
loop_
_atom_site_label
_atom_site_type_symbol
_atom_site_fract_x
_atom_site_fract_y
_atom_site_fract_z
_atom_type_partial_charge
Fe0 Fe 0.99984 1.01424 0.08398 0.0
O1 O 0.95748 0.0195 0.01345 0.0
Fe2 Fe 0.09809 0.96876 0.0079 0.0
Fe3 Fe 0.9082 0.06572 0.0091 0.0
O4 O 0.04832 1.01436 0.01079 0.0
O5 O 0.04881 1.01522 1.00361 0.0
O6 O 0.95791 0.02008 1.00642 0.0
Fe7 Fe 0.00627 0.01997 0.93315 0.0
C8 C 0.89808 1.01231 0.14153 0.0
O9 O 0.00672 0.08649 0.08396 0.0
O10 O 0.93442 0.10853 0.07378 0.0
O11 O 0.06485 0.01981 0.8662 0.0
O12 O 0.1256 1.01184 0.93054 0.0
O13 O 0.11918 1.00721 0.08021 0.0
O14 O 0.05249 1.00985 0.14747 0.0
O15 O 0.93845 0.11021 0.93472 0.0
O16 O 0.01269 0.09301 0.92638 0.0
C17 C 0.09697 1.01401 0.13483 0.0
O18 O 0.9998 0.94764 0.93408 0.0
O19 O 0.07269 0.92697 0.94146 0.0
O20 O 0.9417 1.01434 0.15118 0.0
O21 O 0.88085 0.02356 0.08748 0.0
C22 C 0.97471 0.1161 0.09069 0.0
C23 C 0.97999 0.12087 0.91507 0.0
C24 C 0.90825 0.01853 0.88384 0.0
O25 O 0.88684 0.02612 0.93875 0.0
O26 O 0.95274 0.02315 0.87003 0.0
C27 C 0.10848 0.02241 0.87614 0.0
O28 O 0.06694 0.92283 0.08012 0.0
O29 O 0.99295 0.94145 0.0899 0.0
C30 C 0.03222 0.91871 0.92577 0.0
C31 C 0.02511 0.91237 0.09856 0.0
C32 C 0.04293 0.5935 0.40433 0.0
C33 C 0.08413 0.61245 0.37474 0.0
C34 C 0.11852 0.58767 0.40101 0.0
C35 C 0.09659 0.55533 0.44525 0.0
N36 N 0.05017 0.55758 0.44867 0.0
Co37 Co 0.00535 0.51847 0.50949 0.0
N38 N 0.05621 0.4834 0.55007 0.0
C39 C 0.10187 0.48992 0.53455 0.0
C40 C 0.12855 0.45912 0.56786 0.0
C41 C 0.09819 0.43077 0.6066 0.0
C42 C 0.05447 0.44616 0.595 0.0
N43 N 0.96055 0.4796 0.57047 0.0
C44 C 0.9678 0.44358 0.61458 0.0
C45 C 0.92684 0.42669 0.64724 0.0
C46 C 0.89243 0.45189 0.62167 0.0
C47 C 0.91419 0.48292 0.57547 0.0
N48 N 0.95445 0.55329 0.46874 0.0
C49 C 0.90877 0.54635 0.48368 0.0
C50 C 0.88203 0.57557 0.44801 0.0
C51 C 0.91238 0.60319 0.40817 0.0
C52 C 0.95612 0.58934 0.42212 0.0
N53 N 1.003 0.4695 0.4463 0.0
C54 C 1.00022 0.39645 0.3612 0.0
C55 C 0.9604 0.41048 0.39609 0.0
C56 C 0.96245 0.447 0.43712 0.0
C57 C 0.04137 0.42052 0.36934 0.0
C58 C 0.04204 0.45615 0.41201 0.0
N59 N 0.00766 0.56752 0.57272 0.0
C60 C 0.96885 0.61827 0.64702 0.0
C61 C 0.01024 0.64092 0.65629 0.0
C62 C 0.05045 0.62573 0.62425 0.0
C63 C 0.04851 0.58876 0.58387 0.0
C64 C 0.96827 0.58235 0.60484 0.0
H65 H 0.08048 0.5783 0.56184 0.0
H66 H 0.93538 0.56765 0.59842 0.0
H67 H 0.93073 0.456 0.46151 0.0
H68 H 0.07468 0.4722 0.41663 0.0
C69 C 0.11859 0.52345 0.4859 0.0
C70 C 0.99802 0.61197 0.39018 0.0
C71 C 0.01238 0.42298 0.6257 0.0
C72 C 0.89204 0.51383 0.53364 0.0
H73 H 0.08902 0.64175 0.33868 0.0
H74 H 0.15518 0.59322 0.39009 0.0
H75 H 0.16563 0.45668 0.56316 0.0
H76 H 0.10733 0.4014 0.6386 0.0
H77 H 0.92221 0.39844 0.6849 0.0
H78 H 0.85584 0.44744 0.63431 0.0
H79 H 0.84488 0.57717 0.45137 0.0
H80 H 0.90336 0.63078 0.37326 0.0
H81 H 0.92756 0.39296 0.39301 0.0
H82 H 0.07322 0.41228 0.34279 0.0
H83 H 0.93685 0.62912 0.67089 0.0
H84 H 0.08337 0.64211 0.6307 0.0
C85 C 0.43121 0.98189 0.61443 0.0
C86 C 0.41297 0.94083 0.64733 0.0
C87 C 0.43695 0.90436 0.62296 0.0
C88 C 0.46844 0.92521 0.57692 0.0
N89 N 0.46674 0.97288 0.57168 0.0
Co90 Co 0.50369 0.01735 0.50804 0.0
N91 N 0.53146 0.96371 0.46246 0.0
C92 C 0.52116 0.91718 0.47501 0.0
C93 C 0.54792 0.88871 0.43799 0.0
C94 C 0.57782 0.91875 0.40083 0.0
C95 C 0.56751 0.96399 0.41746 0.0
N96 N 0.54204 0.06181 0.44597 0.0
C97 C 0.57817 0.05245 0.40439 0.0
C98 C 0.59901 0.09348 0.37478 0.0
C99 C 0.57612 0.13023 0.40012 0.0
C100 C 0.54282 0.10954 0.44356 0.0
N101 N 0.47443 0.07102 0.55208 0.0
C102 C 0.48241 0.11772 0.53692 0.0
C103 C 0.45359 0.14609 0.57111 0.0
C104 C 0.42443 0.11572 0.60888 0.0
C105 C 0.43737 0.07045 0.59557 0.0
N106 N 0.55529 1.01599 0.56456 0.0
C107 C 0.63836 1.01515 0.62451 0.0
C108 C 0.61595 0.05741 0.61112 0.0
C109 C 0.57477 0.05704 0.58136 0.0
C110 C 0.61722 0.97313 0.61072 0.0
C111 C 0.57566 0.97429 0.58197 0.0
N112 N 0.45225 0.01879 0.45133 0.0
C113 C 0.40037 0.0634 0.38688 0.0
C114 C 0.37091 0.02415 0.38759 0.0
C115 C 0.38399 0.98159 0.41776 0.0
C116 C 0.42482 0.97954 0.44822 0.0
C117 C 0.44053 0.06 0.41889 0.0
H118 H 0.43288 0.946 0.47016 0.0
H119 H 0.4609 0.09148 0.41808 0.0
H120 H 0.56004 0.09052 0.57091 0.0
H121 H 0.56125 0.941 0.57295 0.0
C122 C 0.49301 0.9012 0.52976 0.0
C123 C 0.41116 0.02812 0.62096 0.0
C124 C 0.59583 1.00555 0.395 0.0
C125 C 0.51447 0.13364 0.48652 0.0
H126 H 0.38377 0.93751 0.68275 0.0
H127 H 0.42991 0.867 0.63406 0.0
H128 H 0.54807 0.8505 0.44113 0.0
H129 H 0.6057 0.90833 0.36802 0.0
H130 H 0.62879 0.09644 0.34032 0.0
H131 H 0.58424 0.16751 0.39034 0.0
H132 H 0.4524 0.18426 0.56669 0.0
H133 H 0.39567 0.12576 0.6405 0.0
H134 H 0.63079 0.09082 0.62181 0.0
H135 H 0.63264 0.9394 0.62223 0.0
H136 H 0.39176 0.09704 0.36349 0.0
H137 H 0.36279 0.94994 0.41791 0.0
H138 H 0.03246 0.12733 0.185 0.0
H139 H 0.93556 0.20217 0.07237 0.0
H140 H 0.03967 0.19511 0.2482 0.0
H141 H 0.94498 0.27142 0.13208 0.0
H142 H 0.92907 0.36914 0.29188 0.0
H143 H 0.9251 0.30278 0.22681 0.0
H144 H 0.06595 0.26991 0.2594 0.0
H145 H 0.06821 0.33322 0.33029 0.0
C146 C 0.01348 0.15879 0.17283 0.0
C147 C 0.98321 0.15931 0.124 0.0
C148 C 0.01774 0.198 0.20894 0.0
C149 C 0.99264 0.23927 0.19618 0.0
C150 C 0.9639 0.24017 0.14516 0.0
C151 C 0.95879 0.20055 0.11022 0.0
C152 C 0.95904 0.34737 0.28647 0.0
C153 C 0.99884 0.35694 0.31747 0.0
C154 C 0.95709 0.30951 0.24759 0.0
C155 C 0.99525 0.28043 0.23695 0.0
C156 C 0.03542 0.29061 0.26684 0.0
C157 C 0.03703 0.32787 0.3069 0.0
H158 H 0.88046 0.05682 0.25132 0.0
H159 H 0.83636 0.94023 0.14932 0.0
H160 H 0.8085 0.05021 0.32046 0.0
H161 H 0.76539 0.93215 0.21937 0.0
H162 H 0.62104 0.98577 0.27263 0.0
H163 H 0.69882 0.98008 0.22171 0.0
H164 H 0.75484 1.00797 0.40022 0.0
H165 H 0.67638 1.01462 0.45034 0.0
C166 C 0.85625 0.0284 0.2458 0.0
C167 C 0.86381 0.99889 0.19541 0.0
C168 C 0.81488 0.02471 0.28507 0.0
C169 C 0.78059 0.99131 0.27453 0.0
C170 C 0.7904 0.9591 0.22773 0.0
C171 C 0.83132 0.96318 0.18822 0.0
C172 C 0.65012 0.99027 0.30078 0.0
C173 C 0.64315 1.00033 0.3651 0.0
C174 C 0.69468 0.98668 0.27201 0.0
C175 C 0.7333 0.99302 0.30704 0.0
C176 C 0.72602 1.00305 0.37177 0.0
C177 C 0.68129 1.0067 0.40052 0.0
H178 H 0.94934 0.88532 0.18103 0.0
H179 H 0.07847 0.83442 0.10025 0.0
H180 H 0.93754 0.81127 0.24875 0.0
H181 H 0.0669 0.76117 0.16774 0.0
H182 H 0.01831 0.61837 0.26046 0.0
H183 H 0.01934 0.68909 0.18586 0.0
H184 H 0.97265 0.7718 0.34232 0.0
H185 H 0.97155 0.70072 0.41651 0.0
C186 C 0.97491 0.8582 0.17711 0.0
C187 C 0.01496 0.86599 0.13534 0.0
C188 C 0.96833 0.81591 0.21628 0.0
C189 C 1.00132 0.78022 0.21389 0.0
C190 C 0.04052 0.78754 0.1705 0.0
C191 C 0.04731 0.82981 0.13201 0.0
C192 C 0.00795 0.6517 0.27851 0.0
C193 C 0.9952 0.65436 0.34408 0.0
C194 C 0.00868 0.69221 0.23601 0.0
C195 C 0.99635 0.7363 0.25807 0.0
C196 C 0.98195 0.73845 0.32351 0.0
C197 C 0.98151 0.6979 0.36607 0.0
H198 H 0.11092 0.95686 0.24047 0.0
H199 H 0.15051 0.09151 0.14165 0.0
H200 H 0.17478 0.963 0.30805 0.0
H201 H 0.21284 0.09952 0.21126 0.0
H202 H 0.35656 0.06309 0.26832 0.0
H203 H 0.28494 0.06583 0.21646 0.0
H204 H 0.21342 0.99704 0.38785 0.0
H205 H 0.2859 0.99277 0.43851 0.0
C206 C 0.13222 0.98872 0.23533 0.0
C207 C 0.12594 0.02387 0.18649 0.0
C208 C 0.16894 0.99232 0.27387 0.0
C209 C 0.19972 0.03144 0.26451 0.0
C210 C 0.1908 0.06828 0.21873 0.0
C211 C 0.15468 0.06417 0.17951 0.0
C212 C 0.32542 0.0489 0.29495 0.0
C213 C 0.3268 0.02748 0.35719 0.0
C214 C 0.28415 0.05076 0.26549 0.0
C215 C 0.243 0.03188 0.29794 0.0
C216 C 0.24437 1.01131 0.36092 0.0
C217 C 0.28586 1.00889 0.39004 0.0
H218 H 0.07192 0.83273 0.94261 0.0
H219 H 0.9749 0.90846 0.83072 0.0
H220 H 0.06351 0.76415 0.87957 0.0
H221 H 0.96785 0.84036 0.76639 0.0
H222 H 0.03935 0.73139 0.62203 0.0
H223 H 0.04037 0.79794 0.69037 0.0
H224 H 0.98589 0.70648 0.85307 0.0
H225 H 0.98329 0.64022 0.7841 0.0
C226 C 0.04863 0.83458 0.90483 0.0
C227 C 0.02404 0.8759 0.89161 0.0
C228 C 0.04379 0.79537 0.86896 0.0
C229 C 0.0152 0.7972 0.81813 0.0
C230 C 0.99015 0.83822 0.80534 0.0
C231 C 0.99403 0.87698 0.84232 0.0
C232 C 0.02749 0.72566 0.67235 0.0
C233 C 0.0113 0.68082 0.69798 0.0
C234 C 0.02787 0.76364 0.71124 0.0
C235 C 0.01313 0.75719 0.77679 0.0
C236 C 0.99739 0.71224 0.80263 0.0
C237 C 0.99588 0.6745 0.76333 0.0
H238 H 0.12592 0.97664 0.76729 0.0
H239 H 0.17107 0.09383 0.86727 0.0
H240 H 0.19804 0.98185 0.69844 0.0
H241 H 0.24218 0.10056 0.79745 0.0
H242 H 0.38629 0.04796 0.74342 0.0
H243 H 0.30867 0.05307 0.79512 0.0
H244 H 0.25193 0.02247 0.6181 0.0
H245 H 0.33026 1.01628 0.5673 0.0
C246 C 0.1504 1.00489 0.77242 0.0
C247 C 0.14302 0.03501 0.82216 0.0
C248 C 0.1919 1.00776 0.73333 0.0
C249 C 0.22652 0.04095 0.74334 0.0
C250 C 0.21696 0.07371 0.78951 0.0
C251 C 0.17592 0.07043 0.82887 0.0
C252 C 0.35708 0.04255 0.71582 0.0
C253 C 0.36384 0.03193 0.65171 0.0
C254 C 0.31259 0.04587 0.74502 0.0
C255 C 0.27379 0.03878 0.71061 0.0
C256 C 0.28086 0.02797 0.64614 0.0
C257 C 0.32554 0.02456 0.61698 0.0
H258 H 0.91776 0.17139 0.85019 0.0
H259 H 0.06198 0.17069 0.88358 0.0
H260 H 0.93035 0.24272 0.77921 0.0
H261 H 0.07437 0.24342 0.81229 0.0
H262 H 0.04914 0.40628 0.74161 0.0
H263 H 0.04614 0.33216 0.81058 0.0
H264 H 0.97447 0.26366 0.66964 0.0
H265 H 0.97845 0.33727 0.60052 0.0
C266 C 0.95223 0.18657 0.84276 0.0
C267 C 0.98886 0.16518 0.87292 0.0
C268 C 0.95943 0.22738 0.80156 0.0
C269 C 1.00335 0.24857 0.78983 0.0
C270 C 0.0401 0.22786 0.82055 0.0
C271 C 0.03303 0.18621 0.86117 0.0
C272 C 0.03357 0.37503 0.72511 0.0
C273 C 0.01413 0.37731 0.66578 0.0
C274 C 0.0319 0.33269 0.76441 0.0
C275 C 0.00994 0.29215 0.74561 0.0
C276 C 0.99134 0.29438 0.68563 0.0
C277 C 0.99365 0.33638 0.64605 0.0
H278 H 0.91617 0.04752 0.75491 0.0
H279 H 0.83023 0.9655 0.90127 0.0
H280 H 0.85405 0.04479 0.68202 0.0
H281 H 0.76882 0.96363 0.82942 0.0
H282 H 0.66101 0.06117 0.72732 0.0
H283 H 0.73287 0.05695 0.77988 0.0
H284 H 0.78858 0.9643 0.64075 0.0
H285 H 0.71625 0.96805 0.58795 0.0
C286 C 0.88482 0.02763 0.77065 0.0
C287 C 0.8778 1.00711 0.83387 0.0
C288 C 0.84933 0.02633 0.72923 0.0
C289 C 0.80677 1.00449 0.75085 0.0
C290 C 0.80129 0.98093 0.81207 0.0
C291 C 0.83647 0.98201 0.853 0.0
C292 C 0.68875 0.04041 0.70738 0.0
C293 C 0.68297 1.01471 0.65385 0.0
C294 C 0.72974 0.03801 0.7374 0.0
C295 C 0.76601 1.01049 0.71393 0.0
C296 C 0.76107 0.98597 0.65923 0.0
C297 C 0.71969 0.98782 0.62959 0.0
loop_
_geom_bond_atom_site_label_1
_geom_bond_atom_site_label_2
_geom_bond_distance
_geom_bond_site_symmetry_2
_ccdc_geom_bond_type
Fe0 O1 1.886 1_565 S
Fe0 O4 1.715 1_655 S
Fe0 O9 2.077 1_565 S
Fe0 O14 1.935 1_665 S
Fe0 O20 2.077 . S
Fe0 O29 1.935 . S
O1 Fe0 1.886 1_545 S
O1 Fe3 1.715 1_554 S
Fe2 O4 1.886 . S
Fe2 O5 1.715 1_554 S
Fe2 O12 1.935 1_554 S
Fe2 O13 2.077 . S
Fe2 O19 1.935 1_554 S
Fe2 O28 2.077 . S
Fe3 O1 1.715 1_556 S
Fe3 O6 1.886 . S
Fe3 O10 1.935 1_556 S
Fe3 O15 2.077 . S
Fe3 O21 1.935 1_556 S
Fe3 O25 2.077 . S
O4 Fe0 1.715 1_455 S
O4 Fe2 1.886 . S
O5 Fe2 1.715 1_556 S
O5 Fe7 1.886 1_565 S
O6 Fe3 1.886 . S
O6 Fe7 1.715 1_655 S
Fe7 O5 1.886 1_545 S
Fe7 O6 1.715 1_455 S
Fe7 O11 2.077 . S
Fe7 O16 1.935 . S
Fe7 O18 2.077 1_545 S
Fe7 O26 1.935 1_445 S
C8 O20 1.381 1_545 S
C8 O21 1.421 . S
O9 Fe0 2.077 1_545 S
O9 C22 1.381 . S
O10 Fe3 1.935 1_554 S
O10 C22 1.421 . S
O11 Fe7 2.077 . S
O11 C27 1.381 1_545 S
O12 Fe2 1.935 1_556 S
O12 C27 1.421 . S
O13 Fe2 2.077 . S
O13 C17 1.381 . S
O14 Fe0 1.935 1_445 S
O14 C17 1.421 1_545 S
O15 Fe3 2.077 . S
O15 C23 1.381 . S
O16 Fe7 1.935 . S
O16 C23 1.421 1_455 S
C17 O13 1.381 . S
C17 O14 1.421 1_565 S
O18 Fe7 2.077 1_565 S
O18 C30 1.381 . S
O19 Fe2 1.935 1_556 S
O19 C30 1.421 . S
O20 Fe0 2.077 . S
O20 C8 1.381 1_565 S
O21 Fe3 1.935 1_554 S
O21 C8 1.421 . S
C22 O9 1.381 . S
C22 O10 1.421 . S
C23 O15 1.381 . S
C23 O16 1.421 1_655 S
C24 O25 1.381 . S
C24 O26 1.421 1_545 S
O25 Fe3 2.077 . S
O25 C24 1.381 . S
O26 Fe7 1.935 1_665 S
O26 C24 1.421 1_565 S
C27 O11 1.381 1_565 S
C27 O12 1.421 . S
O28 Fe2 2.077 . S
O28 C31 1.381 . S
O29 Fe0 1.935 . S
O29 C31 1.421 1_655 S
C30 O18 1.381 . S
C30 O19 1.421 . S
C31 O28 1.381 . S
C31 O29 1.421 1_455 S
C32 C33 1.443 . S
C32 N36 1.376 . S
C32 C70 1.404 . S
C33 C32 1.443 . S
C33 C34 1.340 . S
C33 H73 0.951 . S
C34 C33 1.340 . S
C34 C35 1.439 . S
C34 H74 0.950 . S
C35 C34 1.439 . S
C35 N36 1.374 . S
C35 C69 1.395 . S
N36 C32 1.376 . S
N36 C35 1.374 . S
N36 Co37 2.008 . S
Co37 N36 2.008 . S
Co37 N38 1.995 . S
Co37 N43 2.008 1_455 S
Co37 N48 1.995 1_455 S
Co37 N53 2.282 . S
Co37 N59 2.282 1_455 S
N38 Co37 1.995 . S
N38 C39 1.376 . S
N38 C42 1.383 . S
C39 N38 1.376 . S
C39 C40 1.446 . S
C39 C69 1.391 . S
C40 C39 1.446 . S
C40 C41 1.339 . S
C40 H75 0.949 . S
C41 C40 1.339 . S
C41 C42 1.439 . S
C41 H76 0.950 . S
C42 N38 1.383 . S
C42 C41 1.439 . S
C42 C71 1.383 1_455 S
N43 Co37 2.008 1_655 S
N43 C44 1.376 . S
N43 C47 1.374 . S
C44 N43 1.376 . S
C44 C45 1.443 . S
C44 C71 1.398 . S
C45 C44 1.443 . S
C45 C46 1.340 . S
C45 H77 0.951 . S
C46 C45 1.340 . S
C46 C47 1.439 . S
C46 H78 0.950 . S
C47 N43 1.374 . S
C47 C46 1.439 . S
C47 C72 1.395 . S
N48 Co37 1.995 1_655 S
N48 C49 1.376 . S
N48 C52 1.383 . S
C49 N48 1.376 . S
C49 C50 1.446 . S
C49 C72 1.391 . S
C50 C49 1.446 . S
C50 C51 1.339 . S
C50 H79 0.949 . S
C51 C50 1.339 . S
C51 C52 1.439 . S
C51 H80 0.950 . S
C52 N48 1.383 . S
C52 C51 1.439 . S
C52 C70 1.378 1_655 S
N53 Co37 2.282 . S
N53 C56 1.332 1_455 S
N53 C58 1.332 . S
C54 C55 1.375 1_455 S
C54 C57 1.400 . S
C55 C54 1.375 1_655 S
C55 C56 1.382 . S
C55 H81 0.950 . S
C56 N53 1.332 1_655 S
C56 C55 1.382 . S
C56 H67 0.952 . S
C57 C54 1.400 . S
C57 C58 1.382 . S
C57 H82 0.950 . S
C58 N53 1.332 . S
C58 C57 1.382 . S
C58 H68 0.948 . S
N59 Co37 2.282 1_655 S
N59 C63 1.332 1_655 S
N59 C64 1.332 . S
C60 C61 1.395 . S
C60 C64 1.382 . S
C60 H83 0.950 . S
C61 C60 1.395 . S
C61 C62 1.379 1_655 S
C62 C61 1.379 1_455 S
C62 C63 1.382 . S
C62 H84 0.950 . S
C63 N59 1.332 1_455 S
C63 C62 1.382 . S
C63 H65 0.952 . S
C64 N59 1.332 . S
C64 C60 1.382 . S
C64 H66 0.948 . S
H65 C63 0.952 . S
H66 C64 0.948 . S
H67 C56 0.952 . S
H68 C58 0.948 . S
C69 C35 1.395 . S
C69 C39 1.391 . S
C70 C32 1.404 . S
C70 C52 1.378 1_455 S
C71 C42 1.383 1_655 S
C71 C44 1.398 . S
C72 C47 1.395 . S
C72 C49 1.391 . S
H73 C33 0.951 . S
H74 C34 0.950 . S
H75 C40 0.949 . S
H76 C41 0.950 . S
H77 C45 0.951 . S
H78 C46 0.950 . S
H79 C50 0.949 . S
H80 C51 0.950 . S
H81 C55 0.950 . S
H82 C57 0.950 . S
H83 C60 0.950 . S
H84 C62 0.950 . S
C85 C86 1.443 . S
C85 N89 1.376 . S
C85 C123 1.396 . S
C86 C85 1.443 . S
C86 C87 1.340 . S
C86 H126 0.951 . S
C87 C86 1.340 . S
C87 C88 1.439 . S
C87 H127 0.950 . S
C88 C87 1.439 . S
C88 N89 1.374 . S
C88 C122 1.395 . S
N89 C85 1.376 . S
N89 C88 1.374 . S
N89 Co90 2.006 1_565 S
Co90 N89 2.006 1_545 S
Co90 N91 1.993 1_545 S
Co90 N96 2.010 . S
Co90 N101 1.997 . S
Co90 N106 2.282 1_545 S
Co90 N112 2.282 . S
N91 Co90 1.993 1_565 S
N91 C92 1.376 . S
N91 C95 1.383 . S
C92 N91 1.376 . S
C92 C93 1.446 . S
C92 C122 1.391 . S
C93 C92 1.446 . S
C93 C94 1.339 . S
C93 H128 0.949 . S
C94 C93 1.339 . S
C94 C95 1.439 . S
C94 H129 0.950 . S
C95 N91 1.383 . S
C95 C94 1.439 . S
C95 C124 1.376 1_565 S
N96 Co90 2.010 . S
N96 C97 1.376 . S
N96 C100 1.374 . S
C97 N96 1.376 . S
C97 C98 1.443 . S
C97 C124 1.406 . S
C98 C97 1.443 . S
C98 C99 1.340 . S
C98 H130 0.951 . S
C99 C98 1.340 . S
C99 C100 1.439 . S
C99 H131 0.950 . S
C100 N96 1.374 . S
C100 C99 1.439 . S
C100 C125 1.395 . S
N101 Co90 1.997 . S
N101 C102 1.376 . S
N101 C105 1.383 . S
C102 N101 1.376 . S
C102 C103 1.446 . S
C102 C125 1.391 . S
C103 C102 1.446 . S
C103 C104 1.339 . S
C103 H132 0.949 . S
C104 C103 1.339 . S
C104 C105 1.439 . S
C104 H133 0.950 . S
C105 N101 1.383 . S
C105 C104 1.439 . S
C105 C123 1.385 1_545 S
N106 Co90 2.282 1_565 S
N106 C109 1.332 1_565 S
N106 C111 1.332 . S
C107 C108 1.382 1_565 S
C107 C110 1.392 . S
C108 C107 1.382 1_545 S
C108 C109 1.382 . S
C108 H134 0.950 . S
C109 N106 1.332 1_545 S
C109 C108 1.382 . S
C109 H120 0.952 . S
C110 C107 1.392 . S
C110 C111 1.382 . S
C110 H135 0.950 . S
C111 N106 1.332 . S
C111 C110 1.382 . S
C111 H121 0.948 . S
N112 Co90 2.282 . S
N112 C116 1.332 1_545 S
N112 C117 1.332 . S
C113 C114 1.402 . S
C113 C117 1.382 . S
C113 H136 0.950 . S
C114 C113 1.402 . S
C114 C115 1.372 1_545 S
C115 C114 1.372 1_565 S
C115 C116 1.382 . S
C115 H137 0.950 . S
C116 N112 1.332 1_565 S
C116 C115 1.382 . S
C116 H118 0.952 . S
C117 N112 1.332 . S
C117 C113 1.382 . S
C117 H119 0.948 . S
H118 C116 0.952 . S
H119 C117 0.948 . S
H120 C109 0.952 . S
H121 C111 0.948 . S
C122 C88 1.395 . S
C122 C92 1.391 . S
C123 C85 1.396 . S
C123 C105 1.385 1_565 S
C124 C95 1.376 1_545 S
C124 C97 1.406 . S
C125 C100 1.395 . S
C125 C102 1.391 . S
H126 C86 0.951 . S
H127 C87 0.950 . S
H128 C93 0.949 . S
H129 C94 0.950 . S
H130 C98 0.951 . S
H131 C99 0.950 . S
H132 C103 0.949 . S
H133 C104 0.950 . S
H134 C108 0.950 . S
H135 C110 0.950 . S
H136 C113 0.950 . S
H137 C115 0.950 . S
H138 C146 0.950 . S
H139 C151 0.950 . S
H140 C148 0.950 . S
H141 C150 0.950 . S
H142 C152 0.950 . S
H143 C154 0.950 . S
H144 C156 0.950 . S
H145 C157 0.950 . S
C146 H138 0.950 . S
C146 C147 1.386 1_455 S
C146 C148 1.391 . S
C147 C146 1.386 1_655 S
C147 C151 1.393 . S
C148 H140 0.950 . S
C148 C146 1.391 . S
C148 C149 1.400 1_455 S
C149 C148 1.400 1_655 S
C149 C150 1.398 . S
C149 C155 1.491 . S
C150 H141 0.950 . S
C150 C149 1.398 . S
C150 C151 1.391 . S
C151 H139 0.950 . S
C151 C147 1.393 . S
C151 C150 1.391 . S
C152 H142 0.950 . S
C152 C153 1.401 . S
C152 C154 1.391 . S
C153 C152 1.401 . S
C153 C157 1.378 1_655 S
C154 H143 0.950 . S
C154 C152 1.391 . S
C154 C155 1.400 . S
C155 C149 1.491 . S
C155 C154 1.400 . S
C155 C156 1.398 1_655 S
C156 H144 0.950 . S
C156 C155 1.398 1_455 S
C156 C157 1.391 . S
C157 H145 0.950 . S
C157 C153 1.378 1_455 S
C157 C156 1.391 . S
H158 C166 0.950 . S
H159 C171 0.950 . S
H160 C168 0.950 . S
H161 C170 0.950 . S
H162 C172 0.949 1_545 S
H163 C174 0.951 1_545 S
H164 C176 0.950 . S
H165 C177 0.950 . S
C166 H158 0.950 . S
C166 C167 1.386 . S
C166 C168 1.391 . S
C167 C166 1.386 . S
C167 C171 1.393 1_565 S
C168 H160 0.950 . S
C168 C166 1.391 . S
C168 C169 1.400 . S
C169 C168 1.400 . S
C169 C170 1.398 1_565 S
C169 C175 1.491 . S
C170 H161 0.950 . S
C170 C169 1.398 1_545 S
C170 C171 1.391 . S
C171 H159 0.950 . S
C171 C167 1.393 1_545 S
C171 C170 1.391 . S
C172 H162 0.949 1_565 S
C172 C173 1.385 . S
C172 C174 1.391 . S
C173 C172 1.385 . S
C173 C177 1.393 . S
C174 H163 0.951 1_565 S
C174 C172 1.391 . S
C174 C175 1.401 . S
C175 C169 1.491 . S
C175 C174 1.401 . S
C175 C176 1.398 . S
C176 H164 0.950 . S
C176 C175 1.398 . S
C176 C177 1.391 . S
C177 H165 0.950 . S
C177 C173 1.393 . S
C177 C176 1.391 . S
H178 C186 0.950 . S
H179 C191 0.950 . S
H180 C188 0.950 . S
H181 C190 0.950 . S
H182 C192 0.950 . S
H183 C194 0.950 . S
H184 C196 0.950 . S
H185 C197 0.950 . S
C186 H178 0.950 . S
C186 C187 1.386 . S
C186 C188 1.391 . S
C187 C186 1.386 . S
C187 C191 1.393 1_655 S
C188 H180 0.950 . S
C188 C186 1.391 . S
C188 C189 1.400 . S
C189 C188 1.400 . S
C189 C190 1.398 1_655 S
C189 C195 1.493 . S
C190 H181 0.950 . S
C190 C189 1.398 1_455 S
C190 C191 1.391 . S
C191 H179 0.950 . S
C191 C187 1.393 1_455 S
C191 C190 1.391 . S
C192 H182 0.950 . S
C192 C193 1.386 . S
C192 C194 1.391 . S
C193 C192 1.386 . S
C193 C197 1.393 1_455 S
C194 H183 0.950 . S
C194 C192 1.391 . S
C194 C195 1.397 1_455 S
C195 C189 1.493 . S
C195 C194 1.397 1_655 S
C195 C196 1.400 . S
C196 H184 0.950 . S
C196 C195 1.400 . S
C196 C197 1.391 . S
C197 H185 0.950 . S
C197 C193 1.393 1_655 S
C197 C196 1.391 . S
H198 C206 0.950 . S
H199 C211 0.950 . S
H200 C208 0.950 . S
H201 C210 0.950 . S
H202 C212 0.950 . S
H203 C214 0.950 . S
H204 C216 0.950 . S
H205 C217 0.950 . S
C206 H198 0.950 . S
C206 C207 1.386 . S
C206 C208 1.391 . S
C207 C206 1.386 . S
C207 C211 1.393 1_565 S
C208 H200 0.950 . S
C208 C206 1.391 . S
C208 C209 1.400 . S
C209 C208 1.400 . S
C209 C210 1.398 1_565 S
C209 C215 1.491 . S
C210 H201 0.950 . S
C210 C209 1.398 1_545 S
C210 C211 1.391 . S
C211 H199 0.950 . S
C211 C207 1.393 1_545 S
C211 C210 1.391 . S
C212 H202 0.950 . S
C212 C213 1.372 1_545 S
C212 C214 1.391 . S
C213 C212 1.372 1_565 S
C213 C217 1.407 . S
C214 H203 0.950 . S
C214 C212 1.391 . S
C214 C215 1.400 1_545 S
C215 C209 1.491 . S
C215 C214 1.400 1_565 S
C215 C216 1.398 . S
C216 H204 0.950 . S
C216 C215 1.398 . S
C216 C217 1.391 . S
C217 H205 0.950 . S
C217 C213 1.407 . S
C217 C216 1.391 . S
H218 C226 0.950 . S
H219 C231 0.950 . S
H220 C228 0.950 . S
H221 C230 0.950 . S
H222 C232 0.950 . S
H223 C234 0.950 . S
H224 C236 0.951 1_655 S
H225 C237 0.950 . S
C226 H218 0.950 . S
C226 C227 1.386 1_655 S
C226 C228 1.391 . S
C227 C226 1.386 1_455 S
C227 C231 1.393 . S
C228 H220 0.950 . S
C228 C226 1.391 . S
C228 C229 1.400 1_655 S
C229 C228 1.400 1_455 S
C229 C230 1.398 . S
C229 C235 1.491 . S
C230 H221 0.950 . S
C230 C229 1.398 . S
C230 C231 1.391 . S
C231 H219 0.950 . S
C231 C227 1.393 . S
C231 C230 1.391 . S
C232 H222 0.950 . S
C232 C233 1.386 . S
C232 C234 1.391 . S
C233 C232 1.386 . S
C233 C237 1.393 1_455 S
C234 H223 0.950 . S
C234 C232 1.391 . S
C234 C235 1.400 . S
C235 C229 1.491 . S
C235 C234 1.400 . S
C235 C236 1.398 . S
C236 H224 0.951 1_455 S
C236 C235 1.398 . S
C236 C237 1.390 1_455 S
C237 H225 0.950 . S
C237 C233 1.393 1_655 S
C237 C236 1.390 1_655 S
H238 C246 0.950 . S
H239 C251 0.950 . S
H240 C248 0.950 . S
H241 C250 0.950 . S
H242 C252 0.949 . S
H243 C254 0.950 . S
H244 C256 0.950 . S
H245 C257 0.950 . S
C246 H238 0.950 . S
C246 C247 1.386 . S
C246 C248 1.391 . S
C247 C246 1.386 . S
C247 C251 1.393 . S
C248 H240 0.950 . S
C248 C246 1.391 . S
C248 C249 1.400 . S
C249 C248 1.400 . S
C249 C250 1.398 . S
C249 C255 1.494 . S
C250 H241 0.950 . S
C250 C249 1.398 . S
C250 C251 1.391 . S
C251 H239 0.950 . S
C251 C247 1.393 . S
C251 C250 1.391 . S
C252 H242 0.949 . S
C252 C253 1.385 1_545 S
C252 C254 1.392 . S
C253 C252 1.385 1_565 S
C253 C257 1.393 . S
C254 H243 0.950 . S
C254 C252 1.392 . S
C254 C255 1.401 . S
C255 C249 1.494 . S
C255 C254 1.401 . S
C255 C256 1.395 1_545 S
C256 H244 0.950 . S
C256 C255 1.395 1_565 S
C256 C257 1.391 . S
C257 H245 0.950 . S
C257 C253 1.393 . S
C257 C256 1.391 . S
H258 C266 0.950 . S
H259 C271 0.950 . S
H260 C268 0.950 . S
H261 C270 0.950 . S
H262 C272 0.950 . S
H263 C274 0.950 . S
H264 C276 0.950 . S
H265 C277 0.950 . S
C266 H258 0.950 . S
C266 C267 1.386 1_655 S
C266 C268 1.391 . S
C267 C266 1.386 1_455 S
C267 C271 1.393 . S
C268 H260 0.950 . S
C268 C266 1.391 . S
C268 C269 1.400 1_655 S
C269 C268 1.400 1_455 S
C269 C270 1.398 . S
C269 C275 1.491 . S
C270 H261 0.950 . S
C270 C269 1.398 . S
C270 C271 1.391 . S
C271 H259 0.950 . S
C271 C267 1.393 . S
C271 C270 1.391 . S
C272 H262 0.950 . S
C272 C273 1.386 . S
C272 C274 1.391 . S
C273 C272 1.386 . S
C273 C277 1.393 1_455 S
C274 H263 0.950 . S
C274 C272 1.391 . S
C274 C275 1.400 . S
C275 C269 1.491 . S
C275 C274 1.400 . S
C275 C276 1.398 1_455 S
C276 H264 0.950 . S
C276 C275 1.398 1_655 S
C276 C277 1.391 . S
C277 H265 0.950 . S
C277 C273 1.393 1_655 S
C277 C276 1.391 . S
H278 C286 0.950 . S
H279 C291 0.950 . S
H280 C288 0.950 . S
H281 C290 0.950 . S
H282 C292 0.950 . S
H283 C294 0.950 . S
H284 C296 0.950 . S
H285 C297 0.950 . S
C286 H278 0.950 . S
C286 C287 1.386 1_565 S
C286 C288 1.391 . S
C287 C286 1.386 1_545 S
C287 C291 1.393 . S
C288 H280 0.950 . S
C288 C286 1.391 . S
C288 C289 1.400 1_565 S
C289 C288 1.400 1_545 S
C289 C290 1.398 . S
C289 C295 1.491 . S
C290 H281 0.950 . S
C290 C289 1.398 . S
C290 C291 1.391 . S
C291 H279 0.950 . S
C291 C287 1.393 . S
C291 C290 1.391 . S
C292 H282 0.950 . S
C292 C293 1.386 . S
C292 C294 1.391 . S
C293 C292 1.386 . S
C293 C297 1.393 1_545 S
C294 H283 0.950 . S
C294 C292 1.391 . S
C294 C295 1.400 . S
C295 C289 1.491 . S
C295 C294 1.400 . S
C295 C296 1.398 1_545 S
C296 H284 0.950 . S
C296 C295 1.398 1_565 S
C296 C297 1.391 . S
C297 H285 0.950 . S
C297 C293 1.393 1_565 S
C297 C296 1.391 . S
C147 C22 1.390 . S
C153 C54 1.423 1_655 S
C167 C8 1.495 1_565 S
C173 C124 1.563 1_565 S
C187 C31 1.521 1_655 S
C193 C70 1.563 . S
C207 C17 1.391 . S
C213 C114 1.422 1_565 S
C227 C30 1.392 . S
C233 C61 1.424 1_455 S
C247 C27 1.519 1_545 S
C253 C123 1.563 . S
C273 C71 1.564 1_455 S
C267 C23 1.512 1_455 S
C287 C24 1.392 . S
C293 C107 1.427 1_545 S
