# Generated by pormake.
# Topology pth, (4,4)-cn, num edge types: 1
# Building blocks:
#     Node 0, Type 0, BuildingBlock: NAHDIM_clean_sbu_0, # of connection points: 4
#     Node 1, Type 0, BuildingBlock: NAHDIM_clean_sbu_0, # of connection points: 4
#     Node 2, Type 0, BuildingBlock: NAHDIM_clean_sbu_0, # of connection points: 4
#     Node 3, Type 1, BuildingBlock: NAWXER_clean_sbu_0, # of connection points: 4
#     Node 4, Type 1, BuildingBlock: NAWXER_clean_sbu_0, # of connection points: 4
#     Node 5, Type 1, BuildingBlock: NAWXER_clean_sbu_0, # of connection points: 4
#     Edge 6, Type (0, 1), BuildingBlock: KIFKEQ_clean_linker_1, # of connection points: 2
#     Edge 7, Type (0, 1), BuildingBlock: KIFKEQ_clean_linker_1, # of connection points: 2
#     Edge 8, Type (0, 1), BuildingBlock: KIFKEQ_clean_linker_1, # of connection points: 2
#     Edge 9, Type (0, 1), BuildingBlock: KIFKEQ_clean_linker_1, # of connection points: 2
#     Edge 10, Type (0, 1), BuildingBlock: KIFKEQ_clean_linker_1, # of connection points: 2
#     Edge 11, Type (0, 1), BuildingBlock: KIFKEQ_clean_linker_1, # of connection points: 2
#     Edge 12, Type (0, 1), BuildingBlock: KIFKEQ_clean_linker_1, # of connection points: 2
#     Edge 13, Type (0, 1), BuildingBlock: KIFKEQ_clean_linker_1, # of connection points: 2
#     Edge 14, Type (0, 1), BuildingBlock: KIFKEQ_clean_linker_1, # of connection points: 2
#     Edge 15, Type (0, 1), BuildingBlock: KIFKEQ_clean_linker_1, # of connection points: 2
#     Edge 16, Type (0, 1), BuildingBlock: KIFKEQ_clean_linker_1, # of connection points: 2
#     Edge 17, Type (0, 1), BuildingBlock: KIFKEQ_clean_linker_1, # of connection points: 2
# Relax obj value: 0.052
# Max RMSD: 0.176
# Mean RMSD: 0.101
data_MOF--net-pth--node1-NAHDIM_clean_sbu_0--node2-NAWXER_clean_sbu_0--edge1-KIFKEQ_clean_linker_1
_symmetry_space_group_name_H-M    P1
_symmetry_Int_Tables_number       1
_symmetry_cell_setting            triclinic
loop_
_symmetry_equiv_pos_as_xyz
'x, y, z'
_cell_length_a     23.317596
_cell_length_b     23.471928
_cell_length_c     57.375497
_cell_angle_alpha  91.980382
_cell_angle_beta   90.010259
_cell_angle_gamma 120.66836
loop_
_atom_site_label
_atom_site_type_symbol
_atom_site_fract_x
_atom_site_fract_y
_atom_site_fract_z
_atom_type_partial_charge
C0 C 0.09052 0.95973 0.09147 0.0
O1 O 0.06971 0.93777 0.06995 0.0
O2 O 0.05542 0.12784 0.09862 0.0
Zn3 Zn 0.07265 0.06725 0.07767 0.0
O4 O 0.99032 0.00377 0.05833 0.0
C5 C 0.15857 0.17719 0.04987 0.0
O6 O 0.11754 0.19669 0.05701 0.0
O7 O 0.09664 0.01457 0.09848 0.0
C8 C 0.96675 0.0214 0.04191 0.0
O9 O 0.99625 0.08431 0.03704 0.0
C10 C 0.99931 0.12366 0.10149 0.0
O11 O 0.94636 0.07681 0.09011 0.0
O12 O 0.1498 0.12224 0.05653 0.0
C13 C 0.06691 0.20661 0.39328 0.0
O14 O 0.04552 0.20563 0.41453 0.0
O15 O 0.03036 0.00338 0.38284 0.0
Zn16 Zn 0.05586 0.08157 0.40519 0.0
O17 O 0.979 0.05918 0.42686 0.0
C18 C 0.1405 0.06008 0.43568 0.0
O19 O 0.08683 1.00088 0.43589 0.0
O20 O 0.07489 0.15947 0.38591 0.0
C21 C 0.98907 0.0788 0.4482 0.0
O22 O 0.05066 0.11523 0.45623 0.0
C23 C 0.99118 0.94353 0.38805 0.0
O24 O 0.96555 0.9306 0.40894 0.0
O25 O 0.13963 0.10402 0.42361 0.0
C26 C 0.07393 0.00938 0.69455 0.0
O27 O 0.0258 0.01521 0.68523 0.0
O28 O 0.97513 0.07031 0.71876 0.0
Zn29 Zn 0.0335 0.04739 0.73771 0.0
O30 O 0.09947 0.12908 0.75664 0.0
C31 C 0.92873 0.91905 0.75208 0.0
O32 O 0.91131 0.9113 0.7299 0.0
O33 O 0.08542 0.01999 0.71641 0.0
C34 C 0.0827 0.15167 0.77415 0.0
O35 O 0.02012 0.12061 0.78046 0.0
C36 C 0.92278 0.06733 0.72669 0.0
O37 O 0.90431 0.04719 0.74793 0.0
O38 O 0.97903 0.97337 0.75942 0.0
C39 C 0.97722 0.61086 0.27114 0.0
C40 C 0.98785 0.46105 0.21231 0.0
O41 O 0.03685 0.6248 0.26688 0.0
Zn42 Zn 0.08672 0.59082 0.24406 0.0
O43 O 0.92831 0.5635 0.25979 0.0
Zn44 Zn 0.98007 0.53539 0.24137 0.0
O45 O 0.02332 0.50423 0.26737 0.0
O46 O 0.13304 0.5663 0.266 0.0
O47 O 0.93541 0.45715 0.22059 0.0
O48 O 0.04526 0.50792 0.21962 0.0
O49 O 0.13675 0.66564 0.22425 0.0
O50 O 0.02811 0.61352 0.21755 0.0
C51 C 0.08132 0.51933 0.27498 0.0
C52 C 0.08718 0.65948 0.21272 0.0
C53 C 0.63016 0.11725 0.6118 0.0
C54 C 0.50769 0.1191 0.54256 0.0
O55 O 0.58991 0.05972 0.60261 0.0
Zn56 Zn 0.52183 0.0154 0.57387 0.0
O57 O 0.63566 0.16848 0.60271 0.0
Zn58 Zn 0.57096 0.12233 0.57718 0.0
O59 O 0.47815 0.06964 0.59436 0.0
O60 O 0.43733 0.96182 0.58952 0.0
O61 O 0.54956 0.16993 0.55479 0.0
O62 O 0.49486 0.06135 0.54808 0.0
O63 O 0.563 0.97531 0.55509 0.0
O64 O 0.62088 0.08469 0.55642 0.0
C65 C 0.43203 0.00993 0.59781 0.0
C66 C 0.6141 0.0292 0.5493 0.0
C67 C 0.50628 0.4738 0.93791 0.0
C68 C 0.63979 0.60572 0.87318 0.0
O69 O 0.4935 0.51829 0.93187 0.0
Zn70 Zn 0.52329 0.59246 0.90666 0.0
O71 O 0.54993 0.46661 0.92707 0.0
Zn72 Zn 0.57512 0.53821 0.90565 0.0
O73 O 0.61823 0.62448 0.92839 0.0
O74 O 0.55881 0.67322 0.92624 0.0
O75 O 0.64554 0.56119 0.88313 0.0
O76 O 0.59675 0.62041 0.88042 0.0
O77 O 0.44156 0.55942 0.88808 0.0
O78 O 0.48801 0.49808 0.88386 0.0
C79 C 0.60839 0.67164 0.93475 0.0
C80 C 0.44147 0.5095 0.87862 0.0
H81 H 0.89256 0.14132 0.1075 0.0
H82 H 0.09444 0.21417 0.13196 0.0
H83 H 0.88626 0.22289 0.13333 0.0
H84 H 0.08745 0.2937 0.15818 0.0
H85 H 0.08638 0.47492 0.18372 0.0
H86 H 0.0857 0.39349 0.15637 0.0
H87 H 0.88188 0.25343 0.1738 0.0
H88 H 0.88195 0.33659 0.20082 0.0
C89 C 0.9354 0.1744 0.11849 0.0
C90 C 0.99419 0.17158 0.11754 0.0
C91 C 0.93165 0.22091 0.13339 0.0
C92 C 0.98653 0.26535 0.1477 0.0
C93 C 0.04473 0.2614 0.14702 0.0
C94 C 0.04863 0.21542 0.13206 0.0
C95 C 0.04121 0.42687 0.18168 0.0
C96 C 0.98439 0.41197 0.19461 0.0
C97 C 0.04096 0.37993 0.16608 0.0
C98 C 0.98415 0.31638 0.16315 0.0
C99 C 0.92642 0.30199 0.17554 0.0
C100 C 0.92647 0.34949 0.19107 0.0
H101 H 0.85499 0.00427 0.43766 0.0
H102 H 0.99488 0.11782 0.49388 0.0
H103 H 0.76254 0.98546 0.46278 0.0
H104 H 0.9028 0.09849 0.51885 0.0
H105 H 0.73646 0.13514 0.54174 0.0
H106 H 0.82452 0.14018 0.51793 0.0
H107 H 0.70215 0.9311 0.50006 0.0
H108 H 0.61244 0.92579 0.52415 0.0
C109 C 0.86602 0.02471 0.4554 0.0
C110 C 0.93241 0.06327 0.46367 0.0
C111 C 0.81302 0.0135 0.46981 0.0
C112 C 0.82547 0.04094 0.49271 0.0
C113 C 0.89169 0.07749 0.50117 0.0
C114 C 0.94448 0.08846 0.48685 0.0
C115 C 0.72791 0.08996 0.53282 0.0
C116 C 0.66721 0.02997 0.53487 0.0
C117 C 0.77881 0.09286 0.51928 0.0
C118 C 0.77053 0.03598 0.50726 0.0
C119 C 0.70979 0.97579 0.50911 0.0
C120 C 0.65866 0.97268 0.52295 0.0
H121 H 0.96121 0.90997 0.79711 0.0
H122 H 0.8062 0.80832 0.74419 0.0
H123 H 0.89253 0.82587 0.8248 0.0
H124 H 0.73765 0.72463 0.77195 0.0
H125 H 0.60974 0.66406 0.83922 0.0
H126 H 0.68137 0.73304 0.80869 0.0
H127 H 0.83797 0.70046 0.8321 0.0
H128 H 0.76538 0.63016 0.86282 0.0
C129 C 0.91274 0.86947 0.79133 0.0
C130 C 0.88893 0.86613 0.7685 0.0
C131 C 0.87371 0.82105 0.80714 0.0
C132 C 0.80978 0.7688 0.80052 0.0
C133 C 0.78664 0.7646 0.77754 0.0
C134 C 0.82595 0.8125 0.76166 0.0
C135 C 0.6592 0.67093 0.83774 0.0
C136 C 0.6821 0.64194 0.85347 0.0
C137 C 0.70005 0.71014 0.82015 0.0
C138 C 0.76522 0.72214 0.81803 0.0
C139 C 0.78795 0.69215 0.83343 0.0
C140 C 0.74641 0.65172 0.85088 0.0
H141 H 0.06413 0.83292 0.08403 0.0
H142 H 0.14128 0.99338 0.13618 0.0
H143 H 0.07197 0.76163 0.11222 0.0
H144 H 0.14888 0.9217 0.16438 0.0
H145 H 0.19619 0.78138 0.20397 0.0
H146 H 0.20587 0.85628 0.17338 0.0
H147 H 0.00722 0.71256 0.1482 0.0
H148 H 0.99743 0.63843 0.17847 0.0
C149 C 0.08345 0.85326 0.10141 0.0
C150 C 0.10142 0.91865 0.10791 0.0
C151 C 0.08774 0.81232 0.11757 0.0
C152 C 0.11062 0.83598 0.14053 0.0
C153 C 0.1315 0.90226 0.14676 0.0
C154 C 0.12668 0.94312 0.13064 0.0
C155 C 0.15494 0.76576 0.19176 0.0
C156 C 0.09597 0.70416 0.1937 0.0
C157 C 0.16036 0.80865 0.17435 0.0
C158 C 0.10737 0.79012 0.15837 0.0
C159 C 0.04921 0.72792 0.16005 0.0
C160 C 0.04346 0.68565 0.17755 0.0
H161 H 0.15921 0.9741 0.46054 0.0
H162 H 0.25714 0.17981 0.44264 0.0
H163 H 0.25603 0.99696 0.48383 0.0
H164 H 0.35526 0.20264 0.466 0.0
H165 H 0.47292 0.21333 0.53603 0.0
H166 H 0.38889 0.20488 0.50808 0.0
H167 H 0.37132 0.0259 0.47737 0.0
H168 H 0.45352 0.0336 0.50532 0.0
C169 C 0.20157 0.02424 0.46147 0.0
C170 C 0.20043 0.07503 0.44964 0.0
C171 C 0.25739 0.03729 0.47472 0.0
C172 C 0.31371 0.1015 0.47655 0.0
C173 C 0.31259 0.1527 0.46493 0.0
C174 C 0.25655 0.13951 0.4515 0.0
C175 C 0.45216 0.17321 0.52291 0.0
C176 C 0.46895 0.12359 0.52305 0.0
C177 C 0.40405 0.16829 0.50694 0.0
C178 C 0.3724 0.11385 0.49088 0.0
C179 C 0.39343 0.06743 0.48993 0.0
C180 C 0.44084 0.07208 0.50587 0.0
H181 H 0.06616 0.20784 0.81435 0.0
H182 H 0.21482 0.22987 0.76468 0.0
H183 H 0.15235 0.30043 0.83818 0.0
H184 H 0.30035 0.3229 0.78822 0.0
H185 H 0.4399 0.41102 0.85194 0.0
H186 H 0.35258 0.33071 0.82572 0.0
H187 H 0.23496 0.42182 0.84035 0.0
H188 H 0.32309 0.50281 0.86724 0.0
C189 C 0.11703 0.23286 0.80837 0.0
C190 C 0.13375 0.21087 0.78777 0.0
C191 C 0.1663 0.28623 0.82195 0.0
C192 C 0.23326 0.31865 0.81519 0.0
C193 C 0.24939 0.29823 0.79411 0.0
C194 C 0.2003 0.24496 0.78059 0.0
C195 C 0.39569 0.41445 0.84959 0.0
C196 C 0.38848 0.46338 0.86178 0.0
C197 C 0.34572 0.36854 0.83434 0.0
C198 C 0.28695 0.37004 0.83081 0.0
C199 C 0.27962 0.41924 0.84281 0.0
C200 C 0.33014 0.46576 0.85809 0.0
H201 H 0.80164 0.05346 0.73646 0.0
H202 H 0.95228 0.12145 0.68367 0.0
H203 H 0.73206 0.07664 0.71138 0.0
H204 H 0.88237 0.14439 0.65859 0.0
H205 H 0.75594 0.21827 0.6247 0.0
H206 H 0.82946 0.21541 0.65475 0.0
H207 H 0.67095 0.02257 0.67402 0.0
H208 H 0.59835 0.02533 0.64422 0.0
C209 C 0.82018 0.07381 0.71959 0.0
C210 C 0.88226 0.08495 0.71198 0.0
C211 C 0.78026 0.08706 0.70523 0.0
C212 C 0.80171 0.11226 0.68301 0.0
C213 C 0.86481 0.12568 0.67573 0.0
C214 C 0.90455 0.11193 0.69002 0.0
C215 C 0.73663 0.17607 0.63574 0.0
C216 C 0.6716 0.12193 0.63209 0.0
C217 C 0.77875 0.17416 0.65277 0.0
C218 C 0.75601 0.11863 0.66667 0.0
C219 C 0.68982 0.06628 0.66376 0.0
C220 C 0.64831 0.06774 0.6466 0.0
H221 H 0.89233 0.88819 0.04825 0.0
H222 H 0.90774 0.04075 0.00411 0.0
H223 H 0.79992 0.80448 0.02403 0.0
H224 H 0.8159 0.95654 0.97957 0.0
H225 H 0.61371 0.78701 0.95008 0.0
H226 H 0.69514 0.87229 0.97766 0.0
H227 H 0.79154 0.75796 0.98495 0.0
H228 H 0.71067 0.67327 0.95802 0.0
C229 C 0.87591 0.90395 0.03342 0.0
C230 C 0.90792 0.97113 0.02799 0.0
C231 C 0.82304 0.8559 0.01948 0.0
C232 C 0.80095 0.87376 0.99973 0.0
C233 C 0.83137 0.94119 0.99476 0.0
C234 C 0.88433 0.98938 0.00874 0.0
C235 C 0.6521 0.78007 0.95772 0.0
C236 C 0.65563 0.72331 0.95182 0.0
C237 C 0.69886 0.829 0.97341 0.0
C238 C 0.7496 0.82173 0.9836 0.0
C239 C 0.75249 0.76467 0.97778 0.0
C240 C 0.70624 0.71622 0.96213 0.0
H241 H 0.95357 0.81605 0.39733 0.0
H242 H 0.99807 0.94788 0.34061 0.0
H243 H 0.93967 0.72812 0.36949 0.0
H244 H 0.98219 0.85913 0.3128 0.0
H245 H 0.8858 0.65133 0.27152 0.0
H246 H 0.8794 0.72803 0.30034 0.0
H247 H 0.03902 0.73467 0.34068 0.0
H248 H 0.04703 0.66038 0.31169 0.0
C249 C 0.95923 0.82586 0.37891 0.0
C250 C 0.97735 0.8889 0.37113 0.0
C251 C 0.95125 0.77562 0.36305 0.0
C252 C 0.95952 0.78706 0.3391 0.0
C253 C 0.97492 0.84912 0.33119 0.0
C254 C 0.98447 0.89987 0.34709 0.0
C255 C 0.91878 0.66863 0.28672 0.0
C256 C 0.96704 0.65034 0.28942 0.0
C257 C 0.9153 0.71249 0.30308 0.0
C258 C 0.95866 0.73681 0.32264 0.0
C259 C 0.00483 0.71615 0.32579 0.0
C260 C 0.00953 0.67397 0.3092 0.0
H261 H 0.16605 0.97657 0.70791 0.0
H262 H 0.08126 0.01228 0.64709 0.0
H263 H 0.24564 0.96545 0.68316 0.0
H264 H 0.1611 1.00176 0.62257 0.0
H265 H 0.3824 0.09168 0.59998 0.0
H266 H 0.28886 0.08041 0.62232 0.0
H267 H 0.2534 0.89407 0.64741 0.0
H268 H 0.34754 0.90482 0.62446 0.0
C269 C 0.16387 0.98129 0.68927 0.0
C270 C 0.11778 0.99601 0.6795 0.0
C271 C 0.20908 0.9744 0.67511 0.0
C272 C 0.2096 0.98301 0.651 0.0
C273 C 0.16194 0.99523 0.64114 0.0
C274 C 0.11622 1.0012 0.65521 0.0
C275 C 0.35451 0.04797 0.61012 0.0
C276 C 0.37243 0.99921 0.61056 0.0
C277 C 0.30063 0.04136 0.62278 0.0
C278 C 0.26382 0.98632 0.63652 0.0
C279 C 0.28115 0.93703 0.63693 0.0
C280 C 0.33463 0.94301 0.62377 0.0
H281 H 0.17759 0.28588 0.02776 0.0
H282 H 0.26376 0.16266 0.03628 0.0
H283 H 0.26709 0.35558 1.0022 0.0
H284 H 0.3555 0.23439 0.01106 0.0
H285 H 0.4644 0.34225 0.94303 0.0
H286 H 0.3833 0.26851 0.97111 0.0
H287 H 0.38191 0.43622 0.00406 0.0
H288 H 0.45995 0.50838 0.97561 0.0
C289 C 0.21606 0.27396 0.02435 0.0
C290 C 0.21366 0.21889 0.03419 0.0
C291 C 0.26786 0.31435 0.00978 0.0
C292 C 0.31933 0.30138 0.00482 0.0
C293 C 0.31663 0.24573 0.01443 0.0
C294 C 0.26422 0.2048 0.02895 0.0
C295 C 0.4474 0.36316 0.95656 0.0
C296 C 0.46763 0.43073 0.957 0.0
C297 C 0.401 0.32105 0.97265 0.0
C298 C 0.3748 0.34614 0.98954 0.0
C299 C 0.39917 0.41469 0.99085 0.0
C300 C 0.4444 0.45625 0.97466 0.0
H301 H 0.03445 0.30239 0.40058 0.0
H302 H 0.1248 0.2318 0.35048 0.0
H303 H 0.04545 0.38522 0.37351 0.0
H304 H 0.13569 0.31476 0.32345 0.0
H305 H 0.18914 0.50916 0.28802 0.0
H306 H 0.19306 0.43964 0.31824 0.0
H307 H 0.98862 0.37424 0.33499 0.0
H308 H 0.98452 0.44288 0.30502 0.0
C309 C 0.05722 0.30491 0.3839 0.0
C310 C 0.07818 0.26008 0.3776 0.0
C311 C 0.06335 0.35224 0.36839 0.0
C312 C 0.09118 0.35624 0.34634 0.0
C313 C 0.11453 0.31317 0.34039 0.0
C314 C 0.10781 0.26536 0.35581 0.0
C315 C 0.14536 0.48035 0.29833 0.0
C316 C 0.08646 0.48123 0.29407 0.0
C317 C 0.1475 0.44041 0.31552 0.0
C318 C 0.09117 0.40166 0.32898 0.0
C319 C 0.03304 0.40409 0.32509 0.0
C320 C 0.03059 0.44308 0.30777 0.0
loop_
_geom_bond_atom_site_label_1
_geom_bond_atom_site_label_2
_geom_bond_distance
_geom_bond_site_symmetry_2
_ccdc_geom_bond_type
C0 O1 1.160 . S
C0 O7 1.185 1_565 S
O1 C0 1.160 . S
O2 Zn3 1.899 . S
O2 C10 1.284 . S
Zn3 O2 1.899 . S
Zn3 O4 2.032 1_445 S
Zn3 O7 2.086 . S
Zn3 O12 1.977 . S
O4 Zn3 2.032 1_665 S
O4 C8 1.278 . S
C5 O6 1.203 . S
C5 O12 1.267 . S
O6 C5 1.203 . S
O7 C0 1.185 1_545 S
O7 Zn3 2.086 . S
C8 O4 1.278 . S
C8 O9 1.211 1_565 S
O9 C8 1.211 1_545 S
C10 O2 1.284 . S
C10 O11 1.273 1_455 S
O11 C10 1.273 1_655 S
O12 Zn3 1.977 . S
O12 C5 1.267 . S
C13 O14 1.160 . S
C13 O20 1.185 . S
O14 C13 1.160 . S
O15 Zn16 1.899 . S
O15 C23 1.284 1_545 S
Zn16 O15 1.899 . S
Zn16 O17 2.032 1_455 S
Zn16 O20 2.086 . S
Zn16 O25 1.977 . S
O17 Zn16 2.032 1_655 S
O17 C21 1.278 . S
C18 O19 1.203 . S
C18 O25 1.267 . S
O19 C18 1.203 . S
O20 C13 1.185 . S
O20 Zn16 2.086 . S
C21 O17 1.278 . S
C21 O22 1.211 . S
O22 C21 1.211 . S
C23 O15 1.284 1_565 S
C23 O24 1.273 1_455 S
O24 C23 1.273 1_655 S
O25 Zn16 1.977 . S
O25 C18 1.267 . S
C26 O27 1.160 . S
C26 O33 1.185 1_545 S
O27 C26 1.160 . S
O28 Zn29 1.899 1_655 S
O28 C36 1.284 . S
Zn29 O28 1.899 1_455 S
Zn29 O30 2.032 . S
Zn29 O33 2.086 1_545 S
Zn29 O38 1.977 1_445 S
O30 Zn29 2.032 . S
O30 C34 1.278 . S
C31 O32 1.203 . S
C31 O38 1.267 . S
O32 C31 1.203 . S
O33 C26 1.185 1_565 S
O33 Zn29 2.086 1_565 S
C34 O30 1.278 . S
C34 O35 1.211 . S
O35 C34 1.211 . S
C36 O28 1.284 . S
C36 O37 1.273 . S
O37 C36 1.273 . S
O38 Zn29 1.977 1_665 S
O38 C31 1.267 . S
C39 O41 1.247 . S
C39 O43 1.258 1_455 S
C40 O47 1.247 1_455 S
C40 O48 1.258 . S
O41 C39 1.247 . S
O41 Zn42 2.028 . S
Zn42 O41 2.028 . S
Zn42 O46 2.035 . S
Zn42 O48 2.035 . S
Zn42 O49 2.028 . S
O43 C39 1.258 1_655 S
O43 Zn44 2.035 . S
Zn44 O43 2.035 . S
Zn44 O45 2.028 . S
Zn44 O47 2.028 . S
Zn44 O50 2.035 . S
O45 Zn44 2.028 . S
O45 C51 1.247 1_655 S
O46 Zn42 2.035 . S
O46 C51 1.258 . S
O47 C40 1.247 1_655 S
O47 Zn44 2.028 . S
O48 C40 1.258 . S
O48 Zn42 2.035 . S
O49 Zn42 2.028 . S
O49 C52 1.247 . S
O50 Zn44 2.035 . S
O50 C52 1.258 1_655 S
C51 O45 1.247 1_455 S
C51 O46 1.258 . S
C52 O49 1.247 . S
C52 O50 1.258 1_455 S
C53 O55 1.247 1_545 S
C53 O57 1.258 . S
C54 O61 1.247 . S
C54 O62 1.258 1_545 S
O55 C53 1.247 1_565 S
O55 Zn56 2.028 . S
Zn56 O55 2.028 . S
Zn56 O60 2.035 . S
Zn56 O62 2.035 . S
Zn56 O63 2.028 . S
O57 C53 1.258 . S
O57 Zn58 2.035 . S
Zn58 O57 2.035 . S
Zn58 O59 2.028 . S
Zn58 O61 2.028 . S
Zn58 O64 2.035 . S
O59 Zn58 2.028 . S
O59 C65 1.247 . S
O60 Zn56 2.035 . S
O60 C65 1.258 1_565 S
O61 C54 1.247 . S
O61 Zn58 2.028 . S
O62 C54 1.258 1_565 S
O62 Zn56 2.035 . S
O63 Zn56 2.028 . S
O63 C66 1.247 1_565 S
O64 Zn58 2.035 . S
O64 C66 1.258 . S
C65 O59 1.247 . S
C65 O60 1.258 1_545 S
C66 O63 1.247 1_545 S
C66 O64 1.258 . S
C67 O69 1.247 . S
C67 O71 1.258 . S
C68 O75 1.247 . S
C68 O76 1.258 . S
O69 C67 1.247 . S
O69 Zn70 2.028 . S
Zn70 O69 2.028 . S
Zn70 O74 2.035 . S
Zn70 O76 2.035 . S
Zn70 O77 2.028 . S
O71 C67 1.258 . S
O71 Zn72 2.035 . S
Zn72 O71 2.035 . S
Zn72 O73 2.028 . S
Zn72 O75 2.028 . S
Zn72 O78 2.035 . S
O73 Zn72 2.028 . S
O73 C79 1.247 . S
O74 Zn70 2.035 . S
O74 C79 1.258 . S
O75 C68 1.247 . S
O75 Zn72 2.028 . S
O76 C68 1.258 . S
O76 Zn70 2.035 . S
O77 Zn70 2.028 . S
O77 C80 1.247 . S
O78 Zn72 2.035 . S
O78 C80 1.258 . S
C79 O73 1.247 . S
C79 O74 1.258 . S
C80 O77 1.247 . S
C80 O78 1.258 . S
H81 C89 0.950 . S
H82 C94 0.950 . S
H83 C91 0.950 . S
H84 C93 0.950 . S
H85 C95 0.950 . S
H86 C97 0.950 . S
H87 C99 0.950 . S
H88 C100 0.950 . S
C89 H81 0.950 . S
C89 C90 1.386 1_655 S
C89 C91 1.391 . S
C90 C89 1.386 1_455 S
C90 C94 1.393 . S
C91 H83 0.950 . S
C91 C89 1.391 . S
C91 C92 1.400 1_655 S
C92 C91 1.400 1_455 S
C92 C93 1.398 . S
C92 C98 1.491 . S
C93 H84 0.950 . S
C93 C92 1.398 . S
C93 C94 1.391 . S
C94 H82 0.950 . S
C94 C90 1.393 . S
C94 C93 1.391 . S
C95 H85 0.950 . S
C95 C96 1.386 . S
C95 C97 1.391 . S
C96 C95 1.386 . S
C96 C100 1.393 1_455 S
C97 H86 0.950 . S
C97 C95 1.391 . S
C97 C98 1.400 . S
C98 C92 1.491 . S
C98 C97 1.400 . S
C98 C99 1.398 1_455 S
C99 H87 0.950 . S
C99 C98 1.398 1_655 S
C99 C100 1.391 . S
C100 H88 0.950 . S
C100 C96 1.393 1_655 S
C100 C99 1.391 . S
H101 C109 0.950 1_565 S
H102 C114 0.950 . S
H103 C111 0.950 1_565 S
H104 C113 0.950 . S
H105 C115 0.950 . S
H106 C117 0.950 . S
H107 C119 0.950 . S
H108 C120 0.950 . S
C109 H101 0.950 1_545 S
C109 C110 1.386 . S
C109 C111 1.391 . S
C110 C109 1.386 . S
C110 C114 1.393 . S
C111 H103 0.950 1_545 S
C111 C109 1.391 . S
C111 C112 1.400 . S
C112 C111 1.400 . S
C112 C113 1.398 . S
C112 C118 1.491 . S
C113 H104 0.950 . S
C113 C112 1.398 . S
C113 C114 1.391 . S
C114 H102 0.950 . S
C114 C110 1.393 . S
C114 C113 1.391 . S
C115 H105 0.950 . S
C115 C116 1.386 . S
C115 C117 1.391 . S
C116 C115 1.386 . S
C116 C120 1.393 . S
C117 H106 0.950 . S
C117 C115 1.391 . S
C117 C118 1.400 . S
C118 C112 1.491 . S
C118 C117 1.400 . S
C118 C119 1.398 . S
C119 H107 0.950 . S
C119 C118 1.398 . S
C119 C120 1.391 . S
C120 H108 0.950 . S
C120 C116 1.393 . S
C120 C119 1.391 . S
H121 C129 0.950 . S
H122 C134 0.950 . S
H123 C131 0.950 . S
H124 C133 0.950 . S
H125 C135 0.950 . S
H126 C137 0.950 . S
H127 C139 0.950 . S
H128 C140 0.950 . S
C129 H121 0.950 . S
C129 C130 1.386 . S
C129 C131 1.391 . S
C130 C129 1.386 . S
C130 C134 1.393 . S
C131 H123 0.950 . S
C131 C129 1.391 . S
C131 C132 1.400 . S
C132 C131 1.400 . S
C132 C133 1.398 . S
C132 C138 1.491 . S
C133 H124 0.950 . S
C133 C132 1.398 . S
C133 C134 1.391 . S
C134 H122 0.950 . S
C134 C130 1.393 . S
C134 C133 1.391 . S
C135 H125 0.950 . S
C135 C136 1.386 . S
C135 C137 1.391 . S
C136 C135 1.386 . S
C136 C140 1.393 . S
C137 H126 0.950 . S
C137 C135 1.391 . S
C137 C138 1.400 . S
C138 C132 1.491 . S
C138 C137 1.400 . S
C138 C139 1.398 . S
C139 H127 0.950 . S
C139 C138 1.398 . S
C139 C140 1.391 . S
C140 H128 0.950 . S
C140 C136 1.393 . S
C140 C139 1.391 . S
H141 C149 0.950 1_655 S
H142 C154 0.950 . S
H143 C151 0.950 1_655 S
H144 C153 0.950 . S
H145 C155 0.950 . S
H146 C157 0.950 . S
H147 C159 0.950 . S
H148 C160 0.950 . S
C149 H141 0.950 1_455 S
C149 C150 1.386 . S
C149 C151 1.391 . S
C150 C149 1.386 . S
C150 C154 1.393 . S
C151 H143 0.950 1_455 S
C151 C149 1.391 . S
C151 C152 1.400 . S
C152 C151 1.400 . S
C152 C153 1.398 . S
C152 C158 1.491 . S
C153 H144 0.950 . S
C153 C152 1.398 . S
C153 C154 1.391 . S
C154 H142 0.950 . S
C154 C150 1.393 . S
C154 C153 1.391 . S
C155 H145 0.950 . S
C155 C156 1.386 . S
C155 C157 1.391 . S
C156 C155 1.386 . S
C156 C160 1.393 1_455 S
C157 H146 0.950 . S
C157 C155 1.391 . S
C157 C158 1.400 . S
C158 C152 1.491 . S
C158 C157 1.400 . S
C158 C159 1.398 1_455 S
C159 H147 0.950 . S
C159 C158 1.398 1_655 S
C159 C160 1.391 . S
C160 H148 0.950 . S
C160 C156 1.393 1_655 S
C160 C159 1.391 . S
H161 C169 0.950 . S
H162 C174 0.950 . S
H163 C171 0.950 . S
H164 C173 0.950 . S
H165 C175 0.950 . S
H166 C177 0.950 . S
H167 C179 0.950 . S
H168 C180 0.950 . S
C169 H161 0.950 . S
C169 C170 1.386 . S
C169 C171 1.391 . S
C170 C169 1.386 . S
C170 C174 1.393 . S
C171 H163 0.950 . S
C171 C169 1.391 . S
C171 C172 1.400 . S
C172 C171 1.400 . S
C172 C173 1.398 . S
C172 C178 1.491 . S
C173 H164 0.950 . S
C173 C172 1.398 . S
C173 C174 1.391 . S
C174 H162 0.950 . S
C174 C170 1.393 . S
C174 C173 1.391 . S
C175 H165 0.950 . S
C175 C176 1.386 . S
C175 C177 1.391 . S
C176 C175 1.386 . S
C176 C180 1.393 . S
C177 H166 0.950 . S
C177 C175 1.391 . S
C177 C178 1.400 . S
C178 C172 1.491 . S
C178 C177 1.400 . S
C178 C179 1.398 . S
C179 H167 0.950 . S
C179 C178 1.398 . S
C179 C180 1.391 . S
C180 H168 0.950 . S
C180 C176 1.393 . S
C180 C179 1.391 . S
H181 C189 0.950 . S
H182 C194 0.950 . S
H183 C191 0.950 . S
H184 C193 0.950 . S
H185 C195 0.950 . S
H186 C197 0.950 . S
H187 C199 0.950 . S
H188 C200 0.950 . S
C189 H181 0.950 . S
C189 C190 1.386 . S
C189 C191 1.391 . S
C190 C189 1.386 . S
C190 C194 1.393 . S
C191 H183 0.950 . S
C191 C189 1.391 . S
C191 C192 1.400 . S
C192 C191 1.400 . S
C192 C193 1.398 . S
C192 C198 1.491 . S
C193 H184 0.950 . S
C193 C192 1.398 . S
C193 C194 1.391 . S
C194 H182 0.950 . S
C194 C190 1.393 . S
C194 C193 1.391 . S
C195 H185 0.950 . S
C195 C196 1.386 . S
C195 C197 1.391 . S
C196 C195 1.386 . S
C196 C200 1.393 . S
C197 H186 0.950 . S
C197 C195 1.391 . S
C197 C198 1.400 . S
C198 C192 1.491 . S
C198 C197 1.400 . S
C198 C199 1.398 . S
C199 H187 0.950 . S
C199 C198 1.398 . S
C199 C200 1.391 . S
C200 H188 0.950 . S
C200 C196 1.393 . S
C200 C199 1.391 . S
H201 C209 0.950 . S
H202 C214 0.950 . S
H203 C211 0.950 . S
H204 C213 0.950 . S
H205 C215 0.950 . S
H206 C217 0.950 . S
H207 C219 0.950 1_565 S
H208 C220 0.950 1_565 S
C209 H201 0.950 . S
C209 C210 1.386 . S
C209 C211 1.391 . S
C210 C209 1.386 . S
C210 C214 1.393 . S
C211 H203 0.950 . S
C211 C209 1.391 . S
C211 C212 1.400 . S
C212 C211 1.400 . S
C212 C213 1.398 . S
C212 C218 1.491 . S
C213 H204 0.950 . S
C213 C212 1.398 . S
C213 C214 1.391 . S
C214 H202 0.950 . S
C214 C210 1.393 . S
C214 C213 1.391 . S
C215 H205 0.950 . S
C215 C216 1.386 . S
C215 C217 1.391 . S
C216 C215 1.386 . S
C216 C220 1.393 . S
C217 H206 0.950 . S
C217 C215 1.391 . S
C217 C218 1.400 . S
C218 C212 1.491 . S
C218 C217 1.400 . S
C218 C219 1.398 . S
C219 H207 0.950 1_545 S
C219 C218 1.398 . S
C219 C220 1.391 . S
C220 H208 0.950 1_545 S
C220 C216 1.393 . S
C220 C219 1.391 . S
H221 C229 0.950 . S
H222 C234 0.950 . S
H223 C231 0.950 1_556 S
H224 C233 0.950 . S
H225 C235 0.950 . S
H226 C237 0.950 . S
H227 C239 0.950 . S
H228 C240 0.950 . S
C229 H221 0.950 . S
C229 C230 1.386 . S
C229 C231 1.391 . S
C230 C229 1.386 . S
C230 C234 1.393 . S
C231 H223 0.950 1_554 S
C231 C229 1.391 . S
C231 C232 1.400 1_554 S
C232 C231 1.400 1_556 S
C232 C233 1.396 1_556 S
C232 C238 1.493 . S
C233 H224 0.950 . S
C233 C232 1.396 1_554 S
C233 C234 1.391 . S
C234 H222 0.950 . S
C234 C230 1.393 . S
C234 C233 1.391 . S
C235 H225 0.950 . S
C235 C236 1.386 . S
C235 C237 1.391 . S
C236 C235 1.386 . S
C236 C240 1.393 . S
C237 H226 0.950 . S
C237 C235 1.391 . S
C237 C238 1.400 . S
C238 C232 1.493 . S
C238 C237 1.400 . S
C238 C239 1.398 . S
C239 H227 0.950 . S
C239 C238 1.398 . S
C239 C240 1.391 . S
C240 H228 0.950 . S
C240 C236 1.393 . S
C240 C239 1.391 . S
H241 C249 0.950 . S
H242 C254 0.950 . S
H243 C251 0.950 . S
H244 C253 0.950 . S
H245 C255 0.950 . S
H246 C257 0.950 . S
H247 C259 0.950 . S
H248 C260 0.950 . S
C249 H241 0.950 . S
C249 C250 1.386 . S
C249 C251 1.391 . S
C250 C249 1.386 . S
C250 C254 1.393 . S
C251 H243 0.950 . S
C251 C249 1.391 . S
C251 C252 1.400 . S
C252 C251 1.400 . S
C252 C253 1.398 . S
C252 C258 1.491 . S
C253 H244 0.950 . S
C253 C252 1.398 . S
C253 C254 1.391 . S
C254 H242 0.950 . S
C254 C250 1.393 . S
C254 C253 1.391 . S
C255 H245 0.950 . S
C255 C256 1.386 . S
C255 C257 1.391 . S
C256 C255 1.386 . S
C256 C260 1.393 . S
C257 H246 0.950 . S
C257 C255 1.391 . S
C257 C258 1.400 . S
C258 C252 1.491 . S
C258 C257 1.400 . S
C258 C259 1.398 . S
C259 H247 0.950 . S
C259 C258 1.398 . S
C259 C260 1.391 . S
C260 H248 0.950 . S
C260 C256 1.393 . S
C260 C259 1.391 . S
H261 C269 0.950 . S
H262 C274 0.950 . S
H263 C271 0.950 . S
H264 C273 0.950 . S
H265 C275 0.950 . S
H266 C277 0.950 . S
H267 C279 0.950 . S
H268 C280 0.950 . S
C269 H261 0.950 . S
C269 C270 1.386 1_565 S
C269 C271 1.391 . S
C270 C269 1.386 1_545 S
C270 C274 1.393 . S
C271 H263 0.950 . S
C271 C269 1.391 . S
C271 C272 1.400 1_565 S
C272 C271 1.400 1_545 S
C272 C273 1.398 . S
C272 C278 1.491 . S
C273 H264 0.950 . S
C273 C272 1.398 . S
C273 C274 1.391 . S
C274 H262 0.950 . S
C274 C270 1.393 . S
C274 C273 1.391 . S
C275 H265 0.950 . S
C275 C276 1.386 . S
C275 C277 1.391 . S
C276 C275 1.386 . S
C276 C280 1.393 1_545 S
C277 H266 0.950 . S
C277 C275 1.391 . S
C277 C278 1.400 . S
C278 C272 1.491 . S
C278 C277 1.400 . S
C278 C279 1.398 1_545 S
C279 H267 0.950 . S
C279 C278 1.398 1_565 S
C279 C280 1.391 . S
C280 H268 0.950 . S
C280 C276 1.393 1_565 S
C280 C279 1.391 . S
H281 C289 0.950 . S
H282 C294 0.950 . S
H283 C291 0.950 . S
H284 C293 0.950 . S
H285 C295 0.950 . S
H286 C297 0.950 . S
H287 C299 0.950 . S
H288 C300 0.950 . S
C289 H281 0.950 . S
C289 C290 1.386 . S
C289 C291 1.391 1_554 S
C290 C289 1.386 . S
C290 C294 1.393 . S
C291 H283 0.950 . S
C291 C289 1.391 1_556 S
C291 C292 1.400 . S
C292 C291 1.400 . S
C292 C293 1.398 1_556 S
C292 C298 1.491 . S
C293 H284 0.950 . S
C293 C292 1.398 1_554 S
C293 C294 1.391 . S
C294 H282 0.950 . S
C294 C290 1.393 . S
C294 C293 1.391 . S
C295 H285 0.950 . S
C295 C296 1.386 . S
C295 C297 1.391 . S
C296 C295 1.386 . S
C296 C300 1.393 . S
C297 H286 0.950 . S
C297 C295 1.391 . S
C297 C298 1.400 . S
C298 C292 1.491 . S
C298 C297 1.400 . S
C298 C299 1.398 . S
C299 H287 0.950 . S
C299 C298 1.398 . S
C299 C300 1.391 . S
C300 H288 0.950 . S
C300 C296 1.393 . S
C300 C299 1.391 . S
H301 C309 0.950 1_655 S
H302 C314 0.950 . S
H303 C311 0.950 1_655 S
H304 C313 0.950 . S
H305 C315 0.950 . S
H306 C317 0.950 . S
H307 C319 0.950 . S
H308 C320 0.950 . S
C309 H301 0.950 1_455 S
C309 C310 1.386 . S
C309 C311 1.391 . S
C310 C309 1.386 . S
C310 C314 1.393 . S
C311 H303 0.950 1_455 S
C311 C309 1.391 . S
C311 C312 1.400 . S
C312 C311 1.400 . S
C312 C313 1.398 . S
C312 C318 1.491 . S
C313 H304 0.950 . S
C313 C312 1.398 . S
C313 C314 1.391 . S
C314 H302 0.950 . S
C314 C310 1.393 . S
C314 C313 1.391 . S
C315 H305 0.950 . S
C315 C316 1.386 . S
C315 C317 1.391 . S
C316 C315 1.386 . S
C316 C320 1.393 1_455 S
C317 H306 0.950 . S
C317 C315 1.391 . S
C317 C318 1.400 . S
C318 C312 1.491 . S
C318 C317 1.400 . S
C318 C319 1.398 1_455 S
C319 H307 0.950 . S
C319 C318 1.398 1_655 S
C319 C320 1.391 . S
C320 H308 0.950 . S
C320 C316 1.393 1_655 S
C320 C319 1.391 . S
C96 C40 1.403 . S
C90 C10 1.407 . S
C110 C21 1.417 . S
C116 C66 1.458 . S
C130 C31 1.355 . S
C136 C68 1.425 . S
C150 C0 1.369 . S
C156 C52 1.413 . S
C176 C54 1.427 . S
C170 C18 1.349 . S
C190 C34 1.366 . S
C196 C80 1.412 . S
C216 C53 1.404 . S
C210 C36 1.402 . S
C230 C8 1.386 . S
C236 C79 1.416 . S
C256 C39 1.409 . S
C250 C23 1.409 . S
C276 C65 1.360 . S
C270 C26 1.298 . S
C296 C67 1.430 . S
C290 C5 1.359 . S
C310 C13 1.377 . S
C316 C51 1.422 . S
