# Generated by pormake.
# Topology pth, (4,4)-cn, num edge types: 1
# Building blocks:
#     Node 0, Type 0, BuildingBlock: QUQFOY_clean_sbu_1, # of connection points: 4
#     Node 1, Type 0, BuildingBlock: QUQFOY_clean_sbu_1, # of connection points: 4
#     Node 2, Type 0, BuildingBlock: QUQFOY_clean_sbu_1, # of connection points: 4
#     Node 3, Type 1, BuildingBlock: KOZSID_clean_sbu_0, # of connection points: 4
#     Node 4, Type 1, BuildingBlock: KOZSID_clean_sbu_0, # of connection points: 4
#     Node 5, Type 1, BuildingBlock: KOZSID_clean_sbu_0, # of connection points: 4
#     Edge 6, Type (0, 1), BuildingBlock: ZUJKAS_clean_linker_0, # of connection points: 2
#     Edge 7, Type (0, 1), BuildingBlock: ZUJKAS_clean_linker_0, # of connection points: 2
#     Edge 8, Type (0, 1), BuildingBlock: ZUJKAS_clean_linker_0, # of connection points: 2
#     Edge 9, Type (0, 1), BuildingBlock: ZUJKAS_clean_linker_0, # of connection points: 2
#     Edge 10, Type (0, 1), BuildingBlock: ZUJKAS_clean_linker_0, # of connection points: 2
#     Edge 11, Type (0, 1), BuildingBlock: ZUJKAS_clean_linker_0, # of connection points: 2
#     Edge 12, Type (0, 1), BuildingBlock: ZUJKAS_clean_linker_0, # of connection points: 2
#     Edge 13, Type (0, 1), BuildingBlock: ZUJKAS_clean_linker_0, # of connection points: 2
#     Edge 14, Type (0, 1), BuildingBlock: ZUJKAS_clean_linker_0, # of connection points: 2
#     Edge 15, Type (0, 1), BuildingBlock: ZUJKAS_clean_linker_0, # of connection points: 2
#     Edge 16, Type (0, 1), BuildingBlock: ZUJKAS_clean_linker_0, # of connection points: 2
#     Edge 17, Type (0, 1), BuildingBlock: ZUJKAS_clean_linker_0, # of connection points: 2
# Relax obj value: 0.021
# Max RMSD: 0.124
# Mean RMSD: 0.073
data_MOF--net-pth--node1-QUQFOY_clean_sbu_1--node2-KOZSID_clean_sbu_0--edge1-ZUJKAS_clean_linker_0
_symmetry_space_group_name_H-M    P1
_symmetry_Int_Tables_number       1
_symmetry_cell_setting            triclinic
loop_
_symmetry_equiv_pos_as_xyz
'x, y, z'
_cell_length_a     32.568099
_cell_length_b     35.25181
_cell_length_c     79.047024
_cell_angle_alpha  87.926312
_cell_angle_beta   87.885525
_cell_angle_gamma 120.09545
loop_
_atom_site_label
_atom_site_type_symbol
_atom_site_fract_x
_atom_site_fract_y
_atom_site_fract_z
_atom_type_partial_charge
O0 O 0.08921 0.11119 0.03427 0.0
Cd1 Cd 0.03062 0.06913 0.05002 0.0
Cd2 Cd 0.07832 0.02296 0.05035 0.0
O3 O 0.13319 0.08062 0.03829 0.0
O4 O 1.00229 0.10556 0.05679 0.0
O5 O 0.03533 0.08111 0.07484 0.0
C6 C 0.01577 0.10459 0.07186 0.0
C7 C 0.09063 0.98337 0.07206 0.0
C8 C 0.12829 0.11168 0.03187 0.0
C9 C 0.98344 0.98283 0.03425 0.0
O10 O 0.02194 0.98284 0.03637 0.0
O11 O 0.97753 0.01328 0.03985 0.0
O12 O 0.1053 0.98485 0.05655 0.0
O13 O 0.07149 0.00688 0.0755 0.0
O14 O 0.01004 0.0923 0.38932 0.0
Cd15 Cd 0.06852 0.10942 0.37314 0.0
Cd16 Cd 0.0265 0.01832 0.37492 0.0
O17 O 0.9704 0.02048 0.38732 0.0
O18 O 0.09158 0.17239 0.36643 0.0
O19 O 0.06362 0.1204 0.34821 0.0
C20 C 0.07965 0.16107 0.35127 0.0
C21 C 0.01381 0.96721 0.35463 0.0
C22 C 0.97312 0.05504 0.3929 0.0
C23 C 0.12286 0.07241 0.38963 0.0
O24 O 0.0861 0.03512 0.3882 0.0
O25 O 0.12503 0.10719 0.38337 0.0
O26 O 0.00314 0.95549 0.37055 0.0
O27 O 0.02958 0.00799 0.35003 0.0
O28 O 0.99381 0.02234 0.70261 0.0
Cd29 Cd 0.03765 0.00941 0.7169 0.0
Cd30 Cd 0.08707 0.09814 0.71614 0.0
O31 O 0.02679 0.09324 0.70609 0.0
O32 O 0.99722 0.94589 0.72427 0.0
O33 O 0.02296 0.99857 0.74223 0.0
C34 C 0.99768 0.9573 0.73961 0.0
C35 C 0.12367 0.14217 0.73856 0.0
C36 C 0.99397 0.05831 0.70038 0.0
C37 C 0.13246 0.05362 0.69783 0.0
O38 O 0.1324 0.08913 0.70005 0.0
O39 O 0.09916 0.01737 0.70469 0.0
O40 O 0.12592 0.1591 0.72357 0.0
O41 O 0.09858 0.09992 0.74106 0.0
C42 C 0.0927 0.6296 0.18499 0.0
C43 C 0.13722 0.6617 0.17812 0.0
C44 C 0.16982 0.65525 0.1861 0.0
C45 C 0.14357 0.61983 0.19737 0.0
N46 N 0.09609 0.6029 0.19697 0.0
Co47 Co 0.0452 0.55209 0.21162 0.0
N48 N 0.09355 0.54685 0.22501 0.0
C49 C 0.14133 0.57322 0.22318 0.0
C50 C 0.16552 0.5612 0.23389 0.0
C51 C 0.13123 0.52468 0.24302 0.0
C52 C 0.08782 0.51651 0.23734 0.0
N53 N 0.99435 0.50015 0.22584 0.0
C54 C 0.99805 0.47314 0.23759 0.0
C55 C 0.95374 0.43909 0.24369 0.0
C56 C 0.92085 0.44418 0.23525 0.0
C57 C 0.94682 0.48091 0.22453 0.0
N58 N 0.99688 0.55864 0.19871 0.0
C59 C 0.94899 0.53376 0.20108 0.0
C60 C 0.92502 0.54768 0.19107 0.0
C61 C 0.95962 0.58421 0.18198 0.0
C62 C 0.00287 0.59048 0.18702 0.0
N63 N 0.04586 0.5106 0.19526 0.0
C64 C 0.04361 0.44493 0.17506 0.0
C65 C 0.003 0.44812 0.17831 0.0
C66 C 0.00485 0.48068 0.18834 0.0
C67 C 0.086 0.47666 0.18151 0.0
C68 C 0.08641 0.50913 0.19135 0.0
N69 N 0.0442 0.59331 0.22796 0.0
C70 C 0.99951 0.61745 0.24509 0.0
C71 C 0.04096 0.65612 0.2483 0.0
C72 C 0.08436 0.66195 0.24173 0.0
C73 C 0.08516 0.63039 0.23166 0.0
C74 C 1.00194 0.58668 0.23511 0.0
H75 H 0.11924 0.63708 0.22674 0.0
H76 H 0.96898 0.55808 0.23314 0.0
H77 H 0.9723 0.4804 0.19048 0.0
H78 H 0.1198 0.53216 0.1959 0.0
C79 C 0.16253 0.60558 0.20994 0.0
C80 C 0.04856 0.62765 0.18058 0.0
C81 C 0.04256 0.47781 0.24313 0.0
C82 C 0.92771 0.49791 0.21301 0.0
H83 H 0.14555 0.68811 0.16876 0.0
H84 H 0.20816 0.67534 0.18448 0.0
H85 H 0.20365 0.57602 0.23444 0.0
H86 H 0.13774 0.50541 0.25235 0.0
H87 H 0.94607 0.41295 0.25311 0.0
H88 H 0.88257 0.42321 0.23658 0.0
H89 H 0.88693 0.5334 0.19064 0.0
H90 H 0.95374 0.60434 0.17285 0.0
H91 H 0.96953 0.42546 0.17319 0.0
H92 H 0.11863 0.47594 0.1794 0.0
H93 H 0.96512 0.61088 0.25025 0.0
H94 H 0.1175 0.69135 0.24391 0.0
C95 C 0.47381 0.02481 0.57168 0.0
C96 C 0.43661 0.98483 0.57852 0.0
C97 C 0.44005 0.95287 0.57052 0.0
C98 C 0.47877 0.97497 0.55923 0.0
N99 N 0.50042 0.01923 0.5595 0.0
Co100 Co 0.55745 0.06379 0.54488 0.0
N101 N 0.56201 0.01648 0.53301 0.0
C102 C 0.53326 0.97255 0.53589 0.0
C103 C 0.54553 0.94819 0.52603 0.0
C104 C 0.5845 0.97827 0.51621 0.0
C105 C 0.59362 0.01948 0.52061 0.0
N106 N 0.6146 0.10832 0.5303 0.0
C107 C 0.64117 0.10265 0.51811 0.0
C108 C 0.67756 0.14258 0.51092 0.0
C109 C 0.67426 0.17462 0.51895 0.0
C110 C 0.63609 0.15259 0.53048 0.0
N111 N 0.55275 0.11107 0.55673 0.0
C112 C 0.5816 0.15502 0.5539 0.0
C113 C 0.56978 0.17927 0.56403 0.0
C114 C 0.53097 0.14909 0.57393 0.0
C115 C 0.5212 0.10797 0.56919 0.0
N116 N 0.6 0.06319 0.56219 0.0
C117 C 0.66184 0.06286 0.58625 0.0
C118 C 0.66828 0.10222 0.57888 0.0
C119 C 0.63725 0.10163 0.56703 0.0
C120 C 0.62349 0.0236 0.5815 0.0
C121 C 0.59332 0.02451 0.56954 0.0
N122 N 0.51501 0.06456 0.52756 0.0
C123 C 0.49332 0.10507 0.50801 0.0
C124 C 0.4548 0.06627 0.5031 0.0
C125 C 0.44694 0.02652 0.51065 0.0
C126 C 0.47733 0.02641 0.52269 0.0
C127 C 0.52256 0.10349 0.52015 0.0
H128 H 0.46963 0.99506 0.52787 0.0
H129 H 0.55091 0.13429 0.52337 0.0
H130 H 0.64428 0.13279 0.56197 0.0
H131 H 0.56503 0.9935 0.56638 0.0
C132 C 0.49535 0.9551 0.54812 0.0
C133 C 0.48179 0.06706 0.57701 0.0
C134 C 0.63319 0.06033 0.51283 0.0
C135 C 0.61954 0.17254 0.54163 0.0
H136 H 0.40953 0.97926 0.58823 0.0
H137 H 0.41688 0.91769 0.57259 0.0
H138 H 0.52839 0.91276 0.52608 0.0
H139 H 0.60414 0.97063 0.50695 0.0
H140 H 0.70378 0.14802 0.50087 0.0
H141 H 0.69694 0.2098 0.51664 0.0
H142 H 0.58734 0.21468 0.56421 0.0
H143 H 0.51205 0.15652 0.58357 0.0
H144 H 0.69697 0.13356 0.58233 0.0
H145 H 0.6172 0.99218 0.58674 0.0
H146 H 0.50053 0.13676 0.50272 0.0
H147 H 0.4178 0.99551 0.50714 0.0
C148 C 0.64935 0.58693 0.86335 0.0
C149 C 0.68647 0.58147 0.85723 0.0
C150 C 0.682 0.54535 0.86592 0.0
C151 C 0.64268 0.53086 0.87683 0.0
N152 N 0.62152 0.5554 0.8756 0.0
Co153 Co 0.56338 0.54567 0.88917 0.0
N154 N 0.56051 0.49589 0.90332 0.0
C155 C 0.59234 0.48196 0.90265 0.0
C156 C 0.58203 0.44813 0.91428 0.0
C157 C 0.54094 0.43972 0.92286 0.0
C158 C 0.52829 0.46877 0.9158 0.0
N159 N 0.50373 0.53439 0.90215 0.0
C160 C 0.47534 0.50203 0.91407 0.0
C161 C 0.435 0.50406 0.91876 0.0
C162 C 0.438 0.53888 0.90951 0.0
C163 C 0.47956 0.55586 0.89963 0.0
N164 N 0.56794 0.59715 0.87566 0.0
C165 C 0.53847 0.61361 0.87732 0.0
C166 C 0.55191 0.65055 0.867 0.0
C167 C 0.59294 0.6587 0.85842 0.0
C168 C 0.60214 0.62608 0.86403 0.0
N169 N 0.52293 0.50429 0.87238 0.0
C170 C 0.45877 0.44167 0.85097 0.0
C171 C 0.45923 0.48099 0.85332 0.0
C172 C 0.49108 0.51138 0.86398 0.0
C173 C 0.49252 0.43516 0.85902 0.0
C174 C 0.52422 0.46676 0.86946 0.0
N175 N 0.60345 0.58701 0.90599 0.0
C176 C 0.6184 0.64462 0.92481 0.0
C177 C 0.66238 0.64947 0.92848 0.0
C178 C 0.67577 0.62163 0.92095 0.0
C179 C 0.64593 0.59076 0.90992 0.0
C180 C 0.58991 0.61366 0.91363 0.0
H181 H 0.65827 0.57066 0.90457 0.0
H182 H 0.55719 0.6122 0.91127 0.0
H183 H 0.4887 0.54013 0.86533 0.0
H184 H 0.54897 0.45974 0.87524 0.0
C185 C 0.62864 0.49821 0.88984 0.0
C186 C 0.64378 0.62404 0.85792 0.0
C187 C 0.48438 0.46802 0.92091 0.0
C188 C 0.49762 0.59269 0.88827 0.0
H189 H 0.71483 0.60221 0.84785 0.0
H190 H 0.70586 0.5324 0.86495 0.0
H191 H 0.6013 0.43076 0.91597 0.0
H192 H 0.52188 0.41439 0.93292 0.0
H193 H 0.40608 0.48237 0.9278 0.0
H194 H 0.41273 0.55031 0.90988 0.0
H195 H 0.53403 0.66933 0.86586 0.0
H196 H 0.6138 0.68566 0.84911 0.0
H197 H 0.43501 0.48852 0.84699 0.0
H198 H 0.49389 0.40536 0.85766 0.0
H199 H 0.60569 0.66455 0.93057 0.0
H200 H 0.70959 0.62414 0.92324 0.0
H201 H 0.06319 0.12979 0.10098 0.0
H202 H 0.06668 0.18495 0.11973 0.0
H203 H 0.96505 0.19864 0.0905 0.0
H204 H 0.96275 0.14476 0.07139 0.0
H205 H 0.038 0.27632 0.09514 0.0
H206 H 0.97857 0.18121 0.1572 0.0
H207 H 0.02855 0.18062 0.14719 0.0
H208 H 0.97251 0.15539 0.13743 0.0
C209 C 0.04088 0.14392 0.09875 0.0
C210 C 0.01262 0.13282 0.08471 0.0
C211 C 0.04278 0.17541 0.10953 0.0
C212 C 0.01573 0.19575 0.10668 0.0
C213 C 0.98629 0.18351 0.09299 0.0
H214 H 0.97038 0.3595 0.17545 0.0
H215 H 0.9648 0.30069 0.15865 0.0
C216 C 0.98485 0.15253 0.0821 0.0
C217 C 0.02041 0.23189 0.11716 0.0
H218 H 0.01331 0.25887 0.15784 0.0
C219 C 0.03235 0.27237 0.10885 0.0
C220 C 0.01265 0.22679 0.13505 0.0
C221 C 0.99688 0.18353 0.14473 0.0
C222 C 0.03685 0.30777 0.11786 0.0
C223 C 0.03077 0.3032 0.13579 0.0
C224 C 0.01857 0.26265 0.14412 0.0
C225 C 0.03502 0.33944 0.14611 0.0
C226 C 0.04671 0.34925 0.10798 0.0
C227 C 0.07664 0.3809 0.14488 0.0
C228 C 0.0796 0.41512 0.15423 0.0
C229 C 0.04124 0.40847 0.16524 0.0
C230 C 1.00022 0.36641 0.1668 0.0
C231 C 0.99713 0.33244 0.15733 0.0
H232 H 0.03656 0.34298 0.09466 0.0
H233 H 0.02716 0.36409 0.11396 0.0
H234 H 0.08535 0.37345 0.10762 0.0
H235 H 0.10688 0.3869 0.13665 0.0
H236 H 0.11171 0.44694 0.1526 0.0
H237 H 0.9707 0.12238 0.40794 0.0
H238 H 0.90878 0.1187 0.42731 0.0
H239 H 0.82445 0.97896 0.42254 0.0
H240 H 0.88704 0.9821 0.40328 0.0
H241 H 0.81596 0.09248 0.42274 0.0
H242 H 0.82956 0.98741 0.47377 0.0
H243 H 0.87342 0.01325 0.4562 0.0
H244 H 0.81768 0.96445 0.45339 0.0
C245 C 0.93905 0.09074 0.41095 0.0
C246 C 0.93405 0.05244 0.4041 0.0
C247 C 0.90359 0.08876 0.42204 0.0
C248 C 0.86227 0.04851 0.42657 0.0
C249 C 0.8565 0.01026 0.41949 0.0
H250 H 0.61443 0.03493 0.48054 0.0
H251 H 0.66793 0.0301 0.4591 0.0
C252 C 0.89218 0.01216 0.4084 0.0
C253 C 0.82564 0.04719 0.43874 0.0
H254 H 0.77013 0.00639 0.4781 0.0
C255 C 0.80574 0.0735 0.43482 0.0
C256 C 0.81287 0.02287 0.45458 0.0
C257 C 0.83473 0.99567 0.45987 0.0
C258 C 0.77375 0.07645 0.44635 0.0
C259 C 0.76051 0.0517 0.4621 0.0
C260 C 0.78011 0.02513 0.46597 0.0
C261 C 0.72772 0.05412 0.475 0.0
C262 C 0.75571 0.10722 0.44177 0.0
C263 C 0.74317 0.06822 0.49115 0.0
C264 C 0.71254 0.07053 0.5034 0.0
C265 C 0.66599 0.05871 0.49968 0.0
C266 C 0.65038 0.04445 0.48358 0.0
C267 C 0.68093 0.04192 0.47135 0.0
H268 H 0.77841 0.13186 0.43139 0.0
H269 H 0.71923 0.08795 0.43739 0.0
H270 H 0.75424 0.12487 0.45293 0.0
H271 H 0.77906 0.07766 0.49426 0.0
H272 H 0.72506 0.08139 0.5158 0.0
H273 H 0.93879 0.86932 0.73718 0.0
H274 H 0.8826 0.81576 0.75898 0.0
H275 H 0.93127 0.91593 0.79513 0.0
H276 H 0.98718 0.97021 0.7732 0.0
H277 H 0.89472 0.78637 0.78995 0.0
H278 H 0.78862 0.86907 0.79772 0.0
H279 H 0.83271 0.88402 0.78041 0.0
H280 H 0.85066 0.90273 0.80116 0.0
C281 C 0.93785 0.88004 0.74979 0.0
C282 C 0.9673 0.92419 0.75341 0.0
C283 C 0.90564 0.8493 0.76225 0.0
C284 C 0.90202 0.86196 0.77861 0.0
C285 C 0.93264 0.90563 0.78249 0.0
H286 H 0.70748 0.70712 0.86584 0.0
H287 H 0.77168 0.76608 0.84718 0.0
C288 C 0.96487 0.93653 0.76998 0.0
C289 C 0.86565 0.82927 0.7914 0.0
H290 H 0.7654 0.80551 0.81557 0.0
C291 C 0.86652 0.79063 0.79558 0.0
C292 C 0.82879 0.8348 0.79874 0.0
C293 C 0.82468 0.87468 0.7942 0.0
C294 C 0.83157 0.75738 0.80683 0.0
C295 C 0.79438 0.76265 0.81395 0.0
C296 C 0.79396 0.8016 0.81007 0.0
C297 C 0.75495 0.72754 0.82511 0.0
C298 C 0.83482 0.71694 0.8111 0.0
C299 C 0.72372 0.68679 0.81878 0.0
C300 C 0.68709 0.65339 0.82936 0.0
C301 C 0.68119 0.66024 0.84644 0.0
C302 C 0.71165 0.70127 0.8527 0.0
C303 C 0.74819 0.73477 0.84208 0.0
H304 H 0.87115 0.72264 0.80807 0.0
H305 H 0.82493 0.70621 0.82475 0.0
H306 H 0.80973 0.68979 0.80356 0.0
H307 H 0.72776 0.68082 0.80564 0.0
H308 H 0.66365 0.62203 0.82429 0.0
H309 H 0.05774 0.96784 0.10557 0.0
H310 H 0.05073 0.90969 0.12558 0.0
H311 H 0.11752 0.86979 0.08768 0.0
H312 H 0.12474 0.92754 0.06768 0.0
H313 H 0.02649 0.80095 0.10309 0.0
H314 H 0.15479 0.89697 0.1507 0.0
H315 H 0.11319 0.91392 0.1449 0.0
H316 H 0.15795 0.91945 0.12946 0.0
C317 C 0.07174 0.94721 0.1016 0.0
C318 C 0.09181 0.95239 0.08501 0.0
C319 C 0.06774 0.91403 0.11306 0.0
C320 C 0.08376 0.88553 0.10812 0.0
C321 C 0.10498 0.89145 0.09175 0.0
H322 H 0.07379 0.64787 0.14679 0.0
H323 H 0.08033 0.71019 0.12954 0.0
C324 C 0.10919 0.92463 0.08035 0.0
C325 C 0.07574 0.84768 0.11951 0.0
H326 H 0.10992 0.82005 0.15609 0.0
C327 C 0.04468 0.80508 0.11469 0.0
C328 C 0.09914 0.8532 0.13471 0.0
C329 C 0.13342 0.89828 0.14029 0.0
C330 C 0.03642 0.76779 0.12463 0.0
C331 C 0.06089 0.7732 0.1396 0.0
C332 C 0.09131 0.81588 0.14459 0.0
C333 C 0.05634 0.73508 0.15001 0.0
C334 C 1.00098 0.72296 0.11911 0.0
C335 C 0.04175 0.72881 0.16734 0.0
C336 C 0.0386 0.69354 0.17721 0.0
C337 C 0.05024 0.66414 0.16992 0.0
C338 C 0.06455 0.67017 0.15261 0.0
C339 C 0.06796 0.70554 0.14277 0.0
H340 H 0.97506 0.72457 0.11079 0.0
H341 H 0.02017 0.70971 0.11176 0.0
H342 H 0.98107 0.6997 0.13019 0.0
H343 H 0.03279 0.75123 0.17322 0.0
H344 H 0.02757 0.68941 0.19057 0.0
H345 H 0.13388 0.00437 0.40125 0.0
H346 H 0.19462 0.00729 0.41922 0.0
H347 H 0.26153 0.14838 0.4183 0.0
H348 H 0.20058 0.14588 0.40027 0.0
H349 H 0.29675 0.05406 0.41368 0.0
H350 H 0.23307 0.1062 0.46963 0.0
H351 H 0.19741 0.08337 0.45175 0.0
H352 H 0.24571 0.13914 0.45014 0.0
C353 C 0.1616 0.03613 0.40476 0.0
C354 C 0.16212 0.0749 0.3994 0.0
C355 C 0.19636 0.0377 0.41502 0.0
C356 C 0.23216 0.07796 0.42026 0.0
C357 C 0.23376 0.1169 0.41456 0.0
H358 H 0.47995 0.1177 0.47348 0.0
H359 H 0.42727 0.12152 0.45303 0.0
C360 C 0.19906 0.11542 0.4042 0.0
C361 C 0.26691 0.07866 0.43203 0.0
H362 H 0.30021 0.09831 0.47272 0.0
C363 C 0.29778 0.06399 0.42656 0.0
C364 C 0.26762 0.09105 0.44888 0.0
C365 C 0.23401 0.10555 0.45558 0.0
C366 C 0.32945 0.06144 0.43751 0.0
C367 C 0.33037 0.07414 0.45432 0.0
C368 C 0.29951 0.08879 0.45979 0.0
C369 C 0.3624 0.07153 0.46657 0.0
C370 C 0.36084 0.04417 0.43117 0.0
C371 C 0.34333 0.04253 0.48107 0.0
C372 C 0.3733 0.04035 0.49281 0.0
C373 C 0.42294 0.06751 0.49036 0.0
C374 C 0.44188 0.09659 0.47581 0.0
C375 C 0.41188 0.09857 0.46404 0.0
H376 H 0.34897 0.02741 0.41918 0.0
H377 H 0.39777 0.07197 0.42874 0.0
H378 H 0.36138 0.02078 0.44083 0.0
H379 H 0.30519 0.02155 0.48329 0.0
H380 H 0.35757 0.01803 0.50397 0.0
H381 H 0.14699 0.11734 0.76828 0.0
H382 H 0.20173 0.16537 0.78856 0.0
H383 H 0.21885 0.27891 0.75949 0.0
H384 H 0.16558 0.23124 0.73891 0.0
H385 H 0.30248 0.29001 0.76666 0.0
H386 H 0.18532 0.23195 0.82571 0.0
H387 H 0.189 0.18874 0.81575 0.0
H388 H 0.16264 0.21647 0.80507 0.0
C389 C 0.16182 0.1525 0.76637 0.0
C390 C 0.15188 0.17047 0.752 0.0
C391 C 0.193 0.17996 0.77803 0.0
C392 C 0.2141 0.22584 0.7757 0.0
C393 C 0.2031 0.24366 0.76159 0.0
H394 H 0.36568 0.41938 0.84813 0.0
H395 H 0.30826 0.36695 0.82982 0.0
C396 C 0.17247 0.21633 0.74985 0.0
C397 C 0.24982 0.25561 0.7873 0.0
H398 H 0.26776 0.28028 0.82877 0.0
C399 C 0.29479 0.28794 0.78024 0.0
C400 C 0.23978 0.25322 0.80502 0.0
C401 C 0.19142 0.22103 0.81333 0.0
C402 C 0.32982 0.31796 0.79032 0.0
C403 C 0.32028 0.31478 0.80809 0.0
C404 C 0.27532 0.28243 0.81518 0.0
C405 C 0.35557 0.34601 0.81945 0.0
C406 C 0.37612 0.35362 0.78169 0.0
C407 C 0.40128 0.35141 0.81997 0.0
C408 C 0.43475 0.38222 0.8302 0.0
C409 C 0.42302 0.40788 0.84034 0.0
C410 C 0.3766 0.40119 0.84019 0.0
C411 C 0.3434 0.37077 0.82985 0.0
H412 H 0.37257 0.35903 0.76802 0.0
H413 H 0.38895 0.38519 0.78779 0.0
H414 H 0.40346 0.34379 0.78262 0.0
H415 H 0.41121 0.33194 0.8124 0.0
H416 H 0.47006 0.38642 0.8299 0.0
H417 H 0.98392 0.12935 0.69167 0.0
H418 H 0.92559 0.13106 0.67339 0.0
H419 H 0.86222 0.99183 0.66802 0.0
H420 H 0.92021 0.98973 0.68611 0.0
H421 H 0.88419 0.04213 0.63709 0.0
H422 H 0.78157 0.08302 0.6833 0.0
H423 H 0.84503 0.11865 0.68239 0.0
H424 H 0.81949 0.06211 0.68979 0.0
C425 C 0.95725 0.099 0.68676 0.0
C426 C 0.95685 0.05942 0.69037 0.0
C427 C 0.92382 0.10002 0.67637 0.0
C428 C 0.88936 0.06149 0.66947 0.0
C429 C 0.88846 0.02191 0.67325 0.0
H430 H 0.64053 0.01129 0.61575 0.0
H431 H 0.696 0.01123 0.63587 0.0
C432 C 0.92168 0.02082 0.68363 0.0
C433 C 0.85573 0.06253 0.65756 0.0
H434 H 0.76365 0.08229 0.65446 0.0
C435 C 0.85782 0.05091 0.64088 0.0
C436 C 0.82111 0.07358 0.6626 0.0
C437 C 0.81618 0.08472 0.68052 0.0
C438 C 0.82648 0.05038 0.62905 0.0
C439 C 0.79247 0.06227 0.63398 0.0
C440 C 0.79 0.07347 0.6507 0.0
C441 C 0.75895 0.06291 0.62193 0.0
C442 C 0.82948 0.03637 0.61145 0.0
C443 C 0.77596 0.09226 0.60752 0.0
C444 C 0.74446 0.09223 0.59598 0.0
C445 C 0.69522 0.06291 0.59863 0.0
C446 C 0.67826 0.03385 0.6132 0.0
C447 C 0.70984 0.034 0.62477 0.0
H448 H 0.8495 0.01852 0.61091 0.0
H449 H 0.79342 0.01493 0.607 0.0
H450 H 0.84816 0.06593 0.60254 0.0
H451 H 0.81369 0.11519 0.6052 0.0
H452 H 0.75878 0.11478 0.58483 0.0
H453 H 0.9066 0.98072 0.02002 0.0
H454 H 0.8492 0.92415 1.00265 0.0
H455 H 0.91848 0.8483 0.00993 0.0
H456 H 0.97655 0.90503 0.0268 0.0
H457 H 0.90369 0.85509 0.97736 0.0
H458 H 0.73649 0.80477 0.01589 0.0
H459 H 0.76976 0.86248 0.00989 0.0
H460 H 0.79437 0.83861 0.02382 0.0
C461 C 0.90924 0.95175 0.01807 0.0
C462 C 0.94621 0.94745 0.02479 0.0
C463 C 0.87623 0.91929 0.00821 0.0
C464 C 0.87908 0.8816 0.00515 0.0
C465 C 0.91548 0.87701 0.01211 0.0
H466 H 0.7202 0.64404 0.95181 0.0
H467 H 0.77285 0.70081 0.97012 0.0
C468 C 0.94868 0.90953 0.02178 0.0
C469 C 0.84595 0.84789 0.99399 0.0
H470 H 0.72854 0.77608 0.98864 0.0
C471 C 0.86542 0.83771 0.9799 0.0
C472 C 0.79594 0.82518 0.99727 0.0
C473 C 0.77285 0.83295 0.01262 0.0
C474 C 0.83636 0.80571 0.969 0.0
C475 C 0.78653 0.78322 0.97226 0.0
C476 C 0.76685 0.79352 0.98621 0.0
C477 C 0.75436 0.74876 0.96128 0.0
C478 C 0.85899 0.79635 0.95394 0.0
C479 C 0.72645 0.75695 0.95033 0.0
C480 C 0.69681 0.72485 0.93967 0.0
C481 C 0.69406 0.68364 0.93989 0.0
C482 C 0.72189 0.67552 0.95106 0.0
C483 C 0.7518 0.70781 0.96162 0.0
H484 H 0.89733 0.82123 0.95167 0.0
H485 H 0.85561 0.76362 0.9562 0.0
H486 H 0.84045 0.79548 0.94232 0.0
H487 H 0.72813 0.78846 0.94986 0.0
H488 H 0.67664 0.73269 0.93107 0.0
H489 H 0.03289 0.98029 0.32007 0.0
H490 H 0.03403 0.92846 0.30044 0.0
H491 H 0.99243 0.83109 0.342 0.0
H492 H 0.98999 0.88198 0.36151 0.0
H493 H 0.08904 0.89133 0.30011 0.0
H494 H 0.90033 0.75975 0.30783 0.0
H495 H 0.92099 0.81359 0.31551 0.0
H496 H 0.92726 0.77292 0.32776 0.0
C497 C 0.02323 0.94759 0.32497 0.0
C498 C 0.01101 0.93522 0.34235 0.0
C499 C 0.02407 0.91804 0.31374 0.0
C500 C 0.01262 0.87557 0.31967 0.0
C501 C 1.00019 0.86318 0.337 0.0
H502 H 0.09758 0.70326 0.27341 0.0
H503 H 0.09156 0.75786 0.28998 0.0
C504 C 0.99906 0.8925 0.34819 0.0
C505 C 0.01599 0.84489 0.30799 0.0
H506 H 0.95447 0.74031 0.29503 0.0
C507 C 0.05946 0.85845 0.29887 0.0
C508 C 0.97728 0.80213 0.30618 0.0
C509 C 0.92871 0.78638 0.31471 0.0
C510 C 0.06567 0.83008 0.28838 0.0
C511 C 0.02769 0.78657 0.28728 0.0
C512 C 0.98384 0.77344 0.29604 0.0
C513 C 0.03234 0.75416 0.27701 0.0
C514 C 0.11268 0.84729 0.27843 0.0
C515 C 1.00041 0.73301 0.26447 0.0
C516 C 0.00344 0.70145 0.25514 0.0
C517 C 0.03851 0.69026 0.25813 0.0
C518 C 0.0706 0.71157 0.27065 0.0
C519 C 0.06729 0.74292 0.28008 0.0
H520 H 0.13211 0.88372 0.27663 0.0
H521 H 0.13527 0.83774 0.28548 0.0
H522 H 0.10771 0.83346 0.26577 0.0
H523 H 0.9731 0.74101 0.26187 0.0
H524 H 0.97851 0.68604 0.24546 0.0
H525 H 0.20578 0.12472 0.67996 0.0
H526 H 0.26609 0.12608 0.66029 0.0
H527 H 0.20711 0.98686 0.67076 0.0
H528 H 0.14584 0.98493 0.69029 0.0
H529 H 0.33502 0.10426 0.66507 0.0
H530 H 0.20835 0.99761 0.61919 0.0
H531 H 0.19118 0.02117 0.63599 0.0
H532 H 0.19639 0.97344 0.64048 0.0
C533 C 0.20554 0.09431 0.67813 0.0
C534 C 0.17064 0.05461 0.68663 0.0
C535 C 0.24016 0.0952 0.66688 0.0
C536 C 0.24066 0.05648 0.66384 0.0
C537 C 0.20676 0.01698 0.67264 0.0
H538 H 0.47425 0.04532 0.61083 0.0
H539 H 0.41658 0.04317 0.63235 0.0
C540 C 0.17193 0.01599 0.68388 0.0
C541 C 0.27659 0.05772 0.65136 0.0
H542 H 0.28904 0.01789 0.61394 0.0
C543 C 0.32501 0.08534 0.65389 0.0
C544 C 0.26343 0.03352 0.63666 0.0
C545 C 0.21204 0.00506 0.63278 0.0
C546 C 0.36063 0.08923 0.64218 0.0
C547 C 0.34746 0.06424 0.6277 0.0
C548 C 0.29906 0.0368 0.62512 0.0
C549 C 0.38325 0.06656 0.61488 0.0
C550 C 0.41199 0.12087 0.64522 0.0
C551 C 0.38313 0.07969 0.59789 0.0
C552 C 0.41573 0.08058 0.58564 0.0
C553 C 0.44879 0.06821 0.59018 0.0
C554 C 0.44915 0.05528 0.60715 0.0
C555 C 0.41647 0.05426 0.6194 0.0
H556 H 0.41549 0.1456 0.65426 0.0
H557 H 0.42808 0.10232 0.65072 0.0
H558 H 0.43256 0.13836 0.63317 0.0
H559 H 0.35769 0.08912 0.59412 0.0
H560 H 0.41482 0.09039 0.57257 0.0
H561 H 0.21288 0.11978 0.01982 0.0
H562 H 0.27551 0.17976 1.00126 0.0
H563 H 0.19552 0.247 1.00163 0.0
H564 H 0.13264 0.18716 0.01978 0.0
H565 H 0.2269 0.24385 0.96984 0.0
H566 H 0.37528 0.30258 0.01273 0.0
H567 H 0.3479 0.2452 0.00904 0.0
H568 H 0.31419 0.26541 0.02007 0.0
C569 C 0.20882 0.1475 0.01605 0.0
C570 C 0.16768 0.14858 0.0213 0.0
C571 C 0.24478 0.18189 0.00551 0.0
C572 C 0.24049 0.21817 1.00021 0.0
C573 C 0.19966 0.2194 0.00556 0.0
H574 H 0.4568 0.47129 0.95359 0.0
H575 H 0.39727 0.40998 0.97265 0.0
C576 C 0.16371 0.18508 0.01597 0.0
C577 C 0.27737 0.25421 0.98855 0.0
H578 H 0.39453 0.33435 0.98453 0.0
C579 C 0.26357 0.26364 0.97306 0.0
C580 C 0.32507 0.28035 0.99284 0.0
C581 C 0.34155 0.27326 0.00963 0.0
C582 C 0.29605 0.29838 0.96174 0.0
C583 C 0.34401 0.32386 0.96583 0.0
C584 C 0.35784 0.31457 0.98135 0.0
C585 C 0.38012 0.36079 0.95431 0.0
C586 C 0.27835 0.30813 0.9457 0.0
C587 C 0.39054 0.35343 0.93777 0.0
C588 C 0.42402 0.3884 0.92688 0.0
C589 C 0.44797 0.4312 0.93243 0.0
C590 C 0.43826 0.43854 0.94904 0.0
C591 C 0.40455 0.40359 0.95991 0.0
H592 H 0.23914 0.29384 0.94669 0.0
H593 H 0.29539 0.34408 0.94271 0.0
H594 H 0.28722 0.29353 0.93497 0.0
H595 H 0.37296 0.3206 0.93329 0.0
H596 H 0.43148 0.38208 0.91415 0.0
H597 H 0.05223 0.14753 0.31852 0.0
H598 H 0.04795 0.19976 0.29831 0.0
H599 H 0.10346 0.29878 0.33488 0.0
H600 H 0.10876 0.24743 0.35489 0.0
H601 H 0.99525 0.23996 0.30209 0.0
H602 H 0.18578 0.3666 0.2929 0.0
H603 H 0.16583 0.31258 0.30264 0.0
H604 H 0.16558 0.35456 0.31488 0.0
C605 C 0.06432 0.18067 0.32212 0.0
C606 C 0.0811 0.19333 0.33829 0.0
C607 C 0.06167 0.21044 0.31059 0.0
C608 C 0.07602 0.25345 0.31496 0.0
C609 C 0.09328 0.2662 0.33102 0.0
H610 H 0.06162 0.47844 0.27644 0.0
H611 H 0.06763 0.42174 0.29339 0.0
C612 C 0.09605 0.23662 0.3425 0.0
C613 C 0.07046 0.28436 0.30324 0.0
H614 H 0.13032 0.3883 0.28434 0.0
C615 C 0.02489 0.27218 0.29802 0.0
C616 C 0.10913 0.32645 0.29793 0.0
C617 C 0.15939 0.34068 0.30223 0.0
C618 C 0.0167 0.3015 0.28817 0.0
C619 C 0.05514 0.34396 0.28331 0.0
C620 C 0.10082 0.35584 0.28822 0.0
C621 C 0.04875 0.37688 0.27329 0.0
C622 C 0.96677 0.28741 0.28349 0.0
C623 C 0.0359 0.37031 0.25642 0.0
C624 C 0.03264 0.40268 0.24676 0.0
C625 C 0.04226 0.44206 0.25382 0.0
C626 C 0.05406 0.44823 0.27079 0.0
C627 C 0.05759 0.41601 0.28042 0.0
H628 H 0.93986 0.25715 0.29097 0.0
H629 H 0.95848 0.31394 0.28549 0.0
H630 H 0.96367 0.28067 0.26985 0.0
H631 H 0.02954 0.34063 0.25061 0.0
H632 H 0.02372 0.39747 0.23365 0.0
loop_
_geom_bond_atom_site_label_1
_geom_bond_atom_site_label_2
_geom_bond_distance
_geom_bond_site_symmetry_2
_ccdc_geom_bond_type
O0 Cd1 2.223 . S
O0 C8 1.315 . S
Cd1 O0 2.223 . S
Cd1 O4 2.297 . S
Cd1 O5 2.439 . S
Cd1 O11 2.240 . S
Cd2 O3 2.240 . S
Cd2 O10 2.223 1_545 S
Cd2 O12 2.297 1_545 S
Cd2 O13 2.439 1_545 S
O3 Cd2 2.240 . S
O3 C8 1.279 . S
O4 Cd1 2.297 . S
O4 C6 1.247 . S
O5 Cd1 2.439 . S
O5 C6 1.208 . S
C6 O4 1.247 . S
C6 O5 1.208 . S
C7 O12 1.247 . S
C7 O13 1.208 . S
C8 O0 1.315 . S
C8 O3 1.279 . S
C9 O10 1.315 . S
C9 O11 1.279 1_565 S
O10 Cd2 2.223 1_565 S
O10 C9 1.315 . S
O11 Cd1 2.240 . S
O11 C9 1.279 1_545 S
O12 Cd2 2.297 1_565 S
O12 C7 1.247 . S
O13 Cd2 2.439 1_565 S
O13 C7 1.208 . S
O14 Cd15 2.223 . S
O14 C22 1.315 1_455 S
Cd15 O14 2.223 . S
Cd15 O18 2.297 . S
Cd15 O19 2.439 . S
Cd15 O25 2.240 . S
Cd16 O17 2.238 . S
Cd16 O24 2.223 1_655 S
Cd16 O26 2.299 1_645 S
Cd16 O27 2.439 1_655 S
O17 Cd16 2.238 . S
O17 C22 1.279 . S
O18 Cd15 2.297 . S
O18 C20 1.247 . S
O19 Cd15 2.439 . S
O19 C20 1.208 . S
C20 O18 1.247 . S
C20 O19 1.208 . S
C21 O26 1.247 . S
C21 O27 1.208 1_565 S
C22 O14 1.315 1_655 S
C22 O17 1.279 . S
C23 O24 1.315 . S
C23 O25 1.279 . S
O24 Cd16 2.223 1_455 S
O24 C23 1.315 . S
O25 Cd15 2.240 . S
O25 C23 1.279 . S
O26 Cd16 2.299 1_465 S
O26 C21 1.247 . S
O27 Cd16 2.439 1_455 S
O27 C21 1.208 1_545 S
O28 Cd29 2.223 1_655 S
O28 C36 1.306 1_565 S
Cd29 O28 2.223 1_455 S
Cd29 O32 2.297 1_455 S
Cd29 O33 2.447 . S
Cd29 O39 2.240 1_565 S
Cd30 O31 2.240 . S
Cd30 O38 2.223 . S
Cd30 O40 2.297 . S
Cd30 O41 2.439 . S
O31 Cd30 2.240 . S
O31 C36 1.277 1_455 S
O32 Cd29 2.297 1_655 S
O32 C34 1.247 . S
O33 Cd29 2.447 . S
O33 C34 1.199 1_455 S
C34 O32 1.247 . S
C34 O33 1.199 1_655 S
C35 O40 1.247 . S
C35 O41 1.208 . S
C36 O28 1.306 1_545 S
C36 O31 1.277 1_655 S
C37 O38 1.315 . S
C37 O39 1.279 . S
O38 Cd30 2.223 . S
O38 C37 1.315 . S
O39 Cd29 2.240 1_545 S
O39 C37 1.279 . S
O40 Cd30 2.297 . S
O40 C35 1.247 . S
O41 Cd30 2.439 . S
O41 C35 1.208 . S
C42 C43 1.443 . S
C42 N46 1.376 . S
C42 C80 1.389 . S
C43 C42 1.443 . S
C43 C44 1.340 . S
C43 H83 0.951 . S
C44 C43 1.340 . S
C44 C45 1.439 . S
C44 H84 0.950 . S
C45 C44 1.439 . S
C45 N46 1.374 . S
C45 C79 1.395 . S
N46 C42 1.376 . S
N46 C45 1.374 . S
N46 Co47 2.008 . S
Co47 N46 2.008 . S
Co47 N48 1.995 . S
Co47 N53 2.008 1_455 S
Co47 N58 1.995 1_455 S
Co47 N63 2.282 . S
Co47 N69 2.282 . S
N48 Co47 1.995 . S
N48 C49 1.376 . S
N48 C52 1.383 . S
C49 N48 1.376 . S
C49 C50 1.446 . S
C49 C79 1.391 . S
C50 C49 1.446 . S
C50 C51 1.339 . S
C50 H85 0.949 . S
C51 C50 1.339 . S
C51 C52 1.439 . S
C51 H86 0.950 . S
C52 N48 1.383 . S
C52 C51 1.439 . S
C52 C81 1.392 . S
N53 Co47 2.008 1_655 S
N53 C54 1.376 . S
N53 C57 1.374 . S
C54 N53 1.376 . S
C54 C55 1.443 . S
C54 C81 1.389 1_655 S
C55 C54 1.443 . S
C55 C56 1.340 . S
C55 H87 0.951 . S
C56 C55 1.340 . S
C56 C57 1.439 . S
C56 H88 0.950 . S
C57 N53 1.374 . S
C57 C56 1.439 . S
C57 C82 1.395 . S
N58 Co47 1.995 1_655 S
N58 C59 1.376 . S
N58 C62 1.383 . S
C59 N58 1.376 . S
C59 C60 1.446 . S
C59 C82 1.391 . S
C60 C59 1.446 . S
C60 C61 1.339 . S
C60 H89 0.949 . S
C61 C60 1.339 . S
C61 C62 1.439 . S
C61 H90 0.950 . S
C62 N58 1.383 . S
C62 C61 1.439 . S
C62 C80 1.392 1_655 S
N63 Co47 2.282 . S
N63 C66 1.332 . S
N63 C68 1.332 . S
C64 C65 1.386 . S
C64 C67 1.388 . S
C65 C64 1.386 . S
C65 C66 1.382 . S
C65 H91 0.950 1_455 S
C66 N63 1.332 . S
C66 C65 1.382 . S
C66 H77 0.952 1_455 S
C67 C64 1.388 . S
C67 C68 1.382 . S
C67 H92 0.950 . S
C68 N63 1.332 . S
C68 C67 1.382 . S
C68 H78 0.948 . S
N69 Co47 2.282 . S
N69 C73 1.332 . S
N69 C74 1.332 1_455 S
C70 C71 1.388 1_655 S
C70 C74 1.382 . S
C70 H93 0.950 . S
C71 C70 1.388 1_455 S
C71 C72 1.386 . S
C72 C71 1.386 . S
C72 C73 1.382 . S
C72 H94 0.950 . S
C73 N69 1.332 . S
C73 C72 1.382 . S
C73 H75 0.952 . S
C74 N69 1.332 1_655 S
C74 C70 1.382 . S
C74 H76 0.948 . S
H75 C73 0.952 . S
H76 C74 0.948 . S
H77 C66 0.952 1_655 S
H78 C68 0.948 . S
C79 C45 1.395 . S
C79 C49 1.391 . S
C80 C42 1.389 . S
C80 C62 1.392 1_455 S
C81 C52 1.392 . S
C81 C54 1.389 1_455 S
C82 C57 1.395 . S
C82 C59 1.391 . S
H83 C43 0.951 . S
H84 C44 0.950 . S
H85 C50 0.949 . S
H86 C51 0.950 . S
H87 C55 0.951 . S
H88 C56 0.950 . S
H89 C60 0.949 . S
H90 C61 0.950 . S
H91 C65 0.950 1_655 S
H92 C67 0.950 . S
H93 C70 0.950 . S
H94 C72 0.950 . S
C95 C96 1.443 1_545 S
C95 N99 1.376 . S
C95 C133 1.389 . S
C96 C95 1.443 1_565 S
C96 C97 1.340 . S
C96 H136 0.951 . S
C97 C96 1.340 . S
C97 C98 1.439 . S
C97 H137 0.950 . S
C98 C97 1.439 . S
C98 N99 1.374 1_565 S
C98 C132 1.395 . S
N99 C95 1.376 . S
N99 C98 1.374 1_545 S
N99 Co100 2.008 . S
Co100 N99 2.008 . S
Co100 N101 1.995 . S
Co100 N106 2.008 . S
Co100 N111 1.995 . S
Co100 N116 2.282 . S
Co100 N122 2.282 . S
N101 Co100 1.995 . S
N101 C102 1.376 1_545 S
N101 C105 1.383 . S
C102 N101 1.376 1_565 S
C102 C103 1.446 . S
C102 C132 1.391 . S
C103 C102 1.446 . S
C103 C104 1.339 . S
C103 H138 0.949 . S
C104 C103 1.339 . S
C104 C105 1.439 1_565 S
C104 H139 0.950 . S
C105 N101 1.383 . S
C105 C104 1.439 1_545 S
C105 C134 1.392 . S
N106 Co100 2.008 . S
N106 C107 1.376 . S
N106 C110 1.374 . S
C107 N106 1.376 . S
C107 C108 1.443 . S
C107 C134 1.389 . S
C108 C107 1.443 . S
C108 C109 1.340 . S
C108 H140 0.951 . S
C109 C108 1.340 . S
C109 C110 1.439 . S
C109 H141 0.950 . S
C110 N106 1.374 . S
C110 C109 1.439 . S
C110 C135 1.395 . S
N111 Co100 1.995 . S
N111 C112 1.376 . S
N111 C115 1.383 . S
C112 N111 1.376 . S
C112 C113 1.446 . S
C112 C135 1.391 . S
C113 C112 1.446 . S
C113 C114 1.339 . S
C113 H142 0.949 . S
C114 C113 1.339 . S
C114 C115 1.439 . S
C114 H143 0.950 . S
C115 N111 1.383 . S
C115 C114 1.439 . S
C115 C133 1.392 . S
N116 Co100 2.282 . S
N116 C119 1.332 . S
N116 C121 1.332 . S
C117 C118 1.386 . S
C117 C120 1.388 . S
C118 C117 1.386 . S
C118 C119 1.382 . S
C118 H144 0.950 . S
C119 N116 1.332 . S
C119 C118 1.382 . S
C119 H130 0.952 . S
C120 C117 1.388 . S
C120 C121 1.382 . S
C120 H145 0.950 1_545 S
C121 N116 1.332 . S
C121 C120 1.382 . S
C121 H131 0.948 1_545 S
N122 Co100 2.282 . S
N122 C126 1.332 . S
N122 C127 1.332 . S
C123 C124 1.388 . S
C123 C127 1.382 . S
C123 H146 0.950 . S
C124 C123 1.388 . S
C124 C125 1.386 . S
C125 C124 1.386 . S
C125 C126 1.382 . S
C125 H147 0.950 . S
C126 N122 1.332 . S
C126 C125 1.382 . S
C126 H128 0.952 . S
C127 N122 1.332 . S
C127 C123 1.382 . S
C127 H129 0.948 . S
H128 C126 0.952 . S
H129 C127 0.948 . S
H130 C119 0.952 . S
H131 C121 0.948 1_565 S
C132 C98 1.395 . S
C132 C102 1.391 . S
C133 C95 1.389 . S
C133 C115 1.392 . S
C134 C105 1.392 . S
C134 C107 1.389 . S
C135 C110 1.395 . S
C135 C112 1.391 . S
H136 C96 0.951 . S
H137 C97 0.950 . S
H138 C103 0.949 . S
H139 C104 0.950 . S
H140 C108 0.951 . S
H141 C109 0.950 . S
H142 C113 0.949 . S
H143 C114 0.950 . S
H144 C118 0.950 . S
H145 C120 0.950 1_565 S
H146 C123 0.950 . S
H147 C125 0.950 . S
C148 C149 1.443 . S
C148 N152 1.376 . S
C148 C186 1.389 . S
C149 C148 1.443 . S
C149 C150 1.340 . S
C149 H189 0.951 . S
C150 C149 1.340 . S
C150 C151 1.439 . S
C150 H190 0.950 . S
C151 C150 1.439 . S
C151 N152 1.374 . S
C151 C185 1.395 . S
N152 C148 1.376 . S
N152 C151 1.374 . S
N152 Co153 2.008 . S
Co153 N152 2.008 . S
Co153 N154 1.995 . S
Co153 N159 2.008 . S
Co153 N164 1.995 . S
Co153 N169 2.282 . S
Co153 N175 2.282 . S
N154 Co153 1.995 . S
N154 C155 1.376 . S
N154 C158 1.383 . S
C155 N154 1.376 . S
C155 C156 1.446 . S
C155 C185 1.391 . S
C156 C155 1.446 . S
C156 C157 1.339 . S
C156 H191 0.949 . S
C157 C156 1.339 . S
C157 C158 1.439 . S
C157 H192 0.950 . S
C158 N154 1.383 . S
C158 C157 1.439 . S
C158 C187 1.392 . S
N159 Co153 2.008 . S
N159 C160 1.376 . S
N159 C163 1.374 . S
C160 N159 1.376 . S
C160 C161 1.443 . S
C160 C187 1.389 . S
C161 C160 1.443 . S
C161 C162 1.340 . S
C161 H193 0.951 . S
C162 C161 1.340 . S
C162 C163 1.439 . S
C162 H194 0.950 . S
C163 N159 1.374 . S
C163 C162 1.439 . S
C163 C188 1.395 . S
N164 Co153 1.995 . S
N164 C165 1.376 . S
N164 C168 1.383 . S
C165 N164 1.376 . S
C165 C166 1.446 . S
C165 C188 1.391 . S
C166 C165 1.446 . S
C166 C167 1.339 . S
C166 H195 0.949 . S
C167 C166 1.339 . S
C167 C168 1.439 . S
C167 H196 0.950 . S
C168 N164 1.383 . S
C168 C167 1.439 . S
C168 C186 1.392 . S
N169 Co153 2.282 . S
N169 C172 1.332 . S
N169 C174 1.332 . S
C170 C171 1.386 . S
C170 C173 1.388 . S
C171 C170 1.386 . S
C171 C172 1.382 . S
C171 H197 0.950 . S
C172 N169 1.332 . S
C172 C171 1.382 . S
C172 H183 0.952 . S
C173 C170 1.388 . S
C173 C174 1.382 . S
C173 H198 0.950 . S
C174 N169 1.332 . S
C174 C173 1.382 . S
C174 H184 0.948 . S
N175 Co153 2.282 . S
N175 C179 1.332 . S
N175 C180 1.332 . S
C176 C177 1.388 . S
C176 C180 1.382 . S
C176 H199 0.950 . S
C177 C176 1.388 . S
C177 C178 1.386 . S
C178 C177 1.386 . S
C178 C179 1.382 . S
C178 H200 0.950 . S
C179 N175 1.332 . S
C179 C178 1.382 . S
C179 H181 0.952 . S
C180 N175 1.332 . S
C180 C176 1.382 . S
C180 H182 0.948 . S
H181 C179 0.952 . S
H182 C180 0.948 . S
H183 C172 0.952 . S
H184 C174 0.948 . S
C185 C151 1.395 . S
C185 C155 1.391 . S
C186 C148 1.389 . S
C186 C168 1.392 . S
C187 C158 1.392 . S
C187 C160 1.389 . S
C188 C163 1.395 . S
C188 C165 1.391 . S
H189 C149 0.951 . S
H190 C150 0.950 . S
H191 C156 0.949 . S
H192 C157 0.950 . S
H193 C161 0.951 . S
H194 C162 0.950 . S
H195 C166 0.949 . S
H196 C167 0.950 . S
H197 C171 0.950 . S
H198 C173 0.950 . S
H199 C176 0.950 . S
H200 C178 0.950 . S
H201 C209 0.929 . S
H202 C211 0.930 . S
H203 C213 0.930 1_655 S
H204 C216 0.929 1_655 S
H205 C219 0.930 . S
H206 C221 0.960 . S
H207 C221 0.960 . S
H208 C221 0.960 . S
C209 H201 0.929 . S
C209 C210 1.377 . S
C209 C211 1.384 . S
C210 C209 1.377 . S
C210 C216 1.390 . S
C211 H202 0.930 . S
C211 C209 1.384 . S
C211 C212 1.372 . S
C212 C211 1.372 . S
C212 C213 1.400 . S
C212 C217 1.490 . S
C213 H203 0.930 1_455 S
C213 C212 1.400 . S
C213 C216 1.386 . S
H214 C230 0.930 1_655 S
H215 C231 0.931 1_655 S
C216 H204 0.929 1_455 S
C216 C210 1.390 . S
C216 C213 1.386 . S
C217 C212 1.490 . S
C217 C219 1.395 . S
C217 C220 1.403 . S
H218 C224 0.930 . S
C219 H205 0.930 . S
C219 C217 1.395 . S
C219 C222 1.403 . S
C220 C217 1.403 . S
C220 C221 1.524 . S
C220 C224 1.400 . S
C221 H206 0.960 . S
C221 H207 0.960 . S
C221 H208 0.960 . S
C221 C220 1.524 . S
C222 C219 1.403 . S
C222 C223 1.392 . S
C222 C226 1.495 . S
C223 C222 1.392 . S
C223 C224 1.385 . S
C223 C225 1.478 . S
C224 H218 0.930 . S
C224 C220 1.400 . S
C224 C223 1.385 . S
C225 C223 1.478 . S
C225 C227 1.381 . S
C225 C231 1.383 . S
C226 C222 1.495 . S
C226 H232 0.959 . S
C226 H233 0.961 . S
C226 H234 0.960 . S
C227 C225 1.381 . S
C227 C228 1.394 . S
C227 H235 0.930 . S
C228 C227 1.394 . S
C228 C229 1.383 . S
C228 H236 0.929 . S
C229 C228 1.383 . S
C229 C230 1.377 . S
C230 H214 0.930 1_455 S
C230 C229 1.377 . S
C230 C231 1.379 . S
C231 H215 0.931 1_455 S
C231 C225 1.383 . S
C231 C230 1.379 . S
H232 C226 0.959 . S
H233 C226 0.961 . S
H234 C226 0.960 . S
H235 C227 0.930 . S
H236 C228 0.929 . S
H237 C245 0.929 . S
H238 C247 0.930 . S
H239 C249 0.930 . S
H240 C252 0.929 . S
H241 C255 0.930 . S
H242 C257 0.960 . S
H243 C257 0.964 1_545 S
H244 C257 0.960 . S
C245 H237 0.929 . S
C245 C246 1.377 . S
C245 C247 1.384 . S
C246 C245 1.377 . S
C246 C252 1.390 . S
C247 H238 0.930 . S
C247 C245 1.384 . S
C247 C248 1.372 . S
C248 C247 1.372 . S
C248 C249 1.400 . S
C248 C253 1.490 . S
C249 H239 0.930 . S
C249 C248 1.400 . S
C249 C252 1.386 . S
H250 C266 0.930 . S
H251 C267 0.931 . S
C252 H240 0.929 . S
C252 C246 1.390 . S
C252 C249 1.386 . S
C253 C248 1.490 . S
C253 C255 1.395 . S
C253 C256 1.403 . S
H254 C260 0.930 . S
C255 H241 0.930 . S
C255 C253 1.395 . S
C255 C258 1.403 . S
C256 C253 1.403 . S
C256 C257 1.524 1_545 S
C256 C260 1.400 . S
C257 H242 0.960 . S
C257 H243 0.964 1_565 S
C257 H244 0.960 . S
C257 C256 1.524 1_565 S
C258 C255 1.403 . S
C258 C259 1.392 . S
C258 C262 1.495 . S
C259 C258 1.392 . S
C259 C260 1.385 . S
C259 C261 1.478 . S
C260 H254 0.930 . S
C260 C256 1.400 . S
C260 C259 1.385 . S
C261 C259 1.478 . S
C261 C263 1.381 . S
C261 C267 1.383 . S
C262 C258 1.495 . S
C262 H268 0.959 . S
C262 H269 0.961 . S
C262 H270 0.960 . S
C263 C261 1.381 . S
C263 C264 1.394 . S
C263 H271 0.930 . S
C264 C263 1.394 . S
C264 C265 1.383 . S
C264 H272 0.929 . S
C265 C264 1.383 . S
C265 C266 1.377 . S
C266 H250 0.930 . S
C266 C265 1.377 . S
C266 C267 1.379 . S
C267 H251 0.931 . S
C267 C261 1.383 . S
C267 C266 1.379 . S
H268 C262 0.959 . S
H269 C262 0.961 . S
H270 C262 0.960 . S
H271 C263 0.930 . S
H272 C264 0.929 . S
H273 C281 0.929 . S
H274 C283 0.930 . S
H275 C285 0.930 . S
H276 C288 0.929 . S
H277 C291 0.930 . S
H278 C293 0.960 . S
H279 C293 0.960 . S
H280 C293 0.960 . S
C281 H273 0.929 . S
C281 C282 1.377 . S
C281 C283 1.384 . S
C282 C281 1.377 . S
C282 C288 1.390 . S
C283 H274 0.930 . S
C283 C281 1.384 . S
C283 C284 1.372 . S
C284 C283 1.372 . S
C284 C285 1.400 . S
C284 C289 1.490 . S
C285 H275 0.930 . S
C285 C284 1.400 . S
C285 C288 1.386 . S
H286 C302 0.930 . S
H287 C303 0.931 . S
C288 H276 0.929 . S
C288 C282 1.390 . S
C288 C285 1.386 . S
C289 C284 1.490 . S
C289 C291 1.395 . S
C289 C292 1.403 . S
H290 C296 0.930 . S
C291 H277 0.930 . S
C291 C289 1.395 . S
C291 C294 1.403 . S
C292 C289 1.403 . S
C292 C293 1.524 . S
C292 C296 1.400 . S
C293 H278 0.960 . S
C293 H279 0.960 . S
C293 H280 0.960 . S
C293 C292 1.524 . S
C294 C291 1.403 . S
C294 C295 1.392 . S
C294 C298 1.495 . S
C295 C294 1.392 . S
C295 C296 1.385 . S
C295 C297 1.478 . S
C296 H290 0.930 . S
C296 C292 1.400 . S
C296 C295 1.385 . S
C297 C295 1.478 . S
C297 C299 1.381 . S
C297 C303 1.383 . S
C298 C294 1.495 . S
C298 H304 0.959 . S
C298 H305 0.961 . S
C298 H306 0.960 . S
C299 C297 1.381 . S
C299 C300 1.394 . S
C299 H307 0.930 . S
C300 C299 1.394 . S
C300 C301 1.383 . S
C300 H308 0.929 . S
C301 C300 1.383 . S
C301 C302 1.377 . S
C302 H286 0.930 . S
C302 C301 1.377 . S
C302 C303 1.379 . S
C303 H287 0.931 . S
C303 C297 1.383 . S
C303 C302 1.379 . S
H304 C298 0.959 . S
H305 C298 0.961 . S
H306 C298 0.960 . S
H307 C299 0.930 . S
H308 C300 0.929 . S
H309 C317 0.929 1_655 S
H310 C319 0.930 1_655 S
H311 C321 0.930 . S
H312 C324 0.929 . S
H313 C327 0.930 . S
H314 C329 0.960 . S
H315 C329 0.960 . S
H316 C329 0.960 . S
C317 H309 0.929 1_455 S
C317 C318 1.377 . S
C317 C319 1.384 . S
C318 C317 1.377 . S
C318 C324 1.390 . S
C319 H310 0.930 1_455 S
C319 C317 1.384 . S
C319 C320 1.372 . S
C320 C319 1.372 . S
C320 C321 1.400 . S
C320 C325 1.490 . S
C321 H311 0.930 . S
C321 C320 1.400 . S
C321 C324 1.386 . S
H322 C338 0.930 . S
H323 C339 0.931 . S
C324 H312 0.929 . S
C324 C318 1.390 . S
C324 C321 1.386 . S
C325 C320 1.490 . S
C325 C327 1.395 . S
C325 C328 1.403 . S
H326 C332 0.930 . S
C327 H313 0.930 . S
C327 C325 1.395 . S
C327 C330 1.403 . S
C328 C325 1.403 . S
C328 C329 1.524 . S
C328 C332 1.400 . S
C329 H314 0.960 . S
C329 H315 0.960 . S
C329 H316 0.960 . S
C329 C328 1.524 . S
C330 C327 1.403 . S
C330 C331 1.392 . S
C330 C334 1.495 . S
C331 C330 1.392 . S
C331 C332 1.385 . S
C331 C333 1.478 . S
C332 H326 0.930 . S
C332 C328 1.400 . S
C332 C331 1.385 . S
C333 C331 1.478 . S
C333 C335 1.375 1_455 S
C333 C339 1.383 . S
C334 C330 1.495 . S
C334 H340 0.959 . S
C334 H341 0.961 . S
C334 H342 0.960 1_455 S
C335 C333 1.375 1_655 S
C335 C336 1.401 . S
C335 H343 0.942 . S
C336 C335 1.401 . S
C336 C337 1.356 1_655 S
C336 H344 0.945 . S
C337 C336 1.356 1_455 S
C337 C338 1.377 . S
C338 H322 0.930 . S
C338 C337 1.377 . S
C338 C339 1.379 . S
C339 H323 0.931 . S
C339 C333 1.383 . S
C339 C338 1.379 . S
H340 C334 0.959 . S
H341 C334 0.961 . S
H342 C334 0.960 1_655 S
H343 C335 0.942 . S
H344 C336 0.945 . S
H345 C353 0.929 1_565 S
H346 C355 0.930 1_565 S
H347 C357 0.930 . S
H348 C360 0.929 . S
H349 C363 0.930 . S
H350 C365 0.960 . S
H351 C365 0.960 . S
H352 C365 0.960 . S
C353 H345 0.929 1_545 S
C353 C354 1.377 . S
C353 C355 1.384 . S
C354 C353 1.377 . S
C354 C360 1.390 . S
C355 H346 0.930 1_545 S
C355 C353 1.384 . S
C355 C356 1.372 . S
C356 C355 1.372 . S
C356 C357 1.400 . S
C356 C361 1.490 . S
C357 H347 0.930 . S
C357 C356 1.400 . S
C357 C360 1.386 . S
H358 C374 0.930 . S
H359 C375 0.931 . S
C360 H348 0.929 . S
C360 C354 1.390 . S
C360 C357 1.386 . S
C361 C356 1.490 . S
C361 C363 1.395 . S
C361 C364 1.403 . S
H362 C368 0.930 . S
C363 H349 0.930 . S
C363 C361 1.395 . S
C363 C366 1.403 . S
C364 C361 1.403 . S
C364 C365 1.524 . S
C364 C368 1.400 . S
C365 H350 0.960 . S
C365 H351 0.960 . S
C365 H352 0.960 . S
C365 C364 1.524 . S
C366 C363 1.403 . S
C366 C367 1.392 . S
C366 C370 1.495 . S
C367 C366 1.392 . S
C367 C368 1.385 . S
C367 C369 1.478 . S
C368 H362 0.930 . S
C368 C364 1.400 . S
C368 C367 1.385 . S
C369 C367 1.478 . S
C369 C371 1.381 . S
C369 C375 1.383 . S
C370 C366 1.495 . S
C370 H376 0.959 . S
C370 H377 0.961 . S
C370 H378 0.960 . S
C371 C369 1.381 . S
C371 C372 1.394 . S
C371 H379 0.930 1_545 S
C372 C371 1.394 . S
C372 C373 1.383 . S
C372 H380 0.929 1_545 S
C373 C372 1.383 . S
C373 C374 1.377 . S
C374 H358 0.930 . S
C374 C373 1.377 . S
C374 C375 1.379 . S
C375 H359 0.931 . S
C375 C369 1.383 . S
C375 C374 1.379 . S
H376 C370 0.959 . S
H377 C370 0.961 . S
H378 C370 0.960 . S
H379 C371 0.930 1_565 S
H380 C372 0.929 1_565 S
H381 C389 0.929 . S
H382 C391 0.930 . S
H383 C393 0.930 . S
H384 C396 0.929 . S
H385 C399 0.930 . S
H386 C401 0.960 . S
H387 C401 0.960 . S
H388 C401 0.960 . S
C389 H381 0.929 . S
C389 C390 1.377 . S
C389 C391 1.384 . S
C390 C389 1.377 . S
C390 C396 1.390 . S
C391 H382 0.930 . S
C391 C389 1.384 . S
C391 C392 1.372 . S
C392 C391 1.372 . S
C392 C393 1.400 . S
C392 C397 1.490 . S
C393 H383 0.930 . S
C393 C392 1.400 . S
C393 C396 1.386 . S
H394 C410 0.930 . S
H395 C411 0.931 . S
C396 H384 0.929 . S
C396 C390 1.390 . S
C396 C393 1.386 . S
C397 C392 1.490 . S
C397 C399 1.395 . S
C397 C400 1.403 . S
H398 C404 0.930 . S
C399 H385 0.930 . S
C399 C397 1.395 . S
C399 C402 1.403 . S
C400 C397 1.403 . S
C400 C401 1.524 . S
C400 C404 1.400 . S
C401 H386 0.960 . S
C401 H387 0.960 . S
C401 H388 0.960 . S
C401 C400 1.524 . S
C402 C399 1.403 . S
C402 C403 1.392 . S
C402 C406 1.495 . S
C403 C402 1.392 . S
C403 C404 1.385 . S
C403 C405 1.478 . S
C404 H398 0.930 . S
C404 C400 1.400 . S
C404 C403 1.385 . S
C405 C403 1.478 . S
C405 C407 1.381 . S
C405 C411 1.383 . S
C406 C402 1.495 . S
C406 H412 0.959 . S
C406 H413 0.961 . S
C406 H414 0.960 . S
C407 C405 1.381 . S
C407 C408 1.394 . S
C407 H415 0.930 . S
C408 C407 1.394 . S
C408 C409 1.383 . S
C408 H416 0.929 . S
C409 C408 1.383 . S
C409 C410 1.377 . S
C410 H394 0.930 . S
C410 C409 1.377 . S
C410 C411 1.379 . S
C411 H395 0.931 . S
C411 C405 1.383 . S
C411 C410 1.379 . S
H412 C406 0.959 . S
H413 C406 0.961 . S
H414 C406 0.960 . S
H415 C407 0.930 . S
H416 C408 0.929 . S
H417 C425 0.929 1_455 S
H418 C427 0.930 . S
H419 C429 0.930 1_565 S
H420 C432 0.929 1_565 S
H421 C435 0.930 . S
H422 C437 0.960 . S
H423 C437 0.960 . S
H424 C437 0.960 . S
C425 H417 0.929 1_655 S
C425 C426 1.377 . S
C425 C427 1.384 . S
C426 C425 1.377 . S
C426 C432 1.390 . S
C427 H418 0.930 . S
C427 C425 1.384 . S
C427 C428 1.372 . S
C428 C427 1.372 . S
C428 C429 1.400 . S
C428 C433 1.490 . S
C429 H419 0.930 1_545 S
C429 C428 1.400 . S
C429 C432 1.386 . S
H430 C446 0.930 1_565 S
H431 C447 0.931 1_565 S
C432 H420 0.929 1_545 S
C432 C426 1.390 . S
C432 C429 1.386 . S
C433 C428 1.490 . S
C433 C435 1.395 . S
C433 C436 1.403 . S
H434 C440 0.930 . S
C435 H421 0.930 . S
C435 C433 1.395 . S
C435 C438 1.403 . S
C436 C433 1.403 . S
C436 C437 1.524 . S
C436 C440 1.400 . S
C437 H422 0.960 . S
C437 H423 0.960 . S
C437 H424 0.960 . S
C437 C436 1.524 . S
C438 C435 1.403 . S
C438 C439 1.392 . S
C438 C442 1.495 . S
C439 C438 1.392 . S
C439 C440 1.385 . S
C439 C441 1.478 . S
C440 H434 0.930 . S
C440 C436 1.400 . S
C440 C439 1.385 . S
C441 C439 1.478 . S
C441 C443 1.381 . S
C441 C447 1.383 . S
C442 C438 1.495 . S
C442 H448 0.959 . S
C442 H449 0.961 . S
C442 H450 0.960 . S
C443 C441 1.381 . S
C443 C444 1.394 . S
C443 H451 0.930 . S
C444 C443 1.394 . S
C444 C445 1.383 . S
C444 H452 0.929 . S
C445 C444 1.383 . S
C445 C446 1.377 . S
C446 H430 0.930 1_545 S
C446 C445 1.377 . S
C446 C447 1.379 . S
C447 H431 0.931 1_545 S
C447 C441 1.383 . S
C447 C446 1.379 . S
H448 C442 0.959 . S
H449 C442 0.961 . S
H450 C442 0.960 . S
H451 C443 0.930 . S
H452 C444 0.929 . S
H453 C461 0.929 . S
H454 C463 0.930 . S
H455 C465 0.930 . S
H456 C468 0.929 . S
H457 C471 0.930 . S
H458 C473 0.960 . S
H459 C473 0.960 . S
H460 C473 0.960 1_554 S
C461 H453 0.929 . S
C461 C462 1.377 1_556 S
C461 C463 1.384 . S
C462 C461 1.377 1_554 S
C462 C468 1.390 . S
C463 H454 0.930 . S
C463 C461 1.384 . S
C463 C464 1.372 . S
C464 C463 1.372 . S
C464 C465 1.400 1_556 S
C464 C469 1.490 . S
C465 H455 0.930 . S
C465 C464 1.400 1_554 S
C465 C468 1.386 . S
H466 C482 0.930 . S
H467 C483 0.931 . S
C468 H456 0.929 . S
C468 C462 1.390 . S
C468 C465 1.386 . S
C469 C464 1.490 . S
C469 C471 1.395 . S
C469 C472 1.403 . S
H470 C476 0.930 . S
C471 H457 0.930 . S
C471 C469 1.395 . S
C471 C474 1.403 . S
C472 C469 1.403 . S
C472 C473 1.524 . S
C472 C476 1.400 . S
C473 H458 0.960 . S
C473 H459 0.960 . S
C473 H460 0.960 1_556 S
C473 C472 1.524 . S
C474 C471 1.403 . S
C474 C475 1.392 . S
C474 C478 1.495 . S
C475 C474 1.392 . S
C475 C476 1.385 . S
C475 C477 1.478 . S
C476 H470 0.930 . S
C476 C472 1.400 . S
C476 C475 1.385 . S
C477 C475 1.478 . S
C477 C479 1.381 . S
C477 C483 1.383 . S
C478 C474 1.495 . S
C478 H484 0.959 . S
C478 H485 0.961 . S
C478 H486 0.960 . S
C479 C477 1.381 . S
C479 C480 1.394 . S
C479 H487 0.930 . S
C480 C479 1.394 . S
C480 C481 1.383 . S
C480 H488 0.929 . S
C481 C480 1.383 . S
C481 C482 1.377 . S
C482 H466 0.930 . S
C482 C481 1.377 . S
C482 C483 1.379 . S
C483 H467 0.931 . S
C483 C477 1.383 . S
C483 C482 1.379 . S
H484 C478 0.959 . S
H485 C478 0.961 . S
H486 C478 0.960 . S
H487 C479 0.930 . S
H488 C480 0.929 . S
H489 C497 0.929 1_655 S
H490 C499 0.930 1_655 S
H491 C501 0.930 . S
H492 C504 0.929 . S
H493 C507 0.930 . S
H494 C509 0.960 1_655 S
H495 C509 0.960 1_655 S
H496 C509 0.960 . S
C497 H489 0.929 1_455 S
C497 C498 1.377 . S
C497 C499 1.384 . S
C498 C497 1.377 . S
C498 C504 1.390 . S
C499 H490 0.930 1_455 S
C499 C497 1.384 . S
C499 C500 1.372 . S
C500 C499 1.372 . S
C500 C501 1.400 . S
C500 C505 1.490 . S
C501 H491 0.930 . S
C501 C500 1.400 . S
C501 C504 1.386 . S
H502 C518 0.930 . S
H503 C519 0.931 . S
C504 H492 0.929 . S
C504 C498 1.390 . S
C504 C501 1.386 . S
C505 C500 1.490 . S
C505 C507 1.395 . S
C505 C508 1.403 . S
H506 C512 0.930 . S
C507 H493 0.930 . S
C507 C505 1.395 . S
C507 C510 1.403 . S
C508 C505 1.403 . S
C508 C509 1.524 . S
C508 C512 1.400 . S
C509 H494 0.960 1_455 S
C509 H495 0.960 1_455 S
C509 H496 0.960 . S
C509 C508 1.524 . S
C510 C507 1.403 . S
C510 C511 1.392 . S
C510 C514 1.495 . S
C511 C510 1.392 . S
C511 C512 1.385 . S
C511 C513 1.478 . S
C512 H506 0.930 . S
C512 C508 1.400 . S
C512 C511 1.385 . S
C513 C511 1.478 . S
C513 C515 1.381 . S
C513 C519 1.383 . S
C514 C510 1.495 . S
C514 H520 0.959 . S
C514 H521 0.961 . S
C514 H522 0.960 . S
C515 C513 1.381 . S
C515 C516 1.394 . S
C515 H523 0.930 1_455 S
C516 C515 1.394 . S
C516 C517 1.383 . S
C516 H524 0.929 1_455 S
C517 C516 1.383 . S
C517 C518 1.377 . S
C518 H502 0.930 . S
C518 C517 1.377 . S
C518 C519 1.379 . S
C519 H503 0.931 . S
C519 C513 1.383 . S
C519 C518 1.379 . S
H520 C514 0.959 . S
H521 C514 0.961 . S
H522 C514 0.960 . S
H523 C515 0.930 1_655 S
H524 C516 0.929 1_655 S
H525 C533 0.929 . S
H526 C535 0.930 . S
H527 C537 0.930 . S
H528 C540 0.929 . S
H529 C543 0.930 . S
H530 C545 0.960 . S
H531 C545 0.960 . S
H532 C545 0.960 . S
C533 H525 0.929 . S
C533 C534 1.377 . S
C533 C535 1.384 . S
C534 C533 1.377 . S
C534 C540 1.390 . S
C535 H526 0.930 . S
C535 C533 1.384 . S
C535 C536 1.372 . S
C536 C535 1.372 . S
C536 C537 1.400 . S
C536 C541 1.490 . S
C537 H527 0.930 . S
C537 C536 1.400 . S
C537 C540 1.386 . S
H538 C554 0.930 . S
H539 C555 0.931 . S
C540 H528 0.929 . S
C540 C534 1.390 . S
C540 C537 1.386 . S
C541 C536 1.490 . S
C541 C543 1.395 . S
C541 C544 1.403 . S
H542 C548 0.949 . S
C543 H529 0.930 . S
C543 C541 1.395 . S
C543 C546 1.403 . S
C544 C541 1.403 . S
C544 C545 1.524 1_545 S
C544 C548 1.400 . S
C545 H530 0.960 . S
C545 H531 0.960 . S
C545 H532 0.960 . S
C545 C544 1.524 1_565 S
C546 C543 1.403 . S
C546 C547 1.392 . S
C546 C550 1.495 . S
C547 C546 1.392 . S
C547 C548 1.385 . S
C547 C549 1.478 . S
C548 H542 0.949 . S
C548 C544 1.400 . S
C548 C547 1.385 . S
C549 C547 1.478 . S
C549 C551 1.381 . S
C549 C555 1.383 . S
C550 C546 1.495 . S
C550 H556 0.959 . S
C550 H557 0.961 . S
C550 H558 0.960 . S
C551 C549 1.381 . S
C551 C552 1.394 . S
C551 H559 0.930 . S
C552 C551 1.394 . S
C552 C553 1.383 . S
C552 H560 0.929 . S
C553 C552 1.383 . S
C553 C554 1.377 . S
C554 H538 0.930 . S
C554 C553 1.377 . S
C554 C555 1.379 . S
C555 H539 0.931 . S
C555 C549 1.383 . S
C555 C554 1.379 . S
H556 C550 0.959 . S
H557 C550 0.961 . S
H558 C550 0.960 . S
H559 C551 0.930 . S
H560 C552 0.929 . S
H561 C569 0.929 . S
H562 C571 0.930 . S
H563 C573 0.930 . S
H564 C576 0.929 . S
H565 C579 0.930 . S
H566 C581 0.960 . S
H567 C581 0.960 1_554 S
H568 C581 0.960 1_554 S
C569 H561 0.929 . S
C569 C570 1.377 . S
C569 C571 1.384 1_554 S
C570 C569 1.377 . S
C570 C576 1.390 . S
C571 H562 0.930 . S
C571 C569 1.384 1_556 S
C571 C572 1.372 . S
C572 C571 1.372 . S
C572 C573 1.400 . S
C572 C577 1.490 . S
C573 H563 0.930 . S
C573 C572 1.400 . S
C573 C576 1.386 1_556 S
H574 C590 0.930 . S
H575 C591 0.931 . S
C576 H564 0.929 . S
C576 C570 1.390 . S
C576 C573 1.386 1_554 S
C577 C572 1.490 . S
C577 C579 1.395 . S
C577 C580 1.403 . S
H578 C584 0.930 . S
C579 H565 0.930 . S
C579 C577 1.395 . S
C579 C582 1.403 . S
C580 C577 1.403 . S
C580 C581 1.524 . S
C580 C584 1.400 . S
C581 H566 0.960 . S
C581 H567 0.960 1_556 S
C581 H568 0.960 1_556 S
C581 C580 1.524 . S
C582 C579 1.403 . S
C582 C583 1.392 . S
C582 C586 1.495 . S
C583 C582 1.392 . S
C583 C584 1.385 . S
C583 C585 1.478 . S
C584 H578 0.930 . S
C584 C580 1.400 . S
C584 C583 1.385 . S
C585 C583 1.478 . S
C585 C587 1.381 . S
C585 C591 1.383 . S
C586 C582 1.495 . S
C586 H592 0.959 . S
C586 H593 0.961 . S
C586 H594 0.960 . S
C587 C585 1.381 . S
C587 C588 1.394 . S
C587 H595 0.930 . S
C588 C587 1.394 . S
C588 C589 1.383 . S
C588 H596 0.929 . S
C589 C588 1.383 . S
C589 C590 1.377 . S
C590 H574 0.930 . S
C590 C589 1.377 . S
C590 C591 1.379 . S
C591 H575 0.931 . S
C591 C585 1.383 . S
C591 C590 1.379 . S
H592 C586 0.959 . S
H593 C586 0.961 . S
H594 C586 0.960 . S
H595 C587 0.930 . S
H596 C588 0.929 . S
H597 C605 0.929 1_655 S
H598 C607 0.930 1_655 S
H599 C609 0.930 . S
H600 C612 0.929 . S
H601 C615 0.930 . S
H602 C617 0.960 . S
H603 C617 0.960 . S
H604 C617 0.960 . S
C605 H597 0.929 1_455 S
C605 C606 1.377 . S
C605 C607 1.384 . S
C606 C605 1.377 . S
C606 C612 1.390 . S
C607 H598 0.930 1_455 S
C607 C605 1.384 . S
C607 C608 1.372 . S
C608 C607 1.372 . S
C608 C609 1.400 . S
C608 C613 1.490 . S
C609 H599 0.930 . S
C609 C608 1.400 . S
C609 C612 1.386 . S
H610 C626 0.930 . S
H611 C627 0.931 . S
C612 H600 0.929 . S
C612 C606 1.390 . S
C612 C609 1.386 . S
C613 C608 1.490 . S
C613 C615 1.395 1_455 S
C613 C616 1.403 . S
H614 C620 0.930 . S
C615 H601 0.930 . S
C615 C613 1.395 1_655 S
C615 C618 1.403 . S
C616 C613 1.403 . S
C616 C617 1.524 . S
C616 C620 1.400 . S
C617 H602 0.960 . S
C617 H603 0.960 . S
C617 H604 0.960 . S
C617 C616 1.524 . S
C618 C615 1.403 . S
C618 C619 1.392 1_655 S
C618 C622 1.495 . S
C619 C618 1.392 1_455 S
C619 C620 1.385 . S
C619 C621 1.478 . S
C620 H614 0.930 . S
C620 C616 1.400 . S
C620 C619 1.385 . S
C621 C619 1.478 . S
C621 C623 1.381 . S
C621 C627 1.383 . S
C622 C618 1.495 . S
C622 H628 0.959 . S
C622 H629 0.961 . S
C622 H630 0.960 . S
C623 C621 1.381 . S
C623 C624 1.394 . S
C623 H631 0.930 1_455 S
C624 C623 1.394 . S
C624 C625 1.383 . S
C624 H632 0.929 1_455 S
C625 C624 1.383 . S
C625 C626 1.377 . S
C626 H610 0.930 . S
C626 C625 1.377 . S
C626 C627 1.379 . S
C627 H611 0.931 . S
C627 C621 1.383 . S
C627 C626 1.379 . S
H628 C622 0.959 . S
H629 C622 0.961 . S
H630 C622 0.960 . S
H631 C623 0.930 1_655 S
H632 C624 0.929 1_655 S
C229 C64 1.478 . S
C210 C6 1.466 . S
C246 C22 1.587 . S
C265 C134 1.603 . S
C282 C34 1.220 . S
C301 C186 1.237 . S
C318 C7 1.467 . S
C337 C80 1.479 . S
C373 C124 1.596 . S
C354 C23 1.580 . S
C390 C35 1.235 . S
C409 C170 1.241 . S
C445 C117 1.603 . S
C426 C36 1.602 . S
C462 C9 1.814 1_655 S
C481 C177 1.845 . S
C517 C71 1.481 . S
C498 C21 1.454 . S
C553 C133 1.605 . S
C534 C37 1.592 . S
C589 C187 1.873 . S
C570 C8 1.842 . S
C606 C20 1.460 . S
C625 C81 1.478 . S
