# Generated by pormake.
# Topology anh, (6,3)-cn, num edge types: 1
# Building blocks:
#     Node 0, Type 0, BuildingBlock: BETFAJ_clean_sbu_0, # of connection points: 6
#     Node 1, Type 0, BuildingBlock: BETFAJ_clean_sbu_0, # of connection points: 6
#     Node 2, Type 0, BuildingBlock: BETFAJ_clean_sbu_0, # of connection points: 6
#     Node 3, Type 1, BuildingBlock: OLANEW_clean_sbu_2, # of connection points: 3
#     Node 4, Type 1, BuildingBlock: OLANEW_clean_sbu_2, # of connection points: 3
#     Node 5, Type 1, BuildingBlock: OLANEW_clean_sbu_2, # of connection points: 3
#     Node 6, Type 1, BuildingBlock: OLANEW_clean_sbu_2, # of connection points: 3
#     Node 7, Type 1, BuildingBlock: OLANEW_clean_sbu_2, # of connection points: 3
#     Node 8, Type 1, BuildingBlock: OLANEW_clean_sbu_2, # of connection points: 3
#     Edge 9, Type (0, 1), BuildingBlock: EZIPEK_clean_linker_0, # of connection points: 2
#     Edge 10, Type (0, 1), BuildingBlock: EZIPEK_clean_linker_0, # of connection points: 2
#     Edge 11, Type (0, 1), BuildingBlock: EZIPEK_clean_linker_0, # of connection points: 2
#     Edge 12, Type (0, 1), BuildingBlock: EZIPEK_clean_linker_0, # of connection points: 2
#     Edge 13, Type (0, 1), BuildingBlock: EZIPEK_clean_linker_0, # of connection points: 2
#     Edge 14, Type (0, 1), BuildingBlock: EZIPEK_clean_linker_0, # of connection points: 2
#     Edge 15, Type (0, 1), BuildingBlock: EZIPEK_clean_linker_0, # of connection points: 2
#     Edge 16, Type (0, 1), BuildingBlock: EZIPEK_clean_linker_0, # of connection points: 2
#     Edge 17, Type (0, 1), BuildingBlock: EZIPEK_clean_linker_0, # of connection points: 2
#     Edge 18, Type (0, 1), BuildingBlock: EZIPEK_clean_linker_0, # of connection points: 2
#     Edge 19, Type (0, 1), BuildingBlock: EZIPEK_clean_linker_0, # of connection points: 2
#     Edge 20, Type (0, 1), BuildingBlock: EZIPEK_clean_linker_0, # of connection points: 2
#     Edge 21, Type (0, 1), BuildingBlock: EZIPEK_clean_linker_0, # of connection points: 2
#     Edge 22, Type (0, 1), BuildingBlock: EZIPEK_clean_linker_0, # of connection points: 2
#     Edge 23, Type (0, 1), BuildingBlock: EZIPEK_clean_linker_0, # of connection points: 2
#     Edge 24, Type (0, 1), BuildingBlock: EZIPEK_clean_linker_0, # of connection points: 2
#     Edge 25, Type (0, 1), BuildingBlock: EZIPEK_clean_linker_0, # of connection points: 2
#     Edge 26, Type (0, 1), BuildingBlock: EZIPEK_clean_linker_0, # of connection points: 2
# Relax obj value: 0.195
# Max RMSD: 0.194
# Mean RMSD: 0.124
data_MOF--net-anh--node1-BETFAJ_clean_sbu_0--node2-OLANEW_clean_sbu_2--edge1-EZIPEK_clean_linker_0
_symmetry_space_group_name_H-M    P1
_symmetry_Int_Tables_number       1
_symmetry_cell_setting            triclinic
loop_
_symmetry_equiv_pos_as_xyz
'x, y, z'
_cell_length_a     29.510799
_cell_length_b     33.601437
_cell_length_c     37.347226
_cell_angle_alpha  91.570251
_cell_angle_beta   89.846018
_cell_angle_gamma 132.87529
loop_
_atom_site_label
_atom_site_type_symbol
_atom_site_fract_x
_atom_site_fract_y
_atom_site_fract_z
_atom_type_partial_charge
Sm0 Sm 0.04114 0.48284 0.13499 0.0
Sm1 Sm 0.97156 0.5242 0.14212 0.0
C2 C 0.10746 0.46174 0.11213 0.0
C3 C 0.16316 0.47851 0.12886 0.0
C4 C 0.18501 0.50797 0.16177 0.0
C5 C 0.23956 0.52661 0.17748 0.0
C6 C 0.27307 0.51639 0.16023 0.0
C7 C 0.25087 0.48627 0.1276 0.0
C8 C 0.19602 0.4674 0.11191 0.0
C9 C 0.01707 0.48505 0.20611 0.0
C10 C 0.12285 0.61225 0.15359 0.0
C11 C 0.91886 0.55947 0.1639 0.0
C12 C 0.85475 0.53061 0.17269 0.0
C13 C 0.81494 0.47702 0.18455 0.0
C14 C 0.75251 0.44804 0.18995 0.0
C15 C 0.72942 0.4723 0.18317 0.0
C16 C 0.76941 0.52611 0.17205 0.0
C17 C 0.83181 0.55516 0.16685 0.0
C18 C 0.98702 0.50378 0.07314 0.0
C19 C 0.89044 0.39525 0.13672 0.0
O20 O 0.11415 0.50172 0.10016 0.0
O21 O 0.05669 0.42702 0.13012 0.0
O22 O 1.00327 0.49707 0.17939 0.0
O23 O 0.04628 0.47074 0.1956 0.0
O24 O 0.12254 0.57275 0.15048 0.0
O25 O 0.07287 0.6045 0.149 0.0
O26 O 0.94761 0.55267 0.18572 0.0
O27 O 0.92852 0.55672 0.13007 0.0
O28 O 0.02619 0.52583 0.0986 0.0
O29 O 0.93829 0.49425 0.08329 0.0
O30 O 0.89366 0.43354 0.15082 0.0
O31 O 0.93859 0.40584 0.12235 0.0
H32 H 0.16032 0.51725 0.17503 0.0
H33 H 0.25627 0.54982 0.20264 0.0
H34 H 0.27654 0.47817 0.11408 0.0
H35 H 0.17979 0.44491 0.08647 0.0
H36 H 0.8318 0.45723 0.1889 0.0
H37 H 0.72197 0.40645 0.1984 0.0
H38 H 0.75192 0.54517 0.16665 0.0
H39 H 0.86181 0.59624 0.15746 0.0
Sm40 Sm 0.54292 0.99005 0.47793 0.0
Sm41 Sm 0.46775 0.02091 0.46859 0.0
C42 C 0.5877 0.9493 0.5027 0.0
C43 C 0.57311 0.89771 0.50568 0.0
C44 C 0.53973 0.8643 0.53494 0.0
C45 C 0.53202 0.81899 0.54009 0.0
C46 C 0.55765 0.80628 0.5162 0.0
C47 C 0.58923 0.83832 0.48631 0.0
C48 C 0.5972 0.88386 0.48119 0.0
C49 C 0.53383 0.00818 0.40835 0.0
C50 C 0.38985 0.89189 0.4654 0.0
C51 C 0.42623 0.06709 0.45042 0.0
C52 C 0.44345 0.11794 0.46261 0.0
C53 C 0.42527 0.14003 0.44271 0.0
C54 C 0.44167 0.18836 0.45462 0.0
C55 C 0.47657 0.21509 0.48649 0.0
C56 C 0.49514 0.19315 0.50621 0.0
C57 C 0.4786 0.14486 0.49437 0.0
C58 C 0.48424 0.00947 0.53892 0.0
C59 C 0.62072 0.11792 0.47609 0.0
O60 O 0.5554 0.95532 0.52196 0.0
O61 O 0.60076 0.9703 0.47105 0.0
O62 O 0.48986 0.98321 0.43028 0.0
O63 O 0.58274 0.02065 0.42207 0.0
O64 O 0.44262 0.90565 0.47383 0.0
O65 O 0.38767 0.92905 0.45896 0.0
O66 O 0.468 0.07249 0.43226 0.0
O67 O 0.40011 0.02974 0.47431 0.0
O68 O 0.52416 0.03088 0.51494 0.0
O69 O 0.43536 0.99814 0.52689 0.0
O70 O 0.56882 0.10298 0.46402 0.0
O71 O 0.62151 0.08216 0.4889 0.0
H72 H 0.52102 0.87396 0.55451 0.0
H73 H 0.5076 0.7947 0.56333 0.0
H74 H 0.60936 0.82905 0.46766 0.0
H75 H 0.62368 0.90904 0.45862 0.0
H76 H 0.39826 0.11983 0.41811 0.0
H77 H 0.42698 0.20483 0.43914 0.0
H78 H 0.52209 0.21328 0.53083 0.0
H79 H 0.49286 0.12825 0.51011 0.0
Sm80 Sm 0.61264 0.59418 0.86529 0.0
Sm81 Sm 0.5205 0.47593 0.87935 0.0
C82 C 0.67202 0.69213 0.8408 0.0
C83 C 0.65966 0.7265 0.8307 0.0
C84 C 0.645 0.72702 0.79516 0.0
C85 C 0.63851 0.76278 0.78511 0.0
C86 C 0.6508 0.80221 0.80969 0.0
C87 C 0.65781 0.79621 0.84613 0.0
C88 C 0.66392 0.76028 0.85629 0.0
C89 C 0.6038 0.57168 0.93633 0.0
C90 C 0.46589 0.53185 0.87882 0.0
C91 C 0.46275 0.37655 0.89938 0.0
C92 C 0.47206 0.3394 0.89045 0.0
C93 C 0.53171 0.35823 0.89071 0.0
C94 C 0.54085 0.32459 0.87818 0.0
C95 C 0.49063 0.27169 0.86512 0.0
C96 C 0.43082 0.25215 0.86587 0.0
C97 C 0.42162 0.28579 0.87847 0.0
C98 C 0.5306 0.49889 0.80797 0.0
C99 C 0.66995 0.54045 0.87282 0.0
O100 O 0.649 0.64989 0.81998 0.0
O101 O 0.66987 0.68266 0.87476 0.0
O102 O 0.55852 0.54809 0.91478 0.0
O103 O 0.65562 0.61048 0.92119 0.0
O104 O 0.5171 0.56971 0.86129 0.0
O105 O 0.4595 0.49357 0.89462 0.0
O106 O 0.5061 0.42022 0.91892 0.0
O107 O 0.44273 0.38629 0.87302 0.0
O108 O 0.5754 0.52193 0.82981 0.0
O109 O 0.47863 0.46044 0.82301 0.0
O110 O 0.6141 0.49774 0.88368 0.0
O111 O 0.68129 0.58276 0.86011 0.0
H112 H 0.63858 0.69978 0.77489 0.0
H113 H 0.62278 0.75783 0.75797 0.0
H114 H 0.65821 0.81876 0.86749 0.0
H115 H 0.67231 0.75929 0.88433 0.0
H116 H 0.57162 0.3994 0.89962 0.0
H117 H 0.58731 0.34034 0.87764 0.0
H118 H 0.39161 0.21146 0.8557 0.0
H119 H 0.37536 0.27051 0.87781 0.0
O120 O 0.5334 0.09048 0.2526 0.0
Cd121 Cd 0.52935 0.10602 0.18963 0.0
O122 O 0.49357 0.00959 0.23487 0.0
Cd123 Cd 0.4527 0.92624 0.23963 0.0
O124 O 0.37465 0.84024 0.22689 0.0
C125 C 0.35376 0.82768 0.1948 0.0
O126 O 0.38172 0.86567 0.171 0.0
C127 C 0.51464 0.04474 0.26015 0.0
C128 C 0.6472 0.19344 0.16602 0.0
O129 O 0.61231 0.20021 0.17855 0.0
O130 O 0.6263 0.14526 0.16402 0.0
O131 O 0.57842 0.5087 0.63461 0.0
Cd132 Cd 0.57804 0.50823 0.56907 0.0
O133 O 0.50946 0.5157 0.63868 0.0
Cd134 Cd 0.51136 0.53509 0.583 0.0
O135 O 0.5182 0.59117 0.54918 0.0
C136 C 0.5381 0.63423 0.56572 0.0
O137 O 0.55434 0.64193 0.59972 0.0
C138 C 0.54329 0.50979 0.65342 0.0
C139 C 0.54445 0.41338 0.54063 0.0
O140 O 0.6012 0.4557 0.54795 0.0
O141 O 0.50357 0.41585 0.54641 0.0
O142 O 0.11094 0.5313 0.9234 0.0
Cd143 Cd 0.18353 0.55037 0.87521 0.0
O144 O 0.04598 0.53642 0.89922 0.0
Cd145 Cd 0.96932 0.53685 0.89804 0.0
O146 O 0.90225 0.5467 0.88506 0.0
C147 C 0.84844 0.51933 0.89812 0.0
O148 O 0.82843 0.48164 0.92105 0.0
C149 C 0.0662 0.52955 0.92637 0.0
C150 C 0.27181 0.5395 0.8826 0.0
O151 O 0.27976 0.57815 0.89867 0.0
O152 O 0.22084 0.50408 0.86485 0.0
O153 O 0.04317 0.52484 0.37756 0.0
Cd154 Cd 0.06077 0.54994 0.44155 0.0
O155 O 0.94432 0.48185 0.37311 0.0
Cd156 Cd 0.92166 0.45884 0.42915 0.0
O157 O 0.85624 0.38468 0.45987 0.0
C158 C 0.82704 0.34063 0.44141 0.0
O159 O 0.83961 0.34309 0.40734 0.0
C160 C 0.99501 0.50269 0.35847 0.0
C161 C 0.16644 0.66113 0.45053 0.0
O162 O 0.17067 0.62561 0.44973 0.0
O163 O 0.11245 0.6444 0.44795 0.0
O164 O 0.51361 0.96868 0.70656 0.0
Cd165 Cd 0.52219 0.96081 0.77074 0.0
O166 O 0.52335 0.04028 0.70865 0.0
Cd167 Cd 0.52528 0.05623 0.76612 0.0
O168 O 0.50994 0.09836 0.80262 0.0
C169 C 0.53987 0.14782 0.79641 0.0
O170 O 0.58033 0.17135 0.77066 0.0
C171 C 0.51694 0.00377 0.69095 0.0
C172 C 0.57365 0.91643 0.78228 0.0
O173 O 0.5151 0.88551 0.77791 0.0
O174 O 0.60777 0.96794 0.78139 0.0
O175 O 0.50917 0.51415 0.09815 0.0
Cd176 Cd 0.46818 0.47884 0.15764 0.0
O177 O 0.60978 0.57668 0.11143 0.0
Cd178 Cd 0.59614 0.58031 0.16834 0.0
O179 O 0.53104 0.5754 0.20028 0.0
C180 C 0.5045 0.58411 0.17988 0.0
O181 O 0.5251 0.60004 0.1473 0.0
C182 C 0.56529 0.54861 0.08852 0.0
C183 C 0.51801 0.43641 0.17709 0.0
O184 O 0.46488 0.40552 0.1613 0.0
O185 O 0.54371 0.48479 0.18652 0.0
C186 C 0.33506 0.50316 0.19343 0.0
C187 C 0.33262 0.53837 0.17566 0.0
C188 C 0.44502 0.61105 0.18034 0.0
C189 C 0.44795 0.5724 0.18986 0.0
N190 N 0.39628 0.48253 0.20991 0.0
N191 N 0.38424 0.62678 0.15311 0.0
C192 C 0.39322 0.51901 0.19869 0.0
C193 C 0.38726 0.59308 0.17009 0.0
N194 N 0.28168 0.45474 0.20518 0.0
N195 N 0.49806 0.66485 0.18077 0.0
H196 H 0.3426 0.61527 0.14558 0.0
H197 H 0.423 0.66509 0.14457 0.0
H198 H 0.54065 0.67842 0.18876 0.0
H199 H 0.49893 0.69592 0.17685 0.0
H200 H 0.28052 0.42927 0.22128 0.0
H201 H 0.23849 0.44223 0.20142 0.0
H202 H 0.35794 0.44103 0.21125 0.0
H203 H 0.43741 0.49332 0.2174 0.0
C204 C 0.73275 0.19207 0.45794 0.0
C205 C 0.67895 0.17643 0.47394 0.0
C206 C 0.72525 0.27088 0.47222 0.0
C207 C 0.77947 0.28652 0.45734 0.0
N208 N 0.84173 0.26549 0.44622 0.0
N209 N 0.63292 0.20444 0.50596 0.0
C210 C 0.7854 0.24816 0.45361 0.0
C211 C 0.67814 0.21704 0.48418 0.0
N212 N 0.73272 0.15384 0.4444 0.0
N213 N 0.71678 0.30614 0.47306 0.0
H214 H 0.59874 0.16592 0.5161 0.0
H215 H 0.63323 0.23344 0.517 0.0
H216 H 0.74975 0.34585 0.46445 0.0
H217 H 0.6749 0.29455 0.47955 0.0
H218 H 0.76804 0.16345 0.42866 0.0
H219 H 0.69536 0.11221 0.44572 0.0
H220 H 0.85036 0.24015 0.44673 0.0
H221 H 0.88142 0.30642 0.44342 0.0
C222 C 0.63245 0.8463 0.76357 0.0
C223 C 0.64966 0.84508 0.79867 0.0
C224 C 0.63418 0.90472 0.81993 0.0
C225 C 0.60173 0.89345 0.78751 0.0
N226 N 0.5729 0.8555 0.72688 0.0
N227 N 0.71244 0.91023 0.84721 0.0
C228 C 0.60152 0.86467 0.75884 0.0
C229 C 0.66397 0.88514 0.82358 0.0
N230 N 0.65629 0.84069 0.7347 0.0
N231 N 0.63485 0.93228 0.84781 0.0
H232 H 0.74131 0.90257 0.84633 0.0
H233 H 0.72877 0.94331 0.86381 0.0
H234 H 0.61323 0.94705 0.84645 0.0
H235 H 0.65262 0.93643 0.87317 0.0
H236 H 0.64976 0.84593 0.70844 0.0
H237 H 0.6907 0.83974 0.73779 0.0
H238 H 0.56637 0.82988 0.70665 0.0
H239 H 0.55273 0.87087 0.72141 0.0
C240 C 0.63975 0.44593 0.21716 0.0
C241 C 0.66276 0.44143 0.18558 0.0
C242 C 0.57282 0.40975 0.15087 0.0
C243 C 0.55337 0.42031 0.1816 0.0
N244 N 0.55409 0.42908 0.2456 0.0
N245 N 0.64278 0.40172 0.12647 0.0
C246 C 0.58199 0.4314 0.21546 0.0
C247 C 0.62589 0.41684 0.15388 0.0
N248 N 0.67482 0.46694 0.24803 0.0
N249 N 0.54437 0.39779 0.11827 0.0
H250 H 0.68216 0.40739 0.12802 0.0
H251 H 0.61507 0.37911 0.10383 0.0
H252 H 0.50373 0.38959 0.11477 0.0
H253 H 0.56231 0.3979 0.0942 0.0
H254 H 0.66417 0.47717 0.27101 0.0
H255 H 0.71623 0.47588 0.25013 0.0
H256 H 0.57006 0.43322 0.27151 0.0
H257 H 0.51133 0.41795 0.24441 0.0
C258 C 0.29324 0.81203 0.4303 0.0
C259 C 0.33172 0.83269 0.46181 0.0
C260 C 0.26001 0.74057 0.48607 0.0
C261 C 0.22283 0.72015 0.45443 0.0
N262 N 0.19942 0.73552 0.39764 0.0
N263 N 0.35528 0.81442 0.51784 0.0
C264 C 0.23812 0.75572 0.42697 0.0
C265 C 0.31615 0.7963 0.48908 0.0
N266 N 0.31171 0.84527 0.40227 0.0
N267 N 0.23929 0.70736 0.51445 0.0
H268 H 0.39352 0.85507 0.52391 0.0
H269 H 0.35193 0.78872 0.53506 0.0
H270 H 0.19818 0.66654 0.51361 0.0
H271 H 0.25945 0.72096 0.54 0.0
H272 H 0.29071 0.83195 0.37697 0.0
H273 H 0.35121 0.88643 0.4029 0.0
H274 H 0.20173 0.75941 0.37916 0.0
H275 H 0.16235 0.69412 0.39232 0.0
C276 C 0.50036 0.23372 0.81008 0.0
C277 C 0.50142 0.23834 0.84798 0.0
C278 C 0.53019 0.1851 0.85254 0.0
C279 C 0.52427 0.17693 0.81469 0.0
N280 N 0.48927 0.18261 0.75833 0.0
N281 N 0.50755 0.21176 0.9057 0.0
C282 C 0.50532 0.19823 0.79369 0.0
C283 C 0.51339 0.21197 0.86937 0.0
N284 N 0.49653 0.26453 0.78964 0.0
N285 N 0.55445 0.16942 0.87223 0.0
H286 H 0.49607 0.23158 0.91886 0.0
H287 H 0.50914 0.18844 0.92244 0.0
H288 H 0.56771 0.15005 0.86087 0.0
H289 H 0.56619 0.17952 0.89935 0.0
H290 H 0.50276 0.26752 0.76205 0.0
H291 H 0.49261 0.29098 0.80053 0.0
H292 H 0.46909 0.19242 0.74268 0.0
H293 H 0.48993 0.15504 0.74552 0.0
C294 C 0.4973 0.70661 0.51949 0.0
C295 C 0.55434 0.76124 0.52404 0.0
C296 C 0.60294 0.72989 0.5469 0.0
C297 C 0.54407 0.6762 0.54745 0.0
N298 N 0.43354 0.61348 0.53738 0.0
N299 N 0.66043 0.82597 0.5456 0.0
C300 C 0.49077 0.6643 0.53415 0.0
C301 C 0.60712 0.77323 0.53841 0.0
N302 N 0.44964 0.69524 0.50085 0.0
N303 N 0.65503 0.73921 0.55377 0.0
H304 H 0.66567 0.85907 0.53976 0.0
H305 H 0.6979 0.83689 0.55994 0.0
H306 H 0.6536 0.70815 0.55949 0.0
H307 H 0.69964 0.77655 0.55027 0.0
H308 H 0.40899 0.65596 0.49348 0.0
H309 H 0.453 0.7254 0.48993 0.0
H310 H 0.39248 0.60409 0.53209 0.0
H311 H 0.42662 0.58134 0.54794 0.0
C312 C 0.7757 0.58012 0.89564 0.0
C313 C 0.72022 0.53944 0.87526 0.0
C314 C 0.75089 0.48715 0.86795 0.0
C315 C 0.80712 0.52858 0.8874 0.0
N316 N 0.87815 0.61902 0.91417 0.0
N317 N 0.66208 0.46051 0.83537 0.0
C318 C 0.82125 0.57665 0.89918 0.0
C319 C 0.7099 0.49471 0.85955 0.0
N320 N 0.78332 0.62029 0.91374 0.0
N321 N 0.73635 0.44019 0.85764 0.0
H322 H 0.63258 0.46583 0.82768 0.0
H323 H 0.65493 0.43005 0.82033 0.0
H324 H 0.76685 0.43466 0.86085 0.0
H325 H 0.69305 0.40564 0.84752 0.0
H326 H 0.81845 0.64684 0.93272 0.0
H327 H 0.75176 0.62467 0.91208 0.0
H328 H 0.89425 0.65748 0.91933 0.0
H329 H 0.91145 0.61717 0.91899 0.0
C330 C 0.23607 0.69177 0.1443 0.0
C331 C 0.18184 0.6677 0.16392 0.0
C332 C 0.23963 0.7506 0.20197 0.0
C333 C 0.29502 0.77205 0.18493 0.0
N334 N 0.3481 0.75953 0.14401 0.0
N335 N 0.13462 0.67051 0.21586 0.0
C336 C 0.29387 0.74162 0.15724 0.0
C337 C 0.18425 0.69607 0.19398 0.0
N338 N 0.23205 0.66847 0.1124 0.0
N339 N 0.23912 0.78297 0.22463 0.0
H340 H 0.09307 0.63043 0.21157 0.0
H341 H 0.13667 0.68726 0.24039 0.0
H342 H 0.27834 0.82349 0.23086 0.0
H343 H 0.19864 0.77128 0.23455 0.0
H344 H 0.26909 0.68709 0.09523 0.0
H345 H 0.19028 0.63313 0.10123 0.0
H346 H 0.35034 0.7362 0.12658 0.0
H347 H 0.39136 0.79568 0.15303 0.0
C348 C 0.5407 0.31558 0.48316 0.0
C349 C 0.49304 0.26576 0.49973 0.0
C350 C 0.48304 0.31355 0.54494 0.0
C351 C 0.52643 0.3625 0.52636 0.0
N352 N 0.58788 0.40796 0.47394 0.0
N353 N 0.41106 0.21522 0.54242 0.0
C354 C 0.55301 0.363 0.49441 0.0
C355 C 0.46185 0.26412 0.52946 0.0
N356 N 0.57545 0.31799 0.45742 0.0
N357 N 0.46436 0.31461 0.57822 0.0
H358 H 0.39421 0.17811 0.53186 0.0
H359 H 0.38244 0.2112 0.56148 0.0
H360 H 0.48005 0.35015 0.59105 0.0
H361 H 0.43806 0.28125 0.59461 0.0
H362 H 0.61524 0.3543 0.44726 0.0
H363 H 0.56765 0.28407 0.44836 0.0
H364 H 0.603 0.40866 0.44854 0.0
H365 H 0.5968 0.44307 0.48077 0.0
C366 C 0.35193 0.48479 0.87892 0.0
C367 C 0.41585 0.53345 0.88097 0.0
C368 C 0.3849 0.58562 0.87943 0.0
C369 C 0.32146 0.53739 0.88292 0.0
N370 N 0.2479 0.4416 0.89498 0.0
N371 N 0.49067 0.63085 0.89314 0.0
C372 C 0.30593 0.48711 0.88535 0.0
C373 C 0.43162 0.58406 0.88419 0.0
N374 N 0.33429 0.4365 0.86879 0.0
N375 N 0.40115 0.63269 0.86952 0.0
H376 H 0.52593 0.63196 0.89911 0.0
H377 H 0.50269 0.66761 0.89888 0.0
H378 H 0.36902 0.63534 0.86293 0.0
H379 H 0.4464 0.66731 0.86342 0.0
H380 H 0.28821 0.40104 0.86388 0.0
H381 H 0.36544 0.4331 0.8609 0.0
H382 H 0.2361 0.40522 0.90021 0.0
H383 H 0.21388 0.44189 0.90188 0.0
C384 C 0.77821 0.32301 0.11963 0.0
C385 C 0.83026 0.33851 0.1383 0.0
C386 C 0.76252 0.25611 0.17315 0.0
C387 C 0.71046 0.24062 0.15446 0.0
N388 N 0.66881 0.25176 0.10455 0.0
N389 N 0.87391 0.31483 0.1768 0.0
C390 C 0.71836 0.27185 0.12603 0.0
C391 C 0.82303 0.30311 0.16284 0.0
N392 N 0.78601 0.35778 0.09625 0.0
N393 N 0.75415 0.22815 0.20236 0.0
H394 H 0.91908 0.34999 0.17121 0.0
H395 H 0.8715 0.28774 0.19172 0.0
H396 H 0.7107 0.19375 0.21104 0.0
H397 H 0.78988 0.24136 0.2198 0.0
H398 H 0.74967 0.3525 0.08547 0.0
H399 H 0.8295 0.39346 0.0887 0.0
H400 H 0.67232 0.26994 0.08125 0.0
H401 H 0.6245 0.21405 0.10826 0.0
C402 C 0.01877 0.55181 0.01472 0.0
C403 C 1.00428 0.50919 0.03488 0.0
C404 C 0.0179 0.4745 0.98133 0.0
C405 C 0.03929 0.5204 0.96237 0.0
N406 N 0.06887 0.60739 0.96265 0.0
N407 N 1.0007 0.43558 0.03892 0.0
C408 C 0.04142 0.56007 0.97932 0.0
C409 C 1.0069 0.47214 0.01862 0.0
N410 N 0.01192 0.58508 0.02953 0.0
N411 N 1.0062 0.4322 0.96339 0.0
H412 H 0.99301 0.43284 0.06627 0.0
H413 H 1.00908 0.4117 0.0294 0.0
H414 H 0.0121 0.43185 0.93586 0.0
H415 H 0.98463 0.39527 0.97496 0.0
H416 H 0.01381 0.612 0.01474 0.0
H417 H 1.00067 0.58373 0.05621 0.0
H418 H 0.0785 0.64054 0.97524 0.0
H419 H 0.08697 0.61567 0.93707 0.0
C420 C 0.57686 0.06799 0.35498 0.0
C421 C 0.5289 0.01681 0.37018 0.0
C422 C 0.46884 0.98507 0.31402 0.0
C423 C 0.51948 0.03401 0.29769 0.0
N424 N 0.62849 0.11543 0.30067 0.0
N425 N 0.43942 0.9215 0.35916 0.0
C426 C 0.57554 0.07363 0.31758 0.0
C427 C 0.47761 0.97376 0.34834 0.0
N428 N 0.62279 0.11191 0.37619 0.0
N429 N 0.4117 0.95029 0.29774 0.0
H430 H 0.44667 0.91101 0.38306 0.0
H431 H 0.40489 0.88831 0.34251 0.0
H432 H 0.40237 0.95815 0.27338 0.0
H433 H 0.37247 0.91649 0.31031 0.0
H434 H 0.65502 0.15125 0.36685 0.0
H435 H 0.62498 0.11006 0.40376 0.0
H436 H 0.67168 0.14229 0.3136 0.0
H437 H 0.63077 0.11954 0.27299 0.0
C438 C 0.53386 0.46463 0.74827 0.0
C439 C 0.53716 0.50293 0.76856 0.0
C440 C 0.55589 0.55037 0.71392 0.0
C441 C 0.54458 0.50832 0.69308 0.0
N442 N 0.5141 0.42093 0.69009 0.0
N443 N 0.53832 0.57541 0.76971 0.0
C444 C 0.53166 0.46432 0.71013 0.0
C445 C 0.54464 0.54395 0.75114 0.0
N446 N 0.53327 0.42886 0.76542 0.0
N447 N 0.57964 0.5975 0.69845 0.0
H448 H 0.52919 0.57142 0.7969 0.0
H449 H 0.53619 0.60161 0.75745 0.0
H450 H 0.59098 0.6049 0.67147 0.0
H451 H 0.59442 0.63149 0.71318 0.0
H452 H 0.53761 0.40393 0.75219 0.0
H453 H 0.53338 0.42711 0.79326 0.0
H454 H 0.49771 0.38516 0.70117 0.0
H455 H 0.51071 0.4186 0.6622 0.0
C456 C 0.55169 0.05012 0.59542 0.0
C457 C 0.49471 0.00631 0.57741 0.0
C458 C 0.45245 0.95944 0.63437 0.0
C459 C 0.51071 1.00139 0.65143 0.0
N460 N 0.61942 0.07998 0.64686 0.0
N461 N 0.39464 0.91435 0.57881 0.0
C462 C 0.56151 0.0445 0.63143 0.0
C463 C 0.44623 0.95949 0.59662 0.0
N464 N 0.5947 0.09876 0.5794 0.0
N465 N 0.40219 0.92085 0.6544 0.0
H466 H 0.38717 0.9124 0.55136 0.0
H467 H 0.36156 0.87704 0.59071 0.0
H468 H 0.40483 0.91876 0.68202 0.0
H469 H 0.35704 0.89341 0.64412 0.0
H470 H 0.63397 0.13352 0.59274 0.0
H471 H 0.58808 0.10665 0.55422 0.0
H472 H 0.65932 0.10879 0.63249 0.0
H473 H 0.62811 0.07701 0.67325 0.0
C474 C 0.57276 0.58825 0.9931 0.0
C475 C 0.59737 0.5686 0.97561 0.0
C476 C 0.60155 0.53617 0.03237 0.0
C477 C 0.57856 0.55713 0.04997 0.0
N478 N 0.55206 0.61093 0.04921 0.0
N479 N 0.64567 0.53295 0.97872 0.0
C480 C 0.56669 0.58524 0.0309 0.0
C481 C 0.61516 0.54545 0.99534 0.0
N482 N 0.55538 0.60996 0.97353 0.0
N483 N 0.60799 0.50556 0.05079 0.0
H484 H 0.65532 0.53825 0.9515 0.0
H485 H 0.66564 0.52128 0.99225 0.0
H486 H 0.59935 0.49865 0.07807 0.0
H487 H 0.61764 0.48382 0.03871 0.0
H488 H 0.52933 0.61804 0.9836 0.0
H489 H 0.56504 0.61814 0.94648 0.0
H490 H 0.54927 0.63701 0.0376 0.0
H491 H 0.54731 0.60963 0.07693 0.0
C492 C 0.05852 0.53897 0.2643 0.0
C493 C 1.00865 0.49196 0.24409 0.0
C494 C 0.95081 0.45007 0.2991 0.0
C495 C 0.99776 0.4996 0.31876 0.0
N496 N 0.0884 0.59582 0.31717 0.0
N497 N 0.90246 0.4068 0.24111 0.0
C498 C 0.04936 0.54552 0.30051 0.0
C499 C 0.95297 0.44905 0.2611 0.0
N500 N 0.11529 0.57667 0.24945 0.0
N501 N 0.90691 0.40292 0.3165 0.0
H502 H 0.90309 0.40433 0.2133 0.0
H503 H 0.85881 0.37709 0.25185 0.0
H504 H 0.90614 0.40028 0.34424 0.0
H505 H 0.87552 0.36503 0.30328 0.0
H506 H 0.15471 0.60871 0.26431 0.0
H507 H 0.12399 0.57358 0.22294 0.0
H508 H 0.12345 0.63118 0.30383 0.0
H509 H 0.08136 0.60304 0.343 0.0
loop_
_geom_bond_atom_site_label_1
_geom_bond_atom_site_label_2
_geom_bond_distance
_geom_bond_site_symmetry_2
_ccdc_geom_bond_type
Sm0 C2 2.846 . S
Sm0 O20 2.543 . S
Sm0 O21 2.450 . S
Sm0 O22 2.681 . S
Sm0 O23 2.464 . S
Sm0 O24 2.396 . S
Sm0 O28 2.386 . S
Sm0 O31 2.408 1_455 S
Sm1 C11 2.846 . S
Sm1 O22 2.386 1_655 S
Sm1 O25 2.408 1_655 S
Sm1 O26 2.543 . S
Sm1 O27 2.450 . S
Sm1 O28 2.681 1_655 S
Sm1 O29 2.464 . S
Sm1 O30 2.396 . S
C2 Sm0 2.846 . S
C2 C3 1.506 . S
C2 O20 1.261 . S
C2 O21 1.242 . S
C3 C2 1.506 . S
C3 C4 1.358 . S
C3 C8 1.382 . S
C4 C3 1.358 . S
C4 C5 1.385 . S
C4 H32 0.930 . S
C5 C4 1.385 . S
C5 C6 1.395 . S
C5 H33 0.929 . S
C6 C5 1.395 . S
C6 C7 1.335 . S
C7 C6 1.335 . S
C7 C8 1.398 . S
C7 H34 0.930 . S
C8 C3 1.382 . S
C8 C7 1.398 . S
C8 H35 0.929 . S
C9 O22 1.271 . S
C9 O23 1.251 . S
C10 O24 1.252 . S
C10 O25 1.272 . S
C11 Sm1 2.846 . S
C11 C12 1.506 . S
C11 O26 1.261 . S
C11 O27 1.242 . S
C12 C11 1.506 . S
C12 C13 1.358 . S
C12 C17 1.382 . S
C13 C12 1.358 . S
C13 C14 1.385 . S
C13 H36 0.930 . S
C14 C13 1.385 . S
C14 C15 1.395 . S
C14 H37 0.929 . S
C15 C14 1.395 . S
C15 C16 1.335 . S
C16 C15 1.335 . S
C16 C17 1.398 . S
C16 H38 0.930 . S
C17 C12 1.382 . S
C17 C16 1.398 . S
C17 H39 0.929 . S
C18 O28 1.271 . S
C18 O29 1.251 1_455 S
C19 O30 1.252 . S
C19 O31 1.272 . S
O20 Sm0 2.543 . S
O20 C2 1.261 . S
O21 Sm0 2.450 . S
O21 C2 1.242 . S
O22 Sm0 2.681 . S
O22 Sm1 2.386 1_455 S
O22 C9 1.271 . S
O23 Sm0 2.464 . S
O23 C9 1.251 . S
O24 Sm0 2.396 . S
O24 C10 1.252 . S
O25 Sm1 2.408 1_455 S
O25 C10 1.272 . S
O26 Sm1 2.543 . S
O26 C11 1.261 . S
O27 Sm1 2.450 . S
O27 C11 1.242 . S
O28 Sm0 2.386 . S
O28 Sm1 2.681 1_455 S
O28 C18 1.271 . S
O29 Sm1 2.464 . S
O29 C18 1.251 1_655 S
O30 Sm1 2.396 . S
O30 C19 1.252 . S
O31 Sm0 2.408 1_655 S
O31 C19 1.272 . S
H32 C4 0.930 . S
H33 C5 0.929 . S
H34 C7 0.930 . S
H35 C8 0.929 . S
H36 C13 0.930 . S
H37 C14 0.929 . S
H38 C16 0.930 . S
H39 C17 0.929 . S
Sm40 C42 2.846 . S
Sm40 O60 2.543 . S
Sm40 O61 2.450 . S
Sm40 O62 2.681 1_565 S
Sm40 O63 2.464 . S
Sm40 O64 2.396 . S
Sm40 O68 2.384 1_565 S
Sm40 O71 2.408 1_565 S
Sm41 C51 2.846 . S
Sm41 O62 2.386 . S
Sm41 O65 2.408 1_545 S
Sm41 O66 2.543 . S
Sm41 O67 2.450 . S
Sm41 O68 2.684 . S
Sm41 O69 2.464 . S
Sm41 O70 2.396 . S
C42 Sm40 2.846 . S
C42 C43 1.506 . S
C42 O60 1.261 . S
C42 O61 1.242 . S
C43 C42 1.506 . S
C43 C44 1.358 . S
C43 C48 1.382 . S
C44 C43 1.358 . S
C44 C45 1.385 . S
C44 H72 0.930 . S
C45 C44 1.385 . S
C45 C46 1.395 . S
C45 H73 0.929 . S
C46 C45 1.395 . S
C46 C47 1.335 . S
C47 C46 1.335 . S
C47 C48 1.398 . S
C47 H74 0.930 . S
C48 C43 1.382 . S
C48 C47 1.398 . S
C48 H75 0.929 . S
C49 O62 1.271 . S
C49 O63 1.251 1_545 S
C50 O64 1.252 . S
C50 O65 1.272 . S
C51 Sm41 2.846 . S
C51 C52 1.506 . S
C51 O66 1.261 . S
C51 O67 1.242 . S
C52 C51 1.506 . S
C52 C53 1.358 . S
C52 C57 1.382 . S
C53 C52 1.358 . S
C53 C54 1.385 . S
C53 H76 0.930 . S
C54 C53 1.385 . S
C54 C55 1.395 . S
C54 H77 0.929 . S
C55 C54 1.395 . S
C55 C56 1.335 . S
C56 C55 1.335 . S
C56 C57 1.398 . S
C56 H78 0.930 . S
C57 C52 1.382 . S
C57 C56 1.398 . S
C57 H79 0.929 . S
C58 O68 1.273 . S
C58 O69 1.251 . S
C59 O70 1.252 . S
C59 O71 1.272 . S
O60 Sm40 2.543 . S
O60 C42 1.261 . S
O61 Sm40 2.450 . S
O61 C42 1.242 . S
O62 Sm40 2.681 1_545 S
O62 Sm41 2.386 . S
O62 C49 1.271 . S
O63 Sm40 2.464 . S
O63 C49 1.251 1_565 S
O64 Sm40 2.396 . S
O64 C50 1.252 . S
O65 Sm41 2.408 1_565 S
O65 C50 1.272 . S
O66 Sm41 2.543 . S
O66 C51 1.261 . S
O67 Sm41 2.450 . S
O67 C51 1.242 . S
O68 Sm40 2.384 1_545 S
O68 Sm41 2.684 . S
O68 C58 1.273 . S
O69 Sm41 2.464 . S
O69 C58 1.251 . S
O70 Sm41 2.396 . S
O70 C59 1.252 . S
O71 Sm40 2.408 1_545 S
O71 C59 1.272 . S
H72 C44 0.930 . S
H73 C45 0.929 . S
H74 C47 0.930 . S
H75 C48 0.929 . S
H76 C53 0.930 . S
H77 C54 0.929 . S
H78 C56 0.930 . S
H79 C57 0.929 . S
Sm80 C82 2.846 . S
Sm80 O100 2.543 . S
Sm80 O101 2.450 . S
Sm80 O102 2.681 . S
Sm80 O103 2.464 . S
Sm80 O104 2.396 . S
Sm80 O108 2.386 . S
Sm80 O111 2.408 . S
Sm81 C91 2.846 . S
Sm81 O102 2.386 . S
Sm81 O105 2.408 . S
Sm81 O106 2.543 . S
Sm81 O107 2.450 . S
Sm81 O108 2.681 . S
Sm81 O109 2.464 . S
Sm81 O110 2.396 . S
C82 Sm80 2.846 . S
C82 C83 1.506 . S
C82 O100 1.261 . S
C82 O101 1.242 . S
C83 C82 1.506 . S
C83 C84 1.358 . S
C83 C88 1.382 . S
C84 C83 1.358 . S
C84 C85 1.385 . S
C84 H112 0.930 . S
C85 C84 1.385 . S
C85 C86 1.395 . S
C85 H113 0.929 . S
C86 C85 1.395 . S
C86 C87 1.335 . S
C87 C86 1.335 . S
C87 C88 1.398 . S
C87 H114 0.930 . S
C88 C83 1.382 . S
C88 C87 1.398 . S
C88 H115 0.929 . S
C89 O102 1.271 . S
C89 O103 1.251 . S
C90 O104 1.252 . S
C90 O105 1.272 . S
C91 Sm81 2.846 . S
C91 C92 1.506 . S
C91 O106 1.261 . S
C91 O107 1.242 . S
C92 C91 1.506 . S
C92 C93 1.358 . S
C92 C97 1.382 . S
C93 C92 1.358 . S
C93 C94 1.385 . S
C93 H116 0.930 . S
C94 C93 1.385 . S
C94 C95 1.395 . S
C94 H117 0.929 . S
C95 C94 1.395 . S
C95 C96 1.335 . S
C96 C95 1.335 . S
C96 C97 1.398 . S
C96 H118 0.930 . S
C97 C92 1.382 . S
C97 C96 1.398 . S
C97 H119 0.929 . S
C98 O108 1.271 . S
C98 O109 1.251 . S
C99 O110 1.252 . S
C99 O111 1.272 . S
O100 Sm80 2.543 . S
O100 C82 1.261 . S
O101 Sm80 2.450 . S
O101 C82 1.242 . S
O102 Sm80 2.681 . S
O102 Sm81 2.386 . S
O102 C89 1.271 . S
O103 Sm80 2.464 . S
O103 C89 1.251 . S
O104 Sm80 2.396 . S
O104 C90 1.252 . S
O105 Sm81 2.408 . S
O105 C90 1.272 . S
O106 Sm81 2.543 . S
O106 C91 1.261 . S
O107 Sm81 2.450 . S
O107 C91 1.242 . S
O108 Sm80 2.386 . S
O108 Sm81 2.681 . S
O108 C98 1.271 . S
O109 Sm81 2.464 . S
O109 C98 1.251 . S
O110 Sm81 2.396 . S
O110 C99 1.252 . S
O111 Sm80 2.408 . S
O111 C99 1.272 . S
H112 C84 0.930 . S
H113 C85 0.929 . S
H114 C87 0.930 . S
H115 C88 0.929 . S
H116 C93 0.930 . S
H117 C94 0.929 . S
H118 C96 0.930 . S
H119 C97 0.929 . S
O120 Cd121 2.300 . S
O120 C127 1.275 . S
Cd121 O120 2.300 . S
Cd121 O129 2.381 . S
Cd121 O130 2.378 . S
O122 Cd123 2.385 . S
O122 C127 1.255 1_565 S
Cd123 O122 2.385 . S
Cd123 O124 2.317 . S
O124 Cd123 2.317 . S
O124 C125 1.232 . S
C125 O124 1.232 . S
C125 O126 1.218 . S
O126 C125 1.218 . S
C127 O120 1.275 . S
C127 O122 1.255 1_545 S
C128 O129 1.258 . S
C128 O130 1.256 . S
O129 Cd121 2.381 . S
O129 C128 1.258 . S
O130 Cd121 2.378 . S
O130 C128 1.256 . S
O131 Cd132 2.300 . S
O131 C138 1.275 . S
Cd132 O131 2.300 . S
Cd132 O140 2.381 . S
Cd132 O141 2.378 . S
O133 Cd134 2.385 . S
O133 C138 1.255 . S
Cd134 O133 2.385 . S
Cd134 O135 2.317 . S
O135 Cd134 2.317 . S
O135 C136 1.232 . S
C136 O135 1.232 . S
C136 O137 1.218 . S
O137 C136 1.218 . S
C138 O131 1.275 . S
C138 O133 1.255 . S
C139 O140 1.258 . S
C139 O141 1.256 . S
O140 Cd132 2.381 . S
O140 C139 1.258 . S
O141 Cd132 2.378 . S
O141 C139 1.256 . S
O142 Cd143 2.300 . S
O142 C149 1.275 . S
Cd143 O142 2.300 . S
Cd143 O151 2.381 . S
Cd143 O152 2.378 . S
O144 Cd145 2.385 . S
O144 C149 1.255 1_655 S
Cd145 O144 2.385 . S
Cd145 O146 2.317 . S
O146 Cd145 2.317 . S
O146 C147 1.232 . S
C147 O146 1.232 . S
C147 O148 1.218 . S
O148 C147 1.218 . S
C149 O142 1.275 . S
C149 O144 1.255 1_455 S
C150 O151 1.258 . S
C150 O152 1.256 . S
O151 Cd143 2.381 . S
O151 C150 1.258 . S
O152 Cd143 2.378 . S
O152 C150 1.256 . S
O153 Cd154 2.300 . S
O153 C160 1.275 1_455 S
Cd154 O153 2.300 . S
Cd154 O162 2.381 . S
Cd154 O163 2.378 . S
O155 Cd156 2.385 . S
O155 C160 1.255 . S
Cd156 O155 2.385 . S
Cd156 O157 2.317 . S
O157 Cd156 2.317 . S
O157 C158 1.232 . S
C158 O157 1.232 . S
C158 O159 1.218 . S
O159 C158 1.218 . S
C160 O153 1.275 1_655 S
C160 O155 1.255 . S
C161 O162 1.258 . S
C161 O163 1.256 . S
O162 Cd154 2.381 . S
O162 C161 1.258 . S
O163 Cd154 2.378 . S
O163 C161 1.256 . S
O164 Cd165 2.300 . S
O164 C171 1.275 1_565 S
Cd165 O164 2.300 . S
Cd165 O173 2.381 . S
Cd165 O174 2.378 . S
O166 Cd167 2.385 . S
O166 C171 1.255 . S
Cd167 O166 2.385 . S
Cd167 O168 2.317 . S
O168 Cd167 2.317 . S
O168 C169 1.232 . S
C169 O168 1.232 . S
C169 O170 1.218 . S
O170 C169 1.218 . S
C171 O164 1.275 1_545 S
C171 O166 1.255 . S
C172 O173 1.258 . S
C172 O174 1.256 . S
O173 Cd165 2.381 . S
O173 C172 1.258 . S
O174 Cd165 2.378 . S
O174 C172 1.256 . S
O175 Cd176 2.300 . S
O175 C182 1.275 . S
Cd176 O175 2.300 . S
Cd176 O184 2.381 . S
Cd176 O185 2.378 . S
O177 Cd178 2.385 . S
O177 C182 1.255 . S
Cd178 O177 2.385 . S
Cd178 O179 2.317 . S
O179 Cd178 2.317 . S
O179 C180 1.232 . S
C180 O179 1.232 . S
C180 O181 1.218 . S
O181 C180 1.218 . S
C182 O175 1.275 . S
C182 O177 1.255 . S
C183 O184 1.258 . S
C183 O185 1.256 . S
O184 Cd176 2.381 . S
O184 C183 1.258 . S
O185 Cd176 2.378 . S
O185 C183 1.256 . S
C186 C187 1.363 . S
C186 C192 1.379 . S
C186 N194 1.356 . S
C187 C186 1.363 . S
C187 C193 1.363 . S
C188 C189 1.363 . S
C188 C193 1.379 . S
C188 N195 1.356 . S
C189 C188 1.363 . S
C189 C192 1.363 . S
N190 C192 1.356 . S
N190 H202 0.984 . S
N190 H203 0.985 . S
N191 C193 1.356 . S
N191 H196 0.984 . S
N191 H197 0.985 . S
C192 C186 1.379 . S
C192 C189 1.363 . S
C192 N190 1.356 . S
C193 C187 1.363 . S
C193 C188 1.379 . S
C193 N191 1.356 . S
N194 C186 1.356 . S
N194 H200 0.984 . S
N194 H201 0.984 . S
N195 C188 1.356 . S
N195 H198 0.984 . S
N195 H199 0.985 . S
H196 N191 0.984 . S
H197 N191 0.985 . S
H198 N195 0.984 . S
H199 N195 0.985 . S
H200 N194 0.984 . S
H201 N194 0.984 . S
H202 N190 0.984 . S
H203 N190 0.985 . S
C204 C205 1.363 . S
C204 C210 1.379 . S
C204 N212 1.356 . S
C205 C204 1.363 . S
C205 C211 1.363 . S
C206 C207 1.363 . S
C206 C211 1.379 . S
C206 N213 1.356 . S
C207 C206 1.363 . S
C207 C210 1.363 . S
N208 C210 1.356 . S
N208 H220 0.984 . S
N208 H221 0.985 . S
N209 C211 1.356 . S
N209 H214 0.984 . S
N209 H215 0.985 . S
C210 C204 1.379 . S
C210 C207 1.363 . S
C210 N208 1.356 . S
C211 C205 1.363 . S
C211 C206 1.379 . S
C211 N209 1.356 . S
N212 C204 1.356 . S
N212 H218 0.984 . S
N212 H219 0.984 . S
N213 C206 1.356 . S
N213 H216 0.984 . S
N213 H217 0.985 . S
H214 N209 0.984 . S
H215 N209 0.985 . S
H216 N213 0.984 . S
H217 N213 0.985 . S
H218 N212 0.984 . S
H219 N212 0.984 . S
H220 N208 0.984 . S
H221 N208 0.985 . S
C222 C223 1.363 . S
C222 C228 1.379 . S
C222 N230 1.356 . S
C223 C222 1.363 . S
C223 C229 1.363 . S
C224 C225 1.363 . S
C224 C229 1.379 . S
C224 N231 1.356 . S
C225 C224 1.363 . S
C225 C228 1.363 . S
N226 C228 1.356 . S
N226 H238 0.984 . S
N226 H239 0.985 . S
N227 C229 1.356 . S
N227 H232 0.984 . S
N227 H233 0.985 . S
C228 C222 1.379 . S
C228 C225 1.363 . S
C228 N226 1.356 . S
C229 C223 1.363 . S
C229 C224 1.379 . S
C229 N227 1.356 . S
N230 C222 1.356 . S
N230 H236 0.984 . S
N230 H237 0.984 . S
N231 C224 1.356 . S
N231 H234 0.984 . S
N231 H235 0.985 . S
H232 N227 0.984 . S
H233 N227 0.985 . S
H234 N231 0.984 . S
H235 N231 0.985 . S
H236 N230 0.984 . S
H237 N230 0.984 . S
H238 N226 0.984 . S
H239 N226 0.985 . S
C240 C241 1.363 . S
C240 C246 1.379 . S
C240 N248 1.356 . S
C241 C240 1.363 . S
C241 C247 1.363 . S
C242 C243 1.363 . S
C242 C247 1.379 . S
C242 N249 1.356 . S
C243 C242 1.363 . S
C243 C246 1.363 . S
N244 C246 1.356 . S
N244 H256 0.984 . S
N244 H257 0.985 . S
N245 C247 1.356 . S
N245 H250 0.984 . S
N245 H251 0.985 . S
C246 C240 1.379 . S
C246 C243 1.363 . S
C246 N244 1.356 . S
C247 C241 1.363 . S
C247 C242 1.379 . S
C247 N245 1.356 . S
N248 C240 1.356 . S
N248 H254 0.984 . S
N248 H255 0.984 . S
N249 C242 1.356 . S
N249 H252 0.984 . S
N249 H253 0.985 . S
H250 N245 0.984 . S
H251 N245 0.985 . S
H252 N249 0.984 . S
H253 N249 0.985 . S
H254 N248 0.984 . S
H255 N248 0.984 . S
H256 N244 0.984 . S
H257 N244 0.985 . S
C258 C259 1.363 . S
C258 C264 1.379 . S
C258 N266 1.356 . S
C259 C258 1.363 . S
C259 C265 1.363 . S
C260 C261 1.363 . S
C260 C265 1.379 . S
C260 N267 1.356 . S
C261 C260 1.363 . S
C261 C264 1.363 . S
N262 C264 1.356 . S
N262 H274 0.984 . S
N262 H275 0.985 . S
N263 C265 1.356 . S
N263 H268 0.984 . S
N263 H269 0.985 . S
C264 C258 1.379 . S
C264 C261 1.363 . S
C264 N262 1.356 . S
C265 C259 1.363 . S
C265 C260 1.379 . S
C265 N263 1.356 . S
N266 C258 1.356 . S
N266 H272 0.984 . S
N266 H273 0.984 . S
N267 C260 1.356 . S
N267 H270 0.984 . S
N267 H271 0.985 . S
H268 N263 0.984 . S
H269 N263 0.985 . S
H270 N267 0.984 . S
H271 N267 0.985 . S
H272 N266 0.984 . S
H273 N266 0.984 . S
H274 N262 0.984 . S
H275 N262 0.985 . S
C276 C277 1.363 . S
C276 C282 1.379 . S
C276 N284 1.356 . S
C277 C276 1.363 . S
C277 C283 1.363 . S
C278 C279 1.363 . S
C278 C283 1.379 . S
C278 N285 1.356 . S
C279 C278 1.363 . S
C279 C282 1.363 . S
N280 C282 1.356 . S
N280 H292 0.984 . S
N280 H293 0.985 . S
N281 C283 1.356 . S
N281 H286 0.984 . S
N281 H287 0.985 . S
C282 C276 1.379 . S
C282 C279 1.363 . S
C282 N280 1.356 . S
C283 C277 1.363 . S
C283 C278 1.379 . S
C283 N281 1.356 . S
N284 C276 1.356 . S
N284 H290 0.984 . S
N284 H291 0.984 . S
N285 C278 1.356 . S
N285 H288 0.984 . S
N285 H289 0.985 . S
H286 N281 0.984 . S
H287 N281 0.985 . S
H288 N285 0.984 . S
H289 N285 0.985 . S
H290 N284 0.984 . S
H291 N284 0.984 . S
H292 N280 0.984 . S
H293 N280 0.985 . S
C294 C295 1.363 . S
C294 C300 1.379 . S
C294 N302 1.356 . S
C295 C294 1.363 . S
C295 C301 1.363 . S
C296 C297 1.363 . S
C296 C301 1.379 . S
C296 N303 1.356 . S
C297 C296 1.363 . S
C297 C300 1.363 . S
N298 C300 1.356 . S
N298 H310 0.984 . S
N298 H311 0.985 . S
N299 C301 1.356 . S
N299 H304 0.984 . S
N299 H305 0.985 . S
C300 C294 1.379 . S
C300 C297 1.363 . S
C300 N298 1.356 . S
C301 C295 1.363 . S
C301 C296 1.379 . S
C301 N299 1.356 . S
N302 C294 1.356 . S
N302 H308 0.984 . S
N302 H309 0.984 . S
N303 C296 1.356 . S
N303 H306 0.984 . S
N303 H307 0.985 . S
H304 N299 0.984 . S
H305 N299 0.985 . S
H306 N303 0.984 . S
H307 N303 0.985 . S
H308 N302 0.984 . S
H309 N302 0.984 . S
H310 N298 0.984 . S
H311 N298 0.985 . S
C312 C313 1.363 . S
C312 C318 1.379 . S
C312 N320 1.356 . S
C313 C312 1.363 . S
C313 C319 1.363 . S
C314 C315 1.363 . S
C314 C319 1.379 . S
C314 N321 1.356 . S
C315 C314 1.363 . S
C315 C318 1.363 . S
N316 C318 1.356 . S
N316 H328 0.984 . S
N316 H329 0.985 . S
N317 C319 1.356 . S
N317 H322 0.984 . S
N317 H323 0.985 . S
C318 C312 1.379 . S
C318 C315 1.363 . S
C318 N316 1.356 . S
C319 C313 1.363 . S
C319 C314 1.379 . S
C319 N317 1.356 . S
N320 C312 1.356 . S
N320 H326 0.984 . S
N320 H327 0.984 . S
N321 C314 1.356 . S
N321 H324 0.984 . S
N321 H325 0.985 . S
H322 N317 0.984 . S
H323 N317 0.985 . S
H324 N321 0.984 . S
H325 N321 0.985 . S
H326 N320 0.984 . S
H327 N320 0.984 . S
H328 N316 0.984 . S
H329 N316 0.985 . S
C330 C331 1.363 . S
C330 C336 1.379 . S
C330 N338 1.356 . S
C331 C330 1.363 . S
C331 C337 1.363 . S
C332 C333 1.363 . S
C332 C337 1.379 . S
C332 N339 1.356 . S
C333 C332 1.363 . S
C333 C336 1.363 . S
N334 C336 1.356 . S
N334 H346 0.984 . S
N334 H347 0.985 . S
N335 C337 1.356 . S
N335 H340 0.984 . S
N335 H341 0.985 . S
C336 C330 1.379 . S
C336 C333 1.363 . S
C336 N334 1.356 . S
C337 C331 1.363 . S
C337 C332 1.379 . S
C337 N335 1.356 . S
N338 C330 1.356 . S
N338 H344 0.984 . S
N338 H345 0.984 . S
N339 C332 1.356 . S
N339 H342 0.984 . S
N339 H343 0.985 . S
H340 N335 0.984 . S
H341 N335 0.985 . S
H342 N339 0.984 . S
H343 N339 0.985 . S
H344 N338 0.984 . S
H345 N338 0.984 . S
H346 N334 0.984 . S
H347 N334 0.985 . S
C348 C349 1.363 . S
C348 C354 1.379 . S
C348 N356 1.356 . S
C349 C348 1.363 . S
C349 C355 1.363 . S
C350 C351 1.363 . S
C350 C355 1.379 . S
C350 N357 1.356 . S
C351 C350 1.363 . S
C351 C354 1.363 . S
N352 C354 1.356 . S
N352 H364 0.984 . S
N352 H365 0.985 . S
N353 C355 1.356 . S
N353 H358 0.984 . S
N353 H359 0.985 . S
C354 C348 1.379 . S
C354 C351 1.363 . S
C354 N352 1.356 . S
C355 C349 1.363 . S
C355 C350 1.379 . S
C355 N353 1.356 . S
N356 C348 1.356 . S
N356 H362 0.984 . S
N356 H363 0.984 . S
N357 C350 1.356 . S
N357 H360 0.984 . S
N357 H361 0.985 . S
H358 N353 0.984 . S
H359 N353 0.985 . S
H360 N357 0.984 . S
H361 N357 0.985 . S
H362 N356 0.984 . S
H363 N356 0.984 . S
H364 N352 0.984 . S
H365 N352 0.985 . S
C366 C367 1.363 . S
C366 C372 1.379 . S
C366 N374 1.356 . S
C367 C366 1.363 . S
C367 C373 1.363 . S
C368 C369 1.363 . S
C368 C373 1.379 . S
C368 N375 1.356 . S
C369 C368 1.363 . S
C369 C372 1.363 . S
N370 C372 1.356 . S
N370 H382 0.984 . S
N370 H383 0.985 . S
N371 C373 1.356 . S
N371 H376 0.984 . S
N371 H377 0.985 . S
C372 C366 1.379 . S
C372 C369 1.363 . S
C372 N370 1.356 . S
C373 C367 1.363 . S
C373 C368 1.379 . S
C373 N371 1.356 . S
N374 C366 1.356 . S
N374 H380 0.984 . S
N374 H381 0.984 . S
N375 C368 1.356 . S
N375 H378 0.984 . S
N375 H379 0.985 . S
H376 N371 0.984 . S
H377 N371 0.985 . S
H378 N375 0.984 . S
H379 N375 0.985 . S
H380 N374 0.984 . S
H381 N374 0.984 . S
H382 N370 0.984 . S
H383 N370 0.985 . S
C384 C385 1.363 . S
C384 C390 1.379 . S
C384 N392 1.356 . S
C385 C384 1.363 . S
C385 C391 1.363 . S
C386 C387 1.363 . S
C386 C391 1.379 . S
C386 N393 1.356 . S
C387 C386 1.363 . S
C387 C390 1.363 . S
N388 C390 1.356 . S
N388 H400 0.984 . S
N388 H401 0.985 . S
N389 C391 1.356 . S
N389 H394 0.984 . S
N389 H395 0.985 . S
C390 C384 1.379 . S
C390 C387 1.363 . S
C390 N388 1.356 . S
C391 C385 1.363 . S
C391 C386 1.379 . S
C391 N389 1.356 . S
N392 C384 1.356 . S
N392 H398 0.984 . S
N392 H399 0.984 . S
N393 C386 1.356 . S
N393 H396 0.984 . S
N393 H397 0.985 . S
H394 N389 0.984 . S
H395 N389 0.985 . S
H396 N393 0.984 . S
H397 N393 0.985 . S
H398 N392 0.984 . S
H399 N392 0.984 . S
H400 N388 0.984 . S
H401 N388 0.985 . S
C402 C403 1.363 . S
C402 C408 1.379 . S
C402 N410 1.356 . S
C403 C402 1.363 . S
C403 C409 1.363 . S
C404 C405 1.363 1_554 S
C404 C409 1.379 . S
C404 N411 1.356 1_554 S
C405 C404 1.363 1_556 S
C405 C408 1.363 1_556 S
N406 C408 1.374 1_556 S
N406 H418 0.964 1_456 S
N406 H419 0.989 . S
N407 C409 1.356 . S
N407 H412 0.984 . S
N407 H413 0.985 . S
C408 C402 1.379 . S
C408 C405 1.363 1_554 S
C408 N406 1.374 1_554 S
C409 C403 1.363 . S
C409 C404 1.379 . S
C409 N407 1.356 . S
N410 C402 1.356 . S
N410 H416 0.984 1_455 S
N410 H417 0.984 . S
N411 C404 1.356 1_556 S
N411 H414 0.984 . S
N411 H415 0.985 . S
H412 N407 0.984 . S
H413 N407 0.985 . S
H414 N411 0.984 . S
H415 N411 0.985 . S
H416 N410 0.984 1_655 S
H417 N410 0.984 . S
H418 N406 0.964 1_654 S
H419 N406 0.989 . S
C420 C421 1.363 . S
C420 C426 1.379 . S
C420 N428 1.356 . S
C421 C420 1.363 . S
C421 C427 1.363 1_545 S
C422 C423 1.363 1_565 S
C422 C427 1.379 . S
C422 N429 1.356 . S
C423 C422 1.363 1_545 S
C423 C426 1.363 . S
N424 C426 1.356 . S
N424 H436 0.984 . S
N424 H437 0.985 . S
N425 C427 1.356 . S
N425 H430 0.984 . S
N425 H431 0.985 . S
C426 C420 1.379 . S
C426 C423 1.363 . S
C426 N424 1.356 . S
C427 C421 1.363 1_565 S
C427 C422 1.379 . S
C427 N425 1.356 . S
N428 C420 1.356 . S
N428 H434 0.984 . S
N428 H435 0.984 . S
N429 C422 1.356 . S
N429 H432 0.984 . S
N429 H433 0.985 . S
H430 N425 0.984 . S
H431 N425 0.985 . S
H432 N429 0.984 . S
H433 N429 0.985 . S
H434 N428 0.984 . S
H435 N428 0.984 . S
H436 N424 0.984 . S
H437 N424 0.985 . S
C438 C439 1.363 . S
C438 C444 1.379 . S
C438 N446 1.356 . S
C439 C438 1.363 . S
C439 C445 1.363 . S
C440 C441 1.363 . S
C440 C445 1.379 . S
C440 N447 1.356 . S
C441 C440 1.363 . S
C441 C444 1.363 . S
N442 C444 1.356 . S
N442 H454 0.984 . S
N442 H455 0.985 . S
N443 C445 1.356 . S
N443 H448 0.984 . S
N443 H449 0.985 . S
C444 C438 1.379 . S
C444 C441 1.363 . S
C444 N442 1.356 . S
C445 C439 1.363 . S
C445 C440 1.379 . S
C445 N443 1.356 . S
N446 C438 1.356 . S
N446 H452 0.984 . S
N446 H453 0.984 . S
N447 C440 1.356 . S
N447 H450 0.984 . S
N447 H451 0.985 . S
H448 N443 0.984 . S
H449 N443 0.985 . S
H450 N447 0.984 . S
H451 N447 0.985 . S
H452 N446 0.984 . S
H453 N446 0.984 . S
H454 N442 0.984 . S
H455 N442 0.985 . S
C456 C457 1.363 . S
C456 C462 1.379 . S
C456 N464 1.356 . S
C457 C456 1.363 . S
C457 C463 1.363 1_545 S
C458 C459 1.363 1_565 S
C458 C463 1.379 . S
C458 N465 1.356 . S
C459 C458 1.363 1_545 S
C459 C462 1.363 . S
N460 C462 1.356 . S
N460 H472 0.984 . S
N460 H473 0.985 . S
N461 C463 1.356 . S
N461 H466 0.984 . S
N461 H467 0.985 . S
C462 C456 1.379 . S
C462 C459 1.363 . S
C462 N460 1.356 . S
C463 C457 1.363 1_565 S
C463 C458 1.379 . S
C463 N461 1.356 . S
N464 C456 1.356 . S
N464 H470 0.984 . S
N464 H471 0.984 . S
N465 C458 1.356 . S
N465 H468 0.984 . S
N465 H469 0.985 . S
H466 N461 0.984 . S
H467 N461 0.985 . S
H468 N465 0.984 . S
H469 N465 0.985 . S
H470 N464 0.984 . S
H471 N464 0.984 . S
H472 N460 0.984 . S
H473 N460 0.985 . S
C474 C475 1.363 . S
C474 C480 1.379 1_556 S
C474 N482 1.356 . S
C475 C474 1.363 . S
C475 C481 1.363 . S
C476 C477 1.363 1_556 S
C476 C481 1.379 . S
C476 N483 1.356 1_556 S
C477 C476 1.363 1_554 S
C477 C480 1.363 . S
N478 C480 1.356 . S
N478 H490 0.984 . S
N478 H491 0.985 . S
N479 C481 1.356 . S
N479 H484 0.984 . S
N479 H485 0.985 . S
C480 C474 1.379 1_554 S
C480 C477 1.363 . S
C480 N478 1.356 . S
C481 C475 1.363 . S
C481 C476 1.379 . S
C481 N479 1.356 . S
N482 C474 1.356 . S
N482 H488 0.984 . S
N482 H489 0.984 . S
N483 C476 1.356 1_554 S
N483 H486 0.984 . S
N483 H487 0.985 . S
H484 N479 0.984 . S
H485 N479 0.985 . S
H486 N483 0.984 . S
H487 N483 0.985 . S
H488 N482 0.984 . S
H489 N482 0.984 . S
H490 N478 0.984 . S
H491 N478 0.985 . S
C492 C493 1.363 . S
C492 C498 1.379 . S
C492 N500 1.356 . S
C493 C492 1.363 . S
C493 C499 1.363 1_455 S
C494 C495 1.363 . S
C494 C499 1.379 . S
C494 N501 1.356 . S
C495 C494 1.363 . S
C495 C498 1.363 1_655 S
N496 C498 1.356 . S
N496 H508 0.984 . S
N496 H509 0.985 . S
N497 C499 1.356 . S
N497 H502 0.984 . S
N497 H503 0.985 . S
C498 C492 1.379 . S
C498 C495 1.363 1_455 S
C498 N496 1.356 . S
C499 C493 1.363 1_655 S
C499 C494 1.379 . S
C499 N497 1.356 . S
N500 C492 1.356 . S
N500 H506 0.984 . S
N500 H507 0.984 . S
N501 C494 1.356 . S
N501 H504 0.984 . S
N501 H505 0.985 . S
H502 N497 0.984 . S
H503 N497 0.985 . S
H504 N501 0.984 . S
H505 N501 0.985 . S
H506 N500 0.984 . S
H507 N500 0.984 . S
H508 N496 0.984 . S
H509 N496 0.985 . S
C187 C6 0.956 . S
C189 C180 0.762 . S
C205 C59 2.034 . S
C207 C158 1.748 . S
C223 C86 1.200 . S
C225 C172 1.183 . S
C241 C15 0.640 . S
C243 C183 0.489 . S
C261 C161 1.864 . S
C259 C50 1.952 . S
C279 C169 1.280 . S
C277 C95 1.410 . S
C295 C46 1.375 . S
C297 C136 1.179 . S
C313 C99 3.259 . S
C315 C147 2.913 . S
C331 C10 2.113 . S
C333 C125 1.759 . S
C351 C139 1.174 . S
C349 C55 1.163 . S
C369 C150 2.911 . S
C367 C90 2.995 . S
C385 C19 1.871 . S
C387 C128 1.833 . S
C405 C149 1.676 . S
C403 C18 1.682 . S
C421 C49 1.402 . S
C423 C127 1.375 . S
C439 C98 1.516 . S
C441 C138 1.469 . S
C459 C171 1.431 . S
C457 C58 1.444 . S
C477 C182 1.116 . S
C475 C89 1.186 . S
C493 C9 1.404 . S
C495 C160 1.366 . S
