# Generated by pormake.
# Topology zzz, (3,6)-cn, num edge types: 1
# Building blocks:
#     Node 0, Type 0, BuildingBlock: WUSLED_clean_sbu_0, # of connection points: 3
#     Node 1, Type 0, BuildingBlock: WUSLED_clean_sbu_0, # of connection points: 3
#     Node 2, Type 0, BuildingBlock: WUSLED_clean_sbu_0, # of connection points: 3
#     Node 3, Type 0, BuildingBlock: WUSLED_clean_sbu_0, # of connection points: 3
#     Node 4, Type 0, BuildingBlock: WUSLED_clean_sbu_0, # of connection points: 3
#     Node 5, Type 0, BuildingBlock: WUSLED_clean_sbu_0, # of connection points: 3
#     Node 6, Type 0, BuildingBlock: WUSLED_clean_sbu_0, # of connection points: 3
#     Node 7, Type 0, BuildingBlock: WUSLED_clean_sbu_0, # of connection points: 3
#     Node 8, Type 1, BuildingBlock: VOLQOD_clean_sbu_1, # of connection points: 6
#     Node 9, Type 1, BuildingBlock: VOLQOD_clean_sbu_1, # of connection points: 6
#     Node 10, Type 1, BuildingBlock: VOLQOD_clean_sbu_1, # of connection points: 6
#     Node 11, Type 1, BuildingBlock: VOLQOD_clean_sbu_1, # of connection points: 6
#     Edge 12, Type (0, 1), BuildingBlock: OJICUG_clean_linker_0, # of connection points: 2
#     Edge 13, Type (0, 1), BuildingBlock: OJICUG_clean_linker_0, # of connection points: 2
#     Edge 14, Type (0, 1), BuildingBlock: OJICUG_clean_linker_0, # of connection points: 2
#     Edge 15, Type (0, 1), BuildingBlock: OJICUG_clean_linker_0, # of connection points: 2
#     Edge 16, Type (0, 1), BuildingBlock: OJICUG_clean_linker_0, # of connection points: 2
#     Edge 17, Type (0, 1), BuildingBlock: OJICUG_clean_linker_0, # of connection points: 2
#     Edge 18, Type (0, 1), BuildingBlock: OJICUG_clean_linker_0, # of connection points: 2
#     Edge 19, Type (0, 1), BuildingBlock: OJICUG_clean_linker_0, # of connection points: 2
#     Edge 20, Type (0, 1), BuildingBlock: OJICUG_clean_linker_0, # of connection points: 2
#     Edge 21, Type (0, 1), BuildingBlock: OJICUG_clean_linker_0, # of connection points: 2
#     Edge 22, Type (0, 1), BuildingBlock: OJICUG_clean_linker_0, # of connection points: 2
#     Edge 23, Type (0, 1), BuildingBlock: OJICUG_clean_linker_0, # of connection points: 2
#     Edge 24, Type (0, 1), BuildingBlock: OJICUG_clean_linker_0, # of connection points: 2
#     Edge 25, Type (0, 1), BuildingBlock: OJICUG_clean_linker_0, # of connection points: 2
#     Edge 26, Type (0, 1), BuildingBlock: OJICUG_clean_linker_0, # of connection points: 2
#     Edge 27, Type (0, 1), BuildingBlock: OJICUG_clean_linker_0, # of connection points: 2
#     Edge 28, Type (0, 1), BuildingBlock: OJICUG_clean_linker_0, # of connection points: 2
#     Edge 29, Type (0, 1), BuildingBlock: OJICUG_clean_linker_0, # of connection points: 2
#     Edge 30, Type (0, 1), BuildingBlock: OJICUG_clean_linker_0, # of connection points: 2
#     Edge 31, Type (0, 1), BuildingBlock: OJICUG_clean_linker_0, # of connection points: 2
#     Edge 32, Type (0, 1), BuildingBlock: OJICUG_clean_linker_0, # of connection points: 2
#     Edge 33, Type (0, 1), BuildingBlock: OJICUG_clean_linker_0, # of connection points: 2
#     Edge 34, Type (0, 1), BuildingBlock: OJICUG_clean_linker_0, # of connection points: 2
#     Edge 35, Type (0, 1), BuildingBlock: OJICUG_clean_linker_0, # of connection points: 2
# Relax obj value: 0.340
# Max RMSD: 0.255
# Mean RMSD: 0.201
data_MOF--net-zzz--node1-WUSLED_clean_sbu_0--node2-VOLQOD_clean_sbu_1--edge1-OJICUG_clean_linker_0
_symmetry_space_group_name_H-M    P1
_symmetry_Int_Tables_number       1
_symmetry_cell_setting            triclinic
loop_
_symmetry_equiv_pos_as_xyz
'x, y, z'
_cell_length_a     49.842468
_cell_length_b     48.751727
_cell_length_c     19.52766
_cell_angle_alpha  90.124832
_cell_angle_beta   90.015325
_cell_angle_gamma 92.005824
loop_
_atom_site_label
_atom_site_type_symbol
_atom_site_fract_x
_atom_site_fract_y
_atom_site_fract_z
_atom_type_partial_charge
C0 C 0.81909 0.54822 0.35482 0.0
C1 C 0.84445 0.55293 0.32455 0.0
C2 C 0.86637 0.54307 0.43247 0.0
C3 C 0.86786 0.55059 0.36319 0.0
C4 C 0.84098 0.53914 0.46314 0.0
C5 C 0.81756 0.54178 0.42466 0.0
U6 U 0.78417 0.52554 0.1929 0.0
O7 O 0.74317 0.5089 0.17449 0.0
O8 O 0.75697 0.54737 0.12513 0.0
C9 C 0.73757 0.52851 0.13108 0.0
C10 C 0.79444 0.54749 0.31294 0.0
C11 C 0.72254 0.52043 0.0683 0.0
C12 C 0.68447 0.49512 0.01765 0.0
C13 C 0.70246 0.49952 0.07182 0.0
C14 C 0.70693 0.5317 0.95387 0.0
C15 C 0.68599 0.51172 0.9589 0.0
C16 C 0.72499 0.53606 0.00801 0.0
C17 C 0.8352 0.48532 0.07782 0.0
C18 C 0.85338 0.48661 0.9624 0.0
C19 C 0.86828 0.45265 0.04299 0.0
C20 C 0.85058 0.46245 0.09192 0.0
C21 C 0.87084 0.46555 0.97901 0.0
C22 C 0.83574 0.49653 0.0116 0.0
C23 C 0.82409 0.50025 0.13637 0.0
O24 O 0.79568 0.56157 0.25561 0.0
O25 O 0.78288 0.52302 0.3055 0.0
O26 O 0.80613 0.48755 0.17537 0.0
O27 O 0.82018 0.5266 0.12867 0.0
H28 H 0.84626 0.55758 0.27049 0.0
H29 H 0.88714 0.55342 0.33809 0.0
H30 H 0.83928 0.53349 0.51663 0.0
H31 H 0.79825 0.53794 0.44892 0.0
H32 H 0.66841 0.47977 0.0236 0.0
H33 H 0.69975 0.48743 0.11795 0.0
H34 H 0.70885 0.5446 0.9089 0.0
H35 H 0.74008 0.55249 0.00366 0.0
H36 H 0.85501 0.49703 0.91356 0.0
H37 H 0.88131 0.43621 0.05684 0.0
H38 H 0.85056 0.45356 0.14275 0.0
H39 H 0.8241 0.51423 0.99944 0.0
C40 C 0.97629 0.80789 0.32423 0.0
C41 C 0.9962 0.82811 0.30988 0.0
C42 C 0.9793 0.85702 0.40099 0.0
C43 C 0.99776 0.85238 0.34803 0.0
C44 C 0.95905 0.83684 0.41425 0.0
C45 C 0.9576 0.81246 0.37619 0.0
U46 U 0.99715 0.76856 0.1682 0.0
O47 O 0.97417 0.74069 0.09907 0.0
O48 O 0.00796 0.72537 0.15891 0.0
C49 C 0.98882 0.71961 0.11432 0.0
C50 C 0.97493 0.78224 0.28451 0.0
C51 C 0.99508 0.70004 0.05958 0.0
C52 C 0.99759 0.65225 0.02635 0.0
C53 C 0.99243 0.67211 0.07543 0.0
C54 C 0.0081 0.6879 0.9434 0.0
C55 C 0.00575 0.65977 0.95987 0.0
C56 C 0.00286 0.70798 0.99312 0.0
C57 C 0.04313 0.81739 0.05135 0.0
C58 C 0.07763 0.85083 0.01546 0.0
C59 C 0.04241 0.83634 0.93659 0.0
C60 C 0.03184 0.81816 0.9856 0.0
C61 C 0.06458 0.85402 0.95227 0.0
C62 C 0.06691 0.83274 0.06464 0.0
C63 C 0.02733 0.80697 0.11013 0.0
O64 O 0.9626 0.78381 0.22529 0.0
O65 O 0.99757 0.76927 0.28077 0.0
O66 O 0.03733 0.78833 0.15052 0.0
O67 O 1.00119 0.80435 0.10171 0.0
H68 H 0.01073 0.82498 0.26959 0.0
H69 H 0.01387 0.8672 0.33701 0.0
H70 H 0.94429 0.83987 0.45396 0.0
H71 H 0.94194 0.79716 0.38745 0.0
H72 H 0.99492 0.63086 0.04052 0.0
H73 H 0.98616 0.66557 0.12617 0.0
H74 H 0.01434 0.69434 0.89264 0.0
H75 H 0.00491 0.72951 0.97986 0.0
H76 H 0.09507 0.86362 0.02872 0.0
H77 H 0.03163 0.83818 0.88879 0.0
H78 H 0.01347 0.80654 0.9739 0.0
H79 H 0.07594 0.83252 0.11512 0.0
C80 C 0.70454 0.97897 0.27409 0.0
C81 C 0.68683 1.00071 0.27083 0.0
C82 C 0.65645 0.97686 0.35084 0.0
C83 C 0.66293 0.99963 0.30887 0.0
C84 C 0.67385 0.95477 0.35161 0.0
C85 C 0.69761 0.95587 0.31374 0.0
U86 U 0.75746 0.99809 0.13274 0.0
O87 O 0.78956 0.97101 0.10209 0.0
O88 O 0.79997 0.01121 0.14733 0.0
C89 C 0.80877 0.98924 0.11655 0.0
C90 C 0.73123 0.98031 0.24151 0.0
C91 C 0.82988 0.99359 0.06379 0.0
C92 C 0.87364 0.01331 0.03157 0.0
C93 C 0.85231 0.01091 0.07804 0.0
C94 C 0.85046 0.98125 0.95529 0.0
C95 C 0.87312 0.99819 0.97013 0.0
C96 C 0.82906 0.97901 0.00147 0.0
C97 C 0.70436 0.03059 0.01723 0.0
C98 C 0.67464 0.05029 0.93349 0.0
C99 C 0.65626 0.02162 0.02451 0.0
C100 C 0.68208 0.01861 0.051 0.0
C101 C 0.6524 0.03656 0.96379 0.0
C102 C 0.70041 0.04724 0.95998 0.0
C103 C 0.73181 0.02324 0.03504 0.0
O104 O 0.73417 0.96537 0.18611 0.0
O105 O 0.74369 1.00451 0.23833 0.0
O106 O 0.73612 0.9968 0.03462 0.0
O107 O 0.74314 0.0363 0.08709 0.0
H108 H 0.69176 0.01875 0.24045 0.0
H109 H 0.65005 0.01706 0.30737 0.0
H110 H 0.66927 0.93672 0.38225 0.0
H111 H 0.71098 0.93885 0.31679 0.0
H112 H 0.89093 0.02632 0.04481 0.0
H113 H 0.85364 0.02213 0.12594 0.0
H114 H 0.84932 0.9696 0.90802 0.0
H115 H 0.81213 0.96542 0.98873 0.0
H116 H 0.67245 0.0617 0.88642 0.0
H117 H 0.63947 0.01108 0.04947 0.0
H118 H 0.68478 0.00577 0.09553 0.0
H119 H 0.71744 0.0566 0.93329 0.0
C120 C 0.5663 0.7073 0.33346 0.0
C121 C 0.54819 0.68537 0.31888 0.0
C122 C 0.56964 0.65701 0.404 0.0
C123 C 0.54974 0.66057 0.35398 0.0
C124 C 0.58793 0.67902 0.41802 0.0
C125 C 0.58626 0.70395 0.38296 0.0
U126 U 0.54303 0.74164 0.17473 0.0
O127 O 0.52645 0.78223 0.15636 0.0
O128 O 0.56382 0.77089 0.1055 0.0
C129 C 0.54522 0.78925 0.11173 0.0
C130 C 0.56515 0.73289 0.29398 0.0
C131 C 0.53649 0.80343 0.04882 0.0
C132 C 0.51167 0.84054 0.99846 0.0
C133 C 0.51719 0.82365 0.05409 0.0
C134 C 0.54402 0.81682 0.92993 0.0
C135 C 0.52545 0.83779 0.93611 0.0
C136 C 0.54953 0.79985 0.98568 0.0
C137 C 0.50573 0.68657 0.05715 0.0
C138 C 0.47462 0.65078 0.01559 0.0
C139 C 0.51017 0.66861 0.94193 0.0
C140 C 0.51837 0.68716 0.99296 0.0
C141 C 0.48904 0.64922 0.95388 0.0
C142 C 0.48301 0.66921 0.06688 0.0
C143 C 0.51916 0.69855 0.11795 0.0
O144 O 0.57867 0.73276 0.2363 0.0
O145 O 0.54107 0.74279 0.28727 0.0
O146 O 0.50617 0.71602 0.1559 0.0
O147 O 0.54499 0.70454 0.11242 0.0
H148 H 0.5328 0.68744 0.28021 0.0
H149 H 0.53501 0.64434 0.34261 0.0
H150 H 0.60369 0.67692 0.45561 0.0
H151 H 0.60066 0.72053 0.39413 0.0
H152 H 0.49756 0.8567 0.00557 0.0
H153 H 0.50715 0.82724 0.10232 0.0
H154 H 0.55479 0.81393 0.88244 0.0
H155 H 0.56466 0.78461 0.97986 0.0
H156 H 0.45789 0.63664 0.02597 0.0
H157 H 0.52196 0.66804 0.89544 0.0
H158 H 0.53595 0.70035 0.98397 0.0
H159 H 0.47297 0.6684 0.11609 0.0
C160 C 0.20896 0.48161 0.08905 0.0
C161 C 0.19114 0.50326 0.09204 0.0
C162 C 0.16157 0.47949 0.00994 0.0
C163 C 0.16756 0.50217 0.05284 0.0
C164 C 0.17902 0.45747 0.00947 0.0
C165 C 0.20246 0.45856 0.04861 0.0
U166 U 0.26179 0.50296 0.22897 0.0
O167 O 0.29362 0.47627 0.26345 0.0
O168 O 0.30429 0.51514 0.21199 0.0
C169 C 0.31299 0.49343 0.24381 0.0
C170 C 0.23545 0.48314 0.12232 0.0
C171 C 0.3348 0.49812 0.29347 0.0
C172 C 0.38173 0.49331 0.32185 0.0
C173 C 0.36073 0.49103 0.27478 0.0
C174 C 0.35115 0.51023 0.40733 0.0
C175 C 0.37726 0.50287 0.38881 0.0
C176 C 0.33004 0.50788 0.35992 0.0
C177 C 0.20852 0.53769 0.33793 0.0
C178 C 0.1774 0.55714 0.41873 0.0
C179 C 0.16069 0.52766 0.32699 0.0
C180 C 0.18688 0.52511 0.30264 0.0
C181 C 0.15583 0.54271 0.38711 0.0
C182 C 0.20356 0.55456 0.39437 0.0
C183 C 0.23625 0.53045 0.32289 0.0
O184 O 0.24825 0.50719 0.12261 0.0
O185 O 0.23792 0.46947 0.17976 0.0
O186 O 0.24077 0.50412 0.32736 0.0
O187 O 0.2477 0.54226 0.26937 0.0
H188 H 0.19583 0.52128 0.12293 0.0
H189 H 0.15458 0.51952 0.05406 0.0
H190 H 0.17477 0.43953 0.97796 0.0
H191 H 0.21596 0.44164 0.04575 0.0
H192 H 0.4014 0.48694 0.30609 0.0
H193 H 0.36468 0.48318 0.22392 0.0
H194 H 0.34707 0.51787 0.45825 0.0
H195 H 0.31003 0.51333 0.37523 0.0
H196 H 0.17441 0.56867 0.46542 0.0
H197 H 0.14443 0.51656 0.3011 0.0
H198 H 0.19038 0.51204 0.25882 0.0
H199 H 0.22009 0.56436 0.42224 0.0
C200 C 0.09192 0.20369 0.04863 0.0
C201 C 0.07845 0.18123 0.07966 0.0
C202 C 0.08616 0.15303 0.97914 0.0
C203 C 0.07562 0.15618 0.04535 0.0
C204 C 0.10056 0.17527 0.9491 0.0
C205 C 0.10333 0.2005 0.98361 0.0
U206 U 0.07003 0.24416 0.1993 0.0
O207 O 0.05634 0.28631 0.21035 0.0
O208 O 0.09207 0.27355 0.26642 0.0
C209 C 0.07501 0.29305 0.2556 0.0
C210 C 0.09289 0.23041 0.08392 0.0
C211 C 0.0665 0.30854 0.31635 0.0
C212 C 0.07645 0.34537 0.39738 0.0
C213 C 0.08423 0.32872 0.34318 0.0
C214 C 0.03298 0.32161 0.4 0.0
C215 C 0.05066 0.34223 0.42626 0.0
C216 C 0.04086 0.30483 0.34556 0.0
C217 C 0.02605 0.19429 0.31759 0.0
C218 C 0.99195 0.16044 0.35282 0.0
C219 C 0.02607 0.17625 0.43341 0.0
C220 C 0.03683 0.19423 0.38407 0.0
C221 C 0.00452 0.15803 0.41679 0.0
C222 C 0.00266 0.17844 0.30363 0.0
C223 C 0.04192 0.20463 0.25897 0.0
O224 O 0.0698 0.2426 0.08658 0.0
O225 O 0.10547 0.23059 0.14306 0.0
O226 O 0.06785 0.20894 0.26835 0.0
O227 O 0.03113 0.22199 0.21646 0.0
H228 H 0.0696 0.18326 0.12999 0.0
H229 H 0.06468 0.13936 0.07012 0.0
H230 H 0.10868 0.17351 0.89791 0.0
H231 H 0.11381 0.21763 0.95894 0.0
H232 H 0.09044 0.36132 0.41519 0.0
H233 H 0.10403 0.33206 0.32108 0.0
H234 H 0.01305 0.3185 0.42135 0.0
H235 H 0.02683 0.28931 0.32572 0.0
H236 H 0.97508 0.14693 0.33902 0.0
H237 H 0.03624 0.17483 0.48224 0.0
H238 H 0.05489 0.20627 0.39621 0.0
H239 H 0.99405 0.1781 0.25264 0.0
C240 C 0.32227 0.06053 0.02152 0.0
C241 C 0.34806 0.06168 0.05098 0.0
C242 C 0.36806 0.05179 0.94039 0.0
C243 C 0.37077 0.05756 0.01061 0.0
C244 C 0.34233 0.05143 0.91076 0.0
C245 C 0.31968 0.05587 0.95092 0.0
U246 U 0.28341 0.03821 0.17935 0.0
O247 O 0.25828 0.06092 0.2513 0.0
O248 O 0.24044 0.02723 0.18928 0.0
C249 C 0.23654 0.04605 0.23616 0.0
C250 C 0.29786 0.0619 0.06408 0.0
C251 C 0.21805 0.0383 0.29219 0.0
C252 C 0.17189 0.03454 0.33123 0.0
C253 C 0.19061 0.04122 0.28052 0.0
C254 C 0.20778 0.02192 0.40735 0.0
C255 C 0.1801 0.0246 0.39516 0.0
C256 C 0.22668 0.02865 0.356 0.0
C257 C 0.32774 0.98837 0.28889 0.0
C258 C 0.35886 0.95304 0.31848 0.0
C259 C 0.34559 0.98583 0.40433 0.0
C260 C 0.32855 0.9978 0.35689 0.0
C261 C 0.36211 0.9644 0.38423 0.0
C262 C 0.34178 0.96495 0.27123 0.0
C263 C 0.31866 0.00592 0.23286 0.0
O264 O 0.28318 0.03901 0.06663 0.0
O265 O 0.30068 0.07395 0.12409 0.0
O266 O 0.31829 0.03246 0.2448 0.0
O267 O 0.2995 0.99672 0.19163 0.0
H268 H 0.35065 0.06495 0.1055 0.0
H269 H 0.39033 0.05768 0.03484 0.0
H270 H 0.33969 0.04722 0.85664 0.0
H271 H 0.30001 0.05484 0.92717 0.0
H272 H 0.15087 0.0375 0.32045 0.0
H273 H 0.18358 0.04885 0.23183 0.0
H274 H 0.21474 0.01428 0.45601 0.0
H275 H 0.24785 0.0263 0.36598 0.0
H276 H 0.37107 0.93631 0.30195 0.0
H277 H 0.34769 0.9951 0.45459 0.0
H278 H 0.31791 0.01587 0.3718 0.0
H279 H 0.3415 0.95738 0.21899 0.0
C280 C 0.462 0.30463 0.03385 0.0
C281 C 0.47914 0.32537 0.06084 0.0
C282 C 0.47177 0.35389 0.96092 0.0
C283 C 0.48399 0.34972 0.02479 0.0
C284 C 0.45392 0.3334 0.93489 0.0
C285 C 0.44913 0.30888 0.97108 0.0
U286 U 0.47829 0.26404 0.18942 0.0
O287 O 0.4875 0.22067 0.20314 0.0
O288 O 0.45295 0.23766 0.25675 0.0
C289 C 0.46769 0.21616 0.24664 0.0
C290 C 0.45817 0.27864 0.07138 0.0
C291 C 0.47317 0.19878 0.30648 0.0
C292 C 0.45839 0.15986 0.37598 0.0
C293 C 0.45304 0.17982 0.3272 0.0
C294 C 0.50384 0.17849 0.38777 0.0
C295 C 0.48404 0.15846 0.40539 0.0
C296 C 0.49849 0.19848 0.33827 0.0
C297 C 0.52566 0.31217 0.30588 0.0
C298 C 0.56088 0.34539 0.33804 0.0
C299 C 0.5266 0.33179 0.4203 0.0
C300 C 0.51507 0.31355 0.37239 0.0
C301 C 0.5487 0.349 0.4021 0.0
C302 C 0.54946 0.32708 0.29039 0.0
C303 C 0.50939 0.30152 0.24822 0.0
O304 O 0.47985 0.26419 0.07674 0.0
O305 O 0.44515 0.28064 0.12954 0.0
O306 O 0.48321 0.29977 0.25653 0.0
O307 O 0.51891 0.2824 0.20828 0.0
H308 H 0.48911 0.32254 0.10949 0.0
H309 H 0.49756 0.36522 0.04666 0.0
H310 H 0.44438 0.33595 0.88558 0.0
H311 H 0.43577 0.29311 0.94961 0.0
H312 H 0.44267 0.14487 0.38905 0.0
H313 H 0.43339 0.17966 0.30335 0.0
H314 H 0.52381 0.1778 0.40947 0.0
H315 H 0.51436 0.21293 0.32298 0.0
H316 H 0.57811 0.35815 0.32304 0.0
H317 H 0.51672 0.33419 0.46924 0.0
H318 H 0.49666 0.30231 0.38555 0.0
H319 H 0.55788 0.32643 0.23927 0.0
O320 O 0.09521 0.00955 0.65209 0.0
Zn321 Zn 0.06735 0.007 0.72917 0.0
O322 O 0.03024 0.00565 0.69091 0.0
Zn323 Zn 0.01057 0.0368 0.72445 0.0
Zn324 Zn 0.03127 0.00648 0.591 0.0
Zn325 Zn 0.01029 0.97239 0.71805 0.0
O326 O 0.97671 0.0255 0.77476 0.0
O327 O 0.9777 0.98008 0.77621 0.0
O328 O 0.07337 0.04042 0.79226 0.0
O329 O 0.03306 0.05848 0.79051 0.0
O330 O 0.00194 0.06275 0.64844 0.0
O331 O 0.01519 0.04098 0.55506 0.0
O332 O 0.01287 0.97316 0.54739 0.0
O333 O 0.07376 0.97171 0.78293 0.0
O334 O 0.99823 0.94954 0.63746 0.0
O335 O 0.03465 0.94864 0.76978 0.0
C336 C 0.09259 0.00849 0.58709 0.0
C337 C 0.96665 1.0023 0.79304 0.0
C338 C 0.00486 0.0616 0.58378 0.0
C339 C 0.05713 0.05852 0.81202 0.0
C340 C 1.00088 0.95209 0.57301 0.0
C341 C 0.05864 0.95032 0.7919 0.0
O342 O 0.06949 0.00688 0.55916 0.0
O343 O 0.51031 0.0635 0.63274 0.0
Zn344 Zn 0.5117 0.03251 0.70412 0.0
O345 O 0.51098 0.99577 0.65909 0.0
Zn346 Zn 0.4805 0.97306 0.69122 0.0
Zn347 Zn 0.50865 0.99982 0.56022 0.0
Zn348 Zn 0.54338 0.97627 0.67905 0.0
O349 O 0.49197 0.93876 0.73995 0.0
O350 O 0.53576 0.93875 0.71998 0.0
O351 O 0.47834 0.03592 0.76418 0.0
O352 O 0.4582 0.99468 0.75508 0.0
O353 O 0.45563 0.96237 0.61388 0.0
O354 O 0.4764 0.97903 0.52161 0.0
O355 O 0.54262 0.98924 0.51195 0.0
O356 O 0.54471 0.03716 0.76664 0.0
O357 O 0.56769 0.97376 0.59632 0.0
O358 O 0.56349 0.99683 0.7516 0.0
C359 C 0.50562 0.06221 0.56843 0.0
C360 C 0.51455 0.92743 0.74509 0.0
C361 C 0.45667 0.96598 0.54941 0.0
C362 C 0.45906 0.01901 0.77885 0.0
C363 C 0.56457 0.97974 0.53336 0.0
C364 C 0.56266 0.02003 0.78126 0.0
O365 O 0.50378 0.03924 0.53739 0.0
O366 O 0.46564 0.49995 0.63825 0.0
Zn367 Zn 0.49333 0.50006 0.71532 0.0
O368 O 0.53033 0.50214 0.67717 0.0
Zn369 Zn 0.55018 0.47089 0.70894 0.0
Zn370 Zn 0.52955 0.50225 0.57712 0.0
Zn371 Zn 0.54959 0.53542 0.70664 0.0
O372 O 0.58465 0.48217 0.75729 0.0
O373 O 0.58283 0.52754 0.76124 0.0
O374 O 0.48721 0.4656 0.77406 0.0
O375 O 0.528 0.44864 0.77487 0.0
O376 O 0.55775 0.44519 0.6314 0.0
O377 O 0.54451 0.46743 0.53888 0.0
O378 O 0.54801 0.53604 0.53566 0.0
O379 O 0.48674 0.53394 0.77386 0.0
O380 O 0.56032 0.55966 0.62806 0.0
O381 O 0.52532 0.55797 0.76233 0.0
C382 C 0.46832 0.50217 0.57347 0.0
C383 C 0.59453 0.50547 0.77584 0.0
C384 C 0.5544 0.44644 0.56689 0.0
C385 C 0.50363 0.44781 0.79439 0.0
C386 C 0.55851 0.55754 0.56334 0.0
C387 C 0.50148 0.5554 0.78506 0.0
O388 O 0.49142 0.50339 0.54563 0.0
O389 O 0.98094 0.53539 0.59418 0.0
Zn390 Zn 0.01589 0.53401 0.64841 0.0
O391 O 0.01774 0.49804 0.69596 0.0
Zn392 Zn 0.01614 0.50334 0.79449 0.0
Zn393 Zn 0.98836 0.473 0.66655 0.0
Zn394 Zn 0.05118 0.4805 0.6762 0.0
O395 O 0.0491 0.49101 0.84349 0.0
O396 O 0.07572 0.47905 0.75847 0.0
O397 O 0.01644 0.56599 0.71715 0.0
O398 O 0.01515 0.54335 0.81582 0.0
O399 O 0.98311 0.48468 0.83411 0.0
O400 O 0.96422 0.46251 0.74593 0.0
O401 O 1.00151 0.43884 0.61822 0.0
O402 O 0.04733 0.53898 0.58138 0.0
O403 O 0.04532 0.44249 0.63791 0.0
O404 O 0.06993 0.50126 0.60193 0.0
C405 C 0.96278 0.51704 0.58073 0.0
C406 C 0.07168 0.48316 0.82203 0.0
C407 C 0.96441 0.46928 0.80897 0.0
C408 C 0.01587 0.56577 0.78252 0.0
C409 C 0.02495 0.42928 0.61376 0.0
C410 C 0.0668 0.52337 0.56889 0.0
O411 O 0.96422 0.49268 0.60339 0.0
C412 C 0.13518 1.00406 0.42764 0.0
C413 C 0.1594 0.01734 0.4478 0.0
H414 H 0.0954 0.99088 0.4555 0.0
C415 C 0.16253 0.02531 0.51678 0.0
H416 H 0.1323 0.99698 0.37544 0.0
C417 C 0.14126 0.02147 0.56342 0.0
C418 C 0.11648 0.00975 0.54167 0.0
H419 H 0.18093 0.03562 0.53394 0.0
H420 H 0.14382 0.02875 0.61553 0.0
C421 C 0.114 1.00049 0.47371 0.0
C422 C 0.50287 0.13721 0.51271 0.0
C423 C 0.49048 0.13437 0.4482 0.0
H424 H 0.51708 0.11662 0.60247 0.0
C425 C 0.4838 0.10792 0.42374 0.0
H426 H 0.50822 0.15741 0.53271 0.0
C427 C 0.48906 0.08484 0.46275 0.0
C428 C 0.50095 0.08743 0.52792 0.0
H429 H 0.47457 0.10505 0.37388 0.0
H430 H 0.48342 0.06487 0.44181 0.0
C431 C 0.50782 0.11392 0.55263 0.0
C432 C 0.42565 0.51331 0.4164 0.0
C433 C 0.39991 0.50465 0.43857 0.0
H434 H 0.46712 0.51925 0.44112 0.0
C435 C 0.39649 0.49648 0.50724 0.0
H436 H 0.42895 0.52037 0.36443 0.0
C437 C 0.41853 0.49612 0.55191 0.0
C438 C 0.44441 0.50376 0.52859 0.0
H439 H 0.37696 0.48953 0.52589 0.0
H440 H 0.4154 0.48919 0.60406 0.0
C441 C 0.44758 0.51273 0.4606 0.0
C442 C 0.06063 0.37031 0.53188 0.0
C443 C 0.04223 0.36142 0.48121 0.0
H444 H 0.0695 0.39834 0.61375 0.0
C445 C 0.01666 0.37281 0.48027 0.0
H446 H 0.08026 0.36156 0.53524 0.0
C447 C 0.01032 0.39381 0.52613 0.0
C448 C 0.02947 0.40393 0.57362 0.0
H449 H 0.00203 0.36655 0.44179 0.0
H450 H 0.99095 0.40307 0.52186 0.0
C451 C 0.05438 0.39134 0.57725 0.0
C452 C 0.90625 0.97518 0.89405 0.0
C453 C 0.89652 0.99937 0.92281 0.0
H454 H 0.936 0.95705 0.83093 0.0
C455 C 0.90966 0.02455 0.90726 0.0
H456 H 0.89674 0.95542 0.90564 0.0
C457 C 0.93212 0.02552 0.8643 0.0
C458 C 0.94214 1.00129 0.83633 0.0
H459 H 0.9025 0.04355 0.92811 0.0
H460 H 0.94183 0.04528 0.85376 0.0
C461 C 0.92886 0.97611 0.85153 0.0
C462 C 0.54446 0.86907 0.84461 0.0
C463 C 0.522 0.85821 0.88028 0.0
H464 H 0.55975 0.89917 0.77385 0.0
C465 C 0.49665 0.86867 0.86603 0.0
H466 H 0.56434 0.86176 0.85474 0.0
C467 C 0.49402 0.89031 0.81978 0.0
C468 C 0.51668 0.90207 0.78665 0.0
H469 H 0.47887 0.86051 0.89178 0.0
H470 H 0.47429 0.8984 0.81176 0.0
C471 C 0.54184 0.8907 0.79838 0.0
C472 C 0.65315 0.4843 0.88577 0.0
C473 C 0.66434 0.50987 0.90644 0.0
H474 H 0.62255 0.4628 0.82798 0.0
C475 C 0.65334 0.5339 0.88047 0.0
H476 H 0.66132 0.46541 0.90435 0.0
C477 C 0.63113 0.53243 0.83677 0.0
C478 C 0.61939 0.5069 0.81776 0.0
H479 H 0.66122 0.55393 0.89604 0.0
H480 H 0.62281 0.55141 0.81916 0.0
C481 C 0.63097 0.48282 0.84177 0.0
C482 C 0.00207 0.63845 0.84156 0.0
C483 C 0.01166 0.63779 0.9094 0.0
H484 H 0.99595 0.61604 0.7473 0.0
C485 C 0.02519 0.61458 0.93132 0.0
H486 H 0.99156 0.65604 0.82312 0.0
C487 C 0.0273 0.5918 0.88876 0.0
C488 C 0.01635 0.59167 0.82249 0.0
H489 H 0.03351 0.61364 0.98249 0.0
H490 H 0.03706 0.57394 0.90851 0.0
C491 C 0.00451 0.61556 0.79826 0.0
C492 C 0.99774 0.10739 0.42987 0.0
C493 C 0.99879 0.1336 0.46019 0.0
H494 H 0.9987 0.06403 0.44521 0.0
C495 C 0.99819 0.13573 0.5319 0.0
H496 H 0.99851 0.10504 0.37474 0.0
C497 C 0.99819 0.1121 0.57244 0.0
C498 C 0.99923 0.08598 0.5419 0.0
H499 H 0.99888 0.15566 0.55656 0.0
H500 H 0.99904 0.11444 0.62758 0.0
C501 C 0.99808 0.08385 0.47026 0.0
C502 C 0.41139 0.95829 0.39547 0.0
C503 C 0.38587 0.95796 0.42625 0.0
H504 H 0.45392 0.96088 0.4104 0.0
C505 C 0.384 0.95578 0.49779 0.0
H506 H 0.41354 0.96025 0.34048 0.0
C507 C 0.40725 0.95595 0.53797 0.0
C508 C 0.43276 0.95881 0.50729 0.0
H509 H 0.3646 0.95534 0.52279 0.0
H510 H 0.40514 0.95585 0.59317 0.0
C511 C 0.43459 0.95884 0.43556 0.0
C512 C 0.5573 0.37176 0.51593 0.0
C513 C 0.55576 0.37351 0.44432 0.0
H514 H 0.55879 0.39358 0.61108 0.0
C515 C 0.55741 0.39952 0.41327 0.0
H516 H 0.55616 0.35197 0.54111 0.0
C517 C 0.55865 0.42334 0.45311 0.0
C518 C 0.55853 0.42165 0.52487 0.0
H519 H 0.55597 0.40156 0.35817 0.0
H520 H 0.55843 0.44306 0.42769 0.0
C521 C 0.55892 0.39561 0.55586 0.0
C522 C 0.11819 0.56144 0.45819 0.0
C523 C 0.12975 0.53939 0.42353 0.0
H524 H 0.08849 0.57382 0.53102 0.0
C525 C 0.1182 0.5129 0.43147 0.0
H526 H 0.12664 0.5821 0.45284 0.0
C527 C 0.09685 0.50822 0.47633 0.0
C528 C 0.08625 0.52992 0.51385 0.0
H529 H 0.12675 0.49539 0.40644 0.0
H530 H 0.08925 0.48733 0.48362 0.0
C531 C 0.09636 0.55677 0.5026 0.0
C532 C 0.06696 0.87656 0.83668 0.0
C533 C 0.07086 0.87826 0.90789 0.0
H534 H 0.06007 0.89856 0.74388 0.0
C535 C 0.07633 0.90431 0.93748 0.0
H536 H 0.06336 0.8569 0.81181 0.0
C537 C 0.07522 0.92817 0.8979 0.0
C538 C 0.06835 0.92631 0.82849 0.0
H539 H 0.07919 0.90655 0.99218 0.0
H540 H 0.07729 0.94801 0.92279 0.0
C541 C 0.06534 0.90038 0.7976 0.0
C542 C 0.61396 0.00802 0.91835 0.0
C543 C 0.62654 0.03406 0.92597 0.0
H544 H 0.584 0.98343 0.86686 0.0
C545 C 0.61604 0.05642 0.89038 0.0
H546 H 0.62168 0.99028 0.94406 0.0
C547 C 0.59413 0.05245 0.84575 0.0
C548 C 0.58284 0.02599 0.83521 0.0
H549 H 0.62528 0.07676 0.89546 0.0
H550 H 0.587 0.06972 0.81699 0.0
C551 C 0.59251 1.00404 0.87338 0.0
C552 C 0.49019 0.6281 0.83651 0.0
C553 C 0.48513 0.62525 0.907 0.0
H554 H 0.49948 0.60777 0.7426 0.0
C555 C 0.48053 0.59863 0.9338 0.0
H556 H 0.49312 0.6482 0.81366 0.0
C557 C 0.48337 0.57546 0.89231 0.0
C558 C 0.4912 0.5786 0.82387 0.0
H559 H 0.47685 0.59551 0.98789 0.0
H560 H 0.48166 0.55522 0.91508 0.0
C561 C 0.4936 0.60499 0.79564 0.0
C562 C 0.89213 0.45869 0.86374 0.0
C563 C 0.89451 0.46069 0.93526 0.0
H564 H 0.91265 0.45905 0.76732 0.0
C565 C 0.92026 0.4617 0.96482 0.0
H566 H 0.87252 0.45784 0.83973 0.0
C567 C 0.94313 0.46273 0.92363 0.0
C568 C 0.94077 0.46238 0.85203 0.0
H569 H 0.92276 0.46356 0.01976 0.0
H570 H 0.96265 0.46509 0.94783 0.0
C571 C 0.91509 0.45923 0.82245 0.0
C572 C 0.05341 0.11659 0.93921 0.0
C573 C 0.07985 0.12751 0.93971 0.0
H574 H 0.02575 0.08626 0.89918 0.0
C575 C 0.09947 0.11442 0.90083 0.0
H576 H 0.03775 0.12633 0.96792 0.0
C577 C 0.09258 0.09106 0.86147 0.0
C578 C 0.06587 0.08083 0.85944 0.0
H579 H 0.12005 0.12234 0.90058 0.0
H580 H 0.10788 0.08168 0.83079 0.0
C581 C 0.0465 0.09367 0.89946 0.0
C582 C 0.38993 0.02022 0.85853 0.0
C583 C 0.39161 0.044 0.89913 0.0
H584 H 0.4098 0.99368 0.78972 0.0
C585 C 0.41588 0.05961 0.90084 0.0
H586 H 0.37162 0.00759 0.85694 0.0
C587 C 0.43793 0.05173 0.86167 0.0
C588 C 0.43621 0.02781 0.82126 0.0
H589 H 0.41767 0.07805 0.93178 0.0
H590 H 0.45633 0.06421 0.86341 0.0
C591 C 0.41195 0.01215 0.82045 0.0
C592 C 0.50633 0.38724 0.91458 0.0
C593 C 0.47921 0.37873 0.92008 0.0
H594 H 0.53511 0.41559 0.87139 0.0
C595 C 0.45977 0.39379 0.88567 0.0
H596 H 0.52184 0.37593 0.9397 0.0
C597 C 0.46741 0.41685 0.84635 0.0
C598 C 0.49466 0.42496 0.83997 0.0
H599 H 0.43869 0.38778 0.88931 0.0
H600 H 0.45209 0.4279 0.81974 0.0
C601 C 0.51394 0.40996 0.87499 0.0
C602 C 0.14067 0.47039 0.89485 0.0
C603 C 0.13805 0.47929 0.96303 0.0
H604 H 0.12191 0.4645 0.79716 0.0
C605 C 0.11309 0.48846 0.98519 0.0
H606 H 0.15973 0.46354 0.87586 0.0
C607 C 0.09133 0.48899 0.93996 0.0
C608 C 0.0941 0.48056 0.87137 0.0
H609 H 0.11037 0.4952 0.03753 0.0
H610 H 0.07246 0.49649 0.95855 0.0
C611 C 0.11899 0.47105 0.84956 0.0
C612 C 0.97796 0.88083 0.51514 0.0
C613 C 0.98203 0.88224 0.44399 0.0
H614 H 0.98039 0.90169 0.61134 0.0
C615 C 0.99017 0.90761 0.41499 0.0
H616 H 0.97199 0.86162 0.53945 0.0
C617 C 0.99528 0.93063 0.45648 0.0
C618 C 0.99224 0.92888 0.52792 0.0
H619 H 0.99299 0.90959 0.36024 0.0
H620 H 0.00227 0.94962 0.43263 0.0
C621 C 0.98292 0.90386 0.55654 0.0
C622 C 0.63411 0.96674 0.4638 0.0
C623 C 0.63241 0.97654 0.39626 0.0
H624 H 0.61423 0.95988 0.55959 0.0
C625 C 0.60782 0.98641 0.37334 0.0
H626 H 0.65283 0.95934 0.48354 0.0
C627 C 0.58559 0.98676 0.41718 0.0
C628 C 0.58746 0.97738 0.48512 0.0
H629 H 0.60574 0.99384 0.32146 0.0
H630 H 0.56705 0.99482 0.39802 0.0
C631 C 0.61196 0.96716 0.50763 0.0
C632 C 0.57557 0.63114 0.51383 0.0
C633 C 0.5704 0.63083 0.44309 0.0
H634 H 0.57632 0.60829 0.60691 0.0
C635 C 0.56425 0.60548 0.411 0.0
H636 H 0.58016 0.65024 0.54045 0.0
C637 C 0.56176 0.58132 0.44938 0.0
C638 C 0.56552 0.58192 0.5207 0.0
H639 H 0.56073 0.60438 0.35633 0.0
H640 H 0.55597 0.56236 0.4234 0.0
C641 C 0.57325 0.60699 0.5521 0.0
C642 C 0.91383 0.55506 0.46905 0.0
C643 C 0.89111 0.53713 0.47108 0.0
H644 H 0.9544 0.56298 0.50267 0.0
C645 C 0.89234 0.51268 0.50848 0.0
H646 H 0.91337 0.57407 0.44052 0.0
C647 C 0.91573 0.50619 0.54305 0.0
C648 C 0.93847 0.52412 0.54173 0.0
H649 H 0.8753 0.49828 0.51011 0.0
H650 H 0.91584 0.48712 0.57139 0.0
C651 C 0.93725 0.54873 0.5046 0.0
loop_
_geom_bond_atom_site_label_1
_geom_bond_atom_site_label_2
_geom_bond_distance
_geom_bond_site_symmetry_2
_ccdc_geom_bond_type
C0 C1 1.264 . S
C0 C5 1.479 . S
C0 C10 1.465 . S
C1 C0 1.264 . S
C1 C3 1.339 . S
C1 H28 0.931 . S
C2 C3 1.395 . S
C2 C4 1.320 . S
C3 C1 1.339 . S
C3 C2 1.395 . S
C3 H29 0.929 . S
C4 C2 1.320 . S
C4 C5 1.405 . S
C4 H30 0.930 . S
C5 C0 1.479 . S
C5 C4 1.405 . S
C5 H31 0.931 . S
U6 O7 2.454 . S
U6 O8 2.458 1_554 S
U6 C9 2.984 . S
U6 C10 2.847 . S
U6 C23 2.882 1_554 S
U6 O24 2.441 . S
U6 O25 2.420 . S
U6 O26 2.455 1_554 S
U6 O27 2.449 . S
O7 U6 2.454 . S
O7 C9 1.353 . S
O8 U6 2.458 1_556 S
O8 C9 1.286 1_556 S
C9 U6 2.984 . S
C9 O7 1.353 . S
C9 O8 1.286 1_554 S
C9 C11 1.363 1_554 S
C10 C0 1.465 . S
C10 U6 2.847 . S
C10 O24 1.249 . S
C10 O25 1.202 . S
C11 C9 1.363 1_556 S
C11 C13 1.408 1_556 S
C11 C16 1.342 . S
C12 C13 1.310 . S
C12 C15 1.461 1_554 S
C12 H32 0.932 . S
C13 C11 1.408 1_554 S
C13 C12 1.310 . S
C13 H33 0.930 . S
C14 C15 1.474 . S
C14 C16 1.285 . S
C14 H34 0.929 . S
C15 C12 1.461 1_556 S
C15 C14 1.474 . S
C16 C11 1.342 . S
C16 C14 1.285 . S
C16 H35 0.930 . S
C17 C20 1.424 . S
C17 C22 1.245 . S
C17 C23 1.428 . S
C18 C21 1.260 . S
C18 C22 1.477 . S
C18 H36 0.932 . S
C19 C20 1.384 . S
C19 C21 1.479 . S
C19 H37 0.929 . S
C20 C17 1.424 . S
C20 C19 1.384 . S
C20 H38 0.928 . S
C21 C18 1.260 . S
C21 C19 1.479 . S
C22 C17 1.245 . S
C22 C18 1.477 . S
C22 H39 0.932 . S
C23 U6 2.882 1_556 S
C23 C17 1.428 . S
C23 O26 1.301 . S
C23 O27 1.282 1_556 S
O24 U6 2.441 . S
O24 C10 1.249 . S
O25 U6 2.420 . S
O25 C10 1.202 . S
O26 U6 2.455 1_556 S
O26 C23 1.301 . S
O27 U6 2.449 . S
O27 C23 1.282 1_554 S
H28 C1 0.931 . S
H29 C3 0.929 . S
H30 C4 0.930 . S
H31 C5 0.931 . S
H32 C12 0.932 . S
H33 C13 0.930 . S
H34 C14 0.929 . S
H35 C16 0.930 . S
H36 C18 0.932 . S
H37 C19 0.929 . S
H38 C20 0.928 . S
H39 C22 0.932 . S
C40 C41 1.264 . S
C40 C45 1.483 . S
C40 C50 1.465 . S
C41 C40 1.264 . S
C41 C43 1.339 . S
C41 H68 0.931 . S
C42 C43 1.395 1_655 S
C42 C44 1.320 . S
C43 C41 1.339 . S
C43 C42 1.395 1_455 S
C43 H69 0.929 . S
C44 C42 1.320 . S
C44 C45 1.399 1_655 S
C44 H70 0.930 . S
C45 C40 1.483 . S
C45 C44 1.399 1_455 S
C45 H71 0.934 . S
U46 O47 2.454 1_455 S
U46 O48 2.458 1_455 S
U46 C49 2.984 1_455 S
U46 C50 2.847 . S
U46 C63 2.882 . S
U46 O64 2.441 . S
U46 O65 2.420 . S
U46 O66 2.455 1_554 S
U46 O67 2.449 . S
O47 U46 2.454 1_655 S
O47 C49 1.353 . S
O48 U46 2.458 1_655 S
O48 C49 1.286 . S
C49 U46 2.984 1_655 S
C49 O47 1.353 . S
C49 O48 1.286 . S
C49 C51 1.363 . S
C50 C40 1.465 . S
C50 U46 2.847 . S
C50 O64 1.249 . S
C50 O65 1.202 . S
C51 C49 1.363 . S
C51 C53 1.408 . S
C51 C56 1.342 1_554 S
C52 C53 1.310 . S
C52 C55 1.461 . S
C52 H72 0.932 . S
C53 C51 1.408 . S
C53 C52 1.310 . S
C53 H73 0.930 . S
C54 C55 1.474 1_556 S
C54 C56 1.285 . S
C54 H74 0.929 . S
C55 C52 1.461 . S
C55 C54 1.474 1_554 S
C56 C51 1.342 1_556 S
C56 C54 1.285 . S
C56 H75 0.930 . S
C57 C60 1.424 . S
C57 C62 1.245 . S
C57 C63 1.428 1_556 S
C58 C61 1.254 1_455 S
C58 C62 1.477 . S
C58 H76 0.932 . S
C59 C60 1.384 . S
C59 C61 1.475 1_455 S
C59 H77 0.929 . S
C60 C57 1.424 . S
C60 C59 1.384 . S
C60 H78 0.928 1_556 S
C61 C58 1.254 1_655 S
C61 C59 1.475 1_655 S
C62 C57 1.245 . S
C62 C58 1.477 . S
C62 H79 0.932 . S
C63 U46 2.882 . S
C63 C57 1.428 1_554 S
C63 O66 1.301 1_554 S
C63 O67 1.282 . S
O64 U46 2.441 . S
O64 C50 1.249 . S
O65 U46 2.420 . S
O65 C50 1.202 . S
O66 U46 2.455 1_556 S
O66 C63 1.301 1_556 S
O67 U46 2.449 . S
O67 C63 1.282 . S
H68 C41 0.931 . S
H69 C43 0.929 . S
H70 C44 0.930 . S
H71 C45 0.934 . S
H72 C52 0.932 . S
H73 C53 0.930 . S
H74 C54 0.929 . S
H75 C56 0.930 . S
H76 C58 0.932 . S
H77 C59 0.929 . S
H78 C60 0.928 1_554 S
H79 C62 0.932 . S
C80 C81 1.264 . S
C80 C85 1.479 . S
C80 C90 1.465 . S
C81 C80 1.264 . S
C81 C83 1.339 . S
C81 H108 0.931 . S
C82 C83 1.395 . S
C82 C84 1.320 . S
C83 C81 1.339 . S
C83 C82 1.395 . S
C83 H109 0.929 . S
C84 C82 1.320 . S
C84 C85 1.405 . S
C84 H110 0.930 1_545 S
C85 C80 1.479 . S
C85 C84 1.405 . S
C85 H111 0.931 . S
U86 O87 2.454 . S
U86 O88 2.457 1_554 S
U86 C89 2.984 . S
U86 C90 2.847 . S
U86 C103 2.882 1_554 S
U86 O104 2.441 . S
U86 O105 2.420 . S
U86 O106 2.455 1_554 S
U86 O107 2.449 . S
O87 U86 2.454 . S
O87 C89 1.353 . S
O88 U86 2.457 1_556 S
O88 C89 1.285 1_556 S
C89 U86 2.984 . S
C89 O87 1.353 . S
C89 O88 1.285 1_554 S
C89 C91 1.363 . S
C90 C80 1.465 . S
C90 U86 2.847 . S
C90 O104 1.249 . S
C90 O105 1.202 . S
C91 C89 1.363 . S
C91 C93 1.408 . S
C91 C96 1.342 1_554 S
C92 C93 1.310 . S
C92 C95 1.460 1_544 S
C92 H112 0.932 . S
C93 C91 1.408 . S
C93 C92 1.310 . S
C93 H113 0.930 . S
C94 C95 1.475 . S
C94 C96 1.282 1_565 S
C94 H114 0.933 . S
C95 C92 1.460 1_566 S
C95 C94 1.475 . S
C96 C91 1.342 1_556 S
C96 C94 1.282 1_545 S
C96 H115 0.931 . S
C97 C100 1.424 . S
C97 C102 1.245 . S
C97 C103 1.428 . S
C98 C101 1.260 . S
C98 C102 1.477 . S
C98 H116 0.932 . S
C99 C100 1.384 . S
C99 C101 1.479 . S
C99 H117 0.929 . S
C100 C97 1.424 . S
C100 C99 1.384 . S
C100 H118 0.928 . S
C101 C98 1.260 . S
C101 C99 1.479 . S
C102 C97 1.245 . S
C102 C98 1.477 . S
C102 H119 0.932 . S
C103 U86 2.882 1_556 S
C103 C97 1.428 . S
C103 O106 1.301 . S
C103 O107 1.282 1_556 S
O104 U86 2.441 . S
O104 C90 1.249 . S
O105 U86 2.420 . S
O105 C90 1.202 . S
O106 U86 2.455 1_556 S
O106 C103 1.301 . S
O107 U86 2.449 . S
O107 C103 1.282 1_554 S
H108 C81 0.931 . S
H109 C83 0.929 . S
H110 C84 0.930 1_565 S
H111 C85 0.931 . S
H112 C92 0.932 . S
H113 C93 0.930 . S
H114 C94 0.933 . S
H115 C96 0.931 . S
H116 C98 0.932 . S
H117 C99 0.929 . S
H118 C100 0.928 . S
H119 C102 0.932 . S
C120 C121 1.264 . S
C120 C125 1.479 . S
C120 C130 1.465 . S
C121 C120 1.264 . S
C121 C123 1.339 . S
C121 H148 0.931 . S
C122 C123 1.395 . S
C122 C124 1.320 . S
C123 C121 1.339 . S
C123 C122 1.395 . S
C123 H149 0.929 . S
C124 C122 1.320 . S
C124 C125 1.405 . S
C124 H150 0.930 . S
C125 C120 1.479 . S
C125 C124 1.405 . S
C125 H151 0.931 . S
U126 O127 2.454 . S
U126 O128 2.458 1_554 S
U126 C129 2.984 . S
U126 C130 2.847 . S
U126 C143 2.882 1_554 S
U126 O144 2.441 . S
U126 O145 2.420 . S
U126 O146 2.455 1_554 S
U126 O147 2.449 . S
O127 U126 2.454 . S
O127 C129 1.353 . S
O128 U126 2.458 1_556 S
O128 C129 1.286 1_556 S
C129 U126 2.984 . S
C129 O127 1.353 . S
C129 O128 1.286 1_554 S
C129 C131 1.363 . S
C130 C120 1.465 . S
C130 U126 2.847 . S
C130 O144 1.249 . S
C130 O145 1.202 . S
C131 C129 1.363 . S
C131 C133 1.408 . S
C131 C136 1.342 1_554 S
C132 C133 1.310 . S
C132 C135 1.461 1_554 S
C132 H152 0.932 . S
C133 C131 1.408 . S
C133 C132 1.310 . S
C133 H153 0.930 . S
C134 C135 1.474 . S
C134 C136 1.285 . S
C134 H154 0.929 . S
C135 C132 1.461 1_556 S
C135 C134 1.474 . S
C136 C131 1.342 1_556 S
C136 C134 1.285 . S
C136 H155 0.930 . S
C137 C140 1.424 . S
C137 C142 1.245 . S
C137 C143 1.428 . S
C138 C141 1.260 . S
C138 C142 1.477 . S
C138 H156 0.932 . S
C139 C140 1.384 . S
C139 C141 1.479 . S
C139 H157 0.929 . S
C140 C137 1.424 . S
C140 C139 1.384 . S
C140 H158 0.928 . S
C141 C138 1.260 . S
C141 C139 1.479 . S
C142 C137 1.245 . S
C142 C138 1.477 . S
C142 H159 0.932 . S
C143 U126 2.882 1_556 S
C143 C137 1.428 . S
C143 O146 1.301 . S
C143 O147 1.282 1_556 S
O144 U126 2.441 . S
O144 C130 1.249 . S
O145 U126 2.420 . S
O145 C130 1.202 . S
O146 U126 2.455 1_556 S
O146 C143 1.301 . S
O147 U126 2.449 . S
O147 C143 1.282 1_554 S
H148 C121 0.931 . S
H149 C123 0.929 . S
H150 C124 0.930 . S
H151 C125 0.931 . S
H152 C132 0.932 . S
H153 C133 0.930 . S
H154 C134 0.929 . S
H155 C136 0.930 . S
H156 C138 0.932 . S
H157 C139 0.929 . S
H158 C140 0.928 . S
H159 C142 0.932 . S
C160 C161 1.264 . S
C160 C165 1.479 1_554 S
C160 C170 1.465 . S
C161 C160 1.264 . S
C161 C163 1.339 1_554 S
C161 H188 0.931 . S
C162 C163 1.395 . S
C162 C164 1.320 . S
C163 C161 1.339 1_556 S
C163 C162 1.395 . S
C163 H189 0.929 . S
C164 C162 1.320 . S
C164 C165 1.405 . S
C164 H190 0.930 . S
C165 C160 1.479 1_556 S
C165 C164 1.405 . S
C165 H191 0.931 1_556 S
U166 O167 2.454 . S
U166 O168 2.458 . S
U166 C169 2.984 . S
U166 C170 2.847 . S
U166 C183 2.882 . S
U166 O184 2.441 . S
U166 O185 2.420 . S
U166 O186 2.455 . S
U166 O187 2.449 . S
O167 U166 2.454 . S
O167 C169 1.353 . S
O168 U166 2.458 . S
O168 C169 1.286 . S
C169 U166 2.984 . S
C169 O167 1.353 . S
C169 O168 1.286 . S
C169 C171 1.363 . S
C170 C160 1.465 . S
C170 U166 2.847 . S
C170 O184 1.249 . S
C170 O185 1.202 . S
C171 C169 1.363 . S
C171 C173 1.408 . S
C171 C176 1.342 . S
C172 C173 1.310 . S
C172 C175 1.461 . S
C172 H192 0.932 . S
C173 C171 1.408 . S
C173 C172 1.310 . S
C173 H193 0.930 . S
C174 C175 1.474 . S
C174 C176 1.285 . S
C174 H194 0.929 . S
C175 C172 1.461 . S
C175 C174 1.474 . S
C176 C171 1.342 . S
C176 C174 1.285 . S
C176 H195 0.930 . S
C177 C180 1.424 . S
C177 C182 1.245 . S
C177 C183 1.428 . S
C178 C181 1.260 . S
C178 C182 1.477 . S
C178 H196 0.932 . S
C179 C180 1.384 . S
C179 C181 1.479 . S
C179 H197 0.929 . S
C180 C177 1.424 . S
C180 C179 1.384 . S
C180 H198 0.928 . S
C181 C178 1.260 . S
C181 C179 1.479 . S
C182 C177 1.245 . S
C182 C178 1.477 . S
C182 H199 0.932 . S
C183 U166 2.882 . S
C183 C177 1.428 . S
C183 O186 1.301 . S
C183 O187 1.282 . S
O184 U166 2.441 . S
O184 C170 1.249 . S
O185 U166 2.420 . S
O185 C170 1.202 . S
O186 U166 2.455 . S
O186 C183 1.301 . S
O187 U166 2.449 . S
O187 C183 1.282 . S
H188 C161 0.931 . S
H189 C163 0.929 . S
H190 C164 0.930 . S
H191 C165 0.931 1_554 S
H192 C172 0.932 . S
H193 C173 0.930 . S
H194 C174 0.929 . S
H195 C176 0.930 . S
H196 C178 0.932 . S
H197 C179 0.929 . S
H198 C180 0.928 . S
H199 C182 0.932 . S
C200 C201 1.264 . S
C200 C205 1.479 . S
C200 C210 1.465 . S
C201 C200 1.264 . S
C201 C203 1.339 . S
C201 H228 0.931 . S
C202 C203 1.395 . S
C202 C204 1.320 . S
C203 C201 1.339 . S
C203 C202 1.395 . S
C203 H229 0.929 . S
C204 C202 1.320 . S
C204 C205 1.405 . S
C204 H230 0.930 1_554 S
C205 C200 1.479 . S
C205 C204 1.405 . S
C205 H231 0.931 . S
U206 O207 2.454 . S
U206 O208 2.458 . S
U206 C209 2.984 . S
U206 C210 2.847 . S
U206 C223 2.882 . S
U206 O224 2.441 . S
U206 O225 2.420 . S
U206 O226 2.455 . S
U206 O227 2.449 . S
O207 U206 2.454 . S
O207 C209 1.353 . S
O208 U206 2.458 . S
O208 C209 1.286 . S
C209 U206 2.984 . S
C209 O207 1.353 . S
C209 O208 1.286 . S
C209 C211 1.363 . S
C210 C200 1.465 . S
C210 U206 2.847 . S
C210 O224 1.249 . S
C210 O225 1.202 . S
C211 C209 1.363 . S
C211 C213 1.408 . S
C211 C216 1.342 . S
C212 C213 1.310 . S
C212 C215 1.461 . S
C212 H232 0.932 . S
C213 C211 1.408 . S
C213 C212 1.310 . S
C213 H233 0.930 . S
C214 C215 1.474 . S
C214 C216 1.285 . S
C214 H234 0.929 . S
C215 C212 1.461 . S
C215 C214 1.474 . S
C216 C211 1.342 . S
C216 C214 1.285 . S
C216 H235 0.930 . S
C217 C220 1.424 . S
C217 C222 1.245 . S
C217 C223 1.428 . S
C218 C221 1.260 . S
C218 C222 1.477 . S
C218 H236 0.932 . S
C219 C220 1.384 . S
C219 C221 1.479 . S
C219 H237 0.929 . S
C220 C217 1.424 . S
C220 C219 1.384 . S
C220 H238 0.928 . S
C221 C218 1.260 . S
C221 C219 1.479 . S
C222 C217 1.245 . S
C222 C218 1.477 . S
C222 H239 0.932 . S
C223 U206 2.882 . S
C223 C217 1.428 . S
C223 O226 1.301 . S
C223 O227 1.282 . S
O224 U206 2.441 . S
O224 C210 1.249 . S
O225 U206 2.420 . S
O225 C210 1.202 . S
O226 U206 2.455 . S
O226 C223 1.301 . S
O227 U206 2.449 . S
O227 C223 1.282 . S
H228 C201 0.931 . S
H229 C203 0.929 . S
H230 C204 0.930 1_556 S
H231 C205 0.931 . S
H232 C212 0.932 . S
H233 C213 0.930 . S
H234 C214 0.929 . S
H235 C216 0.930 . S
H236 C218 0.932 . S
H237 C219 0.929 . S
H238 C220 0.928 . S
H239 C222 0.932 . S
C240 C241 1.264 . S
C240 C245 1.479 . S
C240 C250 1.465 . S
C241 C240 1.264 . S
C241 C243 1.339 . S
C241 H268 0.931 . S
C242 C243 1.395 1_556 S
C242 C244 1.320 . S
C243 C241 1.339 . S
C243 C242 1.395 1_554 S
C243 H269 0.929 1_554 S
C244 C242 1.320 . S
C244 C245 1.405 1_556 S
C244 H270 0.924 1_545 S
C245 C240 1.479 . S
C245 C244 1.405 1_554 S
C245 H271 0.931 . S
U246 O247 2.454 . S
U246 O248 2.458 . S
U246 C249 2.984 . S
U246 C250 2.847 . S
U246 C263 2.882 . S
U246 O264 2.441 . S
U246 O265 2.420 . S
U246 O266 2.455 . S
U246 O267 2.449 . S
O247 U246 2.454 . S
O247 C249 1.353 . S
O248 U246 2.458 . S
O248 C249 1.286 . S
C249 U246 2.984 . S
C249 O247 1.353 . S
C249 O248 1.286 . S
C249 C251 1.363 . S
C250 C240 1.465 . S
C250 U246 2.847 . S
C250 O264 1.249 . S
C250 O265 1.202 . S
C251 C249 1.363 . S
C251 C253 1.408 . S
C251 C256 1.342 . S
C252 C253 1.310 . S
C252 C255 1.461 1_545 S
C252 H272 0.932 . S
C253 C251 1.408 . S
C253 C252 1.310 . S
C253 H273 0.930 . S
C254 C255 1.473 . S
C254 C256 1.285 1_565 S
C254 H274 0.932 . S
C255 C252 1.461 1_565 S
C255 C254 1.473 . S
C256 C251 1.342 . S
C256 C254 1.285 1_545 S
C256 H275 0.933 . S
C257 C260 1.424 . S
C257 C262 1.245 . S
C257 C263 1.428 . S
C258 C261 1.260 . S
C258 C262 1.477 . S
C258 H276 0.932 . S
C259 C260 1.384 . S
C259 C261 1.479 . S
C259 H277 0.929 . S
C260 C257 1.424 . S
C260 C259 1.384 . S
C260 H278 0.928 . S
C261 C258 1.260 . S
C261 C259 1.479 . S
C262 C257 1.245 . S
C262 C258 1.477 . S
C262 H279 0.932 . S
C263 U246 2.882 . S
C263 C257 1.428 . S
C263 O266 1.301 . S
C263 O267 1.282 . S
O264 U246 2.441 . S
O264 C250 1.249 . S
O265 U246 2.420 . S
O265 C250 1.202 . S
O266 U246 2.455 . S
O266 C263 1.301 . S
O267 U246 2.449 . S
O267 C263 1.282 . S
H268 C241 0.931 . S
H269 C243 0.929 1_556 S
H270 C244 0.924 1_565 S
H271 C245 0.931 . S
H272 C252 0.932 . S
H273 C253 0.930 . S
H274 C254 0.932 . S
H275 C256 0.933 . S
H276 C258 0.932 . S
H277 C259 0.929 . S
H278 C260 0.928 . S
H279 C262 0.932 . S
C280 C281 1.264 . S
C280 C285 1.479 1_554 S
C280 C290 1.465 . S
C281 C280 1.264 . S
C281 C283 1.339 1_554 S
C281 H308 0.931 . S
C282 C283 1.395 . S
C282 C284 1.320 . S
C283 C281 1.339 1_556 S
C283 C282 1.395 . S
C283 H309 0.929 . S
C284 C282 1.320 . S
C284 C285 1.405 . S
C284 H310 0.930 . S
C285 C280 1.479 1_556 S
C285 C284 1.405 . S
C285 H311 0.931 1_556 S
U286 O287 2.454 . S
U286 O288 2.458 . S
U286 C289 2.984 . S
U286 C290 2.847 . S
U286 C303 2.882 . S
U286 O304 2.441 . S
U286 O305 2.420 . S
U286 O306 2.455 . S
U286 O307 2.449 . S
O287 U286 2.454 . S
O287 C289 1.353 . S
O288 U286 2.458 . S
O288 C289 1.286 . S
C289 U286 2.984 . S
C289 O287 1.353 . S
C289 O288 1.286 . S
C289 C291 1.363 . S
C290 C280 1.465 . S
C290 U286 2.847 . S
C290 O304 1.249 . S
C290 O305 1.202 . S
C291 C289 1.363 . S
C291 C293 1.408 . S
C291 C296 1.342 . S
C292 C293 1.310 . S
C292 C295 1.461 . S
C292 H312 0.932 . S
C293 C291 1.408 . S
C293 C292 1.310 . S
C293 H313 0.930 . S
C294 C295 1.474 . S
C294 C296 1.285 . S
C294 H314 0.929 . S
C295 C292 1.461 . S
C295 C294 1.474 . S
C296 C291 1.342 . S
C296 C294 1.285 . S
C296 H315 0.930 . S
C297 C300 1.424 . S
C297 C302 1.245 . S
C297 C303 1.428 . S
C298 C301 1.260 . S
C298 C302 1.477 . S
C298 H316 0.932 . S
C299 C300 1.384 . S
C299 C301 1.479 . S
C299 H317 0.929 . S
C300 C297 1.424 . S
C300 C299 1.384 . S
C300 H318 0.928 . S
C301 C298 1.260 . S
C301 C299 1.479 . S
C302 C297 1.245 . S
C302 C298 1.477 . S
C302 H319 0.932 . S
C303 U286 2.882 . S
C303 C297 1.428 . S
C303 O306 1.301 . S
C303 O307 1.282 . S
O304 U286 2.441 . S
O304 C290 1.249 . S
O305 U286 2.420 . S
O305 C290 1.202 . S
O306 U286 2.455 . S
O306 C303 1.301 . S
O307 U286 2.449 . S
O307 C303 1.282 . S
H308 C281 0.931 . S
H309 C283 0.929 . S
H310 C284 0.930 . S
H311 C285 0.931 1_554 S
H312 C292 0.932 . S
H313 C293 0.930 . S
H314 C294 0.929 . S
H315 C296 0.930 . S
H316 C298 0.932 . S
H317 C299 0.929 . S
H318 C300 0.928 . S
H319 C302 0.932 . S
O320 Zn321 1.953 . S
O320 C336 1.232 . S
Zn321 O320 1.953 . S
Zn321 O322 1.950 . S
Zn321 O328 1.919 1_565 S
Zn321 O333 1.924 . S
O322 Zn321 1.950 . S
O322 Zn323 1.901 1_565 S
O322 Zn324 1.953 . S
O322 Zn325 1.963 . S
Zn323 O322 1.901 1_545 S
Zn323 O326 1.933 1_455 S
Zn323 O329 1.941 . S
Zn323 O330 1.965 . S
Zn324 O322 1.953 . S
Zn324 O331 1.938 1_565 S
Zn324 O332 1.906 . S
Zn324 O342 1.953 . S
Zn325 O322 1.963 . S
Zn325 O327 1.932 1_455 S
Zn325 O334 1.977 1_455 S
Zn325 O335 1.910 . S
O326 Zn323 1.933 1_655 S
O326 C337 1.226 . S
O327 Zn325 1.932 1_655 S
O327 C337 1.307 1_565 S
O328 Zn321 1.919 1_545 S
O328 C339 1.253 . S
O329 Zn323 1.941 . S
O329 C339 1.283 . S
O330 Zn323 1.965 . S
O330 C338 1.303 . S
O331 Zn324 1.938 1_545 S
O331 C338 1.247 . S
O332 Zn324 1.906 . S
O332 C340 1.304 . S
O333 Zn321 1.924 . S
O333 C341 1.311 . S
O334 Zn325 1.977 1_655 S
O334 C340 1.272 1_655 S
O335 Zn325 1.910 . S
O335 C341 1.231 . S
C336 O320 1.232 . S
C336 O342 1.298 . S
C337 O326 1.226 . S
C337 O327 1.307 1_545 S
C338 O330 1.303 . S
C338 O331 1.247 . S
C339 O328 1.253 . S
C339 O329 1.283 . S
C340 O332 1.304 . S
C340 O334 1.272 1_455 S
C341 O333 1.311 . S
C341 O335 1.231 . S
O342 Zn324 1.953 . S
O342 C336 1.298 . S
O343 Zn344 1.953 . S
O343 C359 1.225 . S
Zn344 O343 1.953 . S
Zn344 O345 1.949 . S
Zn344 O351 1.919 . S
Zn344 O356 1.924 . S
O345 Zn344 1.949 . S
O345 Zn346 1.923 1_545 S
O345 Zn347 1.950 . S
O345 Zn348 1.945 1_545 S
Zn346 O345 1.923 1_565 S
Zn346 O349 1.933 . S
Zn346 O352 1.941 . S
Zn346 O353 1.965 . S
Zn347 O345 1.950 . S
Zn347 O354 1.938 . S
Zn347 O355 1.893 1_545 S
Zn347 O365 1.953 . S
Zn348 O345 1.945 1_565 S
Zn348 O350 1.932 . S
Zn348 O357 1.977 . S
Zn348 O358 1.910 1_565 S
O349 Zn346 1.933 . S
O349 C360 1.226 . S
O350 Zn348 1.932 . S
O350 C360 1.307 . S
O351 Zn344 1.919 . S
O351 C362 1.253 . S
O352 Zn346 1.941 . S
O352 C362 1.283 1_565 S
O353 Zn346 1.965 . S
O353 C361 1.303 . S
O354 Zn347 1.938 . S
O354 C361 1.247 1_545 S
O355 Zn347 1.893 1_565 S
O355 C363 1.323 . S
O356 Zn344 1.924 . S
O356 C364 1.311 . S
O357 Zn348 1.977 . S
O357 C363 1.272 . S
O358 Zn348 1.910 1_545 S
O358 C364 1.231 . S
C359 O343 1.225 . S
C359 O365 1.298 . S
C360 O349 1.226 . S
C360 O350 1.307 . S
C361 O353 1.303 . S
C361 O354 1.247 1_565 S
C362 O351 1.253 . S
C362 O352 1.283 1_545 S
C363 O355 1.323 . S
C363 O357 1.272 . S
C364 O356 1.311 . S
C364 O358 1.231 . S
O365 Zn347 1.953 . S
O365 C359 1.298 . S
O366 Zn367 1.953 . S
O366 C382 1.225 . S
Zn367 O366 1.953 . S
Zn367 O368 1.949 . S
Zn367 O374 1.919 . S
Zn367 O379 1.924 . S
O368 Zn367 1.949 . S
O368 Zn369 1.923 . S
O368 Zn370 1.950 . S
O368 Zn371 1.945 . S
Zn369 O368 1.923 . S
Zn369 O372 1.933 . S
Zn369 O375 1.941 . S
Zn369 O376 1.965 . S
Zn370 O368 1.950 . S
Zn370 O377 1.938 . S
Zn370 O378 1.906 . S
Zn370 O388 1.953 . S
Zn371 O368 1.945 . S
Zn371 O373 1.932 . S
Zn371 O380 1.977 . S
Zn371 O381 1.910 . S
O372 Zn369 1.933 . S
O372 C383 1.226 . S
O373 Zn371 1.932 . S
O373 C383 1.307 . S
O374 Zn367 1.919 . S
O374 C385 1.253 . S
O375 Zn369 1.941 . S
O375 C385 1.283 . S
O376 Zn369 1.965 . S
O376 C384 1.303 . S
O377 Zn370 1.938 . S
O377 C384 1.247 . S
O378 Zn370 1.906 . S
O378 C386 1.304 . S
O379 Zn367 1.924 . S
O379 C387 1.311 . S
O380 Zn371 1.977 . S
O380 C386 1.272 . S
O381 Zn371 1.910 . S
O381 C387 1.231 . S
C382 O366 1.225 . S
C382 O388 1.298 . S
C383 O372 1.226 . S
C383 O373 1.307 . S
C384 O376 1.303 . S
C384 O377 1.247 . S
C385 O374 1.253 . S
C385 O375 1.283 . S
C386 O378 1.304 . S
C386 O380 1.272 . S
C387 O379 1.311 . S
C387 O381 1.231 . S
O388 Zn370 1.953 . S
O388 C382 1.298 . S
O389 Zn390 1.953 1_655 S
O389 C405 1.225 . S
Zn390 O389 1.953 1_455 S
Zn390 O391 1.949 . S
Zn390 O397 1.919 . S
Zn390 O402 1.924 . S
O391 Zn390 1.949 . S
O391 Zn392 1.923 . S
O391 Zn393 1.950 1_455 S
O391 Zn394 1.945 . S
Zn392 O391 1.923 . S
Zn392 O395 1.933 . S
Zn392 O398 1.941 1_455 S
Zn392 O399 1.965 1_455 S
Zn393 O391 1.950 1_655 S
Zn393 O400 1.938 . S
Zn393 O401 1.906 1_655 S
Zn393 O411 1.953 . S
Zn394 O391 1.945 . S
Zn394 O396 1.932 . S
Zn394 O403 1.977 . S
Zn394 O404 1.910 . S
O395 Zn392 1.933 . S
O395 C406 1.226 . S
O396 Zn394 1.932 . S
O396 C406 1.307 . S
O397 Zn390 1.919 . S
O397 C408 1.253 . S
O398 Zn392 1.941 1_655 S
O398 C408 1.283 1_655 S
O399 Zn392 1.965 1_655 S
O399 C407 1.303 . S
O400 Zn393 1.938 . S
O400 C407 1.247 . S
O401 Zn393 1.906 1_455 S
O401 C409 1.304 . S
O402 Zn390 1.924 . S
O402 C410 1.311 . S
O403 Zn394 1.977 . S
O403 C409 1.272 . S
O404 Zn394 1.910 . S
O404 C410 1.231 . S
C405 O389 1.225 . S
C405 O411 1.298 . S
C406 O395 1.226 . S
C406 O396 1.307 . S
C407 O399 1.303 . S
C407 O400 1.247 . S
C408 O397 1.253 . S
C408 O398 1.283 1_455 S
C409 O401 1.304 . S
C409 O403 1.272 . S
C410 O402 1.311 . S
C410 O404 1.231 . S
O411 Zn393 1.953 . S
O411 C405 1.298 . S
C412 C413 1.387 . S
C412 H416 0.950 . S
C412 C421 1.390 . S
C413 C412 1.387 . S
C413 C415 1.387 1_565 S
H414 C421 0.950 . S
C415 C413 1.387 1_545 S
C415 C417 1.390 . S
C415 H419 0.950 . S
H416 C412 0.950 . S
C417 C415 1.390 . S
C417 C418 1.387 1_545 S
C417 H420 0.950 . S
C418 C417 1.387 1_565 S
C418 C421 1.387 . S
H419 C415 0.950 . S
H420 C417 0.950 . S
C421 C412 1.390 . S
C421 H414 0.950 . S
C421 C418 1.387 . S
C422 C423 1.387 . S
C422 H426 0.950 . S
C422 C431 1.390 . S
C423 C422 1.387 . S
C423 C425 1.387 . S
H424 C431 0.950 . S
C425 C423 1.387 . S
C425 C427 1.390 . S
C425 H429 0.950 . S
H426 C422 0.950 . S
C427 C425 1.390 . S
C427 C428 1.387 . S
C427 H430 0.950 . S
C428 C427 1.387 . S
C428 C431 1.387 . S
H429 C425 0.950 . S
H430 C427 0.950 . S
C431 C422 1.390 . S
C431 H424 0.950 . S
C431 C428 1.387 . S
C432 C433 1.387 . S
C432 H436 0.950 . S
C432 C441 1.390 . S
C433 C432 1.387 . S
C433 C435 1.387 . S
H434 C441 0.950 . S
C435 C433 1.387 . S
C435 C437 1.390 . S
C435 H439 0.950 . S
H436 C432 0.950 . S
C437 C435 1.390 . S
C437 C438 1.387 . S
C437 H440 0.950 . S
C438 C437 1.387 . S
C438 C441 1.387 . S
H439 C435 0.950 . S
H440 C437 0.950 . S
C441 C432 1.390 . S
C441 H434 0.950 . S
C441 C438 1.387 . S
C442 C443 1.387 . S
C442 H446 0.950 . S
C442 C451 1.390 . S
C443 C442 1.387 . S
C443 C445 1.387 . S
H444 C451 0.950 . S
C445 C443 1.387 . S
C445 C447 1.390 . S
C445 H449 0.950 . S
H446 C442 0.950 . S
C447 C445 1.390 . S
C447 C448 1.387 . S
C447 H450 0.950 . S
C448 C447 1.387 . S
C448 C451 1.387 . S
H449 C445 0.950 . S
H450 C447 0.950 . S
C451 C442 1.390 . S
C451 H444 0.950 . S
C451 C448 1.387 . S
C452 C453 1.387 1_565 S
C452 H456 0.950 . S
C452 C461 1.390 . S
C453 C452 1.387 1_545 S
C453 C455 1.387 . S
H454 C461 0.950 . S
C455 C453 1.387 . S
C455 C457 1.390 . S
C455 H459 0.950 . S
H456 C452 0.950 . S
C457 C455 1.390 . S
C457 C458 1.387 . S
C457 H460 0.950 . S
C458 C457 1.387 . S
C458 C461 1.387 1_545 S
H459 C455 0.950 . S
H460 C457 0.950 . S
C461 C452 1.390 . S
C461 H454 0.950 . S
C461 C458 1.387 1_565 S
C462 C463 1.387 . S
C462 H466 0.950 . S
C462 C471 1.390 . S
C463 C462 1.387 . S
C463 C465 1.387 . S
H464 C471 0.950 . S
C465 C463 1.387 . S
C465 C467 1.390 . S
C465 H469 0.950 . S
H466 C462 0.950 . S
C467 C465 1.390 . S
C467 C468 1.387 . S
C467 H470 0.950 . S
C468 C467 1.387 . S
C468 C471 1.387 . S
H469 C465 0.950 . S
H470 C467 0.950 . S
C471 C462 1.390 . S
C471 H464 0.950 . S
C471 C468 1.387 . S
C472 C473 1.387 . S
C472 H476 0.950 . S
C472 C481 1.390 . S
C473 C472 1.387 . S
C473 C475 1.387 . S
H474 C481 0.950 . S
C475 C473 1.387 . S
C475 C477 1.390 . S
C475 H479 0.950 . S
H476 C472 0.950 . S
C477 C475 1.390 . S
C477 C478 1.387 . S
C477 H480 0.950 . S
C478 C477 1.387 . S
C478 C481 1.387 . S
H479 C475 0.950 . S
H480 C477 0.950 . S
C481 C472 1.390 . S
C481 H474 0.950 . S
C481 C478 1.387 . S
C482 C483 1.387 . S
C482 H486 0.950 . S
C482 C491 1.390 . S
C483 C482 1.387 . S
C483 C485 1.387 1_655 S
H484 C491 0.950 . S
C485 C483 1.387 1_455 S
C485 C487 1.390 . S
C485 H489 0.950 . S
H486 C482 0.950 . S
C487 C485 1.390 . S
C487 C488 1.387 . S
C487 H490 0.950 . S
C488 C487 1.387 . S
C488 C491 1.387 1_455 S
H489 C485 0.950 . S
H490 C487 0.950 . S
C491 C482 1.390 . S
C491 H484 0.950 . S
C491 C488 1.387 1_655 S
C492 C493 1.387 . S
C492 H496 0.950 . S
C492 C501 1.390 . S
C493 C492 1.387 . S
C493 C495 1.387 . S
H494 C501 0.950 . S
C495 C493 1.387 . S
C495 C497 1.390 . S
C495 H499 0.950 . S
H496 C492 0.950 . S
C497 C495 1.390 . S
C497 C498 1.387 . S
C497 H500 0.950 . S
C498 C497 1.387 . S
C498 C501 1.387 . S
H499 C495 0.950 . S
H500 C497 0.950 . S
C501 C492 1.390 . S
C501 H494 0.950 . S
C501 C498 1.387 . S
C502 C503 1.387 1_565 S
C502 H506 0.950 . S
C502 C511 1.390 . S
C503 C502 1.387 1_545 S
C503 C505 1.387 . S
H504 C511 0.950 . S
C505 C503 1.387 . S
C505 C507 1.390 . S
C505 H509 0.950 . S
H506 C502 0.950 . S
C507 C505 1.390 . S
C507 C508 1.387 1_545 S
C507 H510 0.950 . S
C508 C507 1.387 1_565 S
C508 C511 1.387 . S
H509 C505 0.950 . S
H510 C507 0.950 . S
C511 C502 1.390 . S
C511 H504 0.950 . S
C511 C508 1.387 . S
C512 C513 1.387 . S
C512 H516 0.950 . S
C512 C521 1.390 . S
C513 C512 1.387 . S
C513 C515 1.387 . S
H514 C521 0.950 . S
C515 C513 1.387 . S
C515 C517 1.390 . S
C515 H519 0.950 . S
H516 C512 0.950 . S
C517 C515 1.390 . S
C517 C518 1.387 . S
C517 H520 0.950 . S
C518 C517 1.387 . S
C518 C521 1.387 . S
H519 C515 0.950 . S
H520 C517 0.950 . S
C521 C512 1.390 . S
C521 H514 0.950 . S
C521 C518 1.387 . S
C522 C523 1.387 . S
C522 H526 0.950 . S
C522 C531 1.390 . S
C523 C522 1.387 . S
C523 C525 1.387 . S
H524 C531 0.950 . S
C525 C523 1.387 . S
C525 C527 1.390 . S
C525 H529 0.950 . S
H526 C522 0.950 . S
C527 C525 1.390 . S
C527 C528 1.387 . S
C527 H530 0.950 . S
C528 C527 1.387 . S
C528 C531 1.387 . S
H529 C525 0.950 . S
H530 C527 0.950 . S
C531 C522 1.390 . S
C531 H524 0.950 . S
C531 C528 1.387 . S
C532 C533 1.379 1_455 S
C532 H536 0.950 1_455 S
C532 C541 1.390 . S
C533 C532 1.379 1_655 S
C533 C535 1.369 1_655 S
H534 C541 0.950 . S
C535 C533 1.369 1_455 S
C535 C537 1.390 . S
C535 H539 0.950 . S
H536 C532 0.950 1_655 S
C537 C535 1.390 . S
C537 C538 1.387 . S
C537 H540 0.950 . S
C538 C537 1.387 . S
C538 C541 1.387 . S
H539 C535 0.950 . S
H540 C537 0.950 . S
C541 C532 1.390 . S
C541 H534 0.950 . S
C541 C538 1.387 . S
C542 C543 1.402 . S
C542 H546 0.950 . S
C542 C551 1.390 . S
C543 C542 1.402 . S
C543 C545 1.402 . S
H544 C551 0.950 . S
C545 C543 1.402 . S
C545 C547 1.390 . S
C545 H549 0.950 . S
H546 C542 0.950 . S
C547 C545 1.390 . S
C547 C548 1.387 . S
C547 H550 0.950 . S
C548 C547 1.387 . S
C548 C551 1.387 . S
H549 C545 0.950 . S
H550 C547 0.950 . S
C551 C542 1.390 . S
C551 H544 0.950 . S
C551 C548 1.387 . S
C552 C553 1.387 . S
C552 H556 0.950 . S
C552 C561 1.390 . S
C553 C552 1.387 . S
C553 C555 1.387 . S
H554 C561 0.950 . S
C555 C553 1.387 . S
C555 C557 1.390 . S
C555 H559 0.950 . S
H556 C552 0.950 . S
C557 C555 1.390 . S
C557 C558 1.387 . S
C557 H560 0.950 . S
C558 C557 1.387 . S
C558 C561 1.387 . S
H559 C555 0.950 . S
H560 C557 0.950 . S
C561 C552 1.390 . S
C561 H554 0.950 . S
C561 C558 1.387 . S
C562 C563 1.387 . S
C562 H566 0.950 . S
C562 C571 1.390 . S
C563 C562 1.387 . S
C563 C565 1.387 . S
H564 C571 0.950 . S
C565 C563 1.387 . S
C565 C567 1.390 . S
C565 H569 0.950 . S
H566 C562 0.950 . S
C567 C565 1.390 . S
C567 C568 1.387 . S
C567 H570 0.950 . S
C568 C567 1.387 . S
C568 C571 1.387 . S
H569 C565 0.950 . S
H570 C567 0.950 . S
C571 C562 1.390 . S
C571 H564 0.950 . S
C571 C568 1.387 . S
C572 C573 1.387 . S
C572 H576 0.950 1_556 S
C572 C581 1.390 . S
C573 C572 1.387 . S
C573 C575 1.387 . S
H574 C581 0.950 . S
C575 C573 1.387 . S
C575 C577 1.390 . S
C575 H579 0.950 . S
H576 C572 0.950 1_554 S
C577 C575 1.390 . S
C577 C578 1.387 . S
C577 H580 0.950 . S
C578 C577 1.387 . S
C578 C581 1.387 . S
H579 C575 0.950 . S
H580 C577 0.950 . S
C581 C572 1.390 . S
C581 H574 0.950 . S
C581 C578 1.387 . S
C582 C583 1.390 1_565 S
C582 H586 0.950 . S
C582 C591 1.390 . S
C583 C582 1.390 1_545 S
C583 C585 1.385 . S
H584 C591 0.950 . S
C585 C583 1.385 . S
C585 C587 1.390 . S
C585 H589 0.950 . S
H586 C582 0.950 . S
C587 C585 1.390 . S
C587 C588 1.375 1_545 S
C587 H590 0.950 . S
C588 C587 1.375 1_565 S
C588 C591 1.399 . S
H589 C585 0.950 . S
H590 C587 0.950 . S
C591 C582 1.390 . S
C591 H584 0.950 . S
C591 C588 1.399 . S
C592 C593 1.387 . S
C592 H596 0.950 . S
C592 C601 1.390 . S
C593 C592 1.387 . S
C593 C595 1.387 . S
H594 C601 0.950 . S
C595 C593 1.387 . S
C595 C597 1.390 . S
C595 H599 0.950 . S
H596 C592 0.950 . S
C597 C595 1.390 . S
C597 C598 1.387 . S
C597 H600 0.950 . S
C598 C597 1.387 . S
C598 C601 1.387 . S
H599 C595 0.950 . S
H600 C597 0.950 . S
C601 C592 1.390 . S
C601 H594 0.950 . S
C601 C598 1.387 . S
C602 C603 1.387 . S
C602 H606 0.950 . S
C602 C611 1.390 . S
C603 C602 1.387 . S
C603 C605 1.387 . S
H604 C611 0.950 . S
C605 C603 1.387 . S
C605 C607 1.390 . S
C605 H609 0.950 . S
H606 C602 0.950 . S
C607 C605 1.390 . S
C607 C608 1.387 . S
C607 H610 0.950 . S
C608 C607 1.387 . S
C608 C611 1.387 . S
H609 C605 0.950 . S
H610 C607 0.950 . S
C611 C602 1.390 . S
C611 H604 0.950 . S
C611 C608 1.387 . S
C612 C613 1.387 1_455 S
C612 H616 0.950 . S
C612 C621 1.390 . S
C613 C612 1.387 1_655 S
C613 C615 1.387 . S
H614 C621 0.950 . S
C615 C613 1.387 . S
C615 C617 1.390 . S
C615 H619 0.950 . S
H616 C612 0.950 . S
C617 C615 1.390 . S
C617 C618 1.387 . S
C617 H620 0.950 . S
C618 C617 1.387 . S
C618 C621 1.387 1_655 S
H619 C615 0.950 . S
H620 C617 0.950 . S
C621 C612 1.390 . S
C621 H614 0.950 . S
C621 C618 1.387 1_455 S
C622 C623 1.387 . S
C622 H626 0.950 1_565 S
C622 C631 1.390 . S
C623 C622 1.387 . S
C623 C625 1.387 . S
H624 C631 0.950 . S
C625 C623 1.387 . S
C625 C627 1.390 . S
C625 H629 0.950 . S
H626 C622 0.950 1_545 S
C627 C625 1.390 . S
C627 C628 1.387 . S
C627 H630 0.950 . S
C628 C627 1.387 . S
C628 C631 1.387 . S
H629 C625 0.950 . S
H630 C627 0.950 . S
C631 C622 1.390 . S
C631 H624 0.950 . S
C631 C628 1.387 . S
C632 C633 1.387 . S
C632 H636 0.950 . S
C632 C641 1.390 . S
C633 C632 1.387 . S
C633 C635 1.387 . S
H634 C641 0.950 . S
C635 C633 1.387 . S
C635 C637 1.390 . S
C635 H639 0.950 . S
H636 C632 0.950 . S
C637 C635 1.390 . S
C637 C638 1.387 . S
C637 H640 0.950 . S
C638 C637 1.387 . S
C638 C641 1.387 . S
H639 C635 0.950 . S
H640 C637 0.950 . S
C641 C632 1.390 . S
C641 H634 0.950 . S
C641 C638 1.387 . S
C642 C643 1.387 . S
C642 H646 0.950 . S
C642 C651 1.390 . S
C643 C642 1.387 . S
C643 C645 1.387 . S
H644 C651 0.950 . S
C645 C643 1.387 . S
C645 C647 1.390 . S
C645 H649 0.950 . S
H646 C642 0.950 . S
C647 C645 1.390 . S
C647 C648 1.387 . S
C647 H650 0.950 . S
C648 C647 1.387 . S
C648 C651 1.387 . S
H649 C645 0.950 . S
H650 C647 0.950 . S
C651 C642 1.390 . S
C651 H644 0.950 . S
C651 C648 1.387 . S
C413 C255 1.896 . S
C418 C336 1.902 . S
C428 C359 2.100 . S
C423 C295 2.085 . S
C438 C382 1.928 . S
C433 C175 1.903 . S
C448 C409 1.794 . S
C443 C215 1.913 . S
C458 C337 1.753 . S
C453 C95 1.729 1_545 S
C463 C135 1.819 . S
C468 C360 1.869 . S
C473 C15 1.665 . S
C478 C383 1.690 . S
C483 C55 1.896 1_556 S
C488 C408 1.935 . S
C498 C338 0.938 . S
C493 C221 0.864 . S
C508 C361 0.498 . S
C503 C261 0.662 . S
C518 C384 0.696 . S
C513 C301 0.717 . S
C523 C181 0.730 . S
C528 C410 0.746 . S
C533 C61 0.817 . S
C538 C341 0.809 . S
C548 C364 0.771 . S
C543 C101 0.781 . S
C558 C387 0.874 . S
C553 C141 0.879 . S
C563 C21 0.578 . S
C568 C407 0.402 . S
C573 C202 2.226 1_556 S
C578 C339 2.145 . S
C583 C242 2.126 . S
C588 C362 2.127 1_565 S
C598 C385 2.192 . S
C593 C282 2.216 . S
C608 C406 2.022 . S
C603 C162 1.874 . S
C613 C42 2.271 . S
C618 C340 2.212 1_655 S
C628 C363 2.026 . S
C623 C82 2.115 1_565 S
C638 C386 2.052 . S
C633 C122 2.088 . S
C643 C2 2.241 . S
C648 C405 2.310 . S
