# Generated by pormake.
# Topology zzz, (3,6)-cn, num edge types: 1
# Building blocks:
#     Node 0, Type 0, BuildingBlock: WUSLED_clean_sbu_0, # of connection points: 3
#     Node 1, Type 0, BuildingBlock: WUSLED_clean_sbu_0, # of connection points: 3
#     Node 2, Type 0, BuildingBlock: WUSLED_clean_sbu_0, # of connection points: 3
#     Node 3, Type 0, BuildingBlock: WUSLED_clean_sbu_0, # of connection points: 3
#     Node 4, Type 0, BuildingBlock: WUSLED_clean_sbu_0, # of connection points: 3
#     Node 5, Type 0, BuildingBlock: WUSLED_clean_sbu_0, # of connection points: 3
#     Node 6, Type 0, BuildingBlock: WUSLED_clean_sbu_0, # of connection points: 3
#     Node 7, Type 0, BuildingBlock: WUSLED_clean_sbu_0, # of connection points: 3
#     Node 8, Type 1, BuildingBlock: CIFDUS_clean_sbu_1, # of connection points: 6
#     Node 9, Type 1, BuildingBlock: CIFDUS_clean_sbu_1, # of connection points: 6
#     Node 10, Type 1, BuildingBlock: CIFDUS_clean_sbu_1, # of connection points: 6
#     Node 11, Type 1, BuildingBlock: CIFDUS_clean_sbu_1, # of connection points: 6
#     Edge 12, Type (0, 1), BuildingBlock: ZUJKAS_clean_linker_0, # of connection points: 2
#     Edge 13, Type (0, 1), BuildingBlock: ZUJKAS_clean_linker_0, # of connection points: 2
#     Edge 14, Type (0, 1), BuildingBlock: ZUJKAS_clean_linker_0, # of connection points: 2
#     Edge 15, Type (0, 1), BuildingBlock: ZUJKAS_clean_linker_0, # of connection points: 2
#     Edge 16, Type (0, 1), BuildingBlock: ZUJKAS_clean_linker_0, # of connection points: 2
#     Edge 17, Type (0, 1), BuildingBlock: ZUJKAS_clean_linker_0, # of connection points: 2
#     Edge 18, Type (0, 1), BuildingBlock: ZUJKAS_clean_linker_0, # of connection points: 2
#     Edge 19, Type (0, 1), BuildingBlock: ZUJKAS_clean_linker_0, # of connection points: 2
#     Edge 20, Type (0, 1), BuildingBlock: ZUJKAS_clean_linker_0, # of connection points: 2
#     Edge 21, Type (0, 1), BuildingBlock: ZUJKAS_clean_linker_0, # of connection points: 2
#     Edge 22, Type (0, 1), BuildingBlock: ZUJKAS_clean_linker_0, # of connection points: 2
#     Edge 23, Type (0, 1), BuildingBlock: ZUJKAS_clean_linker_0, # of connection points: 2
#     Edge 24, Type (0, 1), BuildingBlock: ZUJKAS_clean_linker_0, # of connection points: 2
#     Edge 25, Type (0, 1), BuildingBlock: ZUJKAS_clean_linker_0, # of connection points: 2
#     Edge 26, Type (0, 1), BuildingBlock: ZUJKAS_clean_linker_0, # of connection points: 2
#     Edge 27, Type (0, 1), BuildingBlock: ZUJKAS_clean_linker_0, # of connection points: 2
#     Edge 28, Type (0, 1), BuildingBlock: ZUJKAS_clean_linker_0, # of connection points: 2
#     Edge 29, Type (0, 1), BuildingBlock: ZUJKAS_clean_linker_0, # of connection points: 2
#     Edge 30, Type (0, 1), BuildingBlock: ZUJKAS_clean_linker_0, # of connection points: 2
#     Edge 31, Type (0, 1), BuildingBlock: ZUJKAS_clean_linker_0, # of connection points: 2
#     Edge 32, Type (0, 1), BuildingBlock: ZUJKAS_clean_linker_0, # of connection points: 2
#     Edge 33, Type (0, 1), BuildingBlock: ZUJKAS_clean_linker_0, # of connection points: 2
#     Edge 34, Type (0, 1), BuildingBlock: ZUJKAS_clean_linker_0, # of connection points: 2
#     Edge 35, Type (0, 1), BuildingBlock: ZUJKAS_clean_linker_0, # of connection points: 2
# Relax obj value: 0.292
# Max RMSD: 0.217
# Mean RMSD: 0.200
data_MOF--net-zzz--node1-WUSLED_clean_sbu_0--node2-CIFDUS_clean_sbu_1--edge1-ZUJKAS_clean_linker_0
_symmetry_space_group_name_H-M    P1
_symmetry_Int_Tables_number       1
_symmetry_cell_setting            triclinic
loop_
_symmetry_equiv_pos_as_xyz
'x, y, z'
_cell_length_a     71.937585
_cell_length_b     76.475614
_cell_length_c     27.630274
_cell_angle_alpha  89.888825
_cell_angle_beta   89.879936
_cell_angle_gamma 88.423314
loop_
_atom_site_label
_atom_site_type_symbol
_atom_site_fract_x
_atom_site_fract_y
_atom_site_fract_z
_atom_type_partial_charge
C0 C 0.80084 0.59027 0.27542 0.0
C1 C 0.81821 0.5842 0.25802 0.0
C2 C 0.83154 0.58547 0.33962 0.0
C3 C 0.83333 0.58176 0.2897 0.0
C4 C 0.81423 0.59229 0.35617 0.0
C5 C 0.79911 0.59453 0.32457 0.0
U6 U 0.77682 0.59441 0.15078 0.0
O7 O 0.75337 0.57939 0.12335 0.0
O8 O 0.75039 0.60807 0.13 0.0
C9 C 0.74233 0.59331 0.11951 0.0
C10 C 0.78414 0.59122 0.24392 0.0
C11 C 0.72656 0.59304 0.085 0.0
C12 C 0.69297 0.5912 0.07495 0.0
C13 C 0.70852 0.59342 0.10446 0.0
C14 C 0.71312 0.58853 0.00502 0.0
C15 C 0.69503 0.58841 0.02497 0.0
C16 C 0.72879 0.59088 0.03478 0.0
C17 C 0.81653 0.59995 0.05047 0.0
C18 C 0.81965 0.60734 0.96528 0.0
C19 C 0.84694 0.59977 0.01309 0.0
C20 C 0.83579 0.59733 0.05343 0.0
C21 C 0.83909 0.6049 0.96857 0.0
C22 C 0.80839 0.60502 0.00631 0.0
C23 C 0.80599 0.59781 0.09535 0.0
O24 O 0.78028 0.60633 0.22299 0.0
O25 O 0.78192 0.57788 0.21485 0.0
O26 O 0.79906 0.5825 0.10556 0.0
O27 O 0.79634 0.61127 0.11254 0.0
H28 H 0.81995 0.58087 0.22015 0.0
H29 H 0.84622 0.57636 0.2751 0.0
H30 H 0.81221 0.59582 0.39375 0.0
H31 H 0.78589 0.59934 0.33882 0.0
H32 H 0.67935 0.59095 0.09167 0.0
H33 H 0.70645 0.59487 0.14313 0.0
H34 H 0.71516 0.58658 0.96654 0.0
H35 H 0.74256 0.59056 0.01886 0.0
H36 H 0.81324 0.61096 0.93114 0.0
H37 H 0.86175 0.59708 0.01655 0.0
H38 H 0.84228 0.59332 0.08721 0.0
H39 H 0.79347 0.60709 0.00359 0.0
C40 C 0.01256 0.78951 0.29511 0.0
C41 C 0.01109 0.80665 0.27679 0.0
C42 C 0.00995 0.81853 0.35858 0.0
C43 C 0.00967 0.82098 0.30815 0.0
C44 C 0.0119 0.80138 0.37691 0.0
C45 C 0.01306 0.78698 0.34541 0.0
U46 U 0.01703 0.77418 0.16719 0.0
O47 O 0.03001 0.75149 0.13 0.0
O48 O 0.99991 0.75718 0.1217 0.0
C49 C 0.01439 0.74743 0.10863 0.0
C50 C 0.01299 0.77445 0.26148 0.0
C51 C 0.01175 0.72924 0.09309 0.0
C52 C 0.01248 0.69772 0.10609 0.0
C53 C 0.01384 0.71481 0.12433 0.0
C54 C 1.00694 0.70947 0.02574 0.0
C55 C 0.00922 0.69499 0.0565 0.0
C56 C 0.00813 0.72641 0.0439 0.0
C57 C 0.02299 0.80982 0.07422 0.0
C58 C 0.01083 0.807 0.99276 0.0
C59 C 0.02542 0.83376 0.01768 0.0
C60 C 0.02906 0.82657 0.06315 0.0
C61 C 0.01555 0.82428 0.98318 0.0
C62 C 0.0147 0.79971 0.03813 0.0
C63 C 0.02253 0.8042 0.1248 0.0
O64 O 0.99889 0.77417 0.2313 0.0
O65 O 0.02907 0.77101 0.24023 0.0
O66 O 0.03627 0.79382 0.13926 0.0
O67 O 1.00613 0.79918 0.13933 0.0
H68 H 0.01081 0.80894 0.23809 0.0
H69 H 0.00843 0.83403 0.29295 0.0
H70 H 0.01211 0.7991 0.4156 0.0
H71 H 0.01416 0.77388 0.36031 0.0
H72 H 0.01428 0.68667 0.13036 0.0
H73 H 0.01675 0.71675 0.16235 0.0
H74 H 1.00442 0.70764 0.98745 0.0
H75 H 1.00659 0.73737 0.01915 0.0
H76 H 1.00309 0.79963 0.96652 0.0
H77 H 0.02901 0.84721 0.01071 0.0
H78 H 0.03544 0.83452 0.09062 0.0
H79 H 0.00999 0.78669 0.04625 0.0
C80 C 0.717 0.92249 0.28258 0.0
C81 C 0.69854 0.92086 0.26689 0.0
C82 C 0.68696 0.92708 0.34855 0.0
C83 C 0.68366 0.92301 0.29967 0.0
C84 C 0.70547 0.92838 0.36415 0.0
C85 C 0.72031 0.92601 0.33159 0.0
U86 U 0.73739 0.91472 0.15543 0.0
O87 O 0.75703 0.93045 0.11343 0.0
O88 O 0.76461 0.90291 0.13229 0.0
C89 C 0.76942 0.91752 0.11105 0.0
C90 C 0.73287 0.92159 0.2482 0.0
C91 C 0.7868 0.91918 0.08258 0.0
C92 C 0.8206 0.92097 0.08029 0.0
C93 C 0.80407 0.91833 0.10607 0.0
C94 C 0.80295 0.92461 0.0064 0.0
C95 C 0.82032 0.92437 0.03011 0.0
C96 C 0.78638 0.92216 0.03241 0.0
C97 C 0.70204 0.90287 0.05651 0.0
C98 C 0.70358 0.91109 0.97183 0.0
C99 C 0.67634 0.89686 0.0031 0.0
C100 C 0.68463 0.89565 0.04862 0.0
C101 C 0.68532 0.90548 0.96509 0.0
C102 C 0.71192 0.90978 0.01737 0.0
C103 C 0.70785 0.90599 0.10649 0.0
O104 O 0.73772 0.906 0.23171 0.0
O105 O 0.73271 0.93366 0.21433 0.0
O106 O 0.71207 0.92222 0.116 0.0
O107 O 0.71927 0.89437 0.12637 0.0
H108 H 0.69563 0.91826 0.22916 0.0
H109 H 0.66955 0.9221 0.2865 0.0
H110 H 0.70845 0.93141 0.40158 0.0
H111 H 0.73441 0.9273 0.34453 0.0
H112 H 0.83363 0.92036 0.09985 0.0
H113 H 0.80476 0.916 0.14472 0.0
H114 H 0.80206 0.92725 0.96796 0.0
H115 H 0.77322 0.92276 0.0134 0.0
H116 H 0.71073 0.91781 0.94302 0.0
H117 H 0.66215 0.89267 0.99914 0.0
H118 H 0.67678 0.89038 0.07855 0.0
H119 H 0.72541 0.91541 0.02291 0.0
C120 C 0.49122 0.72121 0.3016 0.0
C121 C 0.48994 0.7042 0.28313 0.0
C122 C 0.49458 0.69196 0.36415 0.0
C123 C 0.49154 0.6897 0.31416 0.0
C124 C 0.49546 0.70909 0.38235 0.0
C125 C 0.49381 0.72354 0.35138 0.0
U126 U 0.48955 0.74287 0.17596 0.0
O127 O 0.5076 0.76373 0.14948 0.0
O128 O 0.47718 0.76832 0.15322 0.0
C129 C 0.49353 0.77488 0.14405 0.0
C130 C 0.49119 0.73662 0.26952 0.0
C131 C 0.49504 0.7894 0.10915 0.0
C132 C 0.50167 0.82012 0.09757 0.0
C133 C 0.50028 0.80556 0.12764 0.0
C134 C 0.49272 0.80264 0.02897 0.0
C135 C 0.49777 0.81901 0.04785 0.0
C136 C 0.49132 0.78792 0.05946 0.0
C137 C 0.48546 0.71074 0.06744 0.0
C138 C 0.50016 0.71061 0.98826 0.0
C139 C 0.47991 0.68716 0.01153 0.0
C140 C 0.47658 0.69523 0.05592 0.0
C141 C 0.49233 0.69443 0.97835 0.0
C142 C 0.49658 0.71886 0.03258 0.0
C143 C 0.48565 0.71609 0.11829 0.0
O144 O 0.50592 0.73781 0.24173 0.0
O145 O 0.47558 0.7405 0.24676 0.0
O146 O 0.47142 0.72556 0.13436 0.0
O147 O 0.50178 0.72097 0.13505 0.0
H148 H 0.48809 0.70214 0.24467 0.0
H149 H 0.49098 0.67671 0.29877 0.0
H150 H 0.4975 0.71136 0.42063 0.0
H151 H 0.49489 0.73657 0.36625 0.0
H152 H 0.50603 0.83227 0.11346 0.0
H153 H 0.50329 0.80696 0.16585 0.0
H154 H 0.48955 0.80127 0.9909 0.0
H155 H 0.48727 0.77552 0.04443 0.0
H156 H 0.50991 0.71624 0.96315 0.0
H157 H 0.47409 0.67446 0.0049 0.0
H158 H 0.46817 0.68867 0.08263 0.0
H159 H 0.50355 0.73085 0.041 0.0
C160 C 0.21408 0.41415 0.16242 0.0
C161 C 0.19592 0.40954 0.17531 0.0
C162 C 0.184 0.42094 0.09807 0.0
C163 C 0.18101 0.41279 0.14317 0.0
C164 C 0.20229 0.42506 0.08518 0.0
C165 C 0.2171 0.42166 0.11687 0.0
U166 U 0.23749 0.40774 0.28873 0.0
O167 O 0.26507 0.39566 0.30674 0.0
O168 O 0.25975 0.42394 0.31703 0.0
C169 C 0.2719 0.41082 0.31897 0.0
C170 C 0.23002 0.41256 0.19615 0.0
C171 C 0.28732 0.41171 0.35429 0.0
C172 C 0.32088 0.41279 0.36583 0.0
C173 C 0.30553 0.40924 0.33677 0.0
C174 C 0.30014 0.4207 0.43173 0.0
C175 C 0.31847 0.41889 0.41348 0.0
C176 C 0.28471 0.41722 0.40235 0.0
C177 C 0.19785 0.39943 0.38854 0.0
C178 C 0.19356 0.3966 0.47544 0.0
C179 C 0.16687 0.40032 0.42266 0.0
C180 C 0.17859 0.40057 0.38274 0.0
C181 C 0.1741 0.39869 0.46985 0.0
C182 C 0.2054 0.39708 0.43493 0.0
C183 C 0.20906 0.40215 0.34501 0.0
O184 O 0.23141 0.42534 0.22743 0.0
O185 O 0.23396 0.39711 0.21502 0.0
O186 O 0.21944 0.3893 0.32706 0.0
O187 O 0.21488 0.41792 0.33536 0.0
H188 H 0.19323 0.40382 0.21044 0.0
H189 H 0.16709 0.40951 0.15428 0.0
H190 H 0.20515 0.43112 0.05059 0.0
H191 H 0.23097 0.42531 0.10615 0.0
H192 H 0.33464 0.41146 0.35009 0.0
H193 H 0.3079 0.40528 0.29957 0.0
H194 H 0.29772 0.42509 0.46849 0.0
H195 H 0.2708 0.41931 0.41667 0.0
H196 H 0.19966 0.39519 0.51106 0.0
H197 H 0.15218 0.40255 0.41615 0.0
H198 H 0.17254 0.4025 0.34714 0.0
H199 H 0.22032 0.39615 0.43991 0.0
C200 C 0.01417 0.22028 0.14107 0.0
C201 C 0.01258 0.20328 0.15956 0.0
C202 C 0.01384 0.19139 0.07775 0.0
C203 C 0.01232 0.18894 0.1281 0.0
C204 C 0.01567 0.20844 0.05956 0.0
C205 C 0.01575 0.22276 0.09098 0.0
U206 U 0.01237 0.24112 0.26704 0.0
O207 O 0.02767 0.2639 0.29308 0.0
O208 O 0.99696 0.26483 0.29094 0.0
C209 C 0.01227 0.27323 0.30002 0.0
C210 C 0.01394 0.23558 0.17325 0.0
C211 C 0.01192 0.28706 0.33711 0.0
C212 C 0.01911 0.31716 0.35537 0.0
C213 C 0.02056 0.30265 0.3251 0.0
C214 C 1.00061 0.30066 0.41169 0.0
C215 C 0.00886 0.31656 0.39869 0.0
C216 C 1.00205 0.286 0.38092 0.0
C217 C 0.01032 0.20864 0.3757 0.0
C218 C 0.02466 0.20605 0.45511 0.0
C219 C 0.99901 0.18766 0.43371 0.0
C220 C 0.99785 0.19565 0.38851 0.0
C221 C 0.01282 0.19239 0.46656 0.0
C222 C 0.0233 0.21429 0.40994 0.0
C223 C 0.01112 0.21394 0.32463 0.0
O224 O 0.99833 0.2386 0.19689 0.0
O225 O 0.02876 0.23727 0.20035 0.0
O226 O 0.02675 0.22053 0.30913 0.0
O227 O 0.99613 0.22169 0.30657 0.0
H228 H 0.01145 0.20113 0.19822 0.0
H229 H 0.01111 0.17593 0.14311 0.0
H230 H 0.01671 0.21072 0.02096 0.0
H231 H 0.01694 0.2358 0.07613 0.0
H232 H 0.0261 0.3289 0.34457 0.0
H233 H 0.02816 0.30378 0.29137 0.0
H234 H 0.99264 0.29968 0.44482 0.0
H235 H 0.99519 0.27408 0.3908 0.0
H236 H 0.03554 0.20964 0.47993 0.0
H237 H 0.99007 0.17682 0.44158 0.0
H238 H 0.98794 0.19093 0.36243 0.0
H239 H 0.03307 0.22431 0.40081 0.0
C240 C 0.30176 0.09887 0.16051 0.0
C241 C 0.32004 0.0968 0.17794 0.0
C242 C 0.33178 0.09235 0.09552 0.0
C243 C 0.33488 0.09353 0.14578 0.0
C244 C 0.31354 0.09519 0.07826 0.0
C245 C 0.29872 0.09836 0.11041 0.0
U246 U 0.27818 0.10686 0.28506 0.0
O247 O 0.24935 0.11598 0.30216 0.0
O248 O 0.25902 0.08923 0.32209 0.0
C249 C 0.24509 0.10071 0.32049 0.0
C250 C 0.28556 0.09962 0.19369 0.0
C251 C 0.22915 0.09895 0.35407 0.0
C252 C 0.19605 0.09367 0.3625 0.0
C253 C 0.21147 0.09731 0.33368 0.0
C254 C 0.21553 0.09382 0.4337 0.0
C255 C 0.19776 0.09171 0.41299 0.0
C256 C 0.23111 0.09732 0.40448 0.0
C257 C 0.31071 0.12148 0.38898 0.0
C258 C 0.31188 0.10958 0.4702 0.0
C259 C 0.33713 0.127 0.44051 0.0
C260 C 0.32752 0.12983 0.39723 0.0
C261 C 0.33001 0.11563 0.47538 0.0
C262 C 0.30222 0.11249 0.42703 0.0
C263 C 0.30542 0.11813 0.33869 0.0
O264 O 0.28585 0.08791 0.22848 0.0
O265 O 0.27955 0.11514 0.20829 0.0
O266 O 0.29317 0.12879 0.31801 0.0
O267 O 0.30303 0.10157 0.32843 0.0
H268 H 0.32275 0.09715 0.21648 0.0
H269 H 0.34875 0.09166 0.16036 0.0
H270 H 0.31055 0.09421 0.03998 0.0
H271 H 0.28474 0.09977 0.09618 0.0
H272 H 0.18287 0.09181 0.34467 0.0
H273 H 0.20966 0.0983 0.29482 0.0
H274 H 0.21746 0.09269 0.47243 0.0
H275 H 0.24464 0.09849 0.42109 0.0
H276 H 0.30627 0.10066 0.49666 0.0
H277 H 0.35119 0.13161 0.44361 0.0
H278 H 0.33429 0.13678 0.36817 0.0
H279 H 0.28924 0.10595 0.42129 0.0
C280 C 0.50973 0.28866 0.14651 0.0
C281 C 0.51128 0.30573 0.16448 0.0
C282 C 0.50931 0.31779 0.08267 0.0
C283 C 0.51117 0.32009 0.133 0.0
C284 C 0.50768 0.30061 0.0649 0.0
C285 C 0.50792 0.28621 0.09652 0.0
U286 U 0.50702 0.27337 0.2746 0.0
O287 O 0.49481 0.25106 0.31248 0.0
O288 O 0.52491 0.25575 0.31904 0.0
C289 C 0.51073 0.24646 0.33286 0.0
C290 C 0.51013 0.27359 0.18017 0.0
C291 C 0.51384 0.22829 0.34923 0.0
C292 C 0.51115 0.19678 0.34074 0.0
C293 C 0.50959 0.21372 0.32093 0.0
C294 C 0.52142 0.20897 0.41664 0.0
C295 C 0.51693 0.19424 0.38911 0.0
C296 C 0.51993 0.22574 0.39689 0.0
C297 C 0.50114 0.30871 0.36835 0.0
C298 C 0.51308 0.30468 0.44989 0.0
C299 C 0.49725 0.33187 0.42689 0.0
C300 C 0.49432 0.3254 0.38059 0.0
C301 C 0.50721 0.32178 0.46111 0.0
C302 C 0.50982 0.29805 0.40371 0.0
C303 C 0.50138 0.30346 0.31755 0.0
O304 O 0.52455 0.27291 0.20937 0.0
O305 O 0.49435 0.27058 0.20246 0.0
O306 O 0.48768 0.29369 0.30344 0.0
O307 O 0.51776 0.29791 0.30206 0.0
H308 H 0.51271 0.30795 0.20298 0.0
H309 H 0.51279 0.33299 0.14824 0.0
H310 H 0.50594 0.29826 0.02658 0.0
H311 H 0.50664 0.27316 0.08193 0.0
H312 H 0.50766 0.18572 0.31845 0.0
H313 H 0.50476 0.21545 0.28409 0.0
H314 H 0.52544 0.20767 0.45425 0.0
H315 H 0.52299 0.23684 0.41958 0.0
H316 H 0.52099 0.29688 0.47581 0.0
H317 H 0.49297 0.34527 0.4349 0.0
H318 H 0.48771 0.33378 0.35362 0.0
H319 H 0.51511 0.28507 0.39463 0.0
O320 O 0.00973 0.02829 0.76175 0.0
Mn321 Mn 0.00813 0.0063 0.71613 0.0
O322 O 0.98024 0.03874 0.76565 0.0
Mn323 Mn 0.96971 0.0214 0.72853 0.0
O324 O 1.00556 0.98405 0.67017 0.0
O325 O 0.0357 0.01173 0.69359 0.0
Mn326 Mn 0.04428 0.98966 0.70105 0.0
O327 O 0.01547 0.99024 0.7727 0.0
O328 O 0.03465 0.97448 0.65736 0.0
O329 O 0.99984 0.02272 0.65988 0.0
O330 O 0.96909 0.0246 0.6628 0.0
O331 O 0.06456 -0.00011 0.68158 0.0
O332 O 0.04463 0.98121 0.76316 0.0
C333 C 0.96503 0.99704 0.75878 0.0
C334 C 0.99739 0.03956 0.7768 0.0
C335 C 0.01735 0.97309 0.6511 0.0
C336 C 0.05338 0.01349 0.68028 0.0
C337 C 0.02941 0.98094 0.7859 0.0
C338 C 0.98427 0.02795 0.64214 0.0
O339 O 0.98142 0.00128 0.74157 0.0
O340 O 0.95172 0.00872 0.75534 0.0
O341 O 0.52487 0.00148 0.77763 0.0
Mn342 Mn 0.50794 0.00769 0.71962 0.0
O343 O 0.54677 0.02112 0.78388 0.0
Mn344 Mn 0.54281 0.02753 0.72067 0.0
O345 O 0.4907 0.01342 0.66221 0.0
O346 O 0.49631 0.98397 0.73258 0.0
Mn347 Mn 0.47233 0.98651 0.71922 0.0
O348 O 0.48803 0.01984 0.76626 0.0
O349 O 0.46968 0.9927 0.655 0.0
O350 O 0.52765 0.99528 0.67171 0.0
O351 O 0.55248 0.01234 0.67472 0.0
O352 O 0.47539 0.96373 0.73825 0.0
O353 O 0.46283 0.00288 0.76333 0.0
C354 C 0.52525 0.04799 0.6989 0.0
C355 C 0.53891 0.00761 0.79926 0.0
C356 C 0.47696 0.00669 0.6405 0.0
C357 C 0.49241 0.96808 0.74571 0.0
C358 C 0.4712 0.01629 0.77872 0.0
C359 C 0.5443 -0.00091 0.65815 0.0
O360 O 0.519 0.03222 0.70735 0.0
O361 O 0.54279 0.05033 0.70657 0.0
O362 O 0.49834 0.52223 0.77847 0.0
Mn363 Mn 0.50523 0.50556 0.72243 0.0
O364 O 0.47197 0.53535 0.75485 0.0
Mn365 Mn 0.47152 0.52384 0.69709 0.0
O366 O 0.51164 0.48929 0.66572 0.0
O367 O 0.53306 0.50917 0.74598 0.0
Mn368 Mn 0.54067 0.48705 0.73295 0.0
O369 O 0.50147 0.48381 0.76885 0.0
O370 O 0.54131 0.48147 0.66832 0.0
O371 O 0.50998 0.52732 0.67577 0.0
O372 O 0.48234 0.53501 0.64648 0.0
O373 O 0.56123 0.49593 0.75591 0.0
O374 O 0.52963 0.47077 0.77207 0.0
C375 C 0.45941 0.50087 0.68529 0.0
C376 C 0.48541 0.53374 0.78401 0.0
C377 C 0.52585 0.48177 0.64694 0.0
C378 C 0.55076 0.50995 0.75972 0.0
C379 C 0.51255 0.47137 0.78336 0.0
C380 C 0.49973 0.53639 0.64646 0.0
O381 O 0.47725 0.50102 0.69901 0.0
O382 O 0.44993 0.51552 0.68243 0.0
O383 O 0.02767 0.49349 0.77019 0.0
Mn384 Mn 0.00928 0.50668 0.72099 0.0
O385 O 0.0524 0.51073 0.76957 0.0
Mn386 Mn 0.04179 0.52851 0.73218 0.0
O387 O 0.99091 0.51986 0.67194 0.0
O388 O 1.00033 0.48291 0.69754 0.0
Mn389 Mn 0.97583 0.48421 0.70365 0.0
O390 O 0.98889 0.50921 0.77426 0.0
O391 O 0.96663 0.50207 0.66405 0.0
O392 O 0.02939 0.50368 0.66685 0.0
O393 O 0.0455 0.52768 0.66677 0.0
O394 O 0.98034 0.46251 0.67947 0.0
O395 O 0.97011 0.48668 0.768 0.0
C396 C 0.02309 0.54634 0.76124 0.0
C397 C 0.04434 0.497 0.78386 0.0
C398 C 0.97472 0.51632 0.65482 0.0
C399 C 0.99749 0.46723 0.68092 0.0
C400 C 0.97512 0.50042 0.78927 0.0
C401 C 0.04161 0.51332 0.64767 0.0
O402 O 0.01773 0.53099 0.74567 0.0
O403 O 0.04057 0.54985 0.75776 0.0
H404 H 0.19649 0.07048 0.49403 0.0
H405 H 0.16914 0.06169 0.53998 0.0
H406 H 0.13376 0.09264 0.44561 0.0
H407 H 0.16095 0.10193 0.40034 0.0
H408 H 0.14189 0.08333 0.58868 0.0
H409 H 0.10947 0.04433 0.44362 0.0
H410 H 0.13342 0.05075 0.44083 0.0
H411 H 0.11502 0.06639 0.42785 0.0
C412 C 0.18296 0.07565 0.48325 0.0
C413 C 0.18112 0.0869 0.44296 0.0
C414 C 0.16726 0.07045 0.50942 0.0
C415 C 0.14927 0.07621 0.49584 0.0
C416 C 0.14738 0.08765 0.45624 0.0
H417 H 0.04264 0.03721 0.60815 0.0
H418 H 0.06424 0.05629 0.56475 0.0
C419 C 0.16305 0.09295 0.43027 0.0
C420 C 0.13262 0.07068 0.52407 0.0
H421 H 0.09295 0.04709 0.51701 0.0
C422 C 0.13115 0.07545 0.57295 0.0
C423 C 0.11834 0.0607 0.50348 0.0
C424 C 0.1191 0.0551 0.45116 0.0
C425 C 0.11602 0.07046 0.60188 0.0
C426 C 0.10213 0.05967 0.58216 0.0
C427 C 0.10338 0.05533 0.53267 0.0
C428 C 0.08753 0.05123 0.61304 0.0
C429 C 0.11515 0.07716 0.65319 0.0
C430 C 0.09285 0.04261 0.65594 0.0
C431 C 0.08029 0.03259 0.68181 0.0
C432 C 0.06216 0.02999 0.66467 0.0
C433 C 0.0563 0.03927 0.62317 0.0
C434 C 0.06885 0.04989 0.59776 0.0
H435 H 0.12106 0.09041 0.65561 0.0
H436 H 0.1007 0.07785 0.66733 0.0
H437 H 0.12376 0.06841 0.67675 0.0
H438 H 0.10714 0.04255 0.66803 0.0
H439 H 0.08546 0.02532 0.71294 0.0
H440 H 0.54252 0.1804 0.45303 0.0
H441 H 0.53953 0.1543 0.50337 0.0
H442 H 0.48895 0.14188 0.42921 0.0
H443 H 0.49154 0.16825 0.37941 0.0
H444 H 0.5052 0.15051 0.56291 0.0
H445 H 0.51998 0.09415 0.44037 0.0
H446 H 0.52877 0.11566 0.4286 0.0
H447 H 0.50468 0.11146 0.41869 0.0
C448 C 0.53083 0.17205 0.44703 0.0
C449 C 0.51709 0.17663 0.41265 0.0
C450 C 0.5292 0.15708 0.47571 0.0
C451 C 0.51398 0.14619 0.47019 0.0
C452 C 0.50089 0.15004 0.43383 0.0
H453 H 0.4986 0.04807 0.6267 0.0
H454 H 0.48989 0.07332 0.57559 0.0
C455 C 0.50243 0.16511 0.40525 0.0
C456 C 0.5108 0.13201 0.5059 0.0
H457 H 0.51137 0.08771 0.52022 0.0
C458 C 0.50642 0.13674 0.55366 0.0
C459 C 0.51206 0.11413 0.4935 0.0
C460 C 0.51672 0.10841 0.44261 0.0
C461 C 0.5034 0.12409 0.58961 0.0
C462 C 0.50559 0.10603 0.57807 0.0
C463 C 0.50952 0.1014 0.52965 0.0
C464 C 0.50608 0.09188 0.61588 0.0
C465 C 0.49763 0.1305 0.6392 0.0
C466 C 0.5169 0.09389 0.65762 0.0
C467 C 0.52058 0.07981 0.68855 0.0
C468 C 0.51454 0.06295 0.67745 0.0
C469 C 0.5028 0.06096 0.63745 0.0
C470 C 0.49831 0.07538 0.60741 0.0
H471 H 0.48872 0.14255 0.63642 0.0
H472 H 0.48992 0.12053 0.65971 0.0
H473 H 0.5102 0.13403 0.65986 0.0
H474 H 0.52385 0.10598 0.66468 0.0
H475 H 0.52988 0.08179 0.71875 0.0
H476 H 0.32136 0.44708 0.47426 0.0
H477 H 0.34839 0.45604 0.52057 0.0
H478 H 0.38031 0.41197 0.46497 0.0
H479 H 0.35326 0.40282 0.41866 0.0
H480 H 0.36713 0.43626 0.59203 0.0
H481 H 0.41594 0.45221 0.44299 0.0
H482 H 0.39137 0.44971 0.43265 0.0
H483 H 0.40624 0.43081 0.44233 0.0
C484 C 0.33404 0.43917 0.47208 0.0
C485 C 0.33497 0.42413 0.44275 0.0
C486 C 0.3496 0.44442 0.4983 0.0
C487 C 0.36655 0.43486 0.49589 0.0
C488 C 0.36758 0.41984 0.4667 0.0
H489 H 0.47046 0.47241 0.62799 0.0
H490 H 0.4497 0.45198 0.58738 0.0
C491 C 0.35201 0.41457 0.44036 0.0
C492 C 0.3826 0.44015 0.5265 0.0
H493 H 0.42639 0.45652 0.5226 0.0
C494 C 0.38014 0.44059 0.57682 0.0
C495 C 0.39986 0.44528 0.50699 0.0
C496 C 0.40359 0.44461 0.45327 0.0
C497 C 0.39406 0.44643 0.60806 0.0
C498 C 0.41081 0.45304 0.58857 0.0
C499 C 0.41364 0.45175 0.53814 0.0
C500 C 0.42434 0.46299 0.61901 0.0
C501 C 0.39046 0.44516 0.66178 0.0
C502 C 0.41751 0.47566 0.65167 0.0
C503 C 0.4295 0.48602 0.67795 0.0
C504 C 0.44887 0.48521 0.67019 0.0
C505 C 0.45594 0.4726 0.63753 0.0
C506 C 0.44385 0.46136 0.61291 0.0
H507 H 0.38243 0.43334 0.67034 0.0
H508 H 0.40354 0.44455 0.68301 0.0
H509 H 0.38182 0.45663 0.67355 0.0
H510 H 0.40274 0.4783 0.6554 0.0
H511 H 0.42334 0.49589 0.70158 0.0
H512 H 0.00927 0.31904 0.49833 0.0
H513 H 0.01001 0.34572 0.54714 0.0
H514 H 1.00673 0.37698 0.41717 0.0
H515 H 1.00455 0.35063 0.36883 0.0
H516 H 0.03591 0.36898 0.54873 0.0
H517 H 0.97065 0.40392 0.49645 0.0
H518 H 0.97526 0.38136 0.48054 0.0
H519 H 0.98463 0.39873 0.4445 0.0
C520 C 0.00816 0.3316 0.48025 0.0
C521 C 1.00713 0.33259 0.42946 0.0
C522 C 0.00877 0.34688 0.50819 0.0
C523 C 0.00836 0.36348 0.48604 0.0
C524 C 1.00671 0.36446 0.4355 0.0
H525 H 0.01526 0.46994 0.59459 0.0
H526 H 0.02274 0.44429 0.54426 0.0
C527 C 1.00581 0.34927 0.40771 0.0
C528 C 0.01102 0.37963 0.51524 0.0
H529 H 0.99323 0.42081 0.53685 0.0
C530 C 0.02648 0.38026 0.54624 0.0
C531 C 0.99885 0.3945 0.51197 0.0
C532 C 0.98133 0.39454 0.48194 0.0
C533 C 0.03013 0.39524 0.57377 0.0
C534 C 0.01805 0.41007 0.57024 0.0
C535 C 1.00272 0.40956 0.53888 0.0
C536 C 0.01968 0.42557 0.60236 0.0
C537 C 0.0469 0.39507 0.60638 0.0
C538 C 0.01686 0.42368 0.65234 0.0
C539 C 0.01294 0.43834 0.68113 0.0
C540 C 0.01164 0.45513 0.66047 0.0
C541 C 0.0167 0.45722 0.61173 0.0
C542 C 0.0206 0.44251 0.58275 0.0
H543 H 0.05773 0.38546 0.59391 0.0
H544 H 0.05304 0.40821 0.60829 0.0
H545 H 0.0426 0.39125 0.64344 0.0
H546 H 0.01577 0.41079 0.66827 0.0
H547 H 0.00857 0.43631 0.71824 0.0
H548 H 0.83086 0.91466 0.93738 0.0
H549 H 0.85893 0.92264 0.89286 0.0
H550 H 0.878 0.95093 0.01703 0.0
H551 H 0.8499 0.9434 0.0614 0.0
H552 H 0.87049 0.95915 0.87629 0.0
H553 H 0.92408 0.91936 0.97489 0.0
H554 H 0.89988 0.91361 0.97355 0.0
H555 H 0.90717 0.93129 0.01094 0.0
C556 C 0.84097 0.92262 0.95531 0.0
C557 C 0.83795 0.92835 0.00325 0.0
C558 C 0.85712 0.92707 0.92982 0.0
C559 C 0.87077 0.93723 0.95168 0.0
C560 C 0.86792 0.9428 0.99959 0.0
H561 H 0.96948 0.99096 0.85511 0.0
H562 H 0.94739 0.97429 0.90333 0.0
C563 C 0.85177 0.93842 0.02501 0.0
C564 C 0.88734 0.943 0.9235 0.0
H565 H 0.93493 0.93963 0.91718 0.0
C566 C 0.88456 0.95475 0.88496 0.0
C567 C 0.90576 0.9375 0.93521 0.0
C568 C 0.90955 0.92466 0.97569 0.0
C569 C 0.89959 0.96136 0.85843 0.0
C570 C 0.91806 0.95564 0.86946 0.0
C571 C 0.92086 0.94391 0.90821 0.0
C572 C 0.93447 0.9622 0.8417 0.0
C573 C 0.89554 0.97493 0.81986 0.0
C574 C 0.93573 0.9599 0.7913 0.0
C575 C 0.9486 0.96922 0.7638 0.0
C576 C 0.96065 0.98094 0.78596 0.0
C577 C 0.96083 0.98166 0.8369 0.0
C578 C 0.94791 0.97235 0.86452 0.0
H579 H 0.88152 0.98118 0.82446 0.0
H580 H 0.90603 0.98531 0.82037 0.0
H581 H 0.89602 0.96858 0.78379 0.0
H582 H 0.92583 0.95189 0.77274 0.0
H583 H 0.94768 0.96873 0.72469 0.0
H584 H 0.51093 0.82162 0.95422 0.0
H585 H 0.51432 0.84826 0.90561 0.0
H586 H 0.49159 0.87933 0.02249 0.0
H587 H 0.48752 0.85288 0.07068 0.0
H588 H 0.48076 0.87676 0.89056 0.0
H589 H 0.54574 0.89988 0.9758 0.0
H590 H 0.54052 0.8769 0.97348 0.0
H591 H 0.52762 0.89117 0.01329 0.0
C592 C 0.50644 0.83407 0.96946 0.0
C593 C 0.49909 0.83501 0.01671 0.0
C594 C 0.50857 0.84931 0.94178 0.0
C595 C 0.50352 0.86579 0.96081 0.0
C596 C 0.4959 0.86678 0.00745 0.0
H597 H 0.49952 0.97141 0.84161 0.0
H598 H 0.50534 0.94669 0.89694 0.0
C599 C 0.49364 0.8516 0.03499 0.0
C600 C 0.50544 0.8819 0.93114 0.0
H601 H 0.53257 0.9175 0.91356 0.0
C602 C 0.49213 0.88561 0.89538 0.0
C603 C 0.52004 0.89365 0.93838 0.0
C604 C 0.5344 0.89032 0.9772 0.0
C605 C 0.49308 0.90067 0.86633 0.0
C606 C 0.50813 0.91208 0.87193 0.0
C607 C 0.52125 0.9086 0.90858 0.0
C608 C 0.50999 0.92771 0.83996 0.0
C609 C 0.47768 0.90443 0.83045 0.0
C610 C 0.51202 0.92554 0.78972 0.0
C611 C 0.50894 0.93968 0.75818 0.0
C612 C 0.50405 0.95634 0.77622 0.0
C613 C 0.50381 0.95884 0.82669 0.0
C614 C 0.50694 0.94466 0.85834 0.0
H615 H 0.46497 0.89712 0.83931 0.0
H616 H 0.47398 0.91862 0.82934 0.0
H617 H 0.48242 0.90038 0.7938 0.0
H618 H 0.51449 0.91261 0.7747 0.0
H619 H 0.50862 0.93724 0.71958 0.0
H620 H 0.69095 0.56109 0.96236 0.0
H621 H 0.66276 0.5525 0.91964 0.0
H622 H 0.63295 0.59732 0.97823 0.0
H623 H 0.6611 0.60587 0.02146 0.0
H624 H 0.62681 0.54521 0.96365 0.0
H625 H 0.62239 0.59932 0.82901 0.0
H626 H 0.64354 0.59385 0.86146 0.0
H627 H 0.62484 0.60543 0.89151 0.0
C628 C 0.67849 0.56928 0.9655 0.0
C629 C 0.67836 0.58424 0.99507 0.0
C630 C 0.6623 0.56428 0.94136 0.0
C631 C 0.64566 0.57428 0.94535 0.0
C632 C 0.64559 0.58943 0.97412 0.0
H633 H 0.53825 0.53491 0.82751 0.0
H634 H 0.5587 0.5536 0.87617 0.0
C635 C 0.6617 0.59429 0.9989 0.0
C636 C 0.6284 0.56851 0.92029 0.0
H637 H 0.59912 0.57822 0.82561 0.0
C638 C 0.62058 0.5526 0.93402 0.0
C639 C 0.62021 0.57807 0.88144 0.0
C640 C 0.62817 0.59507 0.86453 0.0
C641 C 0.60519 0.54584 0.90937 0.0
C642 C 0.59735 0.55511 0.86959 0.0
C643 C 0.60486 0.57124 0.85658 0.0
C644 C 0.58381 0.54667 0.83639 0.0
C645 C 0.59802 0.52828 0.92424 0.0
C646 C 0.59084 0.53736 0.79654 0.0
C647 C 0.57925 0.5271 0.76858 0.0
C648 C 0.56019 0.52558 0.77964 0.0
C649 C 0.55273 0.53592 0.81748 0.0
C650 C 0.5645 0.54642 0.84569 0.0
H651 H 0.60393 0.52374 0.95935 0.0
H652 H 0.58263 0.52891 0.92724 0.0
H653 H 0.60177 0.51848 0.89604 0.0
H654 H 0.6056 0.53726 0.78856 0.0
H655 H 0.58558 0.51926 0.74001 0.0
H656 H 0.03682 0.67724 0.00889 0.0
H657 H 0.03434 0.6499 0.96301 0.0
H658 H 0.97726 0.64599 0.00894 0.0
H659 H 0.97979 0.67335 0.05489 0.0
H660 H 0.02383 0.61514 0.98967 0.0
H661 H 0.97515 0.64686 0.85839 0.0
H662 H 0.98901 0.65914 0.89997 0.0
H663 H 0.96841 0.64874 0.92092 0.0
C664 C 0.02389 0.6703 0.00989 0.0
C665 C 0.00853 0.67722 0.03559 0.0
C666 C 0.02246 0.65474 0.98363 0.0
C667 C 1.00554 0.646 0.98204 0.0
C668 C 0.99038 0.65261 0.00922 0.0
H669 H 1.00009 0.54272 0.83994 0.0
H670 H 0.99163 0.56664 0.89624 0.0
C671 C 0.99186 0.66812 0.03575 0.0
C672 C 1.00355 0.63053 0.94999 0.0
H673 H 0.98195 0.61681 0.84718 0.0
C674 C 0.01449 0.61539 0.95891 0.0
C675 C 0.99167 0.63104 0.90918 0.0
C676 C 0.98048 0.64734 0.89606 0.0
C677 C 0.01389 0.60077 0.92809 0.0
C678 C 1.00178 0.60117 0.88767 0.0
C679 C 0.99082 0.61632 0.87887 0.0
C680 C 1.0024 0.58707 0.85051 0.0
C681 C 0.02695 0.58536 0.93745 0.0
C682 C 0.00977 0.59076 0.80477 0.0
C683 C 0.01402 0.57725 0.77241 0.0
C684 C 0.01105 0.55972 0.78498 0.0
C685 C 1.00201 0.55611 0.82881 0.0
C686 C 0.99762 0.56975 0.86138 0.0
H687 H 0.03695 0.58795 0.96699 0.0
H688 H 0.01881 0.57381 0.94777 0.0
H689 H 0.0349 0.58199 0.90409 0.0
H690 H 0.01359 0.60396 0.79547 0.0
H691 H 0.02132 0.58038 0.73928 0.0
H692 H 0.99347 0.18862 0.55059 0.0
H693 H 0.99276 0.16137 0.59709 0.0
H694 H 0.0388 0.14067 0.51226 0.0
H695 H 0.0404 0.16826 0.46918 0.0
H696 H 0.98189 0.13643 0.54602 0.0
H697 H 0.04751 0.11243 0.62826 0.0
H698 H 0.04397 0.13509 0.61145 0.0
H699 H 0.05194 0.11915 0.5674 0.0
C700 C 1.00421 0.17865 0.54453 0.0
C701 C 0.01701 0.18037 0.50668 0.0
C702 C 1.00375 0.16305 0.57073 0.0
C703 C 0.01559 0.14885 0.55786 0.0
C704 C 0.02977 0.15143 0.52381 0.0
H705 H 1.00493 0.03571 0.56187 0.0
H706 H 0.0117 0.06562 0.53472 0.0
C707 C 0.03062 0.16722 0.49888 0.0
C708 C 0.0101 0.13081 0.56936 0.0
H709 H 0.02682 0.09005 0.59938 0.0
C710 C 0.99171 0.12642 0.55861 0.0
C711 C 0.02294 0.11757 0.58458 0.0
C712 C 0.04262 0.1214 0.59897 0.0
C713 C 0.98585 0.10923 0.56198 0.0
C714 C 0.99875 0.09602 0.57638 0.0
C715 C 0.01712 0.10025 0.58727 0.0
C716 C 0.99283 0.07815 0.58597 0.0
C717 C 0.96593 0.10533 0.54968 0.0
C718 C 0.97963 0.07555 0.62225 0.0
C719 C 0.97523 0.05877 0.63599 0.0
C720 C 0.98451 0.04427 0.61498 0.0
C721 C 0.99735 0.04676 0.57755 0.0
C722 C 1.00137 0.06372 0.56267 0.0
H723 H 0.9596 0.11554 0.52575 0.0
H724 H 0.96492 0.09242 0.53169 0.0
H725 H 0.95759 0.10507 0.58349 0.0
H726 H 0.97345 0.08651 0.64188 0.0
H727 H 0.96588 0.05726 0.66645 0.0
H728 H 0.33997 0.0826 0.45758 0.0
H729 H 0.36534 0.06543 0.49364 0.0
H730 H 0.37666 0.10786 0.59093 0.0
H731 H 0.35099 0.12546 0.55396 0.0
H732 H 0.4074 0.09158 0.52083 0.0
H733 H 0.37059 0.04416 0.63757 0.0
H734 H 0.35919 0.05078 0.58224 0.0
H735 H 0.36245 0.06656 0.62919 0.0
C736 C 0.34745 0.08806 0.48777 0.0
C737 C 0.34336 0.1051 0.50399 0.0
C738 C 0.36193 0.07829 0.50811 0.0
C739 C 0.37252 0.08535 0.54521 0.0
C740 C 0.36836 0.10226 0.56251 0.0
H741 H 0.47028 0.03981 0.66568 0.0
H742 H 0.44563 0.0592 0.6374 0.0
C743 C 0.35379 0.1122 0.5417 0.0
C744 C 0.38898 0.0753 0.56138 0.0
H745 H 0.40144 0.03637 0.61372 0.0
C746 C 0.40624 0.07966 0.54185 0.0
C747 C 0.38715 0.0597 0.58809 0.0
C748 C 0.36889 0.05497 0.61087 0.0
C749 C 0.42175 0.0684 0.54716 0.0
C750 C 0.41972 0.05252 0.57234 0.0
C751 C 0.40261 0.04837 0.59306 0.0
C752 C 0.43586 0.04126 0.58343 0.0
C753 C 0.44016 0.07325 0.52534 0.0
C754 C 0.43846 0.02478 0.56178 0.0
C755 C 0.45293 0.01357 0.57745 0.0
C756 C 0.46479 0.019 0.61442 0.0
C757 C 0.46217 0.03569 0.63494 0.0
C758 C 0.44787 0.04671 0.61952 0.0
H759 H 0.43884 0.08488 0.50132 0.0
H760 H 0.4501 0.07621 0.55471 0.0
H761 H 0.44617 0.06209 0.50432 0.0
H762 H 0.42898 0.02044 0.53415 0.0
H763 H 0.45438 0.00054 0.56238 0.0
H764 H 0.54149 0.33395 0.47147 0.0
H765 H 0.54763 0.36086 0.51461 0.0
H766 H 0.49464 0.35786 0.58705 0.0
H767 H 0.4882 0.33112 0.54239 0.0
H768 H 0.49691 0.3831 0.51307 0.0
H769 H 0.55621 0.38818 0.6406 0.0
H770 H 0.56032 0.37398 0.58969 0.0
H771 H 0.54316 0.36846 0.63406 0.0
C772 C 0.53176 0.33837 0.49918 0.0
C773 C 0.51432 0.33075 0.50358 0.0
C774 C 0.53529 0.35375 0.52388 0.0
C775 C 0.52147 0.36136 0.55346 0.0
C776 C 0.50541 0.35209 0.56419 0.0
H777 H 0.49745 0.46058 0.65029 0.0
H778 H 0.49447 0.43311 0.60925 0.0
C779 C 0.50176 0.33683 0.53891 0.0
C780 C 0.52105 0.38043 0.55915 0.0
H781 H 0.54504 0.41443 0.604 0.0
C782 C 0.50734 0.38998 0.53331 0.0
C783 C 0.5349 0.38922 0.58462 0.0
C784 C 0.54943 0.37949 0.61418 0.0
C785 C 0.50709 0.40823 0.53251 0.0
C786 C 0.521 0.41699 0.55779 0.0
C787 C 0.53479 0.40749 0.58328 0.0
C788 C 0.51952 0.43578 0.56672 0.0
C789 C 0.49189 0.41803 0.50528 0.0
C790 C 0.53427 0.44666 0.55484 0.0
C791 C 0.53572 0.46284 0.57763 0.0
C792 C 0.52237 0.46803 0.61207 0.0
C793 C 0.50705 0.45754 0.62111 0.0
C794 C 0.50549 0.44165 0.59815 0.0
H795 H 0.48502 0.40956 0.47847 0.0
H796 H 0.48114 0.42284 0.53127 0.0
H797 H 0.49752 0.42956 0.48629 0.0
H798 H 0.54535 0.44203 0.53113 0.0
H799 H 0.54783 0.47063 0.57113 0.0
H800 H 0.18173 0.41487 0.55658 0.0
H801 H 0.15893 0.43006 0.60717 0.0
H802 H 0.11477 0.4076 0.52414 0.0
H803 H 0.1373 0.39022 0.47931 0.0
H804 H 0.14304 0.45436 0.56673 0.0
H805 H 0.08551 0.41636 0.63752 0.0
H806 H 0.1067 0.40555 0.6173 0.0
H807 H 0.08801 0.41049 0.57526 0.0
C808 C 0.1672 0.41221 0.55107 0.0
C809 C 0.16139 0.40205 0.51177 0.0
C810 C 0.15408 0.42113 0.57985 0.0
C811 C 0.13504 0.42057 0.56862 0.0
C812 C 0.12924 0.4084 0.53423 0.0
H813 H 0.0399 0.49167 0.56892 0.0
H814 H 0.06442 0.47026 0.54527 0.0
C815 C 0.14231 0.39874 0.5074 0.0
C816 C 0.12226 0.43528 0.58296 0.0
H817 H 0.07685 0.44583 0.60792 0.0
C818 C 0.12868 0.45237 0.57683 0.0
C819 C 0.1034 0.43295 0.5957 0.0
C820 C 0.09566 0.41529 0.60723 0.0
C821 C 0.11674 0.46703 0.58075 0.0
C822 C 0.09774 0.46456 0.59083 0.0
C823 C 0.09134 0.44762 0.59857 0.0
C824 C 0.08446 0.47939 0.59731 0.0
C825 C 0.12462 0.48494 0.57278 0.0
C826 C 0.08796 0.49192 0.6327 0.0
C827 C 0.07444 0.50445 0.64441 0.0
C828 C 0.05685 0.50422 0.62245 0.0
C829 C 0.05348 0.49218 0.58563 0.0
C830 C 0.06736 0.47992 0.57262 0.0
H831 H 0.13729 0.48426 0.54971 0.0
H832 H 0.11431 0.49407 0.55571 0.0
H833 H 0.12873 0.49043 0.60822 0.0
H834 H 0.10068 0.49136 0.6536 0.0
H835 H 0.07718 0.51321 0.67421 0.0
H836 H 0.02992 0.82872 0.89278 0.0
H837 H 0.02187 0.85362 0.84001 0.0
H838 H 0.97546 0.86726 0.9328 0.0
H839 H 0.98315 0.84223 0.98456 0.0
H840 H 0.97543 0.88104 0.82401 0.0
H841 H 0.03616 0.89311 0.94402 0.0
H842 H 0.03788 0.87448 0.90467 0.0
H843 H 0.02135 0.87479 0.95351 0.0
C844 C 0.01734 0.83641 0.89992 0.0
C845 C 1.00719 0.83387 0.9425 0.0
C846 C 0.01267 0.85051 0.86973 0.0
C847 C 0.99824 0.86228 0.88316 0.0
C848 C 0.98651 0.8582 0.92177 0.0
H849 H 0.01111 0.9754 0.87112 0.0
H850 H 0.99686 0.94767 0.89511 0.0
C851 C 0.99101 0.84401 0.95149 0.0
C852 C 0.99962 0.88077 0.86997 0.0
H853 H 0.02548 0.91616 0.89559 0.0
C854 C 0.98633 0.88878 0.83945 0.0
C855 C 0.01358 0.89082 0.89159 0.0
C856 C 0.02801 0.88296 0.92553 0.0
C857 C 0.98732 0.90665 0.8282 0.0
C858 C 1.00166 0.91639 0.84884 0.0
C859 C 0.01434 0.90853 0.88078 0.0
C860 C 1.00645 0.93368 0.83134 0.0
C861 C 0.97345 0.915 0.7938 0.0
C862 C 0.01701 0.93445 0.78897 0.0
C863 C 0.02611 0.94961 0.77737 0.0
C864 C 0.02439 0.96439 0.80732 0.0
C865 C 0.01327 0.96385 0.84897 0.0
C866 C 1.00467 0.94834 0.86163 0.0
H867 H 0.96108 0.90681 0.78881 0.0
H868 H 0.96883 0.92812 0.80716 0.0
H869 H 0.98017 0.91683 0.75802 0.0
H870 H 0.01876 0.9231 0.7658 0.0
H871 H 0.0338 0.95003 0.74362 0.0
H872 H 0.68244 0.93914 0.93685 0.0
H873 H 0.65681 0.95257 0.89242 0.0
H874 H 0.63654 0.90155 0.85714 0.0
H875 H 0.66189 0.88792 0.90468 0.0
H876 H 0.63984 0.95369 0.80806 0.0
H877 H 0.59524 0.919 0.94109 0.0
H878 H 0.62022 0.91764 0.94477 0.0
H879 H 0.60819 0.90566 0.89894 0.0
C880 C 0.67297 0.93071 0.91814 0.0
C881 C 0.67398 0.91251 0.92469 0.0
C882 C 0.65825 0.93842 0.89277 0.0
C883 C 0.64441 0.92806 0.87296 0.0
C884 C 0.64673 0.90977 0.87376 0.0
H885 H 0.53636 0.97256 0.8016 0.0
H886 H 0.56127 0.95204 0.82058 0.0
C887 C 0.66128 0.90201 0.90037 0.0
C888 C 0.62658 0.93672 0.85922 0.0
H889 H 0.58186 0.94234 0.89909 0.0
C890 C 0.62708 0.95106 0.82744 0.0
C891 C 0.60988 0.93319 0.88441 0.0
C892 C 0.60827 0.91812 0.91942 0.0
C893 C 0.61174 0.96257 0.82244 0.0
C894 C 0.59562 0.95965 0.8503 0.0
C895 C 0.59456 0.94467 0.8791 0.0
C896 C 0.57939 0.97168 0.84867 0.0
C897 C 0.61299 0.97784 0.78794 0.0
C898 C 0.58082 0.98928 0.86207 0.0
C899 C 0.56623 0.00114 0.85213 0.0
C900 C 0.55018 0.9954 0.82879 0.0
C901 C 0.54814 0.97739 0.82098 0.0
C902 C 0.56263 0.96563 0.83074 0.0
H903 H 0.62433 0.97578 0.761 0.0
H904 H 0.59967 0.98009 0.76834 0.0
H905 H 0.61596 0.98984 0.80873 0.0
H906 H 0.59358 0.994 0.8774 0.0
H907 H 0.5682 0.01494 0.85856 0.0
H908 H 0.52654 0.67957 0.9756 0.0
H909 H 0.53423 0.65175 0.93627 0.0
H910 H 0.48245 0.65503 0.85793 0.0
H911 H 0.47442 0.68261 0.89874 0.0
H912 H 0.48574 0.62951 0.93403 0.0
H913 H 0.54607 0.62523 0.80705 0.0
H914 H 0.5477 0.63924 0.85916 0.0
H915 H 0.53144 0.64475 0.81211 0.0
C916 C 0.51736 0.67487 0.94774 0.0
C917 C 0.4999 0.68306 0.94002 0.0
C918 C 0.52178 0.659 0.92527 0.0
C919 C 0.50887 0.65141 0.89448 0.0
C920 C 0.49258 0.66082 0.88158 0.0
H921 H 0.48024 0.56646 0.75356 0.0
H922 H 0.49154 0.59276 0.7899 0.0
C923 C 0.48801 0.67654 0.9047 0.0
C924 C 0.50961 0.63238 0.88761 0.0
H925 H 0.53188 0.59889 0.82838 0.0
C926 C 0.49599 0.62276 0.91147 0.0
C927 C 0.52325 0.62373 0.85903 0.0
C928 C 0.53796 0.63368 0.83258 0.0
C929 C 0.49488 0.60476 0.9049 0.0
C930 C 0.5079 0.59624 0.87432 0.0
C931 C 0.52228 0.60559 0.85287 0.0
C932 C 0.50312 0.57959 0.85276 0.0
C933 C 0.47881 0.5952 0.92685 0.0
C934 C 0.5058 0.56355 0.8769 0.0
C935 C 0.49931 0.54825 0.85594 0.0
C936 C 0.48967 0.54922 0.81188 0.0
C937 C 0.48695 0.56541 0.78858 0.0
C938 C 0.49378 0.5804 0.80862 0.0
H939 H 0.47038 0.6036 0.95178 0.0
H940 H 0.46959 0.59055 0.89762 0.0
H941 H 0.48408 0.58352 0.94701 0.0
H942 H 0.51284 0.56294 0.91148 0.0
H943 H 0.5019 0.53576 0.87361 0.0
H944 H 0.87286 0.62011 0.96028 0.0
H945 H 0.89808 0.60771 0.91158 0.0
H946 H 0.85868 0.57834 0.82972 0.0
H947 H 0.83349 0.58991 0.88038 0.0
H948 H 0.87835 0.55898 0.89635 0.0
H949 H 0.92764 0.59797 0.78855 0.0
H950 H 0.92095 0.60775 0.8452 0.0
H951 H 0.90377 0.60508 0.79883 0.0
C952 C 0.86946 0.61168 0.93028 0.0
C953 C 0.8514 0.60527 0.92556 0.0
C954 C 0.88392 0.60476 0.90195 0.0
C955 C 0.88029 0.59174 0.86794 0.0
C956 C 0.86174 0.58824 0.85634 0.0
H957 H 0.93917 0.50271 0.76495 0.0
H958 H 0.91704 0.52552 0.78918 0.0
C959 C 0.8473 0.59488 0.88537 0.0
C960 C 0.89475 0.57804 0.859 0.0
H961 H 0.93877 0.56998 0.81685 0.0
C962 C 0.89144 0.56139 0.8783 0.0
C963 C 0.91208 0.58137 0.8372 0.0
C964 C 0.91632 0.59898 0.81591 0.0
C965 C 0.90482 0.54789 0.8757 0.0
C966 C 0.92195 0.5511 0.85316 0.0
C967 C 0.92558 0.56777 0.83463 0.0
C968 C 0.93508 0.53659 0.84287 0.0
C969 C 0.90057 0.53022 0.89685 0.0
C970 C 0.95237 0.53514 0.86614 0.0
C971 C 0.96517 0.52197 0.85238 0.0
C972 C 0.96064 0.51024 0.81557 0.0
C973 C 0.94285 0.5112 0.79462 0.0
C974 C 0.93027 0.52439 0.80781 0.0
H975 H 0.8883 0.53085 0.92135 0.0
H976 H 0.89756 0.521 0.86709 0.0
H977 H 0.91273 0.52483 0.91722 0.0
H978 H 0.95614 0.54448 0.89361 0.0
H979 H 0.97885 0.52144 0.86866 0.0
H980 H 0.98886 0.16514 0.07604 0.0
H981 H 0.98842 0.13994 0.02119 0.0
H982 H 0.03742 0.15823 0.94907 0.0
H983 H 0.03784 0.18354 0.00358 0.0
H984 H 0.98864 0.14105 0.91101 0.0
H985 H 0.04903 0.10562 0.99525 0.0
H986 H 0.03545 0.12215 0.02718 0.0
H987 H 0.05153 0.12845 0.98111 0.0
C988 C 0.99957 0.16373 0.0486 0.0
C989 C 0.01346 0.17622 0.04426 0.0
C990 C 0.99926 0.1494 0.0172 0.0
C991 C 0.013 0.14714 0.98142 0.0
C992 C 0.02678 0.15967 0.97669 0.0
H993 H 0.02886 0.05959 0.77467 0.0
H994 H 0.03422 0.0863 0.82224 0.0
C995 C 0.02696 0.17413 0.00768 0.0
C996 C 0.01292 0.1316 0.94929 0.0
H997 H 0.03509 0.09221 0.92807 0.0
C998 C 0.99884 0.13041 0.91453 0.0
C999 C 0.02631 0.1178 0.95381 0.0
C1000 C 0.04143 0.11838 0.99147 0.0
C1001 C 0.99769 0.11568 0.88443 0.0
C1002 C 0.01076 0.1016 0.88985 0.0
C1003 C 0.02513 0.103 0.92383 0.0
C1004 C 0.00865 0.08485 0.8633 0.0
C1005 C 0.98245 0.11526 0.84707 0.0
C1006 C 0.99289 0.07491 0.87176 0.0
C1007 C 0.9898 0.05986 0.84477 0.0
C1008 C 1.00254 0.05417 0.80905 0.0
C1009 C 0.01888 0.06358 0.80219 0.0
C1010 C 0.02189 0.07886 0.82913 0.0
H1011 H 0.97673 0.12858 0.83888 0.0
H1012 H 0.9876 0.10918 0.81294 0.0
H1013 H 0.97091 0.10732 0.86105 0.0
H1014 H 0.98271 0.07901 0.89869 0.0
H1015 H 0.97719 0.0528 0.85132 0.0
H1016 H 0.33945 0.10557 0.00491 0.0
H1017 H 0.36358 0.09543 0.94764 0.0
H1018 H 0.38302 0.05705 0.0515 0.0
H1019 H 0.35895 0.06697 0.10862 0.0
H1020 H 0.40487 0.092 0.96084 0.0
H1021 H 0.37103 0.02904 0.92488 0.0
H1022 H 0.35863 0.04782 0.94983 0.0
H1023 H 0.3734 0.0344 0.98787 0.0
C1024 C 0.34888 0.09498 0.01559 0.0
C1025 C 0.3472 0.0871 0.06152 0.0
C1026 C 0.36273 0.08925 0.98285 0.0
C1027 C 0.37505 0.07536 0.99502 0.0
C1028 C 0.37361 0.0677 0.04109 0.0
H1029 H 0.4599 0.00843 0.86941 0.0
H1030 H 0.43729 0.02458 0.91976 0.0
C1031 C 0.35991 0.0735 0.07393 0.0
C1032 C 0.38917 0.06849 0.95958 0.0
H1033 H 0.402 0.0316 0.89687 0.0
C1034 C 0.40422 0.07884 0.94647 0.0
C1035 C 0.38821 0.05141 0.94039 0.0
C1036 C 0.37189 0.04002 0.95098 0.0
C1037 C 0.41881 0.07224 0.91677 0.0
C1038 C 0.41822 0.05485 0.89903 0.0
C1039 C 0.40272 0.04481 0.91079 0.0
C1040 C 0.43372 0.04636 0.87017 0.0
C1041 C 0.43505 0.08371 0.90634 0.0
C1042 C 0.43976 0.05328 0.82567 0.0
C1043 C 0.45311 0.04415 0.79726 0.0
C1044 C 0.46052 0.02785 0.81254 0.0
C1045 C 0.45473 0.02113 0.85726 0.0
C1046 C 0.44165 0.03031 0.88583 0.0
H1047 H 0.43559 0.0949 0.93186 0.0
H1048 H 0.4484 0.07611 0.90847 0.0
H1049 H 0.43367 0.08912 0.86918 0.0
H1050 H 0.43358 0.06534 0.81182 0.0
H1051 H 0.45685 0.04936 0.76217 0.0
H1052 H 0.52391 0.32029 0.99044 0.0
H1053 H 0.52298 0.34569 0.93613 0.0
H1054 H 0.49358 0.37592 0.04471 0.0
H1055 H 0.49374 0.35056 0.09849 0.0
H1056 H 0.48764 0.3672 0.90675 0.0
H1057 H 0.54203 0.40409 1.00202 0.0
H1058 H 0.54069 0.38055 0.00516 0.0
H1059 H 0.52483 0.39408 0.03972 0.0
C1060 C 0.51702 0.33225 1.00268 0.0
C1061 C 0.50893 0.33325 0.04918 0.0
C1062 C 0.51662 0.3468 0.97161 0.0
C1063 C 0.50833 0.36272 0.98654 0.0
C1064 C 0.50024 0.3638 0.03268 0.0
H1065 H 0.49879 0.46938 0.87631 0.0
H1066 H 0.49593 0.44237 0.92431 0.0
C1067 C 0.50046 0.34926 0.06354 0.0
C1068 C 0.50785 0.37828 0.95408 0.0
H1069 H 0.52464 0.41943 0.94223 0.0
C1070 C 0.49577 0.37861 0.91426 0.0
C1071 C 0.51854 0.39309 0.96385 0.0
C1072 C 0.53239 0.39302 0.00475 0.0
C1073 C 0.4936 0.39363 0.88493 0.0
C1074 C 0.50398 0.40867 0.89537 0.0
C1075 C 0.51638 0.4081 0.93467 0.0
C1076 C 0.50288 0.42488 0.86501 0.0
C1077 C 0.47984 0.39334 0.84384 0.0
C1078 C 0.50727 0.42409 0.81553 0.0
C1079 C 0.50863 0.43942 0.78823 0.0
C1080 C 0.50574 0.45593 0.80963 0.0
C1081 C 0.50058 0.45682 0.85862 0.0
C1082 C 0.49919 0.44139 0.88611 0.0
H1083 H 0.46921 0.38326 0.84963 0.0
H1084 H 0.47265 0.40626 0.83922 0.0
H1085 H 0.48733 0.39007 0.80975 0.0
H1086 H 0.51069 0.41168 0.79846 0.0
H1087 H 0.51304 0.43841 0.75077 0.0
H1088 H 0.15462 0.40116 0.06794 0.0
H1089 H 0.12974 0.40969 0.01089 0.0
H1090 H 0.15245 0.46115 0.99926 0.0
H1091 H 0.17752 0.45247 0.05423 0.0
H1092 H 0.10235 0.43278 0.01108 0.0
H1093 H 0.14797 0.45128 0.86005 0.0
H1094 H 0.15692 0.44005 0.91287 0.0
H1095 H 0.15357 0.46353 0.9129 0.0
C1096 C 0.15429 0.41426 0.05299 0.0
C1097 C 0.16823 0.42604 0.06516 0.0
C1098 C 0.14007 0.41915 0.02026 0.0
C1099 C 0.13937 0.43597 0.99923 0.0
C1100 C 0.15295 0.44788 0.01299 0.0
H1101 H 0.0699 0.50755 0.84819 0.0
H1102 H 0.09117 0.49007 0.89774 0.0
C1103 C 0.16726 0.44294 0.0449 0.0
C1104 C 0.12427 0.44139 0.96423 0.0
H1105 H 0.11662 0.46344 0.85776 0.0
C1106 C 0.10551 0.43918 0.97712 0.0
C1107 C 0.12817 0.44956 0.91927 0.0
C1108 C 0.14776 0.45105 0.90026 0.0
C1109 C 0.09077 0.44586 0.94811 0.0
C1110 C 0.09478 0.45507 0.90502 0.0
C1111 C 0.11346 0.45652 0.89096 0.0
C1112 C 0.08019 0.46518 0.87703 0.0
C1113 C 0.07101 0.44383 0.96487 0.0
C1114 C 0.06644 0.4571 0.84911 0.0
C1115 C 0.05396 0.46724 0.82022 0.0
C1116 C 0.05518 0.4856 0.81857 0.0
C1117 C 0.06858 0.49347 0.84795 0.0
C1118 C 0.08084 0.48346 0.87651 0.0
H1119 H 0.07021 0.43726 1.00069 0.0
H1120 H 0.06385 0.45685 0.96724 0.0
H1121 H 0.0634 0.43595 0.93808 0.0
H1122 H 0.06573 0.44298 0.84845 0.0
H1123 H 0.04398 0.46071 0.79779 0.0
H1124 H 0.03227 0.82705 0.43476 0.0
H1125 H 0.02984 0.85318 0.48639 0.0
H1126 H 0.98085 0.87068 0.40872 0.0
H1127 H 0.98339 0.84475 0.35661 0.0
H1128 H 0.02871 0.88994 0.44661 0.0
H1129 H 0.96737 0.87371 0.55941 0.0
H1130 H 0.98187 0.85714 0.53032 0.0
H1131 H 0.96569 0.87007 0.49517 0.0
C1132 C 0.02088 0.83639 0.42909 0.0
C1133 C 0.00803 0.83387 0.39163 0.0
C1134 C 0.01952 0.85131 0.45851 0.0
C1135 C 1.00505 0.8638 0.45174 0.0
C1136 C 0.99201 0.86114 0.41495 0.0
H1137 H 0.98634 0.96744 0.59257 0.0
H1138 H 0.98096 0.94106 0.54308 0.0
C1139 C 0.99354 0.84638 0.38502 0.0
C1140 C 1.00426 0.88014 0.48103 0.0
H1141 H 0.9798 0.90176 0.57019 0.0
C1142 C 0.01797 0.89255 0.47345 0.0
C1143 C 0.99018 0.88358 0.51589 0.0
C1144 C 0.97545 0.87043 0.52617 0.0
C1145 C 0.01802 0.90825 0.4998 0.0
C1146 C 1.00417 0.9116 0.53538 0.0
C1147 C 0.99026 0.89931 0.54255 0.0
C1148 C 1.00545 0.92681 0.56877 0.0
C1149 C 0.03309 0.92112 0.48968 0.0
C1150 C 0.02045 0.92725 0.60079 0.0
C1151 C 0.02353 0.94209 0.62839 0.0
C1152 C 0.01166 0.95702 0.6252 0.0
C1153 C 0.99582 0.95625 0.59554 0.0
C1154 C 0.99277 0.94121 0.56731 0.0
H1155 H 0.0395 0.91896 0.45349 0.0
H1156 H 0.02752 0.93479 0.49164 0.0
H1157 H 0.04419 0.9195 0.51729 0.0
H1158 H 0.03021 0.91623 0.60333 0.0
H1159 H 0.03564 0.94196 0.65166 0.0
H1160 H 0.6809 0.95668 0.40152 0.0
H1161 H 0.6544 0.96417 0.45429 0.0
H1162 H 0.63101 0.91396 0.42592 0.0
H1163 H 0.65742 0.90654 0.37199 0.0
H1164 H 0.61372 0.96177 0.41615 0.0
H1165 H 0.63024 0.92337 0.58287 0.0
H1166 H 0.64835 0.93057 0.54263 0.0
H1167 H 0.63354 0.91337 0.52424 0.0
C1168 C 0.67021 0.94716 0.40691 0.0
C1169 C 0.67122 0.93104 0.38252 0.0
C1170 C 0.65507 0.95145 0.43711 0.0
C1171 C 0.64075 0.93959 0.44448 0.0
C1172 C 0.64193 0.92328 0.4211 0.0
H1173 H 0.54204 0.96357 0.63437 0.0
H1174 H 0.56339 0.94659 0.58059 0.0
C1175 C 0.65695 0.91909 0.39011 0.0
C1176 C 0.62397 0.94505 0.47331 0.0
H1177 H 0.60365 0.94218 0.58526 0.0
C1178 C 0.61141 0.9573 0.45291 0.0
C1179 C 0.62078 0.93909 0.52108 0.0
C1180 C 0.63388 0.92589 0.54444 0.0
C1181 C 0.59612 0.96416 0.47926 0.0
C1182 C 0.59345 0.95904 0.52811 0.0
C1183 C 0.60557 0.94615 0.54793 0.0
C1184 C 0.57986 0.96875 0.56028 0.0
C1185 C 0.58312 0.97713 0.45454 0.0
C1186 C 0.5819 0.98675 0.56691 0.0
C1187 C 0.56979 0.99635 0.59685 0.0
C1188 C 0.55523 0.98833 0.62206 0.0
C1189 C 0.55293 0.97025 0.61521 0.0
C1190 C 0.56524 0.96051 0.58483 0.0
H1191 H 0.58296 0.97503 0.41476 0.0
H1192 H 0.5687 0.97623 0.46858 0.0
H1193 H 0.58797 0.99056 0.46112 0.0
H1194 H 0.59316 0.99344 0.54934 0.0
H1195 H 0.57213 0.0102 0.60085 0.0
H1196 H 0.47592 0.66108 0.36455 0.0
H1197 H 0.48149 0.63552 0.4166 0.0
H1198 H 0.52509 0.66234 0.4902 0.0
H1199 H 0.51979 0.68788 0.43799 0.0
H1200 H 0.51701 0.61664 0.42455 0.0
H1201 H 0.49261 0.64291 0.60221 0.0
H1202 H 0.48532 0.65263 0.54543 0.0
H1203 H 0.50837 0.65588 0.5676 0.0
C1204 C 0.48671 0.66156 0.39174 0.0
C1205 C 0.49739 0.67658 0.39699 0.0
C1206 C 0.4898 0.64697 0.42168 0.0
C1207 C 0.50356 0.64709 0.45768 0.0
C1208 C 0.51415 0.66208 0.46336 0.0
H1209 H 0.52517 0.56145 0.66893 0.0
H1210 H 0.52997 0.58879 0.62353 0.0
C1211 C 0.51108 0.67667 0.43341 0.0
C1212 C 0.50753 0.63108 0.48702 0.0
H1213 H 0.50379 0.61367 0.60061 0.0
C1214 C 0.51423 0.61602 0.46312 0.0
C1215 C 0.50431 0.63039 0.53753 0.0
C1216 C 0.49716 0.64625 0.56495 0.0
C1217 C 0.51731 0.60017 0.48793 0.0
C1218 C 0.51299 0.5991 0.5379 0.0
C1219 C 0.50708 0.6144 0.56236 0.0
C1220 C 0.51229 0.58191 0.56351 0.0
C1221 C 0.52508 0.58468 0.45999 0.0
C1222 C 0.50107 0.56883 0.54474 0.0
C1223 C 0.49863 0.55326 0.56999 0.0
C1224 C 0.50709 0.55036 0.61519 0.0
C1225 C 0.51891 0.5631 0.63352 0.0
C1226 C 0.52141 0.57883 0.60795 0.0
H1227 H 0.53425 0.58898 0.43009 0.0
H1228 H 0.53314 0.57551 0.48364 0.0
H1229 H 0.51345 0.57758 0.44345 0.0
H1230 H 0.49341 0.57098 0.51146 0.0
H1231 H 0.48915 0.54385 0.5554 0.0
H1232 H 0.86963 0.5864 0.32362 0.0
H1233 H 0.89475 0.57747 0.37837 0.0
H1234 H 0.85474 0.56836 0.4913 0.0
H1235 H 0.82954 0.57564 0.4359 0.0
H1236 H 0.90853 0.58813 0.45985 0.0
H1237 H 0.88079 0.5226 0.49606 0.0
H1238 H 0.87079 0.53696 0.45081 0.0
H1239 H 0.86465 0.53966 0.51374 0.0
C1240 C 0.86604 0.58217 0.35976 0.0
C1241 C 0.84727 0.58153 0.37445 0.0
C1242 C 0.88056 0.57725 0.39143 0.0
C1243 C 0.8768 0.57165 0.43891 0.0
C1244 C 0.85817 0.57194 0.4545 0.0
H1245 H 0.9423 0.53194 0.68144 0.0
H1246 H 0.91973 0.54753 0.62975 0.0
C1247 C 0.84365 0.57652 0.42268 0.0
C1248 C 0.89226 0.56526 0.47164 0.0
H1249 H 0.90592 0.53119 0.5453 0.0
C1250 C 0.90797 0.57561 0.47821 0.0
C1251 C 0.89177 0.54887 0.49583 0.0
C1252 C 0.87619 0.53632 0.48839 0.0
C1253 C 0.92286 0.5702 0.50857 0.0
C1254 C 0.92215 0.55398 0.53318 0.0
C1255 C 0.90648 0.54367 0.52671 0.0
C1256 C 0.93729 0.54729 0.56613 0.0
C1257 C 0.9391 0.58201 0.51493 0.0
C1258 C 0.95505 0.54235 0.54828 0.0
C1259 C 0.96813 0.53351 0.57817 0.0
C1260 C 0.96364 0.52943 0.62638 0.0
C1261 C 0.94624 0.53512 0.64464 0.0
C1262 C 0.93327 0.54395 0.61499 0.0
H1263 H 0.93603 0.59542 0.50099 0.0
H1264 H 0.94298 0.58285 0.55372 0.0
H1265 H 0.95127 0.57649 0.49488 0.0
H1266 H 0.95842 0.54445 0.51054 0.0
H1267 H 0.98121 0.52888 0.56276 0.0
loop_
_geom_bond_atom_site_label_1
_geom_bond_atom_site_label_2
_geom_bond_distance
_geom_bond_site_symmetry_2
_ccdc_geom_bond_type
C0 C1 1.264 . S
C0 C5 1.479 . S
C0 C10 1.465 . S
C1 C0 1.264 . S
C1 C3 1.339 . S
C1 H28 0.931 . S
C2 C3 1.395 . S
C2 C4 1.320 . S
C3 C1 1.339 . S
C3 C2 1.395 . S
C3 H29 0.929 . S
C4 C2 1.320 . S
C4 C5 1.405 . S
C4 H30 0.930 . S
C5 C0 1.479 . S
C5 C4 1.405 . S
C5 H31 0.931 . S
U6 O7 2.454 . S
U6 O8 2.458 . S
U6 C9 2.984 . S
U6 C10 2.847 . S
U6 C23 2.882 . S
U6 O24 2.441 . S
U6 O25 2.420 . S
U6 O26 2.455 . S
U6 O27 2.449 . S
O7 U6 2.454 . S
O7 C9 1.353 . S
O8 U6 2.458 . S
O8 C9 1.286 . S
C9 U6 2.984 . S
C9 O7 1.353 . S
C9 O8 1.286 . S
C9 C11 1.363 . S
C10 C0 1.465 . S
C10 U6 2.847 . S
C10 O24 1.249 . S
C10 O25 1.202 . S
C11 C9 1.363 . S
C11 C13 1.408 . S
C11 C16 1.342 . S
C12 C13 1.310 . S
C12 C15 1.461 . S
C12 H32 0.932 . S
C13 C11 1.408 . S
C13 C12 1.310 . S
C13 H33 0.930 . S
C14 C15 1.474 . S
C14 C16 1.285 . S
C14 H34 0.929 1_554 S
C15 C12 1.461 . S
C15 C14 1.474 . S
C16 C11 1.342 . S
C16 C14 1.285 . S
C16 H35 0.930 1_554 S
C17 C20 1.424 1_556 S
C17 C22 1.245 . S
C17 C23 1.428 1_556 S
C18 C21 1.260 . S
C18 C22 1.477 . S
C18 H36 0.932 . S
C19 C20 1.384 1_556 S
C19 C21 1.479 . S
C19 H37 0.929 . S
C20 C17 1.424 1_554 S
C20 C19 1.384 1_554 S
C20 H38 0.928 . S
C21 C18 1.260 . S
C21 C19 1.479 . S
C22 C17 1.245 . S
C22 C18 1.477 . S
C22 H39 0.932 . S
C23 U6 2.882 . S
C23 C17 1.428 1_554 S
C23 O26 1.301 . S
C23 O27 1.282 . S
O24 U6 2.441 . S
O24 C10 1.249 . S
O25 U6 2.420 . S
O25 C10 1.202 . S
O26 U6 2.455 . S
O26 C23 1.301 . S
O27 U6 2.449 . S
O27 C23 1.282 . S
H28 C1 0.931 . S
H29 C3 0.929 . S
H30 C4 0.930 . S
H31 C5 0.931 . S
H32 C12 0.932 . S
H33 C13 0.930 . S
H34 C14 0.929 1_556 S
H35 C16 0.930 1_556 S
H36 C18 0.932 . S
H37 C19 0.929 . S
H38 C20 0.928 . S
H39 C22 0.932 . S
C40 C41 1.264 . S
C40 C45 1.479 . S
C40 C50 1.465 . S
C41 C40 1.264 . S
C41 C43 1.339 . S
C41 H68 0.931 . S
C42 C43 1.395 . S
C42 C44 1.320 . S
C43 C41 1.339 . S
C43 C42 1.395 . S
C43 H69 0.929 . S
C44 C42 1.320 . S
C44 C45 1.405 . S
C44 H70 0.920 1_455 S
C45 C40 1.479 . S
C45 C44 1.405 . S
C45 H71 0.931 . S
U46 O47 2.454 . S
U46 O48 2.458 . S
U46 C49 2.984 . S
U46 C50 2.847 . S
U46 C63 2.882 . S
U46 O64 2.441 . S
U46 O65 2.420 . S
U46 O66 2.455 . S
U46 O67 2.449 . S
O47 U46 2.454 . S
O47 C49 1.353 . S
O48 U46 2.458 . S
O48 C49 1.286 . S
C49 U46 2.984 . S
C49 O47 1.353 . S
C49 O48 1.286 . S
C49 C51 1.363 . S
C50 C40 1.465 . S
C50 U46 2.847 . S
C50 O64 1.249 . S
C50 O65 1.202 . S
C51 C49 1.363 . S
C51 C53 1.408 . S
C51 C56 1.342 . S
C52 C53 1.310 . S
C52 C55 1.461 . S
C52 H72 0.932 . S
C53 C51 1.408 . S
C53 C52 1.310 . S
C53 H73 0.930 . S
C54 C55 1.474 1_655 S
C54 C56 1.285 1_655 S
C54 H74 0.930 1_554 S
C55 C52 1.461 . S
C55 C54 1.474 1_455 S
C56 C51 1.342 . S
C56 C54 1.285 1_455 S
C56 H75 0.932 . S
C57 C60 1.424 . S
C57 C62 1.245 1_554 S
C57 C63 1.428 . S
C58 C61 1.260 . S
C58 C62 1.477 . S
C58 H76 0.932 . S
C59 C60 1.384 1_556 S
C59 C61 1.479 . S
C59 H77 0.930 . S
C60 C57 1.424 . S
C60 C59 1.384 1_554 S
C60 H78 0.928 . S
C61 C58 1.260 . S
C61 C59 1.479 . S
C62 C57 1.245 1_556 S
C62 C58 1.477 . S
C62 H79 0.932 . S
C63 U46 2.882 . S
C63 C57 1.428 . S
C63 O66 1.301 . S
C63 O67 1.282 . S
O64 U46 2.441 . S
O64 C50 1.249 . S
O65 U46 2.420 . S
O65 C50 1.202 . S
O66 U46 2.455 . S
O66 C63 1.301 . S
O67 U46 2.449 . S
O67 C63 1.282 . S
H68 C41 0.931 . S
H69 C43 0.929 . S
H70 C44 0.920 1_655 S
H71 C45 0.931 . S
H72 C52 0.932 . S
H73 C53 0.930 . S
H74 C54 0.930 1_556 S
H75 C56 0.932 . S
H76 C58 0.932 . S
H77 C59 0.930 . S
H78 C60 0.928 . S
H79 C62 0.932 . S
C80 C81 1.264 . S
C80 C85 1.479 . S
C80 C90 1.465 . S
C81 C80 1.264 . S
C81 C83 1.339 . S
C81 H108 0.931 . S
C82 C83 1.395 . S
C82 C84 1.320 . S
C83 C81 1.339 . S
C83 C82 1.395 . S
C83 H109 0.929 . S
C84 C82 1.320 . S
C84 C85 1.405 . S
C84 H110 0.930 . S
C85 C80 1.479 . S
C85 C84 1.405 . S
C85 H111 0.931 . S
U86 O87 2.454 . S
U86 O88 2.458 . S
U86 C89 2.984 . S
U86 C90 2.847 . S
U86 C103 2.882 . S
U86 O104 2.441 . S
U86 O105 2.420 . S
U86 O106 2.455 . S
U86 O107 2.449 . S
O87 U86 2.454 . S
O87 C89 1.353 . S
O88 U86 2.458 . S
O88 C89 1.286 . S
C89 U86 2.984 . S
C89 O87 1.353 . S
C89 O88 1.286 . S
C89 C91 1.363 . S
C90 C80 1.465 . S
C90 U86 2.847 . S
C90 O104 1.249 . S
C90 O105 1.202 . S
C91 C89 1.363 . S
C91 C93 1.408 . S
C91 C96 1.342 . S
C92 C93 1.310 . S
C92 C95 1.461 . S
C92 H112 0.932 . S
C93 C91 1.408 . S
C93 C92 1.310 . S
C93 H113 0.930 . S
C94 C95 1.474 . S
C94 C96 1.285 . S
C94 H114 0.929 1_554 S
C95 C92 1.461 . S
C95 C94 1.474 . S
C96 C91 1.342 . S
C96 C94 1.285 . S
C96 H115 0.930 1_554 S
C97 C100 1.424 1_556 S
C97 C102 1.245 . S
C97 C103 1.428 1_556 S
C98 C101 1.260 . S
C98 C102 1.477 . S
C98 H116 0.932 . S
C99 C100 1.384 1_556 S
C99 C101 1.479 . S
C99 H117 0.929 . S
C100 C97 1.424 1_554 S
C100 C99 1.384 1_554 S
C100 H118 0.928 . S
C101 C98 1.260 . S
C101 C99 1.479 . S
C102 C97 1.245 . S
C102 C98 1.477 . S
C102 H119 0.932 . S
C103 U86 2.882 . S
C103 C97 1.428 1_554 S
C103 O106 1.301 . S
C103 O107 1.282 . S
O104 U86 2.441 . S
O104 C90 1.249 . S
O105 U86 2.420 . S
O105 C90 1.202 . S
O106 U86 2.455 . S
O106 C103 1.301 . S
O107 U86 2.449 . S
O107 C103 1.282 . S
H108 C81 0.931 . S
H109 C83 0.929 . S
H110 C84 0.930 . S
H111 C85 0.931 . S
H112 C92 0.932 . S
H113 C93 0.930 . S
H114 C94 0.929 1_556 S
H115 C96 0.930 1_556 S
H116 C98 0.932 . S
H117 C99 0.929 . S
H118 C100 0.928 . S
H119 C102 0.932 . S
C120 C121 1.264 . S
C120 C125 1.479 . S
C120 C130 1.465 . S
C121 C120 1.264 . S
C121 C123 1.339 . S
C121 H148 0.931 . S
C122 C123 1.395 . S
C122 C124 1.320 . S
C123 C121 1.339 . S
C123 C122 1.395 . S
C123 H149 0.929 . S
C124 C122 1.320 . S
C124 C125 1.405 . S
C124 H150 0.930 . S
C125 C120 1.479 . S
C125 C124 1.405 . S
C125 H151 0.931 . S
U126 O127 2.454 . S
U126 O128 2.458 . S
U126 C129 2.984 . S
U126 C130 2.847 . S
U126 C143 2.882 . S
U126 O144 2.441 . S
U126 O145 2.420 . S
U126 O146 2.455 . S
U126 O147 2.449 . S
O127 U126 2.454 . S
O127 C129 1.353 . S
O128 U126 2.458 . S
O128 C129 1.286 . S
C129 U126 2.984 . S
C129 O127 1.353 . S
C129 O128 1.286 . S
C129 C131 1.363 . S
C130 C120 1.465 . S
C130 U126 2.847 . S
C130 O144 1.249 . S
C130 O145 1.202 . S
C131 C129 1.363 . S
C131 C133 1.408 . S
C131 C136 1.342 . S
C132 C133 1.310 . S
C132 C135 1.461 . S
C132 H152 0.932 . S
C133 C131 1.408 . S
C133 C132 1.310 . S
C133 H153 0.930 . S
C134 C135 1.474 . S
C134 C136 1.285 . S
C134 H154 0.929 1_554 S
C135 C132 1.461 . S
C135 C134 1.474 . S
C136 C131 1.342 . S
C136 C134 1.285 . S
C136 H155 0.930 . S
C137 C140 1.424 . S
C137 C142 1.245 1_554 S
C137 C143 1.428 . S
C138 C141 1.260 . S
C138 C142 1.477 . S
C138 H156 0.932 . S
C139 C140 1.384 1_556 S
C139 C141 1.479 . S
C139 H157 0.929 1_556 S
C140 C137 1.424 . S
C140 C139 1.384 1_554 S
C140 H158 0.928 . S
C141 C138 1.260 . S
C141 C139 1.479 . S
C142 C137 1.245 1_556 S
C142 C138 1.477 . S
C142 H159 0.932 . S
C143 U126 2.882 . S
C143 C137 1.428 . S
C143 O146 1.301 . S
C143 O147 1.282 . S
O144 U126 2.441 . S
O144 C130 1.249 . S
O145 U126 2.420 . S
O145 C130 1.202 . S
O146 U126 2.455 . S
O146 C143 1.301 . S
O147 U126 2.449 . S
O147 C143 1.282 . S
H148 C121 0.931 . S
H149 C123 0.929 . S
H150 C124 0.930 . S
H151 C125 0.931 . S
H152 C132 0.932 . S
H153 C133 0.930 . S
H154 C134 0.929 1_556 S
H155 C136 0.930 . S
H156 C138 0.932 . S
H157 C139 0.929 1_554 S
H158 C140 0.928 . S
H159 C142 0.932 . S
C160 C161 1.264 . S
C160 C165 1.479 . S
C160 C170 1.465 . S
C161 C160 1.264 . S
C161 C163 1.339 . S
C161 H188 0.931 . S
C162 C163 1.395 . S
C162 C164 1.320 . S
C163 C161 1.339 . S
C163 C162 1.395 . S
C163 H189 0.929 . S
C164 C162 1.320 . S
C164 C165 1.405 . S
C164 H190 0.930 . S
C165 C160 1.479 . S
C165 C164 1.405 . S
C165 H191 0.931 . S
U166 O167 2.454 . S
U166 O168 2.458 . S
U166 C169 2.984 . S
U166 C170 2.847 . S
U166 C183 2.882 . S
U166 O184 2.441 . S
U166 O185 2.420 . S
U166 O186 2.455 . S
U166 O187 2.449 . S
O167 U166 2.454 . S
O167 C169 1.353 . S
O168 U166 2.458 . S
O168 C169 1.286 . S
C169 U166 2.984 . S
C169 O167 1.353 . S
C169 O168 1.286 . S
C169 C171 1.363 . S
C170 C160 1.465 . S
C170 U166 2.847 . S
C170 O184 1.249 . S
C170 O185 1.202 . S
C171 C169 1.363 . S
C171 C173 1.408 . S
C171 C176 1.342 . S
C172 C173 1.310 . S
C172 C175 1.461 . S
C172 H192 0.932 . S
C173 C171 1.408 . S
C173 C172 1.310 . S
C173 H193 0.930 . S
C174 C175 1.474 . S
C174 C176 1.285 . S
C174 H194 0.929 . S
C175 C172 1.461 . S
C175 C174 1.474 . S
C176 C171 1.342 . S
C176 C174 1.285 . S
C176 H195 0.930 . S
C177 C180 1.424 . S
C177 C182 1.245 . S
C177 C183 1.428 . S
C178 C181 1.260 . S
C178 C182 1.477 . S
C178 H196 0.932 . S
C179 C180 1.384 . S
C179 C181 1.479 . S
C179 H197 0.929 . S
C180 C177 1.424 . S
C180 C179 1.384 . S
C180 H198 0.928 . S
C181 C178 1.260 . S
C181 C179 1.479 . S
C182 C177 1.245 . S
C182 C178 1.477 . S
C182 H199 0.932 . S
C183 U166 2.882 . S
C183 C177 1.428 . S
C183 O186 1.301 . S
C183 O187 1.282 . S
O184 U166 2.441 . S
O184 C170 1.249 . S
O185 U166 2.420 . S
O185 C170 1.202 . S
O186 U166 2.455 . S
O186 C183 1.301 . S
O187 U166 2.449 . S
O187 C183 1.282 . S
H188 C161 0.931 . S
H189 C163 0.929 . S
H190 C164 0.930 . S
H191 C165 0.931 . S
H192 C172 0.932 . S
H193 C173 0.930 . S
H194 C174 0.929 . S
H195 C176 0.930 . S
H196 C178 0.932 . S
H197 C179 0.929 . S
H198 C180 0.928 . S
H199 C182 0.932 . S
C200 C201 1.264 . S
C200 C205 1.479 . S
C200 C210 1.465 . S
C201 C200 1.264 . S
C201 C203 1.339 . S
C201 H228 0.931 . S
C202 C203 1.395 . S
C202 C204 1.320 . S
C203 C201 1.339 . S
C203 C202 1.395 . S
C203 H229 0.929 . S
C204 C202 1.320 . S
C204 C205 1.405 . S
C204 H230 0.924 1_455 S
C205 C200 1.479 . S
C205 C204 1.405 . S
C205 H231 0.931 . S
U206 O207 2.454 . S
U206 O208 2.458 . S
U206 C209 2.984 . S
U206 C210 2.847 . S
U206 C223 2.882 . S
U206 O224 2.441 . S
U206 O225 2.420 . S
U206 O226 2.455 . S
U206 O227 2.449 . S
O207 U206 2.454 . S
O207 C209 1.353 . S
O208 U206 2.458 . S
O208 C209 1.286 . S
C209 U206 2.984 . S
C209 O207 1.353 . S
C209 O208 1.286 . S
C209 C211 1.363 . S
C210 C200 1.465 . S
C210 U206 2.847 . S
C210 O224 1.249 . S
C210 O225 1.202 . S
C211 C209 1.363 . S
C211 C213 1.408 . S
C211 C216 1.342 . S
C212 C213 1.310 . S
C212 C215 1.462 . S
C212 H232 0.932 . S
C213 C211 1.408 . S
C213 C212 1.310 . S
C213 H233 0.930 . S
C214 C215 1.473 . S
C214 C216 1.285 . S
C214 H234 0.930 1_455 S
C215 C212 1.462 . S
C215 C214 1.473 . S
C216 C211 1.342 . S
C216 C214 1.285 . S
C216 H235 0.935 . S
C217 C220 1.424 . S
C217 C222 1.245 . S
C217 C223 1.428 . S
C218 C221 1.260 . S
C218 C222 1.477 . S
C218 H236 0.932 . S
C219 C220 1.384 . S
C219 C221 1.479 . S
C219 H237 0.929 . S
C220 C217 1.424 . S
C220 C219 1.384 . S
C220 H238 0.928 . S
C221 C218 1.260 . S
C221 C219 1.479 . S
C222 C217 1.245 . S
C222 C218 1.477 . S
C222 H239 0.932 . S
C223 U206 2.882 . S
C223 C217 1.428 . S
C223 O226 1.301 . S
C223 O227 1.282 . S
O224 U206 2.441 . S
O224 C210 1.249 . S
O225 U206 2.420 . S
O225 C210 1.202 . S
O226 U206 2.455 . S
O226 C223 1.301 . S
O227 U206 2.449 . S
O227 C223 1.282 . S
H228 C201 0.931 . S
H229 C203 0.929 . S
H230 C204 0.924 1_655 S
H231 C205 0.931 . S
H232 C212 0.932 . S
H233 C213 0.930 . S
H234 C214 0.930 1_655 S
H235 C216 0.935 . S
H236 C218 0.932 . S
H237 C219 0.929 . S
H238 C220 0.928 . S
H239 C222 0.932 . S
C240 C241 1.264 . S
C240 C245 1.479 . S
C240 C250 1.465 . S
C241 C240 1.264 . S
C241 C243 1.339 . S
C241 H268 0.931 . S
C242 C243 1.395 . S
C242 C244 1.320 . S
C243 C241 1.339 . S
C243 C242 1.395 . S
C243 H269 0.929 . S
C244 C242 1.320 . S
C244 C245 1.405 . S
C244 H270 0.930 . S
C245 C240 1.479 . S
C245 C244 1.405 . S
C245 H271 0.931 . S
U246 O247 2.454 . S
U246 O248 2.458 . S
U246 C249 2.984 . S
U246 C250 2.847 . S
U246 C263 2.882 . S
U246 O264 2.441 . S
U246 O265 2.420 . S
U246 O266 2.455 . S
U246 O267 2.449 . S
O247 U246 2.454 . S
O247 C249 1.353 . S
O248 U246 2.458 . S
O248 C249 1.286 . S
C249 U246 2.984 . S
C249 O247 1.353 . S
C249 O248 1.286 . S
C249 C251 1.363 . S
C250 C240 1.465 . S
C250 U246 2.847 . S
C250 O264 1.249 . S
C250 O265 1.202 . S
C251 C249 1.363 . S
C251 C253 1.408 . S
C251 C256 1.342 . S
C252 C253 1.310 . S
C252 C255 1.461 . S
C252 H272 0.932 . S
C253 C251 1.408 . S
C253 C252 1.310 . S
C253 H273 0.930 . S
C254 C255 1.474 . S
C254 C256 1.285 . S
C254 H274 0.929 . S
C255 C252 1.461 . S
C255 C254 1.474 . S
C256 C251 1.342 . S
C256 C254 1.285 . S
C256 H275 0.930 . S
C257 C260 1.424 . S
C257 C262 1.245 . S
C257 C263 1.428 . S
C258 C261 1.260 . S
C258 C262 1.477 . S
C258 H276 0.932 . S
C259 C260 1.384 . S
C259 C261 1.479 . S
C259 H277 0.929 . S
C260 C257 1.424 . S
C260 C259 1.384 . S
C260 H278 0.928 . S
C261 C258 1.260 . S
C261 C259 1.479 . S
C262 C257 1.245 . S
C262 C258 1.477 . S
C262 H279 0.932 . S
C263 U246 2.882 . S
C263 C257 1.428 . S
C263 O266 1.301 . S
C263 O267 1.282 . S
O264 U246 2.441 . S
O264 C250 1.249 . S
O265 U246 2.420 . S
O265 C250 1.202 . S
O266 U246 2.455 . S
O266 C263 1.301 . S
O267 U246 2.449 . S
O267 C263 1.282 . S
H268 C241 0.931 . S
H269 C243 0.929 . S
H270 C244 0.930 . S
H271 C245 0.931 . S
H272 C252 0.932 . S
H273 C253 0.930 . S
H274 C254 0.929 . S
H275 C256 0.930 . S
H276 C258 0.932 . S
H277 C259 0.929 . S
H278 C260 0.928 . S
H279 C262 0.932 . S
C280 C281 1.264 . S
C280 C285 1.479 . S
C280 C290 1.465 . S
C281 C280 1.264 . S
C281 C283 1.339 . S
C281 H308 0.931 . S
C282 C283 1.395 . S
C282 C284 1.320 . S
C283 C281 1.339 . S
C283 C282 1.395 . S
C283 H309 0.929 . S
C284 C282 1.320 . S
C284 C285 1.405 . S
C284 H310 0.930 . S
C285 C280 1.479 . S
C285 C284 1.405 . S
C285 H311 0.931 . S
U286 O287 2.454 . S
U286 O288 2.458 . S
U286 C289 2.984 . S
U286 C290 2.847 . S
U286 C303 2.882 . S
U286 O304 2.441 . S
U286 O305 2.420 . S
U286 O306 2.455 . S
U286 O307 2.449 . S
O287 U286 2.454 . S
O287 C289 1.353 . S
O288 U286 2.458 . S
O288 C289 1.286 . S
C289 U286 2.984 . S
C289 O287 1.353 . S
C289 O288 1.286 . S
C289 C291 1.363 . S
C290 C280 1.465 . S
C290 U286 2.847 . S
C290 O304 1.249 . S
C290 O305 1.202 . S
C291 C289 1.363 . S
C291 C293 1.408 . S
C291 C296 1.342 . S
C292 C293 1.310 . S
C292 C295 1.461 . S
C292 H312 0.932 . S
C293 C291 1.408 . S
C293 C292 1.310 . S
C293 H313 0.930 . S
C294 C295 1.474 . S
C294 C296 1.285 . S
C294 H314 0.929 . S
C295 C292 1.461 . S
C295 C294 1.474 . S
C296 C291 1.342 . S
C296 C294 1.285 . S
C296 H315 0.930 . S
C297 C300 1.424 . S
C297 C302 1.245 . S
C297 C303 1.428 . S
C298 C301 1.260 . S
C298 C302 1.477 . S
C298 H316 0.932 . S
C299 C300 1.384 . S
C299 C301 1.479 . S
C299 H317 0.929 . S
C300 C297 1.424 . S
C300 C299 1.384 . S
C300 H318 0.928 . S
C301 C298 1.260 . S
C301 C299 1.479 . S
C302 C297 1.245 . S
C302 C298 1.477 . S
C302 H319 0.932 . S
C303 U286 2.882 . S
C303 C297 1.428 . S
C303 O306 1.301 . S
C303 O307 1.282 . S
O304 U286 2.441 . S
O304 C290 1.249 . S
O305 U286 2.420 . S
O305 C290 1.202 . S
O306 U286 2.455 . S
O306 C303 1.301 . S
O307 U286 2.449 . S
O307 C303 1.282 . S
H308 C281 0.931 . S
H309 C283 0.929 . S
H310 C284 0.930 . S
H311 C285 0.931 . S
H312 C292 0.932 . S
H313 C293 0.930 . S
H314 C294 0.929 . S
H315 C296 0.930 . S
H316 C298 0.932 . S
H317 C299 0.929 . S
H318 C300 0.928 . S
H319 C302 0.932 . S
O320 Mn321 2.147 1_455 S
O320 C334 1.244 . S
Mn321 O320 2.147 1_655 S
Mn321 O324 2.172 1_545 S
Mn321 O325 2.175 1_655 S
Mn321 O327 2.161 1_645 S
Mn321 O329 2.168 . S
Mn321 O339 2.269 . S
O322 Mn323 2.087 . S
O322 C334 1.256 1_655 S
Mn323 O322 2.087 . S
Mn323 O330 2.089 . S
Mn323 O339 2.290 . S
Mn323 O340 2.251 . S
O324 Mn321 2.172 1_565 S
O324 C335 1.239 . S
O325 Mn321 2.175 1_455 S
O325 Mn326 2.290 1_545 S
O325 C336 1.278 . S
Mn326 O325 2.290 1_565 S
Mn326 O328 2.089 . S
Mn326 O331 2.251 . S
Mn326 O332 2.087 . S
O327 Mn321 2.161 1_465 S
O327 C337 1.244 . S
O328 Mn326 2.089 . S
O328 C335 1.256 1_455 S
O329 Mn321 2.168 . S
O329 C338 1.239 . S
O330 Mn323 2.089 . S
O330 C338 1.256 . S
O331 Mn326 2.251 . S
O331 C336 1.241 1_565 S
O332 Mn326 2.087 . S
O332 C337 1.256 . S
C333 O339 1.278 . S
C333 O340 1.241 . S
C334 O320 1.244 . S
C334 O322 1.256 1_455 S
C335 O324 1.239 . S
C335 O328 1.256 1_655 S
C336 O325 1.278 . S
C336 O331 1.241 1_545 S
C337 O327 1.244 . S
C337 O332 1.256 . S
C338 O329 1.239 . S
C338 O330 1.256 . S
O339 Mn321 2.269 . S
O339 Mn323 2.290 . S
O339 C333 1.278 . S
O340 Mn323 2.251 . S
O340 C333 1.241 . S
O341 Mn342 2.158 1_565 S
O341 C355 1.236 1_565 S
Mn342 O341 2.158 1_545 S
Mn342 O345 2.160 . S
Mn342 O346 2.221 1_545 S
Mn342 O348 2.163 . S
Mn342 O350 2.160 1_545 S
Mn342 O360 2.221 . S
O343 Mn344 2.087 . S
O343 C355 1.256 . S
Mn344 O343 2.087 . S
Mn344 O351 2.089 . S
Mn344 O360 2.290 . S
Mn344 O361 2.251 . S
O345 Mn342 2.160 . S
O345 C356 1.239 . S
O346 Mn342 2.221 1_565 S
O346 Mn347 2.290 . S
O346 C357 1.278 . S
Mn347 O346 2.290 . S
Mn347 O349 2.089 1_565 S
Mn347 O352 2.251 . S
Mn347 O353 2.087 1_565 S
O348 Mn342 2.163 . S
O348 C358 1.244 . S
O349 Mn347 2.089 1_545 S
O349 C356 1.256 . S
O350 Mn342 2.160 1_565 S
O350 C359 1.239 . S
O351 Mn344 2.089 . S
O351 C359 1.256 1_545 S
O352 Mn347 2.251 . S
O352 C357 1.241 . S
O353 Mn347 2.087 1_545 S
O353 C358 1.256 . S
C354 O360 1.278 . S
C354 O361 1.241 . S
C355 O341 1.236 1_545 S
C355 O343 1.256 . S
C356 O345 1.239 . S
C356 O349 1.256 . S
C357 O346 1.278 . S
C357 O352 1.241 . S
C358 O348 1.244 . S
C358 O353 1.256 . S
C359 O350 1.239 . S
C359 O351 1.256 1_565 S
O360 Mn342 2.221 . S
O360 Mn344 2.290 . S
O360 C354 1.278 . S
O361 Mn344 2.251 . S
O361 C354 1.241 . S
O362 Mn363 2.163 . S
O362 C376 1.244 . S
Mn363 O362 2.163 . S
Mn363 O366 2.160 . S
Mn363 O367 2.221 . S
Mn363 O369 2.163 . S
Mn363 O371 2.160 . S
Mn363 O381 2.221 . S
O364 Mn365 2.087 . S
O364 C376 1.256 . S
Mn365 O364 2.087 . S
Mn365 O372 2.089 . S
Mn365 O381 2.290 . S
Mn365 O382 2.251 . S
O366 Mn363 2.160 . S
O366 C377 1.239 . S
O367 Mn363 2.221 . S
O367 Mn368 2.290 . S
O367 C378 1.278 . S
Mn368 O367 2.290 . S
Mn368 O370 2.089 . S
Mn368 O373 2.251 . S
Mn368 O374 2.087 . S
O369 Mn363 2.163 . S
O369 C379 1.244 . S
O370 Mn368 2.089 . S
O370 C377 1.256 . S
O371 Mn363 2.160 . S
O371 C380 1.239 . S
O372 Mn365 2.089 . S
O372 C380 1.256 . S
O373 Mn368 2.251 . S
O373 C378 1.241 . S
O374 Mn368 2.087 . S
O374 C379 1.256 . S
C375 O381 1.278 . S
C375 O382 1.241 . S
C376 O362 1.244 . S
C376 O364 1.256 . S
C377 O366 1.239 . S
C377 O370 1.256 . S
C378 O367 1.278 . S
C378 O373 1.241 . S
C379 O369 1.244 . S
C379 O374 1.256 . S
C380 O371 1.239 . S
C380 O372 1.256 . S
O381 Mn363 2.221 . S
O381 Mn365 2.290 . S
O381 C375 1.278 . S
O382 Mn365 2.251 . S
O382 C375 1.241 . S
O383 Mn384 2.163 . S
O383 C397 1.244 . S
Mn384 O383 2.163 . S
Mn384 O387 2.160 1_455 S
Mn384 O388 2.221 1_455 S
Mn384 O390 2.163 1_455 S
Mn384 O392 2.160 . S
Mn384 O402 2.221 . S
O385 Mn386 2.087 . S
O385 C397 1.256 . S
Mn386 O385 2.087 . S
Mn386 O393 2.089 . S
Mn386 O402 2.290 . S
Mn386 O403 2.251 . S
O387 Mn384 2.160 1_655 S
O387 C398 1.239 . S
O388 Mn384 2.221 1_655 S
O388 Mn389 2.290 . S
O388 C399 1.278 . S
Mn389 O388 2.290 . S
Mn389 O391 2.089 . S
Mn389 O394 2.251 . S
Mn389 O395 2.087 . S
O390 Mn384 2.163 1_655 S
O390 C400 1.244 . S
O391 Mn389 2.089 . S
O391 C398 1.256 . S
O392 Mn384 2.160 . S
O392 C401 1.239 . S
O393 Mn386 2.089 . S
O393 C401 1.256 . S
O394 Mn389 2.251 . S
O394 C399 1.241 . S
O395 Mn389 2.087 . S
O395 C400 1.256 . S
C396 O402 1.278 . S
C396 O403 1.241 . S
C397 O383 1.244 . S
C397 O385 1.256 . S
C398 O387 1.239 . S
C398 O391 1.256 . S
C399 O388 1.278 . S
C399 O394 1.241 . S
C400 O390 1.244 . S
C400 O395 1.256 . S
C401 O392 1.239 . S
C401 O393 1.256 . S
O402 Mn384 2.221 . S
O402 Mn386 2.290 . S
O402 C396 1.278 . S
O403 Mn386 2.251 . S
O403 C396 1.241 . S
H404 C412 0.929 . S
H405 C414 0.930 . S
H406 C416 0.930 . S
H407 C419 0.929 . S
H408 C422 0.930 . S
H409 C424 0.960 . S
H410 C424 0.960 . S
H411 C424 0.960 . S
C412 H404 0.929 . S
C412 C413 1.377 . S
C412 C414 1.384 . S
C413 C412 1.377 . S
C413 C419 1.390 . S
C414 H405 0.930 . S
C414 C412 1.384 . S
C414 C415 1.372 . S
C415 C414 1.372 . S
C415 C416 1.400 . S
C415 C420 1.490 . S
C416 H406 0.930 . S
C416 C415 1.400 . S
C416 C419 1.386 . S
H417 C433 0.930 . S
H418 C434 0.931 . S
C419 H407 0.929 . S
C419 C413 1.390 . S
C419 C416 1.386 . S
C420 C415 1.490 . S
C420 C422 1.395 . S
C420 C423 1.403 . S
H421 C427 0.930 . S
C422 H408 0.930 . S
C422 C420 1.395 . S
C422 C425 1.403 . S
C423 C420 1.403 . S
C423 C424 1.524 . S
C423 C427 1.400 . S
C424 H409 0.960 . S
C424 H410 0.960 . S
C424 H411 0.960 . S
C424 C423 1.524 . S
C425 C422 1.403 . S
C425 C426 1.392 . S
C425 C429 1.495 . S
C426 C425 1.392 . S
C426 C427 1.385 . S
C426 C428 1.478 . S
C427 H421 0.930 . S
C427 C423 1.400 . S
C427 C426 1.385 . S
C428 C426 1.478 . S
C428 C430 1.381 . S
C428 C434 1.383 . S
C429 C425 1.495 . S
C429 H435 0.959 . S
C429 H436 0.961 . S
C429 H437 0.960 . S
C430 C428 1.381 . S
C430 C431 1.394 . S
C430 H438 0.930 . S
C431 C430 1.394 . S
C431 C432 1.383 . S
C431 H439 0.929 . S
C432 C431 1.383 . S
C432 C433 1.377 . S
C433 H417 0.930 . S
C433 C432 1.377 . S
C433 C434 1.379 . S
C434 H418 0.931 . S
C434 C428 1.383 . S
C434 C433 1.379 . S
H435 C429 0.959 . S
H436 C429 0.961 . S
H437 C429 0.960 . S
H438 C430 0.930 . S
H439 C431 0.929 . S
H440 C448 0.929 . S
H441 C450 0.930 . S
H442 C452 0.930 . S
H443 C455 0.929 . S
H444 C458 0.930 . S
H445 C460 0.960 . S
H446 C460 0.960 . S
H447 C460 0.960 . S
C448 H440 0.929 . S
C448 C449 1.377 . S
C448 C450 1.384 . S
C449 C448 1.377 . S
C449 C455 1.390 . S
C450 H441 0.930 . S
C450 C448 1.384 . S
C450 C451 1.372 . S
C451 C450 1.372 . S
C451 C452 1.400 . S
C451 C456 1.490 . S
C452 H442 0.930 . S
C452 C451 1.400 . S
C452 C455 1.386 . S
H453 C469 0.930 . S
H454 C470 0.931 . S
C455 H443 0.929 . S
C455 C449 1.390 . S
C455 C452 1.386 . S
C456 C451 1.490 . S
C456 C458 1.395 . S
C456 C459 1.403 . S
H457 C463 0.930 . S
C458 H444 0.930 . S
C458 C456 1.395 . S
C458 C461 1.403 . S
C459 C456 1.403 . S
C459 C460 1.524 . S
C459 C463 1.400 . S
C460 H445 0.960 . S
C460 H446 0.960 . S
C460 H447 0.960 . S
C460 C459 1.524 . S
C461 C458 1.403 . S
C461 C462 1.392 . S
C461 C465 1.495 . S
C462 C461 1.392 . S
C462 C463 1.385 . S
C462 C464 1.478 . S
C463 H457 0.930 . S
C463 C459 1.400 . S
C463 C462 1.385 . S
C464 C462 1.478 . S
C464 C466 1.381 . S
C464 C470 1.383 . S
C465 C461 1.495 . S
C465 H471 0.959 . S
C465 H472 0.961 . S
C465 H473 0.960 . S
C466 C464 1.381 . S
C466 C467 1.394 . S
C466 H474 0.930 . S
C467 C466 1.394 . S
C467 C468 1.383 . S
C467 H475 0.929 . S
C468 C467 1.383 . S
C468 C469 1.377 . S
C469 H453 0.930 . S
C469 C468 1.377 . S
C469 C470 1.379 . S
C470 H454 0.931 . S
C470 C464 1.383 . S
C470 C469 1.379 . S
H471 C465 0.959 . S
H472 C465 0.961 . S
H473 C465 0.960 . S
H474 C466 0.930 . S
H475 C467 0.929 . S
H476 C484 0.929 . S
H477 C486 0.930 . S
H478 C488 0.930 . S
H479 C491 0.929 . S
H480 C494 0.930 . S
H481 C496 0.960 . S
H482 C496 0.960 . S
H483 C496 0.960 . S
C484 H476 0.929 . S
C484 C485 1.377 . S
C484 C486 1.384 . S
C485 C484 1.377 . S
C485 C491 1.390 . S
C486 H477 0.930 . S
C486 C484 1.384 . S
C486 C487 1.372 . S
C487 C486 1.372 . S
C487 C488 1.400 . S
C487 C492 1.490 . S
C488 H478 0.930 . S
C488 C487 1.400 . S
C488 C491 1.386 . S
H489 C505 0.930 . S
H490 C506 0.931 . S
C491 H479 0.929 . S
C491 C485 1.390 . S
C491 C488 1.386 . S
C492 C487 1.490 . S
C492 C494 1.395 . S
C492 C495 1.403 . S
H493 C499 0.930 . S
C494 H480 0.930 . S
C494 C492 1.395 . S
C494 C497 1.403 . S
C495 C492 1.403 . S
C495 C496 1.524 . S
C495 C499 1.400 . S
C496 H481 0.960 . S
C496 H482 0.960 . S
C496 H483 0.960 . S
C496 C495 1.524 . S
C497 C494 1.403 . S
C497 C498 1.392 . S
C497 C501 1.495 . S
C498 C497 1.392 . S
C498 C499 1.385 . S
C498 C500 1.478 . S
C499 H493 0.930 . S
C499 C495 1.400 . S
C499 C498 1.385 . S
C500 C498 1.478 . S
C500 C502 1.381 . S
C500 C506 1.383 . S
C501 C497 1.495 . S
C501 H507 0.959 . S
C501 H508 0.961 . S
C501 H509 0.960 . S
C502 C500 1.381 . S
C502 C503 1.394 . S
C502 H510 0.930 . S
C503 C502 1.394 . S
C503 C504 1.383 . S
C503 H511 0.929 . S
C504 C503 1.383 . S
C504 C505 1.377 . S
C505 H489 0.930 . S
C505 C504 1.377 . S
C505 C506 1.379 . S
C506 H490 0.931 . S
C506 C500 1.383 . S
C506 C505 1.379 . S
H507 C501 0.959 . S
H508 C501 0.961 . S
H509 C501 0.960 . S
H510 C502 0.930 . S
H511 C503 0.929 . S
H512 C520 0.929 . S
H513 C522 0.930 . S
H514 C524 0.930 . S
H515 C527 0.928 1_455 S
H516 C530 0.930 . S
H517 C532 0.960 . S
H518 C532 0.960 . S
H519 C532 0.960 . S
C520 H512 0.929 . S
C520 C521 1.379 . S
C520 C522 1.384 . S
C521 C520 1.379 . S
C521 C527 1.389 . S
C522 H513 0.930 . S
C522 C520 1.384 . S
C522 C523 1.372 . S
C523 C522 1.372 . S
C523 C524 1.403 . S
C523 C528 1.490 . S
C524 H514 0.930 . S
C524 C523 1.403 . S
C524 C527 1.386 . S
H525 C541 0.924 1_455 S
H526 C542 0.931 . S
C527 H515 0.928 1_655 S
C527 C521 1.389 . S
C527 C524 1.386 . S
C528 C523 1.490 . S
C528 C530 1.395 1_655 S
C528 C531 1.403 . S
H529 C535 0.930 . S
C530 H516 0.930 . S
C530 C528 1.395 1_455 S
C530 C533 1.403 . S
C531 C528 1.403 . S
C531 C532 1.524 . S
C531 C535 1.400 . S
C532 H517 0.960 . S
C532 H518 0.960 . S
C532 H519 0.960 . S
C532 C531 1.524 . S
C533 C530 1.403 . S
C533 C534 1.390 1_455 S
C533 C537 1.495 . S
C534 C533 1.390 1_655 S
C534 C535 1.387 . S
C534 C536 1.478 . S
C535 H529 0.930 . S
C535 C531 1.400 . S
C535 C534 1.387 . S
C536 C534 1.478 . S
C536 C538 1.385 . S
C536 C542 1.380 1_655 S
C537 C533 1.495 . S
C537 H543 0.959 . S
C537 H544 0.961 . S
C537 H545 0.960 . S
C538 C536 1.385 . S
C538 C539 1.394 . S
C538 H546 0.930 . S
C539 C538 1.394 . S
C539 C540 1.383 . S
C539 H547 0.929 . S
C540 C539 1.383 . S
C540 C541 1.378 . S
C541 H525 0.924 1_655 S
C541 C540 1.378 . S
C541 C542 1.379 1_655 S
C542 H526 0.931 . S
C542 C536 1.380 1_455 S
C542 C541 1.379 1_455 S
H543 C537 0.959 . S
H544 C537 0.961 . S
H545 C537 0.960 . S
H546 C538 0.930 . S
H547 C539 0.929 . S
H548 C556 0.929 . S
H549 C558 0.930 . S
H550 C560 0.930 . S
H551 C563 0.929 . S
H552 C566 0.930 . S
H553 C568 0.960 . S
H554 C568 0.960 . S
H555 C568 0.960 . S
C556 H548 0.929 . S
C556 C557 1.377 1_556 S
C556 C558 1.384 . S
C557 C556 1.377 1_554 S
C557 C563 1.390 . S
C558 H549 0.930 . S
C558 C556 1.384 . S
C558 C559 1.372 . S
C559 C558 1.372 . S
C559 C560 1.400 1_556 S
C559 C564 1.490 . S
C560 H550 0.930 . S
C560 C559 1.400 1_554 S
C560 C563 1.386 . S
H561 C577 0.927 . S
H562 C578 0.931 . S
C563 H551 0.929 . S
C563 C557 1.390 . S
C563 C560 1.386 . S
C564 C559 1.490 . S
C564 C566 1.395 . S
C564 C567 1.403 . S
H565 C571 0.930 . S
C566 H552 0.930 . S
C566 C564 1.395 . S
C566 C569 1.403 . S
C567 C564 1.403 . S
C567 C568 1.524 . S
C567 C571 1.400 . S
C568 H553 0.960 . S
C568 H554 0.960 . S
C568 H555 0.960 . S
C568 C567 1.524 . S
C569 C566 1.403 . S
C569 C570 1.392 . S
C569 C573 1.495 . S
C570 C569 1.392 . S
C570 C571 1.385 . S
C570 C572 1.478 . S
C571 H565 0.930 . S
C571 C567 1.400 . S
C571 C570 1.385 . S
C572 C570 1.478 . S
C572 C574 1.381 . S
C572 C578 1.383 . S
C573 C569 1.495 . S
C573 H579 0.959 . S
C573 H580 0.961 . S
C573 H581 0.960 . S
C574 C572 1.381 . S
C574 C575 1.394 . S
C574 H582 0.930 . S
C575 C574 1.394 . S
C575 C576 1.383 . S
C575 H583 0.929 . S
C576 C575 1.383 . S
C576 C577 1.377 . S
C577 H561 0.927 . S
C577 C576 1.377 . S
C577 C578 1.379 . S
C578 H562 0.931 . S
C578 C572 1.383 . S
C578 C577 1.379 . S
H579 C573 0.959 . S
H580 C573 0.961 . S
H581 C573 0.960 . S
H582 C574 0.930 . S
H583 C575 0.929 . S
H584 C592 0.929 . S
H585 C594 0.930 . S
H586 C596 0.930 . S
H587 C599 0.929 . S
H588 C602 0.930 . S
H589 C604 0.960 . S
H590 C604 0.960 . S
H591 C604 0.960 1_554 S
C592 H584 0.929 . S
C592 C593 1.377 1_556 S
C592 C594 1.384 . S
C593 C592 1.377 1_554 S
C593 C599 1.390 . S
C594 H585 0.930 . S
C594 C592 1.384 . S
C594 C595 1.372 . S
C595 C594 1.372 . S
C595 C596 1.400 1_556 S
C595 C600 1.490 . S
C596 H586 0.930 . S
C596 C595 1.400 1_554 S
C596 C599 1.386 . S
H597 C613 0.930 . S
H598 C614 0.931 . S
C599 H587 0.929 . S
C599 C593 1.390 . S
C599 C596 1.386 . S
C600 C595 1.490 . S
C600 C602 1.395 . S
C600 C603 1.403 . S
H601 C607 0.930 . S
C602 H588 0.930 . S
C602 C600 1.395 . S
C602 C605 1.403 . S
C603 C600 1.403 . S
C603 C604 1.524 . S
C603 C607 1.400 . S
C604 H589 0.960 . S
C604 H590 0.960 . S
C604 H591 0.960 1_556 S
C604 C603 1.524 . S
C605 C602 1.403 . S
C605 C606 1.392 . S
C605 C609 1.495 . S
C606 C605 1.392 . S
C606 C607 1.385 . S
C606 C608 1.478 . S
C607 H601 0.930 . S
C607 C603 1.400 . S
C607 C606 1.385 . S
C608 C606 1.478 . S
C608 C610 1.381 . S
C608 C614 1.383 . S
C609 C605 1.495 . S
C609 H615 0.959 . S
C609 H616 0.961 . S
C609 H617 0.960 . S
C610 C608 1.381 . S
C610 C611 1.394 . S
C610 H618 0.930 . S
C611 C610 1.394 . S
C611 C612 1.383 . S
C611 H619 0.929 . S
C612 C611 1.383 . S
C612 C613 1.377 . S
C613 H597 0.930 . S
C613 C612 1.377 . S
C613 C614 1.379 . S
C614 H598 0.931 . S
C614 C608 1.383 . S
C614 C613 1.379 . S
H615 C609 0.959 . S
H616 C609 0.961 . S
H617 C609 0.960 . S
H618 C610 0.930 . S
H619 C611 0.929 . S
H620 C628 0.929 . S
H621 C630 0.930 . S
H622 C632 0.930 . S
H623 C635 0.929 1_554 S
H624 C638 0.930 . S
H625 C640 0.960 . S
H626 C640 0.960 . S
H627 C640 0.960 . S
C628 H620 0.929 . S
C628 C629 1.377 1_556 S
C628 C630 1.384 . S
C629 C628 1.377 1_554 S
C629 C635 1.390 1_554 S
C630 H621 0.930 . S
C630 C628 1.384 . S
C630 C631 1.372 . S
C631 C630 1.372 . S
C631 C632 1.400 . S
C631 C636 1.490 . S
C632 H622 0.930 . S
C632 C631 1.400 . S
C632 C635 1.386 . S
H633 C649 0.930 . S
H634 C650 0.931 . S
C635 H623 0.929 1_556 S
C635 C629 1.390 1_556 S
C635 C632 1.386 . S
C636 C631 1.490 . S
C636 C638 1.395 . S
C636 C639 1.403 . S
H637 C643 0.930 . S
C638 H624 0.930 . S
C638 C636 1.395 . S
C638 C641 1.403 . S
C639 C636 1.403 . S
C639 C640 1.524 . S
C639 C643 1.400 . S
C640 H625 0.960 . S
C640 H626 0.960 . S
C640 H627 0.960 . S
C640 C639 1.524 . S
C641 C638 1.403 . S
C641 C642 1.392 . S
C641 C645 1.495 . S
C642 C641 1.392 . S
C642 C643 1.385 . S
C642 C644 1.478 . S
C643 H637 0.930 . S
C643 C639 1.400 . S
C643 C642 1.385 . S
C644 C642 1.478 . S
C644 C646 1.381 . S
C644 C650 1.383 . S
C645 C641 1.495 . S
C645 H651 0.959 . S
C645 H652 0.961 . S
C645 H653 0.960 . S
C646 C644 1.381 . S
C646 C647 1.394 . S
C646 H654 0.930 . S
C647 C646 1.394 . S
C647 C648 1.383 . S
C647 H655 0.929 . S
C648 C647 1.383 . S
C648 C649 1.377 . S
C649 H633 0.930 . S
C649 C648 1.377 . S
C649 C650 1.379 . S
C650 H634 0.931 . S
C650 C644 1.383 . S
C650 C649 1.379 . S
H651 C645 0.959 . S
H652 C645 0.961 . S
H653 C645 0.960 . S
H654 C646 0.930 . S
H655 C647 0.929 . S
H656 C664 0.929 . S
H657 C666 0.930 . S
H658 C668 0.930 . S
H659 C671 0.929 . S
H660 C674 0.930 . S
H661 C676 0.960 . S
H662 C676 0.960 . S
H663 C676 0.960 . S
C664 H656 0.929 . S
C664 C665 1.392 . S
C664 C666 1.384 1_554 S
C665 C664 1.392 . S
C665 C671 1.375 1_455 S
C666 H657 0.930 . S
C666 C664 1.384 1_556 S
C666 C667 1.372 . S
C667 C666 1.372 . S
C667 C668 1.400 1_455 S
C667 C672 1.490 . S
C668 H658 0.930 . S
C668 C667 1.400 1_655 S
C668 C671 1.386 1_556 S
H669 C685 0.930 . S
H670 C686 0.931 . S
C671 H659 0.929 . S
C671 C665 1.375 1_655 S
C671 C668 1.386 1_554 S
C672 C667 1.490 . S
C672 C674 1.395 . S
C672 C675 1.403 1_455 S
H673 C679 0.930 . S
C674 H660 0.930 . S
C674 C672 1.395 . S
C674 C677 1.403 . S
C675 C672 1.403 1_655 S
C675 C676 1.524 . S
C675 C679 1.400 . S
C676 H661 0.960 . S
C676 H662 0.960 . S
C676 H663 0.960 . S
C676 C675 1.524 . S
C677 C674 1.403 . S
C677 C678 1.392 . S
C677 C681 1.495 . S
C678 C677 1.392 . S
C678 C679 1.385 1_455 S
C678 C680 1.478 . S
C679 H673 0.930 . S
C679 C675 1.400 . S
C679 C678 1.385 1_655 S
C680 C678 1.478 . S
C680 C682 1.381 . S
C680 C686 1.383 1_455 S
C681 C677 1.495 . S
C681 H687 0.959 . S
C681 H688 0.961 . S
C681 H689 0.960 . S
C682 C680 1.381 . S
C682 C683 1.394 . S
C682 H690 0.930 . S
C683 C682 1.394 . S
C683 C684 1.383 . S
C683 H691 0.929 . S
C684 C683 1.383 . S
C684 C685 1.377 1_455 S
C685 H669 0.930 . S
C685 C684 1.377 1_655 S
C685 C686 1.379 . S
C686 H670 0.931 . S
C686 C680 1.383 1_655 S
C686 C685 1.379 . S
H687 C681 0.959 . S
H688 C681 0.961 . S
H689 C681 0.960 . S
H690 C682 0.930 . S
H691 C683 0.929 . S
H692 C700 0.929 . S
H693 C702 0.930 . S
H694 C704 0.930 . S
H695 C707 0.929 . S
H696 C710 0.930 . S
H697 C712 0.960 . S
H698 C712 0.960 . S
H699 C712 0.960 . S
C700 H692 0.929 . S
C700 C701 1.377 1_655 S
C700 C702 1.384 . S
C701 C700 1.377 1_455 S
C701 C707 1.390 . S
C702 H693 0.930 . S
C702 C700 1.384 . S
C702 C703 1.372 . S
C703 C702 1.372 . S
C703 C704 1.400 1_655 S
C703 C708 1.490 . S
C704 H694 0.930 . S
C704 C703 1.400 1_455 S
C704 C707 1.386 . S
H705 C721 0.930 . S
H706 C722 0.931 . S
C707 H695 0.929 . S
C707 C701 1.390 . S
C707 C704 1.386 . S
C708 C703 1.490 . S
C708 C710 1.395 . S
C708 C711 1.403 1_655 S
H709 C715 0.930 . S
C710 H696 0.930 . S
C710 C708 1.395 . S
C710 C713 1.403 . S
C711 C708 1.403 1_455 S
C711 C712 1.524 . S
C711 C715 1.400 . S
C712 H697 0.960 . S
C712 H698 0.960 . S
C712 H699 0.960 . S
C712 C711 1.524 . S
C713 C710 1.403 . S
C713 C714 1.392 . S
C713 C717 1.495 . S
C714 C713 1.392 . S
C714 C715 1.385 1_655 S
C714 C716 1.478 . S
C715 H709 0.930 . S
C715 C711 1.400 . S
C715 C714 1.385 1_455 S
C716 C714 1.478 . S
C716 C718 1.381 . S
C716 C722 1.383 . S
C717 C713 1.495 . S
C717 H723 0.959 . S
C717 H724 0.961 . S
C717 H725 0.960 . S
C718 C716 1.381 . S
C718 C719 1.394 . S
C718 H726 0.930 . S
C719 C718 1.394 . S
C719 C720 1.383 . S
C719 H727 0.929 . S
C720 C719 1.383 . S
C720 C721 1.377 . S
C721 H705 0.930 . S
C721 C720 1.377 . S
C721 C722 1.379 . S
C722 H706 0.931 . S
C722 C716 1.383 . S
C722 C721 1.379 . S
H723 C717 0.959 . S
H724 C717 0.961 . S
H725 C717 0.960 . S
H726 C718 0.930 . S
H727 C719 0.929 . S
H728 C736 0.929 . S
H729 C738 0.930 . S
H730 C740 0.930 . S
H731 C743 0.929 . S
H732 C746 0.930 . S
H733 C748 0.960 . S
H734 C748 0.960 . S
H735 C748 0.960 . S
C736 H728 0.929 . S
C736 C737 1.377 . S
C736 C738 1.384 . S
C737 C736 1.377 . S
C737 C743 1.390 . S
C738 H729 0.930 . S
C738 C736 1.384 . S
C738 C739 1.372 . S
C739 C738 1.372 . S
C739 C740 1.400 . S
C739 C744 1.490 . S
C740 H730 0.930 . S
C740 C739 1.400 . S
C740 C743 1.386 . S
H741 C757 0.930 . S
H742 C758 0.931 . S
C743 H731 0.929 . S
C743 C737 1.390 . S
C743 C740 1.386 . S
C744 C739 1.490 . S
C744 C746 1.395 . S
C744 C747 1.403 . S
H745 C751 0.930 . S
C746 H732 0.930 . S
C746 C744 1.395 . S
C746 C749 1.403 . S
C747 C744 1.403 . S
C747 C748 1.524 . S
C747 C751 1.400 . S
C748 H733 0.960 . S
C748 H734 0.960 . S
C748 H735 0.960 . S
C748 C747 1.524 . S
C749 C746 1.403 . S
C749 C750 1.392 . S
C749 C753 1.495 . S
C750 C749 1.392 . S
C750 C751 1.385 . S
C750 C752 1.478 . S
C751 H745 0.930 . S
C751 C747 1.400 . S
C751 C750 1.385 . S
C752 C750 1.478 . S
C752 C754 1.381 . S
C752 C758 1.383 . S
C753 C749 1.495 . S
C753 H759 0.959 . S
C753 H760 0.961 . S
C753 H761 0.960 . S
C754 C752 1.381 . S
C754 C755 1.394 . S
C754 H762 0.930 . S
C755 C754 1.394 . S
C755 C756 1.383 . S
C755 H763 0.929 . S
C756 C755 1.383 . S
C756 C757 1.377 . S
C757 H741 0.930 . S
C757 C756 1.377 . S
C757 C758 1.379 . S
C758 H742 0.931 . S
C758 C752 1.383 . S
C758 C757 1.379 . S
H759 C753 0.959 . S
H760 C753 0.961 . S
H761 C753 0.960 . S
H762 C754 0.930 . S
H763 C755 0.929 . S
H764 C772 0.929 . S
H765 C774 0.930 . S
H766 C776 0.930 . S
H767 C779 0.929 . S
H768 C782 0.930 . S
H769 C784 0.960 . S
H770 C784 0.960 . S
H771 C784 0.960 . S
C772 H764 0.929 . S
C772 C773 1.377 . S
C772 C774 1.384 . S
C773 C772 1.377 . S
C773 C779 1.390 . S
C774 H765 0.930 . S
C774 C772 1.384 . S
C774 C775 1.372 . S
C775 C774 1.372 . S
C775 C776 1.400 . S
C775 C780 1.490 . S
C776 H766 0.930 . S
C776 C775 1.400 . S
C776 C779 1.386 . S
H777 C793 0.930 . S
H778 C794 0.931 . S
C779 H767 0.929 . S
C779 C773 1.390 . S
C779 C776 1.386 . S
C780 C775 1.490 . S
C780 C782 1.395 . S
C780 C783 1.403 . S
H781 C787 0.930 . S
C782 H768 0.930 . S
C782 C780 1.395 . S
C782 C785 1.403 . S
C783 C780 1.403 . S
C783 C784 1.524 . S
C783 C787 1.400 . S
C784 H769 0.960 . S
C784 H770 0.960 . S
C784 H771 0.960 . S
C784 C783 1.524 . S
C785 C782 1.403 . S
C785 C786 1.392 . S
C785 C789 1.495 . S
C786 C785 1.392 . S
C786 C787 1.385 . S
C786 C788 1.478 . S
C787 H781 0.930 . S
C787 C783 1.400 . S
C787 C786 1.385 . S
C788 C786 1.478 . S
C788 C790 1.381 . S
C788 C794 1.383 . S
C789 C785 1.495 . S
C789 H795 0.959 . S
C789 H796 0.961 . S
C789 H797 0.960 . S
C790 C788 1.381 . S
C790 C791 1.394 . S
C790 H798 0.930 . S
C791 C790 1.394 . S
C791 C792 1.383 . S
C791 H799 0.929 . S
C792 C791 1.383 . S
C792 C793 1.377 . S
C793 H777 0.930 . S
C793 C792 1.377 . S
C793 C794 1.379 . S
C794 H778 0.931 . S
C794 C788 1.383 . S
C794 C793 1.379 . S
H795 C789 0.959 . S
H796 C789 0.961 . S
H797 C789 0.960 . S
H798 C790 0.930 . S
H799 C791 0.929 . S
H800 C808 0.929 . S
H801 C810 0.930 . S
H802 C812 0.930 . S
H803 C815 0.929 . S
H804 C818 0.930 . S
H805 C820 0.960 . S
H806 C820 0.960 . S
H807 C820 0.960 . S
C808 H800 0.929 . S
C808 C809 1.377 . S
C808 C810 1.384 . S
C809 C808 1.377 . S
C809 C815 1.390 . S
C810 H801 0.930 . S
C810 C808 1.384 . S
C810 C811 1.372 . S
C811 C810 1.372 . S
C811 C812 1.400 . S
C811 C816 1.490 . S
C812 H802 0.930 . S
C812 C811 1.400 . S
C812 C815 1.386 . S
H813 C829 0.930 . S
H814 C830 0.931 . S
C815 H803 0.929 . S
C815 C809 1.390 . S
C815 C812 1.386 . S
C816 C811 1.490 . S
C816 C818 1.395 . S
C816 C819 1.403 . S
H817 C823 0.930 . S
C818 H804 0.930 . S
C818 C816 1.395 . S
C818 C821 1.403 . S
C819 C816 1.403 . S
C819 C820 1.524 . S
C819 C823 1.400 . S
C820 H805 0.960 . S
C820 H806 0.960 . S
C820 H807 0.960 . S
C820 C819 1.524 . S
C821 C818 1.403 . S
C821 C822 1.392 . S
C821 C825 1.495 . S
C822 C821 1.392 . S
C822 C823 1.385 . S
C822 C824 1.478 . S
C823 H817 0.930 . S
C823 C819 1.400 . S
C823 C822 1.385 . S
C824 C822 1.478 . S
C824 C826 1.381 . S
C824 C830 1.383 . S
C825 C821 1.495 . S
C825 H831 0.959 . S
C825 H832 0.961 . S
C825 H833 0.960 . S
C826 C824 1.381 . S
C826 C827 1.394 . S
C826 H834 0.930 . S
C827 C826 1.394 . S
C827 C828 1.383 . S
C827 H835 0.929 . S
C828 C827 1.383 . S
C828 C829 1.377 . S
C829 H813 0.930 . S
C829 C828 1.377 . S
C829 C830 1.379 . S
C830 H814 0.931 . S
C830 C824 1.383 . S
C830 C829 1.379 . S
H831 C825 0.959 . S
H832 C825 0.961 . S
H833 C825 0.960 . S
H834 C826 0.930 . S
H835 C827 0.929 . S
H836 C844 0.929 . S
H837 C846 0.930 . S
H838 C848 0.930 . S
H839 C851 0.929 . S
H840 C854 0.930 . S
H841 C856 0.960 . S
H842 C856 0.960 . S
H843 C856 0.960 . S
C844 H836 0.929 . S
C844 C845 1.372 1_455 S
C844 C846 1.384 . S
C845 C844 1.372 1_655 S
C845 C851 1.391 . S
C846 H837 0.930 . S
C846 C844 1.384 . S
C846 C847 1.372 . S
C847 C846 1.372 . S
C847 C848 1.401 . S
C847 C852 1.490 . S
C848 H838 0.930 . S
C848 C847 1.401 . S
C848 C851 1.385 1_455 S
H849 C865 0.930 . S
H850 C866 0.923 1_655 S
C851 H839 0.929 . S
C851 C845 1.391 . S
C851 C848 1.385 1_655 S
C852 C847 1.490 . S
C852 C854 1.395 1_455 S
C852 C855 1.403 . S
H853 C859 0.930 . S
C854 H840 0.930 . S
C854 C852 1.395 1_655 S
C854 C857 1.403 . S
C855 C852 1.403 . S
C855 C856 1.524 . S
C855 C859 1.400 . S
C856 H841 0.960 . S
C856 H842 0.960 . S
C856 H843 0.960 . S
C856 C855 1.524 . S
C857 C854 1.403 . S
C857 C858 1.392 1_655 S
C857 C861 1.495 . S
C858 C857 1.392 1_455 S
C858 C859 1.385 . S
C858 C860 1.478 . S
C859 H853 0.930 . S
C859 C855 1.400 . S
C859 C858 1.385 . S
C860 C858 1.478 . S
C860 C862 1.381 . S
C860 C866 1.383 . S
C861 C857 1.495 . S
C861 H867 0.959 . S
C861 H868 0.961 . S
C861 H869 0.960 . S
C862 C860 1.381 . S
C862 C863 1.394 . S
C862 H870 0.930 . S
C863 C862 1.394 . S
C863 C864 1.383 . S
C863 H871 0.929 . S
C864 C863 1.383 . S
C864 C865 1.377 . S
C865 H849 0.930 . S
C865 C864 1.377 . S
C865 C866 1.379 . S
C866 H850 0.923 1_455 S
C866 C860 1.383 . S
C866 C865 1.379 . S
H867 C861 0.959 . S
H868 C861 0.961 . S
H869 C861 0.960 . S
H870 C862 0.930 . S
H871 C863 0.929 . S
H872 C880 0.929 . S
H873 C882 0.930 . S
H874 C884 0.930 . S
H875 C887 0.929 . S
H876 C890 0.930 . S
H877 C892 0.960 . S
H878 C892 0.960 . S
H879 C892 0.960 . S
C880 H872 0.929 . S
C880 C881 1.377 . S
C880 C882 1.384 . S
C881 C880 1.377 . S
C881 C887 1.390 . S
C882 H873 0.930 . S
C882 C880 1.384 . S
C882 C883 1.372 . S
C883 C882 1.372 . S
C883 C884 1.400 . S
C883 C888 1.490 . S
C884 H874 0.930 . S
C884 C883 1.400 . S
C884 C887 1.386 . S
H885 C901 0.930 . S
H886 C902 0.931 . S
C887 H875 0.929 . S
C887 C881 1.390 . S
C887 C884 1.386 . S
C888 C883 1.490 . S
C888 C890 1.395 . S
C888 C891 1.403 . S
H889 C895 0.930 . S
C890 H876 0.930 . S
C890 C888 1.395 . S
C890 C893 1.403 . S
C891 C888 1.403 . S
C891 C892 1.524 . S
C891 C895 1.400 . S
C892 H877 0.960 . S
C892 H878 0.960 . S
C892 H879 0.960 . S
C892 C891 1.524 . S
C893 C890 1.403 . S
C893 C894 1.392 . S
C893 C897 1.495 . S
C894 C893 1.392 . S
C894 C895 1.385 . S
C894 C896 1.478 . S
C895 H889 0.930 . S
C895 C891 1.400 . S
C895 C894 1.385 . S
C896 C894 1.478 . S
C896 C898 1.381 . S
C896 C902 1.383 . S
C897 C893 1.495 . S
C897 H903 0.959 . S
C897 H904 0.961 . S
C897 H905 0.960 . S
C898 C896 1.381 . S
C898 C899 1.394 1_565 S
C898 H906 0.930 1_565 S
C899 C898 1.394 1_545 S
C899 C900 1.383 . S
C899 H907 0.929 . S
C900 C899 1.383 . S
C900 C901 1.377 1_545 S
C901 H885 0.930 . S
C901 C900 1.377 1_565 S
C901 C902 1.379 . S
C902 H886 0.931 . S
C902 C896 1.383 . S
C902 C901 1.379 . S
H903 C897 0.959 . S
H904 C897 0.961 . S
H905 C897 0.960 . S
H906 C898 0.930 1_545 S
H907 C899 0.929 . S
H908 C916 0.929 . S
H909 C918 0.930 . S
H910 C920 0.930 . S
H911 C923 0.929 . S
H912 C926 0.930 . S
H913 C928 0.960 . S
H914 C928 0.960 . S
H915 C928 0.960 . S
C916 H908 0.929 . S
C916 C917 1.377 . S
C916 C918 1.384 . S
C917 C916 1.377 . S
C917 C923 1.390 . S
C918 H909 0.930 . S
C918 C916 1.384 . S
C918 C919 1.372 . S
C919 C918 1.372 . S
C919 C920 1.400 . S
C919 C924 1.490 . S
C920 H910 0.930 . S
C920 C919 1.400 . S
C920 C923 1.386 . S
H921 C937 0.930 . S
H922 C938 0.931 . S
C923 H911 0.929 . S
C923 C917 1.390 . S
C923 C920 1.386 . S
C924 C919 1.490 . S
C924 C926 1.395 . S
C924 C927 1.403 . S
H925 C931 0.930 . S
C926 H912 0.930 . S
C926 C924 1.395 . S
C926 C929 1.403 . S
C927 C924 1.403 . S
C927 C928 1.524 . S
C927 C931 1.400 . S
C928 H913 0.960 . S
C928 H914 0.960 . S
C928 H915 0.960 . S
C928 C927 1.524 . S
C929 C926 1.403 . S
C929 C930 1.392 . S
C929 C933 1.495 . S
C930 C929 1.392 . S
C930 C931 1.385 . S
C930 C932 1.478 . S
C931 H925 0.930 . S
C931 C927 1.400 . S
C931 C930 1.385 . S
C932 C930 1.478 . S
C932 C934 1.381 . S
C932 C938 1.383 . S
C933 C929 1.495 . S
C933 H939 0.959 . S
C933 H940 0.961 . S
C933 H941 0.960 . S
C934 C932 1.381 . S
C934 C935 1.394 . S
C934 H942 0.930 . S
C935 C934 1.394 . S
C935 C936 1.383 . S
C935 H943 0.929 . S
C936 C935 1.383 . S
C936 C937 1.377 . S
C937 H921 0.930 . S
C937 C936 1.377 . S
C937 C938 1.379 . S
C938 H922 0.931 . S
C938 C932 1.383 . S
C938 C937 1.379 . S
H939 C933 0.959 . S
H940 C933 0.961 . S
H941 C933 0.960 . S
H942 C934 0.930 . S
H943 C935 0.929 . S
H944 C952 0.929 . S
H945 C954 0.930 . S
H946 C956 0.930 . S
H947 C959 0.929 . S
H948 C962 0.930 . S
H949 C964 0.960 . S
H950 C964 0.960 . S
H951 C964 0.960 . S
C952 H944 0.929 . S
C952 C953 1.377 . S
C952 C954 1.384 . S
C953 C952 1.377 . S
C953 C959 1.390 . S
C954 H945 0.930 . S
C954 C952 1.384 . S
C954 C955 1.372 . S
C955 C954 1.372 . S
C955 C956 1.400 . S
C955 C960 1.490 . S
C956 H946 0.930 . S
C956 C955 1.400 . S
C956 C959 1.386 . S
H957 C973 0.930 . S
H958 C974 0.931 . S
C959 H947 0.929 . S
C959 C953 1.390 . S
C959 C956 1.386 . S
C960 C955 1.490 . S
C960 C962 1.395 . S
C960 C963 1.403 . S
H961 C967 0.930 . S
C962 H948 0.930 . S
C962 C960 1.395 . S
C962 C965 1.403 . S
C963 C960 1.403 . S
C963 C964 1.524 . S
C963 C967 1.400 . S
C964 H949 0.960 . S
C964 H950 0.960 . S
C964 H951 0.960 . S
C964 C963 1.524 . S
C965 C962 1.403 . S
C965 C966 1.392 . S
C965 C969 1.495 . S
C966 C965 1.392 . S
C966 C967 1.385 . S
C966 C968 1.478 . S
C967 H961 0.930 . S
C967 C963 1.400 . S
C967 C966 1.385 . S
C968 C966 1.478 . S
C968 C970 1.381 . S
C968 C974 1.383 . S
C969 C965 1.495 . S
C969 H975 0.959 . S
C969 H976 0.961 . S
C969 H977 0.960 . S
C970 C968 1.381 . S
C970 C971 1.394 . S
C970 H978 0.930 . S
C971 C970 1.394 . S
C971 C972 1.383 . S
C971 H979 0.929 . S
C972 C971 1.383 . S
C972 C973 1.377 . S
C973 H957 0.930 . S
C973 C972 1.377 . S
C973 C974 1.379 . S
C974 H958 0.931 . S
C974 C968 1.383 . S
C974 C973 1.379 . S
H975 C969 0.959 . S
H976 C969 0.961 . S
H977 C969 0.960 . S
H978 C970 0.930 . S
H979 C971 0.929 . S
H980 C988 0.929 . S
H981 C990 0.930 . S
H982 C992 0.930 . S
H983 C995 0.929 . S
H984 C998 0.930 . S
H985 C1000 0.960 . S
H986 C1000 0.960 . S
H987 C1000 0.960 1_556 S
C988 H980 0.929 . S
C988 C989 1.345 1_655 S
C988 C990 1.384 . S
C989 C988 1.345 1_455 S
C989 C995 1.423 . S
C990 H981 0.930 . S
C990 C988 1.384 . S
C990 C991 1.372 1_654 S
C991 C990 1.372 1_456 S
C991 C992 1.400 . S
C991 C996 1.490 . S
C992 H982 0.930 . S
C992 C991 1.400 . S
C992 C995 1.386 1_556 S
H993 C1009 0.930 . S
H994 C1010 0.931 . S
C995 H983 0.929 . S
C995 C989 1.423 . S
C995 C992 1.386 1_554 S
C996 C991 1.490 . S
C996 C998 1.395 1_455 S
C996 C999 1.403 . S
H997 C1003 0.930 . S
C998 H984 0.930 . S
C998 C996 1.395 1_655 S
C998 C1001 1.403 . S
C999 C996 1.403 . S
C999 C1000 1.524 1_556 S
C999 C1003 1.400 . S
C1000 H985 0.960 . S
C1000 H986 0.960 . S
C1000 H987 0.960 1_554 S
C1000 C999 1.524 1_554 S
C1001 C998 1.403 . S
C1001 C1002 1.392 1_655 S
C1001 C1005 1.495 . S
C1002 C1001 1.392 1_455 S
C1002 C1003 1.385 . S
C1002 C1004 1.478 . S
C1003 H997 0.930 . S
C1003 C999 1.400 . S
C1003 C1002 1.385 . S
C1004 C1002 1.478 . S
C1004 C1006 1.381 1_455 S
C1004 C1010 1.383 . S
C1005 C1001 1.495 . S
C1005 H1011 0.959 . S
C1005 H1012 0.961 . S
C1005 H1013 0.960 . S
C1006 C1004 1.381 1_655 S
C1006 C1007 1.394 . S
C1006 H1014 0.930 . S
C1007 C1006 1.394 . S
C1007 C1008 1.383 1_655 S
C1007 H1015 0.929 . S
C1008 C1007 1.383 1_455 S
C1008 C1009 1.377 . S
C1009 H993 0.930 . S
C1009 C1008 1.377 . S
C1009 C1010 1.379 . S
C1010 H994 0.931 . S
C1010 C1004 1.383 . S
C1010 C1009 1.379 . S
H1011 C1005 0.959 . S
H1012 C1005 0.961 . S
H1013 C1005 0.960 . S
H1014 C1006 0.930 . S
H1015 C1007 0.929 . S
H1016 C1024 0.929 . S
H1017 C1026 0.930 . S
H1018 C1028 0.930 . S
H1019 C1031 0.929 . S
H1020 C1034 0.930 . S
H1021 C1036 0.960 . S
H1022 C1036 0.960 . S
H1023 C1036 0.960 . S
C1024 H1016 0.929 . S
C1024 C1025 1.377 1_556 S
C1024 C1026 1.384 . S
C1025 C1024 1.377 1_554 S
C1025 C1031 1.390 . S
C1026 H1017 0.930 . S
C1026 C1024 1.384 . S
C1026 C1027 1.372 . S
C1027 C1026 1.372 . S
C1027 C1028 1.400 1_556 S
C1027 C1032 1.490 . S
C1028 H1018 0.930 . S
C1028 C1027 1.400 1_554 S
C1028 C1031 1.386 . S
H1029 C1045 0.930 . S
H1030 C1046 0.931 . S
C1031 H1019 0.929 . S
C1031 C1025 1.390 . S
C1031 C1028 1.386 . S
C1032 C1027 1.490 . S
C1032 C1034 1.395 . S
C1032 C1035 1.403 . S
H1033 C1039 0.930 . S
C1034 H1020 0.930 . S
C1034 C1032 1.395 . S
C1034 C1037 1.403 . S
C1035 C1032 1.403 . S
C1035 C1036 1.524 . S
C1035 C1039 1.400 . S
C1036 H1021 0.960 . S
C1036 H1022 0.960 . S
C1036 H1023 0.960 . S
C1036 C1035 1.524 . S
C1037 C1034 1.403 . S
C1037 C1038 1.392 . S
C1037 C1041 1.495 . S
C1038 C1037 1.392 . S
C1038 C1039 1.385 . S
C1038 C1040 1.478 . S
C1039 H1033 0.930 . S
C1039 C1035 1.400 . S
C1039 C1038 1.385 . S
C1040 C1038 1.478 . S
C1040 C1042 1.381 . S
C1040 C1046 1.383 . S
C1041 C1037 1.495 . S
C1041 H1047 0.959 . S
C1041 H1048 0.961 . S
C1041 H1049 0.960 . S
C1042 C1040 1.381 . S
C1042 C1043 1.394 . S
C1042 H1050 0.930 . S
C1043 C1042 1.394 . S
C1043 C1044 1.383 . S
C1043 H1051 0.929 . S
C1044 C1043 1.383 . S
C1044 C1045 1.377 . S
C1045 H1029 0.930 . S
C1045 C1044 1.377 . S
C1045 C1046 1.379 . S
C1046 H1030 0.931 . S
C1046 C1040 1.383 . S
C1046 C1045 1.379 . S
H1047 C1041 0.959 . S
H1048 C1041 0.961 . S
H1049 C1041 0.960 . S
H1050 C1042 0.930 . S
H1051 C1043 0.929 . S
H1052 C1060 0.929 . S
H1053 C1062 0.930 . S
H1054 C1064 0.930 . S
H1055 C1067 0.929 . S
H1056 C1070 0.930 . S
H1057 C1072 0.961 . S
H1058 C1072 0.957 1_556 S
H1059 C1072 0.972 . S
C1060 H1052 0.929 . S
C1060 C1061 1.377 1_556 S
C1060 C1062 1.384 . S
C1061 C1060 1.377 1_554 S
C1061 C1067 1.390 . S
C1062 H1053 0.930 . S
C1062 C1060 1.384 . S
C1062 C1063 1.372 . S
C1063 C1062 1.372 . S
C1063 C1064 1.400 1_556 S
C1063 C1068 1.490 . S
C1064 H1054 0.930 . S
C1064 C1063 1.400 1_554 S
C1064 C1067 1.386 . S
H1065 C1081 0.930 . S
H1066 C1082 0.931 . S
C1067 H1055 0.929 . S
C1067 C1061 1.390 . S
C1067 C1064 1.386 . S
C1068 C1063 1.490 . S
C1068 C1070 1.395 . S
C1068 C1071 1.403 . S
H1069 C1075 0.930 . S
C1070 H1056 0.930 . S
C1070 C1068 1.395 . S
C1070 C1073 1.403 . S
C1071 C1068 1.403 . S
C1071 C1072 1.514 1_556 S
C1071 C1075 1.400 . S
C1072 H1057 0.961 . S
C1072 H1058 0.957 1_554 S
C1072 H1059 0.972 . S
C1072 C1071 1.514 1_554 S
C1073 C1070 1.403 . S
C1073 C1074 1.392 . S
C1073 C1077 1.495 . S
C1074 C1073 1.392 . S
C1074 C1075 1.385 . S
C1074 C1076 1.478 . S
C1075 H1069 0.930 . S
C1075 C1071 1.400 . S
C1075 C1074 1.385 . S
C1076 C1074 1.478 . S
C1076 C1078 1.381 . S
C1076 C1082 1.383 . S
C1077 C1073 1.495 . S
C1077 H1083 0.959 . S
C1077 H1084 0.961 . S
C1077 H1085 0.960 . S
C1078 C1076 1.381 . S
C1078 C1079 1.394 . S
C1078 H1086 0.930 . S
C1079 C1078 1.394 . S
C1079 C1080 1.383 . S
C1079 H1087 0.929 . S
C1080 C1079 1.383 . S
C1080 C1081 1.377 . S
C1081 H1065 0.930 . S
C1081 C1080 1.377 . S
C1081 C1082 1.379 . S
C1082 H1066 0.931 . S
C1082 C1076 1.383 . S
C1082 C1081 1.379 . S
H1083 C1077 0.959 . S
H1084 C1077 0.961 . S
H1085 C1077 0.960 . S
H1086 C1078 0.930 . S
H1087 C1079 0.929 . S
H1088 C1096 0.929 . S
H1089 C1098 0.930 . S
H1090 C1100 0.929 1_556 S
H1091 C1103 0.929 . S
H1092 C1106 0.930 1_554 S
H1093 C1108 0.960 . S
H1094 C1108 0.960 . S
H1095 C1108 0.960 . S
C1096 H1088 0.929 . S
C1096 C1097 1.377 . S
C1096 C1098 1.384 1_554 S
C1097 C1096 1.377 . S
C1097 C1103 1.390 . S
C1098 H1089 0.930 . S
C1098 C1096 1.384 1_556 S
C1098 C1099 1.372 . S
C1099 C1098 1.372 . S
C1099 C1100 1.400 1_556 S
C1099 C1104 1.490 . S
C1100 H1090 0.929 1_554 S
C1100 C1099 1.400 1_554 S
C1100 C1103 1.386 . S
H1101 C1117 0.930 . S
H1102 C1118 0.931 . S
C1103 H1091 0.929 . S
C1103 C1097 1.390 . S
C1103 C1100 1.386 . S
C1104 C1099 1.490 . S
C1104 C1106 1.395 . S
C1104 C1107 1.403 . S
H1105 C1111 0.930 . S
C1106 H1092 0.930 1_556 S
C1106 C1104 1.395 . S
C1106 C1109 1.403 . S
C1107 C1104 1.403 . S
C1107 C1108 1.524 . S
C1107 C1111 1.400 . S
C1108 H1093 0.960 . S
C1108 H1094 0.960 . S
C1108 H1095 0.960 . S
C1108 C1107 1.524 . S
C1109 C1106 1.403 . S
C1109 C1110 1.392 . S
C1109 C1113 1.495 . S
C1110 C1109 1.392 . S
C1110 C1111 1.385 . S
C1110 C1112 1.478 . S
C1111 H1105 0.930 . S
C1111 C1107 1.400 . S
C1111 C1110 1.385 . S
C1112 C1110 1.478 . S
C1112 C1114 1.381 . S
C1112 C1118 1.383 . S
C1113 C1109 1.495 . S
C1113 H1119 0.959 1_556 S
C1113 H1120 0.961 . S
C1113 H1121 0.960 . S
C1114 C1112 1.381 . S
C1114 C1115 1.394 . S
C1114 H1122 0.930 . S
C1115 C1114 1.394 . S
C1115 C1116 1.383 . S
C1115 H1123 0.929 . S
C1116 C1115 1.383 . S
C1116 C1117 1.377 . S
C1117 H1101 0.930 . S
C1117 C1116 1.377 . S
C1117 C1118 1.379 . S
C1118 H1102 0.931 . S
C1118 C1112 1.383 . S
C1118 C1117 1.379 . S
H1119 C1113 0.959 1_554 S
H1120 C1113 0.961 . S
H1121 C1113 0.960 . S
H1122 C1114 0.930 . S
H1123 C1115 0.929 . S
H1124 C1132 0.929 . S
H1125 C1134 0.930 . S
H1126 C1136 0.930 . S
H1127 C1139 0.929 . S
H1128 C1142 0.930 . S
H1129 C1144 0.960 . S
H1130 C1144 0.960 . S
H1131 C1144 0.960 . S
C1132 H1124 0.929 . S
C1132 C1133 1.345 1_455 S
C1132 C1134 1.384 . S
C1133 C1132 1.345 1_655 S
C1133 C1139 1.423 . S
C1134 H1125 0.930 . S
C1134 C1132 1.384 . S
C1134 C1135 1.372 1_455 S
C1135 C1134 1.372 1_655 S
C1135 C1136 1.400 . S
C1135 C1140 1.490 . S
C1136 H1126 0.930 . S
C1136 C1135 1.400 . S
C1136 C1139 1.386 . S
H1137 C1153 0.930 . S
H1138 C1154 0.931 . S
C1139 H1127 0.929 . S
C1139 C1133 1.423 . S
C1139 C1136 1.386 . S
C1140 C1135 1.490 . S
C1140 C1142 1.395 1_655 S
C1140 C1143 1.403 . S
H1141 C1147 0.930 . S
C1142 H1128 0.930 . S
C1142 C1140 1.395 1_455 S
C1142 C1145 1.403 . S
C1143 C1140 1.403 . S
C1143 C1144 1.524 . S
C1143 C1147 1.400 . S
C1144 H1129 0.960 . S
C1144 H1130 0.960 . S
C1144 H1131 0.960 . S
C1144 C1143 1.524 . S
C1145 C1142 1.403 . S
C1145 C1146 1.392 1_455 S
C1145 C1149 1.495 . S
C1146 C1145 1.392 1_655 S
C1146 C1147 1.385 . S
C1146 C1148 1.478 . S
C1147 H1141 0.930 . S
C1147 C1143 1.400 . S
C1147 C1146 1.385 . S
C1148 C1146 1.478 . S
C1148 C1150 1.381 1_655 S
C1148 C1154 1.383 . S
C1149 C1145 1.495 . S
C1149 H1155 0.959 . S
C1149 H1156 0.961 . S
C1149 H1157 0.960 . S
C1150 C1148 1.381 1_455 S
C1150 C1151 1.394 . S
C1150 H1158 0.930 . S
C1151 C1150 1.394 . S
C1151 C1152 1.383 1_455 S
C1151 H1159 0.929 . S
C1152 C1151 1.383 1_655 S
C1152 C1153 1.377 . S
C1153 H1137 0.930 . S
C1153 C1152 1.377 . S
C1153 C1154 1.379 . S
C1154 H1138 0.931 . S
C1154 C1148 1.383 . S
C1154 C1153 1.379 . S
H1155 C1149 0.959 . S
H1156 C1149 0.961 . S
H1157 C1149 0.960 . S
H1158 C1150 0.930 . S
H1159 C1151 0.929 . S
H1160 C1168 0.929 . S
H1161 C1170 0.930 . S
H1162 C1172 0.930 . S
H1163 C1175 0.929 . S
H1164 C1178 0.930 . S
H1165 C1180 0.960 . S
H1166 C1180 0.960 . S
H1167 C1180 0.960 . S
C1168 H1160 0.929 . S
C1168 C1169 1.377 . S
C1168 C1170 1.384 . S
C1169 C1168 1.377 . S
C1169 C1175 1.390 . S
C1170 H1161 0.930 . S
C1170 C1168 1.384 . S
C1170 C1171 1.372 . S
C1171 C1170 1.372 . S
C1171 C1172 1.400 . S
C1171 C1176 1.490 . S
C1172 H1162 0.930 . S
C1172 C1171 1.400 . S
C1172 C1175 1.386 . S
H1173 C1189 0.930 . S
H1174 C1190 0.931 . S
C1175 H1163 0.929 . S
C1175 C1169 1.390 . S
C1175 C1172 1.386 . S
C1176 C1171 1.490 . S
C1176 C1178 1.395 . S
C1176 C1179 1.403 . S
H1177 C1183 0.930 . S
C1178 H1164 0.930 . S
C1178 C1176 1.395 . S
C1178 C1181 1.403 . S
C1179 C1176 1.403 . S
C1179 C1180 1.524 . S
C1179 C1183 1.400 . S
C1180 H1165 0.960 . S
C1180 H1166 0.960 . S
C1180 H1167 0.960 . S
C1180 C1179 1.524 . S
C1181 C1178 1.403 . S
C1181 C1182 1.392 . S
C1181 C1185 1.495 . S
C1182 C1181 1.392 . S
C1182 C1183 1.385 . S
C1182 C1184 1.478 . S
C1183 H1177 0.930 . S
C1183 C1179 1.400 . S
C1183 C1182 1.385 . S
C1184 C1182 1.478 . S
C1184 C1186 1.381 . S
C1184 C1190 1.383 . S
C1185 C1181 1.495 . S
C1185 H1191 0.959 . S
C1185 H1192 0.961 . S
C1185 H1193 0.960 . S
C1186 C1184 1.381 . S
C1186 C1187 1.394 . S
C1186 H1194 0.930 . S
C1187 C1186 1.394 . S
C1187 C1188 1.383 . S
C1187 H1195 0.929 1_565 S
C1188 C1187 1.383 . S
C1188 C1189 1.377 . S
C1189 H1173 0.930 . S
C1189 C1188 1.377 . S
C1189 C1190 1.379 . S
C1190 H1174 0.931 . S
C1190 C1184 1.383 . S
C1190 C1189 1.379 . S
H1191 C1185 0.959 . S
H1192 C1185 0.961 . S
H1193 C1185 0.960 . S
H1194 C1186 0.930 . S
H1195 C1187 0.929 1_545 S
H1196 C1204 0.929 . S
H1197 C1206 0.930 . S
H1198 C1208 0.930 . S
H1199 C1211 0.929 . S
H1200 C1214 0.930 . S
H1201 C1216 0.960 . S
H1202 C1216 0.960 . S
H1203 C1216 0.960 . S
C1204 H1196 0.929 . S
C1204 C1205 1.377 . S
C1204 C1206 1.384 . S
C1205 C1204 1.377 . S
C1205 C1211 1.390 . S
C1206 H1197 0.930 . S
C1206 C1204 1.384 . S
C1206 C1207 1.372 . S
C1207 C1206 1.372 . S
C1207 C1208 1.400 . S
C1207 C1212 1.490 . S
C1208 H1198 0.930 . S
C1208 C1207 1.400 . S
C1208 C1211 1.386 . S
H1209 C1225 0.930 . S
H1210 C1226 0.931 . S
C1211 H1199 0.929 . S
C1211 C1205 1.390 . S
C1211 C1208 1.386 . S
C1212 C1207 1.490 . S
C1212 C1214 1.395 . S
C1212 C1215 1.403 . S
H1213 C1219 0.930 . S
C1214 H1200 0.930 . S
C1214 C1212 1.395 . S
C1214 C1217 1.403 . S
C1215 C1212 1.403 . S
C1215 C1216 1.524 . S
C1215 C1219 1.400 . S
C1216 H1201 0.960 . S
C1216 H1202 0.960 . S
C1216 H1203 0.960 . S
C1216 C1215 1.524 . S
C1217 C1214 1.403 . S
C1217 C1218 1.392 . S
C1217 C1221 1.495 . S
C1218 C1217 1.392 . S
C1218 C1219 1.385 . S
C1218 C1220 1.478 . S
C1219 H1213 0.930 . S
C1219 C1215 1.400 . S
C1219 C1218 1.385 . S
C1220 C1218 1.478 . S
C1220 C1222 1.381 . S
C1220 C1226 1.383 . S
C1221 C1217 1.495 . S
C1221 H1227 0.959 . S
C1221 H1228 0.961 . S
C1221 H1229 0.960 . S
C1222 C1220 1.381 . S
C1222 C1223 1.394 . S
C1222 H1230 0.930 . S
C1223 C1222 1.394 . S
C1223 C1224 1.383 . S
C1223 H1231 0.929 . S
C1224 C1223 1.383 . S
C1224 C1225 1.377 . S
C1225 H1209 0.930 . S
C1225 C1224 1.377 . S
C1225 C1226 1.379 . S
C1226 H1210 0.931 . S
C1226 C1220 1.383 . S
C1226 C1225 1.379 . S
H1227 C1221 0.959 . S
H1228 C1221 0.961 . S
H1229 C1221 0.960 . S
H1230 C1222 0.930 . S
H1231 C1223 0.929 . S
H1232 C1240 0.929 . S
H1233 C1242 0.930 . S
H1234 C1244 0.930 . S
H1235 C1247 0.929 . S
H1236 C1250 0.930 . S
H1237 C1252 0.960 . S
H1238 C1252 0.960 . S
H1239 C1252 0.960 . S
C1240 H1232 0.929 . S
C1240 C1241 1.377 . S
C1240 C1242 1.384 . S
C1241 C1240 1.377 . S
C1241 C1247 1.390 . S
C1242 H1233 0.930 . S
C1242 C1240 1.384 . S
C1242 C1243 1.372 . S
C1243 C1242 1.372 . S
C1243 C1244 1.400 . S
C1243 C1248 1.490 . S
C1244 H1234 0.930 . S
C1244 C1243 1.400 . S
C1244 C1247 1.386 . S
H1245 C1261 0.930 . S
H1246 C1262 0.931 . S
C1247 H1235 0.929 . S
C1247 C1241 1.390 . S
C1247 C1244 1.386 . S
C1248 C1243 1.490 . S
C1248 C1250 1.395 . S
C1248 C1251 1.403 . S
H1249 C1255 0.930 . S
C1250 H1236 0.930 . S
C1250 C1248 1.395 . S
C1250 C1253 1.403 . S
C1251 C1248 1.403 . S
C1251 C1252 1.524 . S
C1251 C1255 1.400 . S
C1252 H1237 0.960 . S
C1252 H1238 0.960 . S
C1252 H1239 0.960 . S
C1252 C1251 1.524 . S
C1253 C1250 1.403 . S
C1253 C1254 1.392 . S
C1253 C1257 1.495 . S
C1254 C1253 1.392 . S
C1254 C1255 1.385 . S
C1254 C1256 1.478 . S
C1255 H1249 0.930 . S
C1255 C1251 1.400 . S
C1255 C1254 1.385 . S
C1256 C1254 1.478 . S
C1256 C1258 1.381 . S
C1256 C1262 1.383 . S
C1257 C1253 1.495 . S
C1257 H1263 0.959 . S
C1257 H1264 0.961 . S
C1257 H1265 0.960 . S
C1258 C1256 1.381 . S
C1258 C1259 1.394 . S
C1258 H1266 0.930 . S
C1259 C1258 1.394 . S
C1259 C1260 1.383 . S
C1259 H1267 0.929 . S
C1260 C1259 1.383 . S
C1260 C1261 1.377 . S
C1261 H1245 0.930 . S
C1261 C1260 1.377 . S
C1261 C1262 1.379 . S
C1262 H1246 0.931 . S
C1262 C1256 1.383 . S
C1262 C1261 1.379 . S
H1263 C1257 0.959 . S
H1264 C1257 0.961 . S
H1265 C1257 0.960 . S
H1266 C1258 0.930 . S
H1267 C1259 0.929 . S
C413 C255 1.990 . S
C432 C336 1.921 . S
C468 C354 1.359 . S
C449 C295 1.516 . S
C504 C375 1.889 . S
C485 C175 1.975 . S
C540 C399 1.398 . S
C521 C215 1.524 1_655 S
C576 C333 1.785 1_565 S
C557 C95 1.886 . S
C593 C135 1.404 . S
C612 C357 1.203 . S
C629 C15 1.857 . S
C648 C378 1.747 . S
C665 C55 1.412 . S
C684 C396 1.210 . S
C720 C338 0.560 . S
C701 C221 0.509 . S
C756 C356 0.506 . S
C737 C261 0.430 . S
C792 C377 0.611 . S
C773 C301 0.498 . S
C809 C181 0.469 . S
C828 C401 0.467 . S
C845 C61 0.424 1_655 S
C864 C337 0.384 . S
C900 C355 0.387 . S
C881 C101 0.614 . S
C936 C376 0.384 . S
C917 C141 0.410 . S
C953 C21 0.637 . S
C972 C400 0.450 . S
C989 C202 1.939 . S
C1008 C334 1.894 . S
C1025 C242 2.289 . S
C1044 C358 2.268 . S
C1080 C379 1.904 . S
C1061 C282 1.914 . S
C1116 C397 2.283 . S
C1097 C162 2.308 . S
C1133 C42 1.810 1_655 S
C1152 C335 1.760 . S
C1188 C359 2.093 . S
C1169 C82 2.052 . S
C1224 C380 1.763 . S
C1205 C122 1.789 . S
C1241 C2 2.063 . S
C1260 C398 2.130 . S
