# Generated by pormake.
# Topology anh, (6,3)-cn, num edge types: 1
# Building blocks:
#     Node 0, Type 0, BuildingBlock: BETDEL_clean_sbu_0, # of connection points: 6
#     Node 1, Type 0, BuildingBlock: BETDEL_clean_sbu_0, # of connection points: 6
#     Node 2, Type 0, BuildingBlock: BETDEL_clean_sbu_0, # of connection points: 6
#     Node 3, Type 1, BuildingBlock: WUSLED_clean_sbu_0, # of connection points: 3
#     Node 4, Type 1, BuildingBlock: WUSLED_clean_sbu_0, # of connection points: 3
#     Node 5, Type 1, BuildingBlock: WUSLED_clean_sbu_0, # of connection points: 3
#     Node 6, Type 1, BuildingBlock: WUSLED_clean_sbu_0, # of connection points: 3
#     Node 7, Type 1, BuildingBlock: WUSLED_clean_sbu_0, # of connection points: 3
#     Node 8, Type 1, BuildingBlock: WUSLED_clean_sbu_0, # of connection points: 3
#     Edge 9, Type (0, 1), BuildingBlock: XIVTED_clean_linker_0, # of connection points: 2
#     Edge 10, Type (0, 1), BuildingBlock: XIVTED_clean_linker_0, # of connection points: 2
#     Edge 11, Type (0, 1), BuildingBlock: XIVTED_clean_linker_0, # of connection points: 2
#     Edge 12, Type (0, 1), BuildingBlock: XIVTED_clean_linker_0, # of connection points: 2
#     Edge 13, Type (0, 1), BuildingBlock: XIVTED_clean_linker_0, # of connection points: 2
#     Edge 14, Type (0, 1), BuildingBlock: XIVTED_clean_linker_0, # of connection points: 2
#     Edge 15, Type (0, 1), BuildingBlock: XIVTED_clean_linker_0, # of connection points: 2
#     Edge 16, Type (0, 1), BuildingBlock: XIVTED_clean_linker_0, # of connection points: 2
#     Edge 17, Type (0, 1), BuildingBlock: XIVTED_clean_linker_0, # of connection points: 2
#     Edge 18, Type (0, 1), BuildingBlock: XIVTED_clean_linker_0, # of connection points: 2
#     Edge 19, Type (0, 1), BuildingBlock: XIVTED_clean_linker_0, # of connection points: 2
#     Edge 20, Type (0, 1), BuildingBlock: XIVTED_clean_linker_0, # of connection points: 2
#     Edge 21, Type (0, 1), BuildingBlock: XIVTED_clean_linker_0, # of connection points: 2
#     Edge 22, Type (0, 1), BuildingBlock: XIVTED_clean_linker_0, # of connection points: 2
#     Edge 23, Type (0, 1), BuildingBlock: XIVTED_clean_linker_0, # of connection points: 2
#     Edge 24, Type (0, 1), BuildingBlock: XIVTED_clean_linker_0, # of connection points: 2
#     Edge 25, Type (0, 1), BuildingBlock: XIVTED_clean_linker_0, # of connection points: 2
#     Edge 26, Type (0, 1), BuildingBlock: XIVTED_clean_linker_0, # of connection points: 2
# Relax obj value: 0.132
# Max RMSD: 0.161
# Mean RMSD: 0.127
data_MOF--net-anh--node1-BETDEL_clean_sbu_0--node2-WUSLED_clean_sbu_0--edge1-XIVTED_clean_linker_0
_symmetry_space_group_name_H-M    P1
_symmetry_Int_Tables_number       1
_symmetry_cell_setting            triclinic
loop_
_symmetry_equiv_pos_as_xyz
'x, y, z'
_cell_length_a     38.731439
_cell_length_b     38.594053
_cell_length_c     67.360777
_cell_angle_alpha  90.405208
_cell_angle_beta   89.459297
_cell_angle_gamma 119.95113
loop_
_atom_site_label
_atom_site_type_symbol
_atom_site_fract_x
_atom_site_fract_y
_atom_site_fract_z
_atom_type_partial_charge
Dy0 Dy 0.06314 0.49914 0.17573 0.0
C1 C 0.95613 0.55341 0.18455 0.0
C2 C 0.12299 0.48247 0.16981 0.0
Dy3 Dy 0.01663 0.5384 0.17684 0.0
O4 O 0.0988 0.47057 0.18485 0.0
O5 O 0.11303 0.50156 0.15746 0.0
O6 O 0.04136 0.47351 0.20575 0.0
O7 O 0.05181 0.5313 0.1997 0.0
C8 C 0.03925 0.50389 0.2125 0.0
C9 C 0.04166 0.53426 0.14005 0.0
O10 O 0.07324 0.59191 0.18653 0.0
O11 O 0.11042 0.56495 0.17437 0.0
O12 O 0.98184 0.56934 0.17018 0.0
O13 O 0.96464 0.53081 0.19509 0.0
O14 O 0.04005 0.56477 0.14701 0.0
O15 O 0.02796 0.50617 0.1526 0.0
O16 O 1.00479 0.44332 0.16963 0.0
O17 O 0.96985 0.47385 0.18018 0.0
C18 C 0.10806 0.596 0.18124 0.0
C19 C 0.97095 0.4412 0.17533 0.0
Dy20 Dy 0.47827 0.02078 0.51176 0.0
C21 C 0.64379 0.13074 0.5225 0.0
C22 C 0.4017 0.96022 0.50923 0.0
Dy23 Dy 0.56966 0.07275 0.51125 0.0
O24 O 0.42024 0.97616 0.52559 0.0
O25 O 0.42461 0.97823 0.49406 0.0
O26 O 0.47823 0.04816 0.54101 0.0
O27 O 0.52534 0.03793 0.53379 0.0
C28 C 0.51197 0.05222 0.54667 0.0
C29 C 0.54459 0.05957 0.4733 0.0
O30 O 0.56555 0.01346 0.51722 0.0
O31 O 0.49807 0.97487 0.50984 0.0
O32 O 0.63636 0.10233 0.50978 0.0
O33 O 0.61038 0.12609 0.52947 0.0
O34 O 0.58165 0.08022 0.47843 0.0
O35 O 0.52327 0.04693 0.48876 0.0
O36 O 0.48149 0.07892 0.50473 0.0
O37 O 0.54824 0.11742 0.51333 0.0
C38 C 0.53312 0.97828 0.51393 0.0
C39 C 0.51341 0.11398 0.50873 0.0
Dy40 Dy 0.58978 0.61077 0.84242 0.0
C41 C 0.53531 0.44809 0.85145 0.0
C42 C 0.60577 0.68609 0.83335 0.0
Dy43 Dy 0.55147 0.52456 0.84573 0.0
O44 O 0.61818 0.67648 0.84903 0.0
O45 O 0.58622 0.65484 0.82216 0.0
O46 O 0.61612 0.61902 0.87259 0.0
O47 O 0.55926 0.56991 0.86722 0.0
C48 C 0.58668 0.58652 0.8798 0.0
C49 C 0.55187 0.54915 0.8086 0.0
O50 O 0.49686 0.52716 0.85407 0.0
O51 O 0.52396 0.5916 0.84224 0.0
O52 O 0.53257 0.46306 0.83482 0.0
O53 O 0.54507 0.47452 0.86548 0.0
O54 O 0.52193 0.51868 0.81692 0.0
O55 O 0.5812 0.56541 0.82038 0.0
O56 O 0.64504 0.60693 0.83649 0.0
O57 O 0.61604 0.54396 0.85005 0.0
C58 C 0.49294 0.55806 0.84891 0.0
C59 C 0.64799 0.57662 0.84365 0.0
C60 C 0.63342 0.11444 0.19871 0.0
C61 C 0.65331 0.13793 0.21531 0.0
C62 C 0.7093 0.18407 0.1942 0.0
C63 C 0.69089 0.1725 0.21307 0.0
C64 C 0.68892 0.16034 0.1777 0.0
C65 C 0.65151 0.12604 0.17995 0.0
U66 U 0.53835 0.0278 0.22488 0.0
O67 O 0.47703 0.99989 0.21307 0.0
O68 O 0.50752 0.96468 0.21528 0.0
C69 C 0.47592 0.96588 0.2093 0.0
C70 C 0.59405 0.07763 0.20012 0.0
C71 C 0.43721 0.92838 0.20808 0.0
C72 C 0.38396 0.88056 0.18681 0.0
C73 C 0.41937 0.91679 0.18936 0.0
C74 C 0.38285 0.86689 0.2219 0.0
C75 C 0.36525 0.85494 0.20299 0.0
C76 C 0.41875 0.90325 0.22441 0.0
C77 C 0.5397 0.03635 0.28446 0.0
C78 C 0.49433 1.00855 0.31276 0.0
C79 C 0.56376 0.05749 0.31801 0.0
C80 C 0.57073 0.0592 0.29761 0.0
C81 C 0.52543 0.03275 0.32589 0.0
C82 C 0.50135 0.01056 0.29209 0.0
C83 C 0.54922 0.0429 0.26306 0.0
O84 O 0.59328 0.04587 0.20752 0.0
O85 O 0.5637 0.08152 0.20594 0.0
O86 O 0.5298 0.05524 0.25192 0.0
O87 O 0.56104 0.02066 0.25363 0.0
H88 H 0.63991 0.12949 0.22995 0.0
H89 H 0.70575 0.18984 0.22615 0.0
H90 H 0.7016 0.16854 0.16292 0.0
H91 H 0.63659 0.10846 0.16691 0.0
H92 H 0.37107 0.87273 0.17213 0.0
H93 H 0.43318 0.9357 0.17654 0.0
H94 H 0.36933 0.84773 0.23465 0.0
H95 H 0.43219 0.91151 0.23896 0.0
H96 H 0.46448 0.98918 0.3184 0.0
H97 H 0.58854 0.07599 0.32765 0.0
H98 H 0.60052 0.07927 0.29205 0.0
H99 H 0.47693 0.99268 0.28215 0.0
C100 C 0.52064 0.63817 0.53271 0.0
C101 C 0.51202 0.65504 0.54926 0.0
C102 C 0.52444 0.71354 0.52967 0.0
C103 C 0.51392 0.69233 0.54776 0.0
C104 C 0.53325 0.69644 0.51323 0.0
C105 C 0.53138 0.65934 0.51476 0.0
U106 U 0.52491 0.55245 0.56021 0.0
O107 O 0.48936 0.48673 0.55608 0.0
O108 O 0.55458 0.51889 0.55012 0.0
C109 C 0.52086 0.48464 0.55042 0.0
C110 C 0.51879 0.59881 0.53355 0.0
C111 C 0.51855 0.44623 0.54492 0.0
C112 C 0.52555 0.40331 0.52035 0.0
C113 C 0.52767 0.43966 0.52553 0.0
C114 C 0.50566 0.37968 0.55396 0.0
C115 C 0.51465 0.37273 0.5345 0.0
C116 C 0.50738 0.41587 0.55905 0.0
C117 C 0.54259 0.57252 0.6181 0.0
C118 C 0.53273 0.53107 0.64704 0.0
C119 C 0.56362 0.6029 0.65073 0.0
C120 C 0.5601 0.60644 0.63034 0.0
C121 C 0.54979 0.5652 0.65944 0.0
C122 C 0.52909 0.53468 0.62651 0.0
C123 C 0.53653 0.57841 0.59709 0.0
O124 O 0.55238 0.59979 0.53755 0.0
O125 O 0.48795 0.56965 0.54272 0.0
O126 O 0.50099 0.55538 0.58955 0.0
O127 O 0.56581 0.58685 0.58452 0.0
H128 H 0.50371 0.63936 0.56332 0.0
H129 H 0.50657 0.70424 0.5607 0.0
H130 H 0.54213 0.71197 0.49916 0.0
H131 H 0.53842 0.64712 0.50182 0.0
H132 H 0.53206 0.39906 0.50515 0.0
H133 H 0.53608 0.46252 0.51431 0.0
H134 H 0.49788 0.35738 0.56541 0.0
H135 H 0.50051 0.42036 0.57415 0.0
H136 H 0.52207 0.50157 0.65319 0.0
H137 H 0.57609 0.62976 0.65973 0.0
H138 H 0.57022 0.63586 0.62417 0.0
H139 H 0.51529 0.50807 0.61732 0.0
C140 C 0.97479 0.56616 0.86546 0.0
C141 C 0.95195 0.56364 0.88226 0.0
C142 C 0.9042 0.57065 0.86141 0.0
C143 C 0.91695 0.56581 0.88025 0.0
C144 C 0.9273 0.57292 0.8447 0.0
C145 C 0.96207 0.57068 0.84672 0.0
U146 U 0.05912 0.55531 0.89161 0.0
O147 O 0.08863 0.52347 0.87912 0.0
O148 O 0.12316 0.58879 0.88378 0.0
C149 C 0.1228 0.55676 0.87673 0.0
C150 C 1.01202 0.56441 0.8667 0.0
C151 C 0.16031 0.55553 0.87551 0.0
C152 C 0.21271 0.55789 0.85429 0.0
C153 C 0.17697 0.55819 0.85662 0.0
C154 C 0.21591 0.55186 0.88987 0.0
C155 C 0.23287 0.55486 0.87085 0.0
C156 C 0.17995 0.55233 0.8922 0.0
C157 C 0.04443 0.53811 0.95034 0.0
C158 C 0.08487 0.54397 0.97904 0.0
C159 C 0.01406 0.51847 0.98311 0.0
C160 C 1.01086 0.52293 0.96279 0.0
C161 C 0.05105 0.52901 0.9916 0.0
C162 C 0.08159 0.54849 0.95853 0.0
C163 C 0.03889 0.54489 0.92936 0.0
O164 O 0.04236 0.59436 0.87561 0.0
O165 O 1.00841 0.52959 0.87094 0.0
O166 O 0.02741 0.51507 0.91672 0.0
O167 O 0.06264 0.58021 0.92154 0.0
H168 H 0.96122 0.56016 0.89688 0.0
H169 H 0.90019 0.56427 0.8935 0.0
H170 H 0.91824 0.57586 0.82994 0.0
H171 H 0.97914 0.57247 0.83354 0.0
H172 H 0.22429 0.55956 0.83942 0.0
H173 H 0.16224 0.56058 0.84352 0.0
H174 H 0.23076 0.54981 0.90298 0.0
H175 H 0.16766 0.55036 0.90692 0.0
H176 H 0.1138 0.5522 0.98507 0.0
H177 H 0.98756 0.50778 0.99226 0.0
H178 H 0.98201 0.51529 0.95682 0.0
H179 H 0.10795 0.56046 0.94918 0.0
C180 C 0.93844 0.48168 0.4925 0.0
C181 C 0.91327 0.45659 0.47756 0.0
C182 C 0.87155 0.40776 0.50238 0.0
C183 C 0.88011 0.41995 0.48244 0.0
C184 C 0.89656 0.43338 0.51734 0.0
C185 C 0.92984 0.47013 0.51241 0.0
U186 U 1.00735 0.54802 0.45256 0.0
O187 O 0.04251 0.61335 0.44947 0.0
O188 O 0.07236 0.5775 0.4497 0.0
C189 C 0.07648 0.6134 0.44945 0.0
C190 C 0.97493 0.51855 0.48714 0.0
C191 C 0.10744 0.64276 0.46238 0.0
C192 C 0.13601 0.66791 0.4949 0.0
C193 C 0.10473 0.63964 0.48319 0.0
C194 C 0.17221 0.70183 0.46497 0.0
C195 C 0.17013 0.69881 0.48575 0.0
C196 C 0.14109 0.67405 0.4534 0.0
C197 C 0.98077 0.51506 0.39884 0.0
C198 C 0.02075 0.5548 0.37086 0.0
C199 C 0.97041 0.48524 0.36616 0.0
C200 C 0.96045 0.48215 0.38624 0.0
C201 C 1.00093 0.52139 0.3583 0.0
C202 C 1.0109 0.55157 0.39109 0.0
C203 C 0.97137 0.50978 0.42012 0.0
O204 O 1.00251 0.5127 0.47892 0.0
O205 O 0.96956 0.54527 0.47778 0.0
O206 O 0.96472 0.53669 0.42863 0.0
O207 O 0.99412 0.5007 0.43064 0.0
H208 H 0.9198 0.46499 0.46207 0.0
H209 H 0.86185 0.40068 0.47054 0.0
H210 H 0.8905 0.42499 0.53283 0.0
H211 H 0.94916 0.48921 0.52409 0.0
H212 H 0.13391 0.66537 0.51092 0.0
H213 H 0.07874 0.61538 0.49027 0.0
H214 H 0.198 0.72593 0.45766 0.0
H215 H 0.14345 0.67684 0.43738 0.0
H216 H 0.04453 0.5829 0.36516 0.0
H217 H 0.9543 0.45919 0.35675 0.0
H218 H 0.93723 0.45379 0.392 0.0
H219 H 0.02715 0.57724 0.40072 0.0
C220 C 0.55711 0.98922 0.8245 0.0
C221 C 0.55337 0.96463 0.80831 0.0
C222 C 0.56262 0.92007 0.83006 0.0
C223 C 0.55615 0.93042 0.81105 0.0
C224 C 0.56578 0.94453 0.84634 0.0
C225 C 0.56307 0.97898 0.84355 0.0
U226 U 0.55472 0.05939 0.78763 0.0
O227 O 0.58954 0.12466 0.78498 0.0
O228 O 0.5241 0.09435 0.78724 0.0
C229 C 0.5578 0.12856 0.78649 0.0
C230 C 0.55694 0.02649 0.82105 0.0
C231 C 0.56123 0.15963 0.80015 0.0
C232 C 0.56949 0.18859 0.83313 0.0
C233 C 0.56501 0.15724 0.82076 0.0
C234 C 0.5665 0.22423 0.80425 0.0
C235 C 0.57082 0.22249 0.82483 0.0
C236 C 0.56171 0.19303 0.79204 0.0
C237 C 0.55052 0.03077 0.73304 0.0
C238 C 0.55165 0.07319 0.70628 0.0
C239 C 0.55016 0.01092 0.69881 0.0
C240 C 0.54984 1.00348 0.71907 0.0
C241 C 0.55124 0.04592 0.69216 0.0
C242 C 0.55136 0.06569 0.72661 0.0
C243 C 0.55106 0.02253 0.75421 0.0
O244 O 0.58907 0.05409 0.812 0.0
O245 O 0.52371 0.02195 0.81353 0.0
O246 O 0.51931 0.01592 0.76447 0.0
O247 O 0.58466 0.04622 0.76333 0.0
H248 H 0.54914 0.97241 0.79345 0.0
H249 H 0.55442 0.91276 0.79813 0.0
H250 H 0.57048 0.93715 0.86118 0.0
H251 H 0.56615 0.99786 0.85617 0.0
H252 H 0.57254 0.18672 0.849 0.0
H253 H 0.56472 0.13144 0.82718 0.0
H254 H 0.56662 0.24978 0.79759 0.0
H255 H 0.55864 0.19512 0.77618 0.0
H256 H 0.55276 0.10054 0.70164 0.0
H257 H 0.54906 0.98895 0.68835 0.0
H258 H 0.54908 0.97635 0.72383 0.0
H259 H 0.55201 0.08716 0.73728 0.0
C260 C 0.60595 0.49533 0.15697 0.0
C261 C 0.63404 0.50437 0.14172 0.0
C262 C 0.68159 0.50622 0.16555 0.0
C263 C 0.67157 0.50981 0.14597 0.0
C264 C 0.65271 0.49534 0.18066 0.0
C265 C 0.61511 0.49009 0.17638 0.0
U266 U 0.53853 0.49973 0.119 0.0
O267 O 0.50858 0.53512 0.11793 0.0
O268 O 0.47338 0.46939 0.11612 0.0
C269 C 0.47298 0.50324 0.11699 0.0
C270 C 0.56843 0.49425 0.1527 0.0
C271 C 0.44266 0.50384 0.12977 0.0
C272 C 0.41534 0.5062 0.16206 0.0
C273 C 0.4446 0.50393 0.15061 0.0
C274 C 0.38289 0.50844 0.13182 0.0
C275 C 0.38467 0.50899 0.15261 0.0
C276 C 0.41161 0.50581 0.12052 0.0
C277 C 0.5719 0.51049 0.06489 0.0
C278 C 0.53145 0.5088 0.03709 0.0
C279 C 0.60214 0.5335 0.03252 0.0
C280 C 0.60536 0.52616 0.05243 0.0
C281 C 0.56529 0.5252 0.02467 0.0
C282 C 0.5348 0.50176 0.05717 0.0
C283 C 0.57699 0.50497 0.08596 0.0
O284 O 0.57307 0.5281 0.14582 0.0
O285 O 0.54223 0.46275 0.14272 0.0
O286 O 0.55047 0.47066 0.09379 0.0
O287 O 0.58551 0.53593 0.09737 0.0
H288 H 0.6273 0.50833 0.12661 0.0
H289 H 0.69298 0.51745 0.13398 0.0
H290 H 0.6597 0.49248 0.19587 0.0
H291 H 0.59365 0.48308 0.18829 0.0
H292 H 0.41694 0.50644 0.17811 0.0
H293 H 0.4687 0.50257 0.15791 0.0
H294 H 0.35908 0.51 0.12431 0.0
H295 H 0.40978 0.50573 0.10447 0.0
H296 H 0.50278 0.50238 0.03139 0.0
H297 H 0.62856 0.54567 0.02321 0.0
H298 H 0.63417 0.5331 0.05818 0.0
H299 H 0.50866 0.48994 0.06668 0.0
H300 H 0.14905 0.44449 0.19457 0.0
H301 H 0.37035 0.57052 0.15209 0.0
H302 H 0.18583 0.52754 0.14574 0.0
H303 H 0.32728 0.45332 0.17695 0.0
H304 H 0.30667 0.56604 0.16025 0.0
H305 H 0.21743 0.45582 0.19647 0.0
C306 C 0.1714 0.46468 0.18413 0.0
C307 C 0.16187 0.48464 0.16974 0.0
C308 C 0.31147 0.54169 0.16436 0.0
C309 C 0.23958 0.49887 0.17244 0.0
C310 C 0.34784 0.54446 0.15994 0.0
C311 C 0.35352 0.51205 0.16371 0.0
C312 C 0.28066 0.50617 0.17248 0.0
C313 C 0.32367 0.4788 0.17382 0.0
C314 C 0.21026 0.47137 0.18537 0.0
C315 C 0.19183 0.51108 0.15682 0.0
N316 N 0.28792 0.47629 0.17757 0.0
N317 N 0.22941 0.51758 0.15855 0.0
H318 H 0.65035 0.18514 0.49635 0.0
H319 H 0.8681 0.35374 0.5298 0.0
H320 H 0.71382 0.16697 0.54357 0.0
H321 H 0.79713 0.37078 0.48609 0.0
H322 H 0.8126 0.28608 0.53579 0.0
H323 H 0.70503 0.25352 0.49251 0.0
C324 C 0.67619 0.19577 0.50583 0.0
C325 C 0.67816 0.17079 0.52015 0.0
C326 C 0.8092 0.30473 0.52496 0.0
C327 C 0.74066 0.24896 0.51607 0.0
C328 C 0.84072 0.34344 0.52163 0.0
C329 C 0.83735 0.36787 0.50731 0.0
C330 C 0.77417 0.29042 0.51386 0.0
C331 C 0.80137 0.35279 0.497 0.0
C332 C 0.70729 0.23479 0.50372 0.0
C333 C 0.71173 0.1856 0.53226 0.0
N334 N 0.77132 0.31503 0.50042 0.0
N335 N 0.74194 0.22397 0.52993 0.0
H336 H 0.56582 0.70304 0.80573 0.0
H337 H 0.61596 0.91262 0.8537 0.0
H338 H 0.64029 0.75201 0.85731 0.0
H339 H 0.52118 0.84721 0.81181 0.0
H340 H 0.62837 0.8564 0.85454 0.0
H341 H 0.55437 0.75972 0.8059 0.0
C342 C 0.58035 0.72617 0.81687 0.0
C343 C 0.60421 0.72313 0.83144 0.0
C344 C 0.60478 0.85439 0.84524 0.0
C345 C 0.5907 0.78757 0.83199 0.0
C346 C 0.59744 0.88629 0.84488 0.0
C347 C 0.56778 0.88481 0.83248 0.0
C348 C 0.5825 0.82103 0.833 0.0
C349 C 0.54497 0.85007 0.82122 0.0
C350 C 0.57346 0.75827 0.81711 0.0
C351 C 0.6219 0.75354 0.84573 0.0
N352 N 0.55303 0.81972 0.82164 0.0
N353 N 0.61472 0.78458 0.84569 0.0
H354 H 0.89137 0.50412 0.20699 0.0
H355 H 0.75085 0.56925 0.15197 0.0
H356 H 0.93315 0.59844 0.16356 0.0
H357 H 0.70596 0.46581 0.18993 0.0
H358 H 0.81862 0.58455 0.15892 0.0
H359 H 0.82424 0.49452 0.20419 0.0
C360 C 0.88653 0.52341 0.19719 0.0
C361 C 0.9177 0.55223 0.18551 0.0
C362 C 0.79401 0.55852 0.16577 0.0
C363 C 0.84114 0.54108 0.18204 0.0
C364 C 0.75529 0.54961 0.1617 0.0
C365 C 0.72274 0.51594 0.1702 0.0
C366 C 0.80036 0.5336 0.17845 0.0
C367 C 0.73026 0.49211 0.1831 0.0
C368 C 0.84818 0.51768 0.19548 0.0
C369 C 0.90985 0.57599 0.17284 0.0
N370 N 0.76836 0.50128 0.18676 0.0
N371 N 0.87224 0.56975 0.17136 0.0
H372 H 0.34335 0.92624 0.5375 0.0
H373 H 0.24661 0.7158 0.48327 0.0
H374 H 0.3788 0.90532 0.47979 0.0
H375 H 0.17045 0.75157 0.51319 0.0
H376 H 0.30467 0.77918 0.49287 0.0
H377 H 0.28674 0.8571 0.5374 0.0
C378 C 0.33886 0.9072 0.52476 0.0
C379 C 0.36508 0.92136 0.50845 0.0
C380 C 0.2753 0.77268 0.49776 0.0
C381 C 0.30257 0.84281 0.50877 0.0
C382 C 0.24236 0.73655 0.49246 0.0
C383 C 0.20399 0.72913 0.4972 0.0
C384 C 0.26967 0.80136 0.50784 0.0
C385 C 0.19976 0.75661 0.50921 0.0
C386 C 0.30699 0.86795 0.52482 0.0
C387 C 0.35873 0.89566 0.49244 0.0
N388 N 0.23239 0.79221 0.51386 0.0
N389 N 0.32827 0.85741 0.49309 0.0
H390 H 0.5367 0.4066 0.8844 0.0
H391 H 0.62726 0.3001 0.82059 0.0
H392 H 0.54593 0.41035 0.82042 0.0
H393 H 0.52444 0.22168 0.85598 0.0
H394 H 0.62218 0.3572 0.83275 0.0
H395 H 0.55217 0.35151 0.88428 0.0
C396 C 0.54153 0.39558 0.87042 0.0
C397 C 0.53957 0.41248 0.85238 0.0
C398 C 0.60168 0.32761 0.8384 0.0
C399 C 0.55897 0.3522 0.8523 0.0
C400 C 0.60456 0.29518 0.83152 0.0
C401 C 0.57576 0.25637 0.83707 0.0
C402 C 0.56987 0.32105 0.85087 0.0
C403 C 0.54696 0.25133 0.85132 0.0
C404 C 0.55055 0.36463 0.87041 0.0
C405 C 0.54662 0.39781 0.83465 0.0
N406 N 0.54403 0.28346 0.85745 0.0
N407 N 0.55648 0.36886 0.83508 0.0
H408 H 0.49319 0.91098 0.49144 0.0
H409 H 0.55188 0.7758 0.55675 0.0
H410 H 0.57569 0.95947 0.54004 0.0
H411 H 0.50118 0.74222 0.4982 0.0
H412 H 0.55574 0.84082 0.55277 0.0
H413 H 0.49179 0.84725 0.49517 0.0
C414 C 0.51117 0.90823 0.50287 0.0
C415 C 0.5348 0.9407 0.51537 0.0
C416 C 0.54395 0.81924 0.54078 0.0
C417 C 0.53259 0.86722 0.52007 0.0
C418 C 0.54138 0.78189 0.54309 0.0
C419 C 0.5263 0.75321 0.52777 0.0
C420 C 0.53093 0.82803 0.52309 0.0
C421 C 0.51356 0.76332 0.51035 0.0
C422 C 0.51036 0.8718 0.505 0.0
C423 C 0.55747 0.93537 0.52993 0.0
N424 N 0.51603 0.79964 0.50854 0.0
N425 N 0.55549 0.89923 0.53203 0.0
H426 H 0.72162 0.6298 0.82681 0.0
H427 H 0.83279 0.52821 0.88137 0.0
H428 H 0.66402 0.5274 0.86553 0.0
H429 H 0.88997 0.61798 0.83596 0.0
H430 H 0.77201 0.53145 0.87703 0.0
H431 H 0.78475 0.62957 0.83095 0.0
C432 C 0.72218 0.6074 0.83618 0.0
C433 C 0.68724 0.57849 0.84572 0.0
C434 C 0.79782 0.5505 0.86799 0.0
C435 C 0.75931 0.57823 0.85068 0.0
C436 C 0.83277 0.54887 0.87058 0.0
C437 C 0.86687 0.57288 0.85907 0.0
C438 C 0.79661 0.57649 0.85382 0.0
C439 C 0.86443 0.59854 0.84505 0.0
C440 C 0.75818 0.60721 0.83851 0.0
C441 C 0.68989 0.55016 0.85769 0.0
N442 N 0.83005 0.59972 0.84285 0.0
N443 N 0.72506 0.55085 0.85983 0.0
H444 H 0.11987 0.65887 0.20515 0.0
H445 H 0.34747 0.8007 0.1727 0.0
H446 H 0.18132 0.62168 0.16407 0.0
H447 H 0.29712 0.82046 0.22604 0.0
H448 H 0.28486 0.7384 0.16705 0.0
H449 H 0.1824 0.72161 0.21064 0.0
C450 C 0.14642 0.66399 0.19717 0.0
C451 C 0.14529 0.6349 0.18413 0.0
C452 C 0.28753 0.75628 0.18003 0.0
C453 C 0.21701 0.70681 0.19031 0.0
C454 C 0.32323 0.792 0.18323 0.0
C455 C 0.32768 0.81602 0.1999 0.0
C456 C 0.25564 0.74448 0.19344 0.0
C457 C 0.29525 0.80281 0.21311 0.0
C458 C 0.18216 0.69973 0.20041 0.0
C459 C 0.18078 0.64314 0.17432 0.0
N460 N 0.26059 0.76813 0.20954 0.0
N461 N 0.21507 0.67833 0.17754 0.0
H462 H 0.44892 0.12155 0.51987 0.0
H463 H 0.564 0.36046 0.5091 0.0
H464 H 0.57143 0.19075 0.50075 0.0
H465 H 0.46157 0.29618 0.54744 0.0
H466 H 0.56151 0.29735 0.501 0.0
H467 H 0.44768 0.18407 0.52522 0.0
C468 C 0.47529 0.14981 0.51644 0.0
C469 C 0.51028 0.15088 0.50977 0.0
C470 C 0.53959 0.2971 0.5112 0.0
C471 C 0.50907 0.22252 0.51585 0.0
C472 C 0.54078 0.33317 0.51575 0.0
C473 C 0.51304 0.33407 0.52909 0.0
C474 C 0.51023 0.26126 0.51986 0.0
C475 C 0.484 0.29738 0.53733 0.0
C476 C 0.47469 0.18549 0.51967 0.0
C477 C 0.54381 0.18848 0.50592 0.0
N478 N 0.48332 0.26262 0.53256 0.0
N479 N 0.54234 0.22267 0.50893 0.0
H480 H 0.47043 0.60947 0.83388 0.0
H481 H 0.25901 0.50929 0.89 0.0
H482 H 0.42648 0.50324 0.8697 0.0
H483 H 0.29465 0.60043 0.84516 0.0
H484 H 0.32146 0.50891 0.88436 0.0
H485 H 0.40736 0.6083 0.83907 0.0
C486 C 0.44751 0.58582 0.84284 0.0
C487 C 0.45393 0.55643 0.85139 0.0
C488 C 0.31554 0.52893 0.87574 0.0
C489 C 0.38138 0.55514 0.85756 0.0
C490 C 0.28 0.52941 0.87907 0.0
C491 C 0.27131 0.5549 0.86806 0.0
C492 C 0.34296 0.55439 0.86141 0.0
C493 C 0.29963 0.57989 0.85388 0.0
C494 C 0.4114 0.58516 0.84577 0.0
C495 C 0.4229 0.52646 0.86277 0.0
N496 N 0.33405 0.57907 0.85102 0.0
N497 N 0.38812 0.52673 0.86561 0.0
H498 H 0.90408 0.42807 0.19516 0.0
H499 H 0.77145 0.19533 0.16955 0.0
H500 H 0.95129 0.36531 0.16143 0.0
H501 H 0.73859 0.25723 0.21264 0.0
H502 H 0.83559 0.25672 0.16464 0.0
H503 H 0.84219 0.36579 0.19983 0.0
C504 C 0.90149 0.40117 0.18859 0.0
C505 C 0.93323 0.40225 0.17775 0.0
C506 C 0.81441 0.25676 0.17523 0.0
C507 C 0.86133 0.32984 0.1832 0.0
C508 C 0.7776 0.22177 0.17798 0.0
C509 C 0.74927 0.22087 0.19156 0.0
C510 C 0.82305 0.29141 0.186 0.0
C511 C 0.75941 0.25609 0.2022 0.0
C512 C 0.86593 0.36538 0.1914 0.0
C513 C 0.92774 0.366 0.16988 0.0
N514 N 0.79521 0.28977 0.19912 0.0
N515 N 0.89238 0.33128 0.17267 0.0
H516 H 0.09136 0.59339 0.11525 0.0
H517 H 0.99886 0.46902 0.01646 0.0
H518 H 1.00695 0.46699 0.11628 0.0
H519 H 0.10927 0.58164 0.01701 0.0
H520 H 1.00001 0.46773 0.05273 0.0
H521 H 0.09776 0.58977 0.07923 0.0
C522 C 0.07445 0.56475 0.10785 0.0
C523 C 0.0486 0.53046 0.1187 0.0
C524 C 0.02425 0.49246 0.04491 0.0
C525 C 0.05505 0.52618 0.07737 0.0
C526 C 0.02352 0.49339 0.02417 0.0
C527 C 0.05389 0.52568 0.01356 0.0
C528 C 0.05537 0.52422 0.05526 0.0
C529 C 0.08532 0.55604 0.02446 0.0
C530 C 0.07813 0.56269 0.0873 0.0
C531 C 0.02739 0.49408 0.10844 0.0
N532 N 0.08499 0.55479 0.04467 0.0
N533 N 0.03062 0.49299 0.08828 0.0
H534 H 0.57504 0.11633 0.44544 0.0
H535 H 0.48401 0.97029 0.35235 0.0
H536 H 0.48701 0.99221 0.45345 0.0
H537 H 0.55185 0.09899 0.34914 0.0
H538 H 0.48128 0.97542 0.38883 0.0
H539 H 0.56387 0.1089 0.40989 0.0
C540 C 0.55278 0.08752 0.43965 0.0
C541 C 0.53174 0.05496 0.45238 0.0
C542 C 0.49634 1.00245 0.38006 0.0
C543 C 0.51938 0.04563 0.41126 0.0
C544 C 0.49781 0.99956 0.35926 0.0
C545 C 0.51875 0.03426 0.34767 0.0
C546 C 0.5159 0.04031 0.38924 0.0
C547 C 0.53613 0.07138 0.35743 0.0
C548 C 0.54643 0.08319 0.41928 0.0
C549 C 0.50345 0.01818 0.44408 0.0
N550 N 0.53458 0.07334 0.37751 0.0
N551 N 0.49845 0.01429 0.42394 0.0
H552 H 0.61503 0.60291 0.78511 0.0
H553 H 0.49437 0.50777 0.68428 0.0
H554 H 0.49259 0.50789 0.78239 0.0
H555 H 0.6095 0.61535 0.68499 0.0
H556 H 0.49626 0.50507 0.72038 0.0
H557 H 0.61607 0.60708 0.74855 0.0
C558 C 0.58842 0.58312 0.77686 0.0
C559 C 0.55374 0.55491 0.7868 0.0
C560 C 0.52117 0.52932 0.71266 0.0
C561 C 0.55478 0.55912 0.74519 0.0
C562 C 0.52028 0.53063 0.69196 0.0
C563 C 0.55177 0.56186 0.68144 0.0
C564 C 0.55383 0.55938 0.72309 0.0
C565 C 0.58424 0.59099 0.69242 0.0
C566 C 0.58902 0.58542 0.75604 0.0
C567 C 0.52007 0.52999 0.7754 0.0
N568 N 0.58442 0.58908 0.7126 0.0
N569 N 0.52151 0.53255 0.7553 0.0
H570 H 0.4853 0.08235 0.5756 0.0
H571 H 0.59244 0.03267 0.66258 0.0
H572 H 0.56725 0.03905 0.56511 0.0
H573 H 0.51029 0.07606 0.67246 0.0
H574 H 0.58832 0.0403 0.62687 0.0
H575 H 0.4996 0.08676 0.61102 0.0
C576 C 0.50668 0.07419 0.58078 0.0
C577 C 0.52487 0.05998 0.5675 0.0
C578 C 0.57143 0.04844 0.63685 0.0
C579 C 0.54111 0.06452 0.60804 0.0
C580 C 0.57356 0.04386 0.65724 0.0
C581 C 0.55135 0.05336 0.67055 0.0
C582 C 0.54685 0.06257 0.62965 0.0
C583 C 0.52809 0.06856 0.66279 0.0
C584 C 0.51479 0.07663 0.601 0.0
C585 C 0.55251 0.05004 0.57491 0.0
N586 N 0.52623 0.0724 0.64286 0.0
N587 N 0.55949 0.05209 0.59476 0.0
H588 H 0.63469 0.63214 0.9096 0.0
H589 H 0.51164 0.47758 0.99628 0.0
H590 H 0.52676 0.5206 0.89845 0.0
H591 H 0.61415 0.59442 1.00536 0.0
H592 H 0.51395 0.4925 0.9607 0.0
H593 H 0.6258 0.6183 0.94499 0.0
C594 C 0.60913 0.60459 0.91464 0.0
C595 C 0.58148 0.57741 0.90114 0.0
C596 C 0.5357 0.51493 0.97054 0.0
C597 C 0.57103 0.56117 0.94175 0.0
C598 C 0.53426 0.50651 0.9908 0.0
C599 C 0.56309 0.53467 1.00365 0.0
C600 C 0.56609 0.55177 0.96323 0.0
C601 C 0.59185 0.57162 0.99587 0.0
C602 C 0.60394 0.59673 0.93489 0.0
C603 C 0.54876 0.54228 0.90847 0.0
N604 N 0.59273 0.57898 0.97619 0.0
N605 N 0.54448 0.53501 0.92835 0.0
H606 H 0.04337 0.56929 0.23149 0.0
H607 H 0.0145 0.46808 0.33828 0.0
H608 H 0.02623 0.45152 0.24197 0.0
H609 H 0.01378 0.57854 0.33038 0.0
H610 H 0.02659 0.46649 0.30292 0.0
H611 H 0.03851 0.57745 0.26753 0.0
C612 C 0.03851 0.54521 0.24137 0.0
C613 C 0.03512 0.50965 0.23382 0.0
C614 C 0.02387 0.4912 0.30882 0.0
C615 C 0.03003 0.51886 0.27472 0.0
C616 C 0.01692 0.49206 0.32902 0.0
C617 C 1.01243 0.52308 0.33716 0.0
C618 C 0.02624 0.52153 0.2965 0.0
C619 C 0.01689 0.55398 0.3246 0.0
C620 C 0.03586 0.5499 0.26187 0.0
C621 C 0.02896 0.47939 0.24715 0.0
N622 N 0.02319 0.55225 0.30478 0.0
N623 N 0.0267 0.48474 0.2669 0.0
loop_
_geom_bond_atom_site_label_1
_geom_bond_atom_site_label_2
_geom_bond_distance
_geom_bond_site_symmetry_2
_ccdc_geom_bond_type
Dy0 O4 2.398 . S
Dy0 O5 2.491 . S
Dy0 O6 2.403 . S
Dy0 O7 2.664 . S
Dy0 O11 2.326 . S
Dy0 O15 2.310 . S
Dy0 O16 2.351 1_455 S
C1 O12 1.185 . S
C1 O13 1.355 . S
C2 O4 1.185 . S
C2 O5 1.355 . S
Dy3 O7 2.310 1_655 S
Dy3 O10 2.351 1_655 S
Dy3 O12 2.398 . S
Dy3 O13 2.491 . S
Dy3 O14 2.403 1_655 S
Dy3 O15 2.664 1_655 S
Dy3 O17 2.326 . S
O4 Dy0 2.398 . S
O4 C2 1.185 . S
O5 Dy0 2.491 . S
O5 C2 1.355 . S
O6 Dy0 2.403 . S
O6 C8 1.254 . S
O7 Dy0 2.664 . S
O7 Dy3 2.310 1_455 S
O7 C8 1.268 . S
C8 O6 1.254 . S
C8 O7 1.268 . S
C9 O14 1.254 . S
C9 O15 1.268 . S
O10 Dy3 2.351 1_455 S
O10 C18 1.249 . S
O11 Dy0 2.326 . S
O11 C18 1.267 . S
O12 C1 1.185 . S
O12 Dy3 2.398 . S
O13 C1 1.355 . S
O13 Dy3 2.491 . S
O14 Dy3 2.403 1_455 S
O14 C9 1.254 . S
O15 Dy0 2.310 . S
O15 Dy3 2.664 1_455 S
O15 C9 1.268 . S
O16 Dy0 2.351 1_655 S
O16 C19 1.249 . S
O17 Dy3 2.326 . S
O17 C19 1.267 . S
C18 O10 1.249 . S
C18 O11 1.267 . S
C19 O16 1.249 . S
C19 O17 1.267 . S
Dy20 O24 2.398 1_545 S
Dy20 O25 2.491 1_545 S
Dy20 O26 2.403 . S
Dy20 O27 2.664 . S
Dy20 O31 2.326 1_545 S
Dy20 O35 2.310 . S
Dy20 O36 2.351 . S
C21 O32 1.185 . S
C21 O33 1.355 . S
C22 O24 1.185 . S
C22 O25 1.355 . S
Dy23 O27 2.310 . S
Dy23 O30 2.351 1_545 S
Dy23 O32 2.398 . S
Dy23 O33 2.491 . S
Dy23 O34 2.403 . S
Dy23 O35 2.664 . S
Dy23 O37 2.326 . S
O24 Dy20 2.398 1_565 S
O24 C22 1.185 . S
O25 Dy20 2.491 1_565 S
O25 C22 1.355 . S
O26 Dy20 2.403 . S
O26 C28 1.254 . S
O27 Dy20 2.664 . S
O27 Dy23 2.310 . S
O27 C28 1.268 . S
C28 O26 1.254 . S
C28 O27 1.268 . S
C29 O34 1.254 . S
C29 O35 1.268 . S
O30 Dy23 2.351 1_565 S
O30 C38 1.249 . S
O31 Dy20 2.326 1_565 S
O31 C38 1.267 . S
O32 C21 1.185 . S
O32 Dy23 2.398 . S
O33 C21 1.355 . S
O33 Dy23 2.491 . S
O34 Dy23 2.403 . S
O34 C29 1.254 . S
O35 Dy20 2.310 . S
O35 Dy23 2.664 . S
O35 C29 1.268 . S
O36 Dy20 2.351 . S
O36 C39 1.249 . S
O37 Dy23 2.326 . S
O37 C39 1.267 . S
C38 O30 1.249 . S
C38 O31 1.267 . S
C39 O36 1.249 . S
C39 O37 1.267 . S
Dy40 O44 2.398 . S
Dy40 O45 2.491 . S
Dy40 O46 2.403 . S
Dy40 O47 2.664 . S
Dy40 O51 2.326 . S
Dy40 O55 2.310 . S
Dy40 O56 2.351 . S
C41 O52 1.185 . S
C41 O53 1.355 . S
C42 O44 1.185 . S
C42 O45 1.355 . S
Dy43 O47 2.310 . S
Dy43 O50 2.351 . S
Dy43 O52 2.398 . S
Dy43 O53 2.491 . S
Dy43 O54 2.403 . S
Dy43 O55 2.664 . S
Dy43 O57 2.326 . S
O44 Dy40 2.398 . S
O44 C42 1.185 . S
O45 Dy40 2.491 . S
O45 C42 1.355 . S
O46 Dy40 2.403 . S
O46 C48 1.254 . S
O47 Dy40 2.664 . S
O47 Dy43 2.310 . S
O47 C48 1.268 . S
C48 O46 1.254 . S
C48 O47 1.268 . S
C49 O54 1.254 . S
C49 O55 1.268 . S
O50 Dy43 2.351 . S
O50 C58 1.249 . S
O51 Dy40 2.326 . S
O51 C58 1.267 . S
O52 C41 1.185 . S
O52 Dy43 2.398 . S
O53 C41 1.355 . S
O53 Dy43 2.491 . S
O54 Dy43 2.403 . S
O54 C49 1.254 . S
O55 Dy40 2.310 . S
O55 Dy43 2.664 . S
O55 C49 1.268 . S
O56 Dy40 2.351 . S
O56 C59 1.249 . S
O57 Dy43 2.326 . S
O57 C59 1.267 . S
C58 O50 1.249 . S
C58 O51 1.267 . S
C59 O56 1.249 . S
C59 O57 1.267 . S
C60 C61 1.264 . S
C60 C65 1.479 . S
C60 C70 1.465 . S
C61 C60 1.264 . S
C61 C63 1.339 . S
C61 H88 0.931 . S
C62 C63 1.395 . S
C62 C64 1.320 . S
C63 C61 1.339 . S
C63 C62 1.395 . S
C63 H89 0.929 . S
C64 C62 1.320 . S
C64 C65 1.405 . S
C64 H90 0.930 . S
C65 C60 1.479 . S
C65 C64 1.405 . S
C65 H91 0.931 . S
U66 O67 2.454 1_545 S
U66 O68 2.458 1_545 S
U66 C69 2.984 1_545 S
U66 C70 2.847 . S
U66 C83 2.882 . S
U66 O84 2.441 . S
U66 O85 2.420 . S
U66 O86 2.455 1_545 S
U66 O87 2.449 . S
O67 U66 2.454 1_565 S
O67 C69 1.353 . S
O68 U66 2.458 1_565 S
O68 C69 1.286 . S
C69 U66 2.984 1_565 S
C69 O67 1.353 . S
C69 O68 1.286 . S
C69 C71 1.363 . S
C70 C60 1.465 . S
C70 U66 2.847 . S
C70 O84 1.249 . S
C70 O85 1.202 . S
C71 C69 1.363 . S
C71 C73 1.408 . S
C71 C76 1.342 . S
C72 C73 1.310 . S
C72 C75 1.461 . S
C72 H92 0.932 . S
C73 C71 1.408 . S
C73 C72 1.310 . S
C73 H93 0.930 . S
C74 C75 1.474 . S
C74 C76 1.285 . S
C74 H94 0.929 . S
C75 C72 1.461 . S
C75 C74 1.474 . S
C76 C71 1.342 . S
C76 C74 1.285 . S
C76 H95 0.930 . S
C77 C80 1.424 . S
C77 C82 1.245 1_545 S
C77 C83 1.428 . S
C78 C81 1.260 1_565 S
C78 C82 1.477 . S
C78 H96 0.932 . S
C79 C80 1.384 . S
C79 C81 1.479 . S
C79 H97 0.929 . S
C80 C77 1.424 . S
C80 C79 1.384 . S
C80 H98 0.928 . S
C81 C78 1.260 1_545 S
C81 C79 1.479 . S
C82 C77 1.245 1_565 S
C82 C78 1.477 . S
C82 H99 0.932 . S
C83 U66 2.882 . S
C83 C77 1.428 . S
C83 O86 1.301 1_545 S
C83 O87 1.282 . S
O84 U66 2.441 . S
O84 C70 1.249 . S
O85 U66 2.420 . S
O85 C70 1.202 . S
O86 U66 2.455 1_565 S
O86 C83 1.301 1_565 S
O87 U66 2.449 . S
O87 C83 1.282 . S
H88 C61 0.931 . S
H89 C63 0.929 . S
H90 C64 0.930 . S
H91 C65 0.931 . S
H92 C72 0.932 . S
H93 C73 0.930 . S
H94 C74 0.929 . S
H95 C76 0.930 . S
H96 C78 0.932 . S
H97 C79 0.929 . S
H98 C80 0.928 . S
H99 C82 0.932 . S
C100 C101 1.264 . S
C100 C105 1.479 . S
C100 C110 1.465 . S
C101 C100 1.264 . S
C101 C103 1.339 . S
C101 H128 0.931 . S
C102 C103 1.395 . S
C102 C104 1.320 . S
C103 C101 1.339 . S
C103 C102 1.395 . S
C103 H129 0.929 . S
C104 C102 1.320 . S
C104 C105 1.405 . S
C104 H130 0.930 . S
C105 C100 1.479 . S
C105 C104 1.405 . S
C105 H131 0.931 . S
U106 O107 2.454 . S
U106 O108 2.458 . S
U106 C109 2.984 . S
U106 C110 2.847 . S
U106 C123 2.882 . S
U106 O124 2.441 . S
U106 O125 2.420 . S
U106 O126 2.455 . S
U106 O127 2.449 . S
O107 U106 2.454 . S
O107 C109 1.353 . S
O108 U106 2.458 . S
O108 C109 1.286 . S
C109 U106 2.984 . S
C109 O107 1.353 . S
C109 O108 1.286 . S
C109 C111 1.363 . S
C110 C100 1.465 . S
C110 U106 2.847 . S
C110 O124 1.249 . S
C110 O125 1.202 . S
C111 C109 1.363 . S
C111 C113 1.408 . S
C111 C116 1.342 . S
C112 C113 1.310 . S
C112 C115 1.461 . S
C112 H132 0.932 . S
C113 C111 1.408 . S
C113 C112 1.310 . S
C113 H133 0.930 . S
C114 C115 1.474 . S
C114 C116 1.285 . S
C114 H134 0.929 . S
C115 C112 1.461 . S
C115 C114 1.474 . S
C116 C111 1.342 . S
C116 C114 1.285 . S
C116 H135 0.930 . S
C117 C120 1.424 . S
C117 C122 1.245 . S
C117 C123 1.428 . S
C118 C121 1.260 . S
C118 C122 1.477 . S
C118 H136 0.932 . S
C119 C120 1.384 . S
C119 C121 1.479 . S
C119 H137 0.929 . S
C120 C117 1.424 . S
C120 C119 1.384 . S
C120 H138 0.928 . S
C121 C118 1.260 . S
C121 C119 1.479 . S
C122 C117 1.245 . S
C122 C118 1.477 . S
C122 H139 0.932 . S
C123 U106 2.882 . S
C123 C117 1.428 . S
C123 O126 1.301 . S
C123 O127 1.282 . S
O124 U106 2.441 . S
O124 C110 1.249 . S
O125 U106 2.420 . S
O125 C110 1.202 . S
O126 U106 2.455 . S
O126 C123 1.301 . S
O127 U106 2.449 . S
O127 C123 1.282 . S
H128 C101 0.931 . S
H129 C103 0.929 . S
H130 C104 0.930 . S
H131 C105 0.931 . S
H132 C112 0.932 . S
H133 C113 0.930 . S
H134 C114 0.929 . S
H135 C116 0.930 . S
H136 C118 0.932 . S
H137 C119 0.929 . S
H138 C120 0.928 . S
H139 C122 0.932 . S
C140 C141 1.264 . S
C140 C145 1.479 . S
C140 C150 1.465 . S
C141 C140 1.264 . S
C141 C143 1.339 . S
C141 H168 0.931 . S
C142 C143 1.395 . S
C142 C144 1.320 . S
C143 C141 1.339 . S
C143 C142 1.395 . S
C143 H169 0.929 . S
C144 C142 1.320 . S
C144 C145 1.405 . S
C144 H170 0.930 . S
C145 C140 1.479 . S
C145 C144 1.405 . S
C145 H171 0.931 . S
U146 O147 2.454 . S
U146 O148 2.458 . S
U146 C149 2.984 . S
U146 C150 2.847 1_455 S
U146 C163 2.882 . S
U146 O164 2.441 . S
U146 O165 2.420 1_455 S
U146 O166 2.455 . S
U146 O167 2.449 . S
O147 U146 2.454 . S
O147 C149 1.353 . S
O148 U146 2.458 . S
O148 C149 1.286 . S
C149 U146 2.984 . S
C149 O147 1.353 . S
C149 O148 1.286 . S
C149 C151 1.363 . S
C150 C140 1.465 . S
C150 U146 2.847 1_655 S
C150 O164 1.249 1_655 S
C150 O165 1.202 . S
C151 C149 1.363 . S
C151 C153 1.408 . S
C151 C156 1.342 . S
C152 C153 1.310 . S
C152 C155 1.461 . S
C152 H172 0.932 . S
C153 C151 1.408 . S
C153 C152 1.310 . S
C153 H173 0.930 . S
C154 C155 1.474 . S
C154 C156 1.285 . S
C154 H174 0.929 . S
C155 C152 1.461 . S
C155 C154 1.474 . S
C156 C151 1.342 . S
C156 C154 1.285 . S
C156 H175 0.930 . S
C157 C160 1.424 . S
C157 C162 1.245 . S
C157 C163 1.428 . S
C158 C161 1.260 . S
C158 C162 1.477 . S
C158 H176 0.932 . S
C159 C160 1.384 . S
C159 C161 1.479 . S
C159 H177 0.929 1_455 S
C160 C157 1.424 . S
C160 C159 1.384 . S
C160 H178 0.928 1_455 S
C161 C158 1.260 . S
C161 C159 1.479 . S
C162 C157 1.245 . S
C162 C158 1.477 . S
C162 H179 0.932 . S
C163 U146 2.882 . S
C163 C157 1.428 . S
C163 O166 1.301 . S
C163 O167 1.282 . S
O164 U146 2.441 . S
O164 C150 1.249 1_455 S
O165 U146 2.420 1_655 S
O165 C150 1.202 . S
O166 U146 2.455 . S
O166 C163 1.301 . S
O167 U146 2.449 . S
O167 C163 1.282 . S
H168 C141 0.931 . S
H169 C143 0.929 . S
H170 C144 0.930 . S
H171 C145 0.931 . S
H172 C152 0.932 . S
H173 C153 0.930 . S
H174 C154 0.929 . S
H175 C156 0.930 . S
H176 C158 0.932 . S
H177 C159 0.929 1_655 S
H178 C160 0.928 1_655 S
H179 C162 0.932 . S
C180 C181 1.264 . S
C180 C185 1.479 . S
C180 C190 1.465 . S
C181 C180 1.264 . S
C181 C183 1.339 . S
C181 H208 0.931 . S
C182 C183 1.395 . S
C182 C184 1.320 . S
C183 C181 1.339 . S
C183 C182 1.395 . S
C183 H209 0.929 . S
C184 C182 1.320 . S
C184 C185 1.405 . S
C184 H210 0.930 . S
C185 C180 1.479 . S
C185 C184 1.405 . S
C185 H211 0.931 . S
U186 O187 2.454 1_655 S
U186 O188 2.458 1_655 S
U186 C189 2.984 1_655 S
U186 C190 2.847 . S
U186 C203 2.882 . S
U186 O204 2.441 . S
U186 O205 2.420 . S
U186 O206 2.455 1_655 S
U186 O207 2.449 . S
O187 U186 2.454 1_455 S
O187 C189 1.353 . S
O188 U186 2.458 1_455 S
O188 C189 1.286 . S
C189 U186 2.984 1_455 S
C189 O187 1.353 . S
C189 O188 1.286 . S
C189 C191 1.363 . S
C190 C180 1.465 . S
C190 U186 2.847 . S
C190 O204 1.249 . S
C190 O205 1.202 . S
C191 C189 1.363 . S
C191 C193 1.408 . S
C191 C196 1.342 . S
C192 C193 1.310 . S
C192 C195 1.461 . S
C192 H212 0.932 . S
C193 C191 1.408 . S
C193 C192 1.310 . S
C193 H213 0.930 . S
C194 C195 1.474 . S
C194 C196 1.285 . S
C194 H214 0.929 . S
C195 C192 1.461 . S
C195 C194 1.474 . S
C196 C191 1.342 . S
C196 C194 1.285 . S
C196 H215 0.930 . S
C197 C200 1.424 1_455 S
C197 C202 1.245 . S
C197 C203 1.428 1_455 S
C198 C201 1.260 . S
C198 C202 1.477 . S
C198 H216 0.932 . S
C199 C200 1.384 . S
C199 C201 1.479 1_655 S
C199 H217 0.929 . S
C200 C197 1.424 1_655 S
C200 C199 1.384 . S
C200 H218 0.928 . S
C201 C198 1.260 . S
C201 C199 1.479 1_455 S
C202 C197 1.245 . S
C202 C198 1.477 . S
C202 H219 0.932 . S
C203 U186 2.882 . S
C203 C197 1.428 1_655 S
C203 O206 1.301 1_655 S
C203 O207 1.282 . S
O204 U186 2.441 . S
O204 C190 1.249 . S
O205 U186 2.420 . S
O205 C190 1.202 . S
O206 U186 2.455 1_455 S
O206 C203 1.301 1_455 S
O207 U186 2.449 . S
O207 C203 1.282 . S
H208 C181 0.931 . S
H209 C183 0.929 . S
H210 C184 0.930 . S
H211 C185 0.931 . S
H212 C192 0.932 . S
H213 C193 0.930 . S
H214 C194 0.929 . S
H215 C196 0.930 . S
H216 C198 0.932 . S
H217 C199 0.929 . S
H218 C200 0.928 . S
H219 C202 0.932 . S
C220 C221 1.264 . S
C220 C225 1.479 . S
C220 C230 1.465 . S
C221 C220 1.264 . S
C221 C223 1.339 . S
C221 H248 0.931 . S
C222 C223 1.395 . S
C222 C224 1.320 . S
C223 C221 1.339 . S
C223 C222 1.395 . S
C223 H249 0.929 . S
C224 C222 1.320 . S
C224 C225 1.405 . S
C224 H250 0.930 . S
C225 C220 1.479 . S
C225 C224 1.405 . S
C225 H251 0.931 . S
U226 O227 2.454 . S
U226 O228 2.458 . S
U226 C229 2.984 . S
U226 C230 2.847 1_545 S
U226 C243 2.882 . S
U226 O244 2.441 . S
U226 O245 2.420 1_545 S
U226 O246 2.455 . S
U226 O247 2.449 . S
O227 U226 2.454 . S
O227 C229 1.353 . S
O228 U226 2.458 . S
O228 C229 1.286 . S
C229 U226 2.984 . S
C229 O227 1.353 . S
C229 O228 1.286 . S
C229 C231 1.363 . S
C230 C220 1.465 . S
C230 U226 2.847 1_565 S
C230 O244 1.249 1_565 S
C230 O245 1.202 . S
C231 C229 1.363 . S
C231 C233 1.408 . S
C231 C236 1.342 . S
C232 C233 1.310 . S
C232 C235 1.461 . S
C232 H252 0.932 . S
C233 C231 1.408 . S
C233 C232 1.310 . S
C233 H253 0.930 . S
C234 C235 1.474 . S
C234 C236 1.285 . S
C234 H254 0.929 . S
C235 C232 1.461 . S
C235 C234 1.474 . S
C236 C231 1.342 . S
C236 C234 1.285 . S
C236 H255 0.930 . S
C237 C240 1.424 . S
C237 C242 1.245 . S
C237 C243 1.428 . S
C238 C241 1.260 . S
C238 C242 1.477 . S
C238 H256 0.932 . S
C239 C240 1.384 . S
C239 C241 1.479 . S
C239 H257 0.929 1_545 S
C240 C237 1.424 . S
C240 C239 1.384 . S
C240 H258 0.935 . S
C241 C238 1.260 . S
C241 C239 1.479 . S
C242 C237 1.245 . S
C242 C238 1.477 . S
C242 H259 0.932 . S
C243 U226 2.882 . S
C243 C237 1.428 . S
C243 O246 1.301 . S
C243 O247 1.282 . S
O244 U226 2.441 . S
O244 C230 1.249 1_545 S
O245 U226 2.420 1_565 S
O245 C230 1.202 . S
O246 U226 2.455 . S
O246 C243 1.301 . S
O247 U226 2.449 . S
O247 C243 1.282 . S
H248 C221 0.931 . S
H249 C223 0.929 . S
H250 C224 0.930 . S
H251 C225 0.931 . S
H252 C232 0.932 . S
H253 C233 0.930 . S
H254 C234 0.929 . S
H255 C236 0.930 . S
H256 C238 0.932 . S
H257 C239 0.929 1_565 S
H258 C240 0.935 . S
H259 C242 0.932 . S
C260 C261 1.264 . S
C260 C265 1.479 . S
C260 C270 1.465 . S
C261 C260 1.264 . S
C261 C263 1.339 . S
C261 H288 0.931 . S
C262 C263 1.395 . S
C262 C264 1.320 . S
C263 C261 1.339 . S
C263 C262 1.395 . S
C263 H289 0.929 . S
C264 C262 1.320 . S
C264 C265 1.405 . S
C264 H290 0.930 . S
C265 C260 1.479 . S
C265 C264 1.405 . S
C265 H291 0.931 . S
U266 O267 2.454 . S
U266 O268 2.458 . S
U266 C269 2.984 . S
U266 C270 2.847 . S
U266 C283 2.882 . S
U266 O284 2.441 . S
U266 O285 2.420 . S
U266 O286 2.455 . S
U266 O287 2.449 . S
O267 U266 2.454 . S
O267 C269 1.353 . S
O268 U266 2.458 . S
O268 C269 1.286 . S
C269 U266 2.984 . S
C269 O267 1.353 . S
C269 O268 1.286 . S
C269 C271 1.363 . S
C270 C260 1.465 . S
C270 U266 2.847 . S
C270 O284 1.249 . S
C270 O285 1.202 . S
C271 C269 1.363 . S
C271 C273 1.408 . S
C271 C276 1.342 . S
C272 C273 1.310 . S
C272 C275 1.461 . S
C272 H292 0.932 . S
C273 C271 1.408 . S
C273 C272 1.310 . S
C273 H293 0.930 . S
C274 C275 1.474 . S
C274 C276 1.285 . S
C274 H294 0.929 . S
C275 C272 1.461 . S
C275 C274 1.474 . S
C276 C271 1.342 . S
C276 C274 1.285 . S
C276 H295 0.930 . S
C277 C280 1.424 . S
C277 C282 1.245 . S
C277 C283 1.428 . S
C278 C281 1.260 . S
C278 C282 1.477 . S
C278 H296 0.932 . S
C279 C280 1.384 . S
C279 C281 1.479 . S
C279 H297 0.929 . S
C280 C277 1.424 . S
C280 C279 1.384 . S
C280 H298 0.928 . S
C281 C278 1.260 . S
C281 C279 1.479 . S
C282 C277 1.245 . S
C282 C278 1.477 . S
C282 H299 0.932 . S
C283 U266 2.882 . S
C283 C277 1.428 . S
C283 O286 1.301 . S
C283 O287 1.282 . S
O284 U266 2.441 . S
O284 C270 1.249 . S
O285 U266 2.420 . S
O285 C270 1.202 . S
O286 U266 2.455 . S
O286 C283 1.301 . S
O287 U266 2.449 . S
O287 C283 1.282 . S
H288 C261 0.931 . S
H289 C263 0.929 . S
H290 C264 0.930 . S
H291 C265 0.931 . S
H292 C272 0.932 . S
H293 C273 0.930 . S
H294 C274 0.929 . S
H295 C276 0.930 . S
H296 C278 0.932 . S
H297 C279 0.929 . S
H298 C280 0.928 . S
H299 C282 0.932 . S
H300 C306 0.930 . S
H301 C310 0.930 . S
H302 C315 0.929 . S
H303 C313 0.929 . S
H304 C308 0.929 . S
H305 C314 0.929 . S
C306 H300 0.930 . S
C306 C307 1.367 . S
C306 C314 1.378 . S
C307 C306 1.367 . S
C307 C315 1.433 . S
C308 H304 0.929 . S
C308 C310 1.378 . S
C308 C312 1.350 . S
C309 C312 1.463 . S
C309 C314 1.350 . S
C309 N317 1.427 . S
C310 H301 0.930 . S
C310 C308 1.378 . S
C310 C311 1.367 . S
C311 C310 1.367 . S
C311 C313 1.433 . S
C312 C308 1.350 . S
C312 C309 1.463 . S
C312 N316 1.427 . S
C313 H303 0.929 . S
C313 C311 1.433 . S
C313 N316 1.384 . S
C314 H305 0.929 . S
C314 C306 1.378 . S
C314 C309 1.350 . S
C315 H302 0.929 . S
C315 C307 1.433 . S
C315 N317 1.384 . S
N316 C312 1.427 . S
N316 C313 1.384 . S
N317 C309 1.427 . S
N317 C315 1.384 . S
H318 C324 0.930 . S
H319 C328 0.930 . S
H320 C333 0.929 . S
H321 C331 0.929 . S
H322 C326 0.929 . S
H323 C332 0.929 . S
C324 H318 0.930 . S
C324 C325 1.367 . S
C324 C332 1.378 . S
C325 C324 1.367 . S
C325 C333 1.433 . S
C326 H322 0.929 . S
C326 C328 1.378 . S
C326 C330 1.350 . S
C327 C330 1.463 . S
C327 C332 1.350 . S
C327 N335 1.427 . S
C328 H319 0.930 . S
C328 C326 1.378 . S
C328 C329 1.367 . S
C329 C328 1.367 . S
C329 C331 1.433 . S
C330 C326 1.350 . S
C330 C327 1.463 . S
C330 N334 1.427 . S
C331 H321 0.929 . S
C331 C329 1.433 . S
C331 N334 1.384 . S
C332 H323 0.929 . S
C332 C324 1.378 . S
C332 C327 1.350 . S
C333 H320 0.929 . S
C333 C325 1.433 . S
C333 N335 1.384 . S
N334 C330 1.427 . S
N334 C331 1.384 . S
N335 C327 1.427 . S
N335 C333 1.384 . S
H336 C342 0.930 . S
H337 C346 0.930 . S
H338 C351 0.929 . S
H339 C349 0.929 . S
H340 C344 0.929 . S
H341 C350 0.929 . S
C342 H336 0.930 . S
C342 C343 1.367 . S
C342 C350 1.378 . S
C343 C342 1.367 . S
C343 C351 1.433 . S
C344 H340 0.929 . S
C344 C346 1.378 . S
C344 C348 1.350 . S
C345 C348 1.463 . S
C345 C350 1.350 . S
C345 N353 1.427 . S
C346 H337 0.930 . S
C346 C344 1.378 . S
C346 C347 1.367 . S
C347 C346 1.367 . S
C347 C349 1.433 . S
C348 C344 1.350 . S
C348 C345 1.463 . S
C348 N352 1.427 . S
C349 H339 0.929 . S
C349 C347 1.433 . S
C349 N352 1.384 . S
C350 H341 0.929 . S
C350 C342 1.378 . S
C350 C345 1.350 . S
C351 H338 0.929 . S
C351 C343 1.433 . S
C351 N353 1.384 . S
N352 C348 1.427 . S
N352 C349 1.384 . S
N353 C345 1.427 . S
N353 C351 1.384 . S
H354 C360 0.930 . S
H355 C364 0.930 . S
H356 C369 0.929 . S
H357 C367 0.929 . S
H358 C362 0.929 . S
H359 C368 0.929 . S
C360 H354 0.930 . S
C360 C361 1.367 . S
C360 C368 1.378 . S
C361 C360 1.367 . S
C361 C369 1.433 . S
C362 H358 0.929 . S
C362 C364 1.378 . S
C362 C366 1.350 . S
C363 C366 1.463 . S
C363 C368 1.350 . S
C363 N371 1.427 . S
C364 H355 0.930 . S
C364 C362 1.378 . S
C364 C365 1.367 . S
C365 C364 1.367 . S
C365 C367 1.433 . S
C366 C362 1.350 . S
C366 C363 1.463 . S
C366 N370 1.427 . S
C367 H357 0.929 . S
C367 C365 1.433 . S
C367 N370 1.384 . S
C368 H359 0.929 . S
C368 C360 1.378 . S
C368 C363 1.350 . S
C369 H356 0.929 . S
C369 C361 1.433 . S
C369 N371 1.384 . S
N370 C366 1.427 . S
N370 C367 1.384 . S
N371 C363 1.427 . S
N371 C369 1.384 . S
H372 C378 0.930 . S
H373 C382 0.930 . S
H374 C387 0.929 . S
H375 C385 0.929 . S
H376 C380 0.929 . S
H377 C386 0.929 . S
C378 H372 0.930 . S
C378 C379 1.367 . S
C378 C386 1.378 . S
C379 C378 1.367 . S
C379 C387 1.433 . S
C380 H376 0.929 . S
C380 C382 1.378 . S
C380 C384 1.350 . S
C381 C384 1.463 . S
C381 C386 1.350 . S
C381 N389 1.427 . S
C382 H373 0.930 . S
C382 C380 1.378 . S
C382 C383 1.367 . S
C383 C382 1.367 . S
C383 C385 1.433 . S
C384 C380 1.350 . S
C384 C381 1.463 . S
C384 N388 1.427 . S
C385 H375 0.929 . S
C385 C383 1.433 . S
C385 N388 1.384 . S
C386 H377 0.929 . S
C386 C378 1.378 . S
C386 C381 1.350 . S
C387 H374 0.929 . S
C387 C379 1.433 . S
C387 N389 1.384 . S
N388 C384 1.427 . S
N388 C385 1.384 . S
N389 C381 1.427 . S
N389 C387 1.384 . S
H390 C396 0.930 . S
H391 C400 0.930 . S
H392 C405 0.929 . S
H393 C403 0.929 . S
H394 C398 0.929 . S
H395 C404 0.929 . S
C396 H390 0.930 . S
C396 C397 1.367 . S
C396 C404 1.378 . S
C397 C396 1.367 . S
C397 C405 1.433 . S
C398 H394 0.929 . S
C398 C400 1.378 . S
C398 C402 1.350 . S
C399 C402 1.463 . S
C399 C404 1.350 . S
C399 N407 1.427 . S
C400 H391 0.930 . S
C400 C398 1.378 . S
C400 C401 1.367 . S
C401 C400 1.367 . S
C401 C403 1.433 . S
C402 C398 1.350 . S
C402 C399 1.463 . S
C402 N406 1.427 . S
C403 H393 0.929 . S
C403 C401 1.433 . S
C403 N406 1.384 . S
C404 H395 0.929 . S
C404 C396 1.378 . S
C404 C399 1.350 . S
C405 H392 0.929 . S
C405 C397 1.433 . S
C405 N407 1.384 . S
N406 C402 1.427 . S
N406 C403 1.384 . S
N407 C399 1.427 . S
N407 C405 1.384 . S
H408 C414 0.930 . S
H409 C418 0.930 . S
H410 C423 0.929 . S
H411 C421 0.929 . S
H412 C416 0.929 . S
H413 C422 0.929 . S
C414 H408 0.930 . S
C414 C415 1.367 . S
C414 C422 1.378 . S
C415 C414 1.367 . S
C415 C423 1.433 . S
C416 H412 0.929 . S
C416 C418 1.378 . S
C416 C420 1.350 . S
C417 C420 1.463 . S
C417 C422 1.350 . S
C417 N425 1.427 . S
C418 H409 0.930 . S
C418 C416 1.378 . S
C418 C419 1.367 . S
C419 C418 1.367 . S
C419 C421 1.433 . S
C420 C416 1.350 . S
C420 C417 1.463 . S
C420 N424 1.427 . S
C421 H411 0.929 . S
C421 C419 1.433 . S
C421 N424 1.384 . S
C422 H413 0.929 . S
C422 C414 1.378 . S
C422 C417 1.350 . S
C423 H410 0.929 . S
C423 C415 1.433 . S
C423 N425 1.384 . S
N424 C420 1.427 . S
N424 C421 1.384 . S
N425 C417 1.427 . S
N425 C423 1.384 . S
H426 C432 0.930 . S
H427 C436 0.930 . S
H428 C441 0.929 . S
H429 C439 0.929 . S
H430 C434 0.929 . S
H431 C440 0.929 . S
C432 H426 0.930 . S
C432 C433 1.367 . S
C432 C440 1.378 . S
C433 C432 1.367 . S
C433 C441 1.433 . S
C434 H430 0.929 . S
C434 C436 1.378 . S
C434 C438 1.350 . S
C435 C438 1.463 . S
C435 C440 1.350 . S
C435 N443 1.427 . S
C436 H427 0.930 . S
C436 C434 1.378 . S
C436 C437 1.367 . S
C437 C436 1.367 . S
C437 C439 1.433 . S
C438 C434 1.350 . S
C438 C435 1.463 . S
C438 N442 1.427 . S
C439 H429 0.929 . S
C439 C437 1.433 . S
C439 N442 1.384 . S
C440 H431 0.929 . S
C440 C432 1.378 . S
C440 C435 1.350 . S
C441 H428 0.929 . S
C441 C433 1.433 . S
C441 N443 1.384 . S
N442 C438 1.427 . S
N442 C439 1.384 . S
N443 C435 1.427 . S
N443 C441 1.384 . S
H444 C450 0.930 . S
H445 C454 0.930 . S
H446 C459 0.929 . S
H447 C457 0.929 . S
H448 C452 0.929 . S
H449 C458 0.929 . S
C450 H444 0.930 . S
C450 C451 1.367 . S
C450 C458 1.378 . S
C451 C450 1.367 . S
C451 C459 1.433 . S
C452 H448 0.929 . S
C452 C454 1.378 . S
C452 C456 1.350 . S
C453 C456 1.463 . S
C453 C458 1.350 . S
C453 N461 1.427 . S
C454 H445 0.930 . S
C454 C452 1.378 . S
C454 C455 1.367 . S
C455 C454 1.367 . S
C455 C457 1.433 . S
C456 C452 1.350 . S
C456 C453 1.463 . S
C456 N460 1.427 . S
C457 H447 0.929 . S
C457 C455 1.433 . S
C457 N460 1.384 . S
C458 H449 0.929 . S
C458 C450 1.378 . S
C458 C453 1.350 . S
C459 H446 0.929 . S
C459 C451 1.433 . S
C459 N461 1.384 . S
N460 C456 1.427 . S
N460 C457 1.384 . S
N461 C453 1.427 . S
N461 C459 1.384 . S
H462 C468 0.930 . S
H463 C472 0.930 . S
H464 C477 0.929 . S
H465 C475 0.929 . S
H466 C470 0.929 . S
H467 C476 0.929 . S
C468 H462 0.930 . S
C468 C469 1.367 . S
C468 C476 1.378 . S
C469 C468 1.367 . S
C469 C477 1.433 . S
C470 H466 0.929 . S
C470 C472 1.378 . S
C470 C474 1.350 . S
C471 C474 1.463 . S
C471 C476 1.350 . S
C471 N479 1.427 . S
C472 H463 0.930 . S
C472 C470 1.378 . S
C472 C473 1.367 . S
C473 C472 1.367 . S
C473 C475 1.433 . S
C474 C470 1.350 . S
C474 C471 1.463 . S
C474 N478 1.427 . S
C475 H465 0.929 . S
C475 C473 1.433 . S
C475 N478 1.384 . S
C476 H467 0.929 . S
C476 C468 1.378 . S
C476 C471 1.350 . S
C477 H464 0.929 . S
C477 C469 1.433 . S
C477 N479 1.384 . S
N478 C474 1.427 . S
N478 C475 1.384 . S
N479 C471 1.427 . S
N479 C477 1.384 . S
H480 C486 0.930 . S
H481 C490 0.930 . S
H482 C495 0.929 . S
H483 C493 0.929 . S
H484 C488 0.929 . S
H485 C494 0.929 . S
C486 H480 0.930 . S
C486 C487 1.367 . S
C486 C494 1.378 . S
C487 C486 1.367 . S
C487 C495 1.433 . S
C488 H484 0.929 . S
C488 C490 1.378 . S
C488 C492 1.350 . S
C489 C492 1.463 . S
C489 C494 1.350 . S
C489 N497 1.427 . S
C490 H481 0.930 . S
C490 C488 1.378 . S
C490 C491 1.367 . S
C491 C490 1.367 . S
C491 C493 1.433 . S
C492 C488 1.350 . S
C492 C489 1.463 . S
C492 N496 1.427 . S
C493 H483 0.929 . S
C493 C491 1.433 . S
C493 N496 1.384 . S
C494 H485 0.929 . S
C494 C486 1.378 . S
C494 C489 1.350 . S
C495 H482 0.929 . S
C495 C487 1.433 . S
C495 N497 1.384 . S
N496 C492 1.427 . S
N496 C493 1.384 . S
N497 C489 1.427 . S
N497 C495 1.384 . S
H498 C504 0.930 . S
H499 C508 0.930 . S
H500 C513 0.929 . S
H501 C511 0.929 . S
H502 C506 0.929 . S
H503 C512 0.929 . S
C504 H498 0.930 . S
C504 C505 1.367 . S
C504 C512 1.378 . S
C505 C504 1.367 . S
C505 C513 1.433 . S
C506 H502 0.929 . S
C506 C508 1.378 . S
C506 C510 1.350 . S
C507 C510 1.463 . S
C507 C512 1.350 . S
C507 N515 1.427 . S
C508 H499 0.930 . S
C508 C506 1.378 . S
C508 C509 1.367 . S
C509 C508 1.367 . S
C509 C511 1.433 . S
C510 C506 1.350 . S
C510 C507 1.463 . S
C510 N514 1.427 . S
C511 H501 0.929 . S
C511 C509 1.433 . S
C511 N514 1.384 . S
C512 H503 0.929 . S
C512 C504 1.378 . S
C512 C507 1.350 . S
C513 H500 0.929 . S
C513 C505 1.433 . S
C513 N515 1.384 . S
N514 C510 1.427 . S
N514 C511 1.384 . S
N515 C507 1.427 . S
N515 C513 1.384 . S
H516 C522 0.930 . S
H517 C526 0.930 1_655 S
H518 C531 0.929 1_655 S
H519 C529 0.929 . S
H520 C524 0.929 1_655 S
H521 C530 0.929 . S
C522 H516 0.930 . S
C522 C523 1.367 . S
C522 C530 1.378 . S
C523 C522 1.367 . S
C523 C531 1.433 . S
C524 H520 0.929 1_455 S
C524 C526 1.378 . S
C524 C528 1.350 . S
C525 C528 1.463 . S
C525 C530 1.350 . S
C525 N533 1.427 . S
C526 H517 0.930 1_455 S
C526 C524 1.378 . S
C526 C527 1.367 . S
C527 C526 1.367 . S
C527 C529 1.433 . S
C528 C524 1.350 . S
C528 C525 1.463 . S
C528 N532 1.427 . S
C529 H519 0.929 . S
C529 C527 1.433 . S
C529 N532 1.384 . S
C530 H521 0.929 . S
C530 C522 1.378 . S
C530 C525 1.350 . S
C531 H518 0.929 1_455 S
C531 C523 1.433 . S
C531 N533 1.384 . S
N532 C528 1.427 . S
N532 C529 1.384 . S
N533 C525 1.427 . S
N533 C531 1.384 . S
H534 C540 0.930 . S
H535 C544 0.930 . S
H536 C549 0.929 . S
H537 C547 0.929 . S
H538 C542 0.929 . S
H539 C548 0.929 . S
C540 H534 0.930 . S
C540 C541 1.367 . S
C540 C548 1.378 . S
C541 C540 1.367 . S
C541 C549 1.433 1_545 S
C542 H538 0.929 . S
C542 C544 1.378 . S
C542 C546 1.350 1_565 S
C543 C546 1.463 . S
C543 C548 1.350 . S
C543 N551 1.427 1_545 S
C544 H535 0.930 . S
C544 C542 1.378 . S
C544 C545 1.367 1_565 S
C545 C544 1.367 1_545 S
C545 C547 1.433 . S
C546 C542 1.350 1_545 S
C546 C543 1.463 . S
C546 N550 1.427 . S
C547 H537 0.929 . S
C547 C545 1.433 . S
C547 N550 1.384 . S
C548 H539 0.929 . S
C548 C540 1.378 . S
C548 C543 1.350 . S
C549 H536 0.929 . S
C549 C541 1.433 1_565 S
C549 N551 1.384 . S
N550 C546 1.427 . S
N550 C547 1.384 . S
N551 C543 1.427 1_565 S
N551 C549 1.384 . S
H552 C558 0.930 . S
H553 C562 0.930 . S
H554 C567 0.929 . S
H555 C565 0.929 . S
H556 C560 0.929 . S
H557 C566 0.929 . S
C558 H552 0.930 . S
C558 C559 1.367 . S
C558 C566 1.378 . S
C559 C558 1.367 . S
C559 C567 1.433 . S
C560 H556 0.929 . S
C560 C562 1.378 . S
C560 C564 1.350 . S
C561 C564 1.463 . S
C561 C566 1.350 . S
C561 N569 1.427 . S
C562 H553 0.930 . S
C562 C560 1.378 . S
C562 C563 1.367 . S
C563 C562 1.367 . S
C563 C565 1.433 . S
C564 C560 1.350 . S
C564 C561 1.463 . S
C564 N568 1.427 . S
C565 H555 0.929 . S
C565 C563 1.433 . S
C565 N568 1.384 . S
C566 H557 0.929 . S
C566 C558 1.378 . S
C566 C561 1.350 . S
C567 H554 0.929 . S
C567 C559 1.433 . S
C567 N569 1.384 . S
N568 C564 1.427 . S
N568 C565 1.384 . S
N569 C561 1.427 . S
N569 C567 1.384 . S
H570 C576 0.930 . S
H571 C580 0.930 . S
H572 C585 0.929 . S
H573 C583 0.929 . S
H574 C578 0.929 . S
H575 C584 0.929 . S
C576 H570 0.930 . S
C576 C577 1.367 . S
C576 C584 1.378 . S
C577 C576 1.367 . S
C577 C585 1.433 . S
C578 H574 0.929 . S
C578 C580 1.378 . S
C578 C582 1.350 . S
C579 C582 1.463 . S
C579 C584 1.350 . S
C579 N587 1.427 . S
C580 H571 0.930 . S
C580 C578 1.378 . S
C580 C581 1.367 . S
C581 C580 1.367 . S
C581 C583 1.433 . S
C582 C578 1.350 . S
C582 C579 1.463 . S
C582 N586 1.427 . S
C583 H573 0.929 . S
C583 C581 1.433 . S
C583 N586 1.384 . S
C584 H575 0.929 . S
C584 C576 1.378 . S
C584 C579 1.350 . S
C585 H572 0.929 . S
C585 C577 1.433 . S
C585 N587 1.384 . S
N586 C582 1.427 . S
N586 C583 1.384 . S
N587 C579 1.427 . S
N587 C585 1.384 . S
H588 C594 0.930 . S
H589 C598 0.930 . S
H590 C603 0.929 . S
H591 C601 0.929 . S
H592 C596 0.929 . S
H593 C602 0.929 . S
C594 H588 0.930 . S
C594 C595 1.367 . S
C594 C602 1.378 . S
C595 C594 1.367 . S
C595 C603 1.433 . S
C596 H592 0.929 . S
C596 C598 1.378 . S
C596 C600 1.350 . S
C597 C600 1.463 . S
C597 C602 1.350 . S
C597 N605 1.427 . S
C598 H589 0.930 . S
C598 C596 1.378 . S
C598 C599 1.367 . S
C599 C598 1.367 . S
C599 C601 1.433 . S
C600 C596 1.350 . S
C600 C597 1.463 . S
C600 N604 1.427 . S
C601 H591 0.929 . S
C601 C599 1.433 . S
C601 N604 1.384 . S
C602 H593 0.929 . S
C602 C594 1.378 . S
C602 C597 1.350 . S
C603 H590 0.929 . S
C603 C595 1.433 . S
C603 N605 1.384 . S
N604 C600 1.427 . S
N604 C601 1.384 . S
N605 C597 1.427 . S
N605 C603 1.384 . S
H606 C612 0.930 . S
H607 C616 0.930 . S
H608 C621 0.929 . S
H609 C619 0.929 . S
H610 C614 0.929 . S
H611 C620 0.929 . S
C612 H606 0.930 . S
C612 C613 1.367 . S
C612 C620 1.378 . S
C613 C612 1.367 . S
C613 C621 1.433 . S
C614 H610 0.929 . S
C614 C616 1.378 . S
C614 C618 1.350 . S
C615 C618 1.463 . S
C615 C620 1.350 . S
C615 N623 1.427 . S
C616 H607 0.930 . S
C616 C614 1.378 . S
C616 C617 1.367 . S
C617 C616 1.367 . S
C617 C619 1.433 . S
C618 C614 1.350 . S
C618 C615 1.463 . S
C618 N622 1.427 . S
C619 H609 0.929 . S
C619 C617 1.433 . S
C619 N622 1.384 . S
C620 H611 0.929 . S
C620 C612 1.378 . S
C620 C615 1.350 . S
C621 H608 0.929 . S
C621 C613 1.433 . S
C621 N623 1.384 . S
N622 C618 1.427 . S
N622 C619 1.384 . S
N623 C615 1.427 . S
N623 C621 1.384 . S
C307 C2 1.149 . S
C311 C275 1.129 . S
C325 C21 1.062 . S
C329 C182 1.062 . S
C343 C42 1.133 . S
C347 C222 1.127 . S
C361 C1 1.068 . S
C365 C262 1.059 . S
C383 C195 1.131 . S
C379 C22 1.151 . S
C401 C235 1.063 . S
C397 C41 1.086 . S
C415 C38 1.957 . S
C419 C102 1.917 . S
C433 C59 2.016 . S
C437 C142 1.981 . S
C451 C18 1.973 . S
C455 C75 1.930 . S
C473 C115 1.994 . S
C469 C39 2.042 . S
C491 C155 1.923 . S
C487 C58 1.980 . S
C505 C19 2.022 . S
C509 C62 1.991 . S
C527 C161 1.553 1_554 S
C523 C9 1.506 . S
C541 C29 1.500 . S
C545 C81 1.556 . S
C559 C49 1.513 . S
C563 C121 1.559 . S
C581 C241 1.379 . S
C577 C28 1.356 . S
C599 C281 1.382 1_556 S
C595 C48 1.359 . S
C613 C8 1.368 . S
C617 C201 1.387 . S
