# Generated by pormake.
# Topology gar, (4,6)-cn, num edge types: 1
# Building blocks:
#     Node 0, Type 0, BuildingBlock: AZAVOO_clean_sbu_0, # of connection points: 4
#     Node 1, Type 0, BuildingBlock: AZAVOO_clean_sbu_0, # of connection points: 4
#     Node 2, Type 0, BuildingBlock: AZAVOO_clean_sbu_0, # of connection points: 4
#     Node 3, Type 0, BuildingBlock: AZAVOO_clean_sbu_0, # of connection points: 4
#     Node 4, Type 0, BuildingBlock: AZAVOO_clean_sbu_0, # of connection points: 4
#     Node 5, Type 0, BuildingBlock: AZAVOO_clean_sbu_0, # of connection points: 4
#     Node 6, Type 0, BuildingBlock: AZAVOO_clean_sbu_0, # of connection points: 4
#     Node 7, Type 0, BuildingBlock: AZAVOO_clean_sbu_0, # of connection points: 4
#     Node 8, Type 0, BuildingBlock: AZAVOO_clean_sbu_0, # of connection points: 4
#     Node 9, Type 0, BuildingBlock: AZAVOO_clean_sbu_0, # of connection points: 4
#     Node 10, Type 0, BuildingBlock: AZAVOO_clean_sbu_0, # of connection points: 4
#     Node 11, Type 0, BuildingBlock: AZAVOO_clean_sbu_0, # of connection points: 4
#     Node 12, Type 0, BuildingBlock: AZAVOO_clean_sbu_0, # of connection points: 4
#     Node 13, Type 0, BuildingBlock: AZAVOO_clean_sbu_0, # of connection points: 4
#     Node 14, Type 0, BuildingBlock: AZAVOO_clean_sbu_0, # of connection points: 4
#     Node 15, Type 0, BuildingBlock: AZAVOO_clean_sbu_0, # of connection points: 4
#     Node 16, Type 0, BuildingBlock: AZAVOO_clean_sbu_0, # of connection points: 4
#     Node 17, Type 0, BuildingBlock: AZAVOO_clean_sbu_0, # of connection points: 4
#     Node 18, Type 0, BuildingBlock: AZAVOO_clean_sbu_0, # of connection points: 4
#     Node 19, Type 0, BuildingBlock: AZAVOO_clean_sbu_0, # of connection points: 4
#     Node 20, Type 0, BuildingBlock: AZAVOO_clean_sbu_0, # of connection points: 4
#     Node 21, Type 0, BuildingBlock: AZAVOO_clean_sbu_0, # of connection points: 4
#     Node 22, Type 0, BuildingBlock: AZAVOO_clean_sbu_0, # of connection points: 4
#     Node 23, Type 0, BuildingBlock: AZAVOO_clean_sbu_0, # of connection points: 4
#     Node 24, Type 1, BuildingBlock: KUMJIN_clean_sbu_1, # of connection points: 6
#     Node 25, Type 1, BuildingBlock: KUMJIN_clean_sbu_1, # of connection points: 6
#     Node 26, Type 1, BuildingBlock: KUMJIN_clean_sbu_1, # of connection points: 6
#     Node 27, Type 1, BuildingBlock: KUMJIN_clean_sbu_1, # of connection points: 6
#     Node 28, Type 1, BuildingBlock: KUMJIN_clean_sbu_1, # of connection points: 6
#     Node 29, Type 1, BuildingBlock: KUMJIN_clean_sbu_1, # of connection points: 6
#     Node 30, Type 1, BuildingBlock: KUMJIN_clean_sbu_1, # of connection points: 6
#     Node 31, Type 1, BuildingBlock: KUMJIN_clean_sbu_1, # of connection points: 6
#     Node 32, Type 1, BuildingBlock: KUMJIN_clean_sbu_1, # of connection points: 6
#     Node 33, Type 1, BuildingBlock: KUMJIN_clean_sbu_1, # of connection points: 6
#     Node 34, Type 1, BuildingBlock: KUMJIN_clean_sbu_1, # of connection points: 6
#     Node 35, Type 1, BuildingBlock: KUMJIN_clean_sbu_1, # of connection points: 6
#     Node 36, Type 1, BuildingBlock: KUMJIN_clean_sbu_1, # of connection points: 6
#     Node 37, Type 1, BuildingBlock: KUMJIN_clean_sbu_1, # of connection points: 6
#     Node 38, Type 1, BuildingBlock: KUMJIN_clean_sbu_1, # of connection points: 6
#     Node 39, Type 1, BuildingBlock: KUMJIN_clean_sbu_1, # of connection points: 6
#     Edge 40, Type (0, 1), BuildingBlock: UVAHIK_clean_linker_0, # of connection points: 2
#     Edge 41, Type (0, 1), BuildingBlock: UVAHIK_clean_linker_0, # of connection points: 2
#     Edge 42, Type (0, 1), BuildingBlock: UVAHIK_clean_linker_0, # of connection points: 2
#     Edge 43, Type (0, 1), BuildingBlock: UVAHIK_clean_linker_0, # of connection points: 2
#     Edge 44, Type (0, 1), BuildingBlock: UVAHIK_clean_linker_0, # of connection points: 2
#     Edge 45, Type (0, 1), BuildingBlock: UVAHIK_clean_linker_0, # of connection points: 2
#     Edge 46, Type (0, 1), BuildingBlock: UVAHIK_clean_linker_0, # of connection points: 2
#     Edge 47, Type (0, 1), BuildingBlock: UVAHIK_clean_linker_0, # of connection points: 2
#     Edge 48, Type (0, 1), BuildingBlock: UVAHIK_clean_linker_0, # of connection points: 2
#     Edge 49, Type (0, 1), BuildingBlock: UVAHIK_clean_linker_0, # of connection points: 2
#     Edge 50, Type (0, 1), BuildingBlock: UVAHIK_clean_linker_0, # of connection points: 2
#     Edge 51, Type (0, 1), BuildingBlock: UVAHIK_clean_linker_0, # of connection points: 2
#     Edge 52, Type (0, 1), BuildingBlock: UVAHIK_clean_linker_0, # of connection points: 2
#     Edge 53, Type (0, 1), BuildingBlock: UVAHIK_clean_linker_0, # of connection points: 2
#     Edge 54, Type (0, 1), BuildingBlock: UVAHIK_clean_linker_0, # of connection points: 2
#     Edge 55, Type (0, 1), BuildingBlock: UVAHIK_clean_linker_0, # of connection points: 2
#     Edge 56, Type (0, 1), BuildingBlock: UVAHIK_clean_linker_0, # of connection points: 2
#     Edge 57, Type (0, 1), BuildingBlock: UVAHIK_clean_linker_0, # of connection points: 2
#     Edge 58, Type (0, 1), BuildingBlock: UVAHIK_clean_linker_0, # of connection points: 2
#     Edge 59, Type (0, 1), BuildingBlock: UVAHIK_clean_linker_0, # of connection points: 2
#     Edge 60, Type (0, 1), BuildingBlock: UVAHIK_clean_linker_0, # of connection points: 2
#     Edge 61, Type (0, 1), BuildingBlock: UVAHIK_clean_linker_0, # of connection points: 2
#     Edge 62, Type (0, 1), BuildingBlock: UVAHIK_clean_linker_0, # of connection points: 2
#     Edge 63, Type (0, 1), BuildingBlock: UVAHIK_clean_linker_0, # of connection points: 2
#     Edge 64, Type (0, 1), BuildingBlock: UVAHIK_clean_linker_0, # of connection points: 2
#     Edge 65, Type (0, 1), BuildingBlock: UVAHIK_clean_linker_0, # of connection points: 2
#     Edge 66, Type (0, 1), BuildingBlock: UVAHIK_clean_linker_0, # of connection points: 2
#     Edge 67, Type (0, 1), BuildingBlock: UVAHIK_clean_linker_0, # of connection points: 2
#     Edge 68, Type (0, 1), BuildingBlock: UVAHIK_clean_linker_0, # of connection points: 2
#     Edge 69, Type (0, 1), BuildingBlock: UVAHIK_clean_linker_0, # of connection points: 2
#     Edge 70, Type (0, 1), BuildingBlock: UVAHIK_clean_linker_0, # of connection points: 2
#     Edge 71, Type (0, 1), BuildingBlock: UVAHIK_clean_linker_0, # of connection points: 2
#     Edge 72, Type (0, 1), BuildingBlock: UVAHIK_clean_linker_0, # of connection points: 2
#     Edge 73, Type (0, 1), BuildingBlock: UVAHIK_clean_linker_0, # of connection points: 2
#     Edge 74, Type (0, 1), BuildingBlock: UVAHIK_clean_linker_0, # of connection points: 2
#     Edge 75, Type (0, 1), BuildingBlock: UVAHIK_clean_linker_0, # of connection points: 2
#     Edge 76, Type (0, 1), BuildingBlock: UVAHIK_clean_linker_0, # of connection points: 2
#     Edge 77, Type (0, 1), BuildingBlock: UVAHIK_clean_linker_0, # of connection points: 2
#     Edge 78, Type (0, 1), BuildingBlock: UVAHIK_clean_linker_0, # of connection points: 2
#     Edge 79, Type (0, 1), BuildingBlock: UVAHIK_clean_linker_0, # of connection points: 2
#     Edge 80, Type (0, 1), BuildingBlock: UVAHIK_clean_linker_0, # of connection points: 2
#     Edge 81, Type (0, 1), BuildingBlock: UVAHIK_clean_linker_0, # of connection points: 2
#     Edge 82, Type (0, 1), BuildingBlock: UVAHIK_clean_linker_0, # of connection points: 2
#     Edge 83, Type (0, 1), BuildingBlock: UVAHIK_clean_linker_0, # of connection points: 2
#     Edge 84, Type (0, 1), BuildingBlock: UVAHIK_clean_linker_0, # of connection points: 2
#     Edge 85, Type (0, 1), BuildingBlock: UVAHIK_clean_linker_0, # of connection points: 2
#     Edge 86, Type (0, 1), BuildingBlock: UVAHIK_clean_linker_0, # of connection points: 2
#     Edge 87, Type (0, 1), BuildingBlock: UVAHIK_clean_linker_0, # of connection points: 2
#     Edge 88, Type (0, 1), BuildingBlock: UVAHIK_clean_linker_0, # of connection points: 2
#     Edge 89, Type (0, 1), BuildingBlock: UVAHIK_clean_linker_0, # of connection points: 2
#     Edge 90, Type (0, 1), BuildingBlock: UVAHIK_clean_linker_0, # of connection points: 2
#     Edge 91, Type (0, 1), BuildingBlock: UVAHIK_clean_linker_0, # of connection points: 2
#     Edge 92, Type (0, 1), BuildingBlock: UVAHIK_clean_linker_0, # of connection points: 2
#     Edge 93, Type (0, 1), BuildingBlock: UVAHIK_clean_linker_0, # of connection points: 2
#     Edge 94, Type (0, 1), BuildingBlock: UVAHIK_clean_linker_0, # of connection points: 2
#     Edge 95, Type (0, 1), BuildingBlock: UVAHIK_clean_linker_0, # of connection points: 2
#     Edge 96, Type (0, 1), BuildingBlock: UVAHIK_clean_linker_0, # of connection points: 2
#     Edge 97, Type (0, 1), BuildingBlock: UVAHIK_clean_linker_0, # of connection points: 2
#     Edge 98, Type (0, 1), BuildingBlock: UVAHIK_clean_linker_0, # of connection points: 2
#     Edge 99, Type (0, 1), BuildingBlock: UVAHIK_clean_linker_0, # of connection points: 2
#     Edge 100, Type (0, 1), BuildingBlock: UVAHIK_clean_linker_0, # of connection points: 2
#     Edge 101, Type (0, 1), BuildingBlock: UVAHIK_clean_linker_0, # of connection points: 2
#     Edge 102, Type (0, 1), BuildingBlock: UVAHIK_clean_linker_0, # of connection points: 2
#     Edge 103, Type (0, 1), BuildingBlock: UVAHIK_clean_linker_0, # of connection points: 2
#     Edge 104, Type (0, 1), BuildingBlock: UVAHIK_clean_linker_0, # of connection points: 2
#     Edge 105, Type (0, 1), BuildingBlock: UVAHIK_clean_linker_0, # of connection points: 2
#     Edge 106, Type (0, 1), BuildingBlock: UVAHIK_clean_linker_0, # of connection points: 2
#     Edge 107, Type (0, 1), BuildingBlock: UVAHIK_clean_linker_0, # of connection points: 2
#     Edge 108, Type (0, 1), BuildingBlock: UVAHIK_clean_linker_0, # of connection points: 2
#     Edge 109, Type (0, 1), BuildingBlock: UVAHIK_clean_linker_0, # of connection points: 2
#     Edge 110, Type (0, 1), BuildingBlock: UVAHIK_clean_linker_0, # of connection points: 2
#     Edge 111, Type (0, 1), BuildingBlock: UVAHIK_clean_linker_0, # of connection points: 2
#     Edge 112, Type (0, 1), BuildingBlock: UVAHIK_clean_linker_0, # of connection points: 2
#     Edge 113, Type (0, 1), BuildingBlock: UVAHIK_clean_linker_0, # of connection points: 2
#     Edge 114, Type (0, 1), BuildingBlock: UVAHIK_clean_linker_0, # of connection points: 2
#     Edge 115, Type (0, 1), BuildingBlock: UVAHIK_clean_linker_0, # of connection points: 2
#     Edge 116, Type (0, 1), BuildingBlock: UVAHIK_clean_linker_0, # of connection points: 2
#     Edge 117, Type (0, 1), BuildingBlock: UVAHIK_clean_linker_0, # of connection points: 2
#     Edge 118, Type (0, 1), BuildingBlock: UVAHIK_clean_linker_0, # of connection points: 2
#     Edge 119, Type (0, 1), BuildingBlock: UVAHIK_clean_linker_0, # of connection points: 2
#     Edge 120, Type (0, 1), BuildingBlock: UVAHIK_clean_linker_0, # of connection points: 2
#     Edge 121, Type (0, 1), BuildingBlock: UVAHIK_clean_linker_0, # of connection points: 2
#     Edge 122, Type (0, 1), BuildingBlock: UVAHIK_clean_linker_0, # of connection points: 2
#     Edge 123, Type (0, 1), BuildingBlock: UVAHIK_clean_linker_0, # of connection points: 2
#     Edge 124, Type (0, 1), BuildingBlock: UVAHIK_clean_linker_0, # of connection points: 2
#     Edge 125, Type (0, 1), BuildingBlock: UVAHIK_clean_linker_0, # of connection points: 2
#     Edge 126, Type (0, 1), BuildingBlock: UVAHIK_clean_linker_0, # of connection points: 2
#     Edge 127, Type (0, 1), BuildingBlock: UVAHIK_clean_linker_0, # of connection points: 2
#     Edge 128, Type (0, 1), BuildingBlock: UVAHIK_clean_linker_0, # of connection points: 2
#     Edge 129, Type (0, 1), BuildingBlock: UVAHIK_clean_linker_0, # of connection points: 2
#     Edge 130, Type (0, 1), BuildingBlock: UVAHIK_clean_linker_0, # of connection points: 2
#     Edge 131, Type (0, 1), BuildingBlock: UVAHIK_clean_linker_0, # of connection points: 2
#     Edge 132, Type (0, 1), BuildingBlock: UVAHIK_clean_linker_0, # of connection points: 2
#     Edge 133, Type (0, 1), BuildingBlock: UVAHIK_clean_linker_0, # of connection points: 2
#     Edge 134, Type (0, 1), BuildingBlock: UVAHIK_clean_linker_0, # of connection points: 2
#     Edge 135, Type (0, 1), BuildingBlock: UVAHIK_clean_linker_0, # of connection points: 2
# Relax obj value: 0.086
# Max RMSD: 0.201
# Mean RMSD: 0.149
data_MOF--net-gar--node1-AZAVOO_clean_sbu_0--node2-KUMJIN_clean_sbu_1--edge1-UVAHIK_clean_linker_0
_symmetry_space_group_name_H-M    P1
_symmetry_Int_Tables_number       1
_symmetry_cell_setting            triclinic
loop_
_symmetry_equiv_pos_as_xyz
'x, y, z'
_cell_length_a     76.846947
_cell_length_b     74.40293
_cell_length_c     71.333973
_cell_angle_alpha  97.908303
_cell_angle_beta   95.431896
_cell_angle_gamma 101.50163
loop_
_atom_site_label
_atom_site_type_symbol
_atom_site_fract_x
_atom_site_fract_y
_atom_site_fract_z
_atom_type_partial_charge
Mg0 Mg 0.03145 0.29503 0.34452 0.0
O1 O 0.03558 0.32295 0.36634 0.0
O2 O 0.01227 0.31864 0.383 0.0
Mg3 Mg 0.99301 0.29077 0.37273 0.0
C4 C 0.02678 0.32866 0.37955 0.0
C5 C 0.06795 0.30373 0.32312 0.0
O6 O 0.05681 0.30579 0.30883 0.0
O7 O 0.03838 0.27822 0.36838 0.0
O8 O 0.014 0.2755 0.38349 0.0
O9 O 0.0128 0.3052 0.32239 0.0
O10 O 1.00319 0.29051 0.345 0.0
C11 C 0.02934 0.27203 0.38121 0.0
C12 C 0.99935 0.29832 0.33073 0.0
O13 O 0.06185 0.30053 0.33869 0.0
Mg14 Mg 0.01081 0.76255 0.69106 0.0
O15 O 0.00643 0.73381 0.67143 0.0
O16 O 0.98186 0.73074 0.65089 0.0
Mg17 Mg 0.96857 0.75545 0.65845 0.0
C18 C 0.99537 0.7247 0.65712 0.0
C19 C 0.04965 0.7646 0.71622 0.0
O20 O 0.04091 0.76838 0.73071 0.0
O21 O 0.01828 0.77864 0.66613 0.0
O22 O 0.99163 0.7753 0.64889 0.0
O23 O 0.99236 0.75162 0.71308 0.0
O24 O 0.98257 0.76169 0.6878 0.0
C25 C 0.00842 0.78231 0.65224 0.0
C26 C 0.97895 0.75526 0.70305 0.0
O27 O 0.0412 0.76148 0.69936 0.0
Mg28 Mg 0.53068 0.79086 0.8448 0.0
O29 O 0.53173 0.81756 0.86741 0.0
O30 O 0.50685 0.81088 0.88132 0.0
Mg31 Mg 0.49025 0.78183 0.86952 0.0
C32 C 0.52131 0.82206 0.87947 0.0
C33 C 0.56605 0.79147 0.82505 0.0
O34 O 0.55379 0.7793 0.81313 0.0
O35 O 0.53822 0.77406 0.8685 0.0
O36 O 0.51278 0.76923 0.88184 0.0
O37 O 0.51228 0.80119 0.82283 0.0
O38 O 0.50235 0.78348 0.8432 0.0
C39 C 0.52878 0.7672 0.88074 0.0
C40 C 0.49871 0.79233 0.8297 0.0
O41 O 0.5611 0.79984 0.83987 0.0
Mg42 Mg 0.51022 0.26223 0.19021 0.0
O43 O 0.50666 0.23337 0.17107 0.0
O44 O 0.48197 0.22923 0.15043 0.0
Mg45 Mg 0.46811 0.25368 0.15724 0.0
C46 C 0.49573 0.22373 0.15692 0.0
C47 C 0.54903 0.26422 0.21541 0.0
O48 O 0.53992 0.26582 0.23001 0.0
O49 O 0.51735 0.27796 0.16512 0.0
O50 O 0.49083 0.27391 0.1474 0.0
O51 O 0.49203 0.25115 0.21229 0.0
O52 O 0.48189 0.26057 0.18672 0.0
C53 C 0.50755 0.28127 0.15098 0.0
C54 C 0.47845 0.25428 0.20209 0.0
O55 O 0.54079 0.26234 0.19859 0.0
Mg56 Mg 0.04937 0.78905 0.11977 0.0
O57 O 0.04672 0.76072 0.09997 0.0
O58 O 0.02092 0.75525 0.08093 0.0
Mg59 Mg 0.00669 0.77931 0.08886 0.0
C60 C 0.03522 0.75032 0.08677 0.0
C61 C 0.08737 0.7999 0.14388 0.0
O62 O 0.07905 0.81144 0.15316 0.0
O63 O 0.05485 0.80807 0.0966 0.0
O64 O 0.02755 0.80278 0.08023 0.0
O65 O 0.03484 0.77401 0.14089 0.0
O66 O 0.02131 0.7853 0.11804 0.0
C67 C 0.04381 0.81183 0.08381 0.0
C68 C 0.02007 0.77639 0.13226 0.0
O69 O 0.07914 0.78935 0.12873 0.0
Mg70 Mg 0.49868 0.74691 0.41347 0.0
O71 O 0.50314 0.77496 0.43403 0.0
O72 O 0.48019 0.77326 0.45111 0.0
Mg73 Mg 0.46088 0.74474 0.44089 0.0
C74 C 0.49477 0.78229 0.44666 0.0
C75 C 0.53142 0.74581 0.39143 0.0
O76 O 0.51852 0.73353 0.38043 0.0
O77 O 0.50524 0.72943 0.43678 0.0
O78 O 0.48039 0.72675 0.45095 0.0
O79 O 0.48375 0.75936 0.39201 0.0
O80 O 0.47058 0.74341 0.41256 0.0
C81 C 0.49544 0.72242 0.44866 0.0
C82 C 0.46923 0.7531 0.39904 0.0
O83 O 0.5279 0.75391 0.40709 0.0
Mg84 Mg 0.54689 0.28746 0.61896 0.0
O85 O 0.54411 0.2596 0.59831 0.0
O86 O 0.51863 0.25502 0.57886 0.0
Mg87 Mg 0.50459 0.27903 0.58732 0.0
C88 C 0.53274 0.24973 0.58464 0.0
C89 C 0.59106 0.29752 0.62944 0.0
O90 O 0.59143 0.31258 0.62166 0.0
O91 O 0.55325 0.30722 0.59646 0.0
O92 O 0.52615 0.30228 0.57963 0.0
O93 O 0.53147 0.27204 0.63922 0.0
O94 O 0.51877 0.28427 0.61662 0.0
C95 C 0.54245 0.31115 0.58353 0.0
C96 C 0.51701 0.275 0.63054 0.0
O97 O 0.57614 0.28635 0.62935 0.0
Mg98 Mg 0.99743 0.24909 0.91443 0.0
O99 O 1.00089 0.27677 0.93555 0.0
O100 O 0.97724 0.27381 0.95164 0.0
Mg101 Mg 0.95859 0.24509 0.94035 0.0
C102 C 0.99189 0.28342 0.94797 0.0
C103 C 0.03061 0.24827 0.89334 0.0
O104 O 0.01799 0.23529 0.8828 0.0
O105 O 0.00383 0.23125 0.93756 0.0
O106 O 0.97833 0.22741 0.95059 0.0
O107 O 0.98259 0.2615 0.89276 0.0
O108 O 0.96917 0.24475 0.91254 0.0
C109 C 0.99369 0.2236 0.94883 0.0
C110 C 0.9679 0.25457 0.89911 0.0
O111 O 0.02681 0.25685 0.90862 0.0
Mg112 Mg 0.38864 0.01617 0.27539 0.0
O113 O 0.37503 0.99576 0.29256 0.0
O114 O 0.37307 0.00795 0.32244 0.0
Mg115 Mg 0.38782 0.03844 0.32421 0.0
C116 C 0.37019 0.99421 0.3089 0.0
C117 C 0.38181 0.98706 0.23595 0.0
O118 O 0.37129 0.97394 0.22329 0.0
O119 O 0.36476 0.02931 0.27383 0.0
O120 O 0.36499 0.0436 0.30354 0.0
O121 O 0.41422 0.00875 0.28509 0.0
O122 O 0.40352 0.03136 0.30041 0.0
C123 C 0.35816 0.03928 0.28604 0.0
C124 C 0.41527 0.02117 0.30005 0.0
O125 O 0.37505 0.99503 0.24943 0.0
Mg126 Mg 0.28365 0.15981 0.50461 0.0
O127 O 0.28381 0.1807 0.53165 0.0
O128 O 0.31121 0.19886 0.53803 0.0
Mg129 Mg 0.32842 0.18943 0.51552 0.0
C130 C 0.29524 0.19407 0.542 0.0
C131 C 0.24815 0.13323 0.49764 0.0
O132 O 0.26024 0.1232 0.49504 0.0
O133 O 0.28292 0.1818 0.48539 0.0
O134 O 0.31132 0.19766 0.49097 0.0
O135 O 0.29269 0.14039 0.52245 0.0
O136 O 0.31114 0.1614 0.51061 0.0
C137 C 0.29559 0.19432 0.48179 0.0
C138 C 0.30894 0.14835 0.52087 0.0
O139 O 0.25331 0.15079 0.50166 0.0
Mg140 Mg 0.13079 0.02793 0.78556 0.0
O141 O 0.15159 0.05548 0.79027 0.0
O142 O 0.17113 0.0554 0.81552 0.0
Mg143 Mg 0.16224 0.02874 0.82782 0.0
C144 C 0.16568 0.06312 0.80183 0.0
C145 C 0.11864 0.01922 0.74185 0.0
O146 O 0.12216 0.00327 0.74508 0.0
O147 O 0.1515 0.01264 0.77432 0.0
O148 O 0.16894 0.01189 0.801 0.0
O149 O 0.1134 0.0401 0.80495 0.0
O150 O 0.13471 0.02621 0.81443 0.0
C151 C 0.16454 0.00751 0.78296 0.0
C152 C 0.12241 0.03493 0.81875 0.0
O153 O 0.12099 0.03255 0.75569 0.0
Mg154 Mg 0.28444 0.93422 0.01395 0.0
O155 O 0.29092 0.91831 0.98664 0.0
O156 O 0.31692 0.90998 0.99307 0.0
Mg157 Mg 0.3271 0.92084 0.0246 0.0
C158 C 0.30331 0.91032 0.98148 0.0
C159 C 0.25226 0.93922 0.986 0.0
O160 O 0.26529 0.94841 0.97812 0.0
O161 O 0.27651 0.90713 0.02566 0.0
O162 O 0.30333 0.9005 0.0324 0.0
O163 O 0.30035 0.96086 0.00733 0.0
O164 O 0.31117 0.94226 0.0248 0.0
C165 C 0.28631 0.89679 0.03207 0.0
C166 C 0.31384 0.95703 0.0171 0.0
O167 O 0.25605 0.93156 0.00026 0.0
Mg168 Mg 0.29867 0.39043 0.03981 0.0
O169 O 0.29476 0.37012 0.01132 0.0
O170 O 0.31692 0.35476 0.01309 0.0
Mg171 Mg 0.33499 0.36532 0.04144 0.0
C172 C 0.30302 0.35804 0.00408 0.0
C173 C 0.27092 0.41313 0.04177 0.0
O174 O 0.28599 0.42346 0.05102 0.0
O175 O 0.2889 0.36722 0.05672 0.0
O176 O 0.31258 0.35403 0.05876 0.0
O177 O 0.31608 0.41203 0.02715 0.0
O178 O 0.32618 0.39174 0.04266 0.0
C179 C 0.29706 0.35547 0.06301 0.0
C180 C 0.32947 0.40527 0.03314 0.0
O181 O 0.27084 0.39656 0.03435 0.0
Mg182 Mg 0.77745 0.12552 0.01366 0.0
O183 O 0.78158 0.14541 0.04201 0.0
O184 O 0.80767 0.16566 0.04373 0.0
Mg185 Mg 0.81975 0.15916 0.01626 0.0
C186 C 0.79353 0.15922 0.05083 0.0
C187 C 0.74212 0.11251 0.03199 0.0
O188 O 0.7533 0.11546 0.04775 0.0
O189 O 0.77041 0.14803 0.99804 0.0
O190 O 0.79661 0.16785 -0.0007 0.0
O191 O 0.79181 0.10674 0.02748 0.0
O192 O 0.80492 0.1302 0.01411 0.0
C193 C 0.77976 0.16285 0.99404 0.0
C194 C 0.80638 0.1172 0.02401 0.0
O195 O 0.74811 0.11523 0.01639 0.0
Mg196 Mg 0.15581 0.52073 0.25151 0.0
O197 O 0.17393 0.54957 0.25949 0.0
O198 O 0.18623 0.554 0.28982 0.0
Mg199 Mg 0.17658 0.52683 0.30088 0.0
C200 C 0.18388 0.55976 0.27392 0.0
C201 C 0.15068 0.5391 0.21577 0.0
O202 O 0.14774 0.55185 0.22905 0.0
O203 O 0.17995 0.50798 0.24919 0.0
O204 O 0.19173 0.51158 0.27968 0.0
O205 O 0.13335 0.53205 0.26213 0.0
O206 O 0.15223 0.52048 0.27993 0.0
C207 C 0.19182 0.50587 0.26195 0.0
C208 C 0.13914 0.52891 0.27876 0.0
O209 O 0.1544 0.52432 0.22047 0.0
Mg210 Mg 0.79665 0.89236 0.53796 0.0
O211 O 0.79366 0.87154 0.50996 0.0
O212 O 0.81665 0.8574 0.51263 0.0
Mg213 Mg 0.83437 0.86931 0.54099 0.0
C214 C 0.80253 0.85982 0.50324 0.0
C215 C 0.76655 0.91126 0.54324 0.0
O216 O 0.78021 0.92005 0.55589 0.0
O217 O 0.78776 0.86946 0.55553 0.0
O218 O 0.81222 0.85759 0.55843 0.0
O219 O 0.81337 0.9142 0.52489 0.0
O220 O 0.82427 0.89494 0.54126 0.0
C221 C 0.79649 0.85842 0.5624 0.0
C222 C 0.82711 0.90826 0.53142 0.0
O223 O 0.76834 0.89705 0.5321 0.0
Mg224 Mg 0.92133 0.0244 0.26348 0.0
O225 O 0.90042 0.99687 0.26208 0.0
O226 O 0.88841 0.99948 0.28946 0.0
Mg227 Mg 0.90146 0.02705 0.30822 0.0
C228 C 0.88944 0.99042 0.2732 0.0
C229 C 0.9325 0.03261 0.22542 0.0
O230 O 0.93796 0.04839 0.23722 0.0
O231 O 0.89907 0.04017 0.25821 0.0
O232 O 0.88848 0.04193 0.2864 0.0
O233 O 0.94271 0.01241 0.2774 0.0
O234 O 0.92514 0.02731 0.29318 0.0
C235 C 0.88842 0.04553 0.2694 0.0
C236 C 0.93766 0.0181 0.29357 0.0
O237 O 0.92384 0.0187 0.23163 0.0
Mg238 Mg 0.28378 0.62004 0.51607 0.0
O239 O 0.28604 0.6411 0.54344 0.0
O240 O 0.31032 0.66353 0.54383 0.0
Mg241 Mg 0.32331 0.65703 0.51704 0.0
C242 C 0.29671 0.65629 0.55132 0.0
C243 C 0.24914 0.60397 0.53449 0.0
O244 O 0.26028 0.60775 0.55035 0.0
O245 O 0.27419 0.64016 0.49864 0.0
O246 O 0.29872 0.66232 0.49931 0.0
O247 O 0.30067 0.60409 0.53118 0.0
O248 O 0.31122 0.62739 0.51631 0.0
C249 C 0.28211 0.65535 0.49402 0.0
C250 C 0.31432 0.6153 0.52679 0.0
O251 O 0.25496 0.60727 0.51896 0.0
Mg252 Mg 0.42413 0.52671 0.76271 0.0
O253 O 0.40271 0.49995 0.76302 0.0
O254 O 0.39161 0.50437 0.79078 0.0
Mg255 Mg 0.40595 0.53212 0.80842 0.0
C256 C 0.39194 0.4945 0.77474 0.0
C257 C 0.42571 0.53146 0.71998 0.0
O258 O 0.42343 0.54792 0.72719 0.0
O259 O 0.40233 0.54325 0.75772 0.0
O260 O 0.39311 0.54699 0.78655 0.0
O261 O 0.4454 0.51462 0.777 0.0
O262 O 0.42881 0.53116 0.79236 0.0
C263 C 0.39255 0.54982 0.76926 0.0
C264 C 0.44102 0.52161 0.79307 0.0
O265 O 0.42566 0.51914 0.73073 0.0
Mg266 Mg 0.64702 0.01997 0.75057 0.0
O267 O 0.66617 0.04837 0.75365 0.0
O268 O 0.68123 0.05444 0.78297 0.0
Mg269 Mg 0.67222 0.02992 0.79824 0.0
C270 C 0.67768 0.05898 0.76665 0.0
C271 C 0.6322 0.0046 0.70889 0.0
O272 O 0.625 0.99111 0.71771 0.0
O273 O 0.66992 0.0053 0.74738 0.0
O274 O 0.68428 0.01116 0.77702 0.0
O275 O 0.62636 0.03381 0.76237 0.0
O276 O 0.64636 0.0234 0.77984 0.0
C277 C 0.68249 0.00358 0.75955 0.0
C278 C 0.63359 0.03227 0.77907 0.0
O279 O 0.64239 0.01907 0.71864 0.0
Mg280 Mg 0.78125 0.6599 0.00271 0.0
O281 O 0.78293 0.68041 0.03037 0.0
O282 O 0.81031 0.69856 0.03594 0.0
Mg283 Mg 0.82629 0.68917 0.01215 0.0
C284 C 0.79461 0.69365 0.04055 0.0
C285 C 0.7395 0.64863 0.98765 0.0
O286 O 0.74471 0.65114 0.97101 0.0
O287 O 0.77983 0.68235 0.98407 0.0
O288 O 0.80836 0.69782 0.98866 0.0
O289 O 0.79101 0.63981 0.01923 0.0
O290 O 0.80882 0.66115 0.00712 0.0
C291 C 0.79239 0.69478 0.98012 0.0
C292 C 0.80709 0.6478 0.01702 0.0
O293 O 0.75108 0.65187 0.00233 0.0
Mg294 Mg 0.88398 0.52387 0.79285 0.0
O295 O 0.86377 0.49643 0.79072 0.0
O296 O 0.84826 0.49899 0.81564 0.0
Mg297 Mg 0.85963 0.5273 0.83414 0.0
C298 C 0.85143 0.48988 0.80027 0.0
C299 C 0.90483 0.52386 0.75983 0.0
O300 O 0.91593 0.5335 0.77457 0.0
O301 O 0.8615 0.53701 0.78401 0.0
O302 O 0.84751 0.54059 0.80991 0.0
O303 O 0.90402 0.51268 0.8086 0.0
O304 O 0.88521 0.52784 0.82228 0.0
C305 C 0.84924 0.54245 0.79258 0.0
C306 C 0.89753 0.5184 0.82389 0.0
O307 O 0.88885 0.51707 0.76226 0.0
Mg308 Mg 0.7878 0.44462 0.51121 0.0
O309 O 0.79089 0.42643 0.48343 0.0
O310 O 0.81462 0.414 0.48928 0.0
Mg311 Mg 0.82619 0.42349 0.52038 0.0
C312 C 0.8016 0.41624 0.47799 0.0
C313 C 0.75845 0.45485 0.48416 0.0
O314 O 0.77254 0.46063 0.47573 0.0
O315 O 0.77618 0.41899 0.52368 0.0
O316 O 0.80042 0.40714 0.52915 0.0
O317 O 0.8063 0.46885 0.50371 0.0
O318 O 0.81496 0.4485 0.52033 0.0
C319 C 0.78376 0.40667 0.52955 0.0
C320 C 0.81919 0.46286 0.51211 0.0
O321 O 0.76032 0.44696 0.4987 0.0
Mg322 Mg 0.63201 0.52319 0.28437 0.0
O323 O 0.65255 0.55087 0.28859 0.0
O324 O 0.67078 0.55292 0.31551 0.0
Mg325 Mg 0.66217 0.52653 0.32837 0.0
C326 C 0.66583 0.55954 0.3008 0.0
C327 C 0.60831 0.52971 0.24877 0.0
O328 O 0.5974 0.53119 0.26173 0.0
O329 O 0.65323 0.50764 0.27506 0.0
O330 O 0.67006 0.50892 0.30275 0.0
O331 O 0.61365 0.53572 0.30241 0.0
O332 O 0.63488 0.52264 0.31366 0.0
C333 C 0.66623 0.50341 0.28477 0.0
C334 C 0.6222 0.53115 0.31692 0.0
O335 O 0.62365 0.52661 0.25363 0.0
Eu336 Eu 0.0495 0.03578 0.03774 0.0
C337 C 1.00148 0.96505 0.98285 0.0
N338 N 0.00754 0.98257 0.97935 0.0
C339 C 0.01397 0.97051 0.94847 0.0
C340 C 1.0017 0.94947 0.96923 0.0
C341 C 0.01354 0.98553 0.96241 0.0
C342 C 0.00808 0.9524 0.95191 0.0
C343 C 0.9893 0.9446 0.00441 0.0
C344 C 0.99538 0.96265 0.00031 0.0
C345 C 0.9895 0.92908 0.99085 0.0
C346 C 0.99568 0.9315 0.97333 0.0
Eu347 Eu 0.0062 0.00688 0.00375 0.0
N348 N 0.99584 0.97792 0.01345 0.0
C349 C 0.98328 0.94267 0.02209 0.0
C350 C 0.98924 0.9761 0.03033 0.0
C351 C 0.98311 0.9585 0.03502 0.0
H352 H 0.01766 0.99947 0.95943 0.0
H353 H 0.97807 0.95715 0.04854 0.0
H354 H 0.03854 0.04364 0.08219 0.0
H355 H 0.07457 0.08515 0.99123 0.0
H356 H 0.98827 0.98809 0.04008 0.0
H357 H 0.97854 0.92905 0.02578 0.0
H358 H 0.06664 0.05446 0.00104 0.0
H359 H 0.01876 0.97291 0.93505 0.0
H360 H 0.98494 0.91513 0.99381 0.0
H361 H 0.99579 0.91938 0.96304 0.0
H362 H 0.03569 0.0702 0.10566 0.0
H363 H 0.00845 0.94078 0.94108 0.0
H364 H 0.07204 0.11325 0.01284 0.0
N365 N 0.04686 0.06023 0.06139 0.0
C366 C 0.05172 0.0777 0.05724 0.0
C367 C 0.04008 0.07249 0.09204 0.0
C368 C 0.05054 0.09332 0.07033 0.0
C369 C 0.04144 0.05744 0.07861 0.0
C370 C 0.04455 0.09051 0.08785 0.0
N371 N 0.05812 0.06462 0.02708 0.0
C372 C 0.06472 0.06639 0.0102 0.0
C373 C 0.06243 0.09793 0.03486 0.0
C374 C 0.05759 0.07998 0.03966 0.0
C375 C 0.06827 0.09971 0.01708 0.0
C376 C 0.0696 0.08388 0.00479 0.0
H377 H 0.04346 0.10214 0.09828 0.0
H378 H 0.05438 0.12332 0.07538 0.0
H379 H 0.06476 0.12735 0.04435 0.0
O380 O 0.07775 0.03732 0.03546 0.0
O381 O 0.02734 0.05109 0.02945 0.0
O382 O 0.01621 0.03663 -0.00088 0.0
O383 O 0.0687 0.03911 0.06329 0.0
O384 O 0.05342 0.02154 0.00843 0.0
O385 O 0.0279 0.0223 0.98931 0.0
O386 O 0.97918 0.01084 0.00666 0.0
O387 O 0.02701 0.9902 0.01214 0.0
O388 O 0.04147 0.00541 0.04151 0.0
O389 O 0.98631 1.00245 0.97869 0.0
O390 O 1.00273 0.01991 0.0337 0.0
O391 O 0.02858 0.01968 0.0527 0.0
C392 C 0.0197 0.05151 0.01224 0.0
C393 C 0.09187 0.02283 0.0583 0.0
C394 C 0.1101 1.0005 0.04869 0.0
C395 C 0.111 0.99603 0.06725 0.0
C396 C 0.09307 0.01823 0.07676 0.0
C397 C 0.10248 0.0048 0.08112 0.0
C398 C 0.10034 0.01381 0.04435 0.0
C399 C 0.04488 0.02166 0.9916 0.0
C400 C 0.08185 0.03698 0.05356 0.0
C401 C 0.05527 0.11118 0.06552 0.0
C402 C 0.06119 0.11348 0.04785 0.0
C403 C 0.03645 0.99031 0.02859 0.0
C404 C 0.96901 0.02542 0.98176 0.0
C405 C 0.95438 0.05143 0.9883 0.0
C406 C 0.96098 0.0586 0.97253 0.0
C407 C 0.97534 0.03269 0.96587 0.0
C408 C 0.95835 0.03477 0.99272 0.0
C409 C 0.97129 0.04917 0.96131 0.0
C410 C 0.01145 0.01971 0.05044 0.0
C411 C 0.97491 0.00934 0.98827 0.0
H412 H 0.11865 0.98609 0.07123 0.0
H413 H 0.08673 0.02498 0.08782 0.0
H414 H 0.10335 1.00134 0.09538 0.0
H415 H 0.09927 0.0171 0.03002 0.0
H416 H 0.95798 0.07134 0.96871 0.0
H417 H 0.98376 0.02593 0.95721 0.0
H418 H 0.95365 0.02938 0.00514 0.0
H419 H 0.97634 0.05477 0.94917 0.0
Eu420 Eu 0.26131 0.76967 0.29449 0.0
C421 C 0.31533 0.74935 0.2276 0.0
N422 N 0.31746 0.7618 0.24397 0.0
C423 C 0.34665 0.75619 0.25244 0.0
C424 C 0.32873 0.7395 0.22328 0.0
C425 C 0.33315 0.76585 0.25594 0.0
C426 C 0.34437 0.74281 0.23614 0.0
C427 C 0.29773 0.73479 0.19724 0.0
C428 C 0.30002 0.74697 0.21469 0.0
C429 C 0.3109 0.72472 0.19308 0.0
C430 C 0.32633 0.72703 0.20608 0.0
Eu431 Eu 0.29403 0.77783 0.24802 0.0
N432 N 0.28737 0.75672 0.21918 0.0
C433 C 0.28238 0.73328 0.18437 0.0
C434 C 0.2727 0.75584 0.20642 0.0
C435 C 0.26988 0.74397 0.18893 0.0
H436 H 0.33562 0.77696 0.26786 0.0
H437 H 0.25815 0.74316 0.17892 0.0
H438 H 0.2253 0.78668 0.28387 0.0
H439 H 0.30748 0.78488 0.36093 0.0
H440 H 0.26319 0.76434 0.20973 0.0
H441 H 0.28017 0.72413 0.17078 0.0
H442 H 0.29226 0.76639 0.33049 0.0
H443 H 0.35897 0.75934 0.26212 0.0
H444 H 0.30936 0.71525 0.17977 0.0
H445 H 0.33647 0.71933 0.20256 0.0
H446 H 0.2114 0.81233 0.29659 0.0
H447 H 0.35497 0.73553 0.23334 0.0
H448 H 0.29792 0.81338 0.37406 0.0
N449 N 0.24695 0.79333 0.30624 0.0
C450 C 0.25448 0.80419 0.32304 0.0
C451 C 0.22357 0.81026 0.30412 0.0
C452 C 0.24707 0.81899 0.33082 0.0
C453 C 0.23144 0.79577 0.29695 0.0
C454 C 0.23152 0.82204 0.32103 0.0
N455 N 0.27571 0.78533 0.32497 0.0
C456 C 0.28863 0.77932 0.33536 0.0
C457 C 0.2773 0.81085 0.35037 0.0
C458 C 0.26944 0.8002 0.33257 0.0
C459 C 0.29153 0.80558 0.36034 0.0
C460 C 0.29701 0.78955 0.35294 0.0
H461 H 0.2254 0.83326 0.32655 0.0
H462 H 0.24986 0.8416 0.35431 0.0
H463 H 0.2763 0.83443 0.37149 0.0
O464 O 0.25348 0.74938 0.31325 0.0
O465 O 0.2665 0.7987 0.28734 0.0
O466 O 0.29209 0.79485 0.27631 0.0
O467 O 0.23573 0.74962 0.28809 0.0
O468 O 0.28913 0.7618 0.29665 0.0
O469 O 0.30779 0.78027 0.279 0.0
O470 O 0.29045 0.79929 0.23081 0.0
O471 O 0.27948 0.74754 0.24383 0.0
O472 O 0.27453 0.7601 0.27079 0.0
O473 O 0.31706 0.79606 0.23992 0.0
O474 O 0.26472 0.78064 0.24329 0.0
O475 O 0.2458 0.76943 0.26555 0.0
C476 C 0.28042 0.80526 0.27916 0.0
C477 C 0.22264 0.74327 0.31593 0.0
C478 C 0.21038 0.73625 0.34497 0.0
C479 C 0.19693 0.74595 0.34109 0.0
C480 C 0.20887 0.75267 0.31197 0.0
C481 C 0.19606 0.75391 0.32449 0.0
C482 C 0.22305 0.73476 0.33226 0.0
C483 C 0.30525 0.77001 0.29289 0.0
C484 C 0.23742 0.74336 0.30415 0.0
C485 C 0.25526 0.83007 0.34816 0.0
C486 C 0.27035 0.82601 0.35792 0.0
C487 C 0.27152 0.74499 0.25855 0.0
C488 C 0.31054 0.79974 0.20779 0.0
C489 C 0.30064 0.79985 0.1743 0.0
C490 C 0.31302 0.78914 0.16896 0.0
C491 C 0.3231 0.78929 0.20212 0.0
C492 C 0.29958 0.80527 0.19374 0.0
C493 C 0.32428 0.78405 0.18283 0.0
C494 C 0.24882 0.77575 0.24933 0.0
C495 C 0.30721 0.80274 0.22795 0.0
H496 H 0.18717 0.74736 0.3509 0.0
H497 H 0.20816 0.75934 0.29944 0.0
H498 H 0.18563 0.76134 0.32148 0.0
H499 H 0.23372 0.72764 0.33553 0.0
H500 H 0.31417 0.78495 0.15405 0.0
H501 H 0.33171 0.78469 0.21252 0.0
H502 H 0.28976 0.81319 0.19791 0.0
H503 H 0.33382 0.77583 0.17862 0.0
Eu504 Eu 0.49684 0.01278 0.51879 0.0
C505 C 0.56353 0.02961 0.46331 0.0
N506 N 0.55756 0.0153 0.47256 0.0
C507 C 0.55672 0.99349 0.44424 0.0
C508 C 0.56603 0.02644 0.4439 0.0
C509 C 0.55462 0.99734 0.46354 0.0
C510 C 0.56228 0.00811 0.43431 0.0
C511 C 0.57552 0.06251 0.46487 0.0
C512 C 0.568 0.04738 0.47359 0.0
C513 C 0.57738 0.05958 0.44535 0.0
C514 C 0.5726 0.04158 0.43486 0.0
Eu515 Eu 0.55249 0.02289 0.50455 0.0
N516 N 0.56617 0.04966 0.49245 0.0
C517 C 0.58159 0.07998 0.4762 0.0
C518 C 0.57327 0.06636 0.50379 0.0
C519 C 0.58078 0.08182 0.49582 0.0
H520 H 0.55025 0.986 0.47114 0.0
H521 H 0.58601 0.09512 0.50484 0.0
H522 H 0.49449 0.97524 0.54022 0.0
H523 H 0.45289 0.02477 0.45936 0.0
H524 H 0.57314 0.06784 0.51906 0.0
H525 H 0.58749 0.09195 0.47007 0.0
H526 H 0.47596 0.03365 0.48773 0.0
H527 H 0.55407 0.97925 0.43704 0.0
H528 H 0.58295 0.07106 0.43835 0.0
H529 H 0.57448 0.03945 0.41992 0.0
H530 H 0.47845 0.94218 0.53433 0.0
H531 H 0.56399 0.00508 0.41939 0.0
H532 H 0.43761 0.99179 0.44916 0.0
N533 N 0.48196 0.98131 0.51471 0.0
C534 C 0.46929 0.97523 0.49933 0.0
C535 C 0.47582 0.95131 0.52433 0.0
C536 C 0.4598 0.95659 0.49542 0.0
C537 C 0.48484 0.96996 0.52766 0.0
C538 C 0.4634 0.94453 0.50802 0.0
N539 N 0.4742 0.00592 0.49262 0.0
C540 C 0.46947 0.01921 0.48308 0.0
C541 C 0.45204 0.98218 0.47202 0.0
C542 C 0.46545 0.98788 0.48782 0.0
C543 C 0.44779 0.9956 0.46144 0.0
C544 C 0.45637 0.01424 0.46717 0.0
H545 H 0.45642 0.93008 0.50549 0.0
H546 H 0.43955 0.93637 0.47593 0.0
H547 H 0.43276 0.95878 0.45543 0.0
O548 O 0.47236 0.02267 0.52445 0.0
O549 O 0.50792 0.98762 0.50602 0.0
O550 O 0.539 0.99229 0.50304 0.0
O551 O 0.49034 0.01733 0.54786 0.0
O552 O 0.50927 0.02779 0.49581 0.0
O553 O 0.52999 0.01524 0.48034 0.0
O554 O 0.57423 0.03212 0.52807 0.0
O555 O 0.54312 0.0488 0.51802 0.0
O556 O 0.51244 0.04332 0.52288 0.0
O557 O 0.57293 0.00666 0.5089 0.0
O558 O 0.53166 0.01775 0.52251 0.0
O559 O 0.51554 0.00947 0.54385 0.0
C560 C 0.52267 0.98173 0.50209 0.0
C561 C 0.4639 0.02788 0.5567 0.0
C562 C 0.44073 0.04428 0.56609 0.0
C563 C 0.44219 0.0383 0.58394 0.0
C564 C 0.46514 0.02214 0.57464 0.0
C565 C 0.45429 0.02728 0.58812 0.0
C566 C 0.45162 0.0389 0.55246 0.0
C567 C 0.51406 0.01917 0.48035 0.0
C568 C 0.47566 0.02262 0.5427 0.0
C569 C 0.44687 0.95069 0.47929 0.0
C570 C 0.44302 0.96345 0.46761 0.0
C571 C 0.52854 0.05429 0.52325 0.0
C572 C 0.60172 0.02406 0.52176 0.0
C573 C 0.63093 0.01575 0.52333 0.0
C574 C 0.63869 0.03368 0.52019 0.0
C575 C 0.60972 0.04186 0.51852 0.0
C576 C 0.61236 0.01101 0.52403 0.0
C577 C 0.62811 0.0466 0.51773 0.0
C578 C 0.53149 0.01349 0.53947 0.0
C579 C 0.58236 0.01882 0.52284 0.0
H580 H 0.43418 0.0424 0.59481 0.0
H581 H 0.47449 0.01363 0.57824 0.0
H582 H 0.45536 0.02282 0.60192 0.0
H583 H 0.45057 0.0433 0.53861 0.0
H584 H 0.65293 0.03763 0.51944 0.0
H585 H 0.60184 0.05214 0.51667 0.0
H586 H 0.60624 0.99728 0.52665 0.0
H587 H 0.63419 0.06035 0.51523 0.0
Eu588 Eu 0.30022 0.26961 0.77028 0.0
C589 C 0.23027 0.27271 0.72334 0.0
N590 N 0.24139 0.28683 0.73556 0.0
C591 C 0.24112 0.30689 0.71204 0.0
C592 C 0.22473 0.27492 0.70456 0.0
C593 C 0.24637 0.30398 0.73051 0.0
C594 C 0.23044 0.29223 0.69893 0.0
C595 C 0.2124 0.24129 0.71767 0.0
C596 C 0.22429 0.25612 0.72983 0.0
C597 C 0.20738 0.24313 0.69868 0.0
C598 C 0.21352 0.25992 0.69214 0.0
Eu599 Eu 0.25035 0.2807 0.76614 0.0
N600 N 0.22929 0.25485 0.74832 0.0
C601 C 0.20546 0.2253 0.72513 0.0
C602 C 0.22134 0.23997 0.75603 0.0
C603 C 0.20969 0.22479 0.74449 0.0
H604 H 0.2547 0.31526 0.74066 0.0
H605 H 0.20377 0.21284 0.75061 0.0
H606 H 0.29358 0.22496 0.77857 0.0
H607 H 0.34596 0.33036 0.8121 0.0
H608 H 0.22366 0.23988 0.77115 0.0
H609 H 0.1963 0.2136 0.71626 0.0
H610 H 0.32674 0.31161 0.78334 0.0
H611 H 0.24536 0.32039 0.70792 0.0
H612 H 0.1984 0.23182 0.68907 0.0
H613 H 0.20925 0.26126 0.67758 0.0
H614 H 0.29668 0.2084 0.80588 0.0
H615 H 0.22646 0.29449 0.68461 0.0
H616 H 0.34924 0.31675 0.8417 0.0
N617 N 0.30439 0.25176 0.79483 0.0
C618 C 0.31369 0.26133 0.8116 0.0
C619 C 0.30126 0.22334 0.80778 0.0
C620 C 0.31639 0.25233 0.82746 0.0
C621 C 0.29917 0.23285 0.79241 0.0
C622 C 0.30961 0.23318 0.8255 0.0
N623 N 0.31912 0.28806 0.79686 0.0
C624 C 0.32822 0.30567 0.79625 0.0
C625 C 0.33225 0.29007 0.82927 0.0
C626 C 0.32156 0.27995 0.81254 0.0
C627 C 0.34088 0.30851 0.82914 0.0
C628 C 0.33907 0.31625 0.81246 0.0
H629 H 0.31139 0.22575 0.83734 0.0
H630 H 0.32835 0.25594 0.85687 0.0
H631 H 0.34222 0.289 0.85845 0.0
O632 O 0.31923 0.27794 0.75047 0.0
O633 O 0.29233 0.28972 0.79354 0.0
O634 O 0.26315 0.27619 0.79452 0.0
O635 O 0.32201 0.25526 0.76539 0.0
O636 O 0.29705 0.29525 0.75742 0.0
O637 O 0.27353 0.30588 0.77029 0.0
O638 O 0.22343 0.281 0.77433 0.0
O639 O 0.26525 0.27761 0.74002 0.0
O640 O 0.27949 0.25443 0.7456 0.0
O641 O 0.24417 0.30656 0.77948 0.0
O642 O 0.25468 0.25608 0.78044 0.0
O643 O 0.27639 0.24485 0.76506 0.0
C644 C 0.27866 0.28586 0.80312 0.0
C645 C 0.33039 0.25375 0.73436 0.0
C646 C 0.34929 0.24746 0.70958 0.0
C647 C 0.33482 0.23391 0.69939 0.0
C648 C 0.31628 0.23995 0.72411 0.0
C649 C 0.31848 0.23014 0.70668 0.0
C650 C 0.34695 0.25738 0.72716 0.0
C651 C 0.28882 0.30867 0.76292 0.0
C652 C 0.3277 0.26466 0.75228 0.0
C653 C 0.32631 0.26258 0.84449 0.0
C654 C 0.33424 0.2814 0.84538 0.0
C655 C 0.27133 0.26293 0.73372 0.0
C656 C 0.21521 0.3092 0.78945 0.0
C657 C 0.18988 0.31119 0.80756 0.0
C658 C 0.19283 0.33032 0.80665 0.0
C659 C 0.21787 0.32833 0.78894 0.0
C660 C 0.20102 0.30058 0.7986 0.0
C661 C 0.20666 0.33876 0.79737 0.0
C662 C 0.26226 0.24234 0.77431 0.0
C663 C 0.22778 0.29866 0.7811 0.0
H664 H 0.33626 0.22598 0.68592 0.0
H665 H 0.30358 0.23679 0.72962 0.0
H666 H 0.3075 0.21955 0.69881 0.0
H667 H 0.35787 0.26806 0.73507 0.0
H668 H 0.18433 0.33879 0.81306 0.0
H669 H 0.22864 0.33525 0.78199 0.0
H670 H 0.19906 0.28587 0.79932 0.0
H671 H 0.20877 0.35349 0.79681 0.0
Eu672 Eu 0.04121 0.99953 0.51119 0.0
C673 C 0.01913 0.07133 0.55786 0.0
N674 N 0.01068 0.06024 0.54146 0.0
C675 C 0.98211 0.06129 0.55187 0.0
C676 C 0.00926 0.07782 0.57203 0.0
C677 C 0.99246 0.05523 0.5382 0.0
C678 C 0.99054 0.07263 0.56886 0.0
C679 C 0.04689 0.08728 0.57759 0.0
C680 C 0.03775 0.076 0.56062 0.0
C681 C 0.03709 0.09388 0.59167 0.0
C682 C 0.01833 0.08914 0.58891 0.0
Eu683 Eu 0.0293 0.05102 0.51932 0.0
N684 N 0.04692 0.06886 0.54705 0.0
C685 C 0.06564 0.0914 0.58 0.0
C686 C 0.06516 0.0732 0.54908 0.0
C687 C 0.07479 0.08439 0.56565 0.0
H688 H 0.98589 0.04681 0.5249 0.0
H689 H 0.08928 0.08763 0.56731 0.0
H690 H 0.07452 0.00473 0.48412 0.0
H691 H 0.97523 0.95237 0.4957 0.0
H692 H 0.0723 0.06802 0.53801 0.0
H693 H 0.07315 0.1 0.59285 0.0
H694 H 1.00161 0.97213 0.51621 0.0
H695 H 0.96765 0.0573 0.54925 0.0
H696 H 0.04388 0.10255 0.60481 0.0
H697 H 0.01097 0.09426 0.59996 0.0
H698 H 0.07952 0.99491 0.45081 0.0
H699 H 0.98248 0.07731 0.57942 0.0
H700 H 0.97603 0.94508 0.46092 0.0
N701 N 0.04728 0.99047 0.47989 0.0
C702 C 0.03361 0.97905 0.46771 0.0
C703 C 0.06654 0.9904 0.45537 0.0
C704 C 0.0358 0.97324 0.44858 0.0
C705 C 0.0637 0.99595 0.47417 0.0
C706 C 0.0525 0.9791 0.44248 0.0
N707 N 0.01585 0.97875 0.49312 0.0
C708 C 1.00153 0.9703 0.50097 0.0
C709 C 1.00299 0.96129 0.46219 0.0
C710 C 0.01734 0.97335 0.47443 0.0
C711 C 0.98736 0.95438 0.46983 0.0
C712 C 0.9868 0.95854 0.48942 0.0
H713 H 0.05471 0.97494 0.42789 0.0
H714 H 0.02264 0.95747 0.42137 0.0
H715 H 0.99396 0.94688 0.43332 0.0
O716 O 0.03936 0.97626 0.528 0.0
O717 O 0.03694 0.01479 0.486 0.0
O718 O 0.01494 0.03008 0.49383 0.0
O719 O 0.06194 0.98359 0.51216 0.0
O720 O 0.01773 0.00405 0.52756 0.0
O721 O 0.00627 0.02604 0.51335 0.0
O722 O 0.04148 0.07357 0.50491 0.0
O723 O 0.03605 0.03899 0.54622 0.0
O724 O 0.0551 0.02039 0.53679 0.0
O725 O 0.0142 0.07127 0.51085 0.0
O726 O 0.05458 0.04818 0.50602 0.0
O727 O 0.06543 0.02334 0.51542 0.0
C728 C 0.02258 0.02094 0.48112 0.0
C729 C 0.06293 0.95794 0.52955 0.0
C730 C 0.06434 0.93275 0.54818 0.0
C731 C 0.08093 0.93148 0.54195 0.0
C732 C 0.07953 0.95618 0.52358 0.0
C733 C 0.08839 0.94304 0.52971 0.0
C734 C 0.05522 0.94596 0.54176 0.0
C735 C 0.00431 0.01183 0.52268 0.0
C736 C 0.05446 0.97278 0.52328 0.0
C737 C 0.02128 0.9619 0.43618 0.0
C738 C 0.00491 0.95596 0.44296 0.0
C739 C 0.04756 0.0287 0.55014 0.0
C740 C 0.02197 0.0836 0.48314 0.0
C741 C 0.02303 0.10487 0.4597 0.0
C742 C 0.01375 0.08991 0.44575 0.0
C743 C 0.01264 0.06901 0.46898 0.0
C744 C 0.02707 0.10157 0.47849 0.0
C745 C 0.00859 0.07215 0.4504 0.0
C746 C 0.06761 0.0394 0.5091 0.0
C747 C 0.02697 0.07998 0.50253 0.0
H748 H 0.08811 0.92133 0.54642 0.0
H749 H 0.08582 0.96508 0.51422 0.0
H750 H 0.10116 0.94187 0.525 0.0
H751 H 0.04247 0.94715 0.54656 0.0
H752 H 0.01022 0.09199 0.43126 0.0
H753 H 0.00852 0.05519 0.47231 0.0
H754 H 0.0344 0.11284 0.4894 0.0
H755 H 1.0014 0.06077 0.43956 0.0
Eu756 Eu 0.27846 0.79812 0.75105 0.0
C757 C 0.23021 0.73484 0.77951 0.0
N758 N 0.24378 0.74813 0.78973 0.0
C759 C 0.22517 0.75402 0.81397 0.0
C760 C 0.21321 0.73116 0.7858 0.0
C761 C 0.24177 0.75728 0.80706 0.0
C762 C 0.21076 0.74106 0.80318 0.0
C763 C 0.21978 0.71063 0.75209 0.0
C764 C 0.2335 0.72478 0.76285 0.0
C765 C 0.20259 0.70741 0.75787 0.0
C766 C 0.19932 0.71763 0.77469 0.0
Eu767 Eu 0.27122 0.75314 0.77705 0.0
N768 N 0.25031 0.72811 0.75775 0.0
C769 C 0.2239 0.69973 0.73622 0.0
C770 C 0.25471 0.71648 0.74328 0.0
C771 C 0.24152 0.70245 0.73201 0.0
H772 H 0.25292 0.76736 0.8153 0.0
H773 H 0.24503 0.69355 0.72029 0.0
H774 H 0.27969 0.7808 0.7047 0.0
H775 H 0.32587 0.85541 0.7961 0.0
H776 H 0.26842 0.71769 0.74058 0.0
H777 H 0.21375 0.68872 0.72758 0.0
H778 H 0.29701 0.83274 0.78624 0.0
H779 H 0.22347 0.76153 0.82754 0.0
H780 H 0.19186 0.69672 0.74967 0.0
H781 H 0.1861 0.71474 0.77917 0.0
H782 H 0.30213 0.77898 0.68248 0.0
H783 H 0.1979 0.73862 0.80852 0.0
H784 H 0.3506 0.85513 0.77625 0.0
N785 N 0.29842 0.79688 0.7277 0.0
C786 C 0.31511 0.80781 0.7327 0.0
C787 C 0.30606 0.78687 0.69669 0.0
C788 C 0.3282 0.80802 0.7201 0.0
C789 C 0.29346 0.78748 0.70954 0.0
C790 C 0.32363 0.7969 0.70212 0.0
N791 N 0.30569 0.81966 0.76154 0.0
C792 C 0.30783 0.83255 0.77763 0.0
C793 C 0.33538 0.83244 0.75497 0.0
C794 C 0.31871 0.81986 0.74992 0.0
C795 C 0.338 0.84521 0.7719 0.0
C796 C 0.32408 0.8454 0.78317 0.0
H797 H 0.3333 0.79664 0.69204 0.0
H798 H 0.35543 0.82005 0.71605 0.0
H799 H 0.3617 0.84146 0.74659 0.0
O800 O 0.26352 0.81991 0.75684 0.0
O801 O 0.30218 0.79367 0.7708 0.0
O802 O 0.29813 0.76203 0.76633 0.0
O803 O 0.27422 0.81602 0.73004 0.0
O804 O 0.27036 0.80216 0.78096 0.0
O805 O 0.28152 0.78065 0.7964 0.0
O806 O 0.27614 0.72673 0.78413 0.0
O807 O 0.24854 0.76884 0.77261 0.0
O808 O 0.25195 0.77711 0.74344 0.0
O809 O 0.28402 0.75148 0.80519 0.0
O810 O 0.28194 0.75056 0.74847 0.0
O811 O 0.26836 0.76983 0.73241 0.0
C812 C 0.30871 0.7786 0.77103 0.0
C813 C 0.24708 0.82609 0.72994 0.0
C814 C 0.22556 0.84508 0.72297 0.0
C815 C 0.21394 0.82922 0.71218 0.0
C816 C 0.23542 0.81045 0.71905 0.0
C817 C 0.21891 0.81204 0.71022 0.0
C818 C 0.24221 0.84332 0.73171 0.0
C819 C 0.27676 0.79669 0.79649 0.0
C820 C 0.26417 0.82466 0.73999 0.0
C821 C 0.34516 0.81984 0.72548 0.0
C822 C 0.34872 0.83207 0.74285 0.0
C823 C 0.2415 0.7719 0.75611 0.0
C824 C 0.30391 0.73088 0.80352 0.0
C825 C 0.32533 0.71134 0.79649 0.0
C826 C 0.33918 0.72546 0.80681 0.0
C827 C 0.318 0.74469 0.81407 0.0
C828 C 0.30768 0.71406 0.79505 0.0
C829 C 0.33548 0.74194 0.81569 0.0
C830 C 0.27537 0.75511 0.73256 0.0
C831 C 0.28561 0.73441 0.80039 0.0
H832 H 0.20092 0.83001 0.70551 0.0
H833 H 0.23909 0.79706 0.71742 0.0
H834 H 0.20987 0.79989 0.70195 0.0
H835 H 0.25149 0.85537 0.73989 0.0
H836 H 0.35287 0.72365 0.80821 0.0
H837 H 0.31561 0.75778 0.82082 0.0
H838 H 0.29698 0.70327 0.7869 0.0
H839 H 0.34623 0.75272 0.82367 0.0
Eu840 Eu 0.53443 0.0441 0.00109 0.0
C841 C 0.55168 0.98746 0.06542 0.0
N842 N 0.54061 0.98542 0.04884 0.0
C843 C 0.5468 0.95541 0.03902 0.0
C844 C 0.56109 0.97362 0.06919 0.0
C845 C 0.53759 0.96938 0.03602 0.0
C846 C 0.55872 0.95759 0.0556 0.0
C847 C 0.56441 0.00564 0.09639 0.0
C848 C 0.5533 0.00325 0.07894 0.0
C849 C 0.57393 0.99198 0.10007 0.0
C850 C 0.57228 0.97603 0.0865 0.0
Eu851 Eu 0.5248 0.00936 0.04592 0.0
N852 N 0.54414 0.01639 0.07489 0.0
C853 C 0.56554 0.02168 0.10968 0.0
C854 C 0.54479 0.0318 0.08798 0.0
C855 C 0.55562 0.03476 0.10548 0.0
H856 H 0.52763 0.96693 0.02379 0.0
H857 H 0.55622 0.04707 0.11577 0.0
H858 H 0.5199 0.08258 0.01428 0.0
H859 H 0.51891 0.99685 0.93263 0.0
H860 H 0.53689 0.04178 0.085 0.0
H861 H 0.5739 0.024 0.12327 0.0
H862 H 0.53662 0.01151 0.96328 0.0
H863 H 0.54443 0.9428 0.0287 0.0
H864 H 0.58253 0.99358 0.1134 0.0
H865 H 0.57961 0.96554 0.08962 0.0
H866 H 0.49652 0.09862 0.00317 0.0
H867 H 0.56569 0.94665 0.05797 0.0
H868 H 0.49266 0.00858 0.92089 0.0
N869 N 0.5129 0.0604 0.99093 0.0
C870 C 0.50257 0.05323 0.97404 0.0
C871 C 0.49801 0.08581 0.99489 0.0
C872 C 0.48907 0.06186 0.96713 0.0
C873 C 0.5112 0.07673 0.00116 0.0
C874 C 0.48677 0.07825 0.97789 0.0
N875 N 0.5194 0.02992 0.97035 0.0
C876 C 0.52463 0.0161 0.95906 0.0
C877 C 0.49565 0.02989 0.94563 0.0
C878 C 0.50578 0.03738 0.96355 0.0
C879 C 0.5001 0.01473 0.93472 0.0
C880 C 0.51485 0.00803 0.94133 0.0
H881 H 0.47656 0.08532 0.97306 0.0
H882 H 0.46802 0.0604 0.94415 0.0
H883 H 0.47381 0.03242 0.92527 0.0
O884 O 0.55458 0.05187 0.98231 0.0
O885 O 0.50605 0.03981 0.00847 0.0
O886 O 0.51047 0.01391 0.01848 0.0
O887 O 0.55433 0.07022 0.00838 0.0
O888 O 0.54111 0.01468 0.99679 0.0
O889 O 0.52305 0.99548 0.0144 0.0
O890 O 0.50454 0.01113 0.06535 0.0
O891 O 0.55431 0.02327 0.04975 0.0
O892 O 0.54317 0.02998 0.02383 0.0
O893 O 0.50565 0.98463 0.04947 0.0
O894 O 0.52183 0.03982 0.0523 0.0
O895 O 0.53427 0.05953 0.03112 0.0
C896 C 0.50022 0.02579 0.01702 0.0
C897 C 0.56254 0.08401 0.9815 0.0
C898 C 0.57245 0.09727 0.95387 0.0
C899 C 0.56487 0.11258 0.95928 0.0
C900 C 0.55513 0.09949 0.98681 0.0
C901 C 0.55635 0.1137 0.97574 0.0
C902 C 0.57128 0.08311 0.96515 0.0
C903 C 0.53293 0.99801 0.00014 0.0
C904 C 0.56085 0.06831 0.99225 0.0
C905 C 0.47853 0.05404 0.94965 0.0
C906 C 0.48181 0.03808 0.93893 0.0
C907 C 0.55745 0.03217 0.03581 0.0
C908 C 0.50202 0.9855 0.08202 0.0
C909 C 0.50132 0.98856 0.11648 0.0
C910 C 0.50904 0.97296 0.11678 0.0
C911 C 0.50961 0.96982 0.0827 0.0
C912 C 0.49785 0.99474 0.09899 0.0
C913 C 0.51313 0.96369 0.09998 0.0
C914 C 0.52734 0.0564 0.04711 0.0
C915 C 0.49992 0.99312 0.06404 0.0
H916 H 0.5656 0.12369 0.95085 0.0
H917 H 0.54828 0.10057 -0.00063 0.0
H918 H 0.55056 0.12555 0.97986 0.0
H919 H 0.57673 0.07101 0.96089 0.0
H920 H 0.51157 0.96764 0.12993 0.0
H921 H 0.51314 0.9624 0.06996 0.0
H922 H 0.49221 0.00695 0.09862 0.0
H923 H 0.51903 0.95167 0.10034 0.0
Eu924 Eu 0.2607 0.2497 0.25817 0.0
C925 C 0.32894 0.31312 0.28181 0.0
N926 N 0.31768 0.30444 0.29287 0.0
C927 C 0.3426 0.30151 0.31423 0.0
C928 C 0.34763 0.31554 0.28601 0.0
C929 C 0.32414 0.29933 0.30937 0.0
C930 C 0.35439 0.30934 0.3023 0.0
C931 C 0.33302 0.33069 0.25581 0.0
C932 C 0.32172 0.32061 0.26698 0.0
C933 C 0.3516 0.33213 0.25911 0.0
C934 C 0.3589 0.3246 0.27422 0.0
Eu935 Eu 0.28672 0.30034 0.28328 0.0
N936 N 0.30376 0.31935 0.26454 0.0
C937 C 0.32535 0.3397 0.24224 0.0
C938 C 0.29647 0.32947 0.25259 0.0
C939 C 0.30703 0.33939 0.24091 0.0
H940 H 0.31496 0.29311 0.31845 0.0
H941 H 0.30108 0.34695 0.23104 0.0
H942 H 0.24841 0.25957 0.21396 0.0
H943 H 0.21749 0.22064 0.30767 0.0
H944 H 0.28247 0.3299 0.25204 0.0
H945 H 0.33355 0.34757 0.23334 0.0
H946 H 0.24594 0.22926 0.29404 0.0
H947 H 0.34771 0.29704 0.32707 0.0
H948 H 0.36049 0.33963 0.25052 0.0
H949 H 0.3733 0.32636 0.27702 0.0
H950 H 0.22207 0.26653 0.19656 0.0
H951 H 0.36868 0.31097 0.30605 0.0
H952 H 0.18964 0.22726 0.29243 0.0
N953 N 0.23579 0.25476 0.23871 0.0
C954 C 0.21979 0.25116 0.24574 0.0
C955 C 0.22133 0.2626 0.21057 0.0
C956 C 0.20413 0.25425 0.23588 0.0
C957 C 0.23644 0.25914 0.22077 0.0
C958 C 0.20519 0.26054 0.21833 0.0
N959 N 0.23413 0.24071 0.27167 0.0
C960 C 0.23376 0.23205 0.28733 0.0
C961 C 0.20242 0.23906 0.26978 0.0
C962 C 0.21886 0.24354 0.26244 0.0
C963 C 0.20202 0.23089 0.28634 0.0
C964 C 0.21772 0.22717 0.29502 0.0
H965 H 0.19347 0.26308 0.21032 0.0
H966 H 0.17573 0.25299 0.23625 0.0
H967 H 0.17427 0.23978 0.26598 0.0
O968 O 0.2666 0.22252 0.26061 0.0
O969 O 0.24948 0.26745 0.281 0.0
O970 O 0.25709 0.29583 0.27255 0.0
O971 O 0.24999 0.22599 0.23577 0.0
O972 O 0.27713 0.24956 0.28629 0.0
O973 O 0.27998 0.27927 0.30308 0.0
O974 O 0.29046 0.32969 0.29533 0.0
O975 O 0.30317 0.27791 0.27781 0.0
O976 O 0.2889 0.25915 0.25016 0.0
O977 O 0.2797 0.30865 0.31158 0.0
O978 O 0.27031 0.29715 0.2542 0.0
O979 O 0.27324 0.26899 0.23885 0.0
C980 C 0.24552 0.28349 0.27902 0.0
C981 C 0.26885 0.20487 0.23136 0.0
C982 C 0.28082 0.17724 0.22365 0.0
C983 C 0.28907 0.18511 0.20903 0.0
C984 C 0.2774 0.21276 0.21695 0.0
C985 C 0.28735 0.2028 0.20575 0.0
C986 C 0.27054 0.18717 0.23458 0.0
C987 C 0.27958 0.26139 0.30235 0.0
C988 C 0.25857 0.21501 0.24364 0.0
C989 C 0.18784 0.25047 0.24352 0.0
C990 C 0.18698 0.24287 0.26041 0.0
C991 C 0.30371 0.26738 0.26155 0.0
C992 C 0.26593 0.33423 0.31181 0.0
C993 C 0.24743 0.35495 0.30155 0.0
C994 C 0.23335 0.34602 0.31038 0.0
C995 C 0.25187 0.32575 0.32112 0.0
C996 C 0.26373 0.34923 0.30254 0.0
C997 C 0.2357 0.33166 0.3204 0.0
C998 C 0.27265 0.2865 0.23879 0.0
C999 C 0.28182 0.32607 0.30972 0.0
H1000 H 0.29722 0.17781 0.20051 0.0
H1001 H 0.27645 0.22659 0.21443 0.0
H1002 H 0.29394 0.20891 0.19465 0.0
H1003 H 0.2639 0.18118 0.24575 0.0
H1004 H 0.22063 0.35025 0.30962 0.0
H1005 H 0.25313 0.31414 0.32842 0.0
H1006 H 0.27437 0.35596 0.29528 0.0
H1007 H 0.22484 0.32481 0.32725 0.0
Eu1008 Eu 0.54652 0.50079 0.01254 0.0
C1009 C 0.52976 0.56888 0.06283 0.0
N1010 N 0.51816 0.5567 0.04905 0.0
C1011 C 0.49542 0.55413 0.06987 0.0
C1012 C 0.52463 0.57393 0.08094 0.0
C1013 C 0.50115 0.54941 0.05218 0.0
C1014 C 0.50721 0.5664 0.08433 0.0
C1015 C 0.55935 0.58837 0.07304 0.0
C1016 C 0.54703 0.57578 0.05896 0.0
C1017 C 0.55434 0.59329 0.09117 0.0
C1018 C 0.53704 0.58608 0.09511 0.0
Eu1019 Eu 0.52895 0.54929 0.01979 0.0
N1020 N 0.55162 0.57057 0.04134 0.0
C1021 C 0.57623 0.59602 0.06835 0.0
C1022 C 0.56738 0.57936 0.03624 0.0
C1023 C 0.58011 0.59177 0.04975 0.0
H1024 H 0.49201 0.53996 0.04098 0.0
H1025 H 0.59275 0.59838 0.04567 0.0
H1026 H 0.58623 0.51244 0.99646 0.0
H1027 H 0.4858 0.45033 0.97897 0.0
H1028 H 0.56997 0.57754 0.02165 0.0
H1029 H 0.58606 0.60576 0.07874 0.0
H1030 H 0.50512 0.4725 0.00491 0.0
H1031 H 0.48193 0.54828 0.07236 0.0
H1032 H 0.56369 0.60284 0.10217 0.0
H1033 H 0.53337 0.59005 0.10914 0.0
H1034 H 0.60016 0.50517 0.96734 0.0
H1035 H 0.50277 0.56993 0.09807 0.0
H1036 H 0.49728 0.44237 0.94836 0.0
N1037 N 0.56109 0.49459 0.98549 0.0
C1038 C 0.55141 0.48175 0.97087 0.0
C1039 C 0.58641 0.49857 0.96811 0.0
C1040 C 0.55888 0.47708 0.95403 0.0
C1041 C 0.57843 0.50283 0.98449 0.0
C1042 C 0.57658 0.48569 0.95278 0.0
N1043 N 0.52675 0.4788 0.98879 0.0
C1044 C 0.51002 0.47004 0.99144 0.0
C1045 C 0.52329 0.46064 0.95739 0.0
C1046 C 0.53374 0.47372 0.97251 0.0
C1047 C 0.50573 0.45249 0.95963 0.0
C1048 C 0.49915 0.45704 0.97683 0.0
H1049 H 0.5828 0.48247 0.94008 0.0
H1050 H 0.55393 0.46046 0.92586 0.0
H1051 H 0.52284 0.44602 0.92882 0.0
O1052 O 0.54321 0.47724 0.02908 0.0
O1053 O 0.53847 0.51221 0.98558 0.0
O1054 O 0.51654 0.52732 0.99445 0.0
O1055 O 0.5683 0.48697 0.01795 0.0
O1056 O 0.52082 0.50058 0.02644 0.0
O1057 O 0.50746 0.52286 0.01458 0.0
O1058 O 0.53169 0.57338 0.00432 0.0
O1059 O 0.53445 0.53562 0.04579 0.0
O1060 O 0.55806 0.52312 0.03796 0.0
O1061 O 0.50678 0.56313 0.01554 0.0
O1062 O 0.55291 0.54785 0.00353 0.0
O1063 O 0.56701 0.52796 0.01818 0.0
C1064 C 0.52476 0.51964 0.98128 0.0
C1065 C 0.56805 0.46119 0.03532 0.0
C1066 C 0.56818 0.43571 0.05382 0.0
C1067 C 0.58596 0.43594 0.05048 0.0
C1068 C 0.58584 0.46095 0.0323 0.0
C1069 C 0.59465 0.44841 0.03979 0.0
C1070 C 0.55912 0.44832 0.046 0.0
C1071 C 0.5067 0.50769 0.02242 0.0
C1072 C 0.5595 0.47524 0.0274 0.0
C1073 C 0.54843 0.46418 0.93892 0.0
C1074 C 0.5307 0.45599 0.94059 0.0
C1075 C 0.54863 0.52925 0.05078 0.0
C1076 C 0.50708 0.58963 -0.00102 0.0
C1077 C 0.50857 0.618 0.98477 0.0
C1078 C 0.49036 0.61697 0.98657 0.0
C1079 C 0.48886 0.589 0.00048 0.0
C1080 C 0.51692 0.60413 0.99082 0.0
C1081 C 0.4806 0.60253 0.99426 0.0
C1082 C 0.56726 0.5414 0.00795 0.0
C1083 C 0.51544 0.57524 0.00638 0.0
H1084 H 0.59314 0.42626 0.05601 0.0
H1085 H 0.59308 0.47054 0.02416 0.0
H1086 H 0.60833 0.44838 0.03731 0.0
H1087 H 0.54544 0.44833 0.0485 0.0
H1088 H 0.48365 0.62739 0.98193 0.0
H1089 H 0.48093 0.57804 0.00656 0.0
H1090 H 0.53099 0.60489 0.98961 0.0
H1091 H 0.46657 0.60188 0.99552 0.0
Eu1092 Eu 0.77866 0.30168 0.24992 0.0
C1093 C 0.73128 0.25035 0.29079 0.0
N1094 N 0.74778 0.26138 0.29707 0.0
C1095 C 0.73682 0.27393 0.32533 0.0
C1096 C 0.71671 0.25136 0.30125 0.0
C1097 C 0.7509 0.27225 0.31462 0.0
C1098 C 0.71959 0.26368 0.31847 0.0
C1099 C 0.71232 0.22535 0.26769 0.0
C1100 C 0.72905 0.23743 0.27421 0.0
C1101 C 0.6977 0.22674 0.27778 0.0
C1102 C 0.69988 0.23974 0.29448 0.0
Eu1103 Eu 0.77032 0.25756 0.27719 0.0
N1104 N 0.74323 0.23682 0.26429 0.0
C1105 C 0.71081 0.21223 0.25119 0.0
C1106 C 0.74208 0.22368 0.24861 0.0
C1107 C 0.7258 0.21129 0.24172 0.0
H1108 H 0.76427 0.27929 0.32078 0.0
H1109 H 0.72481 0.20105 0.22911 0.0
H1110 H 0.7998 0.28766 0.21395 0.0
H1111 H 0.79617 0.36689 0.30028 0.0
H1112 H 0.75372 0.22293 0.24139 0.0
H1113 H 0.69819 0.20269 0.24575 0.0
H1114 H 0.77594 0.33888 0.28159 0.0
H1115 H 0.73935 0.28286 0.33906 0.0
H1116 H 0.6847 0.21771 0.2729 0.0
H1117 H 0.68853 0.24045 0.30227 0.0
H1118 H 0.82924 0.29625 0.2022 0.0
H1119 H 0.70875 0.26487 0.32691 0.0
H1120 H 0.82779 0.37501 0.29436 0.0
N1121 N 0.80641 0.30894 0.23814 0.0
C1122 C 0.8184 0.32417 0.24753 0.0
C1123 C 0.82641 0.30413 0.21504 0.0
C1124 C 0.83534 0.32953 0.2415 0.0
C1125 C 0.80982 0.29928 0.2217 0.0
C1126 C 0.83933 0.31918 0.22513 0.0
N1127 N 0.79636 0.33001 0.26699 0.0
C1128 C 0.78991 0.34176 0.27961 0.0
C1129 C 0.82519 0.35113 0.27237 0.0
C1130 C 0.81333 0.33483 0.26267 0.0
C1131 C 0.81908 0.3624 0.28654 0.0
C1132 C 0.80126 0.35786 0.28994 0.0
H1133 H 0.85218 0.32288 0.21999 0.0
H1134 H 0.86071 0.34947 0.24743 0.0
H1135 H 0.85185 0.36836 0.27454 0.0
O1136 O 0.77117 0.32532 0.23852 0.0
O1137 O 0.80282 0.28853 0.25646 0.0
O1138 O 0.79805 0.27673 0.28419 0.0
O1139 O 0.76484 0.2982 0.22115 0.0
O1140 O 0.76901 0.30505 0.2791 0.0
O1141 O 0.78191 0.28562 0.29557 0.0
O1142 O 0.78214 0.2328 0.27443 0.0
O1143 O 0.74825 0.26278 0.25566 0.0
O1144 O 0.7525 0.29414 0.26219 0.0
O1145 O 0.7725 0.24245 0.3011 0.0
O1146 O 0.78194 0.25287 0.24947 0.0
O1147 O 0.77079 0.27301 0.23213 0.0
C1148 C 0.80893 0.28359 0.27247 0.0
C1149 C 0.74326 0.31673 0.21879 0.0
C1150 C 0.72092 0.33593 0.21968 0.0
C1151 C 0.70741 0.31998 0.21291 0.0
C1152 C 0.72953 0.30095 0.21183 0.0
C1153 C 0.71175 0.30263 0.20891 0.0
C1154 C 0.73884 0.3342 0.22242 0.0
C1155 C 0.77697 0.30146 0.29482 0.0
C1156 C 0.76202 0.31499 0.22312 0.0
C1157 C 0.84753 0.34525 0.25167 0.0
C1158 C 0.84248 0.35599 0.26713 0.0
C1159 C 0.74167 0.27787 0.25676 0.0
C1160 C 0.78505 0.21492 0.30054 0.0
C1161 C 0.796 0.1861 0.2982 0.0
C1162 C 0.79439 0.18582 0.31765 0.0
C1163 C 0.78351 0.21424 0.31991 0.0
C1164 C 0.79141 0.20083 0.28974 0.0
C1165 C 0.7882 0.1998 0.32838 0.0
C1166 C 0.77728 0.25807 0.23319 0.0
C1167 C 0.7798 0.23022 0.29179 0.0
H1168 H 0.69351 0.32093 0.21064 0.0
H1169 H 0.73243 0.28725 0.20891 0.0
H1170 H 0.70126 0.2904 0.20374 0.0
H1171 H 0.7493 0.34639 0.22798 0.0
H1172 H 0.79813 0.17488 0.32465 0.0
H1173 H 0.77868 0.2249 0.32858 0.0
H1174 H 0.79247 0.20114 0.27473 0.0
H1175 H 0.78704 0.19944 0.34334 0.0
Eu1176 Eu 0.04361 0.55195 0.50222 0.0
C1177 C 0.04929 0.49484 0.57007 0.0
N1178 N 0.04335 0.49215 0.55111 0.0
C1179 C 0.05613 0.46529 0.54593 0.0
C1180 C 0.05915 0.48283 0.57764 0.0
C1181 C 0.04641 0.47753 0.53905 0.0
C1182 C 0.06255 0.46795 0.5653 0.0
C1183 C 0.05201 0.5131 0.60156 0.0
C1184 C 0.04582 0.50991 0.58186 0.0
C1185 C 0.06177 0.50111 0.60913 0.0
C1186 C 0.06534 0.48604 0.59722 0.0
Eu1187 Eu 0.02577 0.51253 0.54119 0.0
N1188 N 0.03642 0.52141 0.57413 0.0
C1189 C 0.04807 0.52815 0.61313 0.0
C1190 C 0.03195 0.53564 0.58556 0.0
C1191 C 0.0379 0.53938 0.60511 0.0
H1192 H 0.04111 0.47503 0.52418 0.0
H1193 H 0.03439 0.55077 0.61404 0.0
H1194 H 0.02599 0.58766 0.51821 0.0
H1195 H 0.04195 0.51776 0.42869 0.0
H1196 H 0.02338 0.54392 0.57996 0.0
H1197 H 0.05256 0.53103 0.62832 0.0
H1198 H 0.05311 0.52622 0.46282 0.0
H1199 H 0.05854 0.45372 0.53631 0.0
H1200 H 0.06661 0.50337 0.62422 0.0
H1201 H 0.07291 0.47694 0.60328 0.0
H1202 H 0.00494 0.60591 0.50617 0.0
H1203 H 0.07006 0.45841 0.57058 0.0
H1204 H 0.01848 0.53212 0.41469 0.0
N1205 N 0.02401 0.57016 0.49163 0.0
C1206 C 0.01732 0.56637 0.47287 0.0
C1207 C 0.00824 0.59477 0.49668 0.0
C1208 C 0.00532 0.5764 0.46536 0.0
C1209 C 0.0201 0.58444 0.50348 0.0
C1210 C 1.00069 0.59064 0.47757 0.0
N1211 N 0.0347 0.54353 0.46886 0.0
C1212 C 0.04217 0.53181 0.45726 0.0
C1213 C 0.01634 0.54859 0.44153 0.0
C1214 C 0.02267 0.55252 0.4612 0.0
C1215 C 0.02298 0.5355 0.42986 0.0
C1216 C 0.03617 0.52731 0.43773 0.0
H1217 H 0.99151 0.59867 0.47234 0.0
H1218 H 0.9892 0.57956 0.43989 0.0
H1219 H 0.99892 0.55527 0.41899 0.0
O1220 O 0.06984 0.55925 0.49246 0.0
O1221 O 0.01345 0.54568 0.50211 0.0
O1222 O 0.01715 0.52 0.51269 0.0
O1223 O 0.06045 0.57969 0.511 0.0
O1224 O 0.04832 0.52197 0.49427 0.0
O1225 O 0.0315 0.50076 0.51139 0.0
O1226 O 1.00071 0.50741 0.5538 0.0
O1227 O 0.05614 0.52123 0.54662 0.0
O1228 O 0.04782 0.53688 0.52586 0.0
O1229 O 0.0081 0.48508 0.53584 0.0
O1230 O 0.02029 0.54226 0.54663 0.0
O1231 O 0.04155 0.56277 0.53349 0.0
C1232 C 0.00642 0.5309 0.50891 0.0
C1233 C 0.07721 0.59068 0.4873 0.0
C1234 C 0.08598 0.59856 0.45692 0.0
C1235 C 0.08548 0.61718 0.46313 0.0
C1236 C 0.07707 0.60944 0.49339 0.0
C1237 C 0.0811 0.62256 0.48131 0.0
C1238 C 0.08175 0.58539 0.46906 0.0
C1239 C 0.04127 0.5048 0.49737 0.0
C1240 C 0.07237 0.57674 0.49986 0.0
C1241 C 0.99851 0.57208 0.44592 0.0
C1242 C 0.00402 0.55821 0.43404 0.0
C1243 C 0.06128 0.53327 0.53584 0.0
C1244 C 0.99513 0.47779 0.56332 0.0
C1245 C 0.98362 0.47256 0.5932 0.0
C1246 C 0.99298 0.45829 0.59434 0.0
C1247 C 0.00422 0.46323 0.56451 0.0
C1248 C 0.98454 0.4821 0.57755 0.0
C1249 C 1.00307 0.45353 0.57992 0.0
C1250 C 0.02874 0.55928 0.54463 0.0
C1251 C 0.99771 0.48949 0.54827 0.0
H1252 H 0.08877 0.6276 0.45407 0.0
H1253 H 0.07373 0.61395 0.50744 0.0
H1254 H 0.08088 0.63695 0.48609 0.0
H1255 H 0.08177 0.57095 0.46413 0.0
H1256 H 0.99247 0.45086 0.60638 0.0
H1257 H 0.01251 0.45952 0.55378 0.0
H1258 H 0.97765 0.49342 0.5769 0.0
H1259 H 0.01027 0.44251 0.58084 0.0
Eu1260 Eu 0.80242 0.76511 0.27101 0.0
C1261 C 0.73104 0.76699 0.22539 0.0
N1262 N 0.74237 0.78144 0.23695 0.0
C1263 C 0.74093 0.80068 0.21279 0.0
C1264 C 0.72481 0.76858 0.2066 0.0
C1265 C 0.74684 0.79838 0.23129 0.0
C1266 C 0.73008 0.78563 0.20028 0.0
C1267 C 0.71307 0.73569 0.22125 0.0
C1268 C 0.72534 0.75077 0.23264 0.0
C1269 C 0.70744 0.73686 0.20221 0.0
C1270 C 0.71329 0.75328 0.1949 0.0
Eu1271 Eu 0.75259 0.77627 0.26756 0.0
N1272 N 0.73087 0.7502 0.25117 0.0
C1273 C 0.70636 0.72017 0.22955 0.0
C1274 C 0.72312 0.73583 0.25972 0.0
C1275 C 0.71115 0.7204 0.24897 0.0
H1276 H 0.75534 0.80993 0.24097 0.0
H1277 H 0.70545 0.70881 0.25573 0.0
H1278 H 0.79469 0.72033 0.27926 0.0
H1279 H 0.84859 0.8252 0.31338 0.0
H1280 H 0.72603 0.73626 0.2749 0.0
H1281 H 0.69694 0.70828 0.22129 0.0
H1282 H 0.82944 0.80676 0.2844 0.0
H1283 H 0.74481 0.81399 0.20815 0.0
H1284 H 0.69818 0.72534 0.19319 0.0
H1285 H 0.7085 0.75414 0.18034 0.0
H1286 H 0.79705 0.70372 0.3066 0.0
H1287 H 0.72557 0.78742 0.18594 0.0
H1288 H 0.85114 0.81148 0.34298 0.0
N1289 N 0.80582 0.74708 0.29559 0.0
C1290 C 0.81505 0.75651 0.31245 0.0
C1291 C 0.80191 0.71862 0.30854 0.0
C1292 C 0.81731 0.74744 0.32834 0.0
C1293 C 0.80026 0.72819 0.29313 0.0
C1294 C 0.81017 0.72835 0.32633 0.0
N1295 N 0.82124 0.78324 0.2978 0.0
C1296 C 0.83066 0.80075 0.2973 0.0
C1297 C 0.83387 0.78501 0.33033 0.0
C1298 C 0.82327 0.77505 0.31349 0.0
C1299 C 0.84284 0.80336 0.33032 0.0
C1300 C 0.84144 0.81116 0.31363 0.0
H1301 H 0.8116 0.72086 0.33819 0.0
H1302 H 0.82885 0.75083 0.35788 0.0
H1303 H 0.84334 0.78376 0.35962 0.0
O1304 O 0.82201 0.77366 0.25185 0.0
O1305 O 0.79472 0.78557 0.29413 0.0
O1306 O 0.76589 0.77143 0.29548 0.0
O1307 O 0.82392 0.75036 0.26609 0.0
O1308 O 0.79935 0.79064 0.258 0.0
O1309 O 0.77571 0.80145 0.2705 0.0
O1310 O 0.72603 0.7774 0.27636 0.0
O1311 O 0.76687 0.77339 0.24093 0.0
O1312 O 0.78179 0.7505 0.24596 0.0
O1313 O 0.74748 0.80237 0.28169 0.0
O1314 O 0.75758 0.7517 0.28159 0.0
O1315 O 0.77851 0.74047 0.26498 0.0
C1316 C 0.78118 0.78177 0.30387 0.0
C1317 C 0.83297 0.74955 0.23536 0.0
C1318 C 0.85213 0.74392 0.21067 0.0
C1319 C 0.83774 0.73051 0.20011 0.0
C1320 C 0.81891 0.73595 0.22471 0.0
C1321 C 0.82129 0.72653 0.20715 0.0
C1322 C 0.84961 0.75341 0.22839 0.0
C1323 C 0.79094 0.80404 0.263 0.0
C1324 C 0.83011 0.76008 0.25342 0.0
C1325 C 0.82715 0.75753 0.34547 0.0
C1326 C 0.83543 0.77627 0.34646 0.0
C1327 C 0.77343 0.75911 0.23435 0.0
C1328 C 0.71899 0.80587 0.2924 0.0
C1329 C 0.69367 0.80817 0.31042 0.0
C1330 C 0.69763 0.82752 0.31074 0.0
C1331 C 0.72266 0.82522 0.29309 0.0
C1332 C 0.70432 0.79733 0.30092 0.0
C1333 C 0.71196 0.83591 0.30209 0.0
C1334 C 0.76444 0.73785 0.27428 0.0
C1335 C 0.73101 0.79496 0.28347 0.0
H1336 H 0.8393 0.72289 0.18652 0.0
H1337 H 0.80611 0.73266 0.23001 0.0
H1338 H 0.81036 0.71609 0.19898 0.0
H1339 H 0.86046 0.76399 0.23659 0.0
H1340 H 0.68953 0.83619 0.3176 0.0
H1341 H 0.73382 0.8321 0.28664 0.0
H1342 H 0.70158 0.78244 0.30072 0.0
H1343 H 0.71484 0.85081 0.30246 0.0
Eu1344 Eu 0.76064 0.26165 0.78625 0.0
C1345 C 0.82102 0.25219 0.72212 0.0
N1346 N 0.82124 0.26458 0.73807 0.0
C1347 C 0.85161 0.26342 0.74818 0.0
C1348 C 0.83602 0.24446 0.71887 0.0
C1349 C 0.83649 0.27086 0.75062 0.0
C1350 C 0.8513 0.24996 0.73237 0.0
C1351 C 0.80567 0.23583 0.69134 0.0
C1352 C 0.80608 0.24792 0.7085 0.0
C1353 C 0.82034 0.22764 0.68833 0.0
C1354 C 0.83547 0.23192 0.70207 0.0
Eu1355 Eu 0.7947 0.27566 0.74133 0.0
N1356 N 0.79205 0.25595 0.71187 0.0
C1357 C 0.79065 0.23262 0.67759 0.0
C1358 C 0.77774 0.25359 0.6982 0.0
C1359 C 0.77671 0.2417 0.68096 0.0
H1360 H 0.83721 0.28193 0.7623 0.0
H1361 H 0.7652 0.23956 0.67028 0.0
H1362 H 0.72394 0.27819 0.77822 0.0
H1363 H 0.80451 0.26942 0.85342 0.0
H1364 H 0.76699 0.26066 0.70078 0.0
H1365 H 0.78983 0.22344 0.66421 0.0
H1366 H 0.79036 0.25436 0.82125 0.0
H1367 H 0.86358 0.26826 0.75835 0.0
H1368 H 0.82024 0.21821 0.67529 0.0
H1369 H 0.84682 0.22577 0.6994 0.0
H1370 H 0.7091 0.30186 0.79374 0.0
H1371 H 0.86309 0.24435 0.73041 0.0
H1372 H 0.79425 0.29625 0.86972 0.0
N1373 N 0.74534 0.28325 0.80073 0.0
C1374 C 0.75236 0.29242 0.81843 0.0
C1375 C 0.72131 0.29942 0.80079 0.0
C1376 C 0.74436 0.30597 0.82786 0.0
C1377 C 0.72972 0.28606 0.79205 0.0
C1378 C 0.72877 0.30957 0.81869 0.0
N1379 N 0.77391 0.27388 0.81808 0.0
C1380 C 0.78652 0.26673 0.8276 0.0
C1381 C 0.77438 0.2963 0.84609 0.0
C1382 C 0.76722 0.28771 0.82731 0.0
C1383 C 0.78839 0.29004 0.85529 0.0
C1384 C 0.79426 0.27495 0.84612 0.0
H1385 H 0.72221 0.31988 0.82546 0.0
H1386 H 0.74606 0.32573 0.85366 0.0
H1387 H 0.77233 0.31719 0.86969 0.0
O1388 O 0.75299 0.23822 0.80124 0.0
O1389 O 0.76466 0.29176 0.78215 0.0
O1390 O 0.78973 0.28826 0.77034 0.0
O1391 O 0.73523 0.24153 0.7774 0.0
O1392 O 0.7892 0.2553 0.78801 0.0
O1393 O 0.80759 0.27625 0.77238 0.0
O1394 O 0.78732 0.29746 0.72681 0.0
O1395 O 0.78117 0.24487 0.73471 0.0
O1396 O 0.77487 0.25464 0.76222 0.0
O1397 O 0.81569 0.29796 0.73482 0.0
O1398 O 0.76461 0.27483 0.73521 0.0
O1399 O 0.74571 0.26467 0.75797 0.0
C1400 C 0.77806 0.29852 0.77342 0.0
C1401 C 0.72185 0.23036 0.80334 0.0
C1402 C 0.71078 0.22796 0.83412 0.0
C1403 C 0.69319 0.2256 0.82524 0.0
C1404 C 0.70416 0.22794 0.7947 0.0
C1405 C 0.68994 0.22564 0.80563 0.0
C1406 C 0.725 0.23027 0.82305 0.0
C1407 C 0.80523 0.26466 0.78517 0.0
C1408 C 0.73698 0.23293 0.7919 0.0
C1409 C 0.75193 0.31517 0.84622 0.0
C1410 C 0.76691 0.31034 0.85533 0.0
C1411 C 0.7728 0.24056 0.7488 0.0
C1412 C 0.80856 0.32256 0.71811 0.0
C1413 C 0.802 0.34063 0.69338 0.0
C1414 C 0.81663 0.35493 0.70182 0.0
C1415 C 0.82339 0.33671 0.72611 0.0
C1416 C 0.7979 0.3246 0.70182 0.0
C1417 C 0.82726 0.35293 0.7181 0.0
C1418 C 0.74875 0.2704 0.74145 0.0
C1419 C 0.80389 0.30579 0.72681 0.0
H1420 H 0.68199 0.22376 0.83346 0.0
H1421 H 0.70132 0.22784 0.77951 0.0
H1422 H 0.67636 0.22382 0.79888 0.0
H1423 H 0.73854 0.23164 0.8298 0.0
H1424 H 0.82016 0.36741 0.69554 0.0
H1425 H 0.83176 0.33534 0.73871 0.0
H1426 H 0.78649 0.31359 0.69557 0.0
H1427 H 0.8386 0.36392 0.72443 0.0
Eu1428 Eu 0.76123 0.75303 0.75685 0.0
C1429 C 0.82913 0.81626 0.78349 0.0
N1430 N 0.81759 0.8072 0.79405 0.0
C1431 C 0.8421 0.80375 0.81567 0.0
C1432 C 0.84778 0.81864 0.78808 0.0
C1433 C 0.8237 0.80163 0.81043 0.0
C1434 C 0.85419 0.81199 0.80425 0.0
C1435 C 0.83382 0.83453 0.75811 0.0
C1436 C 0.82223 0.8241 0.76877 0.0
C1437 C 0.85238 0.83596 0.7618 0.0
C1438 C 0.85935 0.82806 0.7768 0.0
Eu1439 Eu 0.78676 0.80322 0.78383 0.0
N1440 N 0.80428 0.82282 0.76595 0.0
C1441 C 0.82645 0.84384 0.74465 0.0
C1442 C 0.79725 0.83322 0.75412 0.0
C1443 C 0.80812 0.84348 0.74292 0.0
H1444 H 0.81429 0.79509 0.8191 0.0
H1445 H 0.80238 0.85126 0.73314 0.0
H1446 H 0.74955 0.76489 0.71343 0.0
H1447 H 0.71724 0.72042 0.80374 0.0
H1448 H 0.78323 0.83361 0.75326 0.0
H1449 H 0.83487 0.85197 0.73613 0.0
H1450 H 0.74598 0.73039 0.7911 0.0
H1451 H 0.84693 0.79893 0.8284 0.0
H1452 H 0.86148 0.84372 0.7536 0.0
H1453 H 0.87372 0.8298 0.77991 0.0
H1454 H 0.72336 0.77233 0.69624 0.0
H1455 H 0.86843 0.81358 0.80829 0.0
H1456 H 0.68946 0.7273 0.78864 0.0
N1457 N 0.73652 0.75872 0.73758 0.0
C1458 C 0.72036 0.75445 0.74416 0.0
C1459 C 0.72241 0.7677 0.70992 0.0
C1460 C 0.70477 0.75775 0.73435 0.0
C1461 C 0.73743 0.76399 0.72003 0.0
C1462 C 0.70608 0.76496 0.71731 0.0
N1463 N 0.7344 0.74283 0.76941 0.0
C1464 C 0.73384 0.73331 0.78445 0.0
C1465 C 0.70259 0.74066 0.76706 0.0
C1466 C 0.71919 0.7459 0.76026 0.0
C1467 C 0.70197 0.73154 0.78299 0.0
C1468 C 0.71763 0.72766 0.79158 0.0
H1469 H 0.69442 0.76768 0.70934 0.0
H1470 H 0.67624 0.75586 0.73425 0.0
H1471 H 0.67436 0.74098 0.76294 0.0
O1472 O 0.76697 0.72563 0.75816 0.0
O1473 O 0.74935 0.76961 0.78 0.0
O1474 O 0.75713 0.79858 0.77295 0.0
O1475 O 0.75132 0.73029 0.73321 0.0
O1476 O 0.77712 0.75207 0.7851 0.0
O1477 O 0.77949 0.78136 0.80266 0.0
O1478 O 0.78976 0.83238 0.7963 0.0
O1479 O 0.80352 0.78109 0.77795 0.0
O1480 O 0.78965 0.76304 0.74976 0.0
O1481 O 0.77993 0.81084 0.81236 0.0
O1482 O 0.77072 0.80086 0.7547 0.0
O1483 O 0.7742 0.77325 0.73867 0.0
C1484 C 0.74556 0.7859 0.77898 0.0
C1485 C 0.77082 0.70994 0.72857 0.0
C1486 C 0.78347 0.68293 0.71998 0.0
C1487 C 0.79373 0.6926 0.70774 0.0
C1488 C 0.78129 0.71959 0.71652 0.0
C1489 C 0.79255 0.71083 0.70599 0.0
C1490 C 0.77173 0.69164 0.72999 0.0
C1491 C 0.7791 0.76344 0.80143 0.0
C1492 C 0.7597 0.71897 0.74072 0.0
C1493 C 0.68829 0.75321 0.74149 0.0
C1494 C 0.6872 0.74467 0.75778 0.0
C1495 C 0.80429 0.77085 0.76157 0.0
C1496 C 0.7652 0.83571 0.81332 0.0
C1497 C 0.74471 0.85458 0.80304 0.0
C1498 C 0.73187 0.84583 0.81347 0.0
C1499 C 0.75235 0.82742 0.82414 0.0
C1500 C 0.7614 0.84967 0.8032 0.0
C1501 C 0.7358 0.83247 0.82417 0.0
C1502 C 0.77349 0.79077 0.73914 0.0
C1503 C 0.78144 0.82827 0.81076 0.0
H1504 H 0.80304 0.68633 0.69999 0.0
H1505 H 0.78089 0.73389 0.71543 0.0
H1506 H 0.80068 0.71832 0.69678 0.0
H1507 H 0.76352 0.68433 0.73929 0.0
H1508 H 0.71888 0.84943 0.81341 0.0
H1509 H 0.75486 0.8166 0.83209 0.0
H1510 H 0.77108 0.85621 0.79474 0.0
H1511 H 0.72586 0.82576 0.83222 0.0
Eu1512 Eu 0.54813 0.53253 0.53473 0.0
C1513 C 0.49051 0.46188 0.5026 0.0
N1514 N 0.50025 0.47389 0.4929 0.0
C1515 C 0.50547 0.44849 0.47121 0.0
C1516 C 0.48869 0.44254 0.49758 0.0
C1517 C 0.5071 0.46758 0.4769 0.0
C1518 C 0.49651 0.43592 0.48181 0.0
C1519 C 0.47048 0.45686 0.5265 0.0
C1520 C 0.48146 0.46897 0.51676 0.0
C1521 C 0.46959 0.43764 0.52251 0.0
C1522 C 0.47863 0.43049 0.50802 0.0
Eu1523 Eu 0.50225 0.50581 0.50301 0.0
N1524 N 0.48215 0.48754 0.51979 0.0
C1525 C 0.46006 0.46434 0.5393 0.0
C1526 C 0.47069 0.49457 0.53077 0.0
C1527 C 0.4599 0.48323 0.54113 0.0
H1528 H 0.51411 0.47738 0.46885 0.0
H1529 H 0.45126 0.48902 0.55029 0.0
H1530 H 0.53472 0.54257 0.5786 0.0
H1531 H 0.5859 0.5808 0.49493 0.0
H1532 H 0.46978 0.50894 0.5315 0.0
H1533 H 0.45147 0.45552 0.54711 0.0
H1534 H 0.57416 0.55015 0.50415 0.0
H1535 H 0.51123 0.4435 0.45876 0.0
H1536 H 0.46139 0.42814 0.53002 0.0
H1537 H 0.4773 0.41559 0.5046 0.0
H1538 H 0.52738 0.56927 0.59815 0.0
H1539 H 0.49534 0.42115 0.47744 0.0
H1540 H 0.57824 0.60909 0.51164 0.0
N1541 N 0.54246 0.55749 0.55619 0.0
C1542 C 0.54716 0.57465 0.55118 0.0
C1543 C 0.53264 0.57092 0.5848 0.0
C1544 C 0.54389 0.59051 0.56239 0.0
C1545 C 0.53643 0.55568 0.5734 0.0
C1546 C 0.53604 0.58835 0.57907 0.0
N1547 N 0.55982 0.56116 0.52532 0.0
C1548 C 0.57081 0.5625 0.5114 0.0
C1549 C 0.56268 0.59429 0.53073 0.0
C1550 C 0.55643 0.57659 0.53554 0.0
C1551 C 0.57314 0.59572 0.51573 0.0
C1552 C 0.57748 0.57978 0.50624 0.0
H1553 H 0.5333 0.60018 0.58806 0.0
H1554 H 0.54661 0.62037 0.56535 0.0
H1555 H 0.56306 0.62367 0.53762 0.0
O1556 O 0.57256 0.522 0.53417 0.0
O1557 O 0.5352 0.54573 0.51138 0.0
O1558 O 0.50547 0.53682 0.5135 0.0
O1559 O 0.57014 0.54221 0.55799 0.0
O1560 O 0.55167 0.51719 0.50596 0.0
O1561 O 0.52518 0.5149 0.48643 0.0
O1562 O 0.47485 0.50109 0.48894 0.0
O1563 O 0.52371 0.4895 0.51077 0.0
O1564 O 0.53602 0.50379 0.54089 0.0
O1565 O 0.49699 0.51063 0.47375 0.0
O1566 O 0.50106 0.52383 0.53118 0.0
O1567 O 0.52533 0.52 0.55027 0.0
C1568 C 0.5191 0.54927 0.51027 0.0
C1569 C 0.59837 0.54486 0.54635 0.0
C1570 C 0.62615 0.5463 0.53202 0.0
C1571 C 0.63051 0.56567 0.53778 0.0
C1572 C 0.60297 0.56424 0.55206 0.0
C1573 C 0.61898 0.57453 0.5478 0.0
C1574 C 0.61008 0.53606 0.53647 0.0
C1575 C 0.54255 0.51592 0.48906 0.0
C1576 C 0.58093 0.53368 0.54908 0.0
C1577 C 0.54921 0.60808 0.55703 0.0
C1578 C 0.55862 0.60997 0.54126 0.0
C1579 C 0.53116 0.48872 0.52799 0.0
C1580 C 0.47156 0.52277 0.46819 0.0
C1581 C 0.45724 0.54876 0.47619 0.0
C1582 C 0.45816 0.55278 0.45756 0.0
C1583 C 0.47225 0.52687 0.44963 0.0
C1584 C 0.46415 0.53383 0.48145 0.0
C1585 C 0.46563 0.54187 0.44439 0.0
C1586 C 0.50869 0.52195 0.54785 0.0
C1587 C 0.47977 0.50781 0.47388 0.0
H1588 H 0.64288 0.57392 0.5347 0.0
H1589 H 0.5941 0.57149 0.5595 0.0
H1590 H 0.62242 0.58946 0.55217 0.0
H1591 H 0.60633 0.52118 0.53167 0.0
H1592 H 0.45277 0.5641 0.45306 0.0
H1593 H 0.47813 0.51862 0.43929 0.0
H1594 H 0.46394 0.53099 0.49595 0.0
H1595 H 0.46623 0.545 0.43006 0.0
Eu1596 Eu 1.0016 0.5124 0.03399 0.0
C1597 C 0.05648 0.52011 0.96764 0.0
N1598 N 0.05208 0.50792 0.97983 0.0
C1599 C 0.04701 0.48237 0.95412 0.0
C1600 C 0.05597 0.51384 0.94798 0.0
C1601 C 0.04783 0.48924 0.97352 0.0
C1602 C 0.05096 0.49472 0.94126 0.0
C1603 C 0.06737 0.55183 0.96286 0.0
C1604 C 0.06189 0.53886 0.97497 0.0
C1605 C 0.06646 0.54573 0.94318 0.0
C1606 C 0.06073 0.52679 0.93576 0.0
Eu1607 Eu 0.05263 0.52072 0.01208 0.0
N1608 N 0.06267 0.54431 0.99405 0.0
C1609 C 0.0741 0.57045 0.97096 0.0
C1610 C 0.07033 0.56221 0.00214 0.0
C1611 C 0.07585 0.5756 0.99072 0.0
H1612 H 0.04498 0.47963 0.98339 0.0
H1613 H 0.08163 0.58983 0.99721 0.0
H1614 H 0.02126 0.49122 0.06876 0.0
H1615 H 0.94906 0.48173 0.97528 0.0
H1616 H 0.07245 0.56622 0.01746 0.0
H1617 H 0.07849 0.58083 0.96215 0.0
H1618 H 0.97172 0.50688 0.99557 0.0
H1619 H 0.0434 0.46754 0.94911 0.0
H1620 H 0.07048 0.55551 0.93364 0.0
H1621 H 0.06034 0.52225 0.92059 0.0
H1622 H 0.01822 0.46033 0.07711 0.0
H1623 H 0.05038 0.48936 0.92626 0.0
H1624 H 0.94407 0.44989 0.98315 0.0
N1625 N 1.0006 0.48329 0.04492 0.0
C1626 C 0.98772 0.46895 0.03477 0.0
C1627 C 0.0096 0.46256 0.06514 0.0
C1628 C 0.98563 0.45082 0.03938 0.0
C1629 C 0.01131 0.48028 0.06013 0.0
C1630 C 0.99678 0.44778 0.05472 0.0
N1631 N 0.97983 0.48932 0.01407 0.0
C1632 C 0.96985 0.49297 0.9988 0.0
C1633 C 0.96415 0.45732 0.00797 0.0
C1634 C 0.97702 0.47209 0.0191 0.0
C1635 C 0.95406 0.46088 0.99204 0.0
C1636 C 0.95689 0.4788 0.98747 0.0
H1637 H 0.9956 0.43407 0.05864 0.0
H1638 H 0.97102 0.42222 0.03177 0.0
H1639 H 0.95223 0.42792 0.00437 0.0
O1640 O 0.97771 0.52411 0.03071 0.0
O1641 O 0.00958 0.4908 0.0114 0.0
O1642 O 0.04 0.49161 0.01742 0.0
O1643 O 0.98491 0.51449 0.05694 0.0
O1644 O 0.00887 0.52787 0.00931 0.0
O1645 O 0.02796 0.51559 0.99049 0.0
O1646 O 0.07829 0.53323 0.0294 0.0
O1647 O 0.04582 0.54778 0.02642 0.0
O1648 O 0.01744 0.54293 0.0378 0.0
O1649 O 0.07362 0.50492 0.01473 0.0
O1650 O 0.03524 0.51608 0.0339 0.0
O1651 O 0.02311 0.51977 0.05938 0.0
C1652 C 0.0232 0.48232 0.0127 0.0
C1653 C 0.97341 0.54174 0.05916 0.0
C1654 C 0.95757 0.56702 0.06415 0.0
C1655 C 0.97191 0.57711 0.07766 0.0
C1656 C 0.98759 0.55207 0.07273 0.0
C1657 C 0.98677 0.56961 0.08196 0.0
C1658 C 0.95836 0.54923 0.05502 0.0
C1659 C 0.01268 0.5207 0.99263 0.0
C1660 C 0.97486 0.52384 0.04836 0.0
C1661 C 0.97272 0.43619 0.0284 0.0
C1662 C 0.962 0.43942 0.01279 0.0
C1663 C 0.0327 0.5537 0.03475 0.0
C1664 C 0.10322 0.52246 0.01851 0.0
C1665 C 0.13206 0.51373 0.01656 0.0
C1666 C 0.13762 0.52897 0.00725 0.0
C1667 C 0.10896 0.53749 0.00902 0.0
C1668 C 0.11476 0.51053 0.02211 0.0
C1669 C 0.12609 0.5407 0.00346 0.0
C1670 C 0.03788 0.51958 0.05234 0.0
C1671 C 0.08528 0.5189 0.02468 0.0
H1672 H 0.97157 0.59078 0.08497 0.0
H1673 H 0.99944 0.5467 0.07601 0.0
H1674 H 0.99778 0.5775 0.09233 0.0
H1675 H 0.94754 0.54145 0.04431 0.0
H1676 H 0.15083 0.53168 0.00272 0.0
H1677 H 0.10028 0.54676 0.00594 0.0
H1678 H 0.11038 0.49894 0.02948 0.0
H1679 H 0.13044 0.55233 0.99617 0.0
C1680 C 0.98655 0.19842 0.96911 0.0
C1681 C 0.99858 0.20814 0.95833 0.0
C1682 C 0.98971 0.18242 0.97599 0.0
C1683 C 0.01607 0.14528 0.96799 0.0
H1684 H 0.99809 0.13181 0.01424 0.0
C1685 C 0.01384 0.07153 0.98749 0.0
C1686 C 0.01689 0.06959 0.00681 0.0
C1687 C 0.01194 0.08861 0.98221 0.0
C1688 C 0.00341 0.13534 0.00138 0.0
H1689 H 0.02385 0.20862 0.94706 0.0
H1690 H 0.02966 0.1811 0.95952 0.0
H1691 H 0.99547 0.16148 0.00495 0.0
H1692 H 0.01965 0.08422 0.03571 0.0
H1693 H 0.01711 0.1141 0.02663 0.0
H1694 H 0.02451 0.11937 0.96475 0.0
C1695 C 0.01747 0.18561 0.96227 0.0
C1696 C 1.00166 0.15239 0.99585 0.0
C1697 C 0.01424 0.20162 0.95527 0.0
C1698 C 0.01761 0.0852 0.0207 0.0
C1699 C 0.01591 0.10237 0.01543 0.0
C1700 C 0.01792 0.12827 0.97359 0.0
C1701 C 0.0051 0.17552 0.9725 0.0
C1702 C 0.00782 0.15764 0.97896 0.0
C1703 C 0.01314 0.10444 0.99606 0.0
C1704 C 0.0115 0.1229 0.99031 0.0
H1705 H 0.97426 0.2028 0.97174 0.0
H1706 H 0.97966 0.1751 0.9835 0.0
H1707 H 0.02084 0.14851 0.95479 0.0
H1708 H 0.01311 0.05986 0.97633 0.0
H1709 H 0.00939 0.08932 0.96718 0.0
C1710 C 0.11499 0.81102 0.16771 0.0
C1711 C 0.10537 0.79808 0.15209 0.0
C1712 C 0.13126 0.80866 0.17653 0.0
C1713 C 0.15623 0.77244 0.18452 0.0
H1714 H 0.19622 0.81415 0.20205 0.0
C1715 C 0.21545 0.76935 0.23989 0.0
C1716 C 0.23285 0.77764 0.23677 0.0
C1717 C 0.20042 0.77144 0.22836 0.0
C1718 C 0.18524 0.80232 0.19713 0.0
H1719 H 0.10561 0.77263 0.1333 0.0
H1720 H 0.13401 0.76845 0.14879 0.0
H1721 H 0.16946 0.81881 0.18364 0.0
H1722 H 0.2479 0.79464 0.21884 0.0
H1723 H 0.22167 0.79834 0.19886 0.0
H1724 H 0.17195 0.75599 0.19816 0.0
C1725 C 0.12887 0.78042 0.15424 0.0
C1726 C 0.16983 0.80502 0.18671 0.0
C1727 C 0.11265 0.78289 0.14527 0.0
C1728 C 0.23476 0.78801 0.22171 0.0
C1729 C 0.2197 0.79024 0.21029 0.0
C1730 C 0.17157 0.76977 0.1951 0.0
C1731 C 0.13831 0.79319 0.1701 0.0
C1732 C 0.15508 0.79014 0.18036 0.0
C1733 C 0.20233 0.78201 0.21349 0.0
C1734 C 0.18624 0.7847 0.20164 0.0
H1735 H 0.1098 0.82289 0.17336 0.0
H1736 H 0.13806 0.81867 0.1888 0.0
H1737 H 0.14508 0.7607 0.18 0.0
H1738 H 0.21339 0.76121 0.25128 0.0
H1739 H 0.18724 0.76506 0.23136 0.0
C1740 C 0.51133 0.81467 0.44448 0.0
C1741 C 0.50071 0.80255 0.4545 0.0
C1742 C 0.51473 0.83401 0.45019 0.0
C1743 C 0.51615 0.87127 0.49058 0.0
H1744 H 0.50615 0.90074 0.45166 0.0
C1745 C 0.53448 0.95249 0.50257 0.0
C1746 C 0.52075 0.96128 0.49673 0.0
C1747 C 0.53244 0.93315 0.4979 0.0
C1748 C 0.509 0.89271 0.4627 0.0
H1749 H 0.48599 0.80148 0.47894 0.0
H1750 H 0.49246 0.83517 0.48924 0.0
H1751 H 0.5026 0.86707 0.44302 0.0
H1752 H 0.49447 0.95666 0.48069 0.0
H1753 H 0.491 0.92299 0.4723 0.0
H1754 H 0.52277 0.89699 0.51021 0.0
C1755 C 0.49797 0.82966 0.47682 0.0
C1756 C 0.50709 0.87343 0.45773 0.0
C1757 C 0.49426 0.81033 0.47089 0.0
C1758 C 0.50513 0.9503 0.48574 0.0
C1759 C 0.50323 0.93102 0.48077 0.0
C1760 C 0.51842 0.89062 0.49549 0.0
C1761 C 0.50791 0.84178 0.46629 0.0
C1762 C 0.51053 0.86242 0.47161 0.0
C1763 C 0.51682 0.92216 0.48688 0.0
C1764 C 0.51474 0.90158 0.48163 0.0
H1765 H 0.51643 0.80928 0.43172 0.0
H1766 H 0.52257 0.84293 0.44186 0.0
H1767 H 0.51896 0.86322 0.50161 0.0
H1768 H 0.54671 0.96053 0.511 0.0
H1769 H 0.54323 0.92681 0.50269 0.0
C1770 C 0.48362 0.27143 0.62691 0.0
C1771 C 0.49935 0.26934 0.63731 0.0
C1772 C 0.46727 0.26816 0.63435 0.0
C1773 C 0.44449 0.24752 0.67299 0.0
H1774 H 0.41249 0.28035 0.66318 0.0
C1775 C 0.38281 0.25173 0.71328 0.0
C1776 C 0.36671 0.25103 0.70179 0.0
C1777 C 0.39905 0.25389 0.70554 0.0
C1778 C 0.42124 0.271 0.66595 0.0
H1779 H 0.51015 0.26176 0.66357 0.0
H1780 H 0.48184 0.25654 0.67679 0.0
H1781 H 0.44043 0.28352 0.6492 0.0
H1782 H 0.35509 0.2526 0.67333 0.0
H1783 H 0.38344 0.25663 0.65989 0.0
H1784 H 0.42534 0.23537 0.69018 0.0
C1785 C 0.48195 0.26032 0.66267 0.0
C1786 C 0.43724 0.27272 0.65783 0.0
C1787 C 0.49826 0.26338 0.65511 0.0
C1788 C 0.36726 0.25298 0.68251 0.0
C1789 C 0.38351 0.25539 0.67484 0.0
C1790 C 0.42856 0.24597 0.6813 0.0
C1791 C 0.46626 0.26296 0.65254 0.0
C1792 C 0.44909 0.26095 0.66114 0.0
C1793 C 0.39957 0.25568 0.68621 0.0
C1794 C 0.41672 0.25764 0.67781 0.0
H1795 H 0.48394 0.27596 0.61314 0.0
H1796 H 0.45546 0.2699 0.62588 0.0
H1797 H 0.45307 0.23801 0.67568 0.0
H1798 H 0.38278 0.25014 0.72815 0.0
H1799 H 0.41123 0.25422 0.71468 0.0
C1800 C 0.00539 0.799 0.62425 0.0
C1801 C 0.01588 0.79654 0.64061 0.0
C1802 C 0.01085 0.81393 0.61468 0.0
C1803 C 0.04975 0.84998 0.6083 0.0
H1804 H 0.0131 0.87567 0.59212 0.0
C1805 C 0.06811 0.91785 0.57728 0.0
C1806 C 0.05703 0.91996 0.56124 0.0
C1807 C 0.06271 0.90371 0.58788 0.0
C1808 C 0.02349 0.86858 0.59634 0.0
H1809 H 0.04084 0.80762 0.65916 0.0
H1810 H 0.05045 0.83375 0.64235 0.0
H1811 H 0.0052 0.84882 0.60815 0.0
H1812 H 0.03125 0.90936 0.54422 0.0
H1813 H 0.02175 0.88447 0.56264 0.0
H1814 H 0.06802 0.86958 0.59633 0.0
C1815 C 0.03794 0.82401 0.63695 0.0
C1816 C 0.01895 0.85314 0.60555 0.0
C1817 C 0.03245 0.809 0.64659 0.0
C1818 C 0.04 0.90817 0.55661 0.0
C1819 C 0.0346 0.89388 0.56717 0.0
C1820 C 0.05428 0.86539 0.59903 0.0
C1821 C 0.02699 0.82691 0.62113 0.0
C1822 C 0.032 0.84357 0.61159 0.0
C1823 C 0.0461 0.89116 0.58267 0.0
C1824 C 0.04121 0.87491 0.59289 0.0
H1825 H 0.99263 0.78962 0.61904 0.0
H1826 H 1.00228 0.81541 0.60228 0.0
H1827 H 0.06011 0.84285 0.61252 0.0
H1828 H 0.08125 0.92686 0.58131 0.0
H1829 H 0.07173 0.90244 0.6 0.0
C1830 C 0.47452 0.80624 0.81388 0.0
C1831 C 0.47963 0.79195 0.82269 0.0
C1832 C 0.45632 0.8055 0.80784 0.0
C1833 C 0.41339 0.77358 0.79075 0.0
H1834 H 0.39014 0.81179 0.8123 0.0
C1835 C 0.33596 0.76452 0.77571 0.0
C1836 C 0.32836 0.78029 0.77671 0.0
C1837 C 0.3544 0.76618 0.78105 0.0
C1838 C 0.39629 0.8011 0.80567 0.0
H1839 H 0.46953 0.76551 0.83158 0.0
H1840 H 0.43815 0.76392 0.82038 0.0
H1841 H 0.42215 0.81482 0.8208 0.0
H1842 H 0.33447 0.81011 0.785 0.0
H1843 H 0.36639 0.81335 0.79251 0.0
H1844 H 0.38803 0.76011 0.77499 0.0
C1845 C 0.44811 0.77584 0.81846 0.0
C1846 C 0.41478 0.80286 0.81073 0.0
C1847 C 0.46614 0.77682 0.82495 0.0
C1848 C 0.33979 0.79771 0.78337 0.0
C1849 C 0.35827 0.79948 0.78819 0.0
C1850 C 0.39502 0.77203 0.78528 0.0
C1851 C 0.44292 0.79019 0.80995 0.0
C1852 C 0.42353 0.78904 0.8035 0.0
C1853 C 0.36603 0.78374 0.78724 0.0
C1854 C 0.38597 0.78565 0.79277 0.0
H1855 H 0.48454 0.8181 0.81194 0.0
H1856 H 0.45273 0.81677 0.80131 0.0
H1857 H 0.41976 0.76271 0.78487 0.0
H1858 H 0.32764 0.75077 0.77095 0.0
H1859 H 0.35937 0.75353 0.78053 0.0
C1860 C 0.48674 0.19448 0.13255 0.0
C1861 C 0.49923 0.20583 0.14732 0.0
C1862 C 0.4901 0.17797 0.12305 0.0
C1863 C 0.49606 0.13879 0.11166 0.0
H1864 H 0.54361 0.13818 0.09807 0.0
C1865 C 0.51451 0.0714 0.07513 0.0
C1866 C 0.52512 0.07314 0.06015 0.0
C1867 C 0.51181 0.0872 0.08675 0.0
C1868 C 0.53023 0.1381 0.10167 0.0
H1869 H 0.52513 0.20836 0.16364 0.0
H1870 H 0.53097 0.17954 0.1471 0.0
H1871 H 0.53788 0.16623 0.11623 0.0
H1872 H 0.54151 0.09318 0.04609 0.0
H1873 H 0.5367 0.12051 0.06615 0.0
H1874 H 0.48831 0.11081 0.09676 0.0
C1875 C 0.51858 0.18354 0.14277 0.0
C1876 C 0.52698 0.15417 0.11231 0.0
C1877 C 0.51517 0.20005 0.15237 0.0
C1878 C 0.53318 0.09116 0.05738 0.0
C1879 C 0.53054 0.10693 0.06904 0.0
C1880 C 0.49933 0.1227 0.10112 0.0
C1881 C 0.5061 0.17227 0.12793 0.0
C1882 C 0.5098 0.15482 0.11732 0.0
C1883 C 0.51972 0.10522 0.08382 0.0
C1884 C 0.51643 0.12215 0.09581 0.0
H1885 H 0.47432 0.19839 0.12817 0.0
H1886 H 0.48026 0.16985 0.11156 0.0
H1887 H 0.48271 0.13864 0.11541 0.0
H1888 H 0.50805 0.05782 0.07776 0.0
H1889 H 0.50356 0.08528 0.09812 0.0
C1890 C 0.09807 0.29606 0.33263 0.0
C1891 C 0.08713 0.30373 0.32036 0.0
C1892 C 0.11554 0.29479 0.32897 0.0
C1893 C 0.15295 0.31403 0.3026 0.0
H1894 H 0.16782 0.2678 0.30666 0.0
C1895 C 0.21948 0.29959 0.27601 0.0
C1896 C 0.22841 0.2877 0.28499 0.0
C1897 C 0.20268 0.30225 0.28079 0.0
C1898 C 0.16417 0.281 0.30575 0.0
H1899 H 0.08648 0.31648 0.29482 0.0
H1900 H 0.11687 0.31462 0.28873 0.0
H1901 H 0.13848 0.2714 0.31469 0.0
H1902 H 0.22704 0.27016 0.30683 0.0
H1903 H 0.19832 0.2751 0.31555 0.0
H1904 H 0.17872 0.32383 0.29403 0.0
C1905 C 0.11194 0.30949 0.30115 0.0
C1906 C 0.14717 0.28302 0.31033 0.0
C1907 C 0.09441 0.3105 0.30463 0.0
C1908 C 0.22041 0.27914 0.29935 0.0
C1909 C 0.20376 0.28191 0.30426 0.0
C1910 C 0.17008 0.31212 0.29827 0.0
C1911 C 0.12275 0.30141 0.31311 0.0
C1912 C 0.14122 0.29953 0.30876 0.0
C1913 C 0.19437 0.29329 0.29489 0.0
C1914 C 0.17603 0.29553 0.29969 0.0
H1915 H 0.09298 0.29063 0.34483 0.0
H1916 H 0.12344 0.28863 0.33863 0.0
H1917 H 0.149 0.32704 0.30137 0.0
H1918 H 0.22523 0.30641 0.26486 0.0
H1919 H 0.19604 0.31101 0.27302 0.0
C1920 C 0.9332 0.01391 0.19334 0.0
C1921 C 0.93788 0.0309 0.20594 0.0
C1922 C 0.93967 0.01219 0.17559 0.0
C1923 C 0.97753 0.03289 0.15219 0.0
H1924 H 0.94879 0.00713 0.10492 0.0
C1925 C 0.98458 0.02359 0.06691 0.0
C1926 C 1.00166 0.01939 0.06739 0.0
C1927 C 0.97578 0.02399 0.08323 0.0
C1928 C 0.95694 0.01442 0.11802 0.0
H1929 H 0.95246 0.05956 0.20941 0.0
H1930 H 0.96366 0.05652 0.17863 0.0
H1931 H 0.93488 0.01013 0.13444 0.0
H1932 H 0.02241 0.01133 0.08511 0.0
H1933 H 0.0072 0.0123 0.11353 0.0
H1934 H 0.99955 0.03727 0.13592 0.0
C1935 C 0.95519 0.04448 0.18253 0.0
C1936 C 0.94902 0.016 0.13491 0.0
C1937 C 0.94868 0.04623 0.20015 0.0
C1938 C 0.00946 0.01503 0.08434 0.0
C1939 C 1.00074 0.01557 0.10065 0.0
C1940 C 0.98545 0.03117 0.1354 0.0
C1941 C 0.95102 0.02739 0.17017 0.0
C1942 C 0.95923 0.02536 0.15216 0.0
C1943 C 0.98391 0.02028 0.10036 0.0
C1944 C 0.97527 0.02193 0.11812 0.0
H1945 H 0.92489 1.00184 0.19735 0.0
H1946 H 0.93628 0.99882 0.16639 0.0
H1947 H 0.9858 0.04 0.16528 0.0
H1948 H 0.97815 0.02691 0.05404 0.0
H1949 H 0.96284 0.02774 0.0826 0.0
C1950 C 0.27685 0.68429 0.48256 0.0
C1951 C 0.27185 0.66498 0.48171 0.0
C1952 C 0.26755 0.6933 0.47036 0.0
C1953 C 0.22632 0.68583 0.4351 0.0
H1954 H 0.25488 0.72636 0.41527 0.0
C1955 C 0.21083 0.70962 0.3625 0.0
C1956 C 0.21225 0.72875 0.3629 0.0
C1957 C 0.2152 0.70277 0.37919 0.0
C1958 C 0.24671 0.71523 0.4209 0.0
H1959 H 0.25316 0.6399 0.46764 0.0
H1960 H 0.23757 0.65534 0.44565 0.0
H1961 H 0.26863 0.71261 0.4402 0.0
H1962 H 0.21889 0.75576 0.38074 0.0
H1963 H 0.22712 0.7438 0.40999 0.0
H1964 H 0.20475 0.68781 0.41458 0.0
C1965 C 0.24819 0.66377 0.45615 0.0
C1966 C 0.25453 0.70737 0.43528 0.0
C1967 C 0.25723 0.65485 0.46866 0.0
C1968 C 0.21754 0.74092 0.38025 0.0
C1969 C 0.22229 0.73412 0.39687 0.0
C1970 C 0.21862 0.69345 0.4204 0.0
C1971 C 0.25331 0.68311 0.45671 0.0
C1972 C 0.24451 0.6924 0.44245 0.0
C1973 C 0.22143 0.71504 0.39637 0.0
C1974 C 0.22881 0.7081 0.41311 0.0
H1975 H 0.28793 0.69247 0.49269 0.0
H1976 H 0.27163 0.70824 0.4716 0.0
H1977 H 0.21804 0.67463 0.44051 0.0
H1978 H 0.20691 0.70007 0.34917 0.0
H1979 H 0.21464 0.68802 0.37848 0.0
C1980 C 0.63701 0.01639 0.67816 0.0
C1981 C 0.62738 0.00359 0.68819 0.0
C1982 C 0.63144 0.01641 0.65893 0.0
C1983 C 0.59904 0.98967 0.61712 0.0
H1984 H 0.5991 0.03877 0.60467 0.0
C1985 C 0.55675 0.99916 0.54965 0.0
C1986 C 0.54723 0.0133 0.55256 0.0
C1987 C 0.57076 0.99829 0.56327 0.0
C1988 C 0.59896 0.02494 0.6079 0.0
H1989 H 0.60483 0.9803 0.68582 0.0
H1990 H 0.59469 0.98077 0.65268 0.0
H1991 H 0.61569 0.03565 0.63427 0.0
H1992 H 0.54424 0.0373 0.57174 0.0
H1993 H 0.56818 0.03555 0.59589 0.0
H1994 H 0.58105 0.97906 0.59154 0.0
C1995 C 0.60682 0.99052 0.65936 0.0
C1996 C 0.60873 0.02312 0.62479 0.0
C1997 C 0.61253 0.99034 0.67847 0.0
C1998 C 0.55173 0.0265 0.56916 0.0
C1999 C 0.56556 0.02556 0.58285 0.0
C2000 C 0.58904 0.99151 0.60037 0.0
C2001 C 0.61599 0.00378 0.64943 0.0
C2002 C 0.60837 0.00548 0.62995 0.0
C2003 C 0.57514 0.01132 0.58021 0.0
C2004 C 0.58835 0.00921 0.59593 0.0
H2005 H 0.64867 0.02662 0.68523 0.0
H2006 H 0.63903 0.02658 0.65166 0.0
H2007 H 0.59883 0.97585 0.62039 0.0
H2008 H 0.55316 0.9886 0.53709 0.0
H2009 H 0.57792 0.98722 0.56069 0.0
C2010 C 0.3048 0.33367 0.97671 0.0
C2011 C 0.29743 0.34864 0.98401 0.0
C2012 C 0.30127 0.32608 0.95734 0.0
C2013 C 0.28907 0.33857 0.91054 0.0
H2014 H 0.28162 0.28561 0.89284 0.0
C2015 C 0.29375 0.3083 0.83238 0.0
C2016 C 0.28055 0.29264 0.82387 0.0
C2017 C 0.29526 0.31481 0.85196 0.0
C2018 C 0.28359 0.30043 0.89754 0.0
H2019 H 0.28007 0.36696 0.97663 0.0
H2020 H 0.27391 0.35367 0.94276 0.0
H2021 H 0.28402 0.29714 0.92695 0.0
H2022 H 0.25857 0.2715 0.8292 0.0
H2023 H 0.26111 0.28289 0.86333 0.0
H2024 H 0.28864 0.34185 0.88114 0.0
C2025 C 0.28254 0.34793 0.95208 0.0
C2026 C 0.28509 0.30705 0.9171 0.0
C2027 C 0.28595 0.35543 0.97153 0.0
C2028 C 0.26889 0.28361 0.83534 0.0
C2029 C 0.27043 0.29006 0.85492 0.0
C2030 C 0.2877 0.33196 0.891 0.0
C2031 C 0.29038 0.33334 0.94471 0.0
C2032 C 0.28791 0.3262 0.92385 0.0
C2033 C 0.28358 0.30578 0.86346 0.0
C2034 C 0.28499 0.31281 0.88426 0.0
H2035 H 0.31367 0.32804 0.98588 0.0
H2036 H 0.30764 0.31496 0.95213 0.0
H2037 H 0.29144 0.35342 0.91527 0.0
H2038 H 0.30274 0.3157 0.82385 0.0
H2039 H 0.30564 0.32686 0.85811 0.0
C2040 C 0.93862 0.01795 0.32878 0.0
C2041 C 0.94601 0.01425 0.31175 0.0
C2042 C 0.94706 0.01536 0.34611 0.0
C2043 C 0.99087 0.01669 0.37061 0.0
H2044 H 0.96432 0.99244 0.40712 0.0
C2045 C 0.02448 0.01424 0.44603 0.0
C2046 C 0.01429 0.01709 0.46104 0.0
C2047 C 0.01653 0.01109 0.42706 0.0
C2048 C 0.97192 0.99941 0.39717 0.0
H2049 H 0.96806 0.00478 0.29959 0.0
H2050 H 0.98305 1.00066 0.33006 0.0
H2051 H 0.94949 0.99209 0.37525 0.0
H2052 H 0.98778 0.01886 0.46806 0.0
H2053 H 0.97409 0.01423 0.43518 0.0
H2054 H 0.01304 0.02485 0.3927 0.0
C2055 C 0.9706 0.0054 0.32986 0.0
C2056 C 0.96343 0.9991 0.37889 0.0
C2057 C 0.96198 0.0077 0.31244 0.0
C2058 C 0.996 0.0167 0.45677 0.0
C2059 C 0.9881 0.0138 0.43787 0.0
C2060 C 0.99931 0.01723 0.38899 0.0
C2061 C 0.96325 0.0093 0.34686 0.0
C2062 C 0.97274 0.00799 0.36553 0.0
C2063 C 0.99824 0.01101 0.42274 0.0
C2064 C 0.98985 0.00888 0.40263 0.0
H2065 H 0.92645 0.02312 0.32886 0.0
H2066 H 0.94121 0.01867 0.35903 0.0
H2067 H 0.99831 0.0238 0.36062 0.0
H2068 H 0.03867 0.01474 0.44893 0.0
H2069 H 0.02473 0.0088 0.41581 0.0
C2070 C 0.3039 0.68341 0.5778 0.0
C2071 C 0.29337 0.66582 0.56983 0.0
C2072 C 0.30116 0.69232 0.59544 0.0
C2073 C 0.30045 0.70268 0.63763 0.0
H2074 H 0.2527 0.70191 0.65132 0.0
C2075 C 0.28929 0.73273 0.71298 0.0
C2076 C 0.27627 0.74351 0.71431 0.0
C2077 C 0.29061 0.72221 0.69562 0.0
C2078 C 0.26612 0.70234 0.64765 0.0
H2079 H 0.27152 0.64392 0.57412 0.0
H2080 H 0.26694 0.65942 0.60512 0.0
H2081 H 0.25645 0.68601 0.62014 0.0
H2082 H 0.25404 0.75131 0.69877 0.0
H2083 H 0.25665 0.73331 0.66825 0.0
H2084 H 0.31016 0.71947 0.66479 0.0
C2085 C 0.27717 0.66638 0.59756 0.0
C2086 C 0.26826 0.69305 0.62988 0.0
C2087 C 0.27987 0.65746 0.57983 0.0
C2088 C 0.26433 0.74326 0.69807 0.0
C2089 C 0.26571 0.7328 0.68065 0.0
C2090 C 0.29831 0.71199 0.65532 0.0
C2091 C 0.28789 0.68386 0.60561 0.0
C2092 C 0.28547 0.69323 0.62464 0.0
C2093 C 0.27899 0.72231 0.6792 0.0
C2094 C 0.28113 0.71198 0.66052 0.0
H2095 H 0.31432 0.69036 0.57044 0.0
H2096 H 0.30941 0.70594 0.60105 0.0
H2097 H 0.3139 0.70287 0.63415 0.0
H2098 H 0.29863 0.73261 0.7253 0.0
H2099 H 0.30079 0.71403 0.69506 0.0
C2100 C 0.63594 0.03891 0.81459 0.0
C2101 C 0.62805 0.04111 0.79671 0.0
C2102 C 0.6306 0.0469 0.83131 0.0
C2103 C 0.60673 0.08238 0.85099 0.0
H2104 H 0.6026 0.05278 0.8917 0.0
C2105 C 0.5724 0.09854 0.9189 0.0
C2106 C 0.58089 0.09535 0.93608 0.0
C2107 C 0.57906 0.09406 0.90167 0.0
C2108 C 0.60389 0.0613 0.88055 0.0
H2109 H 0.60836 0.05347 0.78235 0.0
H2110 H 0.59867 0.06708 0.81168 0.0
H2111 H 0.61183 0.04031 0.86187 0.0
H2112 H 0.60376 0.08642 0.94897 0.0
H2113 H 0.61531 0.07853 0.91894 0.0
H2114 H 0.59833 0.10322 0.86979 0.0
C2115 C 0.60926 0.05947 0.81272 0.0
C2116 C 0.6092 0.05418 0.86345 0.0
C2117 C 0.61472 0.05156 0.79592 0.0
C2118 C 0.59674 0.08866 0.93588 0.0
C2119 C 0.60334 0.08415 0.91872 0.0
C2120 C 0.60125 0.08948 0.86813 0.0
C2121 C 0.61706 0.05709 0.83061 0.0
C2122 C 0.61087 0.06468 0.84853 0.0
C2123 C 0.59428 0.08629 0.9014 0.0
C2124 C 0.59997 0.07905 0.88313 0.0
H2125 H 0.64614 0.03086 0.81575 0.0
H2126 H 0.63712 0.04506 0.84484 0.0
H2127 H 0.60801 0.09087 0.83982 0.0
H2128 H 0.5601 0.10357 0.91862 0.0
H2129 H 0.57179 0.09578 0.8885 0.0
C2130 C 0.29707 0.33021 0.08281 0.0
C2131 C 0.28977 0.34506 0.07787 0.0
C2132 C 0.29309 0.32279 0.09924 0.0
C2133 C 0.26351 0.3218 0.13767 0.0
H2134 H 0.30547 0.31363 0.16715 0.0
C2135 C 0.26499 0.30776 0.21621 0.0
C2136 C 0.27371 0.29365 0.2205 0.0
C2137 C 0.26592 0.31402 0.1986 0.0
C2138 C 0.29357 0.31567 0.15904 0.0
H2139 H 0.27159 0.36289 0.08567 0.0
H2140 H 0.26481 0.35005 0.1145 0.0
H2141 H 0.30802 0.32338 0.13623 0.0
H2142 H 0.28995 0.27484 0.20968 0.0
H2143 H 0.29155 0.28565 0.1791 0.0
H2144 H 0.24915 0.3142 0.1608 0.0
C2145 C 0.27353 0.34406 0.10559 0.0
C2146 C 0.29501 0.32119 0.14123 0.0
C2147 C 0.27741 0.35143 0.08903 0.0
C2148 C 0.28319 0.28582 0.20683 0.0
C2149 C 0.2842 0.2921 0.18934 0.0
C2150 C 0.26208 0.31629 0.15559 0.0
C2151 C 0.28185 0.33011 0.11125 0.0
C2152 C 0.27998 0.32415 0.1302 0.0
C2153 C 0.27564 0.30631 0.18501 0.0
C2154 C 0.27709 0.31299 0.16638 0.0
H2155 H 0.30646 0.3248 0.07441 0.0
H2156 H 0.29933 0.31167 0.10286 0.0
H2157 H 0.25165 0.3239 0.12953 0.0
H2158 H 0.25733 0.31382 0.22639 0.0
H2159 H 0.25924 0.32504 0.1957 0.0
C2160 C 0.21968 0.92994 0.98874 0.0
C2161 C 0.23355 0.94065 0.98095 0.0
C2162 C 0.20271 0.93404 0.98769 0.0
C2163 C 0.18518 0.97548 0.98903 0.0
H2164 H 0.13992 0.94164 0.98992 0.0
C2165 C 0.1284 1.00262 0.02137 0.0
C2166 C 0.11997 0.99198 0.03413 0.0
C2167 C 0.13882 0.99515 0.00868 0.0
C2168 C 0.15246 0.95127 0.98973 0.0
H2169 H 0.24003 0.96272 0.96416 0.0
H2170 H 0.21033 0.96994 0.96243 0.0
H2171 H 0.16458 0.92972 0.97717 0.0
H2172 H 0.11507 0.96469 0.04263 0.0
H2173 H 0.13409 0.95203 0.02133 0.0
H2174 H 0.17375 0.9968 0.00271 0.0
C2175 C 0.21268 0.95853 0.96953 0.0
C2176 C 0.16652 0.94446 0.98231 0.0
C2177 C 0.22966 0.95435 0.97049 0.0
C2178 C 0.12167 0.97343 0.03332 0.0
C2179 C 0.13233 0.96604 0.02081 0.0
C2180 C 0.17123 0.98225 0.99656 0.0
C2181 C 0.1993 0.94897 0.97889 0.0
C2182 C 0.18321 0.95641 0.98248 0.0
C2183 C 0.14137 0.97696 0.00864 0.0
C2184 C 0.15489 0.97014 0.99759 0.0
H2185 H 0.22221 0.91912 0.99668 0.0
H2186 H 0.19274 0.92646 0.99512 0.0
H2187 H 0.19794 0.98502 0.98967 0.0
H2188 H 0.12757 0.017 0.02162 0.0
H2189 H 0.14532 0.00387 -0.00071 0.0
C2190 C 0.70728 0.63711 0.97355 0.0
C2191 C 0.72068 0.64006 0.98917 0.0
C2192 C 0.68983 0.62769 0.97477 0.0
C2193 C 0.65976 0.61115 0.00996 0.0
H2194 H 0.63422 0.57572 0.96624 0.0
C2195 C 0.60034 0.55252 0.01599 0.0
C2196 C 0.58464 0.55156 0.00377 0.0
C2197 C 0.61647 0.56375 0.01327 0.0
C2198 C 0.64118 0.58567 0.97849 0.0
H2199 H 0.72617 0.63564 0.0184 0.0
H2200 H 0.69617 0.61886 0.02032 0.0
H2201 H 0.66308 0.59542 0.96347 0.0
H2202 H 0.57354 0.5609 0.9787 0.0
H2203 H 0.60198 0.58021 0.97365 0.0
H2204 H 0.63814 0.6008 0.02514 0.0
C2205 C 0.69885 0.62417 0.00726 0.0
C2206 C 0.65765 0.59705 0.97691 0.0
C2207 C 0.71617 0.63373 0.00611 0.0
C2208 C 0.58548 0.56145 0.98834 0.0
C2209 C 0.6017 0.57244 0.98542 0.0
C2210 C 0.64348 0.59959 0.01161 0.0
C2211 C 0.68545 0.62088 0.99158 0.0
C2212 C 0.66727 0.60979 0.99271 0.0
C2213 C 0.61724 0.57396 0.9981 0.0
C2214 C 0.63415 0.58661 0.99596 0.0
H2215 H 0.71031 0.6419 0.96031 0.0
H2216 H 0.6798 0.62569 0.9625 0.0
H2217 H 0.66651 0.6211 0.0223 0.0
H2218 H 0.60005 0.54512 0.02806 0.0
H2219 H 0.62833 0.56459 0.02313 0.0
C2220 C 0.6699 0.48048 0.25688 0.0
C2221 C 0.67598 0.49005 0.2755 0.0
C2222 C 0.67716 0.46561 0.24948 0.0
C2223 C 0.69934 0.43767 0.23518 0.0
H2224 H 0.70261 0.40335 0.27103 0.0
C2225 C 0.72629 0.37022 0.21906 0.0
C2226 C 0.7163 0.35427 0.22459 0.0
C2227 C 0.7223 0.38761 0.22435 0.0
C2228 C 0.70172 0.41277 0.26084 0.0
H2229 H 0.69554 0.49247 0.30029 0.0
H2230 H 0.7082 0.46667 0.28731 0.0
H2231 H 0.69506 0.43305 0.28155 0.0
H2232 H 0.69436 0.34396 0.23995 0.0
H2233 H 0.68736 0.37429 0.24914 0.0
H2234 H 0.7057 0.41706 0.21437 0.0
C2235 C 0.69756 0.47042 0.27861 0.0
C2236 C 0.69762 0.42988 0.26692 0.0
C2237 C 0.69034 0.48526 0.286 0.0
C2238 C 0.70217 0.35599 0.23535 0.0
C2239 C 0.69829 0.37337 0.24076 0.0
C2240 C 0.7036 0.42055 0.22912 0.0
C2241 C 0.69064 0.46003 0.26055 0.0
C2242 C 0.69624 0.44247 0.25414 0.0
C2243 C 0.70839 0.38937 0.23544 0.0
C2244 C 0.70461 0.40785 0.24186 0.0
H2245 H 0.65891 0.48384 0.24836 0.0
H2246 H 0.67152 0.45783 0.23552 0.0
H2247 H 0.69843 0.44713 0.22504 0.0
H2248 H 0.73718 0.36925 0.21065 0.0
H2249 H 0.73036 0.39972 0.22014 0.0
C2250 C 0.85184 0.46376 0.5191 0.0
C2251 C 0.8381 0.47158 0.51148 0.0
C2252 C 0.86969 0.47165 0.51814 0.0
C2253 C 0.9013 0.51365 0.51743 0.0
H2254 H 0.92897 0.48187 0.49166 0.0
C2255 C 0.97631 0.53886 0.50892 0.0
C2256 C 0.98714 0.52585 0.51027 0.0
C2257 C 0.95777 0.53345 0.50869 0.0
C2258 C 0.92153 0.49088 0.49915 0.0
H2259 H 0.83234 0.4943 0.49757 0.0
H2260 H 0.86384 0.50843 0.4964 0.0
H2261 H 0.8971 0.47032 0.49213 0.0
H2262 H 0.98715 0.49704 0.51188 0.0
H2263 H 0.95525 0.48788 0.51297 0.0
H2264 H 0.92586 0.53393 0.52525 0.0
C2265 C 0.86058 0.49598 0.50279 0.0
C2266 C 0.90328 0.48429 0.49924 0.0
C2267 C 0.84263 0.48785 0.5034 0.0
C2268 C 0.97922 0.50748 0.51157 0.0
C2269 C 0.96083 0.50215 0.51168 0.0
C2270 C 0.9197 0.52018 0.51763 0.0
C2271 C 0.87417 0.48775 0.50993 0.0
C2272 C 0.89309 0.49552 0.50857 0.0
C2273 C 0.9498 0.51495 0.50987 0.0
C2274 C 0.93008 0.50872 0.50875 0.0
H2275 H 0.84891 0.45151 0.52579 0.0
H2276 H 0.88004 0.46523 0.52392 0.0
H2277 H 0.89361 0.52247 0.52478 0.0
H2278 H 0.98211 0.5531 0.50769 0.0
H2279 H 0.94967 0.54363 0.50708 0.0
C2280 C 0.33495 0.0421 0.26023 0.0
C2281 C 0.34305 0.04727 0.27926 0.0
C2282 C 0.32268 0.05164 0.25288 0.0
C2283 C 0.29569 0.08667 0.26553 0.0
H2284 H 0.31049 0.10454 0.21968 0.0
C2285 C 0.28722 0.15698 0.24738 0.0
C2286 C 0.28352 0.15913 0.22825 0.0
C2287 C 0.29011 0.14014 0.25197 0.0
C2288 C 0.30584 0.09938 0.23221 0.0
H2289 H 0.34351 0.06549 0.3059 0.0
H2290 H 0.3223 0.08232 0.29298 0.0
H2291 H 0.32265 0.07973 0.23106 0.0
H2292 H 0.27957 0.14524 0.19893 0.0
H2293 H 0.28472 0.11562 0.20697 0.0
H2294 H 0.27941 0.10692 0.26704 0.0
C2295 C 0.32535 0.07081 0.28378 0.0
C2296 C 0.31281 0.08514 0.23874 0.0
C2297 C 0.33761 0.06124 0.29116 0.0
C2298 C 0.28259 0.144 0.21378 0.0
C2299 C 0.28546 0.12707 0.21838 0.0
C2300 C 0.28867 0.1009 0.25895 0.0
C2301 C 0.31826 0.06653 0.2644 0.0
C2302 C 0.30826 0.07906 0.2558 0.0
C2303 C 0.28937 0.12503 0.23754 0.0
C2304 C 0.29416 0.10783 0.24259 0.0
H2305 H 0.33861 0.03118 0.25075 0.0
H2306 H 0.31718 0.04785 0.23798 0.0
H2307 H 0.29176 0.08206 0.27856 0.0
H2308 H 0.28835 0.1685 0.25883 0.0
H2309 H 0.29353 0.13918 0.26683 0.0
C2310 C 0.34164 0.14813 0.5249 0.0
C2311 C 0.32429 0.14164 0.52931 0.0
C2312 C 0.35564 0.13983 0.53062 0.0
C2313 C 0.36896 0.10843 0.56284 0.0
H2314 H 0.39789 0.09549 0.52347 0.0
C2315 C 0.41088 0.05285 0.56768 0.0
C2316 C 0.42808 0.05635 0.56194 0.0
C2317 C 0.39919 0.06457 0.56446 0.0
C2318 C 0.39011 0.09922 0.53472 0.0
H2319 H 0.30819 0.12198 0.54396 0.0
H2320 H 0.33252 0.10751 0.55386 0.0
H2321 H 0.3762 0.11453 0.51748 0.0
H2322 H 0.44647 0.07493 0.54832 0.0
H2323 H 0.42598 0.09538 0.54262 0.0
H2324 H 0.38267 0.09285 0.57997 0.0
C2325 C 0.33539 0.11906 0.54609 0.0
C2326 C 0.3777 0.11017 0.5313 0.0
C2327 C 0.3214 0.12731 0.54033 0.0
C2328 C 0.43322 0.07172 0.55269 0.0
C2329 C 0.42151 0.08345 0.54946 0.0
C2330 C 0.38136 0.09748 0.56626 0.0
C2331 C 0.35257 0.12493 0.54093 0.0
C2332 C 0.36682 0.1147 0.54523 0.0
C2333 C 0.40439 0.08007 0.55542 0.0
C2334 C 0.39191 0.09254 0.55214 0.0
H2335 H 0.3443 0.15916 0.51643 0.0
H2336 H 0.36879 0.14484 0.52666 0.0
H2337 H 0.36096 0.1119 0.57396 0.0
H2338 H 0.4064 0.04095 0.57456 0.0
H2339 H 0.38597 0.06135 0.56888 0.0
C2340 C 0.68578 0.59068 0.31313 0.0
C2341 C 0.67609 0.57768 0.29766 0.0
C2342 C 0.69577 0.60768 0.31018 0.0
C2343 C 0.70231 0.63903 0.27352 0.0
H2344 H 0.74569 0.66202 0.3078 0.0
C2345 C 0.75394 0.70398 0.26185 0.0
C2346 C 0.75619 0.71889 0.27687 0.0
C2347 C 0.7448 0.68625 0.26389 0.0
C2348 C 0.73361 0.6557 0.29814 0.0
H2349 H 0.66944 0.5722 0.26691 0.0
H2350 H 0.68751 0.60144 0.26161 0.0
H2351 H 0.72853 0.63185 0.31198 0.0
H2352 H 0.75137 0.72708 0.30592 0.0
H2353 H 0.73599 0.69586 0.30975 0.0
H2354 H 0.70795 0.66283 0.25938 0.0
C2355 C 0.68695 0.59888 0.27614 0.0
C2356 C 0.72364 0.63849 0.3006 0.0
C2357 C 0.67664 0.58203 0.27914 0.0
C2358 C 0.74972 0.71575 0.29415 0.0
C2359 C 0.741 0.69796 0.29635 0.0
C2360 C 0.71252 0.65606 0.27084 0.0
C2361 C 0.69668 0.61198 0.29162 0.0
C2362 C 0.7077 0.63 0.28849 0.0
C2363 C 0.73825 0.68314 0.28116 0.0
C2364 C 0.72811 0.6646 0.28326 0.0
H2365 H 0.68547 0.58779 0.32759 0.0
H2366 H 0.70265 0.61751 0.32253 0.0
H2367 H 0.69 0.6332 0.26409 0.0
H2368 H 0.75873 0.70617 0.24837 0.0
H2369 H 0.74283 0.67498 0.25202 0.0
C2370 C 0.84725 0.45794 0.78185 0.0
C2371 C 0.84043 0.47109 0.79332 0.0
C2372 C 0.83717 0.43988 0.77605 0.0
C2373 C 0.79957 0.40692 0.78979 0.0
H2374 H 0.80632 0.37619 0.74368 0.0
C2375 C 0.76823 0.3284 0.77199 0.0
C2376 C 0.78161 0.31806 0.77056 0.0
C2377 C 0.77222 0.34742 0.77115 0.0
C2378 C 0.80417 0.38471 0.75648 0.0
H2379 H 0.81737 0.47605 0.80689 0.0
H2380 H 0.79946 0.44478 0.79616 0.0
H2381 H 0.81898 0.40956 0.74885 0.0
H2382 H 0.8096 0.31945 0.76734 0.0
H2383 H 0.81638 0.35248 0.76534 0.0
H2384 H 0.78485 0.38194 0.79737 0.0
C2385 C 0.81284 0.44813 0.79219 0.0
C2386 C 0.81155 0.40377 0.75957 0.0
C2387 C 0.82307 0.46608 0.7983 0.0
C2388 C 0.79889 0.32693 0.76788 0.0
C2389 C 0.80278 0.34582 0.76675 0.0
C2390 C 0.79194 0.38795 0.78652 0.0
C2391 C 0.81989 0.43468 0.7813 0.0
C2392 C 0.80985 0.41501 0.77658 0.0
C2393 C 0.78957 0.35626 0.76865 0.0
C2394 C 0.79466 0.37663 0.77014 0.0
H2395 H 0.86062 0.46142 0.77785 0.0
H2396 H 0.84323 0.42987 0.76801 0.0
H2397 H 0.79817 0.41499 0.80318 0.0
H2398 H 0.75482 0.3219 0.77422 0.0
H2399 H 0.76188 0.3553 0.77281 0.0
C2400 C 0.06029 0.84517 0.08602 0.0
C2401 C 0.04852 0.82929 0.07542 0.0
C2402 C 0.06144 0.86271 0.08032 0.0
C2403 C 0.05161 0.88707 0.03969 0.0
H2404 H 0.04537 0.92625 0.07859 0.0
C2405 C 0.03573 0.95594 0.01991 0.0
C2406 C 0.04039 0.97236 0.03337 0.0
C2407 C 0.03818 0.93887 0.02478 0.0
C2408 C 0.0475 0.91571 0.06751 0.0
H2409 H 0.0295 0.81946 0.04987 0.0
H2410 H 0.03205 0.84979 0.03959 0.0
H2411 H 0.04808 0.89625 0.08706 0.0
H2412 H 0.05261 0.98364 0.06236 0.0
H2413 H 0.05783 0.95432 0.07054 0.0
H2414 H 0.05146 0.90647 0.02017 0.0
C2415 C 0.04023 0.84875 0.05245 0.0
C2416 C 0.04899 0.89837 0.07243 0.0
C2417 C 0.0388 0.8313 0.05834 0.0
C2418 C 0.04851 0.97131 0.05162 0.0
C2419 C 0.05134 0.9543 0.0564 0.0
C2420 C 0.05044 0.90452 0.03481 0.0
C2421 C 0.05114 0.86482 0.06366 0.0
C2422 C 0.05086 0.88371 0.05857 0.0
C2423 C 0.04595 0.93765 0.04318 0.0
C2424 C 0.04812 0.91915 0.04857 0.0
H2425 H 0.0678 0.84428 0.09937 0.0
H2426 H 0.07011 0.87474 0.08922 0.0
H2427 H 0.05321 0.87619 0.02865 0.0
H2428 H 0.03003 0.95616 0.00553 0.0
H2429 H 0.03362 0.92659 0.01408 0.0
C2430 C 0.94951 0.27055 0.87862 0.0
C2431 C 0.95032 0.25703 0.89046 0.0
C2432 C 0.93314 0.27179 0.86897 0.0
C2433 C 0.88905 0.24351 0.84876 0.0
H2434 H 0.87551 0.29074 0.84683 0.0
C2435 C 0.82162 0.24801 0.80717 0.0
C2436 C 0.82123 0.2636 0.79815 0.0
C2437 C 0.83671 0.24724 0.81952 0.0
C2438 C 0.87914 0.27742 0.8469 0.0
H2439 H 0.93447 0.23437 0.90165 0.0
H2440 H 0.90591 0.23632 0.88449 0.0
H2441 H 0.90294 0.28963 0.86636 0.0
H2442 H 0.83643 0.29075 0.79536 0.0
H2443 H 0.86295 0.28899 0.81574 0.0
H2444 H 0.86574 0.2313 0.82877 0.0
C2445 C 0.91797 0.24602 0.88277 0.0
C2446 C 0.89486 0.27681 0.85826 0.0
C2447 C 0.93431 0.245 0.89271 0.0
C2448 C 0.83633 0.27835 0.80175 0.0
C2449 C 0.8515 0.27748 0.81382 0.0
C2450 C 0.87346 0.24413 0.83715 0.0
C2451 C 0.91722 0.25933 0.87066 0.0
C2452 C 0.90005 0.25987 0.85927 0.0
C2453 C 0.85195 0.26195 0.82299 0.0
C2454 C 0.86829 0.26113 0.83593 0.0
H2455 H 0.96158 0.28003 0.87656 0.0
H2456 H 0.93304 0.28213 0.85967 0.0
H2457 H 0.89279 0.23025 0.84906 0.0
H2458 H 0.81024 0.23636 0.80468 0.0
H2459 H 0.83631 0.23514 0.82647 0.0
C2460 C 0.54737 0.22218 0.5857 0.0
C2461 C 0.53483 0.23068 0.57663 0.0
C2462 C 0.54776 0.2035 0.57954 0.0
C2463 C 0.5328 0.16456 0.53861 0.0
H2464 H 0.53772 0.13326 0.57713 0.0
C2465 C 0.53929 0.08773 0.51943 0.0
C2466 C 0.53001 0.07459 0.52936 0.0
C2467 C 0.54048 0.10682 0.52504 0.0
C2468 C 0.53624 0.14176 0.56616 0.0
H2469 H 0.51324 0.22605 0.55341 0.0
H2470 H 0.51405 0.19373 0.54263 0.0
H2471 H 0.53905 0.16635 0.58679 0.0
H2472 H 0.51427 0.07123 0.55275 0.0
H2473 H 0.51632 0.10453 0.56263 0.0
H2474 H 0.52976 0.13992 0.51798 0.0
C2475 C 0.52363 0.20149 0.55453 0.0
C2476 C 0.53722 0.16083 0.57171 0.0
C2477 C 0.52313 0.22009 0.56078 0.0
C2478 C 0.52168 0.08101 0.54491 0.0
C2479 C 0.52297 0.10012 0.55064 0.0
C2480 C 0.53197 0.14551 0.53305 0.0
C2481 C 0.53574 0.19279 0.564 0.0
C2482 C 0.53541 0.17253 0.55803 0.0
C2483 C 0.53239 0.11335 0.54079 0.0
C2484 C 0.53358 0.13378 0.54674 0.0
H2485 H 0.55656 0.22978 0.59798 0.0
H2486 H 0.55745 0.1974 0.58704 0.0
H2487 H 0.53149 0.17308 0.52763 0.0
H2488 H 0.54521 0.08324 0.50695 0.0
H2489 H 0.54785 0.1165 0.51708 0.0
C2490 C 0.56281 0.76529 0.39537 0.0
C2491 C 0.54935 0.75077 0.38494 0.0
C2492 C 0.57927 0.77053 0.38848 0.0
C2493 C 0.60845 0.75447 0.35378 0.0
H2494 H 0.62825 0.80713 0.35713 0.0
C2495 C 0.66607 0.78355 0.31148 0.0
C2496 C 0.67858 0.79967 0.32029 0.0
C2497 C 0.65104 0.7767 0.32022 0.0
C2498 C 0.6231 0.79235 0.3563 0.0
H2499 H 0.54288 0.73015 0.35925 0.0
H2500 H 0.5714 0.73933 0.34727 0.0
H2501 H 0.60102 0.79694 0.37111 0.0
H2502 H 0.68567 0.82055 0.34572 0.0
H2503 H 0.65975 0.80855 0.36099 0.0
H2504 H 0.63051 0.74992 0.33882 0.0
C2505 C 0.56935 0.74658 0.36085 0.0
C2506 C 0.60743 0.78651 0.36435 0.0
C2507 C 0.55291 0.74139 0.36769 0.0
C2508 C 0.67609 0.80833 0.33835 0.0
C2509 C 0.66118 0.80147 0.3471 0.0
C2510 C 0.62416 0.76033 0.34574 0.0
C2511 C 0.5827 0.76135 0.37104 0.0
C2512 C 0.59984 0.76749 0.36314 0.0
C2513 C 0.64824 0.78577 0.33801 0.0
C2514 C 0.63168 0.77936 0.34684 0.0
H2515 H 0.56055 0.77279 0.40872 0.0
H2516 H 0.58932 0.78181 0.39684 0.0
H2517 H 0.60312 0.73971 0.35277 0.0
H2518 H 0.66754 0.77663 0.29752 0.0
H2519 H 0.64132 0.76467 0.31271 0.0
C2520 C 0.04392 0.24501 0.38456 0.0
C2521 C 0.03544 0.25872 0.39267 0.0
C2522 C 0.0458 0.22992 0.39388 0.0
C2523 C 0.02433 0.20425 0.42992 0.0
H2524 H 0.06188 0.17671 0.42468 0.0
C2525 C 0.02513 0.13948 0.46613 0.0
C2526 C 0.0281 0.12381 0.45448 0.0
C2527 C 0.02831 0.15695 0.46026 0.0
C2528 C 0.05126 0.18423 0.42622 0.0
H2529 H 0.0237 0.26823 0.41761 0.0
H2530 H 0.02772 0.24262 0.43421 0.0
H2531 H 0.06396 0.20575 0.41176 0.0
H2532 H 0.03764 0.11447 0.42797 0.0
H2533 H 0.04312 0.14485 0.41773 0.0
H2534 H 0.01159 0.18275 0.44426 0.0
C2535 C 0.03226 0.24294 0.42032 0.0
C2536 C 0.05243 0.20088 0.41877 0.0
C2537 C 0.03014 0.25779 0.4109 0.0
C2538 C 0.035 0.1262 0.43719 0.0
C2539 C 0.03832 0.14367 0.43139 0.0
C2540 C 0.02325 0.18774 0.43747 0.0
C2541 C 0.03942 0.22836 0.41163 0.0
C2542 C 0.03891 0.21109 0.42039 0.0
C2543 C 0.0347 0.15922 0.44268 0.0
C2544 C 0.0366 0.17742 0.43561 0.0
H2545 H 0.04798 0.24524 0.37044 0.0
H2546 H 0.05132 0.21899 0.38664 0.0
H2547 H 0.01339 0.21135 0.43109 0.0
H2548 H 0.01974 0.13812 0.47948 0.0
H2549 H 0.02556 0.16866 0.4694 0.0
C2550 C 0.57942 0.26526 0.20366 0.0
C2551 C 0.56883 0.26516 0.21874 0.0
C2552 C 0.59806 0.26668 0.20714 0.0
C2553 C 0.63662 0.28064 0.24662 0.0
H2554 H 0.66148 0.2551 0.2103 0.0
C2555 C 0.71434 0.29197 0.2567 0.0
C2556 C 0.72207 0.27667 0.25151 0.0
C2557 C 0.6959 0.29082 0.2521 0.0
C2558 C 0.6548 0.26224 0.22073 0.0
H2559 H 0.56984 0.26618 0.24936 0.0
H2560 H 0.60191 0.26827 0.25532 0.0
H2561 H 0.62923 0.25215 0.20373 0.0
H2562 H 0.71635 0.24842 0.2365 0.0
H2563 H 0.68424 0.24607 0.22917 0.0
H2564 H 0.66204 0.2903 0.26389 0.0
C2565 C 0.59601 0.26768 0.2408 0.0
C2566 C 0.63621 0.26074 0.21682 0.0
C2567 C 0.57745 0.26632 0.23734 0.0
C2568 C 0.71085 0.26032 0.24119 0.0
C2569 C 0.69239 0.2591 0.2367 0.0
C2570 C 0.65517 0.28211 0.25055 0.0
C2571 C 0.60672 0.26802 0.2258 0.0
C2572 C 0.62674 0.26985 0.22973 0.0
C2573 C 0.68453 0.2743 0.24216 0.0
C2574 C 0.66463 0.2729 0.23772 0.0
H2575 H 0.57336 0.26446 0.18915 0.0
H2576 H 0.60571 0.26709 0.19516 0.0
H2577 H 0.63005 0.28816 0.25687 0.0
H2578 H 0.72254 0.30491 0.26442 0.0
H2579 H 0.69062 0.30303 0.25622 0.0
C2580 C 0.54007 0.85496 0.88974 0.0
C2581 C 0.5255 0.84079 0.89173 0.0
C2582 C 0.5432 0.87258 0.90125 0.0
C2583 C 0.53151 0.896 0.94677 0.0
H2584 H 0.54381 0.94154 0.9257 0.0
C2585 C 0.52009 0.96497 0.98487 0.0
C2586 C 0.5337 0.98107 0.98659 0.0
C2587 C 0.52097 0.94858 0.97314 0.0
C2588 C 0.54058 0.92895 0.93185 0.0
H2589 H 0.50284 0.83437 0.90757 0.0
H2590 H 0.50814 0.86457 0.9271 0.0
H2591 H 0.54236 0.91151 0.90574 0.0
H2592 H 0.55865 0.99262 0.97658 0.0
H2593 H 0.56002 0.9639 0.95565 0.0
H2594 H 0.52929 0.91323 0.97266 0.0
C2595 C 0.51739 0.86217 0.91696 0.0
C2596 C 0.53978 0.91172 0.92042 0.0
C2597 C 0.51427 0.84475 0.90554 0.0
C2598 C 0.54794 0.98048 0.97562 0.0
C2599 C 0.54873 0.96403 0.96363 0.0
C2600 C 0.5322 0.9131 0.95808 0.0
C2601 C 0.53191 0.87638 0.9151 0.0
C2602 C 0.53482 0.89495 0.92761 0.0
C2603 C 0.53538 0.94777 0.96251 0.0
C2604 C 0.53635 0.92981 0.9507 0.0
H2605 H 0.54898 0.8525 0.87925 0.0
H2606 H 0.55456 0.88315 0.89945 0.0
H2607 H 0.52814 0.88349 0.95304 0.0
H2608 H 0.5087 0.96495 0.99274 0.0
H2609 H 0.51025 0.93648 0.97233 0.0
C2610 C 0.94583 0.7543 0.69618 0.0
C2611 C 0.96056 0.75363 0.70922 0.0
C2612 C 0.92902 0.75507 0.7021 0.0
C2613 C 0.90198 0.75022 0.74364 0.0
H2614 H 0.87274 0.77706 0.71578 0.0
C2615 C 0.83698 0.76999 0.76985 0.0
C2616 C 0.82211 0.76814 0.75603 0.0
C2617 C 0.85374 0.76779 0.76455 0.0
C2618 C 0.8806 0.76936 0.72366 0.0
H2619 H 0.96872 0.75303 0.73897 0.0
H2620 H 0.93963 0.75487 0.74947 0.0
H2621 H 0.90167 0.77406 0.7062 0.0
H2622 H 0.81338 0.7621 0.72562 0.0
H2623 H 0.84246 0.7584 0.71637 0.0
H2624 H 0.88089 0.74607 0.76145 0.0
C2625 C 0.9409 0.75438 0.73444 0.0
C2626 C 0.89733 0.76751 0.71808 0.0
C2627 C 0.95773 0.75333 0.72842 0.0
C2628 C 0.82448 0.76376 0.73672 0.0
C2629 C 0.84126 0.76175 0.73139 0.0
C2630 C 0.8853 0.75228 0.74937 0.0
C2631 C 0.92625 0.75558 0.72143 0.0
C2632 C 0.90834 0.75775 0.72782 0.0
C2633 C 0.85622 0.76376 0.7452 0.0
C2634 C 0.87425 0.76177 0.73939 0.0
H2635 H 0.94727 0.75447 0.68129 0.0
H2636 H 0.9182 0.75536 0.69136 0.0
H2637 H 0.90971 0.7424 0.7515 0.0
H2638 H 0.83563 0.77294 0.78485 0.0
H2639 H 0.86485 0.76953 0.77565 0.0
C2640 C 0.10326 0.0453 0.84282 0.0
C2641 C 0.11816 0.03793 0.83859 0.0
C2642 C 0.09787 0.04581 0.86103 0.0
C2643 C 0.10086 0.02185 0.90279 0.0
H2644 H 0.07852 0.0603 0.92578 0.0
C2645 C 0.07236 0.02037 0.97533 0.0
C2646 C 0.05508 0.02398 0.97519 0.0
C2647 C 0.08203 0.02337 0.95995 0.0
C2648 C 0.08472 0.04945 0.91951 0.0
H2649 H 0.13957 0.02613 0.85046 0.0
H2650 H 0.13049 0.02752 0.88224 0.0
H2651 H 0.09234 0.0641 0.89675 0.0
H2652 H 0.03454 0.03385 0.95896 0.0
H2653 H 0.05128 0.0389 0.93229 0.0
H2654 H 0.09302 0.00712 0.92547 0.0
C2655 C 0.12272 0.03252 0.8714 0.0
C2656 C 0.09259 0.0516 0.90286 0.0
C2657 C 0.12803 0.0319 0.85318 0.0
C2658 C 0.04774 0.03072 0.95947 0.0
C2659 C 0.05741 0.03384 0.94425 0.0
C2660 C 0.09307 0.01975 0.91951 0.0
C2661 C 0.10732 0.03904 0.87542 0.0
C2662 C 0.10046 0.03767 0.8941 0.0
C2663 C 0.07467 0.03026 0.94432 0.0
C2664 C 0.0846 0.03336 0.92781 0.0
H2665 H 0.09533 0.05 0.83187 0.0
H2666 H 0.08583 0.05075 0.86355 0.0
H2667 H 0.10656 0.0107 0.8963 0.0
H2668 H 0.07839 0.01527 0.98731 0.0
H2669 H 0.09534 0.02054 0.96038 0.0
C2670 C 0.77636 0.37466 0.53722 0.0
C2671 C 0.77389 0.39295 0.53982 0.0
C2672 C 0.77128 0.36305 0.55045 0.0
C2673 C 0.75282 0.36238 0.59768 0.0
H2674 H 0.79219 0.33829 0.60818 0.0
C2675 C 0.78626 0.35832 0.6723 0.0
C2676 C 0.79172 0.34187 0.67515 0.0
C2677 C 0.77806 0.35995 0.65446 0.0
C2678 C 0.78087 0.3446 0.60531 0.0
H2679 H 0.76291 0.41309 0.55715 0.0
H2680 H 0.75512 0.39347 0.5809 0.0
H2681 H 0.78781 0.34873 0.57789 0.0
H2682 H 0.79232 0.31401 0.66185 0.0
H2683 H 0.77825 0.317 0.6306 0.0
H2684 H 0.74713 0.35956 0.62617 0.0
C2685 C 0.76033 0.38759 0.56845 0.0
C2686 C 0.77822 0.35053 0.58778 0.0
C2687 C 0.76486 0.39896 0.55484 0.0
C2688 C 0.78816 0.32682 0.66008 0.0
C2689 C 0.78016 0.32852 0.64221 0.0
C2690 C 0.75574 0.35676 0.61544 0.0
C2691 C 0.7644 0.36984 0.56698 0.0
C2692 C 0.76452 0.36007 0.5839 0.0
C2693 C 0.7754 0.34524 0.63913 0.0
C2694 C 0.77011 0.34829 0.61955 0.0
H2695 H 0.78315 0.36971 0.52556 0.0
H2696 H 0.77394 0.34921 0.54836 0.0
H2697 H 0.74186 0.36924 0.5951 0.0
H2698 H 0.78869 0.37005 0.68375 0.0
H2699 H 0.77469 0.37306 0.65238 0.0
C2700 C 0.43651 0.00732 0.31944 0.0
C2701 C 0.42778 0.02193 0.31729 0.0
C2702 C 0.44689 0.00729 0.33663 0.0
C2703 C 0.45205 0.02725 0.38767 0.0
H2704 H 0.49619 0.00944 0.39009 0.0
C2705 C 0.4984 0.03531 0.45785 0.0
C2706 C 0.50463 0.01952 0.46158 0.0
C2707 C 0.48952 0.03558 0.43994 0.0
C2708 C 0.4838 0.0143 0.3896 0.0
H2709 H 0.42388 0.04846 0.331 0.0
H2710 H 0.44221 0.0486 0.36077 0.0
H2711 H 0.48019 0.01034 0.35906 0.0
H2712 H 0.50747 0.99209 0.44953 0.0
H2713 H 0.49189 0.99252 0.41804 0.0
H2714 H 0.45571 0.03131 0.41819 0.0
C2715 C 0.44066 0.0369 0.34943 0.0
C2716 C 0.47463 0.01481 0.37185 0.0
C2717 C 0.43023 0.03687 0.33233 0.0
C2718 C 0.50251 0.00429 0.44696 0.0
C2719 C 0.49371 0.00459 0.42899 0.0
C2720 C 0.46124 0.02683 0.40537 0.0
C2721 C 0.44881 0.02193 0.35194 0.0
C2722 C 0.45868 0.02136 0.3707 0.0
C2723 C 0.48699 0.02019 0.42537 0.0
C2724 C 0.47723 0.02041 0.40652 0.0
H2725 H 0.43483 0.99559 0.3081 0.0
H2726 H 0.45288 0.99548 0.33814 0.0
H2727 H 0.43959 0.03197 0.38731 0.0
H2728 H 0.50037 0.04742 0.46879 0.0
H2729 H 0.48476 0.04791 0.43743 0.0
C2730 C 0.77296 0.69782 0.06435 0.0
C2731 C 0.7902 0.70269 0.05892 0.0
C2732 C 0.76923 0.70516 0.08232 0.0
C2733 C 0.78681 0.74245 0.12427 0.0
H2734 H 0.75804 0.70826 0.15141 0.0
C2735 C 0.77354 0.73483 0.20646 0.0
C2736 C 0.77234 0.75305 0.21353 0.0
C2737 C 0.77384 0.72928 0.18699 0.0
C2738 C 0.76616 0.71799 0.14408 0.0
H2739 H 0.8169 0.71957 0.06812 0.0
H2740 H 0.8105 0.73209 0.09943 0.0
H2741 H 0.76258 0.69796 0.11871 0.0
H2742 H 0.76994 0.77961 0.20564 0.0
H2743 H 0.76999 0.76982 0.17148 0.0
H2744 H 0.79098 0.76224 0.14996 0.0
C2745 C 0.79975 0.72279 0.08972 0.0
C2746 C 0.76858 0.71215 0.12519 0.0
C2747 C 0.80346 0.71552 0.07174 0.0
C2748 C 0.77081 0.76545 0.20061 0.0
C2749 C 0.77106 0.75989 0.18106 0.0
C2750 C 0.78441 0.74829 0.14319 0.0
C2751 C 0.78266 0.71752 0.09537 0.0
C2752 C 0.77912 0.72422 0.11508 0.0
C2753 C 0.77282 0.74179 0.17403 0.0
C2754 C 0.77425 0.73606 0.15344 0.0
H2755 H 0.76236 0.68809 0.05484 0.0
H2756 H 0.75583 0.70102 0.08602 0.0
H2757 H 0.79482 0.75222 0.11689 0.0
H2758 H 0.77447 0.72485 0.21604 0.0
H2759 H 0.77539 0.7153 0.1822 0.0
C2760 C 0.10299 0.03592 0.71955 0.0
C2761 C 0.11147 0.02128 0.72246 0.0
C2762 C 0.09547 0.03722 0.70126 0.0
C2763 C 0.08013 0.00865 0.65321 0.0
H2764 H 0.08159 0.05647 0.63686 0.0
C2765 C 0.0659 0.0169 0.57459 0.0
C2766 C 0.054 0.02831 0.5703 0.0
C2767 C 0.0721 0.01634 0.59348 0.0
C2768 C 0.08095 0.04304 0.64133 0.0
H2769 H 0.11928 0.9969 0.70844 0.0
H2770 H 0.10682 0.9995 0.67657 0.0
H2771 H 0.09454 0.05516 0.66914 0.0
H2772 H 0.03892 0.04767 0.58268 0.0
H2773 H 0.05033 0.04719 0.61573 0.0
H2774 H 0.06708 0.99659 0.62515 0.0
C2775 C 0.10536 0.00966 0.68841 0.0
C2776 C 0.08832 0.04226 0.65984 0.0
C2777 C 0.11265 0.00823 0.70669 0.0
C2778 C 0.04836 0.03906 0.58541 0.0
C2779 C 0.05484 0.03875 0.60435 0.0
C2780 C 0.07301 0.00945 0.63468 0.0
C2781 C 0.09645 0.02402 0.68545 0.0
C2782 C 0.08814 0.02503 0.66597 0.0
C2783 C 0.0667 0.02731 0.60854 0.0
C2784 C 0.07347 0.02663 0.62852 0.0
H2785 H 0.1018 0.04615 0.73145 0.0
H2786 H 0.08855 0.04834 0.69961 0.0
H2787 H 0.07929 0.99514 0.65753 0.0
H2788 H 0.07043 0.00829 0.56336 0.0
H2789 H 0.08131 0.00747 0.59632 0.0
C2790 C 0.78434 0.40775 0.4451 0.0
C2791 C 0.79886 0.40646 0.45805 0.0
C2792 C 0.78171 0.39808 0.42644 0.0
C2793 C 0.77348 0.36643 0.39251 0.0
H2794 H 0.81443 0.36262 0.3655 0.0
C2795 C 0.76701 0.32641 0.31563 0.0
C2796 C 0.77914 0.31478 0.31262 0.0
C2797 C 0.76915 0.33895 0.3326 0.0
C2798 C 0.80288 0.36348 0.37291 0.0
H2799 H 0.82205 0.39405 0.46141 0.0
H2800 H 0.81734 0.37716 0.42912 0.0
H2801 H 0.81867 0.38253 0.39643 0.0
H2802 H 0.80285 0.30691 0.32489 0.0
H2803 H 0.80655 0.32871 0.35458 0.0
H2804 H 0.75773 0.34717 0.36902 0.0
C2805 C 0.80812 0.38583 0.43326 0.0
C2806 C 0.8053 0.37488 0.39061 0.0
C2807 C 0.81074 0.39543 0.45185 0.0
C2808 C 0.79334 0.31578 0.32687 0.0
C2809 C 0.79554 0.32836 0.34377 0.0
C2810 C 0.77105 0.35505 0.37475 0.0
C2811 C 0.79357 0.38699 0.42034 0.0
C2812 C 0.79068 0.37622 0.40077 0.0
C2813 C 0.78348 0.34009 0.34681 0.0
C2814 C 0.78578 0.35321 0.36494 0.0
H2815 H 0.77495 0.41615 0.44939 0.0
H2816 H 0.77044 0.39936 0.41676 0.0
H2817 H 0.76198 0.36703 0.40007 0.0
H2818 H 0.75581 0.32571 0.30494 0.0
H2819 H 0.7597 0.34786 0.33453 0.0
C2820 C 0.40948 0.97914 0.22522 0.0
C2821 C 0.40095 0.99242 0.23399 0.0
C2822 C 0.42662 0.98449 0.22025 0.0
C2823 C 0.45188 0.02302 0.20266 0.0
H2824 H 0.48515 0.99022 0.19812 0.0
C2825 C 0.50695 0.99988 0.15183 0.0
C2826 C 0.49611 0.99769 0.13428 0.0
C2827 C 0.50076 0.0059 0.1689 0.0
C2828 C 0.47637 0.99991 0.19958 0.0
H2829 H 0.40386 0.02155 0.2454 0.0
H2830 H 0.43393 0.03104 0.23636 0.0
H2831 H 0.46472 0.98763 0.22215 0.0
H2832 H 0.47076 1.00121 0.12082 0.0
H2833 H 0.46 0.01166 0.15042 0.0
H2834 H 0.46279 0.03455 0.17932 0.0
C2835 C 0.42738 0.01646 0.23354 0.0
C2836 C 0.46457 0.99832 0.21328 0.0
C2837 C 0.41025 0.01103 0.23878 0.0
C2838 C 0.47951 0.00289 0.13406 0.0
C2839 C 0.47336 0.00896 0.15107 0.0
C2840 C 0.46368 0.02462 0.18896 0.0
C2841 C 0.43549 0.0033 0.2237 0.0
C2842 C 0.45151 0.00908 0.21416 0.0
C2843 C 0.48365 0.00994 0.16872 0.0
C2844 C 0.47529 0.01232 0.18654 0.0
H2845 H 0.40259 0.9647 0.22146 0.0
H2846 H 0.43236 0.97404 0.21245 0.0
H2847 H 0.44196 0.03153 0.203 0.0
H2848 H 0.51998 0.99637 0.15243 0.0
H2849 H 0.50905 0.00672 0.18227 0.0
C2850 C 0.80353 0.71571 0.95712 0.0
C2851 C 0.78914 0.70417 0.96341 0.0
C2852 C 0.80138 0.72212 0.93973 0.0
C2853 C 0.76863 0.73054 0.90284 0.0
H2854 H 0.80508 0.72458 0.86976 0.0
C2855 C 0.77659 0.7663 0.83638 0.0
C2856 C 0.77961 0.75572 0.81953 0.0
C2857 C 0.77667 0.7592 0.8535 0.0
C2858 C 0.79473 0.72619 0.87876 0.0
H2859 H 0.76089 0.69124 0.95666 0.0
H2860 H 0.75711 0.70277 0.92636 0.0
H2861 H 0.80713 0.71454 0.90095 0.0
H2862 H 0.78504 0.7293 0.80756 0.0
H2863 H 0.78551 0.71699 0.83772 0.0
H2864 H 0.75634 0.7424 0.88069 0.0
C2865 C 0.77009 0.70667 0.93492 0.0
C2866 C 0.79599 0.72063 0.8967 0.0
C2867 C 0.77227 0.70008 0.9523 0.0
C2868 C 0.78272 0.73783 0.82027 0.0
C2869 C 0.78303 0.7308 0.83753 0.0
C2870 C 0.76748 0.73631 0.88497 0.0
C2871 C 0.78476 0.71733 0.92822 0.0
C2872 C 0.78304 0.72287 0.909 0.0
C2873 C 0.77995 0.74142 0.85431 0.0
C2874 C 0.78058 0.7343 0.87279 0.0
H2875 H 0.81671 0.71926 0.96527 0.0
H2876 H 0.81284 0.73061 0.93511 0.0
H2877 H 0.75846 0.73245 0.912 0.0
H2878 H 0.77401 0.78009 0.83638 0.0
H2879 H 0.77446 0.7678 0.86621 0.0
C2880 C 0.82616 0.09625 0.03316 0.0
C2881 C 0.82407 0.11416 0.03089 0.0
C2882 C 0.84327 0.09271 0.03654 0.0
C2883 C 0.88773 0.1109 0.02469 0.0
H2884 H 0.89956 0.07032 0.04843 0.0
C2885 C 0.94765 0.0805 0.00549 0.0
C2886 C 0.94315 0.06111 7e-05 0.0
C2887 C 0.93639 0.08961 0.01567 0.0
C2888 C 0.89649 0.08178 0.04185 0.0
H2889 H 0.83799 0.14282 0.03281 0.0
H2890 H 0.86777 0.13676 0.03893 0.0
H2891 H 0.87309 0.08209 0.05588 0.0
H2892 H 0.9237 0.03599 0.00148 0.0
H2893 H 0.90399 0.05184 0.01893 0.0
H2894 H 0.91045 0.11002 0.00989 0.0
C2895 C 0.85629 0.1253 0.03741 0.0
C2896 C 0.88136 0.0885 0.0461 0.0
C2897 C 0.83922 0.12877 0.0338 0.0
C2898 C 0.92758 0.05094 0.00562 0.0
C2899 C 0.91635 0.06002 0.01574 0.0
C2900 C 0.90282 0.10421 0.02047 0.0
C2901 C 0.85854 0.10709 0.03793 0.0
C2902 C 0.87643 0.10264 0.03697 0.0
C2903 C 0.92043 0.07948 0.02054 0.0
C2904 C 0.90695 0.08909 0.02839 0.0
H2905 H 0.81467 0.08474 0.03111 0.0
H2906 H 0.84449 0.07848 0.03673 0.0
H2907 H 0.88424 0.12164 0.01719 0.0
H2908 H 0.95977 0.08863 0.00171 0.0
H2909 H 0.93997 0.10461 0.01935 0.0
C2910 C 0.35119 0.42801 0.01938 0.0
C2911 C 0.34792 0.41331 0.02989 0.0
C2912 C 0.36871 0.43693 0.01795 0.0
C2913 C 0.41431 0.44621 0.0433 0.0
H2914 H 0.42793 0.46308 0.99665 0.0
C2915 C 0.48689 0.48217 0.03512 0.0
C2916 C 0.48878 0.49715 0.02488 0.0
C2917 C 0.46995 0.47134 0.03594 0.0
C2918 C 0.42429 0.45861 0.00984 0.0
H2919 H 0.36047 0.39606 0.04666 0.0
H2920 H 0.39105 0.41148 0.04395 0.0
H2921 H 0.398 0.44451 0.99678 0.0
H2922 H 0.4742 0.51296 0.00814 0.0
H2923 H 0.44479 0.49434 0.00988 0.0
H2924 H 0.44057 0.46047 0.0564 0.0
C2925 C 0.38006 0.41627 0.03703 0.0
C2926 C 0.40715 0.44795 0.0099 0.0
C2927 C 0.36253 0.40732 0.03843 0.0
C2928 C 0.4733 0.50147 0.01608 0.0
C2929 C 0.45642 0.49067 0.0169 0.0
C2930 C 0.43147 0.45689 0.04325 0.0
C2931 C 0.38334 0.43135 0.02702 0.0
C2932 C 0.4019 0.44176 0.02667 0.0
C2933 C 0.45455 0.47531 0.02657 0.0
C2934 C 0.43658 0.46338 0.02657 0.0
H2935 H 0.34023 0.43299 0.01267 0.0
H2936 H 0.37077 0.44862 0.01028 0.0
H2937 H 0.4106 0.44187 0.05652 0.0
H2938 H 0.49854 0.47855 0.04215 0.0
H2939 H 0.46895 0.45956 0.04347 0.0
C2940 C 0.38707 0.57474 0.75056 0.0
C2941 C 0.38147 0.56269 0.7634 0.0
C2942 C 0.37873 0.58955 0.74828 0.0
C2943 C 0.33925 0.60925 0.758 0.0
H2944 H 0.37355 0.65632 0.77048 0.0
C2945 C 0.31979 0.67659 0.79056 0.0
C2946 C 0.32939 0.69378 0.78736 0.0
C2947 C 0.32462 0.6601 0.78329 0.0
C2948 C 0.36371 0.6434 0.76651 0.0
H2949 H 0.36186 0.55567 0.78263 0.0
H2950 H 0.34712 0.5812 0.77834 0.0
H2951 H 0.3841 0.62769 0.76401 0.0
H2952 H 0.35088 0.70723 0.77319 0.0
H2953 H 0.35899 0.67846 0.75991 0.0
H2954 H 0.31883 0.6249 0.76069 0.0
C2955 C 0.35801 0.57937 0.77017 0.0
C2956 C 0.3698 0.62694 0.76282 0.0
C2957 C 0.36651 0.56481 0.7727 0.0
C2958 C 0.34344 0.69415 0.77609 0.0
C2959 C 0.34811 0.67765 0.76857 0.0
C2960 C 0.33312 0.62575 0.76144 0.0
C2961 C 0.36444 0.5923 0.7585 0.0
C2962 C 0.35768 0.60968 0.75903 0.0
C2963 C 0.33903 0.66041 0.77241 0.0
C2964 C 0.34529 0.64302 0.76628 0.0
H2965 H 0.39861 0.57348 0.74325 0.0
H2966 H 0.38388 0.59927 0.7391 0.0
H2967 H 0.32961 0.59612 0.75496 0.0
H2968 H 0.30898 0.67596 0.79933 0.0
H2969 H 0.31748 0.6472 0.78687 0.0
C2970 C 0.22276 0.59405 0.55175 0.0
C2971 C 0.22984 0.59634 0.53457 0.0
C2972 C 0.20443 0.58718 0.55169 0.0
C2973 C 0.1641 0.56013 0.52052 0.0
H2974 H 0.13866 0.58335 0.55804 0.0
C2975 C 0.09169 0.52831 0.53166 0.0
C2976 C 0.08013 0.54055 0.53427 0.0
C2977 C 0.10989 0.53517 0.53115 0.0
C2978 C 0.14556 0.57681 0.54739 0.0
H2979 H 0.22324 0.59315 0.50384 0.0
H2980 H 0.19137 0.58125 0.50379 0.0
H2981 H 0.17071 0.5952 0.55839 0.0
H2982 H 0.07833 0.56938 0.53948 0.0
H2983 H 0.11013 0.58155 0.5381 0.0
H2984 H 0.13893 0.54187 0.50939 0.0
C2985 C 0.19998 0.5846 0.51728 0.0
C2986 C 0.16394 0.58345 0.54773 0.0
C2987 C 0.21824 0.59152 0.51734 0.0
C2988 C 0.08696 0.55973 0.5367 0.0
C2989 C 0.10518 0.56665 0.53626 0.0
C2990 C 0.14575 0.55344 0.52023 0.0
C2991 C 0.19286 0.58239 0.53444 0.0
C2992 C 0.1734 0.57519 0.53428 0.0
C2993 C 0.11685 0.55443 0.53353 0.0
C2994 C 0.13628 0.56172 0.53366 0.0
H2995 H 0.23134 0.59764 0.56526 0.0
H2996 H 0.19934 0.58545 0.56513 0.0
H2997 H 0.17106 0.55337 0.51007 0.0
H2998 H 0.08663 0.51343 0.53008 0.0
H2999 H 0.11859 0.52543 0.52933 0.0
C3000 C 0.68774 0.97589 0.73857 0.0
C3001 C 0.69387 0.99041 0.75403 0.0
C3002 C 0.69614 0.96086 0.73621 0.0
C3003 C 0.73491 0.94219 0.75299 0.0
H3004 H 0.69876 0.89987 0.75965 0.0
C3005 C 0.75154 0.88663 0.79531 0.0
C3006 C 0.74072 0.86868 0.7917 0.0
C3007 C 0.74751 0.90023 0.78503 0.0
C3008 C 0.70908 0.91124 0.75726 0.0
H3009 H 0.71483 1.00175 0.77768 0.0
H3010 H 0.72956 0.97563 0.77344 0.0
H3011 H 0.6897 0.92685 0.74985 0.0
H3012 H 0.71793 0.85035 0.774 0.0
H3013 H 0.71117 0.87391 0.75541 0.0
H3014 H 0.75435 0.92671 0.76077 0.0
C3015 C 0.7182 0.97575 0.76326 0.0
C3016 C 0.70384 0.92677 0.75164 0.0
C3017 C 0.70967 0.99063 0.76579 0.0
C3018 C 0.72623 0.86426 0.77718 0.0
C3019 C 0.7224 0.87777 0.7666 0.0
C3020 C 0.74018 0.92648 0.75829 0.0
C3021 C 0.71096 0.96031 0.74907 0.0
C3022 C 0.7167 0.94265 0.75021 0.0
C3023 C 0.73276 0.89606 0.77066 0.0
C3024 C 0.72733 0.91113 0.76133 0.0
H3025 H 0.67565 0.97537 0.72919 0.0
H3026 H 0.69039 0.94915 0.72509 0.0
H3027 H 0.74506 0.95425 0.75186 0.0
H3028 H 0.7628 0.89026 0.80649 0.0
H3029 H 0.7556 0.91418 0.78891 0.0
C3030 C 0.73522 0.9099 0.52806 0.0
C3031 C 0.74999 0.91858 0.5417 0.0
C3032 C 0.71999 0.91758 0.52641 0.0
C3033 C 0.6978 0.95186 0.55251 0.0
H3034 H 0.67639 0.95544 0.50208 0.0
C3035 C 0.65829 0.0075 0.53863 0.0
C3036 C 0.64229 1.00215 0.52607 0.0
C3037 C 0.66933 0.99497 0.54091 0.0
C3038 C 0.68206 0.9543 0.51625 0.0
H3039 H 0.76026 0.94201 0.56437 0.0
H3040 H 0.73414 0.95544 0.56128 0.0
H3041 H 0.69953 0.93741 0.50535 0.0
H3042 H 0.62525 0.97951 0.50605 0.0
H3043 H 0.64479 0.95755 0.50986 0.0
H3044 H 0.68086 0.96939 0.56336 0.0
C3045 C 0.73402 0.94255 0.55209 0.0
C3046 C 0.69528 0.94394 0.51814 0.0
C3047 C 0.74912 0.93489 0.55376 0.0
C3048 C 0.63747 0.98395 0.51591 0.0
C3049 C 0.64868 0.97145 0.51799 0.0
C3050 C 0.68473 0.96232 0.55061 0.0
C3051 C 0.71926 0.93406 0.53838 0.0
C3052 C 0.70363 0.94298 0.5363 0.0
C3053 C 0.66472 0.97686 0.53051 0.0
C3054 C 0.67702 0.964 0.53247 0.0
H3055 H 0.73546 0.8973 0.51857 0.0
H3056 H 0.7088 0.91061 0.51579 0.0
H3057 H 0.70361 0.95104 0.56672 0.0
H3058 H 0.66225 0.02141 0.54674 0.0
H3059 H 0.68171 0.99959 0.55051 0.0
C3060 C 0.38335 0.46157 0.75729 0.0
C3061 C 0.37965 0.47597 0.77019 0.0
C3062 C 0.37252 0.44363 0.75471 0.0
C3063 C 0.34046 0.41428 0.77977 0.0
H3064 H 0.33008 0.38094 0.73141 0.0
C3065 C 0.29159 0.34318 0.77036 0.0
C3066 C 0.29762 0.32795 0.76135 0.0
C3067 C 0.30073 0.36135 0.77003 0.0
C3068 C 0.33295 0.39009 0.74502 0.0
H3069 H 0.36104 0.48313 0.78953 0.0
H3070 H 0.34199 0.45225 0.78461 0.0
H3071 H 0.34758 0.41256 0.73315 0.0
H3072 H 0.31765 0.31998 0.74432 0.0
H3073 H 0.3335 0.35168 0.74373 0.0
H3074 H 0.3258 0.39191 0.79162 0.0
C3075 C 0.35357 0.4545 0.77699 0.0
C3076 C 0.34302 0.40819 0.74604 0.0
C3077 C 0.36446 0.47228 0.77973 0.0
C3078 C 0.31266 0.33136 0.75148 0.0
C3079 C 0.3217 0.34954 0.75103 0.0
C3080 C 0.33031 0.39631 0.77871 0.0
C3081 C 0.35768 0.43981 0.76483 0.0
C3082 C 0.34689 0.42053 0.76345 0.0
C3083 C 0.31601 0.36473 0.76055 0.0
C3084 C 0.32643 0.38399 0.76135 0.0
H3085 H 0.39498 0.46397 0.74976 0.0
H3086 H 0.37617 0.43265 0.74531 0.0
H3087 H 0.34352 0.42318 0.79353 0.0
H3088 H 0.28005 0.34109 0.77806 0.0
H3089 H 0.2959 0.3728 0.77731 0.0
C3090 C 0.19027 0.58549 0.2547 0.0
C3091 C 0.19243 0.57902 0.27221 0.0
C3092 C 0.1978 0.60381 0.25313 0.0
C3093 C 0.21486 0.65023 0.28166 0.0
H3094 H 0.23879 0.66036 0.23756 0.0
C3095 C 0.26065 0.7207 0.27782 0.0
C3096 C 0.25991 0.72733 0.26039 0.0
C3097 C 0.2509 0.7031 0.27921 0.0
C3098 C 0.2319 0.65779 0.24981 0.0
H3099 H 0.20435 0.58675 0.30179 0.0
H3100 H 0.21768 0.61871 0.29897 0.0
H3101 H 0.22517 0.62846 0.24018 0.0
H3102 H 0.24882 0.72096 0.23061 0.0
H3103 H 0.23155 0.69009 0.23296 0.0
H3104 H 0.22177 0.67958 0.29137 0.0
C3105 C 0.20994 0.60962 0.28653 0.0
C3106 C 0.22415 0.63952 0.25134 0.0
C3107 C 0.20241 0.59127 0.2881 0.0
C3108 C 0.24936 0.71613 0.24427 0.0
C3109 C 0.2396 0.6985 0.24561 0.0
C3110 C 0.22262 0.66852 0.28014 0.0
C3111 C 0.20767 0.61608 0.26904 0.0
C3112 C 0.21563 0.63553 0.26732 0.0
C3113 C 0.24044 0.69172 0.26306 0.0
C3114 C 0.23131 0.67247 0.26424 0.0
H3115 H 0.18265 0.57646 0.24216 0.0
H3116 H 0.19567 0.60844 0.23952 0.0
H3117 H 0.20814 0.6476 0.29401 0.0
H3118 H 0.26929 0.72878 0.29022 0.0
H3119 H 0.25214 0.69813 0.29274 0.0
C3120 C 0.4892 0.69877 0.47078 0.0
C3121 C 0.50025 0.70696 0.45819 0.0
C3122 C 0.49189 0.68258 0.47758 0.0
C3123 C 0.52459 0.65183 0.48279 0.0
H3124 H 0.48195 0.61457 0.48471 0.0
C3125 C 0.52856 0.57669 0.49366 0.0
C3126 C 0.51638 0.56712 0.50431 0.0
C3127 C 0.52678 0.59391 0.48875 0.0
C3128 C 0.49405 0.62482 0.48455 0.0
H3129 H 0.52335 0.70454 0.44354 0.0
H3130 H 0.52808 0.67637 0.45543 0.0
H3131 H 0.47912 0.64419 0.47547 0.0
H3132 H 0.49242 0.56809 0.51775 0.0
H3133 H 0.48941 0.5983 0.50952 0.0
H3134 H 0.53952 0.63244 0.4919 0.0
C3135 C 0.51731 0.68257 0.46013 0.0
C3136 C 0.49242 0.64195 0.47921 0.0
C3137 C 0.51459 0.6988 0.45328 0.0
C3138 C 0.50206 0.57507 0.50954 0.0
C3139 C 0.50031 0.59241 0.50471 0.0
C3140 C 0.52622 0.63469 0.48819 0.0
C3141 C 0.50575 0.67395 0.47206 0.0
C3142 C 0.50765 0.65576 0.47818 0.0
C3143 C 0.51271 0.6022 0.49429 0.0
C3144 C 0.51097 0.6208 0.48906 0.0
H3145 H 0.47805 0.70458 0.47503 0.0
H3146 H 0.48292 0.6767 0.48706 0.0
H3147 H 0.53666 0.66212 0.48248 0.0
H3148 H 0.53949 0.57078 0.48895 0.0
H3149 H 0.53639 0.60061 0.48035 0.0
C3150 C 0.62462 0.30497 0.63824 0.0
C3151 C 0.60771 0.29404 0.63949 0.0
C3152 C 0.64015 0.30203 0.6483 0.0
C3153 C 0.65725 0.26746 0.67481 0.0
H3154 H 0.69572 0.30973 0.69574 0.0
C3155 C 0.71541 0.2637 0.73147 0.0
C3156 C 0.73284 0.27238 0.72883 0.0
C3157 C 0.70045 0.26598 0.71991 0.0
C3158 C 0.68516 0.29775 0.68985 0.0
H3159 H 0.59399 0.27142 0.65245 0.0
H3160 H 0.62076 0.26666 0.67029 0.0
H3161 H 0.66925 0.31442 0.67699 0.0
H3162 H 0.74804 0.29038 0.71186 0.0
H3163 H 0.72195 0.29447 0.69191 0.0
H3164 H 0.67305 0.25092 0.6882 0.0
C3165 C 0.62224 0.27722 0.66118 0.0
C3166 C 0.66995 0.30041 0.67899 0.0
C3167 C 0.60677 0.28004 0.65099 0.0
C3168 C 0.73487 0.28339 0.7143 0.0
C3169 C 0.71989 0.28587 0.70292 0.0
C3170 C 0.67235 0.26485 0.68586 0.0
C3171 C 0.63921 0.28818 0.66006 0.0
C3172 C 0.6557 0.28531 0.67131 0.0
C3173 C 0.70248 0.27719 0.70557 0.0
C3174 C 0.6865 0.27995 0.69356 0.0
H3175 H 0.62589 0.31584 0.62948 0.0
H3176 H 0.65292 0.31057 0.64672 0.0
H3177 H 0.64684 0.25538 0.66887 0.0
H3178 H 0.71328 0.2551 0.74247 0.0
H3179 H 0.68724 0.25921 0.72244 0.0
C3180 C 0.98945 0.31056 0.97241 0.0
C3181 C 0.99734 0.30352 0.95674 0.0
C3182 C 0.99292 0.32973 0.97926 0.0
C3183 C 0.00622 0.37528 0.96358 0.0
H3184 H 0.0145 0.39517 0.0176 0.0
C3185 C 0.00574 0.45231 0.99281 0.0
C3186 C 0.01985 0.46176 0.00693 0.0
C3187 C 1.00298 0.43301 0.98708 0.0
C3188 C 0.01224 0.38986 0.00246 0.0
H3189 H 0.0154 0.31144 0.93625 0.0
H3190 H 0.0213 0.3448 0.94807 0.0
H3191 H 0.01051 0.36168 0.00716 0.0
H3192 H 0.04194 0.45826 0.02627 0.0
H3193 H 0.037 0.42459 0.01648 0.0
H3194 H 0.0078 0.40342 0.95888 0.0
C3195 C 0.0124 0.33544 0.95507 0.0
C3196 C 0.00984 0.37062 0.99646 0.0
C3197 C 0.00914 0.31624 0.9484 0.0
C3198 C 0.03099 0.45141 0.01532 0.0
C3199 C 0.02807 0.43208 0.0098 0.0
C3200 C 0.00834 0.39447 0.96958 0.0
C3201 C 0.00418 0.34249 0.97046 0.0
C3202 C 0.00688 0.36305 0.97693 0.0
C3203 C 0.01413 0.42261 0.99547 0.0
C3204 C 0.01146 0.40206 0.98911 0.0
H3205 H 0.98026 0.30128 0.9792 0.0
H3206 H 0.98628 0.33461 0.99106 0.0
H3207 H 0.00379 0.36997 0.94844 0.0
H3208 H 0.99701 0.4599 0.98594 0.0
H3209 H 0.99202 0.4262 0.97613 0.0
C3210 C 0.98661 0.77183 0.12889 0.0
C3211 C 1.0026 0.77036 0.13928 0.0
C3212 C 0.97036 0.76814 0.13645 0.0
C3213 C 0.94829 0.74707 0.17518 0.0
H3214 H 0.91513 0.77869 0.16519 0.0
C3215 C 0.88572 0.74871 0.21469 0.0
C3216 C 0.86964 0.74784 0.20308 0.0
C3217 C 0.90207 0.75139 0.20716 0.0
C3218 C 0.9242 0.76966 0.16801 0.0
H3219 H 0.01394 0.76343 0.16565 0.0
H3220 H 0.98572 0.75743 0.17904 0.0
H3221 H 0.94317 0.78281 0.1514 0.0
H3222 H 0.85817 0.74963 0.17462 0.0
H3223 H 0.88668 0.75449 0.16155 0.0
H3224 H 0.92932 0.73424 0.19217 0.0
C3225 C 0.98562 0.76108 0.16487 0.0
C3226 C 0.94027 0.77194 0.16001 0.0
C3227 C 1.00186 0.76458 0.1572 0.0
C3228 C 0.87032 0.7501 0.18389 0.0
C3229 C 0.88666 0.75301 0.17644 0.0
C3230 C 0.93227 0.74494 0.18335 0.0
C3231 C 0.96967 0.7631 0.15472 0.0
C3232 C 0.95252 0.7606 0.16336 0.0
C3233 C 0.90271 0.75353 0.18794 0.0
C3234 C 0.92 0.75614 0.17976 0.0
H3235 H 0.98665 0.77619 0.11504 0.0
H3236 H 0.95834 0.76941 0.12797 0.0
H3237 H 0.95722 0.7379 0.17791 0.0
H3238 H 0.8856 0.74689 0.22949 0.0
H3239 H 0.91423 0.75188 0.21641 0.0
C3240 C 0.50482 0.29795 0.12289 0.0
C3241 C 0.51503 0.29558 0.13947 0.0
C3242 C 0.51043 0.31294 0.11341 0.0
C3243 C 0.5497 0.34981 0.10892 0.0
H3244 H 0.51329 0.37473 0.09037 0.0
C3245 C 0.56907 0.41981 0.08251 0.0
C3246 C 0.55962 0.42202 0.0654 0.0
C3247 C 0.56289 0.40494 0.09189 0.0
C3248 C 0.52361 0.36785 0.09529 0.0
H3249 H 0.53959 0.30693 0.15862 0.0
H3250 H 0.54936 0.33315 0.14215 0.0
H3251 H 0.50471 0.34729 0.10542 0.0
H3252 H 0.53575 0.41086 0.04527 0.0
H3253 H 0.52482 0.38475 0.06172 0.0
H3254 H 0.56859 0.37038 0.09887 0.0
C3255 C 0.53702 0.32329 0.13638 0.0
C3256 C 0.5187 0.35205 0.10391 0.0
C3257 C 0.53142 0.30821 0.14585 0.0
C3258 C 0.54325 0.40959 0.05848 0.0
C3259 C 0.53704 0.39461 0.0679 0.0
C3260 C 0.5546 0.3656 0.10036 0.0
C3261 C 0.52641 0.32607 0.12024 0.0
C3262 C 0.53167 0.3428 0.11086 0.0
C3263 C 0.54708 0.3918 0.08443 0.0
C3264 C 0.54165 0.3749 0.09348 0.0
H3265 H 0.49219 0.28844 0.11742 0.0
H3266 H 0.50211 0.31431 0.10079 0.0
H3267 H 0.56004 0.34293 0.11379 0.0
H3268 H 0.58162 0.42932 0.08833 0.0
H3269 H 0.57073 0.40356 0.10484 0.0
C3270 C 0.97525 0.30555 0.30752 0.0
C3271 C 0.98027 0.29886 0.32432 0.0
C3272 C 0.95703 0.30451 0.30113 0.0
C3273 C 0.91071 0.27991 0.30843 0.0
H3274 H 0.8948 0.31662 0.2814 0.0
C3275 C 0.83568 0.28313 0.29588 0.0
C3276 C 0.82874 0.28582 0.27772 0.0
C3277 C 0.85418 0.28504 0.30086 0.0
C3278 C 0.89902 0.30616 0.28883 0.0
H3279 H 0.9696 0.28596 0.34748 0.0
H3280 H 0.93864 0.2851 0.33721 0.0
H3281 H 0.92678 0.31966 0.29129 0.0
H3282 H 0.83623 0.29211 0.25049 0.0
H3283 H 0.86844 0.29614 0.25934 0.0
H3284 H 0.88298 0.26665 0.30634 0.0
C3285 C 0.94851 0.29066 0.32846 0.0
C3286 C 0.91745 0.30786 0.29447 0.0
C3287 C 0.96655 0.29148 0.33463 0.0
C3288 C 0.84098 0.29049 0.26474 0.0
C3289 C 0.85952 0.29269 0.26981 0.0
C3290 C 0.89236 0.27836 0.30303 0.0
C3291 C 0.94329 0.29682 0.31142 0.0
C3292 C 0.92364 0.29485 0.30456 0.0
C3293 C 0.86642 0.28986 0.28792 0.0
C3294 C 0.88617 0.2915 0.29326 0.0
H3295 H 0.98535 0.3112 0.29905 0.0
H3296 H 0.95374 0.30932 0.28787 0.0
H3297 H 0.91471 0.26918 0.31558 0.0
H3298 H 0.82682 0.27955 0.30636 0.0
H3299 H 0.85892 0.2829 0.315 0.0
C3300 C 0.98743 0.69765 0.63008 0.0
C3301 C 0.99847 0.70683 0.64695 0.0
C3302 C 0.99052 0.68123 0.62007 0.0
C3303 C 0.99392 0.64182 0.60572 0.0
H3304 H 0.04271 0.63628 0.60292 0.0
C3305 C 0.01013 0.57387 0.56735 0.0
C3306 C 0.02507 0.57558 0.55721 0.0
C3307 C 0.00683 0.5893 0.57908 0.0
C3308 C 0.02897 0.6376 0.60337 0.0
H3309 H 0.02136 0.70553 0.66656 0.0
H3310 H 0.02653 0.67673 0.64936 0.0
H3311 H 0.0371 0.66407 0.62143 0.0
H3312 H 0.04811 0.59524 0.55145 0.0
H3313 H 0.04212 0.62199 0.57126 0.0
H3314 H 0.98581 0.61568 0.58707 0.0
C3315 C 0.01563 0.68243 0.64363 0.0
C3316 C 0.02573 0.65351 0.61429 0.0
C3317 C 0.01259 0.69894 0.65362 0.0
C3318 C 0.0365 0.59323 0.55904 0.0
C3319 C 0.03314 0.60865 0.57063 0.0
C3320 C 0.99716 0.62595 0.59472 0.0
C3321 C 0.00469 0.67334 0.62662 0.0
C3322 C 0.00815 0.65596 0.61555 0.0
C3323 C 0.01829 0.60697 0.58091 0.0
C3324 C 0.01475 0.62363 0.59324 0.0
H3325 H 0.97647 0.70327 0.62436 0.0
H3326 H 0.98195 0.67496 0.60691 0.0
H3327 H 0.98017 0.64295 0.60651 0.0
H3328 H 1.00091 0.56058 0.56621 0.0
H3329 H 0.99535 0.58731 0.58686 0.0
C3330 C 0.59962 0.80407 0.83496 0.0
C3331 C 0.58526 0.79432 0.82121 0.0
C3332 C 0.61753 0.80541 0.83123 0.0
C3333 C 0.64556 0.79968 0.7911 0.0
H3334 H 0.68132 0.79402 0.83063 0.0
C3335 C 0.72012 0.80305 0.77807 0.0
C3336 C 0.7285 0.78987 0.78541 0.0
C3337 C 0.70336 0.80551 0.78319 0.0
C3338 C 0.67152 0.79556 0.81935 0.0
H3339 H 0.57884 0.77865 0.79254 0.0
H3340 H 0.6096 0.78098 0.78614 0.0
H3341 H 0.65099 0.79468 0.83787 0.0
H3342 H 0.72616 0.76969 0.80469 0.0
H3343 H 0.69714 0.77376 0.81341 0.0
H3344 H 0.66593 0.80007 0.77245 0.0
C3345 C 0.60719 0.78776 0.79979 0.0
C3346 C 0.65409 0.79617 0.8236 0.0
C3347 C 0.58941 0.78631 0.80355 0.0
C3348 C 0.72001 0.77977 0.79853 0.0
C3349 C 0.70336 0.78227 0.80371 0.0
C3350 C 0.663 0.79917 0.78689 0.0
C3351 C 0.62163 0.79721 0.81356 0.0
C3352 C 0.6407 0.79797 0.80948 0.0
C3353 C 0.6946 0.79502 0.79598 0.0
C3354 C 0.67625 0.79685 0.80086 0.0
H3355 H 0.59704 0.81039 0.84873 0.0
H3356 H 0.62819 0.81295 0.84219 0.0
H3357 H 0.63582 0.80135 0.77984 0.0
H3358 H 0.72631 0.81117 0.76804 0.0
H3359 H 0.69727 0.81568 0.77712 0.0
C3360 C 0.43914 0.51375 0.69468 0.0
C3361 C 0.43057 0.52824 0.70037 0.0
C3362 C 0.44572 0.51217 0.67702 0.0
C3363 C 0.45949 0.5407 0.63985 0.0
H3364 H 0.46244 0.49322 0.61163 0.0
C3365 C 0.48562 0.53315 0.56617 0.0
C3366 C 0.49852 0.52225 0.5644 0.0
C3367 C 0.47611 0.53342 0.58195 0.0
C3368 C 0.46174 0.50657 0.61941 0.0
H3369 H 0.42127 0.55179 0.69154 0.0
H3370 H 0.43207 0.54864 0.6605 0.0
H3371 H 0.44718 0.49408 0.64013 0.0
H3372 H 0.51152 0.50299 0.57753 0.0
H3373 H 0.49476 0.50329 0.60502 0.0
H3374 H 0.4739 0.55311 0.61892 0.0
C3375 C 0.43432 0.53885 0.6699 0.0
C3376 C 0.45306 0.5071 0.6358 0.0
C3377 C 0.42797 0.54058 0.68765 0.0
C3378 C 0.50168 0.51155 0.5786 0.0
C3379 C 0.49199 0.51161 0.59423 0.0
C3380 C 0.46796 0.54014 0.62334 0.0
C3381 C 0.44367 0.5249 0.66451 0.0
C3382 C 0.45198 0.52419 0.64638 0.0
C3383 C 0.47917 0.52261 0.59612 0.0
C3384 C 0.46935 0.5231 0.61307 0.0
H3385 H 0.44146 0.50407 0.7042 0.0
H3386 H 0.45301 0.50137 0.67355 0.0
H3387 H 0.45929 0.55414 0.64776 0.0
H3388 H 0.48301 0.54158 0.55543 0.0
H3389 H 0.46626 0.54197 0.58301 0.0
C3390 C 0.78041 0.1914 0.97888 0.0
C3391 C 0.77098 0.17413 0.98217 0.0
C3392 C 0.77261 0.20126 0.96636 0.0
C3393 C 0.72952 0.20338 0.93886 0.0
H3394 H 0.76057 0.22204 0.90287 0.0
C3395 C 0.70475 0.21265 0.86268 0.0
C3396 C 0.71455 0.22708 0.85468 0.0
C3397 C 0.71025 0.20995 0.88113 0.0
C3398 C 0.75177 0.21728 0.91301 0.0
H3399 H 0.74564 0.15406 0.97548 0.0
H3400 H 0.73226 0.17101 0.95333 0.0
H3401 H 0.77304 0.21031 0.93003 0.0
H3402 H 0.73674 0.25101 0.86025 0.0
H3403 H 0.74633 0.2463 0.89248 0.0
H3404 H 0.7081 0.20967 0.92118 0.0
C3405 C 0.74557 0.17712 0.96064 0.0
C3406 C 0.75894 0.21055 0.92863 0.0
C3407 C 0.75331 0.16731 0.97326 0.0
C3408 C 0.72916 0.23955 0.86595 0.0
C3409 C 0.73464 0.23686 0.88437 0.0
C3410 C 0.72232 0.21006 0.92314 0.0
C3411 C 0.75526 0.19402 0.95675 0.0
C3412 C 0.74786 0.20318 0.94154 0.0
C3413 C 0.72562 0.22165 0.8919 0.0
C3414 C 0.73334 0.21676 0.90987 0.0
H3415 H 0.79396 0.19717 0.98569 0.0
H3416 H 0.78032 0.21441 0.96393 0.0
H3417 H 0.72068 0.19806 0.94871 0.0
H3418 H 0.69351 0.20277 0.85428 0.0
H3419 H 0.70311 0.19802 0.88647 0.0
C3420 C 0.15133 0.52763 0.18128 0.0
C3421 C 0.1476 0.5409 0.19546 0.0
C3422 C 0.14586 0.52768 0.16207 0.0
C3423 C 0.12496 0.5539 0.12842 0.0
H3424 H 0.09776 0.50468 0.10607 0.0
C3425 C 0.05964 0.54038 0.07794 0.0
C3426 C 0.0554 0.52461 0.06382 0.0
C3427 C 0.0756 0.54406 0.09026 0.0
C3428 C 0.10561 0.51846 0.11177 0.0
H3429 H 0.13663 0.56558 0.20059 0.0
H3430 H 0.12662 0.56535 0.16722 0.0
H3431 H 0.11854 0.5085 0.13471 0.0
H3432 H 0.0639 0.50013 0.0514 0.0
H3433 H 0.0921 0.5067 0.07262 0.0
H3434 H 0.1111 0.56388 0.10588 0.0
C3435 C 0.13396 0.55503 0.17081 0.0
C3436 C 0.11759 0.52067 0.12824 0.0
C3437 C 0.13955 0.55506 0.19 0.0
C3438 C 0.06726 0.51264 0.06194 0.0
C3439 C 0.08326 0.51632 0.07417 0.0
C3440 C 0.1129 0.55169 0.1119 0.0
C3441 C 0.13644 0.54092 0.1567 0.0
C3442 C 0.12691 0.53847 0.13716 0.0
C3443 C 0.08741 0.53185 0.08875 0.0
C3444 C 0.10265 0.53401 0.10382 0.0
H3445 H 0.15782 0.51673 0.18504 0.0
H3446 H 0.14829 0.51685 0.15149 0.0
H3447 H 0.13218 0.56776 0.13479 0.0
H3448 H 0.05043 0.54961 0.07971 0.0
H3449 H 0.07822 0.55592 0.10157 0.0
C3450 C 0.80527 0.83501 0.47674 0.0
C3451 C 0.79739 0.84983 0.48333 0.0
C3452 C 0.80215 0.82689 0.45751 0.0
C3453 C 0.7902 0.83758 0.40984 0.0
H3454 H 0.78376 0.78444 0.39395 0.0
C3455 C 0.79599 0.8051 0.33263 0.0
C3456 C 0.78294 0.78919 0.32448 0.0
C3457 C 0.7973 0.81222 0.35205 0.0
C3458 C 0.78545 0.79931 0.39814 0.0
H3459 H 0.77958 0.86732 0.47484 0.0
H3460 H 0.77414 0.8531 0.44121 0.0
H3461 H 0.78564 0.79695 0.42776 0.0
H3462 H 0.76106 0.7682 0.3303 0.0
H3463 H 0.7633 0.78063 0.36413 0.0
H3464 H 0.79002 0.83993 0.38021 0.0
C3465 C 0.78285 0.84789 0.45098 0.0
C3466 C 0.78666 0.80648 0.41753 0.0
C3467 C 0.78584 0.85592 0.47029 0.0
C3468 C 0.77126 0.78051 0.33616 0.0
C3469 C 0.77262 0.78755 0.35558 0.0
C3470 C 0.78914 0.83042 0.39046 0.0
C3471 C 0.79118 0.83345 0.44432 0.0
C3472 C 0.78908 0.82571 0.42363 0.0
C3473 C 0.7856 0.80354 0.36376 0.0
C3474 C 0.78679 0.81119 0.38438 0.0
H3475 H 0.81422 0.82992 0.48636 0.0
H3476 H 0.80888 0.81589 0.45286 0.0
H3477 H 0.79226 0.85248 0.41407 0.0
H3478 H 0.805 0.81224 0.32394 0.0
H3479 H 0.80754 0.82448 0.35794 0.0
C3480 C 0.44508 0.52743 0.8287 0.0
C3481 C 0.44981 0.51904 0.81162 0.0
C3482 C 0.45415 0.52636 0.84624 0.0
C3483 C 0.48392 0.50112 0.87069 0.0
H3484 H 0.49373 0.54605 0.90818 0.0
C3485 C 0.52545 0.5106 0.94597 0.0
C3486 C 0.5173 0.51829 0.96107 0.0
C3487 C 0.51829 0.50981 0.92698 0.0
C3488 C 0.49104 0.53337 0.89788 0.0
H3489 H 0.4676 0.50258 0.7996 0.0
H3490 H 0.48369 0.50092 0.83041 0.0
H3491 H 0.47923 0.54612 0.8764 0.0
H3492 H 0.49514 0.53112 0.96792 0.0
H3493 H 0.48296 0.52995 0.93507 0.0
H3494 H 0.49588 0.48847 0.89246 0.0
C3495 C 0.47278 0.50816 0.83017 0.0
C3496 C 0.48266 0.53338 0.87969 0.0
C3497 C 0.46361 0.50917 0.81252 0.0
C3498 C 0.50186 0.52513 0.95674 0.0
C3499 C 0.49487 0.52453 0.93787 0.0
C3500 C 0.49245 0.50115 0.88897 0.0
C3501 C 0.46834 0.51704 0.84721 0.0
C3502 C 0.4786 0.51715 0.866 0.0
C3503 C 0.50305 0.51701 0.92279 0.0
C3504 C 0.49571 0.51719 0.90285 0.0
H3505 H 0.43461 0.53521 0.82861 0.0
H3506 H 0.4501 0.53301 0.8591 0.0
H3507 H 0.48095 0.48838 0.86049 0.0
H3508 H 0.5375 0.50549 0.94876 0.0
H3509 H 0.52492 0.50403 0.9156 0.0
C3510 C 0.80492 0.18168 0.08102 0.0
C3511 C 0.79115 0.16779 0.07014 0.0
C3512 C 0.80286 0.18959 0.09935 0.0
C3513 C 0.79882 0.19646 0.14144 0.0
H3514 H 0.75445 0.21189 0.14958 0.0
C3515 C 0.78542 0.23009 0.21527 0.0
C3516 C 0.77819 0.24602 0.2152 0.0
C3517 C 0.7863 0.21888 0.19812 0.0
C3518 C 0.76691 0.20765 0.14751 0.0
H3519 H 0.76439 0.15136 0.07005 0.0
H3520 H 0.76086 0.1652 0.1021 0.0
H3521 H 0.75757 0.19552 0.11844 0.0
H3522 H 0.76612 0.26258 0.19703 0.0
H3523 H 0.76781 0.24316 0.1673 0.0
H3524 H 0.80836 0.20912 0.17035 0.0
C3525 C 0.7732 0.16999 0.09635 0.0
C3526 C 0.76863 0.19813 0.12975 0.0
C3527 C 0.77527 0.16202 0.07802 0.0
C3528 C 0.77176 0.25041 0.19765 0.0
C3529 C 0.7726 0.2392 0.18058 0.0
C3530 C 0.79708 0.20594 0.15923 0.0
C3531 C 0.78699 0.18384 0.1072 0.0
C3532 C 0.78471 0.1927 0.12644 0.0
C3533 C 0.77989 0.22335 0.18062 0.0
C3534 C 0.78121 0.21189 0.16233 0.0
H3535 H 0.81734 0.18646 0.07542 0.0
H3536 H 0.81362 0.20044 0.10726 0.0
H3537 H 0.81129 0.19223 0.13935 0.0
H3538 H 0.79045 0.22629 0.22854 0.0
H3539 H 0.79189 0.20666 0.19856 0.0
C3540 C 0.13727 0.53097 0.31365 0.0
C3541 C 0.13199 0.53601 0.29608 0.0
C3542 C 0.13085 0.53787 0.33017 0.0
C3543 C 0.11195 0.57625 0.35135 0.0
H3544 H 0.09899 0.54344 0.38795 0.0
C3545 C 0.08373 0.5987 0.4216 0.0
C3546 C 0.09095 0.59266 0.43785 0.0
C3547 C 0.08772 0.59215 0.40352 0.0
C3548 C 0.10267 0.5528 0.37791 0.0
H3549 H 0.11572 0.55213 0.28197 0.0
H3550 H 0.10437 0.56414 0.31095 0.0
H3551 H 0.10735 0.53095 0.35755 0.0
H3552 H 0.10865 0.57579 0.44809 0.0
H3553 H 0.1156 0.5644 0.41664 0.0
H3554 H 0.10742 0.59815 0.37192 0.0
C3555 C 0.11362 0.55497 0.31191 0.0
C3556 C 0.10744 0.54565 0.36052 0.0
C3557 C 0.12003 0.54801 0.29533 0.0
C3558 C 0.1026 0.58038 0.43577 0.0
C3559 C 0.10656 0.57384 0.41777 0.0
C3560 C 0.10713 0.58342 0.3688 0.0
C3561 C 0.11897 0.54994 0.32949 0.0
C3562 C 0.11245 0.55735 0.3472 0.0
C3563 C 0.09898 0.57945 0.40145 0.0
C3564 C 0.10278 0.5718 0.38238 0.0
H3565 H 0.14638 0.52166 0.3147 0.0
H3566 H 0.13541 0.53395 0.34355 0.0
H3567 H 0.11588 0.58562 0.3414 0.0
H3568 H 0.0746 0.60806 0.42279 0.0
H3569 H 0.08165 0.59663 0.39115 0.0
C3570 C 0.79753 0.83409 0.58317 0.0
C3571 C 0.78956 0.84827 0.57758 0.0
C3572 C 0.79384 0.82708 0.59989 0.0
C3573 C 0.76406 0.82584 0.63811 0.0
H3574 H 0.80671 0.82018 0.66839 0.0
C3575 C 0.76575 0.81231 0.71689 0.0
C3576 C 0.77487 0.7985 0.72119 0.0
C3577 C 0.76668 0.81876 0.69935 0.0
C3578 C 0.79463 0.82155 0.66007 0.0
H3579 H 0.7705 0.86532 0.58456 0.0
H3580 H 0.76421 0.8532 0.6139 0.0
H3581 H 0.80891 0.8294 0.63718 0.0
H3582 H 0.792 0.78057 0.7106 0.0
H3583 H 0.79365 0.79174 0.68022 0.0
H3584 H 0.74987 0.81806 0.66129 0.0
C3585 C 0.77325 0.84742 0.60527 0.0
C3586 C 0.79587 0.82675 0.6421 0.0
C3587 C 0.77684 0.85436 0.58842 0.0
C3588 C 0.78491 0.79129 0.70772 0.0
C3589 C 0.78593 0.79777 0.69034 0.0
C3590 C 0.76283 0.82065 0.65619 0.0
C3591 C 0.78222 0.83418 0.61155 0.0
C3592 C 0.78058 0.82874 0.63076 0.0
C3593 C 0.77684 0.81157 0.68591 0.0
C3594 C 0.77809 0.81823 0.66726 0.0
H3595 H 0.80722 0.82891 0.57504 0.0
H3596 H 0.80059 0.81649 0.60399 0.0
H3597 H 0.75202 0.82722 0.62974 0.0
H3598 H 0.7577 0.8179 0.72693 0.0
H3599 H 0.75959 0.82945 0.69637 0.0
C3600 C 0.7406 0.47395 0.46738 0.0
C3601 C 0.74139 0.46033 0.47909 0.0
C3602 C 0.72553 0.48176 0.46571 0.0
C3603 C 0.70132 0.50622 0.48151 0.0
H3604 H 0.65309 0.48016 0.48525 0.0
C3605 C 0.64647 0.5441 0.5065 0.0
C3606 C 0.63808 0.53658 0.52123 0.0
C3607 C 0.65718 0.53444 0.49601 0.0
C3608 C 0.66647 0.48762 0.48409 0.0
H3609 H 0.72642 0.44295 0.49671 0.0
H3610 H 0.70031 0.45658 0.49393 0.0
H3611 H 0.67494 0.46258 0.47452 0.0
H3612 H 0.63473 0.51328 0.53679 0.0
H3613 H 0.6532 0.49646 0.51847 0.0
H3614 H 0.69306 0.53117 0.49194 0.0
C3615 C 0.71123 0.46128 0.486 0.0
C3616 C 0.67895 0.47757 0.47794 0.0
C3617 C 0.72629 0.45356 0.48774 0.0
C3618 C 0.64069 0.51929 0.52529 0.0
C3619 C 0.65123 0.50961 0.51474 0.0
C3620 C 0.6888 0.51627 0.4876 0.0
C3621 C 0.71096 0.47597 0.47558 0.0
C3622 C 0.69672 0.48669 0.4774 0.0
C3623 C 0.65954 0.51704 0.49998 0.0
C3624 C 0.6715 0.50697 0.48974 0.0
H3625 H 0.75199 0.47935 0.4604 0.0
H3626 H 0.72559 0.4929 0.45738 0.0
H3627 H 0.71494 0.51366 0.48142 0.0
H3628 H 0.64454 0.5573 0.50288 0.0
H3629 H 0.66349 0.54048 0.48471 0.0
C3630 C 0.22454 0.10457 0.49637 0.0
C3631 C 0.22917 0.12394 0.49714 0.0
C3632 C 0.20687 0.09564 0.49686 0.0
C3633 C 0.16035 0.09931 0.4873 0.0
H3634 H 0.15188 0.06497 0.5234 0.0
C3635 C 0.08924 0.06694 0.50219 0.0
C3636 C 0.08585 0.04863 0.50612 0.0
C3637 C 0.10656 0.07608 0.50039 0.0
C3638 C 0.15399 0.07425 0.51301 0.0
H3639 H 0.21879 0.14908 0.49851 0.0
H3640 H 0.18766 0.13329 0.49907 0.0
H3641 H 0.1823 0.0812 0.52144 0.0
H3642 H 0.09804 0.02541 0.51066 0.0
H3643 H 0.12814 0.04112 0.50686 0.0
H3644 H 0.13211 0.09211 0.47855 0.0
C3645 C 0.19784 0.12513 0.49819 0.0
C3646 C 0.17143 0.08363 0.51198 0.0
C3647 C 0.21563 0.13414 0.49794 0.0
C3648 C 0.10015 0.03953 0.50774 0.0
C3649 C 0.11747 0.04862 0.50571 0.0
C3650 C 0.1429 0.08976 0.48817 0.0
C3651 C 0.19337 0.10582 0.4979 0.0
C3652 C 0.17478 0.09622 0.49912 0.0
C3653 C 0.12093 0.06709 0.50224 0.0
C3654 C 0.1395 0.0771 0.50104 0.0
H3655 H 0.23462 0.09627 0.49573 0.0
H3656 H 0.20374 0.08071 0.49639 0.0
H3657 H 0.16261 0.10882 0.47713 0.0
H3658 H 0.07858 0.07444 0.50094 0.0
H3659 H 0.10873 0.09038 0.49801 0.0
C3660 C 0.16797 0.98726 0.75288 0.0
C3661 C 0.17397 0.99479 0.77214 0.0
C3662 C 0.1754 0.97335 0.74356 0.0
C3663 C 0.21331 0.94918 0.74827 0.0
H3664 H 0.17837 0.90605 0.72156 0.0
C3665 C 0.225 0.87529 0.74313 0.0
C3666 C 0.22034 0.86338 0.7255 0.0
C3667 C 0.22057 0.89266 0.74554 0.0
C3668 C 0.18832 0.9181 0.72868 0.0
H3669 H 0.19324 0.99439 0.79631 0.0
H3670 H 0.20591 0.97012 0.78026 0.0
H3671 H 0.16893 0.935 0.73127 0.0
H3672 H 0.20723 0.86044 0.69658 0.0
H3673 H 0.19898 0.89073 0.70107 0.0
H3674 H 0.23248 0.9319 0.74654 0.0
C3675 C 0.1956 0.975 0.77222 0.0
C3676 C 0.18295 0.93471 0.73419 0.0
C3677 C 0.18821 0.98886 0.78151 0.0
C3678 C 0.21086 0.86918 0.71041 0.0
C3679 C 0.20623 0.88654 0.71291 0.0
C3680 C 0.21863 0.93254 0.7429 0.0
C3681 C 0.18901 0.96675 0.75329 0.0
C3682 C 0.19529 0.95027 0.74456 0.0
C3683 C 0.21118 0.89848 0.73047 0.0
C3684 C 0.20608 0.91671 0.73356 0.0
H3685 H 0.1571 0.99159 0.74518 0.0
H3686 H 0.1702 0.96745 0.72888 0.0
H3687 H 0.22322 0.96102 0.75587 0.0
H3688 H 0.23189 0.87112 0.75522 0.0
H3689 H 0.22419 0.90142 0.75937 0.0
C3690 C 0.3429 0.97103 0.03664 0.0
C3691 C 0.33197 0.96863 0.01922 0.0
C3692 C 0.3607 0.98046 0.03865 0.0
C3693 C 0.39477 0.00909 0.01455 0.0
H3694 H 0.42705 0.98762 0.0453 0.0
C3695 C 0.47147 0.03547 0.0219 0.0
C3696 C 0.48162 0.02171 0.0213 0.0
C3697 C 0.45328 0.03103 0.02399 0.0
C3698 C 0.41827 0.99372 0.03654 0.0
H3699 H 0.33069 0.97456 0.99035 0.0
H3700 H 0.36226 0.99021 0.99338 0.0
H3701 H 0.39513 0.97617 0.04342 0.0
H3702 H 0.48087 0.99264 0.02253 0.0
H3703 H 0.44924 0.98476 0.02568 0.0
H3704 H 0.41813 0.0257 0.0066 0.0
C3705 C 0.35698 0.98538 0.00577 0.0
C3706 C 0.39985 0.98737 0.03571 0.0
C3707 C 0.33893 0.97634 0.00394 0.0
C3708 C 0.47343 0.00359 0.02326 0.0
C3709 C 0.45526 0.9991 0.02512 0.0
C3710 C 0.41327 0.01524 0.01511 0.0
C3711 C 0.36819 0.98719 0.02307 0.0
C3712 C 0.38781 0.99486 0.0246 0.0
C3713 C 0.44487 0.0127 0.02528 0.0
C3714 C 0.42525 0.00744 0.02593 0.0
H3715 H 0.3377 0.96542 0.04873 0.0
H3716 H 0.36867 0.98211 0.05238 0.0
H3717 H 0.38595 0.01539 0.00607 0.0
H3718 H 0.47752 0.04959 0.02046 0.0
H3719 H 0.44578 0.04192 0.02439 0.0
C3720 C 0.82692 0.56272 0.79148 0.0
C3721 C 0.83683 0.55128 0.78191 0.0
C3722 C 0.81662 0.57248 0.78127 0.0
C3723 C 0.81611 0.59201 0.737 0.0
H3724 H 0.77341 0.60633 0.7533 0.0
C3725 C 0.78784 0.65078 0.70858 0.0
C3726 C 0.78571 0.66432 0.72348 0.0
C3727 C 0.7903 0.63342 0.71233 0.0
C3728 C 0.78524 0.60228 0.74848 0.0
H3729 H 0.84263 0.53988 0.75407 0.0
H3730 H 0.82444 0.55663 0.7363 0.0
H3731 H 0.78427 0.58134 0.76635 0.0
H3732 H 0.78487 0.6704 0.75402 0.0
H3733 H 0.78882 0.64024 0.7604 0.0
H3734 H 0.81746 0.61343 0.71971 0.0
C3735 C 0.825 0.55849 0.75169 0.0
C3736 C 0.79148 0.58808 0.75599 0.0
C3737 C 0.83541 0.5489 0.76189 0.0
C3738 C 0.78596 0.66013 0.74211 0.0
C3739 C 0.78821 0.64282 0.74579 0.0
C3740 C 0.8098 0.60614 0.72942 0.0
C3741 C 0.81591 0.57079 0.7613 0.0
C3742 C 0.80736 0.58328 0.75087 0.0
C3743 C 0.7905 0.62935 0.73099 0.0
C3744 C 0.79472 0.61187 0.73567 0.0
H3745 H 0.82772 0.56478 0.8069 0.0
H3746 H 0.80994 0.58203 0.78913 0.0
H3747 H 0.82849 0.5888 0.73289 0.0
H3748 H 0.78758 0.65357 0.69406 0.0
H3749 H 0.79211 0.62323 0.7007 0.0
C3750 C 0.84024 0.65045 0.02305 0.0
C3751 C 0.8228 0.6411 0.02463 0.0
C3752 C 0.85495 0.64304 0.02847 0.0
C3753 C 0.86887 0.60736 0.05501 0.0
H3754 H 0.90693 0.61153 0.02278 0.0
C3755 C 0.92445 0.56509 0.05874 0.0
C3756 C 0.94203 0.57531 0.05939 0.0
C3757 C 0.90986 0.57321 0.05485 0.0
C3758 C 0.89645 0.61037 0.03198 0.0
H3759 H 0.80712 0.61685 0.03353 0.0
H3760 H 0.83265 0.6037 0.0425 0.0
H3761 H 0.88169 0.62591 0.01602 0.0
H3762 H 0.95814 0.60183 0.056 0.0
H3763 H 0.93266 0.61597 0.04904 0.0
H3764 H 0.88357 0.5914 0.07066 0.0
C3765 C 0.83508 0.61695 0.03746 0.0
C3766 C 0.88202 0.6187 0.02819 0.0
C3767 C 0.8204 0.62446 0.03223 0.0
C3768 C 0.94473 0.59369 0.05576 0.0
C3769 C 0.93016 0.60173 0.05164 0.0
C3770 C 0.88323 0.59886 0.05867 0.0
C3771 C 0.85254 0.626 0.03538 0.0
C3772 C 0.86805 0.61736 0.03969 0.0
C3773 C 0.91259 0.59162 0.05127 0.0
C3774 C 0.89719 0.60033 0.04722 0.0
H3775 H 0.84257 0.66331 0.01729 0.0
H3776 H 0.86821 0.65062 0.02705 0.0
H3777 H 0.85851 0.60626 0.06434 0.0
H3778 H 0.92201 0.55092 0.06157 0.0
H3779 H 0.89644 0.56506 0.0545 0.0
C3780 C 0.17028 0.09092 0.78499 0.0
C3781 C 0.17632 0.08131 0.79907 0.0
C3782 C 0.18048 0.10795 0.7823 0.0
C3783 C 0.21666 0.14704 0.80671 0.0
H3784 H 0.21942 0.15895 0.75569 0.0
C3785 C 0.24418 0.22123 0.79297 0.0
C3786 C 0.25434 0.22349 0.77777 0.0
C3787 C 0.23574 0.20353 0.7957 0.0
C3788 C 0.21897 0.15576 0.77002 0.0
H3789 H 0.19799 0.08209 0.82126 0.0
H3790 H 0.21581 0.11157 0.81637 0.0
H3791 H 0.20267 0.12863 0.75996 0.0
H3792 H 0.26401 0.20904 0.75376 0.0
H3793 H 0.2495 0.17798 0.75874 0.0
H3794 H 0.23319 0.17402 0.81676 0.0
C3795 C 0.20304 0.10611 0.80762 0.0
C3796 C 0.20915 0.13847 0.77249 0.0
C3797 C 0.19283 0.08913 0.81036 0.0
C3798 C 0.25627 0.20768 0.76562 0.0
C3799 C 0.24782 0.18993 0.76836 0.0
C3800 C 0.2265 0.16429 0.80425 0.0
C3801 C 0.19699 0.11575 0.79358 0.0
C3802 C 0.20777 0.13395 0.79087 0.0
C3803 C 0.23733 0.18767 0.78335 0.0
C3804 C 0.22765 0.16893 0.78588 0.0
H3805 H 0.15762 0.08534 0.77606 0.0
H3806 H 0.17528 0.11512 0.77154 0.0
H3807 H 0.21575 0.14411 0.82109 0.0
H3808 H 0.24254 0.23318 0.80263 0.0
H3809 H 0.22759 0.20234 0.80724 0.0
C3810 C 0.36695 0.96026 0.30283 0.0
C3811 C 0.36097 0.97561 0.31149 0.0
C3812 C 0.35639 0.94248 0.30085 0.0
C3813 C 0.31835 0.91232 0.31552 0.0
H3814 H 0.31488 0.88679 0.26358 0.0
C3815 C 0.27638 0.83758 0.28953 0.0
C3816 C 0.28615 0.82557 0.28046 0.0
C3817 C 0.28312 0.85677 0.29299 0.0
C3818 C 0.3157 0.89374 0.27812 0.0
H3819 H 0.33997 0.98447 0.32616 0.0
H3820 H 0.3212 0.95293 0.32263 0.0
H3821 H 0.33187 0.91867 0.27225 0.0
H3822 H 0.31021 0.82432 0.26718 0.0
H3823 H 0.32178 0.85772 0.27287 0.0
H3824 H 0.30246 0.88705 0.32141 0.0
C3825 C 0.33412 0.95481 0.31742 0.0
C3826 C 0.32545 0.91195 0.28311 0.0
C3827 C 0.34485 0.97277 0.31953 0.0
C3828 C 0.30233 0.83318 0.27411 0.0
C3829 C 0.30895 0.85233 0.27736 0.0
C3830 C 0.30855 0.89399 0.31051 0.0
C3831 C 0.33953 0.93968 0.30731 0.0
C3832 C 0.32734 0.92121 0.30197 0.0
C3833 C 0.29959 0.86428 0.28714 0.0
C3834 C 0.30759 0.8844 0.29188 0.0
H3835 H 0.37945 0.96214 0.29671 0.0
H3836 H 0.36109 0.93098 0.29348 0.0
H3837 H 0.31959 0.91921 0.33014 0.0
H3838 H 0.26381 0.83216 0.29454 0.0
H3839 H 0.27558 0.86572 0.3004 0.0
C3840 C 0.55641 0.34528 0.58705 0.0
C3841 C 0.54725 0.32867 0.57534 0.0
C3842 C 0.55658 0.36261 0.58112 0.0
C3843 C 0.53132 0.38398 0.54505 0.0
H3844 H 0.56705 0.42851 0.56624 0.0
C3845 C 0.53307 0.45512 0.51882 0.0
C3846 C 0.53441 0.47063 0.53301 0.0
C3847 C 0.53542 0.43797 0.52357 0.0
C3848 C 0.55691 0.4162 0.56025 0.0
H3849 H 0.53219 0.31728 0.54763 0.0
H3850 H 0.53363 0.34704 0.5367 0.0
H3851 H 0.57085 0.39856 0.57426 0.0
H3852 H 0.5402 0.48027 0.5635 0.0
H3853 H 0.545 0.45058 0.57173 0.0
H3854 H 0.51774 0.40173 0.53061 0.0
C3855 C 0.53994 0.34702 0.55091 0.0
C3856 C 0.55902 0.39891 0.56492 0.0
C3857 C 0.5394 0.32978 0.55703 0.0
C3858 C 0.53894 0.46866 0.55212 0.0
C3859 C 0.54171 0.45162 0.55687 0.0
C3860 C 0.52943 0.40119 0.54011 0.0
C3861 C 0.54788 0.36385 0.56312 0.0
C3862 C 0.54619 0.38242 0.55751 0.0
C3863 C 0.53979 0.43596 0.54267 0.0
C3864 C 0.54212 0.41757 0.54773 0.0
H3865 H 0.56228 0.34501 0.6014 0.0
H3866 H 0.56275 0.37501 0.59118 0.0
H3867 H 0.52077 0.37197 0.53934 0.0
H3868 H 0.53041 0.45625 0.50396 0.0
H3869 H 0.53412 0.42633 0.51222 0.0
C3870 C 0.43555 0.74555 0.39481 0.0
C3871 C 0.45172 0.75639 0.39121 0.0
C3872 C 0.4191 0.7474 0.38582 0.0
C3873 C 0.39706 0.77916 0.36148 0.0
H3874 H 0.36402 0.73432 0.3356 0.0
C3875 C 0.33724 0.78222 0.3074 0.0
C3876 C 0.32133 0.76861 0.30553 0.0
C3877 C 0.35255 0.78084 0.31891 0.0
C3878 C 0.37287 0.74701 0.343 0.0
H3879 H 0.46321 0.77815 0.37586 0.0
H3880 H 0.43455 0.78165 0.36055 0.0
H3881 H 0.39149 0.73206 0.35437 0.0
H3882 H 0.30899 0.74302 0.31469 0.0
H3883 H 0.33544 0.74096 0.33542 0.0
H3884 H 0.37847 0.79418 0.35048 0.0
C3885 C 0.43458 0.77163 0.37022 0.0
C3886 C 0.38869 0.74568 0.35374 0.0
C3887 C 0.45102 0.76958 0.37896 0.0
C3888 C 0.32103 0.75375 0.3158 0.0
C3889 C 0.3363 0.75248 0.32754 0.0
C3890 C 0.38115 0.7805 0.35097 0.0
C3891 C 0.41843 0.76036 0.37329 0.0
C3892 C 0.40108 0.76175 0.36291 0.0
C3893 C 0.35236 0.76596 0.3292 0.0
C3894 C 0.3689 0.76446 0.34132 0.0
H3895 H 0.43561 0.73522 0.40413 0.0
H3896 H 0.40688 0.73863 0.38861 0.0
H3897 H 0.40622 0.7918 0.36858 0.0
H3898 H 0.33791 0.79402 0.29993 0.0
H3899 H 0.36463 0.79137 0.31947 0.0
C3900 C 0.0508 0.72348 0.08839 0.0
C3901 C 0.03733 0.73104 0.07961 0.0
C3902 C 0.05137 0.70468 0.08323 0.0
C3903 C 0.03421 0.66319 0.04522 0.0
H3904 H 0.04496 0.63546 0.08543 0.0
C3905 C 0.04181 0.58662 0.02855 0.0
C3906 C 0.0347 0.57416 0.04042 0.0
C3907 C 0.04285 0.60578 0.03335 0.0
C3908 C 0.04182 0.64293 0.074 0.0
H3909 H 0.01418 0.72451 0.058 0.0
H3910 H 0.01522 0.692 0.04903 0.0
H3911 H 0.04557 0.66859 0.09328 0.0
H3912 H 0.02314 0.5722 0.06673 0.0
H3913 H 0.02466 0.60557 0.07508 0.0
H3914 H 0.03011 0.63749 0.02598 0.0
C3915 C 0.02544 0.70059 0.05987 0.0
C3916 C 0.04239 0.66206 0.07849 0.0
C3917 C 0.02482 0.71933 0.06508 0.0
C3918 C 0.02865 0.5814 0.05726 0.0
C3919 C 0.02971 0.6006 0.06212 0.0
C3920 C 0.03372 0.64409 0.04072 0.0
C3921 C 0.03855 0.69286 0.06905 0.0
C3922 C 0.03852 0.6725 0.06418 0.0
C3923 C 0.03675 0.61311 0.05018 0.0
C3924 C 0.03747 0.63361 0.05504 0.0
H3925 H 0.06067 0.73194 0.09966 0.0
H3926 H 0.06184 0.69939 0.09046 0.0
H3927 H 0.03129 0.67069 0.03374 0.0
H3928 H 0.04604 0.58152 0.01519 0.0
H3929 H 0.04846 0.61487 0.02381 0.0
C3930 C 0.06148 0.26877 0.89627 0.0
C3931 C 0.04843 0.25342 0.88665 0.0
C3932 C 0.07776 0.27415 0.88905 0.0
C3933 C 0.10738 0.25756 0.85505 0.0
H3934 H 0.12506 0.31012 0.85512 0.0
C3935 C 0.16332 0.28592 0.81034 0.0
C3936 C 0.17533 0.30274 0.81815 0.0
C3937 C 0.14868 0.2791 0.81965 0.0
C3938 C 0.12051 0.29539 0.8552 0.0
H3939 H 0.04253 0.23148 0.86208 0.0
H3940 H 0.0707 0.24089 0.84953 0.0
H3941 H 0.09836 0.29989 0.86995 0.0
H3942 H 0.18198 0.32491 0.84246 0.0
H3943 H 0.15675 0.31296 0.85875 0.0
H3944 H 0.12949 0.25309 0.84015 0.0
C3945 C 0.0685 0.2487 0.86273 0.0
C3946 C 0.10515 0.28952 0.86375 0.0
C3947 C 0.05225 0.24337 0.8699 0.0
C3948 C 0.17277 0.31212 0.83585 0.0
C3949 C 0.15824 0.30528 0.84517 0.0
C3950 C 0.12278 0.26345 0.84652 0.0
C3951 C 0.08142 0.26428 0.87207 0.0
C3952 C 0.0983 0.27052 0.86372 0.0
C3953 C 0.14577 0.28888 0.83705 0.0
C3954 C 0.12954 0.28246 0.84642 0.0
H3955 H 0.05902 0.27681 0.90922 0.0
H3956 H 0.08749 0.28608 0.89676 0.0
H3957 H 0.10264 0.24283 0.85496 0.0
H3958 H 0.16486 0.27842 0.79668 0.0
H3959 H 0.13931 0.26648 0.81288 0.0
C3960 C 0.53235 0.75757 0.91261 0.0
C3961 C 0.53551 0.75529 0.89346 0.0
C3962 C 0.53411 0.74387 0.92377 0.0
C3963 C 0.54864 0.69891 0.9259 0.0
H3964 H 0.50927 0.69075 0.95611 0.0
C3965 C 0.52509 0.63153 0.95932 0.0
C3966 C 0.51837 0.63403 0.97692 0.0
C3967 C 0.53063 0.64683 0.95006 0.0
C3968 C 0.52054 0.69294 0.94803 0.0
H3969 H 0.5439 0.73729 0.87122 0.0
H3970 H 0.5466 0.71295 0.89062 0.0
H3971 H 0.51295 0.71652 0.93853 0.0
H3972 H 0.5134 0.65444 -0.0007 0.0
H3973 H 0.52346 0.68104 0.98356 0.0
H3974 H 0.55577 0.67472 0.93521 0.0
C3975 C 0.5431 0.72554 0.89716 0.0
C3976 C 0.5227 0.70784 0.93792 0.0
C3977 C 0.54163 0.73951 0.88604 0.0
C3978 C 0.51846 0.65214 0.98569 0.0
C3979 C 0.52407 0.66734 0.97657 0.0
C3980 C 0.5464 0.68383 0.93605 0.0
C3981 C 0.53862 0.72722 0.91596 0.0
C3982 C 0.53685 0.71122 0.92682 0.0
C3983 C 0.52955 0.66485 0.95829 0.0
C3984 C 0.53239 0.68077 0.94738 0.0
H3985 H 0.52764 0.76962 0.9187 0.0
H3986 H 0.53112 0.74599 0.93834 0.0
H3987 H 0.55969 0.70104 0.91752 0.0
H3988 H 0.52499 0.61768 0.95219 0.0
H3989 H 0.53475 0.64439 0.93599 0.0
C3990 C 0.07799 0.76725 0.73849 0.0
C3991 C 0.06925 0.76447 0.71972 0.0
C3992 C 0.09637 0.76763 0.7421 0.0
C3993 C 0.13535 0.75485 0.71936 0.0
H3994 H 0.16308 0.7883 0.76327 0.0
C3995 C 0.21341 0.76766 0.73297 0.0
C3996 C 0.2217 0.7703 0.75191 0.0
C3997 C 0.19492 0.76659 0.72892 0.0
C3998 C 0.15558 0.77867 0.75106 0.0
H3999 H 0.07339 0.75982 0.68997 0.0
H4000 H 0.10546 0.76071 0.69621 0.0
H4001 H 0.13125 0.78729 0.75631 0.0
H4002 H 0.21678 0.77391 0.78141 0.0
H4003 H 0.18459 0.77161 0.77445 0.0
H4004 H 0.1598 0.74635 0.71408 0.0
C4005 C 0.09801 0.76236 0.70824 0.0
C4006 C 0.13717 0.77807 0.74703 0.0
C4007 C 0.07955 0.76194 0.70463 0.0
C4008 C 0.21089 0.77169 0.76667 0.0
C4009 C 0.19238 0.7706 0.76264 0.0
C4010 C 0.1538 0.75548 0.72337 0.0
C4011 C 0.1068 0.76532 0.72708 0.0
C4012 C 0.12666 0.7661 0.73114 0.0
C4013 C 0.18405 0.76813 0.74368 0.0
C4014 C 0.16425 0.76738 0.73933 0.0
H4015 H 0.07061 0.76915 0.75056 0.0
H4016 H 0.10235 0.76956 0.7568 0.0
H4017 H 0.12785 0.74522 0.70716 0.0
H4018 H 0.22122 0.76637 0.72119 0.0
H4019 H 0.18921 0.76489 0.71415 0.0
C4020 C 0.02491 0.35182 0.40789 0.0
C4021 C 0.0329 0.34755 0.39134 0.0
C4022 C 0.02936 0.36957 0.41871 0.0
C4023 C 0.04756 0.41905 0.41676 0.0
H4024 H 0.04771 0.42289 0.47155 0.0
C4025 C 0.05658 0.48904 0.47155 0.0
C4026 C 0.04308 0.48834 0.48366 0.0
C4027 C 0.05814 0.47291 0.45943 0.0
C4028 C 0.04778 0.4221 0.45628 0.0
H4029 H 0.05214 0.35897 0.37341 0.0
H4030 H 0.06003 0.39029 0.39256 0.0
H4031 H 0.04616 0.39279 0.45239 0.0
H4032 H 0.02031 0.46997 0.49188 0.0
H4033 H 0.02339 0.4423 0.47149 0.0
H4034 H 0.04898 0.44858 0.42093 0.0
C4035 C 0.05018 0.37967 0.39699 0.0
C4036 C 0.04681 0.4048 0.44524 0.0
C4037 C 0.04576 0.36169 0.3861 0.0
C4038 C 0.03111 0.47119 0.48309 0.0
C4039 C 0.03283 0.4552 0.47133 0.0
C4040 C 0.04869 0.43651 0.42792 0.0
C4041 C 0.04201 0.38383 0.41349 0.0
C4042 C 0.04603 0.40285 0.42524 0.0
C4043 C 0.04643 0.45573 0.45948 0.0
C4044 C 0.04822 0.43809 0.44775 0.0
H4045 H 0.01496 0.34142 0.4125 0.0
H4046 H 0.02248 0.3722 0.43104 0.0
H4047 H 0.04697 0.41812 0.40143 0.0
H4048 H 0.0662 0.50187 0.47175 0.0
H4049 H 0.06879 0.47374 0.45047 0.0
C4050 C 0.44523 0.25271 0.19521 0.0
C4051 C 0.46005 0.25233 0.20825 0.0
C4052 C 0.42837 0.25319 0.20114 0.0
C4053 C 0.40152 0.24788 0.24275 0.0
H4054 H 0.37167 0.27425 0.21504 0.0
C4055 C 0.33646 0.26674 0.26947 0.0
C4056 C 0.32146 0.26473 0.25578 0.0
C4057 C 0.35321 0.26474 0.264 0.0
C4058 C 0.37971 0.26667 0.22287 0.0
H4059 H 0.46836 0.25192 0.23802 0.0
H4060 H 0.43919 0.25325 0.24853 0.0
H4061 H 0.40065 0.27169 0.2053 0.0
H4062 H 0.31246 0.25861 0.22544 0.0
H4063 H 0.34154 0.25527 0.21588 0.0
H4064 H 0.38057 0.24341 0.26066 0.0
C4065 C 0.44042 0.25275 0.2335 0.0
C4066 C 0.39646 0.26508 0.21721 0.0
C4067 C 0.45729 0.252 0.22746 0.0
C4068 C 0.32367 0.26038 0.23643 0.0
C4069 C 0.34044 0.25858 0.23092 0.0
C4070 C 0.38482 0.24968 0.24856 0.0
C4071 C 0.42565 0.25366 0.22048 0.0
C4072 C 0.4077 0.25552 0.2269 0.0
C4073 C 0.35554 0.26076 0.24461 0.0
C4074 C 0.37356 0.259 0.23864 0.0
H4075 H 0.44664 0.2529 0.1803 0.0
H4076 H 0.41747 0.25328 0.19041 0.0
H4077 H 0.40943 0.24018 0.25056 0.0
H4078 H 0.33523 0.26967 0.2845 0.0
H4079 H 0.36442 0.26662 0.27501 0.0
C4080 C 0.6005 0.5392 0.33912 0.0
C4081 C 0.61691 0.53431 0.33634 0.0
C4082 C 0.5943 0.53945 0.35697 0.0
C4083 C 0.60005 0.51901 0.40111 0.0
H4084 H 0.56999 0.552 0.41946 0.0
C4085 C 0.57079 0.51782 0.47341 0.0
C4086 C 0.55243 0.51792 0.47233 0.0
C4087 C 0.58011 0.521 0.45781 0.0
C4088 C 0.57835 0.54268 0.41447 0.0
H4089 H 0.64012 0.52689 0.35046 0.0
H4090 H 0.62971 0.52803 0.38156 0.0
H4091 H 0.58405 0.55659 0.39072 0.0
H4092 H 0.52951 0.52131 0.45386 0.0
H4093 H 0.54574 0.52678 0.42692 0.0
H4094 H 0.59428 0.50514 0.42493 0.0
C4095 C 0.62132 0.5311 0.36987 0.0
C4096 C 0.58636 0.54526 0.39797 0.0
C4097 C 0.6274 0.53064 0.35201 0.0
C4098 C 0.54362 0.52106 0.45526 0.0
C4099 C 0.55295 0.5244 0.43983 0.0
C4100 C 0.59217 0.51656 0.41771 0.0
C4101 C 0.60447 0.53499 0.37247 0.0
C4102 C 0.59708 0.53327 0.39088 0.0
C4103 C 0.5713 0.52453 0.44095 0.0
C4104 C 0.58098 0.52815 0.42436 0.0
H4105 H 0.59205 0.542 0.32732 0.0
H4106 H 0.58118 0.54233 0.35834 0.0
H4107 H 0.60796 0.5093 0.39595 0.0
H4108 H 0.57799 0.51551 0.48635 0.0
H4109 H 0.59428 0.52105 0.45906 0.0
C4110 C 0.28801 0.86716 0.04385 0.0
C4111 C 0.2782 0.88073 0.04079 0.0
C4112 C 0.28216 0.85377 0.05501 0.0
C4113 C 0.26672 0.82429 0.07696 0.0
H4114 H 0.25599 0.84756 0.12526 0.0
C4115 C 0.2796 0.79265 0.14396 0.0
C4116 C 0.28919 0.80566 0.15947 0.0
C4117 C 0.27063 0.7985 0.12874 0.0
C4118 C 0.25892 0.8408 0.11185 0.0
H4119 H 0.25377 0.89002 0.04575 0.0
H4120 H 0.24345 0.86645 0.06538 0.0
H4121 H 0.25428 0.86314 0.09755 0.0
H4122 H 0.29621 0.83478 0.17182 0.0
H4123 H 0.28128 0.84517 0.14506 0.0
H4124 H 0.27313 0.80289 0.09156 0.0
C4125 C 0.25581 0.86636 0.05927 0.0
C4126 C 0.25765 0.84961 0.09585 0.0
C4127 C 0.26167 0.87978 0.04795 0.0
C4128 C 0.28885 0.82449 0.16003 0.0
C4129 C 0.28013 0.83039 0.1447 0.0
C4130 C 0.26824 0.81562 0.093 0.0
C4131 C 0.26632 0.85359 0.06343 0.0
C4132 C 0.2625 0.84192 0.07848 0.0
C4133 C 0.27135 0.81753 0.12858 0.0
C4134 C 0.26527 0.82425 0.11088 0.0
H4135 H 0.30071 0.86737 0.03835 0.0
H4136 H 0.29076 0.84436 0.05805 0.0
H4137 H 0.27011 0.81778 0.06366 0.0
H4138 H 0.27944 0.77799 0.14341 0.0
H4139 H 0.26367 0.78816 0.11681 0.0
C4140 C 0.91495 0.50105 0.84305 0.0
C4141 C 0.9047 0.51465 0.84246 0.0
C4142 C 0.92444 0.49947 0.86012 0.0
C4143 C 0.93138 0.5143 0.91241 0.0
H4144 H 0.9806 0.51226 0.90612 0.0
C4145 C 0.98809 0.5317 0.97532 0.0
C4146 C 1.00023 0.51988 0.97545 0.0
C4147 C 0.97549 0.53001 0.95942 0.0
C4148 C 0.96686 0.51258 0.9081 0.0
H4149 H 0.89523 0.53636 0.85939 0.0
H4150 H 0.9122 0.53385 0.88935 0.0
H4151 H 0.95914 0.51005 0.87819 0.0
H4152 H 0.00905 0.49733 0.9591 0.0
H4153 H 0.98707 0.49442 0.93126 0.0
H4154 H 0.93932 0.51712 0.94246 0.0
C4155 C 0.91275 0.52431 0.87662 0.0
C4156 C 0.95454 0.51127 0.8921 0.0
C4157 C 0.90308 0.52578 0.85949 0.0
C4158 C 0.99989 0.50668 0.95929 0.0
C4159 C 0.9873 0.505 0.9434 0.0
C4160 C 0.94375 0.51561 0.92847 0.0
C4161 C 0.92404 0.51158 0.87691 0.0
C4162 C 0.93668 0.51213 0.89407 0.0
C4163 C 0.97491 0.51657 0.94335 0.0
C4164 C 0.96162 0.51483 0.92644 0.0
H4165 H 0.91619 0.49206 0.83016 0.0
H4166 H 0.93267 0.48921 0.86003 0.0
H4167 H 0.91768 0.51489 0.91432 0.0
H4168 H 0.98819 0.5421 0.98758 0.0
H4169 H 0.9663 0.53933 0.95963 0.0
C4170 C 0.30326 0.21648 0.57283 0.0
C4171 C 0.29028 0.20342 0.55992 0.0
C4172 C 0.29911 0.22406 0.59048 0.0
C4173 C 0.26701 0.21415 0.62524 0.0
H4174 H 0.28946 0.26441 0.64947 0.0
C4175 C 0.26911 0.26874 0.69979 0.0
C4176 C 0.27024 0.2565 0.71297 0.0
C4177 C 0.26937 0.26282 0.68032 0.0
C4178 C 0.28285 0.25042 0.64285 0.0
H4179 H 0.26248 0.18868 0.55531 0.0
H4180 H 0.25516 0.20216 0.58592 0.0
H4181 H 0.29373 0.25384 0.6167 0.0
H4182 H 0.27168 0.22824 0.716 0.0
H4183 H 0.27269 0.21806 0.68229 0.0
H4184 H 0.25598 0.21079 0.6513 0.0
C4185 C 0.26868 0.20626 0.58254 0.0
C4186 C 0.28551 0.24426 0.6241 0.0
C4187 C 0.27286 0.19861 0.5649 0.0
C4188 C 0.27106 0.23808 0.70622 0.0
C4189 C 0.2714 0.23218 0.68682 0.0
C4190 C 0.26431 0.22033 0.64395 0.0
C4191 C 0.28183 0.21887 0.59571 0.0
C4192 C 0.27785 0.22595 0.61513 0.0
C4193 C 0.27079 0.24452 0.67361 0.0
C4194 C 0.27242 0.23845 0.65313 0.0
H4195 H 0.31684 0.22051 0.56957 0.0
H4196 H 0.30966 0.23352 0.60028 0.0
H4197 H 0.26102 0.19991 0.61892 0.0
H4198 H 0.26851 0.28303 0.70457 0.0
H4199 H 0.2686 0.27264 0.67055 0.0
C4200 C 0.61379 0.52862 0.2145 0.0
C4201 C 0.60255 0.53107 0.22866 0.0
C4202 C 0.60808 0.52936 0.19546 0.0
C4203 C 0.56699 0.52431 0.16196 0.0
H4204 H 0.59976 0.54806 0.13013 0.0
C4205 C 0.54362 0.53375 0.08519 0.0
C4206 C 0.55482 0.53028 0.07127 0.0
C4207 C 0.54949 0.5347 0.10453 0.0
C4208 C 0.59049 0.54122 0.13878 0.0
H4209 H 0.57659 0.53653 0.23392 0.0
H4210 H 0.56674 0.538 0.2008 0.0
H4211 H 0.60999 0.54823 0.1636 0.0
H4212 H 0.58097 0.52492 0.06675 0.0
H4213 H 0.59109 0.52623 0.10043 0.0
H4214 H 0.54752 0.51721 0.13714 0.0
C4215 C 0.57986 0.53523 0.20435 0.0
C4216 C 0.59636 0.54132 0.15797 0.0
C4217 C 0.58556 0.53449 0.22338 0.0
C4218 C 0.57201 0.52767 0.07711 0.0
C4219 C 0.57787 0.52858 0.09644 0.0
C4220 C 0.56112 0.52422 0.14278 0.0
C4221 C 0.591 0.53256 0.19013 0.0
C4222 C 0.5847 0.5328 0.16979 0.0
C4223 C 0.56668 0.53208 0.1104 0.0
C4224 C 0.57282 0.53261 0.13093 0.0
H4225 H 0.62694 0.52592 0.21807 0.0
H4226 H 0.61692 0.52703 0.18485 0.0
H4227 H 0.55773 0.51736 0.17056 0.0
H4228 H 0.53021 0.53553 0.08116 0.0
H4229 H 0.54058 0.53758 0.1149 0.0
C4230 C 0.31203 0.88752 0.95682 0.0
C4231 C 0.30137 0.90035 0.96169 0.0
C4232 C 0.30933 0.87711 0.93854 0.0
C4233 C 0.29097 0.87539 0.88889 0.0
H4234 H 0.28642 0.8222 0.88589 0.0
C4235 C 0.27089 0.82441 0.81731 0.0
C4236 C 0.27923 0.80921 0.81497 0.0
C4237 C 0.27327 0.836 0.83498 0.0
C4238 C 0.28791 0.83705 0.88641 0.0
H4239 H 0.27994 0.91276 0.95093 0.0
H4240 H 0.27545 0.89467 0.91888 0.0
H4241 H 0.29188 0.84192 0.91694 0.0
H4242 H 0.29704 0.7946 0.82918 0.0
H4243 H 0.30154 0.81497 0.85961 0.0
H4244 H 0.2874 0.8706 0.85835 0.0
C4245 C 0.2858 0.89267 0.9293 0.0
C4246 C 0.29098 0.84832 0.90423 0.0
C4247 C 0.28834 0.90294 0.94767 0.0
C4248 C 0.29019 0.80603 0.83054 0.0
C4249 C 0.29271 0.81768 0.84808 0.0
C4250 C 0.28809 0.86411 0.87101 0.0
C4251 C 0.29609 0.87944 0.92467 0.0
C4252 C 0.29264 0.86761 0.90566 0.0
C4253 C 0.28416 0.83273 0.85061 0.0
C4254 C 0.28664 0.8448 0.86955 0.0
H4255 H 0.32218 0.88517 0.96725 0.0
H4256 H 0.31757 0.86713 0.93527 0.0
H4257 H 0.29228 0.89025 0.88962 0.0
H4258 H 0.26235 0.82721 0.80558 0.0
H4259 H 0.26633 0.84734 0.83645 0.0
C4260 C 0.9295 0.52512 0.7395 0.0
C4261 C 0.91113 0.52054 0.74104 0.0
C4262 C 0.93573 0.52142 0.72197 0.0
C4263 C 0.92293 0.4917 0.6749 0.0
H4264 H 0.96563 0.52355 0.66317 0.0
C4265 C 0.95571 0.47917 0.60528 0.0
C4266 C 0.97379 0.47837 0.60889 0.0
C4267 C 0.94663 0.48522 0.62017 0.0
C4268 C 0.95366 0.5146 0.66628 0.0
H4269 H 0.88478 0.50898 0.72535 0.0
H4270 H 0.89565 0.50293 0.69451 0.0
H4271 H 0.95183 0.53335 0.69114 0.0
H4272 H 0.99673 0.48345 0.63051 0.0
H4273 H 0.98094 0.49442 0.65655 0.0
H4274 H 0.92484 0.47304 0.64981 0.0
C4275 C 0.90528 0.509 0.70697 0.0
C4276 C 0.94581 0.52012 0.68232 0.0
C4277 C 0.89905 0.51254 0.7246 0.0
C4278 C 0.98273 0.48381 0.6275 0.0
C4279 C 0.97377 0.4902 0.64228 0.0
C4280 C 0.93065 0.48632 0.65867 0.0
C4281 C 0.92373 0.51326 0.70549 0.0
C4282 C 0.93065 0.50849 0.68714 0.0
C4283 C 0.95567 0.49094 0.63873 0.0
C4284 C 0.94633 0.49752 0.65455 0.0
H4285 H 0.93917 0.53121 0.75192 0.0
H4286 H 0.95005 0.52452 0.72149 0.0
H4287 H 0.91139 0.48231 0.67827 0.0
H4288 H 0.94862 0.47504 0.59098 0.0
H4289 H 0.93266 0.48572 0.61717 0.0
C4290 C 0.27568 0.20029 0.45422 0.0
C4291 C 0.29266 0.20364 0.46498 0.0
C4292 C 0.27355 0.20702 0.43694 0.0
C4293 C 0.29897 0.21999 0.39808 0.0
H4294 H 0.26012 0.24344 0.38346 0.0
C4295 C 0.27894 0.26548 0.33768 0.0
C4296 C 0.28086 0.25427 0.32075 0.0
C4297 C 0.27966 0.25886 0.35505 0.0
C4298 C 0.27104 0.23691 0.38737 0.0
H4299 H 0.32056 0.21745 0.46627 0.0
H4300 H 0.31679 0.22906 0.4362 0.0
H4301 H 0.26271 0.23359 0.41478 0.0
H4302 H 0.28508 0.22725 0.3089 0.0
H4303 H 0.28662 0.21577 0.33947 0.0
H4304 H 0.30734 0.22334 0.37072 0.0
C4305 C 0.30518 0.22107 0.44106 0.0
C4306 C 0.27245 0.23118 0.40523 0.0
C4307 C 0.30729 0.21452 0.45839 0.0
C4308 C 0.28359 0.23626 0.32167 0.0
C4309 C 0.28452 0.22971 0.33916 0.0
C4310 C 0.29743 0.22551 0.38015 0.0
C4311 C 0.28838 0.21708 0.42996 0.0
C4312 C 0.28655 0.22284 0.41086 0.0
C4313 C 0.28248 0.24093 0.35601 0.0
C4314 C 0.28356 0.23418 0.37466 0.0
H4315 H 0.26411 0.19198 0.45884 0.0
H4316 H 0.26043 0.20372 0.42867 0.0
H4317 H 0.30985 0.21338 0.40193 0.0
H4318 H 0.27671 0.27939 0.33755 0.0
H4319 H 0.27824 0.2679 0.36782 0.0
C4320 C 0.34732 0.62814 0.53175 0.0
C4321 C 0.33279 0.61357 0.53253 0.0
C4322 C 0.36476 0.62532 0.53353 0.0
C4323 C 0.39285 0.59122 0.54289 0.0
H4324 H 0.41376 0.60659 0.49874 0.0
C4325 C 0.43596 0.55042 0.50048 0.0
C4326 C 0.44835 0.55958 0.48982 0.0
C4327 C 0.42594 0.56034 0.51159 0.0
C4328 C 0.40853 0.60257 0.51147 0.0
H4329 H 0.32521 0.58515 0.53756 0.0
H4330 H 0.35562 0.57999 0.54006 0.0
H4331 H 0.3885 0.61843 0.50868 0.0
H4332 H 0.46099 0.58636 0.48351 0.0
H4333 H 0.44391 0.60389 0.50335 0.0
H4334 H 0.41257 0.57466 0.54505 0.0
C4335 C 0.35361 0.5937 0.53834 0.0
C4336 C 0.39394 0.60938 0.51719 0.0
C4337 C 0.33615 0.59661 0.53678 0.0
C4338 C 0.45135 0.57898 0.49141 0.0
C4339 C 0.44153 0.58897 0.50274 0.0
C4340 C 0.40757 0.58443 0.53719 0.0
C4341 C 0.368 0.60779 0.53586 0.0
C4342 C 0.38554 0.60332 0.53255 0.0
C4343 C 0.42823 0.57967 0.5124 0.0
C4344 C 0.41516 0.58953 0.52098 0.0
H4345 H 0.34524 0.64151 0.52898 0.0
H4346 H 0.37563 0.63658 0.53203 0.0
H4347 H 0.38679 0.58648 0.55494 0.0
H4348 H 0.43328 0.53543 0.49942 0.0
H4349 H 0.41566 0.55265 0.51857 0.0
C4350 C 0.84834 0.93071 0.51674 0.0
C4351 C 0.84546 0.91707 0.52859 0.0
C4352 C 0.86567 0.94045 0.51569 0.0
C4353 C 0.90976 0.95539 0.54394 0.0
H4354 H 0.92652 0.96558 0.49613 0.0
C4355 C 0.983 0.99078 0.53882 0.0
C4356 C 0.98596 0.00271 0.52526 0.0
C4357 C 0.9658 0.98054 0.53961 0.0
C4358 C 0.92196 0.9631 0.50964 0.0
H4359 H 0.85853 0.90258 0.5482 0.0
H4360 H 0.88876 0.91961 0.54635 0.0
H4361 H 0.89671 0.94658 0.49595 0.0
H4362 H 0.97306 0.01412 0.50267 0.0
H4363 H 0.94306 0.99687 0.50454 0.0
H4364 H 0.93482 0.97215 0.5577 0.0
C4365 C 0.8776 0.92283 0.53798 0.0
C4366 C 0.90492 0.95214 0.5095 0.0
C4367 C 0.86029 0.91298 0.53891 0.0
C4368 C 0.97125 0.00498 0.51324 0.0
C4369 C 0.95407 0.99488 0.51413 0.0
C4370 C 0.92675 0.96648 0.54411 0.0
C4371 C 0.88043 0.93685 0.52659 0.0
C4372 C 0.89865 0.94816 0.52665 0.0
C4373 C 0.95117 0.98223 0.52703 0.0
C4374 C 0.93306 0.9705 0.52695 0.0
H4375 H 0.83717 0.93418 0.50863 0.0
H4376 H 0.86746 0.95125 0.50685 0.0
H4377 H 0.90515 0.95276 0.55741 0.0
H4378 H 0.99408 0.98888 0.54837 0.0
H4379 H 0.96409 0.97086 0.54966 0.0
C4380 C 0.86022 0.05698 0.27134 0.0
C4381 C 0.87618 0.05719 0.2632 0.0
C4382 C 0.84975 0.06975 0.26785 0.0
C4383 C 0.85492 0.11712 0.25969 0.0
H4384 H 0.80306 0.10572 0.25494 0.0
C4385 C 0.81561 0.17498 0.27475 0.0
C4386 C 0.80257 0.171 0.28703 0.0
C4387 C 0.8231 0.16082 0.26593 0.0
C4388 C 0.81754 0.10916 0.25626 0.0
H4389 H 0.89335 0.07041 0.24435 0.0
H4390 H 0.87513 0.0932 0.23858 0.0
H4391 H 0.81903 0.08057 0.2497 0.0
H4392 H 0.78634 0.14891 0.29867 0.0
H4393 H 0.79958 0.12445 0.28377 0.0
H4394 H 0.85357 0.14556 0.26746 0.0
C4395 C 0.87071 0.08298 0.24753 0.0
C4396 C 0.82666 0.09476 0.25316 0.0
C4397 C 0.88106 0.06991 0.25075 0.0
C4398 C 0.79656 0.15248 0.28953 0.0
C4399 C 0.804 0.13838 0.28074 0.0
C4400 C 0.84581 0.13153 0.26295 0.0
C4401 C 0.85514 0.08323 0.25636 0.0
C4402 C 0.84546 0.09853 0.25552 0.0
C4403 C 0.81762 0.1424 0.26913 0.0
C4404 C 0.82703 0.12765 0.26199 0.0
H4405 H 0.85609 0.04728 0.28092 0.0
H4406 H 0.83794 0.06971 0.27502 0.0
H4407 H 0.86942 0.12044 0.26176 0.0
H4408 H 0.82053 0.18912 0.27257 0.0
H4409 H 0.83343 0.16437 0.25692 0.0
C4410 C 0.71113 0.1006 0.01498 0.0
C4411 C 0.72268 0.106 0.03222 0.0
C4412 C 0.69281 0.09419 0.01504 0.0
C4413 C 0.65633 0.09468 0.04463 0.0
H4414 H 0.63334 0.04912 0.01062 0.0
C4415 C 0.58596 0.053 0.05139 0.0
C4416 C 0.57498 0.04379 0.03462 0.0
C4417 C 0.60348 0.06234 0.05061 0.0
C4418 C 0.63943 0.06204 0.01995 0.0
H4419 H 0.72402 0.10923 0.06305 0.0
H4420 H 0.69188 0.09802 0.06311 0.0
H4421 H 0.66496 0.06205 0.01034 0.0
H4422 H 0.57372 0.03635 0.0041 0.0
H4423 H 0.60393 0.05349 0.00244 0.0
H4424 H 0.63077 0.09471 0.05421 0.0
C4425 C 0.69708 0.09882 0.04958 0.0
C4426 C 0.65758 0.0694 0.01984 0.0
C4427 C 0.71547 0.10511 0.04953 0.0
C4428 C 0.58168 0.04407 0.01707 0.0
C4429 C 0.59913 0.05354 0.01623 0.0
C4430 C 0.6381 0.0874 0.04464 0.0
C4431 C 0.68561 0.09316 0.03232 0.0
C4432 C 0.66624 0.08571 0.03225 0.0
C4433 C 0.61035 0.06251 0.03303 0.0
C4434 C 0.62947 0.07092 0.03237 0.0
H4435 H 0.71624 0.10117 0.00139 0.0
H4436 H 0.68424 0.0901 0.00153 0.0
H4437 H 0.66265 0.10741 0.05418 0.0
H4438 H 0.58113 0.05263 0.06515 0.0
H4439 H 0.61182 0.06878 0.06386 0.0
C4440 C 0.20054 0.48144 0.23931 0.0
C4441 C 0.20449 0.49414 0.25646 0.0
C4442 C 0.20963 0.46701 0.23642 0.0
C4443 C 0.24629 0.4467 0.25602 0.0
H4444 H 0.2084 0.40324 0.25443 0.0
C4445 C 0.25575 0.38782 0.2967 0.0
C4446 C 0.24513 0.36996 0.2908 0.0
C4447 C 0.2535 0.40219 0.28669 0.0
C4448 C 0.2193 0.41495 0.25434 0.0
H4449 H 0.22263 0.50324 0.28278 0.0
H4450 H 0.23852 0.47812 0.27768 0.0
H4451 H 0.20111 0.43123 0.24534 0.0
H4452 H 0.22462 0.35253 0.26943 0.0
H4453 H 0.22105 0.37746 0.25134 0.0
H4454 H 0.26447 0.43053 0.26549 0.0
C4455 C 0.22833 0.4792 0.26655 0.0
C4456 C 0.21507 0.43107 0.2491 0.0
C4457 C 0.21911 0.49348 0.26956 0.0
C4458 C 0.23269 0.36638 0.27435 0.0
C4459 C 0.23069 0.38066 0.26406 0.0
C4460 C 0.2506 0.43043 0.26093 0.0
C4461 C 0.22295 0.46524 0.2505 0.0
C4462 C 0.2284 0.44732 0.25074 0.0
C4463 C 0.24082 0.39886 0.27031 0.0
C4464 C 0.23702 0.41464 0.26108 0.0
H4465 H 0.18945 0.48168 0.22883 0.0
H4466 H 0.20535 0.45646 0.22386 0.0
H4467 H 0.25681 0.45906 0.25726 0.0
H4468 H 0.26548 0.39075 0.30936 0.0
H4469 H 0.26129 0.41602 0.29225 0.0
C4470 C 0.25592 0.43982 0.04749 0.0
C4471 C 0.25473 0.42107 0.04003 0.0
C4472 C 0.24096 0.44772 0.04591 0.0
C4473 C 0.19672 0.44215 0.01811 0.0
H4474 H 0.19137 0.47972 0.05932 0.0
C4475 C 0.13868 0.48194 0.01601 0.0
C4476 C 0.1444 0.50136 0.02058 0.0
C4477 C 0.15063 0.47039 0.01919 0.0
C4478 C 0.1927 0.46927 0.04769 0.0
H4479 H 0.23677 0.39584 0.02509 0.0
H4480 H 0.21041 0.40966 0.02251 0.0
H4481 H 0.21471 0.46224 0.06353 0.0
H4482 H 0.16689 0.52389 0.0325 0.0
H4483 H 0.18767 0.50376 0.03825 0.0
H4484 H 0.17464 0.44936 0.0023 0.0
C4485 C 0.22306 0.41828 0.02942 0.0
C4486 C 0.2061 0.45928 0.05006 0.0
C4487 C 0.23813 0.41034 0.03096 0.0
C4488 C 0.16216 0.50898 0.02872 0.0
C4489 C 0.174 0.49746 0.03214 0.0
C4490 C 0.18317 0.45206 0.01581 0.0
C4491 C 0.22432 0.43709 0.03693 0.0
C4492 C 0.20862 0.44596 0.03512 0.0
C4493 C 0.1684 0.47805 0.02731 0.0
C4494 C 0.18134 0.46604 0.03042 0.0
H4495 H 0.26849 0.44855 0.05446 0.0
H4496 H 0.24258 0.46233 0.05147 0.0
H4497 H 0.19834 0.43209 0.00627 0.0
H4498 H 0.12508 0.47572 0.00962 0.0
H4499 H 0.14595 0.45547 0.0154 0.0
C4500 C 0.86252 0.96668 0.27685 0.0
C4501 C 0.87772 0.97165 0.2676 0.0
C4502 C 0.8521 0.94864 0.27294 0.0
C4503 C 0.85543 0.90086 0.25754 0.0
H4504 H 0.80362 0.89072 0.254 0.0
C4505 C 0.81387 0.82598 0.24962 0.0
C4506 C 0.7994 0.8231 0.26034 0.0
C4507 C 0.82255 0.84395 0.24789 0.0
C4508 C 0.81809 0.8933 0.25513 0.0
H4509 H 0.89362 0.96164 0.24657 0.0
H4510 H 0.87541 0.92988 0.23987 0.0
H4511 H 0.82032 0.92248 0.25516 0.0
H4512 H 0.78252 0.83691 0.27738 0.0
H4513 H 0.7979 0.86825 0.27475 0.0
H4514 H 0.85335 0.87189 0.25824 0.0
C4515 C 0.87163 0.94006 0.25017 0.0
C4516 C 0.82764 0.91149 0.25569 0.0
C4517 C 0.88198 0.95825 0.25392 0.0
C4518 C 0.79358 0.83861 0.26896 0.0
C4519 C 0.80236 0.85661 0.26736 0.0
C4520 C 0.8459 0.88269 0.25712 0.0
C4521 C 0.85668 0.93504 0.25981 0.0
C4522 C 0.84643 0.91551 0.25717 0.0
C4523 C 0.81708 0.85952 0.25695 0.0
C4524 C 0.82711 0.8787 0.25616 0.0
H4525 H 0.85878 0.97667 0.2874 0.0
H4526 H 0.84078 0.94518 0.28075 0.0
H4527 H 0.86992 0.90355 0.25895 0.0
H4528 H 0.81862 0.81436 0.24261 0.0
H4529 H 0.8336 0.84561 0.23947 0.0
C4530 C 0.68337 0.08315 0.74526 0.0
C4531 C 0.6867 0.07749 0.76305 0.0
C4532 C 0.69134 0.10097 0.7423 0.0
C4533 C 0.71159 0.1477 0.7687 0.0
H4534 H 0.73432 0.15549 0.72334 0.0
C4535 C 0.76248 0.21419 0.76554 0.0
C4536 C 0.7615 0.22226 0.749 0.0
C4537 C 0.75186 0.1968 0.76605 0.0
C4538 C 0.72777 0.15356 0.73593 0.0
H4539 H 0.70129 0.08608 0.79153 0.0
H4540 H 0.71518 0.11697 0.78629 0.0
H4541 H 0.7185 0.12429 0.72643 0.0
H4542 H 0.74957 0.2184 0.71962 0.0
H4543 H 0.73077 0.1877 0.7204 0.0
H4544 H 0.72104 0.17684 0.77837 0.0
C4545 C 0.70622 0.10773 0.77473 0.0
C4546 C 0.71875 0.13572 0.73771 0.0
C4547 C 0.69835 0.08995 0.77768 0.0
C4548 C 0.75027 0.21244 0.73263 0.0
C4549 C 0.73961 0.19494 0.73308 0.0
C4550 C 0.72057 0.16549 0.76692 0.0
C4551 C 0.70269 0.1135 0.75708 0.0
C4552 C 0.7109 0.13257 0.75431 0.0
C4553 C 0.7402 0.18705 0.74989 0.0
C4554 C 0.72909 0.16853 0.75072 0.0
H4555 H 0.67447 0.0739 0.73368 0.0
H4556 H 0.68834 0.10508 0.72857 0.0
H4557 H 0.70532 0.14575 0.78147 0.0
H4558 H 0.77165 0.22118 0.77805 0.0
H4559 H 0.753 0.19086 0.77904 0.0
loop_
_geom_bond_atom_site_label_1
_geom_bond_atom_site_label_2
_geom_bond_distance
_geom_bond_site_symmetry_2
_ccdc_geom_bond_type
Mg0 O1 2.028 . S
Mg0 O7 1.986 . S
Mg0 O9 2.114 . S
Mg0 O10 2.251 . S
Mg0 O13 2.010 . S
O1 Mg0 2.028 . S
O1 C4 1.250 . S
O2 Mg3 2.026 . S
O2 C4 1.248 . S
Mg3 O2 2.026 . S
Mg3 O8 2.029 . S
Mg3 O10 2.078 . S
C4 O1 1.250 . S
C4 O2 1.248 . S
C5 O6 1.264 . S
C5 O13 1.249 . S
O6 C5 1.264 . S
O7 Mg0 1.986 . S
O7 C11 1.246 . S
O8 Mg3 2.029 . S
O8 C11 1.259 . S
O9 Mg0 2.114 . S
O9 C12 1.252 . S
O10 Mg0 2.251 . S
O10 Mg3 2.078 . S
O10 C12 1.273 . S
C11 O7 1.246 . S
C11 O8 1.259 . S
C12 O9 1.252 . S
C12 O10 1.273 . S
O13 Mg0 2.010 . S
O13 C5 1.249 . S
Mg14 O15 2.028 . S
Mg14 O21 1.986 . S
Mg14 O23 2.141 . S
Mg14 O24 2.251 1_455 S
Mg14 O27 2.010 . S
O15 Mg14 2.028 . S
O15 C18 1.250 . S
O16 Mg17 2.028 . S
O16 C18 1.248 1_655 S
Mg17 O16 2.028 . S
Mg17 O22 2.032 . S
Mg17 O24 2.079 . S
C18 O15 1.250 . S
C18 O16 1.248 1_455 S
C19 O20 1.264 . S
C19 O27 1.249 . S
O20 C19 1.264 . S
O21 Mg14 1.986 . S
O21 C25 1.246 . S
O22 Mg17 2.032 . S
O22 C25 1.259 1_655 S
O23 Mg14 2.141 . S
O23 C26 1.210 1_455 S
O24 Mg14 2.251 1_655 S
O24 Mg17 2.079 . S
O24 C26 1.273 . S
C25 O21 1.246 . S
C25 O22 1.259 1_455 S
C26 O23 1.210 1_655 S
C26 O24 1.273 . S
O27 Mg14 2.010 . S
O27 C19 1.249 . S
Mg28 O29 2.028 . S
Mg28 O35 1.986 . S
Mg28 O37 2.114 . S
Mg28 O38 2.251 . S
Mg28 O41 2.010 . S
O29 Mg28 2.028 . S
O29 C32 1.250 . S
O30 Mg31 2.028 . S
O30 C32 1.248 . S
Mg31 O30 2.028 . S
Mg31 O36 2.032 . S
Mg31 O38 2.079 . S
C32 O29 1.250 . S
C32 O30 1.248 . S
C33 O34 1.264 . S
C33 O41 1.249 . S
O34 C33 1.264 . S
O35 Mg28 1.986 . S
O35 C39 1.246 . S
O36 Mg31 2.032 . S
O36 C39 1.259 . S
O37 Mg28 2.114 . S
O37 C40 1.252 . S
O38 Mg28 2.251 . S
O38 Mg31 2.079 . S
O38 C40 1.273 . S
C39 O35 1.246 . S
C39 O36 1.259 . S
C40 O37 1.252 . S
C40 O38 1.273 . S
O41 Mg28 2.010 . S
O41 C33 1.249 . S
Mg42 O43 2.028 . S
Mg42 O49 1.986 . S
Mg42 O51 2.114 . S
Mg42 O52 2.251 . S
Mg42 O55 2.010 . S
O43 Mg42 2.028 . S
O43 C46 1.250 . S
O44 Mg45 2.028 . S
O44 C46 1.248 . S
Mg45 O44 2.028 . S
Mg45 O50 2.032 . S
Mg45 O52 2.079 . S
C46 O43 1.250 . S
C46 O44 1.248 . S
C47 O48 1.264 . S
C47 O55 1.249 . S
O48 C47 1.264 . S
O49 Mg42 1.986 . S
O49 C53 1.246 . S
O50 Mg45 2.032 . S
O50 C53 1.259 . S
O51 Mg42 2.114 . S
O51 C54 1.252 . S
O52 Mg42 2.251 . S
O52 Mg45 2.079 . S
O52 C54 1.273 . S
C53 O49 1.246 . S
C53 O50 1.259 . S
C54 O51 1.252 . S
C54 O52 1.273 . S
O55 Mg42 2.010 . S
O55 C47 1.249 . S
Mg56 O57 2.028 . S
Mg56 O63 1.986 . S
Mg56 O65 2.114 . S
Mg56 O66 2.251 . S
Mg56 O69 2.010 . S
O57 Mg56 2.028 . S
O57 C60 1.250 . S
O58 Mg59 2.028 . S
O58 C60 1.248 . S
Mg59 O58 2.028 . S
Mg59 O64 2.032 . S
Mg59 O66 2.079 . S
C60 O57 1.250 . S
C60 O58 1.248 . S
C61 O62 1.264 . S
C61 O69 1.249 . S
O62 C61 1.264 . S
O63 Mg56 1.986 . S
O63 C67 1.246 . S
O64 Mg59 2.032 . S
O64 C67 1.259 . S
O65 Mg56 2.114 . S
O65 C68 1.252 . S
O66 Mg56 2.251 . S
O66 Mg59 2.079 . S
O66 C68 1.273 . S
C67 O63 1.246 . S
C67 O64 1.259 . S
C68 O65 1.252 . S
C68 O66 1.273 . S
O69 Mg56 2.010 . S
O69 C61 1.249 . S
Mg70 O71 2.028 . S
Mg70 O77 1.986 . S
Mg70 O79 2.114 . S
Mg70 O80 2.251 . S
Mg70 O83 2.010 . S
O71 Mg70 2.028 . S
O71 C74 1.250 . S
O72 Mg73 2.028 . S
O72 C74 1.248 . S
Mg73 O72 2.028 . S
Mg73 O78 2.032 . S
Mg73 O80 2.079 . S
C74 O71 1.250 . S
C74 O72 1.248 . S
C75 O76 1.264 . S
C75 O83 1.249 . S
O76 C75 1.264 . S
O77 Mg70 1.986 . S
O77 C81 1.246 . S
O78 Mg73 2.032 . S
O78 C81 1.259 . S
O79 Mg70 2.114 . S
O79 C82 1.252 . S
O80 Mg70 2.251 . S
O80 Mg73 2.079 . S
O80 C82 1.273 . S
C81 O77 1.246 . S
C81 O78 1.259 . S
C82 O79 1.252 . S
C82 O80 1.273 . S
O83 Mg70 2.010 . S
O83 C75 1.249 . S
Mg84 O85 2.028 . S
Mg84 O91 1.986 . S
Mg84 O93 2.114 . S
Mg84 O94 2.251 . S
Mg84 O97 2.010 . S
O85 Mg84 2.028 . S
O85 C88 1.250 . S
O86 Mg87 2.028 . S
O86 C88 1.248 . S
Mg87 O86 2.028 . S
Mg87 O92 2.032 . S
Mg87 O94 2.079 . S
C88 O85 1.250 . S
C88 O86 1.248 . S
C89 O90 1.264 . S
C89 O97 1.249 . S
O90 C89 1.264 . S
O91 Mg84 1.986 . S
O91 C95 1.246 . S
O92 Mg87 2.032 . S
O92 C95 1.259 . S
O93 Mg84 2.114 . S
O93 C96 1.252 . S
O94 Mg84 2.251 . S
O94 Mg87 2.079 . S
O94 C96 1.273 . S
C95 O91 1.246 . S
C95 O92 1.259 . S
C96 O93 1.252 . S
C96 O94 1.273 . S
O97 Mg84 2.010 . S
O97 C89 1.249 . S
Mg98 O99 2.028 1_655 S
Mg98 O105 1.986 1_655 S
Mg98 O107 2.114 . S
Mg98 O108 2.251 . S
Mg98 O111 2.010 1_655 S
O99 Mg98 2.028 1_455 S
O99 C102 1.236 1_455 S
O100 Mg101 2.028 . S
O100 C102 1.269 . S
Mg101 O100 2.028 . S
Mg101 O106 2.032 . S
Mg101 O108 2.079 . S
C102 O99 1.236 1_655 S
C102 O100 1.269 . S
C103 O104 1.264 . S
C103 O111 1.249 . S
O104 C103 1.264 . S
O105 Mg98 1.986 1_455 S
O105 C109 1.246 1_455 S
O106 Mg101 2.032 . S
O106 C109 1.259 . S
O107 Mg98 2.114 . S
O107 C110 1.252 . S
O108 Mg98 2.251 . S
O108 Mg101 2.079 . S
O108 C110 1.273 . S
C109 O105 1.246 1_655 S
C109 O106 1.259 . S
C110 O107 1.252 . S
C110 O108 1.273 . S
O111 Mg98 2.010 1_455 S
O111 C103 1.249 . S
Mg112 O113 2.028 1_545 S
Mg112 O119 1.986 . S
Mg112 O121 2.114 . S
Mg112 O122 2.251 . S
Mg112 O125 2.010 . S
O113 Mg112 2.028 1_565 S
O113 C116 1.250 . S
O114 Mg115 2.028 1_565 S
O114 C116 1.248 . S
Mg115 O114 2.028 1_545 S
Mg115 O120 2.032 . S
Mg115 O122 2.079 . S
C116 O113 1.250 . S
C116 O114 1.248 . S
C117 O118 1.264 . S
C117 O125 1.249 . S
O118 C117 1.264 . S
O119 Mg112 1.986 . S
O119 C123 1.246 . S
O120 Mg115 2.032 . S
O120 C123 1.259 . S
O121 Mg112 2.114 . S
O121 C124 1.252 . S
O122 Mg112 2.251 . S
O122 Mg115 2.079 . S
O122 C124 1.273 . S
C123 O119 1.246 . S
C123 O120 1.259 . S
C124 O121 1.252 . S
C124 O122 1.273 . S
O125 Mg112 2.010 . S
O125 C117 1.249 . S
Mg126 O127 2.028 . S
Mg126 O133 1.986 . S
Mg126 O135 2.114 . S
Mg126 O136 2.251 . S
Mg126 O139 2.010 . S
O127 Mg126 2.028 . S
O127 C130 1.250 . S
O128 Mg129 2.028 . S
O128 C130 1.248 . S
Mg129 O128 2.028 . S
Mg129 O134 2.032 . S
Mg129 O136 2.079 . S
C130 O127 1.250 . S
C130 O128 1.248 . S
C131 O132 1.264 . S
C131 O139 1.249 . S
O132 C131 1.264 . S
O133 Mg126 1.986 . S
O133 C137 1.246 . S
O134 Mg129 2.032 . S
O134 C137 1.259 . S
O135 Mg126 2.114 . S
O135 C138 1.252 . S
O136 Mg126 2.251 . S
O136 Mg129 2.079 . S
O136 C138 1.273 . S
C137 O133 1.246 . S
C137 O134 1.259 . S
C138 O135 1.252 . S
C138 O136 1.273 . S
O139 Mg126 2.010 . S
O139 C131 1.249 . S
Mg140 O141 2.028 . S
Mg140 O147 1.986 . S
Mg140 O149 2.114 . S
Mg140 O150 2.251 . S
Mg140 O153 2.010 . S
O141 Mg140 2.028 . S
O141 C144 1.250 . S
O142 Mg143 2.028 . S
O142 C144 1.248 . S
Mg143 O142 2.028 . S
Mg143 O148 2.032 . S
Mg143 O150 2.079 . S
C144 O141 1.250 . S
C144 O142 1.248 . S
C145 O146 1.264 . S
C145 O153 1.249 . S
O146 C145 1.264 . S
O147 Mg140 1.986 . S
O147 C151 1.246 . S
O148 Mg143 2.032 . S
O148 C151 1.259 . S
O149 Mg140 2.114 . S
O149 C152 1.252 . S
O150 Mg140 2.251 . S
O150 Mg143 2.079 . S
O150 C152 1.273 . S
C151 O147 1.246 . S
C151 O148 1.259 . S
C152 O149 1.252 . S
C152 O150 1.273 . S
O153 Mg140 2.010 . S
O153 C145 1.249 . S
Mg154 O155 2.028 1_554 S
Mg154 O161 1.986 . S
Mg154 O163 2.114 1_554 S
Mg154 O164 2.251 . S
Mg154 O167 2.010 . S
O155 Mg154 2.028 1_556 S
O155 C158 1.250 . S
O156 Mg157 2.028 1_556 S
O156 C158 1.248 . S
Mg157 O156 2.028 1_554 S
Mg157 O162 2.032 . S
Mg157 O164 2.079 . S
C158 O155 1.250 . S
C158 O156 1.248 . S
C159 O160 1.264 . S
C159 O167 1.249 . S
O160 C159 1.264 . S
O161 Mg154 1.986 . S
O161 C165 1.246 . S
O162 Mg157 2.032 . S
O162 C165 1.259 . S
O163 Mg154 2.114 1_556 S
O163 C166 1.252 1_556 S
O164 Mg154 2.251 . S
O164 Mg157 2.079 . S
O164 C166 1.273 . S
C165 O161 1.246 . S
C165 O162 1.259 . S
C166 O163 1.252 1_554 S
C166 O164 1.273 . S
O167 Mg154 2.010 . S
O167 C159 1.249 . S
Mg168 O169 2.028 . S
Mg168 O175 1.986 . S
Mg168 O177 2.114 . S
Mg168 O178 2.251 . S
Mg168 O181 2.010 . S
O169 Mg168 2.028 . S
O169 C172 1.250 . S
O170 Mg171 2.028 . S
O170 C172 1.248 . S
Mg171 O170 2.028 . S
Mg171 O176 2.032 . S
Mg171 O178 2.079 . S
C172 O169 1.250 . S
C172 O170 1.248 . S
C173 O174 1.264 . S
C173 O181 1.249 . S
O174 C173 1.264 . S
O175 Mg168 1.986 . S
O175 C179 1.246 . S
O176 Mg171 2.032 . S
O176 C179 1.259 . S
O177 Mg168 2.114 . S
O177 C180 1.252 . S
O178 Mg168 2.251 . S
O178 Mg171 2.079 . S
O178 C180 1.273 . S
C179 O175 1.246 . S
C179 O176 1.259 . S
C180 O177 1.252 . S
C180 O178 1.273 . S
O181 Mg168 2.010 . S
O181 C173 1.249 . S
Mg182 O183 2.028 . S
Mg182 O189 1.986 . S
Mg182 O191 2.114 . S
Mg182 O192 2.251 . S
Mg182 O195 2.010 . S
O183 Mg182 2.028 . S
O183 C186 1.250 . S
O184 Mg185 2.028 . S
O184 C186 1.248 . S
Mg185 O184 2.028 . S
Mg185 O190 2.032 . S
Mg185 O192 2.079 . S
C186 O183 1.250 . S
C186 O184 1.248 . S
C187 O188 1.264 . S
C187 O195 1.249 . S
O188 C187 1.264 . S
O189 Mg182 1.986 . S
O189 C193 1.246 . S
O190 Mg185 2.032 . S
O190 C193 1.259 . S
O191 Mg182 2.114 . S
O191 C194 1.252 . S
O192 Mg182 2.251 . S
O192 Mg185 2.079 . S
O192 C194 1.273 . S
C193 O189 1.246 . S
C193 O190 1.259 . S
C194 O191 1.252 . S
C194 O192 1.273 . S
O195 Mg182 2.010 . S
O195 C187 1.249 . S
Mg196 O197 2.028 . S
Mg196 O203 1.986 . S
Mg196 O205 2.114 . S
Mg196 O206 2.251 . S
Mg196 O209 2.010 . S
O197 Mg196 2.028 . S
O197 C200 1.250 . S
O198 Mg199 2.028 . S
O198 C200 1.248 . S
Mg199 O198 2.028 . S
Mg199 O204 2.032 . S
Mg199 O206 2.079 . S
C200 O197 1.250 . S
C200 O198 1.248 . S
C201 O202 1.264 . S
C201 O209 1.249 . S
O202 C201 1.264 . S
O203 Mg196 1.986 . S
O203 C207 1.246 . S
O204 Mg199 2.032 . S
O204 C207 1.259 . S
O205 Mg196 2.114 . S
O205 C208 1.252 . S
O206 Mg196 2.251 . S
O206 Mg199 2.079 . S
O206 C208 1.273 . S
C207 O203 1.246 . S
C207 O204 1.259 . S
C208 O205 1.252 . S
C208 O206 1.273 . S
O209 Mg196 2.010 . S
O209 C201 1.249 . S
Mg210 O211 2.028 . S
Mg210 O217 1.986 . S
Mg210 O219 2.114 . S
Mg210 O220 2.251 . S
Mg210 O223 2.010 . S
O211 Mg210 2.028 . S
O211 C214 1.250 . S
O212 Mg213 2.028 . S
O212 C214 1.248 . S
Mg213 O212 2.028 . S
Mg213 O218 2.032 . S
Mg213 O220 2.079 . S
C214 O211 1.250 . S
C214 O212 1.248 . S
C215 O216 1.264 . S
C215 O223 1.249 . S
O216 C215 1.264 . S
O217 Mg210 1.986 . S
O217 C221 1.246 . S
O218 Mg213 2.032 . S
O218 C221 1.259 . S
O219 Mg210 2.114 . S
O219 C222 1.252 . S
O220 Mg210 2.251 . S
O220 Mg213 2.079 . S
O220 C222 1.273 . S
C221 O217 1.246 . S
C221 O218 1.259 . S
C222 O219 1.252 . S
C222 O220 1.273 . S
O223 Mg210 2.010 . S
O223 C215 1.249 . S
Mg224 O225 2.028 1_545 S
Mg224 O231 1.986 . S
Mg224 O233 2.114 . S
Mg224 O234 2.251 . S
Mg224 O237 2.010 . S
O225 Mg224 2.028 1_565 S
O225 C228 1.250 . S
O226 Mg227 2.028 1_565 S
O226 C228 1.248 . S
Mg227 O226 2.028 1_545 S
Mg227 O232 2.032 . S
Mg227 O234 2.079 . S
C228 O225 1.250 . S
C228 O226 1.248 . S
C229 O230 1.264 . S
C229 O237 1.249 . S
O230 C229 1.264 . S
O231 Mg224 1.986 . S
O231 C235 1.246 . S
O232 Mg227 2.032 . S
O232 C235 1.259 . S
O233 Mg224 2.114 . S
O233 C236 1.252 . S
O234 Mg224 2.251 . S
O234 Mg227 2.079 . S
O234 C236 1.273 . S
C235 O231 1.246 . S
C235 O232 1.259 . S
C236 O233 1.252 . S
C236 O234 1.273 . S
O237 Mg224 2.010 . S
O237 C229 1.249 . S
Mg238 O239 2.028 . S
Mg238 O245 1.986 . S
Mg238 O247 2.114 . S
Mg238 O248 2.251 . S
Mg238 O251 2.010 . S
O239 Mg238 2.028 . S
O239 C242 1.250 . S
O240 Mg241 2.028 . S
O240 C242 1.248 . S
Mg241 O240 2.028 . S
Mg241 O246 2.032 . S
Mg241 O248 2.079 . S
C242 O239 1.250 . S
C242 O240 1.248 . S
C243 O244 1.264 . S
C243 O251 1.249 . S
O244 C243 1.264 . S
O245 Mg238 1.986 . S
O245 C249 1.246 . S
O246 Mg241 2.032 . S
O246 C249 1.259 . S
O247 Mg238 2.114 . S
O247 C250 1.252 . S
O248 Mg238 2.251 . S
O248 Mg241 2.079 . S
O248 C250 1.273 . S
C249 O245 1.246 . S
C249 O246 1.259 . S
C250 O247 1.252 . S
C250 O248 1.273 . S
O251 Mg238 2.010 . S
O251 C243 1.249 . S
Mg252 O253 2.028 . S
Mg252 O259 1.986 . S
Mg252 O261 2.114 . S
Mg252 O262 2.251 . S
Mg252 O265 2.010 . S
O253 Mg252 2.028 . S
O253 C256 1.250 . S
O254 Mg255 2.028 . S
O254 C256 1.248 . S
Mg255 O254 2.028 . S
Mg255 O260 2.032 . S
Mg255 O262 2.079 . S
C256 O253 1.250 . S
C256 O254 1.248 . S
C257 O258 1.264 . S
C257 O265 1.249 . S
O258 C257 1.264 . S
O259 Mg252 1.986 . S
O259 C263 1.246 . S
O260 Mg255 2.032 . S
O260 C263 1.259 . S
O261 Mg252 2.114 . S
O261 C264 1.252 . S
O262 Mg252 2.251 . S
O262 Mg255 2.079 . S
O262 C264 1.273 . S
C263 O259 1.246 . S
C263 O260 1.259 . S
C264 O261 1.252 . S
C264 O262 1.273 . S
O265 Mg252 2.010 . S
O265 C257 1.249 . S
Mg266 O267 2.028 . S
Mg266 O273 1.986 . S
Mg266 O275 2.114 . S
Mg266 O276 2.251 . S
Mg266 O279 2.010 . S
O267 Mg266 2.028 . S
O267 C270 1.250 . S
O268 Mg269 2.028 . S
O268 C270 1.248 . S
Mg269 O268 2.028 . S
Mg269 O274 2.032 . S
Mg269 O276 2.079 . S
C270 O267 1.250 . S
C270 O268 1.248 . S
C271 O272 1.264 . S
C271 O279 1.249 . S
O272 C271 1.264 . S
O273 Mg266 1.986 . S
O273 C277 1.246 . S
O274 Mg269 2.032 . S
O274 C277 1.259 . S
O275 Mg266 2.114 . S
O275 C278 1.252 . S
O276 Mg266 2.251 . S
O276 Mg269 2.079 . S
O276 C278 1.273 . S
C277 O273 1.246 . S
C277 O274 1.259 . S
C278 O275 1.252 . S
C278 O276 1.273 . S
O279 Mg266 2.010 . S
O279 C271 1.249 . S
Mg280 O281 2.028 1_556 S
Mg280 O287 1.986 . S
Mg280 O289 2.114 1_556 S
Mg280 O290 2.251 . S
Mg280 O293 2.010 . S
O281 Mg280 2.028 1_554 S
O281 C284 1.250 . S
O282 Mg283 2.028 . S
O282 C284 1.248 . S
Mg283 O282 2.028 . S
Mg283 O288 2.032 1_554 S
Mg283 O290 2.079 1_554 S
C284 O281 1.250 . S
C284 O282 1.248 . S
C285 O286 1.264 . S
C285 O293 1.249 . S
O286 C285 1.264 . S
O287 Mg280 1.986 . S
O287 C291 1.246 . S
O288 Mg283 2.032 1_556 S
O288 C291 1.259 . S
O289 Mg280 2.114 1_554 S
O289 C292 1.252 . S
O290 Mg280 2.251 . S
O290 Mg283 2.079 1_556 S
O290 C292 1.273 1_556 S
C291 O287 1.246 . S
C291 O288 1.259 . S
C292 O289 1.252 . S
C292 O290 1.273 1_554 S
O293 Mg280 2.010 . S
O293 C285 1.249 . S
Mg294 O295 2.028 . S
Mg294 O301 1.986 . S
Mg294 O303 2.114 . S
Mg294 O304 2.251 . S
Mg294 O307 2.010 . S
O295 Mg294 2.028 . S
O295 C298 1.250 . S
O296 Mg297 2.028 . S
O296 C298 1.248 . S
Mg297 O296 2.028 . S
Mg297 O302 2.032 . S
Mg297 O304 2.079 . S
C298 O295 1.250 . S
C298 O296 1.248 . S
C299 O300 1.264 . S
C299 O307 1.249 . S
O300 C299 1.264 . S
O301 Mg294 1.986 . S
O301 C305 1.246 . S
O302 Mg297 2.032 . S
O302 C305 1.259 . S
O303 Mg294 2.114 . S
O303 C306 1.252 . S
O304 Mg294 2.251 . S
O304 Mg297 2.079 . S
O304 C306 1.273 . S
C305 O301 1.246 . S
C305 O302 1.259 . S
C306 O303 1.252 . S
C306 O304 1.273 . S
O307 Mg294 2.010 . S
O307 C299 1.249 . S
Mg308 O309 2.028 . S
Mg308 O315 1.986 . S
Mg308 O317 2.114 . S
Mg308 O318 2.251 . S
Mg308 O321 2.010 . S
O309 Mg308 2.028 . S
O309 C312 1.250 . S
O310 Mg311 2.028 . S
O310 C312 1.248 . S
Mg311 O310 2.028 . S
Mg311 O316 2.032 . S
Mg311 O318 2.079 . S
C312 O309 1.250 . S
C312 O310 1.248 . S
C313 O314 1.264 . S
C313 O321 1.249 . S
O314 C313 1.264 . S
O315 Mg308 1.986 . S
O315 C319 1.246 . S
O316 Mg311 2.032 . S
O316 C319 1.259 . S
O317 Mg308 2.114 . S
O317 C320 1.252 . S
O318 Mg308 2.251 . S
O318 Mg311 2.079 . S
O318 C320 1.273 . S
C319 O315 1.246 . S
C319 O316 1.259 . S
C320 O317 1.252 . S
C320 O318 1.273 . S
O321 Mg308 2.010 . S
O321 C313 1.249 . S
Mg322 O323 2.028 . S
Mg322 O329 1.986 . S
Mg322 O331 2.114 . S
Mg322 O332 2.251 . S
Mg322 O335 2.010 . S
O323 Mg322 2.028 . S
O323 C326 1.250 . S
O324 Mg325 2.028 . S
O324 C326 1.248 . S
Mg325 O324 2.028 . S
Mg325 O330 2.032 . S
Mg325 O332 2.079 . S
C326 O323 1.250 . S
C326 O324 1.248 . S
C327 O328 1.264 . S
C327 O335 1.249 . S
O328 C327 1.264 . S
O329 Mg322 1.986 . S
O329 C333 1.246 . S
O330 Mg325 2.032 . S
O330 C333 1.259 . S
O331 Mg322 2.114 . S
O331 C334 1.252 . S
O332 Mg322 2.251 . S
O332 Mg325 2.079 . S
O332 C334 1.273 . S
C333 O329 1.246 . S
C333 O330 1.259 . S
C334 O331 1.252 . S
C334 O332 1.273 . S
O335 Mg322 2.010 . S
O335 C327 1.249 . S
Eu336 N365 2.600 . S
Eu336 N371 2.562 . S
Eu336 O380 2.462 . S
Eu336 O381 2.373 . S
Eu336 O383 2.432 . S
Eu336 O384 2.291 1_554 S
Eu336 O388 2.335 1_545 S
Eu336 O391 2.372 . S
Eu336 C400 2.787 . S
C337 N338 1.365 . S
C337 C340 1.405 . S
C337 C344 1.448 . S
N338 C337 1.365 . S
N338 C341 1.319 . S
N338 Eu347 2.613 1_565 S
C339 C341 1.397 . S
C339 C342 1.367 . S
C339 H359 0.931 . S
C340 C337 1.405 . S
C340 C342 1.403 . S
C340 C346 1.439 . S
C341 N338 1.319 . S
C341 C339 1.397 . S
C341 H352 0.930 . S
C342 C339 1.367 . S
C342 C340 1.403 . S
C342 H363 0.929 . S
C343 C344 1.430 1_554 S
C343 C345 1.387 1_554 S
C343 C349 1.404 . S
C344 C337 1.448 . S
C344 C343 1.430 1_556 S
C344 N348 1.351 1_556 S
C345 C343 1.387 1_556 S
C345 C346 1.374 . S
C345 H360 0.931 . S
C346 C340 1.439 . S
C346 C345 1.374 . S
C346 H361 0.931 . S
Eu347 N338 2.613 1_545 S
Eu347 N348 2.553 1_546 S
Eu347 O382 2.336 1_656 S
Eu347 O385 2.389 1_655 S
Eu347 O386 2.454 1_556 S
Eu347 O387 2.368 1_646 S
Eu347 O389 2.444 . S
Eu347 O390 2.270 1_656 S
Eu347 C411 2.789 . S
N348 C344 1.351 1_554 S
N348 Eu347 2.553 1_564 S
N348 C350 1.325 . S
C349 C343 1.404 . S
C349 C351 1.366 . S
C349 H357 0.930 . S
C350 N348 1.325 . S
C350 C351 1.416 . S
C350 H356 0.929 . S
C351 C349 1.366 . S
C351 C350 1.416 . S
C351 H353 0.930 . S
H352 C341 0.930 . S
H353 C351 0.930 . S
H354 C369 0.930 . S
H355 C376 0.930 . S
H356 C350 0.929 . S
H357 C349 0.930 . S
H358 C372 0.929 1_556 S
H359 C339 0.931 . S
H360 C345 0.931 . S
H361 C346 0.931 . S
H362 C367 0.931 . S
H363 C342 0.929 . S
H364 C375 0.930 . S
N365 Eu336 2.600 . S
N365 C366 1.365 . S
N365 C369 1.319 . S
C366 N365 1.365 . S
C366 C368 1.405 . S
C366 C374 1.448 . S
C367 H362 0.931 . S
C367 C369 1.397 . S
C367 C370 1.367 . S
C368 C366 1.405 . S
C368 C370 1.403 . S
C368 C401 1.439 . S
C369 H354 0.930 . S
C369 N365 1.319 . S
C369 C367 1.397 . S
C370 C367 1.367 . S
C370 C368 1.403 . S
C370 H377 0.929 . S
N371 Eu336 2.562 . S
N371 C372 1.325 . S
N371 C374 1.351 . S
C372 H358 0.929 1_554 S
C372 N371 1.325 . S
C372 C376 1.416 1_554 S
C373 C374 1.430 . S
C373 C375 1.404 . S
C373 C402 1.387 . S
C374 C366 1.448 . S
C374 N371 1.351 . S
C374 C373 1.430 . S
C375 H364 0.930 . S
C375 C373 1.404 . S
C375 C376 1.366 1_554 S
C376 H355 0.930 . S
C376 C372 1.416 1_556 S
C376 C375 1.366 1_556 S
H377 C370 0.929 . S
H378 C401 0.931 . S
H379 C402 0.931 . S
O380 Eu336 2.462 . S
O380 C400 1.252 . S
O381 Eu336 2.373 . S
O381 C392 1.249 . S
O382 Eu347 2.336 1_454 S
O382 C392 1.264 . S
O383 Eu336 2.432 . S
O383 C400 1.268 . S
O384 Eu336 2.291 1_556 S
O384 C399 1.255 . S
O385 Eu347 2.389 1_455 S
O385 C399 1.257 . S
O386 Eu347 2.454 1_554 S
O386 C411 1.252 1_554 S
O387 Eu347 2.368 1_464 S
O387 C403 1.249 . S
O388 Eu336 2.335 1_565 S
O388 C403 1.264 . S
O389 Eu347 2.444 . S
O389 C411 1.268 . S
O390 Eu347 2.270 1_454 S
O390 C410 1.255 . S
O391 Eu336 2.372 . S
O391 C410 1.257 . S
C392 O381 1.249 . S
C392 O382 1.264 . S
C393 C396 1.382 . S
C393 C398 1.390 . S
C393 C400 1.506 . S
C394 C395 1.412 1_565 S
C394 C398 1.380 1_565 S
C395 C394 1.412 1_545 S
C395 C397 1.389 . S
C395 H412 0.907 1_545 S
C396 C393 1.382 . S
C396 C397 1.390 . S
C396 H413 0.931 . S
C397 C395 1.389 . S
C397 C396 1.390 . S
C397 H414 0.929 . S
C398 C393 1.390 . S
C398 C394 1.380 1_545 S
C398 H415 0.930 . S
C399 O384 1.255 . S
C399 O385 1.257 . S
C400 Eu336 2.787 . S
C400 O380 1.252 . S
C400 O383 1.268 . S
C400 C393 1.506 . S
C401 C368 1.439 . S
C401 H378 0.931 . S
C401 C402 1.374 . S
C402 C373 1.387 . S
C402 H379 0.931 . S
C402 C401 1.374 . S
C403 O387 1.249 . S
C403 O388 1.264 . S
C404 C407 1.382 . S
C404 C408 1.390 1_556 S
C404 C411 1.506 . S
C405 C406 1.398 1_554 S
C405 C408 1.392 . S
C406 C405 1.398 1_556 S
C406 C409 1.372 . S
C406 H416 0.931 . S
C407 C404 1.382 . S
C407 C409 1.390 . S
C407 H417 0.931 . S
C408 C404 1.390 1_554 S
C408 C405 1.392 . S
C408 H418 0.930 . S
C409 C406 1.372 . S
C409 C407 1.390 . S
C409 H419 0.929 . S
C410 O390 1.255 . S
C410 O391 1.257 . S
C411 Eu347 2.789 . S
C411 O386 1.252 1_556 S
C411 O389 1.268 . S
C411 C404 1.506 . S
H412 C395 0.907 1_565 S
H413 C396 0.931 . S
H414 C397 0.929 . S
H415 C398 0.930 . S
H416 C406 0.931 . S
H417 C407 0.931 . S
H418 C408 0.930 . S
H419 C409 0.929 . S
Eu420 N449 2.600 . S
Eu420 N455 2.562 . S
Eu420 O464 2.462 . S
Eu420 O465 2.373 . S
Eu420 O467 2.432 . S
Eu420 O468 2.291 . S
Eu420 O472 2.335 . S
Eu420 O475 2.372 . S
Eu420 C484 2.787 . S
C421 N422 1.365 . S
C421 C424 1.405 . S
C421 C428 1.448 . S
N422 C421 1.365 . S
N422 C425 1.319 . S
N422 Eu431 2.600 . S
C423 C425 1.397 . S
C423 C426 1.367 . S
C423 H443 0.931 . S
C424 C421 1.405 . S
C424 C426 1.403 . S
C424 C430 1.439 . S
C425 N422 1.319 . S
C425 C423 1.397 . S
C425 H436 0.930 . S
C426 C423 1.367 . S
C426 C424 1.403 . S
C426 H447 0.929 . S
C427 C428 1.430 . S
C427 C429 1.387 . S
C427 C433 1.404 . S
C428 C421 1.448 . S
C428 C427 1.430 . S
C428 N432 1.351 . S
C429 C427 1.387 . S
C429 C430 1.374 . S
C429 H444 0.931 . S
C430 C424 1.439 . S
C430 C429 1.374 . S
C430 H445 0.931 . S
Eu431 N422 2.600 . S
Eu431 N432 2.562 . S
Eu431 O466 2.335 . S
Eu431 O469 2.372 . S
Eu431 O470 2.462 . S
Eu431 O471 2.373 . S
Eu431 O473 2.432 . S
Eu431 O474 2.291 . S
Eu431 C495 2.787 . S
N432 C428 1.351 . S
N432 Eu431 2.562 . S
N432 C434 1.325 . S
C433 C427 1.404 . S
C433 C435 1.366 . S
C433 H441 0.930 . S
C434 N432 1.325 . S
C434 C435 1.416 . S
C434 H440 0.929 . S
C435 C433 1.366 . S
C435 C434 1.416 . S
C435 H437 0.930 . S
H436 C425 0.930 . S
H437 C435 0.930 . S
H438 C453 0.930 . S
H439 C460 0.930 . S
H440 C434 0.929 . S
H441 C433 0.930 . S
H442 C456 0.929 . S
H443 C423 0.931 . S
H444 C429 0.931 . S
H445 C430 0.931 . S
H446 C451 0.931 . S
H447 C426 0.929 . S
H448 C459 0.930 . S
N449 Eu420 2.600 . S
N449 C450 1.365 . S
N449 C453 1.319 . S
C450 N449 1.365 . S
C450 C452 1.405 . S
C450 C458 1.448 . S
C451 H446 0.931 . S
C451 C453 1.397 . S
C451 C454 1.367 . S
C452 C450 1.405 . S
C452 C454 1.403 . S
C452 C485 1.439 . S
C453 H438 0.930 . S
C453 N449 1.319 . S
C453 C451 1.397 . S
C454 C451 1.367 . S
C454 C452 1.403 . S
C454 H461 0.929 . S
N455 Eu420 2.562 . S
N455 C456 1.325 . S
N455 C458 1.351 . S
C456 H442 0.929 . S
C456 N455 1.325 . S
C456 C460 1.416 . S
C457 C458 1.430 . S
C457 C459 1.404 . S
C457 C486 1.387 . S
C458 C450 1.448 . S
C458 N455 1.351 . S
C458 C457 1.430 . S
C459 H448 0.930 . S
C459 C457 1.404 . S
C459 C460 1.366 . S
C460 H439 0.930 . S
C460 C456 1.416 . S
C460 C459 1.366 . S
H461 C454 0.929 . S
H462 C485 0.931 . S
H463 C486 0.931 . S
O464 Eu420 2.462 . S
O464 C484 1.252 . S
O465 Eu420 2.373 . S
O465 C476 1.249 . S
O466 Eu431 2.335 . S
O466 C476 1.264 . S
O467 Eu420 2.432 . S
O467 C484 1.268 . S
O468 Eu420 2.291 . S
O468 C483 1.255 . S
O469 Eu431 2.372 . S
O469 C483 1.257 . S
O470 Eu431 2.462 . S
O470 C495 1.252 . S
O471 Eu431 2.373 . S
O471 C487 1.249 . S
O472 Eu420 2.335 . S
O472 C487 1.264 . S
O473 Eu431 2.432 . S
O473 C495 1.268 . S
O474 Eu431 2.291 . S
O474 C494 1.255 . S
O475 Eu420 2.372 . S
O475 C494 1.257 . S
C476 O465 1.249 . S
C476 O466 1.264 . S
C477 C480 1.382 . S
C477 C482 1.390 . S
C477 C484 1.506 . S
C478 C479 1.398 . S
C478 C482 1.392 . S
C479 C478 1.398 . S
C479 C481 1.372 . S
C479 H496 0.931 . S
C480 C477 1.382 . S
C480 C481 1.390 . S
C480 H497 0.931 . S
C481 C479 1.372 . S
C481 C480 1.390 . S
C481 H498 0.929 . S
C482 C477 1.390 . S
C482 C478 1.392 . S
C482 H499 0.930 . S
C483 O468 1.255 . S
C483 O469 1.257 . S
C484 Eu420 2.787 . S
C484 O464 1.252 . S
C484 O467 1.268 . S
C484 C477 1.506 . S
C485 C452 1.439 . S
C485 H462 0.931 . S
C485 C486 1.374 . S
C486 C457 1.387 . S
C486 H463 0.931 . S
C486 C485 1.374 . S
C487 O471 1.249 . S
C487 O472 1.264 . S
C488 C491 1.382 . S
C488 C492 1.390 . S
C488 C495 1.506 . S
C489 C490 1.398 . S
C489 C492 1.392 . S
C490 C489 1.398 . S
C490 C493 1.372 . S
C490 H500 0.931 . S
C491 C488 1.382 . S
C491 C493 1.390 . S
C491 H501 0.931 . S
C492 C488 1.390 . S
C492 C489 1.392 . S
C492 H502 0.930 . S
C493 C490 1.372 . S
C493 C491 1.390 . S
C493 H503 0.929 . S
C494 O474 1.255 . S
C494 O475 1.257 . S
C495 Eu431 2.787 . S
C495 O470 1.252 . S
C495 O473 1.268 . S
C495 C488 1.506 . S
H496 C479 0.931 . S
H497 C480 0.931 . S
H498 C481 0.929 . S
H499 C482 0.930 . S
H500 C490 0.931 . S
H501 C491 0.931 . S
H502 C492 0.930 . S
H503 C493 0.929 . S
Eu504 N533 2.600 1_545 S
Eu504 N539 2.562 1_545 S
Eu504 O548 2.462 . S
Eu504 O549 2.373 1_545 S
Eu504 O551 2.432 . S
Eu504 O552 2.291 . S
Eu504 O556 2.335 . S
Eu504 O559 2.372 . S
Eu504 C568 2.787 . S
C505 N506 1.365 . S
C505 C508 1.405 . S
C505 C512 1.448 . S
N506 C505 1.365 . S
N506 C509 1.319 . S
N506 Eu515 2.600 . S
C507 C509 1.397 . S
C507 C510 1.367 . S
C507 H527 0.931 . S
C508 C505 1.405 . S
C508 C510 1.403 . S
C508 C514 1.439 . S
C509 N506 1.319 . S
C509 C507 1.397 . S
C509 H520 0.930 . S
C510 C507 1.367 . S
C510 C508 1.403 . S
C510 H531 0.929 . S
C511 C512 1.430 . S
C511 C513 1.387 . S
C511 C517 1.404 . S
C512 C505 1.448 . S
C512 C511 1.430 . S
C512 N516 1.351 . S
C513 C511 1.387 . S
C513 C514 1.374 . S
C513 H528 0.931 . S
C514 C508 1.439 . S
C514 C513 1.374 . S
C514 H529 0.931 . S
Eu515 N506 2.600 . S
Eu515 N516 2.562 . S
Eu515 O550 2.335 1_545 S
Eu515 O553 2.372 . S
Eu515 O554 2.462 . S
Eu515 O555 2.373 . S
Eu515 O557 2.432 . S
Eu515 O558 2.291 . S
Eu515 C579 2.787 . S
N516 C512 1.351 . S
N516 Eu515 2.562 . S
N516 C518 1.325 . S
C517 C511 1.404 . S
C517 C519 1.366 . S
C517 H525 0.930 . S
C518 N516 1.325 . S
C518 C519 1.416 . S
C518 H524 0.929 . S
C519 C517 1.366 . S
C519 C518 1.416 . S
C519 H521 0.930 . S
H520 C509 0.930 . S
H521 C519 0.930 . S
H522 C537 0.930 . S
H523 C544 0.930 . S
H524 C518 0.929 . S
H525 C517 0.930 . S
H526 C540 0.969 . S
H527 C507 0.931 . S
H528 C513 0.931 . S
H529 C514 0.931 . S
H530 C535 0.931 . S
H531 C510 0.929 . S
H532 C543 0.930 . S
N533 Eu504 2.600 1_565 S
N533 C534 1.365 . S
N533 C537 1.319 1_565 S
C534 N533 1.365 . S
C534 C536 1.405 . S
C534 C542 1.448 . S
C535 H530 0.931 . S
C535 C537 1.397 1_565 S
C535 C538 1.367 . S
C536 C534 1.405 . S
C536 C538 1.403 . S
C536 C569 1.439 . S
C537 H522 0.930 . S
C537 N533 1.319 1_545 S
C537 C535 1.397 1_545 S
C538 C535 1.367 . S
C538 C536 1.403 . S
C538 H545 0.929 . S
N539 Eu504 2.562 1_565 S
N539 C540 1.325 . S
N539 C542 1.351 . S
C540 H526 0.969 . S
C540 N539 1.325 . S
C540 C544 1.416 . S
C541 C542 1.430 . S
C541 C543 1.404 . S
C541 C570 1.387 . S
C542 C534 1.448 . S
C542 N539 1.351 . S
C542 C541 1.430 . S
C543 H532 0.930 . S
C543 C541 1.404 . S
C543 C544 1.366 . S
C544 H523 0.930 . S
C544 C540 1.416 . S
C544 C543 1.366 . S
H545 C538 0.929 . S
H546 C569 0.931 . S
H547 C570 0.931 . S
O548 Eu504 2.462 . S
O548 C568 1.252 . S
O549 Eu504 2.373 1_565 S
O549 C560 1.249 . S
O550 Eu515 2.335 1_565 S
O550 C560 1.264 . S
O551 Eu504 2.432 . S
O551 C568 1.268 . S
O552 Eu504 2.291 . S
O552 C567 1.255 . S
O553 Eu515 2.372 . S
O553 C567 1.257 . S
O554 Eu515 2.462 . S
O554 C579 1.252 . S
O555 Eu515 2.373 . S
O555 C571 1.249 . S
O556 Eu504 2.335 . S
O556 C571 1.264 . S
O557 Eu515 2.432 . S
O557 C579 1.268 . S
O558 Eu515 2.291 . S
O558 C578 1.255 . S
O559 Eu504 2.372 . S
O559 C578 1.257 . S
C560 O549 1.249 . S
C560 O550 1.264 . S
C561 C564 1.382 . S
C561 C566 1.390 . S
C561 C568 1.506 . S
C562 C563 1.398 . S
C562 C566 1.392 . S
C563 C562 1.398 . S
C563 C565 1.372 . S
C563 H580 0.931 . S
C564 C561 1.382 . S
C564 C565 1.390 . S
C564 H581 0.931 . S
C565 C563 1.372 . S
C565 C564 1.390 . S
C565 H582 0.929 . S
C566 C561 1.390 . S
C566 C562 1.392 . S
C566 H583 0.930 . S
C567 O552 1.255 . S
C567 O553 1.257 . S
C568 Eu504 2.787 . S
C568 O548 1.252 . S
C568 O551 1.268 . S
C568 C561 1.506 . S
C569 C536 1.439 . S
C569 H546 0.931 . S
C569 C570 1.374 . S
C570 C541 1.387 . S
C570 H547 0.931 . S
C570 C569 1.374 . S
C571 O555 1.249 . S
C571 O556 1.264 . S
C572 C575 1.382 . S
C572 C576 1.390 . S
C572 C579 1.506 1_565 S
C573 C574 1.398 . S
C573 C576 1.392 . S
C574 C573 1.398 . S
C574 C577 1.372 . S
C574 H584 0.931 . S
C575 C572 1.382 . S
C575 C577 1.390 . S
C575 H585 0.931 . S
C576 C572 1.390 . S
C576 C573 1.392 . S
C576 H586 0.930 . S
C577 C574 1.372 . S
C577 C575 1.390 . S
C577 H587 0.929 . S
C578 O558 1.255 . S
C578 O559 1.257 . S
C579 Eu515 2.787 . S
C579 O554 1.252 . S
C579 O557 1.268 . S
C579 C572 1.506 1_545 S
H580 C563 0.931 . S
H581 C564 0.931 . S
H582 C565 0.929 . S
H583 C566 0.930 . S
H584 C574 0.931 . S
H585 C575 0.931 . S
H586 C576 0.930 . S
H587 C577 0.929 . S
Eu588 N617 2.600 . S
Eu588 N623 2.562 . S
Eu588 O632 2.462 . S
Eu588 O633 2.373 . S
Eu588 O635 2.432 . S
Eu588 O636 2.291 . S
Eu588 O640 2.335 . S
Eu588 O643 2.372 . S
Eu588 C652 2.787 . S
C589 N590 1.365 . S
C589 C592 1.405 . S
C589 C596 1.448 . S
N590 C589 1.365 . S
N590 C593 1.319 . S
N590 Eu599 2.600 . S
C591 C593 1.397 . S
C591 C594 1.367 . S
C591 H611 0.931 . S
C592 C589 1.405 . S
C592 C594 1.403 . S
C592 C598 1.439 . S
C593 N590 1.319 . S
C593 C591 1.397 . S
C593 H604 0.930 . S
C594 C591 1.367 . S
C594 C592 1.403 . S
C594 H615 0.929 . S
C595 C596 1.430 . S
C595 C597 1.387 . S
C595 C601 1.404 . S
C596 C589 1.448 . S
C596 C595 1.430 . S
C596 N600 1.351 . S
C597 C595 1.387 . S
C597 C598 1.374 . S
C597 H612 0.931 . S
C598 C592 1.439 . S
C598 C597 1.374 . S
C598 H613 0.931 . S
Eu599 N590 2.600 . S
Eu599 N600 2.562 . S
Eu599 O634 2.335 . S
Eu599 O637 2.372 . S
Eu599 O638 2.462 . S
Eu599 O639 2.373 . S
Eu599 O641 2.432 . S
Eu599 O642 2.291 . S
Eu599 C663 2.787 . S
N600 C596 1.351 . S
N600 Eu599 2.562 . S
N600 C602 1.325 . S
C601 C595 1.404 . S
C601 C603 1.366 . S
C601 H609 0.930 . S
C602 N600 1.325 . S
C602 C603 1.416 . S
C602 H608 0.929 . S
C603 C601 1.366 . S
C603 C602 1.416 . S
C603 H605 0.930 . S
H604 C593 0.930 . S
H605 C603 0.930 . S
H606 C621 0.930 . S
H607 C628 0.930 . S
H608 C602 0.929 . S
H609 C601 0.930 . S
H610 C624 0.929 . S
H611 C591 0.931 . S
H612 C597 0.931 . S
H613 C598 0.931 . S
H614 C619 0.931 . S
H615 C594 0.929 . S
H616 C627 0.930 . S
N617 Eu588 2.600 . S
N617 C618 1.365 . S
N617 C621 1.319 . S
C618 N617 1.365 . S
C618 C620 1.405 . S
C618 C626 1.448 . S
C619 H614 0.931 . S
C619 C621 1.397 . S
C619 C622 1.367 . S
C620 C618 1.405 . S
C620 C622 1.403 . S
C620 C653 1.439 . S
C621 H606 0.930 . S
C621 N617 1.319 . S
C621 C619 1.397 . S
C622 C619 1.367 . S
C622 C620 1.403 . S
C622 H629 0.929 . S
N623 Eu588 2.562 . S
N623 C624 1.325 . S
N623 C626 1.351 . S
C624 H610 0.929 . S
C624 N623 1.325 . S
C624 C628 1.416 . S
C625 C626 1.430 . S
C625 C627 1.404 . S
C625 C654 1.387 . S
C626 C618 1.448 . S
C626 N623 1.351 . S
C626 C625 1.430 . S
C627 H616 0.930 . S
C627 C625 1.404 . S
C627 C628 1.366 . S
C628 H607 0.930 . S
C628 C624 1.416 . S
C628 C627 1.366 . S
H629 C622 0.929 . S
H630 C653 0.931 . S
H631 C654 0.931 . S
O632 Eu588 2.462 . S
O632 C652 1.252 . S
O633 Eu588 2.373 . S
O633 C644 1.249 . S
O634 Eu599 2.335 . S
O634 C644 1.264 . S
O635 Eu588 2.432 . S
O635 C652 1.268 . S
O636 Eu588 2.291 . S
O636 C651 1.255 . S
O637 Eu599 2.372 . S
O637 C651 1.257 . S
O638 Eu599 2.462 . S
O638 C663 1.252 . S
O639 Eu599 2.373 . S
O639 C655 1.249 . S
O640 Eu588 2.335 . S
O640 C655 1.264 . S
O641 Eu599 2.432 . S
O641 C663 1.268 . S
O642 Eu599 2.291 . S
O642 C662 1.255 . S
O643 Eu588 2.372 . S
O643 C662 1.257 . S
C644 O633 1.249 . S
C644 O634 1.264 . S
C645 C648 1.382 . S
C645 C650 1.390 . S
C645 C652 1.506 . S
C646 C647 1.398 . S
C646 C650 1.392 . S
C647 C646 1.398 . S
C647 C649 1.372 . S
C647 H664 0.931 . S
C648 C645 1.382 . S
C648 C649 1.390 . S
C648 H665 0.931 . S
C649 C647 1.372 . S
C649 C648 1.390 . S
C649 H666 0.929 . S
C650 C645 1.390 . S
C650 C646 1.392 . S
C650 H667 0.930 . S
C651 O636 1.255 . S
C651 O637 1.257 . S
C652 Eu588 2.787 . S
C652 O632 1.252 . S
C652 O635 1.268 . S
C652 C645 1.506 . S
C653 C620 1.439 . S
C653 H630 0.931 . S
C653 C654 1.374 . S
C654 C625 1.387 . S
C654 H631 0.931 . S
C654 C653 1.374 . S
C655 O639 1.249 . S
C655 O640 1.264 . S
C656 C659 1.382 . S
C656 C660 1.390 . S
C656 C663 1.506 . S
C657 C658 1.398 . S
C657 C660 1.392 . S
C658 C657 1.398 . S
C658 C661 1.372 . S
C658 H668 0.931 . S
C659 C656 1.382 . S
C659 C661 1.390 . S
C659 H669 0.931 . S
C660 C656 1.390 . S
C660 C657 1.392 . S
C660 H670 0.930 . S
C661 C658 1.372 . S
C661 C659 1.390 . S
C661 H671 0.929 . S
C662 O642 1.255 . S
C662 O643 1.257 . S
C663 Eu599 2.787 . S
C663 O638 1.252 . S
C663 O641 1.268 . S
C663 C656 1.506 . S
H664 C647 0.931 . S
H665 C648 0.931 . S
H666 C649 0.929 . S
H667 C650 0.930 . S
H668 C658 0.931 . S
H669 C659 0.931 . S
H670 C660 0.930 . S
H671 C661 0.929 . S
Eu672 N701 2.600 . S
Eu672 N707 2.562 . S
Eu672 O716 2.462 . S
Eu672 O717 2.373 1_565 S
Eu672 O719 2.432 . S
Eu672 O720 2.227 1_465 S
Eu672 O724 2.335 1_565 S
Eu672 O727 2.372 1_565 S
Eu672 C736 2.787 . S
C673 N674 1.364 . S
C673 C676 1.403 . S
C673 C680 1.451 1_655 S
N674 C673 1.364 . S
N674 C677 1.319 . S
N674 Eu683 2.600 1_655 S
C675 C677 1.397 . S
C675 C678 1.367 . S
C675 H695 0.931 . S
C676 C673 1.403 . S
C676 C678 1.403 . S
C676 C682 1.439 1_655 S
C677 N674 1.319 . S
C677 C675 1.397 . S
C677 H688 0.930 . S
C678 C675 1.367 . S
C678 C676 1.403 . S
C678 H699 0.929 . S
C679 C680 1.430 . S
C679 C681 1.387 . S
C679 C685 1.404 . S
C680 C673 1.451 1_455 S
C680 C679 1.430 . S
C680 N684 1.351 . S
C681 C679 1.387 . S
C681 C682 1.374 . S
C681 H696 0.931 . S
C682 C676 1.439 1_455 S
C682 C681 1.374 . S
C682 H697 0.931 1_455 S
Eu683 N674 2.600 1_455 S
Eu683 N684 2.562 . S
Eu683 O718 2.335 . S
Eu683 O721 2.372 1_455 S
Eu683 O722 2.462 . S
Eu683 O723 2.373 . S
Eu683 O725 2.432 1_455 S
Eu683 O726 2.291 . S
Eu683 C747 2.787 . S
N684 C680 1.351 . S
N684 Eu683 2.562 . S
N684 C686 1.325 . S
C685 C679 1.404 . S
C685 C687 1.366 . S
C685 H693 0.930 . S
C686 N684 1.325 . S
C686 C687 1.416 . S
C686 H692 0.929 . S
C687 C685 1.366 . S
C687 C686 1.416 . S
C687 H689 0.930 . S
H688 C677 0.930 . S
H689 C687 0.930 . S
H690 C705 0.907 1_545 S
H691 C712 0.930 . S
H692 C686 0.929 . S
H693 C685 0.930 . S
H694 C708 0.929 . S
H695 C675 0.931 . S
H696 C681 0.931 . S
H697 C682 0.931 1_655 S
H698 C703 0.931 . S
H699 C678 0.929 . S
H700 C711 0.930 . S
N701 Eu672 2.600 . S
N701 C702 1.365 . S
N701 C705 1.319 . S
C702 N701 1.365 . S
C702 C704 1.405 . S
C702 C710 1.448 . S
C703 H698 0.931 . S
C703 C705 1.397 . S
C703 C706 1.367 . S
C704 C702 1.405 . S
C704 C706 1.403 . S
C704 C737 1.439 . S
C705 H690 0.907 1_565 S
C705 N701 1.319 . S
C705 C703 1.397 . S
C706 C703 1.367 . S
C706 C704 1.403 . S
C706 H713 0.929 . S
N707 Eu672 2.562 . S
N707 C708 1.325 1_455 S
N707 C710 1.351 . S
C708 H694 0.929 . S
C708 N707 1.325 1_655 S
C708 C712 1.416 . S
C709 C710 1.430 . S
C709 C711 1.404 1_455 S
C709 C738 1.387 . S
C710 C702 1.448 . S
C710 N707 1.351 . S
C710 C709 1.430 . S
C711 H700 0.930 . S
C711 C709 1.404 1_655 S
C711 C712 1.366 . S
C712 H691 0.930 . S
C712 C708 1.416 . S
C712 C711 1.366 . S
H713 C706 0.929 . S
H714 C737 0.931 . S
H715 C738 0.931 . S
O716 Eu672 2.462 . S
O716 C736 1.252 . S
O717 Eu672 2.373 1_545 S
O717 C728 1.249 . S
O718 Eu683 2.335 . S
O718 C728 1.264 . S
O719 Eu672 2.432 . S
O719 C736 1.268 . S
O720 Eu672 2.227 1_645 S
O720 C735 1.325 . S
O721 Eu683 2.372 1_655 S
O721 C735 1.257 . S
O722 Eu683 2.462 . S
O722 C747 1.252 . S
O723 Eu683 2.373 . S
O723 C739 1.249 . S
O724 Eu672 2.335 1_545 S
O724 C739 1.264 . S
O725 Eu683 2.432 1_655 S
O725 C747 1.268 1_655 S
O726 Eu683 2.291 . S
O726 C746 1.255 . S
O727 Eu672 2.372 1_545 S
O727 C746 1.257 . S
C728 O717 1.249 . S
C728 O718 1.264 . S
C729 C732 1.382 . S
C729 C734 1.390 . S
C729 C736 1.506 . S
C730 C731 1.398 . S
C730 C734 1.392 . S
C731 C730 1.398 . S
C731 C733 1.372 . S
C731 H748 0.931 . S
C732 C729 1.382 . S
C732 C733 1.390 . S
C732 H749 0.931 . S
C733 C731 1.372 . S
C733 C732 1.390 . S
C733 H750 0.929 . S
C734 C729 1.390 . S
C734 C730 1.392 . S
C734 H751 0.930 . S
C735 O720 1.325 . S
C735 O721 1.257 . S
C736 Eu672 2.787 . S
C736 O716 1.252 . S
C736 O719 1.268 . S
C736 C729 1.506 . S
C737 C704 1.439 . S
C737 H714 0.931 . S
C737 C738 1.374 . S
C738 C709 1.387 . S
C738 H715 0.931 . S
C738 C737 1.374 . S
C739 O723 1.249 . S
C739 O724 1.264 . S
C740 C743 1.382 1_455 S
C740 C744 1.390 . S
C740 C747 1.506 . S
C741 C742 1.398 1_455 S
C741 C744 1.392 . S
C742 C741 1.398 1_655 S
C742 C745 1.372 . S
C742 H752 0.931 . S
C743 C740 1.382 1_655 S
C743 C745 1.390 . S
C743 H753 0.931 . S
C744 C740 1.390 . S
C744 C741 1.392 . S
C744 H754 0.930 . S
C745 C742 1.372 . S
C745 C743 1.390 . S
C745 H755 0.929 . S
C746 O726 1.255 . S
C746 O727 1.257 . S
C747 Eu683 2.787 . S
C747 O722 1.252 . S
C747 O725 1.268 1_455 S
C747 C740 1.506 . S
H748 C731 0.931 . S
H749 C732 0.931 . S
H750 C733 0.929 . S
H751 C734 0.930 . S
H752 C742 0.931 . S
H753 C743 0.931 . S
H754 C744 0.930 . S
H755 C745 0.929 . S
Eu756 N785 2.600 . S
Eu756 N791 2.562 . S
Eu756 O800 2.462 . S
Eu756 O801 2.373 . S
Eu756 O803 2.432 . S
Eu756 O804 2.291 . S
Eu756 O808 2.335 . S
Eu756 O811 2.372 . S
Eu756 C820 2.787 . S
C757 N758 1.365 . S
C757 C760 1.405 . S
C757 C764 1.448 . S
N758 C757 1.365 . S
N758 C761 1.319 . S
N758 Eu767 2.600 . S
C759 C761 1.397 . S
C759 C762 1.367 . S
C759 H779 0.931 . S
C760 C757 1.405 . S
C760 C762 1.403 . S
C760 C766 1.439 . S
C761 N758 1.319 . S
C761 C759 1.397 . S
C761 H772 0.930 . S
C762 C759 1.367 . S
C762 C760 1.403 . S
C762 H783 0.929 . S
C763 C764 1.430 . S
C763 C765 1.387 . S
C763 C769 1.404 . S
C764 C757 1.448 . S
C764 C763 1.430 . S
C764 N768 1.351 . S
C765 C763 1.387 . S
C765 C766 1.374 . S
C765 H780 0.931 . S
C766 C760 1.439 . S
C766 C765 1.374 . S
C766 H781 0.931 . S
Eu767 N758 2.600 . S
Eu767 N768 2.562 . S
Eu767 O802 2.335 . S
Eu767 O805 2.372 . S
Eu767 O806 2.462 . S
Eu767 O807 2.373 . S
Eu767 O809 2.432 . S
Eu767 O810 2.291 . S
Eu767 C831 2.787 . S
N768 C764 1.351 . S
N768 Eu767 2.562 . S
N768 C770 1.325 . S
C769 C763 1.404 . S
C769 C771 1.366 . S
C769 H777 0.930 . S
C770 N768 1.325 . S
C770 C771 1.416 . S
C770 H776 0.929 . S
C771 C769 1.366 . S
C771 C770 1.416 . S
C771 H773 0.930 . S
H772 C761 0.930 . S
H773 C771 0.930 . S
H774 C789 0.930 . S
H775 C796 0.930 . S
H776 C770 0.929 . S
H777 C769 0.930 . S
H778 C792 0.929 . S
H779 C759 0.931 . S
H780 C765 0.931 . S
H781 C766 0.931 . S
H782 C787 0.931 . S
H783 C762 0.929 . S
H784 C795 0.930 . S
N785 Eu756 2.600 . S
N785 C786 1.365 . S
N785 C789 1.319 . S
C786 N785 1.365 . S
C786 C788 1.405 . S
C786 C794 1.448 . S
C787 H782 0.931 . S
C787 C789 1.397 . S
C787 C790 1.367 . S
C788 C786 1.405 . S
C788 C790 1.403 . S
C788 C821 1.439 . S
C789 H774 0.930 . S
C789 N785 1.319 . S
C789 C787 1.397 . S
C790 C787 1.367 . S
C790 C788 1.403 . S
C790 H797 0.929 . S
N791 Eu756 2.562 . S
N791 C792 1.325 . S
N791 C794 1.351 . S
C792 H778 0.929 . S
C792 N791 1.325 . S
C792 C796 1.416 . S
C793 C794 1.430 . S
C793 C795 1.404 . S
C793 C822 1.387 . S
C794 C786 1.448 . S
C794 N791 1.351 . S
C794 C793 1.430 . S
C795 H784 0.930 . S
C795 C793 1.404 . S
C795 C796 1.366 . S
C796 H775 0.930 . S
C796 C792 1.416 . S
C796 C795 1.366 . S
H797 C790 0.929 . S
H798 C821 0.931 . S
H799 C822 0.931 . S
O800 Eu756 2.462 . S
O800 C820 1.252 . S
O801 Eu756 2.373 . S
O801 C812 1.249 . S
O802 Eu767 2.335 . S
O802 C812 1.264 . S
O803 Eu756 2.432 . S
O803 C820 1.268 . S
O804 Eu756 2.291 . S
O804 C819 1.255 . S
O805 Eu767 2.372 . S
O805 C819 1.257 . S
O806 Eu767 2.462 . S
O806 C831 1.252 . S
O807 Eu767 2.373 . S
O807 C823 1.249 . S
O808 Eu756 2.335 . S
O808 C823 1.264 . S
O809 Eu767 2.432 . S
O809 C831 1.268 . S
O810 Eu767 2.291 . S
O810 C830 1.255 . S
O811 Eu756 2.372 . S
O811 C830 1.257 . S
C812 O801 1.249 . S
C812 O802 1.264 . S
C813 C816 1.382 . S
C813 C818 1.390 . S
C813 C820 1.506 . S
C814 C815 1.398 . S
C814 C818 1.392 . S
C815 C814 1.398 . S
C815 C817 1.372 . S
C815 H832 0.931 . S
C816 C813 1.382 . S
C816 C817 1.390 . S
C816 H833 0.931 . S
C817 C815 1.372 . S
C817 C816 1.390 . S
C817 H834 0.929 . S
C818 C813 1.390 . S
C818 C814 1.392 . S
C818 H835 0.930 . S
C819 O804 1.255 . S
C819 O805 1.257 . S
C820 Eu756 2.787 . S
C820 O800 1.252 . S
C820 O803 1.268 . S
C820 C813 1.506 . S
C821 C788 1.439 . S
C821 H798 0.931 . S
C821 C822 1.374 . S
C822 C793 1.387 . S
C822 H799 0.931 . S
C822 C821 1.374 . S
C823 O807 1.249 . S
C823 O808 1.264 . S
C824 C827 1.382 . S
C824 C828 1.390 . S
C824 C831 1.506 . S
C825 C826 1.398 . S
C825 C828 1.392 . S
C826 C825 1.398 . S
C826 C829 1.372 . S
C826 H836 0.931 . S
C827 C824 1.382 . S
C827 C829 1.390 . S
C827 H837 0.931 . S
C828 C824 1.390 . S
C828 C825 1.392 . S
C828 H838 0.930 . S
C829 C826 1.372 . S
C829 C827 1.390 . S
C829 H839 0.929 . S
C830 O810 1.255 . S
C830 O811 1.257 . S
C831 Eu767 2.787 . S
C831 O806 1.252 . S
C831 O809 1.268 . S
C831 C824 1.506 . S
H832 C815 0.931 . S
H833 C816 0.931 . S
H834 C817 0.929 . S
H835 C818 0.930 . S
H836 C826 0.931 . S
H837 C827 0.931 . S
H838 C828 0.930 . S
H839 C829 0.929 . S
Eu840 N869 2.600 . S
Eu840 N875 2.562 . S
Eu840 O884 2.462 . S
Eu840 O885 2.373 1_556 S
Eu840 O887 2.432 . S
Eu840 O888 2.291 . S
Eu840 O892 2.335 1_556 S
Eu840 O895 2.372 1_556 S
Eu840 C904 2.787 . S
C841 N842 1.365 . S
C841 C844 1.405 . S
C841 C848 1.448 1_565 S
N842 C841 1.365 . S
N842 C845 1.319 . S
N842 Eu851 2.600 1_565 S
C843 C845 1.397 . S
C843 C846 1.367 . S
C843 H863 0.931 . S
C844 C841 1.405 . S
C844 C846 1.403 . S
C844 C850 1.439 . S
C845 N842 1.319 . S
C845 C843 1.397 . S
C845 H856 0.930 . S
C846 C843 1.367 . S
C846 C844 1.403 . S
C846 H867 0.929 . S
C847 C848 1.430 . S
C847 C849 1.387 . S
C847 C853 1.404 . S
C848 C841 1.448 1_545 S
C848 C847 1.430 . S
C848 N852 1.351 . S
C849 C847 1.387 . S
C849 C850 1.374 1_545 S
C849 H864 0.931 . S
C850 C844 1.439 . S
C850 C849 1.374 1_565 S
C850 H865 0.931 . S
Eu851 N842 2.600 1_545 S
Eu851 N852 2.562 . S
Eu851 O886 2.335 . S
Eu851 O889 2.372 1_545 S
Eu851 O890 2.462 . S
Eu851 O891 2.373 . S
Eu851 O893 2.432 1_545 S
Eu851 O894 2.291 . S
Eu851 C915 2.787 1_545 S
N852 C848 1.351 . S
N852 Eu851 2.562 . S
N852 C854 1.325 . S
C853 C847 1.404 . S
C853 C855 1.366 . S
C853 H861 0.930 . S
C854 N852 1.325 . S
C854 C855 1.416 . S
C854 H860 0.929 . S
C855 C853 1.366 . S
C855 C854 1.416 . S
C855 H857 0.930 . S
H856 C845 0.930 . S
H857 C855 0.930 . S
H858 C873 0.940 . S
H859 C880 0.930 . S
H860 C854 0.929 . S
H861 C853 0.930 . S
H862 C876 0.921 1_565 S
H863 C843 0.931 . S
H864 C849 0.931 . S
H865 C850 0.931 . S
H866 C871 0.931 . S
H867 C846 0.929 . S
H868 C879 0.936 . S
N869 Eu840 2.600 . S
N869 C870 1.365 . S
N869 C873 1.319 . S
C870 N869 1.365 . S
C870 C872 1.405 . S
C870 C878 1.448 . S
C871 H866 0.931 . S
C871 C873 1.397 . S
C871 C874 1.367 . S
C872 C870 1.405 . S
C872 C874 1.403 . S
C872 C905 1.439 . S
C873 H858 0.940 . S
C873 N869 1.319 . S
C873 C871 1.397 . S
C874 C871 1.367 . S
C874 C872 1.403 . S
C874 H881 0.929 . S
N875 Eu840 2.562 . S
N875 C876 1.336 . S
N875 C878 1.351 . S
C876 H862 0.921 1_545 S
C876 N875 1.336 . S
C876 C880 1.412 1_545 S
C877 C878 1.430 . S
C877 C879 1.384 1_545 S
C877 C906 1.387 . S
C878 C870 1.448 . S
C878 N875 1.351 . S
C878 C877 1.430 . S
C879 H868 0.936 . S
C879 C877 1.384 1_565 S
C879 C880 1.382 . S
C880 H859 0.930 . S
C880 C876 1.412 1_565 S
C880 C879 1.382 . S
H881 C874 0.929 . S
H882 C905 0.931 . S
H883 C906 0.931 . S
O884 Eu840 2.462 . S
O884 C904 1.252 . S
O885 Eu840 2.373 1_554 S
O885 C896 1.249 . S
O886 Eu851 2.335 . S
O886 C896 1.264 . S
O887 Eu840 2.432 . S
O887 C904 1.268 . S
O888 Eu840 2.291 . S
O888 C903 1.258 1_545 S
O889 Eu851 2.372 1_565 S
O889 C903 1.249 1_554 S
O890 Eu851 2.462 . S
O890 C915 1.252 1_545 S
O891 Eu851 2.373 . S
O891 C907 1.249 . S
O892 Eu840 2.335 1_554 S
O892 C907 1.264 . S
O893 Eu851 2.432 1_565 S
O893 C915 1.268 . S
O894 Eu851 2.291 . S
O894 C914 1.255 . S
O895 Eu840 2.372 1_554 S
O895 C914 1.257 . S
C896 O885 1.249 . S
C896 O886 1.264 . S
C897 C900 1.382 . S
C897 C902 1.390 . S
C897 C904 1.506 . S
C898 C899 1.398 . S
C898 C902 1.392 . S
C899 C898 1.398 . S
C899 C901 1.372 . S
C899 H916 0.931 . S
C900 C897 1.382 . S
C900 C901 1.390 . S
C900 H917 0.931 . S
C901 C899 1.372 . S
C901 C900 1.390 . S
C901 H918 0.929 . S
C902 C897 1.390 . S
C902 C898 1.392 . S
C902 H919 0.930 . S
C903 O888 1.258 1_565 S
C903 O889 1.249 1_556 S
C904 Eu840 2.787 . S
C904 O884 1.252 . S
C904 O887 1.268 . S
C904 C897 1.506 . S
C905 C872 1.439 . S
C905 H882 0.931 . S
C905 C906 1.374 . S
C906 C877 1.387 . S
C906 H883 0.931 . S
C906 C905 1.374 . S
C907 O891 1.249 . S
C907 O892 1.264 . S
C908 C911 1.382 . S
C908 C912 1.390 1_565 S
C908 C915 1.506 . S
C909 C910 1.343 1_545 S
C909 C912 1.408 . S
C910 C909 1.343 1_565 S
C910 C913 1.372 . S
C910 H920 0.931 . S
C911 C908 1.382 . S
C911 C913 1.390 . S
C911 H921 0.931 . S
C912 C908 1.390 1_545 S
C912 C909 1.408 . S
C912 H922 0.930 . S
C913 C910 1.372 . S
C913 C911 1.390 . S
C913 H923 0.929 . S
C914 O894 1.255 . S
C914 O895 1.257 . S
C915 Eu851 2.787 1_565 S
C915 O890 1.252 1_565 S
C915 O893 1.268 . S
C915 C908 1.506 . S
H916 C899 0.931 . S
H917 C900 0.931 . S
H918 C901 0.929 . S
H919 C902 0.930 . S
H920 C910 0.931 . S
H921 C911 0.931 . S
H922 C912 0.930 . S
H923 C913 0.929 . S
Eu924 N953 2.600 . S
Eu924 N959 2.562 . S
Eu924 O968 2.462 . S
Eu924 O969 2.373 . S
Eu924 O971 2.432 . S
Eu924 O972 2.291 . S
Eu924 O976 2.335 . S
Eu924 O979 2.372 . S
Eu924 C988 2.787 . S
C925 N926 1.365 . S
C925 C928 1.405 . S
C925 C932 1.448 . S
N926 C925 1.365 . S
N926 C929 1.319 . S
N926 Eu935 2.600 . S
C927 C929 1.397 . S
C927 C930 1.367 . S
C927 H947 0.931 . S
C928 C925 1.405 . S
C928 C930 1.403 . S
C928 C934 1.439 . S
C929 N926 1.319 . S
C929 C927 1.397 . S
C929 H940 0.930 . S
C930 C927 1.367 . S
C930 C928 1.403 . S
C930 H951 0.929 . S
C931 C932 1.430 . S
C931 C933 1.387 . S
C931 C937 1.404 . S
C932 C925 1.448 . S
C932 C931 1.430 . S
C932 N936 1.351 . S
C933 C931 1.387 . S
C933 C934 1.374 . S
C933 H948 0.931 . S
C934 C928 1.439 . S
C934 C933 1.374 . S
C934 H949 0.931 . S
Eu935 N926 2.600 . S
Eu935 N936 2.562 . S
Eu935 O970 2.335 . S
Eu935 O973 2.372 . S
Eu935 O974 2.462 . S
Eu935 O975 2.373 . S
Eu935 O977 2.432 . S
Eu935 O978 2.291 . S
Eu935 C999 2.787 . S
N936 C932 1.351 . S
N936 Eu935 2.562 . S
N936 C938 1.325 . S
C937 C931 1.404 . S
C937 C939 1.366 . S
C937 H945 0.930 . S
C938 N936 1.325 . S
C938 C939 1.416 . S
C938 H944 0.929 . S
C939 C937 1.366 . S
C939 C938 1.416 . S
C939 H941 0.930 . S
H940 C929 0.930 . S
H941 C939 0.930 . S
H942 C957 0.930 . S
H943 C964 0.930 . S
H944 C938 0.929 . S
H945 C937 0.930 . S
H946 C960 0.929 . S
H947 C927 0.931 . S
H948 C933 0.931 . S
H949 C934 0.931 . S
H950 C955 0.931 . S
H951 C930 0.929 . S
H952 C963 0.930 . S
N953 Eu924 2.600 . S
N953 C954 1.365 . S
N953 C957 1.319 . S
C954 N953 1.365 . S
C954 C956 1.405 . S
C954 C962 1.448 . S
C955 H950 0.931 . S
C955 C957 1.397 . S
C955 C958 1.367 . S
C956 C954 1.405 . S
C956 C958 1.403 . S
C956 C989 1.439 . S
C957 H942 0.930 . S
C957 N953 1.319 . S
C957 C955 1.397 . S
C958 C955 1.367 . S
C958 C956 1.403 . S
C958 H965 0.929 . S
N959 Eu924 2.562 . S
N959 C960 1.325 . S
N959 C962 1.351 . S
C960 H946 0.929 . S
C960 N959 1.325 . S
C960 C964 1.416 . S
C961 C962 1.430 . S
C961 C963 1.404 . S
C961 C990 1.387 . S
C962 C954 1.448 . S
C962 N959 1.351 . S
C962 C961 1.430 . S
C963 H952 0.930 . S
C963 C961 1.404 . S
C963 C964 1.366 . S
C964 H943 0.930 . S
C964 C960 1.416 . S
C964 C963 1.366 . S
H965 C958 0.929 . S
H966 C989 0.931 . S
H967 C990 0.931 . S
O968 Eu924 2.462 . S
O968 C988 1.252 . S
O969 Eu924 2.373 . S
O969 C980 1.249 . S
O970 Eu935 2.335 . S
O970 C980 1.264 . S
O971 Eu924 2.432 . S
O971 C988 1.268 . S
O972 Eu924 2.291 . S
O972 C987 1.255 . S
O973 Eu935 2.372 . S
O973 C987 1.257 . S
O974 Eu935 2.462 . S
O974 C999 1.252 . S
O975 Eu935 2.373 . S
O975 C991 1.249 . S
O976 Eu924 2.335 . S
O976 C991 1.264 . S
O977 Eu935 2.432 . S
O977 C999 1.268 . S
O978 Eu935 2.291 . S
O978 C998 1.255 . S
O979 Eu924 2.372 . S
O979 C998 1.257 . S
C980 O969 1.249 . S
C980 O970 1.264 . S
C981 C984 1.382 . S
C981 C986 1.390 . S
C981 C988 1.506 . S
C982 C983 1.398 . S
C982 C986 1.392 . S
C983 C982 1.398 . S
C983 C985 1.372 . S
C983 H1000 0.931 . S
C984 C981 1.382 . S
C984 C985 1.390 . S
C984 H1001 0.931 . S
C985 C983 1.372 . S
C985 C984 1.390 . S
C985 H1002 0.929 . S
C986 C981 1.390 . S
C986 C982 1.392 . S
C986 H1003 0.930 . S
C987 O972 1.255 . S
C987 O973 1.257 . S
C988 Eu924 2.787 . S
C988 O968 1.252 . S
C988 O971 1.268 . S
C988 C981 1.506 . S
C989 C956 1.439 . S
C989 H966 0.931 . S
C989 C990 1.374 . S
C990 C961 1.387 . S
C990 H967 0.931 . S
C990 C989 1.374 . S
C991 O975 1.249 . S
C991 O976 1.264 . S
C992 C995 1.382 . S
C992 C996 1.390 . S
C992 C999 1.506 . S
C993 C994 1.398 . S
C993 C996 1.392 . S
C994 C993 1.398 . S
C994 C997 1.372 . S
C994 H1004 0.931 . S
C995 C992 1.382 . S
C995 C997 1.390 . S
C995 H1005 0.931 . S
C996 C992 1.390 . S
C996 C993 1.392 . S
C996 H1006 0.930 . S
C997 C994 1.372 . S
C997 C995 1.390 . S
C997 H1007 0.929 . S
C998 O978 1.255 . S
C998 O979 1.257 . S
C999 Eu935 2.787 . S
C999 O974 1.252 . S
C999 O977 1.268 . S
C999 C992 1.506 . S
H1000 C983 0.931 . S
H1001 C984 0.931 . S
H1002 C985 0.929 . S
H1003 C986 0.930 . S
H1004 C994 0.931 . S
H1005 C995 0.931 . S
H1006 C996 0.930 . S
H1007 C997 0.929 . S
Eu1008 N1037 2.600 1_554 S
Eu1008 N1043 2.562 1_554 S
Eu1008 O1052 2.462 . S
Eu1008 O1053 2.373 1_554 S
Eu1008 O1055 2.432 . S
Eu1008 O1056 2.291 . S
Eu1008 O1060 2.335 . S
Eu1008 O1063 2.372 . S
Eu1008 C1072 2.787 . S
C1009 N1010 1.365 . S
C1009 C1012 1.405 . S
C1009 C1016 1.448 . S
N1010 C1009 1.365 . S
N1010 C1013 1.319 . S
N1010 Eu1019 2.600 . S
C1011 C1013 1.397 . S
C1011 C1014 1.367 . S
C1011 H1031 0.931 . S
C1012 C1009 1.405 . S
C1012 C1014 1.403 . S
C1012 C1018 1.439 . S
C1013 N1010 1.319 . S
C1013 C1011 1.397 . S
C1013 H1024 0.930 . S
C1014 C1011 1.367 . S
C1014 C1012 1.403 . S
C1014 H1035 0.929 . S
C1015 C1016 1.430 . S
C1015 C1017 1.387 . S
C1015 C1021 1.404 . S
C1016 C1009 1.448 . S
C1016 C1015 1.430 . S
C1016 N1020 1.351 . S
C1017 C1015 1.387 . S
C1017 C1018 1.374 . S
C1017 H1032 0.931 . S
C1018 C1012 1.439 . S
C1018 C1017 1.374 . S
C1018 H1033 0.931 . S
Eu1019 N1010 2.600 . S
Eu1019 N1020 2.562 . S
Eu1019 O1054 2.335 1_554 S
Eu1019 O1057 2.372 . S
Eu1019 O1058 2.462 . S
Eu1019 O1059 2.373 . S
Eu1019 O1061 2.432 . S
Eu1019 O1062 2.291 . S
Eu1019 C1083 2.787 . S
N1020 C1016 1.351 . S
N1020 Eu1019 2.562 . S
N1020 C1022 1.325 . S
C1021 C1015 1.404 . S
C1021 C1023 1.366 . S
C1021 H1029 0.930 . S
C1022 N1020 1.325 . S
C1022 C1023 1.416 . S
C1022 H1028 0.929 . S
C1023 C1021 1.366 . S
C1023 C1022 1.416 . S
C1023 H1025 0.930 . S
H1024 C1013 0.930 . S
H1025 C1023 0.930 . S
H1026 C1041 0.930 . S
H1027 C1048 0.930 . S
H1028 C1022 0.929 . S
H1029 C1021 0.930 . S
H1030 C1044 0.929 . S
H1031 C1011 0.931 . S
H1032 C1017 0.931 . S
H1033 C1018 0.931 . S
H1034 C1039 0.931 . S
H1035 C1014 0.929 . S
H1036 C1047 0.930 . S
N1037 Eu1008 2.600 1_556 S
N1037 C1038 1.365 . S
N1037 C1041 1.319 . S
C1038 N1037 1.365 . S
C1038 C1040 1.405 . S
C1038 C1046 1.448 . S
C1039 H1034 0.931 . S
C1039 C1041 1.397 . S
C1039 C1042 1.367 . S
C1040 C1038 1.405 . S
C1040 C1042 1.403 . S
C1040 C1073 1.439 . S
C1041 H1026 0.930 . S
C1041 N1037 1.319 . S
C1041 C1039 1.397 . S
C1042 C1039 1.367 . S
C1042 C1040 1.403 . S
C1042 H1049 0.929 . S
N1043 Eu1008 2.562 1_556 S
N1043 C1044 1.325 . S
N1043 C1046 1.351 . S
C1044 H1030 0.929 . S
C1044 N1043 1.325 . S
C1044 C1048 1.416 . S
C1045 C1046 1.430 . S
C1045 C1047 1.404 . S
C1045 C1074 1.387 . S
C1046 C1038 1.448 . S
C1046 N1043 1.351 . S
C1046 C1045 1.430 . S
C1047 H1036 0.930 . S
C1047 C1045 1.404 . S
C1047 C1048 1.366 . S
C1048 H1027 0.930 . S
C1048 C1044 1.416 . S
C1048 C1047 1.366 . S
H1049 C1042 0.929 . S
H1050 C1073 0.931 . S
H1051 C1074 0.931 . S
O1052 Eu1008 2.462 . S
O1052 C1072 1.252 . S
O1053 Eu1008 2.373 1_556 S
O1053 C1064 1.249 . S
O1054 Eu1019 2.335 1_556 S
O1054 C1064 1.264 . S
O1055 Eu1008 2.432 . S
O1055 C1072 1.268 . S
O1056 Eu1008 2.291 . S
O1056 C1071 1.255 . S
O1057 Eu1019 2.372 . S
O1057 C1071 1.257 . S
O1058 Eu1019 2.462 . S
O1058 C1083 1.252 . S
O1059 Eu1019 2.373 . S
O1059 C1075 1.249 . S
O1060 Eu1008 2.335 . S
O1060 C1075 1.264 . S
O1061 Eu1019 2.432 . S
O1061 C1083 1.268 . S
O1062 Eu1019 2.291 . S
O1062 C1082 1.255 . S
O1063 Eu1008 2.372 . S
O1063 C1082 1.257 . S
C1064 O1053 1.249 . S
C1064 O1054 1.264 . S
C1065 C1068 1.382 . S
C1065 C1070 1.390 . S
C1065 C1072 1.506 . S
C1066 C1067 1.398 . S
C1066 C1070 1.392 . S
C1067 C1066 1.398 . S
C1067 C1069 1.372 . S
C1067 H1084 0.931 . S
C1068 C1065 1.382 . S
C1068 C1069 1.390 . S
C1068 H1085 0.931 . S
C1069 C1067 1.372 . S
C1069 C1068 1.390 . S
C1069 H1086 0.929 . S
C1070 C1065 1.390 . S
C1070 C1066 1.392 . S
C1070 H1087 0.930 . S
C1071 O1056 1.255 . S
C1071 O1057 1.257 . S
C1072 Eu1008 2.787 . S
C1072 O1052 1.252 . S
C1072 O1055 1.268 . S
C1072 C1065 1.506 . S
C1073 C1040 1.439 . S
C1073 H1050 0.931 . S
C1073 C1074 1.374 . S
C1074 C1045 1.387 . S
C1074 H1051 0.931 . S
C1074 C1073 1.374 . S
C1075 O1059 1.249 . S
C1075 O1060 1.264 . S
C1076 C1079 1.382 . S
C1076 C1080 1.390 . S
C1076 C1083 1.506 1_556 S
C1077 C1078 1.398 . S
C1077 C1080 1.392 . S
C1078 C1077 1.398 . S
C1078 C1081 1.372 . S
C1078 H1088 0.931 . S
C1079 C1076 1.382 . S
C1079 C1081 1.390 . S
C1079 H1089 0.931 . S
C1080 C1076 1.390 . S
C1080 C1077 1.392 . S
C1080 H1090 0.930 . S
C1081 C1078 1.372 . S
C1081 C1079 1.390 . S
C1081 H1091 0.929 . S
C1082 O1062 1.255 . S
C1082 O1063 1.257 . S
C1083 Eu1019 2.787 . S
C1083 O1058 1.252 . S
C1083 O1061 1.268 . S
C1083 C1076 1.506 1_554 S
H1084 C1067 0.931 . S
H1085 C1068 0.931 . S
H1086 C1069 0.929 . S
H1087 C1070 0.930 . S
H1088 C1078 0.931 . S
H1089 C1079 0.931 . S
H1090 C1080 0.930 . S
H1091 C1081 0.929 . S
Eu1092 N1121 2.600 . S
Eu1092 N1127 2.562 . S
Eu1092 O1136 2.462 . S
Eu1092 O1137 2.373 . S
Eu1092 O1139 2.432 . S
Eu1092 O1140 2.291 . S
Eu1092 O1144 2.335 . S
Eu1092 O1147 2.372 . S
Eu1092 C1156 2.787 . S
C1093 N1094 1.365 . S
C1093 C1096 1.405 . S
C1093 C1100 1.448 . S
N1094 C1093 1.365 . S
N1094 C1097 1.319 . S
N1094 Eu1103 2.600 . S
C1095 C1097 1.397 . S
C1095 C1098 1.367 . S
C1095 H1115 0.931 . S
C1096 C1093 1.405 . S
C1096 C1098 1.403 . S
C1096 C1102 1.439 . S
C1097 N1094 1.319 . S
C1097 C1095 1.397 . S
C1097 H1108 0.930 . S
C1098 C1095 1.367 . S
C1098 C1096 1.403 . S
C1098 H1119 0.929 . S
C1099 C1100 1.430 . S
C1099 C1101 1.387 . S
C1099 C1105 1.404 . S
C1100 C1093 1.448 . S
C1100 C1099 1.430 . S
C1100 N1104 1.351 . S
C1101 C1099 1.387 . S
C1101 C1102 1.374 . S
C1101 H1116 0.931 . S
C1102 C1096 1.439 . S
C1102 C1101 1.374 . S
C1102 H1117 0.931 . S
Eu1103 N1094 2.600 . S
Eu1103 N1104 2.562 . S
Eu1103 O1138 2.335 . S
Eu1103 O1141 2.372 . S
Eu1103 O1142 2.462 . S
Eu1103 O1143 2.373 . S
Eu1103 O1145 2.432 . S
Eu1103 O1146 2.291 . S
Eu1103 C1167 2.787 . S
N1104 C1100 1.351 . S
N1104 Eu1103 2.562 . S
N1104 C1106 1.325 . S
C1105 C1099 1.404 . S
C1105 C1107 1.366 . S
C1105 H1113 0.930 . S
C1106 N1104 1.325 . S
C1106 C1107 1.416 . S
C1106 H1112 0.929 . S
C1107 C1105 1.366 . S
C1107 C1106 1.416 . S
C1107 H1109 0.930 . S
H1108 C1097 0.930 . S
H1109 C1107 0.930 . S
H1110 C1125 0.930 . S
H1111 C1132 0.930 . S
H1112 C1106 0.929 . S
H1113 C1105 0.930 . S
H1114 C1128 0.929 . S
H1115 C1095 0.931 . S
H1116 C1101 0.931 . S
H1117 C1102 0.931 . S
H1118 C1123 0.931 . S
H1119 C1098 0.929 . S
H1120 C1131 0.930 . S
N1121 Eu1092 2.600 . S
N1121 C1122 1.365 . S
N1121 C1125 1.319 . S
C1122 N1121 1.365 . S
C1122 C1124 1.405 . S
C1122 C1130 1.448 . S
C1123 H1118 0.931 . S
C1123 C1125 1.397 . S
C1123 C1126 1.367 . S
C1124 C1122 1.405 . S
C1124 C1126 1.403 . S
C1124 C1157 1.439 . S
C1125 H1110 0.930 . S
C1125 N1121 1.319 . S
C1125 C1123 1.397 . S
C1126 C1123 1.367 . S
C1126 C1124 1.403 . S
C1126 H1133 0.929 . S
N1127 Eu1092 2.562 . S
N1127 C1128 1.325 . S
N1127 C1130 1.351 . S
C1128 H1114 0.929 . S
C1128 N1127 1.325 . S
C1128 C1132 1.416 . S
C1129 C1130 1.430 . S
C1129 C1131 1.404 . S
C1129 C1158 1.387 . S
C1130 C1122 1.448 . S
C1130 N1127 1.351 . S
C1130 C1129 1.430 . S
C1131 H1120 0.930 . S
C1131 C1129 1.404 . S
C1131 C1132 1.366 . S
C1132 H1111 0.930 . S
C1132 C1128 1.416 . S
C1132 C1131 1.366 . S
H1133 C1126 0.929 . S
H1134 C1157 0.931 . S
H1135 C1158 0.931 . S
O1136 Eu1092 2.462 . S
O1136 C1156 1.252 . S
O1137 Eu1092 2.373 . S
O1137 C1148 1.249 . S
O1138 Eu1103 2.335 . S
O1138 C1148 1.264 . S
O1139 Eu1092 2.432 . S
O1139 C1156 1.268 . S
O1140 Eu1092 2.291 . S
O1140 C1155 1.255 . S
O1141 Eu1103 2.372 . S
O1141 C1155 1.257 . S
O1142 Eu1103 2.462 . S
O1142 C1167 1.252 . S
O1143 Eu1103 2.373 . S
O1143 C1159 1.249 . S
O1144 Eu1092 2.335 . S
O1144 C1159 1.264 . S
O1145 Eu1103 2.432 . S
O1145 C1167 1.268 . S
O1146 Eu1103 2.291 . S
O1146 C1166 1.255 . S
O1147 Eu1092 2.372 . S
O1147 C1166 1.257 . S
C1148 O1137 1.249 . S
C1148 O1138 1.264 . S
C1149 C1152 1.382 . S
C1149 C1154 1.390 . S
C1149 C1156 1.506 . S
C1150 C1151 1.398 . S
C1150 C1154 1.392 . S
C1151 C1150 1.398 . S
C1151 C1153 1.372 . S
C1151 H1168 0.931 . S
C1152 C1149 1.382 . S
C1152 C1153 1.390 . S
C1152 H1169 0.931 . S
C1153 C1151 1.372 . S
C1153 C1152 1.390 . S
C1153 H1170 0.929 . S
C1154 C1149 1.390 . S
C1154 C1150 1.392 . S
C1154 H1171 0.930 . S
C1155 O1140 1.255 . S
C1155 O1141 1.257 . S
C1156 Eu1092 2.787 . S
C1156 O1136 1.252 . S
C1156 O1139 1.268 . S
C1156 C1149 1.506 . S
C1157 C1124 1.439 . S
C1157 H1134 0.931 . S
C1157 C1158 1.374 . S
C1158 C1129 1.387 . S
C1158 H1135 0.931 . S
C1158 C1157 1.374 . S
C1159 O1143 1.249 . S
C1159 O1144 1.264 . S
C1160 C1163 1.382 . S
C1160 C1164 1.390 . S
C1160 C1167 1.506 . S
C1161 C1162 1.398 . S
C1161 C1164 1.392 . S
C1162 C1161 1.398 . S
C1162 C1165 1.372 . S
C1162 H1172 0.931 . S
C1163 C1160 1.382 . S
C1163 C1165 1.390 . S
C1163 H1173 0.931 . S
C1164 C1160 1.390 . S
C1164 C1161 1.392 . S
C1164 H1174 0.930 . S
C1165 C1162 1.372 . S
C1165 C1163 1.390 . S
C1165 H1175 0.929 . S
C1166 O1146 1.255 . S
C1166 O1147 1.257 . S
C1167 Eu1103 2.787 . S
C1167 O1142 1.252 . S
C1167 O1145 1.268 . S
C1167 C1160 1.506 . S
H1168 C1151 0.931 . S
H1169 C1152 0.931 . S
H1170 C1153 0.929 . S
H1171 C1154 0.930 . S
H1172 C1162 0.931 . S
H1173 C1163 0.931 . S
H1174 C1164 0.930 . S
H1175 C1165 0.929 . S
Eu1176 N1205 2.600 1_455 S
Eu1176 N1211 2.562 1_455 S
Eu1176 O1220 2.462 . S
Eu1176 O1221 2.373 1_455 S
Eu1176 O1223 2.432 . S
Eu1176 O1224 2.291 . S
Eu1176 O1228 2.335 . S
Eu1176 O1231 2.372 . S
Eu1176 C1240 2.787 . S
C1177 N1178 1.365 . S
C1177 C1180 1.405 . S
C1177 C1184 1.448 . S
N1178 C1177 1.365 . S
N1178 C1181 1.319 . S
N1178 Eu1187 2.600 . S
C1179 C1181 1.397 . S
C1179 C1182 1.367 . S
C1179 H1199 0.931 . S
C1180 C1177 1.405 . S
C1180 C1182 1.403 . S
C1180 C1186 1.439 . S
C1181 N1178 1.319 . S
C1181 C1179 1.397 . S
C1181 H1192 0.930 . S
C1182 C1179 1.367 . S
C1182 C1180 1.403 . S
C1182 H1203 0.929 . S
C1183 C1184 1.430 . S
C1183 C1185 1.387 . S
C1183 C1189 1.404 . S
C1184 C1177 1.448 . S
C1184 C1183 1.430 . S
C1184 N1188 1.351 . S
C1185 C1183 1.387 . S
C1185 C1186 1.374 . S
C1185 H1200 0.931 . S
C1186 C1180 1.439 . S
C1186 C1185 1.374 . S
C1186 H1201 0.931 . S
Eu1187 N1178 2.600 . S
Eu1187 N1188 2.562 . S
Eu1187 O1222 2.335 1_455 S
Eu1187 O1225 2.372 . S
Eu1187 O1226 2.462 . S
Eu1187 O1227 2.373 . S
Eu1187 O1229 2.432 . S
Eu1187 O1230 2.291 . S
Eu1187 C1251 2.787 . S
N1188 C1184 1.351 . S
N1188 Eu1187 2.562 . S
N1188 C1190 1.325 . S
C1189 C1183 1.404 . S
C1189 C1191 1.366 . S
C1189 H1197 0.930 . S
C1190 N1188 1.325 . S
C1190 C1191 1.416 . S
C1190 H1196 0.929 . S
C1191 C1189 1.366 . S
C1191 C1190 1.416 . S
C1191 H1193 0.930 . S
H1192 C1181 0.930 . S
H1193 C1191 0.930 . S
H1194 C1209 0.942 . S
H1195 C1216 0.930 . S
H1196 C1190 0.929 . S
H1197 C1189 0.930 . S
H1198 C1212 0.929 1_455 S
H1199 C1179 0.931 . S
H1200 C1185 0.931 . S
H1201 C1186 0.931 . S
H1202 C1207 0.931 . S
H1203 C1182 0.929 . S
H1204 C1215 0.930 . S
N1205 Eu1176 2.600 1_655 S
N1205 C1206 1.365 . S
N1205 C1209 1.322 1_655 S
C1206 N1205 1.365 . S
C1206 C1208 1.405 . S
C1206 C1214 1.448 . S
C1207 H1202 0.931 . S
C1207 C1209 1.382 1_655 S
C1207 C1210 1.367 . S
C1208 C1206 1.405 . S
C1208 C1210 1.403 . S
C1208 C1241 1.439 . S
C1209 H1194 0.942 . S
C1209 N1205 1.322 1_455 S
C1209 C1207 1.382 1_455 S
C1210 C1207 1.367 . S
C1210 C1208 1.403 . S
C1210 H1217 0.929 . S
N1211 Eu1176 2.562 1_655 S
N1211 C1212 1.325 . S
N1211 C1214 1.351 . S
C1212 H1198 0.929 1_655 S
C1212 N1211 1.325 . S
C1212 C1216 1.416 . S
C1213 C1214 1.430 . S
C1213 C1215 1.404 . S
C1213 C1242 1.387 . S
C1214 C1206 1.448 . S
C1214 N1211 1.351 . S
C1214 C1213 1.430 . S
C1215 H1204 0.930 . S
C1215 C1213 1.404 . S
C1215 C1216 1.366 . S
C1216 H1195 0.930 . S
C1216 C1212 1.416 . S
C1216 C1215 1.366 . S
H1217 C1210 0.929 . S
H1218 C1241 0.931 . S
H1219 C1242 0.931 . S
O1220 Eu1176 2.462 . S
O1220 C1240 1.252 . S
O1221 Eu1176 2.373 1_655 S
O1221 C1232 1.249 . S
O1222 Eu1187 2.335 1_655 S
O1222 C1232 1.264 . S
O1223 Eu1176 2.432 . S
O1223 C1240 1.268 . S
O1224 Eu1176 2.291 . S
O1224 C1239 1.255 . S
O1225 Eu1187 2.372 . S
O1225 C1239 1.257 . S
O1226 Eu1187 2.462 . S
O1226 C1251 1.252 . S
O1227 Eu1187 2.373 . S
O1227 C1243 1.249 . S
O1228 Eu1176 2.335 . S
O1228 C1243 1.264 . S
O1229 Eu1187 2.432 . S
O1229 C1251 1.268 . S
O1230 Eu1187 2.291 . S
O1230 C1250 1.255 . S
O1231 Eu1176 2.372 . S
O1231 C1250 1.257 . S
C1232 O1221 1.249 . S
C1232 O1222 1.264 . S
C1233 C1236 1.382 . S
C1233 C1238 1.390 . S
C1233 C1240 1.506 . S
C1234 C1235 1.398 . S
C1234 C1238 1.392 . S
C1235 C1234 1.398 . S
C1235 C1237 1.372 . S
C1235 H1252 0.931 . S
C1236 C1233 1.382 . S
C1236 C1237 1.390 . S
C1236 H1253 0.931 . S
C1237 C1235 1.372 . S
C1237 C1236 1.390 . S
C1237 H1254 0.929 . S
C1238 C1233 1.390 . S
C1238 C1234 1.392 . S
C1238 H1255 0.930 . S
C1239 O1224 1.255 . S
C1239 O1225 1.257 . S
C1240 Eu1176 2.787 . S
C1240 O1220 1.252 . S
C1240 O1223 1.268 . S
C1240 C1233 1.506 . S
C1241 C1208 1.439 . S
C1241 H1218 0.931 . S
C1241 C1242 1.374 . S
C1242 C1213 1.387 . S
C1242 H1219 0.931 . S
C1242 C1241 1.374 . S
C1243 O1227 1.249 . S
C1243 O1228 1.264 . S
C1244 C1247 1.382 . S
C1244 C1248 1.390 . S
C1244 C1251 1.506 1_655 S
C1245 C1246 1.398 . S
C1245 C1248 1.392 . S
C1246 C1245 1.398 . S
C1246 C1249 1.372 . S
C1246 H1256 0.931 . S
C1247 C1244 1.382 . S
C1247 C1249 1.390 . S
C1247 H1257 0.931 . S
C1248 C1244 1.390 . S
C1248 C1245 1.392 . S
C1248 H1258 0.930 . S
C1249 C1246 1.372 . S
C1249 C1247 1.390 . S
C1249 H1259 0.929 . S
C1250 O1230 1.255 . S
C1250 O1231 1.257 . S
C1251 Eu1187 2.787 . S
C1251 O1226 1.252 . S
C1251 O1229 1.268 . S
C1251 C1244 1.506 1_455 S
H1252 C1235 0.931 . S
H1253 C1236 0.931 . S
H1254 C1237 0.929 . S
H1255 C1238 0.930 . S
H1256 C1246 0.931 . S
H1257 C1247 0.931 . S
H1258 C1248 0.930 . S
H1259 C1249 0.929 . S
Eu1260 N1289 2.600 . S
Eu1260 N1295 2.562 . S
Eu1260 O1304 2.462 . S
Eu1260 O1305 2.373 . S
Eu1260 O1307 2.432 . S
Eu1260 O1308 2.291 . S
Eu1260 O1312 2.335 . S
Eu1260 O1315 2.372 . S
Eu1260 C1324 2.787 . S
C1261 N1262 1.365 . S
C1261 C1264 1.405 . S
C1261 C1268 1.448 . S
N1262 C1261 1.365 . S
N1262 C1265 1.319 . S
N1262 Eu1271 2.600 . S
C1263 C1265 1.397 . S
C1263 C1266 1.367 . S
C1263 H1283 0.931 . S
C1264 C1261 1.405 . S
C1264 C1266 1.403 . S
C1264 C1270 1.439 . S
C1265 N1262 1.319 . S
C1265 C1263 1.397 . S
C1265 H1276 0.930 . S
C1266 C1263 1.367 . S
C1266 C1264 1.403 . S
C1266 H1287 0.929 . S
C1267 C1268 1.430 . S
C1267 C1269 1.387 . S
C1267 C1273 1.404 . S
C1268 C1261 1.448 . S
C1268 C1267 1.430 . S
C1268 N1272 1.351 . S
C1269 C1267 1.387 . S
C1269 C1270 1.374 . S
C1269 H1284 0.931 . S
C1270 C1264 1.439 . S
C1270 C1269 1.374 . S
C1270 H1285 0.931 . S
Eu1271 N1262 2.600 . S
Eu1271 N1272 2.562 . S
Eu1271 O1306 2.335 . S
Eu1271 O1309 2.372 . S
Eu1271 O1310 2.462 . S
Eu1271 O1311 2.373 . S
Eu1271 O1313 2.432 . S
Eu1271 O1314 2.291 . S
Eu1271 C1335 2.787 . S
N1272 C1268 1.351 . S
N1272 Eu1271 2.562 . S
N1272 C1274 1.325 . S
C1273 C1267 1.404 . S
C1273 C1275 1.366 . S
C1273 H1281 0.930 . S
C1274 N1272 1.325 . S
C1274 C1275 1.416 . S
C1274 H1280 0.929 . S
C1275 C1273 1.366 . S
C1275 C1274 1.416 . S
C1275 H1277 0.930 . S
H1276 C1265 0.930 . S
H1277 C1275 0.930 . S
H1278 C1293 0.930 . S
H1279 C1300 0.930 . S
H1280 C1274 0.929 . S
H1281 C1273 0.930 . S
H1282 C1296 0.929 . S
H1283 C1263 0.931 . S
H1284 C1269 0.931 . S
H1285 C1270 0.931 . S
H1286 C1291 0.931 . S
H1287 C1266 0.929 . S
H1288 C1299 0.930 . S
N1289 Eu1260 2.600 . S
N1289 C1290 1.365 . S
N1289 C1293 1.319 . S
C1290 N1289 1.365 . S
C1290 C1292 1.405 . S
C1290 C1298 1.448 . S
C1291 H1286 0.931 . S
C1291 C1293 1.397 . S
C1291 C1294 1.367 . S
C1292 C1290 1.405 . S
C1292 C1294 1.403 . S
C1292 C1325 1.439 . S
C1293 H1278 0.930 . S
C1293 N1289 1.319 . S
C1293 C1291 1.397 . S
C1294 C1291 1.367 . S
C1294 C1292 1.403 . S
C1294 H1301 0.929 . S
N1295 Eu1260 2.562 . S
N1295 C1296 1.325 . S
N1295 C1298 1.351 . S
C1296 H1282 0.929 . S
C1296 N1295 1.325 . S
C1296 C1300 1.416 . S
C1297 C1298 1.430 . S
C1297 C1299 1.404 . S
C1297 C1326 1.387 . S
C1298 C1290 1.448 . S
C1298 N1295 1.351 . S
C1298 C1297 1.430 . S
C1299 H1288 0.930 . S
C1299 C1297 1.404 . S
C1299 C1300 1.366 . S
C1300 H1279 0.930 . S
C1300 C1296 1.416 . S
C1300 C1299 1.366 . S
H1301 C1294 0.929 . S
H1302 C1325 0.931 . S
H1303 C1326 0.931 . S
O1304 Eu1260 2.462 . S
O1304 C1324 1.252 . S
O1305 Eu1260 2.373 . S
O1305 C1316 1.249 . S
O1306 Eu1271 2.335 . S
O1306 C1316 1.264 . S
O1307 Eu1260 2.432 . S
O1307 C1324 1.268 . S
O1308 Eu1260 2.291 . S
O1308 C1323 1.255 . S
O1309 Eu1271 2.372 . S
O1309 C1323 1.257 . S
O1310 Eu1271 2.462 . S
O1310 C1335 1.252 . S
O1311 Eu1271 2.373 . S
O1311 C1327 1.249 . S
O1312 Eu1260 2.335 . S
O1312 C1327 1.264 . S
O1313 Eu1271 2.432 . S
O1313 C1335 1.268 . S
O1314 Eu1271 2.291 . S
O1314 C1334 1.255 . S
O1315 Eu1260 2.372 . S
O1315 C1334 1.257 . S
C1316 O1305 1.249 . S
C1316 O1306 1.264 . S
C1317 C1320 1.382 . S
C1317 C1322 1.390 . S
C1317 C1324 1.506 . S
C1318 C1319 1.398 . S
C1318 C1322 1.392 . S
C1319 C1318 1.398 . S
C1319 C1321 1.372 . S
C1319 H1336 0.931 . S
C1320 C1317 1.382 . S
C1320 C1321 1.390 . S
C1320 H1337 0.931 . S
C1321 C1319 1.372 . S
C1321 C1320 1.390 . S
C1321 H1338 0.929 . S
C1322 C1317 1.390 . S
C1322 C1318 1.392 . S
C1322 H1339 0.930 . S
C1323 O1308 1.255 . S
C1323 O1309 1.257 . S
C1324 Eu1260 2.787 . S
C1324 O1304 1.252 . S
C1324 O1307 1.268 . S
C1324 C1317 1.506 . S
C1325 C1292 1.439 . S
C1325 H1302 0.931 . S
C1325 C1326 1.374 . S
C1326 C1297 1.387 . S
C1326 H1303 0.931 . S
C1326 C1325 1.374 . S
C1327 O1311 1.249 . S
C1327 O1312 1.264 . S
C1328 C1331 1.382 . S
C1328 C1332 1.390 . S
C1328 C1335 1.506 . S
C1329 C1330 1.398 . S
C1329 C1332 1.392 . S
C1330 C1329 1.398 . S
C1330 C1333 1.372 . S
C1330 H1340 0.931 . S
C1331 C1328 1.382 . S
C1331 C1333 1.390 . S
C1331 H1341 0.931 . S
C1332 C1328 1.390 . S
C1332 C1329 1.392 . S
C1332 H1342 0.930 . S
C1333 C1330 1.372 . S
C1333 C1331 1.390 . S
C1333 H1343 0.929 . S
C1334 O1314 1.255 . S
C1334 O1315 1.257 . S
C1335 Eu1271 2.787 . S
C1335 O1310 1.252 . S
C1335 O1313 1.268 . S
C1335 C1328 1.506 . S
H1336 C1319 0.931 . S
H1337 C1320 0.931 . S
H1338 C1321 0.929 . S
H1339 C1322 0.930 . S
H1340 C1330 0.931 . S
H1341 C1331 0.931 . S
H1342 C1332 0.930 . S
H1343 C1333 0.929 . S
Eu1344 N1373 2.600 . S
Eu1344 N1379 2.562 . S
Eu1344 O1388 2.462 . S
Eu1344 O1389 2.373 . S
Eu1344 O1391 2.432 . S
Eu1344 O1392 2.291 . S
Eu1344 O1396 2.335 . S
Eu1344 O1399 2.372 . S
Eu1344 C1408 2.787 . S
C1345 N1346 1.365 . S
C1345 C1348 1.405 . S
C1345 C1352 1.448 . S
N1346 C1345 1.365 . S
N1346 C1349 1.319 . S
N1346 Eu1355 2.600 . S
C1347 C1349 1.397 . S
C1347 C1350 1.367 . S
C1347 H1367 0.931 . S
C1348 C1345 1.405 . S
C1348 C1350 1.403 . S
C1348 C1354 1.439 . S
C1349 N1346 1.319 . S
C1349 C1347 1.397 . S
C1349 H1360 0.930 . S
C1350 C1347 1.367 . S
C1350 C1348 1.403 . S
C1350 H1371 0.929 . S
C1351 C1352 1.430 . S
C1351 C1353 1.387 . S
C1351 C1357 1.404 . S
C1352 C1345 1.448 . S
C1352 C1351 1.430 . S
C1352 N1356 1.351 . S
C1353 C1351 1.387 . S
C1353 C1354 1.374 . S
C1353 H1368 0.931 . S
C1354 C1348 1.439 . S
C1354 C1353 1.374 . S
C1354 H1369 0.931 . S
Eu1355 N1346 2.600 . S
Eu1355 N1356 2.562 . S
Eu1355 O1390 2.335 . S
Eu1355 O1393 2.372 . S
Eu1355 O1394 2.462 . S
Eu1355 O1395 2.373 . S
Eu1355 O1397 2.432 . S
Eu1355 O1398 2.291 . S
Eu1355 C1419 2.787 . S
N1356 C1352 1.351 . S
N1356 Eu1355 2.562 . S
N1356 C1358 1.325 . S
C1357 C1351 1.404 . S
C1357 C1359 1.366 . S
C1357 H1365 0.930 . S
C1358 N1356 1.325 . S
C1358 C1359 1.416 . S
C1358 H1364 0.929 . S
C1359 C1357 1.366 . S
C1359 C1358 1.416 . S
C1359 H1361 0.930 . S
H1360 C1349 0.930 . S
H1361 C1359 0.930 . S
H1362 C1377 0.930 . S
H1363 C1384 0.930 . S
H1364 C1358 0.929 . S
H1365 C1357 0.930 . S
H1366 C1380 0.929 . S
H1367 C1347 0.931 . S
H1368 C1353 0.931 . S
H1369 C1354 0.931 . S
H1370 C1375 0.931 . S
H1371 C1350 0.929 . S
H1372 C1383 0.930 . S
N1373 Eu1344 2.600 . S
N1373 C1374 1.365 . S
N1373 C1377 1.319 . S
C1374 N1373 1.365 . S
C1374 C1376 1.405 . S
C1374 C1382 1.448 . S
C1375 H1370 0.931 . S
C1375 C1377 1.397 . S
C1375 C1378 1.367 . S
C1376 C1374 1.405 . S
C1376 C1378 1.403 . S
C1376 C1409 1.439 . S
C1377 H1362 0.930 . S
C1377 N1373 1.319 . S
C1377 C1375 1.397 . S
C1378 C1375 1.367 . S
C1378 C1376 1.403 . S
C1378 H1385 0.929 . S
N1379 Eu1344 2.562 . S
N1379 C1380 1.325 . S
N1379 C1382 1.351 . S
C1380 H1366 0.929 . S
C1380 N1379 1.325 . S
C1380 C1384 1.416 . S
C1381 C1382 1.430 . S
C1381 C1383 1.404 . S
C1381 C1410 1.387 . S
C1382 C1374 1.448 . S
C1382 N1379 1.351 . S
C1382 C1381 1.430 . S
C1383 H1372 0.930 . S
C1383 C1381 1.404 . S
C1383 C1384 1.366 . S
C1384 H1363 0.930 . S
C1384 C1380 1.416 . S
C1384 C1383 1.366 . S
H1385 C1378 0.929 . S
H1386 C1409 0.931 . S
H1387 C1410 0.931 . S
O1388 Eu1344 2.462 . S
O1388 C1408 1.252 . S
O1389 Eu1344 2.373 . S
O1389 C1400 1.249 . S
O1390 Eu1355 2.335 . S
O1390 C1400 1.264 . S
O1391 Eu1344 2.432 . S
O1391 C1408 1.268 . S
O1392 Eu1344 2.291 . S
O1392 C1407 1.255 . S
O1393 Eu1355 2.372 . S
O1393 C1407 1.257 . S
O1394 Eu1355 2.462 . S
O1394 C1419 1.252 . S
O1395 Eu1355 2.373 . S
O1395 C1411 1.249 . S
O1396 Eu1344 2.335 . S
O1396 C1411 1.264 . S
O1397 Eu1355 2.432 . S
O1397 C1419 1.268 . S
O1398 Eu1355 2.291 . S
O1398 C1418 1.255 . S
O1399 Eu1344 2.372 . S
O1399 C1418 1.257 . S
C1400 O1389 1.249 . S
C1400 O1390 1.264 . S
C1401 C1404 1.382 . S
C1401 C1406 1.390 . S
C1401 C1408 1.506 . S
C1402 C1403 1.398 . S
C1402 C1406 1.392 . S
C1403 C1402 1.398 . S
C1403 C1405 1.372 . S
C1403 H1420 0.931 . S
C1404 C1401 1.382 . S
C1404 C1405 1.390 . S
C1404 H1421 0.931 . S
C1405 C1403 1.372 . S
C1405 C1404 1.390 . S
C1405 H1422 0.929 . S
C1406 C1401 1.390 . S
C1406 C1402 1.392 . S
C1406 H1423 0.930 . S
C1407 O1392 1.255 . S
C1407 O1393 1.257 . S
C1408 Eu1344 2.787 . S
C1408 O1388 1.252 . S
C1408 O1391 1.268 . S
C1408 C1401 1.506 . S
C1409 C1376 1.439 . S
C1409 H1386 0.931 . S
C1409 C1410 1.374 . S
C1410 C1381 1.387 . S
C1410 H1387 0.931 . S
C1410 C1409 1.374 . S
C1411 O1395 1.249 . S
C1411 O1396 1.264 . S
C1412 C1415 1.382 . S
C1412 C1416 1.390 . S
C1412 C1419 1.506 . S
C1413 C1414 1.398 . S
C1413 C1416 1.392 . S
C1414 C1413 1.398 . S
C1414 C1417 1.372 . S
C1414 H1424 0.931 . S
C1415 C1412 1.382 . S
C1415 C1417 1.390 . S
C1415 H1425 0.931 . S
C1416 C1412 1.390 . S
C1416 C1413 1.392 . S
C1416 H1426 0.930 . S
C1417 C1414 1.372 . S
C1417 C1415 1.390 . S
C1417 H1427 0.929 . S
C1418 O1398 1.255 . S
C1418 O1399 1.257 . S
C1419 Eu1355 2.787 . S
C1419 O1394 1.252 . S
C1419 O1397 1.268 . S
C1419 C1412 1.506 . S
H1420 C1403 0.931 . S
H1421 C1404 0.931 . S
H1422 C1405 0.929 . S
H1423 C1406 0.930 . S
H1424 C1414 0.931 . S
H1425 C1415 0.931 . S
H1426 C1416 0.930 . S
H1427 C1417 0.929 . S
Eu1428 N1457 2.600 . S
Eu1428 N1463 2.562 . S
Eu1428 O1472 2.462 . S
Eu1428 O1473 2.373 . S
Eu1428 O1475 2.432 . S
Eu1428 O1476 2.291 . S
Eu1428 O1480 2.335 . S
Eu1428 O1483 2.372 . S
Eu1428 C1492 2.787 . S
C1429 N1430 1.365 . S
C1429 C1432 1.405 . S
C1429 C1436 1.448 . S
N1430 C1429 1.365 . S
N1430 C1433 1.319 . S
N1430 Eu1439 2.600 . S
C1431 C1433 1.397 . S
C1431 C1434 1.367 . S
C1431 H1451 0.931 . S
C1432 C1429 1.405 . S
C1432 C1434 1.403 . S
C1432 C1438 1.439 . S
C1433 N1430 1.319 . S
C1433 C1431 1.397 . S
C1433 H1444 0.930 . S
C1434 C1431 1.367 . S
C1434 C1432 1.403 . S
C1434 H1455 0.929 . S
C1435 C1436 1.430 . S
C1435 C1437 1.387 . S
C1435 C1441 1.404 . S
C1436 C1429 1.448 . S
C1436 C1435 1.430 . S
C1436 N1440 1.351 . S
C1437 C1435 1.387 . S
C1437 C1438 1.374 . S
C1437 H1452 0.931 . S
C1438 C1432 1.439 . S
C1438 C1437 1.374 . S
C1438 H1453 0.931 . S
Eu1439 N1430 2.600 . S
Eu1439 N1440 2.562 . S
Eu1439 O1474 2.335 . S
Eu1439 O1477 2.372 . S
Eu1439 O1478 2.462 . S
Eu1439 O1479 2.373 . S
Eu1439 O1481 2.432 . S
Eu1439 O1482 2.291 . S
Eu1439 C1503 2.787 . S
N1440 C1436 1.351 . S
N1440 Eu1439 2.562 . S
N1440 C1442 1.325 . S
C1441 C1435 1.404 . S
C1441 C1443 1.366 . S
C1441 H1449 0.930 . S
C1442 N1440 1.325 . S
C1442 C1443 1.416 . S
C1442 H1448 0.929 . S
C1443 C1441 1.366 . S
C1443 C1442 1.416 . S
C1443 H1445 0.930 . S
H1444 C1433 0.930 . S
H1445 C1443 0.930 . S
H1446 C1461 0.930 . S
H1447 C1468 0.930 . S
H1448 C1442 0.929 . S
H1449 C1441 0.930 . S
H1450 C1464 0.929 . S
H1451 C1431 0.931 . S
H1452 C1437 0.931 . S
H1453 C1438 0.931 . S
H1454 C1459 0.931 . S
H1455 C1434 0.929 . S
H1456 C1467 0.930 . S
N1457 Eu1428 2.600 . S
N1457 C1458 1.365 . S
N1457 C1461 1.319 . S
C1458 N1457 1.365 . S
C1458 C1460 1.405 . S
C1458 C1466 1.448 . S
C1459 H1454 0.931 . S
C1459 C1461 1.397 . S
C1459 C1462 1.367 . S
C1460 C1458 1.405 . S
C1460 C1462 1.403 . S
C1460 C1493 1.439 . S
C1461 H1446 0.930 . S
C1461 N1457 1.319 . S
C1461 C1459 1.397 . S
C1462 C1459 1.367 . S
C1462 C1460 1.403 . S
C1462 H1469 0.929 . S
N1463 Eu1428 2.562 . S
N1463 C1464 1.325 . S
N1463 C1466 1.351 . S
C1464 H1450 0.929 . S
C1464 N1463 1.325 . S
C1464 C1468 1.416 . S
C1465 C1466 1.430 . S
C1465 C1467 1.404 . S
C1465 C1494 1.387 . S
C1466 C1458 1.448 . S
C1466 N1463 1.351 . S
C1466 C1465 1.430 . S
C1467 H1456 0.930 . S
C1467 C1465 1.404 . S
C1467 C1468 1.366 . S
C1468 H1447 0.930 . S
C1468 C1464 1.416 . S
C1468 C1467 1.366 . S
H1469 C1462 0.929 . S
H1470 C1493 0.931 . S
H1471 C1494 0.931 . S
O1472 Eu1428 2.462 . S
O1472 C1492 1.252 . S
O1473 Eu1428 2.373 . S
O1473 C1484 1.249 . S
O1474 Eu1439 2.335 . S
O1474 C1484 1.264 . S
O1475 Eu1428 2.432 . S
O1475 C1492 1.268 . S
O1476 Eu1428 2.291 . S
O1476 C1491 1.255 . S
O1477 Eu1439 2.372 . S
O1477 C1491 1.257 . S
O1478 Eu1439 2.462 . S
O1478 C1503 1.252 . S
O1479 Eu1439 2.373 . S
O1479 C1495 1.249 . S
O1480 Eu1428 2.335 . S
O1480 C1495 1.264 . S
O1481 Eu1439 2.432 . S
O1481 C1503 1.268 . S
O1482 Eu1439 2.291 . S
O1482 C1502 1.255 . S
O1483 Eu1428 2.372 . S
O1483 C1502 1.257 . S
C1484 O1473 1.249 . S
C1484 O1474 1.264 . S
C1485 C1488 1.382 . S
C1485 C1490 1.390 . S
C1485 C1492 1.506 . S
C1486 C1487 1.398 . S
C1486 C1490 1.392 . S
C1487 C1486 1.398 . S
C1487 C1489 1.372 . S
C1487 H1504 0.931 . S
C1488 C1485 1.382 . S
C1488 C1489 1.390 . S
C1488 H1505 0.931 . S
C1489 C1487 1.372 . S
C1489 C1488 1.390 . S
C1489 H1506 0.929 . S
C1490 C1485 1.390 . S
C1490 C1486 1.392 . S
C1490 H1507 0.930 . S
C1491 O1476 1.255 . S
C1491 O1477 1.257 . S
C1492 Eu1428 2.787 . S
C1492 O1472 1.252 . S
C1492 O1475 1.268 . S
C1492 C1485 1.506 . S
C1493 C1460 1.439 . S
C1493 H1470 0.931 . S
C1493 C1494 1.374 . S
C1494 C1465 1.387 . S
C1494 H1471 0.931 . S
C1494 C1493 1.374 . S
C1495 O1479 1.249 . S
C1495 O1480 1.264 . S
C1496 C1499 1.382 . S
C1496 C1500 1.390 . S
C1496 C1503 1.506 . S
C1497 C1498 1.398 . S
C1497 C1500 1.392 . S
C1498 C1497 1.398 . S
C1498 C1501 1.372 . S
C1498 H1508 0.931 . S
C1499 C1496 1.382 . S
C1499 C1501 1.390 . S
C1499 H1509 0.931 . S
C1500 C1496 1.390 . S
C1500 C1497 1.392 . S
C1500 H1510 0.930 . S
C1501 C1498 1.372 . S
C1501 C1499 1.390 . S
C1501 H1511 0.929 . S
C1502 O1482 1.255 . S
C1502 O1483 1.257 . S
C1503 Eu1439 2.787 . S
C1503 O1478 1.252 . S
C1503 O1481 1.268 . S
C1503 C1496 1.506 . S
H1504 C1487 0.931 . S
H1505 C1488 0.931 . S
H1506 C1489 0.929 . S
H1507 C1490 0.930 . S
H1508 C1498 0.931 . S
H1509 C1499 0.931 . S
H1510 C1500 0.930 . S
H1511 C1501 0.929 . S
Eu1512 N1541 2.600 . S
Eu1512 N1547 2.562 . S
Eu1512 O1556 2.462 . S
Eu1512 O1557 2.373 . S
Eu1512 O1559 2.432 . S
Eu1512 O1560 2.291 . S
Eu1512 O1564 2.335 . S
Eu1512 O1567 2.372 . S
Eu1512 C1576 2.787 . S
C1513 N1514 1.365 . S
C1513 C1516 1.405 . S
C1513 C1520 1.448 . S
N1514 C1513 1.365 . S
N1514 C1517 1.319 . S
N1514 Eu1523 2.600 . S
C1515 C1517 1.397 . S
C1515 C1518 1.367 . S
C1515 H1535 0.931 . S
C1516 C1513 1.405 . S
C1516 C1518 1.403 . S
C1516 C1522 1.439 . S
C1517 N1514 1.319 . S
C1517 C1515 1.397 . S
C1517 H1528 0.930 . S
C1518 C1515 1.367 . S
C1518 C1516 1.403 . S
C1518 H1539 0.929 . S
C1519 C1520 1.430 . S
C1519 C1521 1.387 . S
C1519 C1525 1.404 . S
C1520 C1513 1.448 . S
C1520 C1519 1.430 . S
C1520 N1524 1.351 . S
C1521 C1519 1.387 . S
C1521 C1522 1.374 . S
C1521 H1536 0.931 . S
C1522 C1516 1.439 . S
C1522 C1521 1.374 . S
C1522 H1537 0.931 . S
Eu1523 N1514 2.600 . S
Eu1523 N1524 2.562 . S
Eu1523 O1558 2.335 . S
Eu1523 O1561 2.372 . S
Eu1523 O1562 2.462 . S
Eu1523 O1563 2.373 . S
Eu1523 O1565 2.432 . S
Eu1523 O1566 2.291 . S
Eu1523 C1587 2.787 . S
N1524 C1520 1.351 . S
N1524 Eu1523 2.562 . S
N1524 C1526 1.325 . S
C1525 C1519 1.404 . S
C1525 C1527 1.366 . S
C1525 H1533 0.930 . S
C1526 N1524 1.325 . S
C1526 C1527 1.416 . S
C1526 H1532 0.929 . S
C1527 C1525 1.366 . S
C1527 C1526 1.416 . S
C1527 H1529 0.930 . S
H1528 C1517 0.930 . S
H1529 C1527 0.930 . S
H1530 C1545 0.930 . S
H1531 C1552 0.930 . S
H1532 C1526 0.929 . S
H1533 C1525 0.930 . S
H1534 C1548 0.929 . S
H1535 C1515 0.931 . S
H1536 C1521 0.931 . S
H1537 C1522 0.931 . S
H1538 C1543 0.931 . S
H1539 C1518 0.929 . S
H1540 C1551 0.930 . S
N1541 Eu1512 2.600 . S
N1541 C1542 1.365 . S
N1541 C1545 1.319 . S
C1542 N1541 1.365 . S
C1542 C1544 1.405 . S
C1542 C1550 1.448 . S
C1543 H1538 0.931 . S
C1543 C1545 1.397 . S
C1543 C1546 1.367 . S
C1544 C1542 1.405 . S
C1544 C1546 1.403 . S
C1544 C1577 1.439 . S
C1545 H1530 0.930 . S
C1545 N1541 1.319 . S
C1545 C1543 1.397 . S
C1546 C1543 1.367 . S
C1546 C1544 1.403 . S
C1546 H1553 0.929 . S
N1547 Eu1512 2.562 . S
N1547 C1548 1.325 . S
N1547 C1550 1.351 . S
C1548 H1534 0.929 . S
C1548 N1547 1.325 . S
C1548 C1552 1.416 . S
C1549 C1550 1.430 . S
C1549 C1551 1.404 . S
C1549 C1578 1.387 . S
C1550 C1542 1.448 . S
C1550 N1547 1.351 . S
C1550 C1549 1.430 . S
C1551 H1540 0.930 . S
C1551 C1549 1.404 . S
C1551 C1552 1.366 . S
C1552 H1531 0.930 . S
C1552 C1548 1.416 . S
C1552 C1551 1.366 . S
H1553 C1546 0.929 . S
H1554 C1577 0.931 . S
H1555 C1578 0.931 . S
O1556 Eu1512 2.462 . S
O1556 C1576 1.252 . S
O1557 Eu1512 2.373 . S
O1557 C1568 1.249 . S
O1558 Eu1523 2.335 . S
O1558 C1568 1.264 . S
O1559 Eu1512 2.432 . S
O1559 C1576 1.268 . S
O1560 Eu1512 2.291 . S
O1560 C1575 1.255 . S
O1561 Eu1523 2.372 . S
O1561 C1575 1.257 . S
O1562 Eu1523 2.462 . S
O1562 C1587 1.252 . S
O1563 Eu1523 2.373 . S
O1563 C1579 1.249 . S
O1564 Eu1512 2.335 . S
O1564 C1579 1.264 . S
O1565 Eu1523 2.432 . S
O1565 C1587 1.268 . S
O1566 Eu1523 2.291 . S
O1566 C1586 1.255 . S
O1567 Eu1512 2.372 . S
O1567 C1586 1.257 . S
C1568 O1557 1.249 . S
C1568 O1558 1.264 . S
C1569 C1572 1.382 . S
C1569 C1574 1.390 . S
C1569 C1576 1.506 . S
C1570 C1571 1.398 . S
C1570 C1574 1.392 . S
C1571 C1570 1.398 . S
C1571 C1573 1.372 . S
C1571 H1588 0.931 . S
C1572 C1569 1.382 . S
C1572 C1573 1.390 . S
C1572 H1589 0.931 . S
C1573 C1571 1.372 . S
C1573 C1572 1.390 . S
C1573 H1590 0.929 . S
C1574 C1569 1.390 . S
C1574 C1570 1.392 . S
C1574 H1591 0.930 . S
C1575 O1560 1.255 . S
C1575 O1561 1.257 . S
C1576 Eu1512 2.787 . S
C1576 O1556 1.252 . S
C1576 O1559 1.268 . S
C1576 C1569 1.506 . S
C1577 C1544 1.439 . S
C1577 H1554 0.931 . S
C1577 C1578 1.374 . S
C1578 C1549 1.387 . S
C1578 H1555 0.931 . S
C1578 C1577 1.374 . S
C1579 O1563 1.249 . S
C1579 O1564 1.264 . S
C1580 C1583 1.382 . S
C1580 C1584 1.390 . S
C1580 C1587 1.506 . S
C1581 C1582 1.398 . S
C1581 C1584 1.392 . S
C1582 C1581 1.398 . S
C1582 C1585 1.372 . S
C1582 H1592 0.931 . S
C1583 C1580 1.382 . S
C1583 C1585 1.390 . S
C1583 H1593 0.931 . S
C1584 C1580 1.390 . S
C1584 C1581 1.392 . S
C1584 H1594 0.930 . S
C1585 C1582 1.372 . S
C1585 C1583 1.390 . S
C1585 H1595 0.929 . S
C1586 O1566 1.255 . S
C1586 O1567 1.257 . S
C1587 Eu1523 2.787 . S
C1587 O1562 1.252 . S
C1587 O1565 1.268 . S
C1587 C1580 1.506 . S
H1588 C1571 0.931 . S
H1589 C1572 0.931 . S
H1590 C1573 0.929 . S
H1591 C1574 0.930 . S
H1592 C1582 0.931 . S
H1593 C1583 0.931 . S
H1594 C1584 0.930 . S
H1595 C1585 0.929 . S
Eu1596 N1625 2.600 . S
Eu1596 N1631 2.562 . S
Eu1596 O1640 2.462 . S
Eu1596 O1641 2.373 1_655 S
Eu1596 O1643 2.432 . S
Eu1596 O1644 2.290 1_654 S
Eu1596 O1648 2.335 1_655 S
Eu1596 O1651 2.372 1_655 S
Eu1596 C1660 2.787 . S
C1597 N1598 1.365 . S
C1597 C1600 1.405 . S
C1597 C1604 1.448 1_556 S
N1598 C1597 1.365 . S
N1598 C1601 1.319 . S
N1598 Eu1607 2.600 1_556 S
C1599 C1601 1.397 . S
C1599 C1602 1.367 . S
C1599 H1619 0.931 . S
C1600 C1597 1.405 . S
C1600 C1602 1.403 . S
C1600 C1606 1.439 . S
C1601 N1598 1.319 . S
C1601 C1599 1.397 . S
C1601 H1612 0.930 . S
C1602 C1599 1.367 . S
C1602 C1600 1.403 . S
C1602 H1623 0.929 . S
C1603 C1604 1.430 . S
C1603 C1605 1.375 1_554 S
C1603 C1609 1.404 . S
C1604 C1597 1.448 1_554 S
C1604 C1603 1.430 . S
C1604 N1608 1.351 . S
C1605 C1603 1.375 1_556 S
C1605 C1606 1.389 . S
C1605 H1620 0.928 1_556 S
C1606 C1600 1.439 . S
C1606 C1605 1.389 . S
C1606 H1621 0.931 . S
Eu1607 N1598 2.600 1_554 S
Eu1607 N1608 2.562 . S
Eu1607 O1642 2.335 . S
Eu1607 O1645 2.372 1_554 S
Eu1607 O1646 2.462 . S
Eu1607 O1647 2.373 . S
Eu1607 O1649 2.432 1_554 S
Eu1607 O1650 2.291 . S
Eu1607 C1671 2.787 1_554 S
N1608 C1604 1.351 . S
N1608 Eu1607 2.562 . S
N1608 C1610 1.325 . S
C1609 C1603 1.404 . S
C1609 C1611 1.366 . S
C1609 H1617 0.930 . S
C1610 N1608 1.325 . S
C1610 C1611 1.416 . S
C1610 H1616 0.929 . S
C1611 C1609 1.366 . S
C1611 C1610 1.416 . S
C1611 H1613 0.930 . S
H1612 C1601 0.930 . S
H1613 C1611 0.930 . S
H1614 C1629 0.930 1_455 S
H1615 C1636 0.930 . S
H1616 C1610 0.929 . S
H1617 C1609 0.930 . S
H1618 C1632 0.929 . S
H1619 C1599 0.931 . S
H1620 C1605 0.928 1_554 S
H1621 C1606 0.931 . S
H1622 C1627 0.931 . S
H1623 C1602 0.929 . S
H1624 C1635 0.922 1_556 S
N1625 Eu1596 2.600 . S
N1625 C1626 1.365 . S
N1625 C1629 1.319 . S
C1626 N1625 1.365 . S
C1626 C1628 1.405 . S
C1626 C1634 1.448 . S
C1627 H1622 0.931 . S
C1627 C1629 1.397 . S
C1627 C1630 1.367 . S
C1628 C1626 1.405 . S
C1628 C1630 1.403 . S
C1628 C1661 1.439 . S
C1629 H1614 0.930 1_655 S
C1629 N1625 1.319 . S
C1629 C1627 1.397 . S
C1630 C1627 1.367 . S
C1630 C1628 1.403 . S
C1630 H1637 0.929 . S
N1631 Eu1596 2.562 . S
N1631 C1632 1.325 1_554 S
N1631 C1634 1.351 . S
C1632 H1618 0.929 . S
C1632 N1631 1.325 1_556 S
C1632 C1636 1.416 . S
C1633 C1634 1.430 . S
C1633 C1635 1.445 . S
C1633 C1662 1.387 . S
C1634 C1626 1.448 . S
C1634 N1631 1.351 . S
C1634 C1633 1.430 . S
C1635 H1624 0.922 1_554 S
C1635 C1633 1.445 . S
C1635 C1636 1.335 1_554 S
C1636 H1615 0.930 . S
C1636 C1632 1.416 . S
C1636 C1635 1.335 1_556 S
H1637 C1630 0.929 . S
H1638 C1661 0.931 . S
H1639 C1662 0.931 . S
O1640 Eu1596 2.462 . S
O1640 C1660 1.252 . S
O1641 Eu1596 2.373 1_455 S
O1641 C1652 1.249 . S
O1642 Eu1607 2.335 . S
O1642 C1652 1.264 . S
O1643 Eu1596 2.432 . S
O1643 C1660 1.268 . S
O1644 Eu1596 2.290 1_456 S
O1644 C1659 1.257 . S
O1645 Eu1607 2.372 1_556 S
O1645 C1659 1.257 . S
O1646 Eu1607 2.462 . S
O1646 C1671 1.252 1_554 S
O1647 Eu1607 2.373 . S
O1647 C1663 1.249 . S
O1648 Eu1596 2.335 1_455 S
O1648 C1663 1.264 . S
O1649 Eu1607 2.432 1_556 S
O1649 C1671 1.268 . S
O1650 Eu1607 2.291 . S
O1650 C1670 1.255 . S
O1651 Eu1596 2.372 1_455 S
O1651 C1670 1.257 . S
C1652 O1641 1.249 . S
C1652 O1642 1.264 . S
C1653 C1656 1.382 . S
C1653 C1658 1.390 . S
C1653 C1660 1.506 . S
C1654 C1655 1.398 . S
C1654 C1658 1.392 . S
C1655 C1654 1.398 . S
C1655 C1657 1.372 . S
C1655 H1672 0.931 . S
C1656 C1653 1.382 . S
C1656 C1657 1.390 . S
C1656 H1673 0.931 . S
C1657 C1655 1.372 . S
C1657 C1656 1.390 . S
C1657 H1674 0.929 . S
C1658 C1653 1.390 . S
C1658 C1654 1.392 . S
C1658 H1675 0.930 . S
C1659 O1644 1.257 . S
C1659 O1645 1.257 . S
C1660 Eu1596 2.787 . S
C1660 O1640 1.252 . S
C1660 O1643 1.268 . S
C1660 C1653 1.506 . S
C1661 C1628 1.439 . S
C1661 H1638 0.931 . S
C1661 C1662 1.374 . S
C1662 C1633 1.387 . S
C1662 H1639 0.931 . S
C1662 C1661 1.374 . S
C1663 O1647 1.249 . S
C1663 O1648 1.264 . S
C1664 C1667 1.382 . S
C1664 C1668 1.390 1_556 S
C1664 C1671 1.506 . S
C1665 C1666 1.398 1_554 S
C1665 C1668 1.392 . S
C1666 C1665 1.398 1_556 S
C1666 C1669 1.372 . S
C1666 H1676 0.931 . S
C1667 C1664 1.382 . S
C1667 C1669 1.390 . S
C1667 H1677 0.931 . S
C1668 C1664 1.390 1_554 S
C1668 C1665 1.392 . S
C1668 H1678 0.930 . S
C1669 C1666 1.372 . S
C1669 C1667 1.390 . S
C1669 H1679 0.929 . S
C1670 O1650 1.255 . S
C1670 O1651 1.257 . S
C1671 Eu1607 2.787 1_556 S
C1671 O1646 1.252 1_556 S
C1671 O1649 1.268 . S
C1671 C1664 1.506 . S
H1672 C1655 0.931 . S
H1673 C1656 0.931 . S
H1674 C1657 0.929 . S
H1675 C1658 0.930 . S
H1676 C1666 0.931 . S
H1677 C1667 0.931 . S
H1678 C1668 0.930 . S
H1679 C1669 0.929 . S
C1680 C1681 1.349 . S
C1680 C1682 1.327 . S
C1680 H1705 0.950 . S
C1681 C1680 1.349 . S
C1681 C1697 1.349 1_655 S
C1682 C1680 1.327 . S
C1682 C1701 1.429 1_655 S
C1682 H1706 0.950 . S
C1683 C1700 1.574 . S
C1683 C1702 1.368 . S
C1683 H1707 0.949 . S
H1684 C1688 0.928 1_654 S
C1685 C1686 1.349 1_556 S
C1685 C1687 1.327 . S
C1685 H1708 0.950 . S
C1686 C1685 1.349 1_554 S
C1686 C1698 1.349 . S
C1687 C1685 1.327 . S
C1687 C1703 1.429 . S
C1687 H1709 0.950 . S
C1688 H1684 0.928 1_456 S
C1688 C1696 1.577 1_455 S
C1688 C1704 1.389 . S
H1689 C1697 0.950 . S
H1690 C1695 0.950 . S
H1691 C1696 0.930 1_554 S
H1692 C1698 0.950 . S
H1693 C1699 0.920 1_655 S
H1694 C1700 0.949 . S
C1695 H1690 0.950 . S
C1695 C1697 1.327 . S
C1695 C1701 1.429 . S
C1696 C1688 1.577 1_655 S
C1696 H1691 0.930 1_556 S
C1696 C1702 1.368 1_655 S
C1697 C1681 1.349 1_455 S
C1697 H1689 0.950 . S
C1697 C1695 1.327 . S
C1698 C1686 1.349 . S
C1698 H1692 0.950 . S
C1698 C1699 1.327 . S
C1699 H1693 0.920 1_455 S
C1699 C1698 1.327 . S
C1699 C1703 1.429 1_554 S
C1700 C1683 1.574 . S
C1700 H1694 0.949 . S
C1700 C1704 1.368 . S
C1701 C1682 1.429 1_455 S
C1701 C1695 1.429 . S
C1701 C1702 1.523 . S
C1702 C1683 1.368 . S
C1702 C1696 1.368 1_455 S
C1702 C1701 1.523 . S
C1703 C1687 1.429 . S
C1703 C1699 1.429 1_556 S
C1703 C1704 1.523 . S
C1704 C1688 1.389 . S
C1704 C1700 1.368 . S
C1704 C1703 1.523 . S
H1705 C1680 0.950 . S
H1706 C1682 0.950 . S
H1707 C1683 0.949 . S
H1708 C1685 0.950 . S
H1709 C1687 0.950 . S
C1710 C1711 1.349 . S
C1710 C1712 1.327 . S
C1710 H1735 0.950 . S
C1711 C1710 1.349 . S
C1711 C1727 1.349 . S
C1712 C1710 1.327 . S
C1712 C1731 1.429 . S
C1712 H1736 0.950 . S
C1713 C1730 1.574 . S
C1713 C1732 1.368 . S
C1713 H1737 0.949 . S
H1714 C1718 0.949 . S
C1715 C1716 1.349 . S
C1715 C1717 1.327 . S
C1715 H1738 0.950 . S
C1716 C1715 1.349 . S
C1716 C1728 1.349 . S
C1717 C1715 1.327 . S
C1717 C1733 1.429 . S
C1717 H1739 0.950 . S
C1718 H1714 0.949 . S
C1718 C1726 1.574 . S
C1718 C1734 1.368 . S
H1719 C1727 0.950 . S
H1720 C1725 0.950 . S
H1721 C1726 0.949 . S
H1722 C1728 0.950 . S
H1723 C1729 0.950 . S
H1724 C1730 0.949 . S
C1725 H1720 0.950 . S
C1725 C1727 1.327 . S
C1725 C1731 1.429 . S
C1726 C1718 1.574 . S
C1726 H1721 0.949 . S
C1726 C1732 1.368 . S
C1727 C1711 1.349 . S
C1727 H1719 0.950 . S
C1727 C1725 1.327 . S
C1728 C1716 1.349 . S
C1728 H1722 0.950 . S
C1728 C1729 1.327 . S
C1729 H1723 0.950 . S
C1729 C1728 1.327 . S
C1729 C1733 1.429 . S
C1730 C1713 1.574 . S
C1730 H1724 0.949 . S
C1730 C1734 1.368 . S
C1731 C1712 1.429 . S
C1731 C1725 1.429 . S
C1731 C1732 1.523 . S
C1732 C1713 1.368 . S
C1732 C1726 1.368 . S
C1732 C1731 1.523 . S
C1733 C1717 1.429 . S
C1733 C1729 1.429 . S
C1733 C1734 1.523 . S
C1734 C1718 1.368 . S
C1734 C1730 1.368 . S
C1734 C1733 1.523 . S
H1735 C1710 0.950 . S
H1736 C1712 0.950 . S
H1737 C1713 0.949 . S
H1738 C1715 0.950 . S
H1739 C1717 0.950 . S
C1740 C1741 1.349 . S
C1740 C1742 1.327 . S
C1740 H1765 0.950 . S
C1741 C1740 1.349 . S
C1741 C1757 1.349 . S
C1742 C1740 1.327 . S
C1742 C1761 1.429 . S
C1742 H1766 0.950 . S
C1743 C1760 1.574 . S
C1743 C1762 1.368 . S
C1743 H1767 0.949 . S
H1744 C1748 0.949 . S
C1745 C1746 1.349 . S
C1745 C1747 1.327 . S
C1745 H1768 0.950 . S
C1746 C1745 1.349 . S
C1746 C1758 1.349 . S
C1747 C1745 1.327 . S
C1747 C1763 1.429 . S
C1747 H1769 0.950 . S
C1748 H1744 0.949 . S
C1748 C1756 1.574 . S
C1748 C1764 1.368 . S
H1749 C1757 0.950 . S
H1750 C1755 0.950 . S
H1751 C1756 0.949 . S
H1752 C1758 0.950 . S
H1753 C1759 0.950 . S
H1754 C1760 0.949 . S
C1755 H1750 0.950 . S
C1755 C1757 1.327 . S
C1755 C1761 1.429 . S
C1756 C1748 1.574 . S
C1756 H1751 0.949 . S
C1756 C1762 1.368 . S
C1757 C1741 1.349 . S
C1757 H1749 0.950 . S
C1757 C1755 1.327 . S
C1758 C1746 1.349 . S
C1758 H1752 0.950 . S
C1758 C1759 1.327 . S
C1759 H1753 0.950 . S
C1759 C1758 1.327 . S
C1759 C1763 1.429 . S
C1760 C1743 1.574 . S
C1760 H1754 0.949 . S
C1760 C1764 1.368 . S
C1761 C1742 1.429 . S
C1761 C1755 1.429 . S
C1761 C1762 1.523 . S
C1762 C1743 1.368 . S
C1762 C1756 1.368 . S
C1762 C1761 1.523 . S
C1763 C1747 1.429 . S
C1763 C1759 1.429 . S
C1763 C1764 1.523 . S
C1764 C1748 1.368 . S
C1764 C1760 1.368 . S
C1764 C1763 1.523 . S
H1765 C1740 0.950 . S
H1766 C1742 0.950 . S
H1767 C1743 0.949 . S
H1768 C1745 0.950 . S
H1769 C1747 0.950 . S
C1770 C1771 1.349 . S
C1770 C1772 1.327 . S
C1770 H1795 0.950 . S
C1771 C1770 1.349 . S
C1771 C1787 1.349 . S
C1772 C1770 1.327 . S
C1772 C1791 1.429 . S
C1772 H1796 0.950 . S
C1773 C1790 1.574 . S
C1773 C1792 1.368 . S
C1773 H1797 0.949 . S
H1774 C1778 0.949 . S
C1775 C1776 1.349 . S
C1775 C1777 1.327 . S
C1775 H1798 0.950 . S
C1776 C1775 1.349 . S
C1776 C1788 1.349 . S
C1777 C1775 1.327 . S
C1777 C1793 1.429 . S
C1777 H1799 0.950 . S
C1778 H1774 0.949 . S
C1778 C1786 1.574 . S
C1778 C1794 1.368 . S
H1779 C1787 0.950 . S
H1780 C1785 0.950 . S
H1781 C1786 0.949 . S
H1782 C1788 0.950 . S
H1783 C1789 0.950 . S
H1784 C1790 0.949 . S
C1785 H1780 0.950 . S
C1785 C1787 1.327 . S
C1785 C1791 1.429 . S
C1786 C1778 1.574 . S
C1786 H1781 0.949 . S
C1786 C1792 1.368 . S
C1787 C1771 1.349 . S
C1787 H1779 0.950 . S
C1787 C1785 1.327 . S
C1788 C1776 1.349 . S
C1788 H1782 0.950 . S
C1788 C1789 1.327 . S
C1789 H1783 0.950 . S
C1789 C1788 1.327 . S
C1789 C1793 1.429 . S
C1790 C1773 1.574 . S
C1790 H1784 0.949 . S
C1790 C1794 1.368 . S
C1791 C1772 1.429 . S
C1791 C1785 1.429 . S
C1791 C1792 1.523 . S
C1792 C1773 1.368 . S
C1792 C1786 1.368 . S
C1792 C1791 1.523 . S
C1793 C1777 1.429 . S
C1793 C1789 1.429 . S
C1793 C1794 1.523 . S
C1794 C1778 1.368 . S
C1794 C1790 1.368 . S
C1794 C1793 1.523 . S
H1795 C1770 0.950 . S
H1796 C1772 0.950 . S
H1797 C1773 0.949 . S
H1798 C1775 0.950 . S
H1799 C1777 0.950 . S
C1800 C1801 1.349 . S
C1800 C1802 1.327 . S
C1800 H1825 0.950 1_455 S
C1801 C1800 1.349 . S
C1801 C1817 1.349 . S
C1802 C1800 1.327 . S
C1802 C1821 1.429 . S
C1802 H1826 0.950 1_455 S
C1803 C1820 1.574 . S
C1803 C1822 1.368 . S
C1803 H1827 0.949 . S
H1804 C1808 0.949 1_655 S
C1805 C1806 1.349 . S
C1805 C1807 1.327 . S
C1805 H1828 0.950 . S
C1806 C1805 1.349 . S
C1806 C1818 1.349 . S
C1807 C1805 1.327 . S
C1807 C1823 1.429 . S
C1807 H1829 0.950 . S
C1808 H1804 0.949 1_455 S
C1808 C1816 1.574 . S
C1808 C1824 1.368 . S
H1809 C1817 0.950 . S
H1810 C1815 0.950 . S
H1811 C1816 0.949 1_655 S
H1812 C1818 0.950 1_655 S
H1813 C1819 0.950 1_655 S
H1814 C1820 0.949 . S
C1815 H1810 0.950 . S
C1815 C1817 1.327 . S
C1815 C1821 1.429 . S
C1816 C1808 1.574 . S
C1816 H1811 0.949 1_455 S
C1816 C1822 1.368 . S
C1817 C1801 1.349 . S
C1817 H1809 0.950 . S
C1817 C1815 1.327 . S
C1818 C1806 1.349 . S
C1818 H1812 0.950 1_455 S
C1818 C1819 1.327 . S
C1819 H1813 0.950 1_455 S
C1819 C1818 1.327 . S
C1819 C1823 1.429 . S
C1820 C1803 1.574 . S
C1820 H1814 0.949 . S
C1820 C1824 1.368 . S
C1821 C1802 1.429 . S
C1821 C1815 1.429 . S
C1821 C1822 1.523 . S
C1822 C1803 1.368 . S
C1822 C1816 1.368 . S
C1822 C1821 1.523 . S
C1823 C1807 1.429 . S
C1823 C1819 1.429 . S
C1823 C1824 1.523 . S
C1824 C1808 1.368 . S
C1824 C1820 1.368 . S
C1824 C1823 1.523 . S
H1825 C1800 0.950 1_655 S
H1826 C1802 0.950 1_655 S
H1827 C1803 0.949 . S
H1828 C1805 0.950 . S
H1829 C1807 0.950 . S
C1830 C1831 1.349 . S
C1830 C1832 1.327 . S
C1830 H1855 0.950 . S
C1831 C1830 1.349 . S
C1831 C1847 1.349 . S
C1832 C1830 1.327 . S
C1832 C1851 1.429 . S
C1832 H1856 0.950 . S
C1833 C1850 1.574 . S
C1833 C1852 1.368 . S
C1833 H1857 0.949 . S
H1834 C1838 0.949 . S
C1835 C1836 1.349 . S
C1835 C1837 1.327 . S
C1835 H1858 0.950 . S
C1836 C1835 1.349 . S
C1836 C1848 1.349 . S
C1837 C1835 1.327 . S
C1837 C1853 1.429 . S
C1837 H1859 0.950 . S
C1838 H1834 0.949 . S
C1838 C1846 1.574 . S
C1838 C1854 1.368 . S
H1839 C1847 0.950 . S
H1840 C1845 0.950 . S
H1841 C1846 0.949 . S
H1842 C1848 0.950 . S
H1843 C1849 0.950 . S
H1844 C1850 0.949 . S
C1845 H1840 0.950 . S
C1845 C1847 1.327 . S
C1845 C1851 1.429 . S
C1846 C1838 1.574 . S
C1846 H1841 0.949 . S
C1846 C1852 1.368 . S
C1847 C1831 1.349 . S
C1847 H1839 0.950 . S
C1847 C1845 1.327 . S
C1848 C1836 1.349 . S
C1848 H1842 0.950 . S
C1848 C1849 1.327 . S
C1849 H1843 0.950 . S
C1849 C1848 1.327 . S
C1849 C1853 1.429 . S
C1850 C1833 1.574 . S
C1850 H1844 0.949 . S
C1850 C1854 1.368 . S
C1851 C1832 1.429 . S
C1851 C1845 1.429 . S
C1851 C1852 1.523 . S
C1852 C1833 1.368 . S
C1852 C1846 1.368 . S
C1852 C1851 1.523 . S
C1853 C1837 1.429 . S
C1853 C1849 1.429 . S
C1853 C1854 1.523 . S
C1854 C1838 1.368 . S
C1854 C1850 1.368 . S
C1854 C1853 1.523 . S
H1855 C1830 0.950 . S
H1856 C1832 0.950 . S
H1857 C1833 0.949 . S
H1858 C1835 0.950 . S
H1859 C1837 0.950 . S
C1860 C1861 1.349 . S
C1860 C1862 1.327 . S
C1860 H1885 0.950 . S
C1861 C1860 1.349 . S
C1861 C1877 1.349 . S
C1862 C1860 1.327 . S
C1862 C1881 1.429 . S
C1862 H1886 0.950 . S
C1863 C1880 1.574 . S
C1863 C1882 1.368 . S
C1863 H1887 0.949 . S
H1864 C1868 0.949 . S
C1865 C1866 1.349 . S
C1865 C1867 1.327 . S
C1865 H1888 0.950 . S
C1866 C1865 1.349 . S
C1866 C1878 1.349 . S
C1867 C1865 1.327 . S
C1867 C1883 1.429 . S
C1867 H1889 0.950 . S
C1868 H1864 0.949 . S
C1868 C1876 1.574 . S
C1868 C1884 1.368 . S
H1869 C1877 0.950 . S
H1870 C1875 0.950 . S
H1871 C1876 0.949 . S
H1872 C1878 0.950 . S
H1873 C1879 0.950 . S
H1874 C1880 0.949 . S
C1875 H1870 0.950 . S
C1875 C1877 1.327 . S
C1875 C1881 1.429 . S
C1876 C1868 1.574 . S
C1876 H1871 0.949 . S
C1876 C1882 1.368 . S
C1877 C1861 1.349 . S
C1877 H1869 0.950 . S
C1877 C1875 1.327 . S
C1878 C1866 1.349 . S
C1878 H1872 0.950 . S
C1878 C1879 1.327 . S
C1879 H1873 0.950 . S
C1879 C1878 1.327 . S
C1879 C1883 1.429 . S
C1880 C1863 1.574 . S
C1880 H1874 0.949 . S
C1880 C1884 1.368 . S
C1881 C1862 1.429 . S
C1881 C1875 1.429 . S
C1881 C1882 1.523 . S
C1882 C1863 1.368 . S
C1882 C1876 1.368 . S
C1882 C1881 1.523 . S
C1883 C1867 1.429 . S
C1883 C1879 1.429 . S
C1883 C1884 1.523 . S
C1884 C1868 1.368 . S
C1884 C1880 1.368 . S
C1884 C1883 1.523 . S
H1885 C1860 0.950 . S
H1886 C1862 0.950 . S
H1887 C1863 0.949 . S
H1888 C1865 0.950 . S
H1889 C1867 0.950 . S
C1890 C1891 1.349 . S
C1890 C1892 1.327 . S
C1890 H1915 0.950 . S
C1891 C1890 1.349 . S
C1891 C1907 1.349 . S
C1892 C1890 1.327 . S
C1892 C1911 1.429 . S
C1892 H1916 0.950 . S
C1893 C1910 1.574 . S
C1893 C1912 1.368 . S
C1893 H1917 0.949 . S
H1894 C1898 0.949 . S
C1895 C1896 1.349 . S
C1895 C1897 1.327 . S
C1895 H1918 0.950 . S
C1896 C1895 1.349 . S
C1896 C1908 1.349 . S
C1897 C1895 1.327 . S
C1897 C1913 1.429 . S
C1897 H1919 0.950 . S
C1898 H1894 0.949 . S
C1898 C1906 1.574 . S
C1898 C1914 1.368 . S
H1899 C1907 0.950 . S
H1900 C1905 0.950 . S
H1901 C1906 0.949 . S
H1902 C1908 0.950 . S
H1903 C1909 0.950 . S
H1904 C1910 0.949 . S
C1905 H1900 0.950 . S
C1905 C1907 1.327 . S
C1905 C1911 1.429 . S
C1906 C1898 1.574 . S
C1906 H1901 0.949 . S
C1906 C1912 1.368 . S
C1907 C1891 1.349 . S
C1907 H1899 0.950 . S
C1907 C1905 1.327 . S
C1908 C1896 1.349 . S
C1908 H1902 0.950 . S
C1908 C1909 1.327 . S
C1909 H1903 0.950 . S
C1909 C1908 1.327 . S
C1909 C1913 1.429 . S
C1910 C1893 1.574 . S
C1910 H1904 0.949 . S
C1910 C1914 1.368 . S
C1911 C1892 1.429 . S
C1911 C1905 1.429 . S
C1911 C1912 1.523 . S
C1912 C1893 1.368 . S
C1912 C1906 1.368 . S
C1912 C1911 1.523 . S
C1913 C1897 1.429 . S
C1913 C1909 1.429 . S
C1913 C1914 1.523 . S
C1914 C1898 1.368 . S
C1914 C1910 1.368 . S
C1914 C1913 1.523 . S
H1915 C1890 0.950 . S
H1916 C1892 0.950 . S
H1917 C1893 0.949 . S
H1918 C1895 0.950 . S
H1919 C1897 0.950 . S
C1920 C1921 1.349 1_565 S
C1920 C1922 1.327 . S
C1920 H1945 0.950 . S
C1921 C1920 1.349 1_545 S
C1921 C1937 1.349 . S
C1922 C1920 1.327 . S
C1922 C1941 1.429 1_565 S
C1922 H1946 0.950 . S
C1923 C1940 1.574 . S
C1923 C1942 1.368 . S
C1923 H1947 0.949 . S
H1924 C1928 0.949 1_565 S
C1925 C1926 1.349 . S
C1925 C1927 1.340 . S
C1925 H1948 0.950 . S
C1926 C1925 1.349 . S
C1926 C1938 1.349 1_455 S
C1927 C1925 1.340 . S
C1927 C1943 1.414 1_455 S
C1927 H1949 0.953 . S
C1928 H1924 0.949 1_545 S
C1928 C1936 1.574 . S
C1928 C1944 1.368 . S
H1929 C1937 0.950 . S
H1930 C1935 0.950 . S
H1931 C1936 0.949 1_565 S
H1932 C1938 0.950 . S
H1933 C1939 0.950 1_565 S
H1934 C1940 0.949 . S
C1935 H1930 0.950 . S
C1935 C1937 1.327 . S
C1935 C1941 1.429 . S
C1936 C1928 1.574 . S
C1936 H1931 0.949 1_545 S
C1936 C1942 1.368 . S
C1937 C1921 1.349 . S
C1937 H1929 0.950 . S
C1937 C1935 1.327 . S
C1938 C1926 1.349 1_655 S
C1938 H1932 0.950 . S
C1938 C1939 1.327 . S
C1939 H1933 0.950 1_545 S
C1939 C1938 1.327 . S
C1939 C1943 1.429 . S
C1940 C1923 1.574 . S
C1940 H1934 0.949 . S
C1940 C1944 1.368 . S
C1941 C1922 1.429 1_545 S
C1941 C1935 1.429 . S
C1941 C1942 1.523 . S
C1942 C1923 1.368 . S
C1942 C1936 1.368 . S
C1942 C1941 1.523 . S
C1943 C1927 1.414 1_655 S
C1943 C1939 1.429 . S
C1943 C1944 1.523 . S
C1944 C1928 1.368 . S
C1944 C1940 1.368 . S
C1944 C1943 1.523 . S
H1945 C1920 0.950 . S
H1946 C1922 0.950 . S
H1947 C1923 0.949 . S
H1948 C1925 0.950 . S
H1949 C1927 0.953 . S
C1950 C1951 1.349 . S
C1950 C1952 1.327 . S
C1950 H1975 0.950 . S
C1951 C1950 1.349 . S
C1951 C1967 1.349 . S
C1952 C1950 1.327 . S
C1952 C1971 1.429 . S
C1952 H1976 0.950 . S
C1953 C1970 1.574 . S
C1953 C1972 1.368 . S
C1953 H1977 0.949 . S
H1954 C1958 0.949 . S
C1955 C1956 1.349 . S
C1955 C1957 1.327 . S
C1955 H1978 0.950 . S
C1956 C1955 1.349 . S
C1956 C1968 1.349 . S
C1957 C1955 1.327 . S
C1957 C1973 1.429 . S
C1957 H1979 0.950 . S
C1958 H1954 0.949 . S
C1958 C1966 1.574 . S
C1958 C1974 1.368 . S
H1959 C1967 0.950 . S
H1960 C1965 0.950 . S
H1961 C1966 0.949 . S
H1962 C1968 0.950 . S
H1963 C1969 0.950 . S
H1964 C1970 0.949 . S
C1965 H1960 0.950 . S
C1965 C1967 1.327 . S
C1965 C1971 1.429 . S
C1966 C1958 1.574 . S
C1966 H1961 0.949 . S
C1966 C1972 1.368 . S
C1967 C1951 1.349 . S
C1967 H1959 0.950 . S
C1967 C1965 1.327 . S
C1968 C1956 1.349 . S
C1968 H1962 0.950 . S
C1968 C1969 1.327 . S
C1969 H1963 0.950 . S
C1969 C1968 1.327 . S
C1969 C1973 1.429 . S
C1970 C1953 1.574 . S
C1970 H1964 0.949 . S
C1970 C1974 1.368 . S
C1971 C1952 1.429 . S
C1971 C1965 1.429 . S
C1971 C1972 1.523 . S
C1972 C1953 1.368 . S
C1972 C1966 1.368 . S
C1972 C1971 1.523 . S
C1973 C1957 1.429 . S
C1973 C1969 1.429 . S
C1973 C1974 1.523 . S
C1974 C1958 1.368 . S
C1974 C1970 1.368 . S
C1974 C1973 1.523 . S
H1975 C1950 0.950 . S
H1976 C1952 0.950 . S
H1977 C1953 0.949 . S
H1978 C1955 0.950 . S
H1979 C1957 0.950 . S
C1980 C1981 1.349 . S
C1980 C1982 1.327 . S
C1980 H2005 0.950 . S
C1981 C1980 1.349 . S
C1981 C1997 1.349 . S
C1982 C1980 1.327 . S
C1982 C2001 1.429 . S
C1982 H2006 0.950 . S
C1983 C2000 1.574 . S
C1983 C2002 1.368 . S
C1983 H2007 0.949 . S
H1984 C1988 0.949 . S
C1985 C1986 1.349 . S
C1985 C1987 1.327 . S
C1985 H2008 0.947 1_545 S
C1986 C1985 1.349 . S
C1986 C1998 1.349 . S
C1987 C1985 1.327 . S
C1987 C2003 1.429 . S
C1987 H2009 0.950 . S
C1988 H1984 0.949 . S
C1988 C1996 1.574 . S
C1988 C2004 1.368 . S
H1989 C1997 0.950 . S
H1990 C1995 0.950 . S
H1991 C1996 0.949 . S
H1992 C1998 0.950 . S
H1993 C1999 0.950 . S
H1994 C2000 0.949 . S
C1995 H1990 0.950 . S
C1995 C1997 1.327 . S
C1995 C2001 1.429 . S
C1996 C1988 1.574 . S
C1996 H1991 0.949 . S
C1996 C2002 1.368 . S
C1997 C1981 1.349 . S
C1997 H1989 0.950 . S
C1997 C1995 1.327 . S
C1998 C1986 1.349 . S
C1998 H1992 0.950 . S
C1998 C1999 1.327 . S
C1999 H1993 0.950 . S
C1999 C1998 1.327 . S
C1999 C2003 1.429 . S
C2000 C1983 1.574 . S
C2000 H1994 0.949 . S
C2000 C2004 1.368 . S
C2001 C1982 1.429 . S
C2001 C1995 1.429 . S
C2001 C2002 1.523 . S
C2002 C1983 1.368 . S
C2002 C1996 1.368 . S
C2002 C2001 1.523 . S
C2003 C1987 1.429 . S
C2003 C1999 1.429 . S
C2003 C2004 1.523 . S
C2004 C1988 1.368 . S
C2004 C2000 1.368 . S
C2004 C2003 1.523 . S
H2005 C1980 0.950 . S
H2006 C1982 0.950 . S
H2007 C1983 0.949 . S
H2008 C1985 0.947 1_565 S
H2009 C1987 0.950 . S
C2010 C2011 1.349 . S
C2010 C2012 1.327 . S
C2010 H2035 0.950 . S
C2011 C2010 1.349 . S
C2011 C2027 1.349 . S
C2012 C2010 1.327 . S
C2012 C2031 1.429 . S
C2012 H2036 0.950 . S
C2013 C2030 1.574 . S
C2013 C2032 1.368 . S
C2013 H2037 0.949 . S
H2014 C2018 0.949 . S
C2015 C2016 1.349 . S
C2015 C2017 1.327 . S
C2015 H2038 0.950 . S
C2016 C2015 1.349 . S
C2016 C2028 1.349 . S
C2017 C2015 1.327 . S
C2017 C2033 1.429 . S
C2017 H2039 0.950 . S
C2018 H2014 0.949 . S
C2018 C2026 1.574 . S
C2018 C2034 1.368 . S
H2019 C2027 0.950 . S
H2020 C2025 0.950 . S
H2021 C2026 0.949 . S
H2022 C2028 0.950 . S
H2023 C2029 0.950 . S
H2024 C2030 0.949 . S
C2025 H2020 0.950 . S
C2025 C2027 1.327 . S
C2025 C2031 1.429 . S
C2026 C2018 1.574 . S
C2026 H2021 0.949 . S
C2026 C2032 1.368 . S
C2027 C2011 1.349 . S
C2027 H2019 0.950 . S
C2027 C2025 1.327 . S
C2028 C2016 1.349 . S
C2028 H2022 0.950 . S
C2028 C2029 1.327 . S
C2029 H2023 0.950 . S
C2029 C2028 1.327 . S
C2029 C2033 1.429 . S
C2030 C2013 1.574 . S
C2030 H2024 0.949 . S
C2030 C2034 1.368 . S
C2031 C2012 1.429 . S
C2031 C2025 1.429 . S
C2031 C2032 1.523 . S
C2032 C2013 1.368 . S
C2032 C2026 1.368 . S
C2032 C2031 1.523 . S
C2033 C2017 1.429 . S
C2033 C2029 1.429 . S
C2033 C2034 1.523 . S
C2034 C2018 1.368 . S
C2034 C2030 1.368 . S
C2034 C2033 1.523 . S
H2035 C2010 0.950 . S
H2036 C2012 0.950 . S
H2037 C2013 0.949 . S
H2038 C2015 0.950 . S
H2039 C2017 0.950 . S
C2040 C2041 1.349 . S
C2040 C2042 1.327 . S
C2040 H2065 0.950 . S
C2041 C2040 1.349 . S
C2041 C2057 1.349 . S
C2042 C2040 1.327 . S
C2042 C2061 1.429 . S
C2042 H2066 0.950 . S
C2043 C2060 1.574 . S
C2043 C2062 1.368 . S
C2043 H2067 0.949 . S
H2044 C2048 0.949 . S
C2045 C2046 1.383 . S
C2045 C2047 1.327 . S
C2045 H2068 0.950 . S
C2046 C2045 1.383 . S
C2046 C2058 1.301 1_455 S
C2047 C2045 1.327 . S
C2047 C2063 1.429 1_455 S
C2047 H2069 0.950 . S
C2048 H2044 0.949 . S
C2048 C2056 1.574 . S
C2048 C2064 1.368 . S
H2049 C2057 0.950 . S
H2050 C2055 0.950 . S
H2051 C2056 0.949 . S
H2052 C2058 0.950 . S
H2053 C2059 0.950 . S
H2054 C2060 0.949 1_455 S
C2055 H2050 0.950 . S
C2055 C2057 1.327 . S
C2055 C2061 1.429 . S
C2056 C2048 1.574 . S
C2056 H2051 0.949 . S
C2056 C2062 1.368 . S
C2057 C2041 1.349 . S
C2057 H2049 0.950 . S
C2057 C2055 1.327 . S
C2058 C2046 1.301 1_655 S
C2058 H2052 0.950 . S
C2058 C2059 1.327 . S
C2059 H2053 0.950 . S
C2059 C2058 1.327 . S
C2059 C2063 1.429 . S
C2060 C2043 1.574 . S
C2060 H2054 0.949 1_655 S
C2060 C2064 1.368 . S
C2061 C2042 1.429 . S
C2061 C2055 1.429 . S
C2061 C2062 1.523 . S
C2062 C2043 1.368 . S
C2062 C2056 1.368 . S
C2062 C2061 1.523 . S
C2063 C2047 1.429 1_655 S
C2063 C2059 1.429 . S
C2063 C2064 1.523 . S
C2064 C2048 1.368 . S
C2064 C2060 1.368 . S
C2064 C2063 1.523 . S
H2065 C2040 0.950 . S
H2066 C2042 0.950 . S
H2067 C2043 0.949 . S
H2068 C2045 0.950 . S
H2069 C2047 0.950 . S
C2070 C2071 1.349 . S
C2070 C2072 1.327 . S
C2070 H2095 0.950 . S
C2071 C2070 1.349 . S
C2071 C2087 1.349 . S
C2072 C2070 1.327 . S
C2072 C2091 1.429 . S
C2072 H2096 0.950 . S
C2073 C2090 1.574 . S
C2073 C2092 1.368 . S
C2073 H2097 0.949 . S
H2074 C2078 0.949 . S
C2075 C2076 1.349 . S
C2075 C2077 1.327 . S
C2075 H2098 0.950 . S
C2076 C2075 1.349 . S
C2076 C2088 1.349 . S
C2077 C2075 1.327 . S
C2077 C2093 1.429 . S
C2077 H2099 0.950 . S
C2078 H2074 0.949 . S
C2078 C2086 1.574 . S
C2078 C2094 1.368 . S
H2079 C2087 0.950 . S
H2080 C2085 0.950 . S
H2081 C2086 0.949 . S
H2082 C2088 0.950 . S
H2083 C2089 0.950 . S
H2084 C2090 0.949 . S
C2085 H2080 0.950 . S
C2085 C2087 1.327 . S
C2085 C2091 1.429 . S
C2086 C2078 1.574 . S
C2086 H2081 0.949 . S
C2086 C2092 1.368 . S
C2087 C2071 1.349 . S
C2087 H2079 0.950 . S
C2087 C2085 1.327 . S
C2088 C2076 1.349 . S
C2088 H2082 0.950 . S
C2088 C2089 1.327 . S
C2089 H2083 0.950 . S
C2089 C2088 1.327 . S
C2089 C2093 1.429 . S
C2090 C2073 1.574 . S
C2090 H2084 0.949 . S
C2090 C2094 1.368 . S
C2091 C2072 1.429 . S
C2091 C2085 1.429 . S
C2091 C2092 1.523 . S
C2092 C2073 1.368 . S
C2092 C2086 1.368 . S
C2092 C2091 1.523 . S
C2093 C2077 1.429 . S
C2093 C2089 1.429 . S
C2093 C2094 1.523 . S
C2094 C2078 1.368 . S
C2094 C2090 1.368 . S
C2094 C2093 1.523 . S
H2095 C2070 0.950 . S
H2096 C2072 0.950 . S
H2097 C2073 0.949 . S
H2098 C2075 0.950 . S
H2099 C2077 0.950 . S
C2100 C2101 1.349 . S
C2100 C2102 1.327 . S
C2100 H2125 0.950 . S
C2101 C2100 1.349 . S
C2101 C2117 1.349 . S
C2102 C2100 1.327 . S
C2102 C2121 1.429 . S
C2102 H2126 0.950 . S
C2103 C2120 1.574 . S
C2103 C2122 1.368 . S
C2103 H2127 0.949 . S
H2104 C2108 0.949 . S
C2105 C2106 1.349 . S
C2105 C2107 1.327 . S
C2105 H2128 0.950 . S
C2106 C2105 1.349 . S
C2106 C2118 1.349 . S
C2107 C2105 1.327 . S
C2107 C2123 1.429 . S
C2107 H2129 0.950 . S
C2108 H2104 0.949 . S
C2108 C2116 1.574 . S
C2108 C2124 1.368 . S
H2109 C2117 0.950 . S
H2110 C2115 0.950 . S
H2111 C2116 0.949 . S
H2112 C2118 0.950 . S
H2113 C2119 0.950 . S
H2114 C2120 0.949 . S
C2115 H2110 0.950 . S
C2115 C2117 1.327 . S
C2115 C2121 1.429 . S
C2116 C2108 1.574 . S
C2116 H2111 0.949 . S
C2116 C2122 1.368 . S
C2117 C2101 1.349 . S
C2117 H2109 0.950 . S
C2117 C2115 1.327 . S
C2118 C2106 1.349 . S
C2118 H2112 0.950 . S
C2118 C2119 1.327 . S
C2119 H2113 0.950 . S
C2119 C2118 1.327 . S
C2119 C2123 1.429 . S
C2120 C2103 1.574 . S
C2120 H2114 0.949 . S
C2120 C2124 1.368 . S
C2121 C2102 1.429 . S
C2121 C2115 1.429 . S
C2121 C2122 1.523 . S
C2122 C2103 1.368 . S
C2122 C2116 1.368 . S
C2122 C2121 1.523 . S
C2123 C2107 1.429 . S
C2123 C2119 1.429 . S
C2123 C2124 1.523 . S
C2124 C2108 1.368 . S
C2124 C2120 1.368 . S
C2124 C2123 1.523 . S
H2125 C2100 0.950 . S
H2126 C2102 0.950 . S
H2127 C2103 0.949 . S
H2128 C2105 0.950 . S
H2129 C2107 0.950 . S
C2130 C2131 1.349 . S
C2130 C2132 1.327 . S
C2130 H2155 0.950 . S
C2131 C2130 1.349 . S
C2131 C2147 1.349 . S
C2132 C2130 1.327 . S
C2132 C2151 1.429 . S
C2132 H2156 0.950 . S
C2133 C2150 1.574 . S
C2133 C2152 1.368 . S
C2133 H2157 0.949 . S
H2134 C2138 0.949 . S
C2135 C2136 1.349 . S
C2135 C2137 1.327 . S
C2135 H2158 0.950 . S
C2136 C2135 1.349 . S
C2136 C2148 1.349 . S
C2137 C2135 1.327 . S
C2137 C2153 1.429 . S
C2137 H2159 0.950 . S
C2138 H2134 0.949 . S
C2138 C2146 1.574 . S
C2138 C2154 1.368 . S
H2139 C2147 0.950 . S
H2140 C2145 0.950 . S
H2141 C2146 0.949 . S
H2142 C2148 0.950 . S
H2143 C2149 0.950 . S
H2144 C2150 0.949 . S
C2145 H2140 0.950 . S
C2145 C2147 1.327 . S
C2145 C2151 1.429 . S
C2146 C2138 1.574 . S
C2146 H2141 0.949 . S
C2146 C2152 1.368 . S
C2147 C2131 1.349 . S
C2147 H2139 0.950 . S
C2147 C2145 1.327 . S
C2148 C2136 1.349 . S
C2148 H2142 0.950 . S
C2148 C2149 1.327 . S
C2149 H2143 0.950 . S
C2149 C2148 1.327 . S
C2149 C2153 1.429 . S
C2150 C2133 1.574 . S
C2150 H2144 0.949 . S
C2150 C2154 1.368 . S
C2151 C2132 1.429 . S
C2151 C2145 1.429 . S
C2151 C2152 1.523 . S
C2152 C2133 1.368 . S
C2152 C2146 1.368 . S
C2152 C2151 1.523 . S
C2153 C2137 1.429 . S
C2153 C2149 1.429 . S
C2153 C2154 1.523 . S
C2154 C2138 1.368 . S
C2154 C2150 1.368 . S
C2154 C2153 1.523 . S
H2155 C2130 0.950 . S
H2156 C2132 0.950 . S
H2157 C2133 0.949 . S
H2158 C2135 0.950 . S
H2159 C2137 0.950 . S
C2160 C2161 1.349 . S
C2160 C2162 1.327 . S
C2160 H2185 0.950 . S
C2161 C2160 1.349 . S
C2161 C2177 1.349 . S
C2162 C2160 1.327 . S
C2162 C2181 1.429 1_556 S
C2162 H2186 0.950 . S
C2163 C2180 1.574 . S
C2163 C2182 1.368 . S
C2163 H2187 0.949 . S
H2164 C2168 0.949 . S
C2165 C2166 1.349 1_545 S
C2165 C2167 1.327 . S
C2165 H2188 0.950 . S
C2166 C2165 1.349 1_565 S
C2166 C2178 1.349 . S
C2167 C2165 1.327 . S
C2167 C2183 1.429 1_545 S
C2167 H2189 0.950 . S
C2168 H2164 0.949 . S
C2168 C2176 1.574 . S
C2168 C2184 1.368 . S
H2169 C2177 0.953 1_554 S
H2170 C2175 0.950 . S
H2171 C2176 0.949 . S
H2172 C2178 0.950 . S
H2173 C2179 0.950 . S
H2174 C2180 0.949 1_545 S
C2175 H2170 0.950 . S
C2175 C2177 1.327 1_554 S
C2175 C2181 1.429 . S
C2176 C2168 1.574 . S
C2176 H2171 0.949 . S
C2176 C2182 1.368 . S
C2177 C2161 1.349 . S
C2177 H2169 0.953 1_556 S
C2177 C2175 1.327 1_556 S
C2178 C2166 1.349 . S
C2178 H2172 0.950 . S
C2178 C2179 1.327 . S
C2179 H2173 0.950 . S
C2179 C2178 1.327 . S
C2179 C2183 1.429 . S
C2180 C2163 1.574 . S
C2180 H2174 0.949 1_565 S
C2180 C2184 1.368 . S
C2181 C2162 1.429 1_554 S
C2181 C2175 1.429 . S
C2181 C2182 1.523 . S
C2182 C2163 1.368 . S
C2182 C2176 1.368 . S
C2182 C2181 1.523 . S
C2183 C2167 1.429 1_565 S
C2183 C2179 1.429 . S
C2183 C2184 1.523 . S
C2184 C2168 1.368 . S
C2184 C2180 1.368 . S
C2184 C2183 1.523 . S
H2185 C2160 0.950 . S
H2186 C2162 0.950 . S
H2187 C2163 0.949 . S
H2188 C2165 0.950 . S
H2189 C2167 0.950 . S
C2190 C2191 1.349 1_556 S
C2190 C2192 1.327 . S
C2190 H2215 0.950 . S
C2191 C2190 1.349 1_554 S
C2191 C2207 1.349 . S
C2192 C2190 1.327 . S
C2192 C2211 1.429 1_556 S
C2192 H2216 0.950 . S
C2193 C2210 1.574 . S
C2193 C2212 1.368 . S
C2193 H2217 0.949 . S
H2194 C2198 0.949 . S
C2195 C2196 1.349 . S
C2195 C2197 1.327 . S
C2195 H2218 0.950 . S
C2196 C2195 1.349 . S
C2196 C2208 1.349 1_554 S
C2197 C2195 1.327 . S
C2197 C2213 1.429 . S
C2197 H2219 0.950 . S
C2198 H2194 0.949 . S
C2198 C2206 1.574 . S
C2198 C2214 1.368 1_556 S
H2199 C2207 0.950 . S
H2200 C2205 0.950 . S
H2201 C2206 0.949 . S
H2202 C2208 0.950 . S
H2203 C2209 0.950 . S
H2204 C2210 0.949 . S
C2205 H2200 0.950 . S
C2205 C2207 1.327 . S
C2205 C2211 1.429 . S
C2206 C2198 1.574 . S
C2206 H2201 0.949 . S
C2206 C2212 1.368 1_556 S
C2207 C2191 1.349 . S
C2207 H2199 0.950 . S
C2207 C2205 1.327 . S
C2208 C2196 1.349 1_556 S
C2208 H2202 0.950 . S
C2208 C2209 1.327 . S
C2209 H2203 0.950 . S
C2209 C2208 1.327 . S
C2209 C2213 1.429 1_556 S
C2210 C2193 1.574 . S
C2210 H2204 0.949 . S
C2210 C2214 1.368 . S
C2211 C2192 1.429 1_554 S
C2211 C2205 1.429 . S
C2211 C2212 1.523 . S
C2212 C2193 1.368 . S
C2212 C2206 1.368 1_554 S
C2212 C2211 1.523 . S
C2213 C2197 1.429 . S
C2213 C2209 1.429 1_554 S
C2213 C2214 1.523 . S
C2214 C2198 1.368 1_554 S
C2214 C2210 1.368 . S
C2214 C2213 1.523 . S
H2215 C2190 0.950 . S
H2216 C2192 0.950 . S
H2217 C2193 0.949 . S
H2218 C2195 0.950 . S
H2219 C2197 0.950 . S
C2220 C2221 1.349 . S
C2220 C2222 1.327 . S
C2220 H2245 0.950 . S
C2221 C2220 1.349 . S
C2221 C2237 1.349 . S
C2222 C2220 1.327 . S
C2222 C2241 1.429 . S
C2222 H2246 0.950 . S
C2223 C2240 1.574 . S
C2223 C2242 1.368 . S
C2223 H2247 0.949 . S
H2224 C2228 0.949 . S
C2225 C2226 1.349 . S
C2225 C2227 1.327 . S
C2225 H2248 0.950 . S
C2226 C2225 1.349 . S
C2226 C2238 1.349 . S
C2227 C2225 1.327 . S
C2227 C2243 1.429 . S
C2227 H2249 0.950 . S
C2228 H2224 0.949 . S
C2228 C2236 1.574 . S
C2228 C2244 1.368 . S
H2229 C2237 0.950 . S
H2230 C2235 0.950 . S
H2231 C2236 0.949 . S
H2232 C2238 0.950 . S
H2233 C2239 0.950 . S
H2234 C2240 0.949 . S
C2235 H2230 0.950 . S
C2235 C2237 1.327 . S
C2235 C2241 1.429 . S
C2236 C2228 1.574 . S
C2236 H2231 0.949 . S
C2236 C2242 1.368 . S
C2237 C2221 1.349 . S
C2237 H2229 0.950 . S
C2237 C2235 1.327 . S
C2238 C2226 1.349 . S
C2238 H2232 0.950 . S
C2238 C2239 1.327 . S
C2239 H2233 0.950 . S
C2239 C2238 1.327 . S
C2239 C2243 1.429 . S
C2240 C2223 1.574 . S
C2240 H2234 0.949 . S
C2240 C2244 1.368 . S
C2241 C2222 1.429 . S
C2241 C2235 1.429 . S
C2241 C2242 1.523 . S
C2242 C2223 1.368 . S
C2242 C2236 1.368 . S
C2242 C2241 1.523 . S
C2243 C2227 1.429 . S
C2243 C2239 1.429 . S
C2243 C2244 1.523 . S
C2244 C2228 1.368 . S
C2244 C2240 1.368 . S
C2244 C2243 1.523 . S
H2245 C2220 0.950 . S
H2246 C2222 0.950 . S
H2247 C2223 0.949 . S
H2248 C2225 0.950 . S
H2249 C2227 0.950 . S
C2250 C2251 1.349 . S
C2250 C2252 1.327 . S
C2250 H2275 0.950 . S
C2251 C2250 1.349 . S
C2251 C2267 1.349 . S
C2252 C2250 1.327 . S
C2252 C2271 1.429 . S
C2252 H2276 0.950 . S
C2253 C2270 1.574 . S
C2253 C2272 1.368 . S
C2253 H2277 0.949 . S
H2254 C2258 0.949 . S
C2255 C2256 1.349 . S
C2255 C2257 1.327 . S
C2255 H2278 0.950 . S
C2256 C2255 1.349 . S
C2256 C2268 1.349 . S
C2257 C2255 1.327 . S
C2257 C2273 1.429 . S
C2257 H2279 0.950 . S
C2258 H2254 0.949 . S
C2258 C2266 1.574 . S
C2258 C2274 1.368 . S
H2259 C2267 0.950 . S
H2260 C2265 0.950 . S
H2261 C2266 0.949 . S
H2262 C2268 0.950 . S
H2263 C2269 0.950 . S
H2264 C2270 0.949 . S
C2265 H2260 0.950 . S
C2265 C2267 1.327 . S
C2265 C2271 1.429 . S
C2266 C2258 1.574 . S
C2266 H2261 0.949 . S
C2266 C2272 1.368 . S
C2267 C2251 1.349 . S
C2267 H2259 0.950 . S
C2267 C2265 1.327 . S
C2268 C2256 1.349 . S
C2268 H2262 0.950 . S
C2268 C2269 1.327 . S
C2269 H2263 0.950 . S
C2269 C2268 1.327 . S
C2269 C2273 1.429 . S
C2270 C2253 1.574 . S
C2270 H2264 0.949 . S
C2270 C2274 1.368 . S
C2271 C2252 1.429 . S
C2271 C2265 1.429 . S
C2271 C2272 1.523 . S
C2272 C2253 1.368 . S
C2272 C2266 1.368 . S
C2272 C2271 1.523 . S
C2273 C2257 1.429 . S
C2273 C2269 1.429 . S
C2273 C2274 1.523 . S
C2274 C2258 1.368 . S
C2274 C2270 1.368 . S
C2274 C2273 1.523 . S
H2275 C2250 0.950 . S
H2276 C2252 0.950 . S
H2277 C2253 0.949 . S
H2278 C2255 0.950 . S
H2279 C2257 0.950 . S
C2280 C2281 1.349 . S
C2280 C2282 1.327 . S
C2280 H2305 0.950 . S
C2281 C2280 1.349 . S
C2281 C2297 1.349 . S
C2282 C2280 1.327 . S
C2282 C2301 1.429 . S
C2282 H2306 0.950 . S
C2283 C2300 1.574 . S
C2283 C2302 1.368 . S
C2283 H2307 0.949 . S
H2284 C2288 0.949 . S
C2285 C2286 1.349 . S
C2285 C2287 1.327 . S
C2285 H2308 0.950 . S
C2286 C2285 1.349 . S
C2286 C2298 1.349 . S
C2287 C2285 1.327 . S
C2287 C2303 1.429 . S
C2287 H2309 0.950 . S
C2288 H2284 0.949 . S
C2288 C2296 1.574 . S
C2288 C2304 1.368 . S
H2289 C2297 0.950 . S
H2290 C2295 0.950 . S
H2291 C2296 0.949 . S
H2292 C2298 0.950 . S
H2293 C2299 0.950 . S
H2294 C2300 0.949 . S
C2295 H2290 0.950 . S
C2295 C2297 1.327 . S
C2295 C2301 1.429 . S
C2296 C2288 1.574 . S
C2296 H2291 0.949 . S
C2296 C2302 1.368 . S
C2297 C2281 1.349 . S
C2297 H2289 0.950 . S
C2297 C2295 1.327 . S
C2298 C2286 1.349 . S
C2298 H2292 0.950 . S
C2298 C2299 1.327 . S
C2299 H2293 0.950 . S
C2299 C2298 1.327 . S
C2299 C2303 1.429 . S
C2300 C2283 1.574 . S
C2300 H2294 0.949 . S
C2300 C2304 1.368 . S
C2301 C2282 1.429 . S
C2301 C2295 1.429 . S
C2301 C2302 1.523 . S
C2302 C2283 1.368 . S
C2302 C2296 1.368 . S
C2302 C2301 1.523 . S
C2303 C2287 1.429 . S
C2303 C2299 1.429 . S
C2303 C2304 1.523 . S
C2304 C2288 1.368 . S
C2304 C2300 1.368 . S
C2304 C2303 1.523 . S
H2305 C2280 0.950 . S
H2306 C2282 0.950 . S
H2307 C2283 0.949 . S
H2308 C2285 0.950 . S
H2309 C2287 0.950 . S
C2310 C2311 1.349 . S
C2310 C2312 1.327 . S
C2310 H2335 0.950 . S
C2311 C2310 1.349 . S
C2311 C2327 1.349 . S
C2312 C2310 1.327 . S
C2312 C2331 1.429 . S
C2312 H2336 0.950 . S
C2313 C2330 1.574 . S
C2313 C2332 1.368 . S
C2313 H2337 0.949 . S
H2314 C2318 0.949 . S
C2315 C2316 1.349 . S
C2315 C2317 1.327 . S
C2315 H2338 0.950 . S
C2316 C2315 1.349 . S
C2316 C2328 1.349 . S
C2317 C2315 1.327 . S
C2317 C2333 1.429 . S
C2317 H2339 0.950 . S
C2318 H2314 0.949 . S
C2318 C2326 1.574 . S
C2318 C2334 1.368 . S
H2319 C2327 0.950 . S
H2320 C2325 0.950 . S
H2321 C2326 0.949 . S
H2322 C2328 0.950 . S
H2323 C2329 0.950 . S
H2324 C2330 0.949 . S
C2325 H2320 0.950 . S
C2325 C2327 1.327 . S
C2325 C2331 1.429 . S
C2326 C2318 1.574 . S
C2326 H2321 0.949 . S
C2326 C2332 1.368 . S
C2327 C2311 1.349 . S
C2327 H2319 0.950 . S
C2327 C2325 1.327 . S
C2328 C2316 1.349 . S
C2328 H2322 0.950 . S
C2328 C2329 1.327 . S
C2329 H2323 0.950 . S
C2329 C2328 1.327 . S
C2329 C2333 1.429 . S
C2330 C2313 1.574 . S
C2330 H2324 0.949 . S
C2330 C2334 1.368 . S
C2331 C2312 1.429 . S
C2331 C2325 1.429 . S
C2331 C2332 1.523 . S
C2332 C2313 1.368 . S
C2332 C2326 1.368 . S
C2332 C2331 1.523 . S
C2333 C2317 1.429 . S
C2333 C2329 1.429 . S
C2333 C2334 1.523 . S
C2334 C2318 1.368 . S
C2334 C2330 1.368 . S
C2334 C2333 1.523 . S
H2335 C2310 0.950 . S
H2336 C2312 0.950 . S
H2337 C2313 0.949 . S
H2338 C2315 0.950 . S
H2339 C2317 0.950 . S
C2340 C2341 1.349 . S
C2340 C2342 1.327 . S
C2340 H2365 0.950 . S
C2341 C2340 1.349 . S
C2341 C2357 1.349 . S
C2342 C2340 1.327 . S
C2342 C2361 1.429 . S
C2342 H2366 0.950 . S
C2343 C2360 1.574 . S
C2343 C2362 1.368 . S
C2343 H2367 0.949 . S
H2344 C2348 0.949 . S
C2345 C2346 1.349 . S
C2345 C2347 1.327 . S
C2345 H2368 0.950 . S
C2346 C2345 1.349 . S
C2346 C2358 1.349 . S
C2347 C2345 1.327 . S
C2347 C2363 1.429 . S
C2347 H2369 0.950 . S
C2348 H2344 0.949 . S
C2348 C2356 1.574 . S
C2348 C2364 1.368 . S
H2349 C2357 0.950 . S
H2350 C2355 0.950 . S
H2351 C2356 0.949 . S
H2352 C2358 0.950 . S
H2353 C2359 0.950 . S
H2354 C2360 0.949 . S
C2355 H2350 0.950 . S
C2355 C2357 1.327 . S
C2355 C2361 1.429 . S
C2356 C2348 1.574 . S
C2356 H2351 0.949 . S
C2356 C2362 1.368 . S
C2357 C2341 1.349 . S
C2357 H2349 0.950 . S
C2357 C2355 1.327 . S
C2358 C2346 1.349 . S
C2358 H2352 0.950 . S
C2358 C2359 1.327 . S
C2359 H2353 0.950 . S
C2359 C2358 1.327 . S
C2359 C2363 1.429 . S
C2360 C2343 1.574 . S
C2360 H2354 0.949 . S
C2360 C2364 1.368 . S
C2361 C2342 1.429 . S
C2361 C2355 1.429 . S
C2361 C2362 1.523 . S
C2362 C2343 1.368 . S
C2362 C2356 1.368 . S
C2362 C2361 1.523 . S
C2363 C2347 1.429 . S
C2363 C2359 1.429 . S
C2363 C2364 1.523 . S
C2364 C2348 1.368 . S
C2364 C2360 1.368 . S
C2364 C2363 1.523 . S
H2365 C2340 0.950 . S
H2366 C2342 0.950 . S
H2367 C2343 0.949 . S
H2368 C2345 0.950 . S
H2369 C2347 0.950 . S
C2370 C2371 1.349 . S
C2370 C2372 1.327 . S
C2370 H2395 0.950 . S
C2371 C2370 1.349 . S
C2371 C2387 1.349 . S
C2372 C2370 1.327 . S
C2372 C2391 1.429 . S
C2372 H2396 0.950 . S
C2373 C2390 1.574 . S
C2373 C2392 1.368 . S
C2373 H2397 0.949 . S
H2374 C2378 0.949 . S
C2375 C2376 1.349 . S
C2375 C2377 1.327 . S
C2375 H2398 0.950 . S
C2376 C2375 1.349 . S
C2376 C2388 1.349 . S
C2377 C2375 1.327 . S
C2377 C2393 1.429 . S
C2377 H2399 0.950 . S
C2378 H2374 0.949 . S
C2378 C2386 1.574 . S
C2378 C2394 1.368 . S
H2379 C2387 0.950 . S
H2380 C2385 0.950 . S
H2381 C2386 0.949 . S
H2382 C2388 0.950 . S
H2383 C2389 0.950 . S
H2384 C2390 0.949 . S
C2385 H2380 0.950 . S
C2385 C2387 1.327 . S
C2385 C2391 1.429 . S
C2386 C2378 1.574 . S
C2386 H2381 0.949 . S
C2386 C2392 1.368 . S
C2387 C2371 1.349 . S
C2387 H2379 0.950 . S
C2387 C2385 1.327 . S
C2388 C2376 1.349 . S
C2388 H2382 0.950 . S
C2388 C2389 1.327 . S
C2389 H2383 0.950 . S
C2389 C2388 1.327 . S
C2389 C2393 1.429 . S
C2390 C2373 1.574 . S
C2390 H2384 0.949 . S
C2390 C2394 1.368 . S
C2391 C2372 1.429 . S
C2391 C2385 1.429 . S
C2391 C2392 1.523 . S
C2392 C2373 1.368 . S
C2392 C2386 1.368 . S
C2392 C2391 1.523 . S
C2393 C2377 1.429 . S
C2393 C2389 1.429 . S
C2393 C2394 1.523 . S
C2394 C2378 1.368 . S
C2394 C2390 1.368 . S
C2394 C2393 1.523 . S
H2395 C2370 0.950 . S
H2396 C2372 0.950 . S
H2397 C2373 0.949 . S
H2398 C2375 0.950 . S
H2399 C2377 0.950 . S
C2400 C2401 1.349 . S
C2400 C2402 1.327 . S
C2400 H2425 0.950 . S
C2401 C2400 1.349 . S
C2401 C2417 1.349 . S
C2402 C2400 1.327 . S
C2402 C2421 1.429 . S
C2402 H2426 0.950 . S
C2403 C2420 1.574 . S
C2403 C2422 1.368 . S
C2403 H2427 0.949 . S
H2404 C2408 0.949 . S
C2405 C2406 1.349 . S
C2405 C2407 1.327 . S
C2405 H2428 0.950 . S
C2406 C2405 1.349 . S
C2406 C2418 1.349 . S
C2407 C2405 1.327 . S
C2407 C2423 1.429 . S
C2407 H2429 0.950 . S
C2408 H2404 0.949 . S
C2408 C2416 1.574 . S
C2408 C2424 1.368 . S
H2409 C2417 0.950 . S
H2410 C2415 0.950 . S
H2411 C2416 0.949 . S
H2412 C2418 0.950 . S
H2413 C2419 0.950 . S
H2414 C2420 0.949 . S
C2415 H2410 0.950 . S
C2415 C2417 1.327 . S
C2415 C2421 1.429 . S
C2416 C2408 1.574 . S
C2416 H2411 0.949 . S
C2416 C2422 1.368 . S
C2417 C2401 1.349 . S
C2417 H2409 0.950 . S
C2417 C2415 1.327 . S
C2418 C2406 1.349 . S
C2418 H2412 0.950 . S
C2418 C2419 1.327 . S
C2419 H2413 0.950 . S
C2419 C2418 1.327 . S
C2419 C2423 1.429 . S
C2420 C2403 1.574 . S
C2420 H2414 0.949 . S
C2420 C2424 1.368 . S
C2421 C2402 1.429 . S
C2421 C2415 1.429 . S
C2421 C2422 1.523 . S
C2422 C2403 1.368 . S
C2422 C2416 1.368 . S
C2422 C2421 1.523 . S
C2423 C2407 1.429 . S
C2423 C2419 1.429 . S
C2423 C2424 1.523 . S
C2424 C2408 1.368 . S
C2424 C2420 1.368 . S
C2424 C2423 1.523 . S
H2425 C2400 0.950 . S
H2426 C2402 0.950 . S
H2427 C2403 0.949 . S
H2428 C2405 0.950 . S
H2429 C2407 0.950 . S
C2430 C2431 1.349 . S
C2430 C2432 1.327 . S
C2430 H2455 0.950 . S
C2431 C2430 1.349 . S
C2431 C2447 1.349 . S
C2432 C2430 1.327 . S
C2432 C2451 1.429 . S
C2432 H2456 0.950 . S
C2433 C2450 1.574 . S
C2433 C2452 1.368 . S
C2433 H2457 0.949 . S
H2434 C2438 0.949 . S
C2435 C2436 1.349 . S
C2435 C2437 1.327 . S
C2435 H2458 0.950 . S
C2436 C2435 1.349 . S
C2436 C2448 1.349 . S
C2437 C2435 1.327 . S
C2437 C2453 1.429 . S
C2437 H2459 0.950 . S
C2438 H2434 0.949 . S
C2438 C2446 1.574 . S
C2438 C2454 1.368 . S
H2439 C2447 0.950 . S
H2440 C2445 0.950 . S
H2441 C2446 0.949 . S
H2442 C2448 0.950 . S
H2443 C2449 0.950 . S
H2444 C2450 0.949 . S
C2445 H2440 0.950 . S
C2445 C2447 1.327 . S
C2445 C2451 1.429 . S
C2446 C2438 1.574 . S
C2446 H2441 0.949 . S
C2446 C2452 1.368 . S
C2447 C2431 1.349 . S
C2447 H2439 0.950 . S
C2447 C2445 1.327 . S
C2448 C2436 1.349 . S
C2448 H2442 0.950 . S
C2448 C2449 1.327 . S
C2449 H2443 0.950 . S
C2449 C2448 1.327 . S
C2449 C2453 1.429 . S
C2450 C2433 1.574 . S
C2450 H2444 0.949 . S
C2450 C2454 1.368 . S
C2451 C2432 1.429 . S
C2451 C2445 1.429 . S
C2451 C2452 1.523 . S
C2452 C2433 1.368 . S
C2452 C2446 1.368 . S
C2452 C2451 1.523 . S
C2453 C2437 1.429 . S
C2453 C2449 1.429 . S
C2453 C2454 1.523 . S
C2454 C2438 1.368 . S
C2454 C2450 1.368 . S
C2454 C2453 1.523 . S
H2455 C2430 0.950 . S
H2456 C2432 0.950 . S
H2457 C2433 0.949 . S
H2458 C2435 0.950 . S
H2459 C2437 0.950 . S
C2460 C2461 1.349 . S
C2460 C2462 1.327 . S
C2460 H2485 0.950 . S
C2461 C2460 1.349 . S
C2461 C2477 1.349 . S
C2462 C2460 1.327 . S
C2462 C2481 1.429 . S
C2462 H2486 0.950 . S
C2463 C2480 1.574 . S
C2463 C2482 1.368 . S
C2463 H2487 0.949 . S
H2464 C2468 0.949 . S
C2465 C2466 1.349 . S
C2465 C2467 1.327 . S
C2465 H2488 0.950 . S
C2466 C2465 1.349 . S
C2466 C2478 1.349 . S
C2467 C2465 1.327 . S
C2467 C2483 1.429 . S
C2467 H2489 0.950 . S
C2468 H2464 0.949 . S
C2468 C2476 1.574 . S
C2468 C2484 1.368 . S
H2469 C2477 0.950 . S
H2470 C2475 0.950 . S
H2471 C2476 0.949 . S
H2472 C2478 0.950 . S
H2473 C2479 0.950 . S
H2474 C2480 0.949 . S
C2475 H2470 0.950 . S
C2475 C2477 1.327 . S
C2475 C2481 1.429 . S
C2476 C2468 1.574 . S
C2476 H2471 0.949 . S
C2476 C2482 1.368 . S
C2477 C2461 1.349 . S
C2477 H2469 0.950 . S
C2477 C2475 1.327 . S
C2478 C2466 1.349 . S
C2478 H2472 0.950 . S
C2478 C2479 1.327 . S
C2479 H2473 0.950 . S
C2479 C2478 1.327 . S
C2479 C2483 1.429 . S
C2480 C2463 1.574 . S
C2480 H2474 0.949 . S
C2480 C2484 1.368 . S
C2481 C2462 1.429 . S
C2481 C2475 1.429 . S
C2481 C2482 1.523 . S
C2482 C2463 1.368 . S
C2482 C2476 1.368 . S
C2482 C2481 1.523 . S
C2483 C2467 1.429 . S
C2483 C2479 1.429 . S
C2483 C2484 1.523 . S
C2484 C2468 1.368 . S
C2484 C2480 1.368 . S
C2484 C2483 1.523 . S
H2485 C2460 0.950 . S
H2486 C2462 0.950 . S
H2487 C2463 0.949 . S
H2488 C2465 0.950 . S
H2489 C2467 0.950 . S
C2490 C2491 1.349 . S
C2490 C2492 1.327 . S
C2490 H2515 0.950 . S
C2491 C2490 1.349 . S
C2491 C2507 1.349 . S
C2492 C2490 1.327 . S
C2492 C2511 1.429 . S
C2492 H2516 0.950 . S
C2493 C2510 1.574 . S
C2493 C2512 1.368 . S
C2493 H2517 0.949 . S
H2494 C2498 0.949 . S
C2495 C2496 1.349 . S
C2495 C2497 1.327 . S
C2495 H2518 0.950 . S
C2496 C2495 1.349 . S
C2496 C2508 1.349 . S
C2497 C2495 1.327 . S
C2497 C2513 1.429 . S
C2497 H2519 0.950 . S
C2498 H2494 0.949 . S
C2498 C2506 1.574 . S
C2498 C2514 1.368 . S
H2499 C2507 0.950 . S
H2500 C2505 0.950 . S
H2501 C2506 0.949 . S
H2502 C2508 0.950 . S
H2503 C2509 0.950 . S
H2504 C2510 0.949 . S
C2505 H2500 0.950 . S
C2505 C2507 1.327 . S
C2505 C2511 1.429 . S
C2506 C2498 1.574 . S
C2506 H2501 0.949 . S
C2506 C2512 1.368 . S
C2507 C2491 1.349 . S
C2507 H2499 0.950 . S
C2507 C2505 1.327 . S
C2508 C2496 1.349 . S
C2508 H2502 0.950 . S
C2508 C2509 1.327 . S
C2509 H2503 0.950 . S
C2509 C2508 1.327 . S
C2509 C2513 1.429 . S
C2510 C2493 1.574 . S
C2510 H2504 0.949 . S
C2510 C2514 1.368 . S
C2511 C2492 1.429 . S
C2511 C2505 1.429 . S
C2511 C2512 1.523 . S
C2512 C2493 1.368 . S
C2512 C2506 1.368 . S
C2512 C2511 1.523 . S
C2513 C2497 1.429 . S
C2513 C2509 1.429 . S
C2513 C2514 1.523 . S
C2514 C2498 1.368 . S
C2514 C2510 1.368 . S
C2514 C2513 1.523 . S
H2515 C2490 0.950 . S
H2516 C2492 0.950 . S
H2517 C2493 0.949 . S
H2518 C2495 0.950 . S
H2519 C2497 0.950 . S
C2520 C2521 1.349 . S
C2520 C2522 1.327 . S
C2520 H2545 0.950 . S
C2521 C2520 1.349 . S
C2521 C2537 1.349 . S
C2522 C2520 1.327 . S
C2522 C2541 1.429 . S
C2522 H2546 0.950 . S
C2523 C2540 1.574 . S
C2523 C2542 1.368 . S
C2523 H2547 0.949 . S
H2524 C2528 0.949 . S
C2525 C2526 1.349 . S
C2525 C2527 1.327 . S
C2525 H2548 0.950 . S
C2526 C2525 1.349 . S
C2526 C2538 1.349 . S
C2527 C2525 1.327 . S
C2527 C2543 1.429 . S
C2527 H2549 0.950 . S
C2528 H2524 0.949 . S
C2528 C2536 1.574 . S
C2528 C2544 1.368 . S
H2529 C2537 0.950 . S
H2530 C2535 0.950 . S
H2531 C2536 0.949 . S
H2532 C2538 0.950 . S
H2533 C2539 0.950 . S
H2534 C2540 0.949 . S
C2535 H2530 0.950 . S
C2535 C2537 1.327 . S
C2535 C2541 1.429 . S
C2536 C2528 1.574 . S
C2536 H2531 0.949 . S
C2536 C2542 1.368 . S
C2537 C2521 1.349 . S
C2537 H2529 0.950 . S
C2537 C2535 1.327 . S
C2538 C2526 1.349 . S
C2538 H2532 0.950 . S
C2538 C2539 1.327 . S
C2539 H2533 0.950 . S
C2539 C2538 1.327 . S
C2539 C2543 1.429 . S
C2540 C2523 1.574 . S
C2540 H2534 0.949 . S
C2540 C2544 1.368 . S
C2541 C2522 1.429 . S
C2541 C2535 1.429 . S
C2541 C2542 1.523 . S
C2542 C2523 1.368 . S
C2542 C2536 1.368 . S
C2542 C2541 1.523 . S
C2543 C2527 1.429 . S
C2543 C2539 1.429 . S
C2543 C2544 1.523 . S
C2544 C2528 1.368 . S
C2544 C2540 1.368 . S
C2544 C2543 1.523 . S
H2545 C2520 0.950 . S
H2546 C2522 0.950 . S
H2547 C2523 0.949 . S
H2548 C2525 0.950 . S
H2549 C2527 0.950 . S
C2550 C2551 1.349 . S
C2550 C2552 1.327 . S
C2550 H2575 0.950 . S
C2551 C2550 1.349 . S
C2551 C2567 1.349 . S
C2552 C2550 1.327 . S
C2552 C2571 1.429 . S
C2552 H2576 0.950 . S
C2553 C2570 1.574 . S
C2553 C2572 1.368 . S
C2553 H2577 0.949 . S
H2554 C2558 0.949 . S
C2555 C2556 1.349 . S
C2555 C2557 1.327 . S
C2555 H2578 0.950 . S
C2556 C2555 1.349 . S
C2556 C2568 1.349 . S
C2557 C2555 1.327 . S
C2557 C2573 1.429 . S
C2557 H2579 0.950 . S
C2558 H2554 0.949 . S
C2558 C2566 1.574 . S
C2558 C2574 1.368 . S
H2559 C2567 0.950 . S
H2560 C2565 0.950 . S
H2561 C2566 0.949 . S
H2562 C2568 0.950 . S
H2563 C2569 0.950 . S
H2564 C2570 0.949 . S
C2565 H2560 0.950 . S
C2565 C2567 1.327 . S
C2565 C2571 1.429 . S
C2566 C2558 1.574 . S
C2566 H2561 0.949 . S
C2566 C2572 1.368 . S
C2567 C2551 1.349 . S
C2567 H2559 0.950 . S
C2567 C2565 1.327 . S
C2568 C2556 1.349 . S
C2568 H2562 0.950 . S
C2568 C2569 1.327 . S
C2569 H2563 0.950 . S
C2569 C2568 1.327 . S
C2569 C2573 1.429 . S
C2570 C2553 1.574 . S
C2570 H2564 0.949 . S
C2570 C2574 1.368 . S
C2571 C2552 1.429 . S
C2571 C2565 1.429 . S
C2571 C2572 1.523 . S
C2572 C2553 1.368 . S
C2572 C2566 1.368 . S
C2572 C2571 1.523 . S
C2573 C2557 1.429 . S
C2573 C2569 1.429 . S
C2573 C2574 1.523 . S
C2574 C2558 1.368 . S
C2574 C2570 1.368 . S
C2574 C2573 1.523 . S
H2575 C2550 0.950 . S
H2576 C2552 0.950 . S
H2577 C2553 0.949 . S
H2578 C2555 0.950 . S
H2579 C2557 0.950 . S
C2580 C2581 1.349 . S
C2580 C2582 1.327 . S
C2580 H2605 0.950 . S
C2581 C2580 1.349 . S
C2581 C2597 1.349 . S
C2582 C2580 1.327 . S
C2582 C2601 1.429 . S
C2582 H2606 0.950 . S
C2583 C2600 1.574 . S
C2583 C2602 1.368 . S
C2583 H2607 0.949 . S
H2584 C2588 0.949 . S
C2585 C2586 1.349 . S
C2585 C2587 1.327 . S
C2585 H2608 0.950 1_556 S
C2586 C2585 1.349 . S
C2586 C2598 1.349 . S
C2587 C2585 1.327 . S
C2587 C2603 1.429 . S
C2587 H2609 0.950 . S
C2588 H2584 0.949 . S
C2588 C2596 1.574 . S
C2588 C2604 1.368 . S
H2589 C2597 0.950 . S
H2590 C2595 0.950 . S
H2591 C2596 0.949 . S
H2592 C2598 0.950 . S
H2593 C2599 0.950 . S
H2594 C2600 0.949 . S
C2595 H2590 0.950 . S
C2595 C2597 1.327 . S
C2595 C2601 1.429 . S
C2596 C2588 1.574 . S
C2596 H2591 0.949 . S
C2596 C2602 1.368 . S
C2597 C2581 1.349 . S
C2597 H2589 0.950 . S
C2597 C2595 1.327 . S
C2598 C2586 1.349 . S
C2598 H2592 0.950 . S
C2598 C2599 1.327 . S
C2599 H2593 0.950 . S
C2599 C2598 1.327 . S
C2599 C2603 1.429 . S
C2600 C2583 1.574 . S
C2600 H2594 0.949 . S
C2600 C2604 1.368 . S
C2601 C2582 1.429 . S
C2601 C2595 1.429 . S
C2601 C2602 1.523 . S
C2602 C2583 1.368 . S
C2602 C2596 1.368 . S
C2602 C2601 1.523 . S
C2603 C2587 1.429 . S
C2603 C2599 1.429 . S
C2603 C2604 1.523 . S
C2604 C2588 1.368 . S
C2604 C2600 1.368 . S
C2604 C2603 1.523 . S
H2605 C2580 0.950 . S
H2606 C2582 0.950 . S
H2607 C2583 0.949 . S
H2608 C2585 0.950 1_554 S
H2609 C2587 0.950 . S
C2610 C2611 1.349 . S
C2610 C2612 1.327 . S
C2610 H2635 0.950 . S
C2611 C2610 1.349 . S
C2611 C2627 1.349 . S
C2612 C2610 1.327 . S
C2612 C2631 1.429 . S
C2612 H2636 0.950 . S
C2613 C2630 1.574 . S
C2613 C2632 1.368 . S
C2613 H2637 0.949 . S
H2614 C2618 0.949 . S
C2615 C2616 1.349 . S
C2615 C2617 1.327 . S
C2615 H2638 0.950 . S
C2616 C2615 1.349 . S
C2616 C2628 1.349 . S
C2617 C2615 1.327 . S
C2617 C2633 1.429 . S
C2617 H2639 0.950 . S
C2618 H2614 0.949 . S
C2618 C2626 1.574 . S
C2618 C2634 1.368 . S
H2619 C2627 0.950 . S
H2620 C2625 0.950 . S
H2621 C2626 0.949 . S
H2622 C2628 0.950 . S
H2623 C2629 0.950 . S
H2624 C2630 0.949 . S
C2625 H2620 0.950 . S
C2625 C2627 1.327 . S
C2625 C2631 1.429 . S
C2626 C2618 1.574 . S
C2626 H2621 0.949 . S
C2626 C2632 1.368 . S
C2627 C2611 1.349 . S
C2627 H2619 0.950 . S
C2627 C2625 1.327 . S
C2628 C2616 1.349 . S
C2628 H2622 0.950 . S
C2628 C2629 1.327 . S
C2629 H2623 0.950 . S
C2629 C2628 1.327 . S
C2629 C2633 1.429 . S
C2630 C2613 1.574 . S
C2630 H2624 0.949 . S
C2630 C2634 1.368 . S
C2631 C2612 1.429 . S
C2631 C2625 1.429 . S
C2631 C2632 1.523 . S
C2632 C2613 1.368 . S
C2632 C2626 1.368 . S
C2632 C2631 1.523 . S
C2633 C2617 1.429 . S
C2633 C2629 1.429 . S
C2633 C2634 1.523 . S
C2634 C2618 1.368 . S
C2634 C2630 1.368 . S
C2634 C2633 1.523 . S
H2635 C2610 0.950 . S
H2636 C2612 0.950 . S
H2637 C2613 0.949 . S
H2638 C2615 0.950 . S
H2639 C2617 0.950 . S
C2640 C2641 1.349 . S
C2640 C2642 1.327 . S
C2640 H2665 0.950 . S
C2641 C2640 1.349 . S
C2641 C2657 1.349 . S
C2642 C2640 1.327 . S
C2642 C2661 1.429 . S
C2642 H2666 0.950 . S
C2643 C2660 1.574 . S
C2643 C2662 1.368 . S
C2643 H2667 0.949 . S
H2644 C2648 0.949 . S
C2645 C2646 1.349 . S
C2645 C2647 1.327 . S
C2645 H2668 0.950 1_545 S
C2646 C2645 1.349 . S
C2646 C2658 1.349 . S
C2647 C2645 1.327 . S
C2647 C2663 1.429 . S
C2647 H2669 0.950 1_545 S
C2648 H2644 0.949 . S
C2648 C2656 1.574 . S
C2648 C2664 1.368 . S
H2649 C2657 0.950 . S
H2650 C2655 0.950 . S
H2651 C2656 0.949 . S
H2652 C2658 0.950 . S
H2653 C2659 0.950 . S
H2654 C2660 0.905 1_565 S
C2655 H2650 0.950 . S
C2655 C2657 1.327 . S
C2655 C2661 1.429 . S
C2656 C2648 1.574 . S
C2656 H2651 0.949 . S
C2656 C2662 1.368 . S
C2657 C2641 1.349 . S
C2657 H2649 0.950 . S
C2657 C2655 1.327 . S
C2658 C2646 1.349 . S
C2658 H2652 0.950 . S
C2658 C2659 1.327 . S
C2659 H2653 0.950 . S
C2659 C2658 1.327 . S
C2659 C2663 1.429 . S
C2660 C2643 1.574 . S
C2660 H2654 0.905 1_545 S
C2660 C2664 1.368 . S
C2661 C2642 1.429 . S
C2661 C2655 1.429 . S
C2661 C2662 1.523 . S
C2662 C2643 1.368 . S
C2662 C2656 1.368 . S
C2662 C2661 1.523 . S
C2663 C2647 1.429 . S
C2663 C2659 1.429 . S
C2663 C2664 1.523 . S
C2664 C2648 1.368 . S
C2664 C2660 1.368 . S
C2664 C2663 1.523 . S
H2665 C2640 0.950 . S
H2666 C2642 0.950 . S
H2667 C2643 0.949 . S
H2668 C2645 0.950 1_565 S
H2669 C2647 0.950 1_565 S
C2670 C2671 1.349 . S
C2670 C2672 1.327 . S
C2670 H2695 0.950 . S
C2671 C2670 1.349 . S
C2671 C2687 1.349 . S
C2672 C2670 1.327 . S
C2672 C2691 1.429 . S
C2672 H2696 0.950 . S
C2673 C2690 1.574 . S
C2673 C2692 1.368 . S
C2673 H2697 0.949 . S
H2674 C2678 0.949 . S
C2675 C2676 1.349 . S
C2675 C2677 1.327 . S
C2675 H2698 0.950 . S
C2676 C2675 1.349 . S
C2676 C2688 1.349 . S
C2677 C2675 1.327 . S
C2677 C2693 1.429 . S
C2677 H2699 0.950 . S
C2678 H2674 0.949 . S
C2678 C2686 1.574 . S
C2678 C2694 1.368 . S
H2679 C2687 0.950 . S
H2680 C2685 0.950 . S
H2681 C2686 0.949 . S
H2682 C2688 0.950 . S
H2683 C2689 0.950 . S
H2684 C2690 0.949 . S
C2685 H2680 0.950 . S
C2685 C2687 1.327 . S
C2685 C2691 1.429 . S
C2686 C2678 1.574 . S
C2686 H2681 0.949 . S
C2686 C2692 1.368 . S
C2687 C2671 1.349 . S
C2687 H2679 0.950 . S
C2687 C2685 1.327 . S
C2688 C2676 1.349 . S
C2688 H2682 0.950 . S
C2688 C2689 1.327 . S
C2689 H2683 0.950 . S
C2689 C2688 1.327 . S
C2689 C2693 1.429 . S
C2690 C2673 1.574 . S
C2690 H2684 0.949 . S
C2690 C2694 1.368 . S
C2691 C2672 1.429 . S
C2691 C2685 1.429 . S
C2691 C2692 1.523 . S
C2692 C2673 1.368 . S
C2692 C2686 1.368 . S
C2692 C2691 1.523 . S
C2693 C2677 1.429 . S
C2693 C2689 1.429 . S
C2693 C2694 1.523 . S
C2694 C2678 1.368 . S
C2694 C2690 1.368 . S
C2694 C2693 1.523 . S
H2695 C2670 0.950 . S
H2696 C2672 0.950 . S
H2697 C2673 0.949 . S
H2698 C2675 0.950 . S
H2699 C2677 0.950 . S
C2700 C2701 1.349 . S
C2700 C2702 1.327 . S
C2700 H2725 0.950 1_545 S
C2701 C2700 1.349 . S
C2701 C2717 1.349 . S
C2702 C2700 1.327 . S
C2702 C2721 1.429 . S
C2702 H2726 0.950 1_545 S
C2703 C2720 1.574 . S
C2703 C2722 1.368 . S
C2703 H2727 0.949 . S
H2704 C2708 0.985 . S
C2705 C2706 1.349 . S
C2705 C2707 1.327 . S
C2705 H2728 0.950 . S
C2706 C2705 1.349 . S
C2706 C2718 1.349 . S
C2707 C2705 1.327 . S
C2707 C2723 1.429 . S
C2707 H2729 0.950 . S
C2708 H2704 0.985 . S
C2708 C2716 1.574 . S
C2708 C2724 1.368 . S
H2709 C2717 0.950 . S
H2710 C2715 0.950 . S
H2711 C2716 0.949 1_565 S
H2712 C2718 0.950 . S
H2713 C2719 0.950 . S
H2714 C2720 0.949 . S
C2715 H2710 0.950 . S
C2715 C2717 1.327 . S
C2715 C2721 1.429 . S
C2716 C2708 1.574 . S
C2716 H2711 0.949 1_545 S
C2716 C2722 1.368 . S
C2717 C2701 1.349 . S
C2717 H2709 0.950 . S
C2717 C2715 1.327 . S
C2718 C2706 1.349 . S
C2718 H2712 0.950 . S
C2718 C2719 1.327 . S
C2719 H2713 0.950 . S
C2719 C2718 1.327 . S
C2719 C2723 1.429 . S
C2720 C2703 1.574 . S
C2720 H2714 0.949 . S
C2720 C2724 1.368 . S
C2721 C2702 1.429 . S
C2721 C2715 1.429 . S
C2721 C2722 1.523 . S
C2722 C2703 1.368 . S
C2722 C2716 1.368 . S
C2722 C2721 1.523 . S
C2723 C2707 1.429 . S
C2723 C2719 1.429 . S
C2723 C2724 1.523 . S
C2724 C2708 1.368 . S
C2724 C2720 1.368 . S
C2724 C2723 1.523 . S
H2725 C2700 0.950 1_565 S
H2726 C2702 0.950 1_565 S
H2727 C2703 0.949 . S
H2728 C2705 0.950 . S
H2729 C2707 0.950 . S
C2730 C2731 1.349 . S
C2730 C2732 1.327 . S
C2730 H2755 0.950 . S
C2731 C2730 1.349 . S
C2731 C2747 1.349 . S
C2732 C2730 1.327 . S
C2732 C2751 1.429 . S
C2732 H2756 0.950 . S
C2733 C2750 1.574 . S
C2733 C2752 1.368 . S
C2733 H2757 0.949 . S
H2734 C2738 0.949 . S
C2735 C2736 1.349 . S
C2735 C2737 1.327 . S
C2735 H2758 0.950 . S
C2736 C2735 1.349 . S
C2736 C2748 1.349 . S
C2737 C2735 1.327 . S
C2737 C2753 1.429 . S
C2737 H2759 0.950 . S
C2738 H2734 0.949 . S
C2738 C2746 1.574 . S
C2738 C2754 1.368 . S
H2739 C2747 0.950 . S
H2740 C2745 0.950 . S
H2741 C2746 0.949 . S
H2742 C2748 0.950 . S
H2743 C2749 0.950 . S
H2744 C2750 0.949 . S
C2745 H2740 0.950 . S
C2745 C2747 1.327 . S
C2745 C2751 1.429 . S
C2746 C2738 1.574 . S
C2746 H2741 0.949 . S
C2746 C2752 1.368 . S
C2747 C2731 1.349 . S
C2747 H2739 0.950 . S
C2747 C2745 1.327 . S
C2748 C2736 1.349 . S
C2748 H2742 0.950 . S
C2748 C2749 1.327 . S
C2749 H2743 0.950 . S
C2749 C2748 1.327 . S
C2749 C2753 1.429 . S
C2750 C2733 1.574 . S
C2750 H2744 0.949 . S
C2750 C2754 1.368 . S
C2751 C2732 1.429 . S
C2751 C2745 1.429 . S
C2751 C2752 1.523 . S
C2752 C2733 1.368 . S
C2752 C2746 1.368 . S
C2752 C2751 1.523 . S
C2753 C2737 1.429 . S
C2753 C2749 1.429 . S
C2753 C2754 1.523 . S
C2754 C2738 1.368 . S
C2754 C2750 1.368 . S
C2754 C2753 1.523 . S
H2755 C2730 0.950 . S
H2756 C2732 0.950 . S
H2757 C2733 0.949 . S
H2758 C2735 0.950 . S
H2759 C2737 0.950 . S
C2760 C2761 1.349 . S
C2760 C2762 1.327 . S
C2760 H2785 0.950 . S
C2761 C2760 1.349 . S
C2761 C2777 1.349 . S
C2762 C2760 1.327 . S
C2762 C2781 1.429 . S
C2762 H2786 0.950 . S
C2763 C2780 1.574 . S
C2763 C2782 1.368 . S
C2763 H2787 0.925 1_545 S
H2764 C2768 0.949 . S
C2765 C2766 1.349 . S
C2765 C2767 1.327 . S
C2765 H2788 0.924 1_545 S
C2766 C2765 1.349 . S
C2766 C2778 1.349 . S
C2767 C2765 1.327 . S
C2767 C2783 1.429 . S
C2767 H2789 0.889 1_545 S
C2768 H2764 0.949 . S
C2768 C2776 1.574 . S
C2768 C2784 1.368 . S
H2769 C2777 0.950 . S
H2770 C2775 0.946 . S
H2771 C2776 0.949 . S
H2772 C2778 0.950 . S
H2773 C2779 0.950 . S
H2774 C2780 0.910 1_565 S
C2775 H2770 0.946 . S
C2775 C2777 1.327 . S
C2775 C2781 1.429 . S
C2776 C2768 1.574 . S
C2776 H2771 0.949 . S
C2776 C2782 1.368 . S
C2777 C2761 1.349 . S
C2777 H2769 0.950 . S
C2777 C2775 1.327 . S
C2778 C2766 1.349 . S
C2778 H2772 0.950 . S
C2778 C2779 1.327 . S
C2779 H2773 0.950 . S
C2779 C2778 1.327 . S
C2779 C2783 1.429 . S
C2780 C2763 1.574 . S
C2780 H2774 0.910 1_545 S
C2780 C2784 1.368 . S
C2781 C2762 1.429 . S
C2781 C2775 1.429 . S
C2781 C2782 1.523 . S
C2782 C2763 1.368 . S
C2782 C2776 1.368 . S
C2782 C2781 1.523 . S
C2783 C2767 1.429 . S
C2783 C2779 1.429 . S
C2783 C2784 1.523 . S
C2784 C2768 1.368 . S
C2784 C2780 1.368 . S
C2784 C2783 1.523 . S
H2785 C2760 0.950 . S
H2786 C2762 0.950 . S
H2787 C2763 0.925 1_565 S
H2788 C2765 0.924 1_565 S
H2789 C2767 0.889 1_565 S
C2790 C2791 1.349 . S
C2790 C2792 1.327 . S
C2790 H2815 0.950 . S
C2791 C2790 1.349 . S
C2791 C2807 1.349 . S
C2792 C2790 1.327 . S
C2792 C2811 1.429 . S
C2792 H2816 0.950 . S
C2793 C2810 1.574 . S
C2793 C2812 1.368 . S
C2793 H2817 0.949 . S
H2794 C2798 0.949 . S
C2795 C2796 1.349 . S
C2795 C2797 1.327 . S
C2795 H2818 0.950 . S
C2796 C2795 1.349 . S
C2796 C2808 1.349 . S
C2797 C2795 1.327 . S
C2797 C2813 1.429 . S
C2797 H2819 0.950 . S
C2798 H2794 0.949 . S
C2798 C2806 1.574 . S
C2798 C2814 1.368 . S
H2799 C2807 0.950 . S
H2800 C2805 0.950 . S
H2801 C2806 0.949 . S
H2802 C2808 0.950 . S
H2803 C2809 0.950 . S
H2804 C2810 0.949 . S
C2805 H2800 0.950 . S
C2805 C2807 1.327 . S
C2805 C2811 1.429 . S
C2806 C2798 1.574 . S
C2806 H2801 0.949 . S
C2806 C2812 1.368 . S
C2807 C2791 1.349 . S
C2807 H2799 0.950 . S
C2807 C2805 1.327 . S
C2808 C2796 1.349 . S
C2808 H2802 0.950 . S
C2808 C2809 1.327 . S
C2809 H2803 0.950 . S
C2809 C2808 1.327 . S
C2809 C2813 1.429 . S
C2810 C2793 1.574 . S
C2810 H2804 0.949 . S
C2810 C2814 1.368 . S
C2811 C2792 1.429 . S
C2811 C2805 1.429 . S
C2811 C2812 1.523 . S
C2812 C2793 1.368 . S
C2812 C2806 1.368 . S
C2812 C2811 1.523 . S
C2813 C2797 1.429 . S
C2813 C2809 1.429 . S
C2813 C2814 1.523 . S
C2814 C2798 1.368 . S
C2814 C2810 1.368 . S
C2814 C2813 1.523 . S
H2815 C2790 0.950 . S
H2816 C2792 0.950 . S
H2817 C2793 0.949 . S
H2818 C2795 0.950 . S
H2819 C2797 0.950 . S
C2820 C2821 1.349 1_565 S
C2820 C2822 1.327 . S
C2820 H2845 0.950 . S
C2821 C2820 1.349 1_545 S
C2821 C2837 1.349 . S
C2822 C2820 1.327 . S
C2822 C2841 1.429 1_565 S
C2822 H2846 0.950 . S
C2823 C2840 1.574 . S
C2823 C2842 1.368 . S
C2823 H2847 0.949 . S
H2824 C2828 0.949 . S
C2825 C2826 1.349 . S
C2825 C2827 1.327 . S
C2825 H2848 0.950 . S
C2826 C2825 1.349 . S
C2826 C2838 1.349 1_545 S
C2827 C2825 1.327 . S
C2827 C2843 1.429 . S
C2827 H2849 0.950 . S
C2828 H2824 0.949 . S
C2828 C2836 1.574 . S
C2828 C2844 1.368 1_565 S
H2829 C2837 0.950 . S
H2830 C2835 0.950 . S
H2831 C2836 0.949 . S
H2832 C2838 0.950 . S
H2833 C2839 0.950 . S
H2834 C2840 0.949 . S
C2835 H2830 0.950 . S
C2835 C2837 1.327 . S
C2835 C2841 1.429 . S
C2836 C2828 1.574 . S
C2836 H2831 0.949 . S
C2836 C2842 1.368 1_565 S
C2837 C2821 1.349 . S
C2837 H2829 0.950 . S
C2837 C2835 1.327 . S
C2838 C2826 1.349 1_565 S
C2838 H2832 0.950 . S
C2838 C2839 1.327 . S
C2839 H2833 0.950 . S
C2839 C2838 1.327 . S
C2839 C2843 1.429 1_565 S
C2840 C2823 1.574 . S
C2840 H2834 0.949 . S
C2840 C2844 1.368 . S
C2841 C2822 1.429 1_545 S
C2841 C2835 1.429 . S
C2841 C2842 1.523 . S
C2842 C2823 1.368 . S
C2842 C2836 1.368 1_545 S
C2842 C2841 1.523 . S
C2843 C2827 1.429 . S
C2843 C2839 1.429 1_545 S
C2843 C2844 1.523 . S
C2844 C2828 1.368 1_545 S
C2844 C2840 1.368 . S
C2844 C2843 1.523 . S
H2845 C2820 0.950 . S
H2846 C2822 0.950 . S
H2847 C2823 0.949 . S
H2848 C2825 0.950 . S
H2849 C2827 0.950 . S
C2850 C2851 1.349 . S
C2850 C2852 1.327 . S
C2850 H2875 0.950 . S
C2851 C2850 1.349 . S
C2851 C2867 1.349 . S
C2852 C2850 1.327 . S
C2852 C2871 1.429 . S
C2852 H2876 0.950 . S
C2853 C2870 1.574 . S
C2853 C2872 1.368 . S
C2853 H2877 0.949 . S
H2854 C2858 0.949 . S
C2855 C2856 1.349 . S
C2855 C2857 1.327 . S
C2855 H2878 0.950 . S
C2856 C2855 1.349 . S
C2856 C2868 1.349 . S
C2857 C2855 1.327 . S
C2857 C2873 1.429 . S
C2857 H2879 0.950 . S
C2858 H2854 0.949 . S
C2858 C2866 1.574 . S
C2858 C2874 1.368 . S
H2859 C2867 0.950 . S
H2860 C2865 0.950 . S
H2861 C2866 0.949 . S
H2862 C2868 0.950 . S
H2863 C2869 0.950 . S
H2864 C2870 0.949 . S
C2865 H2860 0.950 . S
C2865 C2867 1.327 . S
C2865 C2871 1.429 . S
C2866 C2858 1.574 . S
C2866 H2861 0.949 . S
C2866 C2872 1.368 . S
C2867 C2851 1.349 . S
C2867 H2859 0.950 . S
C2867 C2865 1.327 . S
C2868 C2856 1.349 . S
C2868 H2862 0.950 . S
C2868 C2869 1.327 . S
C2869 H2863 0.950 . S
C2869 C2868 1.327 . S
C2869 C2873 1.429 . S
C2870 C2853 1.574 . S
C2870 H2864 0.949 . S
C2870 C2874 1.368 . S
C2871 C2852 1.429 . S
C2871 C2865 1.429 . S
C2871 C2872 1.523 . S
C2872 C2853 1.368 . S
C2872 C2866 1.368 . S
C2872 C2871 1.523 . S
C2873 C2857 1.429 . S
C2873 C2869 1.429 . S
C2873 C2874 1.523 . S
C2874 C2858 1.368 . S
C2874 C2870 1.368 . S
C2874 C2873 1.523 . S
H2875 C2850 0.950 . S
H2876 C2852 0.950 . S
H2877 C2853 0.949 . S
H2878 C2855 0.950 . S
H2879 C2857 0.950 . S
C2880 C2881 1.349 . S
C2880 C2882 1.327 . S
C2880 H2905 0.950 . S
C2881 C2880 1.349 . S
C2881 C2897 1.349 . S
C2882 C2880 1.327 . S
C2882 C2901 1.429 . S
C2882 H2906 0.950 . S
C2883 C2900 1.574 . S
C2883 C2902 1.368 . S
C2883 H2907 0.949 . S
H2884 C2888 0.949 . S
C2885 C2886 1.349 . S
C2885 C2887 1.327 . S
C2885 H2908 0.950 1_554 S
C2886 C2885 1.349 . S
C2886 C2898 1.349 . S
C2887 C2885 1.327 . S
C2887 C2903 1.429 . S
C2887 H2909 0.950 1_554 S
C2888 H2884 0.949 . S
C2888 C2896 1.574 . S
C2888 C2904 1.368 . S
H2889 C2897 0.950 . S
H2890 C2895 0.950 . S
H2891 C2896 0.949 . S
H2892 C2898 0.950 . S
H2893 C2899 0.950 . S
H2894 C2900 0.949 . S
C2895 H2890 0.950 . S
C2895 C2897 1.327 . S
C2895 C2901 1.429 . S
C2896 C2888 1.574 . S
C2896 H2891 0.949 . S
C2896 C2902 1.368 . S
C2897 C2881 1.349 . S
C2897 H2889 0.950 . S
C2897 C2895 1.327 . S
C2898 C2886 1.349 . S
C2898 H2892 0.950 . S
C2898 C2899 1.327 . S
C2899 H2893 0.950 . S
C2899 C2898 1.327 . S
C2899 C2903 1.429 . S
C2900 C2883 1.574 . S
C2900 H2894 0.949 . S
C2900 C2904 1.368 . S
C2901 C2882 1.429 . S
C2901 C2895 1.429 . S
C2901 C2902 1.523 . S
C2902 C2883 1.368 . S
C2902 C2896 1.368 . S
C2902 C2901 1.523 . S
C2903 C2887 1.429 . S
C2903 C2899 1.429 . S
C2903 C2904 1.523 . S
C2904 C2888 1.368 . S
C2904 C2900 1.368 . S
C2904 C2903 1.523 . S
H2905 C2880 0.950 . S
H2906 C2882 0.950 . S
H2907 C2883 0.949 . S
H2908 C2885 0.950 1_556 S
H2909 C2887 0.950 1_556 S
C2910 C2911 1.349 . S
C2910 C2912 1.327 . S
C2910 H2935 0.950 . S
C2911 C2910 1.349 . S
C2911 C2927 1.349 . S
C2912 C2910 1.327 . S
C2912 C2931 1.429 . S
C2912 H2936 0.950 . S
C2913 C2930 1.574 . S
C2913 C2932 1.368 . S
C2913 H2937 0.949 . S
H2914 C2918 0.949 . S
C2915 C2916 1.349 . S
C2915 C2917 1.327 . S
C2915 H2938 0.950 . S
C2916 C2915 1.349 . S
C2916 C2928 1.349 . S
C2917 C2915 1.327 . S
C2917 C2933 1.429 . S
C2917 H2939 0.950 . S
C2918 H2914 0.949 . S
C2918 C2926 1.574 . S
C2918 C2934 1.368 . S
H2919 C2927 0.950 . S
H2920 C2925 0.950 . S
H2921 C2926 0.949 . S
H2922 C2928 0.950 . S
H2923 C2929 0.950 . S
H2924 C2930 0.949 . S
C2925 H2920 0.950 . S
C2925 C2927 1.327 . S
C2925 C2931 1.429 . S
C2926 C2918 1.574 . S
C2926 H2921 0.949 . S
C2926 C2932 1.368 . S
C2927 C2911 1.349 . S
C2927 H2919 0.950 . S
C2927 C2925 1.327 . S
C2928 C2916 1.349 . S
C2928 H2922 0.950 . S
C2928 C2929 1.327 . S
C2929 H2923 0.950 . S
C2929 C2928 1.327 . S
C2929 C2933 1.429 . S
C2930 C2913 1.574 . S
C2930 H2924 0.949 . S
C2930 C2934 1.368 . S
C2931 C2912 1.429 . S
C2931 C2925 1.429 . S
C2931 C2932 1.523 . S
C2932 C2913 1.368 . S
C2932 C2926 1.368 . S
C2932 C2931 1.523 . S
C2933 C2917 1.429 . S
C2933 C2929 1.429 . S
C2933 C2934 1.523 . S
C2934 C2918 1.368 . S
C2934 C2930 1.368 . S
C2934 C2933 1.523 . S
H2935 C2910 0.950 . S
H2936 C2912 0.950 . S
H2937 C2913 0.949 . S
H2938 C2915 0.950 . S
H2939 C2917 0.950 . S
C2940 C2941 1.349 . S
C2940 C2942 1.327 . S
C2940 H2965 0.950 . S
C2941 C2940 1.349 . S
C2941 C2957 1.349 . S
C2942 C2940 1.327 . S
C2942 C2961 1.429 . S
C2942 H2966 0.950 . S
C2943 C2960 1.574 . S
C2943 C2962 1.368 . S
C2943 H2967 0.949 . S
H2944 C2948 0.949 . S
C2945 C2946 1.349 . S
C2945 C2947 1.327 . S
C2945 H2968 0.950 . S
C2946 C2945 1.349 . S
C2946 C2958 1.349 . S
C2947 C2945 1.327 . S
C2947 C2963 1.429 . S
C2947 H2969 0.950 . S
C2948 H2944 0.949 . S
C2948 C2956 1.574 . S
C2948 C2964 1.368 . S
H2949 C2957 0.950 . S
H2950 C2955 0.950 . S
H2951 C2956 0.949 . S
H2952 C2958 0.950 . S
H2953 C2959 0.950 . S
H2954 C2960 0.949 . S
C2955 H2950 0.950 . S
C2955 C2957 1.327 . S
C2955 C2961 1.429 . S
C2956 C2948 1.574 . S
C2956 H2951 0.949 . S
C2956 C2962 1.368 . S
C2957 C2941 1.349 . S
C2957 H2949 0.950 . S
C2957 C2955 1.327 . S
C2958 C2946 1.349 . S
C2958 H2952 0.950 . S
C2958 C2959 1.327 . S
C2959 H2953 0.950 . S
C2959 C2958 1.327 . S
C2959 C2963 1.429 . S
C2960 C2943 1.574 . S
C2960 H2954 0.949 . S
C2960 C2964 1.368 . S
C2961 C2942 1.429 . S
C2961 C2955 1.429 . S
C2961 C2962 1.523 . S
C2962 C2943 1.368 . S
C2962 C2956 1.368 . S
C2962 C2961 1.523 . S
C2963 C2947 1.429 . S
C2963 C2959 1.429 . S
C2963 C2964 1.523 . S
C2964 C2948 1.368 . S
C2964 C2960 1.368 . S
C2964 C2963 1.523 . S
H2965 C2940 0.950 . S
H2966 C2942 0.950 . S
H2967 C2943 0.949 . S
H2968 C2945 0.950 . S
H2969 C2947 0.950 . S
C2970 C2971 1.349 . S
C2970 C2972 1.327 . S
C2970 H2995 0.950 . S
C2971 C2970 1.349 . S
C2971 C2987 1.349 . S
C2972 C2970 1.327 . S
C2972 C2991 1.429 . S
C2972 H2996 0.950 . S
C2973 C2990 1.574 . S
C2973 C2992 1.368 . S
C2973 H2997 0.949 . S
H2974 C2978 0.949 . S
C2975 C2976 1.349 . S
C2975 C2977 1.327 . S
C2975 H2998 0.950 . S
C2976 C2975 1.349 . S
C2976 C2988 1.349 . S
C2977 C2975 1.327 . S
C2977 C2993 1.429 . S
C2977 H2999 0.950 . S
C2978 H2974 0.949 . S
C2978 C2986 1.574 . S
C2978 C2994 1.368 . S
H2979 C2987 0.950 . S
H2980 C2985 0.950 . S
H2981 C2986 0.949 . S
H2982 C2988 0.950 . S
H2983 C2989 0.950 . S
H2984 C2990 0.949 . S
C2985 H2980 0.950 . S
C2985 C2987 1.327 . S
C2985 C2991 1.429 . S
C2986 C2978 1.574 . S
C2986 H2981 0.949 . S
C2986 C2992 1.368 . S
C2987 C2971 1.349 . S
C2987 H2979 0.950 . S
C2987 C2985 1.327 . S
C2988 C2976 1.349 . S
C2988 H2982 0.950 . S
C2988 C2989 1.327 . S
C2989 H2983 0.950 . S
C2989 C2988 1.327 . S
C2989 C2993 1.429 . S
C2990 C2973 1.574 . S
C2990 H2984 0.949 . S
C2990 C2994 1.368 . S
C2991 C2972 1.429 . S
C2991 C2985 1.429 . S
C2991 C2992 1.523 . S
C2992 C2973 1.368 . S
C2992 C2986 1.368 . S
C2992 C2991 1.523 . S
C2993 C2977 1.429 . S
C2993 C2989 1.429 . S
C2993 C2994 1.523 . S
C2994 C2978 1.368 . S
C2994 C2990 1.368 . S
C2994 C2993 1.523 . S
H2995 C2970 0.950 . S
H2996 C2972 0.950 . S
H2997 C2973 0.949 . S
H2998 C2975 0.950 . S
H2999 C2977 0.950 . S
C3000 C3001 1.349 1_565 S
C3000 C3002 1.327 . S
C3000 H3025 0.950 . S
C3001 C3000 1.349 1_545 S
C3001 C3017 1.357 . S
C3002 C3000 1.327 . S
C3002 C3021 1.429 . S
C3002 H3026 0.950 . S
C3003 C3020 1.574 . S
C3003 C3022 1.368 . S
C3003 H3027 0.949 . S
H3004 C3008 0.949 . S
C3005 C3006 1.349 . S
C3005 C3007 1.327 . S
C3005 H3028 0.950 . S
C3006 C3005 1.349 . S
C3006 C3018 1.349 . S
C3007 C3005 1.327 . S
C3007 C3023 1.429 . S
C3007 H3029 0.950 . S
C3008 H3004 0.949 . S
C3008 C3016 1.574 . S
C3008 C3024 1.368 . S
H3009 C3017 0.972 . S
H3010 C3015 0.950 . S
H3011 C3016 0.949 . S
H3012 C3018 0.950 . S
H3013 C3019 0.950 . S
H3014 C3020 0.949 . S
C3015 H3010 0.950 . S
C3015 C3017 1.297 1_565 S
C3015 C3021 1.429 . S
C3016 C3008 1.574 . S
C3016 H3011 0.949 . S
C3016 C3022 1.368 . S
C3017 C3001 1.357 . S
C3017 H3009 0.972 . S
C3017 C3015 1.297 1_545 S
C3018 C3006 1.349 . S
C3018 H3012 0.950 . S
C3018 C3019 1.327 . S
C3019 H3013 0.950 . S
C3019 C3018 1.327 . S
C3019 C3023 1.429 . S
C3020 C3003 1.574 . S
C3020 H3014 0.949 . S
C3020 C3024 1.368 . S
C3021 C3002 1.429 . S
C3021 C3015 1.429 . S
C3021 C3022 1.523 . S
C3022 C3003 1.368 . S
C3022 C3016 1.368 . S
C3022 C3021 1.523 . S
C3023 C3007 1.429 . S
C3023 C3019 1.429 . S
C3023 C3024 1.523 . S
C3024 C3008 1.368 . S
C3024 C3020 1.368 . S
C3024 C3023 1.523 . S
H3025 C3000 0.950 . S
H3026 C3002 0.950 . S
H3027 C3003 0.949 . S
H3028 C3005 0.950 . S
H3029 C3007 0.950 . S
C3030 C3031 1.349 . S
C3030 C3032 1.327 . S
C3030 H3055 0.950 . S
C3031 C3030 1.349 . S
C3031 C3047 1.349 . S
C3032 C3030 1.327 . S
C3032 C3051 1.429 . S
C3032 H3056 0.950 . S
C3033 C3050 1.574 . S
C3033 C3052 1.368 . S
C3033 H3057 0.949 . S
H3034 C3038 0.949 . S
C3035 C3036 1.349 . S
C3035 C3037 1.327 . S
C3035 H3058 0.950 . S
C3036 C3035 1.349 . S
C3036 C3048 1.349 . S
C3037 C3035 1.327 . S
C3037 C3053 1.429 . S
C3037 H3059 0.950 . S
C3038 H3034 0.949 . S
C3038 C3046 1.574 . S
C3038 C3054 1.368 . S
H3039 C3047 0.950 . S
H3040 C3045 0.950 . S
H3041 C3046 0.949 . S
H3042 C3048 0.950 . S
H3043 C3049 0.950 . S
H3044 C3050 0.949 . S
C3045 H3040 0.950 . S
C3045 C3047 1.327 . S
C3045 C3051 1.429 . S
C3046 C3038 1.574 . S
C3046 H3041 0.949 . S
C3046 C3052 1.368 . S
C3047 C3031 1.349 . S
C3047 H3039 0.950 . S
C3047 C3045 1.327 . S
C3048 C3036 1.349 . S
C3048 H3042 0.950 . S
C3048 C3049 1.327 . S
C3049 H3043 0.950 . S
C3049 C3048 1.327 . S
C3049 C3053 1.429 . S
C3050 C3033 1.574 . S
C3050 H3044 0.949 . S
C3050 C3054 1.368 . S
C3051 C3032 1.429 . S
C3051 C3045 1.429 . S
C3051 C3052 1.523 . S
C3052 C3033 1.368 . S
C3052 C3046 1.368 . S
C3052 C3051 1.523 . S
C3053 C3037 1.429 . S
C3053 C3049 1.429 . S
C3053 C3054 1.523 . S
C3054 C3038 1.368 . S
C3054 C3050 1.368 . S
C3054 C3053 1.523 . S
H3055 C3030 0.950 . S
H3056 C3032 0.950 . S
H3057 C3033 0.949 . S
H3058 C3035 0.950 . S
H3059 C3037 0.950 . S
C3060 C3061 1.349 . S
C3060 C3062 1.327 . S
C3060 H3085 0.950 . S
C3061 C3060 1.349 . S
C3061 C3077 1.349 . S
C3062 C3060 1.327 . S
C3062 C3081 1.429 . S
C3062 H3086 0.950 . S
C3063 C3080 1.574 . S
C3063 C3082 1.368 . S
C3063 H3087 0.949 . S
H3064 C3068 0.949 . S
C3065 C3066 1.349 . S
C3065 C3067 1.327 . S
C3065 H3088 0.950 . S
C3066 C3065 1.349 . S
C3066 C3078 1.349 . S
C3067 C3065 1.327 . S
C3067 C3083 1.429 . S
C3067 H3089 0.950 . S
C3068 H3064 0.949 . S
C3068 C3076 1.574 . S
C3068 C3084 1.368 . S
H3069 C3077 0.950 . S
H3070 C3075 0.950 . S
H3071 C3076 0.949 . S
H3072 C3078 0.950 . S
H3073 C3079 0.950 . S
H3074 C3080 0.949 . S
C3075 H3070 0.950 . S
C3075 C3077 1.327 . S
C3075 C3081 1.429 . S
C3076 C3068 1.574 . S
C3076 H3071 0.949 . S
C3076 C3082 1.368 . S
C3077 C3061 1.349 . S
C3077 H3069 0.950 . S
C3077 C3075 1.327 . S
C3078 C3066 1.349 . S
C3078 H3072 0.950 . S
C3078 C3079 1.327 . S
C3079 H3073 0.950 . S
C3079 C3078 1.327 . S
C3079 C3083 1.429 . S
C3080 C3063 1.574 . S
C3080 H3074 0.949 . S
C3080 C3084 1.368 . S
C3081 C3062 1.429 . S
C3081 C3075 1.429 . S
C3081 C3082 1.523 . S
C3082 C3063 1.368 . S
C3082 C3076 1.368 . S
C3082 C3081 1.523 . S
C3083 C3067 1.429 . S
C3083 C3079 1.429 . S
C3083 C3084 1.523 . S
C3084 C3068 1.368 . S
C3084 C3080 1.368 . S
C3084 C3083 1.523 . S
H3085 C3060 0.950 . S
H3086 C3062 0.950 . S
H3087 C3063 0.949 . S
H3088 C3065 0.950 . S
H3089 C3067 0.950 . S
C3090 C3091 1.349 . S
C3090 C3092 1.327 . S
C3090 H3115 0.950 . S
C3091 C3090 1.349 . S
C3091 C3107 1.349 . S
C3092 C3090 1.327 . S
C3092 C3111 1.429 . S
C3092 H3116 0.950 . S
C3093 C3110 1.574 . S
C3093 C3112 1.368 . S
C3093 H3117 0.949 . S
H3094 C3098 0.949 . S
C3095 C3096 1.349 . S
C3095 C3097 1.327 . S
C3095 H3118 0.950 . S
C3096 C3095 1.349 . S
C3096 C3108 1.349 . S
C3097 C3095 1.327 . S
C3097 C3113 1.429 . S
C3097 H3119 0.950 . S
C3098 H3094 0.949 . S
C3098 C3106 1.574 . S
C3098 C3114 1.368 . S
H3099 C3107 0.950 . S
H3100 C3105 0.950 . S
H3101 C3106 0.949 . S
H3102 C3108 0.950 . S
H3103 C3109 0.950 . S
H3104 C3110 0.949 . S
C3105 H3100 0.950 . S
C3105 C3107 1.327 . S
C3105 C3111 1.429 . S
C3106 C3098 1.574 . S
C3106 H3101 0.949 . S
C3106 C3112 1.368 . S
C3107 C3091 1.349 . S
C3107 H3099 0.950 . S
C3107 C3105 1.327 . S
C3108 C3096 1.349 . S
C3108 H3102 0.950 . S
C3108 C3109 1.327 . S
C3109 H3103 0.950 . S
C3109 C3108 1.327 . S
C3109 C3113 1.429 . S
C3110 C3093 1.574 . S
C3110 H3104 0.949 . S
C3110 C3114 1.368 . S
C3111 C3092 1.429 . S
C3111 C3105 1.429 . S
C3111 C3112 1.523 . S
C3112 C3093 1.368 . S
C3112 C3106 1.368 . S
C3112 C3111 1.523 . S
C3113 C3097 1.429 . S
C3113 C3109 1.429 . S
C3113 C3114 1.523 . S
C3114 C3098 1.368 . S
C3114 C3110 1.368 . S
C3114 C3113 1.523 . S
H3115 C3090 0.950 . S
H3116 C3092 0.950 . S
H3117 C3093 0.949 . S
H3118 C3095 0.950 . S
H3119 C3097 0.950 . S
C3120 C3121 1.349 . S
C3120 C3122 1.327 . S
C3120 H3145 0.950 . S
C3121 C3120 1.349 . S
C3121 C3137 1.349 . S
C3122 C3120 1.327 . S
C3122 C3141 1.429 . S
C3122 H3146 0.950 . S
C3123 C3140 1.574 . S
C3123 C3142 1.368 . S
C3123 H3147 0.949 . S
H3124 C3128 0.949 . S
C3125 C3126 1.349 . S
C3125 C3127 1.327 . S
C3125 H3148 0.950 . S
C3126 C3125 1.349 . S
C3126 C3138 1.349 . S
C3127 C3125 1.327 . S
C3127 C3143 1.429 . S
C3127 H3149 0.950 . S
C3128 H3124 0.949 . S
C3128 C3136 1.574 . S
C3128 C3144 1.368 . S
H3129 C3137 0.950 . S
H3130 C3135 0.950 . S
H3131 C3136 0.949 . S
H3132 C3138 0.950 . S
H3133 C3139 0.950 . S
H3134 C3140 0.949 . S
C3135 H3130 0.950 . S
C3135 C3137 1.327 . S
C3135 C3141 1.429 . S
C3136 C3128 1.574 . S
C3136 H3131 0.949 . S
C3136 C3142 1.368 . S
C3137 C3121 1.349 . S
C3137 H3129 0.950 . S
C3137 C3135 1.327 . S
C3138 C3126 1.349 . S
C3138 H3132 0.950 . S
C3138 C3139 1.327 . S
C3139 H3133 0.950 . S
C3139 C3138 1.327 . S
C3139 C3143 1.429 . S
C3140 C3123 1.574 . S
C3140 H3134 0.949 . S
C3140 C3144 1.368 . S
C3141 C3122 1.429 . S
C3141 C3135 1.429 . S
C3141 C3142 1.523 . S
C3142 C3123 1.368 . S
C3142 C3136 1.368 . S
C3142 C3141 1.523 . S
C3143 C3127 1.429 . S
C3143 C3139 1.429 . S
C3143 C3144 1.523 . S
C3144 C3128 1.368 . S
C3144 C3140 1.368 . S
C3144 C3143 1.523 . S
H3145 C3120 0.950 . S
H3146 C3122 0.950 . S
H3147 C3123 0.949 . S
H3148 C3125 0.950 . S
H3149 C3127 0.950 . S
C3150 C3151 1.349 . S
C3150 C3152 1.327 . S
C3150 H3175 0.950 . S
C3151 C3150 1.349 . S
C3151 C3167 1.349 . S
C3152 C3150 1.327 . S
C3152 C3171 1.429 . S
C3152 H3176 0.950 . S
C3153 C3170 1.574 . S
C3153 C3172 1.368 . S
C3153 H3177 0.949 . S
H3154 C3158 0.949 . S
C3155 C3156 1.349 . S
C3155 C3157 1.327 . S
C3155 H3178 0.950 . S
C3156 C3155 1.349 . S
C3156 C3168 1.349 . S
C3157 C3155 1.327 . S
C3157 C3173 1.429 . S
C3157 H3179 0.950 . S
C3158 H3154 0.949 . S
C3158 C3166 1.574 . S
C3158 C3174 1.368 . S
H3159 C3167 0.950 . S
H3160 C3165 0.950 . S
H3161 C3166 0.949 . S
H3162 C3168 0.950 . S
H3163 C3169 0.950 . S
H3164 C3170 0.949 . S
C3165 H3160 0.950 . S
C3165 C3167 1.327 . S
C3165 C3171 1.429 . S
C3166 C3158 1.574 . S
C3166 H3161 0.949 . S
C3166 C3172 1.368 . S
C3167 C3151 1.349 . S
C3167 H3159 0.950 . S
C3167 C3165 1.327 . S
C3168 C3156 1.349 . S
C3168 H3162 0.950 . S
C3168 C3169 1.327 . S
C3169 H3163 0.950 . S
C3169 C3168 1.327 . S
C3169 C3173 1.429 . S
C3170 C3153 1.574 . S
C3170 H3164 0.949 . S
C3170 C3174 1.368 . S
C3171 C3152 1.429 . S
C3171 C3165 1.429 . S
C3171 C3172 1.523 . S
C3172 C3153 1.368 . S
C3172 C3166 1.368 . S
C3172 C3171 1.523 . S
C3173 C3157 1.429 . S
C3173 C3169 1.429 . S
C3173 C3174 1.523 . S
C3174 C3158 1.368 . S
C3174 C3170 1.368 . S
C3174 C3173 1.523 . S
H3175 C3150 0.950 . S
H3176 C3152 0.950 . S
H3177 C3153 0.949 . S
H3178 C3155 0.950 . S
H3179 C3157 0.950 . S
C3180 C3181 1.349 . S
C3180 C3182 1.327 . S
C3180 H3205 0.950 . S
C3181 C3180 1.349 . S
C3181 C3197 1.349 1_455 S
C3182 C3180 1.327 . S
C3182 C3201 1.429 . S
C3182 H3206 0.950 . S
C3183 C3200 1.590 1_655 S
C3183 C3202 1.340 1_655 S
C3183 H3207 0.968 . S
H3184 C3188 0.949 1_554 S
C3185 C3186 1.349 1_556 S
C3185 C3187 1.327 . S
C3185 H3208 0.950 1_455 S
C3186 C3185 1.349 1_554 S
C3186 C3198 1.349 . S
C3187 C3185 1.327 . S
C3187 C3203 1.429 . S
C3187 H3209 0.950 1_455 S
C3188 H3184 0.949 1_556 S
C3188 C3196 1.574 . S
C3188 C3204 1.368 . S
H3189 C3197 0.950 . S
H3190 C3195 0.950 . S
H3191 C3196 0.949 . S
H3192 C3198 0.950 . S
H3193 C3199 0.950 . S
H3194 C3200 0.930 1_655 S
C3195 H3190 0.950 . S
C3195 C3197 1.327 . S
C3195 C3201 1.429 1_655 S
C3196 C3188 1.574 . S
C3196 H3191 0.949 . S
C3196 C3202 1.368 . S
C3197 C3181 1.349 1_655 S
C3197 H3189 0.950 . S
C3197 C3195 1.327 . S
C3198 C3186 1.349 . S
C3198 H3192 0.950 . S
C3198 C3199 1.327 . S
C3199 H3193 0.950 . S
C3199 C3198 1.327 . S
C3199 C3203 1.429 1_554 S
C3200 C3183 1.590 1_455 S
C3200 H3194 0.930 1_455 S
C3200 C3204 1.385 . S
C3201 C3182 1.429 . S
C3201 C3195 1.429 1_455 S
C3201 C3202 1.523 . S
C3202 C3183 1.340 1_455 S
C3202 C3196 1.368 . S
C3202 C3201 1.523 . S
C3203 C3187 1.429 . S
C3203 C3199 1.429 1_556 S
C3203 C3204 1.523 . S
C3204 C3188 1.368 . S
C3204 C3200 1.385 . S
C3204 C3203 1.523 . S
H3205 C3180 0.950 . S
H3206 C3182 0.950 . S
H3207 C3183 0.968 . S
H3208 C3185 0.950 1_655 S
H3209 C3187 0.950 1_655 S
C3210 C3211 1.349 1_655 S
C3210 C3212 1.327 . S
C3210 H3235 0.950 . S
C3211 C3210 1.349 1_455 S
C3211 C3227 1.354 . S
C3212 C3210 1.327 . S
C3212 C3231 1.429 . S
C3212 H3236 0.950 . S
C3213 C3230 1.574 . S
C3213 C3232 1.368 . S
C3213 H3237 0.949 . S
H3214 C3218 0.949 . S
C3215 C3216 1.349 . S
C3215 C3217 1.327 . S
C3215 H3238 0.950 . S
C3216 C3215 1.349 . S
C3216 C3228 1.349 . S
C3217 C3215 1.327 . S
C3217 C3233 1.429 . S
C3217 H3239 0.950 . S
C3218 H3214 0.949 . S
C3218 C3226 1.574 . S
C3218 C3234 1.368 . S
H3219 C3227 0.977 . S
H3220 C3225 0.950 . S
H3221 C3226 0.949 . S
H3222 C3228 0.950 . S
H3223 C3229 0.950 . S
H3224 C3230 0.949 . S
C3225 H3220 0.950 . S
C3225 C3227 1.296 1_655 S
C3225 C3231 1.429 . S
C3226 C3218 1.574 . S
C3226 H3221 0.949 . S
C3226 C3232 1.368 . S
C3227 C3211 1.354 . S
C3227 H3219 0.977 . S
C3227 C3225 1.296 1_455 S
C3228 C3216 1.349 . S
C3228 H3222 0.950 . S
C3228 C3229 1.327 . S
C3229 H3223 0.950 . S
C3229 C3228 1.327 . S
C3229 C3233 1.429 . S
C3230 C3213 1.574 . S
C3230 H3224 0.949 . S
C3230 C3234 1.368 . S
C3231 C3212 1.429 . S
C3231 C3225 1.429 . S
C3231 C3232 1.523 . S
C3232 C3213 1.368 . S
C3232 C3226 1.368 . S
C3232 C3231 1.523 . S
C3233 C3217 1.429 . S
C3233 C3229 1.429 . S
C3233 C3234 1.523 . S
C3234 C3218 1.368 . S
C3234 C3230 1.368 . S
C3234 C3233 1.523 . S
H3235 C3210 0.950 . S
H3236 C3212 0.950 . S
H3237 C3213 0.949 . S
H3238 C3215 0.950 . S
H3239 C3217 0.950 . S
C3240 C3241 1.349 . S
C3240 C3242 1.327 . S
C3240 H3265 0.950 . S
C3241 C3240 1.349 . S
C3241 C3257 1.349 . S
C3242 C3240 1.327 . S
C3242 C3261 1.429 . S
C3242 H3266 0.950 . S
C3243 C3260 1.574 . S
C3243 C3262 1.368 . S
C3243 H3267 0.949 . S
H3244 C3248 0.949 . S
C3245 C3246 1.349 . S
C3245 C3247 1.327 . S
C3245 H3268 0.950 . S
C3246 C3245 1.349 . S
C3246 C3258 1.349 . S
C3247 C3245 1.327 . S
C3247 C3263 1.429 . S
C3247 H3269 0.950 . S
C3248 H3244 0.949 . S
C3248 C3256 1.574 . S
C3248 C3264 1.368 . S
H3249 C3257 0.950 . S
H3250 C3255 0.950 . S
H3251 C3256 0.949 . S
H3252 C3258 0.950 . S
H3253 C3259 0.950 . S
H3254 C3260 0.949 . S
C3255 H3250 0.950 . S
C3255 C3257 1.327 . S
C3255 C3261 1.429 . S
C3256 C3248 1.574 . S
C3256 H3251 0.949 . S
C3256 C3262 1.368 . S
C3257 C3241 1.349 . S
C3257 H3249 0.950 . S
C3257 C3255 1.327 . S
C3258 C3246 1.349 . S
C3258 H3252 0.950 . S
C3258 C3259 1.327 . S
C3259 H3253 0.950 . S
C3259 C3258 1.327 . S
C3259 C3263 1.429 . S
C3260 C3243 1.574 . S
C3260 H3254 0.949 . S
C3260 C3264 1.368 . S
C3261 C3242 1.429 . S
C3261 C3255 1.429 . S
C3261 C3262 1.523 . S
C3262 C3243 1.368 . S
C3262 C3256 1.368 . S
C3262 C3261 1.523 . S
C3263 C3247 1.429 . S
C3263 C3259 1.429 . S
C3263 C3264 1.523 . S
C3264 C3248 1.368 . S
C3264 C3260 1.368 . S
C3264 C3263 1.523 . S
H3265 C3240 0.950 . S
H3266 C3242 0.950 . S
H3267 C3243 0.949 . S
H3268 C3245 0.950 . S
H3269 C3247 0.950 . S
C3270 C3271 1.349 . S
C3270 C3272 1.327 . S
C3270 H3295 0.950 . S
C3271 C3270 1.349 . S
C3271 C3287 1.349 . S
C3272 C3270 1.327 . S
C3272 C3291 1.429 . S
C3272 H3296 0.950 . S
C3273 C3290 1.574 . S
C3273 C3292 1.368 . S
C3273 H3297 0.949 . S
H3274 C3278 0.949 . S
C3275 C3276 1.349 . S
C3275 C3277 1.327 . S
C3275 H3298 0.950 . S
C3276 C3275 1.349 . S
C3276 C3288 1.349 . S
C3277 C3275 1.327 . S
C3277 C3293 1.429 . S
C3277 H3299 0.950 . S
C3278 H3274 0.949 . S
C3278 C3286 1.574 . S
C3278 C3294 1.368 . S
H3279 C3287 0.950 . S
H3280 C3285 0.950 . S
H3281 C3286 0.949 . S
H3282 C3288 0.950 . S
H3283 C3289 0.950 . S
H3284 C3290 0.949 . S
C3285 H3280 0.950 . S
C3285 C3287 1.327 . S
C3285 C3291 1.429 . S
C3286 C3278 1.574 . S
C3286 H3281 0.949 . S
C3286 C3292 1.368 . S
C3287 C3271 1.349 . S
C3287 H3279 0.950 . S
C3287 C3285 1.327 . S
C3288 C3276 1.349 . S
C3288 H3282 0.950 . S
C3288 C3289 1.327 . S
C3289 H3283 0.950 . S
C3289 C3288 1.327 . S
C3289 C3293 1.429 . S
C3290 C3273 1.574 . S
C3290 H3284 0.949 . S
C3290 C3294 1.368 . S
C3291 C3272 1.429 . S
C3291 C3285 1.429 . S
C3291 C3292 1.523 . S
C3292 C3273 1.368 . S
C3292 C3286 1.368 . S
C3292 C3291 1.523 . S
C3293 C3277 1.429 . S
C3293 C3289 1.429 . S
C3293 C3294 1.523 . S
C3294 C3278 1.368 . S
C3294 C3290 1.368 . S
C3294 C3293 1.523 . S
H3295 C3270 0.950 . S
H3296 C3272 0.950 . S
H3297 C3273 0.949 . S
H3298 C3275 0.950 . S
H3299 C3277 0.950 . S
C3300 C3301 1.349 . S
C3300 C3302 1.327 . S
C3300 H3325 0.950 . S
C3301 C3300 1.349 . S
C3301 C3317 1.349 . S
C3302 C3300 1.327 . S
C3302 C3321 1.429 . S
C3302 H3326 0.950 . S
C3303 C3320 1.574 . S
C3303 C3322 1.368 . S
C3303 H3327 0.983 . S
H3304 C3308 0.949 . S
C3305 C3306 1.349 . S
C3305 C3307 1.327 . S
C3305 H3328 0.950 . S
C3306 C3305 1.349 . S
C3306 C3318 1.349 . S
C3307 C3305 1.327 . S
C3307 C3323 1.429 . S
C3307 H3329 0.950 . S
C3308 H3304 0.949 . S
C3308 C3316 1.574 . S
C3308 C3324 1.368 . S
H3309 C3317 0.950 1_655 S
H3310 C3315 0.946 1_655 S
H3311 C3316 0.949 . S
H3312 C3318 0.950 . S
H3313 C3319 0.950 . S
H3314 C3320 0.949 . S
C3315 H3310 0.946 1_455 S
C3315 C3317 1.327 . S
C3315 C3321 1.429 . S
C3316 C3308 1.574 . S
C3316 H3311 0.949 . S
C3316 C3322 1.368 . S
C3317 C3301 1.349 . S
C3317 H3309 0.950 1_455 S
C3317 C3315 1.327 . S
C3318 C3306 1.349 . S
C3318 H3312 0.950 . S
C3318 C3319 1.327 . S
C3319 H3313 0.950 . S
C3319 C3318 1.327 . S
C3319 C3323 1.429 . S
C3320 C3303 1.574 . S
C3320 H3314 0.949 . S
C3320 C3324 1.368 . S
C3321 C3302 1.429 . S
C3321 C3315 1.429 . S
C3321 C3322 1.523 . S
C3322 C3303 1.368 . S
C3322 C3316 1.368 . S
C3322 C3321 1.523 . S
C3323 C3307 1.429 . S
C3323 C3319 1.429 . S
C3323 C3324 1.523 . S
C3324 C3308 1.368 . S
C3324 C3320 1.368 . S
C3324 C3323 1.523 . S
H3325 C3300 0.950 . S
H3326 C3302 0.950 . S
H3327 C3303 0.983 . S
H3328 C3305 0.950 . S
H3329 C3307 0.950 . S
C3330 C3331 1.349 . S
C3330 C3332 1.327 . S
C3330 H3355 0.950 . S
C3331 C3330 1.349 . S
C3331 C3347 1.349 . S
C3332 C3330 1.327 . S
C3332 C3351 1.429 . S
C3332 H3356 0.950 . S
C3333 C3350 1.574 . S
C3333 C3352 1.368 . S
C3333 H3357 0.949 . S
H3334 C3338 0.949 . S
C3335 C3336 1.349 . S
C3335 C3337 1.327 . S
C3335 H3358 0.950 . S
C3336 C3335 1.349 . S
C3336 C3348 1.349 . S
C3337 C3335 1.327 . S
C3337 C3353 1.429 . S
C3337 H3359 0.950 . S
C3338 H3334 0.949 . S
C3338 C3346 1.574 . S
C3338 C3354 1.368 . S
H3339 C3347 0.950 . S
H3340 C3345 0.950 . S
H3341 C3346 0.949 . S
H3342 C3348 0.950 . S
H3343 C3349 0.950 . S
H3344 C3350 0.949 . S
C3345 H3340 0.950 . S
C3345 C3347 1.327 . S
C3345 C3351 1.429 . S
C3346 C3338 1.574 . S
C3346 H3341 0.949 . S
C3346 C3352 1.368 . S
C3347 C3331 1.349 . S
C3347 H3339 0.950 . S
C3347 C3345 1.327 . S
C3348 C3336 1.349 . S
C3348 H3342 0.950 . S
C3348 C3349 1.327 . S
C3349 H3343 0.950 . S
C3349 C3348 1.327 . S
C3349 C3353 1.429 . S
C3350 C3333 1.574 . S
C3350 H3344 0.949 . S
C3350 C3354 1.368 . S
C3351 C3332 1.429 . S
C3351 C3345 1.429 . S
C3351 C3352 1.523 . S
C3352 C3333 1.368 . S
C3352 C3346 1.368 . S
C3352 C3351 1.523 . S
C3353 C3337 1.429 . S
C3353 C3349 1.429 . S
C3353 C3354 1.523 . S
C3354 C3338 1.368 . S
C3354 C3350 1.368 . S
C3354 C3353 1.523 . S
H3355 C3330 0.950 . S
H3356 C3332 0.950 . S
H3357 C3333 0.949 . S
H3358 C3335 0.950 . S
H3359 C3337 0.950 . S
C3360 C3361 1.349 . S
C3360 C3362 1.327 . S
C3360 H3385 0.950 . S
C3361 C3360 1.349 . S
C3361 C3377 1.349 . S
C3362 C3360 1.327 . S
C3362 C3381 1.429 . S
C3362 H3386 0.950 . S
C3363 C3380 1.574 . S
C3363 C3382 1.368 . S
C3363 H3387 0.949 . S
H3364 C3368 0.949 . S
C3365 C3366 1.349 . S
C3365 C3367 1.327 . S
C3365 H3388 0.950 . S
C3366 C3365 1.349 . S
C3366 C3378 1.349 . S
C3367 C3365 1.327 . S
C3367 C3383 1.429 . S
C3367 H3389 0.950 . S
C3368 H3364 0.949 . S
C3368 C3376 1.574 . S
C3368 C3384 1.368 . S
H3369 C3377 0.950 . S
H3370 C3375 0.950 . S
H3371 C3376 0.949 . S
H3372 C3378 0.950 . S
H3373 C3379 0.950 . S
H3374 C3380 0.949 . S
C3375 H3370 0.950 . S
C3375 C3377 1.327 . S
C3375 C3381 1.429 . S
C3376 C3368 1.574 . S
C3376 H3371 0.949 . S
C3376 C3382 1.368 . S
C3377 C3361 1.349 . S
C3377 H3369 0.950 . S
C3377 C3375 1.327 . S
C3378 C3366 1.349 . S
C3378 H3372 0.950 . S
C3378 C3379 1.327 . S
C3379 H3373 0.950 . S
C3379 C3378 1.327 . S
C3379 C3383 1.429 . S
C3380 C3363 1.574 . S
C3380 H3374 0.949 . S
C3380 C3384 1.368 . S
C3381 C3362 1.429 . S
C3381 C3375 1.429 . S
C3381 C3382 1.523 . S
C3382 C3363 1.368 . S
C3382 C3376 1.368 . S
C3382 C3381 1.523 . S
C3383 C3367 1.429 . S
C3383 C3379 1.429 . S
C3383 C3384 1.523 . S
C3384 C3368 1.368 . S
C3384 C3380 1.368 . S
C3384 C3383 1.523 . S
H3385 C3360 0.950 . S
H3386 C3362 0.950 . S
H3387 C3363 0.949 . S
H3388 C3365 0.950 . S
H3389 C3367 0.950 . S
C3390 C3391 1.349 . S
C3390 C3392 1.327 1_554 S
C3390 H3415 0.950 . S
C3391 C3390 1.349 . S
C3391 C3407 1.349 1_554 S
C3392 C3390 1.327 1_556 S
C3392 C3411 1.429 . S
C3392 H3416 0.950 . S
C3393 C3410 1.574 . S
C3393 C3412 1.368 . S
C3393 H3417 0.949 . S
H3394 C3398 0.949 . S
C3395 C3396 1.349 . S
C3395 C3397 1.327 . S
C3395 H3418 0.950 . S
C3396 C3395 1.349 . S
C3396 C3408 1.349 . S
C3397 C3395 1.327 . S
C3397 C3413 1.429 . S
C3397 H3419 0.950 . S
C3398 H3394 0.949 . S
C3398 C3406 1.574 . S
C3398 C3414 1.368 . S
H3399 C3407 0.950 . S
H3400 C3405 0.950 . S
H3401 C3406 0.949 . S
H3402 C3408 0.950 . S
H3403 C3409 0.950 . S
H3404 C3410 0.949 . S
C3405 H3400 0.950 . S
C3405 C3407 1.327 . S
C3405 C3411 1.429 . S
C3406 C3398 1.574 . S
C3406 H3401 0.949 . S
C3406 C3412 1.368 . S
C3407 C3391 1.349 1_556 S
C3407 H3399 0.950 . S
C3407 C3405 1.327 . S
C3408 C3396 1.349 . S
C3408 H3402 0.950 . S
C3408 C3409 1.327 . S
C3409 H3403 0.950 . S
C3409 C3408 1.327 . S
C3409 C3413 1.429 . S
C3410 C3393 1.574 . S
C3410 H3404 0.949 . S
C3410 C3414 1.368 . S
C3411 C3392 1.429 . S
C3411 C3405 1.429 . S
C3411 C3412 1.523 . S
C3412 C3393 1.368 . S
C3412 C3406 1.368 . S
C3412 C3411 1.523 . S
C3413 C3397 1.429 . S
C3413 C3409 1.429 . S
C3413 C3414 1.523 . S
C3414 C3398 1.368 . S
C3414 C3410 1.368 . S
C3414 C3413 1.523 . S
H3415 C3390 0.950 . S
H3416 C3392 0.950 . S
H3417 C3393 0.949 . S
H3418 C3395 0.950 . S
H3419 C3397 0.950 . S
C3420 C3421 1.349 . S
C3420 C3422 1.327 . S
C3420 H3445 0.950 . S
C3421 C3420 1.349 . S
C3421 C3437 1.349 . S
C3422 C3420 1.327 . S
C3422 C3441 1.429 . S
C3422 H3446 0.950 . S
C3423 C3440 1.574 . S
C3423 C3442 1.368 . S
C3423 H3447 0.949 . S
H3424 C3428 0.949 . S
C3425 C3426 1.349 . S
C3425 C3427 1.327 . S
C3425 H3448 0.950 . S
C3426 C3425 1.349 . S
C3426 C3438 1.349 . S
C3427 C3425 1.327 . S
C3427 C3443 1.429 . S
C3427 H3449 0.950 . S
C3428 H3424 0.949 . S
C3428 C3436 1.574 . S
C3428 C3444 1.368 . S
H3429 C3437 0.950 . S
H3430 C3435 0.950 . S
H3431 C3436 0.949 . S
H3432 C3438 0.950 . S
H3433 C3439 0.950 . S
H3434 C3440 0.949 . S
C3435 H3430 0.950 . S
C3435 C3437 1.327 . S
C3435 C3441 1.429 . S
C3436 C3428 1.574 . S
C3436 H3431 0.949 . S
C3436 C3442 1.368 . S
C3437 C3421 1.349 . S
C3437 H3429 0.950 . S
C3437 C3435 1.327 . S
C3438 C3426 1.349 . S
C3438 H3432 0.950 . S
C3438 C3439 1.327 . S
C3439 H3433 0.950 . S
C3439 C3438 1.327 . S
C3439 C3443 1.429 . S
C3440 C3423 1.574 . S
C3440 H3434 0.949 . S
C3440 C3444 1.368 . S
C3441 C3422 1.429 . S
C3441 C3435 1.429 . S
C3441 C3442 1.523 . S
C3442 C3423 1.368 . S
C3442 C3436 1.368 . S
C3442 C3441 1.523 . S
C3443 C3427 1.429 . S
C3443 C3439 1.429 . S
C3443 C3444 1.523 . S
C3444 C3428 1.368 . S
C3444 C3440 1.368 . S
C3444 C3443 1.523 . S
H3445 C3420 0.950 . S
H3446 C3422 0.950 . S
H3447 C3423 0.949 . S
H3448 C3425 0.950 . S
H3449 C3427 0.950 . S
C3450 C3451 1.349 . S
C3450 C3452 1.327 . S
C3450 H3475 0.950 . S
C3451 C3450 1.349 . S
C3451 C3467 1.349 . S
C3452 C3450 1.327 . S
C3452 C3471 1.429 . S
C3452 H3476 0.950 . S
C3453 C3470 1.574 . S
C3453 C3472 1.368 . S
C3453 H3477 0.949 . S
H3454 C3458 0.949 . S
C3455 C3456 1.349 . S
C3455 C3457 1.327 . S
C3455 H3478 0.950 . S
C3456 C3455 1.349 . S
C3456 C3468 1.349 . S
C3457 C3455 1.327 . S
C3457 C3473 1.429 . S
C3457 H3479 0.950 . S
C3458 H3454 0.949 . S
C3458 C3466 1.574 . S
C3458 C3474 1.368 . S
H3459 C3467 0.950 . S
H3460 C3465 0.950 . S
H3461 C3466 0.949 . S
H3462 C3468 0.950 . S
H3463 C3469 0.950 . S
H3464 C3470 0.949 . S
C3465 H3460 0.950 . S
C3465 C3467 1.327 . S
C3465 C3471 1.429 . S
C3466 C3458 1.574 . S
C3466 H3461 0.949 . S
C3466 C3472 1.368 . S
C3467 C3451 1.349 . S
C3467 H3459 0.950 . S
C3467 C3465 1.327 . S
C3468 C3456 1.349 . S
C3468 H3462 0.950 . S
C3468 C3469 1.327 . S
C3469 H3463 0.950 . S
C3469 C3468 1.327 . S
C3469 C3473 1.429 . S
C3470 C3453 1.574 . S
C3470 H3464 0.949 . S
C3470 C3474 1.368 . S
C3471 C3452 1.429 . S
C3471 C3465 1.429 . S
C3471 C3472 1.523 . S
C3472 C3453 1.368 . S
C3472 C3466 1.368 . S
C3472 C3471 1.523 . S
C3473 C3457 1.429 . S
C3473 C3469 1.429 . S
C3473 C3474 1.523 . S
C3474 C3458 1.368 . S
C3474 C3470 1.368 . S
C3474 C3473 1.523 . S
H3475 C3450 0.950 . S
H3476 C3452 0.950 . S
H3477 C3453 0.949 . S
H3478 C3455 0.950 . S
H3479 C3457 0.950 . S
C3480 C3481 1.349 . S
C3480 C3482 1.327 . S
C3480 H3505 0.950 . S
C3481 C3480 1.349 . S
C3481 C3497 1.349 . S
C3482 C3480 1.327 . S
C3482 C3501 1.429 . S
C3482 H3506 0.950 . S
C3483 C3500 1.574 . S
C3483 C3502 1.368 . S
C3483 H3507 0.949 . S
H3484 C3488 0.949 . S
C3485 C3486 1.349 . S
C3485 C3487 1.327 . S
C3485 H3508 0.950 . S
C3486 C3485 1.349 . S
C3486 C3498 1.349 . S
C3487 C3485 1.327 . S
C3487 C3503 1.429 . S
C3487 H3509 0.950 . S
C3488 H3484 0.949 . S
C3488 C3496 1.574 . S
C3488 C3504 1.368 . S
H3489 C3497 0.950 . S
H3490 C3495 0.950 . S
H3491 C3496 0.949 . S
H3492 C3498 0.950 . S
H3493 C3499 0.950 . S
H3494 C3500 0.949 . S
C3495 H3490 0.950 . S
C3495 C3497 1.327 . S
C3495 C3501 1.429 . S
C3496 C3488 1.574 . S
C3496 H3491 0.949 . S
C3496 C3502 1.368 . S
C3497 C3481 1.349 . S
C3497 H3489 0.950 . S
C3497 C3495 1.327 . S
C3498 C3486 1.349 . S
C3498 H3492 0.950 . S
C3498 C3499 1.327 . S
C3499 H3493 0.950 . S
C3499 C3498 1.327 . S
C3499 C3503 1.429 . S
C3500 C3483 1.574 . S
C3500 H3494 0.949 . S
C3500 C3504 1.368 . S
C3501 C3482 1.429 . S
C3501 C3495 1.429 . S
C3501 C3502 1.523 . S
C3502 C3483 1.368 . S
C3502 C3496 1.368 . S
C3502 C3501 1.523 . S
C3503 C3487 1.429 . S
C3503 C3499 1.429 . S
C3503 C3504 1.523 . S
C3504 C3488 1.368 . S
C3504 C3500 1.368 . S
C3504 C3503 1.523 . S
H3505 C3480 0.950 . S
H3506 C3482 0.950 . S
H3507 C3483 0.949 . S
H3508 C3485 0.950 . S
H3509 C3487 0.950 . S
C3510 C3511 1.349 . S
C3510 C3512 1.327 . S
C3510 H3535 0.950 . S
C3511 C3510 1.349 . S
C3511 C3527 1.349 . S
C3512 C3510 1.327 . S
C3512 C3531 1.429 . S
C3512 H3536 0.950 . S
C3513 C3530 1.574 . S
C3513 C3532 1.368 . S
C3513 H3537 0.949 . S
H3514 C3518 0.949 . S
C3515 C3516 1.349 . S
C3515 C3517 1.327 . S
C3515 H3538 0.950 . S
C3516 C3515 1.349 . S
C3516 C3528 1.349 . S
C3517 C3515 1.327 . S
C3517 C3533 1.429 . S
C3517 H3539 0.950 . S
C3518 H3514 0.949 . S
C3518 C3526 1.574 . S
C3518 C3534 1.368 . S
H3519 C3527 0.950 . S
H3520 C3525 0.950 . S
H3521 C3526 0.949 . S
H3522 C3528 0.950 . S
H3523 C3529 0.950 . S
H3524 C3530 0.949 . S
C3525 H3520 0.950 . S
C3525 C3527 1.327 . S
C3525 C3531 1.429 . S
C3526 C3518 1.574 . S
C3526 H3521 0.949 . S
C3526 C3532 1.368 . S
C3527 C3511 1.349 . S
C3527 H3519 0.950 . S
C3527 C3525 1.327 . S
C3528 C3516 1.349 . S
C3528 H3522 0.950 . S
C3528 C3529 1.327 . S
C3529 H3523 0.950 . S
C3529 C3528 1.327 . S
C3529 C3533 1.429 . S
C3530 C3513 1.574 . S
C3530 H3524 0.949 . S
C3530 C3534 1.368 . S
C3531 C3512 1.429 . S
C3531 C3525 1.429 . S
C3531 C3532 1.523 . S
C3532 C3513 1.368 . S
C3532 C3526 1.368 . S
C3532 C3531 1.523 . S
C3533 C3517 1.429 . S
C3533 C3529 1.429 . S
C3533 C3534 1.523 . S
C3534 C3518 1.368 . S
C3534 C3530 1.368 . S
C3534 C3533 1.523 . S
H3535 C3510 0.950 . S
H3536 C3512 0.950 . S
H3537 C3513 0.949 . S
H3538 C3515 0.950 . S
H3539 C3517 0.950 . S
C3540 C3541 1.349 . S
C3540 C3542 1.327 . S
C3540 H3565 0.950 . S
C3541 C3540 1.349 . S
C3541 C3557 1.349 . S
C3542 C3540 1.327 . S
C3542 C3561 1.429 . S
C3542 H3566 0.950 . S
C3543 C3560 1.574 . S
C3543 C3562 1.368 . S
C3543 H3567 0.949 . S
H3544 C3548 0.949 . S
C3545 C3546 1.349 . S
C3545 C3547 1.327 . S
C3545 H3568 0.950 . S
C3546 C3545 1.349 . S
C3546 C3558 1.349 . S
C3547 C3545 1.327 . S
C3547 C3563 1.429 . S
C3547 H3569 0.950 . S
C3548 H3544 0.949 . S
C3548 C3556 1.574 . S
C3548 C3564 1.368 . S
H3549 C3557 0.950 . S
H3550 C3555 0.950 . S
H3551 C3556 0.949 . S
H3552 C3558 0.950 . S
H3553 C3559 0.950 . S
H3554 C3560 0.949 . S
C3555 H3550 0.950 . S
C3555 C3557 1.327 . S
C3555 C3561 1.429 . S
C3556 C3548 1.574 . S
C3556 H3551 0.949 . S
C3556 C3562 1.368 . S
C3557 C3541 1.349 . S
C3557 H3549 0.950 . S
C3557 C3555 1.327 . S
C3558 C3546 1.349 . S
C3558 H3552 0.950 . S
C3558 C3559 1.327 . S
C3559 H3553 0.950 . S
C3559 C3558 1.327 . S
C3559 C3563 1.429 . S
C3560 C3543 1.574 . S
C3560 H3554 0.949 . S
C3560 C3564 1.368 . S
C3561 C3542 1.429 . S
C3561 C3555 1.429 . S
C3561 C3562 1.523 . S
C3562 C3543 1.368 . S
C3562 C3556 1.368 . S
C3562 C3561 1.523 . S
C3563 C3547 1.429 . S
C3563 C3559 1.429 . S
C3563 C3564 1.523 . S
C3564 C3548 1.368 . S
C3564 C3560 1.368 . S
C3564 C3563 1.523 . S
H3565 C3540 0.950 . S
H3566 C3542 0.950 . S
H3567 C3543 0.949 . S
H3568 C3545 0.950 . S
H3569 C3547 0.950 . S
C3570 C3571 1.349 . S
C3570 C3572 1.327 . S
C3570 H3595 0.950 . S
C3571 C3570 1.349 . S
C3571 C3587 1.349 . S
C3572 C3570 1.327 . S
C3572 C3591 1.429 . S
C3572 H3596 0.950 . S
C3573 C3590 1.574 . S
C3573 C3592 1.368 . S
C3573 H3597 0.949 . S
H3574 C3578 0.949 . S
C3575 C3576 1.349 . S
C3575 C3577 1.327 . S
C3575 H3598 0.950 . S
C3576 C3575 1.349 . S
C3576 C3588 1.349 . S
C3577 C3575 1.327 . S
C3577 C3593 1.429 . S
C3577 H3599 0.950 . S
C3578 H3574 0.949 . S
C3578 C3586 1.574 . S
C3578 C3594 1.368 . S
H3579 C3587 0.950 . S
H3580 C3585 0.950 . S
H3581 C3586 0.949 . S
H3582 C3588 0.950 . S
H3583 C3589 0.950 . S
H3584 C3590 0.949 . S
C3585 H3580 0.950 . S
C3585 C3587 1.327 . S
C3585 C3591 1.429 . S
C3586 C3578 1.574 . S
C3586 H3581 0.949 . S
C3586 C3592 1.368 . S
C3587 C3571 1.349 . S
C3587 H3579 0.950 . S
C3587 C3585 1.327 . S
C3588 C3576 1.349 . S
C3588 H3582 0.950 . S
C3588 C3589 1.327 . S
C3589 H3583 0.950 . S
C3589 C3588 1.327 . S
C3589 C3593 1.429 . S
C3590 C3573 1.574 . S
C3590 H3584 0.949 . S
C3590 C3594 1.368 . S
C3591 C3572 1.429 . S
C3591 C3585 1.429 . S
C3591 C3592 1.523 . S
C3592 C3573 1.368 . S
C3592 C3586 1.368 . S
C3592 C3591 1.523 . S
C3593 C3577 1.429 . S
C3593 C3589 1.429 . S
C3593 C3594 1.523 . S
C3594 C3578 1.368 . S
C3594 C3590 1.368 . S
C3594 C3593 1.523 . S
H3595 C3570 0.950 . S
H3596 C3572 0.950 . S
H3597 C3573 0.949 . S
H3598 C3575 0.950 . S
H3599 C3577 0.950 . S
C3600 C3601 1.349 . S
C3600 C3602 1.327 . S
C3600 H3625 0.950 . S
C3601 C3600 1.349 . S
C3601 C3617 1.349 . S
C3602 C3600 1.327 . S
C3602 C3621 1.429 . S
C3602 H3626 0.950 . S
C3603 C3620 1.574 . S
C3603 C3622 1.368 . S
C3603 H3627 0.949 . S
H3604 C3608 0.949 . S
C3605 C3606 1.349 . S
C3605 C3607 1.327 . S
C3605 H3628 0.950 . S
C3606 C3605 1.349 . S
C3606 C3618 1.349 . S
C3607 C3605 1.327 . S
C3607 C3623 1.429 . S
C3607 H3629 0.950 . S
C3608 H3604 0.949 . S
C3608 C3616 1.574 . S
C3608 C3624 1.368 . S
H3609 C3617 0.950 . S
H3610 C3615 0.950 . S
H3611 C3616 0.949 . S
H3612 C3618 0.950 . S
H3613 C3619 0.950 . S
H3614 C3620 0.949 . S
C3615 H3610 0.950 . S
C3615 C3617 1.327 . S
C3615 C3621 1.429 . S
C3616 C3608 1.574 . S
C3616 H3611 0.949 . S
C3616 C3622 1.368 . S
C3617 C3601 1.349 . S
C3617 H3609 0.950 . S
C3617 C3615 1.327 . S
C3618 C3606 1.349 . S
C3618 H3612 0.950 . S
C3618 C3619 1.327 . S
C3619 H3613 0.950 . S
C3619 C3618 1.327 . S
C3619 C3623 1.429 . S
C3620 C3603 1.574 . S
C3620 H3614 0.949 . S
C3620 C3624 1.368 . S
C3621 C3602 1.429 . S
C3621 C3615 1.429 . S
C3621 C3622 1.523 . S
C3622 C3603 1.368 . S
C3622 C3616 1.368 . S
C3622 C3621 1.523 . S
C3623 C3607 1.429 . S
C3623 C3619 1.429 . S
C3623 C3624 1.523 . S
C3624 C3608 1.368 . S
C3624 C3620 1.368 . S
C3624 C3623 1.523 . S
H3625 C3600 0.950 . S
H3626 C3602 0.950 . S
H3627 C3603 0.949 . S
H3628 C3605 0.950 . S
H3629 C3607 0.950 . S
C3630 C3631 1.349 . S
C3630 C3632 1.327 . S
C3630 H3655 0.950 . S
C3631 C3630 1.349 . S
C3631 C3647 1.349 . S
C3632 C3630 1.327 . S
C3632 C3651 1.429 . S
C3632 H3656 0.950 . S
C3633 C3650 1.574 . S
C3633 C3652 1.368 . S
C3633 H3657 0.949 . S
H3634 C3638 0.949 . S
C3635 C3636 1.349 . S
C3635 C3637 1.327 . S
C3635 H3658 0.950 . S
C3636 C3635 1.349 . S
C3636 C3648 1.349 . S
C3637 C3635 1.327 . S
C3637 C3653 1.429 . S
C3637 H3659 0.950 . S
C3638 H3634 0.949 . S
C3638 C3646 1.574 . S
C3638 C3654 1.368 . S
H3639 C3647 0.950 . S
H3640 C3645 0.950 . S
H3641 C3646 0.949 . S
H3642 C3648 0.950 . S
H3643 C3649 0.950 . S
H3644 C3650 0.949 . S
C3645 H3640 0.950 . S
C3645 C3647 1.327 . S
C3645 C3651 1.429 . S
C3646 C3638 1.574 . S
C3646 H3641 0.949 . S
C3646 C3652 1.368 . S
C3647 C3631 1.349 . S
C3647 H3639 0.950 . S
C3647 C3645 1.327 . S
C3648 C3636 1.349 . S
C3648 H3642 0.950 . S
C3648 C3649 1.327 . S
C3649 H3643 0.950 . S
C3649 C3648 1.327 . S
C3649 C3653 1.429 . S
C3650 C3633 1.574 . S
C3650 H3644 0.949 . S
C3650 C3654 1.368 . S
C3651 C3632 1.429 . S
C3651 C3645 1.429 . S
C3651 C3652 1.523 . S
C3652 C3633 1.368 . S
C3652 C3646 1.368 . S
C3652 C3651 1.523 . S
C3653 C3637 1.429 . S
C3653 C3649 1.429 . S
C3653 C3654 1.523 . S
C3654 C3638 1.368 . S
C3654 C3650 1.368 . S
C3654 C3653 1.523 . S
H3655 C3630 0.950 . S
H3656 C3632 0.950 . S
H3657 C3633 0.949 . S
H3658 C3635 0.950 . S
H3659 C3637 0.950 . S
C3660 C3661 1.349 . S
C3660 C3662 1.327 . S
C3660 H3685 0.950 . S
C3661 C3660 1.349 . S
C3661 C3677 1.349 . S
C3662 C3660 1.327 . S
C3662 C3681 1.429 . S
C3662 H3686 0.950 . S
C3663 C3680 1.574 . S
C3663 C3682 1.368 . S
C3663 H3687 0.949 . S
H3664 C3668 0.949 . S
C3665 C3666 1.349 . S
C3665 C3667 1.327 . S
C3665 H3688 0.950 . S
C3666 C3665 1.349 . S
C3666 C3678 1.349 . S
C3667 C3665 1.327 . S
C3667 C3683 1.429 . S
C3667 H3689 0.950 . S
C3668 H3664 0.949 . S
C3668 C3676 1.574 . S
C3668 C3684 1.368 . S
H3669 C3677 0.950 . S
H3670 C3675 0.950 . S
H3671 C3676 0.949 . S
H3672 C3678 0.950 . S
H3673 C3679 0.950 . S
H3674 C3680 0.949 . S
C3675 H3670 0.950 . S
C3675 C3677 1.327 . S
C3675 C3681 1.429 . S
C3676 C3668 1.574 . S
C3676 H3671 0.949 . S
C3676 C3682 1.368 . S
C3677 C3661 1.349 . S
C3677 H3669 0.950 . S
C3677 C3675 1.327 . S
C3678 C3666 1.349 . S
C3678 H3672 0.950 . S
C3678 C3679 1.327 . S
C3679 H3673 0.950 . S
C3679 C3678 1.327 . S
C3679 C3683 1.429 . S
C3680 C3663 1.574 . S
C3680 H3674 0.949 . S
C3680 C3684 1.368 . S
C3681 C3662 1.429 . S
C3681 C3675 1.429 . S
C3681 C3682 1.523 . S
C3682 C3663 1.368 . S
C3682 C3676 1.368 . S
C3682 C3681 1.523 . S
C3683 C3667 1.429 . S
C3683 C3679 1.429 . S
C3683 C3684 1.523 . S
C3684 C3668 1.368 . S
C3684 C3680 1.368 . S
C3684 C3683 1.523 . S
H3685 C3660 0.950 . S
H3686 C3662 0.950 . S
H3687 C3663 0.949 . S
H3688 C3665 0.950 . S
H3689 C3667 0.950 . S
C3690 C3691 1.349 . S
C3690 C3692 1.327 . S
C3690 H3715 0.950 . S
C3691 C3690 1.349 . S
C3691 C3707 1.349 1_554 S
C3692 C3690 1.327 . S
C3692 C3711 1.429 . S
C3692 H3716 0.950 . S
C3693 C3710 1.574 . S
C3693 C3712 1.368 1_556 S
C3693 H3717 0.949 . S
H3694 C3698 0.949 . S
C3695 C3696 1.319 1_556 S
C3695 C3697 1.325 . S
C3695 H3718 0.984 . S
C3696 C3695 1.319 1_554 S
C3696 C3708 1.349 1_545 S
C3697 C3695 1.325 . S
C3697 C3713 1.429 1_546 S
C3697 H3719 0.950 . S
C3698 H3694 0.949 . S
C3698 C3706 1.574 . S
C3698 C3714 1.368 . S
H3699 C3707 0.950 . S
H3700 C3705 0.950 . S
H3701 C3706 0.949 . S
H3702 C3708 0.950 . S
H3703 C3709 0.950 . S
H3704 C3710 0.949 . S
C3705 H3700 0.950 . S
C3705 C3707 1.327 . S
C3705 C3711 1.429 1_556 S
C3706 C3698 1.574 . S
C3706 H3701 0.949 . S
C3706 C3712 1.368 . S
C3707 C3691 1.349 1_556 S
C3707 H3699 0.950 . S
C3707 C3705 1.327 . S
C3708 C3696 1.349 1_565 S
C3708 H3702 0.950 . S
C3708 C3709 1.327 . S
C3709 H3703 0.950 . S
C3709 C3708 1.327 . S
C3709 C3713 1.429 . S
C3710 C3693 1.574 . S
C3710 H3704 0.949 . S
C3710 C3714 1.368 1_556 S
C3711 C3692 1.429 . S
C3711 C3705 1.429 1_554 S
C3711 C3712 1.523 . S
C3712 C3693 1.368 1_554 S
C3712 C3706 1.368 . S
C3712 C3711 1.523 . S
C3713 C3697 1.429 1_564 S
C3713 C3709 1.429 . S
C3713 C3714 1.523 . S
C3714 C3698 1.368 . S
C3714 C3710 1.368 1_554 S
C3714 C3713 1.523 . S
H3715 C3690 0.950 . S
H3716 C3692 0.950 . S
H3717 C3693 0.949 . S
H3718 C3695 0.984 . S
H3719 C3697 0.950 . S
C3720 C3721 1.349 . S
C3720 C3722 1.327 . S
C3720 H3745 0.950 . S
C3721 C3720 1.349 . S
C3721 C3737 1.349 . S
C3722 C3720 1.327 . S
C3722 C3741 1.429 . S
C3722 H3746 0.950 . S
C3723 C3740 1.574 . S
C3723 C3742 1.368 . S
C3723 H3747 0.949 . S
H3724 C3728 0.949 . S
C3725 C3726 1.349 . S
C3725 C3727 1.327 . S
C3725 H3748 0.950 . S
C3726 C3725 1.349 . S
C3726 C3738 1.349 . S
C3727 C3725 1.327 . S
C3727 C3743 1.429 . S
C3727 H3749 0.950 . S
C3728 H3724 0.949 . S
C3728 C3736 1.574 . S
C3728 C3744 1.368 . S
H3729 C3737 0.950 . S
H3730 C3735 0.950 . S
H3731 C3736 0.949 . S
H3732 C3738 0.950 . S
H3733 C3739 0.950 . S
H3734 C3740 0.949 . S
C3735 H3730 0.950 . S
C3735 C3737 1.327 . S
C3735 C3741 1.429 . S
C3736 C3728 1.574 . S
C3736 H3731 0.949 . S
C3736 C3742 1.368 . S
C3737 C3721 1.349 . S
C3737 H3729 0.950 . S
C3737 C3735 1.327 . S
C3738 C3726 1.349 . S
C3738 H3732 0.950 . S
C3738 C3739 1.327 . S
C3739 H3733 0.950 . S
C3739 C3738 1.327 . S
C3739 C3743 1.429 . S
C3740 C3723 1.574 . S
C3740 H3734 0.949 . S
C3740 C3744 1.368 . S
C3741 C3722 1.429 . S
C3741 C3735 1.429 . S
C3741 C3742 1.523 . S
C3742 C3723 1.368 . S
C3742 C3736 1.368 . S
C3742 C3741 1.523 . S
C3743 C3727 1.429 . S
C3743 C3739 1.429 . S
C3743 C3744 1.523 . S
C3744 C3728 1.368 . S
C3744 C3740 1.368 . S
C3744 C3743 1.523 . S
H3745 C3720 0.950 . S
H3746 C3722 0.950 . S
H3747 C3723 0.949 . S
H3748 C3725 0.950 . S
H3749 C3727 0.950 . S
C3750 C3751 1.349 1_556 S
C3750 C3752 1.327 . S
C3750 H3775 0.950 . S
C3751 C3750 1.349 1_554 S
C3751 C3767 1.349 . S
C3752 C3750 1.327 . S
C3752 C3771 1.429 1_556 S
C3752 H3776 0.950 . S
C3753 C3770 1.574 . S
C3753 C3772 1.368 . S
C3753 H3777 0.949 . S
H3754 C3758 0.949 . S
C3755 C3756 1.349 . S
C3755 C3757 1.327 . S
C3755 H3778 0.950 . S
C3756 C3755 1.349 . S
C3756 C3768 1.349 . S
C3757 C3755 1.327 . S
C3757 C3773 1.429 . S
C3757 H3779 0.950 . S
C3758 H3754 0.949 . S
C3758 C3766 1.574 . S
C3758 C3774 1.368 1_556 S
H3759 C3767 0.950 . S
H3760 C3765 0.950 . S
H3761 C3766 0.949 . S
H3762 C3768 0.950 1_556 S
H3763 C3769 0.950 1_556 S
H3764 C3770 0.949 . S
C3765 H3760 0.950 . S
C3765 C3767 1.327 . S
C3765 C3771 1.429 . S
C3766 C3758 1.574 . S
C3766 H3761 0.949 . S
C3766 C3772 1.368 1_556 S
C3767 C3751 1.349 . S
C3767 H3759 0.950 . S
C3767 C3765 1.327 . S
C3768 C3756 1.349 . S
C3768 H3762 0.950 1_554 S
C3768 C3769 1.327 . S
C3769 H3763 0.950 1_554 S
C3769 C3768 1.327 . S
C3769 C3773 1.429 . S
C3770 C3753 1.574 . S
C3770 H3764 0.949 . S
C3770 C3774 1.368 . S
C3771 C3752 1.429 1_554 S
C3771 C3765 1.429 . S
C3771 C3772 1.523 . S
C3772 C3753 1.368 . S
C3772 C3766 1.368 1_554 S
C3772 C3771 1.523 . S
C3773 C3757 1.429 . S
C3773 C3769 1.429 . S
C3773 C3774 1.523 . S
C3774 C3758 1.368 1_554 S
C3774 C3770 1.368 . S
C3774 C3773 1.523 . S
H3775 C3750 0.950 . S
H3776 C3752 0.950 . S
H3777 C3753 0.949 . S
H3778 C3755 0.950 . S
H3779 C3757 0.950 . S
C3780 C3781 1.349 . S
C3780 C3782 1.327 . S
C3780 H3805 0.950 . S
C3781 C3780 1.349 . S
C3781 C3797 1.349 . S
C3782 C3780 1.327 . S
C3782 C3801 1.429 . S
C3782 H3806 0.950 . S
C3783 C3800 1.574 . S
C3783 C3802 1.368 . S
C3783 H3807 0.949 . S
H3784 C3788 0.949 . S
C3785 C3786 1.349 . S
C3785 C3787 1.327 . S
C3785 H3808 0.950 . S
C3786 C3785 1.349 . S
C3786 C3798 1.349 . S
C3787 C3785 1.327 . S
C3787 C3803 1.429 . S
C3787 H3809 0.950 . S
C3788 H3784 0.949 . S
C3788 C3796 1.574 . S
C3788 C3804 1.368 . S
H3789 C3797 0.950 . S
H3790 C3795 0.950 . S
H3791 C3796 0.949 . S
H3792 C3798 0.950 . S
H3793 C3799 0.950 . S
H3794 C3800 0.949 . S
C3795 H3790 0.950 . S
C3795 C3797 1.327 . S
C3795 C3801 1.429 . S
C3796 C3788 1.574 . S
C3796 H3791 0.949 . S
C3796 C3802 1.368 . S
C3797 C3781 1.349 . S
C3797 H3789 0.950 . S
C3797 C3795 1.327 . S
C3798 C3786 1.349 . S
C3798 H3792 0.950 . S
C3798 C3799 1.327 . S
C3799 H3793 0.950 . S
C3799 C3798 1.327 . S
C3799 C3803 1.429 . S
C3800 C3783 1.574 . S
C3800 H3794 0.949 . S
C3800 C3804 1.368 . S
C3801 C3782 1.429 . S
C3801 C3795 1.429 . S
C3801 C3802 1.523 . S
C3802 C3783 1.368 . S
C3802 C3796 1.368 . S
C3802 C3801 1.523 . S
C3803 C3787 1.429 . S
C3803 C3799 1.429 . S
C3803 C3804 1.523 . S
C3804 C3788 1.368 . S
C3804 C3800 1.368 . S
C3804 C3803 1.523 . S
H3805 C3780 0.950 . S
H3806 C3782 0.950 . S
H3807 C3783 0.949 . S
H3808 C3785 0.950 . S
H3809 C3787 0.950 . S
C3810 C3811 1.349 . S
C3810 C3812 1.327 . S
C3810 H3835 0.950 . S
C3811 C3810 1.349 . S
C3811 C3827 1.349 . S
C3812 C3810 1.327 . S
C3812 C3831 1.429 . S
C3812 H3836 0.950 . S
C3813 C3830 1.574 . S
C3813 C3832 1.368 . S
C3813 H3837 0.949 . S
H3814 C3818 0.949 . S
C3815 C3816 1.349 . S
C3815 C3817 1.327 . S
C3815 H3838 0.950 . S
C3816 C3815 1.349 . S
C3816 C3828 1.349 . S
C3817 C3815 1.327 . S
C3817 C3833 1.429 . S
C3817 H3839 0.950 . S
C3818 H3814 0.949 . S
C3818 C3826 1.574 . S
C3818 C3834 1.368 . S
H3819 C3827 0.950 . S
H3820 C3825 0.950 . S
H3821 C3826 0.949 . S
H3822 C3828 0.950 . S
H3823 C3829 0.950 . S
H3824 C3830 0.949 . S
C3825 H3820 0.950 . S
C3825 C3827 1.327 . S
C3825 C3831 1.429 . S
C3826 C3818 1.574 . S
C3826 H3821 0.949 . S
C3826 C3832 1.368 . S
C3827 C3811 1.349 . S
C3827 H3819 0.950 . S
C3827 C3825 1.327 . S
C3828 C3816 1.349 . S
C3828 H3822 0.950 . S
C3828 C3829 1.327 . S
C3829 H3823 0.950 . S
C3829 C3828 1.327 . S
C3829 C3833 1.429 . S
C3830 C3813 1.574 . S
C3830 H3824 0.949 . S
C3830 C3834 1.368 . S
C3831 C3812 1.429 . S
C3831 C3825 1.429 . S
C3831 C3832 1.523 . S
C3832 C3813 1.368 . S
C3832 C3826 1.368 . S
C3832 C3831 1.523 . S
C3833 C3817 1.429 . S
C3833 C3829 1.429 . S
C3833 C3834 1.523 . S
C3834 C3818 1.368 . S
C3834 C3830 1.368 . S
C3834 C3833 1.523 . S
H3835 C3810 0.950 . S
H3836 C3812 0.950 . S
H3837 C3813 0.949 . S
H3838 C3815 0.950 . S
H3839 C3817 0.950 . S
C3840 C3841 1.349 . S
C3840 C3842 1.327 . S
C3840 H3865 0.950 . S
C3841 C3840 1.349 . S
C3841 C3857 1.349 . S
C3842 C3840 1.327 . S
C3842 C3861 1.429 . S
C3842 H3866 0.950 . S
C3843 C3860 1.574 . S
C3843 C3862 1.368 . S
C3843 H3867 0.949 . S
H3844 C3848 0.949 . S
C3845 C3846 1.349 . S
C3845 C3847 1.327 . S
C3845 H3868 0.950 . S
C3846 C3845 1.349 . S
C3846 C3858 1.349 . S
C3847 C3845 1.327 . S
C3847 C3863 1.429 . S
C3847 H3869 0.950 . S
C3848 H3844 0.949 . S
C3848 C3856 1.574 . S
C3848 C3864 1.368 . S
H3849 C3857 0.950 . S
H3850 C3855 0.950 . S
H3851 C3856 0.949 . S
H3852 C3858 0.950 . S
H3853 C3859 0.950 . S
H3854 C3860 0.949 . S
C3855 H3850 0.950 . S
C3855 C3857 1.327 . S
C3855 C3861 1.429 . S
C3856 C3848 1.574 . S
C3856 H3851 0.949 . S
C3856 C3862 1.368 . S
C3857 C3841 1.349 . S
C3857 H3849 0.950 . S
C3857 C3855 1.327 . S
C3858 C3846 1.349 . S
C3858 H3852 0.950 . S
C3858 C3859 1.327 . S
C3859 H3853 0.950 . S
C3859 C3858 1.327 . S
C3859 C3863 1.429 . S
C3860 C3843 1.574 . S
C3860 H3854 0.949 . S
C3860 C3864 1.368 . S
C3861 C3842 1.429 . S
C3861 C3855 1.429 . S
C3861 C3862 1.523 . S
C3862 C3843 1.368 . S
C3862 C3856 1.368 . S
C3862 C3861 1.523 . S
C3863 C3847 1.429 . S
C3863 C3859 1.429 . S
C3863 C3864 1.523 . S
C3864 C3848 1.368 . S
C3864 C3860 1.368 . S
C3864 C3863 1.523 . S
H3865 C3840 0.950 . S
H3866 C3842 0.950 . S
H3867 C3843 0.949 . S
H3868 C3845 0.950 . S
H3869 C3847 0.950 . S
C3870 C3871 1.349 . S
C3870 C3872 1.327 . S
C3870 H3895 0.950 . S
C3871 C3870 1.349 . S
C3871 C3887 1.349 . S
C3872 C3870 1.327 . S
C3872 C3891 1.429 . S
C3872 H3896 0.950 . S
C3873 C3890 1.574 . S
C3873 C3892 1.368 . S
C3873 H3897 0.949 . S
H3874 C3878 0.949 . S
C3875 C3876 1.349 . S
C3875 C3877 1.327 . S
C3875 H3898 0.950 . S
C3876 C3875 1.349 . S
C3876 C3888 1.349 . S
C3877 C3875 1.327 . S
C3877 C3893 1.429 . S
C3877 H3899 0.950 . S
C3878 H3874 0.949 . S
C3878 C3886 1.574 . S
C3878 C3894 1.368 . S
H3879 C3887 0.950 . S
H3880 C3885 0.950 . S
H3881 C3886 0.949 . S
H3882 C3888 0.950 . S
H3883 C3889 0.950 . S
H3884 C3890 0.949 . S
C3885 H3880 0.950 . S
C3885 C3887 1.327 . S
C3885 C3891 1.429 . S
C3886 C3878 1.574 . S
C3886 H3881 0.949 . S
C3886 C3892 1.368 . S
C3887 C3871 1.349 . S
C3887 H3879 0.950 . S
C3887 C3885 1.327 . S
C3888 C3876 1.349 . S
C3888 H3882 0.950 . S
C3888 C3889 1.327 . S
C3889 H3883 0.950 . S
C3889 C3888 1.327 . S
C3889 C3893 1.429 . S
C3890 C3873 1.574 . S
C3890 H3884 0.949 . S
C3890 C3894 1.368 . S
C3891 C3872 1.429 . S
C3891 C3885 1.429 . S
C3891 C3892 1.523 . S
C3892 C3873 1.368 . S
C3892 C3886 1.368 . S
C3892 C3891 1.523 . S
C3893 C3877 1.429 . S
C3893 C3889 1.429 . S
C3893 C3894 1.523 . S
C3894 C3878 1.368 . S
C3894 C3890 1.368 . S
C3894 C3893 1.523 . S
H3895 C3870 0.950 . S
H3896 C3872 0.950 . S
H3897 C3873 0.949 . S
H3898 C3875 0.950 . S
H3899 C3877 0.950 . S
C3900 C3901 1.349 . S
C3900 C3902 1.327 . S
C3900 H3925 0.950 . S
C3901 C3900 1.349 . S
C3901 C3917 1.349 . S
C3902 C3900 1.327 . S
C3902 C3921 1.429 . S
C3902 H3926 0.950 . S
C3903 C3920 1.574 . S
C3903 C3922 1.368 . S
C3903 H3927 0.949 . S
H3904 C3908 0.949 . S
C3905 C3906 1.349 . S
C3905 C3907 1.327 . S
C3905 H3928 0.950 . S
C3906 C3905 1.349 . S
C3906 C3918 1.349 . S
C3907 C3905 1.327 . S
C3907 C3923 1.429 . S
C3907 H3929 0.950 . S
C3908 H3904 0.949 . S
C3908 C3916 1.574 . S
C3908 C3924 1.368 . S
H3909 C3917 0.950 . S
H3910 C3915 0.950 . S
H3911 C3916 0.949 . S
H3912 C3918 0.950 . S
H3913 C3919 0.950 . S
H3914 C3920 0.949 . S
C3915 H3910 0.950 . S
C3915 C3917 1.327 . S
C3915 C3921 1.429 . S
C3916 C3908 1.574 . S
C3916 H3911 0.949 . S
C3916 C3922 1.368 . S
C3917 C3901 1.349 . S
C3917 H3909 0.950 . S
C3917 C3915 1.327 . S
C3918 C3906 1.349 . S
C3918 H3912 0.950 . S
C3918 C3919 1.327 . S
C3919 H3913 0.950 . S
C3919 C3918 1.327 . S
C3919 C3923 1.429 . S
C3920 C3903 1.574 . S
C3920 H3914 0.949 . S
C3920 C3924 1.368 . S
C3921 C3902 1.429 . S
C3921 C3915 1.429 . S
C3921 C3922 1.523 . S
C3922 C3903 1.368 . S
C3922 C3916 1.368 . S
C3922 C3921 1.523 . S
C3923 C3907 1.429 . S
C3923 C3919 1.429 . S
C3923 C3924 1.523 . S
C3924 C3908 1.368 . S
C3924 C3920 1.368 . S
C3924 C3923 1.523 . S
H3925 C3900 0.950 . S
H3926 C3902 0.950 . S
H3927 C3903 0.949 . S
H3928 C3905 0.950 . S
H3929 C3907 0.950 . S
C3930 C3931 1.349 . S
C3930 C3932 1.327 . S
C3930 H3955 0.950 . S
C3931 C3930 1.349 . S
C3931 C3947 1.349 . S
C3932 C3930 1.327 . S
C3932 C3951 1.429 . S
C3932 H3956 0.950 . S
C3933 C3950 1.574 . S
C3933 C3952 1.368 . S
C3933 H3957 0.949 . S
H3934 C3938 0.949 . S
C3935 C3936 1.349 . S
C3935 C3937 1.327 . S
C3935 H3958 0.950 . S
C3936 C3935 1.349 . S
C3936 C3948 1.349 . S
C3937 C3935 1.327 . S
C3937 C3953 1.429 . S
C3937 H3959 0.950 . S
C3938 H3934 0.949 . S
C3938 C3946 1.574 . S
C3938 C3954 1.368 . S
H3939 C3947 0.950 . S
H3940 C3945 0.950 . S
H3941 C3946 0.949 . S
H3942 C3948 0.950 . S
H3943 C3949 0.950 . S
H3944 C3950 0.949 . S
C3945 H3940 0.950 . S
C3945 C3947 1.327 . S
C3945 C3951 1.429 . S
C3946 C3938 1.574 . S
C3946 H3941 0.949 . S
C3946 C3952 1.368 . S
C3947 C3931 1.349 . S
C3947 H3939 0.950 . S
C3947 C3945 1.327 . S
C3948 C3936 1.349 . S
C3948 H3942 0.950 . S
C3948 C3949 1.327 . S
C3949 H3943 0.950 . S
C3949 C3948 1.327 . S
C3949 C3953 1.429 . S
C3950 C3933 1.574 . S
C3950 H3944 0.949 . S
C3950 C3954 1.368 . S
C3951 C3932 1.429 . S
C3951 C3945 1.429 . S
C3951 C3952 1.523 . S
C3952 C3933 1.368 . S
C3952 C3946 1.368 . S
C3952 C3951 1.523 . S
C3953 C3937 1.429 . S
C3953 C3949 1.429 . S
C3953 C3954 1.523 . S
C3954 C3938 1.368 . S
C3954 C3950 1.368 . S
C3954 C3953 1.523 . S
H3955 C3930 0.950 . S
H3956 C3932 0.950 . S
H3957 C3933 0.949 . S
H3958 C3935 0.950 . S
H3959 C3937 0.950 . S
C3960 C3961 1.349 . S
C3960 C3962 1.327 . S
C3960 H3985 0.950 . S
C3961 C3960 1.349 . S
C3961 C3977 1.349 . S
C3962 C3960 1.327 . S
C3962 C3981 1.429 . S
C3962 H3986 0.950 . S
C3963 C3980 1.574 . S
C3963 C3982 1.368 . S
C3963 H3987 0.949 . S
H3964 C3968 0.949 . S
C3965 C3966 1.349 . S
C3965 C3967 1.327 . S
C3965 H3988 0.950 . S
C3966 C3965 1.349 . S
C3966 C3978 1.349 . S
C3967 C3965 1.327 . S
C3967 C3983 1.429 . S
C3967 H3989 0.950 . S
C3968 H3964 0.949 . S
C3968 C3976 1.574 . S
C3968 C3984 1.368 . S
H3969 C3977 0.950 . S
H3970 C3975 0.950 . S
H3971 C3976 0.949 . S
H3972 C3978 0.950 . S
H3973 C3979 0.950 . S
H3974 C3980 0.949 . S
C3975 H3970 0.950 . S
C3975 C3977 1.327 . S
C3975 C3981 1.429 . S
C3976 C3968 1.574 . S
C3976 H3971 0.949 . S
C3976 C3982 1.368 . S
C3977 C3961 1.349 . S
C3977 H3969 0.950 . S
C3977 C3975 1.327 . S
C3978 C3966 1.349 . S
C3978 H3972 0.950 . S
C3978 C3979 1.327 . S
C3979 H3973 0.950 . S
C3979 C3978 1.327 . S
C3979 C3983 1.429 . S
C3980 C3963 1.574 . S
C3980 H3974 0.949 . S
C3980 C3984 1.368 . S
C3981 C3962 1.429 . S
C3981 C3975 1.429 . S
C3981 C3982 1.523 . S
C3982 C3963 1.368 . S
C3982 C3976 1.368 . S
C3982 C3981 1.523 . S
C3983 C3967 1.429 . S
C3983 C3979 1.429 . S
C3983 C3984 1.523 . S
C3984 C3968 1.368 . S
C3984 C3980 1.368 . S
C3984 C3983 1.523 . S
H3985 C3960 0.950 . S
H3986 C3962 0.950 . S
H3987 C3963 0.949 . S
H3988 C3965 0.950 . S
H3989 C3967 0.950 . S
C3990 C3991 1.349 . S
C3990 C3992 1.327 . S
C3990 H4015 0.950 . S
C3991 C3990 1.349 . S
C3991 C4007 1.349 . S
C3992 C3990 1.327 . S
C3992 C4011 1.429 . S
C3992 H4016 0.950 . S
C3993 C4010 1.574 . S
C3993 C4012 1.368 . S
C3993 H4017 0.949 . S
H3994 C3998 0.949 . S
C3995 C3996 1.349 . S
C3995 C3997 1.327 . S
C3995 H4018 0.950 . S
C3996 C3995 1.349 . S
C3996 C4008 1.349 . S
C3997 C3995 1.327 . S
C3997 C4013 1.429 . S
C3997 H4019 0.950 . S
C3998 H3994 0.949 . S
C3998 C4006 1.574 . S
C3998 C4014 1.368 . S
H3999 C4007 0.950 . S
H4000 C4005 0.950 . S
H4001 C4006 0.949 . S
H4002 C4008 0.950 . S
H4003 C4009 0.950 . S
H4004 C4010 0.949 . S
C4005 H4000 0.950 . S
C4005 C4007 1.327 . S
C4005 C4011 1.429 . S
C4006 C3998 1.574 . S
C4006 H4001 0.949 . S
C4006 C4012 1.368 . S
C4007 C3991 1.349 . S
C4007 H3999 0.950 . S
C4007 C4005 1.327 . S
C4008 C3996 1.349 . S
C4008 H4002 0.950 . S
C4008 C4009 1.327 . S
C4009 H4003 0.950 . S
C4009 C4008 1.327 . S
C4009 C4013 1.429 . S
C4010 C3993 1.574 . S
C4010 H4004 0.949 . S
C4010 C4014 1.368 . S
C4011 C3992 1.429 . S
C4011 C4005 1.429 . S
C4011 C4012 1.523 . S
C4012 C3993 1.368 . S
C4012 C4006 1.368 . S
C4012 C4011 1.523 . S
C4013 C3997 1.429 . S
C4013 C4009 1.429 . S
C4013 C4014 1.523 . S
C4014 C3998 1.368 . S
C4014 C4010 1.368 . S
C4014 C4013 1.523 . S
H4015 C3990 0.950 . S
H4016 C3992 0.950 . S
H4017 C3993 0.949 . S
H4018 C3995 0.950 . S
H4019 C3997 0.950 . S
C4020 C4021 1.349 . S
C4020 C4022 1.327 . S
C4020 H4045 0.950 . S
C4021 C4020 1.349 . S
C4021 C4037 1.349 . S
C4022 C4020 1.327 . S
C4022 C4041 1.429 . S
C4022 H4046 0.950 . S
C4023 C4040 1.574 . S
C4023 C4042 1.368 . S
C4023 H4047 0.949 . S
H4024 C4028 0.949 . S
C4025 C4026 1.349 . S
C4025 C4027 1.327 . S
C4025 H4048 0.950 . S
C4026 C4025 1.349 . S
C4026 C4038 1.349 . S
C4027 C4025 1.327 . S
C4027 C4043 1.429 . S
C4027 H4049 0.950 . S
C4028 H4024 0.949 . S
C4028 C4036 1.574 . S
C4028 C4044 1.368 . S
H4029 C4037 0.950 . S
H4030 C4035 0.950 . S
H4031 C4036 0.949 . S
H4032 C4038 0.950 . S
H4033 C4039 0.950 . S
H4034 C4040 0.949 . S
C4035 H4030 0.950 . S
C4035 C4037 1.327 . S
C4035 C4041 1.429 . S
C4036 C4028 1.574 . S
C4036 H4031 0.949 . S
C4036 C4042 1.368 . S
C4037 C4021 1.349 . S
C4037 H4029 0.950 . S
C4037 C4035 1.327 . S
C4038 C4026 1.349 . S
C4038 H4032 0.950 . S
C4038 C4039 1.327 . S
C4039 H4033 0.950 . S
C4039 C4038 1.327 . S
C4039 C4043 1.429 . S
C4040 C4023 1.574 . S
C4040 H4034 0.949 . S
C4040 C4044 1.368 . S
C4041 C4022 1.429 . S
C4041 C4035 1.429 . S
C4041 C4042 1.523 . S
C4042 C4023 1.368 . S
C4042 C4036 1.368 . S
C4042 C4041 1.523 . S
C4043 C4027 1.429 . S
C4043 C4039 1.429 . S
C4043 C4044 1.523 . S
C4044 C4028 1.368 . S
C4044 C4040 1.368 . S
C4044 C4043 1.523 . S
H4045 C4020 0.950 . S
H4046 C4022 0.950 . S
H4047 C4023 0.949 . S
H4048 C4025 0.950 . S
H4049 C4027 0.950 . S
C4050 C4051 1.349 . S
C4050 C4052 1.327 . S
C4050 H4075 0.950 . S
C4051 C4050 1.349 . S
C4051 C4067 1.349 . S
C4052 C4050 1.327 . S
C4052 C4071 1.429 . S
C4052 H4076 0.950 . S
C4053 C4070 1.574 . S
C4053 C4072 1.368 . S
C4053 H4077 0.949 . S
H4054 C4058 0.949 . S
C4055 C4056 1.349 . S
C4055 C4057 1.327 . S
C4055 H4078 0.950 . S
C4056 C4055 1.349 . S
C4056 C4068 1.349 . S
C4057 C4055 1.327 . S
C4057 C4073 1.429 . S
C4057 H4079 0.950 . S
C4058 H4054 0.949 . S
C4058 C4066 1.574 . S
C4058 C4074 1.368 . S
H4059 C4067 0.950 . S
H4060 C4065 0.950 . S
H4061 C4066 0.949 . S
H4062 C4068 0.950 . S
H4063 C4069 0.950 . S
H4064 C4070 0.949 . S
C4065 H4060 0.950 . S
C4065 C4067 1.327 . S
C4065 C4071 1.429 . S
C4066 C4058 1.574 . S
C4066 H4061 0.949 . S
C4066 C4072 1.368 . S
C4067 C4051 1.349 . S
C4067 H4059 0.950 . S
C4067 C4065 1.327 . S
C4068 C4056 1.349 . S
C4068 H4062 0.950 . S
C4068 C4069 1.327 . S
C4069 H4063 0.950 . S
C4069 C4068 1.327 . S
C4069 C4073 1.429 . S
C4070 C4053 1.574 . S
C4070 H4064 0.949 . S
C4070 C4074 1.368 . S
C4071 C4052 1.429 . S
C4071 C4065 1.429 . S
C4071 C4072 1.523 . S
C4072 C4053 1.368 . S
C4072 C4066 1.368 . S
C4072 C4071 1.523 . S
C4073 C4057 1.429 . S
C4073 C4069 1.429 . S
C4073 C4074 1.523 . S
C4074 C4058 1.368 . S
C4074 C4070 1.368 . S
C4074 C4073 1.523 . S
H4075 C4050 0.950 . S
H4076 C4052 0.950 . S
H4077 C4053 0.949 . S
H4078 C4055 0.950 . S
H4079 C4057 0.950 . S
C4080 C4081 1.349 . S
C4080 C4082 1.327 . S
C4080 H4105 0.950 . S
C4081 C4080 1.349 . S
C4081 C4097 1.349 . S
C4082 C4080 1.327 . S
C4082 C4101 1.429 . S
C4082 H4106 0.950 . S
C4083 C4100 1.574 . S
C4083 C4102 1.368 . S
C4083 H4107 0.949 . S
H4084 C4088 0.949 . S
C4085 C4086 1.349 . S
C4085 C4087 1.327 . S
C4085 H4108 0.950 . S
C4086 C4085 1.349 . S
C4086 C4098 1.349 . S
C4087 C4085 1.327 . S
C4087 C4103 1.429 . S
C4087 H4109 0.950 . S
C4088 H4084 0.949 . S
C4088 C4096 1.574 . S
C4088 C4104 1.368 . S
H4089 C4097 0.950 . S
H4090 C4095 0.950 . S
H4091 C4096 0.949 . S
H4092 C4098 0.950 . S
H4093 C4099 0.950 . S
H4094 C4100 0.949 . S
C4095 H4090 0.950 . S
C4095 C4097 1.327 . S
C4095 C4101 1.429 . S
C4096 C4088 1.574 . S
C4096 H4091 0.949 . S
C4096 C4102 1.368 . S
C4097 C4081 1.349 . S
C4097 H4089 0.950 . S
C4097 C4095 1.327 . S
C4098 C4086 1.349 . S
C4098 H4092 0.950 . S
C4098 C4099 1.327 . S
C4099 H4093 0.950 . S
C4099 C4098 1.327 . S
C4099 C4103 1.429 . S
C4100 C4083 1.574 . S
C4100 H4094 0.949 . S
C4100 C4104 1.368 . S
C4101 C4082 1.429 . S
C4101 C4095 1.429 . S
C4101 C4102 1.523 . S
C4102 C4083 1.368 . S
C4102 C4096 1.368 . S
C4102 C4101 1.523 . S
C4103 C4087 1.429 . S
C4103 C4099 1.429 . S
C4103 C4104 1.523 . S
C4104 C4088 1.368 . S
C4104 C4100 1.368 . S
C4104 C4103 1.523 . S
H4105 C4080 0.950 . S
H4106 C4082 0.950 . S
H4107 C4083 0.949 . S
H4108 C4085 0.950 . S
H4109 C4087 0.950 . S
C4110 C4111 1.349 . S
C4110 C4112 1.327 . S
C4110 H4135 0.950 . S
C4111 C4110 1.349 . S
C4111 C4127 1.349 . S
C4112 C4110 1.327 . S
C4112 C4131 1.429 . S
C4112 H4136 0.950 . S
C4113 C4130 1.574 . S
C4113 C4132 1.368 . S
C4113 H4137 0.949 . S
H4114 C4118 0.949 . S
C4115 C4116 1.349 . S
C4115 C4117 1.327 . S
C4115 H4138 0.950 . S
C4116 C4115 1.349 . S
C4116 C4128 1.349 . S
C4117 C4115 1.327 . S
C4117 C4133 1.429 . S
C4117 H4139 0.950 . S
C4118 H4114 0.949 . S
C4118 C4126 1.574 . S
C4118 C4134 1.368 . S
H4119 C4127 0.950 . S
H4120 C4125 0.950 . S
H4121 C4126 0.949 . S
H4122 C4128 0.950 . S
H4123 C4129 0.950 . S
H4124 C4130 0.949 . S
C4125 H4120 0.950 . S
C4125 C4127 1.327 . S
C4125 C4131 1.429 . S
C4126 C4118 1.574 . S
C4126 H4121 0.949 . S
C4126 C4132 1.368 . S
C4127 C4111 1.349 . S
C4127 H4119 0.950 . S
C4127 C4125 1.327 . S
C4128 C4116 1.349 . S
C4128 H4122 0.950 . S
C4128 C4129 1.327 . S
C4129 H4123 0.950 . S
C4129 C4128 1.327 . S
C4129 C4133 1.429 . S
C4130 C4113 1.574 . S
C4130 H4124 0.949 . S
C4130 C4134 1.368 . S
C4131 C4112 1.429 . S
C4131 C4125 1.429 . S
C4131 C4132 1.523 . S
C4132 C4113 1.368 . S
C4132 C4126 1.368 . S
C4132 C4131 1.523 . S
C4133 C4117 1.429 . S
C4133 C4129 1.429 . S
C4133 C4134 1.523 . S
C4134 C4118 1.368 . S
C4134 C4130 1.368 . S
C4134 C4133 1.523 . S
H4135 C4110 0.950 . S
H4136 C4112 0.950 . S
H4137 C4113 0.949 . S
H4138 C4115 0.950 . S
H4139 C4117 0.950 . S
C4140 C4141 1.349 . S
C4140 C4142 1.327 . S
C4140 H4165 0.950 . S
C4141 C4140 1.349 . S
C4141 C4157 1.349 . S
C4142 C4140 1.327 . S
C4142 C4161 1.429 . S
C4142 H4166 0.950 . S
C4143 C4160 1.574 . S
C4143 C4162 1.368 . S
C4143 H4167 0.949 . S
H4144 C4148 0.949 . S
C4145 C4146 1.349 . S
C4145 C4147 1.327 . S
C4145 H4168 0.950 . S
C4146 C4145 1.349 . S
C4146 C4158 1.349 . S
C4147 C4145 1.327 . S
C4147 C4163 1.429 . S
C4147 H4169 0.950 . S
C4148 H4144 0.949 . S
C4148 C4156 1.574 . S
C4148 C4164 1.368 . S
H4149 C4157 0.950 . S
H4150 C4155 0.950 . S
H4151 C4156 0.949 . S
H4152 C4158 0.950 1_455 S
H4153 C4159 0.950 . S
H4154 C4160 0.949 . S
C4155 H4150 0.950 . S
C4155 C4157 1.327 . S
C4155 C4161 1.429 . S
C4156 C4148 1.574 . S
C4156 H4151 0.949 . S
C4156 C4162 1.368 . S
C4157 C4141 1.349 . S
C4157 H4149 0.950 . S
C4157 C4155 1.327 . S
C4158 C4146 1.349 . S
C4158 H4152 0.950 1_655 S
C4158 C4159 1.327 . S
C4159 H4153 0.950 . S
C4159 C4158 1.327 . S
C4159 C4163 1.429 . S
C4160 C4143 1.574 . S
C4160 H4154 0.949 . S
C4160 C4164 1.368 . S
C4161 C4142 1.429 . S
C4161 C4155 1.429 . S
C4161 C4162 1.523 . S
C4162 C4143 1.368 . S
C4162 C4156 1.368 . S
C4162 C4161 1.523 . S
C4163 C4147 1.429 . S
C4163 C4159 1.429 . S
C4163 C4164 1.523 . S
C4164 C4148 1.368 . S
C4164 C4160 1.368 . S
C4164 C4163 1.523 . S
H4165 C4140 0.950 . S
H4166 C4142 0.950 . S
H4167 C4143 0.949 . S
H4168 C4145 0.950 . S
H4169 C4147 0.950 . S
C4170 C4171 1.349 . S
C4170 C4172 1.327 . S
C4170 H4195 0.950 . S
C4171 C4170 1.349 . S
C4171 C4187 1.349 . S
C4172 C4170 1.327 . S
C4172 C4191 1.429 . S
C4172 H4196 0.950 . S
C4173 C4190 1.574 . S
C4173 C4192 1.368 . S
C4173 H4197 0.949 . S
H4174 C4178 0.949 . S
C4175 C4176 1.349 . S
C4175 C4177 1.327 . S
C4175 H4198 0.950 . S
C4176 C4175 1.349 . S
C4176 C4188 1.349 . S
C4177 C4175 1.327 . S
C4177 C4193 1.429 . S
C4177 H4199 0.950 . S
C4178 H4174 0.949 . S
C4178 C4186 1.574 . S
C4178 C4194 1.368 . S
H4179 C4187 0.950 . S
H4180 C4185 0.950 . S
H4181 C4186 0.949 . S
H4182 C4188 0.950 . S
H4183 C4189 0.950 . S
H4184 C4190 0.949 . S
C4185 H4180 0.950 . S
C4185 C4187 1.327 . S
C4185 C4191 1.429 . S
C4186 C4178 1.574 . S
C4186 H4181 0.949 . S
C4186 C4192 1.368 . S
C4187 C4171 1.349 . S
C4187 H4179 0.950 . S
C4187 C4185 1.327 . S
C4188 C4176 1.349 . S
C4188 H4182 0.950 . S
C4188 C4189 1.327 . S
C4189 H4183 0.950 . S
C4189 C4188 1.327 . S
C4189 C4193 1.429 . S
C4190 C4173 1.574 . S
C4190 H4184 0.949 . S
C4190 C4194 1.368 . S
C4191 C4172 1.429 . S
C4191 C4185 1.429 . S
C4191 C4192 1.523 . S
C4192 C4173 1.368 . S
C4192 C4186 1.368 . S
C4192 C4191 1.523 . S
C4193 C4177 1.429 . S
C4193 C4189 1.429 . S
C4193 C4194 1.523 . S
C4194 C4178 1.368 . S
C4194 C4190 1.368 . S
C4194 C4193 1.523 . S
H4195 C4170 0.950 . S
H4196 C4172 0.950 . S
H4197 C4173 0.949 . S
H4198 C4175 0.950 . S
H4199 C4177 0.950 . S
C4200 C4201 1.349 . S
C4200 C4202 1.327 . S
C4200 H4225 0.950 . S
C4201 C4200 1.349 . S
C4201 C4217 1.349 . S
C4202 C4200 1.327 . S
C4202 C4221 1.429 . S
C4202 H4226 0.950 . S
C4203 C4220 1.574 . S
C4203 C4222 1.368 . S
C4203 H4227 0.949 . S
H4204 C4208 0.949 . S
C4205 C4206 1.349 . S
C4205 C4207 1.327 . S
C4205 H4228 0.950 . S
C4206 C4205 1.349 . S
C4206 C4218 1.349 . S
C4207 C4205 1.327 . S
C4207 C4223 1.429 . S
C4207 H4229 0.950 . S
C4208 H4204 0.949 . S
C4208 C4216 1.574 . S
C4208 C4224 1.368 . S
H4209 C4217 0.950 . S
H4210 C4215 0.950 . S
H4211 C4216 0.949 . S
H4212 C4218 0.950 . S
H4213 C4219 0.950 . S
H4214 C4220 0.949 . S
C4215 H4210 0.950 . S
C4215 C4217 1.327 . S
C4215 C4221 1.429 . S
C4216 C4208 1.574 . S
C4216 H4211 0.949 . S
C4216 C4222 1.368 . S
C4217 C4201 1.349 . S
C4217 H4209 0.950 . S
C4217 C4215 1.327 . S
C4218 C4206 1.349 . S
C4218 H4212 0.950 . S
C4218 C4219 1.327 . S
C4219 H4213 0.950 . S
C4219 C4218 1.327 . S
C4219 C4223 1.429 . S
C4220 C4203 1.574 . S
C4220 H4214 0.949 . S
C4220 C4224 1.368 . S
C4221 C4202 1.429 . S
C4221 C4215 1.429 . S
C4221 C4222 1.523 . S
C4222 C4203 1.368 . S
C4222 C4216 1.368 . S
C4222 C4221 1.523 . S
C4223 C4207 1.429 . S
C4223 C4219 1.429 . S
C4223 C4224 1.523 . S
C4224 C4208 1.368 . S
C4224 C4220 1.368 . S
C4224 C4223 1.523 . S
H4225 C4200 0.950 . S
H4226 C4202 0.950 . S
H4227 C4203 0.949 . S
H4228 C4205 0.950 . S
H4229 C4207 0.950 . S
C4230 C4231 1.349 . S
C4230 C4232 1.327 . S
C4230 H4255 0.950 . S
C4231 C4230 1.349 . S
C4231 C4247 1.349 . S
C4232 C4230 1.327 . S
C4232 C4251 1.429 . S
C4232 H4256 0.950 . S
C4233 C4250 1.574 . S
C4233 C4252 1.368 . S
C4233 H4257 0.949 . S
H4234 C4238 0.949 . S
C4235 C4236 1.349 . S
C4235 C4237 1.327 . S
C4235 H4258 0.950 . S
C4236 C4235 1.349 . S
C4236 C4248 1.349 . S
C4237 C4235 1.327 . S
C4237 C4253 1.429 . S
C4237 H4259 0.950 . S
C4238 H4234 0.949 . S
C4238 C4246 1.574 . S
C4238 C4254 1.368 . S
H4239 C4247 0.950 . S
H4240 C4245 0.950 . S
H4241 C4246 0.949 . S
H4242 C4248 0.950 . S
H4243 C4249 0.950 . S
H4244 C4250 0.949 . S
C4245 H4240 0.950 . S
C4245 C4247 1.327 . S
C4245 C4251 1.429 . S
C4246 C4238 1.574 . S
C4246 H4241 0.949 . S
C4246 C4252 1.368 . S
C4247 C4231 1.349 . S
C4247 H4239 0.950 . S
C4247 C4245 1.327 . S
C4248 C4236 1.349 . S
C4248 H4242 0.950 . S
C4248 C4249 1.327 . S
C4249 H4243 0.950 . S
C4249 C4248 1.327 . S
C4249 C4253 1.429 . S
C4250 C4233 1.574 . S
C4250 H4244 0.949 . S
C4250 C4254 1.368 . S
C4251 C4232 1.429 . S
C4251 C4245 1.429 . S
C4251 C4252 1.523 . S
C4252 C4233 1.368 . S
C4252 C4246 1.368 . S
C4252 C4251 1.523 . S
C4253 C4237 1.429 . S
C4253 C4249 1.429 . S
C4253 C4254 1.523 . S
C4254 C4238 1.368 . S
C4254 C4250 1.368 . S
C4254 C4253 1.523 . S
H4255 C4230 0.950 . S
H4256 C4232 0.950 . S
H4257 C4233 0.949 . S
H4258 C4235 0.950 . S
H4259 C4237 0.950 . S
C4260 C4261 1.349 . S
C4260 C4262 1.327 . S
C4260 H4285 0.950 . S
C4261 C4260 1.349 . S
C4261 C4277 1.349 . S
C4262 C4260 1.327 . S
C4262 C4281 1.429 . S
C4262 H4286 0.950 . S
C4263 C4280 1.574 . S
C4263 C4282 1.368 . S
C4263 H4287 0.949 . S
H4264 C4268 0.949 . S
C4265 C4266 1.349 . S
C4265 C4267 1.327 . S
C4265 H4288 0.950 . S
C4266 C4265 1.349 . S
C4266 C4278 1.349 . S
C4267 C4265 1.327 . S
C4267 C4283 1.429 . S
C4267 H4289 0.950 . S
C4268 H4264 0.949 . S
C4268 C4276 1.574 . S
C4268 C4284 1.368 . S
H4269 C4277 0.950 . S
H4270 C4275 0.950 . S
H4271 C4276 0.949 . S
H4272 C4278 0.950 . S
H4273 C4279 0.950 . S
H4274 C4280 0.949 . S
C4275 H4270 0.950 . S
C4275 C4277 1.327 . S
C4275 C4281 1.429 . S
C4276 C4268 1.574 . S
C4276 H4271 0.949 . S
C4276 C4282 1.368 . S
C4277 C4261 1.349 . S
C4277 H4269 0.950 . S
C4277 C4275 1.327 . S
C4278 C4266 1.349 . S
C4278 H4272 0.950 . S
C4278 C4279 1.327 . S
C4279 H4273 0.950 . S
C4279 C4278 1.327 . S
C4279 C4283 1.429 . S
C4280 C4263 1.574 . S
C4280 H4274 0.949 . S
C4280 C4284 1.368 . S
C4281 C4262 1.429 . S
C4281 C4275 1.429 . S
C4281 C4282 1.523 . S
C4282 C4263 1.368 . S
C4282 C4276 1.368 . S
C4282 C4281 1.523 . S
C4283 C4267 1.429 . S
C4283 C4279 1.429 . S
C4283 C4284 1.523 . S
C4284 C4268 1.368 . S
C4284 C4280 1.368 . S
C4284 C4283 1.523 . S
H4285 C4260 0.950 . S
H4286 C4262 0.950 . S
H4287 C4263 0.949 . S
H4288 C4265 0.950 . S
H4289 C4267 0.950 . S
C4290 C4291 1.349 . S
C4290 C4292 1.327 . S
C4290 H4315 0.950 . S
C4291 C4290 1.349 . S
C4291 C4307 1.349 . S
C4292 C4290 1.327 . S
C4292 C4311 1.429 . S
C4292 H4316 0.950 . S
C4293 C4310 1.574 . S
C4293 C4312 1.368 . S
C4293 H4317 0.949 . S
H4294 C4298 0.949 . S
C4295 C4296 1.349 . S
C4295 C4297 1.327 . S
C4295 H4318 0.950 . S
C4296 C4295 1.349 . S
C4296 C4308 1.349 . S
C4297 C4295 1.327 . S
C4297 C4313 1.429 . S
C4297 H4319 0.950 . S
C4298 H4294 0.949 . S
C4298 C4306 1.574 . S
C4298 C4314 1.368 . S
H4299 C4307 0.950 . S
H4300 C4305 0.950 . S
H4301 C4306 0.949 . S
H4302 C4308 0.950 . S
H4303 C4309 0.950 . S
H4304 C4310 0.949 . S
C4305 H4300 0.950 . S
C4305 C4307 1.327 . S
C4305 C4311 1.429 . S
C4306 C4298 1.574 . S
C4306 H4301 0.949 . S
C4306 C4312 1.368 . S
C4307 C4291 1.349 . S
C4307 H4299 0.950 . S
C4307 C4305 1.327 . S
C4308 C4296 1.349 . S
C4308 H4302 0.950 . S
C4308 C4309 1.327 . S
C4309 H4303 0.950 . S
C4309 C4308 1.327 . S
C4309 C4313 1.429 . S
C4310 C4293 1.574 . S
C4310 H4304 0.949 . S
C4310 C4314 1.368 . S
C4311 C4292 1.429 . S
C4311 C4305 1.429 . S
C4311 C4312 1.523 . S
C4312 C4293 1.368 . S
C4312 C4306 1.368 . S
C4312 C4311 1.523 . S
C4313 C4297 1.429 . S
C4313 C4309 1.429 . S
C4313 C4314 1.523 . S
C4314 C4298 1.368 . S
C4314 C4310 1.368 . S
C4314 C4313 1.523 . S
H4315 C4290 0.950 . S
H4316 C4292 0.950 . S
H4317 C4293 0.949 . S
H4318 C4295 0.950 . S
H4319 C4297 0.950 . S
C4320 C4321 1.349 . S
C4320 C4322 1.327 . S
C4320 H4345 0.950 . S
C4321 C4320 1.349 . S
C4321 C4337 1.349 . S
C4322 C4320 1.327 . S
C4322 C4341 1.429 . S
C4322 H4346 0.950 . S
C4323 C4340 1.574 . S
C4323 C4342 1.368 . S
C4323 H4347 0.949 . S
H4324 C4328 0.949 . S
C4325 C4326 1.349 . S
C4325 C4327 1.327 . S
C4325 H4348 0.950 . S
C4326 C4325 1.349 . S
C4326 C4338 1.349 . S
C4327 C4325 1.327 . S
C4327 C4343 1.429 . S
C4327 H4349 0.950 . S
C4328 H4324 0.949 . S
C4328 C4336 1.574 . S
C4328 C4344 1.368 . S
H4329 C4337 0.950 . S
H4330 C4335 0.950 . S
H4331 C4336 0.949 . S
H4332 C4338 0.950 . S
H4333 C4339 0.950 . S
H4334 C4340 0.949 . S
C4335 H4330 0.950 . S
C4335 C4337 1.327 . S
C4335 C4341 1.429 . S
C4336 C4328 1.574 . S
C4336 H4331 0.949 . S
C4336 C4342 1.368 . S
C4337 C4321 1.349 . S
C4337 H4329 0.950 . S
C4337 C4335 1.327 . S
C4338 C4326 1.349 . S
C4338 H4332 0.950 . S
C4338 C4339 1.327 . S
C4339 H4333 0.950 . S
C4339 C4338 1.327 . S
C4339 C4343 1.429 . S
C4340 C4323 1.574 . S
C4340 H4334 0.949 . S
C4340 C4344 1.368 . S
C4341 C4322 1.429 . S
C4341 C4335 1.429 . S
C4341 C4342 1.523 . S
C4342 C4323 1.368 . S
C4342 C4336 1.368 . S
C4342 C4341 1.523 . S
C4343 C4327 1.429 . S
C4343 C4339 1.429 . S
C4343 C4344 1.523 . S
C4344 C4328 1.368 . S
C4344 C4340 1.368 . S
C4344 C4343 1.523 . S
H4345 C4320 0.950 . S
H4346 C4322 0.950 . S
H4347 C4323 0.949 . S
H4348 C4325 0.950 . S
H4349 C4327 0.950 . S
C4350 C4351 1.349 . S
C4350 C4352 1.327 . S
C4350 H4375 0.950 . S
C4351 C4350 1.349 . S
C4351 C4367 1.349 . S
C4352 C4350 1.327 . S
C4352 C4371 1.429 . S
C4352 H4376 0.950 . S
C4353 C4370 1.574 . S
C4353 C4372 1.368 . S
C4353 H4377 0.949 . S
H4354 C4358 0.949 . S
C4355 C4356 1.349 . S
C4355 C4357 1.327 . S
C4355 H4378 0.950 . S
C4356 C4355 1.349 . S
C4356 C4368 1.349 . S
C4357 C4355 1.327 . S
C4357 C4373 1.429 . S
C4357 H4379 0.950 . S
C4358 H4354 0.949 . S
C4358 C4366 1.574 . S
C4358 C4374 1.368 . S
H4359 C4367 0.950 . S
H4360 C4365 0.950 . S
H4361 C4366 0.949 . S
H4362 C4368 0.950 . S
H4363 C4369 0.950 . S
H4364 C4370 0.949 . S
C4365 H4360 0.950 . S
C4365 C4367 1.327 . S
C4365 C4371 1.429 . S
C4366 C4358 1.574 . S
C4366 H4361 0.949 . S
C4366 C4372 1.368 . S
C4367 C4351 1.349 . S
C4367 H4359 0.950 . S
C4367 C4365 1.327 . S
C4368 C4356 1.349 . S
C4368 H4362 0.950 . S
C4368 C4369 1.327 . S
C4369 H4363 0.950 . S
C4369 C4368 1.327 . S
C4369 C4373 1.429 . S
C4370 C4353 1.574 . S
C4370 H4364 0.949 . S
C4370 C4374 1.368 . S
C4371 C4352 1.429 . S
C4371 C4365 1.429 . S
C4371 C4372 1.523 . S
C4372 C4353 1.368 . S
C4372 C4366 1.368 . S
C4372 C4371 1.523 . S
C4373 C4357 1.429 . S
C4373 C4369 1.429 . S
C4373 C4374 1.523 . S
C4374 C4358 1.368 . S
C4374 C4370 1.368 . S
C4374 C4373 1.523 . S
H4375 C4350 0.950 . S
H4376 C4352 0.950 . S
H4377 C4353 0.949 . S
H4378 C4355 0.950 . S
H4379 C4357 0.950 . S
C4380 C4381 1.349 . S
C4380 C4382 1.327 . S
C4380 H4405 0.950 . S
C4381 C4380 1.349 . S
C4381 C4397 1.349 . S
C4382 C4380 1.327 . S
C4382 C4401 1.429 . S
C4382 H4406 0.950 . S
C4383 C4400 1.574 . S
C4383 C4402 1.368 . S
C4383 H4407 0.949 . S
H4384 C4388 0.949 . S
C4385 C4386 1.349 . S
C4385 C4387 1.327 . S
C4385 H4408 0.950 . S
C4386 C4385 1.349 . S
C4386 C4398 1.349 . S
C4387 C4385 1.327 . S
C4387 C4403 1.429 . S
C4387 H4409 0.950 . S
C4388 H4384 0.949 . S
C4388 C4396 1.574 . S
C4388 C4404 1.368 . S
H4389 C4397 0.950 . S
H4390 C4395 0.950 . S
H4391 C4396 0.949 . S
H4392 C4398 0.950 . S
H4393 C4399 0.950 . S
H4394 C4400 0.949 . S
C4395 H4390 0.950 . S
C4395 C4397 1.327 . S
C4395 C4401 1.429 . S
C4396 C4388 1.574 . S
C4396 H4391 0.949 . S
C4396 C4402 1.368 . S
C4397 C4381 1.349 . S
C4397 H4389 0.950 . S
C4397 C4395 1.327 . S
C4398 C4386 1.349 . S
C4398 H4392 0.950 . S
C4398 C4399 1.327 . S
C4399 H4393 0.950 . S
C4399 C4398 1.327 . S
C4399 C4403 1.429 . S
C4400 C4383 1.574 . S
C4400 H4394 0.949 . S
C4400 C4404 1.368 . S
C4401 C4382 1.429 . S
C4401 C4395 1.429 . S
C4401 C4402 1.523 . S
C4402 C4383 1.368 . S
C4402 C4396 1.368 . S
C4402 C4401 1.523 . S
C4403 C4387 1.429 . S
C4403 C4399 1.429 . S
C4403 C4404 1.523 . S
C4404 C4388 1.368 . S
C4404 C4400 1.368 . S
C4404 C4403 1.523 . S
H4405 C4380 0.950 . S
H4406 C4382 0.950 . S
H4407 C4383 0.949 . S
H4408 C4385 0.950 . S
H4409 C4387 0.950 . S
C4410 C4411 1.349 . S
C4410 C4412 1.327 . S
C4410 H4435 0.950 . S
C4411 C4410 1.349 . S
C4411 C4427 1.349 . S
C4412 C4410 1.327 . S
C4412 C4431 1.429 . S
C4412 H4436 0.950 . S
C4413 C4430 1.574 . S
C4413 C4432 1.368 . S
C4413 H4437 0.949 . S
H4414 C4418 0.949 . S
C4415 C4416 1.349 . S
C4415 C4417 1.327 . S
C4415 H4438 0.950 . S
C4416 C4415 1.349 . S
C4416 C4428 1.349 . S
C4417 C4415 1.327 . S
C4417 C4433 1.429 . S
C4417 H4439 0.950 . S
C4418 H4414 0.949 . S
C4418 C4426 1.574 . S
C4418 C4434 1.368 . S
H4419 C4427 0.950 . S
H4420 C4425 0.950 . S
H4421 C4426 0.949 . S
H4422 C4428 0.950 1_556 S
H4423 C4429 0.951 . S
H4424 C4430 0.949 . S
C4425 H4420 0.950 . S
C4425 C4427 1.327 . S
C4425 C4431 1.429 . S
C4426 C4418 1.574 . S
C4426 H4421 0.949 . S
C4426 C4432 1.368 . S
C4427 C4411 1.349 . S
C4427 H4419 0.950 . S
C4427 C4425 1.327 . S
C4428 C4416 1.349 . S
C4428 H4422 0.950 1_554 S
C4428 C4429 1.327 . S
C4429 H4423 0.951 . S
C4429 C4428 1.327 . S
C4429 C4433 1.429 . S
C4430 C4413 1.574 . S
C4430 H4424 0.949 . S
C4430 C4434 1.368 . S
C4431 C4412 1.429 . S
C4431 C4425 1.429 . S
C4431 C4432 1.523 . S
C4432 C4413 1.368 . S
C4432 C4426 1.368 . S
C4432 C4431 1.523 . S
C4433 C4417 1.429 . S
C4433 C4429 1.429 . S
C4433 C4434 1.523 . S
C4434 C4418 1.368 . S
C4434 C4430 1.368 . S
C4434 C4433 1.523 . S
H4435 C4410 0.950 . S
H4436 C4412 0.950 . S
H4437 C4413 0.949 . S
H4438 C4415 0.950 . S
H4439 C4417 0.950 . S
C4440 C4441 1.349 . S
C4440 C4442 1.327 . S
C4440 H4465 0.950 . S
C4441 C4440 1.349 . S
C4441 C4457 1.349 . S
C4442 C4440 1.327 . S
C4442 C4461 1.429 . S
C4442 H4466 0.950 . S
C4443 C4460 1.574 . S
C4443 C4462 1.368 . S
C4443 H4467 0.949 . S
H4444 C4448 0.949 . S
C4445 C4446 1.349 . S
C4445 C4447 1.327 . S
C4445 H4468 0.950 . S
C4446 C4445 1.349 . S
C4446 C4458 1.349 . S
C4447 C4445 1.327 . S
C4447 C4463 1.429 . S
C4447 H4469 0.950 . S
C4448 H4444 0.949 . S
C4448 C4456 1.574 . S
C4448 C4464 1.368 . S
H4449 C4457 0.950 . S
H4450 C4455 0.950 . S
H4451 C4456 0.949 . S
H4452 C4458 0.950 . S
H4453 C4459 0.950 . S
H4454 C4460 0.949 . S
C4455 H4450 0.950 . S
C4455 C4457 1.327 . S
C4455 C4461 1.429 . S
C4456 C4448 1.574 . S
C4456 H4451 0.949 . S
C4456 C4462 1.368 . S
C4457 C4441 1.349 . S
C4457 H4449 0.950 . S
C4457 C4455 1.327 . S
C4458 C4446 1.349 . S
C4458 H4452 0.950 . S
C4458 C4459 1.327 . S
C4459 H4453 0.950 . S
C4459 C4458 1.327 . S
C4459 C4463 1.429 . S
C4460 C4443 1.574 . S
C4460 H4454 0.949 . S
C4460 C4464 1.368 . S
C4461 C4442 1.429 . S
C4461 C4455 1.429 . S
C4461 C4462 1.523 . S
C4462 C4443 1.368 . S
C4462 C4456 1.368 . S
C4462 C4461 1.523 . S
C4463 C4447 1.429 . S
C4463 C4459 1.429 . S
C4463 C4464 1.523 . S
C4464 C4448 1.368 . S
C4464 C4460 1.368 . S
C4464 C4463 1.523 . S
H4465 C4440 0.950 . S
H4466 C4442 0.950 . S
H4467 C4443 0.949 . S
H4468 C4445 0.950 . S
H4469 C4447 0.950 . S
C4470 C4471 1.349 . S
C4470 C4472 1.327 . S
C4470 H4495 0.950 . S
C4471 C4470 1.349 . S
C4471 C4487 1.349 . S
C4472 C4470 1.327 . S
C4472 C4491 1.429 . S
C4472 H4496 0.950 . S
C4473 C4490 1.574 . S
C4473 C4492 1.368 . S
C4473 H4497 0.926 1_554 S
H4474 C4478 0.949 . S
C4475 C4476 1.329 1_556 S
C4475 C4477 1.324 1_556 S
C4475 H4498 0.974 . S
C4476 C4475 1.329 1_554 S
C4476 C4488 1.349 . S
C4477 C4475 1.324 1_554 S
C4477 C4493 1.429 . S
C4477 H4499 0.950 1_554 S
C4478 H4474 0.949 . S
C4478 C4486 1.574 . S
C4478 C4494 1.368 . S
H4479 C4487 0.950 . S
H4480 C4485 0.950 . S
H4481 C4486 0.949 . S
H4482 C4488 0.950 . S
H4483 C4489 0.950 . S
H4484 C4490 0.949 1_556 S
C4485 H4480 0.950 . S
C4485 C4487 1.327 . S
C4485 C4491 1.429 . S
C4486 C4478 1.574 . S
C4486 H4481 0.949 . S
C4486 C4492 1.368 . S
C4487 C4471 1.349 . S
C4487 H4479 0.950 . S
C4487 C4485 1.327 . S
C4488 C4476 1.349 . S
C4488 H4482 0.950 . S
C4488 C4489 1.327 . S
C4489 H4483 0.950 . S
C4489 C4488 1.327 . S
C4489 C4493 1.429 . S
C4490 C4473 1.574 . S
C4490 H4484 0.949 1_554 S
C4490 C4494 1.368 . S
C4491 C4472 1.429 . S
C4491 C4485 1.429 . S
C4491 C4492 1.523 . S
C4492 C4473 1.368 . S
C4492 C4486 1.368 . S
C4492 C4491 1.523 . S
C4493 C4477 1.429 . S
C4493 C4489 1.429 . S
C4493 C4494 1.523 . S
C4494 C4478 1.368 . S
C4494 C4490 1.368 . S
C4494 C4493 1.523 . S
H4495 C4470 0.950 . S
H4496 C4472 0.950 . S
H4497 C4473 0.926 1_556 S
H4498 C4475 0.974 . S
H4499 C4477 0.950 1_556 S
C4500 C4501 1.349 . S
C4500 C4502 1.327 . S
C4500 H4525 0.950 . S
C4501 C4500 1.349 . S
C4501 C4517 1.349 . S
C4502 C4500 1.327 . S
C4502 C4521 1.429 . S
C4502 H4526 0.950 . S
C4503 C4520 1.574 . S
C4503 C4522 1.368 . S
C4503 H4527 0.949 . S
H4504 C4508 0.949 . S
C4505 C4506 1.349 . S
C4505 C4507 1.327 . S
C4505 H4528 0.950 . S
C4506 C4505 1.349 . S
C4506 C4518 1.349 . S
C4507 C4505 1.327 . S
C4507 C4523 1.429 . S
C4507 H4529 0.950 . S
C4508 H4504 0.949 . S
C4508 C4516 1.574 . S
C4508 C4524 1.368 . S
H4509 C4517 0.950 . S
H4510 C4515 0.950 . S
H4511 C4516 0.949 . S
H4512 C4518 0.950 . S
H4513 C4519 0.950 . S
H4514 C4520 0.949 . S
C4515 H4510 0.950 . S
C4515 C4517 1.327 . S
C4515 C4521 1.429 . S
C4516 C4508 1.574 . S
C4516 H4511 0.949 . S
C4516 C4522 1.368 . S
C4517 C4501 1.349 . S
C4517 H4509 0.950 . S
C4517 C4515 1.327 . S
C4518 C4506 1.349 . S
C4518 H4512 0.950 . S
C4518 C4519 1.327 . S
C4519 H4513 0.950 . S
C4519 C4518 1.327 . S
C4519 C4523 1.429 . S
C4520 C4503 1.574 . S
C4520 H4514 0.949 . S
C4520 C4524 1.368 . S
C4521 C4502 1.429 . S
C4521 C4515 1.429 . S
C4521 C4522 1.523 . S
C4522 C4503 1.368 . S
C4522 C4516 1.368 . S
C4522 C4521 1.523 . S
C4523 C4507 1.429 . S
C4523 C4519 1.429 . S
C4523 C4524 1.523 . S
C4524 C4508 1.368 . S
C4524 C4520 1.368 . S
C4524 C4523 1.523 . S
H4525 C4500 0.950 . S
H4526 C4502 0.950 . S
H4527 C4503 0.949 . S
H4528 C4505 0.950 . S
H4529 C4507 0.950 . S
C4530 C4531 1.349 . S
C4530 C4532 1.327 . S
C4530 H4555 0.950 . S
C4531 C4530 1.349 . S
C4531 C4547 1.349 . S
C4532 C4530 1.327 . S
C4532 C4551 1.429 . S
C4532 H4556 0.950 . S
C4533 C4550 1.574 . S
C4533 C4552 1.368 . S
C4533 H4557 0.949 . S
H4534 C4538 0.949 . S
C4535 C4536 1.349 . S
C4535 C4537 1.327 . S
C4535 H4558 0.950 . S
C4536 C4535 1.349 . S
C4536 C4548 1.349 . S
C4537 C4535 1.327 . S
C4537 C4553 1.429 . S
C4537 H4559 0.950 . S
C4538 H4534 0.949 . S
C4538 C4546 1.574 . S
C4538 C4554 1.368 . S
H4539 C4547 0.950 . S
H4540 C4545 0.950 . S
H4541 C4546 0.949 . S
H4542 C4548 0.950 . S
H4543 C4549 0.950 . S
H4544 C4550 0.949 . S
C4545 H4540 0.950 . S
C4545 C4547 1.327 . S
C4545 C4551 1.429 . S
C4546 C4538 1.574 . S
C4546 H4541 0.949 . S
C4546 C4552 1.368 . S
C4547 C4531 1.349 . S
C4547 H4539 0.950 . S
C4547 C4545 1.327 . S
C4548 C4536 1.349 . S
C4548 H4542 0.950 . S
C4548 C4549 1.327 . S
C4549 H4543 0.950 . S
C4549 C4548 1.327 . S
C4549 C4553 1.429 . S
C4550 C4533 1.574 . S
C4550 H4544 0.949 . S
C4550 C4554 1.368 . S
C4551 C4532 1.429 . S
C4551 C4545 1.429 . S
C4551 C4552 1.523 . S
C4552 C4533 1.368 . S
C4552 C4546 1.368 . S
C4552 C4551 1.523 . S
C4553 C4537 1.429 . S
C4553 C4549 1.429 . S
C4553 C4554 1.523 . S
C4554 C4538 1.368 . S
C4554 C4550 1.368 . S
C4554 C4553 1.523 . S
H4555 C4530 0.950 . S
H4556 C4532 0.950 . S
H4557 C4533 0.949 . S
H4558 C4535 0.950 . S
H4559 C4537 0.950 . S
C1681 C109 1.855 . S
C1686 C392 1.856 . S
C1711 C61 1.562 . S
C1716 C494 1.766 . S
C1741 C74 1.747 . S
C1746 C560 1.790 . S
C1776 C646 1.469 . S
C1771 C96 1.591 . S
C1801 C25 1.502 . S
C1806 C730 1.391 . S
C1836 C812 1.791 . S
C1831 C40 1.770 . S
C1866 C914 1.866 . S
C1861 C46 1.869 . S
C1891 C5 1.621 . S
C1896 C980 1.956 . S
C1926 C410 1.423 . S
C1921 C229 1.201 . S
C1951 C249 0.808 . S
C1956 C478 0.794 . S
C1986 C578 0.888 . S
C1981 C271 0.818 . S
C2016 C644 1.696 . S
C2011 C172 1.649 1_556 S
C2041 C236 1.520 . S
C2046 C728 1.539 . S
C2076 C830 1.241 . S
C2071 C242 1.238 . S
C2106 C898 0.798 . S
C2101 C278 0.816 . S
C2136 C998 1.525 . S
C2131 C179 1.553 . S
C2166 C394 0.844 . S
C2161 C159 0.795 1_556 S
C2191 C285 1.407 1_554 S
C2196 C1082 1.578 . S
C2226 C1150 1.165 . S
C2221 C333 1.244 . S
C2256 C1232 0.735 . S
C2251 C320 0.736 . S
C2281 C123 0.808 . S
C2286 C982 0.796 . S
C2311 C138 1.389 . S
C2316 C562 1.301 . S
C2341 C326 1.720 . S
C2346 C1334 1.710 . S
C2376 C1400 0.806 . S
C2371 C298 0.802 . S
C2406 C403 1.837 . S
C2401 C67 1.786 . S
C2436 C1407 1.684 . S
C2431 C110 1.708 . S
C2461 C88 1.738 . S
C2466 C571 1.766 . S
C2491 C75 1.238 . S
C2496 C1329 1.372 . S
C2526 C741 1.346 . S
C2521 C11 1.442 . S
C2551 C47 1.539 . S
C2556 C1159 1.737 . S
C2586 C903 1.735 . S
C2581 C32 1.669 . S
C2616 C1495 1.948 . S
C2611 C26 1.930 . S
C2646 C399 1.501 . S
C2641 C152 1.539 . S
C2676 C1413 0.789 . S
C2671 C319 0.799 . S
C2701 C124 0.862 . S
C2706 C567 0.856 . S
C2731 C284 1.689 . S
C2736 C1327 1.706 . S
C2761 C145 1.278 . S
C2766 C739 1.455 . S
C2796 C1155 1.090 . S
C2791 C312 1.076 . S
C2821 C117 0.715 . S
C2826 C909 0.713 . S
C2851 C291 1.413 . S
C2856 C1491 1.399 . S
C2881 C194 0.887 . S
C2886 C405 0.867 . S
C2911 C180 1.556 . S
C2916 C1071 1.530 . S
C2941 C263 1.124 . S
C2946 C825 1.075 . S
C2971 C243 0.709 . S
C2976 C1243 0.652 . S
C3006 C1497 0.810 . S
C3001 C277 0.814 . S
C3031 C215 1.152 . S
C3036 C573 1.268 . S
C3066 C651 1.599 . S
C3061 C256 1.559 . S
C3096 C487 0.868 . S
C3091 C200 0.861 . S
C3121 C81 1.855 . S
C3126 C1568 1.858 . S
C3156 C1418 1.765 . S
C3151 C89 1.561 . S
C3181 C102 1.747 1_455 S
C3186 C1652 1.790 . S
C3211 C68 1.592 . S
C3216 C1318 1.470 . S
C3241 C53 1.502 . S
C3246 C1066 1.391 . S
C3276 C1148 1.791 . S
C3271 C12 1.770 1_655 S
C3306 C1250 1.866 . S
C3301 C18 1.869 . S
C3336 C1484 1.956 . S
C3331 C33 1.621 . S
C3366 C1586 1.423 . S
C3361 C257 1.201 . S
C3391 C193 0.808 . S
C3396 C1402 0.795 . S
C3426 C1670 0.888 . S
C3421 C201 0.818 . S
C3456 C1316 1.696 . S
C3451 C214 1.649 . S
C3486 C1064 1.522 . S
C3481 C264 1.520 . S
C3511 C186 1.238 . S
C3516 C1166 1.241 . S
C3546 C1234 0.798 . S
C3541 C208 0.816 . S
C3571 C221 1.552 . S
C3576 C1502 1.525 . S
C3606 C1570 0.835 . S
C3601 C313 0.790 . S
C3631 C131 1.407 . S
C3636 C746 1.578 . S
C3666 C814 1.165 . S
C3661 C151 1.244 1_565 S
C3696 C896 0.735 . S
C3691 C166 0.736 . S
C3726 C1486 0.796 . S
C3721 C305 0.808 . S
C3751 C292 1.390 . S
C3756 C1654 1.301 . S
C3786 C662 1.710 . S
C3781 C144 1.720 . S
C3816 C476 0.806 . S
C3811 C116 0.802 . S
C3841 C95 1.786 . S
C3846 C1579 1.837 . S
C3876 C483 1.684 . S
C3871 C82 1.701 . S
C3901 C60 1.738 . S
C3906 C1663 1.766 . S
C3931 C103 1.238 . S
C3936 C657 1.366 . S
C3961 C39 1.442 . S
C3966 C1077 1.346 . S
C3996 C823 1.737 . S
C3991 C19 1.540 . S
C4021 C4 1.669 . S
C4026 C1239 1.731 . S
C4051 C54 1.930 . S
C4056 C991 1.948 . S
C4086 C1575 1.500 . S
C4081 C334 1.539 . S
C4111 C165 0.798 . S
C4116 C489 0.784 . S
C4146 C1659 0.857 1_655 S
C4141 C306 0.863 . S
C4171 C130 1.689 . S
C4176 C655 1.706 . S
C4201 C327 1.278 . S
C4206 C1075 1.456 . S
C4236 C819 1.091 . S
C4231 C158 1.084 . S
C4261 C299 0.715 . S
C4266 C1245 0.669 . S
C4296 C987 1.399 . S
C4291 C137 1.413 . S
C4326 C1581 0.867 . S
C4321 C250 0.887 . S
C4356 C735 1.530 1_565 S
C4351 C222 1.556 . S
C4381 C235 1.124 . S
C4386 C1161 1.075 . S
C4416 C907 0.652 . S
C4411 C187 0.709 . S
C4441 C207 0.815 . S
C4446 C993 0.810 . S
C4471 C173 1.152 . S
C4476 C1665 1.268 . S
C4506 C1323 1.599 . S
C4501 C228 1.559 . S
C4536 C1411 0.868 . S
C4531 C270 0.861 . S
