# Generated by pormake.
# Topology nia, (6,6)-cn, num edge types: 1
# Building blocks:
#     Node 0, Type 0, BuildingBlock: KUMBUR_clean_sbu_1, # of connection points: 6
#     Node 1, Type 0, BuildingBlock: KUMBUR_clean_sbu_1, # of connection points: 6
#     Node 2, Type 1, BuildingBlock: MIDCAF_clean_sbu_0, # of connection points: 6
#     Node 3, Type 1, BuildingBlock: MIDCAF_clean_sbu_0, # of connection points: 6
#     Edge 4, Type (0, 1), BuildingBlock: XIVTED_clean_linker_0, # of connection points: 2
#     Edge 5, Type (0, 1), BuildingBlock: XIVTED_clean_linker_0, # of connection points: 2
#     Edge 6, Type (0, 1), BuildingBlock: XIVTED_clean_linker_0, # of connection points: 2
#     Edge 7, Type (0, 1), BuildingBlock: XIVTED_clean_linker_0, # of connection points: 2
#     Edge 8, Type (0, 1), BuildingBlock: XIVTED_clean_linker_0, # of connection points: 2
#     Edge 9, Type (0, 1), BuildingBlock: XIVTED_clean_linker_0, # of connection points: 2
#     Edge 10, Type (0, 1), BuildingBlock: XIVTED_clean_linker_0, # of connection points: 2
#     Edge 11, Type (0, 1), BuildingBlock: XIVTED_clean_linker_0, # of connection points: 2
#     Edge 12, Type (0, 1), BuildingBlock: XIVTED_clean_linker_0, # of connection points: 2
#     Edge 13, Type (0, 1), BuildingBlock: XIVTED_clean_linker_0, # of connection points: 2
#     Edge 14, Type (0, 1), BuildingBlock: XIVTED_clean_linker_0, # of connection points: 2
#     Edge 15, Type (0, 1), BuildingBlock: XIVTED_clean_linker_0, # of connection points: 2
# Relax obj value: 0.171
# Max RMSD: 0.279
# Mean RMSD: 0.201
data_MOF--net-nia--node1-KUMBUR_clean_sbu_1--node2-MIDCAF_clean_sbu_0--edge1-XIVTED_clean_linker_0
_symmetry_space_group_name_H-M    P1
_symmetry_Int_Tables_number       1
_symmetry_cell_setting            triclinic
loop_
_symmetry_equiv_pos_as_xyz
'x, y, z'
_cell_length_a     28.591784
_cell_length_b     28.514474
_cell_length_c     31.378876
_cell_angle_alpha  89.279894
_cell_angle_beta   90.434372
_cell_angle_gamma 135.69907
loop_
_atom_site_label
_atom_site_type_symbol
_atom_site_fract_x
_atom_site_fract_y
_atom_site_fract_z
_atom_type_partial_charge
Tb0 Tb 0.02446 0.98467 0.06717 0.0
C1 C 0.89709 0.91818 0.89286 0.0
N2 N 0.96227 0.97324 0.90286 0.0
C3 C -0.00193 0.95731 0.84074 0.0
C4 C 0.88012 0.8784 0.8575 0.0
C5 C 0.01262 -0.00534 0.8765 0.0
C6 C 0.93161 0.89839 0.83154 0.0
C7 C 0.77938 0.8463 0.90782 0.0
C8 C 0.84743 0.90231 0.91802 0.0
C9 C 0.76228 0.80455 0.87399 0.0
C10 C 0.81251 0.82064 0.84883 0.0
Tb11 Tb 0.97935 0.03127 0.96124 0.0
N12 N 0.86565 0.94426 0.95031 0.0
C13 C 0.73055 0.83562 0.93061 0.0
C14 C 0.81824 0.93821 0.96883 0.0
C15 C 0.75019 0.88274 0.96048 0.0
H16 H 0.064 0.04007 0.8835 0.0
H17 H 0.713 0.87719 0.97644 0.0
H18 H 0.91006 0.92624 0.13962 0.0
H19 H 0.2945 0.20434 0.06528 0.0
H20 H 0.83221 0.97631 0.9898 0.0
H21 H 0.6778 0.79321 0.92375 0.0
H22 H 0.18908 0.09587 0.0401 0.0
H23 H 0.03811 0.97385 0.82039 0.0
H24 H 0.71026 0.7609 0.86612 0.0
H25 H 0.7985 0.78892 0.82217 0.0
H26 H 0.9022 0.96703 0.20546 0.0
H27 H 0.92054 0.86933 0.80396 0.0
H28 H 0.29714 0.25325 0.1309 0.0
N29 N 0.01411 0.01262 0.13159 0.0
C30 C 0.07132 0.07086 0.14884 0.0
C31 C 0.95006 -0.00324 0.18982 0.0
C32 C 0.06975 0.09539 0.1869 0.0
C33 C 0.95433 0.97429 0.15221 0.0
C34 C 0.00785 0.05819 0.20682 0.0
N35 N 0.12887 0.08501 0.08785 0.0
C36 C 0.18758 0.11731 0.06728 0.0
C37 C 0.19066 0.17009 0.14238 0.0
C38 C 0.13058 0.10835 0.12616 0.0
C39 C 0.24989 0.20568 0.11952 0.0
C40 C 0.24847 0.17854 0.08225 0.0
H41 H 0.00394 0.07675 0.23493 0.0
H42 H 0.12918 0.17704 0.23202 0.0
H43 H 0.23532 0.24192 0.19347 0.0
O44 O 0.07315 0.95458 0.07523 0.0
O45 O 0.02473 0.06147 0.07225 0.0
O46 O 0.05064 0.1134 1.00653 0.0
O47 O -0.00952 0.91384 0.11514 0.0
O48 O 0.08197 0.01361 1.00831 0.0
O49 O 0.08255 0.0868 0.97619 0.0
O50 O 0.94907 0.07757 0.93855 0.0
O51 O 0.97857 0.9535 0.95854 0.0
O52 O 0.94476 0.90314 0.0249 0.0
O53 O 0.03284 0.1001 0.911 0.0
O54 O 0.92492 0.00556 0.02118 0.0
O55 O 0.91966 0.92909 0.05529 0.0
C56 C 0.05413 0.11463 0.04854 0.0
C57 C 0.0049 0.84406 0.10057 0.0
C58 C 0.01479 0.76694 0.11355 0.0
C59 C 0.95682 0.7182 0.08913 0.0
C60 C 0.94664 0.79457 0.07672 0.0
C61 C 0.92275 0.73191 0.07111 0.0
C62 C 0.03836 0.82978 0.11936 0.0
C63 C 0.10535 0.06026 0.97943 0.0
C64 C 0.03257 0.91135 0.10519 0.0
C65 C 0.12933 0.15724 0.20284 0.0
C66 C 0.1897 0.19429 0.18076 0.0
C67 C 0.94644 0.90054 0.98321 0.0
C68 C 0.00874 0.15736 0.87753 0.0
C69 C 0.97829 0.20924 0.84163 0.0
C70 C 0.03101 0.24011 0.81251 0.0
C71 C 0.06146 0.18962 0.84824 0.0
C72 C 0.96761 0.1678 0.87433 0.0
C73 C 0.07242 0.23069 0.81607 0.0
C74 C 0.89695 0.95579 0.04873 0.0
C75 C -0.00456 0.11025 0.90936 0.0
H76 H 0.93793 0.66955 0.08404 0.0
H77 H 0.91985 0.80442 0.06237 0.0
H78 H 0.87802 0.69407 0.05244 0.0
H79 H 0.08382 0.86824 0.13739 0.0
H80 H 0.03976 0.27074 0.78634 0.0
H81 H 0.09386 0.18243 0.8497 0.0
H82 H 0.92745 0.14359 0.89714 0.0
H83 H 0.11266 0.25459 0.7934 0.0
Tb84 Tb 0.01804 0.97281 0.48068 0.0
C85 C 0.08118 0.11997 0.64347 0.0
N86 N 0.02361 0.05597 0.63388 0.0
C87 C 0.02531 0.01795 0.70193 0.0
C88 C 0.11521 0.13524 0.68196 0.0
C89 C -0.00628 0.00541 0.6631 0.0
C90 C 0.08687 0.08303 0.71116 0.0
C91 C 0.16356 0.23762 0.62384 0.0
C92 C 0.10478 0.17008 0.61479 0.0
C93 C 0.19984 0.25311 0.66111 0.0
C94 C 0.1756 0.202 0.6902 0.0
Tb95 Tb 0.97602 0.03953 0.56966 0.0
N96 N 0.06759 0.15293 0.5795 0.0
C97 C 0.18257 0.28762 0.59606 0.0
C98 C 0.08259 0.20216 0.55473 0.0
C99 C 0.14111 0.26986 0.56186 0.0
H100 H 0.94587 0.95533 0.65618 0.0
H101 H 0.15354 0.30836 0.54139 0.0
H102 H 0.1307 0.09918 0.41345 0.0
H103 H 0.79507 0.71583 0.44293 0.0
H104 H 0.04932 0.18999 0.52974 0.0
H105 H 0.22741 0.34015 0.60181 0.0
H106 H 0.89186 0.80853 0.48754 0.0
H107 H 0.00219 0.97753 0.72469 0.0
H108 H 0.24558 0.30465 0.66836 0.0
H109 H 0.20312 0.21478 0.71931 0.0
H110 H 0.13073 0.13453 0.34122 0.0
H111 H 0.11134 0.09263 0.74117 0.0
H112 H 0.77748 0.74135 0.37244 0.0
N113 N 0.02633 0.00909 0.41308 0.0
C114 C 0.97142 0.96415 0.38821 0.0
C115 C 0.08511 0.08703 0.35438 0.0
C116 C 0.96989 0.98042 0.34599 0.0
C117 C 0.0845 0.06758 0.39563 0.0
C118 C 0.027 0.04386 0.32982 0.0
N119 N 0.92617 0.88466 0.44316 0.0
C120 C 0.88398 0.81957 0.45683 0.0
C121 C 0.86601 0.84843 0.37693 0.0
C122 C 0.92013 0.89914 0.40341 0.0
C123 C 0.81969 0.78189 0.39186 0.0
C124 C 0.8295 0.76727 0.43164 0.0
H125 H 0.02826 0.05836 0.29762 0.0
H126 H 0.91085 0.94333 0.28821 0.0
H127 H 0.81966 0.82749 0.31538 0.0
O128 O 0.05653 0.93568 0.50275 0.0
O129 O 0.9159 0.9268 0.49038 0.0
O130 O 0.92857 0.01316 0.5073 0.0
O131 O 0.05918 0.95587 0.43639 0.0
O132 O 0.97795 0.91639 0.541 0.0
O133 O 0.91678 0.93185 0.57384 0.0
O134 O 0.94696 0.08274 0.59694 0.0
O135 O 0.04481 0.03012 0.5814 0.0
O136 O 0.10067 0.05989 0.51852 0.0
O137 O 0.88109 0.97608 0.59809 0.0
O138 O 0.00674 0.08713 0.50566 0.0
O139 O 0.07804 0.08071 0.48107 0.0
C140 C 0.8982 0.95825 0.48603 0.0
C141 C 0.14381 0.96683 0.46072 0.0
C142 C 0.21554 0.95679 0.43253 0.0
C143 C 0.27204 0.02231 0.44639 0.0
C144 C 0.2004 0.03201 0.47451 0.0
C145 C 0.26433 0.05951 0.46736 0.0
C146 C 0.15158 0.92972 0.43979 0.0
C147 C 0.93547 0.90099 0.57018 0.0
C148 C 0.0761 0.9373 0.46504 0.0
C149 C 0.91339 0.93149 0.32054 0.0
C150 C 0.86155 0.86547 0.33597 0.0
C151 C 0.10004 0.06138 0.56034 0.0
C152 C 0.83186 0.01542 0.59009 0.0
C153 C 0.7698 0.0442 0.59475 0.0
C154 C 0.73205 0.00423 0.55898 0.0
C155 C 0.79342 0.97538 0.55449 0.0
C156 C 0.81934 0.04911 0.61038 0.0
C157 C 0.74364 0.96974 0.53917 0.0
C158 C 0.05618 0.10861 0.48082 0.0
C159 C 0.88686 0.02479 0.60535 0.0
H160 H 0.32198 0.04435 0.44162 0.0
H161 H 0.19518 0.06162 0.4903 0.0
H162 H 0.30803 0.10982 0.47804 0.0
H163 H 0.1075 0.87992 0.42841 0.0
H164 H 0.69362 -0.00026 0.54637 0.0
H165 H 0.80204 0.94879 0.53837 0.0
H166 H 0.84962 0.08087 0.63744 0.0
H167 H 0.71443 0.93907 0.51163 0.0
Zn168 Zn 0.37519 0.67729 0.18666 0.0
Zn169 Zn 0.35195 0.65055 0.34533 0.0
Zn170 Zn 0.36063 0.65817 0.26296 0.0
C171 C 0.48721 0.74165 0.32719 0.0
C172 C 0.28237 0.52219 0.31798 0.0
O173 O 0.31004 0.6888 0.2401 0.0
O174 O 0.31183 0.68059 0.17054 0.0
C175 C 0.50149 0.76849 0.21081 0.0
O176 O 0.46348 0.72344 0.28905 0.0
O177 O 0.44866 0.71896 0.35868 0.0
O178 O 0.30101 0.55524 0.3517 0.0
O179 O 0.29844 0.55104 0.28119 0.0
O180 O 0.46948 0.76206 0.17957 0.0
O181 O 0.46946 0.73082 0.24421 0.0
O182 O 0.30617 0.55842 0.2362 0.0
O183 O 0.35004 0.59455 0.17175 0.0
C184 C 0.31441 0.54722 0.19873 0.0
O185 O 0.31755 0.69536 0.28466 0.0
O186 O 0.30471 0.67591 0.35426 0.0
C187 C 0.29328 0.69065 0.20222 0.0
C188 C 0.29914 0.69752 0.32143 0.0
Zn189 Zn 0.62878 0.32213 0.8512 0.0
Zn190 Zn 0.66784 0.38594 0.69515 0.0
Zn191 Zn 0.64401 0.35632 0.77181 0.0
C192 C 0.74791 0.50683 0.73136 0.0
C193 C 0.53381 0.3138 0.70719 0.0
O194 O 0.68895 0.31805 0.78591 0.0
O195 O 0.67846 0.29843 0.85544 0.0
C196 C 0.7016 0.45914 0.84762 0.0
O197 O 0.71125 0.46732 0.76324 0.0
O198 O 0.74488 0.4831 0.69667 0.0
O199 O 0.58115 0.353 0.68086 0.0
O200 O 0.54518 0.303 0.74395 0.0
O201 O 0.67104 0.41045 0.87351 0.0
O202 O 0.70048 0.44993 0.80739 0.0
O203 O 0.53532 0.28462 0.78769 0.0
O204 O 0.5306 0.24778 0.85161 0.0
C205 C 0.50129 0.2455 0.82019 0.0
O206 O 0.68133 0.31664 0.74185 0.0
O207 O 0.68453 0.33552 0.67298 0.0
C208 C 0.69959 0.30035 0.81969 0.0
C209 C 0.69095 0.31072 0.70296 0.0
H210 H 0.05756 0.78101 0.19561 0.0
H211 H 0.29609 0.74497 0.12998 0.0
H212 H 0.05963 0.72394 0.06959 0.0
H213 H 0.20082 0.67013 0.25345 0.0
H214 H 0.22684 0.76234 0.1111 0.0
H215 H 0.12537 0.76265 0.22129 0.0
C216 C 0.07217 0.76448 0.17349 0.0
C217 C 0.05307 0.75379 0.13046 0.0
C218 C 0.22147 0.7427 0.14251 0.0
C219 C 0.13086 0.7342 0.15924 0.0
C220 C 0.26105 0.73282 0.15345 0.0
C221 C 0.25481 0.70659 0.19367 0.0
C222 C 0.17542 0.72706 0.172 0.0
C223 C 0.20867 0.69226 0.22268 0.0
C224 C 0.11037 0.75377 0.18816 0.0
C225 C 0.07296 0.73227 0.10302 0.0
N226 N 0.17059 0.70285 0.21133 0.0
N227 N 0.11139 0.72394 0.11776 0.0
H228 H 0.11297 0.02645 0.63742 0.0
H229 H 0.50422 0.36184 0.65091 0.0
H230 H 0.22703 0.1772 0.53807 0.0
H231 H 0.41054 0.1894 0.73103 0.0
H232 H 0.39662 0.30111 0.61793 0.0
H233 H 0.216 0.09042 0.67914 0.0
C234 C 0.15986 0.07306 0.62446 0.0
C235 C 0.16192 0.09698 0.58442 0.0
C236 C 0.39926 0.27655 0.64294 0.0
C237 C 0.27913 0.17006 0.63175 0.0
C238 C 0.46063 0.31127 0.66196 0.0
C239 C 0.46636 0.28033 0.69352 0.0
C240 C 0.34282 0.21006 0.65534 0.0
C241 C 0.40812 0.21512 0.70697 0.0
C242 C 0.21842 0.10933 0.6482 0.0
C243 C 0.22359 0.15702 0.56873 0.0
N244 N 0.34856 0.18167 0.68744 0.0
N245 N 0.27975 0.19173 0.59256 0.0
H246 H 0.17331 0.23899 0.02566 0.0
H247 H 0.19674 0.42308 0.22855 0.0
H248 H 0.02019 0.1335 0.12252 0.0
H249 H 0.35414 0.5181 0.13575 0.0
H250 H 0.13289 0.31469 0.1937 0.0
H251 H 0.24053 0.34188 0.06711 0.0
C252 C 0.15357 0.23796 0.0554 0.0
C253 C 0.09135 0.1782 0.07073 0.0
C254 C 0.18178 0.35929 0.18136 0.0
C255 C 0.16791 0.29506 0.11875 0.0
C256 C 0.21841 0.42091 0.2015 0.0
C257 C 0.28036 0.47968 0.18467 0.0
C258 C 0.20753 0.35701 0.14426 0.0
C259 C 0.30604 0.47419 0.14938 0.0
C260 C 0.19215 0.29635 0.07938 0.0
C261 C 0.06827 0.17891 0.10981 0.0
N262 N 0.26931 0.41428 0.13017 0.0
N263 N 0.10651 0.23651 0.13252 0.0
H264 H 0.75211 0.05259 0.67923 0.0
H265 H 0.76611 0.33807 0.63585 0.0
H266 H 0.76683 0.12664 0.55409 0.0
H267 H 0.65801 0.20393 0.744 0.0
H268 H 0.78894 0.27509 0.61219 0.0
H269 H 0.7375 0.1207 0.70976 0.0
C270 C 0.75231 0.08323 0.6583 0.0
C271 C 0.76018 0.08385 0.61409 0.0
C272 C 0.7607 0.25969 0.64132 0.0
C273 C 0.74466 0.16186 0.64858 0.0
C274 C 0.74774 0.29564 0.65491 0.0
C275 C 0.71033 0.2763 0.69206 0.0
C276 C 0.73623 0.20381 0.66499 0.0
C277 C 0.68804 0.22112 0.7156 0.0
C278 C 0.74378 0.12168 0.67566 0.0
C279 C 0.76008 0.12417 0.58824 0.0
N280 N 0.70125 0.18648 0.70161 0.0
N281 N 0.75281 0.16181 0.60589 0.0
H282 H 0.87048 0.02718 0.07187 0.0
H283 H 0.57159 0.73911 0.22957 0.0
H284 H 0.80236 0.83597 0.09108 0.0
H285 H 0.59234 0.89242 0.17443 0.0
H286 H 0.67717 0.7921 0.19527 0.0
H287 H 0.78548 0.99266 0.12262 0.0
C288 C 0.83737 0.97779 0.08655 0.0
C289 C 0.84326 0.93423 0.07715 0.0
C290 C 0.65938 0.81503 0.19161 0.0
C291 C 0.74735 0.89527 0.13597 0.0
C292 C 0.59986 0.78551 0.21177 0.0
C293 C 0.57344 0.81147 0.20458 0.0
C294 C 0.69246 0.87095 0.16452 0.0
C295 C 0.6112 0.8709 0.18054 0.0
C296 C 0.78943 0.95845 0.11581 0.0
C297 C 0.79954 0.87111 0.09748 0.0
N298 N 0.66843 0.89823 0.1609 0.0
N299 N 0.75357 0.85359 0.12604 0.0
H300 H -0.00292 0.86384 0.59309 0.0
H301 H 0.7039 0.56429 0.74508 0.0
H302 H 0.82542 0.82601 0.62349 0.0
H303 H 0.87922 0.61007 0.71279 0.0
H304 H 0.75696 0.67277 0.71413 0.0
H305 H 0.96262 0.78249 0.64714 0.0
C306 C 0.95165 0.83793 0.61094 0.0
C307 C 0.91322 0.85068 0.60301 0.0
C308 C 0.78469 0.66004 0.71504 0.0
C309 C 0.87342 0.75709 0.66572 0.0
C310 C 0.75485 0.59868 0.73332 0.0
C311 C 0.78741 0.57858 0.73122 0.0
C312 C 0.84714 0.70078 0.69458 0.0
C313 C 0.85264 0.62401 0.71492 0.0
C314 C 0.93232 0.79184 0.64226 0.0
C315 C 0.85595 0.81691 0.62815 0.0
N316 N 0.87989 0.68242 0.69658 0.0
N317 N 0.83723 0.77093 0.65806 0.0
H318 H 0.13986 0.82388 0.44547 0.0
H319 H 0.34399 0.81049 0.2823 0.0
H320 H 0.30632 -0.00425 0.37095 0.0
H321 H 0.20201 0.6566 0.37516 0.0
H322 H 0.31794 0.87241 0.3042 0.0
H323 H 0.15026 0.75608 0.4105 0.0
C324 C 0.17836 0.84731 0.42146 0.0
C325 C 0.22235 0.9157 0.4112 0.0
C326 C 0.2919 0.82462 0.31929 0.0
C327 C 0.23513 0.83817 0.37119 0.0
C328 C 0.3063 0.78914 0.30656 0.0
C329 C 0.27525 0.72872 0.32719 0.0
C330 C 0.24607 0.79905 0.35266 0.0
C331 C 0.2273 0.70329 0.35869 0.0
C332 C 0.18446 0.80855 0.40158 0.0
C333 C 0.27193 0.94342 0.38024 0.0
N334 N 0.21451 0.73873 0.37062 0.0
N335 N 0.27713 0.90457 0.36136 0.0
H336 H 0.17872 0.16721 0.92383 0.0
H337 H 0.40652 0.11794 0.8502 0.0
H338 H 0.14874 0.00197 0.96434 0.0
H339 H 0.43477 0.28 0.80468 0.0
H340 H 0.29982 0.06411 0.88171 0.0
H341 H 0.2627 0.20125 0.87268 0.0
C342 C 0.1898 0.13806 0.92201 0.0
C343 C 0.15709 0.08199 0.9488 0.0
C344 C 0.32838 0.11067 0.86407 0.0
C345 C 0.25306 0.12061 0.89001 0.0
C346 C 0.38894 0.141 0.84567 0.0
C347 C 0.42935 0.2035 0.82507 0.0
C348 C 0.30877 0.14387 0.86266 0.0
C349 C 0.40477 0.23163 0.82024 0.0
C350 C 0.23749 0.15732 0.89256 0.0
C351 C 0.17321 0.04596 0.94475 0.0
N352 N 0.34657 0.2023 0.83978 0.0
N353 N 0.22028 0.06611 0.91612 0.0
H354 H 0.18593 0.20323 0.45321 0.0
H355 H 0.14717 0.4153 0.32109 0.0
H356 H -0.00062 0.14446 0.44171 0.0
H357 H 0.33166 0.47053 0.33189 0.0
H358 H 0.08789 0.30725 0.35588 0.0
H359 H 0.23703 0.29477 0.4023 0.0
C360 C 0.15565 0.20949 0.43976 0.0
C361 C 0.08821 0.16594 0.45144 0.0
C362 C 0.14103 0.34215 0.34965 0.0
C363 C 0.1465 0.27115 0.39329 0.0
C364 C 0.17455 0.40327 0.32917 0.0
C365 C 0.24397 0.45099 0.32302 0.0
C366 C 0.17765 0.32949 0.36471 0.0
C367 C 0.27781 0.43431 0.3354 0.0
C368 C 0.18479 0.26172 0.41063 0.0
C369 C 0.05159 0.17701 0.43361 0.0
N370 N 0.24453 0.37533 0.35614 0.0
N371 N 0.0812 0.22856 0.40547 0.0
H372 H 0.84256 0.11881 0.85676 0.0
H373 H 0.80975 0.35914 0.77122 0.0
H374 H 0.01314 0.3235 0.81558 0.0
H375 H 0.6743 0.20192 0.86417 0.0
H376 H 0.876 0.33397 0.77376 0.0
H377 H 0.77178 0.13743 0.84784 0.0
C378 C 0.8654 0.16775 0.84613 0.0
C379 C 0.93426 0.21965 0.83704 0.0
C380 C 0.83152 0.30483 0.79337 0.0
C381 C 0.85284 0.24034 0.82552 0.0
C382 C 0.79366 0.31887 0.79172 0.0
C383 C 0.73677 0.28251 0.81756 0.0
C384 C 0.81175 0.25374 0.82072 0.0
C385 C 0.71812 0.23121 0.8439 0.0
C386 C 0.82475 0.17805 0.8407 0.0
C387 C 0.9603 0.28148 0.82232 0.0
N388 N 0.75544 0.2182 0.84477 0.0
N389 N 0.91957 0.29 0.8169 0.0
H390 H 0.8778 0.02803 0.446 0.0
H391 H 0.56064 0.71574 0.31338 0.0
H392 H 0.79085 0.82824 0.46197 0.0
H393 H 0.57291 0.8639 0.36418 0.0
H394 H 0.66874 0.77437 0.34713 0.0
H395 H 0.78576 0.98338 0.39777 0.0
C396 C 0.83988 0.97493 0.43893 0.0
C397 C 0.8429 0.93188 0.45705 0.0
C398 C 0.64838 0.79481 0.3499 0.0
C399 C 0.73894 0.88122 0.40139 0.0
C400 C 0.58746 0.76204 0.33026 0.0
C401 C 0.55868 0.78566 0.3359 0.0
C402 C 0.68062 0.85182 0.37468 0.0
C403 C 0.59415 0.84474 0.35896 0.0
C404 C 0.78776 0.94972 0.41131 0.0
C405 C 0.79197 0.86346 0.44725 0.0
N406 N 0.65334 0.87584 0.3777 0.0
N407 N 0.74229 0.8402 0.41979 0.0
H408 H 0.82981 0.77637 1.00953 0.0
H409 H 0.81399 0.58412 0.81615 0.0
H410 H 0.98153 0.87752 0.91199 0.0
H411 H 0.67087 0.48517 0.91908 0.0
H412 H 0.87288 0.69298 0.84764 0.0
H413 H 0.76866 0.66929 0.97487 0.0
C414 C 0.85026 0.77584 0.98084 0.0
C415 C 0.91038 0.83561 0.96333 0.0
C416 C 0.82831 0.6474 0.86315 0.0
C417 C 0.8407 0.71368 0.92321 0.0
C418 C 0.79425 0.5854 0.84483 0.0
C419 C 0.73699 0.52572 0.86463 0.0
C420 C 0.80493 0.64941 0.90165 0.0
C421 C 0.71496 0.53002 0.90277 0.0
C422 C 0.81525 0.71486 0.96089 0.0
C423 C 0.93463 0.83246 0.92598 0.0
N424 N 0.74893 0.59069 0.92 0.0
N425 N 0.89967 0.77246 0.90707 0.0
loop_
_geom_bond_atom_site_label_1
_geom_bond_atom_site_label_2
_geom_bond_distance
_geom_bond_site_symmetry_2
_ccdc_geom_bond_type
Tb0 N29 2.617 . S
Tb0 N35 2.572 1_565 S
Tb0 O44 2.465 . S
Tb0 O45 2.387 1_565 S
Tb0 O47 2.428 . S
Tb0 O48 2.308 1_564 S
Tb0 O52 2.331 1_454 S
Tb0 O55 2.393 1_455 S
Tb0 C64 2.802 . S
C1 N2 1.379 1_665 S
C1 C4 1.416 . S
C1 C8 1.424 . S
N2 C1 1.379 1_445 S
N2 C5 1.334 . S
N2 Tb11 2.617 1_455 S
C3 C5 1.390 . S
C3 C6 1.339 . S
C3 H23 0.930 . S
C4 C1 1.416 . S
C4 C6 1.416 1_665 S
C4 C10 1.448 . S
C5 N2 1.334 . S
C5 C3 1.390 . S
C5 H16 0.930 . S
C6 C3 1.339 . S
C6 C4 1.416 1_445 S
C6 H27 0.930 . S
C7 C8 1.413 . S
C7 C9 1.427 . S
C7 C13 1.416 . S
C8 C1 1.424 . S
C8 C7 1.413 . S
C8 N12 1.361 . S
C9 C7 1.427 . S
C9 C10 1.328 . S
C9 H24 0.929 . S
C10 C4 1.448 . S
C10 C9 1.328 . S
C10 H25 0.930 . S
Tb11 N2 2.617 1_655 S
Tb11 N12 2.572 1_545 S
Tb11 O46 2.349 1_656 S
Tb11 O49 2.393 1_655 S
Tb11 O50 2.465 . S
Tb11 O51 2.387 1_545 S
Tb11 O53 2.428 1_655 S
Tb11 O54 2.308 1_546 S
Tb11 C75 2.802 . S
N12 C8 1.361 . S
N12 Tb11 2.572 1_565 S
N12 C14 1.340 . S
C13 C7 1.416 . S
C13 C15 1.332 . S
C13 H21 0.931 . S
C14 N12 1.340 . S
C14 C15 1.407 . S
C14 H20 0.930 . S
C15 C13 1.332 . S
C15 C14 1.407 . S
C15 H17 0.929 . S
H16 C5 0.930 . S
H17 C15 0.929 . S
H18 C33 0.930 . S
H19 C40 0.929 . S
H20 C14 0.930 . S
H21 C13 0.931 . S
H22 C36 0.930 . S
H23 C3 0.930 . S
H24 C9 0.929 . S
H25 C10 0.930 . S
H26 C31 0.930 . S
H27 C6 0.930 . S
H28 C39 0.931 . S
N29 Tb0 2.617 . S
N29 C30 1.379 1_565 S
N29 C33 1.334 1_455 S
C30 N29 1.379 1_545 S
C30 C32 1.416 . S
C30 C38 1.424 . S
C31 H26 0.930 . S
C31 C33 1.390 . S
C31 C34 1.339 1_565 S
C32 C30 1.416 . S
C32 C34 1.416 1_455 S
C32 C65 1.448 . S
C33 H18 0.930 . S
C33 N29 1.334 1_655 S
C33 C31 1.390 . S
C34 C31 1.339 1_545 S
C34 C32 1.416 1_655 S
C34 H41 0.930 . S
N35 Tb0 2.572 1_545 S
N35 C36 1.340 . S
N35 C38 1.361 . S
C36 H22 0.930 . S
C36 N35 1.340 . S
C36 C40 1.407 . S
C37 C38 1.413 . S
C37 C39 1.416 . S
C37 C66 1.427 . S
C38 C30 1.424 . S
C38 N35 1.361 . S
C38 C37 1.413 . S
C39 H28 0.931 . S
C39 C37 1.416 . S
C39 C40 1.332 . S
C40 H19 0.929 . S
C40 C36 1.407 . S
C40 C39 1.332 . S
H41 C34 0.930 . S
H42 C65 0.930 . S
H43 C66 0.929 . S
O44 Tb0 2.465 . S
O44 C64 1.264 . S
O45 Tb0 2.387 1_545 S
O45 C56 1.264 . S
O46 Tb11 2.349 1_454 S
O46 C56 1.243 . S
O47 Tb0 2.428 . S
O47 C64 1.256 . S
O48 Tb0 2.308 1_546 S
O48 C63 1.266 . S
O49 Tb11 2.393 1_455 S
O49 C63 1.248 . S
O50 Tb11 2.465 . S
O50 C75 1.264 . S
O51 Tb11 2.387 1_565 S
O51 C67 1.264 . S
O52 Tb0 2.331 1_656 S
O52 C67 1.266 . S
O53 Tb11 2.428 1_455 S
O53 C75 1.256 1_455 S
O54 Tb11 2.308 1_564 S
O54 C74 1.266 . S
O55 Tb0 2.393 1_655 S
O55 C74 1.248 . S
C56 O45 1.264 . S
C56 O46 1.243 . S
C57 C60 1.399 . S
C57 C62 1.383 . S
C57 C64 1.496 . S
C58 C59 1.399 . S
C58 C62 1.389 . S
C59 C58 1.399 . S
C59 C61 1.380 . S
C59 H76 0.929 . S
C60 C57 1.399 . S
C60 C61 1.392 . S
C60 H77 0.929 1_455 S
C61 C59 1.380 . S
C61 C60 1.392 . S
C61 H78 0.929 . S
C62 C57 1.383 . S
C62 C58 1.389 . S
C62 H79 0.931 . S
C63 O48 1.266 . S
C63 O49 1.248 . S
C64 Tb0 2.802 . S
C64 O44 1.264 . S
C64 O47 1.256 . S
C64 C57 1.496 . S
C65 C32 1.448 . S
C65 H42 0.930 . S
C65 C66 1.328 . S
C66 C37 1.427 . S
C66 H43 0.929 . S
C66 C65 1.328 . S
C67 O51 1.264 . S
C67 O52 1.266 . S
C68 C71 1.399 . S
C68 C72 1.383 . S
C68 C75 1.496 . S
C69 C70 1.399 . S
C69 C72 1.389 . S
C70 C69 1.399 . S
C70 C73 1.380 . S
C70 H80 0.929 . S
C71 C68 1.399 . S
C71 C73 1.392 . S
C71 H81 0.929 1_655 S
C72 C68 1.383 . S
C72 C69 1.389 . S
C72 H82 0.931 . S
C73 C70 1.380 . S
C73 C71 1.392 . S
C73 H83 0.929 1_655 S
C74 O54 1.266 . S
C74 O55 1.248 . S
C75 Tb11 2.802 . S
C75 O50 1.264 . S
C75 O53 1.256 1_655 S
C75 C68 1.496 . S
H76 C59 0.929 . S
H77 C60 0.929 1_655 S
H78 C61 0.929 . S
H79 C62 0.931 . S
H80 C70 0.929 . S
H81 C71 0.929 1_455 S
H82 C72 0.931 . S
H83 C73 0.929 1_455 S
Tb84 N113 2.617 1_565 S
Tb84 N119 2.572 1_455 S
Tb84 O128 2.465 . S
Tb84 O129 2.387 1_455 S
Tb84 O131 2.428 1_565 S
Tb84 O132 2.308 1_455 S
Tb84 O136 2.349 1_565 S
Tb84 O139 2.393 1_565 S
Tb84 C148 2.802 . S
C85 N86 1.378 1_455 S
C85 C88 1.416 . S
C85 C92 1.424 . S
N86 C85 1.378 1_655 S
N86 C89 1.334 1_545 S
N86 Tb95 2.618 . S
C87 C89 1.390 . S
C87 C90 1.339 1_665 S
C87 H107 0.930 . S
C88 C85 1.416 . S
C88 C90 1.416 . S
C88 C94 1.448 . S
C89 N86 1.334 1_565 S
C89 C87 1.390 . S
C89 H100 0.930 . S
C90 C87 1.339 1_445 S
C90 C88 1.416 . S
C90 H111 0.930 . S
C91 C92 1.413 . S
C91 C93 1.427 . S
C91 C97 1.416 . S
C92 C85 1.424 . S
C92 C91 1.413 . S
C92 N96 1.361 . S
C93 C91 1.427 . S
C93 C94 1.328 . S
C93 H108 0.929 . S
C94 C88 1.448 . S
C94 C93 1.328 . S
C94 H109 0.930 . S
Tb95 N86 2.618 . S
Tb95 N96 2.572 1_655 S
Tb95 O130 2.349 1_545 S
Tb95 O133 2.393 1_545 S
Tb95 O134 2.465 . S
Tb95 O135 2.387 1_655 S
Tb95 O137 2.428 . S
Tb95 O138 2.308 1_655 S
Tb95 C159 2.802 . S
N96 C92 1.361 . S
N96 Tb95 2.572 1_455 S
N96 C98 1.340 . S
C97 C91 1.416 . S
C97 C99 1.332 . S
C97 H105 0.931 . S
C98 N96 1.340 . S
C98 C99 1.407 . S
C98 H104 0.930 . S
C99 C97 1.332 . S
C99 C98 1.407 . S
C99 H101 0.929 . S
H100 C89 0.930 . S
H101 C99 0.929 . S
H102 C117 0.930 . S
H103 C124 0.929 . S
H104 C98 0.930 . S
H105 C97 0.931 . S
H106 C120 0.930 . S
H107 C87 0.930 . S
H108 C93 0.929 . S
H109 C94 0.930 . S
H110 C115 0.930 . S
H111 C90 0.930 . S
H112 C123 0.931 . S
N113 Tb84 2.617 1_545 S
N113 C114 1.379 1_445 S
N113 C117 1.334 . S
C114 N113 1.379 1_665 S
C114 C116 1.416 . S
C114 C122 1.424 . S
C115 H110 0.930 . S
C115 C117 1.390 . S
C115 C118 1.339 . S
C116 C114 1.416 . S
C116 C118 1.416 1_665 S
C116 C149 1.448 . S
C117 H102 0.930 . S
C117 N113 1.334 . S
C117 C115 1.390 . S
C118 C115 1.339 . S
C118 C116 1.416 1_445 S
C118 H125 0.930 . S
N119 Tb84 2.572 1_655 S
N119 C120 1.340 . S
N119 C122 1.361 . S
C120 H106 0.930 . S
C120 N119 1.340 . S
C120 C124 1.407 . S
C121 C122 1.413 . S
C121 C123 1.416 . S
C121 C150 1.427 . S
C122 C114 1.424 . S
C122 N119 1.361 . S
C122 C121 1.413 . S
C123 H112 0.931 . S
C123 C121 1.416 . S
C123 C124 1.332 . S
C124 H103 0.929 . S
C124 C120 1.407 . S
C124 C123 1.332 . S
H125 C118 0.930 . S
H126 C149 0.930 . S
H127 C150 0.929 . S
O128 Tb84 2.465 . S
O128 C148 1.264 . S
O129 Tb84 2.387 1_655 S
O129 C140 1.264 . S
O130 Tb95 2.349 1_565 S
O130 C140 1.243 . S
O131 Tb84 2.428 1_545 S
O131 C148 1.256 1_545 S
O132 Tb84 2.308 1_655 S
O132 C147 1.266 . S
O133 Tb95 2.393 1_565 S
O133 C147 1.248 . S
O134 Tb95 2.465 . S
O134 C159 1.264 . S
O135 Tb95 2.387 1_455 S
O135 C151 1.264 . S
O136 Tb84 2.349 1_545 S
O136 C151 1.243 . S
O137 Tb95 2.428 . S
O137 C159 1.256 . S
O138 Tb95 2.308 1_455 S
O138 C158 1.266 . S
O139 Tb84 2.393 1_545 S
O139 C158 1.248 . S
C140 O129 1.264 . S
C140 O130 1.243 . S
C141 C144 1.399 1_565 S
C141 C146 1.383 . S
C141 C148 1.496 . S
C142 C143 1.399 . S
C142 C146 1.389 . S
C143 C142 1.399 . S
C143 C145 1.380 . S
C143 H160 0.929 . S
C144 C141 1.399 1_545 S
C144 C145 1.392 1_545 S
C144 H161 0.929 . S
C145 C143 1.380 . S
C145 C144 1.392 1_565 S
C145 H162 0.929 1_565 S
C146 C141 1.383 . S
C146 C142 1.389 . S
C146 H163 0.931 . S
C147 O132 1.266 . S
C147 O133 1.248 . S
C148 Tb84 2.802 . S
C148 O128 1.264 . S
C148 O131 1.256 1_565 S
C148 C141 1.496 . S
C149 C116 1.448 . S
C149 H126 0.930 . S
C149 C150 1.328 . S
C150 C121 1.427 . S
C150 H127 0.929 . S
C150 C149 1.328 . S
C151 O135 1.264 . S
C151 O136 1.243 . S
C152 C155 1.399 . S
C152 C156 1.383 . S
C152 C159 1.496 . S
C153 C154 1.399 . S
C153 C156 1.389 . S
C154 C153 1.399 . S
C154 C157 1.380 . S
C154 H164 0.929 . S
C155 C152 1.399 . S
C155 C157 1.392 . S
C155 H165 0.929 . S
C156 C152 1.383 . S
C156 C153 1.389 . S
C156 H166 0.931 . S
C157 C154 1.380 . S
C157 C155 1.392 . S
C157 H167 0.929 . S
C158 O138 1.266 . S
C158 O139 1.248 . S
C159 Tb95 2.802 . S
C159 O134 1.264 . S
C159 O137 1.256 . S
C159 C152 1.496 . S
H160 C143 0.929 . S
H161 C144 0.929 . S
H162 C145 0.929 1_545 S
H163 C146 0.931 . S
H164 C154 0.929 . S
H165 C155 0.929 . S
H166 C156 0.931 . S
H167 C157 0.929 . S
Zn168 O174 1.920 . S
Zn168 O180 1.898 . S
Zn168 O183 1.905 . S
Zn169 O177 1.905 . S
Zn169 O178 1.898 . S
Zn169 O186 1.920 . S
Zn170 O173 2.080 . S
Zn170 O176 2.114 . S
Zn170 O179 2.120 . S
Zn170 O181 2.120 . S
Zn170 O182 2.114 . S
Zn170 O185 2.080 . S
C171 O176 1.166 . S
C171 O177 1.182 . S
C172 O178 1.167 . S
C172 O179 1.299 . S
O173 Zn170 2.080 . S
O173 C187 1.305 . S
O174 Zn168 1.920 . S
O174 C187 1.234 . S
C175 O180 1.167 . S
C175 O181 1.299 . S
O176 Zn170 2.114 . S
O176 C171 1.166 . S
O177 Zn169 1.905 . S
O177 C171 1.182 . S
O178 Zn169 1.898 . S
O178 C172 1.167 . S
O179 Zn170 2.120 . S
O179 C172 1.299 . S
O180 Zn168 1.898 . S
O180 C175 1.167 . S
O181 Zn170 2.120 . S
O181 C175 1.299 . S
O182 Zn170 2.114 . S
O182 C184 1.166 . S
O183 Zn168 1.905 . S
O183 C184 1.182 . S
C184 O182 1.166 . S
C184 O183 1.182 . S
O185 Zn170 2.080 . S
O185 C188 1.305 . S
O186 Zn169 1.920 . S
O186 C188 1.234 . S
C187 O173 1.305 . S
C187 O174 1.234 . S
C188 O185 1.305 . S
C188 O186 1.234 . S
Zn189 O195 1.920 . S
Zn189 O201 1.898 . S
Zn189 O204 1.905 . S
Zn190 O198 1.905 . S
Zn190 O199 1.898 . S
Zn190 O207 1.920 . S
Zn191 O194 2.080 . S
Zn191 O197 2.114 . S
Zn191 O200 2.120 . S
Zn191 O202 2.120 . S
Zn191 O203 2.114 . S
Zn191 O206 2.080 . S
C192 O197 1.166 . S
C192 O198 1.182 . S
C193 O199 1.167 . S
C193 O200 1.299 . S
O194 Zn191 2.080 . S
O194 C208 1.305 . S
O195 Zn189 1.920 . S
O195 C208 1.234 . S
C196 O201 1.167 . S
C196 O202 1.299 . S
O197 Zn191 2.114 . S
O197 C192 1.166 . S
O198 Zn190 1.905 . S
O198 C192 1.182 . S
O199 Zn190 1.898 . S
O199 C193 1.167 . S
O200 Zn191 2.120 . S
O200 C193 1.299 . S
O201 Zn189 1.898 . S
O201 C196 1.167 . S
O202 Zn191 2.120 . S
O202 C196 1.299 . S
O203 Zn191 2.114 . S
O203 C205 1.166 . S
O204 Zn189 1.905 . S
O204 C205 1.182 . S
C205 O203 1.166 . S
C205 O204 1.182 . S
O206 Zn191 2.080 . S
O206 C209 1.305 . S
O207 Zn190 1.920 . S
O207 C209 1.234 . S
C208 O194 1.305 . S
C208 O195 1.234 . S
C209 O206 1.305 . S
C209 O207 1.234 . S
H210 C216 0.930 . S
H211 C220 0.930 . S
H212 C225 0.929 . S
H213 C223 0.929 . S
H214 C218 0.929 . S
H215 C224 0.929 . S
C216 H210 0.930 . S
C216 C217 1.367 . S
C216 C224 1.378 . S
C217 C216 1.367 . S
C217 C225 1.433 . S
C218 H214 0.929 . S
C218 C220 1.378 . S
C218 C222 1.350 . S
C219 C222 1.463 . S
C219 C224 1.350 . S
C219 N227 1.427 . S
C220 H211 0.930 . S
C220 C218 1.378 . S
C220 C221 1.367 . S
C221 C220 1.367 . S
C221 C223 1.433 . S
C222 C218 1.350 . S
C222 C219 1.463 . S
C222 N226 1.427 . S
C223 H213 0.929 . S
C223 C221 1.433 . S
C223 N226 1.384 . S
C224 H215 0.929 . S
C224 C216 1.378 . S
C224 C219 1.350 . S
C225 H212 0.929 . S
C225 C217 1.433 . S
C225 N227 1.384 . S
N226 C222 1.427 . S
N226 C223 1.384 . S
N227 C219 1.427 . S
N227 C225 1.384 . S
H228 C234 0.930 . S
H229 C238 0.930 . S
H230 C243 0.929 . S
H231 C241 0.929 . S
H232 C236 0.929 . S
H233 C242 0.929 . S
C234 H228 0.930 . S
C234 C235 1.367 . S
C234 C242 1.378 . S
C235 C234 1.367 . S
C235 C243 1.433 . S
C236 H232 0.929 . S
C236 C238 1.378 . S
C236 C240 1.350 . S
C237 C240 1.463 . S
C237 C242 1.350 . S
C237 N245 1.427 . S
C238 H229 0.930 . S
C238 C236 1.378 . S
C238 C239 1.367 . S
C239 C238 1.367 . S
C239 C241 1.433 . S
C240 C236 1.350 . S
C240 C237 1.463 . S
C240 N244 1.427 . S
C241 H231 0.929 . S
C241 C239 1.433 . S
C241 N244 1.384 . S
C242 H233 0.929 . S
C242 C234 1.378 . S
C242 C237 1.350 . S
C243 H230 0.929 . S
C243 C235 1.433 . S
C243 N245 1.384 . S
N244 C240 1.427 . S
N244 C241 1.384 . S
N245 C237 1.427 . S
N245 C243 1.384 . S
H246 C252 0.930 . S
H247 C256 0.930 . S
H248 C261 0.929 . S
H249 C259 0.929 . S
H250 C254 0.929 . S
H251 C260 0.929 . S
C252 H246 0.930 . S
C252 C253 1.367 . S
C252 C260 1.378 . S
C253 C252 1.367 . S
C253 C261 1.433 . S
C254 H250 0.929 . S
C254 C256 1.378 . S
C254 C258 1.350 . S
C255 C258 1.463 . S
C255 C260 1.350 . S
C255 N263 1.427 . S
C256 H247 0.930 . S
C256 C254 1.378 . S
C256 C257 1.367 . S
C257 C256 1.367 . S
C257 C259 1.433 . S
C258 C254 1.350 . S
C258 C255 1.463 . S
C258 N262 1.427 . S
C259 H249 0.929 . S
C259 C257 1.433 . S
C259 N262 1.384 . S
C260 H251 0.929 . S
C260 C252 1.378 . S
C260 C255 1.350 . S
C261 H248 0.929 . S
C261 C253 1.433 . S
C261 N263 1.384 . S
N262 C258 1.427 . S
N262 C259 1.384 . S
N263 C255 1.427 . S
N263 C261 1.384 . S
H264 C270 0.930 . S
H265 C274 0.930 . S
H266 C279 0.929 . S
H267 C277 0.929 . S
H268 C272 0.929 . S
H269 C278 0.929 . S
C270 H264 0.930 . S
C270 C271 1.367 . S
C270 C278 1.378 . S
C271 C270 1.367 . S
C271 C279 1.433 . S
C272 H268 0.929 . S
C272 C274 1.378 . S
C272 C276 1.350 . S
C273 C276 1.463 . S
C273 C278 1.350 . S
C273 N281 1.427 . S
C274 H265 0.930 . S
C274 C272 1.378 . S
C274 C275 1.367 . S
C275 C274 1.367 . S
C275 C277 1.433 . S
C276 C272 1.350 . S
C276 C273 1.463 . S
C276 N280 1.427 . S
C277 H267 0.929 . S
C277 C275 1.433 . S
C277 N280 1.384 . S
C278 H269 0.929 . S
C278 C270 1.378 . S
C278 C273 1.350 . S
C279 H266 0.929 . S
C279 C271 1.433 . S
C279 N281 1.384 . S
N280 C276 1.427 . S
N280 C277 1.384 . S
N281 C273 1.427 . S
N281 C279 1.384 . S
H282 C288 0.930 1_545 S
H283 C292 0.930 . S
H284 C297 0.929 . S
H285 C295 0.929 . S
H286 C290 0.929 . S
H287 C296 0.929 . S
C288 H282 0.930 1_565 S
C288 C289 1.367 . S
C288 C296 1.378 . S
C289 C288 1.367 . S
C289 C297 1.433 . S
C290 H286 0.929 . S
C290 C292 1.378 . S
C290 C294 1.350 . S
C291 C294 1.463 . S
C291 C296 1.350 . S
C291 N299 1.427 . S
C292 H283 0.930 . S
C292 C290 1.378 . S
C292 C293 1.367 . S
C293 C292 1.367 . S
C293 C295 1.433 . S
C294 C290 1.350 . S
C294 C291 1.463 . S
C294 N298 1.427 . S
C295 H285 0.929 . S
C295 C293 1.433 . S
C295 N298 1.384 . S
C296 H287 0.929 . S
C296 C288 1.378 . S
C296 C291 1.350 . S
C297 H284 0.929 . S
C297 C289 1.433 . S
C297 N299 1.384 . S
N298 C294 1.427 . S
N298 C295 1.384 . S
N299 C291 1.427 . S
N299 C297 1.384 . S
H300 C306 0.930 . S
H301 C310 0.930 . S
H302 C315 0.929 . S
H303 C313 0.929 . S
H304 C308 0.929 . S
H305 C314 0.929 . S
C306 H300 0.930 . S
C306 C307 1.367 . S
C306 C314 1.378 . S
C307 C306 1.367 . S
C307 C315 1.433 . S
C308 H304 0.929 . S
C308 C310 1.378 . S
C308 C312 1.350 . S
C309 C312 1.463 . S
C309 C314 1.350 . S
C309 N317 1.427 . S
C310 H301 0.930 . S
C310 C308 1.378 . S
C310 C311 1.367 . S
C311 C310 1.367 . S
C311 C313 1.433 . S
C312 C308 1.350 . S
C312 C309 1.463 . S
C312 N316 1.427 . S
C313 H303 0.929 . S
C313 C311 1.433 . S
C313 N316 1.384 . S
C314 H305 0.929 . S
C314 C306 1.378 . S
C314 C309 1.350 . S
C315 H302 0.929 . S
C315 C307 1.433 . S
C315 N317 1.384 . S
N316 C312 1.427 . S
N316 C313 1.384 . S
N317 C309 1.427 . S
N317 C315 1.384 . S
H318 C324 0.930 . S
H319 C328 0.930 . S
H320 C333 0.929 . S
H321 C331 0.929 . S
H322 C326 0.929 . S
H323 C332 0.929 . S
C324 H318 0.930 . S
C324 C325 1.367 . S
C324 C332 1.378 . S
C325 C324 1.367 . S
C325 C333 1.433 . S
C326 H322 0.929 . S
C326 C328 1.378 . S
C326 C330 1.350 . S
C327 C330 1.463 . S
C327 C332 1.350 . S
C327 N335 1.427 . S
C328 H319 0.930 . S
C328 C326 1.378 . S
C328 C329 1.367 . S
C329 C328 1.367 . S
C329 C331 1.433 . S
C330 C326 1.350 . S
C330 C327 1.463 . S
C330 N334 1.427 . S
C331 H321 0.929 . S
C331 C329 1.433 . S
C331 N334 1.384 . S
C332 H323 0.929 . S
C332 C324 1.378 . S
C332 C327 1.350 . S
C333 H320 0.929 . S
C333 C325 1.433 . S
C333 N335 1.384 . S
N334 C330 1.427 . S
N334 C331 1.384 . S
N335 C327 1.427 . S
N335 C333 1.384 . S
H336 C342 0.930 . S
H337 C346 0.930 . S
H338 C351 0.929 . S
H339 C349 0.929 . S
H340 C344 0.929 . S
H341 C350 0.929 . S
C342 H336 0.930 . S
C342 C343 1.367 . S
C342 C350 1.378 . S
C343 C342 1.367 . S
C343 C351 1.433 . S
C344 H340 0.929 . S
C344 C346 1.378 . S
C344 C348 1.350 . S
C345 C348 1.463 . S
C345 C350 1.350 . S
C345 N353 1.427 . S
C346 H337 0.930 . S
C346 C344 1.378 . S
C346 C347 1.367 . S
C347 C346 1.367 . S
C347 C349 1.433 . S
C348 C344 1.350 . S
C348 C345 1.463 . S
C348 N352 1.427 . S
C349 H339 0.929 . S
C349 C347 1.433 . S
C349 N352 1.384 . S
C350 H341 0.929 . S
C350 C342 1.378 . S
C350 C345 1.350 . S
C351 H338 0.929 . S
C351 C343 1.433 . S
C351 N353 1.384 . S
N352 C348 1.427 . S
N352 C349 1.384 . S
N353 C345 1.427 . S
N353 C351 1.384 . S
H354 C360 0.930 . S
H355 C364 0.930 . S
H356 C369 0.929 . S
H357 C367 0.929 . S
H358 C362 0.929 . S
H359 C368 0.929 . S
C360 H354 0.930 . S
C360 C361 1.367 . S
C360 C368 1.378 . S
C361 C360 1.367 . S
C361 C369 1.433 . S
C362 H358 0.929 . S
C362 C364 1.378 . S
C362 C366 1.350 . S
C363 C366 1.463 . S
C363 C368 1.350 . S
C363 N371 1.427 . S
C364 H355 0.930 . S
C364 C362 1.378 . S
C364 C365 1.367 . S
C365 C364 1.367 . S
C365 C367 1.433 . S
C366 C362 1.350 . S
C366 C363 1.463 . S
C366 N370 1.427 . S
C367 H357 0.929 . S
C367 C365 1.433 . S
C367 N370 1.384 . S
C368 H359 0.929 . S
C368 C360 1.378 . S
C368 C363 1.350 . S
C369 H356 0.929 . S
C369 C361 1.433 . S
C369 N371 1.384 . S
N370 C366 1.427 . S
N370 C367 1.384 . S
N371 C363 1.427 . S
N371 C369 1.384 . S
H372 C378 0.930 . S
H373 C382 0.930 . S
H374 C387 0.929 . S
H375 C385 0.929 . S
H376 C380 0.929 . S
H377 C386 0.929 . S
C378 H372 0.930 . S
C378 C379 1.367 . S
C378 C386 1.378 . S
C379 C378 1.367 . S
C379 C387 1.433 . S
C380 H376 0.929 . S
C380 C382 1.378 . S
C380 C384 1.350 . S
C381 C384 1.463 . S
C381 C386 1.350 . S
C381 N389 1.427 . S
C382 H373 0.930 . S
C382 C380 1.378 . S
C382 C383 1.367 . S
C383 C382 1.367 . S
C383 C385 1.433 . S
C384 C380 1.350 . S
C384 C381 1.463 . S
C384 N388 1.427 . S
C385 H375 0.929 . S
C385 C383 1.433 . S
C385 N388 1.384 . S
C386 H377 0.929 . S
C386 C378 1.378 . S
C386 C381 1.350 . S
C387 H374 0.929 . S
C387 C379 1.433 . S
C387 N389 1.384 . S
N388 C384 1.427 . S
N388 C385 1.384 . S
N389 C381 1.427 . S
N389 C387 1.384 . S
H390 C396 0.930 . S
H391 C400 0.930 . S
H392 C405 0.929 . S
H393 C403 0.929 . S
H394 C398 0.929 . S
H395 C404 0.929 . S
C396 H390 0.930 . S
C396 C397 1.367 . S
C396 C404 1.378 . S
C397 C396 1.367 . S
C397 C405 1.433 . S
C398 H394 0.929 . S
C398 C400 1.378 . S
C398 C402 1.350 . S
C399 C402 1.463 . S
C399 C404 1.350 . S
C399 N407 1.427 . S
C400 H391 0.930 . S
C400 C398 1.378 . S
C400 C401 1.367 . S
C401 C400 1.367 . S
C401 C403 1.433 . S
C402 C398 1.350 . S
C402 C399 1.463 . S
C402 N406 1.427 . S
C403 H393 0.929 . S
C403 C401 1.433 . S
C403 N406 1.384 . S
C404 H395 0.929 . S
C404 C396 1.378 . S
C404 C399 1.350 . S
C405 H392 0.929 . S
C405 C397 1.433 . S
C405 N407 1.384 . S
N406 C402 1.427 . S
N406 C403 1.384 . S
N407 C399 1.427 . S
N407 C405 1.384 . S
H408 C414 0.930 . S
H409 C418 0.930 . S
H410 C423 0.929 . S
H411 C421 0.929 . S
H412 C416 0.929 . S
H413 C422 0.929 . S
C414 H408 0.930 . S
C414 C415 1.367 . S
C414 C422 1.378 . S
C415 C414 1.367 . S
C415 C423 1.433 . S
C416 H412 0.929 . S
C416 C418 1.378 . S
C416 C420 1.350 . S
C417 C420 1.463 . S
C417 C422 1.350 . S
C417 N425 1.427 . S
C418 H409 0.930 . S
C418 C416 1.378 . S
C418 C419 1.367 . S
C419 C418 1.367 . S
C419 C421 1.433 . S
C420 C416 1.350 . S
C420 C417 1.463 . S
C420 N424 1.427 . S
C421 H411 0.929 . S
C421 C419 1.433 . S
C421 N424 1.384 . S
C422 H413 0.929 . S
C422 C414 1.378 . S
C422 C417 1.350 . S
C423 H410 0.929 . S
C423 C415 1.433 . S
C423 N425 1.384 . S
N424 C420 1.427 . S
N424 C421 1.384 . S
N425 C417 1.427 . S
N425 C423 1.384 . S
C217 C58 1.163 . S
C221 C187 1.258 . S
C235 C151 1.547 . S
C239 C193 1.395 . S
C253 C56 1.623 . S
C257 C184 1.488 . S
C271 C153 1.209 . S
C275 C209 1.271 . S
C289 C74 1.601 . S
C293 C175 1.444 . S
C311 C192 1.518 . S
C307 C147 1.622 . S
C325 C142 1.195 . S
C329 C188 1.282 . S
C347 C205 1.532 . S
C343 C63 1.622 . S
C365 C172 1.462 . S
C361 C158 1.599 . S
C383 C208 1.265 . S
C379 C69 1.221 . S
C401 C171 1.495 . S
C397 C140 1.623 . S
C419 C196 1.416 . S
C415 C67 1.554 . S
