# Generated by pormake.
# Topology gar, (4,6)-cn, num edge types: 1
# Building blocks:
#     Node 0, Type 0, BuildingBlock: UXUYUI_clean_sbu_0, # of connection points: 4
#     Node 1, Type 0, BuildingBlock: UXUYUI_clean_sbu_0, # of connection points: 4
#     Node 2, Type 0, BuildingBlock: UXUYUI_clean_sbu_0, # of connection points: 4
#     Node 3, Type 0, BuildingBlock: UXUYUI_clean_sbu_0, # of connection points: 4
#     Node 4, Type 0, BuildingBlock: UXUYUI_clean_sbu_0, # of connection points: 4
#     Node 5, Type 0, BuildingBlock: UXUYUI_clean_sbu_0, # of connection points: 4
#     Node 6, Type 0, BuildingBlock: UXUYUI_clean_sbu_0, # of connection points: 4
#     Node 7, Type 0, BuildingBlock: UXUYUI_clean_sbu_0, # of connection points: 4
#     Node 8, Type 0, BuildingBlock: UXUYUI_clean_sbu_0, # of connection points: 4
#     Node 9, Type 0, BuildingBlock: UXUYUI_clean_sbu_0, # of connection points: 4
#     Node 10, Type 0, BuildingBlock: UXUYUI_clean_sbu_0, # of connection points: 4
#     Node 11, Type 0, BuildingBlock: UXUYUI_clean_sbu_0, # of connection points: 4
#     Node 12, Type 0, BuildingBlock: UXUYUI_clean_sbu_0, # of connection points: 4
#     Node 13, Type 0, BuildingBlock: UXUYUI_clean_sbu_0, # of connection points: 4
#     Node 14, Type 0, BuildingBlock: UXUYUI_clean_sbu_0, # of connection points: 4
#     Node 15, Type 0, BuildingBlock: UXUYUI_clean_sbu_0, # of connection points: 4
#     Node 16, Type 0, BuildingBlock: UXUYUI_clean_sbu_0, # of connection points: 4
#     Node 17, Type 0, BuildingBlock: UXUYUI_clean_sbu_0, # of connection points: 4
#     Node 18, Type 0, BuildingBlock: UXUYUI_clean_sbu_0, # of connection points: 4
#     Node 19, Type 0, BuildingBlock: UXUYUI_clean_sbu_0, # of connection points: 4
#     Node 20, Type 0, BuildingBlock: UXUYUI_clean_sbu_0, # of connection points: 4
#     Node 21, Type 0, BuildingBlock: UXUYUI_clean_sbu_0, # of connection points: 4
#     Node 22, Type 0, BuildingBlock: UXUYUI_clean_sbu_0, # of connection points: 4
#     Node 23, Type 0, BuildingBlock: UXUYUI_clean_sbu_0, # of connection points: 4
#     Node 24, Type 1, BuildingBlock: INOVEN_clean_sbu_0, # of connection points: 6
#     Node 25, Type 1, BuildingBlock: INOVEN_clean_sbu_0, # of connection points: 6
#     Node 26, Type 1, BuildingBlock: INOVEN_clean_sbu_0, # of connection points: 6
#     Node 27, Type 1, BuildingBlock: INOVEN_clean_sbu_0, # of connection points: 6
#     Node 28, Type 1, BuildingBlock: INOVEN_clean_sbu_0, # of connection points: 6
#     Node 29, Type 1, BuildingBlock: INOVEN_clean_sbu_0, # of connection points: 6
#     Node 30, Type 1, BuildingBlock: INOVEN_clean_sbu_0, # of connection points: 6
#     Node 31, Type 1, BuildingBlock: INOVEN_clean_sbu_0, # of connection points: 6
#     Node 32, Type 1, BuildingBlock: INOVEN_clean_sbu_0, # of connection points: 6
#     Node 33, Type 1, BuildingBlock: INOVEN_clean_sbu_0, # of connection points: 6
#     Node 34, Type 1, BuildingBlock: INOVEN_clean_sbu_0, # of connection points: 6
#     Node 35, Type 1, BuildingBlock: INOVEN_clean_sbu_0, # of connection points: 6
#     Node 36, Type 1, BuildingBlock: INOVEN_clean_sbu_0, # of connection points: 6
#     Node 37, Type 1, BuildingBlock: INOVEN_clean_sbu_0, # of connection points: 6
#     Node 38, Type 1, BuildingBlock: INOVEN_clean_sbu_0, # of connection points: 6
#     Node 39, Type 1, BuildingBlock: INOVEN_clean_sbu_0, # of connection points: 6
#     Edge 40, Type (0, 1), BuildingBlock: KIFKEQ_clean_linker_1, # of connection points: 2
#     Edge 41, Type (0, 1), BuildingBlock: KIFKEQ_clean_linker_1, # of connection points: 2
#     Edge 42, Type (0, 1), BuildingBlock: KIFKEQ_clean_linker_1, # of connection points: 2
#     Edge 43, Type (0, 1), BuildingBlock: KIFKEQ_clean_linker_1, # of connection points: 2
#     Edge 44, Type (0, 1), BuildingBlock: KIFKEQ_clean_linker_1, # of connection points: 2
#     Edge 45, Type (0, 1), BuildingBlock: KIFKEQ_clean_linker_1, # of connection points: 2
#     Edge 46, Type (0, 1), BuildingBlock: KIFKEQ_clean_linker_1, # of connection points: 2
#     Edge 47, Type (0, 1), BuildingBlock: KIFKEQ_clean_linker_1, # of connection points: 2
#     Edge 48, Type (0, 1), BuildingBlock: KIFKEQ_clean_linker_1, # of connection points: 2
#     Edge 49, Type (0, 1), BuildingBlock: KIFKEQ_clean_linker_1, # of connection points: 2
#     Edge 50, Type (0, 1), BuildingBlock: KIFKEQ_clean_linker_1, # of connection points: 2
#     Edge 51, Type (0, 1), BuildingBlock: KIFKEQ_clean_linker_1, # of connection points: 2
#     Edge 52, Type (0, 1), BuildingBlock: KIFKEQ_clean_linker_1, # of connection points: 2
#     Edge 53, Type (0, 1), BuildingBlock: KIFKEQ_clean_linker_1, # of connection points: 2
#     Edge 54, Type (0, 1), BuildingBlock: KIFKEQ_clean_linker_1, # of connection points: 2
#     Edge 55, Type (0, 1), BuildingBlock: KIFKEQ_clean_linker_1, # of connection points: 2
#     Edge 56, Type (0, 1), BuildingBlock: KIFKEQ_clean_linker_1, # of connection points: 2
#     Edge 57, Type (0, 1), BuildingBlock: KIFKEQ_clean_linker_1, # of connection points: 2
#     Edge 58, Type (0, 1), BuildingBlock: KIFKEQ_clean_linker_1, # of connection points: 2
#     Edge 59, Type (0, 1), BuildingBlock: KIFKEQ_clean_linker_1, # of connection points: 2
#     Edge 60, Type (0, 1), BuildingBlock: KIFKEQ_clean_linker_1, # of connection points: 2
#     Edge 61, Type (0, 1), BuildingBlock: KIFKEQ_clean_linker_1, # of connection points: 2
#     Edge 62, Type (0, 1), BuildingBlock: KIFKEQ_clean_linker_1, # of connection points: 2
#     Edge 63, Type (0, 1), BuildingBlock: KIFKEQ_clean_linker_1, # of connection points: 2
#     Edge 64, Type (0, 1), BuildingBlock: KIFKEQ_clean_linker_1, # of connection points: 2
#     Edge 65, Type (0, 1), BuildingBlock: KIFKEQ_clean_linker_1, # of connection points: 2
#     Edge 66, Type (0, 1), BuildingBlock: KIFKEQ_clean_linker_1, # of connection points: 2
#     Edge 67, Type (0, 1), BuildingBlock: KIFKEQ_clean_linker_1, # of connection points: 2
#     Edge 68, Type (0, 1), BuildingBlock: KIFKEQ_clean_linker_1, # of connection points: 2
#     Edge 69, Type (0, 1), BuildingBlock: KIFKEQ_clean_linker_1, # of connection points: 2
#     Edge 70, Type (0, 1), BuildingBlock: KIFKEQ_clean_linker_1, # of connection points: 2
#     Edge 71, Type (0, 1), BuildingBlock: KIFKEQ_clean_linker_1, # of connection points: 2
#     Edge 72, Type (0, 1), BuildingBlock: KIFKEQ_clean_linker_1, # of connection points: 2
#     Edge 73, Type (0, 1), BuildingBlock: KIFKEQ_clean_linker_1, # of connection points: 2
#     Edge 74, Type (0, 1), BuildingBlock: KIFKEQ_clean_linker_1, # of connection points: 2
#     Edge 75, Type (0, 1), BuildingBlock: KIFKEQ_clean_linker_1, # of connection points: 2
#     Edge 76, Type (0, 1), BuildingBlock: KIFKEQ_clean_linker_1, # of connection points: 2
#     Edge 77, Type (0, 1), BuildingBlock: KIFKEQ_clean_linker_1, # of connection points: 2
#     Edge 78, Type (0, 1), BuildingBlock: KIFKEQ_clean_linker_1, # of connection points: 2
#     Edge 79, Type (0, 1), BuildingBlock: KIFKEQ_clean_linker_1, # of connection points: 2
#     Edge 80, Type (0, 1), BuildingBlock: KIFKEQ_clean_linker_1, # of connection points: 2
#     Edge 81, Type (0, 1), BuildingBlock: KIFKEQ_clean_linker_1, # of connection points: 2
#     Edge 82, Type (0, 1), BuildingBlock: KIFKEQ_clean_linker_1, # of connection points: 2
#     Edge 83, Type (0, 1), BuildingBlock: KIFKEQ_clean_linker_1, # of connection points: 2
#     Edge 84, Type (0, 1), BuildingBlock: KIFKEQ_clean_linker_1, # of connection points: 2
#     Edge 85, Type (0, 1), BuildingBlock: KIFKEQ_clean_linker_1, # of connection points: 2
#     Edge 86, Type (0, 1), BuildingBlock: KIFKEQ_clean_linker_1, # of connection points: 2
#     Edge 87, Type (0, 1), BuildingBlock: KIFKEQ_clean_linker_1, # of connection points: 2
#     Edge 88, Type (0, 1), BuildingBlock: KIFKEQ_clean_linker_1, # of connection points: 2
#     Edge 89, Type (0, 1), BuildingBlock: KIFKEQ_clean_linker_1, # of connection points: 2
#     Edge 90, Type (0, 1), BuildingBlock: KIFKEQ_clean_linker_1, # of connection points: 2
#     Edge 91, Type (0, 1), BuildingBlock: KIFKEQ_clean_linker_1, # of connection points: 2
#     Edge 92, Type (0, 1), BuildingBlock: KIFKEQ_clean_linker_1, # of connection points: 2
#     Edge 93, Type (0, 1), BuildingBlock: KIFKEQ_clean_linker_1, # of connection points: 2
#     Edge 94, Type (0, 1), BuildingBlock: KIFKEQ_clean_linker_1, # of connection points: 2
#     Edge 95, Type (0, 1), BuildingBlock: KIFKEQ_clean_linker_1, # of connection points: 2
#     Edge 96, Type (0, 1), BuildingBlock: KIFKEQ_clean_linker_1, # of connection points: 2
#     Edge 97, Type (0, 1), BuildingBlock: KIFKEQ_clean_linker_1, # of connection points: 2
#     Edge 98, Type (0, 1), BuildingBlock: KIFKEQ_clean_linker_1, # of connection points: 2
#     Edge 99, Type (0, 1), BuildingBlock: KIFKEQ_clean_linker_1, # of connection points: 2
#     Edge 100, Type (0, 1), BuildingBlock: KIFKEQ_clean_linker_1, # of connection points: 2
#     Edge 101, Type (0, 1), BuildingBlock: KIFKEQ_clean_linker_1, # of connection points: 2
#     Edge 102, Type (0, 1), BuildingBlock: KIFKEQ_clean_linker_1, # of connection points: 2
#     Edge 103, Type (0, 1), BuildingBlock: KIFKEQ_clean_linker_1, # of connection points: 2
#     Edge 104, Type (0, 1), BuildingBlock: KIFKEQ_clean_linker_1, # of connection points: 2
#     Edge 105, Type (0, 1), BuildingBlock: KIFKEQ_clean_linker_1, # of connection points: 2
#     Edge 106, Type (0, 1), BuildingBlock: KIFKEQ_clean_linker_1, # of connection points: 2
#     Edge 107, Type (0, 1), BuildingBlock: KIFKEQ_clean_linker_1, # of connection points: 2
#     Edge 108, Type (0, 1), BuildingBlock: KIFKEQ_clean_linker_1, # of connection points: 2
#     Edge 109, Type (0, 1), BuildingBlock: KIFKEQ_clean_linker_1, # of connection points: 2
#     Edge 110, Type (0, 1), BuildingBlock: KIFKEQ_clean_linker_1, # of connection points: 2
#     Edge 111, Type (0, 1), BuildingBlock: KIFKEQ_clean_linker_1, # of connection points: 2
#     Edge 112, Type (0, 1), BuildingBlock: KIFKEQ_clean_linker_1, # of connection points: 2
#     Edge 113, Type (0, 1), BuildingBlock: KIFKEQ_clean_linker_1, # of connection points: 2
#     Edge 114, Type (0, 1), BuildingBlock: KIFKEQ_clean_linker_1, # of connection points: 2
#     Edge 115, Type (0, 1), BuildingBlock: KIFKEQ_clean_linker_1, # of connection points: 2
#     Edge 116, Type (0, 1), BuildingBlock: KIFKEQ_clean_linker_1, # of connection points: 2
#     Edge 117, Type (0, 1), BuildingBlock: KIFKEQ_clean_linker_1, # of connection points: 2
#     Edge 118, Type (0, 1), BuildingBlock: KIFKEQ_clean_linker_1, # of connection points: 2
#     Edge 119, Type (0, 1), BuildingBlock: KIFKEQ_clean_linker_1, # of connection points: 2
#     Edge 120, Type (0, 1), BuildingBlock: KIFKEQ_clean_linker_1, # of connection points: 2
#     Edge 121, Type (0, 1), BuildingBlock: KIFKEQ_clean_linker_1, # of connection points: 2
#     Edge 122, Type (0, 1), BuildingBlock: KIFKEQ_clean_linker_1, # of connection points: 2
#     Edge 123, Type (0, 1), BuildingBlock: KIFKEQ_clean_linker_1, # of connection points: 2
#     Edge 124, Type (0, 1), BuildingBlock: KIFKEQ_clean_linker_1, # of connection points: 2
#     Edge 125, Type (0, 1), BuildingBlock: KIFKEQ_clean_linker_1, # of connection points: 2
#     Edge 126, Type (0, 1), BuildingBlock: KIFKEQ_clean_linker_1, # of connection points: 2
#     Edge 127, Type (0, 1), BuildingBlock: KIFKEQ_clean_linker_1, # of connection points: 2
#     Edge 128, Type (0, 1), BuildingBlock: KIFKEQ_clean_linker_1, # of connection points: 2
#     Edge 129, Type (0, 1), BuildingBlock: KIFKEQ_clean_linker_1, # of connection points: 2
#     Edge 130, Type (0, 1), BuildingBlock: KIFKEQ_clean_linker_1, # of connection points: 2
#     Edge 131, Type (0, 1), BuildingBlock: KIFKEQ_clean_linker_1, # of connection points: 2
#     Edge 132, Type (0, 1), BuildingBlock: KIFKEQ_clean_linker_1, # of connection points: 2
#     Edge 133, Type (0, 1), BuildingBlock: KIFKEQ_clean_linker_1, # of connection points: 2
#     Edge 134, Type (0, 1), BuildingBlock: KIFKEQ_clean_linker_1, # of connection points: 2
#     Edge 135, Type (0, 1), BuildingBlock: KIFKEQ_clean_linker_1, # of connection points: 2
# Relax obj value: 0.187
# Max RMSD: 0.286
# Mean RMSD: 0.196
data_MOF--net-gar--node1-UXUYUI_clean_sbu_0--node2-INOVEN_clean_sbu_0--edge1-KIFKEQ_clean_linker_1
_symmetry_space_group_name_H-M    P1
_symmetry_Int_Tables_number       1
_symmetry_cell_setting            triclinic
loop_
_symmetry_equiv_pos_as_xyz
'x, y, z'
_cell_length_a     75.63307
_cell_length_b     70.874206
_cell_length_c     71.056203
_cell_angle_alpha  98.886963
_cell_angle_beta   95.04209
_cell_angle_gamma 102.80876
loop_
_atom_site_label
_atom_site_type_symbol
_atom_site_fract_x
_atom_site_fract_y
_atom_site_fract_z
_atom_type_partial_charge
Li0 Li 0.07657 0.31718 0.3664 0.0
Li1 Li 0.09482 0.33936 0.39529 0.0
Li2 Li 0.10902 0.3199 0.37086 0.0
Li3 Li 0.08886 0.30339 0.39284 0.0
C4 C 0.09546 0.35476 0.35685 0.0
N5 N 0.09293 0.38274 0.33436 0.0
C6 C 0.08792 0.37048 0.36341 0.0
C7 C 0.1017 0.35322 0.33887 0.0
C8 C 0.08678 0.3845 0.35182 0.0
C9 C 0.10028 0.36752 0.32769 0.0
C10 C 0.05636 0.31772 0.40262 0.0
C11 C 0.04241 0.31176 0.43106 0.0
N12 N 0.0265 0.3145 0.42271 0.0
C13 C 0.03993 0.32066 0.3944 0.0
C14 C 0.0577 0.31345 0.42118 0.0
C15 C 0.02497 0.3189 0.40476 0.0
C16 C 0.04286 0.29587 0.3489 0.0
N17 N 0.05601 0.31224 0.34835 0.0
C18 C 0.03723 0.32158 0.32463 0.0
C19 C 0.05373 0.32473 0.33618 0.0
C20 C 0.02302 0.30551 0.32581 0.0
C21 C 0.02607 0.29215 0.33762 0.0
H22 H 0.04518 0.28624 0.3588 0.0
H23 H 0.06433 0.33751 0.33583 0.0
C24 C 0.11162 0.37897 0.41275 0.0
N25 N 0.09704 0.36349 0.4118 0.0
C26 C 0.11146 0.39745 0.42297 0.0
C27 C 0.08157 0.38338 0.43116 0.0
C28 C 0.08238 0.36533 0.42103 0.0
C29 C 0.09604 0.3997 0.43184 0.0
H30 H 0.12299 0.3771 0.40501 0.0
H31 H 0.07094 0.35304 0.42002 0.0
C32 C 0.08307 0.28068 0.35 0.0
N33 N 0.07124 0.25007 0.31922 0.0
C34 C 0.07876 0.26127 0.35304 0.0
C35 C 0.08153 0.28456 0.33131 0.0
C36 C 0.07284 0.24598 0.33729 0.0
C37 C 0.07538 0.26887 0.31594 0.0
C38 C 0.12708 0.32804 0.41352 0.0
C39 C 0.14445 0.32674 0.40908 0.0
C40 C 0.12453 0.33431 0.43248 0.0
C41 C 0.15908 0.33174 0.42377 0.0
C42 C 0.13954 0.33924 0.44677 0.0
N43 N 0.15634 0.33785 0.44216 0.0
C44 C 0.14009 0.33588 0.35486 0.0
C45 C 0.1299 0.30103 0.34874 0.0
C46 C 0.15366 0.33492 0.34297 0.0
N47 N 0.12857 0.31905 0.35731 0.0
C48 C 0.1431 0.29938 0.33663 0.0
C49 C 0.15507 0.31647 0.3336 0.0
H50 H 0.13846 0.34997 0.36184 0.0
H51 H 0.1206 0.28795 0.35117 0.0
C52 C 0.06621 0.27147 0.40263 0.0
N53 N 0.08368 0.28253 0.40587 0.0
C54 C 0.06126 0.2554 0.41168 0.0
C55 C 0.09254 0.26225 0.42685 0.0
C56 C 0.09684 0.27835 0.41765 0.0
C57 C 0.07456 0.25062 0.42384 0.0
H58 H 0.05619 0.27513 0.39289 0.0
H59 H 0.11063 0.28742 0.41976 0.0
O60 O 0.09682 0.34098 0.36803 0.0
O61 O 0.07127 0.3199 0.39285 0.0
O62 O 0.08934 0.29572 0.36529 0.0
O63 O 0.11267 0.3231 0.39928 0.0
H64 H 0.08291 0.3718 0.37723 0.0
H65 H 0.10738 0.341 0.33351 0.0
H66 H 0.08099 0.39676 0.3567 0.0
H67 H 0.10498 0.3665 0.31371 0.0
H68 H 0.04322 0.30839 0.4454 0.0
H69 H 0.03881 0.32455 0.38029 0.0
H70 H 0.07046 0.31162 0.42794 0.0
H71 H 0.01218 0.32114 0.39857 0.0
H72 H 0.03532 0.33205 0.31548 0.0
H73 H 0.01529 0.27969 0.33896 0.0
H74 H 0.12281 0.40993 0.42329 0.0
H75 H 0.06955 0.3847 0.43802 0.0
H76 H 0.08023 0.25802 0.3674 0.0
H77 H 0.085 0.29953 0.32874 0.0
H78 H 0.06957 0.23087 0.33943 0.0
H79 H 0.07397 0.27162 0.30139 0.0
H80 H 0.1466 0.32181 0.39445 0.0
H81 H 0.11113 0.33538 0.43609 0.0
H82 H 0.1726 0.33076 0.42056 0.0
H83 H 0.13782 0.34416 0.46154 0.0
H84 H 0.16272 0.34837 0.34086 0.0
H85 H 0.14407 0.28491 0.3299 0.0
H86 H 0.04733 0.24657 0.40889 0.0
H87 H 0.10309 0.25895 0.43624 0.0
Li88 Li 1.00339 0.77146 0.63689 0.0
Li89 Li 0.01576 0.75831 0.66425 0.0
Li90 Li 0.99729 0.73603 0.63577 0.0
Li91 Li 0.98319 0.75499 0.65916 0.0
C92 C 0.0344 0.75306 0.62657 0.0
N93 N 0.06176 0.74995 0.60384 0.0
C94 C 0.05268 0.75841 0.63477 0.0
C95 C 0.03 0.74613 0.60682 0.0
C96 C 0.06633 0.75675 0.62303 0.0
C97 C 0.04405 0.74463 0.59558 0.0
C98 C 0.00709 0.79477 0.67976 0.0
C99 C 0.0093 0.80735 0.71361 0.0
N100 N 0.01741 0.82556 0.71052 0.0
C101 C 0.01533 0.81363 0.67689 0.0
C102 C 1.00395 0.79158 0.69823 0.0
C103 C 0.02049 0.829 0.69264 0.0
C104 C 0.99662 0.80409 0.62329 0.0
N105 N 0.00842 0.79223 0.62352 0.0
C106 C 0.02846 0.81203 0.60634 0.0
C107 C 0.02417 0.79596 0.61548 0.0
C108 C 0.0167 0.82479 0.60602 0.0
C109 C 1.00058 0.82068 0.61473 0.0
H110 H 0.98437 0.80088 0.63019 0.0
H111 H 0.03359 0.78669 0.61629 0.0
C112 C 0.04242 0.74654 0.68576 0.0
N113 N 0.03632 0.76244 0.68222 0.0
C114 C 0.05892 0.74915 0.69728 0.0
C115 C 0.06239 0.7844 0.70133 0.0
C116 C 0.04591 0.78111 0.68966 0.0
C117 C 0.06903 0.76829 0.70492 0.0
H118 H 0.03496 0.73192 0.67884 0.0
H119 H 0.04146 0.79349 0.68565 0.0
C120 C 0.96536 0.7432 0.61645 0.0
N121 N 0.93672 0.72579 0.58782 0.0
C122 C 0.94876 0.73289 0.62103 0.0
C123 C 0.9674 0.74474 0.59736 0.0
C124 C 0.93444 0.72419 0.60633 0.0
C125 C 0.95276 0.73578 0.58307 0.0
C126 C 0.99645 0.72195 0.67546 0.0
C127 C 0.99372 0.70181 0.66865 0.0
C128 C 0.99996 0.72912 0.69521 0.0
C129 C 0.99485 0.68917 0.68171 0.0
C130 C 1.00104 0.716 0.70782 0.0
N131 N 0.9985 0.69647 0.70087 0.0
C132 C 0.01169 0.70558 0.62365 0.0
C133 C 0.98172 0.70096 0.6077 0.0
C134 C 0.01333 0.68782 0.61356 0.0
N135 N 0.99619 0.71186 0.62042 0.0
C136 C 0.98275 0.68299 0.59725 0.0
C137 C 0.99874 0.67633 0.60019 0.0
H138 H 0.02278 0.71442 0.6342 0.0
H139 H 0.96937 0.70601 0.60573 0.0
C140 C 0.95953 0.77318 0.67736 0.0
N141 N 0.9637 0.75555 0.67273 0.0
C142 C 0.94646 0.77517 0.68956 0.0
C143 C 0.94195 0.74059 0.69147 0.0
C144 C 0.95523 0.73932 0.6793 0.0
C145 C 0.93765 0.75877 0.69686 0.0
H146 H 0.96665 0.78576 0.67185 0.0
H147 H 0.95903 0.72554 0.67534 0.0
O148 O 0.02095 0.75501 0.63783 0.0
O149 O 1.00254 0.77949 0.66456 0.0
O150 O 0.97932 0.75235 0.63067 0.0
O151 O 0.99594 0.73454 0.66277 0.0
H152 H 0.05631 0.76394 0.65001 0.0
H153 H 0.0159 0.74208 0.60027 0.0
H154 H 0.08054 0.76092 0.62916 0.0
H155 H 0.04088 0.7393 0.58028 0.0
H156 H 0.00705 0.8051 0.728 0.0
H157 H 0.01796 0.81629 0.66268 0.0
H158 H 0.99756 0.77708 0.70066 0.0
H159 H 0.02701 0.84364 0.69066 0.0
H160 H 0.04085 0.81429 0.59958 0.0
H161 H 0.99127 0.83029 0.61526 0.0
H162 H 0.06425 0.73651 0.69926 0.0
H163 H 0.0704 0.7993 0.70648 0.0
H164 H 0.94696 0.73168 0.63577 0.0
H165 H 0.98016 0.75279 0.59366 0.0
H166 H 0.9215 0.71618 0.60964 0.0
H167 H 0.95413 0.73681 0.56821 0.0
H168 H 0.9907 0.69595 0.65344 0.0
H169 H 1.00214 0.74466 0.7007 0.0
H170 H 0.99283 0.67355 0.67662 0.0
H171 H 1.00395 0.72136 0.72313 0.0
H172 H 0.02597 0.68327 0.61604 0.0
H173 H 0.97116 0.67434 0.58717 0.0
H174 H 0.94318 0.78931 0.69311 0.0
H175 H 0.93536 0.72766 0.69685 0.0
Li176 Li 0.57654 0.81797 0.86555 0.0
Li177 Li 0.59481 0.83996 0.89412 0.0
Li178 Li 0.6089 0.82079 0.86962 0.0
Li179 Li 0.58932 0.80419 0.89193 0.0
C180 C 0.59435 0.85424 0.85447 0.0
N181 N 0.58992 0.87932 0.82928 0.0
C182 C 0.5887 0.8714 0.86067 0.0
C183 C 0.5979 0.84988 0.83553 0.0
C184 C 0.58653 0.88389 0.8477 0.0
C185 C 0.59551 0.86273 0.82298 0.0
C186 C 0.55805 0.82024 0.90365 0.0
C187 C 0.5479 0.82006 0.93483 0.0
N188 N 0.53089 0.82045 0.92714 0.0
C189 C 0.54049 0.82066 0.89605 0.0
C190 C 0.56185 0.82 0.92319 0.0
C191 C 0.52694 0.82076 0.90816 0.0
C192 C 0.54432 0.79478 0.84764 0.0
N193 N 0.55559 0.81269 0.84803 0.0
C194 C 0.53426 0.82085 0.82592 0.0
C195 C 0.551 0.8257 0.83746 0.0
C196 C 0.52226 0.80264 0.82566 0.0
C197 C 0.52745 0.78937 0.83641 0.0
H198 H 0.54823 0.785 0.85662 0.0
H199 H 0.55987 0.84005 0.83847 0.0
C200 C 0.61316 0.87578 0.91885 0.0
N201 N 0.59684 0.86367 0.91063 0.0
C202 C 0.61358 0.89365 0.93059 0.0
C203 C 0.58049 0.88597 0.92488 0.0
C204 C 0.58072 0.8685 0.91322 0.0
C205 C 0.59703 0.89865 0.9336 0.0
H206 H 0.62576 0.87165 0.91613 0.0
H207 H 0.56806 0.85902 0.90584 0.0
C208 C 0.58375 0.78122 0.84922 0.0
N209 N 0.57289 0.75003 0.81888 0.0
C210 C 0.57981 0.76193 0.85264 0.0
C211 C 0.58224 0.78469 0.83038 0.0
C212 C 0.57439 0.74635 0.8371 0.0
C213 C 0.57663 0.76871 0.81523 0.0
C214 C 0.62693 0.82744 0.91257 0.0
C215 C 0.64413 0.8252 0.90837 0.0
C216 C 0.6242 0.83337 0.93154 0.0
C217 C 0.65842 0.82898 0.92332 0.0
C218 C 0.63887 0.8371 0.94609 0.0
N219 N 0.65552 0.83484 0.94171 0.0
C220 C 0.63999 0.83756 0.85429 0.0
C221 C 0.62987 0.80272 0.84688 0.0
C222 C 0.65385 0.83715 0.84269 0.0
N223 N 0.62843 0.82047 0.85603 0.0
C224 C 0.64326 0.80164 0.83494 0.0
C225 C 0.65538 0.81899 0.83276 0.0
H226 H 0.63828 0.85142 0.86175 0.0
H227 H 0.6206 0.78941 0.84882 0.0
C228 C 0.56634 0.77394 0.90406 0.0
N229 N 0.58421 0.78337 0.90516 0.0
C230 C 0.56134 0.75812 0.91345 0.0
C231 C 0.59335 0.76166 0.92434 0.0
C232 C 0.59771 0.77759 0.9149 0.0
C233 C 0.57494 0.75179 0.92377 0.0
H234 H 0.55598 0.77876 0.89586 0.0
H235 H 0.61182 0.78524 0.91518 0.0
O236 O 0.59657 0.84191 0.86699 0.0
O237 O 0.57148 0.82035 0.89197 0.0
O238 O 0.58943 0.79655 0.86431 0.0
O239 O 0.61297 0.82418 0.89802 0.0
H240 H 0.58598 0.87502 0.8753 0.0
H241 H 0.60232 0.83666 0.83056 0.0
H242 H 0.58213 0.8972 0.85229 0.0
H243 H 0.59809 0.85951 0.80823 0.0
H244 H 0.5506 0.81982 0.94999 0.0
H245 H 0.5374 0.82108 0.88098 0.0
H246 H 0.57541 0.81973 0.92927 0.0
H247 H 0.5133 0.82113 0.90248 0.0
H248 H 0.53033 0.83157 0.81812 0.0
H249 H 0.51829 0.77531 0.83661 0.0
H250 H 0.62652 0.90344 0.93709 0.0
H251 H 0.56756 0.88972 0.92685 0.0
H252 H 0.5811 0.75903 0.86715 0.0
H253 H 0.58531 0.79956 0.82753 0.0
H254 H 0.5714 0.73134 0.83953 0.0
H255 H 0.5753 0.77114 0.80057 0.0
H256 H 0.64642 0.82061 0.89372 0.0
H257 H 0.61096 0.83525 0.93496 0.0
H258 H 0.67181 0.82731 0.9203 0.0
H259 H 0.63702 0.84182 0.96085 0.0
H260 H 0.66313 0.85077 0.84134 0.0
H261 H 0.64439 0.78737 0.82781 0.0
H262 H 0.54699 0.75107 0.91277 0.0
H263 H 0.60429 0.757 0.9318 0.0
Li264 Li 0.50282 0.27176 0.13739 0.0
Li265 Li 0.51537 0.25851 0.16436 0.0
Li266 Li 0.49594 0.2364 0.1365 0.0
Li267 Li 0.48301 0.25594 0.16023 0.0
C268 C 0.53325 0.25234 0.12651 0.0
N269 N 0.56049 0.24819 0.10388 0.0
C270 C 0.55157 0.25802 0.13459 0.0
C271 C 0.52876 0.24459 0.10691 0.0
C272 C 0.56515 0.25582 0.1229 0.0
C273 C 0.54274 0.24257 0.09572 0.0
C274 C 0.50813 0.29529 0.18048 0.0
C275 C 0.51133 0.30773 0.21445 0.0
N276 N 0.51995 0.32578 0.21137 0.0
C277 C 0.51691 0.31398 0.17762 0.0
C278 C 0.5052 0.29212 0.199 0.0
C279 C 0.52282 0.3292 0.19344 0.0
C280 C 0.49697 0.30506 0.12481 0.0
N281 N 0.50789 0.29223 0.1238 0.0
C282 C 0.52727 0.31083 0.10519 0.0
C283 C 0.52285 0.29483 0.11437 0.0
C284 C 0.51646 0.3246 0.10617 0.0
C285 C 0.5011 0.32156 0.11617 0.0
H286 H 0.48535 0.30268 0.13275 0.0
H287 H 0.53154 0.28472 0.11411 0.0
C288 C 0.54174 0.24531 0.18375 0.0
N289 N 0.5362 0.26184 0.18148 0.0
C290 C 0.55851 0.24677 0.1942 0.0
C291 C 0.56336 0.28225 0.19999 0.0
C292 C 0.54655 0.28009 0.18929 0.0
C293 C 0.56959 0.26545 0.20206 0.0
H294 H 0.53354 0.23106 0.17666 0.0
H295 H 0.54239 0.293 0.18634 0.0
C296 C 0.46458 0.24443 0.11745 0.0
N297 N 0.43636 0.2271 0.08836 0.0
C298 C 0.44776 0.23439 0.12176 0.0
C299 C 0.46706 0.24581 0.09841 0.0
C300 C 0.43366 0.22569 0.10682 0.0
C301 C 0.45261 0.23689 0.08389 0.0
C302 C 0.4955 0.22247 0.17619 0.0
C303 C 0.49182 0.20224 0.16935 0.0
C304 C 0.49959 0.22962 0.19591 0.0
C305 C 0.49255 0.18948 0.18237 0.0
C306 C 0.50021 0.21637 0.20847 0.0
N307 N 0.49672 0.19675 0.2015 0.0
C308 C 0.50916 0.2054 0.12393 0.0
C309 C 0.47911 0.2018 0.1085 0.0
C310 C 0.5105 0.18799 0.11294 0.0
N311 N 0.49385 0.21214 0.12119 0.0
C312 C 0.47987 0.18423 0.09714 0.0
C313 C 0.49582 0.17752 0.09928 0.0
H314 H 0.52042 0.21378 0.13452 0.0
H315 H 0.46691 0.20714 0.10697 0.0
C316 C 0.45982 0.2743 0.17909 0.0
N317 N 0.46384 0.25666 0.17405 0.0
C318 C 0.44665 0.27605 0.1912 0.0
C319 C 0.44192 0.24127 0.19233 0.0
C320 C 0.4552 0.24022 0.18016 0.0
C321 C 0.43768 0.25942 0.19809 0.0
H322 H 0.46708 0.28703 0.1739 0.0
H323 H 0.45883 0.22642 0.17579 0.0
O324 O 0.51983 0.2547 0.13772 0.0
O325 O 0.50271 0.28017 0.16518 0.0
O326 O 0.47842 0.25329 0.13186 0.0
O327 O 0.49538 0.23516 0.16353 0.0
H328 H 0.55529 0.26423 0.14968 0.0
H329 H 0.51463 0.2403 0.10042 0.0
H330 H 0.57939 0.26021 0.12895 0.0
H331 H 0.53949 0.23658 0.08054 0.0
H332 H 0.50926 0.30549 0.22889 0.0
H333 H 0.51935 0.31663 0.16337 0.0
H334 H 0.49837 0.27776 0.20142 0.0
H335 H 0.52974 0.34371 0.19146 0.0
H336 H 0.53901 0.31228 0.09737 0.0
H337 H 0.49256 0.33196 0.11767 0.0
H338 H 0.56311 0.23354 0.19546 0.0
H339 H 0.57187 0.29685 0.2055 0.0
H340 H 0.44565 0.23328 0.13645 0.0
H341 H 0.48001 0.25362 0.09492 0.0
H342 H 0.42057 0.21783 0.10991 0.0
H343 H 0.45431 0.23775 0.06907 0.0
H344 H 0.48839 0.19641 0.15416 0.0
H345 H 0.50253 0.24523 0.20142 0.0
H346 H 0.48979 0.17379 0.17726 0.0
H347 H 0.50351 0.2217 0.22377 0.0
H348 H 0.52297 0.18296 0.11473 0.0
H349 H 0.46839 0.17622 0.08659 0.0
H350 H 0.44342 0.29019 0.195 0.0
H351 H 0.43527 0.22817 0.1974 0.0
Li352 Li 0.07615 0.82217 0.10151 0.0
Li353 Li 0.09548 0.80605 0.12582 0.0
Li354 Li 0.07369 0.78617 0.09649 0.0
Li355 Li 0.05966 0.80047 0.12411 0.0
C356 C 0.10653 0.80265 0.08372 0.0
N357 N 0.1271 0.79172 0.05558 0.0
C358 C 0.12443 0.80131 0.08874 0.0
C359 C 0.09909 0.79853 0.06441 0.0
C360 C 0.13464 0.79583 0.07429 0.0
C361 C 0.10969 0.79289 0.0504 0.0
C362 C 0.08143 0.84166 0.14479 0.0
C363 C 0.07895 0.85596 0.17718 0.0
N364 N 0.08464 0.87422 0.17287 0.0
C365 C 0.08728 0.86053 0.14067 0.0
C366 C 0.07726 0.83929 0.16316 0.0
C367 C 0.08882 0.87682 0.15507 0.0
C368 C 0.05653 0.84758 0.08623 0.0
N369 N 0.07374 0.84478 0.08912 0.0
C370 C 0.08522 0.87282 0.07455 0.0
C371 C 0.08799 0.85698 0.08329 0.0
C372 C 0.06756 0.87621 0.07149 0.0
C373 C 0.05312 0.86302 0.07736 0.0
H374 H 0.04531 0.83771 0.09079 0.0
H375 H 0.10158 0.85455 0.08557 0.0
C376 C 0.12207 0.78762 0.14245 0.0
N377 N 0.11879 0.80575 0.14217 0.0
C378 C 0.13773 0.78526 0.15326 0.0
C379 C 0.14708 0.82032 0.1633 0.0
C380 C 0.13109 0.82202 0.15234 0.0
C381 C 0.15069 0.80168 0.16411 0.0
H382 H 0.11249 0.77477 0.13413 0.0
H383 H 0.12856 0.83641 0.15202 0.0
C384 C 0.03953 0.79378 0.08201 0.0
N385 N 0.01085 0.77954 0.05274 0.0
C386 C 0.0227 0.78311 0.08572 0.0
C387 C 0.04172 0.7974 0.06346 0.0
C388 C 0.00837 0.77602 0.07073 0.0
C389 C 0.02707 0.78998 0.04883 0.0
C390 C 0.07174 0.76632 0.13277 0.0
C391 C 0.06234 0.74764 0.12296 0.0
C392 C 0.07717 0.76927 0.15251 0.0
C393 C 0.0586 0.73215 0.13311 0.0
C394 C 0.07317 0.75339 0.16215 0.0
N395 N 0.06406 0.73531 0.15233 0.0
C396 C 0.08561 0.75383 0.07904 0.0
C397 C 0.05499 0.75244 0.06737 0.0
C398 C 0.08426 0.735 0.06876 0.0
N399 N 0.07105 0.76212 0.07837 0.0
C400 C 0.05308 0.73366 0.05673 0.0
C401 C 0.0677 0.72442 0.05768 0.0
H402 H 0.09805 0.76148 0.08832 0.0
H403 H 0.04332 0.75874 0.06737 0.0
C404 C 0.03118 0.8126 0.14346 0.0
N405 N 0.03815 0.79675 0.13803 0.0
C406 C 0.01508 0.81058 0.1522 0.0
C407 C 0.01317 0.77584 0.14933 0.0
C408 C 0.02936 0.77854 0.14071 0.0
C409 C 1.00578 0.792 0.15532 0.0
H410 H 0.03799 0.82685 0.14073 0.0
H411 H 0.03468 0.76596 0.13585 0.0
O412 O 0.09651 0.80827 0.09771 0.0
O413 O 0.07941 0.82561 0.13074 0.0
O414 O 0.05378 0.80053 0.09646 0.0
O415 O 0.07584 0.7816 0.12307 0.0
H416 H 0.13041 0.80462 0.10363 0.0
H417 H 0.08525 0.79949 0.06033 0.0
H418 H 0.14856 0.79484 0.07795 0.0
H419 H 0.10407 0.78949 0.0354 0.0
H420 H 0.07571 0.85439 0.19146 0.0
H421 H 0.09059 0.86256 0.1265 0.0
H422 H 0.07264 0.82473 0.16649 0.0
H423 H 0.0933 0.89152 0.15209 0.0
H424 H 0.09694 0.88251 0.07058 0.0
H425 H 0.03918 0.86443 0.07503 0.0
H426 H 0.13973 0.77055 0.1528 0.0
H427 H 0.15636 0.83355 0.17135 0.0
H428 H 0.02076 0.78019 0.09998 0.0
H429 H 0.05462 0.8057 0.06036 0.0
H430 H 0.9953 0.76767 0.07338 0.0
H431 H 0.0286 0.79252 0.03437 0.0
H432 H 0.05789 0.74513 0.10772 0.0
H433 H 0.08444 0.78368 0.16027 0.0
H434 H 0.05135 0.7176 0.12572 0.0
H435 H 0.07733 0.75543 0.17742 0.0
H436 H 0.09583 0.72847 0.07038 0.0
H437 H 0.04008 0.72628 0.04828 0.0
H438 H 0.00979 0.82344 0.15617 0.0
H439 H 1.0066 0.76124 0.15142 0.0
Li440 Li 0.51908 0.78853 0.43323 0.0
Li441 Li 0.49773 0.76873 0.40392 0.0
Li442 Li 0.51648 0.75238 0.42855 0.0
Li443 Li 0.53313 0.77302 0.40583 0.0
C444 C 0.48558 0.77119 0.44565 0.0
N445 N 0.46432 0.78151 0.47333 0.0
C446 C 0.46924 0.77627 0.44038 0.0
C447 C 0.49096 0.771 0.46492 0.0
C448 C 0.45871 0.78151 0.45461 0.0
C449 C 0.48006 0.77639 0.47873 0.0
C450 C 0.52029 0.80779 0.3965 0.0
C451 C 0.52563 0.82021 0.36727 0.0
N452 N 0.52519 0.83845 0.3763 0.0
C453 C 0.5198 0.82664 0.40547 0.0
C454 C 0.52308 0.80448 0.37722 0.0
C455 C 0.52231 0.84195 0.39501 0.0
C456 C 0.53995 0.82453 0.45528 0.0
N457 N 0.52273 0.81279 0.45111 0.0
C458 C 0.51051 0.83837 0.46713 0.0
C459 C 0.50815 0.81934 0.45695 0.0
C460 C 0.52802 0.85101 0.47102 0.0
C461 C 0.54294 0.84371 0.4654 0.0
H462 H 0.55128 0.81941 0.44986 0.0
H463 H 0.49451 0.81041 0.45266 0.0
C464 C 0.46055 0.7525 0.38202 0.0
N465 N 0.47458 0.7688 0.38756 0.0
C466 C 0.44417 0.75342 0.37135 0.0
C467 C 0.45681 0.78775 0.37189 0.0
C468 C 0.47277 0.78625 0.38276 0.0
C469 C 0.44193 0.77126 0.36593 0.0
H470 H 0.46189 0.73875 0.3861 0.0
H471 H 0.48367 0.79926 0.38748 0.0
C472 C 0.55307 0.78033 0.4481 0.0
N473 N 0.58201 0.79315 0.4772 0.0
C474 C 0.57105 0.78365 0.44375 0.0
C475 C 0.5498 0.78341 0.46726 0.0
C476 C 0.58549 0.79009 0.45866 0.0
C477 C 0.56462 0.79 0.48177 0.0
C478 C 0.51441 0.7336 0.38508 0.0
C479 C 0.52119 0.71787 0.38973 0.0
C480 C 0.50885 0.73408 0.36594 0.0
C481 C 0.52231 0.70279 0.37504 0.0
C482 C 0.51022 0.71873 0.35166 0.0
N483 N 0.51684 0.70353 0.35647 0.0
C484 C 0.50354 0.71565 0.44297 0.0
C485 C 0.53546 0.72905 0.44834 0.0
C486 C 0.50569 0.69957 0.4516 0.0
N487 N 0.51836 0.72999 0.44135 0.0
C488 C 0.5382 0.71336 0.45718 0.0
C489 C 0.52325 0.69812 0.45878 0.0
H490 H 0.49005 0.71657 0.43739 0.0
H491 H 0.54715 0.74032 0.44674 0.0
C492 C 0.56405 0.79532 0.39125 0.0
N493 N 0.55481 0.7767 0.39218 0.0
C494 C 0.58022 0.7986 0.38264 0.0
C495 C 0.57769 0.76362 0.37675 0.0
C496 C 0.56143 0.76097 0.38523 0.0
C497 C 0.58725 0.78262 0.37531 0.0
H498 H 0.55904 0.80772 0.39746 0.0
H499 H 0.55428 0.74634 0.38654 0.0
O500 O 0.49627 0.76659 0.43196 0.0
O501 O 0.51797 0.79264 0.40652 0.0
O502 O 0.5388 0.77406 0.43362 0.0
O503 O 0.51259 0.74809 0.39929 0.0
H504 H 0.46488 0.77645 0.4255 0.0
H505 H 0.50347 0.76691 0.46918 0.0
H506 H 0.44613 0.78568 0.45078 0.0
H507 H 0.48413 0.77651 0.49374 0.0
H508 H 0.52795 0.81791 0.35238 0.0
H509 H 0.51738 0.82944 0.42028 0.0
H510 H 0.52342 0.78994 0.37008 0.0
H511 H 0.52196 0.8566 0.40177 0.0
H512 H 0.49857 0.84352 0.47074 0.0
H513 H 0.55669 0.85298 0.46811 0.0
H514 H 0.43329 0.7402 0.36776 0.0
H515 H 0.45638 0.80186 0.36812 0.0
H516 H 0.57383 0.7812 0.42901 0.0
H517 H 0.53598 0.78096 0.47087 0.0
H518 H 0.59947 0.79266 0.4555 0.0
H519 H 0.56231 0.79262 0.49665 0.0
H520 H 0.52548 0.71727 0.40451 0.0
H521 H 0.50346 0.74613 0.36219 0.0
H522 H 0.52748 0.69049 0.37842 0.0
H523 H 0.50595 0.71886 0.33675 0.0
H524 H 0.49367 0.68838 0.45265 0.0
H525 H 0.55203 0.71292 0.46216 0.0
H526 H 0.58731 0.81349 0.38196 0.0
H527 H 0.58274 0.75094 0.37132 0.0
Li528 Li 0.57503 0.32198 0.60134 0.0
Li529 Li 0.5942 0.30619 0.62584 0.0
Li530 Li 0.57263 0.28613 0.59663 0.0
Li531 Li 0.55849 0.30046 0.62404 0.0
C532 C 0.60566 0.30306 0.58381 0.0
N533 N 0.62669 0.29309 0.55574 0.0
C534 C 0.62374 0.30235 0.58887 0.0
C535 C 0.59828 0.29882 0.56448 0.0
C536 C 0.63417 0.29732 0.57447 0.0
C537 C 0.60911 0.2937 0.5505 0.0
C538 C 0.58098 0.34174 0.6448 0.0
C539 C 0.57982 0.35611 0.67753 0.0
N540 N 0.58586 0.37433 0.67326 0.0
C541 C 0.58723 0.36056 0.64072 0.0
C542 C 0.5773 0.33942 0.66333 0.0
C543 C 0.5896 0.37687 0.65532 0.0
C544 C 0.55553 0.34675 0.58498 0.0
N545 N 0.5728 0.34443 0.58882 0.0
C546 C 0.58465 0.37295 0.57511 0.0
C547 C 0.58727 0.35708 0.58388 0.0
C548 C 0.56691 0.37585 0.57109 0.0
C549 C 0.55226 0.36217 0.57603 0.0
H550 H 0.54414 0.33654 0.58888 0.0
H551 H 0.60092 0.35503 0.58693 0.0
C552 C 0.62354 0.28931 0.63904 0.0
N553 N 0.61738 0.30609 0.64227 0.0
C554 C 0.63948 0.28744 0.64977 0.0
C555 C 0.64276 0.32007 0.66736 0.0
C556 C 0.62675 0.32136 0.65622 0.0
C557 C 0.64955 0.30291 0.66434 0.0
H558 H 0.61606 0.27724 0.62796 0.0
H559 H 0.62177 0.33459 0.65886 0.0
C560 C 0.53862 0.29297 0.58158 0.0
N561 N 0.51044 0.2778 0.5519 0.0
C562 C 0.52174 0.28228 0.58514 0.0
C563 C 0.5411 0.29614 0.56295 0.0
C564 C 0.50767 0.27471 0.56995 0.0
C565 C 0.52671 0.28826 0.54812 0.0
C566 C 0.57137 0.26652 0.63302 0.0
C567 C 0.56178 0.2478 0.62349 0.0
C568 C 0.57785 0.26948 0.65252 0.0
C569 C 0.5589 0.23227 0.63367 0.0
C570 C 0.57465 0.25358 0.66221 0.0
N571 N 0.56535 0.23546 0.65266 0.0
C572 C 0.58531 0.25441 0.58024 0.0
C573 C 0.5543 0.2513 0.56852 0.0
C574 C 0.58448 0.23534 0.57103 0.0
N575 N 0.5703 0.26195 0.57908 0.0
C576 C 0.55288 0.23213 0.559 0.0
C577 C 0.56799 0.2238 0.56065 0.0
H578 H 0.59769 0.26286 0.58917 0.0
H579 H 0.54228 0.25706 0.56829 0.0
C580 C 0.53099 0.31255 0.64522 0.0
N581 N 0.53712 0.2966 0.63796 0.0
C582 C 0.51494 0.31026 0.65404 0.0
C583 C 0.51135 0.27513 0.64737 0.0
C584 C 0.5276 0.2781 0.63886 0.0
C585 C 0.5048 0.29134 0.65519 0.0
H586 H 0.53841 0.3271 0.64391 0.0
H587 H 0.53234 0.26555 0.63259 0.0
O588 O 0.5954 0.30817 0.59778 0.0
O589 O 0.57807 0.32569 0.63056 0.0
O590 O 0.55258 0.30031 0.59628 0.0
O591 O 0.57472 0.28181 0.62325 0.0
H592 H 0.62971 0.30582 0.60377 0.0
H593 H 0.58431 0.29931 0.56034 0.0
H594 H 0.64821 0.29679 0.57818 0.0
H595 H 0.60355 0.29023 0.53548 0.0
H596 H 0.57693 0.35458 0.69193 0.0
H597 H 0.59015 0.36255 0.62643 0.0
H598 H 0.5724 0.3249 0.66663 0.0
H599 H 0.59438 0.39155 0.65237 0.0
H600 H 0.59652 0.38303 0.5719 0.0
H601 H 0.53828 0.3632 0.57293 0.0
H602 H 0.64393 0.27396 0.64636 0.0
H603 H 0.64954 0.33243 0.67848 0.0
H604 H 0.51954 0.27975 0.59946 0.0
H605 H 0.55401 0.30454 0.55998 0.0
H606 H 0.49457 0.26636 0.57249 0.0
H607 H 0.52848 0.29047 0.53361 0.0
H608 H 0.55655 0.24527 0.60844 0.0
H609 H 0.5853 0.28391 0.66006 0.0
H610 H 0.55154 0.2177 0.62648 0.0
H611 H 0.5796 0.25564 0.67731 0.0
H612 H 0.59645 0.22941 0.57256 0.0
H613 H 0.53984 0.22355 0.55139 0.0
H614 H 0.5103 0.3232 0.65956 0.0
H615 H 0.50408 0.26028 0.64794 0.0
Li616 Li 0.01778 0.28827 0.93208 0.0
Li617 Li 0.99588 0.26829 0.90264 0.0
Li618 Li 0.01511 0.25199 0.92742 0.0
Li619 Li 0.03169 0.27269 0.90458 0.0
C620 C 0.98395 0.26965 0.94451 0.0
N621 N 0.96205 0.27735 0.97242 0.0
C622 C 0.96875 0.27711 0.94017 0.0
C623 C 0.98791 0.26585 0.96295 0.0
C624 C 0.95787 0.28096 0.95451 0.0
C625 C 0.97669 0.26993 0.97689 0.0
C626 C 0.01887 0.30795 0.89596 0.0
C627 C 0.02671 0.32238 0.86833 0.0
N628 N 0.02425 0.33981 0.87736 0.0
C629 C 0.01617 0.32591 0.90487 0.0
C630 C 0.02397 0.30607 0.87746 0.0
C631 C 0.01906 0.34189 0.89527 0.0
C632 C 0.03769 0.32631 0.95015 0.0
N633 N 0.02196 0.31259 0.95031 0.0
C634 C 0.01119 0.33565 0.97192 0.0
C635 C 0.00904 0.31685 0.96133 0.0
C636 C 0.02672 0.35041 0.9711 0.0
C637 C 0.04038 0.34541 0.9605 0.0
H638 H 0.04772 0.3227 0.94115 0.0
H639 H 0.99665 0.30608 0.96143 0.0
C640 C 0.95617 0.25454 0.88532 0.0
N641 N 0.9722 0.26833 0.88629 0.0
C642 C 0.93986 0.25597 0.8747 0.0
C643 C 0.95649 0.28579 0.86625 0.0
C644 C 0.97237 0.28378 0.87692 0.0
C645 C 0.9397 0.2718 0.86478 0.0
H646 H 0.95589 0.2424 0.89294 0.0
H647 H 0.98483 0.29491 0.87783 0.0
C648 C 0.05172 0.28121 0.94672 0.0
N649 N 0.08067 0.29595 0.97562 0.0
C650 C 0.06969 0.28438 0.94235 0.0
C651 C 0.04846 0.28539 0.9658 0.0
C652 C 0.08414 0.2918 0.95717 0.0
C653 C 0.06329 0.29296 0.98019 0.0
C654 C 0.01339 0.23319 0.88417 0.0
C655 C 0.0206 0.21789 0.88928 0.0
C656 C 0.00814 0.23333 0.86488 0.0
C657 C 0.02245 0.20291 0.87489 0.0
C658 C 0.01024 0.21808 0.8509 0.0
N659 N 0.01727 0.2033 0.85616 0.0
C660 C 1.00268 0.21483 0.94151 0.0
C661 C 0.03431 0.22951 0.94838 0.0
C662 C 1.00506 0.19887 0.95024 0.0
N663 N 0.01725 0.22974 0.94055 0.0
C664 C 0.03728 0.21395 0.95734 0.0
C665 C 0.0226 0.1981 0.95821 0.0
H666 H 0.9892 0.21517 0.9353 0.0
H667 H 0.04583 0.24126 0.94737 0.0
C668 C 0.06357 0.29498 0.89119 0.0
N669 N 0.05362 0.27638 0.89107 0.0
C670 C 0.07998 0.29819 0.88297 0.0
C671 C 0.07612 0.26311 0.87507 0.0
C672 C 0.05974 0.26057 0.88333 0.0
C673 C 0.0866 0.28214 0.87475 0.0
H674 H 0.05898 0.30742 0.89805 0.0
H675 H 0.05209 0.2459 0.88382 0.0
O676 O 0.995 0.26632 0.93082 0.0
O677 O 0.01638 0.29221 0.90519 0.0
O678 O 0.03744 0.27369 0.93236 0.0
O679 O 0.01099 0.24765 0.89807 0.0
H680 H 0.96558 0.28018 0.92597 0.0
H681 H 0.99965 0.26009 0.96649 0.0
H682 H 0.94616 0.28691 0.95142 0.0
H683 H 0.97966 0.26725 0.99128 0.0
H684 H 0.03078 0.32118 0.85406 0.0
H685 H 0.01174 0.3275 0.91896 0.0
H686 H 0.02585 0.29215 0.87028 0.0
H687 H 0.01711 0.35591 0.90203 0.0
H688 H 1.00046 0.33877 0.98017 0.0
H689 H 0.05253 0.35638 0.95933 0.0
H690 H 0.92753 0.2446 0.87414 0.0
H691 H 0.95744 0.29858 0.85949 0.0
H692 H 0.07248 0.28095 0.92771 0.0
H693 H 0.03462 0.28291 0.96942 0.0
H694 H 0.09811 0.29424 0.954 0.0
H695 H 0.06098 0.29641 0.99501 0.0
H696 H 0.02471 0.21759 0.90417 0.0
H697 H 1.00246 0.24506 0.86077 0.0
H698 H 0.02798 0.19095 0.87861 0.0
H699 H 1.00623 0.21795 0.83589 0.0
H700 H 0.99321 0.18722 0.95074 0.0
H701 H 0.05109 0.21408 0.96298 0.0
H702 H 0.08762 0.31315 0.88351 0.0
H703 H 0.08045 0.2502 0.86888 0.0
Li704 Li 0.43491 0.02958 0.29983 0.0
Li705 Li 0.41124 0.01128 0.27457 0.0
Li706 Li 0.43806 0.03117 0.26675 0.0
Li707 Li 0.41467 0.04547 0.28111 0.0
C708 C 0.44541 0.99459 0.28167 0.0
N709 N 0.46403 0.96532 0.28303 0.0
C710 C 0.43618 0.97582 0.28392 0.0
C711 C 0.46419 0.99859 0.28056 0.0
C712 C 0.44582 0.9612 0.28448 0.0
C713 C 0.47334 0.98356 0.28117 0.0
C714 C 0.39588 0.02073 0.31072 0.0
C715 C 0.36726 0.02051 0.32331 0.0
N716 N 0.37175 0.0095 0.33623 0.0
C717 C 0.40011 0.00924 0.32397 0.0
C718 C 0.37932 0.02642 0.31036 0.0
C719 C 0.38779 1.00381 0.33683 0.0
C720 C 0.45625 0.04819 0.33373 0.0
N721 N 0.44809 0.03025 0.3231 0.0
C722 C 0.46076 0.01392 0.34576 0.0
C723 C 0.45008 0.01327 0.32868 0.0
C724 C 0.46931 0.03222 0.35689 0.0
C725 C 0.4671 0.04954 0.35093 0.0
H726 H 0.45438 0.06137 0.32876 0.0
H727 H 0.44326 0.99925 0.32001 0.0
C728 C 0.40105 0.97508 0.25219 0.0
N729 N 0.39528 0.98771 0.2653 0.0
C730 C 0.39114 0.95572 0.24701 0.0
C731 C 0.36831 0.96405 0.26664 0.0
C732 C 0.37883 0.98305 0.27173 0.0
C733 C 0.37525 0.95008 0.25531 0.0
H734 H 0.414 0.97968 0.24695 0.0
H735 H 0.37434 0.99373 0.28146 0.0
C736 C 0.45636 0.06751 0.28586 0.0
N737 N 0.48621 0.09581 0.28082 0.0
C738 C 0.45385 0.08443 0.2793 0.0
C739 C 0.47399 0.06496 0.28997 0.0
C740 C 0.46914 0.09859 0.27683 0.0
C741 C 0.48892 0.07944 0.28726 0.0
C742 C 0.40005 0.01902 0.24093 0.0
C743 C 0.40526 0.01178 0.22337 0.0
C744 C 0.38149 0.0158 0.24316 0.0
C745 C 0.39184 1.00097 0.20849 0.0
C746 C 0.36849 1.00475 0.22799 0.0
N747 N 0.37389 0.99763 0.21111 0.0
C748 C 0.45169 0.01148 0.2401 0.0
C749 C 0.46286 0.04567 0.24072 0.0
C750 C 0.46022 1.00683 0.22433 0.0
N751 N 0.45328 0.03051 0.24806 0.0
C752 C 0.47158 0.04166 0.22457 0.0
C753 C 0.47015 0.02198 0.21632 0.0
H754 H 0.44287 0.99982 0.24528 0.0
H755 H 0.4631 0.06066 0.24678 0.0
C756 C 0.3978 0.07476 0.29669 0.0
N757 N 0.40205 0.06442 0.2807 0.0
C758 C 0.38748 0.08853 0.29479 0.0
C759 C 0.3861 0.08007 0.26016 0.0
C760 C 0.3965 0.06677 0.26273 0.0
C761 C 0.38177 0.09117 0.2763 0.0
H762 H 0.40245 0.07233 0.31075 0.0
H763 H 0.40032 0.05847 0.25036 0.0
O764 O 0.43589 0.00859 0.27936 0.0
O765 O 0.40827 0.02734 0.29888 0.0
O766 O 0.4416 0.05375 0.28874 0.0
O767 O 0.41304 0.02937 0.25581 0.0
H768 H 0.42173 0.97254 0.28522 0.0
H769 H 0.47154 0.01305 0.27883 0.0
H770 H 0.4388 0.94657 0.28601 0.0
H771 H 0.48782 0.98637 0.28003 0.0
H772 H 0.35438 0.02477 0.32317 0.0
H773 H 0.41279 1.00464 0.32442 0.0
H774 H 0.37582 0.03529 0.30016 0.0
H775 H 0.391 0.99509 0.3473 0.0
H776 H 0.46234 1.00039 0.35024 0.0
H777 H 0.47363 0.06382 0.35949 0.0
H778 H 0.39664 0.94505 0.23823 0.0
H779 H 0.35587 0.95982 0.27306 0.0
H780 H 0.44024 0.0866 0.27619 0.0
H781 H 0.47608 0.05193 0.29515 0.0
H782 H 0.46743 0.11178 0.27176 0.0
H783 H 0.50267 0.07767 0.29031 0.0
H784 H 0.41949 0.01454 0.22117 0.0
H785 H 0.37721 0.02142 0.25662 0.0
H786 H 0.3957 0.99525 0.19485 0.0
H787 H 0.3541 1.00182 0.22964 0.0
H788 H 0.45811 0.9915 0.21781 0.0
H789 H 0.47883 0.05364 0.21832 0.0
H790 H 0.38434 0.09724 0.30741 0.0
H791 H 0.38182 0.08202 0.24577 0.0
Li792 Li 0.29026 0.20696 0.51883 0.0
Li793 Li 0.30287 0.17992 0.50254 0.0
Li794 Li 0.28913 0.20267 0.483 0.0
Li795 Li 0.26728 0.17649 0.49916 0.0
C796 C 0.32605 0.22379 0.50932 0.0
N797 N 0.35671 0.2541 0.52213 0.0
C798 C 0.34148 0.22024 0.51918 0.0
C799 C 0.32625 0.24271 0.50588 0.0
C800 C 0.35685 0.23576 0.52552 0.0
C801 C 0.34185 0.25787 0.51255 0.0
C802 C 0.28661 0.16923 0.5369 0.0
C803 C 0.28012 0.13899 0.54933 0.0
N804 N 0.2894 0.14873 0.56662 0.0
C805 C 0.29618 0.17893 0.55474 0.0
C806 C 0.27855 0.14909 0.53411 0.0
C807 C 0.29738 0.16832 0.56961 0.0
C808 C 0.27666 0.22269 0.55142 0.0
N809 N 0.29232 0.2246 0.5431 0.0
C810 C 0.30909 0.24613 0.57155 0.0
C811 C 0.30837 0.2362 0.55273 0.0
C812 C 0.29318 0.24395 0.58077 0.0
C813 C 0.27677 0.23222 0.57019 0.0
H814 H 0.26416 0.213 0.54372 0.0
H815 H 0.3208 0.23725 0.54619 0.0
C816 C 0.33568 0.16866 0.49234 0.0
N817 N 0.32294 0.16653 0.50479 0.0
C818 C 0.35097 0.16057 0.49439 0.0
C819 C 0.33977 0.14797 0.52183 0.0
C820 C 0.3249 0.1565 0.51943 0.0
C821 C 0.35308 0.14996 0.50926 0.0
H822 H 0.33411 0.1769 0.48095 0.0
H823 H 0.31512 0.15519 0.52951 0.0
C824 C 0.25933 0.21906 0.50302 0.0
N825 N 0.23979 0.24721 0.51127 0.0
C826 C 0.24037 0.21347 0.50251 0.0
C827 C 0.2684 0.23892 0.50769 0.0
C828 C 0.23071 0.22794 0.50665 0.0
C829 C 0.25827 0.25294 0.51192 0.0
C830 C 0.28226 0.15877 0.46288 0.0
C831 C 0.27708 0.16273 0.44482 0.0
C832 C 0.28582 0.14054 0.46451 0.0
C833 C 0.2756 0.14833 0.42857 0.0
C834 C 0.28414 0.1265 0.44792 0.0
N835 N 0.27913 0.13066 0.43045 0.0
C836 C 0.30575 0.21438 0.45028 0.0
C837 C 0.27865 0.22498 0.4545 0.0
C838 C 0.30755 0.22266 0.4336 0.0
N839 N 0.29135 0.21545 0.4603 0.0
C840 C 0.28002 0.23366 0.438 0.0
C841 C 0.29454 0.23247 0.427 0.0
H842 H 0.31574 0.20677 0.45508 0.0
H843 H 0.26733 0.22581 0.46264 0.0
C844 C 0.23693 0.15664 0.51658 0.0
N845 N 0.24226 0.15935 0.49915 0.0
C846 C 0.21948 0.14525 0.51809 0.0
C847 C 0.2126 0.14007 0.48373 0.0
C848 C 0.23037 0.15131 0.48284 0.0
C849 C 0.20684 0.13672 0.50156 0.0
H850 H 0.24618 0.16351 0.52951 0.0
H851 H 0.23458 0.15372 0.46906 0.0
O852 O 0.31099 0.2087 0.50276 0.0
O853 O 0.28532 0.17929 0.52213 0.0
O854 O 0.26888 0.20506 0.49886 0.0
O855 O 0.28425 0.17287 0.47885 0.0
H856 H 0.34157 0.20567 0.52196 0.0
H857 H 0.31447 0.24566 0.49814 0.0
H858 H 0.36889 0.23323 0.53315 0.0
H859 H 0.34218 0.27261 0.51007 0.0
H860 H 0.274 0.1234 0.54737 0.0
H861 H 0.30273 0.19444 0.55707 0.0
H862 H 0.27132 0.14135 0.52028 0.0
H863 H 0.30472 0.17563 0.58352 0.0
H864 H 0.32208 0.25511 0.57887 0.0
H865 H 0.26419 0.22956 0.57659 0.0
H866 H 0.36092 0.16238 0.48434 0.0
H867 H 0.34099 0.14011 0.53362 0.0
H868 H 0.23319 0.19811 0.49883 0.0
H869 H 0.2831 0.24342 0.5082 0.0
H870 H 0.21601 0.22385 0.50621 0.0
H871 H 0.26509 0.26838 0.51568 0.0
H872 H 0.27425 0.17678 0.44335 0.0
H873 H 0.28991 0.13734 0.47843 0.0
H874 H 0.27166 0.1512 0.41448 0.0
H875 H 0.28687 0.11231 0.44892 0.0
H876 H 0.31888 0.22089 0.42577 0.0
H877 H 0.26977 0.24131 0.43405 0.0
H878 H 0.21579 0.1435 0.53221 0.0
H879 H 0.20353 0.13383 0.47051 0.0
Li880 Li 0.17691 0.03459 0.77175 0.0
Li881 Li 0.1497 0.01173 0.78921 0.0
Li882 Li 0.17364 0.99277 0.76839 0.0
Li883 Li 0.14858 0.00894 0.75025 0.0
C884 C 0.19061 0.02027 0.80828 0.0
N885 N 0.21543 0.02798 0.84096 0.0
C886 C 0.1859 0.02788 0.82595 0.0
C887 C 0.20791 0.01661 0.80715 0.0
C888 C 0.19864 0.03166 0.84234 0.0
C889 C 0.22029 0.02062 0.82386 0.0
C890 C 0.13701 0.04307 0.76978 0.0
C891 C 0.10586 0.04507 0.76226 0.0
N892 N 0.11153 0.06502 0.76519 0.0
C893 C 0.14255 0.06356 0.77269 0.0
C894 C 0.11853 0.0337 0.76457 0.0
C895 C 0.12945 0.07441 0.77034 0.0
C896 C 0.19303 0.0709 0.75453 0.0
N897 N 0.1927 0.06403 0.77158 0.0
C898 C 0.2109 0.09675 0.78733 0.0
C899 C 0.20159 0.07691 0.78785 0.0
C900 C 0.2115 0.10417 0.76992 0.0
C901 C 0.20232 0.09055 0.75339 0.0
H902 H 0.1859 0.06117 0.74152 0.0
H903 H 0.2014 0.07197 0.80151 0.0
C904 C 0.12998 0.99702 0.82347 0.0
N905 N 0.13536 0.01303 0.8148 0.0
C906 C 0.12114 0.99806 0.84057 0.0
C907 C 0.12294 0.03199 0.84028 0.0
C908 C 0.1317 0.03033 0.82318 0.0
C909 C 0.11736 0.0158 0.84978 0.0
H910 H 0.13264 0.98314 0.81728 0.0
H911 H 0.13567 0.04322 0.8167 0.0
C912 C 0.18404 0.01087 0.73265 0.0
N913 N 0.20033 0.00848 0.69937 0.0
C914 C 0.17466 0.99838 0.71589 0.0
C915 C 0.20174 0.02199 0.73257 0.0
C916 C 0.18308 0.9975 0.69915 0.0
C917 C 0.20977 0.02054 0.7156 0.0
C918 C 0.13075 0.97127 0.76006 0.0
C919 C 0.13382 0.95408 0.74975 0.0
C920 C 0.11296 0.97224 0.76319 0.0
C921 C 0.11899 0.93809 0.74276 0.0
C922 C 0.09848 0.95597 0.75586 0.0
N923 N 0.10178 0.93937 0.74591 0.0
C924 C 0.19443 0.96254 0.78355 0.0
C925 C 0.19069 0.95775 0.75004 0.0
C926 C 0.20357 0.94671 0.78322 0.0
N927 N 0.18802 0.96824 0.76713 0.0
C928 C 0.19971 0.94176 0.74911 0.0
C929 C 0.20664 0.93558 0.76584 0.0
H930 H 0.19248 0.97022 0.7973 0.0
H931 H 0.18581 0.96166 0.73674 0.0
C932 C 0.13275 0.0272 0.71953 0.0
N933 N 0.13298 0.00913 0.72399 0.0
C934 C 0.12366 0.02936 0.70191 0.0
C935 C 0.11506 0.99433 0.69277 0.0
C936 C 0.1241 0.99279 0.71079 0.0
C937 C 0.11462 0.01288 0.68781 0.0
H938 H 0.13996 0.04027 0.72957 0.0
H939 H 0.12423 0.97837 0.71396 0.0
O940 O 0.17815 0.01595 0.79222 0.0
O941 O 0.14967 0.03221 0.77167 0.0
O942 O 0.17593 0.01231 0.74907 0.0
O943 O 0.14514 0.9869 0.76739 0.0
H944 H 0.17253 0.03076 0.82701 0.0
H945 H 0.21167 0.01064 0.79352 0.0
H946 H 0.19518 0.03749 0.85615 0.0
H947 H 0.23374 0.01784 0.82325 0.0
H948 H 0.09152 0.03803 0.75809 0.0
H949 H 0.15682 0.07099 0.77672 0.0
H950 H 0.11409 0.01783 0.76208 0.0
H951 H 0.13352 0.09029 0.77257 0.0
H952 H 0.21771 0.10624 0.80059 0.0
H953 H 0.20214 0.0951 0.73953 0.0
H954 H 0.11762 0.98485 0.84665 0.0
H955 H 0.12045 0.04612 0.84585 0.0
H956 H 0.16105 0.98946 0.71582 0.0
H957 H 0.2092 0.03163 0.7455 0.0
H958 H 0.17593 0.98804 0.68602 0.0
H959 H 0.22349 0.02903 0.71532 0.0
H960 H 0.14754 0.95307 0.7473 0.0
H961 H 0.11038 0.98537 0.77131 0.0
H962 H 0.12117 0.92466 0.73485 0.0
H963 H 0.08464 0.95651 0.75816 0.0
H964 H 0.20797 0.94313 0.79684 0.0
H965 H 0.20138 0.93446 0.73508 0.0
H966 H 0.12425 0.04409 0.69921 0.0
H967 H 0.10834 0.98094 0.68286 0.0
Li968 Li 0.2957 0.93729 0.00665 0.0
Li969 Li 0.31151 0.91448 0.01951 0.0
Li970 Li 0.32822 0.94406 0.01107 0.0
Li971 Li 0.31219 0.91589 0.98613 0.0
C972 C 0.3169 0.95508 0.04692 0.0
N973 N 0.32983 0.98327 0.07957 0.0
C974 C 0.31993 0.94946 0.06472 0.0
C975 C 0.32005 0.97504 0.04578 0.0
C976 C 0.3265 0.96393 0.08105 0.0
C977 C 0.32676 0.98907 0.06244 0.0
C978 C 0.27689 0.89239 1.00072 0.0
C979 C 0.26487 0.85734 0.99655 0.0
N980 N 0.24987 0.86044 1.00463 0.0
C981 C 0.26129 0.89525 0.00884 0.0
C982 C 0.27867 0.87331 0.99437 0.0
C983 C 0.2478 0.8789 0.01074 0.0
C984 C 0.26758 0.95405 0.99403 0.0
N985 N 0.27632 0.94875 0.00911 0.0
C986 C 0.25739 0.96088 0.03059 0.0
C987 C 0.27162 0.95196 0.02712 0.0
C988 C 0.24791 0.96641 0.01532 0.0
C989 C 0.25314 0.96299 0.99683 0.0
H990 H 0.27186 0.95135 0.97993 0.0
H991 H 0.27879 0.94734 0.03874 0.0
C992 C 0.32981 0.9021 0.04716 0.0
N993 N 0.31279 0.8989 0.0376 0.0
C994 C 0.33285 0.8918 0.06163 0.0
C995 C 0.30058 0.87555 0.05647 0.0
C996 C 0.29819 0.8862 0.04208 0.0
C997 C 0.31807 0.87849 0.06638 0.0
H998 H 0.34091 0.91311 0.04393 0.0
H999 H 0.28467 0.88471 0.03505 0.0
C1000 C 0.31994 0.95731 0.97645 0.0
N1001 N 0.3354 0.98343 0.95404 0.0
C1002 C 0.3302 0.9514 0.96222 0.0
C1003 C 0.31741 0.97642 0.97924 0.0
C1004 C 0.33787 0.96482 0.95098 0.0
C1005 C 0.32547 0.98947 0.96784 0.0
C1006 C 0.345 0.90657 0.00622 0.0
C1007 C 0.36374 0.91528 0.00949 0.0
C1008 C 0.33889 0.88618 1.00434 0.0
C1009 C 0.37611 0.90342 0.01095 0.0
C1010 C 0.3517 0.87485 0.00604 0.0
N1011 N 0.36988 0.88363 0.00927 0.0
C1012 C 0.3573 0.96121 0.03755 0.0
C1013 C 0.35757 0.97738 0.01069 0.0
C1014 C 0.374 0.97335 0.04584 0.0
N1015 N 0.34956 0.96329 0.02024 0.0
C1016 C 0.37463 0.98943 0.01813 0.0
C1017 C 0.38335 0.98675 0.03546 0.0
H1018 H 0.35094 0.94939 0.04446 0.0
H1019 H 0.35147 0.97847 0.99678 0.0
C1020 C 0.2954 0.89183 0.95217 0.0
N1021 N 0.31194 0.89977 0.96275 0.0
C1022 C 0.29394 0.87829 0.93539 0.0
C1023 C 0.32661 0.8814 0.94077 0.0
C1024 C 0.32743 0.89493 0.95747 0.0
C1025 C 0.30967 0.87287 0.92958 0.0
H1026 H 0.28334 0.89589 0.95695 0.0
H1027 H 0.34038 0.90146 0.96628 0.0
O1028 O 0.31132 0.94104 0.03066 0.0
O1029 O 0.29028 0.90821 0.99892 0.0
O1030 O 0.3119 0.94428 0.9872 0.0
O1031 O 0.33276 0.91812 0.00537 0.0
H1032 H 0.31734 0.93409 0.06592 0.0
H1033 H 0.31779 0.97961 0.0321 0.0
H1034 H 0.32901 0.95979 0.09489 0.0
H1035 H 0.3296 1.00457 0.06174 0.0
H1036 H 0.2661 0.84248 0.99185 0.0
H1037 H 0.25969 0.90991 0.01377 0.0
H1038 H 0.29064 0.87088 0.98801 0.0
H1039 H 0.23571 0.88088 0.0171 0.0
H1040 H 0.25358 0.96297 0.04498 0.0
H1041 H 0.24624 0.96725 0.98475 0.0
H1042 H 0.34638 0.89487 0.06957 0.0
H1043 H 0.28888 0.8656 0.0602 0.0
H1044 H 0.33221 0.93663 0.95983 0.0
H1045 H 0.30947 0.98115 0.99022 0.0
H1046 H 0.34578 0.96044 0.93985 0.0
H1047 H 0.3238 1.00439 0.96994 0.0
H1048 H 0.36868 0.93104 0.01089 0.0
H1049 H 0.32443 0.87924 1.00191 0.0
H1050 H 0.39065 0.90997 0.01347 0.0
H1051 H 0.34719 0.85907 1.00485 0.0
H1052 H 0.38044 0.97079 0.05913 0.0
H1053 H 0.38164 0.99921 0.00941 0.0
H1054 H 0.28067 0.87225 0.92696 0.0
H1055 H 0.339 0.87747 0.9368 0.0
Li1056 Li 0.28976 0.39392 0.02779 0.0
Li1057 Li 0.30343 0.37127 0.04646 0.0
Li1058 Li 0.32499 0.39765 0.02978 0.0
Li1059 Li 0.30215 0.36691 0.01034 0.0
C1060 C 0.30686 0.41509 0.06568 0.0
N1061 N 0.30339 0.44317 0.09577 0.0
C1062 C 0.29802 0.40941 0.08108 0.0
C1063 C 0.31392 0.435 0.06552 0.0
C1064 C 0.29641 0.42384 0.09618 0.0
C1065 C 0.31201 0.44899 0.08088 0.0
C1066 C 0.26616 0.35037 0.02219 0.0
C1067 C 0.25097 0.31613 0.01178 0.0
N1068 N 0.23452 0.32074 0.01283 0.0
C1069 C 0.2491 0.35478 0.02317 0.0
C1070 C 0.26714 0.33089 0.01651 0.0
C1071 C 0.23326 0.33959 0.01841 0.0
C1072 C 0.26194 0.40689 0.00706 0.0
N1073 N 0.26961 0.40697 0.02517 0.0
C1074 C 0.24742 0.42297 0.03838 0.0
C1075 C 0.2625 0.41465 0.04072 0.0
C1076 C 0.23947 0.42348 0.01983 0.0
C1077 C 0.247 0.41523 1.00407 0.0
H1078 H 0.26729 0.40009 0.99484 0.0
H1079 H 0.26838 0.41415 0.055 0.0
C1080 C 0.31691 0.35684 0.0796 0.0
N1081 N 0.30146 0.35819 0.06906 0.0
C1082 C 0.31593 0.34855 0.09635 0.0
C1083 C 0.28313 0.34281 0.09111 0.0
C1084 C 0.28473 0.35117 0.07443 0.0
C1085 C 0.29888 0.34154 0.10258 0.0
H1086 H 0.33008 0.36239 0.07512 0.0
H1087 H 0.27257 0.35241 0.06598 0.0
C1088 C 0.30616 0.4055 0.9931 0.0
N1089 N 0.30518 0.42712 0.96403 0.0
C1090 C 0.3074 0.39711 0.97427 0.0
C1091 C 0.30464 0.42494 0.99721 0.0
C1092 C 0.30686 0.40827 0.95976 0.0
C1093 C 0.30408 0.43561 0.98228 0.0
C1094 C 0.33333 0.35512 0.02598 0.0
C1095 C 0.35058 0.36049 0.02002 0.0
C1096 C 0.3259 0.33553 0.02718 0.0
C1097 C 0.36003 0.346 0.01501 0.0
C1098 C 0.33581 0.32148 0.02207 0.0
N1099 N 0.3525 0.32696 0.01611 0.0
C1100 C 0.36237 0.42143 0.04562 0.0
C1101 C 0.35452 0.41985 0.01247 0.0
C1102 C 0.38007 0.43291 0.04485 0.0
N1103 N 0.34987 0.41511 0.02956 0.0
C1104 C 0.372 0.43127 0.01106 0.0
C1105 C 0.38531 0.43813 0.02736 0.0
H1106 H 0.35869 0.41747 0.05911 0.0
H1107 H 0.34473 0.41451 0.99969 0.0
C1108 C 0.28234 0.34572 0.97425 0.0
N1109 N 0.29863 0.34949 0.98568 0.0
C1110 C 0.28066 0.33686 0.95488 0.0
C1111 C 0.31226 0.33529 0.95957 0.0
C1112 C 0.31335 0.34416 0.97873 0.0
C1113 C 0.29593 0.33198 0.94735 0.0
H1114 H 0.27096 0.35065 0.97983 0.0
H1115 H 0.32633 0.34791 0.98757 0.0
O1116 O 0.30923 0.40117 0.05119 0.0
O1117 O 0.28177 0.36515 0.0265 0.0
O1118 O 0.30621 0.39464 0.00739 0.0
O1119 O 0.32371 0.369 0.03036 0.0
H1120 H 0.29252 0.39405 0.08142 0.0
H1121 H 0.32089 0.43957 0.05371 0.0
H1122 H 0.28967 0.41967 0.10824 0.0
H1123 H 0.31743 0.46448 0.08099 0.0
H1124 H 0.25151 0.30099 0.00724 0.0
H1125 H 0.24808 0.36976 0.02759 0.0
H1126 H 0.28023 0.32725 0.01558 0.0
H1127 H 0.21997 0.34279 0.01913 0.0
H1128 H 0.24217 0.42915 0.051 0.0
H1129 H 0.24117 0.41487 0.9895 0.0
H1130 H 0.32849 0.34765 0.10432 0.0
H1131 H 0.26966 0.33789 0.09523 0.0
H1132 H 0.30885 0.38219 0.97084 0.0
H1133 H 0.30369 0.43163 0.01173 0.0
H1134 H 0.30777 0.40193 0.94512 0.0
H1135 H 0.30273 0.45062 0.9852 0.0
H1136 H 0.35645 0.37562 0.019 0.0
H1137 H 0.31258 0.33122 0.03185 0.0
H1138 H 0.37331 0.34988 0.01018 0.0
H1139 H 0.33021 0.30622 0.02281 0.0
H1140 H 0.38946 0.4378 0.05799 0.0
H1141 H 0.37509 0.43428 0.99709 0.0
H1142 H 0.26792 0.33478 0.9457 0.0
H1143 H 0.32435 0.33192 0.95411 0.0
Li1144 Li 0.78262 0.163 0.04172 0.0
Li1145 Li 0.79786 0.14047 0.02065 0.0
Li1146 Li 0.78321 0.16415 0.0085 0.0
Li1147 Li 0.76525 0.13509 0.01729 0.0
C1148 C 0.81731 0.1851 0.02481 0.0
N1149 N 0.84346 0.2167 0.01861 0.0
C1150 C 0.83455 0.18274 0.02092 0.0
C1151 C 0.81337 0.20354 0.02572 0.0
C1152 C 0.8476 0.1989 0.01784 0.0
C1153 C 0.82676 0.21932 0.02241 0.0
C1154 C 0.77614 0.12098 0.05146 0.0
C1155 C 0.76462 0.08733 0.05487 0.0
N1156 N 0.76444 0.09339 0.07397 0.0
C1157 C 0.77594 0.12687 0.07111 0.0
C1158 C 0.77068 0.10105 0.04326 0.0
C1159 C 0.77 0.1127 0.08226 0.0
C1160 C 0.76644 0.17593 0.07309 0.0
N1161 N 0.78236 0.17807 0.06527 0.0
C1162 C 0.79734 0.20433 0.09052 0.0
C1163 C 0.79765 0.19186 0.07348 0.0
C1164 C 0.78108 0.20259 0.09898 0.0
C1165 C 0.76547 0.18817 0.09007 0.0
H1166 H 0.75448 0.16492 0.06591 0.0
H1167 H 0.81001 0.1932 0.0667 0.0
C1168 C 0.82449 0.12897 1.0018 0.0
N1169 N 0.81611 0.1275 0.0178 0.0
C1170 C 0.83816 0.11913 0.99829 0.0
C1171 C 0.83361 0.10592 0.02748 0.0
C1172 C 0.82008 0.11609 0.03045 0.0
C1173 C 0.843 0.10766 0.01138 0.0
H1174 H 0.82061 0.13795 0.9919 0.0
H1175 H 0.81275 0.11496 0.04279 0.0
C1176 C 0.74813 0.17108 0.0228 0.0
N1177 N 0.71993 0.19006 0.02268 0.0
C1178 C 0.73106 0.16162 0.01245 0.0
C1179 C 0.75087 0.1902 0.03307 0.0
C1180 C 0.71696 0.17146 0.0126 0.0
C1181 C 0.73644 0.19955 0.0328 0.0
C1182 C 0.77573 0.12378 0.98039 0.0
C1183 C 0.7663 0.12908 0.96498 0.0
C1184 C 0.77891 0.10493 0.97862 0.0
C1185 C 0.76009 0.11533 0.94805 0.0
C1186 C 0.77234 0.09156 0.9615 0.0
N1187 N 0.76316 0.097 0.9467 0.0
C1188 C 0.79578 0.1768 0.9767 0.0
C1189 C 0.7719 0.1905 0.9881 0.0
C1190 C 0.79365 0.18364 0.95953 0.0
N1191 N 0.78444 0.17972 0.99009 0.0
C1192 C 0.76917 0.1974 0.97119 0.0
C1193 C 0.77963 0.19319 0.95654 0.0
H1194 H 0.80544 0.16788 0.97878 0.0
H1195 H 0.76319 0.19268 0.99897 0.0
C1196 C 0.73494 0.11589 0.02914 0.0
N1197 N 0.74372 0.11579 0.01332 0.0
C1198 C 0.7189 0.10195 0.02903 0.0
C1199 C 0.72105 0.08829 0.99612 0.0
C1200 C 0.73706 0.10256 0.99689 0.0
C1201 C 0.71178 0.08802 0.01232 0.0
H1202 H 0.74042 0.12696 0.04181 0.0
H1203 H 0.74378 0.1031 0.98425 0.0
O1204 O 0.80475 0.16964 0.02876 0.0
O1205 O 0.78192 0.13479 0.04046 0.0
O1206 O 0.76209 0.16167 0.02281 0.0
O1207 O 0.78162 0.13689 0.99719 0.0
H1208 H 0.83794 0.16867 0.02066 0.0
H1209 H 0.80013 0.20562 0.02895 0.0
H1210 H 0.86105 0.19731 0.01495 0.0
H1211 H 0.82391 0.23368 0.02296 0.0
H1212 H 0.76008 0.07186 0.04871 0.0
H1213 H 0.7805 0.1422 0.07773 0.0
H1214 H 0.77087 0.09627 0.02806 0.0
H1215 H 0.76984 0.11705 0.09751 0.0
H1216 H 0.80975 0.21504 0.0971 0.0
H1217 H 0.75263 0.18652 0.09602 0.0
H1218 H 0.84517 0.12092 0.9858 0.0
H1219 H 0.83679 0.09689 0.03768 0.0
H1220 H 0.72873 0.14687 1.00432 0.0
H1221 H 0.76408 0.19784 0.04092 0.0
H1222 H 0.70367 0.16432 1.00467 0.0
H1223 H 0.73839 0.21438 0.0406 0.0
H1224 H 0.7636 0.14355 0.96615 0.0
H1225 H 0.78602 0.10054 0.99048 0.0
H1226 H 0.75274 0.1192 0.93604 0.0
H1227 H 0.77446 0.07683 0.96001 0.0
H1228 H 0.80185 0.18029 0.94829 0.0
H1229 H 0.75834 0.20494 0.96911 0.0
H1230 H 0.71174 0.10268 0.04157 0.0
H1231 H 0.71571 0.07797 0.98287 0.0
Li1232 Li 0.17964 0.56607 0.25513 0.0
Li1233 Li 0.15256 0.54394 0.26159 0.0
Li1234 Li 0.17677 0.53123 0.2477 0.0
Li1235 Li 0.15628 0.54646 0.2294 0.0
C1236 C 0.19144 0.55341 0.288 0.0
N1237 N 0.21904 0.56731 0.31839 0.0
C1238 C 0.18721 0.5583 0.30661 0.0
C1239 C 0.20969 0.55533 0.28486 0.0
C1240 C 0.20136 0.56537 0.32178 0.0
C1241 C 0.22345 0.56245 0.30042 0.0
C1242 C 0.14486 0.5811 0.24733 0.0
C1243 C 0.11693 0.58967 0.23689 0.0
N1244 N 0.12473 0.60888 0.2444 0.0
C1245 C 0.15261 0.60096 0.25484 0.0
C1246 C 0.12688 0.5754 0.23819 0.0
C1247 C 0.14223 0.61476 0.25323 0.0
C1248 C 0.20261 0.59945 0.24994 0.0
N1249 N 0.19497 0.59019 0.26359 0.0
C1250 C 0.20785 0.6179 0.28821 0.0
C1251 C 0.1969 0.59904 0.28231 0.0
C1252 C 0.21608 0.62747 0.27441 0.0
C1253 C 0.2134 0.61833 0.25511 0.0
H1254 H 0.19997 0.5923 0.23507 0.0
H1255 H 0.18953 0.59176 0.29249 0.0
C1256 C 0.13894 0.52964 0.29259 0.0
N1257 N 0.13698 0.54186 0.28001 0.0
C1258 C 0.13238 0.53252 0.31024 0.0
C1259 C 0.12072 0.55929 0.30062 0.0
C1260 C 0.12756 0.55598 0.28333 0.0
C1261 C 0.12382 0.54799 0.31443 0.0
H1262 H 0.14702 0.51895 0.28962 0.0
H1263 H 0.12662 0.56575 0.27336 0.0
C1264 C 0.19589 0.55221 0.21835 0.0
N1265 N 0.22152 0.55751 0.19301 0.0
C1266 C 0.19034 0.54832 0.19856 0.0
C1267 C 0.2145 0.55859 0.22524 0.0
C1268 C 0.20349 0.55115 0.18599 0.0
C1269 C 0.22724 0.5612 0.21219 0.0
C1270 C 0.13578 0.50778 0.24296 0.0
C1271 C 0.13833 0.48939 0.24557 0.0
C1272 C 0.11835 0.5114 0.24276 0.0
C1273 C 0.12331 0.47484 0.24795 0.0
C1274 C 0.10371 0.49653 0.24537 0.0
N1275 N 0.10647 0.47869 0.24783 0.0
C1276 C 0.18981 0.50615 0.26589 0.0
C1277 C 0.19886 0.50571 0.23463 0.0
C1278 C 0.20007 0.49298 0.26967 0.0
N1279 N 0.18964 0.51237 0.24877 0.0
C1280 C 0.20913 0.49215 0.23769 0.0
C1281 C 0.2099 0.48595 0.25551 0.0
H1282 H 0.18204 0.5116 0.27665 0.0
H1283 H 0.19835 0.51104 0.22118 0.0
C1284 C 0.14649 0.5625 0.19822 0.0
N1285 N 0.14362 0.54611 0.20628 0.0
C1286 C 0.1362 0.56245 0.18103 0.0
C1287 C 0.1202 0.52878 0.18124 0.0
C1288 C 0.13093 0.52942 0.19826 0.0
C1289 C 0.12288 0.54543 0.17254 0.0
H1290 H 0.15668 0.57553 0.20524 0.0
H1291 H 0.12913 0.51666 0.2051 0.0
O1292 O 0.17775 0.54719 0.27291 0.0
O1293 O 0.15444 0.56725 0.25001 0.0
O1294 O 0.18308 0.5508 0.23084 0.0
O1295 O 0.15013 0.52178 0.23955 0.0
H1296 H 0.17316 0.55705 0.30927 0.0
H1297 H 0.21318 0.55154 0.27056 0.0
H1298 H 0.19829 0.56942 0.33623 0.0
H1299 H 0.23765 0.56417 0.29821 0.0
H1300 H 0.10294 0.58545 0.23004 0.0
H1301 H 0.16636 0.60571 0.26219 0.0
H1302 H 0.12057 0.56008 0.23254 0.0
H1303 H 0.14804 0.63014 0.25914 0.0
H1304 H 0.20971 0.62496 0.30313 0.0
H1305 H 0.21967 0.62574 0.24424 0.0
H1306 H 0.13505 0.5238 0.32093 0.0
H1307 H 0.1144 0.57155 0.30379 0.0
H1308 H 0.17603 0.54331 0.19293 0.0
H1309 H 0.21904 0.56186 0.2405 0.0
H1310 H 0.19936 0.54837 0.17065 0.0
H1311 H 0.24168 0.56629 0.21733 0.0
H1312 H 0.15171 0.48629 0.24542 0.0
H1313 H 0.11617 0.52554 0.24058 0.0
H1314 H 0.12504 0.46047 0.24981 0.0
H1315 H 0.09015 0.49912 0.24531 0.0
H1316 H 0.20018 0.48818 0.28343 0.0
H1317 H 0.2166 0.48684 0.22651 0.0
H1318 H 0.13843 0.5755 0.17454 0.0
H1319 H 0.11013 0.51539 0.1748 0.0
Li1320 Li 0.78993 0.89367 0.52813 0.0
Li1321 Li 0.80352 0.87118 0.54736 0.0
Li1322 Li 0.82515 0.89731 0.53024 0.0
Li1323 Li 0.80237 0.86647 0.51098 0.0
C1324 C 0.80731 0.91513 0.5661 0.0
N1325 N 0.80383 0.94347 0.59593 0.0
C1326 C 0.79813 0.90965 0.58136 0.0
C1327 C 0.81471 0.93498 0.56595 0.0
C1328 C 0.79654 0.92421 0.59634 0.0
C1329 C 0.81277 0.94911 0.58117 0.0
C1330 C 0.76624 0.85023 0.5225 0.0
C1331 C 0.75085 0.8162 0.51105 0.0
N1332 N 0.73445 0.8209 0.51233 0.0
C1333 C 0.74923 0.85472 0.52375 0.0
C1334 C 0.76709 0.83081 0.51619 0.0
C1335 C 0.73332 0.83968 0.51856 0.0
C1336 C 0.75952 0.90299 0.50771 0.0
N1337 N 0.76986 0.90691 0.5252 0.0
C1338 C 0.75081 0.92751 0.53788 0.0
C1339 C 0.7657 0.91892 0.54017 0.0
C1340 C 0.7398 0.92369 0.52002 0.0
C1341 C 0.74445 0.91125 0.50479 0.0
H1342 H 0.76283 0.89318 0.49602 0.0
H1343 H 0.77381 0.92179 0.55402 0.0
C1344 C 0.81697 0.85817 0.58159 0.0
N1345 N 0.8015 0.85846 0.5704 0.0
C1346 C 0.81602 0.85017 0.59852 0.0
C1347 C 0.78319 0.84252 0.59224 0.0
C1348 C 0.78477 0.85069 0.5754 0.0
C1349 C 0.79895 0.84223 0.6043 0.0
H1350 H 0.83016 0.86444 0.57752 0.0
H1351 H 0.77256 0.851 0.56643 0.0
C1352 C 0.80595 0.90483 0.49344 0.0
N1353 N 0.8043 0.92615 0.46422 0.0
C1354 C 0.80802 0.89673 0.47478 0.0
C1355 C 0.8032 0.92382 0.4973 0.0
C1356 C 0.80712 0.90774 0.4602 0.0
C1357 C 0.80234 0.93435 0.4823 0.0
C1358 C 0.83377 0.85508 0.52738 0.0
C1359 C 0.851 0.86059 0.52141 0.0
C1360 C 0.82664 0.83554 0.52898 0.0
C1361 C 0.86072 0.84627 0.51678 0.0
C1362 C 0.83684 0.82168 0.52428 0.0
N1363 N 0.8535 0.82728 0.51828 0.0
C1364 C 0.86218 0.92118 0.54617 0.0
C1365 C 0.85521 0.91888 0.51278 0.0
C1366 C 0.88002 0.93241 0.54568 0.0
N1367 N 0.85006 0.91458 0.52986 0.0
C1368 C 0.87287 0.93016 0.51165 0.0
C1369 C 0.88581 0.93721 0.52824 0.0
H1370 H 0.85813 0.9175 0.55964 0.0
H1371 H 0.84564 0.91343 0.49983 0.0
C1372 C 0.78339 0.84544 0.47425 0.0
N1373 N 0.79926 0.84896 0.48633 0.0
C1374 C 0.78228 0.83642 0.45499 0.0
C1375 C 0.81357 0.83419 0.46112 0.0
C1376 C 0.81407 0.84321 0.48011 0.0
C1377 C 0.79774 0.8312 0.44811 0.0
H1378 H 0.77191 0.85062 0.47926 0.0
H1379 H 0.82673 0.84662 0.48945 0.0
O1380 O 0.8094 0.90109 0.55159 0.0
O1381 O 0.78192 0.86487 0.52717 0.0
O1382 O 0.8064 0.89412 0.50782 0.0
O1383 O 0.82382 0.86874 0.53125 0.0
H1384 H 0.79232 0.89433 0.58166 0.0
H1385 H 0.82188 0.93939 0.55421 0.0
H1386 H 0.78953 0.92019 0.60829 0.0
H1387 H 0.81842 0.96455 0.58127 0.0
H1388 H 0.75128 0.80112 0.50601 0.0
H1389 H 0.74833 0.86964 0.52874 0.0
H1390 H 0.78014 0.82711 0.5151 0.0
H1391 H 0.72008 0.84295 0.51946 0.0
H1392 H 0.74806 0.93718 0.55004 0.0
H1393 H 0.73633 0.90756 0.49082 0.0
H1394 H 0.82865 0.85069 0.60723 0.0
H1395 H 0.76967 0.83639 0.59565 0.0
H1396 H 0.81039 0.88216 0.47157 0.0
H1397 H 0.80162 0.93029 0.5117 0.0
H1398 H 0.80868 0.90164 0.44568 0.0
H1399 H 0.80011 0.94902 0.48504 0.0
H1400 H 0.85662 0.87567 0.52003 0.0
H1401 H 0.81332 0.83113 0.53362 0.0
H1402 H 0.87398 0.85025 0.51191 0.0
H1403 H 0.83148 0.80646 0.52533 0.0
H1404 H 0.88925 0.93692 0.55893 0.0
H1405 H 0.87618 0.93344 0.49783 0.0
H1406 H 0.76985 0.83455 0.44538 0.0
H1407 H 0.82574 0.83026 0.45646 0.0
Li1408 Li 0.94428 0.06456 0.27924 0.0
Li1409 Li 0.91561 0.03923 0.25815 0.0
Li1410 Li 0.94245 0.06207 0.24001 0.0
Li1411 Li 0.91877 0.08071 0.26056 0.0
C1412 C 0.95535 0.03033 0.25893 0.0
N1413 N 0.98105 0.00866 0.26368 0.0
C1414 C 0.95011 0.01142 0.26315 0.0
C1415 C 0.9736 0.03817 0.25692 0.0
C1416 C 0.96333 1.00072 0.26557 0.0
C1417 C 0.9864 0.02697 0.2594 0.0
C1418 C 0.90798 0.06124 0.29642 0.0
C1419 C 0.88363 0.06834 0.31391 0.0
N1420 N 0.89034 0.06093 0.32882 0.0
C1421 C 0.91454 0.05352 0.31182 0.0
C1422 C 0.89239 0.06867 0.29741 0.0
C1423 C 0.90549 0.05361 0.32813 0.0
C1424 C 0.96248 0.08007 0.32125 0.0
N1425 N 0.96027 0.06528 0.3057 0.0
C1426 C 0.97633 0.04787 0.32594 0.0
C1427 C 0.96723 0.04942 0.30811 0.0
C1428 C 0.97852 0.06261 0.34236 0.0
C1429 C 0.97142 0.07902 0.33949 0.0
H1430 H 0.95691 0.09265 0.31979 0.0
H1431 H 0.96534 0.03734 0.29639 0.0
C1432 C 0.89159 0.997 0.24193 0.0
N1433 N 0.8997 0.00994 0.2584 0.0
C1434 C 0.88217 0.97716 0.24219 0.0
C1435 C 0.88928 0.98338 0.2763 0.0
C1436 C 0.89851 1.00312 0.27543 0.0
C1437 C 0.88072 0.96959 0.25955 0.0
H1438 H 0.89258 1.00186 0.22827 0.0
H1439 H 0.90498 0.01292 0.28863 0.0
C1440 C 0.96148 0.10277 0.26657 0.0
N1441 N 0.99017 0.13576 0.276 0.0
C1442 C 0.95845 0.12138 0.26565 0.0
C1443 C 0.97907 0.10093 0.27235 0.0
C1444 C 0.97315 0.13788 0.27044 0.0
C1445 C 0.9934 0.1178 0.27706 0.0
C1446 C 0.90167 0.05615 0.22157 0.0
C1447 C 0.90766 0.06342 0.20547 0.0
C1448 C 0.88314 0.04786 0.22168 0.0
C1449 C 0.89494 0.06214 0.18956 0.0
C1450 C 0.87082 0.04693 0.20552 0.0
N1451 N 0.87694 0.054 0.18992 0.0
C1452 C 0.96193 0.04416 0.20707 0.0
C1453 C 0.96048 0.07636 0.20467 0.0
C1454 C 0.97078 0.04253 0.19004 0.0
N1455 N 0.9567 0.0609 0.2144 0.0
C1456 C 0.96908 0.07522 0.18744 0.0
C1457 C 0.97454 0.05807 0.17943 0.0
H1458 H 0.95913 0.03167 0.21431 0.0
H1459 H 0.95666 0.08983 0.21009 0.0
C1460 C 0.90433 0.11759 0.27884 0.0
N1461 N 0.90457 0.1053 0.2619 0.0
C1462 C 0.89541 0.13366 0.27987 0.0
C1463 C 0.88672 0.12513 0.24613 0.0
C1464 C 0.89578 0.10923 0.2457 0.0
C1465 C 0.8861 0.13817 0.2634 0.0
H1466 H 0.91115 0.11512 0.29195 0.0
H1467 H 0.89568 0.10001 0.23204 0.0
O1468 O 0.94279 0.04135 0.25735 0.0
O1469 O 0.91698 0.06202 0.28061 0.0
O1470 O 0.9472 0.08651 0.26221 0.0
O1471 O 0.91396 0.05701 0.2371 0.0
H1472 H 0.93605 1.00522 0.26485 0.0
H1473 H 0.97783 0.05279 0.25364 0.0
H1474 H 0.95951 0.98615 0.26903 0.0
H1475 H 1.00059 0.03287 0.25801 0.0
H1476 H 0.87153 0.07402 0.31488 0.0
H1477 H 0.92647 0.04752 0.3112 0.0
H1478 H 0.88714 0.07466 0.28557 0.0
H1479 H 0.91049 0.04782 0.34022 0.0
H1480 H 0.98104 0.03466 0.32687 0.0
H1481 H 0.97269 0.09109 0.35128 0.0
H1482 H 0.87638 0.96773 0.22859 0.0
H1483 H 0.88879 0.97911 0.29025 0.0
H1484 H 0.94488 0.12304 0.26129 0.0
H1485 H 0.9816 0.08664 0.27333 0.0
H1486 H 0.97101 0.15237 0.26977 0.0
H1487 H 0.00709 0.11661 0.28159 0.0
H1488 H 0.92196 0.06994 0.20525 0.0
H1489 H 0.87834 0.0422 0.2341 0.0
H1490 H 0.89939 0.06762 0.17695 0.0
H1491 H 0.85641 0.04056 0.20536 0.0
H1492 H 0.97428 0.02878 0.18504 0.0
H1493 H 0.97161 0.08799 0.18056 0.0
H1494 H 0.89599 0.14246 0.29385 0.0
H1495 H 0.88021 0.12694 0.23261 0.0
Li1496 Li 0.27968 0.66106 0.54227 0.0
Li1497 Li 0.29529 0.6389 0.52137 0.0
Li1498 Li 0.2819 0.66367 0.50939 0.0
Li1499 Li 0.26241 0.63406 0.51563 0.0
C1500 C 0.31538 0.68305 0.52642 0.0
N1501 N 0.34179 0.71391 0.51928 0.0
C1502 C 0.33213 0.67999 0.52149 0.0
C1503 C 0.31209 0.70182 0.52791 0.0
C1504 C 0.34533 0.69579 0.51797 0.0
C1505 C 0.32557 0.71721 0.52408 0.0
C1506 C 0.27495 0.6188 0.5513 0.0
C1507 C 0.26732 0.58527 0.55639 0.0
N1508 N 0.26839 0.59185 0.57558 0.0
C1509 C 0.27608 0.62523 0.57107 0.0
C1510 C 0.27071 0.59867 0.54387 0.0
C1511 C 0.27274 0.61139 0.58312 0.0
C1512 C 0.26413 0.67726 0.57382 0.0
N1513 N 0.2799 0.67588 0.56654 0.0
C1514 C 0.29762 0.69911 0.59303 0.0
C1515 C 0.29645 0.68632 0.57576 0.0
C1516 C 0.28156 0.70147 0.6007 0.0
C1517 C 0.26463 0.69021 0.59088 0.0
H1518 H 0.25116 0.66875 0.56606 0.0
H1519 H 0.30874 0.68485 0.56956 0.0
C1520 C 0.32078 0.62576 0.50197 0.0
N1521 N 0.31391 0.62594 0.51899 0.0
C1522 C 0.33493 0.61667 0.49848 0.0
C1523 C 0.33447 0.60791 0.53011 0.0
C1524 C 0.32025 0.6172 0.53297 0.0
C1525 C 0.34205 0.60774 0.51272 0.0
H1526 H 0.31542 0.633 0.49122 0.0
H1527 H 0.31435 0.61757 0.54631 0.0
C1528 C 0.24616 0.67066 0.5224 0.0
N1529 N 0.21806 0.68981 0.52267 0.0
C1530 C 0.22923 0.66164 0.51155 0.0
C1531 C 0.24879 0.68945 0.53337 0.0
C1532 C 0.21519 0.67155 0.51189 0.0
C1533 C 0.23443 0.69889 0.5333 0.0
C1534 C 0.27534 0.62229 0.48098 0.0
C1535 C 0.26972 0.62691 0.46331 0.0
C1536 C 0.27531 0.60281 0.48227 0.0
C1537 C 0.26393 0.61191 0.44729 0.0
C1538 C 0.26944 0.58822 0.46589 0.0
N1539 N 0.26389 0.59303 0.4489 0.0
C1540 C 0.29392 0.67626 0.47724 0.0
C1541 C 0.27289 0.69284 0.49123 0.0
C1542 C 0.29139 0.68357 0.46041 0.0
N1543 N 0.28398 0.68026 0.49171 0.0
C1544 C 0.26989 0.70041 0.47473 0.0
C1545 C 0.27854 0.69496 0.45885 0.0
H1546 H 0.30252 0.66602 0.47815 0.0
H1547 H 0.26553 0.69606 0.50309 0.0
C1548 C 0.23261 0.60619 0.52115 0.0
N1549 N 0.24076 0.615 0.50751 0.0
C1550 C 0.21625 0.59216 0.51615 0.0
C1551 C 0.21696 0.59648 0.48306 0.0
C1552 C 0.23317 0.61074 0.48883 0.0
C1553 C 0.20814 0.58723 0.49688 0.0
H1554 H 0.23842 0.61066 0.53603 0.0
H1555 H 0.23915 0.61899 0.47854 0.0
O1556 O 0.30257 0.66788 0.53052 0.0
O1557 O 0.27731 0.63224 0.53932 0.0
O1558 O 0.25995 0.661 0.52254 0.0
O1559 O 0.28033 0.63672 0.497 0.0
H1560 H 0.33503 0.66563 0.5207 0.0
H1561 H 0.29922 0.70441 0.53188 0.0
H1562 H 0.35841 0.69366 0.51426 0.0
H1563 H 0.32318 0.7318 0.52502 0.0
H1564 H 0.26375 0.56964 0.55084 0.0
H1565 H 0.27941 0.64075 0.57706 0.0
H1566 H 0.26967 0.59348 0.52857 0.0
H1567 H 0.27351 0.61617 0.59844 0.0
H1568 H 0.31102 0.70701 0.60025 0.0
H1569 H 0.25186 0.69165 0.59603 0.0
H1570 H 0.34056 0.61712 0.48502 0.0
H1571 H 0.33949 0.60097 0.54133 0.0
H1572 H 0.2269 0.64717 0.50294 0.0
H1573 H 0.26189 0.69677 0.54164 0.0
H1574 H 0.20201 0.66471 0.50358 0.0
H1575 H 0.23631 0.71345 0.54167 0.0
H1576 H 0.26919 0.64178 0.46208 0.0
H1577 H 0.27955 0.59896 0.49584 0.0
H1578 H 0.25931 0.61525 0.43361 0.0
H1579 H 0.26921 0.57306 0.46671 0.0
H1580 H 0.29829 0.67919 0.44834 0.0
H1581 H 0.26024 0.7096 0.47404 0.0
H1582 H 0.20954 0.58621 0.52753 0.0
H1583 H 0.21101 0.59343 0.46816 0.0
Li1584 Li 0.41522 0.53977 0.75839 0.0
Li1585 Li 0.44404 0.56489 0.77954 0.0
Li1586 Li 0.41857 0.58133 0.76087 0.0
Li1587 Li 0.44211 0.56242 0.74032 0.0
C1588 C 0.40757 0.56149 0.79664 0.0
N1589 N 0.38968 0.56075 0.82886 0.0
C1590 C 0.41435 0.55416 0.81221 0.0
C1591 C 0.39158 0.56821 0.79734 0.0
C1592 C 0.40516 0.55401 0.82841 0.0
C1593 C 0.38274 0.56774 0.81377 0.0
C1594 C 0.45475 0.53044 0.75885 0.0
C1595 C 0.48562 0.52663 0.75872 0.0
N1596 N 0.48013 0.50826 0.76282 0.0
C1597 C 0.44935 0.51146 0.76285 0.0
C1598 C 0.47297 0.53808 0.75662 0.0
C1599 C 0.46242 0.50051 0.76489 0.0
C1600 C 0.39615 0.49586 0.74273 0.0
N1601 N 0.39918 0.51052 0.75853 0.0
C1602 C 0.38357 0.48578 0.77606 0.0
C1603 C 0.39295 0.50543 0.77505 0.0
C1604 C 0.38021 0.47017 0.76001 0.0
C1605 C 0.38688 0.47602 0.74316 0.0
H1606 H 0.40123 0.49935 0.72961 0.0
H1607 H 0.39537 0.51659 0.78782 0.0
C1608 C 0.46429 0.58062 0.82106 0.0
N1609 N 0.46004 0.56518 0.80588 0.0
C1610 C 0.47329 0.57915 0.83915 0.0
C1611 C 0.47395 0.54617 0.8262 0.0
C1612 C 0.46497 0.54821 0.80852 0.0
C1613 C 0.47815 0.56156 0.84229 0.0
H1614 H 0.46029 0.59408 0.81945 0.0
H1615 H 0.4615 0.53571 0.79706 0.0
C1616 C 0.40174 0.55656 0.72157 0.0
N1617 N 0.37769 0.55386 0.68922 0.0
C1618 C 0.40813 0.56361 0.70552 0.0
C1619 C 0.38315 0.5482 0.72126 0.0
C1620 C 0.39575 0.56205 0.68926 0.0
C1621 C 0.37119 0.547 0.70475 0.0
C1622 C 0.46143 0.60307 0.7666 0.0
C1623 C 0.4585 0.6217 0.76565 0.0
C1624 C 0.47903 0.60109 0.77213 0.0
C1625 C 0.4733 0.63811 0.77017 0.0
C1626 C 0.49347 0.61787 0.77657 0.0
N1627 N 0.49033 0.63587 0.7755 0.0
C1628 C 0.40017 0.61522 0.77909 0.0
C1629 C 0.39973 0.6132 0.74593 0.0
C1630 C 0.39107 0.63114 0.7801 0.0
N1631 N 0.40442 0.60605 0.76213 0.0
C1632 C 0.39079 0.62922 0.74638 0.0
C1633 C 0.38598 0.63886 0.76362 0.0
H1634 H 0.40385 0.61033 0.79225 0.0
H1635 H 0.40288 0.60652 0.73228 0.0
C1636 C 0.45236 0.54389 0.70133 0.0
N1637 N 0.45619 0.56098 0.71463 0.0
C1638 C 0.46088 0.54215 0.6841 0.0
C1639 C 0.47771 0.57545 0.6937 0.0
C1640 C 0.46887 0.5766 0.71079 0.0
C1641 C 0.47393 0.55803 0.67952 0.0
H1642 H 0.44251 0.53127 0.70395 0.0
H1643 H 0.47224 0.5903 0.72096 0.0
O1644 O 0.41673 0.56256 0.78095 0.0
O1645 O 0.44235 0.54169 0.75761 0.0
O1646 O 0.41368 0.55763 0.73745 0.0
O1647 O 0.44704 0.5869 0.76253 0.0
H1648 H 0.42652 0.54858 0.81179 0.0
H1649 H 0.38609 0.57375 0.78531 0.0
H1650 H 0.41032 0.5485 0.84062 0.0
H1651 H 0.37038 0.57296 0.81453 0.0
H1652 H 0.4998 0.53236 0.75715 0.0
H1653 H 0.43531 0.50543 0.76475 0.0
H1654 H 0.47732 0.55274 0.75346 0.0
H1655 H 0.4585 0.48588 0.76822 0.0
H1656 H 0.37896 0.48309 0.78958 0.0
H1657 H 0.38539 0.4653 0.73018 0.0
H1658 H 0.47588 0.59164 0.85076 0.0
H1659 H 0.47748 0.53233 0.82713 0.0
H1660 H 0.4225 0.57016 0.70561 0.0
H1661 H 0.37806 0.5427 0.73364 0.0
H1662 H 0.4005 0.56736 0.67667 0.0
H1663 H 0.35674 0.54058 0.70427 0.0
H1664 H 0.44493 0.62347 0.76147 0.0
H1665 H 0.48148 0.58678 0.77313 0.0
H1666 H 0.47125 0.65263 0.76947 0.0
H1667 H 0.50716 0.61659 0.78092 0.0
H1668 H 0.38834 0.63755 0.79405 0.0
H1669 H 0.38745 0.63376 0.73293 0.0
H1670 H 0.45721 0.52809 0.67451 0.0
H1671 H 0.48731 0.58851 0.69163 0.0
Li1672 Li 0.6526 0.04786 0.75956 0.0
Li1673 Li 0.67993 0.06719 0.75086 0.0
Li1674 Li 0.65568 0.04597 0.72663 0.0
Li1675 Li 0.676 0.03231 0.7471 0.0
C1676 C 0.64443 0.0824 0.74684 0.0
N1677 N 0.62265 0.10879 0.75233 0.0
C1678 C 0.6523 0.10221 0.7544 0.0
C1679 C 0.62552 0.07602 0.7419 0.0
C1680 C 0.64105 0.11532 0.7571 0.0
C1681 C 0.61473 0.08959 0.74484 0.0
C1682 C 0.69131 0.05551 0.78594 0.0
C1683 C 0.72329 0.0621 0.79803 0.0
N1684 N 0.71928 0.06737 0.8161 0.0
C1685 C 0.68748 0.06077 0.80466 0.0
C1686 C 0.70933 0.056 0.7826 0.0
C1687 C 0.70182 0.06679 0.8197 0.0
C1688 C 0.62709 0.03196 0.78259 0.0
N1689 N 0.63675 0.04847 0.7774 0.0
C1690 C 0.62747 0.06908 0.80218 0.0
C1691 C 0.6372 0.06675 0.78681 0.0
C1692 C 0.61799 0.05233 0.80833 0.0
C1693 C 0.61733 0.03357 0.79815 0.0
H1694 H 0.62795 0.01762 0.77561 0.0
H1695 H 0.64619 0.07945 0.78334 0.0
C1696 C 0.7078 0.09791 0.74551 0.0
N1697 N 0.69721 0.09045 0.75825 0.0
C1698 C 0.72318 0.11301 0.75205 0.0
C1699 C 0.71558 0.11323 0.78451 0.0
C1700 C 0.70007 0.09851 0.7772 0.0
C1701 C 0.7276 0.12027 0.7719 0.0
H1702 H 0.70445 0.09199 0.73036 0.0
H1703 H 0.69057 0.0931 0.78671 0.0
C1704 C 0.63456 0.00846 0.73908 0.0
N1705 N 0.60476 0.9773 0.73711 0.0
C1706 C 0.63712 0.98988 0.74098 0.0
C1707 C 0.61687 0.01119 0.73601 0.0
C1708 C 0.62188 0.9743 0.7399 0.0
C1709 C 0.60197 0.99526 0.73519 0.0
C1710 C 0.69537 0.05267 0.71579 0.0
C1711 C 0.69018 0.05346 0.69662 0.0
C1712 C 0.7139 0.05597 0.72262 0.0
C1713 C 0.70363 0.0578 0.68463 0.0
C1714 C 0.72695 0.06048 0.71023 0.0
N1715 N 0.72159 0.06127 0.69164 0.0
C1716 C 0.64138 0.06056 0.69749 0.0
C1717 C 0.63287 0.0257 0.69421 0.0
C1718 C 0.63031 0.05982 0.68068 0.0
N1719 N 0.64238 0.04365 0.70371 0.0
C1720 C 0.62153 0.02425 0.6774 0.0
C1721 C 0.62031 0.04148 0.6705 0.0
H1722 H 0.64919 0.07455 0.70564 0.0
H1723 H 0.63401 0.01262 0.69979 0.0
C1724 C 0.68809 0.00744 0.76675 0.0
N1725 N 0.68826 0.01348 0.74958 0.0
C1726 C 0.69859 0.99464 0.77104 0.0
C1727 C 0.70874 0.99417 0.73952 0.0
C1728 C 0.69813 1.00721 0.73592 0.0
C1729 C 0.70907 0.98799 0.75734 0.0
H1730 H 0.67998 0.01287 0.77718 0.0
H1731 H 0.69794 0.01255 0.72247 0.0
O1732 O 0.65528 0.06936 0.74464 0.0
O1733 O 0.6775 0.05073 0.77096 0.0
O1734 O 0.6494 0.0238 0.74015 0.0
O1735 O 0.6823 0.04859 0.72768 0.0
H1736 H 0.66693 0.10739 0.75828 0.0
H1737 H 0.61926 0.06074 0.73602 0.0
H1738 H 0.64694 0.13067 0.76303 0.0
H1739 H 0.60005 0.08487 0.7412 0.0
H1740 H 0.73732 0.06274 0.79563 0.0
H1741 H 0.6736 0.06055 0.80746 0.0
H1742 H 0.71251 0.05195 0.76823 0.0
H1743 H 0.69908 0.07111 0.83423 0.0
H1744 H 0.6289 0.0837 0.81035 0.0
H1745 H 0.6106 0.02044 0.80312 0.0
H1746 H 0.73141 0.11898 0.74166 0.0
H1747 H 0.71815 0.11892 0.79979 0.0
H1748 H 0.65076 0.98753 0.74321 0.0
H1749 H 0.61469 0.02549 0.73452 0.0
H1750 H 0.62365 0.95983 0.74131 0.0
H1751 H 0.58819 0.99718 0.73303 0.0
H1752 H 0.67592 0.05068 0.69099 0.0
H1753 H 0.71818 0.05539 0.73738 0.0
H1754 H 0.69978 0.05844 0.66975 0.0
H1755 H 0.74135 0.06336 0.71539 0.0
H1756 H 0.6298 0.07334 0.67556 0.0
H1757 H 0.61378 0.00991 0.6699 0.0
H1758 H 0.69838 0.98984 0.78479 0.0
H1759 H 0.71676 0.98921 0.72871 0.0
Li1760 Li 0.79054 0.70767 0.01832 0.0
Li1761 Li 0.803 0.68048 1.00214 0.0
Li1762 Li 0.7892 0.7031 0.98232 0.0
Li1763 Li 0.76758 0.6771 0.99892 0.0
C1764 C 0.82627 0.72423 0.00885 0.0
N1765 N 0.85693 0.7544 0.02222 0.0
C1766 C 0.84174 0.72043 0.01836 0.0
C1767 C 0.82643 0.74334 0.00601 0.0
C1768 C 0.8571 0.73588 0.02502 0.0
C1769 C 0.84205 0.75841 0.01296 0.0
C1770 C 0.78642 0.6696 0.0363 0.0
C1771 C 0.77966 0.63884 0.04776 0.0
N1772 N 0.78822 0.64823 0.06546 0.0
C1773 C 0.79511 0.67897 0.05461 0.0
C1774 C 0.7786 0.6494 0.03281 0.0
C1775 C 0.7959 0.66789 0.06916 0.0
C1776 C 0.77708 0.72435 0.05075 0.0
N1777 N 0.79283 0.72527 0.0427 0.0
C1778 C 0.81006 0.74537 0.07167 0.0
C1779 C 0.80917 0.73568 0.05272 0.0
C1780 C 0.79402 0.74422 0.08055 0.0
C1781 C 0.77734 0.73376 0.06961 0.0
H1782 H 0.76433 0.7155 0.0428 0.0
H1783 H 0.82165 0.73583 0.04643 0.0
C1784 C 0.83208 0.66286 0.98955 0.0
N1785 N 0.82291 0.66697 1.00474 0.0
C1786 C 0.84715 0.65441 0.99162 0.0
C1787 C 0.84334 0.65478 0.02497 0.0
C1788 C 0.82841 0.66319 0.02226 0.0
C1789 C 0.85304 0.65017 0.00955 0.0
H1790 H 0.82781 0.66632 0.97581 0.0
H1791 H 0.82154 0.66714 0.03438 0.0
C1792 C 0.75945 0.71963 1.00239 0.0
N1793 N 0.73984 0.74768 0.01088 0.0
C1794 C 0.74045 0.71403 1.00145 0.0
C1795 C 0.76852 0.73947 0.00753 0.0
C1796 C 0.73076 0.72844 0.00576 0.0
C1797 C 0.75834 0.75343 0.01187 0.0
C1798 C 0.78228 0.65888 0.96278 0.0
C1799 C 0.77751 0.6626 0.9445 0.0
C1800 C 0.78539 0.64057 0.96487 0.0
C1801 C 0.77596 0.64787 0.92852 0.0
C1802 C 0.7837 0.62622 0.94853 0.0
N1803 N 0.77907 0.63014 0.93085 0.0
C1804 C 0.80708 0.71792 0.95131 0.0
C1805 C 0.77665 0.72115 0.95102 0.0
C1806 C 0.80877 0.7259 0.93442 0.0
N1807 N 0.79115 0.71552 0.95923 0.0
C1808 C 0.77777 0.72926 0.93414 0.0
C1809 C 0.79396 0.73165 0.92534 0.0
H1810 H 0.81849 0.71337 0.95796 0.0
H1811 H 0.7641 0.71923 0.95748 0.0
C1812 C 0.73403 0.66375 0.01484 0.0
N1813 N 0.74269 0.65992 0.99914 0.0
C1814 C 0.7164 0.65259 0.01617 0.0
C1815 C 0.71663 0.63343 0.9852 0.0
C1816 C 0.73427 0.64499 0.98444 0.0
C1817 C 0.70724 0.63704 1.00124 0.0
H1818 H 0.74084 0.67559 0.02647 0.0
H1819 H 0.74119 0.64205 0.97201 0.0
O1820 O 0.81119 0.70924 1.00205 0.0
O1821 O 0.78563 0.68011 0.02182 0.0
O1822 O 0.76907 0.70565 0.99838 0.0
O1823 O 0.78433 0.6733 0.97849 0.0
H1824 H 0.84189 0.70572 0.02062 0.0
H1825 H 0.81463 0.74649 0.99852 0.0
H1826 H 0.86916 0.73315 0.03241 0.0
H1827 H 0.84235 0.7733 0.01094 0.0
H1828 H 0.7737 0.62318 0.04528 0.0
H1829 H 0.8014 0.69455 0.05751 0.0
H1830 H 0.77185 0.64197 0.01869 0.0
H1831 H 0.80266 0.67492 0.08337 0.0
H1832 H 0.82326 0.75331 0.07937 0.0
H1833 H 0.76464 0.73197 0.07581 0.0
H1834 H 0.85396 0.65109 0.97919 0.0
H1835 H 0.84745 0.65238 0.03921 0.0
H1836 H 0.73326 0.69872 0.99734 0.0
H1837 H 0.78324 0.74398 0.00838 0.0
H1838 H 0.71603 0.72433 1.00504 0.0
H1839 H 0.76516 0.76884 0.01604 0.0
H1840 H 0.77504 0.6767 0.94267 0.0
H1841 H 0.78916 0.63755 0.97896 0.0
H1842 H 0.77231 0.65054 0.91427 0.0
H1843 H 0.78611 0.61198 0.94989 0.0
H1844 H 0.82151 0.72707 0.92834 0.0
H1845 H 0.76601 0.73371 0.92817 0.0
H1846 H 0.71018 0.656 0.02902 0.0
H1847 H 0.71035 0.62193 0.97309 0.0
Li1848 Li 0.91133 0.51063 0.77642 0.0
Li1849 Li 0.93569 0.52891 0.80117 0.0
Li1850 Li 0.91594 0.54499 0.78252 0.0
Li1851 Li 0.93868 0.52987 0.76784 0.0
C1852 C 0.89638 0.52006 0.81189 0.0
N1853 N 0.87137 0.50746 0.83607 0.0
C1854 C 0.90115 0.51017 0.82639 0.0
C1855 C 0.87893 0.52361 0.8097 0.0
C1856 C 0.88832 0.50397 0.83851 0.0
C1857 C 0.86643 0.517 0.822 0.0
C1858 C 0.94521 0.493 0.7813 0.0
C1859 C 0.97305 0.48195 0.77955 0.0
N1860 N 0.96357 0.46329 0.77974 0.0
C1861 C 0.93578 0.47377 0.78176 0.0
C1862 C 0.96404 0.49721 0.78044 0.0
C1863 C 0.94529 0.45894 0.78088 0.0
C1864 C 0.90051 0.47778 0.75072 0.0
N1865 N 0.89499 0.4873 0.7664 0.0
C1866 C 0.86891 0.46133 0.76477 0.0
C1867 C 0.87921 0.47992 0.77319 0.0
C1868 C 0.87528 0.45065 0.74959 0.0
C1869 C 0.89076 0.45917 0.74196 0.0
H1870 H 0.91301 0.48432 0.74562 0.0
H1871 H 0.87511 0.48793 0.78554 0.0
C1872 C 0.95421 0.54769 0.83618 0.0
N1873 N 0.9491 0.53 0.82424 0.0
C1874 C 0.96517 0.54965 0.85344 0.0
C1875 C 0.96558 0.51523 0.84535 0.0
C1876 C 0.9543 0.51384 0.8285 0.0
C1877 C 0.97098 0.53327 0.85792 0.0
H1878 H 0.94981 0.56021 0.83219 0.0
H1879 H 0.94965 0.49989 0.81895 0.0
C1880 C 0.90008 0.52011 0.74269 0.0
N1881 N 0.87267 0.50203 0.71289 0.0
C1882 C 0.90446 0.51411 0.72436 0.0
C1883 C 0.88174 0.5173 0.74578 0.0
C1884 C 0.89041 0.50497 0.70949 0.0
C1885 C 0.86809 0.50795 0.73056 0.0
C1886 C 0.95737 0.56669 0.78664 0.0
C1887 C 0.95448 0.5834 0.77989 0.0
C1888 C 0.97516 0.56465 0.79089 0.0
C1889 C 0.96953 0.59782 0.77735 0.0
C1890 C 0.98985 0.57938 0.7881 0.0
N1891 N 0.98675 0.59551 0.78146 0.0
C1892 C 0.89722 0.57341 0.79614 0.0
C1893 C 0.90177 0.56786 0.76323 0.0
C1894 C 0.88723 0.58712 0.79279 0.0
N1895 N 0.9042 0.56433 0.78134 0.0
C1896 C 0.89148 0.58077 0.75913 0.0
C1897 C 0.88439 0.59085 0.77404 0.0
H1898 H 0.89935 0.56993 0.81033 0.0
H1899 H 0.90773 0.56051 0.75188 0.0
C1900 C 0.95136 0.50976 0.74028 0.0
N1901 N 0.95356 0.52877 0.7487 0.0
C1902 C 0.95967 0.50507 0.72437 0.0
C1903 C 0.9722 0.53983 0.72541 0.0
C1904 C 0.96364 0.54387 0.74167 0.0
C1905 C 0.97011 0.52016 0.71667 0.0
H1906 H 0.94244 0.49819 0.74541 0.0
H1907 H 0.96445 0.55891 0.74811 0.0
O1908 O 0.90912 0.52746 0.80078 0.0
O1909 O 0.93589 0.50744 0.78085 0.0
O1910 O 0.91372 0.52844 0.75758 0.0
O1911 O 0.94286 0.55267 0.7896 0.0
H1912 H 0.91466 0.50751 0.82842 0.0
H1913 H 0.87511 0.53139 0.79863 0.0
H1914 H 0.89186 0.49645 0.84991 0.0
H1915 H 0.85285 0.51956 0.82043 0.0
H1916 H 0.98757 0.48493 0.77861 0.0
H1917 H 0.92126 0.47029 0.78273 0.0
H1918 H 0.97152 0.51204 0.7801 0.0
H1919 H 0.93814 0.44396 0.78105 0.0
H1920 H 0.85717 0.45459 0.7712 0.0
H1921 H 0.8961 0.45092 0.73058 0.0
H1922 H 0.96921 0.56372 0.86308 0.0
H1923 H 0.96977 0.50235 0.84872 0.0
H1924 H 0.91856 0.51637 0.72167 0.0
H1925 H 0.87813 0.52188 0.75989 0.0
H1926 H 0.89362 0.50015 0.69527 0.0
H1927 H 0.85386 0.50534 0.73281 0.0
H1928 H 0.94078 0.58525 0.77671 0.0
H1929 H 0.97755 0.55181 0.79623 0.0
H1930 H 0.96752 0.61084 0.77214 0.0
H1931 H 1.00371 0.57799 0.79124 0.0
H1932 H 0.88195 0.59474 0.80463 0.0
H1933 H 0.88914 0.58282 0.7444 0.0
H1934 H 0.95706 0.48978 0.71753 0.0
H1935 H 0.97986 0.55181 0.71944 0.0
Li1936 Li 0.8115 0.41407 0.52097 0.0
Li1937 Li 0.79541 0.43628 0.50768 0.0
Li1938 Li 0.81066 0.41365 0.48716 0.0
Li1939 Li 0.8281 0.44286 0.5102 0.0
C1940 C 0.7763 0.39132 0.50356 0.0
N1941 N 0.74923 0.35946 0.50756 0.0
C1942 C 0.76069 0.39424 0.5116 0.0
C1943 C 0.77811 0.37222 0.49741 0.0
C1944 C 0.74717 0.37793 0.51353 0.0
C1945 C 0.76428 0.35629 0.49962 0.0
C1946 C 0.81633 0.45551 0.54696 0.0
C1947 C 0.82484 0.4897 0.56197 0.0
N1948 N 0.82705 0.48432 0.57943 0.0
C1949 C 0.81847 0.45032 0.56508 0.0
C1950 C 0.81928 0.47535 0.54538 0.0
C1951 C 0.82392 0.46509 0.58132 0.0
C1952 C 0.83085 0.40393 0.5492 0.0
N1953 N 0.81358 0.39969 0.53998 0.0
C1954 C 0.80291 0.37699 0.5601 0.0
C1955 C 0.79959 0.38677 0.5452 0.0
C1956 C 0.8207 0.38093 0.56965 0.0
C1957 C 0.8348 0.39453 0.56412 0.0
H1958 H 0.84145 0.41497 0.54517 0.0
H1959 H 0.78587 0.38429 0.53818 0.0
C1960 C 0.76783 0.4538 0.49554 0.0
N1961 N 0.77624 0.44797 0.51049 0.0
C1962 C 0.75348 0.46284 0.4984 0.0
C1963 C 0.75724 0.45992 0.53199 0.0
C1964 C 0.77135 0.45081 0.52843 0.0
C1965 C 0.74804 0.46587 0.51682 0.0
H1966 H 0.77224 0.45132 0.48148 0.0
H1967 H 0.77833 0.44586 0.53995 0.0
C1968 C 0.84416 0.40498 0.50651 0.0
N1969 N 0.86897 0.38189 0.50911 0.0
C1970 C 0.86291 0.41347 0.50849 0.0
C1971 C 0.838 0.38474 0.50575 0.0
C1972 C 0.87524 0.40154 0.50972 0.0
C1973 C 0.85077 0.37334 0.5072 0.0
C1974 C 0.81815 0.45495 0.47603 0.0
C1975 C 0.82615 0.4486 0.45999 0.0
C1976 C 0.81794 0.47476 0.48088 0.0
C1977 C 0.8341 0.46229 0.44916 0.0
C1978 C 0.82611 0.48801 0.46973 0.0
N1979 N 0.83395 0.48156 0.45424 0.0
C1980 C 0.79295 0.38772 0.4544 0.0
C1981 C 0.82528 0.39307 0.45812 0.0
C1982 C 0.7915 0.37445 0.43742 0.0
N1983 N 0.80965 0.39674 0.46419 0.0
C1984 C 0.82449 0.37993 0.44118 0.0
C1985 C 0.80743 0.3706 0.43054 0.0
H1986 H 0.78079 0.39084 0.45983 0.0
H1987 H 0.83836 0.40055 0.46628 0.0
C1988 C 0.85703 0.46514 0.53575 0.0
N1989 N 0.8498 0.46241 0.51707 0.0
C1990 C 0.87324 0.47897 0.5426 0.0
C1991 C 0.87513 0.4859 0.51046 0.0
C1992 C 0.85851 0.4724 0.5044 0.0
C1993 C 0.88287 0.48894 0.52971 0.0
H1994 H 0.85064 0.45597 0.54522 0.0
H1995 H 0.85328 0.46914 0.48941 0.0
O1996 O 0.78955 0.40711 0.5014 0.0
O1997 O 0.8124 0.44122 0.53085 0.0
O1998 O 0.832 0.41659 0.50567 0.0
O1999 O 0.81039 0.44181 0.48682 0.0
H2000 H 0.75903 0.40893 0.51631 0.0
H2001 H 0.79008 0.36973 0.49108 0.0
H2002 H 0.73503 0.37997 0.51975 0.0
H2003 H 0.76551 0.34141 0.49501 0.0
H2004 H 0.82754 0.50512 0.56095 0.0
H2005 H 0.81613 0.43505 0.5666 0.0
H2006 H 0.81783 0.47959 0.53144 0.0
H2007 H 0.82578 0.46128 0.59541 0.0
H2008 H 0.79172 0.3667 0.56428 0.0
H2009 H 0.84855 0.39833 0.57164 0.0
H2010 H 0.74655 0.4671 0.48633 0.0
H2011 H 0.75361 0.46229 0.54643 0.0
H2012 H 0.86787 0.42913 0.50909 0.0
H2013 H 0.82352 0.37799 0.50433 0.0
H2014 H 0.88979 0.40791 0.51121 0.0
H2015 H 0.84623 0.35768 0.50684 0.0
H2016 H 0.82634 0.43331 0.456 0.0
H2017 H 0.81174 0.47983 0.49326 0.0
H2018 H 0.84043 0.45761 0.43675 0.0
H2019 H 0.82625 0.50344 0.4734 0.0
H2020 H 0.77809 0.36732 0.42973 0.0
H2021 H 0.83708 0.37751 0.43621 0.0
H2022 H 0.8789 0.48067 0.55749 0.0
H2023 H 0.88248 0.4926 0.49982 0.0
Li2024 Li 0.64919 0.51155 0.28899 0.0
Li2025 Li 0.67647 0.53419 0.27155 0.0
Li2026 Li 0.64809 0.50875 0.25009 0.0
Li2027 Li 0.67303 0.49242 0.26822 0.0
C2028 C 0.63671 0.54285 0.26877 0.0
N2029 N 0.61135 0.56471 0.26316 0.0
C2030 C 0.64218 0.56335 0.27204 0.0
C2031 C 0.61838 0.53342 0.26264 0.0
C2032 C 0.62913 0.57416 0.26918 0.0
C2033 C 0.60576 0.54475 0.25983 0.0
C2034 C 0.69022 0.51998 0.30801 0.0
C2035 C 0.72009 0.52054 0.3233 0.0
N2036 N 0.71537 0.52792 0.34047 0.0
C2037 C 0.68566 0.52761 0.32576 0.0
C2038 C 0.70753 0.51639 0.3067 0.0
C2039 C 0.69857 0.5315 0.34203 0.0
C2040 C 0.62789 0.49658 0.32213 0.0
N2041 N 0.63496 0.51295 0.31458 0.0
C2042 C 0.62444 0.53236 0.34128 0.0
C2043 C 0.63306 0.53066 0.3241 0.0
C2044 C 0.61715 0.51578 0.34963 0.0
C2045 C 0.61909 0.49765 0.33925 0.0
H2046 H 0.62912 0.48238 0.31501 0.0
H2047 H 0.63838 0.54385 0.31849 0.0
C2048 C 0.69516 0.56944 0.25422 0.0
N2049 N 0.69237 0.56352 0.27144 0.0
C2050 C 0.70444 0.58905 0.25302 0.0
C2051 C 0.70806 0.59716 0.28722 0.0
C2052 C 0.69876 0.57734 0.28781 0.0
C2053 C 0.71124 0.60376 0.26963 0.0
H2054 H 0.68989 0.559 0.24107 0.0
H2055 H 0.69651 0.57318 0.30158 0.0
C2056 C 0.63017 0.47102 0.26 0.0
N2057 N 0.60127 0.43901 0.24607 0.0
C2058 C 0.63331 0.45374 0.24997 0.0
C2059 C 0.61236 0.47203 0.26299 0.0
C2060 C 0.61851 0.43769 0.24307 0.0
C2061 C 0.59792 0.4557 0.25577 0.0
C2062 C 0.68339 0.51029 0.23242 0.0
C2063 C 0.67357 0.49851 0.21549 0.0
C2064 C 0.70143 0.52056 0.23244 0.0
C2065 C 0.6819 0.49752 0.1987 0.0
C2066 C 0.70932 0.51905 0.21539 0.0
N2067 N 0.69946 0.50771 0.199 0.0
C2068 C 0.63898 0.52533 0.21556 0.0
C2069 C 0.61777 0.49527 0.21432 0.0
C2070 C 0.63058 0.52765 0.19766 0.0
N2071 N 0.63278 0.50926 0.22377 0.0
C2072 C 0.60877 0.49719 0.1964 0.0
C2073 C 0.61515 0.51353 0.18746 0.0
H2074 H 0.65074 0.53654 0.22289 0.0
H2075 H 0.61269 0.48242 0.22053 0.0
C2076 C 0.68356 0.45373 0.27823 0.0
N2077 N 0.68724 0.46779 0.26681 0.0
C2078 C 0.69237 0.43761 0.27754 0.0
C2079 C 0.70906 0.4497 0.25331 0.0
C2080 C 0.6999 0.46557 0.25438 0.0
C2081 C 0.70566 0.43496 0.26499 0.0
H2082 H 0.67363 0.45483 0.28816 0.0
H2083 H 0.70309 0.47616 0.24497 0.0
O2084 O 0.64929 0.53205 0.27145 0.0
O2085 O 0.67763 0.51558 0.29206 0.0
O2086 O 0.64454 0.48671 0.26721 0.0
O2087 O 0.67538 0.51189 0.2489 0.0
H2088 H 0.65634 0.57083 0.27682 0.0
H2089 H 0.61399 0.51753 0.25992 0.0
H2090 H 0.63315 0.59006 0.27172 0.0
H2091 H 0.59153 0.53767 0.25499 0.0
H2092 H 0.73355 0.51784 0.32255 0.0
H2093 H 0.67229 0.53043 0.32696 0.0
H2094 H 0.71118 0.5104 0.29302 0.0
H2095 H 0.69522 0.53735 0.35589 0.0
H2096 H 0.62341 0.54683 0.34783 0.0
H2097 H 0.61415 0.48412 0.34443 0.0
H2098 H 0.70585 0.59264 0.2389 0.0
H2099 H 0.71283 0.6072 0.3007 0.0
H2100 H 0.64704 0.4527 0.24764 0.0
H2101 H 0.60974 0.48526 0.27087 0.0
H2102 H 0.62073 0.42418 0.23536 0.0
H2103 H 0.58405 0.45627 0.25794 0.0
H2104 H 0.65966 0.49027 0.21531 0.0
H2105 H 0.70921 0.52963 0.24549 0.0
H2106 H 0.67442 0.48862 0.18544 0.0
H2107 H 0.72328 0.52693 0.21518 0.0
H2108 H 0.63613 0.5407 0.19193 0.0
H2109 H 0.59708 0.48567 0.1894 0.0
H2110 H 0.68879 0.42739 0.2872 0.0
H2111 H 0.71869 0.44901 0.243 0.0
Gd2112 Gd 0.0285 0.0278 1.00354 0.0
Gd2113 Gd 0.06232 0.0454 0.02404 0.0
C2114 C 0.04196 0.07535 0.0086 0.0
C2115 C 0.99416 0.01866 0.99011 0.0
C2116 C 0.97936 0.02885 0.99254 0.0
C2117 C 0.96534 0.02593 0.97739 0.0
C2118 C 0.97935 0.04191 0.00958 0.0
C2119 C 0.95101 0.04841 0.99641 0.0
C2120 C 0.96518 0.05152 0.01155 0.0
C2121 C 0.9513 0.03569 0.97927 0.0
C2122 C 0.0549 0.02429 0.97899 0.0
C2123 C 0.04829 0.9988 0.02098 0.0
C2124 C 0.09735 0.05571 0.03405 0.0
C2125 C 0.11228 0.04559 0.03325 0.0
C2126 C 0.12563 0.04948 0.04922 0.0
C2127 C 0.11283 0.03133 0.01737 0.0
C2128 C 0.14051 0.02565 0.0332 0.0
C2129 C 0.12691 0.02147 0.01732 0.0
C2130 C 0.13964 0.0396 0.04922 0.0
C2131 C 0.03953 0.04746 0.05285 0.0
O2132 O 0.02821 0.05971 1.00412 0.0
O2133 O 0.05781 0.07388 0.01666 0.0
O2134 O 0.00701 0.02669 0.98075 0.0
O2135 O 1.00059 0.0128 0.00525 0.0
O2136 O 0.04091 0.0105 0.9806 0.0
O2137 O 0.05479 0.03938 0.99157 0.0
O2138 O 0.06268 0.01323 0.02133 0.0
O2139 O 0.032 1.00157 0.01641 0.0
O2140 O 0.08564 0.05006 0.0456 0.0
O2141 O 0.08954 0.05828 0.01782 0.0
O2142 O 0.05688 0.05493 0.05454 0.0
O2143 O 0.03408 0.03968 0.03512 0.0
H2144 H 0.96524 0.01605 0.96411 0.0
H2145 H 0.99025 0.04465 0.02134 0.0
H2146 H 0.96532 0.06143 0.02484 0.0
H2147 H 0.94043 0.03296 0.96747 0.0
H2148 H 0.12517 0.06013 0.06176 0.0
H2149 H 0.10245 0.02783 1.00501 0.0
H2150 H 0.12735 0.01089 1.00473 0.0
H2151 H 0.14979 0.04284 0.06176 0.0
Gd2152 Gd 0.30702 0.78632 0.25056 0.0
Gd2153 Gd 0.28609 0.78481 0.27857 0.0
C2154 C 0.29999 0.82596 0.2706 0.0
C2155 C 0.33081 0.79518 0.22774 0.0
C2156 C 0.33578 0.80994 0.21608 0.0
C2157 C 0.34795 0.80742 0.20277 0.0
C2158 C 0.32772 0.82599 0.21747 0.0
C2159 C 0.34113 0.83471 0.18964 0.0
C2160 C 0.33047 0.83846 0.20427 0.0
C2161 C 0.35069 0.8199 0.18951 0.0
C2162 C 0.32542 0.77797 0.28204 0.0
C2163 C 0.28773 0.74541 0.25291 0.0
C2164 C 0.27067 0.78462 0.30931 0.0
C2165 C 0.25794 0.77009 0.31697 0.0
C2166 C 0.24833 0.77667 0.3315 0.0
C2167 C 0.25832 0.75016 0.31285 0.0
C2168 C 0.24468 0.7452 0.34166 0.0
C2169 C 0.25171 0.73769 0.32528 0.0
C2170 C 0.24151 0.76415 0.34378 0.0
C2171 C 0.26355 0.78053 0.24483 0.0
O2172 O 0.30111 0.816 0.25386 0.0
O2173 O 0.29707 0.8169 0.28494 0.0
O2174 O 0.33356 0.80199 0.24613 0.0
O2175 O 0.31506 0.78252 0.22204 0.0
O2176 O 0.32249 0.76765 0.26505 0.0
O2177 O 0.31659 0.79128 0.28227 0.0
O2178 O 0.28817 0.75388 0.27082 0.0
O2179 O 0.29104 0.75593 0.23955 0.0
O2180 O 0.26427 0.79111 0.29458 0.0
O2181 O 0.28668 0.78085 0.30788 0.0
O2182 O 0.26088 0.76955 0.25775 0.0
O2183 O 0.27907 0.7926 0.24954 0.0
H2184 H 0.35439 0.79514 0.20188 0.0
H2185 H 0.3185 0.82821 0.22793 0.0
H2186 H 0.32296 0.84985 0.20437 0.0
H2187 H 0.35878 0.81677 0.17808 0.0
H2188 H 0.24784 0.79199 0.33466 0.0
H2189 H 0.26557 0.74485 0.30144 0.0
H2190 H 0.25436 0.72314 0.3235 0.0
H2191 H 0.23604 0.77007 0.35637 0.0
Gd2192 Gd 0.56742 0.03897 0.51179 0.0
Gd2193 Gd 0.52586 0.0359 0.51436 0.0
C2194 C 0.53862 0.99618 0.50816 0.0
C2195 C 0.60061 0.03429 0.51422 0.0
C2196 C 0.61118 0.01879 0.51206 0.0
C2197 C 0.62114 0.01654 0.49635 0.0
C2198 C 0.61302 0.00754 0.52647 0.0
C2199 C 0.63576 0.99358 0.5104 0.0
C2200 C 0.62512 0.99511 0.52563 0.0
C2201 C 0.6332 1.00403 0.49547 0.0
C2202 C 0.54671 0.03884 0.47938 0.0
C2203 C 0.5551 0.07881 0.51859 0.0
C2204 C 0.49258 0.0402 0.51219 0.0
C2205 C 0.48187 0.05546 0.51539 0.0
C2206 C 0.47154 0.05615 0.53089 0.0
C2207 C 0.48041 0.06813 0.50225 0.0
C2208 C 0.45733 0.08067 0.51916 0.0
C2209 C 0.46829 0.08051 0.50408 0.0
C2210 C 0.45956 0.06866 0.53284 0.0
C2211 C 0.54647 0.03591 0.54662 0.0
O2212 O 0.55544 1.00725 0.51319 0.0
O2213 O 0.52438 1.00381 0.50497 0.0
O2214 O 0.59201 0.03737 0.4986 0.0
O2215 O 0.59147 0.03596 0.52902 0.0
O2216 O 0.56342 0.04919 0.4837 0.0
O2217 O 0.54215 0.0284 0.49168 0.0
O2218 O 0.53808 0.06806 0.51374 0.0
O2219 O 0.56913 0.07085 0.52155 0.0
O2220 O 0.50103 0.03618 0.5274 0.0
O2221 O 0.50195 0.03974 0.4975 0.0
O2222 O 0.52986 0.02533 0.54221 0.0
O2223 O 0.55103 0.04652 0.53447 0.0
H2224 H 0.62013 0.02504 0.48505 0.0
H2225 H 0.60555 0.00877 0.53874 0.0
H2226 H 0.62645 0.987 0.53719 0.0
H2227 H 0.64117 1.0033 0.48356 0.0
H2228 H 0.47233 0.04659 0.5413 0.0
H2229 H 0.48815 0.06803 0.49013 0.0
H2230 H 0.46699 0.0893 0.49309 0.0
H2231 H 0.45184 0.06862 0.54496 0.0
Gd2232 Gd 0.27649 0.29245 0.76419 0.0
Gd2233 Gd 0.31588 0.28225 0.76578 0.0
C2234 C 0.30037 0.29437 0.80534 0.0
C2235 C 0.24223 0.29138 0.76753 0.0
C2236 C 0.22916 0.29262 0.78202 0.0
C2237 C 0.22018 0.30807 0.78348 0.0
C2238 C 0.22435 0.27804 0.7933 0.0
C2239 C 0.20101 0.29373 0.80614 0.0
C2240 C 0.2105 0.27862 0.80525 0.0
C2241 C 0.20637 0.30864 0.79535 0.0
C2242 C 0.30433 0.32659 0.76521 0.0
C2243 C 0.29136 0.2786 0.72436 0.0
C2244 C 0.35028 0.28662 0.76151 0.0
C2245 C 0.36275 0.28227 0.74708 0.0
C2246 C 0.37437 0.26977 0.75019 0.0
C2247 C 0.36483 0.29226 0.73141 0.0
C2248 C 0.39083 0.27867 0.72346 0.0
C2249 C 0.37863 0.29041 0.71973 0.0
C2250 C 0.38821 0.268 0.73857 0.0
C2251 C 0.28903 0.24759 0.76501 0.0
O2252 O 0.28428 0.29273 0.79545 0.0
O2253 O 0.31531 0.29313 0.79722 0.0
O2254 O 0.25444 0.30743 0.76691 0.0
O2255 O 0.24865 0.27563 0.76431 0.0
O2256 O 0.2869 0.32555 0.7633 0.0
O2257 O 0.30539 0.30894 0.76599 0.0
O2258 O 0.30678 0.27788 0.73424 0.0
O2259 O 0.27733 0.28315 0.73246 0.0
O2260 O 0.34113 0.27217 0.7689 0.0
O2261 O 0.34086 0.29955 0.75862 0.0
O2262 O 0.30658 0.24932 0.76571 0.0
O2263 O 0.28675 0.26507 0.7647 0.0
H2264 H 0.22354 0.31954 0.77501 0.0
H2265 H 0.23095 0.2659 0.79256 0.0
H2266 H 0.20676 0.26681 0.81322 0.0
H2267 H 0.19972 0.32073 0.79589 0.0
H2268 H 0.3732 0.2619 0.76211 0.0
H2269 H 0.35625 0.30212 0.72856 0.0
H2270 H 0.38029 0.29895 0.70833 0.0
H2271 H 0.39717 0.25859 0.74169 0.0
Gd2272 Gd 0.04249 0.05786 0.52382 0.0
Gd2273 Gd 0.05025 0.01751 0.50598 0.0
C2274 C 0.03346 0.04189 0.47628 0.0
C2275 C 0.04431 0.09494 0.53114 0.0
C2276 C 0.04598 0.10962 0.51855 0.0
C2277 C 0.03678 0.12473 0.52159 0.0
C2278 C 0.05544 0.10769 0.50251 0.0
C2279 C 0.04823 0.13711 0.49391 0.0
C2280 C 0.05685 0.12156 0.49047 0.0
C2281 C 0.0378 0.13836 0.50924 0.0
C2282 C 0.0124 0.02823 0.52494 0.0
C2283 C 0.05936 0.03352 0.55352 0.0
C2284 C 0.04785 0.98039 0.49829 0.0
C2285 C 0.04583 0.96548 0.51067 0.0
C2286 C 0.05832 0.95352 0.51092 0.0
C2287 C 0.03255 0.96411 0.52338 0.0
C2288 C 0.0435 0.93805 0.53531 0.0
C2289 C 0.03128 0.95029 0.53548 0.0
C2290 C 0.05722 0.93991 0.52325 0.0
C2291 C 0.08065 0.04699 0.50567 0.0
O2292 O 0.03529 0.05628 0.49134 0.0
O2293 O 0.03773 0.025 0.47834 0.0
O2294 O 0.02886 0.08165 0.52754 0.0
O2295 O 0.05855 0.0876 0.53432 0.0
O2296 O 0.0143 0.04663 0.53206 0.0
O2297 O 0.02726 0.02666 0.51846 0.0
O2298 O 0.05736 0.01902 0.5385 0.0
O2299 O 0.05522 0.05049 0.55143 0.0
O2300 O 0.06347 0.99342 0.50202 0.0
O2301 O 0.03385 0.98803 0.49496 0.0
O2302 O 0.07893 0.02857 0.4988 0.0
O2303 O 0.06559 0.04864 0.5116 0.0
H2304 H 0.02885 0.12598 0.5335 0.0
H2305 H 0.06161 0.09542 0.49921 0.0
H2306 H 0.06468 0.12016 0.47848 0.0
H2307 H 0.03095 0.15022 0.51202 0.0
H2308 H 0.06892 0.95472 0.50154 0.0
H2309 H 0.02312 0.97361 0.52393 0.0
H2310 H 0.02063 0.94895 0.54478 0.0
H2311 H 0.06666 0.93041 0.52294 0.0
Gd2312 Gd 0.31494 0.80372 0.76754 0.0
Gd2313 Gd 0.27826 0.77152 0.76177 0.0
C2314 C 0.31653 0.75578 0.76693 0.0
C2315 C 0.3465 0.82583 0.78116 0.0
C2316 C 0.36481 0.82218 0.78201 0.0
C2317 C 0.37234 0.8169 0.76514 0.0
C2318 C 0.37411 0.82204 0.79993 0.0
C2319 C 0.39769 0.81046 0.78409 0.0
C2320 C 0.3904 0.81606 0.80096 0.0
C2321 C 0.3888 0.81121 0.76621 0.0
C2322 C 0.30146 0.78672 0.73122 0.0
C2323 C 0.27695 0.81934 0.76399 0.0
C2324 C 0.24851 0.74894 0.74421 0.0
C2325 C 0.22984 0.7517 0.74335 0.0
C2326 C 0.22044 0.75209 0.75961 0.0
C2327 C 0.22205 0.7561 0.72643 0.0
C2328 C 0.19555 0.76052 0.74162 0.0
C2329 C 0.20513 0.76064 0.72563 0.0
C2330 C 0.20331 0.75648 0.75872 0.0
C2331 C 0.28583 0.79005 0.79862 0.0
O2332 O 0.32555 0.77474 0.7681 0.0
O2333 O 0.29817 0.75106 0.76483 0.0
O2334 O 0.33842 0.826 0.76411 0.0
O2335 O 0.33569 0.81618 0.7917 0.0
O2336 O 0.31021 0.80511 0.73589 0.0
O2337 O 0.30135 0.77856 0.74568 0.0
O2338 O 0.2684 0.80026 0.75807 0.0
O2339 O 0.29484 0.82408 0.77021 0.0
O2340 O 0.25597 0.74613 0.76068 0.0
O2341 O 0.25954 0.7612 0.73587 0.0
O2342 O 0.2713 0.77599 0.79251 0.0
O2343 O 0.29472 0.79281 0.78489 0.0
H2344 H 0.36537 0.81671 0.7511 0.0
H2345 H 0.36849 0.826 0.81308 0.0
H2346 H 0.39733 0.81582 0.8149 0.0
H2347 H 0.39438 0.80697 0.75311 0.0
H2348 H 0.22628 0.74909 0.77298 0.0
H2349 H 0.22917 0.75628 0.71385 0.0
H2350 H 0.19937 0.76397 0.71237 0.0
H2351 H 0.19597 0.75624 0.77114 0.0
Gd2352 Gd 0.54734 0.03417 0.03119 0.0
Gd2353 Gd 0.54015 0.04342 0.99321 0.0
C2354 C 0.5084 0.01487 0.00855 0.0
C2355 C 0.5509 0.03146 0.06643 0.0
C2356 C 0.53687 0.02002 0.0759 0.0
C2357 C 0.53658 1.0003 0.0769 0.0
C2358 C 0.52246 0.02795 0.08203 0.0
C2359 C 0.509 0.99747 0.09213 0.0
C2360 C 0.5086 0.01673 0.08998 0.0
C2361 C 0.52266 0.98907 0.08485 0.0
C2362 C 0.55049 1.0058 1.00285 0.0
C2363 C 0.58055 0.05777 0.01461 0.0
C2364 C 0.53667 0.04935 0.95886 0.0
C2365 C 0.55262 0.0577 0.95017 0.0
C2366 C 0.55221 0.07198 0.93871 0.0
C2367 C 0.56932 0.05354 0.95604 0.0
C2368 C 0.58459 0.0752 0.9366 0.0
C2369 C 0.58535 0.06318 0.95035 0.0
C2370 C 0.56813 0.08047 0.9316 0.0
C2371 C 0.53678 0.0705 0.02236 0.0
O2372 O 0.51788 0.02083 0.02565 0.0
O2373 O 0.51437 0.02072 0.99312 0.0
O2374 O 0.55813 0.02109 0.05373 0.0
O2375 O 0.54701 0.04696 0.06071 0.0
O2376 O 0.54307 1.0025 0.01812 0.0
O2377 O 0.55632 0.02397 1.00341 0.0
O2378 O 0.57037 0.05131 0.99796 0.0
O2379 O 0.57343 0.0562 0.03061 0.0
O2380 O 0.5334 0.06154 0.97312 0.0
O2381 O 0.53593 0.03171 0.96273 0.0
O2382 O 0.5458 0.07472 0.00835 0.0
O2383 O 0.53038 0.05237 0.02053 0.0
H2384 H 0.54726 0.99363 0.07183 0.0
H2385 H 0.52203 0.04295 0.08106 0.0
H2386 H 0.49841 0.02372 0.09584 0.0
H2387 H 0.52324 0.97427 0.08652 0.0
H2388 H 0.53953 0.0759 0.93467 0.0
H2389 H 0.56996 0.04223 0.96445 0.0
H2390 H 0.59791 0.05908 0.95458 0.0
H2391 H 0.56715 0.08974 0.92097 0.0
Gd2392 Gd 0.30409 0.30776 0.27341 0.0
Gd2393 Gd 0.28742 0.26771 0.25727 0.0
C2394 C 0.26036 0.29265 0.26848 0.0
C2395 C 0.31166 0.34535 0.28349 0.0
C2396 C 0.30002 0.35916 0.28286 0.0
C2397 C 0.30248 0.37508 0.29793 0.0
C2398 C 0.28567 0.35581 0.26789 0.0
C2399 C 0.27714 0.38514 0.28241 0.0
C2400 C 0.27432 0.36876 0.26764 0.0
C2401 C 0.29109 0.38803 0.29772 0.0
C2402 C 0.30436 0.28416 0.30011 0.0
C2403 C 0.33123 0.28315 0.2616 0.0
C2404 C 0.27953 0.23005 0.2478 0.0
C2405 C 0.29137 0.21638 0.24759 0.0
C2406 C 0.28836 0.20033 0.23255 0.0
C2407 C 0.30642 0.21999 0.26178 0.0
C2408 C 0.31462 0.19066 0.24665 0.0
C2409 C 0.31786 0.20715 0.26141 0.0
C2410 C 0.29997 0.18756 0.23202 0.0
C2411 C 0.28745 0.29119 0.23044 0.0
O2412 O 0.27426 0.30735 0.26783 0.0
O2413 O 0.26234 0.27463 0.26689 0.0
O2414 O 0.30788 0.33341 0.29559 0.0
O2415 O 0.31459 0.33661 0.26687 0.0
O2416 O 0.31808 0.29804 0.29818 0.0
O2417 O 0.29107 0.28309 0.28749 0.0
O2418 O 0.31734 0.26814 0.26127 0.0
O2419 O 0.32943 0.30124 0.26411 0.0
O2420 O 0.2821 0.24167 0.23525 0.0
O2421 O 0.27783 0.23913 0.26476 0.0
O2422 O 0.27364 0.27735 0.2323 0.0
O2423 O 0.30062 0.2923 0.24322 0.0
H2424 H 0.31323 0.37752 0.30979 0.0
H2425 H 0.28331 0.34331 0.2563 0.0
H2426 H 0.26376 0.36631 0.25559 0.0
H2427 H 0.29331 0.40042 0.30941 0.0
H2428 H 0.27703 0.19768 0.22126 0.0
H2429 H 0.30921 0.23258 0.27333 0.0
H2430 H 0.32883 0.20983 0.27308 0.0
H2431 H 0.29737 0.17518 0.22028 0.0
Gd2432 Gd 0.54236 0.55821 0.02383 0.0
Gd2433 Gd 0.55024 0.5175 0.00669 0.0
C2434 C 0.53389 0.54169 0.97642 0.0
C2435 C 0.54424 0.59534 0.03075 0.0
C2436 C 0.54605 0.61002 0.01809 0.0
C2437 C 0.5354 0.62391 0.01974 0.0
C2438 C 0.5572 0.60933 1.00334 0.0
C2439 C 0.54862 0.63766 0.99344 0.0
C2440 C 0.5587 0.62322 0.9913 0.0
C2441 C 0.5366 0.6376 0.00743 0.0
C2442 C 0.51197 0.52852 0.02401 0.0
C2443 C 0.55912 0.53408 0.05411 0.0
C2444 C 0.54796 0.48033 0.99909 0.0
C2445 C 0.54648 0.4654 0.01143 0.0
C2446 C 0.55866 0.45306 0.01087 0.0
C2447 C 0.53384 0.46425 0.02476 0.0
C2448 C 0.54452 0.43766 0.0357 0.0
C2449 C 0.53274 0.45036 0.03671 0.0
C2450 C 0.55773 0.43925 0.02302 0.0
C2451 C 0.58064 0.54687 0.00611 0.0
O2452 O 0.53633 0.55655 0.99118 0.0
O2453 O 0.53741 0.52457 0.97895 0.0
O2454 O 0.52877 0.58207 0.02716 0.0
O2455 O 0.55843 0.58799 0.03424 0.0
O2456 O 0.51326 0.54699 0.03022 0.0
O2457 O 0.52724 0.52713 0.01852 0.0
O2458 O 0.55775 0.5196 0.03922 0.0
O2459 O 0.5544 0.55076 0.05186 0.0
O2460 O 0.56352 0.49345 1.00235 0.0
O2461 O 0.5338 0.48791 0.99638 0.0
O2462 O 0.57878 0.52842 0.9993 0.0
O2463 O 0.56556 0.54871 0.01195 0.0
H2464 H 0.5262 0.62419 0.03058 0.0
H2465 H 0.56463 0.59801 1.00099 0.0
H2466 H 0.56774 0.62269 0.98032 0.0
H2467 H 0.52859 0.64852 0.00927 0.0
H2468 H 0.5688 0.45404 1.00097 0.0
H2469 H 0.52473 0.47395 0.02581 0.0
H2470 H 0.52248 0.44925 0.04649 0.0
H2471 H 0.56684 0.4294 0.02208 0.0
Gd2472 Gd 0.81299 0.3021 0.26563 0.0
Gd2473 Gd 0.77965 0.27176 0.26405 0.0
C2474 C 0.81643 0.25511 0.26659 0.0
C2475 C 0.84506 0.32428 0.27604 0.0
C2476 C 0.8629 0.31937 0.27799 0.0
C2477 C 0.87346 0.31983 0.26271 0.0
C2478 C 0.869 0.31296 0.29461 0.0
C2479 C 0.89604 0.30797 0.28075 0.0
C2480 C 0.88543 0.30726 0.29595 0.0
C2481 C 0.88987 0.31409 0.26405 0.0
C2482 C 0.79841 0.28397 0.23004 0.0
C2483 C 0.77609 0.31873 0.2627 0.0
C2484 C 0.74748 0.24992 0.25386 0.0
C2485 C 0.72981 0.25523 0.25226 0.0
C2486 C 0.7195 0.2553 0.26778 0.0
C2487 C 0.72355 0.2613 0.23549 0.0
C2488 C 0.69676 0.26654 0.24949 0.0
C2489 C 0.70714 0.267 0.23417 0.0
C2490 C 0.70298 0.26087 0.26635 0.0
C2491 C 0.79451 0.28982 0.2996 0.0
O2492 O 0.82473 0.27441 0.27025 0.0
O2493 O 0.79836 0.25008 0.26204 0.0
O2494 O 0.83681 0.3214 0.25849 0.0
O2495 O 0.83406 0.3184 0.28835 0.0
O2496 O 0.80548 0.30278 0.23431 0.0
O2497 O 0.80004 0.27599 0.24444 0.0
O2498 O 0.76773 0.29951 0.26031 0.0
O2499 O 0.79426 0.32374 0.2661 0.0
O2500 O 0.75591 0.25235 0.27129 0.0
O2501 O 0.75837 0.25585 0.24147 0.0
O2502 O 0.78752 0.27098 0.29528 0.0
O2503 O 0.79264 0.29783 0.28524 0.0
H2504 H 0.86903 0.32457 0.24968 0.0
H2505 H 0.86113 0.31237 0.30662 0.0
H2506 H 0.89011 0.30292 0.30912 0.0
H2507 H 0.89786 0.31466 0.25213 0.0
H2508 H 0.72405 0.25081 0.2809 0.0
H2509 H 0.73117 0.26144 0.22329 0.0
H2510 H 0.70213 0.27089 0.22088 0.0
H2511 H 0.69475 0.2601 0.27808 0.0
Gd2512 Gd 0.05233 0.53752 0.53746 0.0
Gd2513 Gd 0.04183 0.53731 0.49595 0.0
C2514 C 0.01224 0.5132 0.51523 0.0
C2515 C 0.04904 0.53536 0.57233 0.0
C2516 C 0.03386 0.52226 0.57893 0.0
C2517 C 0.0328 0.50196 0.57709 0.0
C2518 C 0.01937 0.5297 0.58543 0.0
C2519 C 1.00463 0.49753 0.59135 0.0
C2520 C 1.0048 0.51741 0.59144 0.0
C2521 C 0.01823 0.48967 0.5832 0.0
C2522 C 0.06333 0.5109 0.51334 0.0
C2523 C 0.08171 0.5625 0.51924 0.0
C2524 C 0.04417 0.53864 0.46063 0.0
C2525 C 0.05847 0.55144 0.45255 0.0
C2526 C 0.05715 0.57051 0.45045 0.0
C2527 C 0.07416 0.54518 0.44805 0.0
C2528 C 0.08577 0.57572 0.43695 0.0
C2529 C 0.0877 0.55721 0.44039 0.0
C2530 C 0.07077 0.58261 0.44284 0.0
C2531 C 0.03018 0.56344 0.51974 0.0
O2532 O 0.02265 0.52262 0.53123 0.0
O2533 O 0.01768 0.51408 0.49827 0.0
O2534 O 0.06013 0.52677 0.563 0.0
O2535 O 0.04464 0.5495 0.56448 0.0
O2536 O 0.07318 0.52079 0.52907 0.0
O2537 O 0.04793 0.51481 0.51151 0.0
O2538 O 0.07174 0.55297 0.50292 0.0
O2539 O 0.0759 0.56137 0.53594 0.0
O2540 O 0.03351 0.54754 0.47032 0.0
O2541 O 0.04929 0.52507 0.4689 0.0
O2542 O 0.0206 0.55354 0.50386 0.0
O2543 O 0.04575 0.55988 0.52179 0.0
H2544 H 0.04345 0.49561 0.57147 0.0
H2545 H 0.01954 0.54515 0.58643 0.0
H2546 H 0.99459 0.52397 0.59785 0.0
H2547 H 0.01835 0.47438 0.58302 0.0
H2548 H 0.0454 0.57596 0.45423 0.0
H2549 H 0.07577 0.53073 0.44989 0.0
H2550 H 0.09894 0.55125 0.43577 0.0
H2551 H 0.06902 0.59685 0.44047 0.0
Gd2552 Gd 0.77626 0.79215 0.26351 0.0
Gd2553 Gd 0.8151 0.7812 0.26521 0.0
C2554 C 0.79956 0.79347 0.30494 0.0
C2555 C 0.74195 0.79097 0.2666 0.0
C2556 C 0.729 0.79231 0.28122 0.0
C2557 C 0.72085 0.80838 0.28359 0.0
C2558 C 0.72347 0.77721 0.29174 0.0
C2559 C 0.70102 0.7937 0.30563 0.0
C2560 C 0.70968 0.77788 0.30372 0.0
C2561 C 0.70723 0.80916 0.29568 0.0
C2562 C 0.80369 0.82617 0.26346 0.0
C2563 C 0.79119 0.77857 0.22378 0.0
C2564 C 0.84957 0.78343 0.26209 0.0
C2565 C 0.86241 0.78205 0.24732 0.0
C2566 C 0.87117 0.76642 0.24521 0.0
C2567 C 0.86738 0.79702 0.23653 0.0
C2568 C 0.89061 0.78155 0.22308 0.0
C2569 C 0.88116 0.79672 0.22454 0.0
C2570 C 0.88503 0.76615 0.23329 0.0
C2571 C 0.78767 0.74713 0.26482 0.0
O2572 O 0.78402 0.79352 0.29488 0.0
O2573 O 0.81418 0.79061 0.29691 0.0
O2574 O 0.7541 0.807 0.26581 0.0
O2575 O 0.74842 0.77525 0.2635 0.0
O2576 O 0.78622 0.82482 0.2623 0.0
O2577 O 0.80543 0.80865 0.26432 0.0
O2578 O 0.80677 0.77826 0.23364 0.0
O2579 O 0.77699 0.78259 0.23186 0.0
O2580 O 0.83805 0.76729 0.26389 0.0
O2581 O 0.84242 0.79871 0.26432 0.0
O2582 O 0.80508 0.74824 0.26531 0.0
O2583 O 0.78595 0.76474 0.26449 0.0
H2584 H 0.72476 0.82027 0.27572 0.0
H2585 H 0.72942 0.76458 0.29032 0.0
H2586 H 0.70538 0.76555 0.3109 0.0
H2587 H 0.70148 0.82192 0.29701 0.0
H2588 H 0.86775 0.75467 0.25335 0.0
H2589 H 0.86094 0.80929 0.23767 0.0
H2590 H 0.88457 0.80861 0.2166 0.0
H2591 H 0.89188 0.75424 0.23279 0.0
Gd2592 Gd 0.80279 0.28516 0.74585 0.0
Gd2593 Gd 0.78468 0.29032 0.78411 0.0
C2594 C 0.80728 0.32773 0.77207 0.0
C2595 C 0.81181 0.28732 0.71251 0.0
C2596 C 0.82621 0.30187 0.70675 0.0
C2597 C 0.83752 0.29567 0.69379 0.0
C2598 C 0.82795 0.32208 0.71305 0.0
C2599 C 0.84671 0.32893 0.68814 0.0
C2600 C 0.83838 0.33567 0.70383 0.0
C2601 C 0.8481 0.30934 0.6847 0.0
C2602 C 0.82841 0.28533 0.77612 0.0
C2603 C 0.7795 0.2476 0.75775 0.0
C2604 C 0.77625 0.28811 0.81768 0.0
C2605 C 0.76344 0.27259 0.82416 0.0
C2606 C 0.75012 0.27738 0.8352 0.0
C2607 C 0.76487 0.253 0.82002 0.0
C2608 C 0.74405 0.24469 0.84296 0.0
C2609 C 0.75522 0.23908 0.82941 0.0
C2610 C 0.74016 0.26331 0.84432 0.0
C2611 C 0.75996 0.29072 0.7532 0.0
O2612 O 0.80735 0.31739 0.75502 0.0
O2613 O 0.80139 0.32038 0.78678 0.0
O2614 O 0.81738 0.27547 0.7228 0.0
O2615 O 0.798 0.29385 0.71855 0.0
O2616 O 0.83091 0.28399 0.75827 0.0
O2617 O 0.81205 0.28714 0.77706 0.0
O2618 O 0.77832 0.25804 0.77442 0.0
O2619 O 0.78701 0.25471 0.74362 0.0
O2620 O 0.76894 0.29833 0.80674 0.0
O2621 O 0.79093 0.28337 0.8119 0.0
O2622 O 0.7571 0.2937 0.77098 0.0
O2623 O 0.77607 0.2883 0.7533 0.0
H2624 H 0.83685 0.28017 0.68936 0.0
H2625 H 0.81987 0.32731 0.72364 0.0
H2626 H 0.83725 0.35081 0.70668 0.0
H2627 H 0.85464 0.30402 0.67267 0.0
H2628 H 0.74837 0.29228 0.83788 0.0
H2629 H 0.77452 0.24872 0.81081 0.0
H2630 H 0.7584 0.22479 0.82787 0.0
H2631 H 0.73122 0.26774 0.85435 0.0
Gd2632 Gd 0.80474 0.81125 0.7726 0.0
Gd2633 Gd 0.78722 0.76424 0.75765 0.0
C2634 C 0.76119 0.79197 0.77081 0.0
C2635 C 0.81206 0.84838 0.77397 0.0
C2636 C 0.7999 0.86182 0.77573 0.0
C2637 C 0.80235 0.87606 0.7924 0.0
C2638 C 0.78498 0.85959 0.76165 0.0
C2639 C 0.776 0.8867 0.78022 0.0
C2640 C 0.77318 0.87202 0.76383 0.0
C2641 C 0.79041 0.88836 0.79468 0.0
C2642 C 0.8036 0.79071 0.80238 0.0
C2643 C 0.8307 0.7834 0.7589 0.0
C2644 C 0.77942 0.72719 0.75656 0.0
C2645 C 0.79117 0.7136 0.75311 0.0
C2646 C 0.78518 0.69671 0.73898 0.0
C2647 C 0.80884 0.71799 0.76319 0.0
C2648 C 0.81357 0.68751 0.74657 0.0
C2649 C 0.81991 0.70495 0.76003 0.0
C2650 C 0.79637 0.68371 0.73566 0.0
C2651 C 0.78931 0.78485 0.72791 0.0
O2652 O 0.7745 0.80797 0.77205 0.0
O2653 O 0.76294 0.77375 0.76682 0.0
O2654 O 0.81473 0.84051 0.78915 0.0
O2655 O 0.80956 0.83589 0.75774 0.0
O2656 O 0.81077 0.80941 0.80418 0.0
O2657 O 0.79822 0.78439 0.78471 0.0
O2658 O 0.81729 0.76745 0.75746 0.0
O2659 O 0.82918 0.80168 0.76354 0.0
O2660 O 0.77499 0.73494 0.74178 0.0
O2661 O 0.784 0.73986 0.77269 0.0
O2662 O 0.78337 0.7659 0.72572 0.0
O2663 O 0.7933 0.79113 0.74575 0.0
H2664 H 0.81349 0.87765 0.80365 0.0
H2665 H 0.78246 0.8484 0.74885 0.0
H2666 H 0.76229 0.87058 0.75234 0.0
H2667 H 0.79266 0.89943 0.80756 0.0
H2668 H 0.7718 0.69347 0.73071 0.0
H2669 H 0.81401 0.73127 0.77382 0.0
H2670 H 0.83304 0.70811 0.76881 0.0
H2671 H 0.79139 0.67043 0.72501 0.0
Gd2672 Gd 0.52742 0.52745 0.50377 0.0
Gd2673 Gd 0.56377 0.54632 0.52521 0.0
C2674 C 0.54242 0.57483 0.50762 0.0
C2675 C 0.49246 0.51766 0.49407 0.0
C2676 C 0.47782 0.52821 0.49537 0.0
C2677 C 0.46519 0.52598 0.47908 0.0
C2678 C 0.477 0.54147 0.51197 0.0
C2679 C 0.45027 0.54917 0.49617 0.0
C2680 C 0.46325 0.5518 0.5124 0.0
C2681 C 0.45159 0.53641 0.47943 0.0
C2682 C 0.55135 0.52484 0.47617 0.0
C2683 C 0.54868 0.49893 0.52139 0.0
C2684 C 0.5987 0.55676 0.53507 0.0
C2685 C 0.61357 0.54668 0.53384 0.0
C2686 C 0.62867 0.55288 0.54805 0.0
C2687 C 0.6122 0.52999 0.51975 0.0
C2688 C 0.64162 0.52661 0.53355 0.0
C2689 C 0.6262 0.52003 0.51958 0.0
C2690 C 0.64259 0.54291 0.54794 0.0
C2691 C 0.53994 0.54881 0.55289 0.0
O2692 O 0.52827 0.55954 0.50415 0.0
O2693 O 0.55855 0.57333 0.51498 0.0
O2694 O 0.50411 0.5234 0.48245 0.0
O2695 O 0.50025 0.51436 0.51003 0.0
O2696 O 0.53401 0.51698 0.47392 0.0
O2697 O 0.55581 0.53266 0.49407 0.0
O2698 O 0.56298 0.5141 0.52463 0.0
O2699 O 0.53253 0.50059 0.51429 0.0
O2700 O 0.58708 0.55057 0.54655 0.0
O2701 O 0.59084 0.55973 0.51899 0.0
O2702 O 0.55731 0.55645 0.55512 0.0
O2703 O 0.53539 0.54102 0.53498 0.0
H2704 H 0.46591 0.5162 0.46599 0.0
H2705 H 0.48691 0.54381 0.52459 0.0
H2706 H 0.46254 0.56148 0.52555 0.0
H2707 H 0.44208 0.53443 0.46656 0.0
H2708 H 0.62964 0.56538 0.55932 0.0
H2709 H 0.60036 0.52472 0.50893 0.0
H2710 H 0.62518 0.50751 0.5083 0.0
H2711 H 0.65415 0.548 0.5591 0.0
Gd2712 Gd 0.06761 0.53874 0.01284 0.0
Gd2713 Gd 0.02583 0.5357 0.01641 0.0
C2714 C 0.03837 0.49575 0.00824 0.0
C2715 C 0.10076 0.53408 0.01591 0.0
C2716 C 0.11147 0.51879 0.01279 0.0
C2717 C 0.12251 0.51867 0.99787 0.0
C2718 C 0.11227 0.50557 0.02555 0.0
C2719 C 0.13601 0.49362 0.00941 0.0
C2720 C 0.12436 0.49312 0.02385 0.0
C2721 C 0.13457 0.50624 0.99617 0.0
C2722 C 0.04664 0.53971 0.98124 0.0
C2723 C 0.05519 0.57873 0.02111 0.0
C2724 C 0.99257 0.54003 0.01371 0.0
C2725 C 0.98164 0.55513 0.01661 0.0
C2726 C 0.97121 0.55596 0.03204 0.0
C2727 C 0.97989 0.56732 1.00303 0.0
C2728 C 0.95677 0.57993 0.01963 0.0
C2729 C 0.96757 0.57949 1.00448 0.0
C2730 C 0.95899 0.56824 0.03357 0.0
C2731 C 0.04707 0.53503 0.04806 0.0
O2732 O 0.05544 0.50648 0.01197 0.0
O2733 O 0.02408 0.50362 0.00688 0.0
O2734 O 0.0929 0.53862 1.00064 0.0
O2735 O 0.09087 0.53416 0.03019 0.0
O2736 O 0.06377 0.54881 0.98472 0.0
O2737 O 0.04197 0.52899 0.99329 0.0
O2738 O 0.03804 0.56816 0.01786 0.0
O2739 O 0.06948 0.57084 0.02208 0.0
O2740 O 1.00074 0.53589 0.02904 0.0
O2741 O 1.00226 0.53978 0.99926 0.0
O2742 O 0.03015 0.52515 0.04428 0.0
O2743 O 0.05139 0.54563 0.03582 0.0
H2744 H 0.12226 0.52866 0.9878 0.0
H2745 H 0.10402 0.50527 0.03725 0.0
H2746 H 0.12512 0.48373 0.0344 0.0
H2747 H 0.14303 0.5068 0.98464 0.0
H2748 H 0.97208 0.54665 0.04267 0.0
H2749 H 0.98758 0.56699 0.99087 0.0
H2750 H 0.96598 0.58799 0.9933 0.0
H2751 H 0.95102 0.56832 0.04552 0.0
H2752 H 1.00613 0.15905 0.94536 0.0
H2753 H 0.04642 0.19719 0.9899 0.0
H2754 H 0.01143 0.13062 0.95787 0.0
H2755 H 0.05139 0.16863 1.00298 0.0
H2756 H 0.06731 0.1111 0.01261 0.0
H2757 H 0.06318 0.14078 1.00098 0.0
H2758 H 1.0065 0.11211 0.98104 0.0
H2759 H 0.01089 0.08258 0.99179 0.0
C2760 C 0.01592 0.16145 0.95808 0.0
C2761 C 0.02568 0.18061 0.96659 0.0
C2762 C 0.01897 0.145 0.96539 0.0
C2763 C 0.03174 0.147 0.98175 0.0
C2764 C 0.04159 0.16621 0.99028 0.0
C2765 C 0.03867 0.18272 0.98278 0.0
C2766 C 0.05396 0.11121 0.00579 0.0
C2767 C 0.03946 0.09431 1.00318 0.0
C2768 C 0.05153 0.12834 0.99914 0.0
C2769 C 0.0345 0.12909 0.98972 0.0
C2770 C 0.01998 0.11225 0.98765 0.0
C2771 C 0.02244 0.09521 0.99412 0.0
H2772 H 0.18575 0.8265 0.17281 0.0
H2773 H 0.15451 0.77107 0.183 0.0
H2774 H 0.21253 0.82218 0.19189 0.0
H2775 H 0.18131 0.76611 0.20086 0.0
H2776 H 0.22704 0.76645 0.24617 0.0
H2777 H 0.2009 0.77249 0.228 0.0
H2778 H 0.23705 0.80812 0.19637 0.0
H2779 H 0.26347 0.80286 0.21573 0.0
C2780 C 0.18446 0.81335 0.17907 0.0
C2781 C 0.16758 0.79918 0.17606 0.0
C2782 C 0.20009 0.81069 0.18992 0.0
C2783 C 0.19959 0.79372 0.19828 0.0
C2784 C 0.18266 0.77961 0.19521 0.0
C2785 C 0.16708 0.78232 0.1845 0.0
C2786 C 0.22953 0.77554 0.2353 0.0
C2787 C 0.2476 0.78398 0.23246 0.0
C2788 C 0.21432 0.77895 0.22459 0.0
C2789 C 0.21634 0.79066 0.21016 0.0
C2790 C 0.23452 0.79916 0.20732 0.0
C2791 C 0.24984 0.796 0.21836 0.0
H2792 H 0.54911 0.88206 0.45895 0.0
H2793 H 0.5115 0.86787 0.49994 0.0
H2794 H 0.55104 0.91679 0.46928 0.0
H2795 H 0.51346 0.90297 0.51035 0.0
H2796 H 0.50712 0.96674 0.50444 0.0
H2797 H 0.50461 0.93114 0.49724 0.0
H2798 H 0.56314 0.94206 0.49736 0.0
H2799 H 0.56565 0.97704 0.50413 0.0
C2800 C 0.54155 0.88637 0.47047 0.0
C2801 C 0.53029 0.8722 0.47874 0.0
C2802 C 0.54258 0.9063 0.47633 0.0
C2803 C 0.53242 0.91259 0.49065 0.0
C2804 C 0.52127 0.8985 0.49912 0.0
C2805 C 0.52023 0.87846 0.49323 0.0
C2806 C 0.51939 0.96144 0.50294 0.0
C2807 C 0.53653 0.97469 0.50474 0.0
C2808 C 0.51799 0.94112 0.49898 0.0
C2809 C 0.53368 0.93386 0.49656 0.0
C2810 C 0.55078 0.94718 0.49885 0.0
C2811 C 0.55219 0.96729 0.50288 0.0
H2812 H 0.47176 0.26451 0.64296 0.0
H2813 H 0.49899 0.31208 0.68894 0.0
H2814 H 0.44391 0.26037 0.65875 0.0
H2815 H 0.47129 0.30802 0.7046 0.0
H2816 H 0.4262 0.28168 0.7381 0.0
H2817 H 0.45309 0.28371 0.72124 0.0
H2818 H 0.41941 0.27831 0.6675 0.0
H2819 H 0.39232 0.27617 0.68446 0.0
C2820 C 0.47184 0.27404 0.65646 0.0
C2821 C 0.48768 0.28865 0.66466 0.0
C2822 C 0.45583 0.27176 0.66543 0.0
C2823 C 0.45533 0.28381 0.68302 0.0
C2824 C 0.47119 0.29834 0.69119 0.0
C2825 C 0.48706 0.30079 0.68211 0.0
C2826 C 0.42444 0.28067 0.72266 0.0
C2827 C 0.40703 0.27874 0.71268 0.0
C2828 C 0.43992 0.28204 0.71299 0.0
C2829 C 0.43851 0.28132 0.693 0.0
C2830 C 0.42103 0.27885 0.68289 0.0
C2831 C 0.40551 0.27776 0.69263 0.0
H2832 H 0.99294 0.84142 0.58684 0.0
H2833 H 0.05066 0.84768 0.60366 0.0
H2834 H 1.00005 0.86977 0.57157 0.0
H2835 H 0.05785 0.8745 0.58609 0.0
H2836 H 0.06461 0.93393 0.56683 0.0
H2837 H 0.05846 0.90706 0.58506 0.0
H2838 H 0.01038 0.87839 0.54431 0.0
H2839 H 0.01593 0.90592 0.52737 0.0
C2840 C 0.00717 0.84878 0.58729 0.0
C2841 C 0.02118 0.84215 0.59654 0.0
C2842 C 0.0113 0.86485 0.57809 0.0
C2843 C 0.02956 0.87429 0.57724 0.0
C2844 C 0.04362 0.86775 0.58656 0.0
C2845 C 0.03947 0.85204 0.59633 0.0
C2846 C 0.0527 0.92184 0.56206 0.0
C2847 C 0.04054 0.92186 0.54603 0.0
C2848 C 0.04923 0.90639 0.57231 0.0
C2849 C 0.03375 0.89061 0.56633 0.0
C2850 C 0.02205 0.89055 0.54979 0.0
C2851 C 0.02528 0.90617 0.53993 0.0
H2852 H 0.49176 0.79408 0.84247 0.0
H2853 H 0.51095 0.80311 0.78836 0.0
H2854 H 0.46069 0.79172 0.82876 0.0
H2855 H 0.4795 0.79974 0.77405 0.0
H2856 H 0.42859 0.82642 0.77026 0.0
H2857 H 0.45862 0.82013 0.77722 0.0
H2858 H 0.43495 0.77375 0.80716 0.0
H2859 H 0.4051 0.78094 0.80097 0.0
C2860 C 0.48913 0.7949 0.82741 0.0
C2861 C 0.5035 0.79866 0.81634 0.0
C2862 C 0.47135 0.79342 0.81949 0.0
C2863 C 0.46763 0.79539 0.80026 0.0
C2864 C 0.48201 0.79834 0.78896 0.0
C2865 C 0.4999 0.80018 0.79703 0.0
C2866 C 0.42987 0.81465 0.77798 0.0
C2867 C 0.41486 0.80431 0.78537 0.0
C2868 C 0.44698 0.81091 0.78185 0.0
C2869 C 0.44916 0.79657 0.79292 0.0
C2870 C 0.43373 0.78518 0.79896 0.0
C2871 C 0.41671 0.7892 0.7954 0.0
H2872 H 0.51011 0.17779 0.06621 0.0
H2873 H 0.4873 0.13975 0.10434 0.0
H2874 H 0.51903 0.15049 0.04725 0.0
H2875 H 0.49677 0.11237 0.08588 0.0
H2876 H 0.50511 0.06487 0.03799 0.0
H2877 H 0.49271 0.09027 0.05564 0.0
H2878 H 0.54243 0.13362 0.05335 0.0
H2879 H 0.55425 0.10838 0.03475 0.0
C2880 C 0.50674 0.16338 0.07019 0.0
C2881 C 0.49802 0.16049 0.0864 0.0
C2882 C 0.51202 0.14789 0.05961 0.0
C2883 C 0.50888 0.12947 0.06537 0.0
C2884 C 0.49929 0.12642 0.08112 0.0
C2885 C 0.49389 0.14194 0.09164 0.0
C2886 C 0.51337 0.07984 0.04147 0.0
C2887 C 0.53048 0.08496 0.03503 0.0
C2888 C 0.50631 0.09431 0.05153 0.0
C2889 C 0.51649 0.11391 0.05553 0.0
C2890 C 0.53406 0.11871 0.0499 0.0
C2891 C 0.54092 0.10433 0.0395 0.0
H2892 H 0.15128 0.29417 0.29806 0.0
H2893 H 0.19101 0.33473 0.34166 0.0
H2894 H 0.17568 0.28914 0.27888 0.0
H2895 H 0.21536 0.32959 0.32269 0.0
H2896 H 0.25367 0.32855 0.27924 0.0
H2897 H 0.22682 0.33553 0.29242 0.0
H2898 H 0.20146 0.27327 0.28266 0.0
H2899 H 0.22824 0.26623 0.26903 0.0
C2900 C 0.16523 0.30207 0.30343 0.0
C2901 C 0.16939 0.31483 0.32125 0.0
C2902 C 0.17912 0.29918 0.29251 0.0
C2903 C 0.19731 0.30903 0.29932 0.0
C2904 C 0.20137 0.32213 0.31695 0.0
C2905 C 0.1875 0.32506 0.32781 0.0
C2906 C 0.2422 0.31637 0.27943 0.0
C2907 C 0.24304 0.29685 0.27322 0.0
C2908 C 0.22691 0.32037 0.28713 0.0
C2909 C 0.21222 0.30493 0.28869 0.0
C2910 C 0.21259 0.28545 0.28146 0.0
C2911 C 0.22793 0.28143 0.27376 0.0
H2912 H 0.99975 0.03594 0.16771 0.0
H2913 H 0.97103 0.0762 0.14689 0.0
H2914 H 0.01393 0.03292 0.13812 0.0
H2915 H 0.98529 0.07316 0.11723 0.0
H2916 H 1.00319 0.05108 0.05672 0.0
H2917 H 0.98797 0.05388 0.08605 0.0
H2918 H 0.0361 0.04735 0.11906 0.0
H2919 H 0.05123 0.04512 0.09007 0.0
C2920 C 0.99623 0.04418 0.15693 0.0
C2921 C 0.98382 0.05636 0.16048 0.0
C2922 C 1.00466 0.04254 0.13965 0.0
C2923 C 1.00108 0.05268 0.1245 0.0
C2924 C 0.98861 0.06478 0.12797 0.0
C2925 C 0.9804 0.06669 0.14542 0.0
C2926 C 0.01052 0.05002 0.07015 0.0
C2927 C 0.02865 0.04761 0.07044 0.0
C2928 C 1.00176 0.05184 0.0873 0.0
C2929 C 0.01043 0.05083 0.10565 0.0
C2930 C 0.02845 0.04807 0.10569 0.0
C2931 C 0.03731 0.0468 0.08875 0.0
H2932 H 0.30066 0.71094 0.43449 0.0
H2933 H 0.24397 0.68951 0.44168 0.0
H2934 H 0.29113 0.72091 0.40451 0.0
H2935 H 0.23447 0.69978 0.41188 0.0
H2936 H 0.22938 0.70787 0.34694 0.0
H2937 H 0.23739 0.69306 0.37471 0.0
H2938 H 0.27423 0.74839 0.40145 0.0
H2939 H 0.26627 0.763 0.37418 0.0
C2940 C 0.28621 0.70822 0.4295 0.0
C2941 C 0.27301 0.69986 0.44036 0.0
C2942 C 0.28078 0.71389 0.41249 0.0
C2943 C 0.26212 0.71112 0.40617 0.0
C2944 C 0.24891 0.7019 0.41655 0.0
C2945 C 0.25434 0.69632 0.43361 0.0
C2946 C 0.23886 0.7168 0.35901 0.0
C2947 C 0.24688 0.73657 0.35883 0.0
C2948 C 0.24351 0.7084 0.37468 0.0
C2949 C 0.25653 0.71965 0.38988 0.0
C2950 C 0.26431 0.73945 0.38972 0.0
C2951 C 0.25951 0.74785 0.37433 0.0
H2952 H 0.61925 0.01642 0.63741 0.0
H2953 H 0.59676 0.064 0.66279 0.0
H2954 H 0.60157 0.01498 0.60662 0.0
H2955 H 0.57927 0.0627 0.63182 0.0
H2956 H 0.57011 0.06773 0.56779 0.0
H2957 H 0.58834 0.06908 0.59841 0.0
H2958 H 0.56702 1.00655 0.59459 0.0
H2959 H 0.54852 1.00533 0.56418 0.0
C2960 C 0.61036 0.02639 0.63639 0.0
C2961 C 0.60922 0.04027 0.6523 0.0
C2962 C 0.60039 0.02562 0.61886 0.0
C2963 C 0.58926 0.03877 0.61709 0.0
C2964 C 0.58802 0.05261 0.63298 0.0
C2965 C 0.59794 0.05333 0.65057 0.0
C2966 C 0.56947 0.05434 0.57356 0.0
C2967 C 0.55799 0.03646 0.56408 0.0
C2968 C 0.57972 0.05513 0.59097 0.0
C2969 C 0.57883 0.03793 0.59865 0.0
C2970 C 0.56779 0.01994 0.58878 0.0
C2971 C 0.55723 0.01925 0.5716 0.0
H2972 H 0.28196 0.29537 0.92572 0.0
H2973 H 0.30999 0.35448 0.92236 0.0
H2974 H 0.28429 0.28478 0.89167 0.0
H2975 H 0.31188 0.34428 0.88828 0.0
H2976 H 0.32818 0.31711 0.83237 0.0
H2977 H 0.32721 0.3254 0.86701 0.0
H2978 H 0.27272 0.28787 0.86018 0.0
H2979 H 0.27387 0.2795 0.82588 0.0
C2980 C 0.28839 0.3061 0.91755 0.0
C2981 C 0.29575 0.32569 0.92649 0.0
C2982 C 0.28975 0.3001 0.89809 0.0
C2983 C 0.29844 0.31364 0.8872 0.0
C2984 C 0.30549 0.33335 0.89625 0.0
C2985 C 0.30423 0.33927 0.91568 0.0
C2986 C 0.31618 0.3104 0.83841 0.0
C2987 C 0.30109 0.29773 0.82648 0.0
C2988 C 0.3155 0.3153 0.85819 0.0
C2989 C 0.2998 0.30744 0.86642 0.0
C2990 C 0.28506 0.29412 0.85446 0.0
C2991 C 0.28568 0.28942 0.83475 0.0
H2992 H 1.00599 0.04323 0.35095 0.0
H2993 H 0.97194 0.07686 0.37947 0.0
H2994 H 0.01929 0.03863 0.38187 0.0
H2995 H 0.98496 0.07202 0.41038 0.0
H2996 H 0.01876 0.07227 0.46703 0.0
H2997 H 1.00685 0.07776 0.43596 0.0
H2998 H 0.01898 0.02412 0.40864 0.0
H2999 H 0.03132 0.01898 0.43993 0.0
C3000 C 1.00108 0.04957 0.36372 0.0
C3001 C 0.98753 0.06043 0.36207 0.0
C3002 C 0.00882 0.04684 0.3818 0.0
C3003 C 1.00343 0.05473 0.39935 0.0
C3004 C 0.99003 0.06578 0.39768 0.0
C3005 C 0.98238 0.06861 0.37961 0.0
C3006 C 0.01898 0.06158 0.45445 0.0
C3007 C 0.02613 0.04508 0.45647 0.0
C3008 C 0.01188 0.06467 0.43631 0.0
C3009 C 0.01153 0.05144 0.41906 0.0
C3010 C 0.01891 0.03499 0.42111 0.0
C3011 C 0.02597 0.03187 0.43933 0.0
H3012 H 0.30622 0.73691 0.61372 0.0
H3013 H 0.25919 0.69794 0.62905 0.0
H3014 H 0.30984 0.758 0.64478 0.0
H3015 H 0.26179 0.72006 0.65934 0.0
H3016 H 0.28707 0.74756 0.72068 0.0
H3017 H 0.28085 0.72814 0.68863 0.0
H3018 H 0.29853 0.78093 0.66501 0.0
H3019 H 0.3052 0.80039 0.69748 0.0
C3020 C 0.29656 0.73286 0.62362 0.0
C3021 C 0.28261 0.71544 0.61892 0.0
C3022 C 0.29843 0.74522 0.64134 0.0
C3023 C 0.28618 0.74071 0.65467 0.0
C3024 C 0.27171 0.7238 0.6496 0.0
C3025 C 0.27005 0.71123 0.63203 0.0
C3026 C 0.28939 0.75508 0.70863 0.0
C3027 C 0.29647 0.77551 0.71152 0.0
C3028 C 0.28573 0.74393 0.69019 0.0
C3029 C 0.28907 0.75294 0.67415 0.0
C3030 C 0.29594 0.77348 0.67705 0.0
C3031 C 0.29963 0.78467 0.69559 0.0
H3032 H 0.59656 0.07505 0.82384 0.0
H3033 H 0.63092 0.03623 0.83652 0.0
H3034 H 0.59456 0.08396 0.85805 0.0
H3035 H 0.63005 0.04595 0.87054 0.0
H3036 H 0.59837 0.04498 0.92218 0.0
H3037 H 0.60896 0.04048 0.89172 0.0
H3038 H 0.61159 0.10145 0.88814 0.0
H3039 H 0.59982 0.10585 0.91913 0.0
C3040 C 0.60341 0.06828 0.83403 0.0
C3041 C 0.61347 0.05467 0.82783 0.0
C3042 C 0.60274 0.07373 0.85353 0.0
C3043 C 0.61246 0.06591 0.86693 0.0
C3044 C 0.62233 0.05211 0.86053 0.0
C3045 C 0.62262 0.04633 0.8411 0.0
C3046 C 0.60206 0.05785 0.91557 0.0
C3047 C 0.59801 0.07578 0.92292 0.0
C3048 C 0.60813 0.05518 0.89787 0.0
C3049 C 0.61072 0.07051 0.88738 0.0
C3050 C 0.60913 0.08925 0.89583 0.0
C3051 C 0.60268 0.09187 0.91357 0.0
H3052 H 0.2725 0.31123 0.11101 0.0
H3053 H 0.32233 0.35353 0.13644 0.0
H3054 H 0.27026 0.29871 0.14055 0.0
H3055 H 0.31993 0.34193 0.16635 0.0
H3056 H 0.31745 0.31523 0.21997 0.0
H3057 H 0.3209 0.32591 0.18949 0.0
H3058 H 0.2645 0.29544 0.16897 0.0
H3059 H 0.2619 0.28398 0.19899 0.0
C3060 C 0.28294 0.31808 0.12303 0.0
C3061 C 0.29759 0.33351 0.12106 0.0
C3062 C 0.28164 0.3109 0.14039 0.0
C3063 C 0.29476 0.31912 0.15679 0.0
C3064 C 0.30948 0.33457 0.15458 0.0
C3065 C 0.31091 0.34146 0.13711 0.0
C3066 C 0.30584 0.31086 0.20883 0.0
C3067 C 0.28938 0.29884 0.21206 0.0
C3068 C 0.30769 0.31715 0.19109 0.0
C3069 C 0.293 0.31194 0.17592 0.0
C3070 C 0.27648 0.29988 0.17951 0.0
C3071 C 0.27479 0.29337 0.19711 0.0
H3072 H 0.21524 0.95825 0.99275 0.0
H3073 H 0.24523 0.99393 0.04565 0.0
H3074 H 0.18917 0.97215 0.99846 0.0
H3075 H 0.21871 1.00683 0.05208 0.0
H3076 H 0.17649 0.04322 0.04408 0.0
H3077 H 0.2024 0.0285 0.0408 0.0
H3078 H 0.16548 0.97191 0.01824 0.0
H3079 H 0.13951 0.98688 0.02108 0.0
C3080 C 0.21624 0.96909 0.00558 0.0
C3081 C 0.23225 0.97511 0.01869 0.0
C3082 C 0.2012 0.97678 0.00905 0.0
C3083 C 0.20182 0.99049 0.0258 0.0
C3084 C 0.21785 0.99644 0.03896 0.0
C3085 C 0.23297 0.98891 0.03537 0.0
C3086 C 0.17392 0.02758 0.03866 0.0
C3087 C 0.15603 0.0162 0.03269 0.0
C3088 C 0.18876 0.01913 0.03683 0.0
C3089 C 0.186 0.99907 0.02912 0.0
C3090 C 0.16806 0.98751 0.02383 0.0
C3091 C 0.1532 0.99603 0.0255 0.0
H3092 H 0.6923 0.59764 0.98632 0.0
H3093 H 0.67855 0.64779 0.01898 0.0
H3094 H 0.66219 0.57778 0.98766 0.0
H3095 H 0.64863 0.62744 0.02159 0.0
H3096 H 0.58915 0.58831 0.01151 0.0
H3097 H 0.61884 0.61039 0.00994 0.0
H3098 H 0.64328 0.56048 1.0047 0.0
H3099 H 0.61375 0.53889 1.00459 0.0
C3100 C 0.68292 0.60457 0.99385 0.0
C3101 C 0.68829 0.6246 1.00247 0.0
C3102 C 0.66547 0.59291 0.99498 0.0
C3103 C 0.65253 0.60058 1.00505 0.0
C3104 C 0.65784 0.62069 0.01359 0.0
C3105 C 0.67531 0.63243 0.01231 0.0
C3106 C 0.60082 0.58215 0.00972 0.0
C3107 C 0.59871 0.56167 0.00757 0.0
C3108 C 0.61808 0.59485 0.00902 0.0
C3109 C 0.6339 0.58749 0.00665 0.0
C3110 C 0.63171 0.56705 0.00563 0.0
C3111 C 0.61455 0.5545 0.00583 0.0
H3112 H 0.73938 0.43114 0.25169 0.0
H3113 H 0.69558 0.39748 0.27631 0.0
H3114 H 0.7549 0.40438 0.25054 0.0
H3115 H 0.71135 0.37085 0.27555 0.0
H3116 H 0.73811 0.31706 0.26224 0.0
H3117 H 0.72172 0.34341 0.26249 0.0
H3118 H 0.77265 0.38531 0.26281 0.0
H3119 H 0.78882 0.35904 0.26253 0.0
C3120 C 0.73277 0.41815 0.2569 0.0
C3121 C 0.7157 0.41745 0.26418 0.0
C3122 C 0.74204 0.40242 0.25642 0.0
C3123 C 0.73496 0.38458 0.26303 0.0
C3124 C 0.71779 0.38376 0.2701 0.0
C3125 C 0.70859 0.39956 0.27073 0.0
C3126 C 0.74595 0.33185 0.2623 0.0
C3127 C 0.76521 0.33524 0.26233 0.0
C3128 C 0.73639 0.34736 0.26258 0.0
C3129 C 0.74533 0.36739 0.26268 0.0
C3130 C 0.7646 0.3706 0.26252 0.0
C3131 C 0.77414 0.35517 0.26246 0.0
H3132 H 0.90286 0.52213 0.51929 0.0
H3133 H 0.90729 0.47537 0.55073 0.0
H3134 H 0.93567 0.5286 0.5173 0.0
H3135 H 0.93931 0.48142 0.54843 0.0
H3136 H 0.99904 0.49985 0.5457 0.0
H3137 H 0.96891 0.49989 0.55439 0.0
H3138 H 0.95182 0.50935 0.49749 0.0
H3139 H 0.98278 0.51115 0.48946 0.0
C3140 C 0.91091 0.51371 0.52629 0.0
C3141 C 0.90249 0.49798 0.53474 0.0
C3142 C 0.92957 0.51722 0.52496 0.0
C3143 C 0.93983 0.505 0.53208 0.0
C3144 C 0.9318 0.49107 0.54273 0.0
C3145 C 0.9133 0.48768 0.54417 0.0
C3146 C 0.98872 0.50155 0.53494 0.0
C3147 C 0.99312 0.50564 0.51701 0.0
C3148 C 0.9715 0.50171 0.53995 0.0
C3149 C 0.95815 0.50511 0.52678 0.0
C3150 C 0.96209 0.5074 0.50816 0.0
C3151 C 0.97957 0.50776 0.50331 0.0
H3152 H 0.34653 0.09128 0.27994 0.0
H3153 H 0.39661 0.1245 0.26477 0.0
H3154 H 0.3305 0.11547 0.2706 0.0
H3155 H 0.3807 0.1481 0.25439 0.0
H3156 H 0.3512 0.19735 0.25839 0.0
H3157 H 0.36756 0.17332 0.26625 0.0
H3158 H 0.31968 0.12654 0.24327 0.0
H3159 H 0.3027 0.15074 0.23738 0.0
C3160 C 0.35404 0.104 0.27487 0.0
C3161 C 0.37267 0.10659 0.27335 0.0
C3162 C 0.3449 0.11758 0.26916 0.0
C3163 C 0.35436 0.13364 0.26168 0.0
C3164 C 0.37311 0.1361 0.26038 0.0
C3165 C 0.38222 0.12269 0.26629 0.0
C3166 C 0.34413 0.18195 0.25511 0.0
C3167 C 0.32556 0.17598 0.24763 0.0
C3168 C 0.35359 0.16814 0.25935 0.0
C3169 C 0.3448 0.14806 0.25563 0.0
C3170 C 0.32665 0.14197 0.24679 0.0
C3171 C 0.31703 0.15583 0.24303 0.0
H3172 H 0.38974 0.16724 0.51276 0.0
H3173 H 0.35184 0.11167 0.51123 0.0
H3174 H 0.41533 0.15201 0.51757 0.0
H3175 H 0.37705 0.09589 0.51445 0.0
H3176 H 0.42379 0.07164 0.5324 0.0
H3177 H 0.40004 0.08941 0.5323 0.0
H3178 H 0.43327 0.13297 0.50541 0.0
H3179 H 0.45785 0.1163 0.50758 0.0
C3180 C 0.38693 0.15166 0.51317 0.0
C3181 C 0.3688 0.14064 0.51158 0.0
C3182 C 0.40162 0.14279 0.51581 0.0
C3183 C 0.39859 0.12249 0.51642 0.0
C3184 C 0.38029 0.11157 0.51462 0.0
C3185 C 0.36568 0.12056 0.51252 0.0
C3186 C 0.42633 0.08529 0.52693 0.0
C3187 C 0.44294 0.09231 0.5199 0.0
C3188 C 0.41237 0.09538 0.52645 0.0
C3189 C 0.41424 0.11262 0.51844 0.0
C3190 C 0.43105 0.1199 0.51183 0.0
C3191 C 0.44519 0.11004 0.51274 0.0
H3192 H 0.73062 0.61868 0.24079 0.0
H3193 H 0.7155 0.63945 0.2959 0.0
H3194 H 0.74624 0.65208 0.23888 0.0
H3195 H 0.73173 0.67298 0.29422 0.0
H3196 H 0.75449 0.73704 0.28165 0.0
H3197 H 0.736 0.70384 0.28281 0.0
H3198 H 0.77144 0.67819 0.2479 0.0
H3199 H 0.78953 0.71085 0.24691 0.0
C3200 C 0.73043 0.63019 0.25263 0.0
C3201 C 0.72136 0.62537 0.26856 0.0
C3202 C 0.73982 0.64981 0.25163 0.0
C3203 C 0.7408 0.66614 0.26643 0.0
C3204 C 0.73155 0.66142 0.28227 0.0
C3205 C 0.72223 0.64172 0.28334 0.0
C3206 C 0.75813 0.72436 0.27387 0.0
C3207 C 0.77368 0.72723 0.26388 0.0
C3208 C 0.74755 0.70499 0.27473 0.0
C3209 C 0.75175 0.68745 0.26542 0.0
C3210 C 0.76707 0.69063 0.25515 0.0
C3211 C 0.7777 0.70976 0.25459 0.0
H3212 H 0.89075 0.42878 0.7693 0.0
H3213 H 0.84719 0.42609 0.72479 0.0
H3214 H 0.87488 0.39794 0.77642 0.0
H3215 H 0.83197 0.39344 0.73 0.0
H3216 H 0.79501 0.35838 0.76348 0.0
H3217 H 0.81465 0.3865 0.75401 0.0
H3218 H 0.86211 0.36609 0.77305 0.0
H3219 H 0.84238 0.33978 0.78455 0.0
C3220 C 0.87822 0.42075 0.76023 0.0
C3221 C 0.86975 0.42954 0.74689 0.0
C3222 C 0.86908 0.40301 0.76424 0.0
C3223 C 0.85172 0.39363 0.75432 0.0
C3224 C 0.84486 0.40096 0.73859 0.0
C3225 C 0.85365 0.4193 0.73524 0.0
C3226 C 0.80972 0.36092 0.76669 0.0
C3227 C 0.81749 0.34761 0.77497 0.0
C3228 C 0.82096 0.37641 0.76057 0.0
C3229 C 0.83995 0.37809 0.76205 0.0
C3230 C 0.84761 0.36538 0.77173 0.0
C3231 C 0.8364 0.35049 0.7786 0.0
H3232 H 0.04152 0.89762 0.07831 0.0
H3233 H 0.08583 0.8944 0.0444 0.0
H3234 H 0.03638 0.92557 0.06466 0.0
H3235 H 0.08083 0.92269 0.03102 0.0
H3236 H 0.08018 0.98724 0.02807 0.0
H3237 H 0.08434 0.95741 0.03902 0.0
H3238 H 0.02586 0.93702 0.03683 0.0
H3239 H 0.02175 0.96712 0.02618 0.0
C3240 C 0.05009 0.9026 0.06777 0.0
C3241 C 0.06419 0.89343 0.06265 0.0
C3242 C 0.04711 0.91882 0.0599 0.0
C3243 C 0.05818 0.92664 0.04668 0.0
C3244 C 0.07217 0.91742 0.04138 0.0
C3245 C 0.07509 0.9011 0.04917 0.0
C3246 C 0.06817 0.97637 0.02981 0.0
C3247 C 0.05061 0.97975 0.02629 0.0
C3248 C 0.07055 0.9591 0.03601 0.0
C3249 C 0.05548 0.94463 0.03897 0.0
C3250 C 0.03787 0.94785 0.03505 0.0
C3251 C 0.03548 0.96511 0.02877 0.0
H3252 H 0.90276 0.26009 0.87002 0.0
H3253 H 0.93709 0.28823 0.83201 0.0
H3254 H 0.87564 0.26351 0.85046 0.0
H3255 H 0.9105 0.29266 0.81346 0.0
H3256 H 0.86159 0.28005 0.76964 0.0
H3257 H 0.88653 0.27636 0.7909 0.0
H3258 H 0.85574 0.28328 0.83879 0.0
H3259 H 0.82974 0.28637 0.81666 0.0
C3260 C 0.90468 0.26702 0.85757 0.0
C3261 C 0.92254 0.27383 0.85289 0.0
C3262 C 0.88897 0.26923 0.84639 0.0
C3263 C 0.89044 0.27826 0.83 0.0
C3264 C 0.90833 0.28523 0.82557 0.0
C3265 C 0.9239 0.28296 0.83659 0.0
C3266 C 0.85986 0.2809 0.7847 0.0
C3267 C 0.84334 0.2837 0.79116 0.0
C3268 C 0.87454 0.27893 0.79714 0.0
C3269 C 0.87376 0.27987 0.81697 0.0
C3270 C 0.85712 0.28244 0.82367 0.0
C3271 C 0.84213 0.28435 0.81097 0.0
H3272 H 0.57843 0.19714 0.57989 0.0
H3273 H 0.55311 0.20286 0.52487 0.0
H3274 H 0.57581 0.16242 0.56822 0.0
H3275 H 0.55088 0.16798 0.51285 0.0
H3276 H 0.53162 0.10038 0.50766 0.0
H3277 H 0.53494 0.13564 0.51674 0.0
H3278 H 0.58871 0.14135 0.54661 0.0
H3279 H 0.58517 0.10598 0.53797 0.0
C3280 C 0.57256 0.19098 0.56517 0.0
C3281 C 0.56623 0.20271 0.55318 0.0
C3282 C 0.57111 0.1711 0.55844 0.0
C3283 C 0.56342 0.16249 0.5395 0.0
C3284 C 0.55683 0.17417 0.52755 0.0
C3285 C 0.55813 0.1941 0.53437 0.0
C3286 C 0.54419 0.10919 0.51609 0.0
C3287 C 0.55806 0.1004 0.52227 0.0
C3288 C 0.54615 0.12943 0.52116 0.0
C3289 C 0.562 0.14129 0.53257 0.0
C3290 C 0.57618 0.13257 0.5381 0.0
C3291 C 0.57423 0.11232 0.53299 0.0
H3292 H 0.5916 0.79098 0.33965 0.0
H3293 H 0.62142 0.78118 0.39018 0.0
H3294 H 0.61888 0.79413 0.32357 0.0
H3295 H 0.64938 0.78592 0.37499 0.0
H3296 H 0.69401 0.77736 0.33809 0.0
H3297 H 0.66727 0.77506 0.35473 0.0
H3298 H 0.64586 0.8098 0.31746 0.0
H3299 H 0.67147 0.81004 0.29955 0.0
C3300 C 0.60419 0.7898 0.3474 0.0
C3301 C 0.60438 0.7857 0.36608 0.0
C3302 C 0.62007 0.79184 0.33827 0.0
C3303 C 0.63684 0.79034 0.34772 0.0
C3304 C 0.63693 0.78673 0.36676 0.0
C3305 C 0.6209 0.7842 0.37568 0.0
C3306 C 0.68345 0.7842 0.33315 0.0
C3307 C 0.68513 0.7937 0.31715 0.0
C3308 C 0.66806 0.78322 0.34305 0.0
C3309 C 0.65385 0.79208 0.33763 0.0
C3310 C 0.65593 0.80221 0.32204 0.0
C3311 C 0.67108 0.80276 0.31187 0.0
H3312 H 0.09263 0.22168 0.42433 0.0
H3313 H 0.04566 0.24043 0.44355 0.0
H3314 H 0.08511 0.19297 0.43955 0.0
H3315 H 0.03848 0.21216 0.45964 0.0
H3316 H 0.02254 0.15107 0.47452 0.0
H3317 H 0.02805 0.1777 0.45596 0.0
H3318 H 0.08637 0.18559 0.47033 0.0
H3319 H 0.08071 0.15846 0.48781 0.0
C3320 C 0.08079 0.21969 0.43202 0.0
C3321 C 0.0698 0.23324 0.43298 0.0
C3322 C 0.07649 0.20331 0.4408 0.0
C3323 C 0.06131 0.20036 0.45103 0.0
C3324 C 0.05013 0.21383 0.45169 0.0
C3325 C 0.05429 0.23008 0.44262 0.0
C3326 C 0.03648 0.1585 0.47347 0.0
C3327 C 0.05123 0.15276 0.48236 0.0
C3328 C 0.03967 0.17378 0.463 0.0
C3329 C 0.05766 0.18374 0.46157 0.0
C3330 C 0.07235 0.17794 0.47066 0.0
C3331 C 0.06915 0.16249 0.48078 0.0
H3332 H 0.59436 0.24875 0.18561 0.0
H3333 H 0.58719 0.28721 0.23632 0.0
H3334 H 0.62564 0.25104 0.19895 0.0
H3335 H 0.61875 0.28937 0.24991 0.0
H3336 H 0.68391 0.29975 0.25271 0.0
H3337 H 0.65239 0.30126 0.24222 0.0
H3338 H 0.63688 0.23777 0.22762 0.0
H3339 H 0.66806 0.23641 0.23799 0.0
C3340 C 0.59951 0.25754 0.19971 0.0
C3341 C 0.58844 0.26741 0.21025 0.0
C3342 C 0.61734 0.25892 0.20727 0.0
C3343 C 0.6243 0.2701 0.22553 0.0
C3344 C 0.61352 0.28067 0.2358 0.0
C3345 C 0.59559 0.27935 0.22814 0.0
C3346 C 0.67352 0.28625 0.24759 0.0
C3347 C 0.67796 0.26797 0.24615 0.0
C3348 C 0.65567 0.28707 0.24166 0.0
C3349 C 0.64248 0.26962 0.234 0.0
C3350 C 0.64695 0.25139 0.23331 0.0
C3351 C 0.66462 0.25058 0.23934 0.0
H3352 H 0.59436 0.90532 0.97147 0.0
H3353 H 0.5967 0.9326 0.92128 0.0
H3354 H 0.58484 0.93312 0.9889 0.0
H3355 H 0.58639 0.96004 0.93818 0.0
H3356 H 0.57528 0.01163 0.97758 0.0
H3357 H 0.59095 0.98778 0.96274 0.0
H3358 H 0.55669 0.94241 0.98674 0.0
H3359 H 0.54205 0.96662 1.00258 0.0
C3360 C 0.59337 0.91766 0.96447 0.0
C3361 C 0.59642 0.91722 0.9453 0.0
C3362 C 0.58763 0.93335 0.97424 0.0
C3363 C 0.5845 0.94856 0.96477 0.0
C3364 C 0.58878 0.94864 0.94592 0.0
C3365 C 0.59471 0.93303 0.93625 0.0
C3366 C 0.57124 0.99658 0.97971 0.0
C3367 C 0.55779 0.99097 0.99147 0.0
C3368 C 0.58012 0.98289 0.97116 0.0
C3369 C 0.57533 0.96328 0.97389 0.0
C3370 C 0.56117 0.95755 0.9849 0.0
C3371 C 0.55256 0.97131 0.99372 0.0
H3372 H 0.90429 0.73392 0.69441 0.0
H3373 H 0.93906 0.78788 0.7272 0.0
H3374 H 0.87918 0.73934 0.712 0.0
H3375 H 0.91361 0.79393 0.7441 0.0
H3376 H 0.86477 0.79153 0.77877 0.0
H3377 H 0.89208 0.78394 0.76605 0.0
H3378 H 0.8607 0.76244 0.70985 0.0
H3379 H 0.83359 0.76907 0.72286 0.0
C3380 C 0.90661 0.74676 0.70561 0.0
C3381 C 0.92344 0.76063 0.70933 0.0
C3382 C 0.89221 0.75001 0.7155 0.0
C3383 C 0.89438 0.76728 0.72908 0.0
C3384 C 0.91157 0.78052 0.73369 0.0
C3385 C 0.92603 0.77717 0.7239 0.0
C3386 C 0.86394 0.78512 0.76376 0.0
C3387 C 0.84735 0.78042 0.75172 0.0
C3388 C 0.87943 0.78084 0.75648 0.0
C3389 C 0.87834 0.77216 0.73709 0.0
C3390 C 0.86177 0.76841 0.725 0.0
C3391 C 0.84634 0.77233 0.73234 0.0
H3392 H 0.1173 0.04905 0.8779 0.0
H3393 H 0.09536 0.98633 0.86637 0.0
H3394 H 0.10285 0.05151 0.9072 0.0
H3395 H 0.08153 0.9887 0.89598 0.0
H3396 H 0.04687 0.99611 0.94566 0.0
H3397 H 0.06064 0.99449 0.91593 0.0
H3398 H 0.0989 0.04984 0.93891 0.0
H3399 H 0.08449 0.05159 0.96866 0.0
C3400 C 0.10943 0.03559 0.88131 0.0
C3401 C 0.10799 0.0174 0.86879 0.0
C3402 C 0.1011 0.03703 0.89871 0.0
C3403 C 0.09061 0.02039 0.90497 0.0
C3404 C 0.08908 1.00222 0.89239 0.0
C3405 C 0.09744 1.00078 0.87502 0.0
C3406 C 0.05827 0.00804 0.94459 0.0
C3407 C 0.06432 0.02396 0.96028 0.0
C3408 C 0.06645 1.00705 0.92717 0.0
C3409 C 0.08147 0.02186 0.92411 0.0
C3410 C 0.08745 0.03794 0.93985 0.0
C3411 C 0.07913 0.03898 0.95732 0.0
H3412 H 0.84901 0.36446 0.57761 0.0
H3413 H 0.80094 0.37845 0.59938 0.0
H3414 H 0.8565 0.35248 0.60708 0.0
H3415 H 0.80839 0.36655 0.62868 0.0
H3416 H 0.8155 0.32193 0.66567 0.0
H3417 H 0.80952 0.33385 0.63612 0.0
H3418 H 0.86579 0.36698 0.64283 0.0
H3419 H 0.8719 0.35435 0.67261 0.0
C3420 C 0.84009 0.3649 0.58871 0.0
C3421 C 0.8244 0.3722 0.58639 0.0
C3422 C 0.84442 0.35823 0.6055 0.0
C3423 C 0.83306 0.3588 0.61999 0.0
C3424 C 0.81725 0.36588 0.61753 0.0
C3425 C 0.81293 0.37252 0.6008 0.0
C3426 C 0.82654 0.33187 0.66082 0.0
C3427 C 0.84408 0.33753 0.67118 0.0
C3428 C 0.82312 0.33867 0.64404 0.0
C3429 C 0.83718 0.35139 0.63748 0.0
C3430 C 0.85483 0.35705 0.64777 0.0
C3431 C 0.85831 0.35007 0.66469 0.0
H3432 H 0.45706 0.028 0.3907 0.0
H3433 H 0.50592 0.03853 0.363 0.0
H3434 H 0.47554 0.03055 0.42143 0.0
H3435 H 0.52453 0.04031 0.39344 0.0
H3436 H 0.55308 0.06316 0.45363 0.0
H3437 H 0.53362 0.06206 0.42407 0.0
H3438 H 0.49439 0.01264 0.43679 0.0
H3439 H 0.51358 0.01423 0.46661 0.0
C3440 C 0.47179 0.03075 0.39135 0.0
C3441 C 0.48032 0.03323 0.37493 0.0
C3442 C 0.48232 0.03209 0.40876 0.0
C3443 C 0.50144 0.03573 0.40977 0.0
C3444 C 0.50985 0.0379 0.3931 0.0
C3445 C 0.49931 0.03675 0.37576 0.0
C3446 C 0.54024 0.05217 0.45007 0.0
C3447 C 0.53478 0.0387 0.46213 0.0
C3448 C 0.52918 0.05145 0.43318 0.0
C3449 C 0.51262 0.03714 0.42811 0.0
C3450 C 0.50702 0.02393 0.44046 0.0
C3451 C 0.51801 0.02476 0.45742 0.0
H3452 H 0.76882 0.76095 0.09832 0.0
H3453 H 0.82067 0.74631 0.11035 0.0
H3454 H 0.76763 0.76971 0.13253 0.0
H3455 H 0.82026 0.75667 0.1444 0.0
H3456 H 0.80506 0.75122 0.20331 0.0
H3457 H 0.80617 0.74481 0.16899 0.0
H3458 H 0.77753 0.79032 0.16213 0.0
H3459 H 0.77554 0.79581 0.1967 0.0
C3460 C 0.78008 0.75976 0.10822 0.0
C3461 C 0.79465 0.75248 0.1014 0.0
C3462 C 0.77952 0.7651 0.12794 0.0
C3463 C 0.79365 0.76357 0.14147 0.0
C3464 C 0.80879 0.75748 0.13458 0.0
C3465 C 0.80921 0.75186 0.11488 0.0
C3466 C 0.79885 0.75973 0.19442 0.0
C3467 C 0.79017 0.77396 0.20264 0.0
C3468 C 0.7997 0.75626 0.17469 0.0
C3469 C 0.79226 0.76726 0.16258 0.0
C3470 C 0.78329 0.78138 0.17084 0.0
C3471 C 0.78211 0.78456 0.19066 0.0
H3472 H 0.1102 0.98902 0.65151 0.0
H3473 H 0.09742 0.0421 0.67879 0.0
H3474 H 0.09646 0.99313 0.6208 0.0
H3475 H 0.08454 0.04701 0.64805 0.0
H3476 H 0.05615 0.05251 0.59018 0.0
H3477 H 0.0676 0.04696 0.62144 0.0
H3478 H 0.09206 1.00233 0.5933 0.0
H3479 H 0.07957 1.00728 0.5624 0.0
C3480 C 0.10446 1.00167 0.65112 0.0
C3481 C 0.10535 0.01521 0.66825 0.0
C3482 C 0.09662 1.00431 0.63304 0.0
C3483 C 0.0892 0.02075 0.63085 0.0
C3484 C 0.08981 0.03406 0.64818 0.0
C3485 C 0.09759 0.03135 0.66625 0.0
C3486 C 0.06394 0.04145 0.59067 0.0
C3487 C 0.06675 0.03041 0.57334 0.0
C3488 C 0.07078 0.03822 0.60893 0.0
C3489 C 0.08122 0.02403 0.61093 0.0
C3490 C 0.08403 0.01316 0.59336 0.0
C3491 C 0.07685 0.01612 0.57518 0.0
H3492 H 0.82643 0.3425 0.4211 0.0
H3493 H 0.78599 0.37008 0.39772 0.0
H3494 H 0.82523 0.32253 0.38942 0.0
H3495 H 0.78439 0.3498 0.36648 0.0
H3496 H 0.80146 0.3293 0.30983 0.0
H3497 H 0.80589 0.3484 0.34205 0.0
H3498 H 0.80241 0.29534 0.36583 0.0
H3499 H 0.79798 0.27601 0.33326 0.0
C3500 C 0.81727 0.34423 0.40923 0.0
C3501 C 0.80628 0.35779 0.41182 0.0
C3502 C 0.81649 0.33273 0.39121 0.0
C3503 C 0.80482 0.33478 0.37558 0.0
C3504 C 0.79369 0.34815 0.37828 0.0
C3505 C 0.79444 0.35957 0.3962 0.0
C3506 C 0.80184 0.3217 0.32191 0.0
C3507 C 0.79916 0.30117 0.31916 0.0
C3508 C 0.80429 0.33263 0.34033 0.0
C3509 C 0.80421 0.32326 0.35633 0.0
C3510 C 0.8025 0.30285 0.35366 0.0
C3511 C 0.79989 0.29182 0.33512 0.0
H3512 H 0.46482 0.0365 0.18375 0.0
H3513 H 0.48923 0.99448 0.20782 0.0
H3514 H 0.4705 0.02284 0.15188 0.0
H3515 H 0.49353 0.97968 0.17592 0.0
H3516 H 0.52322 0.98454 0.12212 0.0
H3517 H 0.51222 0.98726 0.1528 0.0
H3518 H 0.46091 0.99479 0.1267 0.0
H3519 H 0.47258 0.99305 0.09565 0.0
C3520 C 0.47163 0.02452 0.18217 0.0
C3521 C 0.47677 0.01658 0.19806 0.0
C3522 C 0.47435 0.01628 0.16393 0.0
C3523 C 0.48201 0.99982 0.16136 0.0
C3524 C 0.48757 0.9923 0.17742 0.0
C3525 C 0.48522 1.0008 0.19564 0.0
C3526 C 0.5092 0.98566 0.12264 0.0
C3527 C 0.49887 0.98906 0.1067 0.0
C3528 C 0.50289 0.98734 0.14037 0.0
C3529 C 0.48595 0.99194 0.14223 0.0
C3530 C 0.47432 0.99196 0.12568 0.0
C3531 C 0.48082 0.99062 0.10791 0.0
H3532 H 0.82433 0.75379 0.913 0.0
H3533 H 0.76677 0.72825 0.89519 0.0
H3534 H 0.82686 0.76576 0.88298 0.0
H3535 H 0.76904 0.74156 0.86569 0.0
H3536 H 0.78049 0.75518 0.8062 0.0
H3537 H 0.77851 0.74019 0.83507 0.0
H3538 H 0.821 0.78917 0.8661 0.0
H3539 H 0.8236 0.80315 0.83719 0.0
C3540 C 0.81213 0.75065 0.90276 0.0
C3541 C 0.79534 0.73981 0.90686 0.0
C3542 C 0.81353 0.75788 0.88546 0.0
C3543 C 0.79815 0.75484 0.87157 0.0
C3544 C 0.78132 0.74409 0.87568 0.0
C3545 C 0.77996 0.73668 0.89294 0.0
C3546 C 0.78982 0.76231 0.81899 0.0
C3547 C 0.80257 0.7801 0.81909 0.0
C3548 C 0.78844 0.75395 0.8358 0.0
C3549 C 0.79968 0.76326 0.85324 0.0
C3550 C 0.81236 0.78109 0.85311 0.0
C3551 C 0.81378 0.78927 0.83641 0.0
H3552 H 0.85105 0.08785 0.97831 0.0
H3553 H 0.87011 0.10744 0.03883 0.0
H3554 H 0.87743 0.07369 0.97443 0.0
H3555 H 0.89649 0.09369 0.03498 0.0
H3556 H 0.93075 0.04918 0.02609 0.0
H3557 H 0.90413 0.06288 0.02915 0.0
H3558 H 0.91004 0.08275 0.97496 0.0
H3559 H 0.93635 0.06834 0.97164 0.0
C3560 C 0.86092 0.08916 0.99074 0.0
C3561 C 0.85851 0.09854 0.0089 0.0
C3562 C 0.87604 0.08115 0.98852 0.0
C3563 C 0.889 0.0825 1.00443 0.0
C3564 C 0.88656 0.09202 0.02253 0.0
C3565 C 0.87144 0.09989 0.02475 0.0
C3566 C 0.92642 0.05662 0.01493 0.0
C3567 C 0.93556 0.05777 0.99867 0.0
C3568 C 0.91121 0.0645 0.01668 0.0
C3569 C 0.90501 0.07395 1.00232 0.0
C3570 C 0.9143 0.07528 0.98611 0.0
C3571 C 0.9294 0.06716 0.98426 0.0
H3572 H 0.41865 0.4406 0.049 0.0
H3573 H 0.39578 0.46417 1.0026 0.0
H3574 H 0.44874 0.46096 0.04719 0.0
H3575 H 0.42591 0.48337 0.99991 0.0
H3576 H 0.4782 0.5324 0.01196 0.0
H3577 H 0.44855 0.5107 0.01245 0.0
H3578 H 0.47523 0.46831 0.03266 0.0
H3579 H 0.50498 0.49113 0.03329 0.0
C3580 C 0.41988 0.45006 0.03836 0.0
C3581 C 0.4043 0.4505 0.02603 0.0
C3582 C 0.43742 0.46164 0.03709 0.0
C3583 C 0.44023 0.47415 0.0234 0.0
C3584 C 0.42467 0.47438 0.01094 0.0
C3585 C 0.40716 0.46294 0.01229 0.0
C3586 C 0.47778 0.51828 0.0162 0.0
C3587 C 0.49419 0.51322 0.02184 0.0
C3588 C 0.4606 0.50563 0.01641 0.0
C3589 C 0.45899 0.48729 0.02242 0.0
C3590 C 0.47553 0.48216 0.02794 0.0
C3591 C 0.49279 0.49498 0.02777 0.0
H3592 H 0.38441 0.66621 0.73839 0.0
H3593 H 0.36401 0.65281 0.79067 0.0
H3594 H 0.36875 0.69301 0.73941 0.0
H3595 H 0.34844 0.67969 0.79167 0.0
H3596 H 0.30755 0.7198 0.78024 0.0
H3597 H 0.32371 0.69328 0.77994 0.0
H3598 H 0.36599 0.72581 0.7526 0.0
H3599 H 0.35004 0.7526 0.75353 0.0
C3600 C 0.3766 0.66865 0.75019 0.0
C3601 C 0.37596 0.65638 0.76438 0.0
C3602 C 0.36753 0.68455 0.75087 0.0
C3603 C 0.35683 0.68931 0.76563 0.0
C3604 C 0.35612 0.67704 0.77979 0.0
C3605 C 0.36542 0.66133 0.77927 0.0
C3606 C 0.32035 0.72154 0.77422 0.0
C3607 C 0.32715 0.73905 0.76703 0.0
C3608 C 0.32986 0.70604 0.77409 0.0
C3609 C 0.34662 0.70659 0.7662 0.0
C3610 C 0.35328 0.72406 0.75879 0.0
C3611 C 0.34403 0.73982 0.75944 0.0
H3612 H 0.18071 0.59295 0.47207 0.0
H3613 H 0.19227 0.55517 0.51142 0.0
H3614 H 0.1487 0.58352 0.47533 0.0
H3615 H 0.16119 0.54855 0.51752 0.0
H3616 H 0.10447 0.54181 0.5303 0.0
H3617 H 0.13235 0.54032 0.51753 0.0
H3618 H 0.13203 0.59461 0.49626 0.0
H3619 H 0.10173 0.59313 0.50575 0.0
C3620 C 0.1764 0.5823 0.48116 0.0
C3621 C 0.18912 0.57563 0.49242 0.0
C3622 C 0.15803 0.57743 0.4836 0.0
C3623 C 0.15237 0.56671 0.49799 0.0
C3624 C 0.16469 0.55739 0.5067 0.0
C3625 C 0.1828 0.56132 0.50336 0.0
C3626 C 0.11048 0.55342 0.52292 0.0
C3627 C 0.10114 0.56748 0.51876 0.0
C3628 C 0.1267 0.55271 0.51561 0.0
C3629 C 0.13469 0.56712 0.50534 0.0
C3630 C 0.12604 0.58254 0.50308 0.0
C3631 C 0.10901 0.58229 0.50916 0.0
H3632 H 0.73219 0.99082 0.78956 0.0
H3633 H 0.70957 0.95383 0.73468 0.0
H3634 H 0.74749 0.96581 0.79801 0.0
H3635 H 0.72534 0.92911 0.74282 0.0
H3636 H 0.73921 0.88089 0.77058 0.0
H3637 H 0.72275 0.90622 0.7663 0.0
H3638 H 0.77236 0.95123 0.78693 0.0
H3639 H 0.7888 0.92609 0.79108 0.0
C3640 C 0.73064 0.97736 0.77931 0.0
C3641 C 0.71974 0.97402 0.76156 0.0
C3642 C 0.73938 0.96317 0.7841 0.0
C3643 C 0.73728 0.94554 0.77115 0.0
C3644 C 0.72678 0.94247 0.75317 0.0
C3645 C 0.71805 0.95666 0.7484 0.0
C3646 C 0.74648 0.89622 0.77443 0.0
C3647 C 0.76525 0.9016 0.78103 0.0
C3648 C 0.73712 0.91062 0.77194 0.0
C3649 C 0.74644 0.93052 0.77608 0.0
C3650 C 0.76491 0.93594 0.78379 0.0
C3651 C 0.77426 0.92156 0.78623 0.0
H3652 H 0.72667 0.93736 0.48843 0.0
H3653 H 0.71572 0.92985 0.54578 0.0
H3654 H 0.70128 0.9532 0.4853 0.0
H3655 H 0.69033 0.94531 0.54259 0.0
H3656 H 0.65975 0.99302 0.54119 0.0
H3657 H 0.68402 0.97579 0.54257 0.0
H3658 H 0.66947 0.95121 0.48215 0.0
H3659 H 0.64531 0.9691 0.48074 0.0
C3660 C 0.71877 0.93887 0.50033 0.0
C3661 C 0.72358 0.93253 0.51751 0.0
C3662 C 0.70411 0.94797 0.49851 0.0
C3663 C 0.69375 0.95095 0.51379 0.0
C3664 C 0.69821 0.94395 0.53068 0.0
C3665 C 0.71287 0.93499 0.53252 0.0
C3666 C 0.66153 0.98376 0.52821 0.0
C3667 C 0.65035 0.98232 0.51092 0.0
C3668 C 0.67552 0.97376 0.529 0.0
C3669 C 0.67876 0.96175 0.51255 0.0
C3670 C 0.66762 0.96039 0.49514 0.0
C3671 C 0.65367 0.97061 0.49432 0.0
H3672 H 0.37269 0.45111 0.7919 0.0
H3673 H 0.36391 0.43799 0.73002 0.0
H3674 H 0.35646 0.41777 0.79298 0.0
H3675 H 0.34873 0.40449 0.7311 0.0
H3676 H 0.30903 0.34585 0.73446 0.0
H3677 H 0.32674 0.37869 0.73326 0.0
H3678 H 0.34934 0.38497 0.79246 0.0
H3679 H 0.33113 0.35194 0.7934 0.0
C3680 C 0.36742 0.44139 0.77834 0.0
C3681 C 0.37008 0.44843 0.76082 0.0
C3682 C 0.35805 0.42161 0.77898 0.0
C3683 C 0.35069 0.40728 0.76216 0.0
C3684 C 0.35353 0.4143 0.74469 0.0
C3685 C 0.36277 0.43408 0.74404 0.0
C3686 C 0.31816 0.35396 0.74714 0.0
C3687 C 0.31883 0.34535 0.7638 0.0
C3688 C 0.32852 0.37329 0.74654 0.0
C3689 C 0.34008 0.38563 0.76273 0.0
C3690 C 0.34085 0.3768 0.77945 0.0
C3691 C 0.33051 0.35732 0.77996 0.0
H3692 H 0.25177 0.63504 0.28617 0.0
H3693 H 0.20765 0.66195 0.27207 0.0
H3694 H 0.27344 0.66181 0.27706 0.0
H3695 H 0.22937 0.68959 0.26411 0.0
H3696 H 0.26117 0.72063 0.2273 0.0
H3697 H 0.24452 0.69023 0.23589 0.0
H3698 H 0.28874 0.69459 0.28067 0.0
H3699 H 0.30573 0.72374 0.27083 0.0
C3700 C 0.24699 0.64743 0.28229 0.0
C3701 C 0.22832 0.64669 0.27954 0.0
C3702 C 0.25928 0.66256 0.27679 0.0
C3703 C 0.25284 0.6771 0.26893 0.0
C3704 C 0.23446 0.67791 0.2692 0.0
C3705 C 0.22214 0.66255 0.27433 0.0
C3706 C 0.26777 0.71412 0.23793 0.0
C3707 C 0.28424 0.72438 0.24891 0.0
C3708 C 0.25808 0.6972 0.24332 0.0
C3709 C 0.26496 0.69091 0.25971 0.0
C3710 C 0.28297 0.69931 0.26823 0.0
C3711 C 0.2928 0.71583 0.26245 0.0
H3712 H 0.54792 0.69679 0.48949 0.0
H3713 H 0.50525 0.65934 0.44688 0.0
H3714 H 0.55273 0.66808 0.50236 0.0
H3715 H 0.5103 0.63073 0.45927 0.0
H3716 H 0.51073 0.58302 0.49352 0.0
H3717 H 0.50624 0.61283 0.48336 0.0
H3718 H 0.56394 0.63966 0.49865 0.0
H3719 H 0.56827 0.60978 0.50966 0.0
C3720 C 0.5396 0.68244 0.48275 0.0
C3721 C 0.52606 0.68056 0.46714 0.0
C3722 C 0.54242 0.66586 0.49013 0.0
C3723 C 0.53188 0.64681 0.48206 0.0
C3724 C 0.51845 0.64502 0.46637 0.0
C3725 C 0.51553 0.66157 0.45914 0.0
C3726 C 0.52251 0.59528 0.49489 0.0
C3727 C 0.5399 0.59382 0.50239 0.0
C3728 C 0.51995 0.61247 0.4888 0.0
C3729 C 0.53472 0.62885 0.48976 0.0
C3730 C 0.55212 0.62756 0.49771 0.0
C3731 C 0.55466 0.61031 0.50397 0.0
H3732 H 0.68016 0.33227 0.68146 0.0
H3733 H 0.65895 0.26946 0.67439 0.0
H3734 H 0.70748 0.32962 0.70057 0.0
H3735 H 0.6865 0.26685 0.69333 0.0
H3736 H 0.74492 0.26587 0.71846 0.0
H3737 H 0.719 0.26852 0.69625 0.0
H3738 H 0.71859 0.32413 0.73078 0.0
H3739 H 0.74418 0.32134 0.75259 0.0
C3740 C 0.68109 0.31784 0.68401 0.0
C3741 C 0.66685 0.30115 0.67614 0.0
C3742 C 0.697 0.3163 0.69507 0.0
C3743 C 0.69954 0.29799 0.69876 0.0
C3744 C 0.68545 0.28123 0.69072 0.0
C3745 C 0.66946 0.28278 0.67973 0.0
C3746 C 0.73962 0.27892 0.72091 0.0
C3747 C 0.74701 0.29362 0.73714 0.0
C3748 C 0.72448 0.28033 0.70834 0.0
C3749 C 0.71639 0.29659 0.71148 0.0
C3750 C 0.72433 0.31149 0.72744 0.0
C3751 C 0.73915 0.30992 0.74005 0.0
H3752 H 0.05646 0.37795 0.99113 0.0
H3753 H 0.99939 0.36985 0.97035 0.0
H3754 H 0.05858 0.41269 1.00272 0.0
H3755 H 1.00158 0.40455 0.98135 0.0
H3756 H 0.00838 0.46728 0.01222 0.0
H3757 H 1.00528 0.43164 0.00648 0.0
H3758 H 0.05941 0.44057 0.98887 0.0
H3759 H 0.06271 0.47572 0.99544 0.0
C3760 C 0.04437 0.38359 0.98907 0.0
C3761 C 0.0278 0.37116 0.97974 0.0
C3762 C 0.04557 0.40352 0.99565 0.0
C3763 C 0.0303 0.41155 0.99275 0.0
C3764 C 0.01357 0.39892 0.98406 0.0
C3765 C 0.01233 0.37897 0.97769 0.0
C3766 C 0.01956 0.4615 0.00718 0.0
C3767 C 0.0358 0.47423 1.00437 0.0
C3768 C 0.01782 0.44112 1.00385 0.0
C3769 C 0.03218 0.43316 0.99737 0.0
C3770 C 0.04827 0.44606 0.9944 0.0
C3771 C 0.0501 0.46629 0.99799 0.0
H3772 H 0.97409 0.76228 0.14656 0.0
H3773 H 0.99862 0.81628 0.18612 0.0
H3774 H 0.94614 0.75931 0.16178 0.0
H3775 H 0.97126 0.81302 0.20186 0.0
H3776 H 0.91592 0.81429 0.21802 0.0
H3777 H 0.94218 0.81617 0.20083 0.0
H3778 H 0.92998 0.7527 0.18699 0.0
H3779 H 0.90256 0.75091 0.20285 0.0
C3780 C 0.97361 0.77345 0.15864 0.0
C3781 C 0.98866 0.78966 0.16492 0.0
C3782 C 0.95752 0.77172 0.1675 0.0
C3783 C 0.95602 0.78602 0.1831 0.0
C3784 C 0.97133 0.80195 0.18957 0.0
C3785 C 0.98724 0.80381 0.18056 0.0
C3786 C 0.91847 0.80066 0.21098 0.0
C3787 C 0.9068 0.78244 0.21195 0.0
C3788 C 0.93397 0.80173 0.20135 0.0
C3789 C 0.93874 0.78461 0.1926 0.0
C3790 C 0.92695 0.76633 0.19334 0.0
C3791 C 0.91123 0.76527 0.20277 0.0
H3792 H 0.49298 0.34284 0.08887 0.0
H3793 H 0.55059 0.34567 0.10204 0.0
H3794 H 0.50049 0.37119 0.07361 0.0
H3795 H 0.55801 0.3725 0.08452 0.0
H3796 H 0.56636 0.4323 0.06602 0.0
H3797 H 0.55987 0.40551 0.08429 0.0
H3798 H 0.50984 0.3792 0.04566 0.0
H3799 H 0.51585 0.40667 0.02868 0.0
C3800 C 0.50726 0.34946 0.08851 0.0
C3801 C 0.52114 0.3419 0.09672 0.0
C3802 C 0.51159 0.36552 0.07934 0.0
C3803 C 0.52987 0.37399 0.07751 0.0
C3804 C 0.54379 0.36651 0.08579 0.0
C3805 C 0.53949 0.35081 0.09552 0.0
C3806 C 0.554 0.42072 0.06168 0.0
C3807 C 0.54147 0.42135 0.04622 0.0
C3808 C 0.5503 0.40533 0.07197 0.0
C3809 C 0.5342 0.39025 0.0666 0.0
C3810 C 0.52206 0.39081 0.05065 0.0
C3811 C 0.52554 0.40637 0.04075 0.0
H3812 H 1.00569 0.33494 0.32723 0.0
H3813 H 0.99869 0.27312 0.30473 0.0
H3814 H 0.97476 0.33328 0.31352 0.0
H3815 H 0.96738 0.27146 0.29078 0.0
H3816 H 0.90637 0.27782 0.29496 0.0
H3817 H 0.93776 0.27551 0.30374 0.0
H3818 H 0.95812 0.32803 0.28074 0.0
H3819 H 0.92703 0.33074 0.27265 0.0
C3820 C 0.9976 0.32108 0.31899 0.0
C3821 C 1.00455 0.30422 0.31668 0.0
C3822 C 0.97993 0.32013 0.31118 0.0
C3823 C 0.96892 0.30231 0.30087 0.0
C3824 C 0.97574 0.28534 0.29867 0.0
C3825 C 0.99353 0.28629 0.30657 0.0
C3826 C 0.91762 0.28866 0.2916 0.0
C3827 C 0.91442 0.30449 0.28323 0.0
C3828 C 0.93547 0.28725 0.29644 0.0
C3829 C 0.9502 0.30169 0.293 0.0
C3830 C 0.94691 0.31684 0.28366 0.0
C3831 C 0.92916 0.31827 0.27886 0.0
H3832 H 0.01259 0.64798 0.6136 0.0
H3833 H 0.98925 0.66298 0.56181 0.0
H3834 H 0.0189 0.61901 0.59474 0.0
H3835 H 0.99561 0.63404 0.54293 0.0
H3836 H 0.9972 0.57225 0.51666 0.0
H3837 H 0.98754 0.59806 0.53706 0.0
H3838 H 0.04038 0.61409 0.57167 0.0
H3839 H 0.04988 0.58799 0.55146 0.0
C3840 C 0.00874 0.64499 0.59819 0.0
C3841 C 1.00058 0.65772 0.58909 0.0
C3842 C 0.01237 0.62848 0.58743 0.0
C3843 C 0.00787 0.62444 0.56742 0.0
C3844 C 0.99904 0.63674 0.55839 0.0
C3845 C 0.99539 0.65326 0.56917 0.0
C3846 C 1.00667 0.58125 0.52872 0.0
C3847 C 0.02427 0.57834 0.53254 0.0
C3848 C 1.00117 0.59601 0.54031 0.0
C3849 C 0.01323 0.60804 0.55587 0.0
C3850 C 0.03074 0.60482 0.55989 0.0
C3851 C 0.03622 0.59003 0.54831 0.0
H3852 H 0.65281 0.79865 0.79654 0.0
H3853 H 0.69131 0.83606 0.84324 0.0
H3854 H 0.67816 0.79183 0.77966 0.0
H3855 H 0.71658 0.82954 0.82625 0.0
H3856 H 0.75263 0.78913 0.80585 0.0
H3857 H 0.72609 0.79712 0.81947 0.0
H3858 H 0.7059 0.80899 0.76472 0.0
H3859 H 0.73276 0.80102 0.75115 0.0
C3860 C 0.6667 0.80568 0.80295 0.0
C3861 C 0.67026 0.81774 0.82115 0.0
C3862 C 0.68111 0.80186 0.79331 0.0
C3863 C 0.69915 0.81 0.80187 0.0
C3864 C 0.70269 0.82295 0.81956 0.0
C3865 C 0.68831 0.82683 0.82914 0.0
C3866 C 0.74235 0.79328 0.79679 0.0
C3867 C 0.74442 0.7947 0.77767 0.0
C3868 C 0.72737 0.79797 0.80453 0.0
C3869 C 0.71429 0.804 0.79315 0.0
C3870 C 0.71597 0.80449 0.7737 0.0
C3871 C 0.73116 0.8 0.76599 0.0
H3872 H 0.46323 0.531 0.64417 0.0
H3873 H 0.50654 0.5813 0.67007 0.0
H3874 H 0.47773 0.52838 0.61493 0.0
H3875 H 0.52052 0.57925 0.64065 0.0
H3876 H 0.55219 0.56694 0.59008 0.0
H3877 H 0.53726 0.56861 0.61876 0.0
H3878 H 0.48665 0.53445 0.58564 0.0
H3879 H 0.50218 0.53239 0.55653 0.0
C3880 C 0.47586 0.54165 0.64397 0.0
C3881 C 0.48325 0.55643 0.66049 0.0
C3882 C 0.48427 0.54023 0.62663 0.0
C3883 C 0.50076 0.55349 0.62442 0.0
C3884 C 0.50814 0.56828 0.64094 0.0
C3885 C 0.49975 0.56967 0.65827 0.0
C3886 C 0.5378 0.55975 0.5886 0.0
C3887 C 0.52873 0.54962 0.57028 0.0
C3888 C 0.52896 0.56085 0.6055 0.0
C3889 C 0.5102 0.55194 0.60549 0.0
C3890 C 0.50101 0.54163 0.58707 0.0
C3891 C 0.50998 0.5405 0.56997 0.0
H3892 H 0.79891 0.21935 0.93762 0.0
H3893 H 0.74826 0.17563 0.9338 0.0
H3894 H 0.78719 0.22967 0.90858 0.0
H3895 H 0.73648 0.18591 0.90483 0.0
H3896 H 0.73476 0.20494 0.84284 0.0
H3897 H 0.74366 0.18949 0.8696 0.0
H3898 H 0.75985 0.24641 0.90656 0.0
H3899 H 0.75148 0.26182 0.88027 0.0
C3900 C 0.78549 0.21172 0.93021 0.0
C3901 C 0.77431 0.19695 0.93765 0.0
C3902 C 0.77876 0.21761 0.91383 0.0
C3903 C 0.7609 0.20865 0.90488 0.0
C3904 C 0.75026 0.19292 0.91161 0.0
C3905 C 0.75694 0.18714 0.92805 0.0
C3906 C 0.7396 0.21398 0.85688 0.0
C3907 C 0.74243 0.23454 0.85945 0.0
C3908 C 0.74481 0.20521 0.87203 0.0
C3909 C 0.75288 0.21699 0.88971 0.0
C3910 C 0.75401 0.2372 0.8928 0.0
C3911 C 0.74879 0.24592 0.87781 0.0
H3912 H 0.08606 0.53541 0.16471 0.0
H3913 H 0.13571 0.55342 0.13968 0.0
H3914 H 0.06804 0.53249 0.13378 0.0
H3915 H 0.11787 0.54962 0.10846 0.0
H3916 H 0.07889 0.56156 0.0617 0.0
H3917 H 0.09761 0.56436 0.09205 0.0
H3918 H 0.06119 0.51193 0.1031 0.0
H3919 H 0.04197 0.50982 0.0731 0.0
C3920 C 0.09302 0.53866 0.15247 0.0
C3921 C 0.11211 0.54468 0.15431 0.0
C3922 C 0.0828 0.53682 0.1348 0.0
C3923 C 0.09159 0.54065 0.11871 0.0
C3924 C 0.11074 0.54682 0.12068 0.0
C3925 C 0.12093 0.54897 0.13845 0.0
C3926 C 0.07499 0.55062 0.07064 0.0
C3927 C 0.059 0.5356 0.06539 0.0
C3928 C 0.08573 0.55214 0.08791 0.0
C3929 C 0.08076 0.53844 0.09998 0.0
C3930 C 0.0651 0.52295 0.09427 0.0
C3931 C 0.05419 0.52164 0.07712 0.0
H3932 H 0.77229 0.80257 0.42296 0.0
H3933 H 0.82401 0.84431 0.42621 0.0
H3934 H 0.77349 0.79117 0.38896 0.0
H3935 H 0.82495 0.83371 0.39221 0.0
H3936 H 0.82933 0.80248 0.33306 0.0
H3937 H 0.82914 0.80964 0.36784 0.0
H3938 H 0.77026 0.79991 0.35918 0.0
H3939 H 0.77043 0.79193 0.32499 0.0
C3940 C 0.78385 0.80939 0.41635 0.0
C3941 C 0.7981 0.82423 0.4273 0.0
C3942 C 0.78456 0.80293 0.39681 0.0
C3943 C 0.79937 0.81145 0.38764 0.0
C3944 C 0.81354 0.82639 0.3987 0.0
C3945 C 0.81295 0.8326 0.41824 0.0
C3946 C 0.81637 0.80164 0.33867 0.0
C3947 C 0.79996 0.79681 0.32616 0.0
C3948 C 0.81623 0.80593 0.35862 0.0
C3949 C 0.79966 0.80553 0.36651 0.0
C3950 C 0.78328 0.80017 0.35389 0.0
C3951 C 0.78343 0.79581 0.3341 0.0
H3952 H 0.47527 0.5275 0.8583 0.0
H3953 H 0.50142 0.58935 0.87189 0.0
H3954 H 0.48875 0.52292 0.88897 0.0
H3955 H 0.51529 0.58476 0.90261 0.0
H3956 H 0.52833 0.57572 0.96464 0.0
H3957 H 0.51574 0.58051 0.93354 0.0
H3958 H 0.51082 0.51919 0.91069 0.0
H3959 H 0.5229 0.51443 0.94216 0.0
C3960 C 0.48411 0.54024 0.86761 0.0
C3961 C 0.48699 0.55889 0.86193 0.0
C3962 C 0.49204 0.53755 0.88559 0.0
C3963 C 0.50347 0.55333 0.89907 0.0
C3964 C 0.50645 0.57201 0.89333 0.0
C3965 C 0.49839 0.57472 0.87535 0.0
C3966 C 0.52455 0.56316 0.95305 0.0
C3967 C 0.52672 0.5446 0.95643 0.0
C3968 C 0.51733 0.56596 0.93481 0.0
C3969 C 0.51185 0.55034 0.91882 0.0
C3970 C 0.51431 0.53179 0.92222 0.0
C3971 C 0.52153 0.529 0.9405 0.0
H3972 H 0.76418 0.1923 0.12952 0.0
H3973 H 0.79706 0.24177 0.10984 0.0
H3974 H 0.76542 0.21275 0.1606 0.0
H3975 H 0.79942 0.26185 0.14136 0.0
H3976 H 0.79142 0.29748 0.1969 0.0
H3977 H 0.78423 0.27817 0.16434 0.0
H3978 H 0.7881 0.22584 0.18717 0.0
H3979 H 0.79428 0.24485 0.21942 0.0
C3980 C 0.77152 0.2076 0.13177 0.0
C3981 C 0.78066 0.2154 0.11731 0.0
C3982 C 0.77244 0.21925 0.14966 0.0
C3983 C 0.78271 0.23886 0.15353 0.0
C3984 C 0.79127 0.24686 0.13882 0.0
C3985 C 0.79016 0.23527 0.12085 0.0
C3986 C 0.79051 0.28181 0.19483 0.0
C3987 C 0.79339 0.27262 0.21053 0.0
C3988 C 0.7865 0.27078 0.17626 0.0
C3989 C 0.78556 0.25046 0.17318 0.0
C3990 C 0.78829 0.24135 0.18903 0.0
C3991 C 0.792 0.25228 0.20752 0.0
H3992 H 0.09179 0.54149 0.32895 0.0
H3993 H 0.14897 0.57066 0.34259 0.0
H3994 H 0.08596 0.55698 0.36016 0.0
H3995 H 0.14322 0.58692 0.3737 0.0
H3996 H 0.12244 0.5803 0.43453 0.0
H3997 H 0.13443 0.57767 0.40383 0.0
H3998 H 0.08552 0.58955 0.37698 0.0
H3999 H 0.07307 0.5909 0.40716 0.0
C4000 C 0.10306 0.55111 0.33884 0.0
C4001 C 0.12078 0.55474 0.33391 0.0
C4002 C 0.09976 0.56032 0.35644 0.0
C4003 C 0.11412 0.57356 0.3691 0.0
C4004 C 0.13195 0.57687 0.36416 0.0
C4005 C 0.13526 0.56748 0.34659 0.0
C4006 C 0.11461 0.58317 0.42221 0.0
C4007 C 0.09651 0.58484 0.42299 0.0
C4008 C 0.12148 0.5817 0.40464 0.0
C4009 C 0.11043 0.58247 0.38798 0.0
C4010 C 0.09396 0.58818 0.3896 0.0
C4011 C 0.08697 0.5893 0.40704 0.0
H4012 H 0.82227 0.82306 0.62162 0.0
H4013 H 0.77275 0.84251 0.62939 0.0
H4014 H 0.82118 0.81125 0.65192 0.0
H4015 H 0.7712 0.82973 0.65935 0.0
H4016 H 0.78244 0.82051 0.72209 0.0
H4017 H 0.78468 0.83461 0.69256 0.0
H4018 H 0.80543 0.786 0.66665 0.0
H4019 H 0.8032 0.77227 0.69594 0.0
C4020 C 0.81113 0.82493 0.62972 0.0
C4021 C 0.79771 0.83404 0.62279 0.0
C4022 C 0.81037 0.81786 0.64716 0.0
C4023 C 0.79612 0.8195 0.65839 0.0
C4024 C 0.78258 0.82842 0.65141 0.0
C4025 C 0.78334 0.83553 0.63394 0.0
C4026 C 0.78788 0.81318 0.71022 0.0
C4027 C 0.79292 0.79544 0.7115 0.0
C4028 C 0.78892 0.82106 0.69312 0.0
C4029 C 0.79528 0.81155 0.67697 0.0
C4030 C 0.8007 0.79403 0.67865 0.0
C4031 C 0.79939 0.78608 0.69552 0.0
H4032 H 0.74069 0.49752 0.50322 0.0
H4033 H 0.72064 0.45441 0.53804 0.0
H4034 H 0.71464 0.51185 0.50816 0.0
H4035 H 0.69496 0.46927 0.5436 0.0
H4036 H 0.64088 0.48731 0.52711 0.0
H4037 H 0.66702 0.47247 0.52393 0.0
H4038 H 0.7035 0.53038 0.53508 0.0
H4039 H 0.6775 0.54515 0.53763 0.0
C4040 C 0.73071 0.49114 0.51192 0.0
C4041 C 0.73259 0.47486 0.52019 0.0
C4042 C 0.71595 0.49945 0.51492 0.0
C4043 C 0.70287 0.49163 0.52627 0.0
C4044 C 0.7048 0.47542 0.53466 0.0
C4045 C 0.71956 0.46709 0.53164 0.0
C4046 C 0.6545 0.4968 0.52883 0.0
C4047 C 0.65722 0.51734 0.53256 0.0
C4048 C 0.66942 0.48834 0.5272 0.0
C4049 C 0.68719 0.50035 0.52917 0.0
C4050 C 0.68989 0.52084 0.53328 0.0
C4051 C 0.67505 0.52926 0.53493 0.0
H4052 H 0.19716 0.10944 0.52496 0.0
H4053 H 0.17339 0.13609 0.48165 0.0
H4054 H 0.16692 0.08965 0.52752 0.0
H4055 H 0.143 0.11615 0.4842 0.0
H4056 H 0.08818 0.08779 0.50667 0.0
H4057 H 0.11809 0.11011 0.50595 0.0
H4058 H 0.14395 0.06192 0.5083 0.0
H4059 H 0.11434 0.03991 0.50847 0.0
C4060 C 0.1855 0.11123 0.51602 0.0
C4061 C 0.18797 0.12449 0.50304 0.0
C4062 C 0.16804 0.09971 0.51742 0.0
C4063 C 0.15226 0.10115 0.50609 0.0
C4064 C 0.15467 0.11465 0.49331 0.0
C4065 C 0.17221 0.12598 0.4917 0.0
C4066 C 0.10023 0.08205 0.50712 0.0
C4067 C 0.09863 0.06195 0.5075 0.0
C4068 C 0.11746 0.09482 0.50661 0.0
C4069 C 0.13368 0.08795 0.50702 0.0
C4070 C 0.13201 0.06798 0.50808 0.0
C4071 C 0.11487 0.05526 0.50812 0.0
H4072 H 0.23113 0.92696 0.79425 0.0
H4073 H 0.20618 0.90319 0.73611 0.0
H4074 H 0.24671 0.90027 0.79363 0.0
H4075 H 0.22206 0.87656 0.73545 0.0
H4076 H 0.24304 0.81958 0.7435 0.0
H4077 H 0.22686 0.84612 0.74349 0.0
H4078 H 0.26996 0.88455 0.78466 0.0
H4079 H 0.28614 0.85819 0.78436 0.0
C4080 C 0.2287 0.91617 0.78119 0.0
C4081 C 0.21682 0.91817 0.76528 0.0
C4082 C 0.23805 0.90054 0.78076 0.0
C4083 C 0.23619 0.88544 0.76446 0.0
C4084 C 0.22422 0.88729 0.74856 0.0
C4085 C 0.215 0.90308 0.7489 0.0
C4086 C 0.24921 0.83365 0.75262 0.0
C4087 C 0.26631 0.83607 0.76394 0.0
C4088 C 0.23979 0.84925 0.75256 0.0
C4089 C 0.24658 0.86829 0.76414 0.0
C4090 C 0.26363 0.87055 0.77555 0.0
C4091 C 0.27319 0.85512 0.7753 0.0
H4092 H 0.40579 0.96351 0.04303 0.0
H4093 H 0.40569 0.02256 0.03428 0.0
H4094 H 0.4362 0.96742 0.0346 0.0
H4095 H 0.43703 0.02693 0.02661 0.0
H4096 H 0.47864 0.02012 0.9879 0.0
H4097 H 0.44825 0.01359 0.99815 0.0
H4098 H 0.46696 0.98182 0.04027 0.0
H4099 H 0.49656 0.98709 0.02897 0.0
C4100 C 0.41266 0.97778 0.04036 0.0
C4101 C 0.40331 0.99266 0.03892 0.0
C4102 C 0.43012 0.97994 0.0353 0.0
C4103 C 0.43863 0.99718 0.02921 0.0
C4104 C 0.43033 0.01314 0.03045 0.0
C4105 C 0.41264 0.01085 0.03522 0.0
C4106 C 0.47579 0.01082 0.99857 0.0
C4107 C 0.48969 1.00431 0.00799 0.0
C4108 C 0.45868 0.00761 1.00486 0.0
C4109 C 0.4556 0.998 0.02059 0.0
C4110 C 0.46897 0.98944 0.02826 0.0
C4111 C 0.48585 0.99231 0.02172 0.0
H4112 H 0.89288 0.6169 0.7502 0.0
H4113 H 0.8534 0.59742 0.78797 0.0
H4114 H 0.87479 0.63848 0.73996 0.0
H4115 H 0.83611 0.62059 0.77901 0.0
H4116 H 0.79992 0.64875 0.746 0.0
H4117 H 0.81722 0.62456 0.75124 0.0
H4118 H 0.86764 0.6684 0.75333 0.0
H4119 H 0.8503 0.69222 0.74677 0.0
C4120 C 0.88036 0.61733 0.75639 0.0
C4121 C 0.87435 0.60535 0.76968 0.0
C4122 C 0.87015 0.62985 0.75069 0.0
C4123 C 0.85409 0.63106 0.75864 0.0
C4124 C 0.84832 0.61956 0.7724 0.0
C4125 C 0.85835 0.60663 0.7778 0.0
C4126 C 0.81468 0.65297 0.74684 0.0
C4127 C 0.82385 0.67227 0.746 0.0
C4128 C 0.82454 0.63927 0.75021 0.0
C4129 C 0.84368 0.64479 0.75299 0.0
C4130 C 0.85286 0.66378 0.75113 0.0
C4131 C 0.84298 0.67742 0.7475 0.0
H4132 H 0.85827 0.62421 0.03353 0.0
H4133 H 0.88452 0.65528 0.99186 0.0
H4134 H 0.88403 0.60967 0.03819 0.0
H4135 H 0.90963 0.63933 0.99525 0.0
H4136 H 0.95957 0.61773 0.01314 0.0
H4137 H 0.93567 0.63587 0.01234 0.0
H4138 H 0.89745 0.5859 0.02542 0.0
H4139 H 0.92152 0.56841 0.02709 0.0
C4140 C 0.86952 0.62802 0.02531 0.0
C4141 C 0.86906 0.64102 0.01224 0.0
C4142 C 0.8843 0.61931 0.02775 0.0
C4143 C 0.89909 0.62295 0.01696 0.0
C4144 C 0.89874 0.63615 1.00404 0.0
C4145 C 0.88405 0.6451 1.0018 0.0
C4146 C 0.94605 0.61073 0.01596 0.0
C4147 C 0.9425 0.59158 0.02017 0.0
C4148 C 0.93224 0.62109 0.01538 0.0
C4149 C 0.91433 0.61249 0.01869 0.0
C4150 C 0.91098 0.5934 0.02317 0.0
C4151 C 0.92485 0.58321 0.02405 0.0
H4152 H 0.20146 0.14012 0.77913 0.0
H4153 H 0.24545 0.11735 0.7581 0.0
H4154 H 0.21821 0.17368 0.77766 0.0
H4155 H 0.26212 0.15034 0.75615 0.0
H4156 H 0.29745 0.21203 0.76294 0.0
H4157 H 0.27967 0.17985 0.76432 0.0
H4158 H 0.23155 0.20275 0.76854 0.0
H4159 H 0.25018 0.23593 0.76778 0.0
C4160 C 0.21479 0.14218 0.77421 0.0
C4161 C 0.22191 0.12548 0.76891 0.0
C4162 C 0.22457 0.16177 0.77322 0.0
C4163 C 0.24221 0.16595 0.76698 0.0
C4164 C 0.24906 0.14895 0.76151 0.0
C4165 C 0.23927 0.12947 0.76245 0.0
C4166 C 0.28304 0.21052 0.76412 0.0
C4167 C 0.27572 0.22737 0.76516 0.0
C4168 C 0.27245 0.19142 0.76475 0.0
C4169 C 0.25347 0.1874 0.76633 0.0
C4170 C 0.24594 0.20435 0.76737 0.0
C4171 C 0.25675 0.22377 0.7668 0.0
H4172 H 0.37834 0.93545 0.28715 0.0
H4173 H 0.35719 0.91975 0.22696 0.0
H4174 H 0.35881 0.90603 0.29345 0.0
H4175 H 0.33886 0.88853 0.23264 0.0
H4176 H 0.29045 0.85145 0.24968 0.0
H4177 H 0.3118 0.8813 0.2457 0.0
H4178 H 0.34947 0.87377 0.29211 0.0
H4179 H 0.32718 0.84567 0.29731 0.0
C4180 C 0.36994 0.92504 0.27515 0.0
C4181 C 0.36848 0.92975 0.25678 0.0
C4182 C 0.35884 0.9081 0.27869 0.0
C4183 C 0.34675 0.89529 0.26364 0.0
C4184 C 0.34738 0.89872 0.24466 0.0
C4185 C 0.35806 0.91622 0.24127 0.0
C4186 C 0.30285 0.85714 0.2597 0.0
C4187 C 0.30739 0.84674 0.27382 0.0
C4188 C 0.31535 0.87369 0.25703 0.0
C4189 C 0.33265 0.8794 0.26805 0.0
C4190 C 0.33629 0.86988 0.28338 0.0
C4191 C 0.32344 0.85392 0.28658 0.0
H4192 H 0.58646 0.39511 0.54547 0.0
H4193 H 0.5399 0.3962 0.57646 0.0
H4194 H 0.58169 0.42353 0.5322 0.0
H4195 H 0.535 0.42427 0.56287 0.0
H4196 H 0.52192 0.46642 0.52424 0.0
H4197 H 0.52579 0.43613 0.53465 0.0
H4198 H 0.58442 0.45805 0.54112 0.0
H4199 H 0.58054 0.48808 0.53045 0.0
C4200 C 0.57526 0.40136 0.54961 0.0
C4201 C 0.56367 0.39309 0.56226 0.0
C4202 C 0.57248 0.41774 0.54189 0.0
C4203 C 0.55795 0.4264 0.54641 0.0
C4204 C 0.54617 0.41795 0.55874 0.0
C4205 C 0.54902 0.40167 0.56657 0.0
C4206 C 0.53564 0.4647 0.52769 0.0
C4207 C 0.5509 0.47981 0.52651 0.0
C4208 C 0.53788 0.44734 0.53385 0.0
C4209 C 0.55545 0.4445 0.53889 0.0
C4210 C 0.57067 0.45947 0.53722 0.0
C4211 C 0.56844 0.47684 0.5312 0.0
H4212 H 0.42724 0.80401 0.36384 0.0
H4213 H 0.41602 0.7418 0.34105 0.0
H4214 H 0.40007 0.80624 0.34437 0.0
H4215 H 0.38804 0.74365 0.32335 0.0
H4216 H 0.34658 0.7518 0.27838 0.0
H4217 H 0.37408 0.75111 0.29776 0.0
H4218 H 0.36915 0.80221 0.33705 0.0
H4219 H 0.34177 0.80351 0.31641 0.0
C4220 C 0.41913 0.79069 0.35478 0.0
C4221 C 0.42443 0.77268 0.35429 0.0
C4222 C 0.40309 0.79195 0.34372 0.0
C4223 C 0.39139 0.77521 0.33186 0.0
C4224 C 0.39655 0.75717 0.33169 0.0
C4225 C 0.41272 0.75599 0.3424 0.0
C4226 C 0.35125 0.76295 0.29118 0.0
C4227 C 0.34169 0.77764 0.29575 0.0
C4228 C 0.36716 0.76242 0.30261 0.0
C4229 C 0.3742 0.77636 0.31953 0.0
C4230 C 0.36455 0.79116 0.3242 0.0
C4231 C 0.3486 0.79184 0.31246 0.0
H4232 H 0.09302 0.70649 0.04172 0.0
H4233 H 0.03678 0.69439 0.05319 0.0
H4234 H 0.09043 0.67152 0.03217 0.0
H4235 H 0.03361 0.65979 0.04166 0.0
H4236 H 0.03849 0.59887 0.04609 0.0
H4237 H 0.04145 0.63407 0.05299 0.0
H4238 H 0.07995 0.64189 0.01151 0.0
H4239 H 0.0779 0.60645 0.00591 0.0
C4240 C 0.08003 0.69643 0.04199 0.0
C4241 C 0.06527 0.70339 0.04869 0.0
C4242 C 0.07844 0.67629 0.03617 0.0
C4243 C 0.06192 0.6626 0.03653 0.0
C4244 C 0.04678 0.66972 0.04184 0.0
C4245 C 0.04849 0.68977 0.04809 0.0
C4246 C 0.04768 0.60822 0.03859 0.0
C4247 C 0.05798 0.60014 0.02552 0.0
C4248 C 0.04921 0.62841 0.0423 0.0
C4249 C 0.06068 0.64101 0.03255 0.0
C4250 C 0.07112 0.63279 0.01948 0.0
C4251 C 0.06996 0.61252 0.0162 0.0
H4252 H 0.11283 0.2606 0.87563 0.0
H4253 H 0.10076 0.31062 0.85401 0.0
H4254 H 0.14046 0.26427 0.86005 0.0
H4255 H 0.12893 0.31499 0.83929 0.0
H4256 H 0.16869 0.30353 0.79621 0.0
H4257 H 0.14225 0.30189 0.8135 0.0
H4258 H 0.17041 0.28192 0.85929 0.0
H4259 H 0.19684 0.28326 0.8417 0.0
C4260 C 0.11603 0.27243 0.86757 0.0
C4261 C 0.10425 0.28514 0.86599 0.0
C4262 C 0.13214 0.27474 0.85882 0.0
C4263 C 0.13713 0.2899 0.84819 0.0
C4264 C 0.12556 0.3029 0.84699 0.0
C4265 C 0.10941 0.30054 0.85571 0.0
C4266 C 0.1694 0.29901 0.81008 0.0
C4267 C 0.18504 0.29349 0.81744 0.0
C4268 C 0.15413 0.2981 0.8201 0.0
C4269 C 0.15393 0.29171 0.83793 0.0
C4270 C 0.16973 0.28653 0.84547 0.0
C4271 C 0.185 0.28734 0.83536 0.0
H4272 H 0.58998 0.74814 0.95891 0.0
H4273 H 0.54849 0.71762 0.91163 0.0
H4274 H 0.58272 0.72015 0.97515 0.0
H4275 H 0.54107 0.68965 0.9281 0.0
H4276 H 0.52286 0.65195 0.97431 0.0
H4277 H 0.52834 0.6798 0.95724 0.0
H4278 H 0.58659 0.68648 0.96967 0.0
H4279 H 0.58114 0.65918 0.98704 0.0
C4280 C 0.57939 0.73541 0.95192 0.0
C4281 C 0.56997 0.73501 0.93389 0.0
C4282 C 0.5752 0.71941 0.96125 0.0
C4283 C 0.56147 0.70268 0.95277 0.0
C4284 C 0.55165 0.70243 0.93499 0.0
C4285 C 0.55591 0.71844 0.9256 0.0
C4286 C 0.5368 0.65945 0.97335 0.0
C4287 C 0.55159 0.6535 0.98198 0.0
C4288 C 0.53993 0.67524 0.9635 0.0
C4289 C 0.55789 0.68538 0.96232 0.0
C4290 C 0.57261 0.67912 0.97063 0.0
C4291 C 0.5695 0.66335 0.98036 0.0
H4292 H 0.09751 0.77284 0.68518 0.0
H4293 H 0.08267 0.77045 0.74217 0.0
H4294 H 0.12908 0.77381 0.69676 0.0
H4295 H 0.11452 0.77123 0.75394 0.0
H4296 H 0.18049 0.78675 0.7635 0.0
H4297 H 0.14955 0.79199 0.75669 0.0
H4298 H 0.13814 0.74418 0.70818 0.0
H4299 H 0.16859 0.73909 0.71486 0.0
C4300 C 0.10123 0.7729 0.70028 0.0
C4301 C 0.08801 0.77139 0.71288 0.0
C4302 C 0.11915 0.77346 0.70688 0.0
C4303 C 0.12398 0.77236 0.72613 0.0
C4304 C 0.11097 0.77213 0.73906 0.0
C4305 C 0.0929 0.77154 0.73238 0.0
C4306 C 0.17116 0.77731 0.75158 0.0
C4307 C 0.17676 0.76274 0.73945 0.0
C4308 C 0.15364 0.7803 0.7477 0.0
C4309 C 0.14184 0.76873 0.73171 0.0
C4310 C 0.14725 0.75357 0.72031 0.0
C4311 C 0.16456 0.75063 0.72413 0.0
H4312 H 0.11641 0.42299 0.46384 0.0
H4313 H 0.07097 0.41889 0.42105 0.0
H4314 H 0.10922 0.45155 0.48269 0.0
H4315 H 0.06427 0.44804 0.43908 0.0
H4316 H 0.04157 0.48056 0.48781 0.0
H4317 H 0.05108 0.45525 0.46672 0.0
H4318 H 0.10778 0.48443 0.48654 0.0
H4319 H 0.09804 0.50886 0.50862 0.0
C4320 C 0.10526 0.42869 0.45825 0.0
C4321 C 0.0942 0.41896 0.44117 0.0
C4322 C 0.10112 0.44503 0.46895 0.0
C4323 C 0.086 0.45198 0.46252 0.0
C4324 C 0.0757 0.44282 0.44473 0.0
C4325 C 0.07965 0.42632 0.43427 0.0
C4326 C 0.05605 0.48149 0.48756 0.0
C4327 C 0.06911 0.49643 0.49983 0.0
C4328 C 0.06155 0.46714 0.47535 0.0
C4329 C 0.08025 0.46781 0.47485 0.0
C4330 C 0.09329 0.48323 0.4868 0.0
C4331 C 0.08775 0.49729 0.49936 0.0
H4332 H 0.43855 0.28867 0.22815 0.0
H4333 H 0.40476 0.23373 0.19613 0.0
H4334 H 0.41314 0.29392 0.24534 0.0
H4335 H 0.37987 0.23813 0.21437 0.0
H4336 H 0.33297 0.26544 0.22643 0.0
H4337 H 0.35982 0.25887 0.21294 0.0
H4338 H 0.39281 0.28471 0.26767 0.0
H4339 H 0.36572 0.2925 0.28067 0.0
C4340 C 0.42576 0.27758 0.22505 0.0
C4341 C 0.42343 0.261 0.21059 0.0
C4342 C 0.41132 0.28044 0.23508 0.0
C4343 C 0.39444 0.26658 0.23097 0.0
C4344 C 0.3926 0.2493 0.21749 0.0
C4345 C 0.40692 0.24662 0.20724 0.0
C4346 C 0.34601 0.26955 0.23551 0.0
C4347 C 0.34755 0.27907 0.25451 0.0
C4348 C 0.36132 0.26567 0.22791 0.0
C4349 C 0.37835 0.27082 0.2394 0.0
C4350 C 0.37985 0.28058 0.2585 0.0
C4351 C 0.36448 0.28492 0.26598 0.0
H4352 H 0.62101 0.54797 0.38024 0.0
H4353 H 0.59153 0.48734 0.36369 0.0
H4354 H 0.60664 0.55035 0.40972 0.0
H4355 H 0.57765 0.48956 0.39331 0.0
H4356 H 0.54181 0.50047 0.44112 0.0
H4357 H 0.55683 0.49868 0.41232 0.0
H4358 H 0.60219 0.54522 0.44153 0.0
H4359 H 0.58673 0.547 0.47077 0.0
C4360 C 0.61148 0.53498 0.38258 0.0
C4361 C 0.60789 0.51737 0.36866 0.0
C4362 C 0.6032 0.53634 0.40003 0.0
C4363 C 0.5906 0.52023 0.40481 0.0
C4364 C 0.58693 0.50267 0.39084 0.0
C4365 C 0.59528 0.50127 0.37348 0.0
C4366 C 0.55511 0.51032 0.44173 0.0
C4367 C 0.5628 0.52373 0.459 0.0
C4368 C 0.56397 0.50921 0.42483 0.0
C4369 C 0.58122 0.52163 0.42374 0.0
C4370 C 0.58901 0.53523 0.44107 0.0
C4371 C 0.58012 0.53619 0.45823 0.0
H4372 H 0.29777 0.8786 0.09556 0.0
H4373 H 0.34436 0.85965 0.07523 0.0
H4374 H 0.30388 0.86778 0.12568 0.0
H4375 H 0.35037 0.84839 0.10549 0.0
H4376 H 0.3665 0.85527 0.1709 0.0
H4377 H 0.36063 0.86452 0.13946 0.0
H4378 H 0.30312 0.83714 0.13711 0.0
H4379 H 0.30892 0.82878 0.16852 0.0
C4380 C 0.30903 0.87162 0.09743 0.0
C4381 C 0.32055 0.86969 0.08325 0.0
C4382 C 0.31256 0.86553 0.11461 0.0
C4383 C 0.32757 0.85732 0.11772 0.0
C4384 C 0.33886 0.85493 0.10335 0.0
C4385 C 0.33537 0.86117 0.08614 0.0
C4386 C 0.35266 0.85167 0.16364 0.0
C4387 C 0.33805 0.84201 0.17203 0.0
C4388 C 0.34932 0.85663 0.14572 0.0
C4389 C 0.33142 0.85157 0.13613 0.0
C4390 C 0.31694 0.84154 0.14449 0.0
C4391 C 0.32022 0.83691 0.16241 0.0
H4392 H 1.00536 0.52842 0.86274 0.0
H4393 H 0.96124 0.54097 0.89324 0.0
H4394 H 0.02389 0.5302 0.89318 0.0
H4395 H 0.97921 0.54171 0.92372 0.0
H4396 H 0.02393 0.56284 0.97465 0.0
H4397 H 1.00528 0.56152 0.94437 0.0
H4398 H 0.02516 0.51201 0.91853 0.0
H4399 H 0.04421 0.51403 0.94872 0.0
C4400 C 0.99972 0.53147 0.87607 0.0
C4401 C 0.98215 0.53473 0.87601 0.0
C4402 C 0.01016 0.53232 0.8934 0.0
C4403 C 1.00293 0.53604 0.91078 0.0
C4404 C 0.98522 0.53917 0.91056 0.0
C4405 C 0.97494 0.53869 0.89324 0.0
C4406 C 0.02422 0.5518 0.96236 0.0
C4407 C 0.03536 0.53864 0.96352 0.0
C4408 C 0.01353 0.5509 0.94516 0.0
C4409 C 0.01388 0.53672 0.9291 0.0
C4410 C 0.02491 0.52333 0.93057 0.0
C4411 C 0.03567 0.52435 0.94774 0.0
H4412 H 0.26639 0.25744 0.59892 0.0
H4413 H 0.32139 0.25023 0.61018 0.0
H4414 H 0.26553 0.26628 0.63309 0.0
H4415 H 0.32126 0.26113 0.64411 0.0
H4416 H 0.30944 0.2553 0.70389 0.0
H4417 H 0.31029 0.24917 0.66966 0.0
H4418 H 0.2733 0.2869 0.66232 0.0
H4419 H 0.27169 0.29204 0.69692 0.0
C4420 C 0.2784 0.25789 0.60862 0.0
C4421 C 0.29378 0.25254 0.60156 0.0
C4422 C 0.27802 0.26335 0.62836 0.0
C4423 C 0.29316 0.26406 0.6417 0.0
C4424 C 0.30901 0.2601 0.63452 0.0
C4425 C 0.30925 0.2542 0.61482 0.0
C4426 C 0.30136 0.26221 0.69497 0.0
C4427 C 0.29045 0.27413 0.70315 0.0
C4428 C 0.30205 0.25891 0.67522 0.0
C4429 C 0.29214 0.26777 0.66292 0.0
C4430 C 0.28102 0.2796 0.67113 0.0
C4431 C 0.28006 0.28259 0.69101 0.0
H4432 H 0.63186 0.52704 0.15717 0.0
H4433 H 0.57808 0.50563 0.1723 0.0
H4434 H 0.61841 0.53191 0.12631 0.0
H4435 H 0.56449 0.51067 0.14126 0.0
H4436 H 0.54604 0.54034 0.08966 0.0
H4437 H 0.55847 0.5347 0.121 0.0
H4438 H 0.60268 0.51621 0.09503 0.0
H4439 H 0.58994 0.5213 0.06385 0.0
C4440 C 0.61711 0.52339 0.15406 0.0
C4441 C 0.60631 0.51594 0.16778 0.0
C4442 C 0.60928 0.52607 0.13604 0.0
C4443 C 0.59013 0.52181 0.13074 0.0
C4444 C 0.57924 0.51439 0.14447 0.0
C4445 C 0.58712 0.51132 0.16242 0.0
C4446 C 0.55845 0.53513 0.09063 0.0
C4447 C 0.56691 0.5314 0.07391 0.0
C4448 C 0.5656 0.53171 0.10874 0.0
C4449 C 0.58185 0.52498 0.11111 0.0
C4450 C 0.59033 0.52153 0.09431 0.0
C4451 C 0.58291 0.52439 0.07619 0.0
H4452 H 0.33214 0.87544 0.90159 0.0
H4453 H 0.28413 0.83848 0.9172 0.0
H4454 H 0.32746 0.85433 0.87018 0.0
H4455 H 0.27962 0.81716 0.88602 0.0
H4456 H 0.26229 0.8009 0.82188 0.0
H4457 H 0.26948 0.82005 0.85429 0.0
H4458 H 0.32694 0.82275 0.85189 0.0
H4459 H 0.31956 0.80407 0.8191 0.0
C4460 C 0.3208 0.86257 0.89842 0.0
C4461 C 0.30829 0.85876 0.91164 0.0
C4462 C 0.31813 0.85047 0.88045 0.0
C4463 C 0.30296 0.83429 0.87548 0.0
C4464 C 0.29113 0.82984 0.88921 0.0
C4465 C 0.29373 0.842 0.90707 0.0
C4466 C 0.27643 0.80561 0.82837 0.0
C4467 C 0.29043 0.80132 0.81812 0.0
C4468 C 0.28056 0.81643 0.84694 0.0
C4469 C 0.29878 0.82277 0.85574 0.0
C4470 C 0.31281 0.81832 0.84541 0.0
C4471 C 0.30864 0.80773 0.82667 0.0
H4472 H 0.96584 0.53626 0.68488 0.0
H4473 H 0.98759 0.49136 0.70684 0.0
H4474 H 0.97019 0.5226 0.65252 0.0
H4475 H 0.99059 0.4767 0.6744 0.0
H4476 H 0.01831 0.48078 0.61888 0.0
H4477 H 0.0085 0.48304 0.65015 0.0
H4478 H 0.95791 0.49481 0.62729 0.0
H4479 H 0.96837 0.49348 0.59568 0.0
C4480 C 0.97181 0.52365 0.68275 0.0
C4481 C 0.97645 0.51483 0.69819 0.0
C4482 C 0.97376 0.51543 0.66421 0.0
C4483 C 0.98013 0.49815 0.66087 0.0
C4484 C 0.98549 0.48989 0.67649 0.0
C4485 C 0.98389 0.49833 0.69502 0.0
C4486 C 1.00462 0.48269 0.62017 0.0
C4487 C 0.99433 0.48766 0.60508 0.0
C4488 C 0.99902 0.48415 0.63827 0.0
C4489 C 0.9828 0.49 0.64129 0.0
C4490 C 0.97086 0.4911 0.6254 0.0
C4491 C 0.97664 0.48996 0.60727 0.0
H4492 H 0.32551 0.24684 0.41039 0.0
H4493 H 0.26675 0.23771 0.40147 0.0
H4494 H 0.32755 0.2581 0.3801 0.0
H4495 H 0.26897 0.25098 0.37214 0.0
H4496 H 0.27514 0.25852 0.31023 0.0
H4497 H 0.27272 0.24647 0.34051 0.0
H4498 H 0.32723 0.28162 0.36228 0.0
H4499 H 0.32984 0.29247 0.33172 0.0
C4500 C 0.31294 0.24723 0.4021 0.0
C4501 C 0.29592 0.24095 0.4087 0.0
C4502 C 0.31415 0.25418 0.38466 0.0
C4503 C 0.29844 0.25559 0.37319 0.0
C4504 C 0.28146 0.24983 0.38004 0.0
C4505 C 0.28021 0.2425 0.39732 0.0
C4506 C 0.28665 0.26344 0.32146 0.0
C4507 C 0.30273 0.27631 0.3184 0.0
C4508 C 0.28523 0.25673 0.33905 0.0
C4509 C 0.29979 0.26287 0.35427 0.0
C4510 C 0.31579 0.27597 0.35108 0.0
C4511 C 0.31727 0.28241 0.33344 0.0
H4512 H 0.34781 0.58524 0.48006 0.0
H4513 H 0.37198 0.61103 0.53835 0.0
H4514 H 0.37474 0.57264 0.47452 0.0
H4515 H 0.39844 0.59757 0.53315 0.0
H4516 H 0.45083 0.58691 0.51289 0.0
H4517 H 0.42475 0.60173 0.51581 0.0
H4518 H 0.38881 0.54783 0.48427 0.0
H4519 H 0.41471 0.5331 0.48134 0.0
C4520 C 0.35887 0.58816 0.49169 0.0
C4521 C 0.35782 0.59909 0.50965 0.0
C4522 C 0.3742 0.58083 0.48857 0.0
C4523 C 0.38872 0.5842 0.50339 0.0
C4524 C 0.38759 0.59501 0.52136 0.0
C4525 C 0.37231 0.60242 0.52445 0.0
C4526 C 0.43735 0.57826 0.5066 0.0
C4527 C 0.43481 0.55881 0.49697 0.0
C4528 C 0.42244 0.58673 0.50826 0.0
C4529 C 0.40474 0.57588 0.50038 0.0
C4530 C 0.4023 0.55665 0.49029 0.0
C4531 C 0.41717 0.54821 0.48862 0.0
H4532 H 0.90851 0.96595 0.55647 0.0
H4533 H 0.90741 0.93683 0.49818 0.0
H4534 H 0.93903 0.98518 0.55572 0.0
H4535 H 0.93774 0.95726 0.497 0.0
H4536 H 1.00008 0.98882 0.50554 0.0
H4537 H 0.97028 0.96614 0.50606 0.0
H4538 H 0.95503 0.01155 0.54456 0.0
H4539 H 0.98442 0.03334 0.54453 0.0
C4540 C 0.91466 0.96348 0.54341 0.0
C4541 C 0.905 0.94948 0.52744 0.0
C4542 C 0.93233 0.97493 0.54285 0.0
C4543 C 0.94122 0.97323 0.52619 0.0
C4544 C 0.93169 0.95913 0.51021 0.0
C4545 C 0.91397 0.9475 0.51082 0.0
C4546 C 0.99046 0.99374 0.51436 0.0
C4547 C 0.99498 0.01296 0.52521 0.0
C4548 C 0.97317 0.98079 0.51452 0.0
C4549 C 0.95991 0.98665 0.52557 0.0
C4550 C 0.96467 1.00593 0.53625 0.0
C4551 C 0.98173 0.01866 0.5361 0.0
H4552 H 0.88166 0.16679 0.29493 0.0
H4553 H 0.86678 0.15155 0.23356 0.0
H4554 H 0.86616 0.19352 0.2958 0.0
H4555 H 0.85152 0.17827 0.23458 0.0
H4556 H 0.81164 0.21992 0.24063 0.0
H4557 H 0.82771 0.19346 0.23994 0.0
H4558 H 0.86215 0.22496 0.29183 0.0
H4559 H 0.84617 0.25171 0.29211 0.0
C4560 C 0.87528 0.16877 0.28141 0.0
C4561 C 0.87609 0.15581 0.26413 0.0
C4562 C 0.86618 0.18467 0.28196 0.0
C4563 C 0.85702 0.18892 0.2653 0.0
C4564 C 0.85783 0.17606 0.24806 0.0
C4565 C 0.86698 0.16026 0.24748 0.0
C4566 C 0.82269 0.22142 0.25196 0.0
C4567 C 0.8273 0.23862 0.26637 0.0
C4568 C 0.8322 0.20595 0.25152 0.0
C4569 C 0.84678 0.20621 0.26578 0.0
C4570 C 0.85122 0.2234 0.2804 0.0
C4571 C 0.84197 0.23915 0.28053 0.0
H4572 H 0.68484 0.08161 0.98289 0.0
H4573 H 0.69703 0.06765 0.03905 0.0
H4574 H 0.65262 0.06993 0.98429 0.0
H4575 H 0.66426 0.05618 0.0406 0.0
H4576 H 0.60817 0.07734 0.04321 0.0
H4577 H 0.64081 0.0782 0.04275 0.0
H4578 H 0.62837 0.04093 0.98676 0.0
H4579 H 0.59668 0.04121 0.98654 0.0
C4580 C 0.68067 0.07525 0.99518 0.0
C4581 C 0.69331 0.07569 0.01098 0.0
C4582 C 0.6622 0.06868 0.99605 0.0
C4583 C 0.65618 0.06248 0.01269 0.0
C4584 C 0.66879 0.06122 0.02779 0.0
C4585 C 0.68738 0.06766 0.02685 0.0
C4586 C 0.61259 0.06955 0.03082 0.0
C4587 C 0.60008 0.0597 0.01472 0.0
C4588 C 0.63104 0.06967 0.03072 0.0
C4589 C 0.63682 0.05953 0.01471 0.0
C4590 C 0.62414 0.04895 0.99915 0.0
C4591 C 0.60602 0.04934 0.999 0.0
H4592 H 0.23469 0.48956 0.28647 0.0
H4593 H 0.20857 0.45069 0.23366 0.0
H4594 H 0.25025 0.46473 0.2948 0.0
H4595 H 0.22453 0.42598 0.24168 0.0
H4596 H 0.24045 0.37924 0.27186 0.0
H4597 H 0.22402 0.40418 0.26582 0.0
H4598 H 0.27407 0.4494 0.28302 0.0
H4599 H 0.29042 0.42464 0.28901 0.0
C4600 C 0.23246 0.47572 0.27662 0.0
C4601 C 0.22056 0.47186 0.25947 0.0
C4602 C 0.24135 0.4616 0.28133 0.0
C4603 C 0.23842 0.44347 0.26892 0.0
C4604 C 0.22675 0.43977 0.25159 0.0
C4605 C 0.21788 0.45393 0.24687 0.0
C4606 C 0.24785 0.39454 0.27445 0.0
C4607 C 0.26666 0.40008 0.28087 0.0
C4608 C 0.2385 0.40874 0.27095 0.0
C4609 C 0.24787 0.4286 0.27384 0.0
C4610 C 0.26652 0.43418 0.28089 0.0
C4611 C 0.27585 0.42003 0.28437 0.0
H4612 H 0.20958 0.421 0.03963 0.0
H4613 H 0.23302 0.4465 0.99342 0.0
H4614 H 0.18437 0.43691 0.03588 0.0
H4615 H 0.2074 0.46169 0.98903 0.0
H4616 H 0.17136 0.50514 1.00184 0.0
H4617 H 0.19539 0.48746 1.00314 0.0
H4618 H 0.15742 0.43791 0.01712 0.0
H4619 H 0.13339 0.45584 0.01608 0.0
C4620 C 0.20936 0.42998 0.02863 0.0
C4621 C 0.22351 0.43255 0.01696 0.0
C4622 C 0.19471 0.43892 0.02627 0.0
C4623 C 0.19371 0.45074 0.01216 0.0
C4624 C 0.20772 0.453 1.00026 0.0
C4625 C 0.22237 0.44406 1.00262 0.0
C4626 C 0.16801 0.49036 1.00491 0.0
C4627 C 0.15035 0.48201 0.00891 0.0
C4628 C 0.18187 0.48014 0.00565 0.0
C4629 C 0.17853 0.46117 0.01034 0.0
C4630 C 0.16073 0.45261 0.01386 0.0
C4631 C 0.14687 0.4629 0.01322 0.0
H4632 H 0.88529 0.94492 0.28666 0.0
H4633 H 0.85221 0.94351 0.23367 0.0
H4634 H 0.86881 0.91114 0.28737 0.0
H4635 H 0.83629 0.90987 0.2341 0.0
H4636 H 0.79628 0.85611 0.24691 0.0
H4637 H 0.81445 0.88869 0.24631 0.0
H4638 H 0.86069 0.87543 0.27681 0.0
H4639 H 0.84196 0.84211 0.27744 0.0
C4640 C 0.87453 0.93767 0.27507 0.0
C4641 C 0.87049 0.94789 0.26009 0.0
C4642 C 0.86504 0.91782 0.27539 0.0
C4643 C 0.85072 0.90692 0.26088 0.0
C4644 C 0.8468 0.91715 0.24591 0.0
C4645 C 0.85633 0.93685 0.24552 0.0
C4646 C 0.8104 0.85979 0.25335 0.0
C4647 C 0.8173 0.84568 0.26197 0.0
C4648 C 0.82109 0.87889 0.25293 0.0
C4649 C 0.83956 0.88557 0.26135 0.0
C4650 C 0.84666 0.87147 0.27009 0.0
C4651 C 0.83587 0.85198 0.27028 0.0
H4652 H 0.76123 0.1261 0.75963 0.0
H4653 H 0.72969 0.1522 0.79969 0.0
H4654 H 0.7795 0.15858 0.75849 0.0
H4655 H 0.74914 0.18429 0.79997 0.0
H4656 H 0.74617 0.22545 0.75807 0.0
H4657 H 0.74021 0.194 0.76888 0.0
H4658 H 0.79729 0.19317 0.7688 0.0
H4659 H 0.80292 0.22445 0.75709 0.0
C4660 C 0.75887 0.13865 0.76898 0.0
C4661 C 0.74338 0.1369 0.77873 0.0
C4662 C 0.76951 0.15719 0.76854 0.0
C4663 C 0.76487 0.17373 0.77835 0.0
C4664 C 0.75233 0.17154 0.79173 0.0
C4665 C 0.74127 0.15311 0.79165 0.0
C4666 C 0.75716 0.21803 0.75964 0.0
C4667 C 0.77482 0.22678 0.75667 0.0
C4668 C 0.75399 0.20049 0.76639 0.0
C4669 C 0.7686 0.19188 0.7706 0.0
C4670 C 0.786 0.19989 0.76606 0.0
C4671 C 0.7891 0.21738 0.759 0.0
loop_
_geom_bond_atom_site_label_1
_geom_bond_atom_site_label_2
_geom_bond_distance
_geom_bond_site_symmetry_2
_ccdc_geom_bond_type
Li0 N17 1.990 . S
Li0 O60 1.956 . S
Li0 O61 1.970 . S
Li0 O62 1.961 . S
Li1 N25 1.990 . S
Li1 O60 1.970 . S
Li1 O61 1.956 . S
Li1 O63 1.961 . S
Li2 N47 1.990 . S
Li2 O60 1.961 . S
Li2 O62 1.956 . S
Li2 O63 1.970 . S
Li3 N53 1.990 . S
Li3 O61 1.961 . S
Li3 O62 1.970 . S
Li3 O63 1.956 . S
C4 C6 1.348 . S
C4 C7 1.356 . S
C4 O60 1.325 . S
N5 C8 1.314 . S
N5 C9 1.279 . S
C6 C4 1.348 . S
C6 C8 1.353 . S
C6 H64 0.929 . S
C7 C4 1.356 . S
C7 C9 1.358 . S
C7 H65 0.930 . S
C8 N5 1.314 . S
C8 C6 1.353 . S
C8 H66 0.930 . S
C9 N5 1.279 . S
C9 C7 1.358 . S
C9 H67 0.930 . S
C10 C13 1.348 . S
C10 C14 1.356 . S
C10 O61 1.325 . S
C11 N12 1.279 . S
C11 C14 1.358 . S
C11 H68 0.930 . S
N12 C11 1.279 . S
N12 C15 1.314 . S
C13 C10 1.348 . S
C13 C15 1.353 . S
C13 H69 0.929 . S
C14 C10 1.356 . S
C14 C11 1.358 . S
C14 H70 0.930 . S
C15 N12 1.314 . S
C15 C13 1.353 . S
C15 H71 0.930 . S
C16 N17 1.314 . S
C16 C21 1.353 . S
C16 H22 0.930 . S
N17 Li0 1.990 . S
N17 C16 1.314 . S
N17 C19 1.279 . S
C18 C19 1.358 . S
C18 C20 1.356 . S
C18 H72 0.930 . S
C19 N17 1.279 . S
C19 C18 1.358 . S
C19 H23 0.930 . S
C20 C18 1.356 . S
C20 C21 1.348 . S
C21 C16 1.353 . S
C21 C20 1.348 . S
C21 H73 0.929 . S
H22 C16 0.930 . S
H23 C19 0.930 . S
C24 N25 1.314 . S
C24 C26 1.353 . S
C24 H30 0.930 . S
N25 Li1 1.990 . S
N25 C24 1.314 . S
N25 C28 1.279 . S
C26 C24 1.353 . S
C26 C29 1.348 . S
C26 H74 0.929 . S
C27 C28 1.358 . S
C27 C29 1.356 . S
C27 H75 0.930 . S
C28 N25 1.279 . S
C28 C27 1.358 . S
C28 H31 0.930 . S
C29 C26 1.348 . S
C29 C27 1.356 . S
H30 C24 0.930 . S
H31 C28 0.930 . S
C32 C34 1.348 . S
C32 C35 1.356 . S
C32 O62 1.325 . S
N33 C36 1.314 . S
N33 C37 1.279 . S
C34 C32 1.348 . S
C34 C36 1.353 . S
C34 H76 0.929 . S
C35 C32 1.356 . S
C35 C37 1.358 . S
C35 H77 0.930 . S
C36 N33 1.314 . S
C36 C34 1.353 . S
C36 H78 0.930 . S
C37 N33 1.279 . S
C37 C35 1.358 . S
C37 H79 0.930 . S
C38 C39 1.348 . S
C38 C40 1.356 . S
C38 O63 1.325 . S
C39 C38 1.348 . S
C39 C41 1.353 . S
C39 H80 0.929 . S
C40 C38 1.356 . S
C40 C42 1.358 . S
C40 H81 0.930 . S
C41 C39 1.353 . S
C41 N43 1.314 . S
C41 H82 0.930 . S
C42 C40 1.358 . S
C42 N43 1.279 . S
C42 H83 0.930 . S
N43 C41 1.314 . S
N43 C42 1.279 . S
C44 C46 1.353 . S
C44 N47 1.314 . S
C44 H50 0.930 . S
C45 N47 1.279 . S
C45 C48 1.358 . S
C45 H51 0.930 . S
C46 C44 1.353 . S
C46 C49 1.348 . S
C46 H84 0.929 . S
N47 Li2 1.990 . S
N47 C44 1.314 . S
N47 C45 1.279 . S
C48 C45 1.358 . S
C48 C49 1.356 . S
C48 H85 0.930 . S
C49 C46 1.348 . S
C49 C48 1.356 . S
H50 C44 0.930 . S
H51 C45 0.930 . S
C52 N53 1.314 . S
C52 C54 1.353 . S
C52 H58 0.930 . S
N53 Li3 1.990 . S
N53 C52 1.314 . S
N53 C56 1.279 . S
C54 C52 1.353 . S
C54 C57 1.348 . S
C54 H86 0.929 . S
C55 C56 1.358 . S
C55 C57 1.356 . S
C55 H87 0.930 . S
C56 N53 1.279 . S
C56 C55 1.358 . S
C56 H59 0.930 . S
C57 C54 1.348 . S
C57 C55 1.356 . S
H58 C52 0.930 . S
H59 C56 0.930 . S
O60 Li0 1.956 . S
O60 Li1 1.970 . S
O60 Li2 1.961 . S
O60 C4 1.325 . S
O61 Li0 1.970 . S
O61 Li1 1.956 . S
O61 Li3 1.961 . S
O61 C10 1.325 . S
O62 Li0 1.961 . S
O62 Li2 1.956 . S
O62 Li3 1.970 . S
O62 C32 1.325 . S
O63 Li1 1.961 . S
O63 Li2 1.970 . S
O63 Li3 1.956 . S
O63 C38 1.325 . S
H64 C6 0.929 . S
H65 C7 0.930 . S
H66 C8 0.930 . S
H67 C9 0.930 . S
H68 C11 0.930 . S
H69 C13 0.929 . S
H70 C14 0.930 . S
H71 C15 0.930 . S
H72 C18 0.930 . S
H73 C21 0.929 . S
H74 C26 0.929 . S
H75 C27 0.930 . S
H76 C34 0.929 . S
H77 C35 0.930 . S
H78 C36 0.930 . S
H79 C37 0.930 . S
H80 C39 0.929 . S
H81 C40 0.930 . S
H82 C41 0.930 . S
H83 C42 0.930 . S
H84 C46 0.929 . S
H85 C48 0.930 . S
H86 C54 0.929 . S
H87 C55 0.930 . S
Li88 N105 1.990 . S
Li88 O148 1.956 . S
Li88 O149 1.970 . S
Li88 O150 1.961 1_455 S
Li89 N113 1.990 . S
Li89 O148 1.970 . S
Li89 O149 1.956 . S
Li89 O151 1.930 1_455 S
Li90 N135 1.990 . S
Li90 O148 1.961 1_655 S
Li90 O150 1.956 . S
Li90 O151 1.972 . S
Li91 N141 1.990 . S
Li91 O149 1.961 1_655 S
Li91 O150 1.970 . S
Li91 O151 2.000 . S
C92 C94 1.348 . S
C92 C95 1.356 . S
C92 O148 1.325 . S
N93 C96 1.314 . S
N93 C97 1.279 . S
C94 C92 1.348 . S
C94 C96 1.353 . S
C94 H152 0.929 . S
C95 C92 1.356 . S
C95 C97 1.358 . S
C95 H153 0.930 . S
C96 N93 1.314 . S
C96 C94 1.353 . S
C96 H154 0.930 . S
C97 N93 1.279 . S
C97 C95 1.358 . S
C97 H155 0.930 . S
C98 C101 1.348 . S
C98 C102 1.356 . S
C98 O149 1.325 . S
C99 N100 1.279 . S
C99 C102 1.358 . S
C99 H156 0.930 . S
N100 C99 1.279 . S
N100 C103 1.314 . S
C101 C98 1.348 . S
C101 C103 1.353 . S
C101 H157 0.929 . S
C102 C98 1.356 . S
C102 C99 1.358 . S
C102 H158 0.935 . S
C103 N100 1.314 . S
C103 C101 1.353 . S
C103 H159 0.930 . S
C104 N105 1.314 1_655 S
C104 C109 1.353 . S
C104 H110 0.930 . S
N105 Li88 1.990 . S
N105 C104 1.314 1_455 S
N105 C107 1.279 . S
C106 C107 1.358 . S
C106 C108 1.356 . S
C106 H160 0.930 . S
C107 N105 1.279 . S
C107 C106 1.358 . S
C107 H111 0.930 . S
C108 C106 1.356 . S
C108 C109 1.348 1_455 S
C109 C104 1.353 . S
C109 C108 1.348 1_655 S
C109 H161 0.929 . S
H110 C104 0.930 . S
H111 C107 0.930 . S
C112 N113 1.314 . S
C112 C114 1.353 . S
C112 H118 0.930 . S
N113 Li89 1.990 . S
N113 C112 1.314 . S
N113 C116 1.279 . S
C114 C112 1.353 . S
C114 C117 1.348 . S
C114 H162 0.929 . S
C115 C116 1.358 . S
C115 C117 1.356 . S
C115 H163 0.930 . S
C116 N113 1.279 . S
C116 C115 1.358 . S
C116 H119 0.930 . S
C117 C114 1.348 . S
C117 C115 1.356 . S
H118 C112 0.930 . S
H119 C116 0.930 . S
C120 C122 1.348 . S
C120 C123 1.356 . S
C120 O150 1.325 . S
N121 C124 1.314 . S
N121 C125 1.279 . S
C122 C120 1.348 . S
C122 C124 1.353 . S
C122 H164 0.929 . S
C123 C120 1.356 . S
C123 C125 1.358 . S
C123 H165 0.930 . S
C124 N121 1.314 . S
C124 C122 1.353 . S
C124 H166 0.930 . S
C125 N121 1.279 . S
C125 C123 1.358 . S
C125 H167 0.930 . S
C126 C127 1.348 . S
C126 C128 1.356 1_655 S
C126 O151 1.323 . S
C127 C126 1.348 . S
C127 C129 1.353 . S
C127 H168 0.929 . S
C128 C126 1.356 1_455 S
C128 C130 1.357 . S
C128 H169 0.930 . S
C129 C127 1.353 . S
C129 N131 1.314 . S
C129 H170 0.930 . S
C130 C128 1.357 . S
C130 N131 1.274 1_455 S
C130 H171 0.942 . S
N131 C129 1.314 . S
N131 C130 1.274 1_655 S
C132 C134 1.353 . S
C132 N135 1.314 1_455 S
C132 H138 0.930 . S
C133 N135 1.279 . S
C133 C136 1.358 . S
C133 H139 0.930 . S
C134 C132 1.353 . S
C134 C137 1.348 1_455 S
C134 H172 0.929 . S
N135 Li90 1.990 . S
N135 C132 1.314 1_655 S
N135 C133 1.279 . S
C136 C133 1.358 . S
C136 C137 1.356 . S
C136 H173 0.930 . S
C137 C134 1.348 1_655 S
C137 C136 1.356 . S
H138 C132 0.930 . S
H139 C133 0.930 . S
C140 N141 1.314 . S
C140 C142 1.353 . S
C140 H146 0.930 . S
N141 Li91 1.990 . S
N141 C140 1.314 . S
N141 C144 1.279 . S
C142 C140 1.353 . S
C142 C145 1.348 . S
C142 H174 0.929 . S
C143 C144 1.358 . S
C143 C145 1.356 . S
C143 H175 0.930 . S
C144 N141 1.279 . S
C144 C143 1.358 . S
C144 H147 0.930 . S
C145 C142 1.348 . S
C145 C143 1.356 . S
H146 C140 0.930 . S
H147 C144 0.930 . S
O148 Li88 1.956 . S
O148 Li89 1.970 . S
O148 Li90 1.961 1_455 S
O148 C92 1.325 . S
O149 Li88 1.970 . S
O149 Li89 1.956 . S
O149 Li91 1.961 1_455 S
O149 C98 1.325 . S
O150 Li88 1.961 1_655 S
O150 Li90 1.956 . S
O150 Li91 1.970 . S
O150 C120 1.325 . S
O151 Li89 1.930 1_655 S
O151 Li90 1.972 . S
O151 Li91 2.000 . S
O151 C126 1.323 . S
H152 C94 0.929 . S
H153 C95 0.930 . S
H154 C96 0.930 . S
H155 C97 0.930 . S
H156 C99 0.930 . S
H157 C101 0.929 . S
H158 C102 0.935 . S
H159 C103 0.930 . S
H160 C106 0.930 . S
H161 C109 0.929 . S
H162 C114 0.929 . S
H163 C115 0.930 . S
H164 C122 0.929 . S
H165 C123 0.930 . S
H166 C124 0.930 . S
H167 C125 0.930 . S
H168 C127 0.929 . S
H169 C128 0.930 . S
H170 C129 0.930 . S
H171 C130 0.942 . S
H172 C134 0.929 . S
H173 C136 0.930 . S
H174 C142 0.929 . S
H175 C143 0.930 . S
Li176 N193 1.990 . S
Li176 O236 1.956 . S
Li176 O237 1.970 . S
Li176 O238 1.961 . S
Li177 N201 1.990 . S
Li177 O236 1.970 . S
Li177 O237 1.956 . S
Li177 O239 1.961 . S
Li178 N223 1.990 . S
Li178 O236 1.961 . S
Li178 O238 1.956 . S
Li178 O239 1.970 . S
Li179 N229 1.990 . S
Li179 O237 1.961 . S
Li179 O238 1.970 . S
Li179 O239 1.956 . S
C180 C182 1.348 . S
C180 C183 1.356 . S
C180 O236 1.325 . S
N181 C184 1.314 . S
N181 C185 1.279 . S
C182 C180 1.348 . S
C182 C184 1.353 . S
C182 H240 0.929 . S
C183 C180 1.356 . S
C183 C185 1.358 . S
C183 H241 0.930 . S
C184 N181 1.314 . S
C184 C182 1.353 . S
C184 H242 0.930 . S
C185 N181 1.279 . S
C185 C183 1.358 . S
C185 H243 0.930 . S
C186 C189 1.348 . S
C186 C190 1.356 . S
C186 O237 1.325 . S
C187 N188 1.279 . S
C187 C190 1.358 . S
C187 H244 0.930 . S
N188 C187 1.279 . S
N188 C191 1.314 . S
C189 C186 1.348 . S
C189 C191 1.353 . S
C189 H245 0.929 . S
C190 C186 1.356 . S
C190 C187 1.358 . S
C190 H246 0.930 . S
C191 N188 1.314 . S
C191 C189 1.353 . S
C191 H247 0.930 . S
C192 N193 1.314 . S
C192 C197 1.353 . S
C192 H198 0.930 . S
N193 Li176 1.990 . S
N193 C192 1.314 . S
N193 C195 1.279 . S
C194 C195 1.358 . S
C194 C196 1.356 . S
C194 H248 0.930 . S
C195 N193 1.279 . S
C195 C194 1.358 . S
C195 H199 0.930 . S
C196 C194 1.356 . S
C196 C197 1.348 . S
C197 C192 1.353 . S
C197 C196 1.348 . S
C197 H249 0.929 . S
H198 C192 0.930 . S
H199 C195 0.930 . S
C200 N201 1.314 . S
C200 C202 1.353 . S
C200 H206 0.930 . S
N201 Li177 1.990 . S
N201 C200 1.314 . S
N201 C204 1.279 . S
C202 C200 1.353 . S
C202 C205 1.348 . S
C202 H250 0.929 . S
C203 C204 1.358 . S
C203 C205 1.356 . S
C203 H251 0.930 . S
C204 N201 1.279 . S
C204 C203 1.358 . S
C204 H207 0.930 . S
C205 C202 1.348 . S
C205 C203 1.356 . S
H206 C200 0.930 . S
H207 C204 0.930 . S
C208 C210 1.348 . S
C208 C211 1.356 . S
C208 O238 1.325 . S
N209 C212 1.314 . S
N209 C213 1.279 . S
C210 C208 1.348 . S
C210 C212 1.353 . S
C210 H252 0.929 . S
C211 C208 1.356 . S
C211 C213 1.358 . S
C211 H253 0.930 . S
C212 N209 1.314 . S
C212 C210 1.353 . S
C212 H254 0.930 . S
C213 N209 1.279 . S
C213 C211 1.358 . S
C213 H255 0.930 . S
C214 C215 1.348 . S
C214 C216 1.356 . S
C214 O239 1.325 . S
C215 C214 1.348 . S
C215 C217 1.353 . S
C215 H256 0.929 . S
C216 C214 1.356 . S
C216 C218 1.358 . S
C216 H257 0.930 . S
C217 C215 1.353 . S
C217 N219 1.314 . S
C217 H258 0.930 . S
C218 C216 1.358 . S
C218 N219 1.279 . S
C218 H259 0.930 . S
N219 C217 1.314 . S
N219 C218 1.279 . S
C220 C222 1.353 . S
C220 N223 1.314 . S
C220 H226 0.930 . S
C221 N223 1.279 . S
C221 C224 1.358 . S
C221 H227 0.930 . S
C222 C220 1.353 . S
C222 C225 1.348 . S
C222 H260 0.929 . S
N223 Li178 1.990 . S
N223 C220 1.314 . S
N223 C221 1.279 . S
C224 C221 1.358 . S
C224 C225 1.356 . S
C224 H261 0.930 . S
C225 C222 1.348 . S
C225 C224 1.356 . S
H226 C220 0.930 . S
H227 C221 0.930 . S
C228 N229 1.314 . S
C228 C230 1.353 . S
C228 H234 0.930 . S
N229 Li179 1.990 . S
N229 C228 1.314 . S
N229 C232 1.279 . S
C230 C228 1.353 . S
C230 C233 1.348 . S
C230 H262 0.929 . S
C231 C232 1.358 . S
C231 C233 1.356 . S
C231 H263 0.930 . S
C232 N229 1.279 . S
C232 C231 1.358 . S
C232 H235 0.930 . S
C233 C230 1.348 . S
C233 C231 1.356 . S
H234 C228 0.930 . S
H235 C232 0.930 . S
O236 Li176 1.956 . S
O236 Li177 1.970 . S
O236 Li178 1.961 . S
O236 C180 1.325 . S
O237 Li176 1.970 . S
O237 Li177 1.956 . S
O237 Li179 1.961 . S
O237 C186 1.325 . S
O238 Li176 1.961 . S
O238 Li178 1.956 . S
O238 Li179 1.970 . S
O238 C208 1.325 . S
O239 Li177 1.961 . S
O239 Li178 1.970 . S
O239 Li179 1.956 . S
O239 C214 1.325 . S
H240 C182 0.929 . S
H241 C183 0.930 . S
H242 C184 0.930 . S
H243 C185 0.930 . S
H244 C187 0.930 . S
H245 C189 0.929 . S
H246 C190 0.930 . S
H247 C191 0.930 . S
H248 C194 0.930 . S
H249 C197 0.929 . S
H250 C202 0.929 . S
H251 C203 0.930 . S
H252 C210 0.929 . S
H253 C211 0.930 . S
H254 C212 0.930 . S
H255 C213 0.930 . S
H256 C215 0.929 . S
H257 C216 0.930 . S
H258 C217 0.930 . S
H259 C218 0.930 . S
H260 C222 0.929 . S
H261 C224 0.930 . S
H262 C230 0.929 . S
H263 C231 0.930 . S
Li264 N281 1.990 . S
Li264 O324 1.956 . S
Li264 O325 1.970 . S
Li264 O326 1.961 . S
Li265 N289 1.990 . S
Li265 O324 1.970 . S
Li265 O325 1.956 . S
Li265 O327 1.961 . S
Li266 N311 1.990 . S
Li266 O324 1.961 . S
Li266 O326 1.956 . S
Li266 O327 1.970 . S
Li267 N317 1.990 . S
Li267 O325 1.961 . S
Li267 O326 1.970 . S
Li267 O327 1.956 . S
C268 C270 1.348 . S
C268 C271 1.356 . S
C268 O324 1.325 . S
N269 C272 1.314 . S
N269 C273 1.279 . S
C270 C268 1.348 . S
C270 C272 1.353 . S
C270 H328 0.929 . S
C271 C268 1.356 . S
C271 C273 1.358 . S
C271 H329 0.930 . S
C272 N269 1.314 . S
C272 C270 1.353 . S
C272 H330 0.930 . S
C273 N269 1.279 . S
C273 C271 1.358 . S
C273 H331 0.930 . S
C274 C277 1.348 . S
C274 C278 1.356 . S
C274 O325 1.325 . S
C275 N276 1.279 . S
C275 C278 1.358 . S
C275 H332 0.930 . S
N276 C275 1.279 . S
N276 C279 1.314 . S
C277 C274 1.348 . S
C277 C279 1.353 . S
C277 H333 0.929 . S
C278 C274 1.356 . S
C278 C275 1.358 . S
C278 H334 0.930 . S
C279 N276 1.314 . S
C279 C277 1.353 . S
C279 H335 0.930 . S
C280 N281 1.314 . S
C280 C285 1.353 . S
C280 H286 0.930 . S
N281 Li264 1.990 . S
N281 C280 1.314 . S
N281 C283 1.279 . S
C282 C283 1.358 . S
C282 C284 1.356 . S
C282 H336 0.930 . S
C283 N281 1.279 . S
C283 C282 1.358 . S
C283 H287 0.930 . S
C284 C282 1.356 . S
C284 C285 1.348 . S
C285 C280 1.353 . S
C285 C284 1.348 . S
C285 H337 0.929 . S
H286 C280 0.930 . S
H287 C283 0.930 . S
C288 N289 1.314 . S
C288 C290 1.353 . S
C288 H294 0.930 . S
N289 Li265 1.990 . S
N289 C288 1.314 . S
N289 C292 1.279 . S
C290 C288 1.353 . S
C290 C293 1.348 . S
C290 H338 0.929 . S
C291 C292 1.358 . S
C291 C293 1.356 . S
C291 H339 0.930 . S
C292 N289 1.279 . S
C292 C291 1.358 . S
C292 H295 0.930 . S
C293 C290 1.348 . S
C293 C291 1.356 . S
H294 C288 0.930 . S
H295 C292 0.930 . S
C296 C298 1.348 . S
C296 C299 1.356 . S
C296 O326 1.325 . S
N297 C300 1.314 . S
N297 C301 1.279 . S
C298 C296 1.348 . S
C298 C300 1.353 . S
C298 H340 0.929 . S
C299 C296 1.356 . S
C299 C301 1.358 . S
C299 H341 0.930 . S
C300 N297 1.314 . S
C300 C298 1.353 . S
C300 H342 0.930 . S
C301 N297 1.279 . S
C301 C299 1.358 . S
C301 H343 0.930 . S
C302 C303 1.348 . S
C302 C304 1.356 . S
C302 O327 1.325 . S
C303 C302 1.348 . S
C303 C305 1.353 . S
C303 H344 0.929 . S
C304 C302 1.356 . S
C304 C306 1.358 . S
C304 H345 0.930 . S
C305 C303 1.353 . S
C305 N307 1.314 . S
C305 H346 0.930 . S
C306 C304 1.358 . S
C306 N307 1.279 . S
C306 H347 0.930 . S
N307 C305 1.314 . S
N307 C306 1.279 . S
C308 C310 1.353 . S
C308 N311 1.314 . S
C308 H314 0.930 . S
C309 N311 1.279 . S
C309 C312 1.358 . S
C309 H315 0.930 . S
C310 C308 1.353 . S
C310 C313 1.348 . S
C310 H348 0.929 . S
N311 Li266 1.990 . S
N311 C308 1.314 . S
N311 C309 1.279 . S
C312 C309 1.358 . S
C312 C313 1.356 . S
C312 H349 0.930 . S
C313 C310 1.348 . S
C313 C312 1.356 . S
H314 C308 0.930 . S
H315 C309 0.930 . S
C316 N317 1.314 . S
C316 C318 1.353 . S
C316 H322 0.930 . S
N317 Li267 1.990 . S
N317 C316 1.314 . S
N317 C320 1.279 . S
C318 C316 1.353 . S
C318 C321 1.348 . S
C318 H350 0.929 . S
C319 C320 1.358 . S
C319 C321 1.356 . S
C319 H351 0.930 . S
C320 N317 1.279 . S
C320 C319 1.358 . S
C320 H323 0.930 . S
C321 C318 1.348 . S
C321 C319 1.356 . S
H322 C316 0.930 . S
H323 C320 0.930 . S
O324 Li264 1.956 . S
O324 Li265 1.970 . S
O324 Li266 1.961 . S
O324 C268 1.325 . S
O325 Li264 1.970 . S
O325 Li265 1.956 . S
O325 Li267 1.961 . S
O325 C274 1.325 . S
O326 Li264 1.961 . S
O326 Li266 1.956 . S
O326 Li267 1.970 . S
O326 C296 1.325 . S
O327 Li265 1.961 . S
O327 Li266 1.970 . S
O327 Li267 1.956 . S
O327 C302 1.325 . S
H328 C270 0.929 . S
H329 C271 0.930 . S
H330 C272 0.930 . S
H331 C273 0.930 . S
H332 C275 0.930 . S
H333 C277 0.929 . S
H334 C278 0.930 . S
H335 C279 0.930 . S
H336 C282 0.930 . S
H337 C285 0.929 . S
H338 C290 0.929 . S
H339 C291 0.930 . S
H340 C298 0.929 . S
H341 C299 0.930 . S
H342 C300 0.930 . S
H343 C301 0.930 . S
H344 C303 0.929 . S
H345 C304 0.930 . S
H346 C305 0.930 . S
H347 C306 0.930 . S
H348 C310 0.929 . S
H349 C312 0.930 . S
H350 C318 0.929 . S
H351 C319 0.930 . S
Li352 N369 1.990 . S
Li352 O412 1.956 . S
Li352 O413 1.970 . S
Li352 O414 1.961 . S
Li353 N377 1.990 . S
Li353 O412 1.970 . S
Li353 O413 1.956 . S
Li353 O415 1.961 . S
Li354 N399 1.990 . S
Li354 O412 1.961 . S
Li354 O414 1.956 . S
Li354 O415 1.970 . S
Li355 N405 1.990 . S
Li355 O413 1.961 . S
Li355 O414 1.970 . S
Li355 O415 1.956 . S
C356 C358 1.348 . S
C356 C359 1.356 . S
C356 O412 1.325 . S
N357 C360 1.314 . S
N357 C361 1.279 . S
C358 C356 1.348 . S
C358 C360 1.353 . S
C358 H416 0.929 . S
C359 C356 1.356 . S
C359 C361 1.358 . S
C359 H417 0.930 . S
C360 N357 1.314 . S
C360 C358 1.353 . S
C360 H418 0.930 . S
C361 N357 1.279 . S
C361 C359 1.358 . S
C361 H419 0.930 . S
C362 C365 1.348 . S
C362 C366 1.356 . S
C362 O413 1.325 . S
C363 N364 1.279 . S
C363 C366 1.358 . S
C363 H420 0.930 . S
N364 C363 1.279 . S
N364 C367 1.314 . S
C365 C362 1.348 . S
C365 C367 1.353 . S
C365 H421 0.929 . S
C366 C362 1.356 . S
C366 C363 1.358 . S
C366 H422 0.930 . S
C367 N364 1.314 . S
C367 C365 1.353 . S
C367 H423 0.930 . S
C368 N369 1.314 . S
C368 C373 1.353 . S
C368 H374 0.930 . S
N369 Li352 1.990 . S
N369 C368 1.314 . S
N369 C371 1.279 . S
C370 C371 1.358 . S
C370 C372 1.356 . S
C370 H424 0.930 . S
C371 N369 1.279 . S
C371 C370 1.358 . S
C371 H375 0.930 . S
C372 C370 1.356 . S
C372 C373 1.348 . S
C373 C368 1.353 . S
C373 C372 1.348 . S
C373 H425 0.929 . S
H374 C368 0.930 . S
H375 C371 0.930 . S
C376 N377 1.314 . S
C376 C378 1.353 . S
C376 H382 0.930 . S
N377 Li353 1.990 . S
N377 C376 1.314 . S
N377 C380 1.279 . S
C378 C376 1.353 . S
C378 C381 1.348 . S
C378 H426 0.929 . S
C379 C380 1.358 . S
C379 C381 1.356 . S
C379 H427 0.930 . S
C380 N377 1.279 . S
C380 C379 1.358 . S
C380 H383 0.930 . S
C381 C378 1.348 . S
C381 C379 1.356 . S
H382 C376 0.930 . S
H383 C380 0.930 . S
C384 C386 1.348 . S
C384 C387 1.356 . S
C384 O414 1.325 . S
N385 C388 1.314 . S
N385 C389 1.279 1_655 S
C386 C384 1.348 . S
C386 C388 1.353 1_455 S
C386 H428 0.929 . S
C387 C384 1.356 . S
C387 C389 1.358 . S
C387 H429 0.930 . S
C388 N385 1.314 . S
C388 C386 1.353 1_655 S
C388 H430 0.930 . S
C389 N385 1.279 1_455 S
C389 C387 1.358 . S
C389 H431 0.930 . S
C390 C391 1.348 . S
C390 C392 1.356 . S
C390 O415 1.325 . S
C391 C390 1.348 . S
C391 C393 1.353 . S
C391 H432 0.929 . S
C392 C390 1.356 . S
C392 C394 1.358 . S
C392 H433 0.930 . S
C393 C391 1.353 . S
C393 N395 1.314 . S
C393 H434 0.930 . S
C394 C392 1.358 . S
C394 N395 1.279 . S
C394 H435 0.930 . S
N395 C393 1.314 . S
N395 C394 1.279 . S
C396 C398 1.353 . S
C396 N399 1.314 . S
C396 H402 0.930 . S
C397 N399 1.279 . S
C397 C400 1.358 . S
C397 H403 0.930 . S
C398 C396 1.353 . S
C398 C401 1.348 . S
C398 H436 0.929 . S
N399 Li354 1.990 . S
N399 C396 1.314 . S
N399 C397 1.279 . S
C400 C397 1.358 . S
C400 C401 1.356 . S
C400 H437 0.930 . S
C401 C398 1.348 . S
C401 C400 1.356 . S
H402 C396 0.930 . S
H403 C397 0.930 . S
C404 N405 1.314 . S
C404 C406 1.353 . S
C404 H410 0.930 . S
N405 Li355 1.990 . S
N405 C404 1.314 . S
N405 C408 1.279 . S
C406 C404 1.353 . S
C406 C409 1.348 1_455 S
C406 H438 0.951 . S
C407 C408 1.358 . S
C407 C409 1.356 1_455 S
C407 H439 0.930 . S
C408 N405 1.279 . S
C408 C407 1.358 . S
C408 H411 0.930 . S
C409 C406 1.348 1_655 S
C409 C407 1.356 1_655 S
H410 C404 0.930 . S
H411 C408 0.930 . S
O412 Li352 1.956 . S
O412 Li353 1.970 . S
O412 Li354 1.961 . S
O412 C356 1.325 . S
O413 Li352 1.970 . S
O413 Li353 1.956 . S
O413 Li355 1.961 . S
O413 C362 1.325 . S
O414 Li352 1.961 . S
O414 Li354 1.956 . S
O414 Li355 1.970 . S
O414 C384 1.325 . S
O415 Li353 1.961 . S
O415 Li354 1.970 . S
O415 Li355 1.956 . S
O415 C390 1.325 . S
H416 C358 0.929 . S
H417 C359 0.930 . S
H418 C360 0.930 . S
H419 C361 0.930 . S
H420 C363 0.930 . S
H421 C365 0.929 . S
H422 C366 0.930 . S
H423 C367 0.930 . S
H424 C370 0.930 . S
H425 C373 0.929 . S
H426 C378 0.929 . S
H427 C379 0.930 . S
H428 C386 0.929 . S
H429 C387 0.930 . S
H430 C388 0.930 . S
H431 C389 0.930 . S
H432 C391 0.929 . S
H433 C392 0.930 . S
H434 C393 0.930 . S
H435 C394 0.930 . S
H436 C398 0.929 . S
H437 C400 0.930 . S
H438 C406 0.951 . S
H439 C407 0.930 . S
Li440 N457 1.990 . S
Li440 O500 1.956 . S
Li440 O501 1.970 . S
Li440 O502 1.961 . S
Li441 N465 1.990 . S
Li441 O500 1.970 . S
Li441 O501 1.956 . S
Li441 O503 1.961 . S
Li442 N487 1.990 . S
Li442 O500 1.961 . S
Li442 O502 1.956 . S
Li442 O503 1.970 . S
Li443 N493 1.990 . S
Li443 O501 1.961 . S
Li443 O502 1.970 . S
Li443 O503 1.956 . S
C444 C446 1.348 . S
C444 C447 1.356 . S
C444 O500 1.325 . S
N445 C448 1.314 . S
N445 C449 1.279 . S
C446 C444 1.348 . S
C446 C448 1.353 . S
C446 H504 0.929 . S
C447 C444 1.356 . S
C447 C449 1.358 . S
C447 H505 0.930 . S
C448 N445 1.314 . S
C448 C446 1.353 . S
C448 H506 0.930 . S
C449 N445 1.279 . S
C449 C447 1.358 . S
C449 H507 0.930 . S
C450 C453 1.348 . S
C450 C454 1.356 . S
C450 O501 1.325 . S
C451 N452 1.279 . S
C451 C454 1.358 . S
C451 H508 0.930 . S
N452 C451 1.279 . S
N452 C455 1.314 . S
C453 C450 1.348 . S
C453 C455 1.353 . S
C453 H509 0.929 . S
C454 C450 1.356 . S
C454 C451 1.358 . S
C454 H510 0.930 . S
C455 N452 1.314 . S
C455 C453 1.353 . S
C455 H511 0.930 . S
C456 N457 1.314 . S
C456 C461 1.353 . S
C456 H462 0.930 . S
N457 Li440 1.990 . S
N457 C456 1.314 . S
N457 C459 1.279 . S
C458 C459 1.358 . S
C458 C460 1.356 . S
C458 H512 0.930 . S
C459 N457 1.279 . S
C459 C458 1.358 . S
C459 H463 0.930 . S
C460 C458 1.356 . S
C460 C461 1.348 . S
C461 C456 1.353 . S
C461 C460 1.348 . S
C461 H513 0.929 . S
H462 C456 0.930 . S
H463 C459 0.930 . S
C464 N465 1.314 . S
C464 C466 1.353 . S
C464 H470 0.930 . S
N465 Li441 1.990 . S
N465 C464 1.314 . S
N465 C468 1.279 . S
C466 C464 1.353 . S
C466 C469 1.348 . S
C466 H514 0.929 . S
C467 C468 1.358 . S
C467 C469 1.356 . S
C467 H515 0.930 . S
C468 N465 1.279 . S
C468 C467 1.358 . S
C468 H471 0.930 . S
C469 C466 1.348 . S
C469 C467 1.356 . S
H470 C464 0.930 . S
H471 C468 0.930 . S
C472 C474 1.348 . S
C472 C475 1.356 . S
C472 O502 1.325 . S
N473 C476 1.314 . S
N473 C477 1.279 . S
C474 C472 1.348 . S
C474 C476 1.353 . S
C474 H516 0.929 . S
C475 C472 1.356 . S
C475 C477 1.358 . S
C475 H517 0.930 . S
C476 N473 1.314 . S
C476 C474 1.353 . S
C476 H518 0.930 . S
C477 N473 1.279 . S
C477 C475 1.358 . S
C477 H519 0.930 . S
C478 C479 1.348 . S
C478 C480 1.356 . S
C478 O503 1.325 . S
C479 C478 1.348 . S
C479 C481 1.353 . S
C479 H520 0.929 . S
C480 C478 1.356 . S
C480 C482 1.358 . S
C480 H521 0.930 . S
C481 C479 1.353 . S
C481 N483 1.314 . S
C481 H522 0.930 . S
C482 C480 1.358 . S
C482 N483 1.279 . S
C482 H523 0.930 . S
N483 C481 1.314 . S
N483 C482 1.279 . S
C484 C486 1.353 . S
C484 N487 1.314 . S
C484 H490 0.930 . S
C485 N487 1.279 . S
C485 C488 1.358 . S
C485 H491 0.930 . S
C486 C484 1.353 . S
C486 C489 1.348 . S
C486 H524 0.929 . S
N487 Li442 1.990 . S
N487 C484 1.314 . S
N487 C485 1.279 . S
C488 C485 1.358 . S
C488 C489 1.356 . S
C488 H525 0.930 . S
C489 C486 1.348 . S
C489 C488 1.356 . S
H490 C484 0.930 . S
H491 C485 0.930 . S
C492 N493 1.314 . S
C492 C494 1.353 . S
C492 H498 0.930 . S
N493 Li443 1.990 . S
N493 C492 1.314 . S
N493 C496 1.279 . S
C494 C492 1.353 . S
C494 C497 1.348 . S
C494 H526 0.929 . S
C495 C496 1.358 . S
C495 C497 1.356 . S
C495 H527 0.930 . S
C496 N493 1.279 . S
C496 C495 1.358 . S
C496 H499 0.930 . S
C497 C494 1.348 . S
C497 C495 1.356 . S
H498 C492 0.930 . S
H499 C496 0.930 . S
O500 Li440 1.956 . S
O500 Li441 1.970 . S
O500 Li442 1.961 . S
O500 C444 1.325 . S
O501 Li440 1.970 . S
O501 Li441 1.956 . S
O501 Li443 1.961 . S
O501 C450 1.325 . S
O502 Li440 1.961 . S
O502 Li442 1.956 . S
O502 Li443 1.970 . S
O502 C472 1.325 . S
O503 Li441 1.961 . S
O503 Li442 1.970 . S
O503 Li443 1.956 . S
O503 C478 1.325 . S
H504 C446 0.929 . S
H505 C447 0.930 . S
H506 C448 0.930 . S
H507 C449 0.930 . S
H508 C451 0.930 . S
H509 C453 0.929 . S
H510 C454 0.930 . S
H511 C455 0.930 . S
H512 C458 0.930 . S
H513 C461 0.929 . S
H514 C466 0.929 . S
H515 C467 0.930 . S
H516 C474 0.929 . S
H517 C475 0.930 . S
H518 C476 0.930 . S
H519 C477 0.930 . S
H520 C479 0.929 . S
H521 C480 0.930 . S
H522 C481 0.930 . S
H523 C482 0.930 . S
H524 C486 0.929 . S
H525 C488 0.930 . S
H526 C494 0.929 . S
H527 C495 0.930 . S
Li528 N545 1.990 . S
Li528 O588 1.956 . S
Li528 O589 1.970 . S
Li528 O590 1.961 . S
Li529 N553 1.990 . S
Li529 O588 1.970 . S
Li529 O589 1.956 . S
Li529 O591 1.961 . S
Li530 N575 1.990 . S
Li530 O588 1.961 . S
Li530 O590 1.956 . S
Li530 O591 1.970 . S
Li531 N581 1.990 . S
Li531 O589 1.961 . S
Li531 O590 1.970 . S
Li531 O591 1.956 . S
C532 C534 1.348 . S
C532 C535 1.356 . S
C532 O588 1.325 . S
N533 C536 1.314 . S
N533 C537 1.279 . S
C534 C532 1.348 . S
C534 C536 1.353 . S
C534 H592 0.929 . S
C535 C532 1.356 . S
C535 C537 1.358 . S
C535 H593 0.930 . S
C536 N533 1.314 . S
C536 C534 1.353 . S
C536 H594 0.930 . S
C537 N533 1.279 . S
C537 C535 1.358 . S
C537 H595 0.930 . S
C538 C541 1.348 . S
C538 C542 1.356 . S
C538 O589 1.325 . S
C539 N540 1.279 . S
C539 C542 1.358 . S
C539 H596 0.930 . S
N540 C539 1.279 . S
N540 C543 1.314 . S
C541 C538 1.348 . S
C541 C543 1.353 . S
C541 H597 0.929 . S
C542 C538 1.356 . S
C542 C539 1.358 . S
C542 H598 0.930 . S
C543 N540 1.314 . S
C543 C541 1.353 . S
C543 H599 0.930 . S
C544 N545 1.314 . S
C544 C549 1.353 . S
C544 H550 0.930 . S
N545 Li528 1.990 . S
N545 C544 1.314 . S
N545 C547 1.279 . S
C546 C547 1.358 . S
C546 C548 1.356 . S
C546 H600 0.930 . S
C547 N545 1.279 . S
C547 C546 1.358 . S
C547 H551 0.930 . S
C548 C546 1.356 . S
C548 C549 1.348 . S
C549 C544 1.353 . S
C549 C548 1.348 . S
C549 H601 0.929 . S
H550 C544 0.930 . S
H551 C547 0.930 . S
C552 N553 1.314 . S
C552 C554 1.353 . S
C552 H558 0.930 . S
N553 Li529 1.990 . S
N553 C552 1.314 . S
N553 C556 1.279 . S
C554 C552 1.353 . S
C554 C557 1.348 . S
C554 H602 0.929 . S
C555 C556 1.358 . S
C555 C557 1.356 . S
C555 H603 0.930 . S
C556 N553 1.279 . S
C556 C555 1.358 . S
C556 H559 0.930 . S
C557 C554 1.348 . S
C557 C555 1.356 . S
H558 C552 0.930 . S
H559 C556 0.930 . S
C560 C562 1.348 . S
C560 C563 1.356 . S
C560 O590 1.325 . S
N561 C564 1.314 . S
N561 C565 1.279 . S
C562 C560 1.348 . S
C562 C564 1.353 . S
C562 H604 0.929 . S
C563 C560 1.356 . S
C563 C565 1.358 . S
C563 H605 0.930 . S
C564 N561 1.314 . S
C564 C562 1.353 . S
C564 H606 0.930 . S
C565 N561 1.279 . S
C565 C563 1.358 . S
C565 H607 0.930 . S
C566 C567 1.348 . S
C566 C568 1.356 . S
C566 O591 1.325 . S
C567 C566 1.348 . S
C567 C569 1.353 . S
C567 H608 0.929 . S
C568 C566 1.356 . S
C568 C570 1.358 . S
C568 H609 0.930 . S
C569 C567 1.353 . S
C569 N571 1.314 . S
C569 H610 0.930 . S
C570 C568 1.358 . S
C570 N571 1.279 . S
C570 H611 0.930 . S
N571 C569 1.314 . S
N571 C570 1.279 . S
C572 C574 1.353 . S
C572 N575 1.314 . S
C572 H578 0.930 . S
C573 N575 1.279 . S
C573 C576 1.358 . S
C573 H579 0.930 . S
C574 C572 1.353 . S
C574 C577 1.348 . S
C574 H612 0.929 . S
N575 Li530 1.990 . S
N575 C572 1.314 . S
N575 C573 1.279 . S
C576 C573 1.358 . S
C576 C577 1.356 . S
C576 H613 0.930 . S
C577 C574 1.348 . S
C577 C576 1.356 . S
H578 C572 0.930 . S
H579 C573 0.930 . S
C580 N581 1.314 . S
C580 C582 1.353 . S
C580 H586 0.930 . S
N581 Li531 1.990 . S
N581 C580 1.314 . S
N581 C584 1.279 . S
C582 C580 1.353 . S
C582 C585 1.348 . S
C582 H614 0.929 . S
C583 C584 1.358 . S
C583 C585 1.356 . S
C583 H615 0.930 . S
C584 N581 1.279 . S
C584 C583 1.358 . S
C584 H587 0.930 . S
C585 C582 1.348 . S
C585 C583 1.356 . S
H586 C580 0.930 . S
H587 C584 0.930 . S
O588 Li528 1.956 . S
O588 Li529 1.970 . S
O588 Li530 1.961 . S
O588 C532 1.325 . S
O589 Li528 1.970 . S
O589 Li529 1.956 . S
O589 Li531 1.961 . S
O589 C538 1.325 . S
O590 Li528 1.961 . S
O590 Li530 1.956 . S
O590 Li531 1.970 . S
O590 C560 1.325 . S
O591 Li529 1.961 . S
O591 Li530 1.970 . S
O591 Li531 1.956 . S
O591 C566 1.325 . S
H592 C534 0.929 . S
H593 C535 0.930 . S
H594 C536 0.930 . S
H595 C537 0.930 . S
H596 C539 0.930 . S
H597 C541 0.929 . S
H598 C542 0.930 . S
H599 C543 0.930 . S
H600 C546 0.930 . S
H601 C549 0.929 . S
H602 C554 0.929 . S
H603 C555 0.930 . S
H604 C562 0.929 . S
H605 C563 0.930 . S
H606 C564 0.930 . S
H607 C565 0.930 . S
H608 C567 0.929 . S
H609 C568 0.930 . S
H610 C569 0.930 . S
H611 C570 0.930 . S
H612 C574 0.929 . S
H613 C576 0.930 . S
H614 C582 0.929 . S
H615 C583 0.930 . S
Li616 N633 1.990 . S
Li616 O676 1.956 1_455 S
Li616 O677 1.970 . S
Li616 O678 1.961 . S
Li617 N641 1.990 . S
Li617 O676 1.970 . S
Li617 O677 1.956 1_655 S
Li617 O679 1.961 1_655 S
Li618 N663 1.990 . S
Li618 O676 1.961 1_455 S
Li618 O678 1.956 . S
Li618 O679 1.970 . S
Li619 N669 1.990 . S
Li619 O677 1.961 . S
Li619 O678 1.970 . S
Li619 O679 1.956 . S
C620 C622 1.348 . S
C620 C623 1.356 . S
C620 O676 1.325 . S
N621 C624 1.314 . S
N621 C625 1.279 . S
C622 C620 1.348 . S
C622 C624 1.353 . S
C622 H680 0.929 . S
C623 C620 1.356 . S
C623 C625 1.358 . S
C623 H681 0.930 . S
C624 N621 1.314 . S
C624 C622 1.353 . S
C624 H682 0.930 . S
C625 N621 1.279 . S
C625 C623 1.358 . S
C625 H683 0.930 . S
C626 C629 1.348 . S
C626 C630 1.356 . S
C626 O677 1.325 . S
C627 N628 1.279 . S
C627 C630 1.358 . S
C627 H684 0.930 . S
N628 C627 1.279 . S
N628 C631 1.314 . S
C629 C626 1.348 . S
C629 C631 1.353 . S
C629 H685 0.929 . S
C630 C626 1.356 . S
C630 C627 1.358 . S
C630 H686 0.930 . S
C631 N628 1.314 . S
C631 C629 1.353 . S
C631 H687 0.930 . S
C632 N633 1.314 . S
C632 C637 1.353 . S
C632 H638 0.930 . S
N633 Li616 1.990 . S
N633 C632 1.314 . S
N633 C635 1.279 . S
C634 C635 1.358 . S
C634 C636 1.356 . S
C634 H688 0.930 . S
C635 N633 1.279 . S
C635 C634 1.358 . S
C635 H639 0.930 1_455 S
C636 C634 1.356 . S
C636 C637 1.348 . S
C637 C632 1.353 . S
C637 C636 1.348 . S
C637 H689 0.929 . S
H638 C632 0.930 . S
H639 C635 0.930 1_655 S
C640 N641 1.314 . S
C640 C642 1.353 . S
C640 H646 0.930 . S
N641 Li617 1.990 . S
N641 C640 1.314 . S
N641 C644 1.279 . S
C642 C640 1.353 . S
C642 C645 1.348 . S
C642 H690 0.929 . S
C643 C644 1.358 . S
C643 C645 1.356 . S
C643 H691 0.930 . S
C644 N641 1.279 . S
C644 C643 1.358 . S
C644 H647 0.930 . S
C645 C642 1.348 . S
C645 C643 1.356 . S
H646 C640 0.930 . S
H647 C644 0.930 . S
C648 C650 1.348 . S
C648 C651 1.356 . S
C648 O678 1.325 . S
N649 C652 1.314 . S
N649 C653 1.279 . S
C650 C648 1.348 . S
C650 C652 1.353 . S
C650 H692 0.929 . S
C651 C648 1.356 . S
C651 C653 1.358 . S
C651 H693 0.930 . S
C652 N649 1.314 . S
C652 C650 1.353 . S
C652 H694 0.930 . S
C653 N649 1.279 . S
C653 C651 1.358 . S
C653 H695 0.930 . S
C654 C655 1.348 . S
C654 C656 1.356 . S
C654 O679 1.325 . S
C655 C654 1.348 . S
C655 C657 1.353 . S
C655 H696 0.929 . S
C656 C654 1.356 . S
C656 C658 1.358 . S
C656 H697 0.930 . S
C657 C655 1.353 . S
C657 N659 1.314 . S
C657 H698 0.930 . S
C658 C656 1.358 . S
C658 N659 1.279 . S
C658 H699 0.930 1_455 S
N659 C657 1.314 . S
N659 C658 1.279 . S
C660 C662 1.353 . S
C660 N663 1.314 1_655 S
C660 H666 0.930 . S
C661 N663 1.279 . S
C661 C664 1.358 . S
C661 H667 0.930 . S
C662 C660 1.353 . S
C662 C665 1.348 1_655 S
C662 H700 0.929 . S
N663 Li618 1.990 . S
N663 C660 1.314 1_455 S
N663 C661 1.279 . S
C664 C661 1.358 . S
C664 C665 1.356 . S
C664 H701 0.930 . S
C665 C662 1.348 1_455 S
C665 C664 1.356 . S
H666 C660 0.930 . S
H667 C661 0.930 . S
C668 N669 1.314 . S
C668 C670 1.353 . S
C668 H674 0.930 . S
N669 Li619 1.990 . S
N669 C668 1.314 . S
N669 C672 1.279 . S
C670 C668 1.353 . S
C670 C673 1.348 . S
C670 H702 0.929 . S
C671 C672 1.358 . S
C671 C673 1.356 . S
C671 H703 0.930 . S
C672 N669 1.279 . S
C672 C671 1.358 . S
C672 H675 0.930 . S
C673 C670 1.348 . S
C673 C671 1.356 . S
H674 C668 0.930 . S
H675 C672 0.930 . S
O676 Li616 1.956 1_655 S
O676 Li617 1.970 . S
O676 Li618 1.961 1_655 S
O676 C620 1.325 . S
O677 Li616 1.970 . S
O677 Li617 1.956 1_455 S
O677 Li619 1.961 . S
O677 C626 1.325 . S
O678 Li616 1.961 . S
O678 Li618 1.956 . S
O678 Li619 1.970 . S
O678 C648 1.325 . S
O679 Li617 1.961 1_455 S
O679 Li618 1.970 . S
O679 Li619 1.956 . S
O679 C654 1.325 . S
H680 C622 0.929 . S
H681 C623 0.930 . S
H682 C624 0.930 . S
H683 C625 0.930 . S
H684 C627 0.930 . S
H685 C629 0.929 . S
H686 C630 0.930 . S
H687 C631 0.930 . S
H688 C634 0.930 . S
H689 C637 0.929 . S
H690 C642 0.929 . S
H691 C643 0.930 . S
H692 C650 0.929 . S
H693 C651 0.930 . S
H694 C652 0.930 . S
H695 C653 0.930 . S
H696 C655 0.929 . S
H697 C656 0.930 . S
H698 C657 0.930 . S
H699 C658 0.930 1_655 S
H700 C662 0.929 . S
H701 C664 0.930 . S
H702 C670 0.929 . S
H703 C671 0.930 . S
Li704 N721 1.990 . S
Li704 O764 1.956 1_545 S
Li704 O765 1.970 . S
Li704 O766 1.961 . S
Li705 N729 1.990 . S
Li705 O764 1.970 . S
Li705 O765 1.956 1_565 S
Li705 O767 1.961 1_565 S
Li706 N751 1.990 . S
Li706 O764 1.961 1_545 S
Li706 O766 1.956 . S
Li706 O767 1.970 . S
Li707 N757 1.990 . S
Li707 O765 1.961 . S
Li707 O766 1.970 . S
Li707 O767 1.956 . S
C708 C710 1.348 . S
C708 C711 1.356 . S
C708 O764 1.325 . S
N709 C712 1.314 . S
N709 C713 1.279 . S
C710 C708 1.348 . S
C710 C712 1.353 . S
C710 H768 0.929 . S
C711 C708 1.356 . S
C711 C713 1.358 . S
C711 H769 0.930 . S
C712 N709 1.314 . S
C712 C710 1.353 . S
C712 H770 0.930 . S
C713 N709 1.279 . S
C713 C711 1.358 . S
C713 H771 0.930 . S
C714 C717 1.348 . S
C714 C718 1.356 . S
C714 O765 1.325 . S
C715 N716 1.279 . S
C715 C718 1.358 . S
C715 H772 0.930 . S
N716 C715 1.279 . S
N716 C719 1.314 . S
C717 C714 1.348 . S
C717 C719 1.353 . S
C717 H773 0.929 . S
C718 C714 1.356 . S
C718 C715 1.358 . S
C718 H774 0.930 . S
C719 N716 1.314 . S
C719 C717 1.353 . S
C719 H775 0.950 . S
C720 N721 1.314 . S
C720 C725 1.353 . S
C720 H726 0.930 . S
N721 Li704 1.990 . S
N721 C720 1.314 . S
N721 C723 1.279 . S
C722 C723 1.358 . S
C722 C724 1.356 . S
C722 H776 0.930 1_545 S
C723 N721 1.279 . S
C723 C722 1.358 . S
C723 H727 0.930 1_545 S
C724 C722 1.356 . S
C724 C725 1.348 . S
C725 C720 1.353 . S
C725 C724 1.348 . S
C725 H777 0.929 . S
H726 C720 0.930 . S
H727 C723 0.930 1_565 S
C728 N729 1.314 . S
C728 C730 1.353 . S
C728 H734 0.930 . S
N729 Li705 1.990 . S
N729 C728 1.314 . S
N729 C732 1.279 . S
C730 C728 1.353 . S
C730 C733 1.348 . S
C730 H778 0.929 . S
C731 C732 1.358 . S
C731 C733 1.356 . S
C731 H779 0.930 . S
C732 N729 1.279 . S
C732 C731 1.358 . S
C732 H735 0.930 . S
C733 C730 1.348 . S
C733 C731 1.356 . S
H734 C728 0.930 . S
H735 C732 0.930 . S
C736 C738 1.348 . S
C736 C739 1.356 . S
C736 O766 1.325 . S
N737 C740 1.314 . S
N737 C741 1.279 . S
C738 C736 1.348 . S
C738 C740 1.353 . S
C738 H780 0.929 . S
C739 C736 1.356 . S
C739 C741 1.358 . S
C739 H781 0.930 . S
C740 N737 1.314 . S
C740 C738 1.353 . S
C740 H782 0.930 . S
C741 N737 1.279 . S
C741 C739 1.358 . S
C741 H783 0.930 . S
C742 C743 1.329 1_565 S
C742 C744 1.362 . S
C742 O767 1.335 1_565 S
C743 C742 1.329 1_545 S
C743 C745 1.348 . S
C743 H784 0.929 . S
C744 C742 1.362 . S
C744 C746 1.358 . S
C744 H785 0.930 . S
C745 C743 1.348 . S
C745 N747 1.310 1_545 S
C745 H786 0.942 . S
C746 C744 1.358 . S
C746 N747 1.279 . S
C746 H787 0.930 . S
N747 C745 1.310 1_565 S
N747 C746 1.279 . S
C748 C750 1.353 . S
C748 N751 1.314 1_565 S
C748 H754 0.930 . S
C749 N751 1.279 . S
C749 C752 1.358 . S
C749 H755 0.930 . S
C750 C748 1.353 . S
C750 C753 1.348 1_565 S
C750 H788 0.929 . S
N751 Li706 1.990 . S
N751 C748 1.314 1_545 S
N751 C749 1.279 . S
C752 C749 1.358 . S
C752 C753 1.356 . S
C752 H789 0.930 . S
C753 C750 1.348 1_545 S
C753 C752 1.356 . S
H754 C748 0.930 . S
H755 C749 0.930 . S
C756 N757 1.314 . S
C756 C758 1.353 . S
C756 H762 0.930 . S
N757 Li707 1.990 . S
N757 C756 1.314 . S
N757 C760 1.279 . S
C758 C756 1.353 . S
C758 C761 1.348 . S
C758 H790 0.929 . S
C759 C760 1.358 . S
C759 C761 1.356 . S
C759 H791 0.930 . S
C760 N757 1.279 . S
C760 C759 1.358 . S
C760 H763 0.930 . S
C761 C758 1.348 . S
C761 C759 1.356 . S
H762 C756 0.930 . S
H763 C760 0.930 . S
O764 Li704 1.956 1_565 S
O764 Li705 1.970 . S
O764 Li706 1.961 1_565 S
O764 C708 1.325 . S
O765 Li704 1.970 . S
O765 Li705 1.956 1_545 S
O765 Li707 1.961 . S
O765 C714 1.325 . S
O766 Li704 1.961 . S
O766 Li706 1.956 . S
O766 Li707 1.970 . S
O766 C736 1.325 . S
O767 Li705 1.961 1_545 S
O767 Li706 1.970 . S
O767 Li707 1.956 . S
O767 C742 1.335 1_545 S
H768 C710 0.929 . S
H769 C711 0.930 . S
H770 C712 0.930 . S
H771 C713 0.930 . S
H772 C715 0.930 . S
H773 C717 0.929 . S
H774 C718 0.930 . S
H775 C719 0.950 . S
H776 C722 0.930 1_565 S
H777 C725 0.929 . S
H778 C730 0.929 . S
H779 C731 0.930 . S
H780 C738 0.929 . S
H781 C739 0.930 . S
H782 C740 0.930 . S
H783 C741 0.930 . S
H784 C743 0.929 . S
H785 C744 0.930 . S
H786 C745 0.942 . S
H787 C746 0.930 . S
H788 C750 0.929 . S
H789 C752 0.930 . S
H790 C758 0.929 . S
H791 C759 0.930 . S
Li792 N809 1.990 . S
Li792 O852 1.956 . S
Li792 O853 1.970 . S
Li792 O854 1.961 . S
Li793 N817 1.990 . S
Li793 O852 1.970 . S
Li793 O853 1.956 . S
Li793 O855 1.961 . S
Li794 N839 1.990 . S
Li794 O852 1.961 . S
Li794 O854 1.956 . S
Li794 O855 1.970 . S
Li795 N845 1.990 . S
Li795 O853 1.961 . S
Li795 O854 1.970 . S
Li795 O855 1.956 . S
C796 C798 1.348 . S
C796 C799 1.356 . S
C796 O852 1.325 . S
N797 C800 1.314 . S
N797 C801 1.279 . S
C798 C796 1.348 . S
C798 C800 1.353 . S
C798 H856 0.929 . S
C799 C796 1.356 . S
C799 C801 1.358 . S
C799 H857 0.930 . S
C800 N797 1.314 . S
C800 C798 1.353 . S
C800 H858 0.930 . S
C801 N797 1.279 . S
C801 C799 1.358 . S
C801 H859 0.930 . S
C802 C805 1.348 . S
C802 C806 1.356 . S
C802 O853 1.325 . S
C803 N804 1.279 . S
C803 C806 1.358 . S
C803 H860 0.930 . S
N804 C803 1.279 . S
N804 C807 1.314 . S
C805 C802 1.348 . S
C805 C807 1.353 . S
C805 H861 0.929 . S
C806 C802 1.356 . S
C806 C803 1.358 . S
C806 H862 0.930 . S
C807 N804 1.314 . S
C807 C805 1.353 . S
C807 H863 0.930 . S
C808 N809 1.314 . S
C808 C813 1.353 . S
C808 H814 0.930 . S
N809 Li792 1.990 . S
N809 C808 1.314 . S
N809 C811 1.279 . S
C810 C811 1.358 . S
C810 C812 1.356 . S
C810 H864 0.930 . S
C811 N809 1.279 . S
C811 C810 1.358 . S
C811 H815 0.930 . S
C812 C810 1.356 . S
C812 C813 1.348 . S
C813 C808 1.353 . S
C813 C812 1.348 . S
C813 H865 0.929 . S
H814 C808 0.930 . S
H815 C811 0.930 . S
C816 N817 1.314 . S
C816 C818 1.353 . S
C816 H822 0.930 . S
N817 Li793 1.990 . S
N817 C816 1.314 . S
N817 C820 1.279 . S
C818 C816 1.353 . S
C818 C821 1.348 . S
C818 H866 0.929 . S
C819 C820 1.358 . S
C819 C821 1.356 . S
C819 H867 0.930 . S
C820 N817 1.279 . S
C820 C819 1.358 . S
C820 H823 0.930 . S
C821 C818 1.348 . S
C821 C819 1.356 . S
H822 C816 0.930 . S
H823 C820 0.930 . S
C824 C826 1.348 . S
C824 C827 1.356 . S
C824 O854 1.325 . S
N825 C828 1.314 . S
N825 C829 1.279 . S
C826 C824 1.348 . S
C826 C828 1.353 . S
C826 H868 0.929 . S
C827 C824 1.356 . S
C827 C829 1.358 . S
C827 H869 0.930 . S
C828 N825 1.314 . S
C828 C826 1.353 . S
C828 H870 0.930 . S
C829 N825 1.279 . S
C829 C827 1.358 . S
C829 H871 0.930 . S
C830 C831 1.348 . S
C830 C832 1.356 . S
C830 O855 1.325 . S
C831 C830 1.348 . S
C831 C833 1.353 . S
C831 H872 0.929 . S
C832 C830 1.356 . S
C832 C834 1.358 . S
C832 H873 0.930 . S
C833 C831 1.353 . S
C833 N835 1.314 . S
C833 H874 0.930 . S
C834 C832 1.358 . S
C834 N835 1.279 . S
C834 H875 0.930 . S
N835 C833 1.314 . S
N835 C834 1.279 . S
C836 C838 1.353 . S
C836 N839 1.314 . S
C836 H842 0.930 . S
C837 N839 1.279 . S
C837 C840 1.358 . S
C837 H843 0.930 . S
C838 C836 1.353 . S
C838 C841 1.348 . S
C838 H876 0.929 . S
N839 Li794 1.990 . S
N839 C836 1.314 . S
N839 C837 1.279 . S
C840 C837 1.358 . S
C840 C841 1.356 . S
C840 H877 0.930 . S
C841 C838 1.348 . S
C841 C840 1.356 . S
H842 C836 0.930 . S
H843 C837 0.930 . S
C844 N845 1.314 . S
C844 C846 1.353 . S
C844 H850 0.930 . S
N845 Li795 1.990 . S
N845 C844 1.314 . S
N845 C848 1.279 . S
C846 C844 1.353 . S
C846 C849 1.348 . S
C846 H878 0.929 . S
C847 C848 1.358 . S
C847 C849 1.356 . S
C847 H879 0.930 . S
C848 N845 1.279 . S
C848 C847 1.358 . S
C848 H851 0.930 . S
C849 C846 1.348 . S
C849 C847 1.356 . S
H850 C844 0.930 . S
H851 C848 0.930 . S
O852 Li792 1.956 . S
O852 Li793 1.970 . S
O852 Li794 1.961 . S
O852 C796 1.325 . S
O853 Li792 1.970 . S
O853 Li793 1.956 . S
O853 Li795 1.961 . S
O853 C802 1.325 . S
O854 Li792 1.961 . S
O854 Li794 1.956 . S
O854 Li795 1.970 . S
O854 C824 1.325 . S
O855 Li793 1.961 . S
O855 Li794 1.970 . S
O855 Li795 1.956 . S
O855 C830 1.325 . S
H856 C798 0.929 . S
H857 C799 0.930 . S
H858 C800 0.930 . S
H859 C801 0.930 . S
H860 C803 0.930 . S
H861 C805 0.929 . S
H862 C806 0.930 . S
H863 C807 0.930 . S
H864 C810 0.930 . S
H865 C813 0.929 . S
H866 C818 0.929 . S
H867 C819 0.930 . S
H868 C826 0.929 . S
H869 C827 0.930 . S
H870 C828 0.930 . S
H871 C829 0.930 . S
H872 C831 0.929 . S
H873 C832 0.930 . S
H874 C833 0.930 . S
H875 C834 0.930 . S
H876 C838 0.929 . S
H877 C840 0.930 . S
H878 C846 0.929 . S
H879 C847 0.930 . S
Li880 N897 1.990 . S
Li880 O940 1.956 . S
Li880 O941 1.970 . S
Li880 O942 1.994 . S
Li881 N905 1.990 1_545 S
Li881 O940 1.970 . S
Li881 O941 1.961 . S
Li881 O943 1.956 1_545 S
Li882 N927 1.990 . S
Li882 O940 1.961 1_565 S
Li882 O942 1.914 1_565 S
Li882 O943 1.970 . S
Li883 N933 1.990 . S
Li883 O941 1.961 1_565 S
Li883 O942 1.974 1_565 S
Li883 O943 1.956 . S
C884 C886 1.348 . S
C884 C887 1.356 . S
C884 O940 1.325 . S
N885 C888 1.314 . S
N885 C889 1.279 . S
C886 C884 1.348 . S
C886 C888 1.353 . S
C886 H944 0.929 . S
C887 C884 1.356 . S
C887 C889 1.358 . S
C887 H945 0.930 . S
C888 N885 1.314 . S
C888 C886 1.353 . S
C888 H946 0.930 . S
C889 N885 1.279 . S
C889 C887 1.358 . S
C889 H947 0.930 . S
C890 C893 1.348 . S
C890 C894 1.356 . S
C890 O941 1.325 . S
C891 N892 1.279 . S
C891 C894 1.358 . S
C891 H948 0.930 . S
N892 C891 1.279 . S
N892 C895 1.314 . S
C893 C890 1.348 . S
C893 C895 1.353 . S
C893 H949 0.929 . S
C894 C890 1.356 . S
C894 C891 1.358 . S
C894 H950 0.930 . S
C895 N892 1.314 . S
C895 C893 1.353 . S
C895 H951 0.930 . S
C896 N897 1.314 . S
C896 C901 1.353 . S
C896 H902 0.930 . S
N897 Li880 1.990 . S
N897 C896 1.314 . S
N897 C899 1.279 . S
C898 C899 1.358 . S
C898 C900 1.356 . S
C898 H952 0.930 . S
C899 N897 1.279 . S
C899 C898 1.358 . S
C899 H903 0.930 . S
C900 C898 1.356 . S
C900 C901 1.348 . S
C901 C896 1.353 . S
C901 C900 1.348 . S
C901 H953 0.929 . S
H902 C896 0.930 . S
H903 C899 0.930 . S
C904 N905 1.318 . S
C904 C906 1.353 . S
C904 H910 0.930 . S
N905 Li881 1.990 1_565 S
N905 C904 1.318 . S
N905 C908 1.276 1_565 S
C906 C904 1.353 . S
C906 C909 1.348 . S
C906 H954 0.929 . S
C907 C908 1.358 . S
C907 C909 1.356 1_545 S
C907 H955 0.930 . S
C908 N905 1.276 1_545 S
C908 C907 1.358 . S
C908 H911 0.930 . S
C909 C906 1.348 . S
C909 C907 1.356 1_565 S
H910 C904 0.930 . S
H911 C908 0.930 . S
C912 C914 1.340 1_545 S
C912 C915 1.361 . S
C912 O942 1.325 . S
N913 C916 1.314 1_545 S
N913 C917 1.280 . S
C914 C912 1.340 1_565 S
C914 C916 1.353 . S
C914 H956 0.929 . S
C915 C912 1.361 . S
C915 C917 1.358 . S
C915 H957 0.930 . S
C916 N913 1.314 1_565 S
C916 C914 1.353 . S
C916 H958 0.930 . S
C917 N913 1.280 . S
C917 C915 1.358 . S
C917 H959 0.930 . S
C918 C919 1.348 . S
C918 C920 1.356 . S
C918 O943 1.325 . S
C919 C918 1.348 . S
C919 C921 1.353 . S
C919 H960 0.929 . S
C920 C918 1.356 . S
C920 C922 1.358 . S
C920 H961 0.930 . S
C921 C919 1.353 . S
C921 N923 1.314 . S
C921 H962 0.930 . S
C922 C920 1.358 . S
C922 N923 1.279 . S
C922 H963 0.930 . S
N923 C921 1.314 . S
N923 C922 1.279 . S
C924 C926 1.353 . S
C924 N927 1.314 . S
C924 H930 0.930 . S
C925 N927 1.279 . S
C925 C928 1.358 . S
C925 H931 0.930 . S
C926 C924 1.353 . S
C926 C929 1.348 . S
C926 H964 0.929 . S
N927 Li882 1.990 . S
N927 C924 1.314 . S
N927 C925 1.279 . S
C928 C925 1.358 . S
C928 C929 1.356 . S
C928 H965 0.930 . S
C929 C926 1.348 . S
C929 C928 1.356 . S
H930 C924 0.930 . S
H931 C925 0.930 . S
C932 N933 1.314 1_545 S
C932 C934 1.353 . S
C932 H938 0.930 . S
N933 Li883 1.990 . S
N933 C932 1.314 1_565 S
N933 C936 1.279 . S
C934 C932 1.353 . S
C934 C937 1.348 1_545 S
C934 H966 0.929 . S
C935 C936 1.358 . S
C935 C937 1.356 . S
C935 H967 0.930 . S
C936 N933 1.279 . S
C936 C935 1.358 . S
C936 H939 0.930 . S
C937 C934 1.348 1_565 S
C937 C935 1.356 . S
H938 C932 0.930 . S
H939 C936 0.930 . S
O940 Li880 1.956 . S
O940 Li881 1.970 . S
O940 Li882 1.961 1_545 S
O940 C884 1.325 . S
O941 Li880 1.970 . S
O941 Li881 1.961 . S
O941 Li883 1.961 1_545 S
O941 C890 1.325 . S
O942 Li880 1.994 . S
O942 Li882 1.914 1_545 S
O942 Li883 1.974 1_545 S
O942 C912 1.325 . S
O943 Li881 1.956 1_565 S
O943 Li882 1.970 . S
O943 Li883 1.956 . S
O943 C918 1.325 . S
H944 C886 0.929 . S
H945 C887 0.930 . S
H946 C888 0.930 . S
H947 C889 0.930 . S
H948 C891 0.930 . S
H949 C893 0.929 . S
H950 C894 0.930 . S
H951 C895 0.930 . S
H952 C898 0.930 . S
H953 C901 0.929 . S
H954 C906 0.929 . S
H955 C907 0.930 . S
H956 C914 0.929 . S
H957 C915 0.930 . S
H958 C916 0.930 . S
H959 C917 0.930 . S
H960 C919 0.929 . S
H961 C920 0.930 . S
H962 C921 0.930 . S
H963 C922 0.930 . S
H964 C926 0.929 . S
H965 C928 0.930 . S
H966 C934 0.929 . S
H967 C935 0.930 . S
Li968 N985 1.990 . S
Li968 O1028 1.956 . S
Li968 O1029 1.970 . S
Li968 O1030 1.961 1_554 S
Li969 N993 1.990 . S
Li969 O1028 1.970 . S
Li969 O1029 1.956 . S
Li969 O1031 1.961 . S
Li970 N1015 1.990 . S
Li970 O1028 1.961 . S
Li970 O1030 1.956 1_554 S
Li970 O1031 1.970 . S
Li971 N1021 1.990 . S
Li971 O1029 1.961 1_556 S
Li971 O1030 1.970 . S
Li971 O1031 1.956 1_556 S
C972 C974 1.348 . S
C972 C975 1.356 . S
C972 O1028 1.325 . S
N973 C976 1.314 . S
N973 C977 1.279 . S
C974 C972 1.348 . S
C974 C976 1.353 . S
C974 H1032 0.929 . S
C975 C972 1.356 . S
C975 C977 1.358 . S
C975 H1033 0.930 . S
C976 N973 1.314 . S
C976 C974 1.353 . S
C976 H1034 0.930 . S
C977 N973 1.279 . S
C977 C975 1.358 . S
C977 H1035 0.930 . S
C978 C981 1.348 . S
C978 C982 1.351 1_554 S
C978 O1029 1.325 . S
C979 N980 1.279 1_556 S
C979 C982 1.354 . S
C979 H1036 0.930 . S
N980 C979 1.279 1_554 S
N980 C983 1.314 . S
C981 C978 1.348 . S
C981 C983 1.353 . S
C981 H1037 0.929 . S
C982 C978 1.351 1_556 S
C982 C979 1.354 . S
C982 H1038 0.943 . S
C983 N980 1.314 . S
C983 C981 1.353 . S
C983 H1039 0.930 . S
C984 N985 1.314 1_556 S
C984 C989 1.353 . S
C984 H990 0.930 . S
N985 Li968 1.990 . S
N985 C984 1.314 1_554 S
N985 C987 1.279 . S
C986 C987 1.358 . S
C986 C988 1.356 . S
C986 H1040 0.930 . S
C987 N985 1.279 . S
C987 C986 1.358 . S
C987 H991 0.930 . S
C988 C986 1.356 . S
C988 C989 1.348 1_554 S
C989 C984 1.353 . S
C989 C988 1.348 1_556 S
C989 H1041 0.929 . S
H990 C984 0.930 . S
H991 C987 0.930 . S
C992 N993 1.314 . S
C992 C994 1.353 . S
C992 H998 0.930 . S
N993 Li969 1.990 . S
N993 C992 1.314 . S
N993 C996 1.279 . S
C994 C992 1.353 . S
C994 C997 1.348 . S
C994 H1042 0.929 . S
C995 C996 1.358 . S
C995 C997 1.356 . S
C995 H1043 0.930 . S
C996 N993 1.279 . S
C996 C995 1.358 . S
C996 H999 0.930 . S
C997 C994 1.348 . S
C997 C995 1.356 . S
H998 C992 0.930 . S
H999 C996 0.930 . S
C1000 C1002 1.348 . S
C1000 C1003 1.356 . S
C1000 O1030 1.325 . S
N1001 C1004 1.314 . S
N1001 C1005 1.279 . S
C1002 C1000 1.348 . S
C1002 C1004 1.353 . S
C1002 H1044 0.929 . S
C1003 C1000 1.356 . S
C1003 C1005 1.358 . S
C1003 H1045 0.930 . S
C1004 N1001 1.314 . S
C1004 C1002 1.353 . S
C1004 H1046 0.930 . S
C1005 N1001 1.279 . S
C1005 C1003 1.358 . S
C1005 H1047 0.930 . S
C1006 C1007 1.348 . S
C1006 C1008 1.356 . S
C1006 O1031 1.325 . S
C1007 C1006 1.348 . S
C1007 C1009 1.353 . S
C1007 H1048 0.929 . S
C1008 C1006 1.356 . S
C1008 C1010 1.358 . S
C1008 H1049 0.930 . S
C1009 C1007 1.353 . S
C1009 N1011 1.314 . S
C1009 H1050 0.930 . S
C1010 C1008 1.358 . S
C1010 N1011 1.279 . S
C1010 H1051 0.930 . S
N1011 C1009 1.314 . S
N1011 C1010 1.279 . S
C1012 C1014 1.353 . S
C1012 N1015 1.314 . S
C1012 H1018 0.930 . S
C1013 N1015 1.279 . S
C1013 C1016 1.358 . S
C1013 H1019 0.930 1_554 S
C1014 C1012 1.353 . S
C1014 C1017 1.348 . S
C1014 H1052 0.929 . S
N1015 Li970 1.990 . S
N1015 C1012 1.314 . S
N1015 C1013 1.279 . S
C1016 C1013 1.358 . S
C1016 C1017 1.356 . S
C1016 H1053 0.930 1_554 S
C1017 C1014 1.348 . S
C1017 C1016 1.356 . S
H1018 C1012 0.930 . S
H1019 C1013 0.930 1_556 S
C1020 N1021 1.314 . S
C1020 C1022 1.353 . S
C1020 H1026 0.930 . S
N1021 Li971 1.990 . S
N1021 C1020 1.314 . S
N1021 C1024 1.279 . S
C1022 C1020 1.353 . S
C1022 C1025 1.348 . S
C1022 H1054 0.929 . S
C1023 C1024 1.358 . S
C1023 C1025 1.356 . S
C1023 H1055 0.930 . S
C1024 N1021 1.279 . S
C1024 C1023 1.358 . S
C1024 H1027 0.930 . S
C1025 C1022 1.348 . S
C1025 C1023 1.356 . S
H1026 C1020 0.930 . S
H1027 C1024 0.930 . S
O1028 Li968 1.956 . S
O1028 Li969 1.970 . S
O1028 Li970 1.961 . S
O1028 C972 1.325 . S
O1029 Li968 1.970 . S
O1029 Li969 1.956 . S
O1029 Li971 1.961 1_554 S
O1029 C978 1.325 . S
O1030 Li968 1.961 1_556 S
O1030 Li970 1.956 1_556 S
O1030 Li971 1.970 . S
O1030 C1000 1.325 . S
O1031 Li969 1.961 . S
O1031 Li970 1.970 . S
O1031 Li971 1.956 1_554 S
O1031 C1006 1.325 . S
H1032 C974 0.929 . S
H1033 C975 0.930 . S
H1034 C976 0.930 . S
H1035 C977 0.930 . S
H1036 C979 0.930 . S
H1037 C981 0.929 . S
H1038 C982 0.943 . S
H1039 C983 0.930 . S
H1040 C986 0.930 . S
H1041 C989 0.929 . S
H1042 C994 0.929 . S
H1043 C995 0.930 . S
H1044 C1002 0.929 . S
H1045 C1003 0.930 . S
H1046 C1004 0.930 . S
H1047 C1005 0.930 . S
H1048 C1007 0.929 . S
H1049 C1008 0.930 . S
H1050 C1009 0.930 . S
H1051 C1010 0.930 . S
H1052 C1014 0.929 . S
H1053 C1016 0.930 1_556 S
H1054 C1022 0.929 . S
H1055 C1023 0.930 . S
Li1056 N1073 1.990 . S
Li1056 O1116 1.956 . S
Li1056 O1117 1.970 . S
Li1056 O1118 1.961 1_554 S
Li1057 N1081 1.990 . S
Li1057 O1116 1.970 . S
Li1057 O1117 1.956 . S
Li1057 O1119 1.961 . S
Li1058 N1103 1.990 . S
Li1058 O1116 1.961 . S
Li1058 O1118 1.956 1_554 S
Li1058 O1119 1.970 . S
Li1059 N1109 1.990 . S
Li1059 O1117 1.961 1_556 S
Li1059 O1118 1.970 . S
Li1059 O1119 1.956 1_556 S
C1060 C1062 1.348 . S
C1060 C1063 1.356 . S
C1060 O1116 1.325 . S
N1061 C1064 1.314 . S
N1061 C1065 1.279 . S
C1062 C1060 1.348 . S
C1062 C1064 1.353 . S
C1062 H1120 0.929 . S
C1063 C1060 1.356 . S
C1063 C1065 1.358 . S
C1063 H1121 0.930 . S
C1064 N1061 1.314 . S
C1064 C1062 1.353 . S
C1064 H1122 0.930 . S
C1065 N1061 1.279 . S
C1065 C1063 1.358 . S
C1065 H1123 0.930 . S
C1066 C1069 1.348 . S
C1066 C1070 1.356 . S
C1066 O1117 1.325 . S
C1067 N1068 1.279 . S
C1067 C1070 1.358 . S
C1067 H1124 0.930 1_554 S
N1068 C1067 1.279 . S
N1068 C1071 1.314 . S
C1069 C1066 1.348 . S
C1069 C1071 1.353 . S
C1069 H1125 0.929 . S
C1070 C1066 1.356 . S
C1070 C1067 1.358 . S
C1070 H1126 0.930 . S
C1071 N1068 1.314 . S
C1071 C1069 1.353 . S
C1071 H1127 0.930 . S
C1072 N1073 1.314 . S
C1072 C1077 1.353 . S
C1072 H1078 0.930 1_554 S
N1073 Li1056 1.990 . S
N1073 C1072 1.314 . S
N1073 C1075 1.279 . S
C1074 C1075 1.358 . S
C1074 C1076 1.356 . S
C1074 H1128 0.930 . S
C1075 N1073 1.279 . S
C1075 C1074 1.358 . S
C1075 H1079 0.930 . S
C1076 C1074 1.356 . S
C1076 C1077 1.348 . S
C1077 C1072 1.353 . S
C1077 C1076 1.348 . S
C1077 H1129 0.929 1_554 S
H1078 C1072 0.930 1_556 S
H1079 C1075 0.930 . S
C1080 N1081 1.314 . S
C1080 C1082 1.353 . S
C1080 H1086 0.930 . S
N1081 Li1057 1.990 . S
N1081 C1080 1.314 . S
N1081 C1084 1.279 . S
C1082 C1080 1.353 . S
C1082 C1085 1.348 . S
C1082 H1130 0.929 . S
C1083 C1084 1.358 . S
C1083 C1085 1.356 . S
C1083 H1131 0.930 . S
C1084 N1081 1.279 . S
C1084 C1083 1.358 . S
C1084 H1087 0.930 . S
C1085 C1082 1.348 . S
C1085 C1083 1.356 . S
H1086 C1080 0.930 . S
H1087 C1084 0.930 . S
C1088 C1090 1.348 . S
C1088 C1091 1.356 . S
C1088 O1118 1.325 . S
N1089 C1092 1.314 . S
N1089 C1093 1.279 . S
C1090 C1088 1.348 . S
C1090 C1092 1.353 . S
C1090 H1132 0.929 . S
C1091 C1088 1.356 . S
C1091 C1093 1.358 . S
C1091 H1133 0.930 . S
C1092 N1089 1.314 . S
C1092 C1090 1.353 . S
C1092 H1134 0.930 . S
C1093 N1089 1.279 . S
C1093 C1091 1.358 . S
C1093 H1135 0.930 . S
C1094 C1095 1.348 . S
C1094 C1096 1.356 . S
C1094 O1119 1.325 . S
C1095 C1094 1.348 . S
C1095 C1097 1.353 . S
C1095 H1136 0.929 . S
C1096 C1094 1.356 . S
C1096 C1098 1.358 . S
C1096 H1137 0.930 . S
C1097 C1095 1.353 . S
C1097 N1099 1.314 . S
C1097 H1138 0.930 . S
C1098 C1096 1.358 . S
C1098 N1099 1.279 . S
C1098 H1139 0.930 . S
N1099 C1097 1.314 . S
N1099 C1098 1.279 . S
C1100 C1102 1.353 . S
C1100 N1103 1.314 . S
C1100 H1106 0.930 . S
C1101 N1103 1.279 . S
C1101 C1104 1.358 . S
C1101 H1107 0.930 1_554 S
C1102 C1100 1.353 . S
C1102 C1105 1.348 . S
C1102 H1140 0.929 . S
N1103 Li1058 1.990 . S
N1103 C1100 1.314 . S
N1103 C1101 1.279 . S
C1104 C1101 1.358 . S
C1104 C1105 1.356 . S
C1104 H1141 0.904 1_554 S
C1105 C1102 1.348 . S
C1105 C1104 1.356 . S
H1106 C1100 0.930 . S
H1107 C1101 0.930 1_556 S
C1108 N1109 1.314 . S
C1108 C1110 1.353 . S
C1108 H1114 0.930 . S
N1109 Li1059 1.990 . S
N1109 C1108 1.314 . S
N1109 C1112 1.279 . S
C1110 C1108 1.353 . S
C1110 C1113 1.348 . S
C1110 H1142 0.929 . S
C1111 C1112 1.358 . S
C1111 C1113 1.356 . S
C1111 H1143 0.930 . S
C1112 N1109 1.279 . S
C1112 C1111 1.358 . S
C1112 H1115 0.930 . S
C1113 C1110 1.348 . S
C1113 C1111 1.356 . S
H1114 C1108 0.930 . S
H1115 C1112 0.930 . S
O1116 Li1056 1.956 . S
O1116 Li1057 1.970 . S
O1116 Li1058 1.961 . S
O1116 C1060 1.325 . S
O1117 Li1056 1.970 . S
O1117 Li1057 1.956 . S
O1117 Li1059 1.961 1_554 S
O1117 C1066 1.325 . S
O1118 Li1056 1.961 1_556 S
O1118 Li1058 1.956 1_556 S
O1118 Li1059 1.970 . S
O1118 C1088 1.325 . S
O1119 Li1057 1.961 . S
O1119 Li1058 1.970 . S
O1119 Li1059 1.956 1_554 S
O1119 C1094 1.325 . S
H1120 C1062 0.929 . S
H1121 C1063 0.930 . S
H1122 C1064 0.930 . S
H1123 C1065 0.930 . S
H1124 C1067 0.930 1_556 S
H1125 C1069 0.929 . S
H1126 C1070 0.930 . S
H1127 C1071 0.930 . S
H1128 C1074 0.930 . S
H1129 C1077 0.929 1_556 S
H1130 C1082 0.929 . S
H1131 C1083 0.930 . S
H1132 C1090 0.929 . S
H1133 C1091 0.930 . S
H1134 C1092 0.930 . S
H1135 C1093 0.930 . S
H1136 C1095 0.929 . S
H1137 C1096 0.930 . S
H1138 C1097 0.930 . S
H1139 C1098 0.930 . S
H1140 C1102 0.929 . S
H1141 C1104 0.904 1_556 S
H1142 C1110 0.929 . S
H1143 C1111 0.930 . S
Li1144 N1161 1.990 . S
Li1144 O1204 1.956 . S
Li1144 O1205 1.970 . S
Li1144 O1206 1.961 . S
Li1145 N1169 1.990 . S
Li1145 O1204 1.970 . S
Li1145 O1205 1.956 . S
Li1145 O1207 1.961 1_554 S
Li1146 N1191 1.990 . S
Li1146 O1204 1.961 1_556 S
Li1146 O1206 1.956 1_556 S
Li1146 O1207 1.970 . S
Li1147 N1197 1.990 . S
Li1147 O1205 1.961 . S
Li1147 O1206 1.970 . S
Li1147 O1207 1.956 1_554 S
C1148 C1150 1.348 . S
C1148 C1151 1.356 . S
C1148 O1204 1.325 . S
N1149 C1152 1.314 . S
N1149 C1153 1.279 . S
C1150 C1148 1.348 . S
C1150 C1152 1.353 . S
C1150 H1208 0.929 . S
C1151 C1148 1.356 . S
C1151 C1153 1.358 . S
C1151 H1209 0.930 . S
C1152 N1149 1.314 . S
C1152 C1150 1.353 . S
C1152 H1210 0.930 . S
C1153 N1149 1.279 . S
C1153 C1151 1.358 . S
C1153 H1211 0.930 . S
C1154 C1157 1.348 . S
C1154 C1158 1.356 . S
C1154 O1205 1.325 . S
C1155 N1156 1.279 . S
C1155 C1158 1.358 . S
C1155 H1212 0.930 . S
N1156 C1155 1.279 . S
N1156 C1159 1.314 . S
C1157 C1154 1.348 . S
C1157 C1159 1.353 . S
C1157 H1213 0.929 . S
C1158 C1154 1.356 . S
C1158 C1155 1.358 . S
C1158 H1214 0.930 . S
C1159 N1156 1.314 . S
C1159 C1157 1.353 . S
C1159 H1215 0.930 . S
C1160 N1161 1.314 . S
C1160 C1165 1.353 . S
C1160 H1166 0.930 . S
N1161 Li1144 1.990 . S
N1161 C1160 1.314 . S
N1161 C1163 1.279 . S
C1162 C1163 1.358 . S
C1162 C1164 1.356 . S
C1162 H1216 0.930 . S
C1163 N1161 1.279 . S
C1163 C1162 1.358 . S
C1163 H1167 0.930 . S
C1164 C1162 1.356 . S
C1164 C1165 1.348 . S
C1165 C1160 1.353 . S
C1165 C1164 1.348 . S
C1165 H1217 0.929 . S
H1166 C1160 0.930 . S
H1167 C1163 0.930 . S
C1168 N1169 1.314 1_556 S
C1168 C1170 1.353 . S
C1168 H1174 0.930 . S
N1169 Li1145 1.990 . S
N1169 C1168 1.314 1_554 S
N1169 C1172 1.279 . S
C1170 C1168 1.353 . S
C1170 C1173 1.348 1_556 S
C1170 H1218 0.929 . S
C1171 C1172 1.358 . S
C1171 C1173 1.356 . S
C1171 H1219 0.930 . S
C1172 N1169 1.279 . S
C1172 C1171 1.358 . S
C1172 H1175 0.930 . S
C1173 C1170 1.348 1_554 S
C1173 C1171 1.356 . S
H1174 C1168 0.930 . S
H1175 C1172 0.930 . S
C1176 C1178 1.348 . S
C1176 C1179 1.356 . S
C1176 O1206 1.325 . S
N1177 C1180 1.314 . S
N1177 C1181 1.279 . S
C1178 C1176 1.348 . S
C1178 C1180 1.353 . S
C1178 H1220 0.929 1_554 S
C1179 C1176 1.356 . S
C1179 C1181 1.358 . S
C1179 H1221 0.930 . S
C1180 N1177 1.314 . S
C1180 C1178 1.353 . S
C1180 H1222 0.921 1_554 S
C1181 N1177 1.279 . S
C1181 C1179 1.358 . S
C1181 H1223 0.930 . S
C1182 C1183 1.348 . S
C1182 C1184 1.356 . S
C1182 O1207 1.325 . S
C1183 C1182 1.348 . S
C1183 C1185 1.353 . S
C1183 H1224 0.929 . S
C1184 C1182 1.356 . S
C1184 C1186 1.358 . S
C1184 H1225 0.930 . S
C1185 C1183 1.353 . S
C1185 N1187 1.314 . S
C1185 H1226 0.930 . S
C1186 C1184 1.358 . S
C1186 N1187 1.279 . S
C1186 H1227 0.930 . S
N1187 C1185 1.314 . S
N1187 C1186 1.279 . S
C1188 C1190 1.353 . S
C1188 N1191 1.314 . S
C1188 H1194 0.930 . S
C1189 N1191 1.279 . S
C1189 C1192 1.358 . S
C1189 H1195 0.930 . S
C1190 C1188 1.353 . S
C1190 C1193 1.348 . S
C1190 H1228 0.929 . S
N1191 Li1146 1.990 . S
N1191 C1188 1.314 . S
N1191 C1189 1.279 . S
C1192 C1189 1.358 . S
C1192 C1193 1.356 . S
C1192 H1229 0.930 . S
C1193 C1190 1.348 . S
C1193 C1192 1.356 . S
H1194 C1188 0.930 . S
H1195 C1189 0.930 . S
C1196 N1197 1.314 . S
C1196 C1198 1.353 . S
C1196 H1202 0.930 . S
N1197 Li1147 1.990 . S
N1197 C1196 1.314 . S
N1197 C1200 1.279 1_554 S
C1198 C1196 1.353 . S
C1198 C1201 1.348 1_554 S
C1198 H1230 0.929 . S
C1199 C1200 1.358 . S
C1199 C1201 1.356 . S
C1199 H1231 0.930 . S
C1200 N1197 1.279 1_556 S
C1200 C1199 1.358 . S
C1200 H1203 0.930 . S
C1201 C1198 1.348 1_556 S
C1201 C1199 1.356 . S
H1202 C1196 0.930 . S
H1203 C1200 0.930 . S
O1204 Li1144 1.956 . S
O1204 Li1145 1.970 . S
O1204 Li1146 1.961 1_554 S
O1204 C1148 1.325 . S
O1205 Li1144 1.970 . S
O1205 Li1145 1.956 . S
O1205 Li1147 1.961 . S
O1205 C1154 1.325 . S
O1206 Li1144 1.961 . S
O1206 Li1146 1.956 1_554 S
O1206 Li1147 1.970 . S
O1206 C1176 1.325 . S
O1207 Li1145 1.961 1_556 S
O1207 Li1146 1.970 . S
O1207 Li1147 1.956 1_556 S
O1207 C1182 1.325 . S
H1208 C1150 0.929 . S
H1209 C1151 0.930 . S
H1210 C1152 0.930 . S
H1211 C1153 0.930 . S
H1212 C1155 0.930 . S
H1213 C1157 0.929 . S
H1214 C1158 0.930 . S
H1215 C1159 0.930 . S
H1216 C1162 0.930 . S
H1217 C1165 0.929 . S
H1218 C1170 0.929 . S
H1219 C1171 0.930 . S
H1220 C1178 0.929 1_556 S
H1221 C1179 0.930 . S
H1222 C1180 0.921 1_556 S
H1223 C1181 0.930 . S
H1224 C1183 0.929 . S
H1225 C1184 0.930 . S
H1226 C1185 0.930 . S
H1227 C1186 0.930 . S
H1228 C1190 0.929 . S
H1229 C1192 0.930 . S
H1230 C1198 0.929 . S
H1231 C1199 0.930 . S
Li1232 N1249 1.990 . S
Li1232 O1292 1.956 . S
Li1232 O1293 1.970 . S
Li1232 O1294 1.961 . S
Li1233 N1257 1.990 . S
Li1233 O1292 1.970 . S
Li1233 O1293 1.956 . S
Li1233 O1295 1.961 . S
Li1234 N1279 1.990 . S
Li1234 O1292 1.961 . S
Li1234 O1294 1.956 . S
Li1234 O1295 1.970 . S
Li1235 N1285 1.990 . S
Li1235 O1293 1.961 . S
Li1235 O1294 1.970 . S
Li1235 O1295 1.956 . S
C1236 C1238 1.348 . S
C1236 C1239 1.356 . S
C1236 O1292 1.325 . S
N1237 C1240 1.314 . S
N1237 C1241 1.279 . S
C1238 C1236 1.348 . S
C1238 C1240 1.353 . S
C1238 H1296 0.929 . S
C1239 C1236 1.356 . S
C1239 C1241 1.358 . S
C1239 H1297 0.930 . S
C1240 N1237 1.314 . S
C1240 C1238 1.353 . S
C1240 H1298 0.930 . S
C1241 N1237 1.279 . S
C1241 C1239 1.358 . S
C1241 H1299 0.930 . S
C1242 C1245 1.348 . S
C1242 C1246 1.356 . S
C1242 O1293 1.325 . S
C1243 N1244 1.279 . S
C1243 C1246 1.358 . S
C1243 H1300 0.930 . S
N1244 C1243 1.279 . S
N1244 C1247 1.314 . S
C1245 C1242 1.348 . S
C1245 C1247 1.353 . S
C1245 H1301 0.929 . S
C1246 C1242 1.356 . S
C1246 C1243 1.358 . S
C1246 H1302 0.930 . S
C1247 N1244 1.314 . S
C1247 C1245 1.353 . S
C1247 H1303 0.930 . S
C1248 N1249 1.314 . S
C1248 C1253 1.353 . S
C1248 H1254 0.930 . S
N1249 Li1232 1.990 . S
N1249 C1248 1.314 . S
N1249 C1251 1.279 . S
C1250 C1251 1.358 . S
C1250 C1252 1.356 . S
C1250 H1304 0.930 . S
C1251 N1249 1.279 . S
C1251 C1250 1.358 . S
C1251 H1255 0.930 . S
C1252 C1250 1.356 . S
C1252 C1253 1.348 . S
C1253 C1248 1.353 . S
C1253 C1252 1.348 . S
C1253 H1305 0.929 . S
H1254 C1248 0.930 . S
H1255 C1251 0.930 . S
C1256 N1257 1.314 . S
C1256 C1258 1.353 . S
C1256 H1262 0.930 . S
N1257 Li1233 1.990 . S
N1257 C1256 1.314 . S
N1257 C1260 1.279 . S
C1258 C1256 1.353 . S
C1258 C1261 1.348 . S
C1258 H1306 0.929 . S
C1259 C1260 1.358 . S
C1259 C1261 1.356 . S
C1259 H1307 0.930 . S
C1260 N1257 1.279 . S
C1260 C1259 1.358 . S
C1260 H1263 0.930 . S
C1261 C1258 1.348 . S
C1261 C1259 1.356 . S
H1262 C1256 0.930 . S
H1263 C1260 0.930 . S
C1264 C1266 1.348 . S
C1264 C1267 1.356 . S
C1264 O1294 1.325 . S
N1265 C1268 1.314 . S
N1265 C1269 1.279 . S
C1266 C1264 1.348 . S
C1266 C1268 1.353 . S
C1266 H1308 0.929 . S
C1267 C1264 1.356 . S
C1267 C1269 1.358 . S
C1267 H1309 0.930 . S
C1268 N1265 1.314 . S
C1268 C1266 1.353 . S
C1268 H1310 0.930 . S
C1269 N1265 1.279 . S
C1269 C1267 1.358 . S
C1269 H1311 0.930 . S
C1270 C1271 1.348 . S
C1270 C1272 1.356 . S
C1270 O1295 1.325 . S
C1271 C1270 1.348 . S
C1271 C1273 1.353 . S
C1271 H1312 0.929 . S
C1272 C1270 1.356 . S
C1272 C1274 1.358 . S
C1272 H1313 0.930 . S
C1273 C1271 1.353 . S
C1273 N1275 1.314 . S
C1273 H1314 0.930 . S
C1274 C1272 1.358 . S
C1274 N1275 1.279 . S
C1274 H1315 0.930 . S
N1275 C1273 1.314 . S
N1275 C1274 1.279 . S
C1276 C1278 1.353 . S
C1276 N1279 1.314 . S
C1276 H1282 0.930 . S
C1277 N1279 1.279 . S
C1277 C1280 1.358 . S
C1277 H1283 0.930 . S
C1278 C1276 1.353 . S
C1278 C1281 1.348 . S
C1278 H1316 0.929 . S
N1279 Li1234 1.990 . S
N1279 C1276 1.314 . S
N1279 C1277 1.279 . S
C1280 C1277 1.358 . S
C1280 C1281 1.356 . S
C1280 H1317 0.930 . S
C1281 C1278 1.348 . S
C1281 C1280 1.356 . S
H1282 C1276 0.930 . S
H1283 C1277 0.930 . S
C1284 N1285 1.314 . S
C1284 C1286 1.353 . S
C1284 H1290 0.930 . S
N1285 Li1235 1.990 . S
N1285 C1284 1.314 . S
N1285 C1288 1.279 . S
C1286 C1284 1.353 . S
C1286 C1289 1.348 . S
C1286 H1318 0.929 . S
C1287 C1288 1.358 . S
C1287 C1289 1.356 . S
C1287 H1319 0.930 . S
C1288 N1285 1.279 . S
C1288 C1287 1.358 . S
C1288 H1291 0.930 . S
C1289 C1286 1.348 . S
C1289 C1287 1.356 . S
H1290 C1284 0.930 . S
H1291 C1288 0.930 . S
O1292 Li1232 1.956 . S
O1292 Li1233 1.970 . S
O1292 Li1234 1.961 . S
O1292 C1236 1.325 . S
O1293 Li1232 1.970 . S
O1293 Li1233 1.956 . S
O1293 Li1235 1.961 . S
O1293 C1242 1.325 . S
O1294 Li1232 1.961 . S
O1294 Li1234 1.956 . S
O1294 Li1235 1.970 . S
O1294 C1264 1.325 . S
O1295 Li1233 1.961 . S
O1295 Li1234 1.970 . S
O1295 Li1235 1.956 . S
O1295 C1270 1.325 . S
H1296 C1238 0.929 . S
H1297 C1239 0.930 . S
H1298 C1240 0.930 . S
H1299 C1241 0.930 . S
H1300 C1243 0.930 . S
H1301 C1245 0.929 . S
H1302 C1246 0.930 . S
H1303 C1247 0.930 . S
H1304 C1250 0.930 . S
H1305 C1253 0.929 . S
H1306 C1258 0.929 . S
H1307 C1259 0.930 . S
H1308 C1266 0.929 . S
H1309 C1267 0.930 . S
H1310 C1268 0.930 . S
H1311 C1269 0.930 . S
H1312 C1271 0.929 . S
H1313 C1272 0.930 . S
H1314 C1273 0.930 . S
H1315 C1274 0.930 . S
H1316 C1278 0.929 . S
H1317 C1280 0.930 . S
H1318 C1286 0.929 . S
H1319 C1287 0.930 . S
Li1320 N1337 1.990 . S
Li1320 O1380 1.956 . S
Li1320 O1381 1.970 . S
Li1320 O1382 1.961 . S
Li1321 N1345 1.990 . S
Li1321 O1380 1.970 . S
Li1321 O1381 1.956 . S
Li1321 O1383 1.961 . S
Li1322 N1367 1.990 . S
Li1322 O1380 1.961 . S
Li1322 O1382 1.956 . S
Li1322 O1383 1.970 . S
Li1323 N1373 1.990 . S
Li1323 O1381 1.961 . S
Li1323 O1382 1.970 . S
Li1323 O1383 1.956 . S
C1324 C1326 1.348 . S
C1324 C1327 1.356 . S
C1324 O1380 1.325 . S
N1325 C1328 1.314 . S
N1325 C1329 1.279 . S
C1326 C1324 1.348 . S
C1326 C1328 1.353 . S
C1326 H1384 0.929 . S
C1327 C1324 1.356 . S
C1327 C1329 1.358 . S
C1327 H1385 0.930 . S
C1328 N1325 1.314 . S
C1328 C1326 1.353 . S
C1328 H1386 0.930 . S
C1329 N1325 1.279 . S
C1329 C1327 1.358 . S
C1329 H1387 0.930 . S
C1330 C1333 1.348 . S
C1330 C1334 1.356 . S
C1330 O1381 1.325 . S
C1331 N1332 1.279 . S
C1331 C1334 1.358 . S
C1331 H1388 0.930 . S
N1332 C1331 1.279 . S
N1332 C1335 1.314 . S
C1333 C1330 1.348 . S
C1333 C1335 1.353 . S
C1333 H1389 0.929 . S
C1334 C1330 1.356 . S
C1334 C1331 1.358 . S
C1334 H1390 0.930 . S
C1335 N1332 1.314 . S
C1335 C1333 1.353 . S
C1335 H1391 0.930 . S
C1336 N1337 1.314 . S
C1336 C1341 1.353 . S
C1336 H1342 0.930 . S
N1337 Li1320 1.990 . S
N1337 C1336 1.314 . S
N1337 C1339 1.279 . S
C1338 C1339 1.358 . S
C1338 C1340 1.356 . S
C1338 H1392 0.930 . S
C1339 N1337 1.279 . S
C1339 C1338 1.358 . S
C1339 H1343 0.930 . S
C1340 C1338 1.356 . S
C1340 C1341 1.348 . S
C1341 C1336 1.353 . S
C1341 C1340 1.348 . S
C1341 H1393 0.929 . S
H1342 C1336 0.930 . S
H1343 C1339 0.930 . S
C1344 N1345 1.314 . S
C1344 C1346 1.353 . S
C1344 H1350 0.930 . S
N1345 Li1321 1.990 . S
N1345 C1344 1.314 . S
N1345 C1348 1.279 . S
C1346 C1344 1.353 . S
C1346 C1349 1.348 . S
C1346 H1394 0.929 . S
C1347 C1348 1.358 . S
C1347 C1349 1.356 . S
C1347 H1395 0.930 . S
C1348 N1345 1.279 . S
C1348 C1347 1.358 . S
C1348 H1351 0.930 . S
C1349 C1346 1.348 . S
C1349 C1347 1.356 . S
H1350 C1344 0.930 . S
H1351 C1348 0.930 . S
C1352 C1354 1.348 . S
C1352 C1355 1.356 . S
C1352 O1382 1.325 . S
N1353 C1356 1.314 . S
N1353 C1357 1.279 . S
C1354 C1352 1.348 . S
C1354 C1356 1.353 . S
C1354 H1396 0.929 . S
C1355 C1352 1.356 . S
C1355 C1357 1.358 . S
C1355 H1397 0.930 . S
C1356 N1353 1.314 . S
C1356 C1354 1.353 . S
C1356 H1398 0.930 . S
C1357 N1353 1.279 . S
C1357 C1355 1.358 . S
C1357 H1399 0.930 . S
C1358 C1359 1.348 . S
C1358 C1360 1.356 . S
C1358 O1383 1.325 . S
C1359 C1358 1.348 . S
C1359 C1361 1.353 . S
C1359 H1400 0.929 . S
C1360 C1358 1.356 . S
C1360 C1362 1.358 . S
C1360 H1401 0.930 . S
C1361 C1359 1.353 . S
C1361 N1363 1.314 . S
C1361 H1402 0.930 . S
C1362 C1360 1.358 . S
C1362 N1363 1.279 . S
C1362 H1403 0.930 . S
N1363 C1361 1.314 . S
N1363 C1362 1.279 . S
C1364 C1366 1.353 . S
C1364 N1367 1.314 . S
C1364 H1370 0.930 . S
C1365 N1367 1.279 . S
C1365 C1368 1.358 . S
C1365 H1371 0.930 . S
C1366 C1364 1.353 . S
C1366 C1369 1.348 . S
C1366 H1404 0.929 . S
N1367 Li1322 1.990 . S
N1367 C1364 1.314 . S
N1367 C1365 1.279 . S
C1368 C1365 1.358 . S
C1368 C1369 1.356 . S
C1368 H1405 0.930 . S
C1369 C1366 1.348 . S
C1369 C1368 1.356 . S
H1370 C1364 0.930 . S
H1371 C1365 0.930 . S
C1372 N1373 1.314 . S
C1372 C1374 1.353 . S
C1372 H1378 0.930 . S
N1373 Li1323 1.990 . S
N1373 C1372 1.314 . S
N1373 C1376 1.279 . S
C1374 C1372 1.353 . S
C1374 C1377 1.348 . S
C1374 H1406 0.929 . S
C1375 C1376 1.358 . S
C1375 C1377 1.356 . S
C1375 H1407 0.930 . S
C1376 N1373 1.279 . S
C1376 C1375 1.358 . S
C1376 H1379 0.930 . S
C1377 C1374 1.348 . S
C1377 C1375 1.356 . S
H1378 C1372 0.930 . S
H1379 C1376 0.930 . S
O1380 Li1320 1.956 . S
O1380 Li1321 1.970 . S
O1380 Li1322 1.961 . S
O1380 C1324 1.325 . S
O1381 Li1320 1.970 . S
O1381 Li1321 1.956 . S
O1381 Li1323 1.961 . S
O1381 C1330 1.325 . S
O1382 Li1320 1.961 . S
O1382 Li1322 1.956 . S
O1382 Li1323 1.970 . S
O1382 C1352 1.325 . S
O1383 Li1321 1.961 . S
O1383 Li1322 1.970 . S
O1383 Li1323 1.956 . S
O1383 C1358 1.325 . S
H1384 C1326 0.929 . S
H1385 C1327 0.930 . S
H1386 C1328 0.930 . S
H1387 C1329 0.930 . S
H1388 C1331 0.930 . S
H1389 C1333 0.929 . S
H1390 C1334 0.930 . S
H1391 C1335 0.930 . S
H1392 C1338 0.930 . S
H1393 C1341 0.929 . S
H1394 C1346 0.929 . S
H1395 C1347 0.930 . S
H1396 C1354 0.929 . S
H1397 C1355 0.930 . S
H1398 C1356 0.930 . S
H1399 C1357 0.930 . S
H1400 C1359 0.929 . S
H1401 C1360 0.930 . S
H1402 C1361 0.930 . S
H1403 C1362 0.930 . S
H1404 C1366 0.929 . S
H1405 C1368 0.930 . S
H1406 C1374 0.929 . S
H1407 C1375 0.930 . S
Li1408 N1425 1.990 . S
Li1408 O1468 1.956 . S
Li1408 O1469 1.970 . S
Li1408 O1470 1.961 . S
Li1409 N1433 1.990 . S
Li1409 O1468 1.970 . S
Li1409 O1469 1.956 . S
Li1409 O1471 1.961 . S
Li1410 N1455 1.990 . S
Li1410 O1468 1.961 . S
Li1410 O1470 1.956 . S
Li1410 O1471 1.970 . S
Li1411 N1461 1.990 . S
Li1411 O1469 1.961 . S
Li1411 O1470 1.970 . S
Li1411 O1471 1.956 . S
C1412 C1414 1.348 . S
C1412 C1415 1.356 . S
C1412 O1468 1.325 . S
N1413 C1416 1.313 . S
N1413 C1417 1.251 1_565 S
C1414 C1412 1.348 . S
C1414 C1416 1.353 1_545 S
C1414 H1472 0.929 . S
C1415 C1412 1.356 . S
C1415 C1417 1.358 . S
C1415 H1473 0.930 . S
C1416 N1413 1.313 . S
C1416 C1414 1.353 1_565 S
C1416 H1474 0.930 . S
C1417 N1413 1.251 1_545 S
C1417 C1415 1.358 . S
C1417 H1475 0.930 . S
C1418 C1421 1.348 . S
C1418 C1422 1.356 . S
C1418 O1469 1.325 . S
C1419 N1420 1.279 . S
C1419 C1422 1.358 . S
C1419 H1476 0.930 . S
N1420 C1419 1.279 . S
N1420 C1423 1.314 . S
C1421 C1418 1.348 . S
C1421 C1423 1.353 . S
C1421 H1477 0.929 . S
C1422 C1418 1.356 . S
C1422 C1419 1.358 . S
C1422 H1478 0.930 . S
C1423 N1420 1.314 . S
C1423 C1421 1.353 . S
C1423 H1479 0.930 . S
C1424 N1425 1.314 . S
C1424 C1429 1.353 . S
C1424 H1430 0.930 . S
N1425 Li1408 1.990 . S
N1425 C1424 1.314 . S
N1425 C1427 1.279 . S
C1426 C1427 1.358 . S
C1426 C1428 1.356 . S
C1426 H1480 0.930 . S
C1427 N1425 1.279 . S
C1427 C1426 1.358 . S
C1427 H1431 0.930 . S
C1428 C1426 1.356 . S
C1428 C1429 1.348 . S
C1429 C1424 1.353 . S
C1429 C1428 1.348 . S
C1429 H1481 0.929 . S
H1430 C1424 0.930 . S
H1431 C1427 0.930 . S
C1432 N1433 1.314 . S
C1432 C1434 1.353 1_545 S
C1432 H1438 0.930 . S
N1433 Li1409 1.990 . S
N1433 C1432 1.314 . S
N1433 C1436 1.279 . S
C1434 C1432 1.353 1_565 S
C1434 C1437 1.348 . S
C1434 H1482 0.929 . S
C1435 C1436 1.358 1_565 S
C1435 C1437 1.356 . S
C1435 H1483 0.930 . S
C1436 N1433 1.279 . S
C1436 C1435 1.358 1_545 S
C1436 H1439 0.930 . S
C1437 C1434 1.348 . S
C1437 C1435 1.356 . S
H1438 C1432 0.930 . S
H1439 C1436 0.930 . S
C1440 C1442 1.348 . S
C1440 C1443 1.356 . S
C1440 O1470 1.325 . S
N1441 C1444 1.314 . S
N1441 C1445 1.279 . S
C1442 C1440 1.348 . S
C1442 C1444 1.353 . S
C1442 H1484 0.929 . S
C1443 C1440 1.356 . S
C1443 C1445 1.358 . S
C1443 H1485 0.930 . S
C1444 N1441 1.314 . S
C1444 C1442 1.353 . S
C1444 H1486 0.930 . S
C1445 N1441 1.279 . S
C1445 C1443 1.358 . S
C1445 H1487 0.930 1_655 S
C1446 C1447 1.348 . S
C1446 C1448 1.356 . S
C1446 O1471 1.325 . S
C1447 C1446 1.348 . S
C1447 C1449 1.353 . S
C1447 H1488 0.929 . S
C1448 C1446 1.356 . S
C1448 C1450 1.358 . S
C1448 H1489 0.930 . S
C1449 C1447 1.353 . S
C1449 N1451 1.314 . S
C1449 H1490 0.930 . S
C1450 C1448 1.358 . S
C1450 N1451 1.279 . S
C1450 H1491 0.930 . S
N1451 C1449 1.314 . S
N1451 C1450 1.279 . S
C1452 C1454 1.353 . S
C1452 N1455 1.314 . S
C1452 H1458 0.930 . S
C1453 N1455 1.279 . S
C1453 C1456 1.358 . S
C1453 H1459 0.930 . S
C1454 C1452 1.353 . S
C1454 C1457 1.348 . S
C1454 H1492 0.929 . S
N1455 Li1410 1.990 . S
N1455 C1452 1.314 . S
N1455 C1453 1.279 . S
C1456 C1453 1.358 . S
C1456 C1457 1.356 . S
C1456 H1493 0.930 . S
C1457 C1454 1.348 . S
C1457 C1456 1.356 . S
H1458 C1452 0.930 . S
H1459 C1453 0.930 . S
C1460 N1461 1.314 . S
C1460 C1462 1.353 . S
C1460 H1466 0.930 . S
N1461 Li1411 1.990 . S
N1461 C1460 1.314 . S
N1461 C1464 1.279 . S
C1462 C1460 1.353 . S
C1462 C1465 1.348 . S
C1462 H1494 0.929 . S
C1463 C1464 1.358 . S
C1463 C1465 1.356 . S
C1463 H1495 0.930 . S
C1464 N1461 1.279 . S
C1464 C1463 1.358 . S
C1464 H1467 0.930 . S
C1465 C1462 1.348 . S
C1465 C1463 1.356 . S
H1466 C1460 0.930 . S
H1467 C1464 0.930 . S
O1468 Li1408 1.956 . S
O1468 Li1409 1.970 . S
O1468 Li1410 1.961 . S
O1468 C1412 1.325 . S
O1469 Li1408 1.970 . S
O1469 Li1409 1.956 . S
O1469 Li1411 1.961 . S
O1469 C1418 1.325 . S
O1470 Li1408 1.961 . S
O1470 Li1410 1.956 . S
O1470 Li1411 1.970 . S
O1470 C1440 1.325 . S
O1471 Li1409 1.961 . S
O1471 Li1410 1.970 . S
O1471 Li1411 1.956 . S
O1471 C1446 1.325 . S
H1472 C1414 0.929 . S
H1473 C1415 0.930 . S
H1474 C1416 0.930 . S
H1475 C1417 0.930 . S
H1476 C1419 0.930 . S
H1477 C1421 0.929 . S
H1478 C1422 0.930 . S
H1479 C1423 0.930 . S
H1480 C1426 0.930 . S
H1481 C1429 0.929 . S
H1482 C1434 0.929 . S
H1483 C1435 0.930 . S
H1484 C1442 0.929 . S
H1485 C1443 0.930 . S
H1486 C1444 0.930 . S
H1487 C1445 0.930 1_455 S
H1488 C1447 0.929 . S
H1489 C1448 0.930 . S
H1490 C1449 0.930 . S
H1491 C1450 0.930 . S
H1492 C1454 0.929 . S
H1493 C1456 0.930 . S
H1494 C1462 0.929 . S
H1495 C1463 0.930 . S
Li1496 N1513 1.990 . S
Li1496 O1556 1.956 . S
Li1496 O1557 1.970 . S
Li1496 O1558 1.961 . S
Li1497 N1521 1.990 . S
Li1497 O1556 1.970 . S
Li1497 O1557 1.956 . S
Li1497 O1559 1.961 . S
Li1498 N1543 1.990 . S
Li1498 O1556 1.961 . S
Li1498 O1558 1.956 . S
Li1498 O1559 1.970 . S
Li1499 N1549 1.990 . S
Li1499 O1557 1.961 . S
Li1499 O1558 1.970 . S
Li1499 O1559 1.956 . S
C1500 C1502 1.348 . S
C1500 C1503 1.356 . S
C1500 O1556 1.325 . S
N1501 C1504 1.314 . S
N1501 C1505 1.279 . S
C1502 C1500 1.348 . S
C1502 C1504 1.353 . S
C1502 H1560 0.929 . S
C1503 C1500 1.356 . S
C1503 C1505 1.358 . S
C1503 H1561 0.930 . S
C1504 N1501 1.314 . S
C1504 C1502 1.353 . S
C1504 H1562 0.930 . S
C1505 N1501 1.279 . S
C1505 C1503 1.358 . S
C1505 H1563 0.930 . S
C1506 C1509 1.348 . S
C1506 C1510 1.356 . S
C1506 O1557 1.325 . S
C1507 N1508 1.279 . S
C1507 C1510 1.358 . S
C1507 H1564 0.930 . S
N1508 C1507 1.279 . S
N1508 C1511 1.314 . S
C1509 C1506 1.348 . S
C1509 C1511 1.353 . S
C1509 H1565 0.929 . S
C1510 C1506 1.356 . S
C1510 C1507 1.358 . S
C1510 H1566 0.930 . S
C1511 N1508 1.314 . S
C1511 C1509 1.353 . S
C1511 H1567 0.930 . S
C1512 N1513 1.314 . S
C1512 C1517 1.353 . S
C1512 H1518 0.930 . S
N1513 Li1496 1.990 . S
N1513 C1512 1.314 . S
N1513 C1515 1.279 . S
C1514 C1515 1.358 . S
C1514 C1516 1.356 . S
C1514 H1568 0.930 . S
C1515 N1513 1.279 . S
C1515 C1514 1.358 . S
C1515 H1519 0.930 . S
C1516 C1514 1.356 . S
C1516 C1517 1.348 . S
C1517 C1512 1.353 . S
C1517 C1516 1.348 . S
C1517 H1569 0.929 . S
H1518 C1512 0.930 . S
H1519 C1515 0.930 . S
C1520 N1521 1.314 . S
C1520 C1522 1.353 . S
C1520 H1526 0.930 . S
N1521 Li1497 1.990 . S
N1521 C1520 1.314 . S
N1521 C1524 1.279 . S
C1522 C1520 1.353 . S
C1522 C1525 1.348 . S
C1522 H1570 0.929 . S
C1523 C1524 1.358 . S
C1523 C1525 1.356 . S
C1523 H1571 0.930 . S
C1524 N1521 1.279 . S
C1524 C1523 1.358 . S
C1524 H1527 0.930 . S
C1525 C1522 1.348 . S
C1525 C1523 1.356 . S
H1526 C1520 0.930 . S
H1527 C1524 0.930 . S
C1528 C1530 1.348 . S
C1528 C1531 1.356 . S
C1528 O1558 1.325 . S
N1529 C1532 1.314 . S
N1529 C1533 1.279 . S
C1530 C1528 1.348 . S
C1530 C1532 1.353 . S
C1530 H1572 0.929 . S
C1531 C1528 1.356 . S
C1531 C1533 1.358 . S
C1531 H1573 0.930 . S
C1532 N1529 1.314 . S
C1532 C1530 1.353 . S
C1532 H1574 0.930 . S
C1533 N1529 1.279 . S
C1533 C1531 1.358 . S
C1533 H1575 0.930 . S
C1534 C1535 1.348 . S
C1534 C1536 1.356 . S
C1534 O1559 1.325 . S
C1535 C1534 1.348 . S
C1535 C1537 1.353 . S
C1535 H1576 0.929 . S
C1536 C1534 1.356 . S
C1536 C1538 1.358 . S
C1536 H1577 0.930 . S
C1537 C1535 1.353 . S
C1537 N1539 1.314 . S
C1537 H1578 0.930 . S
C1538 C1536 1.358 . S
C1538 N1539 1.279 . S
C1538 H1579 0.930 . S
N1539 C1537 1.314 . S
N1539 C1538 1.279 . S
C1540 C1542 1.353 . S
C1540 N1543 1.314 . S
C1540 H1546 0.930 . S
C1541 N1543 1.279 . S
C1541 C1544 1.358 . S
C1541 H1547 0.930 . S
C1542 C1540 1.353 . S
C1542 C1545 1.348 . S
C1542 H1580 0.929 . S
N1543 Li1498 1.990 . S
N1543 C1540 1.314 . S
N1543 C1541 1.279 . S
C1544 C1541 1.358 . S
C1544 C1545 1.356 . S
C1544 H1581 0.930 . S
C1545 C1542 1.348 . S
C1545 C1544 1.356 . S
H1546 C1540 0.930 . S
H1547 C1541 0.930 . S
C1548 N1549 1.314 . S
C1548 C1550 1.353 . S
C1548 H1554 0.930 . S
N1549 Li1499 1.990 . S
N1549 C1548 1.314 . S
N1549 C1552 1.279 . S
C1550 C1548 1.353 . S
C1550 C1553 1.348 . S
C1550 H1582 0.929 . S
C1551 C1552 1.358 . S
C1551 C1553 1.356 . S
C1551 H1583 0.930 . S
C1552 N1549 1.279 . S
C1552 C1551 1.358 . S
C1552 H1555 0.930 . S
C1553 C1550 1.348 . S
C1553 C1551 1.356 . S
H1554 C1548 0.930 . S
H1555 C1552 0.930 . S
O1556 Li1496 1.956 . S
O1556 Li1497 1.970 . S
O1556 Li1498 1.961 . S
O1556 C1500 1.325 . S
O1557 Li1496 1.970 . S
O1557 Li1497 1.956 . S
O1557 Li1499 1.961 . S
O1557 C1506 1.325 . S
O1558 Li1496 1.961 . S
O1558 Li1498 1.956 . S
O1558 Li1499 1.970 . S
O1558 C1528 1.325 . S
O1559 Li1497 1.961 . S
O1559 Li1498 1.970 . S
O1559 Li1499 1.956 . S
O1559 C1534 1.325 . S
H1560 C1502 0.929 . S
H1561 C1503 0.930 . S
H1562 C1504 0.930 . S
H1563 C1505 0.930 . S
H1564 C1507 0.930 . S
H1565 C1509 0.929 . S
H1566 C1510 0.930 . S
H1567 C1511 0.930 . S
H1568 C1514 0.930 . S
H1569 C1517 0.929 . S
H1570 C1522 0.929 . S
H1571 C1523 0.930 . S
H1572 C1530 0.929 . S
H1573 C1531 0.930 . S
H1574 C1532 0.930 . S
H1575 C1533 0.930 . S
H1576 C1535 0.929 . S
H1577 C1536 0.930 . S
H1578 C1537 0.930 . S
H1579 C1538 0.930 . S
H1580 C1542 0.929 . S
H1581 C1544 0.930 . S
H1582 C1550 0.929 . S
H1583 C1551 0.930 . S
Li1584 N1601 1.990 . S
Li1584 O1644 1.956 . S
Li1584 O1645 1.970 . S
Li1584 O1646 1.961 . S
Li1585 N1609 1.990 . S
Li1585 O1644 1.970 . S
Li1585 O1645 1.956 . S
Li1585 O1647 1.961 . S
Li1586 N1631 1.990 . S
Li1586 O1644 1.961 . S
Li1586 O1646 1.956 . S
Li1586 O1647 1.970 . S
Li1587 N1637 1.990 . S
Li1587 O1645 1.961 . S
Li1587 O1646 1.970 . S
Li1587 O1647 1.956 . S
C1588 C1590 1.348 . S
C1588 C1591 1.356 . S
C1588 O1644 1.325 . S
N1589 C1592 1.314 . S
N1589 C1593 1.279 . S
C1590 C1588 1.348 . S
C1590 C1592 1.353 . S
C1590 H1648 0.929 . S
C1591 C1588 1.356 . S
C1591 C1593 1.358 . S
C1591 H1649 0.930 . S
C1592 N1589 1.314 . S
C1592 C1590 1.353 . S
C1592 H1650 0.930 . S
C1593 N1589 1.279 . S
C1593 C1591 1.358 . S
C1593 H1651 0.930 . S
C1594 C1597 1.348 . S
C1594 C1598 1.356 . S
C1594 O1645 1.325 . S
C1595 N1596 1.279 . S
C1595 C1598 1.358 . S
C1595 H1652 0.930 . S
N1596 C1595 1.279 . S
N1596 C1599 1.314 . S
C1597 C1594 1.348 . S
C1597 C1599 1.353 . S
C1597 H1653 0.929 . S
C1598 C1594 1.356 . S
C1598 C1595 1.358 . S
C1598 H1654 0.930 . S
C1599 N1596 1.314 . S
C1599 C1597 1.353 . S
C1599 H1655 0.930 . S
C1600 N1601 1.314 . S
C1600 C1605 1.353 . S
C1600 H1606 0.930 . S
N1601 Li1584 1.990 . S
N1601 C1600 1.314 . S
N1601 C1603 1.279 . S
C1602 C1603 1.358 . S
C1602 C1604 1.356 . S
C1602 H1656 0.930 . S
C1603 N1601 1.279 . S
C1603 C1602 1.358 . S
C1603 H1607 0.930 . S
C1604 C1602 1.356 . S
C1604 C1605 1.348 . S
C1605 C1600 1.353 . S
C1605 C1604 1.348 . S
C1605 H1657 0.929 . S
H1606 C1600 0.930 . S
H1607 C1603 0.930 . S
C1608 N1609 1.314 . S
C1608 C1610 1.353 . S
C1608 H1614 0.930 . S
N1609 Li1585 1.990 . S
N1609 C1608 1.314 . S
N1609 C1612 1.279 . S
C1610 C1608 1.353 . S
C1610 C1613 1.348 . S
C1610 H1658 0.929 . S
C1611 C1612 1.358 . S
C1611 C1613 1.356 . S
C1611 H1659 0.930 . S
C1612 N1609 1.279 . S
C1612 C1611 1.358 . S
C1612 H1615 0.930 . S
C1613 C1610 1.348 . S
C1613 C1611 1.356 . S
H1614 C1608 0.930 . S
H1615 C1612 0.930 . S
C1616 C1618 1.348 . S
C1616 C1619 1.356 . S
C1616 O1646 1.325 . S
N1617 C1620 1.314 . S
N1617 C1621 1.279 . S
C1618 C1616 1.348 . S
C1618 C1620 1.353 . S
C1618 H1660 0.929 . S
C1619 C1616 1.356 . S
C1619 C1621 1.358 . S
C1619 H1661 0.930 . S
C1620 N1617 1.314 . S
C1620 C1618 1.353 . S
C1620 H1662 0.930 . S
C1621 N1617 1.279 . S
C1621 C1619 1.358 . S
C1621 H1663 0.930 . S
C1622 C1623 1.348 . S
C1622 C1624 1.356 . S
C1622 O1647 1.325 . S
C1623 C1622 1.348 . S
C1623 C1625 1.353 . S
C1623 H1664 0.929 . S
C1624 C1622 1.356 . S
C1624 C1626 1.358 . S
C1624 H1665 0.930 . S
C1625 C1623 1.353 . S
C1625 N1627 1.314 . S
C1625 H1666 0.930 . S
C1626 C1624 1.358 . S
C1626 N1627 1.279 . S
C1626 H1667 0.930 . S
N1627 C1625 1.314 . S
N1627 C1626 1.279 . S
C1628 C1630 1.353 . S
C1628 N1631 1.314 . S
C1628 H1634 0.930 . S
C1629 N1631 1.279 . S
C1629 C1632 1.358 . S
C1629 H1635 0.930 . S
C1630 C1628 1.353 . S
C1630 C1633 1.348 . S
C1630 H1668 0.929 . S
N1631 Li1586 1.990 . S
N1631 C1628 1.314 . S
N1631 C1629 1.279 . S
C1632 C1629 1.358 . S
C1632 C1633 1.356 . S
C1632 H1669 0.930 . S
C1633 C1630 1.348 . S
C1633 C1632 1.356 . S
H1634 C1628 0.930 . S
H1635 C1629 0.930 . S
C1636 N1637 1.314 . S
C1636 C1638 1.353 . S
C1636 H1642 0.930 . S
N1637 Li1587 1.990 . S
N1637 C1636 1.314 . S
N1637 C1640 1.279 . S
C1638 C1636 1.353 . S
C1638 C1641 1.348 . S
C1638 H1670 0.929 . S
C1639 C1640 1.358 . S
C1639 C1641 1.356 . S
C1639 H1671 0.930 . S
C1640 N1637 1.279 . S
C1640 C1639 1.358 . S
C1640 H1643 0.930 . S
C1641 C1638 1.348 . S
C1641 C1639 1.356 . S
H1642 C1636 0.930 . S
H1643 C1640 0.930 . S
O1644 Li1584 1.956 . S
O1644 Li1585 1.970 . S
O1644 Li1586 1.961 . S
O1644 C1588 1.325 . S
O1645 Li1584 1.970 . S
O1645 Li1585 1.956 . S
O1645 Li1587 1.961 . S
O1645 C1594 1.325 . S
O1646 Li1584 1.961 . S
O1646 Li1586 1.956 . S
O1646 Li1587 1.970 . S
O1646 C1616 1.325 . S
O1647 Li1585 1.961 . S
O1647 Li1586 1.970 . S
O1647 Li1587 1.956 . S
O1647 C1622 1.325 . S
H1648 C1590 0.929 . S
H1649 C1591 0.930 . S
H1650 C1592 0.930 . S
H1651 C1593 0.930 . S
H1652 C1595 0.930 . S
H1653 C1597 0.929 . S
H1654 C1598 0.930 . S
H1655 C1599 0.930 . S
H1656 C1602 0.930 . S
H1657 C1605 0.929 . S
H1658 C1610 0.929 . S
H1659 C1611 0.930 . S
H1660 C1618 0.929 . S
H1661 C1619 0.930 . S
H1662 C1620 0.930 . S
H1663 C1621 0.930 . S
H1664 C1623 0.929 . S
H1665 C1624 0.930 . S
H1666 C1625 0.930 . S
H1667 C1626 0.930 . S
H1668 C1630 0.929 . S
H1669 C1632 0.930 . S
H1670 C1638 0.929 . S
H1671 C1639 0.930 . S
Li1672 N1689 1.990 . S
Li1672 O1732 1.956 . S
Li1672 O1733 1.970 . S
Li1672 O1734 1.961 . S
Li1673 N1697 1.990 . S
Li1673 O1732 1.970 . S
Li1673 O1733 1.956 . S
Li1673 O1735 1.961 . S
Li1674 N1719 1.990 . S
Li1674 O1732 1.961 . S
Li1674 O1734 1.956 . S
Li1674 O1735 1.970 . S
Li1675 N1725 1.990 . S
Li1675 O1733 1.961 . S
Li1675 O1734 1.970 . S
Li1675 O1735 1.956 . S
C1676 C1678 1.348 . S
C1676 C1679 1.356 . S
C1676 O1732 1.325 . S
N1677 C1680 1.314 . S
N1677 C1681 1.279 . S
C1678 C1676 1.348 . S
C1678 C1680 1.353 . S
C1678 H1736 0.929 . S
C1679 C1676 1.356 . S
C1679 C1681 1.358 . S
C1679 H1737 0.930 . S
C1680 N1677 1.314 . S
C1680 C1678 1.353 . S
C1680 H1738 0.930 . S
C1681 N1677 1.279 . S
C1681 C1679 1.358 . S
C1681 H1739 0.930 . S
C1682 C1685 1.348 . S
C1682 C1686 1.356 . S
C1682 O1733 1.325 . S
C1683 N1684 1.279 . S
C1683 C1686 1.358 . S
C1683 H1740 0.930 . S
N1684 C1683 1.279 . S
N1684 C1687 1.314 . S
C1685 C1682 1.348 . S
C1685 C1687 1.353 . S
C1685 H1741 0.929 . S
C1686 C1682 1.356 . S
C1686 C1683 1.358 . S
C1686 H1742 0.930 . S
C1687 N1684 1.314 . S
C1687 C1685 1.353 . S
C1687 H1743 0.930 . S
C1688 N1689 1.314 . S
C1688 C1693 1.353 . S
C1688 H1694 0.930 . S
N1689 Li1672 1.990 . S
N1689 C1688 1.314 . S
N1689 C1691 1.279 . S
C1690 C1691 1.358 . S
C1690 C1692 1.356 . S
C1690 H1744 0.930 . S
C1691 N1689 1.279 . S
C1691 C1690 1.358 . S
C1691 H1695 0.930 . S
C1692 C1690 1.356 . S
C1692 C1693 1.348 . S
C1693 C1688 1.353 . S
C1693 C1692 1.348 . S
C1693 H1745 0.929 . S
H1694 C1688 0.930 . S
H1695 C1691 0.930 . S
C1696 N1697 1.314 . S
C1696 C1698 1.353 . S
C1696 H1702 0.930 . S
N1697 Li1673 1.990 . S
N1697 C1696 1.314 . S
N1697 C1700 1.279 . S
C1698 C1696 1.353 . S
C1698 C1701 1.348 . S
C1698 H1746 0.929 . S
C1699 C1700 1.358 . S
C1699 C1701 1.356 . S
C1699 H1747 0.930 . S
C1700 N1697 1.279 . S
C1700 C1699 1.358 . S
C1700 H1703 0.930 . S
C1701 C1698 1.348 . S
C1701 C1699 1.356 . S
H1702 C1696 0.930 . S
H1703 C1700 0.930 . S
C1704 C1706 1.348 1_545 S
C1704 C1707 1.356 . S
C1704 O1734 1.325 . S
N1705 C1708 1.314 . S
N1705 C1709 1.279 . S
C1706 C1704 1.348 1_565 S
C1706 C1708 1.353 . S
C1706 H1748 0.929 . S
C1707 C1704 1.356 . S
C1707 C1709 1.358 1_545 S
C1707 H1749 0.930 . S
C1708 N1705 1.314 . S
C1708 C1706 1.353 . S
C1708 H1750 0.930 . S
C1709 N1705 1.279 . S
C1709 C1707 1.358 1_565 S
C1709 H1751 0.930 . S
C1710 C1711 1.348 . S
C1710 C1712 1.356 . S
C1710 O1735 1.325 . S
C1711 C1710 1.348 . S
C1711 C1713 1.353 . S
C1711 H1752 0.929 . S
C1712 C1710 1.356 . S
C1712 C1714 1.358 . S
C1712 H1753 0.930 . S
C1713 C1711 1.353 . S
C1713 N1715 1.314 . S
C1713 H1754 0.930 . S
C1714 C1712 1.358 . S
C1714 N1715 1.279 . S
C1714 H1755 0.930 . S
N1715 C1713 1.314 . S
N1715 C1714 1.279 . S
C1716 C1718 1.353 . S
C1716 N1719 1.314 . S
C1716 H1722 0.930 . S
C1717 N1719 1.279 . S
C1717 C1720 1.358 . S
C1717 H1723 0.930 . S
C1718 C1716 1.353 . S
C1718 C1721 1.348 . S
C1718 H1756 0.929 . S
N1719 Li1674 1.990 . S
N1719 C1716 1.314 . S
N1719 C1717 1.279 . S
C1720 C1717 1.358 . S
C1720 C1721 1.356 . S
C1720 H1757 0.930 . S
C1721 C1718 1.348 . S
C1721 C1720 1.356 . S
H1722 C1716 0.930 . S
H1723 C1717 0.930 . S
C1724 N1725 1.314 . S
C1724 C1726 1.353 1_545 S
C1724 H1730 0.930 . S
N1725 Li1675 1.990 . S
N1725 C1724 1.314 . S
N1725 C1728 1.279 . S
C1726 C1724 1.353 1_565 S
C1726 C1729 1.348 . S
C1726 H1758 0.929 . S
C1727 C1728 1.358 1_565 S
C1727 C1729 1.356 . S
C1727 H1759 0.930 . S
C1728 N1725 1.279 . S
C1728 C1727 1.358 1_545 S
C1728 H1731 0.930 . S
C1729 C1726 1.348 . S
C1729 C1727 1.356 . S
H1730 C1724 0.930 . S
H1731 C1728 0.930 . S
O1732 Li1672 1.956 . S
O1732 Li1673 1.970 . S
O1732 Li1674 1.961 . S
O1732 C1676 1.325 . S
O1733 Li1672 1.970 . S
O1733 Li1673 1.956 . S
O1733 Li1675 1.961 . S
O1733 C1682 1.325 . S
O1734 Li1672 1.961 . S
O1734 Li1674 1.956 . S
O1734 Li1675 1.970 . S
O1734 C1704 1.325 . S
O1735 Li1673 1.961 . S
O1735 Li1674 1.970 . S
O1735 Li1675 1.956 . S
O1735 C1710 1.325 . S
H1736 C1678 0.929 . S
H1737 C1679 0.930 . S
H1738 C1680 0.930 . S
H1739 C1681 0.930 . S
H1740 C1683 0.930 . S
H1741 C1685 0.929 . S
H1742 C1686 0.930 . S
H1743 C1687 0.930 . S
H1744 C1690 0.930 . S
H1745 C1693 0.929 . S
H1746 C1698 0.929 . S
H1747 C1699 0.930 . S
H1748 C1706 0.929 . S
H1749 C1707 0.930 . S
H1750 C1708 0.930 . S
H1751 C1709 0.930 . S
H1752 C1711 0.929 . S
H1753 C1712 0.930 . S
H1754 C1713 0.930 . S
H1755 C1714 0.930 . S
H1756 C1718 0.929 . S
H1757 C1720 0.930 . S
H1758 C1726 0.929 . S
H1759 C1727 0.930 . S
Li1760 N1777 1.990 . S
Li1760 O1820 1.956 . S
Li1760 O1821 1.970 . S
Li1760 O1822 1.961 . S
Li1761 N1785 1.990 . S
Li1761 O1820 1.970 . S
Li1761 O1821 1.956 . S
Li1761 O1823 1.961 1_554 S
Li1762 N1807 1.990 . S
Li1762 O1820 1.961 1_556 S
Li1762 O1822 1.956 1_556 S
Li1762 O1823 1.970 . S
Li1763 N1813 1.992 1_554 S
Li1763 O1821 1.977 . S
Li1763 O1822 1.970 . S
Li1763 O1823 1.939 1_554 S
C1764 C1766 1.348 . S
C1764 C1767 1.356 . S
C1764 O1820 1.325 . S
N1765 C1768 1.314 . S
N1765 C1769 1.279 . S
C1766 C1764 1.348 . S
C1766 C1768 1.353 . S
C1766 H1824 0.929 . S
C1767 C1764 1.356 . S
C1767 C1769 1.358 . S
C1767 H1825 0.930 . S
C1768 N1765 1.314 . S
C1768 C1766 1.353 . S
C1768 H1826 0.930 . S
C1769 N1765 1.279 . S
C1769 C1767 1.358 . S
C1769 H1827 0.930 . S
C1770 C1773 1.348 . S
C1770 C1774 1.356 . S
C1770 O1821 1.325 . S
C1771 N1772 1.279 . S
C1771 C1774 1.358 . S
C1771 H1828 0.930 . S
N1772 C1771 1.279 . S
N1772 C1775 1.314 . S
C1773 C1770 1.348 . S
C1773 C1775 1.353 . S
C1773 H1829 0.929 . S
C1774 C1770 1.356 . S
C1774 C1771 1.358 . S
C1774 H1830 0.930 . S
C1775 N1772 1.314 . S
C1775 C1773 1.353 . S
C1775 H1831 0.930 . S
C1776 N1777 1.314 . S
C1776 C1781 1.353 . S
C1776 H1782 0.930 . S
N1777 Li1760 1.990 . S
N1777 C1776 1.314 . S
N1777 C1779 1.279 . S
C1778 C1779 1.358 . S
C1778 C1780 1.356 . S
C1778 H1832 0.930 . S
C1779 N1777 1.279 . S
C1779 C1778 1.358 . S
C1779 H1783 0.930 . S
C1780 C1778 1.356 . S
C1780 C1781 1.348 . S
C1781 C1776 1.353 . S
C1781 C1780 1.348 . S
C1781 H1833 0.929 . S
H1782 C1776 0.930 . S
H1783 C1779 0.930 . S
C1784 N1785 1.314 1_556 S
C1784 C1786 1.353 . S
C1784 H1790 0.930 . S
N1785 Li1761 1.990 . S
N1785 C1784 1.314 1_554 S
N1785 C1788 1.279 . S
C1786 C1784 1.353 . S
C1786 C1789 1.348 1_556 S
C1786 H1834 0.929 . S
C1787 C1788 1.358 . S
C1787 C1789 1.356 . S
C1787 H1835 0.930 . S
C1788 N1785 1.279 . S
C1788 C1787 1.358 . S
C1788 H1791 0.930 . S
C1789 C1786 1.348 1_554 S
C1789 C1787 1.356 . S
H1790 C1784 0.930 . S
H1791 C1788 0.930 . S
C1792 C1794 1.348 1_554 S
C1792 C1795 1.356 . S
C1792 O1822 1.325 . S
N1793 C1796 1.314 1_554 S
N1793 C1797 1.279 . S
C1794 C1792 1.348 1_556 S
C1794 C1796 1.353 . S
C1794 H1836 0.929 . S
C1795 C1792 1.356 . S
C1795 C1797 1.358 . S
C1795 H1837 0.930 . S
C1796 N1793 1.314 1_556 S
C1796 C1794 1.353 . S
C1796 H1838 0.930 . S
C1797 N1793 1.279 . S
C1797 C1795 1.358 . S
C1797 H1839 0.930 . S
C1798 C1799 1.348 . S
C1798 C1800 1.356 . S
C1798 O1823 1.325 . S
C1799 C1798 1.348 . S
C1799 C1801 1.353 . S
C1799 H1840 0.929 . S
C1800 C1798 1.356 . S
C1800 C1802 1.358 . S
C1800 H1841 0.930 . S
C1801 C1799 1.353 . S
C1801 N1803 1.314 . S
C1801 H1842 0.930 . S
C1802 C1800 1.358 . S
C1802 N1803 1.279 . S
C1802 H1843 0.930 . S
N1803 C1801 1.314 . S
N1803 C1802 1.279 . S
C1804 C1806 1.353 . S
C1804 N1807 1.314 . S
C1804 H1810 0.930 . S
C1805 N1807 1.279 . S
C1805 C1808 1.358 . S
C1805 H1811 0.930 . S
C1806 C1804 1.353 . S
C1806 C1809 1.348 . S
C1806 H1844 0.929 . S
N1807 Li1762 1.990 . S
N1807 C1804 1.314 . S
N1807 C1805 1.279 . S
C1808 C1805 1.358 . S
C1808 C1809 1.356 . S
C1808 H1845 0.930 . S
C1809 C1806 1.348 . S
C1809 C1808 1.356 . S
H1810 C1804 0.930 . S
H1811 C1805 0.930 . S
C1812 N1813 1.314 1_554 S
C1812 C1814 1.353 . S
C1812 H1818 0.930 . S
N1813 Li1763 1.992 1_556 S
N1813 C1812 1.314 1_556 S
N1813 C1816 1.279 . S
C1814 C1812 1.353 . S
C1814 C1817 1.348 1_554 S
C1814 H1846 0.929 . S
C1815 C1816 1.358 . S
C1815 C1817 1.356 . S
C1815 H1847 0.930 . S
C1816 N1813 1.279 . S
C1816 C1815 1.358 . S
C1816 H1819 0.930 . S
C1817 C1814 1.348 1_556 S
C1817 C1815 1.356 . S
H1818 C1812 0.930 . S
H1819 C1816 0.930 . S
O1820 Li1760 1.956 . S
O1820 Li1761 1.970 . S
O1820 Li1762 1.961 1_554 S
O1820 C1764 1.325 . S
O1821 Li1760 1.970 . S
O1821 Li1761 1.956 . S
O1821 Li1763 1.977 . S
O1821 C1770 1.325 . S
O1822 Li1760 1.961 . S
O1822 Li1762 1.956 1_554 S
O1822 Li1763 1.970 . S
O1822 C1792 1.325 . S
O1823 Li1761 1.961 1_556 S
O1823 Li1762 1.970 . S
O1823 Li1763 1.939 1_556 S
O1823 C1798 1.325 . S
H1824 C1766 0.929 . S
H1825 C1767 0.930 . S
H1826 C1768 0.930 . S
H1827 C1769 0.930 . S
H1828 C1771 0.930 . S
H1829 C1773 0.929 . S
H1830 C1774 0.930 . S
H1831 C1775 0.930 . S
H1832 C1778 0.930 . S
H1833 C1781 0.929 . S
H1834 C1786 0.929 . S
H1835 C1787 0.930 . S
H1836 C1794 0.929 . S
H1837 C1795 0.930 . S
H1838 C1796 0.930 . S
H1839 C1797 0.930 . S
H1840 C1799 0.929 . S
H1841 C1800 0.930 . S
H1842 C1801 0.930 . S
H1843 C1802 0.930 . S
H1844 C1806 0.929 . S
H1845 C1808 0.930 . S
H1846 C1814 0.929 . S
H1847 C1815 0.930 . S
Li1848 N1865 1.990 . S
Li1848 O1908 1.956 . S
Li1848 O1909 1.970 . S
Li1848 O1910 1.961 . S
Li1849 N1873 1.990 . S
Li1849 O1908 1.970 . S
Li1849 O1909 1.956 . S
Li1849 O1911 1.961 . S
Li1850 N1895 1.990 . S
Li1850 O1908 1.961 . S
Li1850 O1910 1.956 . S
Li1850 O1911 1.970 . S
Li1851 N1901 1.990 . S
Li1851 O1909 1.961 . S
Li1851 O1910 1.970 . S
Li1851 O1911 1.956 . S
C1852 C1854 1.348 . S
C1852 C1855 1.356 . S
C1852 O1908 1.325 . S
N1853 C1856 1.314 . S
N1853 C1857 1.279 . S
C1854 C1852 1.348 . S
C1854 C1856 1.353 . S
C1854 H1912 0.929 . S
C1855 C1852 1.356 . S
C1855 C1857 1.358 . S
C1855 H1913 0.930 . S
C1856 N1853 1.314 . S
C1856 C1854 1.353 . S
C1856 H1914 0.930 . S
C1857 N1853 1.279 . S
C1857 C1855 1.358 . S
C1857 H1915 0.930 . S
C1858 C1861 1.348 . S
C1858 C1862 1.356 . S
C1858 O1909 1.325 . S
C1859 N1860 1.279 . S
C1859 C1862 1.358 . S
C1859 H1916 0.930 . S
N1860 C1859 1.279 . S
N1860 C1863 1.314 . S
C1861 C1858 1.348 . S
C1861 C1863 1.353 . S
C1861 H1917 0.929 . S
C1862 C1858 1.356 . S
C1862 C1859 1.358 . S
C1862 H1918 0.930 . S
C1863 N1860 1.314 . S
C1863 C1861 1.353 . S
C1863 H1919 0.930 . S
C1864 N1865 1.314 . S
C1864 C1869 1.353 . S
C1864 H1870 0.930 . S
N1865 Li1848 1.990 . S
N1865 C1864 1.314 . S
N1865 C1867 1.279 . S
C1866 C1867 1.358 . S
C1866 C1868 1.356 . S
C1866 H1920 0.930 . S
C1867 N1865 1.279 . S
C1867 C1866 1.358 . S
C1867 H1871 0.930 . S
C1868 C1866 1.356 . S
C1868 C1869 1.348 . S
C1869 C1864 1.353 . S
C1869 C1868 1.348 . S
C1869 H1921 0.929 . S
H1870 C1864 0.930 . S
H1871 C1867 0.930 . S
C1872 N1873 1.314 . S
C1872 C1874 1.353 . S
C1872 H1878 0.930 . S
N1873 Li1849 1.990 . S
N1873 C1872 1.314 . S
N1873 C1876 1.279 . S
C1874 C1872 1.353 . S
C1874 C1877 1.348 . S
C1874 H1922 0.929 . S
C1875 C1876 1.358 . S
C1875 C1877 1.356 . S
C1875 H1923 0.930 . S
C1876 N1873 1.279 . S
C1876 C1875 1.358 . S
C1876 H1879 0.930 . S
C1877 C1874 1.348 . S
C1877 C1875 1.356 . S
H1878 C1872 0.930 . S
H1879 C1876 0.930 . S
C1880 C1882 1.348 . S
C1880 C1883 1.356 . S
C1880 O1910 1.325 . S
N1881 C1884 1.314 . S
N1881 C1885 1.279 . S
C1882 C1880 1.348 . S
C1882 C1884 1.353 . S
C1882 H1924 0.929 . S
C1883 C1880 1.356 . S
C1883 C1885 1.358 . S
C1883 H1925 0.930 . S
C1884 N1881 1.314 . S
C1884 C1882 1.353 . S
C1884 H1926 0.930 . S
C1885 N1881 1.279 . S
C1885 C1883 1.358 . S
C1885 H1927 0.930 . S
C1886 C1887 1.348 . S
C1886 C1888 1.356 . S
C1886 O1911 1.325 . S
C1887 C1886 1.348 . S
C1887 C1889 1.353 . S
C1887 H1928 0.929 . S
C1888 C1886 1.356 . S
C1888 C1890 1.358 . S
C1888 H1929 0.930 . S
C1889 C1887 1.353 . S
C1889 N1891 1.314 . S
C1889 H1930 0.930 . S
C1890 C1888 1.358 . S
C1890 N1891 1.279 . S
C1890 H1931 0.930 . S
N1891 C1889 1.314 . S
N1891 C1890 1.279 . S
C1892 C1894 1.353 . S
C1892 N1895 1.314 . S
C1892 H1898 0.930 . S
C1893 N1895 1.279 . S
C1893 C1896 1.358 . S
C1893 H1899 0.930 . S
C1894 C1892 1.353 . S
C1894 C1897 1.348 . S
C1894 H1932 0.929 . S
N1895 Li1850 1.990 . S
N1895 C1892 1.314 . S
N1895 C1893 1.279 . S
C1896 C1893 1.358 . S
C1896 C1897 1.356 . S
C1896 H1933 0.930 . S
C1897 C1894 1.348 . S
C1897 C1896 1.356 . S
H1898 C1892 0.930 . S
H1899 C1893 0.930 . S
C1900 N1901 1.314 . S
C1900 C1902 1.353 . S
C1900 H1906 0.930 . S
N1901 Li1851 1.990 . S
N1901 C1900 1.314 . S
N1901 C1904 1.279 . S
C1902 C1900 1.353 . S
C1902 C1905 1.348 . S
C1902 H1934 0.929 . S
C1903 C1904 1.358 . S
C1903 C1905 1.356 . S
C1903 H1935 0.930 . S
C1904 N1901 1.279 . S
C1904 C1903 1.358 . S
C1904 H1907 0.930 . S
C1905 C1902 1.348 . S
C1905 C1903 1.356 . S
H1906 C1900 0.930 . S
H1907 C1904 0.930 . S
O1908 Li1848 1.956 . S
O1908 Li1849 1.970 . S
O1908 Li1850 1.961 . S
O1908 C1852 1.325 . S
O1909 Li1848 1.970 . S
O1909 Li1849 1.956 . S
O1909 Li1851 1.961 . S
O1909 C1858 1.325 . S
O1910 Li1848 1.961 . S
O1910 Li1850 1.956 . S
O1910 Li1851 1.970 . S
O1910 C1880 1.325 . S
O1911 Li1849 1.961 . S
O1911 Li1850 1.970 . S
O1911 Li1851 1.956 . S
O1911 C1886 1.325 . S
H1912 C1854 0.929 . S
H1913 C1855 0.930 . S
H1914 C1856 0.930 . S
H1915 C1857 0.930 . S
H1916 C1859 0.930 . S
H1917 C1861 0.929 . S
H1918 C1862 0.930 . S
H1919 C1863 0.930 . S
H1920 C1866 0.930 . S
H1921 C1869 0.929 . S
H1922 C1874 0.929 . S
H1923 C1875 0.930 . S
H1924 C1882 0.929 . S
H1925 C1883 0.930 . S
H1926 C1884 0.930 . S
H1927 C1885 0.930 . S
H1928 C1887 0.929 . S
H1929 C1888 0.930 . S
H1930 C1889 0.930 . S
H1931 C1890 0.930 . S
H1932 C1894 0.929 . S
H1933 C1896 0.930 . S
H1934 C1902 0.929 . S
H1935 C1903 0.930 . S
Li1936 N1953 1.990 . S
Li1936 O1996 1.956 . S
Li1936 O1997 1.970 . S
Li1936 O1998 1.961 . S
Li1937 N1961 1.990 . S
Li1937 O1996 1.970 . S
Li1937 O1997 1.956 . S
Li1937 O1999 1.961 . S
Li1938 N1983 1.990 . S
Li1938 O1996 1.961 . S
Li1938 O1998 1.956 . S
Li1938 O1999 1.970 . S
Li1939 N1989 1.990 . S
Li1939 O1997 1.961 . S
Li1939 O1998 1.970 . S
Li1939 O1999 1.956 . S
C1940 C1942 1.348 . S
C1940 C1943 1.356 . S
C1940 O1996 1.325 . S
N1941 C1944 1.314 . S
N1941 C1945 1.279 . S
C1942 C1940 1.348 . S
C1942 C1944 1.353 . S
C1942 H2000 0.929 . S
C1943 C1940 1.356 . S
C1943 C1945 1.358 . S
C1943 H2001 0.930 . S
C1944 N1941 1.314 . S
C1944 C1942 1.353 . S
C1944 H2002 0.930 . S
C1945 N1941 1.279 . S
C1945 C1943 1.358 . S
C1945 H2003 0.930 . S
C1946 C1949 1.348 . S
C1946 C1950 1.356 . S
C1946 O1997 1.325 . S
C1947 N1948 1.279 . S
C1947 C1950 1.358 . S
C1947 H2004 0.930 . S
N1948 C1947 1.279 . S
N1948 C1951 1.314 . S
C1949 C1946 1.348 . S
C1949 C1951 1.353 . S
C1949 H2005 0.929 . S
C1950 C1946 1.356 . S
C1950 C1947 1.358 . S
C1950 H2006 0.930 . S
C1951 N1948 1.314 . S
C1951 C1949 1.353 . S
C1951 H2007 0.930 . S
C1952 N1953 1.314 . S
C1952 C1957 1.353 . S
C1952 H1958 0.930 . S
N1953 Li1936 1.990 . S
N1953 C1952 1.314 . S
N1953 C1955 1.279 . S
C1954 C1955 1.358 . S
C1954 C1956 1.356 . S
C1954 H2008 0.930 . S
C1955 N1953 1.279 . S
C1955 C1954 1.358 . S
C1955 H1959 0.930 . S
C1956 C1954 1.356 . S
C1956 C1957 1.348 . S
C1957 C1952 1.353 . S
C1957 C1956 1.348 . S
C1957 H2009 0.929 . S
H1958 C1952 0.930 . S
H1959 C1955 0.930 . S
C1960 N1961 1.314 . S
C1960 C1962 1.353 . S
C1960 H1966 0.930 . S
N1961 Li1937 1.990 . S
N1961 C1960 1.314 . S
N1961 C1964 1.279 . S
C1962 C1960 1.353 . S
C1962 C1965 1.348 . S
C1962 H2010 0.929 . S
C1963 C1964 1.358 . S
C1963 C1965 1.356 . S
C1963 H2011 0.930 . S
C1964 N1961 1.279 . S
C1964 C1963 1.358 . S
C1964 H1967 0.930 . S
C1965 C1962 1.348 . S
C1965 C1963 1.356 . S
H1966 C1960 0.930 . S
H1967 C1964 0.930 . S
C1968 C1970 1.348 . S
C1968 C1971 1.356 . S
C1968 O1998 1.325 . S
N1969 C1972 1.314 . S
N1969 C1973 1.279 . S
C1970 C1968 1.348 . S
C1970 C1972 1.353 . S
C1970 H2012 0.929 . S
C1971 C1968 1.356 . S
C1971 C1973 1.358 . S
C1971 H2013 0.930 . S
C1972 N1969 1.314 . S
C1972 C1970 1.353 . S
C1972 H2014 0.930 . S
C1973 N1969 1.279 . S
C1973 C1971 1.358 . S
C1973 H2015 0.930 . S
C1974 C1975 1.348 . S
C1974 C1976 1.356 . S
C1974 O1999 1.325 . S
C1975 C1974 1.348 . S
C1975 C1977 1.353 . S
C1975 H2016 0.929 . S
C1976 C1974 1.356 . S
C1976 C1978 1.358 . S
C1976 H2017 0.930 . S
C1977 C1975 1.353 . S
C1977 N1979 1.314 . S
C1977 H2018 0.930 . S
C1978 C1976 1.358 . S
C1978 N1979 1.279 . S
C1978 H2019 0.930 . S
N1979 C1977 1.314 . S
N1979 C1978 1.279 . S
C1980 C1982 1.353 . S
C1980 N1983 1.314 . S
C1980 H1986 0.930 . S
C1981 N1983 1.279 . S
C1981 C1984 1.358 . S
C1981 H1987 0.930 . S
C1982 C1980 1.353 . S
C1982 C1985 1.348 . S
C1982 H2020 0.929 . S
N1983 Li1938 1.990 . S
N1983 C1980 1.314 . S
N1983 C1981 1.279 . S
C1984 C1981 1.358 . S
C1984 C1985 1.356 . S
C1984 H2021 0.930 . S
C1985 C1982 1.348 . S
C1985 C1984 1.356 . S
H1986 C1980 0.930 . S
H1987 C1981 0.930 . S
C1988 N1989 1.314 . S
C1988 C1990 1.353 . S
C1988 H1994 0.930 . S
N1989 Li1939 1.990 . S
N1989 C1988 1.314 . S
N1989 C1992 1.279 . S
C1990 C1988 1.353 . S
C1990 C1993 1.348 . S
C1990 H2022 0.929 . S
C1991 C1992 1.358 . S
C1991 C1993 1.356 . S
C1991 H2023 0.930 . S
C1992 N1989 1.279 . S
C1992 C1991 1.358 . S
C1992 H1995 0.930 . S
C1993 C1990 1.348 . S
C1993 C1991 1.356 . S
H1994 C1988 0.930 . S
H1995 C1992 0.930 . S
O1996 Li1936 1.956 . S
O1996 Li1937 1.970 . S
O1996 Li1938 1.961 . S
O1996 C1940 1.325 . S
O1997 Li1936 1.970 . S
O1997 Li1937 1.956 . S
O1997 Li1939 1.961 . S
O1997 C1946 1.325 . S
O1998 Li1936 1.961 . S
O1998 Li1938 1.956 . S
O1998 Li1939 1.970 . S
O1998 C1968 1.325 . S
O1999 Li1937 1.961 . S
O1999 Li1938 1.970 . S
O1999 Li1939 1.956 . S
O1999 C1974 1.325 . S
H2000 C1942 0.929 . S
H2001 C1943 0.930 . S
H2002 C1944 0.930 . S
H2003 C1945 0.930 . S
H2004 C1947 0.930 . S
H2005 C1949 0.929 . S
H2006 C1950 0.930 . S
H2007 C1951 0.930 . S
H2008 C1954 0.930 . S
H2009 C1957 0.929 . S
H2010 C1962 0.929 . S
H2011 C1963 0.930 . S
H2012 C1970 0.929 . S
H2013 C1971 0.930 . S
H2014 C1972 0.930 . S
H2015 C1973 0.930 . S
H2016 C1975 0.929 . S
H2017 C1976 0.930 . S
H2018 C1977 0.930 . S
H2019 C1978 0.930 . S
H2020 C1982 0.929 . S
H2021 C1984 0.930 . S
H2022 C1990 0.929 . S
H2023 C1991 0.930 . S
Li2024 N2041 1.990 . S
Li2024 O2084 1.956 . S
Li2024 O2085 1.970 . S
Li2024 O2086 1.961 . S
Li2025 N2049 1.990 . S
Li2025 O2084 1.970 . S
Li2025 O2085 1.956 . S
Li2025 O2087 1.961 . S
Li2026 N2071 1.990 . S
Li2026 O2084 1.961 . S
Li2026 O2086 1.956 . S
Li2026 O2087 1.970 . S
Li2027 N2077 1.990 . S
Li2027 O2085 1.961 . S
Li2027 O2086 1.970 . S
Li2027 O2087 1.956 . S
C2028 C2030 1.348 . S
C2028 C2031 1.356 . S
C2028 O2084 1.325 . S
N2029 C2032 1.314 . S
N2029 C2033 1.279 . S
C2030 C2028 1.348 . S
C2030 C2032 1.353 . S
C2030 H2088 0.929 . S
C2031 C2028 1.356 . S
C2031 C2033 1.358 . S
C2031 H2089 0.930 . S
C2032 N2029 1.314 . S
C2032 C2030 1.353 . S
C2032 H2090 0.930 . S
C2033 N2029 1.279 . S
C2033 C2031 1.358 . S
C2033 H2091 0.930 . S
C2034 C2037 1.348 . S
C2034 C2038 1.356 . S
C2034 O2085 1.325 . S
C2035 N2036 1.279 . S
C2035 C2038 1.358 . S
C2035 H2092 0.930 . S
N2036 C2035 1.279 . S
N2036 C2039 1.314 . S
C2037 C2034 1.348 . S
C2037 C2039 1.353 . S
C2037 H2093 0.929 . S
C2038 C2034 1.356 . S
C2038 C2035 1.358 . S
C2038 H2094 0.930 . S
C2039 N2036 1.314 . S
C2039 C2037 1.353 . S
C2039 H2095 0.930 . S
C2040 N2041 1.314 . S
C2040 C2045 1.353 . S
C2040 H2046 0.930 . S
N2041 Li2024 1.990 . S
N2041 C2040 1.314 . S
N2041 C2043 1.279 . S
C2042 C2043 1.358 . S
C2042 C2044 1.356 . S
C2042 H2096 0.930 . S
C2043 N2041 1.279 . S
C2043 C2042 1.358 . S
C2043 H2047 0.930 . S
C2044 C2042 1.356 . S
C2044 C2045 1.348 . S
C2045 C2040 1.353 . S
C2045 C2044 1.348 . S
C2045 H2097 0.929 . S
H2046 C2040 0.930 . S
H2047 C2043 0.930 . S
C2048 N2049 1.314 . S
C2048 C2050 1.353 . S
C2048 H2054 0.930 . S
N2049 Li2025 1.990 . S
N2049 C2048 1.314 . S
N2049 C2052 1.279 . S
C2050 C2048 1.353 . S
C2050 C2053 1.348 . S
C2050 H2098 0.929 . S
C2051 C2052 1.358 . S
C2051 C2053 1.356 . S
C2051 H2099 0.930 . S
C2052 N2049 1.279 . S
C2052 C2051 1.358 . S
C2052 H2055 0.930 . S
C2053 C2050 1.348 . S
C2053 C2051 1.356 . S
H2054 C2048 0.930 . S
H2055 C2052 0.930 . S
C2056 C2058 1.348 . S
C2056 C2059 1.356 . S
C2056 O2086 1.325 . S
N2057 C2060 1.314 . S
N2057 C2061 1.279 . S
C2058 C2056 1.348 . S
C2058 C2060 1.353 . S
C2058 H2100 0.929 . S
C2059 C2056 1.356 . S
C2059 C2061 1.358 . S
C2059 H2101 0.930 . S
C2060 N2057 1.314 . S
C2060 C2058 1.353 . S
C2060 H2102 0.930 . S
C2061 N2057 1.279 . S
C2061 C2059 1.358 . S
C2061 H2103 0.930 . S
C2062 C2063 1.348 . S
C2062 C2064 1.356 . S
C2062 O2087 1.325 . S
C2063 C2062 1.348 . S
C2063 C2065 1.353 . S
C2063 H2104 0.929 . S
C2064 C2062 1.356 . S
C2064 C2066 1.358 . S
C2064 H2105 0.930 . S
C2065 C2063 1.353 . S
C2065 N2067 1.314 . S
C2065 H2106 0.930 . S
C2066 C2064 1.358 . S
C2066 N2067 1.279 . S
C2066 H2107 0.930 . S
N2067 C2065 1.314 . S
N2067 C2066 1.279 . S
C2068 C2070 1.353 . S
C2068 N2071 1.314 . S
C2068 H2074 0.930 . S
C2069 N2071 1.279 . S
C2069 C2072 1.358 . S
C2069 H2075 0.930 . S
C2070 C2068 1.353 . S
C2070 C2073 1.348 . S
C2070 H2108 0.929 . S
N2071 Li2026 1.990 . S
N2071 C2068 1.314 . S
N2071 C2069 1.279 . S
C2072 C2069 1.358 . S
C2072 C2073 1.356 . S
C2072 H2109 0.930 . S
C2073 C2070 1.348 . S
C2073 C2072 1.356 . S
H2074 C2068 0.930 . S
H2075 C2069 0.930 . S
C2076 N2077 1.314 . S
C2076 C2078 1.353 . S
C2076 H2082 0.930 . S
N2077 Li2027 1.990 . S
N2077 C2076 1.314 . S
N2077 C2080 1.279 . S
C2078 C2076 1.353 . S
C2078 C2081 1.348 . S
C2078 H2110 0.929 . S
C2079 C2080 1.358 . S
C2079 C2081 1.356 . S
C2079 H2111 0.930 . S
C2080 N2077 1.279 . S
C2080 C2079 1.358 . S
C2080 H2083 0.930 . S
C2081 C2078 1.348 . S
C2081 C2079 1.356 . S
H2082 C2076 0.930 . S
H2083 C2080 0.930 . S
O2084 Li2024 1.956 . S
O2084 Li2025 1.970 . S
O2084 Li2026 1.961 . S
O2084 C2028 1.325 . S
O2085 Li2024 1.970 . S
O2085 Li2025 1.956 . S
O2085 Li2027 1.961 . S
O2085 C2034 1.325 . S
O2086 Li2024 1.961 . S
O2086 Li2026 1.956 . S
O2086 Li2027 1.970 . S
O2086 C2056 1.325 . S
O2087 Li2025 1.961 . S
O2087 Li2026 1.970 . S
O2087 Li2027 1.956 . S
O2087 C2062 1.325 . S
H2088 C2030 0.929 . S
H2089 C2031 0.930 . S
H2090 C2032 0.930 . S
H2091 C2033 0.930 . S
H2092 C2035 0.930 . S
H2093 C2037 0.929 . S
H2094 C2038 0.930 . S
H2095 C2039 0.930 . S
H2096 C2042 0.930 . S
H2097 C2045 0.929 . S
H2098 C2050 0.929 . S
H2099 C2051 0.930 . S
H2100 C2058 0.929 . S
H2101 C2059 0.930 . S
H2102 C2060 0.930 . S
H2103 C2061 0.930 . S
H2104 C2063 0.929 . S
H2105 C2064 0.930 . S
H2106 C2065 0.930 . S
H2107 C2066 0.930 . S
H2108 C2070 0.929 . S
H2109 C2072 0.930 . S
H2110 C2078 0.929 . S
H2111 C2079 0.930 . S
Gd2112 C2115 2.818 1_455 S
Gd2112 O2132 2.377 . S
Gd2112 O2134 2.448 1_455 S
Gd2112 O2135 2.506 1_456 S
Gd2112 O2136 2.435 . S
Gd2112 O2137 2.717 . S
Gd2112 O2139 2.395 1_546 S
Gd2112 O2143 2.327 1_556 S
Gd2113 C2124 2.818 . S
Gd2113 O2133 2.395 . S
Gd2113 O2137 2.327 1_554 S
Gd2113 O2138 2.377 . S
Gd2113 O2140 2.448 . S
Gd2113 O2141 2.506 . S
Gd2113 O2142 2.435 . S
Gd2113 O2143 2.717 . S
C2114 O2132 1.240 1_554 S
C2114 O2133 1.240 . S
C2115 Gd2112 2.818 1_655 S
C2115 C2116 1.510 . S
C2115 O2134 1.249 . S
C2115 O2135 1.252 1_556 S
C2116 C2115 1.510 . S
C2116 C2117 1.404 . S
C2116 C2118 1.352 1_556 S
C2117 C2116 1.404 . S
C2117 C2121 1.389 . S
C2117 H2144 0.930 . S
C2118 C2116 1.352 1_554 S
C2118 C2120 1.374 1_554 S
C2118 H2145 0.931 . S
C2119 C2120 1.359 . S
C2119 C2121 1.364 . S
C2120 C2118 1.374 1_556 S
C2120 C2119 1.359 . S
C2120 H2146 0.931 1_556 S
C2121 C2117 1.389 . S
C2121 C2119 1.364 . S
C2121 H2147 0.931 . S
C2122 O2136 1.256 . S
C2122 O2137 1.257 . S
C2123 O2138 1.240 1_565 S
C2123 O2139 1.240 . S
C2124 Gd2113 2.818 . S
C2124 C2125 1.510 . S
C2124 O2140 1.249 . S
C2124 O2141 1.252 . S
C2125 C2124 1.510 . S
C2125 C2126 1.404 . S
C2125 C2127 1.352 . S
C2126 C2125 1.404 . S
C2126 C2130 1.389 . S
C2126 H2148 0.930 . S
C2127 C2125 1.352 . S
C2127 C2129 1.374 1_545 S
C2127 H2149 0.931 1_545 S
C2128 C2129 1.359 1_545 S
C2128 C2130 1.384 . S
C2129 C2127 1.374 1_565 S
C2129 C2128 1.359 1_565 S
C2129 H2150 0.931 . S
C2130 C2126 1.389 . S
C2130 C2128 1.384 . S
C2130 H2151 0.931 . S
C2131 O2142 1.256 . S
C2131 O2143 1.257 . S
O2132 Gd2112 2.377 . S
O2132 C2114 1.240 1_556 S
O2133 Gd2113 2.395 . S
O2133 C2114 1.240 . S
O2134 Gd2112 2.448 1_655 S
O2134 C2115 1.249 . S
O2135 Gd2112 2.506 1_654 S
O2135 C2115 1.252 1_554 S
O2136 Gd2112 2.435 . S
O2136 C2122 1.256 . S
O2137 Gd2112 2.717 . S
O2137 Gd2113 2.327 1_556 S
O2137 C2122 1.257 . S
O2138 Gd2113 2.377 . S
O2138 C2123 1.240 1_545 S
O2139 Gd2112 2.395 1_564 S
O2139 C2123 1.240 . S
O2140 Gd2113 2.448 . S
O2140 C2124 1.249 . S
O2141 Gd2113 2.506 . S
O2141 C2124 1.252 . S
O2142 Gd2113 2.435 . S
O2142 C2131 1.256 . S
O2143 Gd2112 2.327 1_554 S
O2143 Gd2113 2.717 . S
O2143 C2131 1.257 . S
H2144 C2117 0.930 . S
H2145 C2118 0.931 . S
H2146 C2120 0.931 1_554 S
H2147 C2121 0.931 . S
H2148 C2126 0.930 . S
H2149 C2127 0.931 1_565 S
H2150 C2129 0.931 . S
H2151 C2130 0.931 . S
Gd2152 C2155 2.818 . S
Gd2152 O2172 2.377 . S
Gd2152 O2174 2.448 . S
Gd2152 O2175 2.506 . S
Gd2152 O2176 2.435 . S
Gd2152 O2177 2.717 . S
Gd2152 O2179 2.395 . S
Gd2152 O2183 2.327 . S
Gd2153 C2164 2.818 . S
Gd2153 O2173 2.395 . S
Gd2153 O2177 2.327 . S
Gd2153 O2178 2.377 . S
Gd2153 O2180 2.448 . S
Gd2153 O2181 2.506 . S
Gd2153 O2182 2.435 . S
Gd2153 O2183 2.717 . S
C2154 O2172 1.240 . S
C2154 O2173 1.240 . S
C2155 Gd2152 2.818 . S
C2155 C2156 1.510 . S
C2155 O2174 1.249 . S
C2155 O2175 1.252 . S
C2156 C2155 1.510 . S
C2156 C2157 1.404 . S
C2156 C2158 1.352 . S
C2157 C2156 1.404 . S
C2157 C2161 1.389 . S
C2157 H2184 0.930 . S
C2158 C2156 1.352 . S
C2158 C2160 1.374 . S
C2158 H2185 0.931 . S
C2159 C2160 1.359 . S
C2159 C2161 1.364 . S
C2160 C2158 1.374 . S
C2160 C2159 1.359 . S
C2160 H2186 0.931 . S
C2161 C2157 1.389 . S
C2161 C2159 1.364 . S
C2161 H2187 0.931 . S
C2162 O2176 1.256 . S
C2162 O2177 1.257 . S
C2163 O2178 1.240 . S
C2163 O2179 1.240 . S
C2164 Gd2153 2.818 . S
C2164 C2165 1.510 . S
C2164 O2180 1.249 . S
C2164 O2181 1.252 . S
C2165 C2164 1.510 . S
C2165 C2166 1.404 . S
C2165 C2167 1.352 . S
C2166 C2165 1.404 . S
C2166 C2170 1.389 . S
C2166 H2188 0.930 . S
C2167 C2165 1.352 . S
C2167 C2169 1.374 . S
C2167 H2189 0.931 . S
C2168 C2169 1.359 . S
C2168 C2170 1.364 . S
C2169 C2167 1.374 . S
C2169 C2168 1.359 . S
C2169 H2190 0.931 . S
C2170 C2166 1.389 . S
C2170 C2168 1.364 . S
C2170 H2191 0.931 . S
C2171 O2182 1.256 . S
C2171 O2183 1.257 . S
O2172 Gd2152 2.377 . S
O2172 C2154 1.240 . S
O2173 Gd2153 2.395 . S
O2173 C2154 1.240 . S
O2174 Gd2152 2.448 . S
O2174 C2155 1.249 . S
O2175 Gd2152 2.506 . S
O2175 C2155 1.252 . S
O2176 Gd2152 2.435 . S
O2176 C2162 1.256 . S
O2177 Gd2152 2.717 . S
O2177 Gd2153 2.327 . S
O2177 C2162 1.257 . S
O2178 Gd2153 2.377 . S
O2178 C2163 1.240 . S
O2179 Gd2152 2.395 . S
O2179 C2163 1.240 . S
O2180 Gd2153 2.448 . S
O2180 C2164 1.249 . S
O2181 Gd2153 2.506 . S
O2181 C2164 1.252 . S
O2182 Gd2153 2.435 . S
O2182 C2171 1.256 . S
O2183 Gd2152 2.327 . S
O2183 Gd2153 2.717 . S
O2183 C2171 1.257 . S
H2184 C2157 0.930 . S
H2185 C2158 0.931 . S
H2186 C2160 0.931 . S
H2187 C2161 0.931 . S
H2188 C2166 0.930 . S
H2189 C2167 0.931 . S
H2190 C2169 0.931 . S
H2191 C2170 0.931 . S
Gd2192 C2195 2.818 . S
Gd2192 O2212 2.377 . S
Gd2192 O2214 2.448 . S
Gd2192 O2215 2.506 . S
Gd2192 O2216 2.435 . S
Gd2192 O2217 2.717 . S
Gd2192 O2219 2.395 . S
Gd2192 O2223 2.327 . S
Gd2193 C2204 2.818 . S
Gd2193 O2213 2.395 1_545 S
Gd2193 O2217 2.327 . S
Gd2193 O2218 2.377 . S
Gd2193 O2220 2.448 . S
Gd2193 O2221 2.506 . S
Gd2193 O2222 2.435 . S
Gd2193 O2223 2.717 . S
C2194 O2212 1.240 1_565 S
C2194 O2213 1.240 . S
C2195 Gd2192 2.818 . S
C2195 C2196 1.510 1_545 S
C2195 O2214 1.249 . S
C2195 O2215 1.252 . S
C2196 C2195 1.510 1_565 S
C2196 C2197 1.404 . S
C2196 C2198 1.352 . S
C2197 C2196 1.404 . S
C2197 C2201 1.389 . S
C2197 H2224 0.930 1_565 S
C2198 C2196 1.352 . S
C2198 C2200 1.374 . S
C2198 H2225 0.931 . S
C2199 C2200 1.359 . S
C2199 C2201 1.364 . S
C2200 C2198 1.374 . S
C2200 C2199 1.359 . S
C2200 H2226 0.931 . S
C2201 C2197 1.389 . S
C2201 C2199 1.364 . S
C2201 H2227 0.931 . S
C2202 O2216 1.256 . S
C2202 O2217 1.257 . S
C2203 O2218 1.240 . S
C2203 O2219 1.240 . S
C2204 Gd2193 2.818 . S
C2204 C2205 1.510 . S
C2204 O2220 1.249 . S
C2204 O2221 1.252 . S
C2205 C2204 1.510 . S
C2205 C2206 1.404 . S
C2205 C2207 1.352 . S
C2206 C2205 1.404 . S
C2206 C2210 1.389 . S
C2206 H2228 0.930 . S
C2207 C2205 1.352 . S
C2207 C2209 1.374 . S
C2207 H2229 0.931 . S
C2208 C2209 1.359 . S
C2208 C2210 1.364 . S
C2209 C2207 1.374 . S
C2209 C2208 1.359 . S
C2209 H2230 0.931 . S
C2210 C2206 1.389 . S
C2210 C2208 1.364 . S
C2210 H2231 0.931 . S
C2211 O2222 1.256 . S
C2211 O2223 1.257 . S
O2212 Gd2192 2.377 . S
O2212 C2194 1.240 1_545 S
O2213 Gd2193 2.395 1_565 S
O2213 C2194 1.240 . S
O2214 Gd2192 2.448 . S
O2214 C2195 1.249 . S
O2215 Gd2192 2.506 . S
O2215 C2195 1.252 . S
O2216 Gd2192 2.435 . S
O2216 C2202 1.256 . S
O2217 Gd2192 2.717 . S
O2217 Gd2193 2.327 . S
O2217 C2202 1.257 . S
O2218 Gd2193 2.377 . S
O2218 C2203 1.240 . S
O2219 Gd2192 2.395 . S
O2219 C2203 1.240 . S
O2220 Gd2193 2.448 . S
O2220 C2204 1.249 . S
O2221 Gd2193 2.506 . S
O2221 C2204 1.252 . S
O2222 Gd2193 2.435 . S
O2222 C2211 1.256 . S
O2223 Gd2192 2.327 . S
O2223 Gd2193 2.717 . S
O2223 C2211 1.257 . S
H2224 C2197 0.930 1_545 S
H2225 C2198 0.931 . S
H2226 C2200 0.931 . S
H2227 C2201 0.931 . S
H2228 C2206 0.930 . S
H2229 C2207 0.931 . S
H2230 C2209 0.931 . S
H2231 C2210 0.931 . S
Gd2232 C2235 2.818 . S
Gd2232 O2252 2.377 . S
Gd2232 O2254 2.448 . S
Gd2232 O2255 2.506 . S
Gd2232 O2256 2.435 . S
Gd2232 O2257 2.717 . S
Gd2232 O2259 2.395 . S
Gd2232 O2263 2.327 . S
Gd2233 C2244 2.818 . S
Gd2233 O2253 2.395 . S
Gd2233 O2257 2.327 . S
Gd2233 O2258 2.377 . S
Gd2233 O2260 2.448 . S
Gd2233 O2261 2.506 . S
Gd2233 O2262 2.435 . S
Gd2233 O2263 2.717 . S
C2234 O2252 1.240 . S
C2234 O2253 1.240 . S
C2235 Gd2232 2.818 . S
C2235 C2236 1.510 . S
C2235 O2254 1.249 . S
C2235 O2255 1.252 . S
C2236 C2235 1.510 . S
C2236 C2237 1.404 . S
C2236 C2238 1.352 . S
C2237 C2236 1.404 . S
C2237 C2241 1.389 . S
C2237 H2264 0.930 . S
C2238 C2236 1.352 . S
C2238 C2240 1.374 . S
C2238 H2265 0.931 . S
C2239 C2240 1.359 . S
C2239 C2241 1.364 . S
C2240 C2238 1.374 . S
C2240 C2239 1.359 . S
C2240 H2266 0.931 . S
C2241 C2237 1.389 . S
C2241 C2239 1.364 . S
C2241 H2267 0.931 . S
C2242 O2256 1.256 . S
C2242 O2257 1.257 . S
C2243 O2258 1.240 . S
C2243 O2259 1.240 . S
C2244 Gd2233 2.818 . S
C2244 C2245 1.510 . S
C2244 O2260 1.249 . S
C2244 O2261 1.252 . S
C2245 C2244 1.510 . S
C2245 C2246 1.404 . S
C2245 C2247 1.352 . S
C2246 C2245 1.404 . S
C2246 C2250 1.389 . S
C2246 H2268 0.930 . S
C2247 C2245 1.352 . S
C2247 C2249 1.374 . S
C2247 H2269 0.931 . S
C2248 C2249 1.359 . S
C2248 C2250 1.364 . S
C2249 C2247 1.374 . S
C2249 C2248 1.359 . S
C2249 H2270 0.931 . S
C2250 C2246 1.389 . S
C2250 C2248 1.364 . S
C2250 H2271 0.931 . S
C2251 O2262 1.256 . S
C2251 O2263 1.257 . S
O2252 Gd2232 2.377 . S
O2252 C2234 1.240 . S
O2253 Gd2233 2.395 . S
O2253 C2234 1.240 . S
O2254 Gd2232 2.448 . S
O2254 C2235 1.249 . S
O2255 Gd2232 2.506 . S
O2255 C2235 1.252 . S
O2256 Gd2232 2.435 . S
O2256 C2242 1.256 . S
O2257 Gd2232 2.717 . S
O2257 Gd2233 2.327 . S
O2257 C2242 1.257 . S
O2258 Gd2233 2.377 . S
O2258 C2243 1.240 . S
O2259 Gd2232 2.395 . S
O2259 C2243 1.240 . S
O2260 Gd2233 2.448 . S
O2260 C2244 1.249 . S
O2261 Gd2233 2.506 . S
O2261 C2244 1.252 . S
O2262 Gd2233 2.435 . S
O2262 C2251 1.256 . S
O2263 Gd2232 2.327 . S
O2263 Gd2233 2.717 . S
O2263 C2251 1.257 . S
H2264 C2237 0.930 . S
H2265 C2238 0.931 . S
H2266 C2240 0.931 . S
H2267 C2241 0.931 . S
H2268 C2246 0.930 . S
H2269 C2247 0.931 . S
H2270 C2249 0.931 . S
H2271 C2250 0.931 . S
Gd2272 C2275 2.818 . S
Gd2272 O2292 2.377 . S
Gd2272 O2294 2.448 . S
Gd2272 O2295 2.506 . S
Gd2272 O2296 2.435 . S
Gd2272 O2297 2.717 . S
Gd2272 O2299 2.395 . S
Gd2272 O2303 2.327 . S
Gd2273 C2284 2.818 1_545 S
Gd2273 O2293 2.395 . S
Gd2273 O2297 2.327 . S
Gd2273 O2298 2.377 . S
Gd2273 O2300 2.448 1_545 S
Gd2273 O2301 2.506 1_545 S
Gd2273 O2302 2.435 . S
Gd2273 O2303 2.717 . S
C2274 O2292 1.240 . S
C2274 O2293 1.240 . S
C2275 Gd2272 2.818 . S
C2275 C2276 1.510 . S
C2275 O2294 1.249 . S
C2275 O2295 1.252 . S
C2276 C2275 1.510 . S
C2276 C2277 1.404 . S
C2276 C2278 1.352 . S
C2277 C2276 1.404 . S
C2277 C2281 1.389 . S
C2277 H2304 0.930 . S
C2278 C2276 1.352 . S
C2278 C2280 1.374 . S
C2278 H2305 0.931 . S
C2279 C2280 1.359 . S
C2279 C2281 1.364 . S
C2280 C2278 1.374 . S
C2280 C2279 1.359 . S
C2280 H2306 0.931 . S
C2281 C2277 1.389 . S
C2281 C2279 1.364 . S
C2281 H2307 0.931 . S
C2282 O2296 1.256 . S
C2282 O2297 1.257 . S
C2283 O2298 1.240 . S
C2283 O2299 1.240 . S
C2284 Gd2273 2.818 1_565 S
C2284 C2285 1.510 . S
C2284 O2300 1.249 . S
C2284 O2301 1.252 . S
C2285 C2284 1.510 . S
C2285 C2286 1.404 . S
C2285 C2287 1.352 . S
C2286 C2285 1.404 . S
C2286 C2290 1.389 . S
C2286 H2308 0.930 . S
C2287 C2285 1.352 . S
C2287 C2289 1.374 . S
C2287 H2309 0.931 . S
C2288 C2289 1.359 . S
C2288 C2290 1.364 . S
C2289 C2287 1.374 . S
C2289 C2288 1.359 . S
C2289 H2310 0.931 . S
C2290 C2286 1.389 . S
C2290 C2288 1.364 . S
C2290 H2311 0.931 . S
C2291 O2302 1.256 . S
C2291 O2303 1.257 . S
O2292 Gd2272 2.377 . S
O2292 C2274 1.240 . S
O2293 Gd2273 2.395 . S
O2293 C2274 1.240 . S
O2294 Gd2272 2.448 . S
O2294 C2275 1.249 . S
O2295 Gd2272 2.506 . S
O2295 C2275 1.252 . S
O2296 Gd2272 2.435 . S
O2296 C2282 1.256 . S
O2297 Gd2272 2.717 . S
O2297 Gd2273 2.327 . S
O2297 C2282 1.257 . S
O2298 Gd2273 2.377 . S
O2298 C2283 1.240 . S
O2299 Gd2272 2.395 . S
O2299 C2283 1.240 . S
O2300 Gd2273 2.448 1_565 S
O2300 C2284 1.249 . S
O2301 Gd2273 2.506 1_565 S
O2301 C2284 1.252 . S
O2302 Gd2273 2.435 . S
O2302 C2291 1.256 . S
O2303 Gd2272 2.327 . S
O2303 Gd2273 2.717 . S
O2303 C2291 1.257 . S
H2304 C2277 0.930 . S
H2305 C2278 0.931 . S
H2306 C2280 0.931 . S
H2307 C2281 0.931 . S
H2308 C2286 0.930 . S
H2309 C2287 0.931 . S
H2310 C2289 0.931 . S
H2311 C2290 0.931 . S
Gd2312 C2315 2.818 . S
Gd2312 O2332 2.377 . S
Gd2312 O2334 2.448 . S
Gd2312 O2335 2.506 . S
Gd2312 O2336 2.435 . S
Gd2312 O2337 2.717 . S
Gd2312 O2339 2.395 . S
Gd2312 O2343 2.327 . S
Gd2313 C2324 2.818 . S
Gd2313 O2333 2.395 . S
Gd2313 O2337 2.327 . S
Gd2313 O2338 2.377 . S
Gd2313 O2340 2.448 . S
Gd2313 O2341 2.506 . S
Gd2313 O2342 2.435 . S
Gd2313 O2343 2.717 . S
C2314 O2332 1.240 . S
C2314 O2333 1.240 . S
C2315 Gd2312 2.818 . S
C2315 C2316 1.510 . S
C2315 O2334 1.249 . S
C2315 O2335 1.252 . S
C2316 C2315 1.510 . S
C2316 C2317 1.404 . S
C2316 C2318 1.352 . S
C2317 C2316 1.404 . S
C2317 C2321 1.389 . S
C2317 H2344 0.930 . S
C2318 C2316 1.352 . S
C2318 C2320 1.374 . S
C2318 H2345 0.931 . S
C2319 C2320 1.359 . S
C2319 C2321 1.364 . S
C2320 C2318 1.374 . S
C2320 C2319 1.359 . S
C2320 H2346 0.931 . S
C2321 C2317 1.389 . S
C2321 C2319 1.364 . S
C2321 H2347 0.931 . S
C2322 O2336 1.256 . S
C2322 O2337 1.257 . S
C2323 O2338 1.240 . S
C2323 O2339 1.240 . S
C2324 Gd2313 2.818 . S
C2324 C2325 1.510 . S
C2324 O2340 1.249 . S
C2324 O2341 1.252 . S
C2325 C2324 1.510 . S
C2325 C2326 1.404 . S
C2325 C2327 1.352 . S
C2326 C2325 1.404 . S
C2326 C2330 1.389 . S
C2326 H2348 0.930 . S
C2327 C2325 1.352 . S
C2327 C2329 1.374 . S
C2327 H2349 0.931 . S
C2328 C2329 1.359 . S
C2328 C2330 1.364 . S
C2329 C2327 1.374 . S
C2329 C2328 1.359 . S
C2329 H2350 0.931 . S
C2330 C2326 1.389 . S
C2330 C2328 1.364 . S
C2330 H2351 0.931 . S
C2331 O2342 1.256 . S
C2331 O2343 1.257 . S
O2332 Gd2312 2.377 . S
O2332 C2314 1.240 . S
O2333 Gd2313 2.395 . S
O2333 C2314 1.240 . S
O2334 Gd2312 2.448 . S
O2334 C2315 1.249 . S
O2335 Gd2312 2.506 . S
O2335 C2315 1.252 . S
O2336 Gd2312 2.435 . S
O2336 C2322 1.256 . S
O2337 Gd2312 2.717 . S
O2337 Gd2313 2.327 . S
O2337 C2322 1.257 . S
O2338 Gd2313 2.377 . S
O2338 C2323 1.240 . S
O2339 Gd2312 2.395 . S
O2339 C2323 1.240 . S
O2340 Gd2313 2.448 . S
O2340 C2324 1.249 . S
O2341 Gd2313 2.506 . S
O2341 C2324 1.252 . S
O2342 Gd2313 2.435 . S
O2342 C2331 1.256 . S
O2343 Gd2312 2.327 . S
O2343 Gd2313 2.717 . S
O2343 C2331 1.257 . S
H2344 C2317 0.930 . S
H2345 C2318 0.931 . S
H2346 C2320 0.931 . S
H2347 C2321 0.931 . S
H2348 C2326 0.930 . S
H2349 C2327 0.931 . S
H2350 C2329 0.931 . S
H2351 C2330 0.931 . S
Gd2352 C2355 2.818 . S
Gd2352 O2372 2.377 . S
Gd2352 O2374 2.448 . S
Gd2352 O2375 2.506 . S
Gd2352 O2376 2.435 1_545 S
Gd2352 O2377 2.717 1_554 S
Gd2352 O2379 2.395 . S
Gd2352 O2383 2.327 . S
Gd2353 C2364 2.818 . S
Gd2353 O2373 2.395 . S
Gd2353 O2377 2.327 . S
Gd2353 O2378 2.377 . S
Gd2353 O2380 2.448 . S
Gd2353 O2381 2.506 . S
Gd2353 O2382 2.435 1_556 S
Gd2353 O2383 2.717 1_556 S
C2354 O2372 1.240 . S
C2354 O2373 1.240 1_554 S
C2355 Gd2352 2.818 . S
C2355 C2356 1.510 . S
C2355 O2374 1.249 . S
C2355 O2375 1.252 . S
C2356 C2355 1.510 . S
C2356 C2357 1.404 1_545 S
C2356 C2358 1.352 . S
C2357 C2356 1.404 1_565 S
C2357 C2361 1.389 . S
C2357 H2384 0.930 . S
C2358 C2356 1.352 . S
C2358 C2360 1.374 . S
C2358 H2385 0.931 . S
C2359 C2360 1.359 1_565 S
C2359 C2361 1.364 . S
C2360 C2358 1.374 . S
C2360 C2359 1.359 1_545 S
C2360 H2386 0.931 . S
C2361 C2357 1.389 . S
C2361 C2359 1.364 . S
C2361 H2387 0.931 . S
C2362 O2376 1.262 . S
C2362 O2377 1.256 1_564 S
C2363 O2378 1.240 1_554 S
C2363 O2379 1.240 . S
C2364 Gd2353 2.818 . S
C2364 C2365 1.510 . S
C2364 O2380 1.249 . S
C2364 O2381 1.252 . S
C2365 C2364 1.510 . S
C2365 C2366 1.404 . S
C2365 C2367 1.352 . S
C2366 C2365 1.404 . S
C2366 C2370 1.389 . S
C2366 H2388 0.930 . S
C2367 C2365 1.352 . S
C2367 C2369 1.374 . S
C2367 H2389 0.931 . S
C2368 C2369 1.359 . S
C2368 C2370 1.364 . S
C2369 C2367 1.374 . S
C2369 C2368 1.359 . S
C2369 H2390 0.931 . S
C2370 C2366 1.389 . S
C2370 C2368 1.364 . S
C2370 H2391 0.931 . S
C2371 O2382 1.256 . S
C2371 O2383 1.257 . S
O2372 Gd2352 2.377 . S
O2372 C2354 1.240 . S
O2373 Gd2353 2.395 . S
O2373 C2354 1.240 1_556 S
O2374 Gd2352 2.448 . S
O2374 C2355 1.249 . S
O2375 Gd2352 2.506 . S
O2375 C2355 1.252 . S
O2376 Gd2352 2.435 1_565 S
O2376 C2362 1.262 . S
O2377 Gd2352 2.717 1_556 S
O2377 Gd2353 2.327 . S
O2377 C2362 1.256 1_546 S
O2378 Gd2353 2.377 . S
O2378 C2363 1.240 1_556 S
O2379 Gd2352 2.395 . S
O2379 C2363 1.240 . S
O2380 Gd2353 2.448 . S
O2380 C2364 1.249 . S
O2381 Gd2353 2.506 . S
O2381 C2364 1.252 . S
O2382 Gd2353 2.435 1_554 S
O2382 C2371 1.256 . S
O2383 Gd2352 2.327 . S
O2383 Gd2353 2.717 1_554 S
O2383 C2371 1.257 . S
H2384 C2357 0.930 . S
H2385 C2358 0.931 . S
H2386 C2360 0.931 . S
H2387 C2361 0.931 . S
H2388 C2366 0.930 . S
H2389 C2367 0.931 . S
H2390 C2369 0.931 . S
H2391 C2370 0.931 . S
Gd2392 C2395 2.818 . S
Gd2392 O2412 2.377 . S
Gd2392 O2414 2.448 . S
Gd2392 O2415 2.506 . S
Gd2392 O2416 2.435 . S
Gd2392 O2417 2.717 . S
Gd2392 O2419 2.395 . S
Gd2392 O2423 2.327 . S
Gd2393 C2404 2.818 . S
Gd2393 O2413 2.395 . S
Gd2393 O2417 2.327 . S
Gd2393 O2418 2.377 . S
Gd2393 O2420 2.448 . S
Gd2393 O2421 2.506 . S
Gd2393 O2422 2.435 . S
Gd2393 O2423 2.717 . S
C2394 O2412 1.240 . S
C2394 O2413 1.240 . S
C2395 Gd2392 2.818 . S
C2395 C2396 1.510 . S
C2395 O2414 1.249 . S
C2395 O2415 1.252 . S
C2396 C2395 1.510 . S
C2396 C2397 1.404 . S
C2396 C2398 1.352 . S
C2397 C2396 1.404 . S
C2397 C2401 1.389 . S
C2397 H2424 0.930 . S
C2398 C2396 1.352 . S
C2398 C2400 1.374 . S
C2398 H2425 0.931 . S
C2399 C2400 1.359 . S
C2399 C2401 1.364 . S
C2400 C2398 1.374 . S
C2400 C2399 1.359 . S
C2400 H2426 0.931 . S
C2401 C2397 1.389 . S
C2401 C2399 1.364 . S
C2401 H2427 0.931 . S
C2402 O2416 1.256 . S
C2402 O2417 1.257 . S
C2403 O2418 1.240 . S
C2403 O2419 1.240 . S
C2404 Gd2393 2.818 . S
C2404 C2405 1.510 . S
C2404 O2420 1.249 . S
C2404 O2421 1.252 . S
C2405 C2404 1.510 . S
C2405 C2406 1.404 . S
C2405 C2407 1.352 . S
C2406 C2405 1.404 . S
C2406 C2410 1.389 . S
C2406 H2428 0.930 . S
C2407 C2405 1.352 . S
C2407 C2409 1.374 . S
C2407 H2429 0.931 . S
C2408 C2409 1.359 . S
C2408 C2410 1.364 . S
C2409 C2407 1.374 . S
C2409 C2408 1.359 . S
C2409 H2430 0.931 . S
C2410 C2406 1.389 . S
C2410 C2408 1.364 . S
C2410 H2431 0.931 . S
C2411 O2422 1.256 . S
C2411 O2423 1.257 . S
O2412 Gd2392 2.377 . S
O2412 C2394 1.240 . S
O2413 Gd2393 2.395 . S
O2413 C2394 1.240 . S
O2414 Gd2392 2.448 . S
O2414 C2395 1.249 . S
O2415 Gd2392 2.506 . S
O2415 C2395 1.252 . S
O2416 Gd2392 2.435 . S
O2416 C2402 1.256 . S
O2417 Gd2392 2.717 . S
O2417 Gd2393 2.327 . S
O2417 C2402 1.257 . S
O2418 Gd2393 2.377 . S
O2418 C2403 1.240 . S
O2419 Gd2392 2.395 . S
O2419 C2403 1.240 . S
O2420 Gd2393 2.448 . S
O2420 C2404 1.249 . S
O2421 Gd2393 2.506 . S
O2421 C2404 1.252 . S
O2422 Gd2393 2.435 . S
O2422 C2411 1.256 . S
O2423 Gd2392 2.327 . S
O2423 Gd2393 2.717 . S
O2423 C2411 1.257 . S
H2424 C2397 0.930 . S
H2425 C2398 0.931 . S
H2426 C2400 0.931 . S
H2427 C2401 0.931 . S
H2428 C2406 0.930 . S
H2429 C2407 0.931 . S
H2430 C2409 0.931 . S
H2431 C2410 0.931 . S
Gd2432 C2435 2.830 . S
Gd2432 O2452 2.377 1_554 S
Gd2432 O2454 2.448 . S
Gd2432 O2455 2.508 1_554 S
Gd2432 O2456 2.435 . S
Gd2432 O2457 2.717 . S
Gd2432 O2459 2.395 . S
Gd2432 O2463 2.327 . S
Gd2433 C2444 2.851 . S
Gd2433 O2453 2.349 1_554 S
Gd2433 O2457 2.348 . S
Gd2433 O2458 2.427 . S
Gd2433 O2460 2.468 . S
Gd2433 O2461 2.544 . S
Gd2433 O2462 2.427 . S
Gd2433 O2463 2.715 . S
C2434 O2452 1.240 . S
C2434 O2453 1.240 . S
C2435 Gd2432 2.830 . S
C2435 C2436 1.498 1_554 S
C2435 O2454 1.262 . S
C2435 O2455 1.251 1_554 S
C2436 C2435 1.498 1_556 S
C2436 C2437 1.404 . S
C2436 C2438 1.352 . S
C2437 C2436 1.404 . S
C2437 C2441 1.389 . S
C2437 H2464 0.907 1_556 S
C2438 C2436 1.352 . S
C2438 C2440 1.374 . S
C2438 H2465 0.931 . S
C2439 C2440 1.359 . S
C2439 C2441 1.364 . S
C2440 C2438 1.374 . S
C2440 C2439 1.359 . S
C2440 H2466 0.931 . S
C2441 C2437 1.389 . S
C2441 C2439 1.364 . S
C2441 H2467 0.931 . S
C2442 O2456 1.256 . S
C2442 O2457 1.257 . S
C2443 O2458 1.240 . S
C2443 O2459 1.240 . S
C2444 Gd2433 2.851 . S
C2444 C2445 1.510 . S
C2444 O2460 1.249 . S
C2444 O2461 1.252 . S
C2445 C2444 1.510 . S
C2445 C2446 1.404 . S
C2445 C2447 1.352 . S
C2446 C2445 1.404 . S
C2446 C2450 1.389 . S
C2446 H2468 0.930 . S
C2447 C2445 1.352 . S
C2447 C2449 1.374 . S
C2447 H2469 0.931 . S
C2448 C2449 1.359 . S
C2448 C2450 1.364 . S
C2449 C2447 1.374 . S
C2449 C2448 1.359 . S
C2449 H2470 0.931 . S
C2450 C2446 1.389 . S
C2450 C2448 1.364 . S
C2450 H2471 0.931 . S
C2451 O2462 1.256 . S
C2451 O2463 1.257 . S
O2452 Gd2432 2.377 1_556 S
O2452 C2434 1.240 . S
O2453 Gd2433 2.349 1_556 S
O2453 C2434 1.240 . S
O2454 Gd2432 2.448 . S
O2454 C2435 1.262 . S
O2455 Gd2432 2.508 1_556 S
O2455 C2435 1.251 1_556 S
O2456 Gd2432 2.435 . S
O2456 C2442 1.256 . S
O2457 Gd2432 2.717 . S
O2457 Gd2433 2.348 . S
O2457 C2442 1.257 . S
O2458 Gd2433 2.427 . S
O2458 C2443 1.240 . S
O2459 Gd2432 2.395 . S
O2459 C2443 1.240 . S
O2460 Gd2433 2.468 . S
O2460 C2444 1.249 . S
O2461 Gd2433 2.544 . S
O2461 C2444 1.252 . S
O2462 Gd2433 2.427 . S
O2462 C2451 1.256 . S
O2463 Gd2432 2.327 . S
O2463 Gd2433 2.715 . S
O2463 C2451 1.257 . S
H2464 C2437 0.907 1_554 S
H2465 C2438 0.931 . S
H2466 C2440 0.931 . S
H2467 C2441 0.931 . S
H2468 C2446 0.930 . S
H2469 C2447 0.931 . S
H2470 C2449 0.931 . S
H2471 C2450 0.931 . S
Gd2472 C2475 2.818 . S
Gd2472 O2492 2.377 . S
Gd2472 O2494 2.448 . S
Gd2472 O2495 2.506 . S
Gd2472 O2496 2.435 . S
Gd2472 O2497 2.717 . S
Gd2472 O2499 2.395 . S
Gd2472 O2503 2.327 . S
Gd2473 C2484 2.818 . S
Gd2473 O2493 2.395 . S
Gd2473 O2497 2.327 . S
Gd2473 O2498 2.377 . S
Gd2473 O2500 2.448 . S
Gd2473 O2501 2.506 . S
Gd2473 O2502 2.435 . S
Gd2473 O2503 2.717 . S
C2474 O2492 1.240 . S
C2474 O2493 1.240 . S
C2475 Gd2472 2.818 . S
C2475 C2476 1.510 . S
C2475 O2494 1.249 . S
C2475 O2495 1.252 . S
C2476 C2475 1.510 . S
C2476 C2477 1.404 . S
C2476 C2478 1.352 . S
C2477 C2476 1.404 . S
C2477 C2481 1.389 . S
C2477 H2504 0.930 . S
C2478 C2476 1.352 . S
C2478 C2480 1.374 . S
C2478 H2505 0.931 . S
C2479 C2480 1.359 . S
C2479 C2481 1.364 . S
C2480 C2478 1.374 . S
C2480 C2479 1.359 . S
C2480 H2506 0.931 . S
C2481 C2477 1.389 . S
C2481 C2479 1.364 . S
C2481 H2507 0.931 . S
C2482 O2496 1.256 . S
C2482 O2497 1.257 . S
C2483 O2498 1.240 . S
C2483 O2499 1.240 . S
C2484 Gd2473 2.818 . S
C2484 C2485 1.510 . S
C2484 O2500 1.249 . S
C2484 O2501 1.252 . S
C2485 C2484 1.510 . S
C2485 C2486 1.404 . S
C2485 C2487 1.352 . S
C2486 C2485 1.404 . S
C2486 C2490 1.389 . S
C2486 H2508 0.930 . S
C2487 C2485 1.352 . S
C2487 C2489 1.374 . S
C2487 H2509 0.931 . S
C2488 C2489 1.359 . S
C2488 C2490 1.364 . S
C2489 C2487 1.374 . S
C2489 C2488 1.359 . S
C2489 H2510 0.931 . S
C2490 C2486 1.389 . S
C2490 C2488 1.364 . S
C2490 H2511 0.931 . S
C2491 O2502 1.256 . S
C2491 O2503 1.257 . S
O2492 Gd2472 2.377 . S
O2492 C2474 1.240 . S
O2493 Gd2473 2.395 . S
O2493 C2474 1.240 . S
O2494 Gd2472 2.448 . S
O2494 C2475 1.249 . S
O2495 Gd2472 2.506 . S
O2495 C2475 1.252 . S
O2496 Gd2472 2.435 . S
O2496 C2482 1.256 . S
O2497 Gd2472 2.717 . S
O2497 Gd2473 2.327 . S
O2497 C2482 1.257 . S
O2498 Gd2473 2.377 . S
O2498 C2483 1.240 . S
O2499 Gd2472 2.395 . S
O2499 C2483 1.240 . S
O2500 Gd2473 2.448 . S
O2500 C2484 1.249 . S
O2501 Gd2473 2.506 . S
O2501 C2484 1.252 . S
O2502 Gd2473 2.435 . S
O2502 C2491 1.256 . S
O2503 Gd2472 2.327 . S
O2503 Gd2473 2.717 . S
O2503 C2491 1.257 . S
H2504 C2477 0.930 . S
H2505 C2478 0.931 . S
H2506 C2480 0.931 . S
H2507 C2481 0.931 . S
H2508 C2486 0.930 . S
H2509 C2487 0.931 . S
H2510 C2489 0.931 . S
H2511 C2490 0.931 . S
Gd2512 C2515 2.818 . S
Gd2512 O2532 2.377 . S
Gd2512 O2534 2.448 . S
Gd2512 O2535 2.506 . S
Gd2512 O2536 2.435 . S
Gd2512 O2537 2.717 . S
Gd2512 O2539 2.395 . S
Gd2512 O2543 2.327 . S
Gd2513 C2524 2.818 . S
Gd2513 O2533 2.395 . S
Gd2513 O2537 2.327 . S
Gd2513 O2538 2.377 . S
Gd2513 O2540 2.448 . S
Gd2513 O2541 2.506 . S
Gd2513 O2542 2.435 . S
Gd2513 O2543 2.717 . S
C2514 O2532 1.240 . S
C2514 O2533 1.240 . S
C2515 Gd2512 2.818 . S
C2515 C2516 1.510 . S
C2515 O2534 1.249 . S
C2515 O2535 1.252 . S
C2516 C2515 1.510 . S
C2516 C2517 1.404 . S
C2516 C2518 1.352 . S
C2517 C2516 1.404 . S
C2517 C2521 1.389 . S
C2517 H2544 0.930 . S
C2518 C2516 1.352 . S
C2518 C2520 1.374 1_455 S
C2518 H2545 0.930 . S
C2519 C2520 1.359 . S
C2519 C2521 1.364 1_655 S
C2520 C2518 1.374 1_655 S
C2520 C2519 1.359 . S
C2520 H2546 0.931 . S
C2521 C2517 1.389 . S
C2521 C2519 1.364 1_455 S
C2521 H2547 0.931 . S
C2522 O2536 1.256 . S
C2522 O2537 1.257 . S
C2523 O2538 1.240 . S
C2523 O2539 1.240 . S
C2524 Gd2513 2.818 . S
C2524 C2525 1.510 . S
C2524 O2540 1.249 . S
C2524 O2541 1.252 . S
C2525 C2524 1.510 . S
C2525 C2526 1.404 . S
C2525 C2527 1.352 . S
C2526 C2525 1.404 . S
C2526 C2530 1.389 . S
C2526 H2548 0.930 . S
C2527 C2525 1.352 . S
C2527 C2529 1.374 . S
C2527 H2549 0.931 . S
C2528 C2529 1.359 . S
C2528 C2530 1.364 . S
C2529 C2527 1.374 . S
C2529 C2528 1.359 . S
C2529 H2550 0.931 . S
C2530 C2526 1.389 . S
C2530 C2528 1.364 . S
C2530 H2551 0.931 . S
C2531 O2542 1.256 . S
C2531 O2543 1.257 . S
O2532 Gd2512 2.377 . S
O2532 C2514 1.240 . S
O2533 Gd2513 2.395 . S
O2533 C2514 1.240 . S
O2534 Gd2512 2.448 . S
O2534 C2515 1.249 . S
O2535 Gd2512 2.506 . S
O2535 C2515 1.252 . S
O2536 Gd2512 2.435 . S
O2536 C2522 1.256 . S
O2537 Gd2512 2.717 . S
O2537 Gd2513 2.327 . S
O2537 C2522 1.257 . S
O2538 Gd2513 2.377 . S
O2538 C2523 1.240 . S
O2539 Gd2512 2.395 . S
O2539 C2523 1.240 . S
O2540 Gd2513 2.448 . S
O2540 C2524 1.249 . S
O2541 Gd2513 2.506 . S
O2541 C2524 1.252 . S
O2542 Gd2513 2.435 . S
O2542 C2531 1.256 . S
O2543 Gd2512 2.327 . S
O2543 Gd2513 2.717 . S
O2543 C2531 1.257 . S
H2544 C2517 0.930 . S
H2545 C2518 0.930 . S
H2546 C2520 0.931 . S
H2547 C2521 0.931 . S
H2548 C2526 0.930 . S
H2549 C2527 0.931 . S
H2550 C2529 0.931 . S
H2551 C2530 0.931 . S
Gd2552 C2555 2.818 . S
Gd2552 O2572 2.377 . S
Gd2552 O2574 2.448 . S
Gd2552 O2575 2.506 . S
Gd2552 O2576 2.435 . S
Gd2552 O2577 2.717 . S
Gd2552 O2579 2.395 . S
Gd2552 O2583 2.327 . S
Gd2553 C2564 2.818 . S
Gd2553 O2573 2.395 . S
Gd2553 O2577 2.327 . S
Gd2553 O2578 2.377 . S
Gd2553 O2580 2.448 . S
Gd2553 O2581 2.506 . S
Gd2553 O2582 2.435 . S
Gd2553 O2583 2.717 . S
C2554 O2572 1.240 . S
C2554 O2573 1.240 . S
C2555 Gd2552 2.818 . S
C2555 C2556 1.510 . S
C2555 O2574 1.249 . S
C2555 O2575 1.252 . S
C2556 C2555 1.510 . S
C2556 C2557 1.404 . S
C2556 C2558 1.352 . S
C2557 C2556 1.404 . S
C2557 C2561 1.389 . S
C2557 H2584 0.930 . S
C2558 C2556 1.352 . S
C2558 C2560 1.374 . S
C2558 H2585 0.931 . S
C2559 C2560 1.359 . S
C2559 C2561 1.364 . S
C2560 C2558 1.374 . S
C2560 C2559 1.359 . S
C2560 H2586 0.931 . S
C2561 C2557 1.389 . S
C2561 C2559 1.364 . S
C2561 H2587 0.931 . S
C2562 O2576 1.256 . S
C2562 O2577 1.257 . S
C2563 O2578 1.240 . S
C2563 O2579 1.240 . S
C2564 Gd2553 2.818 . S
C2564 C2565 1.510 . S
C2564 O2580 1.249 . S
C2564 O2581 1.252 . S
C2565 C2564 1.510 . S
C2565 C2566 1.404 . S
C2565 C2567 1.352 . S
C2566 C2565 1.404 . S
C2566 C2570 1.389 . S
C2566 H2588 0.930 . S
C2567 C2565 1.352 . S
C2567 C2569 1.374 . S
C2567 H2589 0.931 . S
C2568 C2569 1.359 . S
C2568 C2570 1.364 . S
C2569 C2567 1.374 . S
C2569 C2568 1.359 . S
C2569 H2590 0.931 . S
C2570 C2566 1.389 . S
C2570 C2568 1.364 . S
C2570 H2591 0.931 . S
C2571 O2582 1.256 . S
C2571 O2583 1.257 . S
O2572 Gd2552 2.377 . S
O2572 C2554 1.240 . S
O2573 Gd2553 2.395 . S
O2573 C2554 1.240 . S
O2574 Gd2552 2.448 . S
O2574 C2555 1.249 . S
O2575 Gd2552 2.506 . S
O2575 C2555 1.252 . S
O2576 Gd2552 2.435 . S
O2576 C2562 1.256 . S
O2577 Gd2552 2.717 . S
O2577 Gd2553 2.327 . S
O2577 C2562 1.257 . S
O2578 Gd2553 2.377 . S
O2578 C2563 1.240 . S
O2579 Gd2552 2.395 . S
O2579 C2563 1.240 . S
O2580 Gd2553 2.448 . S
O2580 C2564 1.249 . S
O2581 Gd2553 2.506 . S
O2581 C2564 1.252 . S
O2582 Gd2553 2.435 . S
O2582 C2571 1.256 . S
O2583 Gd2552 2.327 . S
O2583 Gd2553 2.717 . S
O2583 C2571 1.257 . S
H2584 C2557 0.930 . S
H2585 C2558 0.931 . S
H2586 C2560 0.931 . S
H2587 C2561 0.931 . S
H2588 C2566 0.930 . S
H2589 C2567 0.931 . S
H2590 C2569 0.931 . S
H2591 C2570 0.931 . S
Gd2592 C2595 2.818 . S
Gd2592 O2612 2.377 . S
Gd2592 O2614 2.448 . S
Gd2592 O2615 2.506 . S
Gd2592 O2616 2.435 . S
Gd2592 O2617 2.717 . S
Gd2592 O2619 2.395 . S
Gd2592 O2623 2.327 . S
Gd2593 C2604 2.818 . S
Gd2593 O2613 2.395 . S
Gd2593 O2617 2.327 . S
Gd2593 O2618 2.377 . S
Gd2593 O2620 2.448 . S
Gd2593 O2621 2.506 . S
Gd2593 O2622 2.435 . S
Gd2593 O2623 2.717 . S
C2594 O2612 1.240 . S
C2594 O2613 1.240 . S
C2595 Gd2592 2.818 . S
C2595 C2596 1.510 . S
C2595 O2614 1.249 . S
C2595 O2615 1.252 . S
C2596 C2595 1.510 . S
C2596 C2597 1.404 . S
C2596 C2598 1.352 . S
C2597 C2596 1.404 . S
C2597 C2601 1.389 . S
C2597 H2624 0.930 . S
C2598 C2596 1.352 . S
C2598 C2600 1.374 . S
C2598 H2625 0.931 . S
C2599 C2600 1.359 . S
C2599 C2601 1.364 . S
C2600 C2598 1.374 . S
C2600 C2599 1.359 . S
C2600 H2626 0.931 . S
C2601 C2597 1.389 . S
C2601 C2599 1.364 . S
C2601 H2627 0.931 . S
C2602 O2616 1.256 . S
C2602 O2617 1.257 . S
C2603 O2618 1.240 . S
C2603 O2619 1.240 . S
C2604 Gd2593 2.818 . S
C2604 C2605 1.510 . S
C2604 O2620 1.249 . S
C2604 O2621 1.252 . S
C2605 C2604 1.510 . S
C2605 C2606 1.404 . S
C2605 C2607 1.352 . S
C2606 C2605 1.404 . S
C2606 C2610 1.389 . S
C2606 H2628 0.930 . S
C2607 C2605 1.352 . S
C2607 C2609 1.374 . S
C2607 H2629 0.931 . S
C2608 C2609 1.359 . S
C2608 C2610 1.364 . S
C2609 C2607 1.374 . S
C2609 C2608 1.359 . S
C2609 H2630 0.931 . S
C2610 C2606 1.389 . S
C2610 C2608 1.364 . S
C2610 H2631 0.931 . S
C2611 O2622 1.256 . S
C2611 O2623 1.257 . S
O2612 Gd2592 2.377 . S
O2612 C2594 1.240 . S
O2613 Gd2593 2.395 . S
O2613 C2594 1.240 . S
O2614 Gd2592 2.448 . S
O2614 C2595 1.249 . S
O2615 Gd2592 2.506 . S
O2615 C2595 1.252 . S
O2616 Gd2592 2.435 . S
O2616 C2602 1.256 . S
O2617 Gd2592 2.717 . S
O2617 Gd2593 2.327 . S
O2617 C2602 1.257 . S
O2618 Gd2593 2.377 . S
O2618 C2603 1.240 . S
O2619 Gd2592 2.395 . S
O2619 C2603 1.240 . S
O2620 Gd2593 2.448 . S
O2620 C2604 1.249 . S
O2621 Gd2593 2.506 . S
O2621 C2604 1.252 . S
O2622 Gd2593 2.435 . S
O2622 C2611 1.256 . S
O2623 Gd2592 2.327 . S
O2623 Gd2593 2.717 . S
O2623 C2611 1.257 . S
H2624 C2597 0.930 . S
H2625 C2598 0.931 . S
H2626 C2600 0.931 . S
H2627 C2601 0.931 . S
H2628 C2606 0.930 . S
H2629 C2607 0.931 . S
H2630 C2609 0.931 . S
H2631 C2610 0.931 . S
Gd2632 C2635 2.818 . S
Gd2632 O2652 2.377 . S
Gd2632 O2654 2.448 . S
Gd2632 O2655 2.506 . S
Gd2632 O2656 2.435 . S
Gd2632 O2657 2.717 . S
Gd2632 O2659 2.395 . S
Gd2632 O2663 2.327 . S
Gd2633 C2644 2.818 . S
Gd2633 O2653 2.395 . S
Gd2633 O2657 2.327 . S
Gd2633 O2658 2.377 . S
Gd2633 O2660 2.448 . S
Gd2633 O2661 2.506 . S
Gd2633 O2662 2.435 . S
Gd2633 O2663 2.717 . S
C2634 O2652 1.240 . S
C2634 O2653 1.240 . S
C2635 Gd2632 2.818 . S
C2635 C2636 1.510 . S
C2635 O2654 1.249 . S
C2635 O2655 1.252 . S
C2636 C2635 1.510 . S
C2636 C2637 1.404 . S
C2636 C2638 1.352 . S
C2637 C2636 1.404 . S
C2637 C2641 1.389 . S
C2637 H2664 0.930 . S
C2638 C2636 1.352 . S
C2638 C2640 1.374 . S
C2638 H2665 0.931 . S
C2639 C2640 1.359 . S
C2639 C2641 1.364 . S
C2640 C2638 1.374 . S
C2640 C2639 1.359 . S
C2640 H2666 0.931 . S
C2641 C2637 1.389 . S
C2641 C2639 1.364 . S
C2641 H2667 0.931 . S
C2642 O2656 1.256 . S
C2642 O2657 1.257 . S
C2643 O2658 1.240 . S
C2643 O2659 1.240 . S
C2644 Gd2633 2.818 . S
C2644 C2645 1.510 . S
C2644 O2660 1.249 . S
C2644 O2661 1.252 . S
C2645 C2644 1.510 . S
C2645 C2646 1.404 . S
C2645 C2647 1.352 . S
C2646 C2645 1.404 . S
C2646 C2650 1.389 . S
C2646 H2668 0.930 . S
C2647 C2645 1.352 . S
C2647 C2649 1.374 . S
C2647 H2669 0.931 . S
C2648 C2649 1.359 . S
C2648 C2650 1.364 . S
C2649 C2647 1.374 . S
C2649 C2648 1.359 . S
C2649 H2670 0.931 . S
C2650 C2646 1.389 . S
C2650 C2648 1.364 . S
C2650 H2671 0.931 . S
C2651 O2662 1.256 . S
C2651 O2663 1.257 . S
O2652 Gd2632 2.377 . S
O2652 C2634 1.240 . S
O2653 Gd2633 2.395 . S
O2653 C2634 1.240 . S
O2654 Gd2632 2.448 . S
O2654 C2635 1.249 . S
O2655 Gd2632 2.506 . S
O2655 C2635 1.252 . S
O2656 Gd2632 2.435 . S
O2656 C2642 1.256 . S
O2657 Gd2632 2.717 . S
O2657 Gd2633 2.327 . S
O2657 C2642 1.257 . S
O2658 Gd2633 2.377 . S
O2658 C2643 1.240 . S
O2659 Gd2632 2.395 . S
O2659 C2643 1.240 . S
O2660 Gd2633 2.448 . S
O2660 C2644 1.249 . S
O2661 Gd2633 2.506 . S
O2661 C2644 1.252 . S
O2662 Gd2633 2.435 . S
O2662 C2651 1.256 . S
O2663 Gd2632 2.327 . S
O2663 Gd2633 2.717 . S
O2663 C2651 1.257 . S
H2664 C2637 0.930 . S
H2665 C2638 0.931 . S
H2666 C2640 0.931 . S
H2667 C2641 0.931 . S
H2668 C2646 0.930 . S
H2669 C2647 0.931 . S
H2670 C2649 0.931 . S
H2671 C2650 0.931 . S
Gd2672 C2675 2.818 . S
Gd2672 O2692 2.377 . S
Gd2672 O2694 2.448 . S
Gd2672 O2695 2.506 . S
Gd2672 O2696 2.435 . S
Gd2672 O2697 2.717 . S
Gd2672 O2699 2.395 . S
Gd2672 O2703 2.327 . S
Gd2673 C2684 2.818 . S
Gd2673 O2693 2.395 . S
Gd2673 O2697 2.327 . S
Gd2673 O2698 2.377 . S
Gd2673 O2700 2.448 . S
Gd2673 O2701 2.506 . S
Gd2673 O2702 2.435 . S
Gd2673 O2703 2.717 . S
C2674 O2692 1.240 . S
C2674 O2693 1.240 . S
C2675 Gd2672 2.818 . S
C2675 C2676 1.510 . S
C2675 O2694 1.249 . S
C2675 O2695 1.252 . S
C2676 C2675 1.510 . S
C2676 C2677 1.404 . S
C2676 C2678 1.352 . S
C2677 C2676 1.404 . S
C2677 C2681 1.389 . S
C2677 H2704 0.930 . S
C2678 C2676 1.352 . S
C2678 C2680 1.374 . S
C2678 H2705 0.931 . S
C2679 C2680 1.359 . S
C2679 C2681 1.364 . S
C2680 C2678 1.374 . S
C2680 C2679 1.359 . S
C2680 H2706 0.931 . S
C2681 C2677 1.389 . S
C2681 C2679 1.364 . S
C2681 H2707 0.931 . S
C2682 O2696 1.256 . S
C2682 O2697 1.257 . S
C2683 O2698 1.240 . S
C2683 O2699 1.240 . S
C2684 Gd2673 2.818 . S
C2684 C2685 1.510 . S
C2684 O2700 1.249 . S
C2684 O2701 1.252 . S
C2685 C2684 1.510 . S
C2685 C2686 1.404 . S
C2685 C2687 1.352 . S
C2686 C2685 1.404 . S
C2686 C2690 1.389 . S
C2686 H2708 0.930 . S
C2687 C2685 1.352 . S
C2687 C2689 1.374 . S
C2687 H2709 0.931 . S
C2688 C2689 1.359 . S
C2688 C2690 1.364 . S
C2689 C2687 1.374 . S
C2689 C2688 1.359 . S
C2689 H2710 0.931 . S
C2690 C2686 1.389 . S
C2690 C2688 1.364 . S
C2690 H2711 0.931 . S
C2691 O2702 1.256 . S
C2691 O2703 1.257 . S
O2692 Gd2672 2.377 . S
O2692 C2674 1.240 . S
O2693 Gd2673 2.395 . S
O2693 C2674 1.240 . S
O2694 Gd2672 2.448 . S
O2694 C2675 1.249 . S
O2695 Gd2672 2.506 . S
O2695 C2675 1.252 . S
O2696 Gd2672 2.435 . S
O2696 C2682 1.256 . S
O2697 Gd2672 2.717 . S
O2697 Gd2673 2.327 . S
O2697 C2682 1.257 . S
O2698 Gd2673 2.377 . S
O2698 C2683 1.240 . S
O2699 Gd2672 2.395 . S
O2699 C2683 1.240 . S
O2700 Gd2673 2.448 . S
O2700 C2684 1.249 . S
O2701 Gd2673 2.506 . S
O2701 C2684 1.252 . S
O2702 Gd2673 2.435 . S
O2702 C2691 1.256 . S
O2703 Gd2672 2.327 . S
O2703 Gd2673 2.717 . S
O2703 C2691 1.257 . S
H2704 C2677 0.930 . S
H2705 C2678 0.931 . S
H2706 C2680 0.931 . S
H2707 C2681 0.931 . S
H2708 C2686 0.930 . S
H2709 C2687 0.931 . S
H2710 C2689 0.931 . S
H2711 C2690 0.931 . S
Gd2712 C2715 2.818 1_554 S
Gd2712 O2732 2.377 1_554 S
Gd2712 O2734 2.448 1_554 S
Gd2712 O2735 2.506 . S
Gd2712 O2736 2.435 1_554 S
Gd2712 O2737 2.717 1_554 S
Gd2712 O2739 2.395 . S
Gd2712 O2743 2.327 . S
Gd2713 C2724 2.818 1_455 S
Gd2713 O2733 2.395 . S
Gd2713 O2737 2.327 1_554 S
Gd2713 O2738 2.377 . S
Gd2713 O2740 2.448 1_455 S
Gd2713 O2741 2.506 1_455 S
Gd2713 O2742 2.435 . S
Gd2713 O2743 2.717 . S
C2714 O2732 1.240 1_554 S
C2714 O2733 1.240 . S
C2715 Gd2712 2.818 1_556 S
C2715 C2716 1.510 . S
C2715 O2734 1.249 . S
C2715 O2735 1.252 1_556 S
C2716 C2715 1.510 . S
C2716 C2717 1.404 . S
C2716 C2718 1.352 1_556 S
C2717 C2716 1.404 . S
C2717 C2721 1.389 . S
C2717 H2744 0.930 . S
C2718 C2716 1.352 1_554 S
C2718 C2720 1.374 . S
C2718 H2745 0.931 . S
C2719 C2720 1.359 1_556 S
C2719 C2721 1.364 . S
C2720 C2718 1.374 . S
C2720 C2719 1.359 1_554 S
C2720 H2746 0.931 . S
C2721 C2717 1.389 . S
C2721 C2719 1.364 . S
C2721 H2747 0.931 . S
C2722 O2736 1.256 . S
C2722 O2737 1.257 . S
C2723 O2738 1.240 . S
C2723 O2739 1.240 . S
C2724 Gd2713 2.818 1_655 S
C2724 C2725 1.510 . S
C2724 O2740 1.249 . S
C2724 O2741 1.252 . S
C2725 C2724 1.510 . S
C2725 C2726 1.404 . S
C2725 C2727 1.352 . S
C2726 C2725 1.404 . S
C2726 C2730 1.389 . S
C2726 H2748 0.930 . S
C2727 C2725 1.352 . S
C2727 C2729 1.374 . S
C2727 H2749 0.931 . S
C2728 C2729 1.359 . S
C2728 C2730 1.364 . S
C2729 C2727 1.374 . S
C2729 C2728 1.359 . S
C2729 H2750 0.931 . S
C2730 C2726 1.389 . S
C2730 C2728 1.364 . S
C2730 H2751 0.931 . S
C2731 O2742 1.256 . S
C2731 O2743 1.257 . S
O2732 Gd2712 2.377 1_556 S
O2732 C2714 1.240 1_556 S
O2733 Gd2713 2.395 . S
O2733 C2714 1.240 . S
O2734 Gd2712 2.448 1_556 S
O2734 C2715 1.249 . S
O2735 Gd2712 2.506 . S
O2735 C2715 1.252 1_554 S
O2736 Gd2712 2.435 1_556 S
O2736 C2722 1.256 . S
O2737 Gd2712 2.717 1_556 S
O2737 Gd2713 2.327 1_556 S
O2737 C2722 1.257 . S
O2738 Gd2713 2.377 . S
O2738 C2723 1.240 . S
O2739 Gd2712 2.395 . S
O2739 C2723 1.240 . S
O2740 Gd2713 2.448 1_655 S
O2740 C2724 1.249 . S
O2741 Gd2713 2.506 1_655 S
O2741 C2724 1.252 . S
O2742 Gd2713 2.435 . S
O2742 C2731 1.256 . S
O2743 Gd2712 2.327 . S
O2743 Gd2713 2.717 . S
O2743 C2731 1.257 . S
H2744 C2717 0.930 . S
H2745 C2718 0.931 . S
H2746 C2720 0.931 . S
H2747 C2721 0.931 . S
H2748 C2726 0.930 . S
H2749 C2727 0.931 . S
H2750 C2729 0.931 . S
H2751 C2730 0.931 . S
H2752 C2760 0.950 1_655 S
H2753 C2765 0.950 . S
H2754 C2762 0.950 1_655 S
H2755 C2764 0.950 1_554 S
H2756 C2766 0.950 . S
H2757 C2768 0.950 . S
H2758 C2770 0.950 . S
H2759 C2771 0.950 . S
C2760 H2752 0.950 1_455 S
C2760 C2761 1.386 . S
C2760 C2762 1.391 . S
C2761 C2760 1.386 . S
C2761 C2765 1.393 . S
C2762 H2754 0.950 1_455 S
C2762 C2760 1.391 . S
C2762 C2763 1.400 . S
C2763 C2762 1.400 . S
C2763 C2764 1.398 . S
C2763 C2769 1.491 . S
C2764 H2755 0.950 1_556 S
C2764 C2763 1.398 . S
C2764 C2765 1.391 . S
C2765 H2753 0.950 . S
C2765 C2761 1.393 . S
C2765 C2764 1.391 . S
C2766 H2756 0.950 . S
C2766 C2767 1.387 1_554 S
C2766 C2768 1.391 . S
C2767 C2766 1.387 1_556 S
C2767 C2771 1.391 . S
C2768 H2757 0.950 . S
C2768 C2766 1.391 . S
C2768 C2769 1.400 1_554 S
C2769 C2763 1.491 . S
C2769 C2768 1.400 1_556 S
C2769 C2770 1.398 . S
C2770 H2758 0.950 . S
C2770 C2769 1.398 . S
C2770 C2771 1.391 . S
C2771 H2759 0.950 . S
C2771 C2767 1.391 . S
C2771 C2770 1.391 . S
H2772 C2780 0.950 . S
H2773 C2785 0.950 . S
H2774 C2782 0.950 . S
H2775 C2784 0.950 . S
H2776 C2786 0.950 . S
H2777 C2788 0.950 . S
H2778 C2790 0.950 . S
H2779 C2791 0.950 . S
C2780 H2772 0.950 . S
C2780 C2781 1.386 . S
C2780 C2782 1.391 . S
C2781 C2780 1.386 . S
C2781 C2785 1.393 . S
C2782 H2774 0.950 . S
C2782 C2780 1.391 . S
C2782 C2783 1.400 . S
C2783 C2782 1.400 . S
C2783 C2784 1.398 . S
C2783 C2789 1.491 . S
C2784 H2775 0.950 . S
C2784 C2783 1.398 . S
C2784 C2785 1.391 . S
C2785 H2773 0.950 . S
C2785 C2781 1.393 . S
C2785 C2784 1.391 . S
C2786 H2776 0.950 . S
C2786 C2787 1.386 . S
C2786 C2788 1.391 . S
C2787 C2786 1.386 . S
C2787 C2791 1.393 . S
C2788 H2777 0.950 . S
C2788 C2786 1.391 . S
C2788 C2789 1.400 . S
C2789 C2783 1.491 . S
C2789 C2788 1.400 . S
C2789 C2790 1.398 . S
C2790 H2778 0.950 . S
C2790 C2789 1.398 . S
C2790 C2791 1.391 . S
C2791 H2779 0.950 . S
C2791 C2787 1.393 . S
C2791 C2790 1.391 . S
H2792 C2800 0.950 . S
H2793 C2805 0.950 . S
H2794 C2802 0.950 . S
H2795 C2804 0.950 . S
H2796 C2806 0.950 . S
H2797 C2808 0.950 . S
H2798 C2810 0.950 . S
H2799 C2811 0.950 . S
C2800 H2792 0.950 . S
C2800 C2801 1.386 . S
C2800 C2802 1.391 . S
C2801 C2800 1.386 . S
C2801 C2805 1.393 . S
C2802 H2794 0.950 . S
C2802 C2800 1.391 . S
C2802 C2803 1.400 . S
C2803 C2802 1.400 . S
C2803 C2804 1.398 . S
C2803 C2809 1.491 . S
C2804 H2795 0.950 . S
C2804 C2803 1.398 . S
C2804 C2805 1.391 . S
C2805 H2793 0.950 . S
C2805 C2801 1.393 . S
C2805 C2804 1.391 . S
C2806 H2796 0.950 . S
C2806 C2807 1.386 . S
C2806 C2808 1.391 . S
C2807 C2806 1.386 . S
C2807 C2811 1.393 . S
C2808 H2797 0.950 . S
C2808 C2806 1.391 . S
C2808 C2809 1.400 . S
C2809 C2803 1.491 . S
C2809 C2808 1.400 . S
C2809 C2810 1.398 . S
C2810 H2798 0.950 . S
C2810 C2809 1.398 . S
C2810 C2811 1.391 . S
C2811 H2799 0.950 . S
C2811 C2807 1.393 . S
C2811 C2810 1.391 . S
H2812 C2820 0.950 . S
H2813 C2825 0.950 . S
H2814 C2822 0.950 . S
H2815 C2824 0.950 . S
H2816 C2826 0.950 . S
H2817 C2828 0.950 . S
H2818 C2830 0.950 . S
H2819 C2831 0.950 . S
C2820 H2812 0.950 . S
C2820 C2821 1.386 . S
C2820 C2822 1.391 . S
C2821 C2820 1.386 . S
C2821 C2825 1.393 . S
C2822 H2814 0.950 . S
C2822 C2820 1.391 . S
C2822 C2823 1.400 . S
C2823 C2822 1.400 . S
C2823 C2824 1.398 . S
C2823 C2829 1.491 . S
C2824 H2815 0.950 . S
C2824 C2823 1.398 . S
C2824 C2825 1.391 . S
C2825 H2813 0.950 . S
C2825 C2821 1.393 . S
C2825 C2824 1.391 . S
C2826 H2816 0.950 . S
C2826 C2827 1.386 . S
C2826 C2828 1.391 . S
C2827 C2826 1.386 . S
C2827 C2831 1.393 . S
C2828 H2817 0.950 . S
C2828 C2826 1.391 . S
C2828 C2829 1.400 . S
C2829 C2823 1.491 . S
C2829 C2828 1.400 . S
C2829 C2830 1.398 . S
C2830 H2818 0.950 . S
C2830 C2829 1.398 . S
C2830 C2831 1.391 . S
C2831 H2819 0.950 . S
C2831 C2827 1.393 . S
C2831 C2830 1.391 . S
H2832 C2840 0.950 . S
H2833 C2845 0.950 . S
H2834 C2842 0.941 1_655 S
H2835 C2844 0.950 . S
H2836 C2846 0.950 . S
H2837 C2848 0.950 . S
H2838 C2850 0.950 . S
H2839 C2851 0.950 . S
C2840 H2832 0.950 . S
C2840 C2841 1.386 1_655 S
C2840 C2842 1.391 1_655 S
C2841 C2840 1.386 1_455 S
C2841 C2845 1.393 . S
C2842 H2834 0.941 1_455 S
C2842 C2840 1.391 1_455 S
C2842 C2843 1.400 . S
C2843 C2842 1.400 . S
C2843 C2844 1.398 . S
C2843 C2849 1.491 . S
C2844 H2835 0.950 . S
C2844 C2843 1.398 . S
C2844 C2845 1.391 . S
C2845 H2833 0.950 . S
C2845 C2841 1.393 . S
C2845 C2844 1.391 . S
C2846 H2836 0.950 . S
C2846 C2847 1.386 . S
C2846 C2848 1.391 . S
C2847 C2846 1.386 . S
C2847 C2851 1.393 . S
C2848 H2837 0.950 . S
C2848 C2846 1.391 . S
C2848 C2849 1.400 . S
C2849 C2843 1.491 . S
C2849 C2848 1.400 . S
C2849 C2850 1.398 . S
C2850 H2838 0.950 . S
C2850 C2849 1.398 . S
C2850 C2851 1.391 . S
C2851 H2839 0.950 . S
C2851 C2847 1.393 . S
C2851 C2850 1.391 . S
H2852 C2860 0.950 . S
H2853 C2865 0.950 . S
H2854 C2862 0.950 . S
H2855 C2864 0.950 . S
H2856 C2866 0.950 . S
H2857 C2868 0.950 . S
H2858 C2870 0.950 . S
H2859 C2871 0.950 . S
C2860 H2852 0.950 . S
C2860 C2861 1.386 . S
C2860 C2862 1.391 . S
C2861 C2860 1.386 . S
C2861 C2865 1.393 . S
C2862 H2854 0.950 . S
C2862 C2860 1.391 . S
C2862 C2863 1.400 . S
C2863 C2862 1.400 . S
C2863 C2864 1.398 . S
C2863 C2869 1.491 . S
C2864 H2855 0.950 . S
C2864 C2863 1.398 . S
C2864 C2865 1.391 . S
C2865 H2853 0.950 . S
C2865 C2861 1.393 . S
C2865 C2864 1.391 . S
C2866 H2856 0.950 . S
C2866 C2867 1.386 . S
C2866 C2868 1.391 . S
C2867 C2866 1.386 . S
C2867 C2871 1.393 . S
C2868 H2857 0.950 . S
C2868 C2866 1.391 . S
C2868 C2869 1.400 . S
C2869 C2863 1.491 . S
C2869 C2868 1.400 . S
C2869 C2870 1.398 . S
C2870 H2858 0.950 . S
C2870 C2869 1.398 . S
C2870 C2871 1.391 . S
C2871 H2859 0.950 . S
C2871 C2867 1.393 . S
C2871 C2870 1.391 . S
H2872 C2880 0.950 . S
H2873 C2885 0.950 . S
H2874 C2882 0.950 . S
H2875 C2884 0.950 . S
H2876 C2886 0.950 . S
H2877 C2888 0.950 . S
H2878 C2890 0.950 . S
H2879 C2891 0.950 . S
C2880 H2872 0.950 . S
C2880 C2881 1.386 . S
C2880 C2882 1.391 . S
C2881 C2880 1.386 . S
C2881 C2885 1.393 . S
C2882 H2874 0.950 . S
C2882 C2880 1.391 . S
C2882 C2883 1.400 . S
C2883 C2882 1.400 . S
C2883 C2884 1.398 . S
C2883 C2889 1.491 . S
C2884 H2875 0.950 . S
C2884 C2883 1.398 . S
C2884 C2885 1.391 . S
C2885 H2873 0.950 . S
C2885 C2881 1.393 . S
C2885 C2884 1.391 . S
C2886 H2876 0.950 . S
C2886 C2887 1.386 . S
C2886 C2888 1.391 . S
C2887 C2886 1.386 . S
C2887 C2891 1.393 . S
C2888 H2877 0.950 . S
C2888 C2886 1.391 . S
C2888 C2889 1.400 . S
C2889 C2883 1.491 . S
C2889 C2888 1.400 . S
C2889 C2890 1.398 . S
C2890 H2878 0.950 . S
C2890 C2889 1.398 . S
C2890 C2891 1.391 . S
C2891 H2879 0.950 . S
C2891 C2887 1.393 . S
C2891 C2890 1.391 . S
H2892 C2900 0.950 . S
H2893 C2905 0.950 . S
H2894 C2902 0.950 . S
H2895 C2904 0.950 . S
H2896 C2906 0.950 . S
H2897 C2908 0.950 . S
H2898 C2910 0.950 . S
H2899 C2911 0.950 . S
C2900 H2892 0.950 . S
C2900 C2901 1.386 . S
C2900 C2902 1.391 . S
C2901 C2900 1.386 . S
C2901 C2905 1.393 . S
C2902 H2894 0.950 . S
C2902 C2900 1.391 . S
C2902 C2903 1.400 . S
C2903 C2902 1.400 . S
C2903 C2904 1.398 . S
C2903 C2909 1.491 . S
C2904 H2895 0.950 . S
C2904 C2903 1.398 . S
C2904 C2905 1.391 . S
C2905 H2893 0.950 . S
C2905 C2901 1.393 . S
C2905 C2904 1.391 . S
C2906 H2896 0.950 . S
C2906 C2907 1.386 . S
C2906 C2908 1.391 . S
C2907 C2906 1.386 . S
C2907 C2911 1.393 . S
C2908 H2897 0.950 . S
C2908 C2906 1.391 . S
C2908 C2909 1.400 . S
C2909 C2903 1.491 . S
C2909 C2908 1.400 . S
C2909 C2910 1.398 . S
C2910 H2898 0.950 . S
C2910 C2909 1.398 . S
C2910 C2911 1.391 . S
C2911 H2899 0.950 . S
C2911 C2907 1.393 . S
C2911 C2910 1.391 . S
H2912 C2920 0.950 . S
H2913 C2925 0.950 . S
H2914 C2922 0.950 . S
H2915 C2924 0.950 . S
H2916 C2926 0.950 . S
H2917 C2928 0.950 1_655 S
H2918 C2930 0.950 . S
H2919 C2931 0.950 . S
C2920 H2912 0.950 . S
C2920 C2921 1.386 1_455 S
C2920 C2922 1.391 . S
C2921 C2920 1.386 1_655 S
C2921 C2925 1.393 . S
C2922 H2914 0.950 . S
C2922 C2920 1.391 . S
C2922 C2923 1.400 . S
C2923 C2922 1.400 . S
C2923 C2924 1.398 1_455 S
C2923 C2929 1.491 . S
C2924 H2915 0.950 . S
C2924 C2923 1.398 1_655 S
C2924 C2925 1.391 . S
C2925 H2913 0.950 . S
C2925 C2921 1.393 . S
C2925 C2924 1.391 . S
C2926 H2916 0.950 . S
C2926 C2927 1.386 . S
C2926 C2928 1.391 . S
C2927 C2926 1.386 . S
C2927 C2931 1.393 . S
C2928 H2917 0.950 1_455 S
C2928 C2926 1.391 . S
C2928 C2929 1.400 . S
C2929 C2923 1.491 . S
C2929 C2928 1.400 . S
C2929 C2930 1.398 . S
C2930 H2918 0.950 . S
C2930 C2929 1.398 . S
C2930 C2931 1.391 . S
C2931 H2919 0.950 . S
C2931 C2927 1.393 . S
C2931 C2930 1.391 . S
H2932 C2940 0.950 . S
H2933 C2945 0.950 . S
H2934 C2942 0.950 . S
H2935 C2944 0.950 . S
H2936 C2946 0.950 . S
H2937 C2948 0.950 . S
H2938 C2950 0.950 . S
H2939 C2951 0.950 . S
C2940 H2932 0.950 . S
C2940 C2941 1.386 . S
C2940 C2942 1.391 . S
C2941 C2940 1.386 . S
C2941 C2945 1.393 . S
C2942 H2934 0.950 . S
C2942 C2940 1.391 . S
C2942 C2943 1.400 . S
C2943 C2942 1.400 . S
C2943 C2944 1.398 . S
C2943 C2949 1.491 . S
C2944 H2935 0.950 . S
C2944 C2943 1.398 . S
C2944 C2945 1.391 . S
C2945 H2933 0.950 . S
C2945 C2941 1.393 . S
C2945 C2944 1.391 . S
C2946 H2936 0.950 . S
C2946 C2947 1.386 . S
C2946 C2948 1.391 . S
C2947 C2946 1.386 . S
C2947 C2951 1.393 . S
C2948 H2937 0.950 . S
C2948 C2946 1.391 . S
C2948 C2949 1.400 . S
C2949 C2943 1.491 . S
C2949 C2948 1.400 . S
C2949 C2950 1.398 . S
C2950 H2938 0.950 . S
C2950 C2949 1.398 . S
C2950 C2951 1.391 . S
C2951 H2939 0.950 . S
C2951 C2947 1.393 . S
C2951 C2950 1.391 . S
H2952 C2960 0.950 . S
H2953 C2965 0.950 . S
H2954 C2962 0.950 . S
H2955 C2964 0.950 . S
H2956 C2966 0.950 . S
H2957 C2968 0.950 . S
H2958 C2970 0.950 . S
H2959 C2971 0.950 . S
C2960 H2952 0.950 . S
C2960 C2961 1.386 . S
C2960 C2962 1.391 . S
C2961 C2960 1.386 . S
C2961 C2965 1.393 . S
C2962 H2954 0.950 . S
C2962 C2960 1.391 . S
C2962 C2963 1.400 . S
C2963 C2962 1.400 . S
C2963 C2964 1.398 . S
C2963 C2969 1.491 . S
C2964 H2955 0.950 . S
C2964 C2963 1.398 . S
C2964 C2965 1.391 . S
C2965 H2953 0.950 . S
C2965 C2961 1.393 . S
C2965 C2964 1.391 . S
C2966 H2956 0.950 . S
C2966 C2967 1.386 . S
C2966 C2968 1.391 . S
C2967 C2966 1.386 . S
C2967 C2971 1.393 . S
C2968 H2957 0.950 . S
C2968 C2966 1.391 . S
C2968 C2969 1.400 . S
C2969 C2963 1.491 . S
C2969 C2968 1.400 . S
C2969 C2970 1.398 . S
C2970 H2958 0.950 . S
C2970 C2969 1.398 . S
C2970 C2971 1.391 . S
C2971 H2959 0.950 . S
C2971 C2967 1.393 . S
C2971 C2970 1.391 . S
H2972 C2980 0.950 . S
H2973 C2985 0.950 . S
H2974 C2982 0.950 . S
H2975 C2984 0.950 . S
H2976 C2986 0.950 . S
H2977 C2988 0.950 . S
H2978 C2990 0.950 . S
H2979 C2991 0.950 . S
C2980 H2972 0.950 . S
C2980 C2981 1.386 . S
C2980 C2982 1.391 . S
C2981 C2980 1.386 . S
C2981 C2985 1.393 . S
C2982 H2974 0.950 . S
C2982 C2980 1.391 . S
C2982 C2983 1.400 . S
C2983 C2982 1.400 . S
C2983 C2984 1.398 . S
C2983 C2989 1.491 . S
C2984 H2975 0.950 . S
C2984 C2983 1.398 . S
C2984 C2985 1.391 . S
C2985 H2973 0.950 . S
C2985 C2981 1.393 . S
C2985 C2984 1.391 . S
C2986 H2976 0.950 . S
C2986 C2987 1.386 . S
C2986 C2988 1.391 . S
C2987 C2986 1.386 . S
C2987 C2991 1.393 . S
C2988 H2977 0.950 . S
C2988 C2986 1.391 . S
C2988 C2989 1.400 . S
C2989 C2983 1.491 . S
C2989 C2988 1.400 . S
C2989 C2990 1.398 . S
C2990 H2978 0.950 . S
C2990 C2989 1.398 . S
C2990 C2991 1.391 . S
C2991 H2979 0.950 . S
C2991 C2987 1.393 . S
C2991 C2990 1.391 . S
H2992 C3000 0.950 . S
H2993 C3005 0.950 . S
H2994 C3002 0.950 . S
H2995 C3004 0.950 . S
H2996 C3006 0.950 . S
H2997 C3008 0.950 1_655 S
H2998 C3010 0.950 . S
H2999 C3011 0.950 . S
C3000 H2992 0.950 . S
C3000 C3001 1.386 1_455 S
C3000 C3002 1.391 . S
C3001 C3000 1.386 1_655 S
C3001 C3005 1.393 . S
C3002 H2994 0.950 . S
C3002 C3000 1.391 . S
C3002 C3003 1.400 . S
C3003 C3002 1.400 . S
C3003 C3004 1.398 1_455 S
C3003 C3009 1.491 . S
C3004 H2995 0.950 . S
C3004 C3003 1.398 1_655 S
C3004 C3005 1.391 . S
C3005 H2993 0.950 . S
C3005 C3001 1.393 . S
C3005 C3004 1.391 . S
C3006 H2996 0.950 . S
C3006 C3007 1.386 . S
C3006 C3008 1.391 . S
C3007 C3006 1.386 . S
C3007 C3011 1.393 . S
C3008 H2997 0.950 1_455 S
C3008 C3006 1.391 . S
C3008 C3009 1.400 . S
C3009 C3003 1.491 . S
C3009 C3008 1.400 . S
C3009 C3010 1.398 . S
C3010 H2998 0.950 . S
C3010 C3009 1.398 . S
C3010 C3011 1.391 . S
C3011 H2999 0.950 . S
C3011 C3007 1.393 . S
C3011 C3010 1.391 . S
H3012 C3020 0.950 . S
H3013 C3025 0.950 . S
H3014 C3022 0.950 . S
H3015 C3024 0.950 . S
H3016 C3026 0.950 . S
H3017 C3028 0.950 . S
H3018 C3030 0.950 . S
H3019 C3031 0.950 . S
C3020 H3012 0.950 . S
C3020 C3021 1.386 . S
C3020 C3022 1.391 . S
C3021 C3020 1.386 . S
C3021 C3025 1.393 . S
C3022 H3014 0.950 . S
C3022 C3020 1.391 . S
C3022 C3023 1.400 . S
C3023 C3022 1.400 . S
C3023 C3024 1.398 . S
C3023 C3029 1.491 . S
C3024 H3015 0.950 . S
C3024 C3023 1.398 . S
C3024 C3025 1.391 . S
C3025 H3013 0.950 . S
C3025 C3021 1.393 . S
C3025 C3024 1.391 . S
C3026 H3016 0.950 . S
C3026 C3027 1.386 . S
C3026 C3028 1.391 . S
C3027 C3026 1.386 . S
C3027 C3031 1.393 . S
C3028 H3017 0.950 . S
C3028 C3026 1.391 . S
C3028 C3029 1.400 . S
C3029 C3023 1.491 . S
C3029 C3028 1.400 . S
C3029 C3030 1.398 . S
C3030 H3018 0.950 . S
C3030 C3029 1.398 . S
C3030 C3031 1.391 . S
C3031 H3019 0.950 . S
C3031 C3027 1.393 . S
C3031 C3030 1.391 . S
H3032 C3040 0.950 . S
H3033 C3045 0.950 . S
H3034 C3042 0.950 . S
H3035 C3044 0.950 . S
H3036 C3046 0.950 . S
H3037 C3048 0.950 . S
H3038 C3050 0.950 . S
H3039 C3051 0.950 . S
C3040 H3032 0.950 . S
C3040 C3041 1.386 . S
C3040 C3042 1.391 . S
C3041 C3040 1.386 . S
C3041 C3045 1.393 . S
C3042 H3034 0.950 . S
C3042 C3040 1.391 . S
C3042 C3043 1.400 . S
C3043 C3042 1.400 . S
C3043 C3044 1.398 . S
C3043 C3049 1.491 . S
C3044 H3035 0.950 . S
C3044 C3043 1.398 . S
C3044 C3045 1.391 . S
C3045 H3033 0.950 . S
C3045 C3041 1.393 . S
C3045 C3044 1.391 . S
C3046 H3036 0.950 . S
C3046 C3047 1.386 . S
C3046 C3048 1.391 . S
C3047 C3046 1.386 . S
C3047 C3051 1.393 . S
C3048 H3037 0.950 . S
C3048 C3046 1.391 . S
C3048 C3049 1.400 . S
C3049 C3043 1.491 . S
C3049 C3048 1.400 . S
C3049 C3050 1.398 . S
C3050 H3038 0.950 . S
C3050 C3049 1.398 . S
C3050 C3051 1.391 . S
C3051 H3039 0.950 . S
C3051 C3047 1.393 . S
C3051 C3050 1.391 . S
H3052 C3060 0.950 . S
H3053 C3065 0.950 . S
H3054 C3062 0.950 . S
H3055 C3064 0.950 . S
H3056 C3066 0.950 . S
H3057 C3068 0.950 . S
H3058 C3070 0.950 . S
H3059 C3071 0.950 . S
C3060 H3052 0.950 . S
C3060 C3061 1.386 . S
C3060 C3062 1.391 . S
C3061 C3060 1.386 . S
C3061 C3065 1.393 . S
C3062 H3054 0.950 . S
C3062 C3060 1.391 . S
C3062 C3063 1.400 . S
C3063 C3062 1.400 . S
C3063 C3064 1.398 . S
C3063 C3069 1.491 . S
C3064 H3055 0.950 . S
C3064 C3063 1.398 . S
C3064 C3065 1.391 . S
C3065 H3053 0.950 . S
C3065 C3061 1.393 . S
C3065 C3064 1.391 . S
C3066 H3056 0.950 . S
C3066 C3067 1.386 . S
C3066 C3068 1.391 . S
C3067 C3066 1.386 . S
C3067 C3071 1.393 . S
C3068 H3057 0.950 . S
C3068 C3066 1.391 . S
C3068 C3069 1.400 . S
C3069 C3063 1.491 . S
C3069 C3068 1.400 . S
C3069 C3070 1.398 . S
C3070 H3058 0.950 . S
C3070 C3069 1.398 . S
C3070 C3071 1.391 . S
C3071 H3059 0.950 . S
C3071 C3067 1.393 . S
C3071 C3070 1.391 . S
H3072 C3080 0.950 1_556 S
H3073 C3085 0.950 . S
H3074 C3082 0.950 . S
H3075 C3084 0.950 1_545 S
H3076 C3086 0.950 . S
H3077 C3088 0.950 . S
H3078 C3090 0.950 . S
H3079 C3091 0.950 . S
C3080 H3072 0.950 1_554 S
C3080 C3081 1.386 . S
C3080 C3082 1.391 . S
C3081 C3080 1.386 . S
C3081 C3085 1.393 . S
C3082 H3074 0.950 . S
C3082 C3080 1.391 . S
C3082 C3083 1.400 . S
C3083 C3082 1.400 . S
C3083 C3084 1.398 . S
C3083 C3089 1.491 . S
C3084 H3075 0.950 1_565 S
C3084 C3083 1.398 . S
C3084 C3085 1.391 . S
C3085 H3073 0.950 . S
C3085 C3081 1.393 . S
C3085 C3084 1.391 . S
C3086 H3076 0.950 . S
C3086 C3087 1.386 1_545 S
C3086 C3088 1.391 . S
C3087 C3086 1.386 1_565 S
C3087 C3091 1.393 . S
C3088 H3077 0.950 . S
C3088 C3086 1.391 . S
C3088 C3089 1.400 1_545 S
C3089 C3083 1.491 . S
C3089 C3088 1.400 1_565 S
C3089 C3090 1.398 . S
C3090 H3078 0.950 . S
C3090 C3089 1.398 . S
C3090 C3091 1.391 . S
C3091 H3079 0.950 . S
C3091 C3087 1.393 . S
C3091 C3090 1.391 . S
H3092 C3100 0.950 . S
H3093 C3105 0.950 . S
H3094 C3102 0.950 . S
H3095 C3104 0.955 . S
H3096 C3106 0.950 . S
H3097 C3108 0.949 . S
H3098 C3110 0.950 . S
H3099 C3111 0.949 . S
C3100 H3092 0.950 . S
C3100 C3101 1.386 . S
C3100 C3102 1.391 . S
C3101 C3100 1.386 . S
C3101 C3105 1.393 . S
C3102 H3094 0.950 . S
C3102 C3100 1.391 . S
C3102 C3103 1.400 . S
C3103 C3102 1.400 . S
C3103 C3104 1.398 . S
C3103 C3109 1.491 . S
C3104 H3095 0.955 . S
C3104 C3103 1.398 . S
C3104 C3105 1.391 . S
C3105 H3093 0.950 . S
C3105 C3101 1.393 . S
C3105 C3104 1.391 . S
C3106 H3096 0.950 . S
C3106 C3107 1.386 . S
C3106 C3108 1.389 1_554 S
C3107 C3106 1.386 . S
C3107 C3111 1.391 1_554 S
C3108 H3097 0.949 . S
C3108 C3106 1.389 1_556 S
C3108 C3109 1.401 . S
C3109 C3103 1.491 . S
C3109 C3108 1.401 . S
C3109 C3110 1.398 . S
C3110 H3098 0.950 . S
C3110 C3109 1.398 . S
C3110 C3111 1.395 . S
C3111 H3099 0.949 . S
C3111 C3107 1.391 1_556 S
C3111 C3110 1.395 . S
H3112 C3120 0.950 . S
H3113 C3125 0.950 . S
H3114 C3122 0.950 . S
H3115 C3124 0.950 . S
H3116 C3126 0.950 . S
H3117 C3128 0.950 . S
H3118 C3130 0.950 . S
H3119 C3131 0.950 . S
C3120 H3112 0.950 . S
C3120 C3121 1.386 . S
C3120 C3122 1.391 . S
C3121 C3120 1.386 . S
C3121 C3125 1.393 . S
C3122 H3114 0.950 . S
C3122 C3120 1.391 . S
C3122 C3123 1.400 . S
C3123 C3122 1.400 . S
C3123 C3124 1.398 . S
C3123 C3129 1.491 . S
C3124 H3115 0.950 . S
C3124 C3123 1.398 . S
C3124 C3125 1.391 . S
C3125 H3113 0.950 . S
C3125 C3121 1.393 . S
C3125 C3124 1.391 . S
C3126 H3116 0.950 . S
C3126 C3127 1.386 . S
C3126 C3128 1.391 . S
C3127 C3126 1.386 . S
C3127 C3131 1.393 . S
C3128 H3117 0.950 . S
C3128 C3126 1.391 . S
C3128 C3129 1.400 . S
C3129 C3123 1.491 . S
C3129 C3128 1.400 . S
C3129 C3130 1.398 . S
C3130 H3118 0.950 . S
C3130 C3129 1.398 . S
C3130 C3131 1.391 . S
C3131 H3119 0.950 . S
C3131 C3127 1.393 . S
C3131 C3130 1.391 . S
H3132 C3140 0.950 . S
H3133 C3145 0.950 . S
H3134 C3142 0.950 . S
H3135 C3144 0.950 . S
H3136 C3146 0.975 . S
H3137 C3148 0.950 . S
H3138 C3150 0.950 . S
H3139 C3151 0.950 . S
C3140 H3132 0.950 . S
C3140 C3141 1.386 . S
C3140 C3142 1.391 . S
C3141 C3140 1.386 . S
C3141 C3145 1.393 . S
C3142 H3134 0.950 . S
C3142 C3140 1.391 . S
C3142 C3143 1.400 . S
C3143 C3142 1.400 . S
C3143 C3144 1.398 . S
C3143 C3149 1.491 . S
C3144 H3135 0.950 . S
C3144 C3143 1.398 . S
C3144 C3145 1.391 . S
C3145 H3133 0.950 . S
C3145 C3141 1.393 . S
C3145 C3144 1.391 . S
C3146 H3136 0.975 . S
C3146 C3147 1.386 . S
C3146 C3148 1.391 . S
C3147 C3146 1.386 . S
C3147 C3151 1.393 . S
C3148 H3137 0.950 . S
C3148 C3146 1.391 . S
C3148 C3149 1.400 . S
C3149 C3143 1.491 . S
C3149 C3148 1.400 . S
C3149 C3150 1.398 . S
C3150 H3138 0.950 . S
C3150 C3149 1.398 . S
C3150 C3151 1.391 . S
C3151 H3139 0.950 . S
C3151 C3147 1.393 . S
C3151 C3150 1.391 . S
H3152 C3160 0.950 . S
H3153 C3165 0.950 . S
H3154 C3162 0.950 . S
H3155 C3164 0.950 . S
H3156 C3166 0.950 . S
H3157 C3168 0.950 . S
H3158 C3170 0.950 . S
H3159 C3171 0.950 . S
C3160 H3152 0.950 . S
C3160 C3161 1.386 . S
C3160 C3162 1.391 . S
C3161 C3160 1.386 . S
C3161 C3165 1.393 . S
C3162 H3154 0.950 . S
C3162 C3160 1.391 . S
C3162 C3163 1.400 . S
C3163 C3162 1.400 . S
C3163 C3164 1.398 . S
C3163 C3169 1.491 . S
C3164 H3155 0.950 . S
C3164 C3163 1.398 . S
C3164 C3165 1.391 . S
C3165 H3153 0.950 . S
C3165 C3161 1.393 . S
C3165 C3164 1.391 . S
C3166 H3156 0.950 . S
C3166 C3167 1.386 . S
C3166 C3168 1.391 . S
C3167 C3166 1.386 . S
C3167 C3171 1.393 . S
C3168 H3157 0.950 . S
C3168 C3166 1.391 . S
C3168 C3169 1.400 . S
C3169 C3163 1.491 . S
C3169 C3168 1.400 . S
C3169 C3170 1.398 . S
C3170 H3158 0.950 . S
C3170 C3169 1.398 . S
C3170 C3171 1.391 . S
C3171 H3159 0.950 . S
C3171 C3167 1.393 . S
C3171 C3170 1.391 . S
H3172 C3180 0.950 . S
H3173 C3185 0.950 . S
H3174 C3182 0.950 . S
H3175 C3184 0.950 . S
H3176 C3186 0.950 . S
H3177 C3188 0.950 . S
H3178 C3190 0.950 . S
H3179 C3191 0.950 . S
C3180 H3172 0.950 . S
C3180 C3181 1.386 . S
C3180 C3182 1.391 . S
C3181 C3180 1.386 . S
C3181 C3185 1.393 . S
C3182 H3174 0.950 . S
C3182 C3180 1.391 . S
C3182 C3183 1.400 . S
C3183 C3182 1.400 . S
C3183 C3184 1.398 . S
C3183 C3189 1.491 . S
C3184 H3175 0.950 . S
C3184 C3183 1.398 . S
C3184 C3185 1.391 . S
C3185 H3173 0.950 . S
C3185 C3181 1.393 . S
C3185 C3184 1.391 . S
C3186 H3176 0.950 . S
C3186 C3187 1.386 . S
C3186 C3188 1.391 . S
C3187 C3186 1.386 . S
C3187 C3191 1.393 . S
C3188 H3177 0.950 . S
C3188 C3186 1.391 . S
C3188 C3189 1.400 . S
C3189 C3183 1.491 . S
C3189 C3188 1.400 . S
C3189 C3190 1.398 . S
C3190 H3178 0.950 . S
C3190 C3189 1.398 . S
C3190 C3191 1.391 . S
C3191 H3179 0.950 . S
C3191 C3187 1.393 . S
C3191 C3190 1.391 . S
H3192 C3200 0.950 . S
H3193 C3205 0.950 . S
H3194 C3202 0.950 . S
H3195 C3204 0.950 . S
H3196 C3206 0.950 . S
H3197 C3208 0.950 . S
H3198 C3210 0.950 . S
H3199 C3211 0.950 . S
C3200 H3192 0.950 . S
C3200 C3201 1.386 . S
C3200 C3202 1.391 . S
C3201 C3200 1.386 . S
C3201 C3205 1.393 . S
C3202 H3194 0.950 . S
C3202 C3200 1.391 . S
C3202 C3203 1.400 . S
C3203 C3202 1.400 . S
C3203 C3204 1.398 . S
C3203 C3209 1.491 . S
C3204 H3195 0.950 . S
C3204 C3203 1.398 . S
C3204 C3205 1.391 . S
C3205 H3193 0.950 . S
C3205 C3201 1.393 . S
C3205 C3204 1.391 . S
C3206 H3196 0.950 . S
C3206 C3207 1.386 . S
C3206 C3208 1.391 . S
C3207 C3206 1.386 . S
C3207 C3211 1.393 . S
C3208 H3197 0.950 . S
C3208 C3206 1.391 . S
C3208 C3209 1.400 . S
C3209 C3203 1.491 . S
C3209 C3208 1.400 . S
C3209 C3210 1.398 . S
C3210 H3198 0.950 . S
C3210 C3209 1.398 . S
C3210 C3211 1.391 . S
C3211 H3199 0.950 . S
C3211 C3207 1.393 . S
C3211 C3210 1.391 . S
H3212 C3220 0.950 . S
H3213 C3225 0.950 . S
H3214 C3222 0.950 . S
H3215 C3224 0.950 . S
H3216 C3226 0.950 . S
H3217 C3228 0.950 . S
H3218 C3230 0.950 . S
H3219 C3231 0.950 . S
C3220 H3212 0.950 . S
C3220 C3221 1.386 . S
C3220 C3222 1.391 . S
C3221 C3220 1.386 . S
C3221 C3225 1.393 . S
C3222 H3214 0.950 . S
C3222 C3220 1.391 . S
C3222 C3223 1.400 . S
C3223 C3222 1.400 . S
C3223 C3224 1.398 . S
C3223 C3229 1.491 . S
C3224 H3215 0.950 . S
C3224 C3223 1.398 . S
C3224 C3225 1.391 . S
C3225 H3213 0.950 . S
C3225 C3221 1.393 . S
C3225 C3224 1.391 . S
C3226 H3216 0.950 . S
C3226 C3227 1.386 . S
C3226 C3228 1.391 . S
C3227 C3226 1.386 . S
C3227 C3231 1.393 . S
C3228 H3217 0.950 . S
C3228 C3226 1.391 . S
C3228 C3229 1.400 . S
C3229 C3223 1.491 . S
C3229 C3228 1.400 . S
C3229 C3230 1.398 . S
C3230 H3218 0.950 . S
C3230 C3229 1.398 . S
C3230 C3231 1.391 . S
C3231 H3219 0.950 . S
C3231 C3227 1.393 . S
C3231 C3230 1.391 . S
H3232 C3240 0.950 . S
H3233 C3245 0.950 . S
H3234 C3242 0.950 . S
H3235 C3244 0.950 . S
H3236 C3246 0.950 . S
H3237 C3248 0.950 . S
H3238 C3250 0.950 . S
H3239 C3251 0.950 . S
C3240 H3232 0.950 . S
C3240 C3241 1.386 . S
C3240 C3242 1.391 . S
C3241 C3240 1.386 . S
C3241 C3245 1.393 . S
C3242 H3234 0.950 . S
C3242 C3240 1.391 . S
C3242 C3243 1.400 . S
C3243 C3242 1.400 . S
C3243 C3244 1.398 . S
C3243 C3249 1.491 . S
C3244 H3235 0.950 . S
C3244 C3243 1.398 . S
C3244 C3245 1.391 . S
C3245 H3233 0.950 . S
C3245 C3241 1.393 . S
C3245 C3244 1.391 . S
C3246 H3236 0.950 . S
C3246 C3247 1.386 . S
C3246 C3248 1.391 . S
C3247 C3246 1.386 . S
C3247 C3251 1.393 . S
C3248 H3237 0.950 . S
C3248 C3246 1.391 . S
C3248 C3249 1.400 . S
C3249 C3243 1.491 . S
C3249 C3248 1.400 . S
C3249 C3250 1.398 . S
C3250 H3238 0.950 . S
C3250 C3249 1.398 . S
C3250 C3251 1.391 . S
C3251 H3239 0.950 . S
C3251 C3247 1.393 . S
C3251 C3250 1.391 . S
H3252 C3260 0.950 . S
H3253 C3265 0.950 . S
H3254 C3262 0.950 . S
H3255 C3264 0.950 . S
H3256 C3266 0.950 . S
H3257 C3268 0.950 . S
H3258 C3270 0.950 . S
H3259 C3271 0.950 . S
C3260 H3252 0.950 . S
C3260 C3261 1.386 . S
C3260 C3262 1.391 . S
C3261 C3260 1.386 . S
C3261 C3265 1.393 . S
C3262 H3254 0.950 . S
C3262 C3260 1.391 . S
C3262 C3263 1.400 . S
C3263 C3262 1.400 . S
C3263 C3264 1.398 . S
C3263 C3269 1.491 . S
C3264 H3255 0.950 . S
C3264 C3263 1.398 . S
C3264 C3265 1.391 . S
C3265 H3253 0.950 . S
C3265 C3261 1.393 . S
C3265 C3264 1.391 . S
C3266 H3256 0.950 . S
C3266 C3267 1.386 . S
C3266 C3268 1.391 . S
C3267 C3266 1.386 . S
C3267 C3271 1.393 . S
C3268 H3257 0.950 . S
C3268 C3266 1.391 . S
C3268 C3269 1.400 . S
C3269 C3263 1.491 . S
C3269 C3268 1.400 . S
C3269 C3270 1.398 . S
C3270 H3258 0.950 . S
C3270 C3269 1.398 . S
C3270 C3271 1.391 . S
C3271 H3259 0.950 . S
C3271 C3267 1.393 . S
C3271 C3270 1.391 . S
H3272 C3280 0.950 . S
H3273 C3285 0.950 . S
H3274 C3282 0.950 . S
H3275 C3284 0.950 . S
H3276 C3286 0.950 . S
H3277 C3288 0.950 . S
H3278 C3290 0.950 . S
H3279 C3291 0.950 . S
C3280 H3272 0.950 . S
C3280 C3281 1.386 . S
C3280 C3282 1.391 . S
C3281 C3280 1.386 . S
C3281 C3285 1.393 . S
C3282 H3274 0.950 . S
C3282 C3280 1.391 . S
C3282 C3283 1.400 . S
C3283 C3282 1.400 . S
C3283 C3284 1.398 . S
C3283 C3289 1.491 . S
C3284 H3275 0.950 . S
C3284 C3283 1.398 . S
C3284 C3285 1.391 . S
C3285 H3273 0.950 . S
C3285 C3281 1.393 . S
C3285 C3284 1.391 . S
C3286 H3276 0.950 . S
C3286 C3287 1.386 . S
C3286 C3288 1.391 . S
C3287 C3286 1.386 . S
C3287 C3291 1.393 . S
C3288 H3277 0.950 . S
C3288 C3286 1.391 . S
C3288 C3289 1.400 . S
C3289 C3283 1.491 . S
C3289 C3288 1.400 . S
C3289 C3290 1.398 . S
C3290 H3278 0.950 . S
C3290 C3289 1.398 . S
C3290 C3291 1.391 . S
C3291 H3279 0.950 . S
C3291 C3287 1.393 . S
C3291 C3290 1.391 . S
H3292 C3300 0.950 . S
H3293 C3305 0.950 . S
H3294 C3302 0.950 . S
H3295 C3304 0.950 . S
H3296 C3306 0.950 . S
H3297 C3308 0.950 . S
H3298 C3310 0.950 . S
H3299 C3311 0.950 . S
C3300 H3292 0.950 . S
C3300 C3301 1.386 . S
C3300 C3302 1.391 . S
C3301 C3300 1.386 . S
C3301 C3305 1.393 . S
C3302 H3294 0.950 . S
C3302 C3300 1.391 . S
C3302 C3303 1.400 . S
C3303 C3302 1.400 . S
C3303 C3304 1.398 . S
C3303 C3309 1.491 . S
C3304 H3295 0.950 . S
C3304 C3303 1.398 . S
C3304 C3305 1.391 . S
C3305 H3293 0.950 . S
C3305 C3301 1.393 . S
C3305 C3304 1.391 . S
C3306 H3296 0.950 . S
C3306 C3307 1.386 . S
C3306 C3308 1.391 . S
C3307 C3306 1.386 . S
C3307 C3311 1.393 . S
C3308 H3297 0.950 . S
C3308 C3306 1.391 . S
C3308 C3309 1.400 . S
C3309 C3303 1.491 . S
C3309 C3308 1.400 . S
C3309 C3310 1.398 . S
C3310 H3298 0.950 . S
C3310 C3309 1.398 . S
C3310 C3311 1.391 . S
C3311 H3299 0.950 . S
C3311 C3307 1.393 . S
C3311 C3310 1.391 . S
H3312 C3320 0.950 . S
H3313 C3325 0.950 . S
H3314 C3322 0.950 . S
H3315 C3324 0.950 . S
H3316 C3326 0.950 . S
H3317 C3328 0.950 . S
H3318 C3330 0.950 . S
H3319 C3331 0.950 . S
C3320 H3312 0.950 . S
C3320 C3321 1.386 . S
C3320 C3322 1.391 . S
C3321 C3320 1.386 . S
C3321 C3325 1.393 . S
C3322 H3314 0.950 . S
C3322 C3320 1.391 . S
C3322 C3323 1.400 . S
C3323 C3322 1.400 . S
C3323 C3324 1.398 . S
C3323 C3329 1.491 . S
C3324 H3315 0.950 . S
C3324 C3323 1.398 . S
C3324 C3325 1.391 . S
C3325 H3313 0.950 . S
C3325 C3321 1.393 . S
C3325 C3324 1.391 . S
C3326 H3316 0.950 . S
C3326 C3327 1.386 . S
C3326 C3328 1.391 . S
C3327 C3326 1.386 . S
C3327 C3331 1.393 . S
C3328 H3317 0.950 . S
C3328 C3326 1.391 . S
C3328 C3329 1.400 . S
C3329 C3323 1.491 . S
C3329 C3328 1.400 . S
C3329 C3330 1.398 . S
C3330 H3318 0.950 . S
C3330 C3329 1.398 . S
C3330 C3331 1.391 . S
C3331 H3319 0.950 . S
C3331 C3327 1.393 . S
C3331 C3330 1.391 . S
H3332 C3340 0.950 . S
H3333 C3345 0.950 . S
H3334 C3342 0.950 . S
H3335 C3344 0.950 . S
H3336 C3346 0.950 . S
H3337 C3348 0.950 . S
H3338 C3350 0.950 . S
H3339 C3351 0.950 . S
C3340 H3332 0.950 . S
C3340 C3341 1.386 . S
C3340 C3342 1.391 . S
C3341 C3340 1.386 . S
C3341 C3345 1.393 . S
C3342 H3334 0.950 . S
C3342 C3340 1.391 . S
C3342 C3343 1.400 . S
C3343 C3342 1.400 . S
C3343 C3344 1.398 . S
C3343 C3349 1.491 . S
C3344 H3335 0.950 . S
C3344 C3343 1.398 . S
C3344 C3345 1.391 . S
C3345 H3333 0.950 . S
C3345 C3341 1.393 . S
C3345 C3344 1.391 . S
C3346 H3336 0.950 . S
C3346 C3347 1.386 . S
C3346 C3348 1.391 . S
C3347 C3346 1.386 . S
C3347 C3351 1.393 . S
C3348 H3337 0.950 . S
C3348 C3346 1.391 . S
C3348 C3349 1.400 . S
C3349 C3343 1.491 . S
C3349 C3348 1.400 . S
C3349 C3350 1.398 . S
C3350 H3338 0.950 . S
C3350 C3349 1.398 . S
C3350 C3351 1.391 . S
C3351 H3339 0.950 . S
C3351 C3347 1.393 . S
C3351 C3350 1.391 . S
H3352 C3360 0.950 . S
H3353 C3365 0.950 . S
H3354 C3362 0.950 . S
H3355 C3364 0.950 . S
H3356 C3366 0.933 1_545 S
H3357 C3368 0.950 . S
H3358 C3370 0.950 . S
H3359 C3371 0.912 1_554 S
C3360 H3352 0.950 . S
C3360 C3361 1.386 . S
C3360 C3362 1.391 . S
C3361 C3360 1.386 . S
C3361 C3365 1.393 . S
C3362 H3354 0.950 . S
C3362 C3360 1.391 . S
C3362 C3363 1.400 . S
C3363 C3362 1.400 . S
C3363 C3364 1.398 . S
C3363 C3369 1.491 . S
C3364 H3355 0.950 . S
C3364 C3363 1.398 . S
C3364 C3365 1.391 . S
C3365 H3353 0.950 . S
C3365 C3361 1.393 . S
C3365 C3364 1.391 . S
C3366 H3356 0.933 1_565 S
C3366 C3367 1.386 . S
C3366 C3368 1.391 . S
C3367 C3366 1.386 . S
C3367 C3371 1.393 . S
C3368 H3357 0.950 . S
C3368 C3366 1.391 . S
C3368 C3369 1.400 . S
C3369 C3363 1.491 . S
C3369 C3368 1.400 . S
C3369 C3370 1.398 . S
C3370 H3358 0.950 . S
C3370 C3369 1.398 . S
C3370 C3371 1.391 . S
C3371 H3359 0.912 1_556 S
C3371 C3367 1.393 . S
C3371 C3370 1.391 . S
H3372 C3380 0.950 . S
H3373 C3385 0.950 . S
H3374 C3382 0.950 . S
H3375 C3384 0.950 . S
H3376 C3386 0.950 . S
H3377 C3388 0.950 . S
H3378 C3390 0.950 . S
H3379 C3391 0.950 . S
C3380 H3372 0.950 . S
C3380 C3381 1.386 . S
C3380 C3382 1.391 . S
C3381 C3380 1.386 . S
C3381 C3385 1.393 . S
C3382 H3374 0.950 . S
C3382 C3380 1.391 . S
C3382 C3383 1.400 . S
C3383 C3382 1.400 . S
C3383 C3384 1.398 . S
C3383 C3389 1.491 . S
C3384 H3375 0.950 . S
C3384 C3383 1.398 . S
C3384 C3385 1.391 . S
C3385 H3373 0.950 . S
C3385 C3381 1.393 . S
C3385 C3384 1.391 . S
C3386 H3376 0.950 . S
C3386 C3387 1.386 . S
C3386 C3388 1.391 . S
C3387 C3386 1.386 . S
C3387 C3391 1.393 . S
C3388 H3377 0.950 . S
C3388 C3386 1.391 . S
C3388 C3389 1.400 . S
C3389 C3383 1.491 . S
C3389 C3388 1.400 . S
C3389 C3390 1.398 . S
C3390 H3378 0.950 . S
C3390 C3389 1.398 . S
C3390 C3391 1.391 . S
C3391 H3379 0.950 . S
C3391 C3387 1.393 . S
C3391 C3390 1.391 . S
H3392 C3400 0.950 . S
H3393 C3405 0.950 . S
H3394 C3402 0.950 . S
H3395 C3404 0.950 . S
H3396 C3406 0.950 . S
H3397 C3408 0.950 . S
H3398 C3410 0.950 . S
H3399 C3411 0.950 . S
C3400 H3392 0.950 . S
C3400 C3401 1.386 . S
C3400 C3402 1.391 . S
C3401 C3400 1.386 . S
C3401 C3405 1.393 1_545 S
C3402 H3394 0.950 . S
C3402 C3400 1.391 . S
C3402 C3403 1.400 . S
C3403 C3402 1.400 . S
C3403 C3404 1.398 1_545 S
C3403 C3409 1.491 . S
C3404 H3395 0.950 . S
C3404 C3403 1.398 1_565 S
C3404 C3405 1.391 . S
C3405 H3393 0.950 . S
C3405 C3401 1.393 1_565 S
C3405 C3404 1.391 . S
C3406 H3396 0.950 . S
C3406 C3407 1.386 1_565 S
C3406 C3408 1.391 . S
C3407 C3406 1.386 1_545 S
C3407 C3411 1.393 . S
C3408 H3397 0.950 . S
C3408 C3406 1.391 . S
C3408 C3409 1.400 1_565 S
C3409 C3403 1.491 . S
C3409 C3408 1.400 1_545 S
C3409 C3410 1.398 . S
C3410 H3398 0.950 . S
C3410 C3409 1.398 . S
C3410 C3411 1.391 . S
C3411 H3399 0.950 . S
C3411 C3407 1.393 . S
C3411 C3410 1.391 . S
H3412 C3420 0.950 . S
H3413 C3425 0.950 . S
H3414 C3422 0.950 . S
H3415 C3424 0.950 . S
H3416 C3426 0.950 . S
H3417 C3428 0.950 . S
H3418 C3430 0.950 . S
H3419 C3431 0.950 . S
C3420 H3412 0.950 . S
C3420 C3421 1.386 . S
C3420 C3422 1.391 . S
C3421 C3420 1.386 . S
C3421 C3425 1.393 . S
C3422 H3414 0.950 . S
C3422 C3420 1.391 . S
C3422 C3423 1.400 . S
C3423 C3422 1.400 . S
C3423 C3424 1.398 . S
C3423 C3429 1.491 . S
C3424 H3415 0.950 . S
C3424 C3423 1.398 . S
C3424 C3425 1.391 . S
C3425 H3413 0.950 . S
C3425 C3421 1.393 . S
C3425 C3424 1.391 . S
C3426 H3416 0.950 . S
C3426 C3427 1.386 . S
C3426 C3428 1.391 . S
C3427 C3426 1.386 . S
C3427 C3431 1.393 . S
C3428 H3417 0.950 . S
C3428 C3426 1.391 . S
C3428 C3429 1.400 . S
C3429 C3423 1.491 . S
C3429 C3428 1.400 . S
C3429 C3430 1.398 . S
C3430 H3418 0.950 . S
C3430 C3429 1.398 . S
C3430 C3431 1.391 . S
C3431 H3419 0.950 . S
C3431 C3427 1.393 . S
C3431 C3430 1.391 . S
H3432 C3440 0.950 . S
H3433 C3445 0.950 . S
H3434 C3442 0.950 . S
H3435 C3444 0.950 . S
H3436 C3446 0.950 . S
H3437 C3448 0.950 . S
H3438 C3450 0.950 . S
H3439 C3451 0.950 . S
C3440 H3432 0.950 . S
C3440 C3441 1.386 . S
C3440 C3442 1.391 . S
C3441 C3440 1.386 . S
C3441 C3445 1.393 . S
C3442 H3434 0.950 . S
C3442 C3440 1.391 . S
C3442 C3443 1.400 . S
C3443 C3442 1.400 . S
C3443 C3444 1.398 . S
C3443 C3449 1.491 . S
C3444 H3435 0.950 . S
C3444 C3443 1.398 . S
C3444 C3445 1.391 . S
C3445 H3433 0.950 . S
C3445 C3441 1.393 . S
C3445 C3444 1.391 . S
C3446 H3436 0.950 . S
C3446 C3447 1.386 . S
C3446 C3448 1.391 . S
C3447 C3446 1.386 . S
C3447 C3451 1.393 . S
C3448 H3437 0.950 . S
C3448 C3446 1.391 . S
C3448 C3449 1.400 . S
C3449 C3443 1.491 . S
C3449 C3448 1.400 . S
C3449 C3450 1.398 . S
C3450 H3438 0.950 . S
C3450 C3449 1.398 . S
C3450 C3451 1.391 . S
C3451 H3439 0.950 . S
C3451 C3447 1.393 . S
C3451 C3450 1.391 . S
H3452 C3460 0.950 . S
H3453 C3465 0.950 . S
H3454 C3462 0.950 . S
H3455 C3464 0.950 . S
H3456 C3466 0.950 . S
H3457 C3468 0.950 . S
H3458 C3470 0.950 . S
H3459 C3471 0.950 . S
C3460 H3452 0.950 . S
C3460 C3461 1.386 . S
C3460 C3462 1.391 . S
C3461 C3460 1.386 . S
C3461 C3465 1.393 . S
C3462 H3454 0.950 . S
C3462 C3460 1.391 . S
C3462 C3463 1.400 . S
C3463 C3462 1.400 . S
C3463 C3464 1.398 . S
C3463 C3469 1.491 . S
C3464 H3455 0.950 . S
C3464 C3463 1.398 . S
C3464 C3465 1.391 . S
C3465 H3453 0.950 . S
C3465 C3461 1.393 . S
C3465 C3464 1.391 . S
C3466 H3456 0.950 . S
C3466 C3467 1.386 . S
C3466 C3468 1.391 . S
C3467 C3466 1.386 . S
C3467 C3471 1.393 . S
C3468 H3457 0.950 . S
C3468 C3466 1.391 . S
C3468 C3469 1.400 . S
C3469 C3463 1.491 . S
C3469 C3468 1.400 . S
C3469 C3470 1.398 . S
C3470 H3458 0.950 . S
C3470 C3469 1.398 . S
C3470 C3471 1.391 . S
C3471 H3459 0.950 . S
C3471 C3467 1.393 . S
C3471 C3470 1.391 . S
H3472 C3480 0.950 . S
H3473 C3485 0.941 1_545 S
H3474 C3482 0.950 . S
H3475 C3484 0.950 . S
H3476 C3486 0.950 . S
H3477 C3488 0.950 . S
H3478 C3490 0.950 1_565 S
H3479 C3491 0.950 . S
C3480 H3472 0.950 . S
C3480 C3481 1.386 . S
C3480 C3482 1.391 . S
C3481 C3480 1.386 . S
C3481 C3485 1.426 . S
C3482 H3474 0.950 . S
C3482 C3480 1.391 . S
C3482 C3483 1.371 1_565 S
C3483 C3482 1.371 1_545 S
C3483 C3484 1.406 . S
C3483 C3489 1.512 . S
C3484 H3475 0.950 . S
C3484 C3483 1.406 . S
C3484 C3485 1.368 1_545 S
C3485 H3473 0.941 1_565 S
C3485 C3481 1.426 . S
C3485 C3484 1.368 1_565 S
C3486 H3476 0.950 . S
C3486 C3487 1.386 . S
C3486 C3488 1.391 . S
C3487 C3486 1.386 . S
C3487 C3491 1.393 . S
C3488 H3477 0.950 . S
C3488 C3486 1.391 . S
C3488 C3489 1.400 . S
C3489 C3483 1.512 . S
C3489 C3488 1.400 . S
C3489 C3490 1.398 . S
C3490 H3478 0.950 1_545 S
C3490 C3489 1.398 . S
C3490 C3491 1.391 . S
C3491 H3479 0.950 . S
C3491 C3487 1.393 . S
C3491 C3490 1.391 . S
H3492 C3500 0.950 . S
H3493 C3505 0.950 . S
H3494 C3502 0.950 . S
H3495 C3504 0.950 . S
H3496 C3506 0.950 . S
H3497 C3508 0.950 . S
H3498 C3510 0.950 . S
H3499 C3511 0.950 . S
C3500 H3492 0.950 . S
C3500 C3501 1.386 . S
C3500 C3502 1.391 . S
C3501 C3500 1.386 . S
C3501 C3505 1.393 . S
C3502 H3494 0.950 . S
C3502 C3500 1.391 . S
C3502 C3503 1.400 . S
C3503 C3502 1.400 . S
C3503 C3504 1.398 . S
C3503 C3509 1.491 . S
C3504 H3495 0.950 . S
C3504 C3503 1.398 . S
C3504 C3505 1.391 . S
C3505 H3493 0.950 . S
C3505 C3501 1.393 . S
C3505 C3504 1.391 . S
C3506 H3496 0.950 . S
C3506 C3507 1.386 . S
C3506 C3508 1.391 . S
C3507 C3506 1.386 . S
C3507 C3511 1.393 . S
C3508 H3497 0.950 . S
C3508 C3506 1.391 . S
C3508 C3509 1.400 . S
C3509 C3503 1.491 . S
C3509 C3508 1.400 . S
C3509 C3510 1.398 . S
C3510 H3498 0.950 . S
C3510 C3509 1.398 . S
C3510 C3511 1.391 . S
C3511 H3499 0.950 . S
C3511 C3507 1.393 . S
C3511 C3510 1.391 . S
H3512 C3520 0.950 . S
H3513 C3525 0.950 . S
H3514 C3522 0.950 . S
H3515 C3524 0.924 1_565 S
H3516 C3526 0.950 . S
H3517 C3528 0.950 . S
H3518 C3530 0.950 1_545 S
H3519 C3531 0.950 . S
C3520 H3512 0.950 . S
C3520 C3521 1.386 . S
C3520 C3522 1.391 . S
C3521 C3520 1.386 . S
C3521 C3525 1.393 . S
C3522 H3514 0.950 . S
C3522 C3520 1.391 . S
C3522 C3523 1.400 . S
C3523 C3522 1.400 . S
C3523 C3524 1.421 . S
C3523 C3529 1.491 1_545 S
C3524 H3515 0.924 1_545 S
C3524 C3523 1.421 . S
C3524 C3525 1.398 . S
C3525 H3513 0.950 . S
C3525 C3521 1.393 . S
C3525 C3524 1.398 . S
C3526 H3516 0.950 . S
C3526 C3527 1.386 . S
C3526 C3528 1.391 . S
C3527 C3526 1.386 . S
C3527 C3531 1.393 . S
C3528 H3517 0.950 . S
C3528 C3526 1.391 . S
C3528 C3529 1.400 . S
C3529 C3523 1.491 1_565 S
C3529 C3528 1.400 . S
C3529 C3530 1.398 . S
C3530 H3518 0.950 1_565 S
C3530 C3529 1.398 . S
C3530 C3531 1.391 . S
C3531 H3519 0.950 . S
C3531 C3527 1.393 . S
C3531 C3530 1.391 . S
H3532 C3540 0.950 . S
H3533 C3545 0.950 . S
H3534 C3542 0.950 . S
H3535 C3544 0.950 . S
H3536 C3546 0.950 . S
H3537 C3548 0.950 . S
H3538 C3550 0.950 . S
H3539 C3551 0.950 . S
C3540 H3532 0.950 . S
C3540 C3541 1.386 . S
C3540 C3542 1.391 . S
C3541 C3540 1.386 . S
C3541 C3545 1.393 . S
C3542 H3534 0.950 . S
C3542 C3540 1.391 . S
C3542 C3543 1.400 . S
C3543 C3542 1.400 . S
C3543 C3544 1.398 . S
C3543 C3549 1.491 . S
C3544 H3535 0.950 . S
C3544 C3543 1.398 . S
C3544 C3545 1.391 . S
C3545 H3533 0.950 . S
C3545 C3541 1.393 . S
C3545 C3544 1.391 . S
C3546 H3536 0.950 . S
C3546 C3547 1.386 . S
C3546 C3548 1.391 . S
C3547 C3546 1.386 . S
C3547 C3551 1.393 . S
C3548 H3537 0.950 . S
C3548 C3546 1.391 . S
C3548 C3549 1.400 . S
C3549 C3543 1.491 . S
C3549 C3548 1.400 . S
C3549 C3550 1.398 . S
C3550 H3538 0.950 . S
C3550 C3549 1.398 . S
C3550 C3551 1.391 . S
C3551 H3539 0.950 . S
C3551 C3547 1.393 . S
C3551 C3550 1.391 . S
H3552 C3560 0.950 . S
H3553 C3565 0.950 . S
H3554 C3562 0.950 . S
H3555 C3564 0.950 . S
H3556 C3566 0.950 1_554 S
H3557 C3568 0.950 . S
H3558 C3570 0.950 . S
H3559 C3571 0.950 . S
C3560 H3552 0.950 . S
C3560 C3561 1.386 1_556 S
C3560 C3562 1.391 . S
C3561 C3560 1.386 1_554 S
C3561 C3565 1.393 . S
C3562 H3554 0.950 . S
C3562 C3560 1.391 . S
C3562 C3563 1.400 . S
C3563 C3562 1.400 . S
C3563 C3564 1.398 1_556 S
C3563 C3569 1.491 . S
C3564 H3555 0.950 . S
C3564 C3563 1.398 1_554 S
C3564 C3565 1.391 . S
C3565 H3553 0.950 . S
C3565 C3561 1.393 . S
C3565 C3564 1.391 . S
C3566 H3556 0.950 1_556 S
C3566 C3567 1.386 . S
C3566 C3568 1.391 1_556 S
C3567 C3566 1.386 . S
C3567 C3571 1.393 . S
C3568 H3557 0.950 . S
C3568 C3566 1.391 1_554 S
C3568 C3569 1.400 1_554 S
C3569 C3563 1.491 . S
C3569 C3568 1.400 1_556 S
C3569 C3570 1.398 . S
C3570 H3558 0.950 . S
C3570 C3569 1.398 . S
C3570 C3571 1.391 . S
C3571 H3559 0.950 . S
C3571 C3567 1.393 . S
C3571 C3570 1.391 . S
H3572 C3580 0.950 . S
H3573 C3585 0.950 . S
H3574 C3582 0.950 . S
H3575 C3584 0.950 . S
H3576 C3586 0.950 1_556 S
H3577 C3588 0.950 . S
H3578 C3590 0.950 . S
H3579 C3591 0.950 . S
C3580 H3572 0.950 . S
C3580 C3581 1.386 . S
C3580 C3582 1.391 . S
C3581 C3580 1.386 . S
C3581 C3585 1.393 . S
C3582 H3574 0.950 . S
C3582 C3580 1.391 . S
C3582 C3583 1.400 . S
C3583 C3582 1.400 . S
C3583 C3584 1.398 . S
C3583 C3589 1.491 . S
C3584 H3575 0.950 . S
C3584 C3583 1.398 . S
C3584 C3585 1.391 . S
C3585 H3573 0.950 . S
C3585 C3581 1.393 . S
C3585 C3584 1.391 . S
C3586 H3576 0.950 1_554 S
C3586 C3587 1.386 . S
C3586 C3588 1.391 . S
C3587 C3586 1.386 . S
C3587 C3591 1.393 . S
C3588 H3577 0.950 . S
C3588 C3586 1.391 . S
C3588 C3589 1.400 . S
C3589 C3583 1.491 . S
C3589 C3588 1.400 . S
C3589 C3590 1.398 . S
C3590 H3578 0.950 . S
C3590 C3589 1.398 . S
C3590 C3591 1.391 . S
C3591 H3579 0.950 . S
C3591 C3587 1.393 . S
C3591 C3590 1.391 . S
H3592 C3600 0.950 . S
H3593 C3605 0.950 . S
H3594 C3602 0.950 . S
H3595 C3604 0.950 . S
H3596 C3606 0.950 . S
H3597 C3608 0.950 . S
H3598 C3610 0.950 . S
H3599 C3611 0.950 . S
C3600 H3592 0.950 . S
C3600 C3601 1.386 . S
C3600 C3602 1.391 . S
C3601 C3600 1.386 . S
C3601 C3605 1.393 . S
C3602 H3594 0.950 . S
C3602 C3600 1.391 . S
C3602 C3603 1.400 . S
C3603 C3602 1.400 . S
C3603 C3604 1.398 . S
C3603 C3609 1.491 . S
C3604 H3595 0.950 . S
C3604 C3603 1.398 . S
C3604 C3605 1.391 . S
C3605 H3593 0.950 . S
C3605 C3601 1.393 . S
C3605 C3604 1.391 . S
C3606 H3596 0.950 . S
C3606 C3607 1.386 . S
C3606 C3608 1.391 . S
C3607 C3606 1.386 . S
C3607 C3611 1.393 . S
C3608 H3597 0.950 . S
C3608 C3606 1.391 . S
C3608 C3609 1.400 . S
C3609 C3603 1.491 . S
C3609 C3608 1.400 . S
C3609 C3610 1.398 . S
C3610 H3598 0.950 . S
C3610 C3609 1.398 . S
C3610 C3611 1.391 . S
C3611 H3599 0.950 . S
C3611 C3607 1.393 . S
C3611 C3610 1.391 . S
H3612 C3620 0.950 . S
H3613 C3625 0.950 . S
H3614 C3622 0.950 . S
H3615 C3624 0.950 . S
H3616 C3626 0.950 . S
H3617 C3628 0.950 . S
H3618 C3630 0.950 . S
H3619 C3631 0.950 . S
C3620 H3612 0.950 . S
C3620 C3621 1.386 . S
C3620 C3622 1.391 . S
C3621 C3620 1.386 . S
C3621 C3625 1.393 . S
C3622 H3614 0.950 . S
C3622 C3620 1.391 . S
C3622 C3623 1.400 . S
C3623 C3622 1.400 . S
C3623 C3624 1.398 . S
C3623 C3629 1.491 . S
C3624 H3615 0.950 . S
C3624 C3623 1.398 . S
C3624 C3625 1.391 . S
C3625 H3613 0.950 . S
C3625 C3621 1.393 . S
C3625 C3624 1.391 . S
C3626 H3616 0.950 . S
C3626 C3627 1.386 . S
C3626 C3628 1.391 . S
C3627 C3626 1.386 . S
C3627 C3631 1.393 . S
C3628 H3617 0.950 . S
C3628 C3626 1.391 . S
C3628 C3629 1.400 . S
C3629 C3623 1.491 . S
C3629 C3628 1.400 . S
C3629 C3630 1.398 . S
C3630 H3618 0.950 . S
C3630 C3629 1.398 . S
C3630 C3631 1.391 . S
C3631 H3619 0.950 . S
C3631 C3627 1.393 . S
C3631 C3630 1.391 . S
H3632 C3640 0.950 . S
H3633 C3645 0.950 . S
H3634 C3642 0.950 . S
H3635 C3644 0.950 . S
H3636 C3646 0.950 . S
H3637 C3648 0.950 . S
H3638 C3650 0.950 . S
H3639 C3651 0.950 . S
C3640 H3632 0.950 . S
C3640 C3641 1.386 . S
C3640 C3642 1.391 . S
C3641 C3640 1.386 . S
C3641 C3645 1.393 . S
C3642 H3634 0.950 . S
C3642 C3640 1.391 . S
C3642 C3643 1.400 . S
C3643 C3642 1.400 . S
C3643 C3644 1.398 . S
C3643 C3649 1.491 . S
C3644 H3635 0.950 . S
C3644 C3643 1.398 . S
C3644 C3645 1.391 . S
C3645 H3633 0.950 . S
C3645 C3641 1.393 . S
C3645 C3644 1.391 . S
C3646 H3636 0.950 . S
C3646 C3647 1.386 . S
C3646 C3648 1.391 . S
C3647 C3646 1.386 . S
C3647 C3651 1.393 . S
C3648 H3637 0.950 . S
C3648 C3646 1.391 . S
C3648 C3649 1.400 . S
C3649 C3643 1.491 . S
C3649 C3648 1.400 . S
C3649 C3650 1.398 . S
C3650 H3638 0.950 . S
C3650 C3649 1.398 . S
C3650 C3651 1.391 . S
C3651 H3639 0.950 . S
C3651 C3647 1.393 . S
C3651 C3650 1.391 . S
H3652 C3660 0.950 . S
H3653 C3665 0.950 . S
H3654 C3662 0.950 . S
H3655 C3664 0.950 . S
H3656 C3666 0.950 . S
H3657 C3668 0.950 . S
H3658 C3670 0.950 . S
H3659 C3671 0.950 . S
C3660 H3652 0.950 . S
C3660 C3661 1.386 . S
C3660 C3662 1.391 . S
C3661 C3660 1.386 . S
C3661 C3665 1.393 . S
C3662 H3654 0.950 . S
C3662 C3660 1.391 . S
C3662 C3663 1.400 . S
C3663 C3662 1.400 . S
C3663 C3664 1.398 . S
C3663 C3669 1.491 . S
C3664 H3655 0.950 . S
C3664 C3663 1.398 . S
C3664 C3665 1.391 . S
C3665 H3653 0.950 . S
C3665 C3661 1.393 . S
C3665 C3664 1.391 . S
C3666 H3656 0.950 . S
C3666 C3667 1.386 . S
C3666 C3668 1.391 . S
C3667 C3666 1.386 . S
C3667 C3671 1.393 . S
C3668 H3657 0.950 . S
C3668 C3666 1.391 . S
C3668 C3669 1.400 . S
C3669 C3663 1.491 . S
C3669 C3668 1.400 . S
C3669 C3670 1.398 . S
C3670 H3658 0.950 . S
C3670 C3669 1.398 . S
C3670 C3671 1.391 . S
C3671 H3659 0.950 . S
C3671 C3667 1.393 . S
C3671 C3670 1.391 . S
H3672 C3680 0.950 . S
H3673 C3685 0.950 . S
H3674 C3682 0.950 . S
H3675 C3684 0.950 . S
H3676 C3686 0.950 . S
H3677 C3688 0.950 . S
H3678 C3690 0.950 . S
H3679 C3691 0.950 . S
C3680 H3672 0.950 . S
C3680 C3681 1.386 . S
C3680 C3682 1.391 . S
C3681 C3680 1.386 . S
C3681 C3685 1.393 . S
C3682 H3674 0.950 . S
C3682 C3680 1.391 . S
C3682 C3683 1.400 . S
C3683 C3682 1.400 . S
C3683 C3684 1.398 . S
C3683 C3689 1.491 . S
C3684 H3675 0.950 . S
C3684 C3683 1.398 . S
C3684 C3685 1.391 . S
C3685 H3673 0.950 . S
C3685 C3681 1.393 . S
C3685 C3684 1.391 . S
C3686 H3676 0.950 . S
C3686 C3687 1.386 . S
C3686 C3688 1.391 . S
C3687 C3686 1.386 . S
C3687 C3691 1.393 . S
C3688 H3677 0.950 . S
C3688 C3686 1.391 . S
C3688 C3689 1.400 . S
C3689 C3683 1.491 . S
C3689 C3688 1.400 . S
C3689 C3690 1.398 . S
C3690 H3678 0.950 . S
C3690 C3689 1.398 . S
C3690 C3691 1.391 . S
C3691 H3679 0.950 . S
C3691 C3687 1.393 . S
C3691 C3690 1.391 . S
H3692 C3700 0.950 . S
H3693 C3705 0.950 . S
H3694 C3702 0.950 . S
H3695 C3704 0.950 . S
H3696 C3706 0.950 . S
H3697 C3708 0.950 . S
H3698 C3710 0.950 . S
H3699 C3711 0.950 . S
C3700 H3692 0.950 . S
C3700 C3701 1.386 . S
C3700 C3702 1.391 . S
C3701 C3700 1.386 . S
C3701 C3705 1.393 . S
C3702 H3694 0.950 . S
C3702 C3700 1.391 . S
C3702 C3703 1.400 . S
C3703 C3702 1.400 . S
C3703 C3704 1.398 . S
C3703 C3709 1.491 . S
C3704 H3695 0.950 . S
C3704 C3703 1.398 . S
C3704 C3705 1.391 . S
C3705 H3693 0.950 . S
C3705 C3701 1.393 . S
C3705 C3704 1.391 . S
C3706 H3696 0.950 . S
C3706 C3707 1.386 . S
C3706 C3708 1.391 . S
C3707 C3706 1.386 . S
C3707 C3711 1.393 . S
C3708 H3697 0.950 . S
C3708 C3706 1.391 . S
C3708 C3709 1.400 . S
C3709 C3703 1.491 . S
C3709 C3708 1.400 . S
C3709 C3710 1.398 . S
C3710 H3698 0.950 . S
C3710 C3709 1.398 . S
C3710 C3711 1.391 . S
C3711 H3699 0.950 . S
C3711 C3707 1.393 . S
C3711 C3710 1.391 . S
H3712 C3720 0.950 . S
H3713 C3725 0.950 . S
H3714 C3722 0.950 . S
H3715 C3724 0.950 . S
H3716 C3726 0.950 . S
H3717 C3728 0.950 . S
H3718 C3730 0.950 . S
H3719 C3731 0.950 . S
C3720 H3712 0.950 . S
C3720 C3721 1.386 . S
C3720 C3722 1.391 . S
C3721 C3720 1.386 . S
C3721 C3725 1.393 . S
C3722 H3714 0.950 . S
C3722 C3720 1.391 . S
C3722 C3723 1.400 . S
C3723 C3722 1.400 . S
C3723 C3724 1.398 . S
C3723 C3729 1.491 . S
C3724 H3715 0.950 . S
C3724 C3723 1.398 . S
C3724 C3725 1.391 . S
C3725 H3713 0.950 . S
C3725 C3721 1.393 . S
C3725 C3724 1.391 . S
C3726 H3716 0.950 . S
C3726 C3727 1.386 . S
C3726 C3728 1.391 . S
C3727 C3726 1.386 . S
C3727 C3731 1.393 . S
C3728 H3717 0.950 . S
C3728 C3726 1.391 . S
C3728 C3729 1.400 . S
C3729 C3723 1.491 . S
C3729 C3728 1.400 . S
C3729 C3730 1.398 . S
C3730 H3718 0.950 . S
C3730 C3729 1.398 . S
C3730 C3731 1.391 . S
C3731 H3719 0.950 . S
C3731 C3727 1.393 . S
C3731 C3730 1.391 . S
H3732 C3740 0.950 . S
H3733 C3745 0.950 . S
H3734 C3742 0.950 . S
H3735 C3744 0.950 . S
H3736 C3746 0.950 . S
H3737 C3748 0.950 . S
H3738 C3750 0.950 . S
H3739 C3751 0.950 . S
C3740 H3732 0.950 . S
C3740 C3741 1.386 . S
C3740 C3742 1.391 . S
C3741 C3740 1.386 . S
C3741 C3745 1.393 . S
C3742 H3734 0.950 . S
C3742 C3740 1.391 . S
C3742 C3743 1.400 . S
C3743 C3742 1.400 . S
C3743 C3744 1.398 . S
C3743 C3749 1.491 . S
C3744 H3735 0.950 . S
C3744 C3743 1.398 . S
C3744 C3745 1.391 . S
C3745 H3733 0.950 . S
C3745 C3741 1.393 . S
C3745 C3744 1.391 . S
C3746 H3736 0.950 . S
C3746 C3747 1.386 . S
C3746 C3748 1.391 . S
C3747 C3746 1.386 . S
C3747 C3751 1.393 . S
C3748 H3737 0.950 . S
C3748 C3746 1.391 . S
C3748 C3749 1.400 . S
C3749 C3743 1.491 . S
C3749 C3748 1.400 . S
C3749 C3750 1.398 . S
C3750 H3738 0.950 . S
C3750 C3749 1.398 . S
C3750 C3751 1.391 . S
C3751 H3739 0.950 . S
C3751 C3747 1.393 . S
C3751 C3750 1.391 . S
H3752 C3760 0.950 . S
H3753 C3765 0.950 . S
H3754 C3762 0.950 . S
H3755 C3764 0.950 . S
H3756 C3766 0.950 . S
H3757 C3768 0.950 . S
H3758 C3770 0.950 . S
H3759 C3771 0.950 . S
C3760 H3752 0.950 . S
C3760 C3761 1.386 . S
C3760 C3762 1.391 . S
C3761 C3760 1.386 . S
C3761 C3765 1.393 . S
C3762 H3754 0.950 . S
C3762 C3760 1.391 . S
C3762 C3763 1.400 . S
C3763 C3762 1.400 . S
C3763 C3764 1.398 . S
C3763 C3769 1.491 . S
C3764 H3755 0.950 . S
C3764 C3763 1.398 . S
C3764 C3765 1.391 . S
C3765 H3753 0.950 . S
C3765 C3761 1.393 . S
C3765 C3764 1.391 . S
C3766 H3756 0.950 . S
C3766 C3767 1.386 . S
C3766 C3768 1.391 1_554 S
C3767 C3766 1.386 . S
C3767 C3771 1.393 1_554 S
C3768 H3757 0.950 . S
C3768 C3766 1.391 1_556 S
C3768 C3769 1.400 . S
C3769 C3763 1.491 . S
C3769 C3768 1.400 . S
C3769 C3770 1.398 . S
C3770 H3758 0.950 . S
C3770 C3769 1.398 . S
C3770 C3771 1.391 . S
C3771 H3759 0.950 . S
C3771 C3767 1.393 1_556 S
C3771 C3770 1.391 . S
H3772 C3780 0.950 . S
H3773 C3785 0.950 . S
H3774 C3782 0.950 . S
H3775 C3784 0.950 . S
H3776 C3786 0.950 . S
H3777 C3788 0.950 . S
H3778 C3790 0.950 . S
H3779 C3791 0.950 . S
C3780 H3772 0.950 . S
C3780 C3781 1.386 . S
C3780 C3782 1.391 . S
C3781 C3780 1.386 . S
C3781 C3785 1.393 . S
C3782 H3774 0.950 . S
C3782 C3780 1.391 . S
C3782 C3783 1.400 . S
C3783 C3782 1.400 . S
C3783 C3784 1.398 . S
C3783 C3789 1.491 . S
C3784 H3775 0.950 . S
C3784 C3783 1.398 . S
C3784 C3785 1.391 . S
C3785 H3773 0.950 . S
C3785 C3781 1.393 . S
C3785 C3784 1.391 . S
C3786 H3776 0.950 . S
C3786 C3787 1.386 . S
C3786 C3788 1.391 . S
C3787 C3786 1.386 . S
C3787 C3791 1.393 . S
C3788 H3777 0.950 . S
C3788 C3786 1.391 . S
C3788 C3789 1.400 . S
C3789 C3783 1.491 . S
C3789 C3788 1.400 . S
C3789 C3790 1.398 . S
C3790 H3778 0.950 . S
C3790 C3789 1.398 . S
C3790 C3791 1.391 . S
C3791 H3779 0.950 . S
C3791 C3787 1.393 . S
C3791 C3790 1.391 . S
H3792 C3800 0.950 . S
H3793 C3805 0.950 . S
H3794 C3802 0.950 . S
H3795 C3804 0.950 . S
H3796 C3806 0.950 . S
H3797 C3808 0.950 . S
H3798 C3810 0.950 . S
H3799 C3811 0.950 . S
C3800 H3792 0.950 . S
C3800 C3801 1.386 . S
C3800 C3802 1.391 . S
C3801 C3800 1.386 . S
C3801 C3805 1.393 . S
C3802 H3794 0.950 . S
C3802 C3800 1.391 . S
C3802 C3803 1.400 . S
C3803 C3802 1.400 . S
C3803 C3804 1.398 . S
C3803 C3809 1.491 . S
C3804 H3795 0.950 . S
C3804 C3803 1.398 . S
C3804 C3805 1.391 . S
C3805 H3793 0.950 . S
C3805 C3801 1.393 . S
C3805 C3804 1.391 . S
C3806 H3796 0.950 . S
C3806 C3807 1.386 . S
C3806 C3808 1.391 . S
C3807 C3806 1.386 . S
C3807 C3811 1.393 . S
C3808 H3797 0.950 . S
C3808 C3806 1.391 . S
C3808 C3809 1.400 . S
C3809 C3803 1.491 . S
C3809 C3808 1.400 . S
C3809 C3810 1.398 . S
C3810 H3798 0.950 . S
C3810 C3809 1.398 . S
C3810 C3811 1.391 . S
C3811 H3799 0.950 . S
C3811 C3807 1.393 . S
C3811 C3810 1.391 . S
H3812 C3820 0.950 1_455 S
H3813 C3825 0.950 . S
H3814 C3822 0.950 . S
H3815 C3824 0.950 . S
H3816 C3826 0.950 . S
H3817 C3828 0.950 . S
H3818 C3830 0.950 . S
H3819 C3831 0.950 . S
C3820 H3812 0.950 1_655 S
C3820 C3821 1.357 1_655 S
C3820 C3822 1.391 . S
C3821 C3820 1.357 1_455 S
C3821 C3825 1.362 1_455 S
C3822 H3814 0.950 . S
C3822 C3820 1.391 . S
C3822 C3823 1.400 . S
C3823 C3822 1.400 . S
C3823 C3824 1.398 . S
C3823 C3829 1.491 . S
C3824 H3815 0.950 . S
C3824 C3823 1.398 . S
C3824 C3825 1.391 . S
C3825 H3813 0.950 . S
C3825 C3821 1.362 1_655 S
C3825 C3824 1.391 . S
C3826 H3816 0.950 . S
C3826 C3827 1.386 . S
C3826 C3828 1.391 . S
C3827 C3826 1.386 . S
C3827 C3831 1.393 . S
C3828 H3817 0.950 . S
C3828 C3826 1.391 . S
C3828 C3829 1.400 . S
C3829 C3823 1.491 . S
C3829 C3828 1.400 . S
C3829 C3830 1.398 . S
C3830 H3818 0.950 . S
C3830 C3829 1.398 . S
C3830 C3831 1.391 . S
C3831 H3819 0.950 . S
C3831 C3827 1.393 . S
C3831 C3830 1.391 . S
H3832 C3840 0.950 . S
H3833 C3845 0.950 . S
H3834 C3842 0.950 . S
H3835 C3844 0.950 . S
H3836 C3846 0.950 . S
H3837 C3848 0.950 1_655 S
H3838 C3850 0.950 . S
H3839 C3851 0.950 . S
C3840 H3832 0.950 . S
C3840 C3841 1.386 1_455 S
C3840 C3842 1.391 . S
C3841 C3840 1.386 1_655 S
C3841 C3845 1.393 . S
C3842 H3834 0.950 . S
C3842 C3840 1.391 . S
C3842 C3843 1.400 . S
C3843 C3842 1.400 . S
C3843 C3844 1.398 1_455 S
C3843 C3849 1.491 . S
C3844 H3835 0.950 . S
C3844 C3843 1.398 1_655 S
C3844 C3845 1.391 . S
C3845 H3833 0.950 . S
C3845 C3841 1.393 . S
C3845 C3844 1.391 . S
C3846 H3836 0.950 . S
C3846 C3847 1.386 . S
C3846 C3848 1.391 . S
C3847 C3846 1.386 . S
C3847 C3851 1.393 . S
C3848 H3837 0.950 1_455 S
C3848 C3846 1.391 . S
C3848 C3849 1.400 . S
C3849 C3843 1.491 . S
C3849 C3848 1.400 . S
C3849 C3850 1.398 . S
C3850 H3838 0.950 . S
C3850 C3849 1.398 . S
C3850 C3851 1.391 . S
C3851 H3839 0.950 . S
C3851 C3847 1.393 . S
C3851 C3850 1.391 . S
H3852 C3860 0.950 . S
H3853 C3865 0.950 . S
H3854 C3862 0.950 . S
H3855 C3864 0.950 . S
H3856 C3866 0.950 . S
H3857 C3868 0.950 . S
H3858 C3870 0.950 . S
H3859 C3871 0.950 . S
C3860 H3852 0.950 . S
C3860 C3861 1.386 . S
C3860 C3862 1.391 . S
C3861 C3860 1.386 . S
C3861 C3865 1.393 . S
C3862 H3854 0.950 . S
C3862 C3860 1.391 . S
C3862 C3863 1.400 . S
C3863 C3862 1.400 . S
C3863 C3864 1.398 . S
C3863 C3869 1.491 . S
C3864 H3855 0.950 . S
C3864 C3863 1.398 . S
C3864 C3865 1.391 . S
C3865 H3853 0.950 . S
C3865 C3861 1.393 . S
C3865 C3864 1.391 . S
C3866 H3856 0.950 . S
C3866 C3867 1.386 . S
C3866 C3868 1.391 . S
C3867 C3866 1.386 . S
C3867 C3871 1.393 . S
C3868 H3857 0.950 . S
C3868 C3866 1.391 . S
C3868 C3869 1.400 . S
C3869 C3863 1.491 . S
C3869 C3868 1.400 . S
C3869 C3870 1.398 . S
C3870 H3858 0.950 . S
C3870 C3869 1.398 . S
C3870 C3871 1.391 . S
C3871 H3859 0.950 . S
C3871 C3867 1.393 . S
C3871 C3870 1.391 . S
H3872 C3880 0.950 . S
H3873 C3885 0.950 . S
H3874 C3882 0.950 . S
H3875 C3884 0.950 . S
H3876 C3886 0.950 . S
H3877 C3888 0.950 . S
H3878 C3890 0.950 . S
H3879 C3891 0.950 . S
C3880 H3872 0.950 . S
C3880 C3881 1.386 . S
C3880 C3882 1.391 . S
C3881 C3880 1.386 . S
C3881 C3885 1.393 . S
C3882 H3874 0.950 . S
C3882 C3880 1.391 . S
C3882 C3883 1.400 . S
C3883 C3882 1.400 . S
C3883 C3884 1.398 . S
C3883 C3889 1.491 . S
C3884 H3875 0.950 . S
C3884 C3883 1.398 . S
C3884 C3885 1.391 . S
C3885 H3873 0.950 . S
C3885 C3881 1.393 . S
C3885 C3884 1.391 . S
C3886 H3876 0.950 . S
C3886 C3887 1.386 . S
C3886 C3888 1.391 . S
C3887 C3886 1.386 . S
C3887 C3891 1.393 . S
C3888 H3877 0.950 . S
C3888 C3886 1.391 . S
C3888 C3889 1.400 . S
C3889 C3883 1.491 . S
C3889 C3888 1.400 . S
C3889 C3890 1.398 . S
C3890 H3878 0.950 . S
C3890 C3889 1.398 . S
C3890 C3891 1.391 . S
C3891 H3879 0.950 . S
C3891 C3887 1.393 . S
C3891 C3890 1.391 . S
H3892 C3900 0.950 . S
H3893 C3905 0.950 . S
H3894 C3902 0.950 . S
H3895 C3904 0.950 . S
H3896 C3906 0.950 . S
H3897 C3908 0.950 . S
H3898 C3910 0.950 . S
H3899 C3911 0.950 . S
C3900 H3892 0.950 . S
C3900 C3901 1.386 . S
C3900 C3902 1.391 . S
C3901 C3900 1.386 . S
C3901 C3905 1.393 . S
C3902 H3894 0.950 . S
C3902 C3900 1.391 . S
C3902 C3903 1.400 . S
C3903 C3902 1.400 . S
C3903 C3904 1.398 . S
C3903 C3909 1.491 . S
C3904 H3895 0.950 . S
C3904 C3903 1.398 . S
C3904 C3905 1.391 . S
C3905 H3893 0.950 . S
C3905 C3901 1.393 . S
C3905 C3904 1.391 . S
C3906 H3896 0.950 . S
C3906 C3907 1.386 . S
C3906 C3908 1.391 . S
C3907 C3906 1.386 . S
C3907 C3911 1.393 . S
C3908 H3897 0.950 . S
C3908 C3906 1.391 . S
C3908 C3909 1.400 . S
C3909 C3903 1.491 . S
C3909 C3908 1.400 . S
C3909 C3910 1.398 . S
C3910 H3898 0.950 . S
C3910 C3909 1.398 . S
C3910 C3911 1.391 . S
C3911 H3899 0.950 . S
C3911 C3907 1.393 . S
C3911 C3910 1.391 . S
H3912 C3920 0.950 . S
H3913 C3925 0.950 . S
H3914 C3922 0.950 . S
H3915 C3924 0.950 . S
H3916 C3926 0.950 . S
H3917 C3928 0.950 . S
H3918 C3930 0.950 . S
H3919 C3931 0.950 . S
C3920 H3912 0.950 . S
C3920 C3921 1.386 . S
C3920 C3922 1.391 . S
C3921 C3920 1.386 . S
C3921 C3925 1.393 . S
C3922 H3914 0.950 . S
C3922 C3920 1.391 . S
C3922 C3923 1.400 . S
C3923 C3922 1.400 . S
C3923 C3924 1.398 . S
C3923 C3929 1.491 . S
C3924 H3915 0.950 . S
C3924 C3923 1.398 . S
C3924 C3925 1.391 . S
C3925 H3913 0.950 . S
C3925 C3921 1.393 . S
C3925 C3924 1.391 . S
C3926 H3916 0.950 . S
C3926 C3927 1.386 . S
C3926 C3928 1.391 . S
C3927 C3926 1.386 . S
C3927 C3931 1.393 . S
C3928 H3917 0.950 . S
C3928 C3926 1.391 . S
C3928 C3929 1.400 . S
C3929 C3923 1.491 . S
C3929 C3928 1.400 . S
C3929 C3930 1.398 . S
C3930 H3918 0.950 . S
C3930 C3929 1.398 . S
C3930 C3931 1.391 . S
C3931 H3919 0.950 . S
C3931 C3927 1.393 . S
C3931 C3930 1.391 . S
H3932 C3940 0.950 . S
H3933 C3945 0.950 . S
H3934 C3942 0.950 . S
H3935 C3944 0.950 . S
H3936 C3946 0.950 . S
H3937 C3948 0.950 . S
H3938 C3950 0.950 . S
H3939 C3951 0.950 . S
C3940 H3932 0.950 . S
C3940 C3941 1.386 . S
C3940 C3942 1.391 . S
C3941 C3940 1.386 . S
C3941 C3945 1.393 . S
C3942 H3934 0.950 . S
C3942 C3940 1.391 . S
C3942 C3943 1.400 . S
C3943 C3942 1.400 . S
C3943 C3944 1.398 . S
C3943 C3949 1.491 . S
C3944 H3935 0.950 . S
C3944 C3943 1.398 . S
C3944 C3945 1.391 . S
C3945 H3933 0.950 . S
C3945 C3941 1.393 . S
C3945 C3944 1.391 . S
C3946 H3936 0.950 . S
C3946 C3947 1.386 . S
C3946 C3948 1.391 . S
C3947 C3946 1.386 . S
C3947 C3951 1.393 . S
C3948 H3937 0.950 . S
C3948 C3946 1.391 . S
C3948 C3949 1.400 . S
C3949 C3943 1.491 . S
C3949 C3948 1.400 . S
C3949 C3950 1.398 . S
C3950 H3938 0.950 . S
C3950 C3949 1.398 . S
C3950 C3951 1.391 . S
C3951 H3939 0.950 . S
C3951 C3947 1.393 . S
C3951 C3950 1.391 . S
H3952 C3960 0.950 . S
H3953 C3965 0.950 . S
H3954 C3962 0.950 . S
H3955 C3964 0.950 . S
H3956 C3966 0.950 . S
H3957 C3968 0.950 . S
H3958 C3970 0.950 . S
H3959 C3971 0.950 . S
C3960 H3952 0.950 . S
C3960 C3961 1.386 . S
C3960 C3962 1.391 . S
C3961 C3960 1.386 . S
C3961 C3965 1.393 . S
C3962 H3954 0.950 . S
C3962 C3960 1.391 . S
C3962 C3963 1.400 . S
C3963 C3962 1.400 . S
C3963 C3964 1.398 . S
C3963 C3969 1.491 . S
C3964 H3955 0.950 . S
C3964 C3963 1.398 . S
C3964 C3965 1.391 . S
C3965 H3953 0.950 . S
C3965 C3961 1.393 . S
C3965 C3964 1.391 . S
C3966 H3956 0.950 . S
C3966 C3967 1.386 . S
C3966 C3968 1.391 . S
C3967 C3966 1.386 . S
C3967 C3971 1.393 . S
C3968 H3957 0.950 . S
C3968 C3966 1.391 . S
C3968 C3969 1.400 . S
C3969 C3963 1.491 . S
C3969 C3968 1.400 . S
C3969 C3970 1.398 . S
C3970 H3958 0.950 . S
C3970 C3969 1.398 . S
C3970 C3971 1.391 . S
C3971 H3959 0.950 . S
C3971 C3967 1.393 . S
C3971 C3970 1.391 . S
H3972 C3980 0.950 . S
H3973 C3985 0.950 . S
H3974 C3982 0.950 . S
H3975 C3984 0.950 . S
H3976 C3986 0.950 . S
H3977 C3988 0.950 . S
H3978 C3990 0.950 . S
H3979 C3991 0.950 . S
C3980 H3972 0.950 . S
C3980 C3981 1.386 . S
C3980 C3982 1.391 . S
C3981 C3980 1.386 . S
C3981 C3985 1.393 . S
C3982 H3974 0.950 . S
C3982 C3980 1.391 . S
C3982 C3983 1.400 . S
C3983 C3982 1.400 . S
C3983 C3984 1.398 . S
C3983 C3989 1.491 . S
C3984 H3975 0.950 . S
C3984 C3983 1.398 . S
C3984 C3985 1.391 . S
C3985 H3973 0.950 . S
C3985 C3981 1.393 . S
C3985 C3984 1.391 . S
C3986 H3976 0.950 . S
C3986 C3987 1.386 . S
C3986 C3988 1.391 . S
C3987 C3986 1.386 . S
C3987 C3991 1.393 . S
C3988 H3977 0.950 . S
C3988 C3986 1.391 . S
C3988 C3989 1.400 . S
C3989 C3983 1.491 . S
C3989 C3988 1.400 . S
C3989 C3990 1.398 . S
C3990 H3978 0.950 . S
C3990 C3989 1.398 . S
C3990 C3991 1.391 . S
C3991 H3979 0.950 . S
C3991 C3987 1.393 . S
C3991 C3990 1.391 . S
H3992 C4000 0.950 . S
H3993 C4005 0.950 . S
H3994 C4002 0.950 . S
H3995 C4004 0.950 . S
H3996 C4006 0.950 . S
H3997 C4008 0.950 . S
H3998 C4010 0.950 . S
H3999 C4011 0.950 . S
C4000 H3992 0.950 . S
C4000 C4001 1.386 . S
C4000 C4002 1.391 . S
C4001 C4000 1.386 . S
C4001 C4005 1.393 . S
C4002 H3994 0.950 . S
C4002 C4000 1.391 . S
C4002 C4003 1.400 . S
C4003 C4002 1.400 . S
C4003 C4004 1.398 . S
C4003 C4009 1.491 . S
C4004 H3995 0.950 . S
C4004 C4003 1.398 . S
C4004 C4005 1.391 . S
C4005 H3993 0.950 . S
C4005 C4001 1.393 . S
C4005 C4004 1.391 . S
C4006 H3996 0.950 . S
C4006 C4007 1.386 . S
C4006 C4008 1.391 . S
C4007 C4006 1.386 . S
C4007 C4011 1.393 . S
C4008 H3997 0.950 . S
C4008 C4006 1.391 . S
C4008 C4009 1.400 . S
C4009 C4003 1.491 . S
C4009 C4008 1.400 . S
C4009 C4010 1.398 . S
C4010 H3998 0.950 . S
C4010 C4009 1.398 . S
C4010 C4011 1.391 . S
C4011 H3999 0.950 . S
C4011 C4007 1.393 . S
C4011 C4010 1.391 . S
H4012 C4020 0.950 . S
H4013 C4025 0.950 . S
H4014 C4022 0.950 . S
H4015 C4024 0.950 . S
H4016 C4026 0.950 . S
H4017 C4028 0.950 . S
H4018 C4030 0.950 . S
H4019 C4031 0.950 . S
C4020 H4012 0.950 . S
C4020 C4021 1.386 . S
C4020 C4022 1.391 . S
C4021 C4020 1.386 . S
C4021 C4025 1.393 . S
C4022 H4014 0.950 . S
C4022 C4020 1.391 . S
C4022 C4023 1.400 . S
C4023 C4022 1.400 . S
C4023 C4024 1.398 . S
C4023 C4029 1.491 . S
C4024 H4015 0.950 . S
C4024 C4023 1.398 . S
C4024 C4025 1.391 . S
C4025 H4013 0.950 . S
C4025 C4021 1.393 . S
C4025 C4024 1.391 . S
C4026 H4016 0.950 . S
C4026 C4027 1.386 . S
C4026 C4028 1.391 . S
C4027 C4026 1.386 . S
C4027 C4031 1.393 . S
C4028 H4017 0.950 . S
C4028 C4026 1.391 . S
C4028 C4029 1.400 . S
C4029 C4023 1.491 . S
C4029 C4028 1.400 . S
C4029 C4030 1.398 . S
C4030 H4018 0.950 . S
C4030 C4029 1.398 . S
C4030 C4031 1.391 . S
C4031 H4019 0.950 . S
C4031 C4027 1.393 . S
C4031 C4030 1.391 . S
H4032 C4040 0.950 . S
H4033 C4045 0.950 . S
H4034 C4042 0.950 . S
H4035 C4044 0.950 . S
H4036 C4046 0.950 . S
H4037 C4048 0.950 . S
H4038 C4050 0.950 . S
H4039 C4051 0.950 . S
C4040 H4032 0.950 . S
C4040 C4041 1.386 . S
C4040 C4042 1.391 . S
C4041 C4040 1.386 . S
C4041 C4045 1.393 . S
C4042 H4034 0.950 . S
C4042 C4040 1.391 . S
C4042 C4043 1.400 . S
C4043 C4042 1.400 . S
C4043 C4044 1.398 . S
C4043 C4049 1.491 . S
C4044 H4035 0.950 . S
C4044 C4043 1.398 . S
C4044 C4045 1.391 . S
C4045 H4033 0.950 . S
C4045 C4041 1.393 . S
C4045 C4044 1.391 . S
C4046 H4036 0.950 . S
C4046 C4047 1.386 . S
C4046 C4048 1.391 . S
C4047 C4046 1.386 . S
C4047 C4051 1.393 . S
C4048 H4037 0.950 . S
C4048 C4046 1.391 . S
C4048 C4049 1.400 . S
C4049 C4043 1.491 . S
C4049 C4048 1.400 . S
C4049 C4050 1.398 . S
C4050 H4038 0.950 . S
C4050 C4049 1.398 . S
C4050 C4051 1.391 . S
C4051 H4039 0.950 . S
C4051 C4047 1.393 . S
C4051 C4050 1.391 . S
H4052 C4060 0.950 . S
H4053 C4065 0.950 . S
H4054 C4062 0.950 . S
H4055 C4064 0.950 . S
H4056 C4066 0.950 . S
H4057 C4068 0.950 . S
H4058 C4070 0.950 . S
H4059 C4071 0.950 . S
C4060 H4052 0.950 . S
C4060 C4061 1.386 . S
C4060 C4062 1.391 . S
C4061 C4060 1.386 . S
C4061 C4065 1.393 . S
C4062 H4054 0.950 . S
C4062 C4060 1.391 . S
C4062 C4063 1.400 . S
C4063 C4062 1.400 . S
C4063 C4064 1.398 . S
C4063 C4069 1.491 . S
C4064 H4055 0.950 . S
C4064 C4063 1.398 . S
C4064 C4065 1.391 . S
C4065 H4053 0.950 . S
C4065 C4061 1.393 . S
C4065 C4064 1.391 . S
C4066 H4056 0.950 . S
C4066 C4067 1.386 . S
C4066 C4068 1.391 . S
C4067 C4066 1.386 . S
C4067 C4071 1.393 . S
C4068 H4057 0.950 . S
C4068 C4066 1.391 . S
C4068 C4069 1.400 . S
C4069 C4063 1.491 . S
C4069 C4068 1.400 . S
C4069 C4070 1.398 . S
C4070 H4058 0.950 . S
C4070 C4069 1.398 . S
C4070 C4071 1.391 . S
C4071 H4059 0.950 . S
C4071 C4067 1.393 . S
C4071 C4070 1.391 . S
H4072 C4080 0.950 . S
H4073 C4085 0.950 . S
H4074 C4082 0.950 . S
H4075 C4084 0.950 . S
H4076 C4086 0.950 . S
H4077 C4088 0.950 . S
H4078 C4090 0.950 . S
H4079 C4091 0.950 . S
C4080 H4072 0.950 . S
C4080 C4081 1.386 . S
C4080 C4082 1.391 . S
C4081 C4080 1.386 . S
C4081 C4085 1.393 . S
C4082 H4074 0.950 . S
C4082 C4080 1.391 . S
C4082 C4083 1.400 . S
C4083 C4082 1.400 . S
C4083 C4084 1.398 . S
C4083 C4089 1.491 . S
C4084 H4075 0.950 . S
C4084 C4083 1.398 . S
C4084 C4085 1.391 . S
C4085 H4073 0.950 . S
C4085 C4081 1.393 . S
C4085 C4084 1.391 . S
C4086 H4076 0.950 . S
C4086 C4087 1.386 . S
C4086 C4088 1.391 . S
C4087 C4086 1.386 . S
C4087 C4091 1.393 . S
C4088 H4077 0.950 . S
C4088 C4086 1.391 . S
C4088 C4089 1.400 . S
C4089 C4083 1.491 . S
C4089 C4088 1.400 . S
C4089 C4090 1.398 . S
C4090 H4078 0.950 . S
C4090 C4089 1.398 . S
C4090 C4091 1.391 . S
C4091 H4079 0.950 . S
C4091 C4087 1.393 . S
C4091 C4090 1.391 . S
H4092 C4100 0.950 . S
H4093 C4105 0.950 . S
H4094 C4102 0.950 . S
H4095 C4104 0.950 . S
H4096 C4106 0.950 . S
H4097 C4108 0.950 . S
H4098 C4110 0.950 . S
H4099 C4111 0.950 . S
C4100 H4092 0.950 . S
C4100 C4101 1.386 . S
C4100 C4102 1.391 . S
C4101 C4100 1.386 . S
C4101 C4105 1.393 1_565 S
C4102 H4094 0.950 . S
C4102 C4100 1.391 . S
C4102 C4103 1.400 . S
C4103 C4102 1.400 . S
C4103 C4104 1.398 1_565 S
C4103 C4109 1.491 1_565 S
C4104 H4095 0.950 . S
C4104 C4103 1.398 1_545 S
C4104 C4105 1.391 . S
C4105 H4093 0.950 . S
C4105 C4101 1.393 1_545 S
C4105 C4104 1.391 . S
C4106 H4096 0.950 . S
C4106 C4107 1.386 . S
C4106 C4108 1.391 . S
C4107 C4106 1.386 . S
C4107 C4111 1.393 1_545 S
C4108 H4097 0.950 . S
C4108 C4106 1.391 . S
C4108 C4109 1.400 . S
C4109 C4103 1.491 1_545 S
C4109 C4108 1.400 . S
C4109 C4110 1.398 1_545 S
C4110 H4098 0.950 . S
C4110 C4109 1.398 1_565 S
C4110 C4111 1.391 . S
C4111 H4099 0.950 . S
C4111 C4107 1.393 1_565 S
C4111 C4110 1.391 . S
H4112 C4120 0.950 . S
H4113 C4125 0.950 . S
H4114 C4122 0.950 . S
H4115 C4124 0.950 . S
H4116 C4126 0.950 . S
H4117 C4128 0.950 . S
H4118 C4130 0.950 . S
H4119 C4131 0.950 . S
C4120 H4112 0.950 . S
C4120 C4121 1.386 . S
C4120 C4122 1.391 . S
C4121 C4120 1.386 . S
C4121 C4125 1.393 . S
C4122 H4114 0.950 . S
C4122 C4120 1.391 . S
C4122 C4123 1.400 . S
C4123 C4122 1.400 . S
C4123 C4124 1.398 . S
C4123 C4129 1.491 . S
C4124 H4115 0.950 . S
C4124 C4123 1.398 . S
C4124 C4125 1.391 . S
C4125 H4113 0.950 . S
C4125 C4121 1.393 . S
C4125 C4124 1.391 . S
C4126 H4116 0.950 . S
C4126 C4127 1.386 . S
C4126 C4128 1.391 . S
C4127 C4126 1.386 . S
C4127 C4131 1.393 . S
C4128 H4117 0.950 . S
C4128 C4126 1.391 . S
C4128 C4129 1.400 . S
C4129 C4123 1.491 . S
C4129 C4128 1.400 . S
C4129 C4130 1.398 . S
C4130 H4118 0.950 . S
C4130 C4129 1.398 . S
C4130 C4131 1.391 . S
C4131 H4119 0.950 . S
C4131 C4127 1.393 . S
C4131 C4130 1.391 . S
H4132 C4140 0.950 . S
H4133 C4145 0.963 . S
H4134 C4142 0.950 . S
H4135 C4144 0.950 . S
H4136 C4146 0.950 . S
H4137 C4148 0.950 . S
H4138 C4150 0.950 . S
H4139 C4151 0.950 . S
C4140 H4132 0.950 . S
C4140 C4141 1.386 . S
C4140 C4142 1.391 . S
C4141 C4140 1.386 . S
C4141 C4145 1.385 1_554 S
C4142 H4134 0.950 . S
C4142 C4140 1.391 . S
C4142 C4143 1.400 . S
C4143 C4142 1.400 . S
C4143 C4144 1.398 . S
C4143 C4149 1.491 . S
C4144 H4135 0.950 . S
C4144 C4143 1.398 . S
C4144 C4145 1.385 1_554 S
C4145 H4133 0.963 . S
C4145 C4141 1.385 1_556 S
C4145 C4144 1.385 1_556 S
C4146 H4136 0.950 . S
C4146 C4147 1.386 . S
C4146 C4148 1.391 . S
C4147 C4146 1.386 . S
C4147 C4151 1.393 . S
C4148 H4137 0.950 . S
C4148 C4146 1.391 . S
C4148 C4149 1.400 . S
C4149 C4143 1.491 . S
C4149 C4148 1.400 . S
C4149 C4150 1.398 . S
C4150 H4138 0.950 . S
C4150 C4149 1.398 . S
C4150 C4151 1.391 . S
C4151 H4139 0.950 . S
C4151 C4147 1.393 . S
C4151 C4150 1.391 . S
H4152 C4160 0.950 . S
H4153 C4165 0.950 . S
H4154 C4162 0.950 . S
H4155 C4164 0.950 . S
H4156 C4166 0.950 . S
H4157 C4168 0.950 . S
H4158 C4170 0.950 . S
H4159 C4171 0.950 . S
C4160 H4152 0.950 . S
C4160 C4161 1.386 . S
C4160 C4162 1.391 . S
C4161 C4160 1.386 . S
C4161 C4165 1.393 . S
C4162 H4154 0.950 . S
C4162 C4160 1.391 . S
C4162 C4163 1.400 . S
C4163 C4162 1.400 . S
C4163 C4164 1.398 . S
C4163 C4169 1.491 . S
C4164 H4155 0.950 . S
C4164 C4163 1.398 . S
C4164 C4165 1.391 . S
C4165 H4153 0.950 . S
C4165 C4161 1.393 . S
C4165 C4164 1.391 . S
C4166 H4156 0.950 . S
C4166 C4167 1.386 . S
C4166 C4168 1.391 . S
C4167 C4166 1.386 . S
C4167 C4171 1.393 . S
C4168 H4157 0.950 . S
C4168 C4166 1.391 . S
C4168 C4169 1.400 . S
C4169 C4163 1.491 . S
C4169 C4168 1.400 . S
C4169 C4170 1.398 . S
C4170 H4158 0.950 . S
C4170 C4169 1.398 . S
C4170 C4171 1.391 . S
C4171 H4159 0.950 . S
C4171 C4167 1.393 . S
C4171 C4170 1.391 . S
H4172 C4180 0.950 . S
H4173 C4185 0.950 . S
H4174 C4182 0.950 . S
H4175 C4184 0.950 . S
H4176 C4186 0.950 . S
H4177 C4188 0.950 . S
H4178 C4190 0.950 . S
H4179 C4191 0.950 . S
C4180 H4172 0.950 . S
C4180 C4181 1.386 . S
C4180 C4182 1.391 . S
C4181 C4180 1.386 . S
C4181 C4185 1.393 . S
C4182 H4174 0.950 . S
C4182 C4180 1.391 . S
C4182 C4183 1.400 . S
C4183 C4182 1.400 . S
C4183 C4184 1.398 . S
C4183 C4189 1.491 . S
C4184 H4175 0.950 . S
C4184 C4183 1.398 . S
C4184 C4185 1.391 . S
C4185 H4173 0.950 . S
C4185 C4181 1.393 . S
C4185 C4184 1.391 . S
C4186 H4176 0.950 . S
C4186 C4187 1.386 . S
C4186 C4188 1.391 . S
C4187 C4186 1.386 . S
C4187 C4191 1.393 . S
C4188 H4177 0.950 . S
C4188 C4186 1.391 . S
C4188 C4189 1.400 . S
C4189 C4183 1.491 . S
C4189 C4188 1.400 . S
C4189 C4190 1.398 . S
C4190 H4178 0.950 . S
C4190 C4189 1.398 . S
C4190 C4191 1.391 . S
C4191 H4179 0.950 . S
C4191 C4187 1.393 . S
C4191 C4190 1.391 . S
H4192 C4200 0.950 . S
H4193 C4205 0.950 . S
H4194 C4202 0.950 . S
H4195 C4204 0.950 . S
H4196 C4206 0.950 . S
H4197 C4208 0.950 . S
H4198 C4210 0.950 . S
H4199 C4211 0.950 . S
C4200 H4192 0.950 . S
C4200 C4201 1.386 . S
C4200 C4202 1.391 . S
C4201 C4200 1.386 . S
C4201 C4205 1.393 . S
C4202 H4194 0.950 . S
C4202 C4200 1.391 . S
C4202 C4203 1.400 . S
C4203 C4202 1.400 . S
C4203 C4204 1.398 . S
C4203 C4209 1.491 . S
C4204 H4195 0.950 . S
C4204 C4203 1.398 . S
C4204 C4205 1.391 . S
C4205 H4193 0.950 . S
C4205 C4201 1.393 . S
C4205 C4204 1.391 . S
C4206 H4196 0.950 . S
C4206 C4207 1.386 . S
C4206 C4208 1.391 . S
C4207 C4206 1.386 . S
C4207 C4211 1.393 . S
C4208 H4197 0.950 . S
C4208 C4206 1.391 . S
C4208 C4209 1.400 . S
C4209 C4203 1.491 . S
C4209 C4208 1.400 . S
C4209 C4210 1.398 . S
C4210 H4198 0.950 . S
C4210 C4209 1.398 . S
C4210 C4211 1.391 . S
C4211 H4199 0.950 . S
C4211 C4207 1.393 . S
C4211 C4210 1.391 . S
H4212 C4220 0.950 . S
H4213 C4225 0.950 . S
H4214 C4222 0.950 . S
H4215 C4224 0.950 . S
H4216 C4226 0.950 . S
H4217 C4228 0.950 . S
H4218 C4230 0.950 . S
H4219 C4231 0.950 . S
C4220 H4212 0.950 . S
C4220 C4221 1.386 . S
C4220 C4222 1.391 . S
C4221 C4220 1.386 . S
C4221 C4225 1.393 . S
C4222 H4214 0.950 . S
C4222 C4220 1.391 . S
C4222 C4223 1.400 . S
C4223 C4222 1.400 . S
C4223 C4224 1.398 . S
C4223 C4229 1.491 . S
C4224 H4215 0.950 . S
C4224 C4223 1.398 . S
C4224 C4225 1.391 . S
C4225 H4213 0.950 . S
C4225 C4221 1.393 . S
C4225 C4224 1.391 . S
C4226 H4216 0.950 . S
C4226 C4227 1.386 . S
C4226 C4228 1.391 . S
C4227 C4226 1.386 . S
C4227 C4231 1.393 . S
C4228 H4217 0.950 . S
C4228 C4226 1.391 . S
C4228 C4229 1.400 . S
C4229 C4223 1.491 . S
C4229 C4228 1.400 . S
C4229 C4230 1.398 . S
C4230 H4218 0.950 . S
C4230 C4229 1.398 . S
C4230 C4231 1.391 . S
C4231 H4219 0.950 . S
C4231 C4227 1.393 . S
C4231 C4230 1.391 . S
H4232 C4240 0.950 . S
H4233 C4245 0.950 . S
H4234 C4242 0.950 . S
H4235 C4244 0.950 . S
H4236 C4246 0.950 . S
H4237 C4248 0.950 . S
H4238 C4250 0.950 . S
H4239 C4251 0.950 . S
C4240 H4232 0.950 . S
C4240 C4241 1.386 . S
C4240 C4242 1.391 . S
C4241 C4240 1.386 . S
C4241 C4245 1.393 . S
C4242 H4234 0.950 . S
C4242 C4240 1.391 . S
C4242 C4243 1.400 . S
C4243 C4242 1.400 . S
C4243 C4244 1.398 . S
C4243 C4249 1.491 . S
C4244 H4235 0.950 . S
C4244 C4243 1.398 . S
C4244 C4245 1.391 . S
C4245 H4233 0.950 . S
C4245 C4241 1.393 . S
C4245 C4244 1.391 . S
C4246 H4236 0.950 . S
C4246 C4247 1.386 . S
C4246 C4248 1.391 . S
C4247 C4246 1.386 . S
C4247 C4251 1.393 . S
C4248 H4237 0.950 . S
C4248 C4246 1.391 . S
C4248 C4249 1.400 . S
C4249 C4243 1.491 . S
C4249 C4248 1.400 . S
C4249 C4250 1.398 . S
C4250 H4238 0.950 . S
C4250 C4249 1.398 . S
C4250 C4251 1.391 . S
C4251 H4239 0.950 . S
C4251 C4247 1.393 . S
C4251 C4250 1.391 . S
H4252 C4260 0.950 . S
H4253 C4265 0.950 . S
H4254 C4262 0.950 . S
H4255 C4264 0.950 . S
H4256 C4266 0.950 . S
H4257 C4268 0.950 . S
H4258 C4270 0.950 . S
H4259 C4271 0.950 . S
C4260 H4252 0.950 . S
C4260 C4261 1.386 . S
C4260 C4262 1.391 . S
C4261 C4260 1.386 . S
C4261 C4265 1.393 . S
C4262 H4254 0.950 . S
C4262 C4260 1.391 . S
C4262 C4263 1.400 . S
C4263 C4262 1.400 . S
C4263 C4264 1.398 . S
C4263 C4269 1.491 . S
C4264 H4255 0.950 . S
C4264 C4263 1.398 . S
C4264 C4265 1.391 . S
C4265 H4253 0.950 . S
C4265 C4261 1.393 . S
C4265 C4264 1.391 . S
C4266 H4256 0.950 . S
C4266 C4267 1.386 . S
C4266 C4268 1.391 . S
C4267 C4266 1.386 . S
C4267 C4271 1.393 . S
C4268 H4257 0.950 . S
C4268 C4266 1.391 . S
C4268 C4269 1.400 . S
C4269 C4263 1.491 . S
C4269 C4268 1.400 . S
C4269 C4270 1.398 . S
C4270 H4258 0.950 . S
C4270 C4269 1.398 . S
C4270 C4271 1.391 . S
C4271 H4259 0.950 . S
C4271 C4267 1.393 . S
C4271 C4270 1.391 . S
H4272 C4280 0.950 . S
H4273 C4285 0.950 . S
H4274 C4282 0.950 . S
H4275 C4284 0.950 . S
H4276 C4286 0.950 . S
H4277 C4288 0.950 . S
H4278 C4290 0.950 . S
H4279 C4291 0.950 . S
C4280 H4272 0.950 . S
C4280 C4281 1.386 . S
C4280 C4282 1.391 . S
C4281 C4280 1.386 . S
C4281 C4285 1.393 . S
C4282 H4274 0.950 . S
C4282 C4280 1.391 . S
C4282 C4283 1.400 . S
C4283 C4282 1.400 . S
C4283 C4284 1.398 . S
C4283 C4289 1.491 . S
C4284 H4275 0.950 . S
C4284 C4283 1.398 . S
C4284 C4285 1.391 . S
C4285 H4273 0.950 . S
C4285 C4281 1.393 . S
C4285 C4284 1.391 . S
C4286 H4276 0.950 . S
C4286 C4287 1.386 . S
C4286 C4288 1.391 . S
C4287 C4286 1.386 . S
C4287 C4291 1.393 . S
C4288 H4277 0.950 . S
C4288 C4286 1.391 . S
C4288 C4289 1.400 . S
C4289 C4283 1.491 . S
C4289 C4288 1.400 . S
C4289 C4290 1.398 . S
C4290 H4278 0.950 . S
C4290 C4289 1.398 . S
C4290 C4291 1.391 . S
C4291 H4279 0.950 . S
C4291 C4287 1.393 . S
C4291 C4290 1.391 . S
H4292 C4300 0.950 . S
H4293 C4305 0.950 . S
H4294 C4302 0.950 . S
H4295 C4304 0.950 . S
H4296 C4306 0.950 . S
H4297 C4308 0.950 . S
H4298 C4310 0.950 . S
H4299 C4311 0.950 . S
C4300 H4292 0.950 . S
C4300 C4301 1.386 . S
C4300 C4302 1.391 . S
C4301 C4300 1.386 . S
C4301 C4305 1.393 . S
C4302 H4294 0.950 . S
C4302 C4300 1.391 . S
C4302 C4303 1.400 . S
C4303 C4302 1.400 . S
C4303 C4304 1.398 . S
C4303 C4309 1.491 . S
C4304 H4295 0.950 . S
C4304 C4303 1.398 . S
C4304 C4305 1.391 . S
C4305 H4293 0.950 . S
C4305 C4301 1.393 . S
C4305 C4304 1.391 . S
C4306 H4296 0.950 . S
C4306 C4307 1.386 . S
C4306 C4308 1.391 . S
C4307 C4306 1.386 . S
C4307 C4311 1.393 . S
C4308 H4297 0.950 . S
C4308 C4306 1.391 . S
C4308 C4309 1.400 . S
C4309 C4303 1.491 . S
C4309 C4308 1.400 . S
C4309 C4310 1.398 . S
C4310 H4298 0.950 . S
C4310 C4309 1.398 . S
C4310 C4311 1.391 . S
C4311 H4299 0.950 . S
C4311 C4307 1.393 . S
C4311 C4310 1.391 . S
H4312 C4320 0.950 . S
H4313 C4325 0.950 . S
H4314 C4322 0.950 . S
H4315 C4324 0.950 . S
H4316 C4326 0.950 . S
H4317 C4328 0.950 . S
H4318 C4330 0.950 . S
H4319 C4331 0.950 . S
C4320 H4312 0.950 . S
C4320 C4321 1.386 . S
C4320 C4322 1.391 . S
C4321 C4320 1.386 . S
C4321 C4325 1.393 . S
C4322 H4314 0.950 . S
C4322 C4320 1.391 . S
C4322 C4323 1.400 . S
C4323 C4322 1.400 . S
C4323 C4324 1.398 . S
C4323 C4329 1.491 . S
C4324 H4315 0.950 . S
C4324 C4323 1.398 . S
C4324 C4325 1.391 . S
C4325 H4313 0.950 . S
C4325 C4321 1.393 . S
C4325 C4324 1.391 . S
C4326 H4316 0.950 . S
C4326 C4327 1.386 . S
C4326 C4328 1.391 . S
C4327 C4326 1.386 . S
C4327 C4331 1.393 . S
C4328 H4317 0.950 . S
C4328 C4326 1.391 . S
C4328 C4329 1.400 . S
C4329 C4323 1.491 . S
C4329 C4328 1.400 . S
C4329 C4330 1.398 . S
C4330 H4318 0.950 . S
C4330 C4329 1.398 . S
C4330 C4331 1.391 . S
C4331 H4319 0.950 . S
C4331 C4327 1.393 . S
C4331 C4330 1.391 . S
H4332 C4340 0.950 . S
H4333 C4345 0.950 . S
H4334 C4342 0.950 . S
H4335 C4344 0.950 . S
H4336 C4346 0.950 . S
H4337 C4348 0.950 . S
H4338 C4350 0.950 . S
H4339 C4351 0.950 . S
C4340 H4332 0.950 . S
C4340 C4341 1.386 . S
C4340 C4342 1.391 . S
C4341 C4340 1.386 . S
C4341 C4345 1.393 . S
C4342 H4334 0.950 . S
C4342 C4340 1.391 . S
C4342 C4343 1.400 . S
C4343 C4342 1.400 . S
C4343 C4344 1.398 . S
C4343 C4349 1.491 . S
C4344 H4335 0.950 . S
C4344 C4343 1.398 . S
C4344 C4345 1.391 . S
C4345 H4333 0.950 . S
C4345 C4341 1.393 . S
C4345 C4344 1.391 . S
C4346 H4336 0.950 . S
C4346 C4347 1.386 . S
C4346 C4348 1.391 . S
C4347 C4346 1.386 . S
C4347 C4351 1.393 . S
C4348 H4337 0.950 . S
C4348 C4346 1.391 . S
C4348 C4349 1.400 . S
C4349 C4343 1.491 . S
C4349 C4348 1.400 . S
C4349 C4350 1.398 . S
C4350 H4338 0.950 . S
C4350 C4349 1.398 . S
C4350 C4351 1.391 . S
C4351 H4339 0.950 . S
C4351 C4347 1.393 . S
C4351 C4350 1.391 . S
H4352 C4360 0.950 . S
H4353 C4365 0.950 . S
H4354 C4362 0.950 . S
H4355 C4364 0.950 . S
H4356 C4366 0.950 . S
H4357 C4368 0.950 . S
H4358 C4370 0.950 . S
H4359 C4371 0.950 . S
C4360 H4352 0.950 . S
C4360 C4361 1.386 . S
C4360 C4362 1.391 . S
C4361 C4360 1.386 . S
C4361 C4365 1.393 . S
C4362 H4354 0.950 . S
C4362 C4360 1.391 . S
C4362 C4363 1.400 . S
C4363 C4362 1.400 . S
C4363 C4364 1.398 . S
C4363 C4369 1.491 . S
C4364 H4355 0.950 . S
C4364 C4363 1.398 . S
C4364 C4365 1.391 . S
C4365 H4353 0.950 . S
C4365 C4361 1.393 . S
C4365 C4364 1.391 . S
C4366 H4356 0.950 . S
C4366 C4367 1.386 . S
C4366 C4368 1.391 . S
C4367 C4366 1.386 . S
C4367 C4371 1.393 . S
C4368 H4357 0.950 . S
C4368 C4366 1.391 . S
C4368 C4369 1.400 . S
C4369 C4363 1.491 . S
C4369 C4368 1.400 . S
C4369 C4370 1.398 . S
C4370 H4358 0.950 . S
C4370 C4369 1.398 . S
C4370 C4371 1.391 . S
C4371 H4359 0.950 . S
C4371 C4367 1.393 . S
C4371 C4370 1.391 . S
H4372 C4380 0.950 . S
H4373 C4385 0.950 . S
H4374 C4382 0.950 . S
H4375 C4384 0.950 . S
H4376 C4386 0.950 . S
H4377 C4388 0.950 . S
H4378 C4390 0.950 . S
H4379 C4391 0.950 . S
C4380 H4372 0.950 . S
C4380 C4381 1.386 . S
C4380 C4382 1.391 . S
C4381 C4380 1.386 . S
C4381 C4385 1.393 . S
C4382 H4374 0.950 . S
C4382 C4380 1.391 . S
C4382 C4383 1.400 . S
C4383 C4382 1.400 . S
C4383 C4384 1.398 . S
C4383 C4389 1.491 . S
C4384 H4375 0.950 . S
C4384 C4383 1.398 . S
C4384 C4385 1.391 . S
C4385 H4373 0.950 . S
C4385 C4381 1.393 . S
C4385 C4384 1.391 . S
C4386 H4376 0.950 . S
C4386 C4387 1.386 . S
C4386 C4388 1.391 . S
C4387 C4386 1.386 . S
C4387 C4391 1.393 . S
C4388 H4377 0.950 . S
C4388 C4386 1.391 . S
C4388 C4389 1.400 . S
C4389 C4383 1.491 . S
C4389 C4388 1.400 . S
C4389 C4390 1.398 . S
C4390 H4378 0.950 . S
C4390 C4389 1.398 . S
C4390 C4391 1.391 . S
C4391 H4379 0.950 . S
C4391 C4387 1.393 . S
C4391 C4390 1.391 . S
H4392 C4400 0.979 . S
H4393 C4405 0.950 . S
H4394 C4402 0.950 . S
H4395 C4404 0.950 . S
H4396 C4406 0.966 . S
H4397 C4408 0.950 . S
H4398 C4410 0.950 . S
H4399 C4411 0.950 . S
C4400 H4392 0.979 . S
C4400 C4401 1.386 . S
C4400 C4402 1.391 1_655 S
C4401 C4400 1.386 . S
C4401 C4405 1.393 . S
C4402 H4394 0.950 . S
C4402 C4400 1.391 1_455 S
C4402 C4403 1.400 1_455 S
C4403 C4402 1.400 1_655 S
C4403 C4404 1.398 . S
C4403 C4409 1.491 1_655 S
C4404 H4395 0.950 . S
C4404 C4403 1.398 . S
C4404 C4405 1.391 . S
C4405 H4393 0.950 . S
C4405 C4401 1.393 . S
C4405 C4404 1.391 . S
C4406 H4396 0.966 . S
C4406 C4407 1.386 . S
C4406 C4408 1.391 1_455 S
C4407 C4406 1.386 . S
C4407 C4411 1.393 . S
C4408 H4397 0.950 . S
C4408 C4406 1.391 1_655 S
C4408 C4409 1.400 1_655 S
C4409 C4403 1.491 1_455 S
C4409 C4408 1.400 1_455 S
C4409 C4410 1.398 . S
C4410 H4398 0.950 . S
C4410 C4409 1.398 . S
C4410 C4411 1.391 . S
C4411 H4399 0.950 . S
C4411 C4407 1.393 . S
C4411 C4410 1.391 . S
H4412 C4420 0.950 . S
H4413 C4425 0.950 . S
H4414 C4422 0.950 . S
H4415 C4424 0.950 . S
H4416 C4426 0.950 . S
H4417 C4428 0.950 . S
H4418 C4430 0.950 . S
H4419 C4431 0.950 . S
C4420 H4412 0.950 . S
C4420 C4421 1.386 . S
C4420 C4422 1.391 . S
C4421 C4420 1.386 . S
C4421 C4425 1.393 . S
C4422 H4414 0.950 . S
C4422 C4420 1.391 . S
C4422 C4423 1.400 . S
C4423 C4422 1.400 . S
C4423 C4424 1.398 . S
C4423 C4429 1.491 . S
C4424 H4415 0.950 . S
C4424 C4423 1.398 . S
C4424 C4425 1.391 . S
C4425 H4413 0.950 . S
C4425 C4421 1.393 . S
C4425 C4424 1.391 . S
C4426 H4416 0.950 . S
C4426 C4427 1.386 . S
C4426 C4428 1.391 . S
C4427 C4426 1.386 . S
C4427 C4431 1.393 . S
C4428 H4417 0.950 . S
C4428 C4426 1.391 . S
C4428 C4429 1.400 . S
C4429 C4423 1.491 . S
C4429 C4428 1.400 . S
C4429 C4430 1.398 . S
C4430 H4418 0.950 . S
C4430 C4429 1.398 . S
C4430 C4431 1.391 . S
C4431 H4419 0.950 . S
C4431 C4427 1.393 . S
C4431 C4430 1.391 . S
H4432 C4440 0.950 . S
H4433 C4445 0.950 . S
H4434 C4442 0.950 . S
H4435 C4444 0.950 . S
H4436 C4446 0.950 . S
H4437 C4448 0.950 . S
H4438 C4450 0.950 . S
H4439 C4451 0.950 . S
C4440 H4432 0.950 . S
C4440 C4441 1.386 . S
C4440 C4442 1.391 . S
C4441 C4440 1.386 . S
C4441 C4445 1.393 . S
C4442 H4434 0.950 . S
C4442 C4440 1.391 . S
C4442 C4443 1.400 . S
C4443 C4442 1.400 . S
C4443 C4444 1.398 . S
C4443 C4449 1.491 . S
C4444 H4435 0.950 . S
C4444 C4443 1.398 . S
C4444 C4445 1.391 . S
C4445 H4433 0.950 . S
C4445 C4441 1.393 . S
C4445 C4444 1.391 . S
C4446 H4436 0.950 . S
C4446 C4447 1.386 . S
C4446 C4448 1.391 . S
C4447 C4446 1.386 . S
C4447 C4451 1.393 . S
C4448 H4437 0.950 . S
C4448 C4446 1.391 . S
C4448 C4449 1.400 . S
C4449 C4443 1.491 . S
C4449 C4448 1.400 . S
C4449 C4450 1.398 . S
C4450 H4438 0.950 . S
C4450 C4449 1.398 . S
C4450 C4451 1.391 . S
C4451 H4439 0.950 . S
C4451 C4447 1.393 . S
C4451 C4450 1.391 . S
H4452 C4460 0.950 . S
H4453 C4465 0.950 . S
H4454 C4462 0.950 . S
H4455 C4464 0.950 . S
H4456 C4466 0.950 . S
H4457 C4468 0.950 . S
H4458 C4470 0.950 . S
H4459 C4471 0.950 . S
C4460 H4452 0.950 . S
C4460 C4461 1.386 . S
C4460 C4462 1.391 . S
C4461 C4460 1.386 . S
C4461 C4465 1.393 . S
C4462 H4454 0.950 . S
C4462 C4460 1.391 . S
C4462 C4463 1.400 . S
C4463 C4462 1.400 . S
C4463 C4464 1.398 . S
C4463 C4469 1.491 . S
C4464 H4455 0.950 . S
C4464 C4463 1.398 . S
C4464 C4465 1.391 . S
C4465 H4453 0.950 . S
C4465 C4461 1.393 . S
C4465 C4464 1.391 . S
C4466 H4456 0.950 . S
C4466 C4467 1.386 . S
C4466 C4468 1.391 . S
C4467 C4466 1.386 . S
C4467 C4471 1.393 . S
C4468 H4457 0.950 . S
C4468 C4466 1.391 . S
C4468 C4469 1.400 . S
C4469 C4463 1.491 . S
C4469 C4468 1.400 . S
C4469 C4470 1.398 . S
C4470 H4458 0.950 . S
C4470 C4469 1.398 . S
C4470 C4471 1.391 . S
C4471 H4459 0.950 . S
C4471 C4467 1.393 . S
C4471 C4470 1.391 . S
H4472 C4480 0.950 . S
H4473 C4485 0.950 . S
H4474 C4482 0.950 . S
H4475 C4484 0.950 . S
H4476 C4486 0.950 1_455 S
H4477 C4488 0.950 . S
H4478 C4490 0.950 . S
H4479 C4491 0.950 . S
C4480 H4472 0.950 . S
C4480 C4481 1.386 . S
C4480 C4482 1.391 . S
C4481 C4480 1.386 . S
C4481 C4485 1.393 . S
C4482 H4474 0.950 . S
C4482 C4480 1.391 . S
C4482 C4483 1.400 . S
C4483 C4482 1.400 . S
C4483 C4484 1.398 . S
C4483 C4489 1.491 . S
C4484 H4475 0.950 . S
C4484 C4483 1.398 . S
C4484 C4485 1.391 . S
C4485 H4473 0.950 . S
C4485 C4481 1.393 . S
C4485 C4484 1.391 . S
C4486 H4476 0.950 1_655 S
C4486 C4487 1.386 . S
C4486 C4488 1.391 . S
C4487 C4486 1.386 . S
C4487 C4491 1.393 . S
C4488 H4477 0.950 . S
C4488 C4486 1.391 . S
C4488 C4489 1.400 . S
C4489 C4483 1.491 . S
C4489 C4488 1.400 . S
C4489 C4490 1.398 . S
C4490 H4478 0.950 . S
C4490 C4489 1.398 . S
C4490 C4491 1.391 . S
C4491 H4479 0.950 . S
C4491 C4487 1.393 . S
C4491 C4490 1.391 . S
H4492 C4500 0.950 . S
H4493 C4505 0.950 . S
H4494 C4502 0.950 . S
H4495 C4504 0.950 . S
H4496 C4506 0.950 . S
H4497 C4508 0.950 . S
H4498 C4510 0.950 . S
H4499 C4511 0.950 . S
C4500 H4492 0.950 . S
C4500 C4501 1.386 . S
C4500 C4502 1.391 . S
C4501 C4500 1.386 . S
C4501 C4505 1.393 . S
C4502 H4494 0.950 . S
C4502 C4500 1.391 . S
C4502 C4503 1.400 . S
C4503 C4502 1.400 . S
C4503 C4504 1.398 . S
C4503 C4509 1.491 . S
C4504 H4495 0.950 . S
C4504 C4503 1.398 . S
C4504 C4505 1.391 . S
C4505 H4493 0.950 . S
C4505 C4501 1.393 . S
C4505 C4504 1.391 . S
C4506 H4496 0.950 . S
C4506 C4507 1.386 . S
C4506 C4508 1.391 . S
C4507 C4506 1.386 . S
C4507 C4511 1.393 . S
C4508 H4497 0.950 . S
C4508 C4506 1.391 . S
C4508 C4509 1.400 . S
C4509 C4503 1.491 . S
C4509 C4508 1.400 . S
C4509 C4510 1.398 . S
C4510 H4498 0.950 . S
C4510 C4509 1.398 . S
C4510 C4511 1.391 . S
C4511 H4499 0.950 . S
C4511 C4507 1.393 . S
C4511 C4510 1.391 . S
H4512 C4520 0.950 . S
H4513 C4525 0.950 . S
H4514 C4522 0.950 . S
H4515 C4524 0.950 . S
H4516 C4526 0.950 . S
H4517 C4528 0.950 . S
H4518 C4530 0.950 . S
H4519 C4531 0.950 . S
C4520 H4512 0.950 . S
C4520 C4521 1.386 . S
C4520 C4522 1.391 . S
C4521 C4520 1.386 . S
C4521 C4525 1.393 . S
C4522 H4514 0.950 . S
C4522 C4520 1.391 . S
C4522 C4523 1.400 . S
C4523 C4522 1.400 . S
C4523 C4524 1.398 . S
C4523 C4529 1.491 . S
C4524 H4515 0.950 . S
C4524 C4523 1.398 . S
C4524 C4525 1.391 . S
C4525 H4513 0.950 . S
C4525 C4521 1.393 . S
C4525 C4524 1.391 . S
C4526 H4516 0.950 . S
C4526 C4527 1.386 . S
C4526 C4528 1.391 . S
C4527 C4526 1.386 . S
C4527 C4531 1.393 . S
C4528 H4517 0.950 . S
C4528 C4526 1.391 . S
C4528 C4529 1.400 . S
C4529 C4523 1.491 . S
C4529 C4528 1.400 . S
C4529 C4530 1.398 . S
C4530 H4518 0.950 . S
C4530 C4529 1.398 . S
C4530 C4531 1.391 . S
C4531 H4519 0.950 . S
C4531 C4527 1.393 . S
C4531 C4530 1.391 . S
H4532 C4540 0.950 . S
H4533 C4545 0.950 . S
H4534 C4542 0.950 . S
H4535 C4544 0.950 . S
H4536 C4546 0.950 . S
H4537 C4548 0.950 . S
H4538 C4550 0.950 1_545 S
H4539 C4551 0.950 . S
C4540 H4532 0.950 . S
C4540 C4541 1.386 . S
C4540 C4542 1.391 . S
C4541 C4540 1.386 . S
C4541 C4545 1.393 . S
C4542 H4534 0.950 . S
C4542 C4540 1.391 . S
C4542 C4543 1.400 . S
C4543 C4542 1.400 . S
C4543 C4544 1.398 . S
C4543 C4549 1.491 . S
C4544 H4535 0.950 . S
C4544 C4543 1.398 . S
C4544 C4545 1.391 . S
C4545 H4533 0.950 . S
C4545 C4541 1.393 . S
C4545 C4544 1.391 . S
C4546 H4536 0.950 . S
C4546 C4547 1.386 1_565 S
C4546 C4548 1.391 . S
C4547 C4546 1.386 1_545 S
C4547 C4551 1.393 . S
C4548 H4537 0.950 . S
C4548 C4546 1.391 . S
C4548 C4549 1.400 . S
C4549 C4543 1.491 . S
C4549 C4548 1.400 . S
C4549 C4550 1.398 . S
C4550 H4538 0.950 1_565 S
C4550 C4549 1.398 . S
C4550 C4551 1.391 1_565 S
C4551 H4539 0.950 . S
C4551 C4547 1.393 . S
C4551 C4550 1.391 1_545 S
H4552 C4560 0.950 . S
H4553 C4565 0.950 . S
H4554 C4562 0.950 . S
H4555 C4564 0.950 . S
H4556 C4566 0.950 . S
H4557 C4568 0.950 . S
H4558 C4570 0.950 . S
H4559 C4571 0.950 . S
C4560 H4552 0.950 . S
C4560 C4561 1.386 . S
C4560 C4562 1.391 . S
C4561 C4560 1.386 . S
C4561 C4565 1.393 . S
C4562 H4554 0.950 . S
C4562 C4560 1.391 . S
C4562 C4563 1.400 . S
C4563 C4562 1.400 . S
C4563 C4564 1.398 . S
C4563 C4569 1.491 . S
C4564 H4555 0.950 . S
C4564 C4563 1.398 . S
C4564 C4565 1.391 . S
C4565 H4553 0.950 . S
C4565 C4561 1.393 . S
C4565 C4564 1.391 . S
C4566 H4556 0.950 . S
C4566 C4567 1.386 . S
C4566 C4568 1.391 . S
C4567 C4566 1.386 . S
C4567 C4571 1.393 . S
C4568 H4557 0.950 . S
C4568 C4566 1.391 . S
C4568 C4569 1.400 . S
C4569 C4563 1.491 . S
C4569 C4568 1.400 . S
C4569 C4570 1.398 . S
C4570 H4558 0.950 . S
C4570 C4569 1.398 . S
C4570 C4571 1.391 . S
C4571 H4559 0.950 . S
C4571 C4567 1.393 . S
C4571 C4570 1.391 . S
H4572 C4580 0.950 . S
H4573 C4585 0.950 . S
H4574 C4582 0.950 . S
H4575 C4584 0.950 . S
H4576 C4586 0.950 . S
H4577 C4588 0.950 . S
H4578 C4590 0.950 . S
H4579 C4591 0.950 . S
C4580 H4572 0.950 . S
C4580 C4581 1.386 . S
C4580 C4582 1.391 . S
C4581 C4580 1.386 . S
C4581 C4585 1.393 1_556 S
C4582 H4574 0.950 . S
C4582 C4580 1.391 . S
C4582 C4583 1.400 1_556 S
C4583 C4582 1.400 1_554 S
C4583 C4584 1.398 . S
C4583 C4589 1.491 . S
C4584 H4575 0.950 . S
C4584 C4583 1.398 . S
C4584 C4585 1.391 . S
C4585 H4573 0.950 . S
C4585 C4581 1.393 1_554 S
C4585 C4584 1.391 . S
C4586 H4576 0.950 . S
C4586 C4587 1.386 . S
C4586 C4588 1.391 . S
C4587 C4586 1.386 . S
C4587 C4591 1.393 1_554 S
C4588 H4577 0.950 . S
C4588 C4586 1.391 . S
C4588 C4589 1.400 . S
C4589 C4583 1.491 . S
C4589 C4588 1.400 . S
C4589 C4590 1.398 1_554 S
C4590 H4578 0.950 . S
C4590 C4589 1.398 1_556 S
C4590 C4591 1.391 . S
C4591 H4579 0.950 . S
C4591 C4587 1.393 1_556 S
C4591 C4590 1.391 . S
H4592 C4600 0.950 . S
H4593 C4605 0.950 . S
H4594 C4602 0.950 . S
H4595 C4604 0.950 . S
H4596 C4606 0.950 . S
H4597 C4608 0.950 . S
H4598 C4610 0.950 . S
H4599 C4611 0.950 . S
C4600 H4592 0.950 . S
C4600 C4601 1.386 . S
C4600 C4602 1.391 . S
C4601 C4600 1.386 . S
C4601 C4605 1.393 . S
C4602 H4594 0.950 . S
C4602 C4600 1.391 . S
C4602 C4603 1.400 . S
C4603 C4602 1.400 . S
C4603 C4604 1.398 . S
C4603 C4609 1.491 . S
C4604 H4595 0.950 . S
C4604 C4603 1.398 . S
C4604 C4605 1.391 . S
C4605 H4593 0.950 . S
C4605 C4601 1.393 . S
C4605 C4604 1.391 . S
C4606 H4596 0.950 . S
C4606 C4607 1.386 . S
C4606 C4608 1.391 . S
C4607 C4606 1.386 . S
C4607 C4611 1.393 . S
C4608 H4597 0.950 . S
C4608 C4606 1.391 . S
C4608 C4609 1.400 . S
C4609 C4603 1.491 . S
C4609 C4608 1.400 . S
C4609 C4610 1.398 . S
C4610 H4598 0.950 . S
C4610 C4609 1.398 . S
C4610 C4611 1.391 . S
C4611 H4599 0.950 . S
C4611 C4607 1.393 . S
C4611 C4610 1.391 . S
H4612 C4620 0.950 . S
H4613 C4625 0.950 . S
H4614 C4622 0.950 . S
H4615 C4624 0.950 1_556 S
H4616 C4626 0.950 . S
H4617 C4628 0.950 . S
H4618 C4630 0.922 1_554 S
H4619 C4631 0.950 . S
C4620 H4612 0.950 . S
C4620 C4621 1.386 . S
C4620 C4622 1.391 . S
C4621 C4620 1.386 . S
C4621 C4625 1.393 . S
C4622 H4614 0.950 . S
C4622 C4620 1.391 . S
C4622 C4623 1.400 . S
C4623 C4622 1.400 . S
C4623 C4624 1.398 . S
C4623 C4629 1.491 1_554 S
C4624 H4615 0.950 1_554 S
C4624 C4623 1.398 . S
C4624 C4625 1.391 . S
C4625 H4613 0.950 . S
C4625 C4621 1.393 . S
C4625 C4624 1.391 . S
C4626 H4616 0.950 . S
C4626 C4627 1.386 . S
C4626 C4628 1.391 . S
C4627 C4626 1.386 . S
C4627 C4631 1.393 . S
C4628 H4617 0.950 . S
C4628 C4626 1.391 . S
C4628 C4629 1.400 . S
C4629 C4623 1.491 1_556 S
C4629 C4628 1.400 . S
C4629 C4630 1.413 . S
C4630 H4618 0.922 1_556 S
C4630 C4629 1.413 . S
C4630 C4631 1.406 . S
C4631 H4619 0.950 . S
C4631 C4627 1.393 . S
C4631 C4630 1.406 . S
H4632 C4640 0.950 . S
H4633 C4645 0.950 . S
H4634 C4642 0.950 . S
H4635 C4644 0.950 . S
H4636 C4646 0.950 . S
H4637 C4648 0.950 . S
H4638 C4650 0.950 . S
H4639 C4651 0.950 . S
C4640 H4632 0.950 . S
C4640 C4641 1.386 . S
C4640 C4642 1.391 . S
C4641 C4640 1.386 . S
C4641 C4645 1.393 . S
C4642 H4634 0.950 . S
C4642 C4640 1.391 . S
C4642 C4643 1.400 . S
C4643 C4642 1.400 . S
C4643 C4644 1.398 . S
C4643 C4649 1.491 . S
C4644 H4635 0.950 . S
C4644 C4643 1.398 . S
C4644 C4645 1.391 . S
C4645 H4633 0.950 . S
C4645 C4641 1.393 . S
C4645 C4644 1.391 . S
C4646 H4636 0.950 . S
C4646 C4647 1.386 . S
C4646 C4648 1.391 . S
C4647 C4646 1.386 . S
C4647 C4651 1.393 . S
C4648 H4637 0.950 . S
C4648 C4646 1.391 . S
C4648 C4649 1.400 . S
C4649 C4643 1.491 . S
C4649 C4648 1.400 . S
C4649 C4650 1.398 . S
C4650 H4638 0.950 . S
C4650 C4649 1.398 . S
C4650 C4651 1.391 . S
C4651 H4639 0.950 . S
C4651 C4647 1.393 . S
C4651 C4650 1.391 . S
H4652 C4660 0.950 . S
H4653 C4665 0.950 . S
H4654 C4662 0.950 . S
H4655 C4664 0.950 . S
H4656 C4666 0.950 . S
H4657 C4668 0.950 . S
H4658 C4670 0.950 . S
H4659 C4671 0.950 . S
C4660 H4652 0.950 . S
C4660 C4661 1.386 . S
C4660 C4662 1.391 . S
C4661 C4660 1.386 . S
C4661 C4665 1.393 . S
C4662 H4654 0.950 . S
C4662 C4660 1.391 . S
C4662 C4663 1.400 . S
C4663 C4662 1.400 . S
C4663 C4664 1.398 . S
C4663 C4669 1.491 . S
C4664 H4655 0.950 . S
C4664 C4663 1.398 . S
C4664 C4665 1.391 . S
C4665 H4653 0.950 . S
C4665 C4661 1.393 . S
C4665 C4664 1.391 . S
C4666 H4656 0.950 . S
C4666 C4667 1.386 . S
C4666 C4668 1.391 . S
C4667 C4666 1.386 . S
C4667 C4671 1.393 . S
C4668 H4657 0.950 . S
C4668 C4666 1.391 . S
C4668 C4669 1.400 . S
C4669 C4663 1.491 . S
C4669 C4668 1.400 . S
C4669 C4670 1.398 . S
C4670 H4658 0.950 . S
C4670 C4669 1.398 . S
C4670 C4671 1.391 . S
C4671 H4659 0.950 . S
C4671 C4667 1.393 . S
C4671 C4670 1.391 . S
C2761 C665 2.158 . S
C2767 C2114 2.194 1_556 S
C2781 C381 2.062 . S
C2787 C2171 2.066 . S
C2801 C460 1.124 . S
C2807 C2194 1.170 . S
C2827 C2248 1.391 . S
C2821 C585 1.415 . S
C2841 C108 1.278 . S
C2847 C2288 1.245 . S
C2867 C2319 0.300 . S
C2861 C196 0.346 . S
C2887 C2371 1.239 . S
C2881 C313 1.223 . S
C2901 C49 1.676 . S
C2907 C2394 1.649 . S
C2927 C2131 2.380 . S
C2921 C1457 2.403 . S
C2941 C1545 0.272 . S
C2947 C2168 0.431 . S
C2967 C2211 1.326 . S
C2961 C1721 1.339 . S
C2987 C2234 1.416 . S
C2981 C1113 1.363 . S
C3001 C1428 1.882 . S
C3007 C2274 1.918 . S
C3027 C2322 1.412 . S
C3021 C1516 1.448 . S
C3047 C2368 0.405 . S
C3041 C1692 0.271 . S
C3067 C2411 1.974 . S
C3061 C1085 1.998 . S
C3087 C2128 1.422 1_565 S
C3081 C988 1.468 . S
C3101 C1817 1.967 . S
C3107 C2451 1.960 . S
C3127 C2483 2.520 . S
C3121 C2081 2.562 . S
C3147 C2514 0.533 1_655 S
C3141 C1993 0.589 . S
C3161 C761 1.324 . S
C3167 C2408 1.294 . S
C3181 C821 1.493 . S
C3187 C2208 1.457 . S
C3201 C2053 2.310 . S
C3207 C2571 2.278 . S
C3227 C2594 0.346 . S
C3221 C1868 0.339 . S
C3247 C2123 2.190 . S
C3241 C372 2.164 . S
C3267 C2602 2.059 . S
C3261 C645 2.048 . S
C3281 C577 1.126 . S
C3287 C2203 1.158 . S
C3301 C497 1.410 . S
C3307 C2559 1.385 . S
C3327 C2279 1.235 . S
C3321 C57 1.281 . S
C3341 C293 0.341 . S
C3347 C2488 0.313 . S
C3367 C2362 1.254 1_556 S
C3361 C205 1.236 . S
C3387 C2643 1.646 . S
C3381 C145 1.682 . S
C3407 C2122 2.386 . S
C3401 C909 2.403 1_545 S
C3427 C2599 0.438 . S
C3421 C1956 0.264 . S
C3441 C724 1.330 . S
C3447 C2202 1.321 . S
C3461 C1780 1.351 . S
C3467 C2563 1.413 . S
C3481 C937 1.882 . S
C3487 C2283 1.908 . S
C3507 C2491 1.425 . S
C3501 C1985 1.445 . S
C3521 C753 0.255 . S
C3527 C2359 0.422 . S
C3541 C1809 1.984 . S
C3547 C2642 1.953 . S
C3561 C1173 1.473 . S
C3567 C2119 1.448 . S
C3581 C1105 1.961 . S
C3587 C2442 1.954 . S
C3601 C1633 2.558 . S
C3607 C2314 2.515 . S
C3621 C1553 0.570 . S
C3627 C2523 0.523 . S
C3647 C2639 1.266 . S
C3641 C1729 1.308 . S
C3661 C1340 1.503 . S
C3667 C2199 1.469 . S
C3687 C2242 2.287 . S
C3681 C1604 2.312 . S
C3707 C2163 0.353 . S
C3701 C1252 0.323 . S
C3721 C489 2.171 . S
C3727 C2674 2.187 . S
C3747 C2611 2.066 . S
C3741 C557 2.058 . S
C3761 C636 1.121 . S
C3767 C2714 1.169 . S
C3781 C409 1.418 . S
C3787 C2568 1.397 . S
C3801 C284 1.277 . S
C3807 C2448 1.242 . S
C3827 C2479 0.293 . S
C3821 C20 0.430 . S
C3847 C2531 1.251 . S
C3841 C137 1.238 . S
C3867 C2634 1.656 . S
C3861 C225 1.676 . S
C3887 C2691 2.381 . S
C3881 C1641 2.406 . S
C3901 C1193 0.290 . S
C3907 C2608 0.455 . S
C3927 C2731 1.323 . S
C3921 C1289 1.334 . S
C3947 C2554 1.417 . S
C3941 C1377 1.357 . S
C3967 C2434 1.914 . S
C3961 C1613 1.877 . S
C3981 C1164 1.446 . S
C3987 C2482 1.429 . S
C4007 C2528 0.412 . S
C4001 C1261 0.241 . S
C4021 C1349 1.989 . S
C4027 C2651 1.961 . S
C4047 C2688 1.459 . S
C4041 C1965 1.479 . S
C4061 C849 1.967 . S
C4067 C2291 1.957 . S
C4087 C2323 2.517 . S
C4081 C929 2.570 . S
C4107 C2354 0.539 . S
C4101 C1017 0.546 . S
C4127 C2648 1.263 . S
C4121 C1897 1.306 . S
C4141 C1789 1.507 . S
C4147 C2728 1.480 . S
C4167 C2251 2.285 . S
C4161 C900 2.309 . S
C4187 C2154 0.336 . S
C4181 C733 0.349 . S
C4201 C548 2.167 . S
C4207 C2683 2.183 . S
C4227 C2162 2.063 . S
C4221 C469 2.051 . S
C4241 C401 1.117 . S
C4247 C2723 1.164 . S
C4261 C673 1.418 . S
C4267 C2239 1.403 . S
C4281 C233 1.277 . S
C4287 C2439 1.228 . S
C4307 C2328 0.308 . S
C4301 C117 0.358 . S
C4321 C29 1.219 . S
C4327 C2522 1.238 . S
C4341 C321 1.662 . S
C4347 C2403 1.655 . S
C4367 C2682 2.386 . S
C4361 C2044 2.403 . S
C4381 C997 0.288 . S
C4387 C2159 0.440 . S
C4407 C2722 1.316 . S
C4401 C1877 1.334 . S
C4421 C812 1.350 . S
C4427 C2243 1.413 . S
C4441 C2073 1.882 . S
C4447 C2443 1.915 . S
C4467 C2331 1.415 . S
C4461 C1025 1.445 . S
C4481 C1905 0.258 . S
C4487 C2519 0.418 . S
C4507 C2402 1.954 . S
C4501 C841 1.984 . S
C4527 C2679 1.437 . S
C4521 C1525 1.468 . S
C4547 C2282 1.955 1_655 S
C4541 C1369 1.967 . S
C4561 C1465 2.559 . S
C4567 C2474 2.513 . S
C4587 C2363 0.527 . S
C4581 C1201 0.571 . S
C4601 C1281 1.307 . S
C4607 C2399 1.263 . S
C4621 C1076 1.508 . S
C4627 C2719 1.478 . S
C4647 C2562 2.286 . S
C4641 C1437 2.310 . S
C4667 C2603 0.389 . S
C4661 C1701 0.310 . S
