# Generated by pormake.
# Topology cml, (3,6)-cn, num edge types: 1
# Building blocks:
#     Node 0, Type 0, BuildingBlock: OLANEW_clean_sbu_2, # of connection points: 3
#     Node 1, Type 0, BuildingBlock: OLANEW_clean_sbu_2, # of connection points: 3
#     Node 2, Type 0, BuildingBlock: OLANEW_clean_sbu_2, # of connection points: 3
#     Node 3, Type 0, BuildingBlock: OLANEW_clean_sbu_2, # of connection points: 3
#     Node 4, Type 0, BuildingBlock: OLANEW_clean_sbu_2, # of connection points: 3
#     Node 5, Type 0, BuildingBlock: OLANEW_clean_sbu_2, # of connection points: 3
#     Node 6, Type 0, BuildingBlock: OLANEW_clean_sbu_2, # of connection points: 3
#     Node 7, Type 0, BuildingBlock: OLANEW_clean_sbu_2, # of connection points: 3
#     Node 8, Type 1, BuildingBlock: OJICUG_clean_sbu_0, # of connection points: 6
#     Node 9, Type 1, BuildingBlock: OJICUG_clean_sbu_0, # of connection points: 6
#     Node 10, Type 1, BuildingBlock: OJICUG_clean_sbu_0, # of connection points: 6
#     Node 11, Type 1, BuildingBlock: OJICUG_clean_sbu_0, # of connection points: 6
#     Edge 12, Type (0, 1), BuildingBlock: MIFKUJ_clean_linker_0, # of connection points: 2
#     Edge 13, Type (0, 1), BuildingBlock: MIFKUJ_clean_linker_0, # of connection points: 2
#     Edge 14, Type (0, 1), BuildingBlock: MIFKUJ_clean_linker_0, # of connection points: 2
#     Edge 15, Type (0, 1), BuildingBlock: MIFKUJ_clean_linker_0, # of connection points: 2
#     Edge 16, Type (0, 1), BuildingBlock: MIFKUJ_clean_linker_0, # of connection points: 2
#     Edge 17, Type (0, 1), BuildingBlock: MIFKUJ_clean_linker_0, # of connection points: 2
#     Edge 18, Type (0, 1), BuildingBlock: MIFKUJ_clean_linker_0, # of connection points: 2
#     Edge 19, Type (0, 1), BuildingBlock: MIFKUJ_clean_linker_0, # of connection points: 2
#     Edge 20, Type (0, 1), BuildingBlock: MIFKUJ_clean_linker_0, # of connection points: 2
#     Edge 21, Type (0, 1), BuildingBlock: MIFKUJ_clean_linker_0, # of connection points: 2
#     Edge 22, Type (0, 1), BuildingBlock: MIFKUJ_clean_linker_0, # of connection points: 2
#     Edge 23, Type (0, 1), BuildingBlock: MIFKUJ_clean_linker_0, # of connection points: 2
#     Edge 24, Type (0, 1), BuildingBlock: MIFKUJ_clean_linker_0, # of connection points: 2
#     Edge 25, Type (0, 1), BuildingBlock: MIFKUJ_clean_linker_0, # of connection points: 2
#     Edge 26, Type (0, 1), BuildingBlock: MIFKUJ_clean_linker_0, # of connection points: 2
#     Edge 27, Type (0, 1), BuildingBlock: MIFKUJ_clean_linker_0, # of connection points: 2
#     Edge 28, Type (0, 1), BuildingBlock: MIFKUJ_clean_linker_0, # of connection points: 2
#     Edge 29, Type (0, 1), BuildingBlock: MIFKUJ_clean_linker_0, # of connection points: 2
#     Edge 30, Type (0, 1), BuildingBlock: MIFKUJ_clean_linker_0, # of connection points: 2
#     Edge 31, Type (0, 1), BuildingBlock: MIFKUJ_clean_linker_0, # of connection points: 2
#     Edge 32, Type (0, 1), BuildingBlock: MIFKUJ_clean_linker_0, # of connection points: 2
#     Edge 33, Type (0, 1), BuildingBlock: MIFKUJ_clean_linker_0, # of connection points: 2
#     Edge 34, Type (0, 1), BuildingBlock: MIFKUJ_clean_linker_0, # of connection points: 2
#     Edge 35, Type (0, 1), BuildingBlock: MIFKUJ_clean_linker_0, # of connection points: 2
# Relax obj value: 0.020
# Max RMSD: 0.073
# Mean RMSD: 0.062
data_MOF--net-cml--node1-OLANEW_clean_sbu_2--node2-OJICUG_clean_sbu_0--edge1-MIFKUJ_clean_linker_0
_symmetry_space_group_name_H-M    P1
_symmetry_Int_Tables_number       1
_symmetry_cell_setting            triclinic
loop_
_symmetry_equiv_pos_as_xyz
'x, y, z'
_cell_length_a     54.409499
_cell_length_b     52.60897
_cell_length_c     48.686528
_cell_angle_alpha  88.503188
_cell_angle_beta   88.042512
_cell_angle_gamma 88.711469
loop_
_atom_site_label
_atom_site_type_symbol
_atom_site_fract_x
_atom_site_fract_y
_atom_site_fract_z
_atom_type_partial_charge
O0 O 0.25469 0.46035 0.93849 0.0
Cd1 Cd 0.21464 0.4431 0.95286 0.0
O2 O 0.27202 0.43572 0.96946 0.0
Cd3 Cd 0.30089 0.423 0.99697 0.0
O4 O 0.32433 0.41154 0.03068 0.0
C5 C 0.32672 0.42714 0.04983 0.0
O6 O 0.31546 0.44946 0.04814 0.0
C7 C 0.27384 0.45327 0.95109 0.0
C8 C 0.20054 0.39729 0.931 0.0
O9 O 0.19635 0.41861 0.91848 0.0
O10 O 0.21231 0.39752 0.95337 0.0
O11 O 0.73659 0.62842 0.5517 0.0
Cd12 Cd 0.74919 0.61655 0.50496 0.0
O13 O 0.75386 0.59479 0.5715 0.0
Cd14 Cd 0.76153 0.57703 0.53217 0.0
O15 O 0.74257 0.55411 0.50323 0.0
C16 C 0.71999 0.56018 0.50078 0.0
O17 O 0.71092 0.57979 0.51424 0.0
C18 C 0.74189 0.61575 0.5734 0.0
C19 C 0.78618 0.64696 0.482 0.0
O20 O 0.76345 0.65347 0.48009 0.0
O21 O 0.79141 0.6261 0.49494 0.0
O22 O 0.74256 0.40053 0.98337 0.0
Cd23 Cd 0.75684 0.36409 0.01122 0.0
O24 O 0.76184 0.42892 0.00652 0.0
Cd25 Cd 0.77143 0.40089 0.03829 0.0
O26 O 0.75406 0.3849 0.07564 0.0
C27 C 0.73153 0.37972 0.07336 0.0
O28 O 0.7217 0.38274 0.04918 0.0
C29 C 0.74834 0.42352 0.98676 0.0
C30 C 0.79201 0.33413 0.98363 0.0
O31 O 0.769 0.33003 0.98172 0.0
O32 O 0.79833 0.35249 0.99849 0.0
O33 O 0.29106 0.5969 0.50205 0.0
Cd34 Cd 0.26797 0.62702 0.53095 0.0
O35 O 0.28191 0.56484 0.53017 0.0
Cd36 Cd 0.26978 0.58943 0.56359 0.0
O37 O 0.28514 0.60557 0.59992 0.0
C38 C 0.30503 0.61748 0.59561 0.0
O39 O 0.31326 0.62092 0.57012 0.0
C40 C 0.29161 0.57313 0.50764 0.0
C41 C 0.23406 0.65601 0.50116 0.0
O42 O 0.25525 0.6647 0.50602 0.0
O43 O 0.22893 0.63364 0.51034 0.0
O44 O 0.79138 0.92226 0.97562 0.0
Cd45 Cd 0.76466 0.89368 0.0033 0.0
O46 O 0.81934 0.89304 0.96486 0.0
Cd47 Cd 0.80453 0.86608 0.99552 0.0
O48 O 0.81316 0.8552 0.0377 0.0
C49 C 0.81697 0.87391 0.05288 0.0
O50 O 0.81341 0.89705 0.04274 0.0
C51 C 0.81118 0.91581 0.96272 0.0
C52 C 0.73559 0.86104 0.97426 0.0
O53 O 0.72877 0.88417 0.97824 0.0
O54 O 0.75639 0.85349 0.98339 0.0
O55 O 0.21466 0.12825 0.50858 0.0
Cd56 Cd 0.23565 0.11523 0.46581 0.0
O57 O 0.2441 0.11337 0.53484 0.0
Cd58 Cd 0.25913 0.09121 0.50073 0.0
O59 O 0.24463 0.0618 0.47534 0.0
C60 C 0.22518 0.05228 0.48607 0.0
O61 O 0.21722 0.06027 0.5102 0.0
C62 C 0.22383 0.12559 0.53222 0.0
C63 C 0.27144 0.14982 0.44857 0.0
O64 O 0.24994 0.15098 0.4386 0.0
O65 O 0.27602 0.1323 0.46657 0.0
O66 O 0.22364 0.89121 0.96094 0.0
Cd67 Cd 0.23338 0.85354 0.98946 0.0
O68 O 0.24632 0.91775 0.9827 0.0
Cd69 Cd 0.25521 0.88926 0.01434 0.0
O70 O 0.24401 0.87501 0.05519 0.0
C71 C 0.23493 0.89212 0.07071 0.0
O72 O 0.23459 0.91582 0.06145 0.0
C73 C 0.23182 0.91345 0.96351 0.0
C74 C 0.2748 0.82619 0.9706 0.0
O75 O 0.25373 0.82305 0.96035 0.0
O76 O 0.27634 0.84244 0.9896 0.0
O77 O 0.79254 0.09259 0.46626 0.0
Cd78 Cd 0.77674 0.12786 0.49394 0.0
O79 O 0.78207 0.06354 0.49753 0.0
Cd80 Cd 0.77337 0.09126 0.52912 0.0
O81 O 0.78905 0.10769 0.56511 0.0
C82 C 0.80895 0.11963 0.56102 0.0
O83 O 0.81745 0.12308 0.53564 0.0
C84 C 0.79107 0.06932 0.4738 0.0
C85 C 0.73802 0.15468 0.46959 0.0
O86 O 0.76043 0.16067 0.4643 0.0
O87 O 0.73394 0.13587 0.48627 0.0
Sc88 Sc 0.01414 0.82011 0.31658 0.0
Sc89 Sc 0.01311 0.88726 0.31503 0.0
Sc90 Sc 0.01 0.85381 0.37837 0.0
O91 O 0.01236 0.85368 0.33664 0.0
C92 C 0.97506 0.8078 0.36496 0.0
C93 C 0.9787 0.85451 0.27869 0.0
C94 C 0.97301 0.89918 0.36294 0.0
C95 C 0.05244 0.85336 0.28111 0.0
C96 C 0.04854 0.80844 0.36769 0.0
C97 C 0.04725 0.89892 0.36462 0.0
O98 O 0.98396 0.80446 0.3408 0.0
O99 O 0.9856 0.87556 0.2877 0.0
O100 O 0.97997 0.88105 0.3788 0.0
O101 O 0.04479 0.83202 0.29035 0.0
O102 O 0.03982 0.82662 0.38197 0.0
O103 O 0.04121 0.90212 0.33978 0.0
O104 O 0.04057 0.80317 0.34427 0.0
O105 O 0.04226 0.87441 0.28764 0.0
O106 O 0.03676 0.88318 0.38117 0.0
O107 O 0.98775 0.83313 0.28666 0.0
O108 O 0.98305 0.82438 0.38078 0.0
O109 O 0.98381 0.90424 0.33992 0.0
Sc110 Sc 0.0206 0.17317 0.80386 0.0
Sc111 Sc 0.02482 0.10623 0.80514 0.0
Sc112 Sc 0.0258 0.13964 0.8671 0.0
O113 O 0.02378 0.13967 0.82538 0.0
C114 C 0.0583 0.1876 0.84979 0.0
C115 C 0.058 0.14178 0.76528 0.0
C116 C 0.06481 0.09566 0.85077 0.0
C117 C 0.9846 0.13797 0.77171 0.0
C118 C 0.98499 0.18309 0.85601 0.0
C119 C 0.99128 0.09226 0.8583 0.0
O120 O 0.04799 0.1912 0.82695 0.0
O121 O 0.05051 0.1202 0.77395 0.0
O122 O 0.056 0.11227 0.86713 0.0
O123 O 0.99262 0.15945 0.77813 0.0
O124 O 0.99592 0.16699 0.87157 0.0
O125 O 0.99928 0.08842 0.8339 0.0
O126 O 0.99154 0.18708 0.83097 0.0
O127 O 0.99402 0.11704 0.78032 0.0
O128 O 0.99881 0.11015 0.87275 0.0
O129 O 0.04942 0.16267 0.77456 0.0
O130 O 0.05272 0.16938 0.86638 0.0
O131 O 0.05562 0.09149 0.82769 0.0
Sc132 Sc 0.50657 0.33265 0.31961 0.0
Sc133 Sc 0.50863 0.39922 0.32556 0.0
Sc134 Sc 0.50387 0.35995 0.38515 0.0
O135 O 0.50631 0.36393 0.34343 0.0
C136 C 0.46645 0.31819 0.36625 0.0
C137 C 0.47396 0.372 0.28432 0.0
C138 C 0.46879 0.40843 0.37429 0.0
C139 C 0.54717 0.36678 0.28886 0.0
C140 C 0.54005 0.31378 0.36948 0.0
C141 C 0.54242 0.40478 0.37717 0.0
O142 O 0.47538 0.31678 0.34184 0.0
O143 O 0.48194 0.39155 0.29558 0.0
O144 O 0.47563 0.38914 0.38862 0.0
O145 O 0.53766 0.34542 0.29494 0.0
O146 O 0.53178 0.33047 0.38599 0.0
O147 O 0.53571 0.41115 0.3532 0.0
O148 O 0.53232 0.31193 0.34525 0.0
O149 O 0.53854 0.38768 0.29809 0.0
O150 O 0.53252 0.38685 0.39131 0.0
O151 O 0.48122 0.34953 0.29072 0.0
O152 O 0.47518 0.33236 0.38414 0.0
O153 O 0.47906 0.41457 0.35127 0.0
Sc154 Sc 0.52544 0.67098 0.82789 0.0
Sc155 Sc 0.5295 0.60405 0.8313 0.0
Sc156 Sc 0.52842 0.63876 0.8923 0.0
O157 O 0.52783 0.63795 0.85052 0.0
C158 C 0.56183 0.68599 0.87499 0.0
C159 C 0.56466 0.63859 0.79253 0.0
C160 C 0.56762 0.5942 0.87892 0.0
C161 C 0.49051 0.635 0.79534 0.0
C162 C 0.48808 0.68196 0.87812 0.0
C163 C 0.49353 0.59176 0.883 0.0
O164 O 0.55199 0.68975 0.85187 0.0
O165 O 0.55686 0.61724 0.80161 0.0
O166 O 0.55835 0.61119 0.89451 0.0
O167 O 0.49833 0.65669 0.80131 0.0
O168 O 0.49871 0.66666 0.89482 0.0
O169 O 0.50243 0.58741 0.85906 0.0
O170 O 0.49529 0.68514 0.85319 0.0
O171 O 0.49982 0.61436 0.8048 0.0
O172 O 0.50093 0.60967 0.89753 0.0
O173 O 0.55532 0.65975 0.80018 0.0
O174 O 0.55577 0.66789 0.89152 0.0
O175 O 0.55915 0.58955 0.85564 0.0
H176 H 0.20187 0.34994 0.95579 0.0
H177 H 0.18112 0.31188 0.9417 0.0
H178 H 0.15579 0.35247 0.86953 0.0
H179 H 0.17609 0.39068 0.88371 0.0
H180 H 0.11891 0.32938 0.89572 0.0
H181 H 0.201 0.30519 0.8659 0.0
H182 H 0.24543 0.29687 0.87088 0.0
H183 H 0.22998 0.23952 0.93307 0.0
H184 H 0.18544 0.24775 0.92873 0.0
H185 H 0.07262 0.23041 0.82111 0.0
H186 H 0.09996 0.26316 0.8355 0.0
H187 H 0.11322 0.2206 0.9106 0.0
H188 H 0.08568 0.18743 0.8964 0.0
H189 H 0.1563 0.24309 0.88554 0.0
H190 H 0.07421 0.26707 0.91468 0.0
H191 H 0.02983 0.27503 0.90899 0.0
H192 H 0.04563 0.33297 0.84758 0.0
H193 H 0.09014 0.32507 0.85259 0.0
C194 C 0.19218 0.35067 0.93671 0.0
C195 C 0.19055 0.3734 0.92093 0.0
C196 C 0.18038 0.32884 0.92864 0.0
C197 C 0.16694 0.32926 0.9045 0.0
C198 C 0.16598 0.3517 0.88828 0.0
C199 C 0.17767 0.37353 0.89638 0.0
C200 C 0.15251 0.30695 0.89701 0.0
C201 C 0.12721 0.31061 0.89313 0.0
C202 C 0.16312 0.28223 0.89453 0.0
C203 C 0.18989 0.27728 0.8972 0.0
C204 C 0.20708 0.29096 0.88082 0.0
C205 C 0.23228 0.28623 0.88348 0.0
C206 C 0.24052 0.26773 0.90234 0.0
C207 C 0.22357 0.25388 0.91851 0.0
C208 C 0.19834 0.25855 0.91593 0.0
C209 C 0.08143 0.22776 0.84062 0.0
C210 C 0.07668 0.20631 0.85772 0.0
C211 C 0.09708 0.24658 0.8488 0.0
C212 C 0.10836 0.24444 0.87424 0.0
C213 C 0.10461 0.22261 0.89091 0.0
C214 C 0.0888 0.20373 0.88279 0.0
C215 C 0.12295 0.26577 0.8838 0.0
C216 C 0.14812 0.2619 0.88819 0.0
C217 C 0.11229 0.29036 0.88676 0.0
C218 C 0.08552 0.29531 0.88383 0.0
C219 C 0.06823 0.28137 0.8998 0.0
C220 C 0.04304 0.28589 0.89672 0.0
C221 C 0.03491 0.30445 0.87789 0.0
C222 C 0.05195 0.31857 0.86214 0.0
C223 C 0.07717 0.3141 0.8651 0.0
H224 H 0.0154 0.30793 0.87554 0.0
H225 H 0.26004 0.26409 0.90436 0.0
H226 H 0.78131 0.69439 0.45829 0.0
H227 H 0.81371 0.72063 0.43731 0.0
H228 H 0.86763 0.66177 0.45566 0.0
H229 H 0.83541 0.6357 0.47733 0.0
H230 H 0.88499 0.70583 0.46714 0.0
H231 H 0.84636 0.67196 0.38993 0.0
H232 H 0.81203 0.66196 0.36052 0.0
H233 H 0.79575 0.74164 0.34847 0.0
H234 H 0.82978 0.75211 0.37812 0.0
H235 H 0.95684 0.76581 0.34108 0.0
H236 H 0.92519 0.73743 0.35991 0.0
H237 H 0.9156 0.78426 0.43106 0.0
H238 H 0.94751 0.81243 0.41275 0.0
H239 H 0.87789 0.74323 0.37304 0.0
H240 H 0.90361 0.74746 0.48753 0.0
H241 H 0.94035 0.75385 0.51468 0.0
H242 H 0.98674 0.72631 0.4483 0.0
H243 H 0.95028 0.71941 0.42093 0.0
C244 C 0.80007 0.68702 0.45786 0.0
C245 C 0.80579 0.66293 0.46941 0.0
C246 C 0.81856 0.702 0.44573 0.0
C247 C 0.84307 0.69304 0.44455 0.0
C248 C 0.84885 0.66908 0.4563 0.0
C249 C 0.8304 0.65417 0.46863 0.0
C250 C 0.86273 0.70877 0.43138 0.0
C251 C 0.88343 0.71398 0.44656 0.0
C252 C 0.86097 0.71903 0.40431 0.0
C253 C 0.84048 0.71281 0.38646 0.0
C254 C 0.83533 0.68735 0.38118 0.0
C255 C 0.81595 0.68159 0.36444 0.0
C256 C 0.80168 0.70115 0.35269 0.0
C257 C 0.8068 0.72651 0.35761 0.0
C258 C 0.82615 0.73236 0.37436 0.0
C259 C 0.94797 0.77014 0.36071 0.0
C260 C 0.95492 0.7913 0.37551 0.0
C261 C 0.92983 0.75391 0.3714 0.0
C262 C 0.9183 0.7585 0.39707 0.0
C263 C 0.92462 0.78005 0.41147 0.0
C264 C 0.94284 0.79619 0.4009 0.0
C265 C 0.89988 0.74062 0.409 0.0
C266 C 0.87943 0.73505 0.39361 0.0
C267 C 0.90217 0.72948 0.4356 0.0
C268 C 0.92421 0.73316 0.4521 0.0
C269 C 0.92164 0.74266 0.47879 0.0
C270 C 0.94242 0.74639 0.4942 0.0
C271 C 0.96586 0.74057 0.48319 0.0
C272 C 0.96858 0.7309 0.45677 0.0
C273 C 0.94786 0.7271 0.44129 0.0
H274 H 0.98193 0.74351 0.49513 0.0
H275 H 0.78668 0.69666 0.33973 0.0
H276 H 0.84197 0.33593 0.98668 0.0
H277 H 0.87287 0.30943 0.96286 0.0
H278 H 0.81549 0.26978 0.92382 0.0
H279 H 0.7844 0.2959 0.94805 0.0
H280 H 0.84967 0.23697 0.94086 0.0
H281 H 0.84891 0.31476 0.88826 0.0
H282 H 0.8505 0.36117 0.88019 0.0
H283 H 0.92348 0.36146 0.91106 0.0
H284 H 0.92219 0.31508 0.91968 0.0
H285 H 0.95492 0.21722 0.82907 0.0
H286 H 0.92008 0.24169 0.84832 0.0
H287 H 0.93233 0.20752 0.92833 0.0
H288 H 0.96691 0.18263 0.90926 0.0
H289 H 0.9179 0.27674 0.88618 0.0
H290 H 0.87775 0.20107 0.96341 0.0
H291 H 0.87467 0.15439 0.96743 0.0
H292 H 0.8797 0.14933 0.87954 0.0
H293 H 0.88236 0.19596 0.87497 0.0
C294 C 0.8359 0.32159 0.97301 0.0
C295 C 0.81073 0.3181 0.96916 0.0
C296 C 0.8536 0.30651 0.95934 0.0
C297 C 0.84651 0.28784 0.94128 0.0
C298 C 0.82138 0.28409 0.93764 0.0
C299 C 0.80365 0.29909 0.95143 0.0
C300 C 0.86536 0.27227 0.92623 0.0
C301 C 0.86456 0.24565 0.92886 0.0
C302 C 0.88448 0.28358 0.91005 0.0
C303 C 0.88536 0.31147 0.90483 0.0
C304 C 0.86522 0.32475 0.89352 0.0
C305 C 0.86608 0.35104 0.88882 0.0
C306 C 0.88705 0.36427 0.89517 0.0
C307 C 0.90724 0.3512 0.90618 0.0
C308 C 0.90646 0.3249 0.91095 0.0
C309 C 0.9502 0.21481 0.85076 0.0
C310 C 0.96375 0.19789 0.86759 0.0
C311 C 0.93028 0.22887 0.86172 0.0
C312 C 0.92346 0.22626 0.88968 0.0
C313 C 0.93701 0.20952 0.90659 0.0
C314 C 0.95686 0.19538 0.89564 0.0
C315 C 0.90254 0.24148 0.90135 0.0
C316 C 0.90296 0.26804 0.89809 0.0
C317 C 0.88277 0.23008 0.91637 0.0
C318 C 0.88049 0.20202 0.91889 0.0
C319 C 0.87804 0.19001 0.94494 0.0
C320 C 0.87638 0.16355 0.94731 0.0
C321 C 0.87707 0.14889 0.92376 0.0
C322 C 0.87924 0.16068 0.89777 0.0
C323 C 0.88084 0.18713 0.89528 0.0
H324 H 0.87589 0.1284 0.92566 0.0
H325 H 0.88768 0.38463 0.89151 0.0
H326 H 0.19407 0.63942 0.47495 0.0
H327 H 0.16359 0.66524 0.45007 0.0
H328 H 0.20207 0.7332 0.46829 0.0
H329 H 0.23299 0.70751 0.49262 0.0
H330 H 0.14775 0.73218 0.48115 0.0
H331 H 0.20896 0.71723 0.40832 0.0
H332 H 0.23596 0.69009 0.37917 0.0
H333 H 0.17302 0.6517 0.35117 0.0
H334 H 0.14566 0.67837 0.3805 0.0
H335 H 0.08321 0.82312 0.40262 0.0
H336 H 0.11564 0.79697 0.4232 0.0
H337 H 0.09132 0.73175 0.38036 0.0
H338 H 0.05956 0.7583 0.35856 0.0
H339 H 0.13833 0.72998 0.38022 0.0
H340 H 0.07674 0.74207 0.45089 0.0
H341 H 0.04762 0.76597 0.48096 0.0
H342 H 0.10759 0.80516 0.5147 0.0
H343 H 0.13705 0.78173 0.48456 0.0
C344 C 0.19609 0.65985 0.47356 0.0
C345 C 0.2159 0.67147 0.48572 0.0
C346 C 0.17873 0.67452 0.4593 0.0
C347 C 0.18068 0.70105 0.45737 0.0
C348 C 0.20034 0.71272 0.46958 0.0
C349 C 0.21798 0.69803 0.48337 0.0
C350 C 0.16184 0.71668 0.44318 0.0
C351 C 0.14583 0.73203 0.45904 0.0
C352 C 0.15887 0.71558 0.41453 0.0
C353 C 0.1753 0.6996 0.39684 0.0
C354 C 0.2009 0.70283 0.39617 0.0
C355 C 0.21626 0.68757 0.37956 0.0
C356 C 0.20622 0.66913 0.36339 0.0
C357 C 0.18078 0.66596 0.36374 0.0
C358 C 0.16534 0.68116 0.38033 0.0
C359 C 0.08483 0.80322 0.39752 0.0
C360 C 0.06873 0.79268 0.37918 0.0
C361 C 0.10329 0.78823 0.40942 0.0
C362 C 0.10557 0.76218 0.40394 0.0
C363 C 0.08988 0.75175 0.38505 0.0
C364 C 0.07172 0.76691 0.37263 0.0
C365 C 0.12416 0.74588 0.41812 0.0
C366 C 0.14011 0.73026 0.40233 0.0
C367 C 0.12672 0.74625 0.44701 0.0
C368 C 0.10908 0.7603 0.46528 0.0
C369 C 0.0837 0.75591 0.46459 0.0
C370 C 0.06714 0.76935 0.48167 0.0
C371 C 0.07575 0.78712 0.49968 0.0
C372 C 0.10095 0.79142 0.50071 0.0
C373 C 0.11759 0.77804 0.48366 0.0
H374 H 0.06289 0.79751 0.51288 0.0
H375 H 0.21814 0.65734 0.35054 0.0
H376 H 0.73889 0.80916 0.9745 0.0
H377 H 0.71053 0.77978 0.95502 0.0
H378 H 0.66769 0.84326 0.92306 0.0
H379 H 0.69546 0.87275 0.94363 0.0
H380 H 0.63803 0.81127 0.94448 0.0
H381 H 0.70621 0.80314 0.88121 0.0
H382 H 0.74939 0.7962 0.86567 0.0
H383 H 0.74895 0.72084 0.9017 0.0
H384 H 0.70585 0.72744 0.9178 0.0
H385 H 0.56891 0.73484 0.85638 0.0
H386 H 0.59957 0.76457 0.87103 0.0
H387 H 0.6289 0.70701 0.9262 0.0
H388 H 0.59795 0.67724 0.9121 0.0
H389 H 0.66511 0.73621 0.89076 0.0
H390 H 0.59558 0.74727 0.95476 0.0
H391 H 0.55173 0.75543 0.96658 0.0
H392 H 0.55469 0.82774 0.92373 0.0
H393 H 0.59849 0.81982 0.91129 0.0
C394 C 0.72356 0.81687 0.96311 0.0
C395 C 0.71944 0.84329 0.96059 0.0
C396 C 0.70739 0.80002 0.95182 0.0
C397 C 0.68706 0.80921 0.93716 0.0
C398 C 0.68318 0.83564 0.93426 0.0
C399 C 0.69912 0.8525 0.94596 0.0
C400 C 0.66924 0.7913 0.92605 0.0
C401 C 0.64405 0.79513 0.93235 0.0
C402 C 0.6769 0.76992 0.9105 0.0
C403 C 0.70286 0.76588 0.90094 0.0
C404 C 0.71538 0.78516 0.88602 0.0
C405 C 0.73983 0.78127 0.87707 0.0
C406 C 0.75192 0.75812 0.88276 0.0
C407 C 0.73957 0.73878 0.89735 0.0
C408 C 0.71512 0.74257 0.90636 0.0
C409 C 0.58194 0.72844 0.87154 0.0
C410 C 0.58093 0.7037 0.88317 0.0
C411 C 0.59941 0.74547 0.8799 0.0
C412 C 0.61642 0.73796 0.8997 0.0
C413 C 0.61591 0.71311 0.91086 0.0
C414 C 0.59815 0.6962 0.90289 0.0
C415 C 0.63427 0.75631 0.90937 0.0
C416 C 0.65934 0.7525 0.90279 0.0
C417 C 0.6265 0.77796 0.92418 0.0
C418 C 0.60023 0.78283 0.93185 0.0
C419 C 0.58682 0.76481 0.94765 0.0
C420 C 0.56199 0.76941 0.9545 0.0
C421 C 0.55041 0.79206 0.94584 0.0
C422 C 0.56367 0.81019 0.93039 0.0
C423 C 0.5885 0.80566 0.92344 0.0
H424 H 0.53118 0.79559 0.95117 0.0
H425 H 0.77085 0.75514 0.87581 0.0
H426 H 0.3129 0.16131 0.47519 0.0
H427 H 0.34449 0.19166 0.46038 0.0
H428 H 0.30502 0.20952 0.3868 0.0
H429 H 0.27299 0.17961 0.40176 0.0
H430 H 0.35894 0.19724 0.38043 0.0
H431 H 0.30045 0.25118 0.4298 0.0
H432 H 0.27409 0.26298 0.46987 0.0
H433 H 0.33748 0.26448 0.51992 0.0
H434 H 0.36419 0.2523 0.48022 0.0
H435 H 0.43178 0.29993 0.33307 0.0
H436 H 0.39719 0.27293 0.3464 0.0
H437 H 0.41929 0.27249 0.43075 0.0
H438 H 0.45316 0.30053 0.41771 0.0
H439 H 0.37265 0.27616 0.43087 0.0
H440 H 0.43128 0.22099 0.38562 0.0
H441 H 0.45955 0.2066 0.34823 0.0
H442 H 0.39922 0.20387 0.29385 0.0
H443 H 0.37062 0.21855 0.33085 0.0
C444 C 0.31092 0.17172 0.45588 0.0
C445 C 0.29048 0.16813 0.43962 0.0
C446 C 0.32893 0.18906 0.4475 0.0
C447 C 0.32698 0.20279 0.42257 0.0
C448 C 0.30677 0.19906 0.40613 0.0
C449 C 0.2885 0.18207 0.41474 0.0
C450 C 0.34623 0.22087 0.41362 0.0
C451 C 0.36177 0.21472 0.39112 0.0
C452 C 0.3503 0.24314 0.42825 0.0
C453 C 0.33428 0.25057 0.4521 0.0
C454 C 0.30874 0.25379 0.44941 0.0
C455 C 0.29374 0.2606 0.47204 0.0
C456 C 0.30409 0.26441 0.49744 0.0
C457 C 0.32948 0.26149 0.50024 0.0
C458 C 0.34456 0.25465 0.47767 0.0
C459 C 0.42922 0.29409 0.35446 0.0
C460 C 0.44525 0.30222 0.37433 0.0
C461 C 0.40951 0.27854 0.36205 0.0
C462 C 0.40587 0.27018 0.38952 0.0
C463 C 0.42168 0.27862 0.40943 0.0
C464 C 0.44107 0.29462 0.40195 0.0
C465 C 0.38566 0.25261 0.39755 0.0
C466 C 0.36989 0.25878 0.41997 0.0
C467 C 0.38173 0.23002 0.38319 0.0
C468 C 0.39886 0.22112 0.36092 0.0
C469 C 0.42407 0.21749 0.36563 0.0
C470 C 0.44015 0.20926 0.34452 0.0
C471 C 0.4312 0.20439 0.31866 0.0
C472 C 0.40613 0.20768 0.31388 0.0
C473 C 0.38998 0.21594 0.33492 0.0
H474 H 0.44368 0.19802 0.30234 0.0
H475 H 0.29245 0.26969 0.51494 0.0
H476 H 0.31773 0.81779 0.99704 0.0
H477 H 0.35352 0.79253 0.98161 0.0
H478 H 0.31738 0.77639 0.90663 0.0
H479 H 0.28103 0.80064 0.92266 0.0
H480 H 0.33936 0.7357 0.92298 0.0
H481 H 0.36464 0.82154 0.91023 0.0
H482 H 0.37184 0.86581 0.92276 0.0
H483 H 0.42168 0.83952 0.98437 0.0
H484 H 0.41452 0.79505 0.97247 0.0
H485 H 0.45036 0.70084 0.84766 0.0
H486 H 0.41366 0.72451 0.86393 0.0
H487 H 0.43944 0.71981 0.94671 0.0
H488 H 0.47601 0.69564 0.93073 0.0
H489 H 0.4232 0.77057 0.92576 0.0
H490 H 0.3975 0.68328 0.93439 0.0
H491 H 0.3912 0.64043 0.9169 0.0
H492 H 0.34227 0.67177 0.85687 0.0
H493 H 0.34879 0.71492 0.87351 0.0
C494 C 0.31744 0.8089 0.97724 0.0
C495 C 0.29664 0.8113 0.96098 0.0
C496 C 0.33797 0.79454 0.96836 0.0
C497 C 0.33841 0.7829 0.94268 0.0
C498 C 0.31755 0.78518 0.9265 0.0
C499 C 0.29681 0.79912 0.93563 0.0
C500 C 0.36055 0.76824 0.9328 0.0
C501 C 0.35763 0.74352 0.92328 0.0
C502 C 0.38451 0.77823 0.93338 0.0
C503 C 0.38884 0.80495 0.94064 0.0
C504 C 0.37698 0.82519 0.9266 0.0
C505 C 0.38108 0.85032 0.93356 0.0
C506 C 0.39715 0.85547 0.9544 0.0
C507 C 0.4092 0.8355 0.96827 0.0
C508 C 0.40515 0.81033 0.96141 0.0
C509 C 0.44824 0.70488 0.86933 0.0
C510 C 0.46606 0.69644 0.88795 0.0
C511 C 0.42725 0.7183 0.87857 0.0
C512 C 0.42392 0.72379 0.90648 0.0
C513 C 0.44176 0.71568 0.92509 0.0
C514 C 0.46255 0.70184 0.91595 0.0
C515 C 0.40186 0.73825 0.9162 0.0
C516 C 0.40486 0.7629 0.92557 0.0
C517 C 0.37798 0.72841 0.91487 0.0
C518 C 0.37384 0.7024 0.90504 0.0
C519 C 0.38561 0.68109 0.91727 0.0
C520 C 0.38198 0.65673 0.90752 0.0
C521 C 0.36641 0.65339 0.88573 0.0
C522 C 0.35437 0.6744 0.87371 0.0
C523 C 0.35805 0.69881 0.88328 0.0
H524 H 0.36361 0.63453 0.87822 0.0
H525 H 0.4003 0.87494 0.95975 0.0
H526 H 0.74084 0.19372 0.43148 0.0
H527 H 0.70694 0.21922 0.41275 0.0
H528 H 0.65492 0.17494 0.46145 0.0
H529 H 0.68869 0.14901 0.47987 0.0
H530 H 0.638 0.18429 0.41148 0.0
H531 H 0.67231 0.23332 0.48202 0.0
H532 H 0.70519 0.2545 0.50582 0.0
H533 H 0.71961 0.30192 0.43421 0.0
H534 H 0.68701 0.28078 0.40985 0.0
H535 H 0.55846 0.30903 0.42097 0.0
H536 H 0.59139 0.28061 0.43651 0.0
H537 H 0.60001 0.25035 0.35516 0.0
H538 H 0.56667 0.27849 0.33943 0.0
H539 H 0.63827 0.27787 0.42175 0.0
H540 H 0.61914 0.18784 0.36087 0.0
H541 H 0.58402 0.16642 0.34148 0.0
H542 H 0.53507 0.2005 0.40173 0.0
H543 H 0.56994 0.22184 0.42169 0.0
C544 C 0.72218 0.18931 0.43811 0.0
C545 C 0.71747 0.16944 0.45732 0.0
C546 C 0.70283 0.20396 0.42743 0.0
C547 C 0.67841 0.19921 0.43597 0.0
C548 C 0.67361 0.17895 0.45457 0.0
C549 C 0.69295 0.16421 0.46516 0.0
C550 C 0.65792 0.21585 0.42621 0.0
C551 C 0.63809 0.20476 0.41364 0.0
C552 C 0.65782 0.24252 0.42942 0.0
C553 C 0.6774 0.25529 0.44403 0.0
C554 C 0.68262 0.24813 0.47128 0.0
C555 C 0.70118 0.26015 0.48488 0.0
C556 C 0.71453 0.27949 0.47151 0.0
C557 C 0.70929 0.2869 0.44453 0.0
C558 C 0.69076 0.27492 0.43082 0.0
C559 C 0.56724 0.29629 0.40632 0.0
C560 C 0.55981 0.29605 0.37891 0.0
C561 C 0.58615 0.28009 0.41526 0.0
C562 C 0.59809 0.26325 0.39707 0.0
C563 C 0.59082 0.26294 0.36967 0.0
C564 C 0.57178 0.2791 0.3607 0.0
C565 C 0.61838 0.24636 0.40686 0.0
C566 C 0.63823 0.25742 0.4194 0.0
C567 C 0.61819 0.21963 0.40418 0.0
C568 C 0.59712 0.20665 0.39256 0.0
C569 C 0.6009 0.19069 0.37002 0.0
C570 C 0.58103 0.17857 0.35893 0.0
C571 C 0.55732 0.18217 0.37031 0.0
C572 C 0.55343 0.19782 0.39287 0.0
C573 C 0.57323 0.20995 0.40406 0.0
H574 H 0.54196 0.17279 0.36168 0.0
H575 H 0.72888 0.28877 0.48208 0.0
H576 H 0.32126 0.43436 0.9536 0.0
H577 H 0.35936 0.45775 0.94551 0.0
H578 H 0.31695 0.52627 0.92824 0.0
H579 H 0.27896 0.50292 0.93602 0.0
H580 H 0.35191 0.52206 0.89162 0.0
H581 H 0.34814 0.51518 0.99077 0.0
H582 H 0.34583 0.49332 0.03623 0.0
H583 H 0.41214 0.45098 0.01635 0.0
H584 H 0.41481 0.47251 0.97077 0.0
H585 H 0.46504 0.5976 0.93035 0.0
H586 H 0.42862 0.57355 0.94502 0.0
H587 H 0.43886 0.52603 0.87454 0.0
H588 H 0.47497 0.54989 0.8596 0.0
H589 H 0.41971 0.52202 0.95727 0.0
H590 H 0.38384 0.51751 0.84788 0.0
H591 H 0.38794 0.54141 0.80373 0.0
H592 H 0.39942 0.61016 0.84671 0.0
H593 H 0.39505 0.58675 0.89113 0.0
C594 C 0.3201 0.4545 0.94856 0.0
C595 C 0.29712 0.4669 0.94589 0.0
C596 C 0.34189 0.46786 0.94388 0.0
C597 C 0.34109 0.49393 0.93671 0.0
C598 C 0.31811 0.50621 0.9338 0.0
C599 C 0.29639 0.49283 0.93822 0.0
C600 C 0.36407 0.50832 0.93114 0.0
C601 C 0.36664 0.52204 0.90609 0.0
C602 C 0.38337 0.50852 0.94998 0.0
C603 C 0.38156 0.49533 0.97727 0.0
C604 C 0.36212 0.50107 0.99602 0.0
C605 C 0.36079 0.48878 0.02184 0.0
C606 C 0.37882 0.47076 0.02917 0.0
C607 C 0.39821 0.46497 0.01068 0.0
C608 C 0.39967 0.47724 0.98488 0.0
C609 C 0.45972 0.58186 0.91812 0.0
C610 C 0.47285 0.5759 0.89362 0.0
C611 C 0.43893 0.56809 0.92659 0.0
C612 C 0.43088 0.54823 0.91068 0.0
C613 C 0.44456 0.54152 0.88693 0.0
C614 C 0.46525 0.55523 0.87843 0.0
C615 C 0.40741 0.53541 0.91782 0.0
C616 C 0.40482 0.52201 0.943 0.0
C617 C 0.38791 0.53574 0.89931 0.0
C618 C 0.38932 0.55031 0.8728 0.0
C619 C 0.38703 0.53777 0.84791 0.0
C620 C 0.38945 0.55121 0.82285 0.0
C621 C 0.39404 0.57724 0.82243 0.0
C622 C 0.39595 0.58997 0.84707 0.0
C623 C 0.39352 0.57661 0.8722 0.0
H624 H 0.39616 0.5875 0.80299 0.0
H625 H 0.37783 0.46133 0.04918 0.0
H626 H 0.73016 0.5136 0.47853 0.0
H627 H 0.70149 0.48618 0.45623 0.0
H628 H 0.64417 0.54368 0.46526 0.0
H629 H 0.67247 0.57086 0.48805 0.0
H630 H 0.62719 0.49946 0.48104 0.0
H631 H 0.67335 0.53183 0.40252 0.0
H632 H 0.71067 0.54103 0.37417 0.0
H633 H 0.72822 0.46118 0.37062 0.0
H634 H 0.69115 0.45152 0.39927 0.0
H635 H 0.56607 0.44596 0.35443 0.0
H636 H 0.59774 0.47088 0.37451 0.0
H637 H 0.59644 0.42126 0.44648 0.0
H638 H 0.56428 0.39636 0.42676 0.0
H639 H 0.64316 0.46093 0.39007 0.0
H640 H 0.60597 0.45673 0.50265 0.0
H641 H 0.56654 0.45155 0.52855 0.0
H642 H 0.52749 0.48237 0.45966 0.0
H643 H 0.5667 0.48804 0.43351 0.0
C644 C 0.71151 0.52048 0.47551 0.0
C645 C 0.70356 0.54437 0.48511 0.0
C646 C 0.69515 0.50481 0.46272 0.0
C647 C 0.67068 0.5129 0.459 0.0
C648 C 0.66292 0.53698 0.46805 0.0
C649 C 0.67916 0.55254 0.48099 0.0
C650 C 0.65284 0.49609 0.44652 0.0
C651 C 0.63074 0.49099 0.46118 0.0
C652 C 0.65731 0.48522 0.42049 0.0
C653 C 0.67962 0.49098 0.40328 0.0
C654 C 0.68528 0.51625 0.39589 0.0
C655 C 0.70637 0.52154 0.37972 0.0
C656 C 0.72185 0.50171 0.37066 0.0
C657 C 0.71624 0.47652 0.37769 0.0
C658 C 0.69518 0.47113 0.39387 0.0
C659 C 0.57249 0.44022 0.37452 0.0
C660 C 0.56241 0.41923 0.38908 0.0
C661 C 0.59073 0.45446 0.38591 0.0
C662 C 0.5993 0.44808 0.41208 0.0
C663 C 0.58982 0.42674 0.4264 0.0
C664 C 0.57146 0.41251 0.41507 0.0
C665 C 0.61757 0.46436 0.4246 0.0
C666 C 0.63974 0.46926 0.41003 0.0
C667 C 0.61292 0.47559 0.4504 0.0
C668 C 0.58925 0.47251 0.46604 0.0
C669 C 0.58897 0.46246 0.49308 0.0
C670 C 0.56666 0.45944 0.50779 0.0
C671 C 0.54452 0.46654 0.49572 0.0
C672 C 0.54464 0.47678 0.46895 0.0
C673 C 0.5669 0.47987 0.45416 0.0
H674 H 0.52727 0.46417 0.50714 0.0
H675 H 0.73816 0.50584 0.35815 0.0
H676 H 0.72081 0.41906 0.94119 0.0
H677 H 0.69553 0.45225 0.9193 0.0
H678 H 0.72356 0.50769 0.97321 0.0
H679 H 0.74897 0.47468 0.9952 0.0
H680 H 0.67293 0.50566 0.97501 0.0
H681 H 0.73775 0.51225 0.90639 0.0
H682 H 0.76809 0.49634 0.87184 0.0
H683 H 0.70987 0.46798 0.82463 0.0
H684 H 0.67917 0.48339 0.85911 0.0
H685 H 0.59943 0.60559 0.91902 0.0
H686 H 0.63494 0.58034 0.93422 0.0
H687 H 0.61981 0.52317 0.87546 0.0
H688 H 0.58489 0.54871 0.85951 0.0
H689 H 0.66706 0.52928 0.87613 0.0
H690 H 0.60307 0.51696 0.9455 0.0
H691 H 0.57152 0.53009 0.98016 0.0
H692 H 0.62664 0.56581 0.026 0.0
H693 H 0.65849 0.55316 0.9914 0.0
C694 C 0.72205 0.43841 0.94798 0.0
C695 C 0.73676 0.44417 0.9701 0.0
C696 C 0.70763 0.45738 0.93539 0.0
C697 C 0.70766 0.48241 0.94469 0.0
C698 C 0.72328 0.48848 0.96577 0.0
C699 C 0.73785 0.46957 0.97823 0.0
C700 C 0.68945 0.50146 0.93451 0.0
C701 C 0.67194 0.51127 0.95346 0.0
C702 C 0.68774 0.50805 0.9063 0.0
C703 C 0.70616 0.49881 0.88547 0.0
C704 C 0.73142 0.50243 0.88877 0.0
C705 C 0.74868 0.49354 0.86916 0.0
C706 C 0.74092 0.48111 0.84608 0.0
C707 C 0.71586 0.4776 0.84253 0.0
C708 C 0.69852 0.48644 0.86208 0.0
C709 C 0.60367 0.58764 0.90934 0.0
C710 C 0.58921 0.57907 0.88821 0.0
C711 C 0.62396 0.5732 0.91807 0.0
C712 C 0.62985 0.54964 0.90628 0.0
C713 C 0.61567 0.54128 0.88486 0.0
C714 C 0.59563 0.55587 0.87585 0.0
C715 C 0.65036 0.53333 0.91662 0.0
C716 C 0.66823 0.52395 0.89772 0.0
C717 C 0.65222 0.52676 0.94487 0.0
C718 C 0.6331 0.53437 0.9657 0.0
C719 C 0.60843 0.52778 0.96286 0.0
C720 C 0.5905 0.53511 0.98251 0.0
C721 C 0.59706 0.54885 0.00522 0.0
C722 C 0.62158 0.55522 0.00837 0.0
C723 C 0.63958 0.54796 0.98876 0.0
H724 H 0.58315 0.5545 0.02042 0.0
H725 H 0.75431 0.47424 0.83093 0.0
H726 H 0.29814 0.52182 0.51507 0.0
H727 H 0.32567 0.49361 0.48881 0.0
H728 H 0.34449 0.55571 0.43305 0.0
H729 H 0.31684 0.58422 0.45919 0.0
H730 H 0.33947 0.50888 0.40664 0.0
H731 H 0.38161 0.54253 0.48258 0.0
H732 H 0.38677 0.55249 0.53124 0.0
H733 H 0.38473 0.47299 0.55331 0.0
H734 H 0.37921 0.46258 0.5048 0.0
H735 H 0.45292 0.45511 0.35463 0.0
H736 H 0.42041 0.48257 0.37423 0.0
H737 H 0.40549 0.42599 0.438 0.0
H738 H 0.43825 0.39866 0.41896 0.0
H739 H 0.40833 0.47113 0.4594 0.0
H740 H 0.36667 0.43702 0.38367 0.0
H741 H 0.36106 0.42676 0.33518 0.0
H742 H 0.36182 0.50621 0.31268 0.0
H743 H 0.36779 0.51693 0.361 0.0
C744 C 0.30781 0.52947 0.49699 0.0
C745 C 0.3055 0.55538 0.48943 0.0
C746 C 0.32358 0.5133 0.48204 0.0
C747 C 0.33737 0.52269 0.45928 0.0
C748 C 0.33404 0.54814 0.45063 0.0
C749 C 0.31828 0.5644 0.46564 0.0
C750 C 0.35655 0.50638 0.44588 0.0
C751 C 0.35471 0.50082 0.41802 0.0
C752 C 0.37616 0.4956 0.46094 0.0
C753 C 0.37976 0.5018 0.49009 0.0
C754 C 0.38208 0.52719 0.49783 0.0
C755 C 0.3851 0.53291 0.52538 0.0
C756 C 0.38601 0.51339 0.54536 0.0
C757 C 0.38399 0.4881 0.53781 0.0
C758 C 0.38094 0.48227 0.51029 0.0
C759 C 0.44262 0.44841 0.37272 0.0
C760 C 0.44828 0.42467 0.38524 0.0
C761 C 0.42395 0.46411 0.38384 0.0
C762 C 0.41035 0.45626 0.40746 0.0
C763 C 0.41576 0.43247 0.41979 0.0
C764 C 0.43451 0.41684 0.40882 0.0
C765 C 0.39119 0.47321 0.42011 0.0
C766 C 0.3931 0.47905 0.44791 0.0
C767 C 0.37166 0.48415 0.40497 0.0
C768 C 0.36792 0.47776 0.37592 0.0
C769 C 0.36583 0.4523 0.36835 0.0
C770 C 0.36256 0.4464 0.3409 0.0
C771 C 0.36115 0.46582 0.32085 0.0
C772 C 0.36295 0.49119 0.32823 0.0
C773 C 0.36626 0.49718 0.35565 0.0
H774 H 0.35862 0.46122 0.29961 0.0
H775 H 0.38832 0.51786 0.56669 0.0
H776 H 0.85066 0.90824 0.92737 0.0
H777 H 0.87944 0.94001 0.90938 0.0
H778 H 0.83586 0.9992 0.94851 0.0
H779 H 0.80653 0.96759 0.96584 0.0
H780 H 0.85353 0.01689 0.90156 0.0
H781 H 0.88775 0.97381 0.97839 0.0
H782 H 0.901 0.93744 0.00768 0.0
H783 H 0.95274 0.91367 0.94439 0.0
H784 H 0.93957 0.94974 0.91454 0.0
H785 H 0.95642 0.10221 0.89888 0.0
H786 H 0.92407 0.07385 0.91686 0.0
H787 H 0.95114 0.0152 0.86275 0.0
H788 H 0.98309 0.04345 0.84432 0.0
H789 H 0.94148 0.99964 0.92052 0.0
H790 H 0.90379 0.04568 0.84401 0.0
H791 H 0.89069 0.08493 0.81931 0.0
H792 H 0.84541 0.10661 0.88916 0.0
H793 H 0.8586 0.06767 0.91447 0.0
C794 C 0.84696 0.92806 0.93178 0.0
C795 C 0.8264 0.93534 0.94825 0.0
C796 C 0.86354 0.94621 0.92164 0.0
C797 C 0.8602 0.97194 0.92821 0.0
C798 C 0.83895 0.97946 0.94332 0.0
C799 C 0.82217 0.96134 0.95319 0.0
C800 C 0.87943 0.9907 0.92031 0.0
C801 C 0.8727 0.01321 0.90603 0.0
C802 C 0.90449 0.98612 0.92628 0.0
C803 C 0.9125 0.96436 0.94412 0.0
C804 C 0.90182 0.96072 0.97062 0.0
C805 C 0.90934 0.94018 0.98735 0.0
C806 C 0.92765 0.92322 0.97788 0.0
C807 C 0.93853 0.92681 0.95168 0.0
C808 C 0.93106 0.94731 0.93486 0.0
C809 C 0.95553 0.08323 0.89093 0.0
C810 C 0.97227 0.07507 0.87015 0.0
C811 C 0.93702 0.06712 0.90114 0.0
C812 C 0.93524 0.04249 0.89105 0.0
C813 C 0.95224 0.03414 0.87077 0.0
C814 C 0.97041 0.05035 0.86021 0.0
C815 C 0.91558 0.02533 0.90131 0.0
C816 C 0.92227 0.00321 0.91616 0.0
C817 C 0.89047 0.03063 0.89654 0.0
C818 C 0.88237 0.05389 0.88122 0.0
C819 C 0.89121 0.05892 0.85419 0.0
C820 C 0.88374 0.0811 0.84007 0.0
C821 C 0.86727 0.09828 0.85268 0.0
C822 C 0.85818 0.09329 0.87942 0.0
C823 C 0.86565 0.07117 0.89367 0.0
H824 H 0.86152 0.11545 0.84173 0.0
H825 H 0.93345 0.90734 0.99087 0.0
H826 H 0.18404 0.0282 0.50503 0.0
H827 H 0.15892 0.99909 0.48071 0.0
H828 H 0.20838 0.00458 0.40976 0.0
H829 H 0.23368 0.03424 0.43401 0.0
H830 H 0.16065 0.00957 0.39569 0.0
H831 H 0.20779 0.95045 0.4488 0.0
H832 H 0.22681 0.9324 0.49043 0.0
H833 H 0.15537 0.92273 0.52899 0.0
H834 H 0.1359 0.94105 0.48774 0.0
H835 H 0.08707 0.91652 0.33485 0.0
H836 H 0.12214 0.93901 0.35184 0.0
H837 H 0.08862 0.93741 0.43355 0.0
H838 H 0.05426 0.91375 0.4169 0.0
H839 H 0.13472 0.92686 0.43708 0.0
H840 H 0.08858 0.99276 0.3869 0.0
H841 H 0.06946 0.01125 0.34547 0.0
H842 H 0.13921 0.00791 0.30154 0.0
H843 H 0.15869 0.98923 0.34267 0.0
C844 C 0.18976 0.02313 0.48433 0.0
C845 C 0.21091 0.03353 0.47147 0.0
C846 C 0.17541 0.00634 0.47049 0.0
C847 C 0.18194 0.99938 0.44355 0.0
C848 C 0.20309 0.00962 0.4306 0.0
C849 C 0.21755 0.02648 0.4445 0.0
C850 C 0.16588 0.98226 0.42883 0.0
C851 C 0.15534 0.99124 0.40442 0.0
C852 C 0.15877 0.95848 0.44038 0.0
C853 C 0.17039 0.94726 0.4652 0.0
C854 C 0.19613 0.94462 0.46622 0.0
C855 C 0.207 0.93432 0.48974 0.0
C856 C 0.19231 0.92645 0.51235 0.0
C857 C 0.16672 0.92882 0.51146 0.0
C858 C 0.15576 0.93913 0.48799 0.0
C859 C 0.08717 0.92111 0.35641 0.0
C860 C 0.06787 0.91356 0.37455 0.0
C861 C 0.10719 0.93403 0.36609 0.0
C862 C 0.1079 0.94031 0.39394 0.0
C863 C 0.08857 0.93276 0.412 0.0
C864 C 0.06887 0.91934 0.40247 0.0
C865 C 0.12866 0.95465 0.40457 0.0
C866 C 0.14023 0.94505 0.42814 0.0
C867 C 0.13666 0.97788 0.39228 0.0
C868 C 0.12502 0.98943 0.36774 0.0
C869 C 0.0998 0.9959 0.36836 0.0
C870 C 0.08891 0.00642 0.34495 0.0
C871 C 0.10311 0.0107 0.32087 0.0
C872 C 0.12824 0.00457 0.32019 0.0
C873 C 0.13922 0.99406 0.34355 0.0
H874 H 0.09464 0.01882 0.30276 0.0
H875 H 0.20076 0.91849 0.53055 0.0
H876 H 0.20422 0.91086 0.91776 0.0
H877 H 0.18213 0.94584 0.89475 0.0
H878 H 0.21432 0.99926 0.94798 0.0
H879 H 0.23659 0.96442 0.97108 0.0
H880 H 0.16349 0.00201 0.94866 0.0
H881 H 0.2298 0.00145 0.88151 0.0
H882 H 0.25927 0.98221 0.84808 0.0
H883 H 0.19955 0.9584 0.8001 0.0
H884 H 0.1697 0.97718 0.83345 0.0
H885 H 0.09796 0.10597 0.88985 0.0
H886 H 0.13205 0.07882 0.90538 0.0
H887 H 0.11369 0.0222 0.84732 0.0
H888 H 0.08023 0.04966 0.83096 0.0
H889 H 0.16121 0.02421 0.84912 0.0
H890 H 0.09529 0.01856 0.9173 0.0
H891 H 0.06429 0.03497 0.95088 0.0
H892 H 0.12136 0.06699 0.99705 0.0
H893 H 0.15269 0.05102 0.96352 0.0
C894 C 0.20704 0.9301 0.9242 0.0
C895 C 0.22204 0.93482 0.9464 0.0
C896 C 0.19446 0.95009 0.91095 0.0
C897 C 0.19659 0.97513 0.91969 0.0
C898 C 0.21245 0.98006 0.94094 0.0
C899 C 0.22523 0.96011 0.95405 0.0
C900 C 0.18027 0.99561 0.90867 0.0
C901 C 0.16334 0.0073 0.92697 0.0
C902 C 0.17958 0.00182 0.88027 0.0
C903 C 0.1975 0.99057 0.86012 0.0
C904 C 0.22294 0.99193 0.86395 0.0
C905 C 0.23971 0.98114 0.84499 0.0
C906 C 0.23129 0.96904 0.82201 0.0
C907 C 0.20606 0.96776 0.81792 0.0
C908 C 0.1892 0.97851 0.83683 0.0
C909 C 0.10127 0.0878 0.88029 0.0
C910 C 0.08624 0.07988 0.85934 0.0
C911 C 0.12074 0.07225 0.88923 0.0
C912 C 0.12518 0.04821 0.8779 0.0
C913 C 0.11065 0.04063 0.85641 0.0
C914 C 0.09145 0.05634 0.84714 0.0
C915 C 0.14424 0.03049 0.8891 0.0
C916 C 0.1616 0.01923 0.87086 0.0
C917 C 0.14509 0.02428 0.91755 0.0
C918 C 0.12629 0.03386 0.93774 0.0
C919 C 0.1012 0.02926 0.93451 0.0
C920 C 0.08358 0.03845 0.95354 0.0
C921 C 0.09084 0.05208 0.97604 0.0
C922 C 0.11575 0.05648 0.97958 0.0
C923 C 0.13345 0.04735 0.96058 0.0
H924 H 0.07717 0.05918 0.99076 0.0
H925 H 0.24431 0.9607 0.80736 0.0
H926 H 0.79484 0.01841 0.48599 0.0
H927 H 0.82128 0.9871 0.46268 0.0
H928 H 0.84077 0.04313 0.39997 0.0
H929 H 0.81432 0.07475 0.42316 0.0
H930 H 0.83632 0.99177 0.38024 0.0
H931 H 0.87663 0.03802 0.44987 0.0
H932 H 0.88047 0.05468 0.49637 0.0
H933 H 0.88028 0.97861 0.53057 0.0
H934 H 0.87603 0.96152 0.48427 0.0
H935 H 0.95415 0.94207 0.33731 0.0
H936 H 0.9191 0.96852 0.35262 0.0
H937 H 0.90751 0.91843 0.42322 0.0
H938 H 0.94272 0.89213 0.40841 0.0
H939 H 0.90652 0.96619 0.43811 0.0
H940 H 0.86895 0.91915 0.36875 0.0
H941 H 0.86475 0.90188 0.32259 0.0
H942 H 0.85934 0.97764 0.28802 0.0
H943 H 0.86388 0.99539 0.33394 0.0
C944 C 0.80425 0.024 0.4669 0.0
C945 C 0.80277 0.04924 0.45669 0.0
C946 C 0.81936 0.00604 0.45361 0.0
C947 C 0.83322 0.01296 0.42987 0.0
C948 C 0.83023 0.03748 0.41831 0.0
C949 C 0.81517 0.05553 0.43167 0.0
C950 C 0.853 0.9957 0.41931 0.0
C951 C 0.85181 0.98629 0.3927 0.0
C952 C 0.87293 0.9883 0.43585 0.0
C953 C 0.87575 0.99852 0.46366 0.0
C954 C 0.8772 0.02486 0.46734 0.0
C955 C 0.87948 0.03438 0.49365 0.0
C956 C 0.88055 0.01771 0.51642 0.0
C957 C 0.87941 0.99149 0.51291 0.0
C958 C 0.87708 0.98188 0.48664 0.0
C959 C 0.9441 0.93659 0.35604 0.0
C960 C 0.95137 0.91499 0.37168 0.0
C961 C 0.92395 0.95166 0.36467 0.0
C962 C 0.91053 0.94532 0.38893 0.0
C963 C 0.9176 0.92368 0.40442 0.0
C964 C 0.93777 0.90866 0.39591 0.0
C965 C 0.88991 0.96191 0.39898 0.0
C966 C 0.891 0.9714 0.42556 0.0
C967 C 0.8699 0.96921 0.3824 0.0
C968 C 0.86699 0.95861 0.35477 0.0
C969 C 0.86706 0.93214 0.35128 0.0
C970 C 0.86459 0.92226 0.32516 0.0
C971 C 0.86185 0.93865 0.30238 0.0
C972 C 0.8615 0.96497 0.30569 0.0
C973 C 0.86399 0.97495 0.33176 0.0
H974 H 0.85995 0.93096 0.28217 0.0
H975 H 0.88232 0.02512 0.53678 0.0
H976 H 0.33848 0.45752 0.09181 0.0
H977 H 0.36275 0.44603 0.13174 0.0
H978 H 0.37253 0.36963 0.10262 0.0
H979 H 0.34821 0.38093 0.06251 0.0
H980 H 0.3603 0.37146 0.15906 0.0
H981 H 0.41872 0.40778 0.09424 0.0
H982 H 0.4339 0.44039 0.06099 0.0
H983 H 0.43196 0.49563 0.12444 0.0
H984 H 0.41653 0.46336 0.15807 0.0
H985 H 0.45773 0.33668 0.24891 0.0
H986 H 0.43173 0.34436 0.20942 0.0
H987 H 0.42458 0.42367 0.22926 0.0
H988 H 0.45076 0.41634 0.26841 0.0
H989 H 0.43606 0.41856 0.17616 0.0
H990 H 0.37701 0.38269 0.24092 0.0
H991 H 0.36081 0.3505 0.27409 0.0
H992 H 0.36312 0.29484 0.21105 0.0
H993 H 0.37967 0.32662 0.17757 0.0
C994 C 0.34574 0.43825 0.09388 0.0
C995 C 0.34148 0.42016 0.07394 0.0
C996 C 0.35964 0.43174 0.11668 0.0
C997 C 0.36952 0.40702 0.12001 0.0
C998 C 0.36503 0.38879 0.10039 0.0
C999 C 0.35124 0.39534 0.07745 0.0
C1000 C 0.38491 0.40046 0.14379 0.0
C1001 C 0.37707 0.38146 0.16265 0.0
C1002 C 0.4065 0.41387 0.14862 0.0
C1003 C 0.41628 0.4332 0.12862 0.0
C1004 C 0.4214 0.42692 0.10107 0.0
C1005 C 0.43005 0.44534 0.08216 0.0
C1006 C 0.43379 0.4701 0.09056 0.0
C1007 C 0.42902 0.47645 0.11795 0.0
C1008 C 0.42037 0.45809 0.13696 0.0
C1009 C 0.45042 0.35571 0.24506 0.0
C1010 C 0.45645 0.3759 0.26182 0.0
C1011 C 0.43552 0.36005 0.22248 0.0
C1012 C 0.42616 0.38459 0.21642 0.0
C1013 C 0.4317 0.40462 0.23346 0.0
C1014 C 0.44664 0.40034 0.25592 0.0
C1015 C 0.41135 0.38972 0.19177 0.0
C1016 C 0.41934 0.40845 0.17263 0.0
C1017 C 0.38989 0.37607 0.18675 0.0
C1018 C 0.37983 0.35696 0.20681 0.0
C1019 C 0.37425 0.36353 0.23418 0.0
C1020 C 0.36497 0.34537 0.25303 0.0
C1021 C 0.361 0.32062 0.2447 0.0
C1022 C 0.36624 0.314 0.21748 0.0
C1023 C 0.37555 0.33209 0.19855 0.0
H1024 H 0.35382 0.30659 0.25933 0.0
H1025 H 0.44044 0.48435 0.07586 0.0
H1026 H 0.74138 0.58822 0.62175 0.0
H1027 H 0.71543 0.59625 0.66261 0.0
H1028 H 0.6913 0.66805 0.62708 0.0
H1029 H 0.71705 0.66012 0.58582 0.0
H1030 H 0.69804 0.66603 0.68841 0.0
H1031 H 0.65719 0.62479 0.61507 0.0
H1032 H 0.65406 0.59203 0.58011 0.0
H1033 H 0.65725 0.5334 0.643 0.0
H1034 H 0.66084 0.56584 0.6783 0.0
H1035 H 0.58191 0.6786 0.76065 0.0
H1036 H 0.6159 0.67792 0.72647 0.0
H1037 H 0.62931 0.59828 0.74511 0.0
H1038 H 0.59509 0.59861 0.7787 0.0
H1039 H 0.62906 0.60572 0.69226 0.0
H1040 H 0.6677 0.64563 0.76625 0.0
H1041 H 0.67227 0.67736 0.802 0.0
H1042 H 0.67455 0.7371 0.74022 0.0
H1043 H 0.66963 0.70575 0.7041 0.0
C1044 C 0.73111 0.60606 0.62285 0.0
C1045 C 0.73098 0.62335 0.60032 0.0
C1046 C 0.71631 0.6106 0.64625 0.0
C1047 C 0.70131 0.63259 0.64763 0.0
C1048 C 0.70279 0.65098 0.62632 0.0
C1049 C 0.71743 0.64634 0.60273 0.0
C1050 C 0.68166 0.63447 0.66924 0.0
C1051 C 0.68278 0.65308 0.68921 0.0
C1052 C 0.66208 0.61722 0.67039 0.0
C1053 C 0.65956 0.59772 0.64926 0.0
C1054 C 0.65744 0.6049 0.62141 0.0
C1055 C 0.65555 0.5864 0.60154 0.0
C1056 C 0.65552 0.56065 0.60932 0.0
C1057 C 0.65731 0.55335 0.637 0.0
C1058 C 0.65927 0.57179 0.65694 0.0
C1059 C 0.59216 0.66096 0.75756 0.0
C1060 C 0.58567 0.63863 0.77234 0.0
C1061 C 0.6117 0.66065 0.73812 0.0
C1062 C 0.62533 0.6381 0.7334 0.0
C1063 C 0.61904 0.61589 0.74836 0.0
C1064 C 0.59942 0.61612 0.76757 0.0
C1065 C 0.64537 0.63717 0.71195 0.0
C1066 C 0.64427 0.61873 0.69174 0.0
C1067 C 0.66501 0.65447 0.71083 0.0
C1068 C 0.66804 0.67336 0.73249 0.0
C1069 C 0.66897 0.66556 0.7603 0.0
C1070 C 0.67166 0.68347 0.78063 0.0
C1071 C 0.67363 0.70924 0.7734 0.0
C1072 C 0.67298 0.71714 0.7458 0.0
C1073 C 0.67026 0.6993 0.72538 0.0
H1074 H 0.67571 0.72308 0.78917 0.0
H1075 H 0.65406 0.54635 0.59391 0.0
H1076 H 0.68369 0.36555 0.07445 0.0
H1077 H 0.65573 0.36161 0.11448 0.0
H1078 H 0.71508 0.37698 0.16774 0.0
H1079 H 0.7434 0.38067 0.12766 0.0
H1080 H 0.68392 0.3407 0.19025 0.0
H1081 H 0.67789 0.42451 0.15019 0.0
H1082 H 0.6729 0.45639 0.11264 0.0
H1083 H 0.60112 0.42842 0.09791 0.0
H1084 H 0.60584 0.39611 0.13512 0.0
H1085 H 0.57551 0.40765 0.27407 0.0
H1086 H 0.61067 0.40874 0.24157 0.0
H1087 H 0.60325 0.32866 0.22768 0.0
H1088 H 0.56841 0.32722 0.26051 0.0
H1089 H 0.61198 0.40039 0.18882 0.0
H1090 H 0.65889 0.30189 0.21075 0.0
H1091 H 0.66544 0.27236 0.25014 0.0
H1092 H 0.6586 0.33452 0.3055 0.0
H1093 H 0.65237 0.36447 0.26643 0.0
C1094 C 0.69093 0.36774 0.09467 0.0
C1095 C 0.71569 0.37377 0.09786 0.0
C1096 C 0.6749 0.36552 0.11753 0.0
C1097 C 0.68326 0.36949 0.14398 0.0
C1098 C 0.70828 0.37397 0.14745 0.0
C1099 C 0.7244 0.37612 0.12453 0.0
C1100 C 0.66544 0.37073 0.16761 0.0
C1101 C 0.66819 0.35373 0.19003 0.0
C1102 C 0.6453 0.38822 0.16756 0.0
C1103 C 0.64231 0.40776 0.1453 0.0
C1104 C 0.66112 0.42504 0.13881 0.0
C1105 C 0.65833 0.4432 0.11761 0.0
C1106 C 0.63673 0.44439 0.10286 0.0
C1107 C 0.61785 0.42746 0.10933 0.0
C1108 C 0.62056 0.40923 0.1305 0.0
C1109 C 0.58143 0.3902 0.26427 0.0
C1110 C 0.56905 0.36736 0.26988 0.0
C1111 C 0.60155 0.39087 0.24568 0.0
C1112 C 0.60972 0.36875 0.23237 0.0
C1113 C 0.59756 0.34587 0.23808 0.0
C1114 C 0.57752 0.34514 0.25676 0.0
C1115 C 0.63001 0.36989 0.21129 0.0
C1116 C 0.62774 0.38739 0.18924 0.0
C1117 C 0.65079 0.35321 0.21203 0.0
C1118 C 0.65494 0.33539 0.23565 0.0
C1119 C 0.65891 0.30928 0.23131 0.0
C1120 C 0.66254 0.29246 0.25359 0.0
C1121 C 0.66236 0.30155 0.28031 0.0
C1122 C 0.65865 0.32749 0.2848 0.0
C1123 C 0.65503 0.34439 0.2626 0.0
H1124 H 0.66515 0.28849 0.29754 0.0
H1125 H 0.63461 0.45847 0.08645 0.0
H1126 H 0.34952 0.64042 0.59261 0.0
H1127 H 0.37805 0.64513 0.62963 0.0
H1128 H 0.32487 0.61346 0.68785 0.0
H1129 H 0.29602 0.60871 0.65084 0.0
H1130 H 0.35146 0.65374 0.70913 0.0
H1131 H 0.36655 0.57495 0.66292 0.0
H1132 H 0.37397 0.54836 0.62235 0.0
H1133 H 0.44022 0.5885 0.60183 0.0
H1134 H 0.43298 0.6156 0.64205 0.0
H1135 H 0.46646 0.59264 0.78002 0.0
H1136 H 0.43187 0.59068 0.74955 0.0
H1137 H 0.43223 0.67225 0.73818 0.0
H1138 H 0.46662 0.67451 0.76888 0.0
H1139 H 0.42958 0.60422 0.69626 0.0
H1140 H 0.37295 0.69388 0.72904 0.0
H1141 H 0.3651 0.71892 0.77071 0.0
H1142 H 0.38045 0.65284 0.82142 0.0
H1143 H 0.38793 0.62739 0.78007 0.0
C1144 C 0.34367 0.63482 0.61333 0.0
C1145 C 0.3206 0.62388 0.61871 0.0
C1146 C 0.36003 0.63752 0.63446 0.0
C1147 C 0.35369 0.62929 0.66136 0.0
C1148 C 0.33011 0.61986 0.66718 0.0
C1149 C 0.31369 0.6171 0.646 0.0
C1150 C 0.37245 0.62854 0.68272 0.0
C1151 C 0.36855 0.64296 0.70638 0.0
C1152 C 0.3945 0.614 0.67932 0.0
C1153 C 0.39911 0.59744 0.65537 0.0
C1154 C 0.38262 0.57821 0.64966 0.0
C1155 C 0.3868 0.56304 0.62673 0.0
C1156 C 0.40752 0.56678 0.60949 0.0
C1157 C 0.42416 0.58564 0.61519 0.0
C1158 C 0.42004 0.6009 0.63805 0.0
C1159 C 0.45921 0.61021 0.77109 0.0
C1160 C 0.46946 0.63374 0.77686 0.0
C1161 C 0.43942 0.60903 0.75366 0.0
C1162 C 0.42938 0.63132 0.74174 0.0
C1163 C 0.43947 0.65484 0.74747 0.0
C1164 C 0.45925 0.65606 0.76492 0.0
C1165 C 0.40893 0.62989 0.72249 0.0
C1166 C 0.4125 0.61501 0.69915 0.0
C1167 C 0.38649 0.64373 0.72644 0.0
C1168 C 0.38125 0.65877 0.75144 0.0
C1169 C 0.37449 0.68466 0.74908 0.0
C1170 C 0.37012 0.69895 0.77265 0.0
C1171 C 0.37236 0.68752 0.79871 0.0
C1172 C 0.37879 0.66173 0.80125 0.0
C1173 C 0.38311 0.64736 0.77775 0.0
H1174 H 0.36908 0.69865 0.81691 0.0
H1175 H 0.41072 0.55504 0.59174 0.0
H1176 H 0.83049 0.91041 0.08773 0.0
H1177 H 0.85498 0.90476 0.12854 0.0
H1178 H 0.85479 0.82343 0.11984 0.0
H1179 H 0.83017 0.82885 0.07873 0.0
H1180 H 0.84958 0.84006 0.17591 0.0
H1181 H 0.90216 0.8518 0.09522 0.0
H1182 H 0.91578 0.87356 0.05206 0.0
H1183 H 0.9284 0.94149 0.09601 0.0
H1184 H 0.91446 0.92025 0.1394 0.0
H1185 H 0.95619 0.81418 0.25588 0.0
H1186 H 0.92586 0.81577 0.21984 0.0
H1187 H 0.9277 0.89771 0.21768 0.0
H1188 H 0.95797 0.8964 0.25345 0.0
H1189 H 0.93199 0.87859 0.16665 0.0
H1190 H 0.87921 0.86831 0.24677 0.0
H1191 H 0.86448 0.84803 0.2903 0.0
H1192 H 0.85167 0.77897 0.24842 0.0
H1193 H 0.86664 0.79876 0.20464 0.0
C1194 C 0.83529 0.89126 0.09466 0.0
C1195 C 0.82863 0.87008 0.07976 0.0
C1196 C 0.84931 0.8881 0.118 0.0
C1197 C 0.85695 0.86371 0.12693 0.0
C1198 C 0.8491 0.8424 0.11318 0.0
C1199 C 0.8351 0.84555 0.08968 0.0
C1200 C 0.87476 0.86082 0.14919 0.0
C1201 C 0.86774 0.84812 0.17381 0.0
C1202 C 0.89826 0.8718 0.14652 0.0
C1203 C 0.90705 0.8845 0.12052 0.0
C1204 C 0.90767 0.87143 0.09565 0.0
C1205 C 0.91547 0.88367 0.07115 0.0
C1206 C 0.92289 0.90891 0.07128 0.0
C1207 C 0.92262 0.92195 0.09594 0.0
C1208 C 0.91479 0.90981 0.1205 0.0
C1209 C 0.95009 0.83255 0.24783 0.0
C1210 C 0.95963 0.85515 0.25756 0.0
C1211 C 0.93267 0.83342 0.22731 0.0
C1212 C 0.92448 0.85687 0.21616 0.0
C1213 C 0.93381 0.87941 0.22596 0.0
C1214 C 0.9511 0.87859 0.2465 0.0
C1215 C 0.90679 0.85804 0.19362 0.0
C1216 C 0.91389 0.87039 0.16881 0.0
C1217 C 0.88337 0.84686 0.19624 0.0
C1218 C 0.87431 0.83492 0.22249 0.0
C1219 C 0.87346 0.84872 0.24688 0.0
C1220 C 0.86502 0.83734 0.27159 0.0
C1221 C 0.85722 0.8122 0.27214 0.0
C1222 C 0.85776 0.79843 0.24796 0.0
C1223 C 0.8662 0.80972 0.22319 0.0
H1224 H 0.85069 0.80341 0.2913 0.0
H1225 H 0.92891 0.91835 0.05228 0.0
H1226 H 0.23967 0.12902 0.58482 0.0
H1227 H 0.21442 0.13725 0.62631 0.0
H1228 H 0.15046 0.1483 0.57697 0.0
H1229 H 0.17568 0.14113 0.53548 0.0
H1230 H 0.14675 0.17904 0.61731 0.0
H1231 H 0.16555 0.08974 0.60877 0.0
H1232 H 0.19256 0.05169 0.60416 0.0
H1233 H 0.22539 0.06743 0.68069 0.0
H1234 H 0.19877 0.10578 0.68556 0.0
H1235 H 0.07113 0.10415 0.72983 0.0
H1236 H 0.10153 0.10575 0.69194 0.0
H1237 H 0.11942 0.18223 0.71284 0.0
H1238 H 0.08826 0.1811 0.75027 0.0
H1239 H 0.14825 0.10979 0.68843 0.0
H1240 H 0.13743 0.21571 0.65534 0.0
H1241 H 0.10579 0.25007 0.65614 0.0
H1242 H 0.04889 0.19479 0.65656 0.0
H1243 H 0.08018 0.16015 0.65542 0.0
C1244 C 0.22031 0.13366 0.58279 0.0
C1245 C 0.20963 0.13414 0.55688 0.0
C1246 C 0.20587 0.13825 0.60653 0.0
C1247 C 0.18042 0.14282 0.60484 0.0
C1248 C 0.17003 0.14475 0.57885 0.0
C1249 C 0.1845 0.14057 0.55511 0.0
C1250 C 0.1642 0.14368 0.63 0.0
C1251 C 0.14721 0.164 0.63298 0.0
C1252 C 0.1644 0.12382 0.65021 0.0
C1253 C 0.1804 0.10077 0.64736 0.0
C1254 C 0.17866 0.08518 0.62451 0.0
C1255 C 0.19387 0.06355 0.62186 0.0
C1256 C 0.21073 0.05719 0.64208 0.0
C1257 C 0.21236 0.07242 0.66502 0.0
C1258 C 0.19722 0.09409 0.66773 0.0
C1259 C 0.08154 0.12132 0.72642 0.0
C1260 C 0.07716 0.14255 0.74297 0.0
C1261 C 0.09899 0.12218 0.70476 0.0
C1262 C 0.11263 0.14419 0.69931 0.0
C1263 C 0.10879 0.16521 0.71627 0.0
C1264 C 0.09102 0.16451 0.73771 0.0
C1265 C 0.1306 0.14501 0.67563 0.0
C1266 C 0.14799 0.12504 0.67299 0.0
C1267 C 0.13012 0.16468 0.65522 0.0
C1268 C 0.11115 0.18537 0.65563 0.0
C1269 C 0.11816 0.21092 0.65553 0.0
C1270 C 0.10029 0.23043 0.65605 0.0
C1271 C 0.07534 0.22462 0.6565 0.0
C1272 C 0.06821 0.19927 0.65632 0.0
C1273 C 0.08601 0.17969 0.65577 0.0
H1274 H 0.06154 0.23975 0.65693 0.0
H1275 H 0.22249 0.04044 0.64001 0.0
H1276 H 0.23189 0.84517 0.09647 0.0
H1277 H 0.20703 0.83395 0.13773 0.0
H1278 H 0.1841 0.91257 0.14544 0.0
H1279 H 0.20933 0.92398 0.10496 0.0
H1280 H 0.19031 0.89202 0.1946 0.0
H1281 H 0.14922 0.86847 0.11229 0.0
H1282 H 0.14562 0.84575 0.06896 0.0
H1283 H 0.15444 0.77416 0.11231 0.0
H1284 H 0.15838 0.79651 0.15586 0.0
H1285 H 0.07193 0.89487 0.25436 0.0
H1286 H 0.10812 0.8965 0.22376 0.0
H1287 H 0.11945 0.81548 0.23447 0.0
H1288 H 0.08274 0.81351 0.265 0.0
H1289 H 0.12416 0.83059 0.18108 0.0
H1290 H 0.15661 0.85643 0.26563 0.0
H1291 H 0.15677 0.88115 0.30796 0.0
H1292 H 0.16186 0.95048 0.25982 0.0
H1293 H 0.16136 0.92623 0.21717 0.0
C1294 C 0.22183 0.8601 0.10722 0.0
C1295 C 0.22234 0.88542 0.09724 0.0
C1296 C 0.20758 0.85365 0.13074 0.0
C1297 C 0.19334 0.87236 0.1444 0.0
C1298 C 0.19488 0.8978 0.13525 0.0
C1299 C 0.20926 0.90428 0.11197 0.0
C1300 C 0.1754 0.86553 0.1669 0.0
C1301 C 0.17586 0.87858 0.19167 0.0
C1302 C 0.15684 0.84757 0.16335 0.0
C1303 C 0.1544 0.83414 0.13723 0.0
C1304 C 0.15056 0.84789 0.11253 0.0
C1305 C 0.14844 0.83508 0.08795 0.0
C1306 C 0.14989 0.80853 0.08787 0.0
C1307 C 0.15338 0.79473 0.11239 0.0
C1308 C 0.15556 0.80744 0.13702 0.0
C1309 C 0.08207 0.87733 0.25035 0.0
C1310 C 0.0744 0.85404 0.26225 0.0
C1311 C 0.1029 0.87835 0.23295 0.0
C1312 C 0.11676 0.8562 0.22728 0.0
C1313 C 0.10909 0.83283 0.23879 0.0
C1314 C 0.08811 0.83175 0.25619 0.0
C1315 C 0.13868 0.8576 0.20843 0.0
C1316 C 0.13897 0.84354 0.18435 0.0
C1317 C 0.15775 0.87486 0.21252 0.0
C1318 C 0.15885 0.88948 0.23816 0.0
C1319 C 0.15769 0.87695 0.26405 0.0
C1320 C 0.15783 0.89089 0.28811 0.0
C1321 C 0.15929 0.91737 0.28658 0.0
C1322 C 0.16074 0.92996 0.26097 0.0
C1323 C 0.16058 0.91612 0.23684 0.0
H1324 H 0.15931 0.92813 0.30523 0.0
H1325 H 0.14823 0.79865 0.06882 0.0
H1326 H 0.8006 0.10854 0.61584 0.0
H1327 H 0.82845 0.11506 0.65327 0.0
H1328 H 0.87929 0.15248 0.59648 0.0
H1329 H 0.85179 0.14568 0.55892 0.0
H1330 H 0.90246 0.11722 0.62561 0.0
H1331 H 0.84582 0.18573 0.64527 0.0
H1332 H 0.80525 0.20613 0.65461 0.0
H1333 H 0.79505 0.15871 0.72704 0.0
H1334 H 0.83543 0.13777 0.71793 0.0
H1335 H 0.95785 0.17839 0.75095 0.0
H1336 H 0.92586 0.17767 0.71703 0.0
H1337 H 0.93212 0.09586 0.71555 0.0
H1338 H 0.96431 0.09631 0.7493 0.0
H1339 H 0.88077 0.15592 0.71532 0.0
H1340 H 0.92816 0.07834 0.64894 0.0
H1341 H 0.96994 0.06128 0.63836 0.0
H1342 H 0.00049 0.13329 0.65641 0.0
H1343 H 0.95888 0.15086 0.6667 0.0
C1344 C 0.81753 0.1185 0.61139 0.0
C1345 C 0.82404 0.12645 0.58435 0.0
C1346 C 0.83341 0.12227 0.63284 0.0
C1347 C 0.85596 0.13428 0.62769 0.0
C1348 C 0.86205 0.14306 0.6009 0.0
C1349 C 0.84625 0.13922 0.57946 0.0
C1350 C 0.87396 0.13619 0.64974 0.0
C1351 C 0.89767 0.12571 0.64519 0.0
C1352 C 0.86784 0.14747 0.67523 0.0
C1353 C 0.84355 0.16002 0.68077 0.0
C1354 C 0.83484 0.17951 0.66307 0.0
C1355 C 0.81189 0.19119 0.66835 0.0
C1356 C 0.79755 0.18368 0.69137 0.0
C1357 C 0.80616 0.16449 0.7092 0.0
C1358 C 0.82909 0.15272 0.704 0.0
C1359 C 0.95237 0.16019 0.74357 0.0
C1360 C 0.9639 0.13741 0.75267 0.0
C1361 C 0.93397 0.15984 0.72428 0.0
C1362 C 0.92682 0.13676 0.71358 0.0
C1363 C 0.9376 0.11392 0.72333 0.0
C1364 C 0.95598 0.11423 0.74266 0.0
C1365 C 0.90903 0.13667 0.6912 0.0
C1366 C 0.88543 0.14741 0.69571 0.0
C1367 C 0.91534 0.12606 0.66544 0.0
C1368 C 0.94042 0.1158 0.65887 0.0
C1369 C 0.94379 0.09054 0.65054 0.0
C1370 C 0.96744 0.08079 0.64461 0.0
C1371 C 0.98786 0.09617 0.6468 0.0
C1372 C 0.98467 0.12137 0.65482 0.0
C1373 C 0.96106 0.13122 0.66073 0.0
H1374 H 0.00615 0.08857 0.64224 0.0
H1375 H 0.7798 0.19275 0.69542 0.0
loop_
_geom_bond_atom_site_label_1
_geom_bond_atom_site_label_2
_geom_bond_distance
_geom_bond_site_symmetry_2
_ccdc_geom_bond_type
O0 Cd1 2.300 . S
O0 C7 1.275 . S
Cd1 O0 2.300 . S
Cd1 O9 2.381 . S
Cd1 O10 2.378 . S
O2 Cd3 2.385 1_556 S
O2 C7 1.255 . S
Cd3 O2 2.385 1_554 S
Cd3 O4 2.317 . S
O4 Cd3 2.317 . S
O4 C5 1.232 . S
C5 O4 1.232 . S
C5 O6 1.218 . S
O6 C5 1.218 . S
C7 O0 1.275 . S
C7 O2 1.255 . S
C8 O9 1.258 . S
C8 O10 1.256 . S
O9 Cd1 2.381 . S
O9 C8 1.258 . S
O10 Cd1 2.378 . S
O10 C8 1.256 . S
O11 Cd12 2.300 . S
O11 C18 1.275 . S
Cd12 O11 2.300 . S
Cd12 O20 2.381 . S
Cd12 O21 2.378 . S
O13 Cd14 2.385 . S
O13 C18 1.255 . S
Cd14 O13 2.385 . S
Cd14 O15 2.317 . S
O15 Cd14 2.317 . S
O15 C16 1.232 . S
C16 O15 1.232 . S
C16 O17 1.218 . S
O17 C16 1.218 . S
C18 O11 1.275 . S
C18 O13 1.255 . S
C19 O20 1.258 . S
C19 O21 1.256 . S
O20 Cd12 2.381 . S
O20 C19 1.258 . S
O21 Cd12 2.378 . S
O21 C19 1.256 . S
O22 Cd23 2.300 . S
O22 C29 1.275 . S
Cd23 O22 2.300 . S
Cd23 O31 2.381 . S
Cd23 O32 2.378 . S
O24 Cd25 2.385 . S
O24 C29 1.255 1_554 S
Cd25 O24 2.385 . S
Cd25 O26 2.317 . S
O26 Cd25 2.317 . S
O26 C27 1.232 . S
C27 O26 1.232 . S
C27 O28 1.218 . S
O28 C27 1.218 . S
C29 O22 1.275 . S
C29 O24 1.255 1_556 S
C30 O31 1.258 . S
C30 O32 1.256 . S
O31 Cd23 2.381 . S
O31 C30 1.258 . S
O32 Cd23 2.378 . S
O32 C30 1.256 . S
O33 Cd34 2.300 . S
O33 C40 1.275 . S
Cd34 O33 2.300 . S
Cd34 O42 2.381 . S
Cd34 O43 2.378 . S
O35 Cd36 2.385 . S
O35 C40 1.255 . S
Cd36 O35 2.385 . S
Cd36 O37 2.317 . S
O37 Cd36 2.317 . S
O37 C38 1.232 . S
C38 O37 1.232 . S
C38 O39 1.218 . S
O39 C38 1.218 . S
C40 O33 1.275 . S
C40 O35 1.255 . S
C41 O42 1.258 . S
C41 O43 1.256 . S
O42 Cd34 2.381 . S
O42 C41 1.258 . S
O43 Cd34 2.378 . S
O43 C41 1.256 . S
O44 Cd45 2.300 . S
O44 C51 1.275 . S
Cd45 O44 2.300 . S
Cd45 O53 2.381 . S
Cd45 O54 2.378 . S
O46 Cd47 2.385 1_556 S
O46 C51 1.255 . S
Cd47 O46 2.385 1_554 S
Cd47 O48 2.317 . S
O48 Cd47 2.317 . S
O48 C49 1.232 . S
C49 O48 1.232 . S
C49 O50 1.218 . S
O50 C49 1.218 . S
C51 O44 1.275 . S
C51 O46 1.255 . S
C52 O53 1.258 . S
C52 O54 1.256 . S
O53 Cd45 2.381 . S
O53 C52 1.258 . S
O54 Cd45 2.378 . S
O54 C52 1.256 . S
O55 Cd56 2.300 . S
O55 C62 1.275 . S
Cd56 O55 2.300 . S
Cd56 O64 2.381 . S
Cd56 O65 2.378 . S
O57 Cd58 2.385 . S
O57 C62 1.255 . S
Cd58 O57 2.385 . S
Cd58 O59 2.317 . S
O59 Cd58 2.317 . S
O59 C60 1.232 . S
C60 O59 1.232 . S
C60 O61 1.218 . S
O61 C60 1.218 . S
C62 O55 1.275 . S
C62 O57 1.255 . S
C63 O64 1.258 . S
C63 O65 1.256 . S
O64 Cd56 2.381 . S
O64 C63 1.258 . S
O65 Cd56 2.378 . S
O65 C63 1.256 . S
O66 Cd67 2.300 . S
O66 C73 1.275 . S
Cd67 O66 2.300 . S
Cd67 O75 2.381 . S
Cd67 O76 2.378 . S
O68 Cd69 2.385 . S
O68 C73 1.255 1_554 S
Cd69 O68 2.385 . S
Cd69 O70 2.317 . S
O70 Cd69 2.317 . S
O70 C71 1.232 . S
C71 O70 1.232 . S
C71 O72 1.218 . S
O72 C71 1.218 . S
C73 O66 1.275 . S
C73 O68 1.255 1_556 S
C74 O75 1.258 . S
C74 O76 1.256 . S
O75 Cd67 2.381 . S
O75 C74 1.258 . S
O76 Cd67 2.378 . S
O76 C74 1.256 . S
O77 Cd78 2.300 . S
O77 C84 1.275 . S
Cd78 O77 2.300 . S
Cd78 O86 2.381 . S
Cd78 O87 2.378 . S
O79 Cd80 2.385 . S
O79 C84 1.255 . S
Cd80 O79 2.385 . S
Cd80 O81 2.317 . S
O81 Cd80 2.317 . S
O81 C82 1.232 . S
C82 O81 1.232 . S
C82 O83 1.218 . S
O83 C82 1.218 . S
C84 O77 1.275 . S
C84 O79 1.255 . S
C85 O86 1.258 . S
C85 O87 1.256 . S
O86 Cd78 2.381 . S
O86 C85 1.258 . S
O87 Cd78 2.378 . S
O87 C85 1.256 . S
Sc88 O91 2.025 . S
Sc88 O98 2.105 1_455 S
Sc88 O101 2.105 . S
Sc88 O104 2.105 . S
Sc88 O107 2.105 1_455 S
Sc89 O91 2.025 . S
Sc89 O99 2.105 1_455 S
Sc89 O103 2.105 . S
Sc89 O105 2.105 . S
Sc89 O109 2.105 1_455 S
Sc90 O91 2.025 . S
Sc90 O100 2.105 1_455 S
Sc90 O102 2.105 . S
Sc90 O106 2.105 . S
Sc90 O108 2.105 1_455 S
O91 Sc88 2.025 . S
O91 Sc89 2.025 . S
O91 Sc90 2.025 . S
C92 O98 1.268 . S
C92 O108 1.268 . S
C93 O99 1.268 . S
C93 O107 1.268 . S
C94 O100 1.268 . S
C94 O109 1.268 . S
C95 O101 1.268 . S
C95 O105 1.268 . S
C96 O102 1.268 . S
C96 O104 1.268 . S
C97 O103 1.268 . S
C97 O106 1.268 . S
O98 Sc88 2.105 1_655 S
O98 C92 1.268 . S
O99 Sc89 2.105 1_655 S
O99 C93 1.268 . S
O100 Sc90 2.105 1_655 S
O100 C94 1.268 . S
O101 Sc88 2.105 . S
O101 C95 1.268 . S
O102 Sc90 2.105 . S
O102 C96 1.268 . S
O103 Sc89 2.105 . S
O103 C97 1.268 . S
O104 Sc88 2.105 . S
O104 C96 1.268 . S
O105 Sc89 2.105 . S
O105 C95 1.268 . S
O106 Sc90 2.105 . S
O106 C97 1.268 . S
O107 Sc88 2.105 1_655 S
O107 C93 1.268 . S
O108 Sc90 2.105 1_655 S
O108 C92 1.268 . S
O109 Sc89 2.105 1_655 S
O109 C94 1.268 . S
Sc110 O113 2.025 . S
Sc110 O120 2.105 . S
Sc110 O123 2.105 1_455 S
Sc110 O126 2.105 1_455 S
Sc110 O129 2.105 . S
Sc111 O113 2.025 . S
Sc111 O121 2.105 . S
Sc111 O125 2.105 1_455 S
Sc111 O127 2.105 1_455 S
Sc111 O131 2.105 . S
Sc112 O113 2.025 . S
Sc112 O122 2.105 . S
Sc112 O124 2.105 1_455 S
Sc112 O128 2.105 1_455 S
Sc112 O130 2.105 . S
O113 Sc110 2.025 . S
O113 Sc111 2.025 . S
O113 Sc112 2.025 . S
C114 O120 1.268 . S
C114 O130 1.268 . S
C115 O121 1.268 . S
C115 O129 1.268 . S
C116 O122 1.268 . S
C116 O131 1.268 . S
C117 O123 1.268 . S
C117 O127 1.268 . S
C118 O124 1.268 . S
C118 O126 1.268 . S
C119 O125 1.268 . S
C119 O128 1.268 . S
O120 Sc110 2.105 . S
O120 C114 1.268 . S
O121 Sc111 2.105 . S
O121 C115 1.268 . S
O122 Sc112 2.105 . S
O122 C116 1.268 . S
O123 Sc110 2.105 1_655 S
O123 C117 1.268 . S
O124 Sc112 2.105 1_655 S
O124 C118 1.268 . S
O125 Sc111 2.105 1_655 S
O125 C119 1.268 . S
O126 Sc110 2.105 1_655 S
O126 C118 1.268 . S
O127 Sc111 2.105 1_655 S
O127 C117 1.268 . S
O128 Sc112 2.105 1_655 S
O128 C119 1.268 . S
O129 Sc110 2.105 . S
O129 C115 1.268 . S
O130 Sc112 2.105 . S
O130 C114 1.268 . S
O131 Sc111 2.105 . S
O131 C116 1.268 . S
Sc132 O135 2.025 . S
Sc132 O142 2.105 . S
Sc132 O145 2.105 . S
Sc132 O148 2.105 . S
Sc132 O151 2.105 . S
Sc133 O135 2.025 . S
Sc133 O143 2.105 . S
Sc133 O147 2.105 . S
Sc133 O149 2.105 . S
Sc133 O153 2.105 . S
Sc134 O135 2.025 . S
Sc134 O144 2.105 . S
Sc134 O146 2.105 . S
Sc134 O150 2.105 . S
Sc134 O152 2.105 . S
O135 Sc132 2.025 . S
O135 Sc133 2.025 . S
O135 Sc134 2.025 . S
C136 O142 1.268 . S
C136 O152 1.268 . S
C137 O143 1.268 . S
C137 O151 1.268 . S
C138 O144 1.268 . S
C138 O153 1.268 . S
C139 O145 1.268 . S
C139 O149 1.268 . S
C140 O146 1.268 . S
C140 O148 1.268 . S
C141 O147 1.268 . S
C141 O150 1.268 . S
O142 Sc132 2.105 . S
O142 C136 1.268 . S
O143 Sc133 2.105 . S
O143 C137 1.268 . S
O144 Sc134 2.105 . S
O144 C138 1.268 . S
O145 Sc132 2.105 . S
O145 C139 1.268 . S
O146 Sc134 2.105 . S
O146 C140 1.268 . S
O147 Sc133 2.105 . S
O147 C141 1.268 . S
O148 Sc132 2.105 . S
O148 C140 1.268 . S
O149 Sc133 2.105 . S
O149 C139 1.268 . S
O150 Sc134 2.105 . S
O150 C141 1.268 . S
O151 Sc132 2.105 . S
O151 C137 1.268 . S
O152 Sc134 2.105 . S
O152 C136 1.268 . S
O153 Sc133 2.105 . S
O153 C138 1.268 . S
Sc154 O157 2.025 . S
Sc154 O164 2.105 . S
Sc154 O167 2.105 . S
Sc154 O170 2.105 . S
Sc154 O173 2.105 . S
Sc155 O157 2.025 . S
Sc155 O165 2.105 . S
Sc155 O169 2.105 . S
Sc155 O171 2.105 . S
Sc155 O175 2.105 . S
Sc156 O157 2.025 . S
Sc156 O166 2.105 . S
Sc156 O168 2.105 . S
Sc156 O172 2.105 . S
Sc156 O174 2.105 . S
O157 Sc154 2.025 . S
O157 Sc155 2.025 . S
O157 Sc156 2.025 . S
C158 O164 1.268 . S
C158 O174 1.268 . S
C159 O165 1.268 . S
C159 O173 1.268 . S
C160 O166 1.268 . S
C160 O175 1.268 . S
C161 O167 1.268 . S
C161 O171 1.268 . S
C162 O168 1.268 . S
C162 O170 1.268 . S
C163 O169 1.268 . S
C163 O172 1.268 . S
O164 Sc154 2.105 . S
O164 C158 1.268 . S
O165 Sc155 2.105 . S
O165 C159 1.268 . S
O166 Sc156 2.105 . S
O166 C160 1.268 . S
O167 Sc154 2.105 . S
O167 C161 1.268 . S
O168 Sc156 2.105 . S
O168 C162 1.268 . S
O169 Sc155 2.105 . S
O169 C163 1.268 . S
O170 Sc154 2.105 . S
O170 C162 1.268 . S
O171 Sc155 2.105 . S
O171 C161 1.268 . S
O172 Sc156 2.105 . S
O172 C163 1.268 . S
O173 Sc154 2.105 . S
O173 C159 1.268 . S
O174 Sc156 2.105 . S
O174 C158 1.268 . S
O175 Sc155 2.105 . S
O175 C160 1.268 . S
H176 C194 0.951 . S
H177 C196 0.951 . S
H178 C198 0.950 . S
H179 C199 0.950 . S
H180 C201 0.950 . S
H181 C204 0.950 . S
H182 C205 0.950 . S
H183 C207 0.950 . S
H184 C208 0.950 . S
H185 C209 0.951 . S
H186 C211 0.951 . S
H187 C213 0.950 . S
H188 C214 0.950 . S
H189 C216 0.950 . S
H190 C219 0.950 . S
H191 C220 0.950 . S
H192 C222 0.950 . S
H193 C223 0.950 . S
C194 H176 0.951 . S
C194 C195 1.366 . S
C194 C196 1.388 . S
C195 C194 1.366 . S
C195 C199 1.385 . S
C196 H177 0.951 . S
C196 C194 1.388 . S
C196 C197 1.366 . S
C197 C196 1.366 . S
C197 C198 1.414 . S
C197 C200 1.499 . S
C198 H178 0.950 . S
C198 C197 1.414 . S
C198 C199 1.374 . S
C199 H179 0.950 . S
C199 C195 1.385 . S
C199 C198 1.374 . S
C200 C197 1.499 . S
C200 C201 1.373 . S
C200 C202 1.389 . S
C201 H180 0.950 . S
C201 C200 1.373 . S
C201 C217 1.377 . S
C202 C200 1.389 . S
C202 C203 1.524 . S
C202 C216 1.377 . S
C203 C202 1.524 . S
C203 C204 1.397 . S
C203 C208 1.363 . S
C204 H181 0.950 . S
C204 C203 1.397 . S
C204 C205 1.334 . S
C205 H182 0.950 . S
C205 C204 1.334 . S
C205 C206 1.287 . S
C206 C205 1.287 . S
C206 C207 1.524 . S
C206 H225 0.913 . S
C207 H183 0.950 . S
C207 C206 1.524 . S
C207 C208 1.415 . S
C208 H184 0.950 . S
C208 C203 1.363 . S
C208 C207 1.415 . S
C209 H185 0.951 . S
C209 C210 1.366 . S
C209 C211 1.388 . S
C210 C209 1.366 . S
C210 C214 1.385 . S
C211 H186 0.951 . S
C211 C209 1.388 . S
C211 C212 1.366 . S
C212 C211 1.366 . S
C212 C213 1.414 . S
C212 C215 1.499 . S
C213 H187 0.950 . S
C213 C212 1.414 . S
C213 C214 1.374 . S
C214 H188 0.950 . S
C214 C210 1.385 . S
C214 C213 1.374 . S
C215 C212 1.499 . S
C215 C216 1.373 . S
C215 C217 1.389 . S
C216 H189 0.950 . S
C216 C202 1.377 . S
C216 C215 1.373 . S
C217 C201 1.377 . S
C217 C215 1.389 . S
C217 C218 1.524 . S
C218 C217 1.524 . S
C218 C219 1.397 . S
C218 C223 1.363 . S
C219 H190 0.950 . S
C219 C218 1.397 . S
C219 C220 1.334 . S
C220 H191 0.950 . S
C220 C219 1.334 . S
C220 C221 1.287 . S
C221 C220 1.287 . S
C221 C222 1.524 . S
C221 H224 0.999 . S
C222 H192 0.950 . S
C222 C221 1.524 . S
C222 C223 1.415 . S
C223 H193 0.950 . S
C223 C218 1.363 . S
C223 C222 1.415 . S
H224 C221 0.999 . S
H225 C206 0.913 . S
H226 C244 0.951 . S
H227 C246 0.951 . S
H228 C248 0.950 . S
H229 C249 0.950 . S
H230 C251 0.950 . S
H231 C254 0.950 . S
H232 C255 0.950 . S
H233 C257 0.950 . S
H234 C258 0.950 . S
H235 C259 0.951 . S
H236 C261 0.951 . S
H237 C263 0.950 . S
H238 C264 0.950 . S
H239 C266 0.950 . S
H240 C269 0.950 . S
H241 C270 0.950 . S
H242 C272 0.950 . S
H243 C273 0.950 . S
C244 H226 0.951 . S
C244 C245 1.366 . S
C244 C246 1.388 . S
C245 C244 1.366 . S
C245 C249 1.385 . S
C246 H227 0.951 . S
C246 C244 1.388 . S
C246 C247 1.366 . S
C247 C246 1.366 . S
C247 C248 1.414 . S
C247 C250 1.499 . S
C248 H228 0.950 . S
C248 C247 1.414 . S
C248 C249 1.374 . S
C249 H229 0.950 . S
C249 C245 1.385 . S
C249 C248 1.374 . S
C250 C247 1.499 . S
C250 C251 1.373 . S
C250 C252 1.389 . S
C251 H230 0.950 . S
C251 C250 1.373 . S
C251 C267 1.377 . S
C252 C250 1.389 . S
C252 C253 1.524 . S
C252 C266 1.377 . S
C253 C252 1.524 . S
C253 C254 1.397 . S
C253 C258 1.363 . S
C254 H231 0.950 . S
C254 C253 1.397 . S
C254 C255 1.334 . S
C255 H232 0.950 . S
C255 C254 1.334 . S
C255 C256 1.287 . S
C256 C255 1.287 . S
C256 C257 1.524 . S
C256 H275 0.913 . S
C257 H233 0.950 . S
C257 C256 1.524 . S
C257 C258 1.415 . S
C258 H234 0.950 . S
C258 C253 1.363 . S
C258 C257 1.415 . S
C259 H235 0.951 . S
C259 C260 1.366 . S
C259 C261 1.388 . S
C260 C259 1.366 . S
C260 C264 1.385 . S
C261 H236 0.951 . S
C261 C259 1.388 . S
C261 C262 1.366 . S
C262 C261 1.366 . S
C262 C263 1.414 . S
C262 C265 1.499 . S
C263 H237 0.950 . S
C263 C262 1.414 . S
C263 C264 1.374 . S
C264 H238 0.950 . S
C264 C260 1.385 . S
C264 C263 1.374 . S
C265 C262 1.499 . S
C265 C266 1.373 . S
C265 C267 1.389 . S
C266 H239 0.950 . S
C266 C252 1.377 . S
C266 C265 1.373 . S
C267 C251 1.377 . S
C267 C265 1.389 . S
C267 C268 1.524 . S
C268 C267 1.524 . S
C268 C269 1.397 . S
C268 C273 1.363 . S
C269 H240 0.950 . S
C269 C268 1.397 . S
C269 C270 1.334 . S
C270 H241 0.950 . S
C270 C269 1.334 . S
C270 C271 1.287 . S
C271 C270 1.287 . S
C271 C272 1.524 . S
C271 H274 0.999 . S
C272 H242 0.950 . S
C272 C271 1.524 . S
C272 C273 1.415 . S
C273 H243 0.950 . S
C273 C268 1.363 . S
C273 C272 1.415 . S
H274 C271 0.999 . S
H275 C256 0.913 . S
H276 C294 0.951 . S
H277 C296 0.951 . S
H278 C298 0.950 . S
H279 C299 0.950 . S
H280 C301 0.950 . S
H281 C304 0.950 . S
H282 C305 0.950 . S
H283 C307 0.950 . S
H284 C308 0.950 . S
H285 C309 0.951 . S
H286 C311 0.951 . S
H287 C313 0.950 . S
H288 C314 0.950 . S
H289 C316 0.950 . S
H290 C319 0.950 . S
H291 C320 0.950 . S
H292 C322 0.950 . S
H293 C323 0.950 . S
C294 H276 0.951 . S
C294 C295 1.366 . S
C294 C296 1.388 . S
C295 C294 1.366 . S
C295 C299 1.385 . S
C296 H277 0.951 . S
C296 C294 1.388 . S
C296 C297 1.366 . S
C297 C296 1.366 . S
C297 C298 1.414 . S
C297 C300 1.499 . S
C298 H278 0.950 . S
C298 C297 1.414 . S
C298 C299 1.374 . S
C299 H279 0.950 . S
C299 C295 1.385 . S
C299 C298 1.374 . S
C300 C297 1.499 . S
C300 C301 1.373 . S
C300 C302 1.389 . S
C301 H280 0.950 . S
C301 C300 1.373 . S
C301 C317 1.377 . S
C302 C300 1.389 . S
C302 C303 1.524 . S
C302 C316 1.377 . S
C303 C302 1.524 . S
C303 C304 1.397 . S
C303 C308 1.363 . S
C304 H281 0.950 . S
C304 C303 1.397 . S
C304 C305 1.334 . S
C305 H282 0.950 . S
C305 C304 1.334 . S
C305 C306 1.287 . S
C306 C305 1.287 . S
C306 C307 1.524 . S
C306 H325 0.913 . S
C307 H283 0.950 . S
C307 C306 1.524 . S
C307 C308 1.415 . S
C308 H284 0.950 . S
C308 C303 1.363 . S
C308 C307 1.415 . S
C309 H285 0.951 . S
C309 C310 1.366 . S
C309 C311 1.388 . S
C310 C309 1.366 . S
C310 C314 1.385 . S
C311 H286 0.951 . S
C311 C309 1.388 . S
C311 C312 1.366 . S
C312 C311 1.366 . S
C312 C313 1.414 . S
C312 C315 1.499 . S
C313 H287 0.950 . S
C313 C312 1.414 . S
C313 C314 1.374 . S
C314 H288 0.950 . S
C314 C310 1.385 . S
C314 C313 1.374 . S
C315 C312 1.499 . S
C315 C316 1.373 . S
C315 C317 1.389 . S
C316 H289 0.950 . S
C316 C302 1.377 . S
C316 C315 1.373 . S
C317 C301 1.377 . S
C317 C315 1.389 . S
C317 C318 1.524 . S
C318 C317 1.524 . S
C318 C319 1.397 . S
C318 C323 1.363 . S
C319 H290 0.950 . S
C319 C318 1.397 . S
C319 C320 1.334 . S
C320 H291 0.950 . S
C320 C319 1.334 . S
C320 C321 1.287 . S
C321 C320 1.287 . S
C321 C322 1.524 . S
C321 H324 0.999 . S
C322 H292 0.950 . S
C322 C321 1.524 . S
C322 C323 1.415 . S
C323 H293 0.950 . S
C323 C318 1.363 . S
C323 C322 1.415 . S
H324 C321 0.999 . S
H325 C306 0.913 . S
H326 C344 0.951 . S
H327 C346 0.951 . S
H328 C348 0.950 . S
H329 C349 0.950 . S
H330 C351 0.950 . S
H331 C354 0.950 . S
H332 C355 0.950 . S
H333 C357 0.950 . S
H334 C358 0.950 . S
H335 C359 0.951 . S
H336 C361 0.951 . S
H337 C363 0.950 . S
H338 C364 0.950 . S
H339 C366 0.950 . S
H340 C369 0.950 . S
H341 C370 0.950 . S
H342 C372 0.950 . S
H343 C373 0.950 . S
C344 H326 0.951 . S
C344 C345 1.366 . S
C344 C346 1.388 . S
C345 C344 1.366 . S
C345 C349 1.385 . S
C346 H327 0.951 . S
C346 C344 1.388 . S
C346 C347 1.366 . S
C347 C346 1.366 . S
C347 C348 1.414 . S
C347 C350 1.499 . S
C348 H328 0.950 . S
C348 C347 1.414 . S
C348 C349 1.374 . S
C349 H329 0.950 . S
C349 C345 1.385 . S
C349 C348 1.374 . S
C350 C347 1.499 . S
C350 C351 1.373 . S
C350 C352 1.389 . S
C351 H330 0.950 . S
C351 C350 1.373 . S
C351 C367 1.377 . S
C352 C350 1.389 . S
C352 C353 1.524 . S
C352 C366 1.377 . S
C353 C352 1.524 . S
C353 C354 1.397 . S
C353 C358 1.363 . S
C354 H331 0.950 . S
C354 C353 1.397 . S
C354 C355 1.334 . S
C355 H332 0.950 . S
C355 C354 1.334 . S
C355 C356 1.287 . S
C356 C355 1.287 . S
C356 C357 1.524 . S
C356 H375 0.913 . S
C357 H333 0.950 . S
C357 C356 1.524 . S
C357 C358 1.415 . S
C358 H334 0.950 . S
C358 C353 1.363 . S
C358 C357 1.415 . S
C359 H335 0.951 . S
C359 C360 1.366 . S
C359 C361 1.388 . S
C360 C359 1.366 . S
C360 C364 1.385 . S
C361 H336 0.951 . S
C361 C359 1.388 . S
C361 C362 1.366 . S
C362 C361 1.366 . S
C362 C363 1.414 . S
C362 C365 1.499 . S
C363 H337 0.950 . S
C363 C362 1.414 . S
C363 C364 1.374 . S
C364 H338 0.950 . S
C364 C360 1.385 . S
C364 C363 1.374 . S
C365 C362 1.499 . S
C365 C366 1.373 . S
C365 C367 1.389 . S
C366 H339 0.950 . S
C366 C352 1.377 . S
C366 C365 1.373 . S
C367 C351 1.377 . S
C367 C365 1.389 . S
C367 C368 1.524 . S
C368 C367 1.524 . S
C368 C369 1.397 . S
C368 C373 1.363 . S
C369 H340 0.950 . S
C369 C368 1.397 . S
C369 C370 1.334 . S
C370 H341 0.950 . S
C370 C369 1.334 . S
C370 C371 1.287 . S
C371 C370 1.287 . S
C371 C372 1.524 . S
C371 H374 0.999 . S
C372 H342 0.950 . S
C372 C371 1.524 . S
C372 C373 1.415 . S
C373 H343 0.950 . S
C373 C368 1.363 . S
C373 C372 1.415 . S
H374 C371 0.999 . S
H375 C356 0.913 . S
H376 C394 0.951 . S
H377 C396 0.951 . S
H378 C398 0.950 . S
H379 C399 0.950 . S
H380 C401 0.950 . S
H381 C404 0.950 . S
H382 C405 0.950 . S
H383 C407 0.950 . S
H384 C408 0.950 . S
H385 C409 0.951 . S
H386 C411 0.951 . S
H387 C413 0.950 . S
H388 C414 0.950 . S
H389 C416 0.950 . S
H390 C419 0.950 . S
H391 C420 0.950 . S
H392 C422 0.950 . S
H393 C423 0.950 . S
C394 H376 0.951 . S
C394 C395 1.366 . S
C394 C396 1.388 . S
C395 C394 1.366 . S
C395 C399 1.385 . S
C396 H377 0.951 . S
C396 C394 1.388 . S
C396 C397 1.366 . S
C397 C396 1.366 . S
C397 C398 1.414 . S
C397 C400 1.499 . S
C398 H378 0.950 . S
C398 C397 1.414 . S
C398 C399 1.374 . S
C399 H379 0.950 . S
C399 C395 1.385 . S
C399 C398 1.374 . S
C400 C397 1.499 . S
C400 C401 1.373 . S
C400 C402 1.389 . S
C401 H380 0.950 . S
C401 C400 1.373 . S
C401 C417 1.377 . S
C402 C400 1.389 . S
C402 C403 1.524 . S
C402 C416 1.377 . S
C403 C402 1.524 . S
C403 C404 1.397 . S
C403 C408 1.363 . S
C404 H381 0.950 . S
C404 C403 1.397 . S
C404 C405 1.334 . S
C405 H382 0.950 . S
C405 C404 1.334 . S
C405 C406 1.287 . S
C406 C405 1.287 . S
C406 C407 1.524 . S
C406 H425 0.913 . S
C407 H383 0.950 . S
C407 C406 1.524 . S
C407 C408 1.415 . S
C408 H384 0.950 . S
C408 C403 1.363 . S
C408 C407 1.415 . S
C409 H385 0.951 . S
C409 C410 1.366 . S
C409 C411 1.388 . S
C410 C409 1.366 . S
C410 C414 1.385 . S
C411 H386 0.951 . S
C411 C409 1.388 . S
C411 C412 1.366 . S
C412 C411 1.366 . S
C412 C413 1.414 . S
C412 C415 1.499 . S
C413 H387 0.950 . S
C413 C412 1.414 . S
C413 C414 1.374 . S
C414 H388 0.950 . S
C414 C410 1.385 . S
C414 C413 1.374 . S
C415 C412 1.499 . S
C415 C416 1.373 . S
C415 C417 1.389 . S
C416 H389 0.950 . S
C416 C402 1.377 . S
C416 C415 1.373 . S
C417 C401 1.377 . S
C417 C415 1.389 . S
C417 C418 1.524 . S
C418 C417 1.524 . S
C418 C419 1.397 . S
C418 C423 1.363 . S
C419 H390 0.950 . S
C419 C418 1.397 . S
C419 C420 1.334 . S
C420 H391 0.950 . S
C420 C419 1.334 . S
C420 C421 1.287 . S
C421 C420 1.287 . S
C421 C422 1.524 . S
C421 H424 0.999 . S
C422 H392 0.950 . S
C422 C421 1.524 . S
C422 C423 1.415 . S
C423 H393 0.950 . S
C423 C418 1.363 . S
C423 C422 1.415 . S
H424 C421 0.999 . S
H425 C406 0.913 . S
H426 C444 0.951 . S
H427 C446 0.951 . S
H428 C448 0.950 . S
H429 C449 0.950 . S
H430 C451 0.950 . S
H431 C454 0.950 . S
H432 C455 0.950 . S
H433 C457 0.950 . S
H434 C458 0.950 . S
H435 C459 0.951 . S
H436 C461 0.951 . S
H437 C463 0.950 . S
H438 C464 0.950 . S
H439 C466 0.950 . S
H440 C469 0.950 . S
H441 C470 0.950 . S
H442 C472 0.950 . S
H443 C473 0.950 . S
C444 H426 0.951 . S
C444 C445 1.366 . S
C444 C446 1.388 . S
C445 C444 1.366 . S
C445 C449 1.385 . S
C446 H427 0.951 . S
C446 C444 1.388 . S
C446 C447 1.366 . S
C447 C446 1.366 . S
C447 C448 1.414 . S
C447 C450 1.499 . S
C448 H428 0.950 . S
C448 C447 1.414 . S
C448 C449 1.374 . S
C449 H429 0.950 . S
C449 C445 1.385 . S
C449 C448 1.374 . S
C450 C447 1.499 . S
C450 C451 1.373 . S
C450 C452 1.389 . S
C451 H430 0.950 . S
C451 C450 1.373 . S
C451 C467 1.377 . S
C452 C450 1.389 . S
C452 C453 1.524 . S
C452 C466 1.377 . S
C453 C452 1.524 . S
C453 C454 1.397 . S
C453 C458 1.363 . S
C454 H431 0.950 . S
C454 C453 1.397 . S
C454 C455 1.334 . S
C455 H432 0.950 . S
C455 C454 1.334 . S
C455 C456 1.287 . S
C456 C455 1.287 . S
C456 C457 1.524 . S
C456 H475 0.913 . S
C457 H433 0.950 . S
C457 C456 1.524 . S
C457 C458 1.415 . S
C458 H434 0.950 . S
C458 C453 1.363 . S
C458 C457 1.415 . S
C459 H435 0.951 . S
C459 C460 1.366 . S
C459 C461 1.388 . S
C460 C459 1.366 . S
C460 C464 1.385 . S
C461 H436 0.951 . S
C461 C459 1.388 . S
C461 C462 1.366 . S
C462 C461 1.366 . S
C462 C463 1.414 . S
C462 C465 1.499 . S
C463 H437 0.950 . S
C463 C462 1.414 . S
C463 C464 1.374 . S
C464 H438 0.950 . S
C464 C460 1.385 . S
C464 C463 1.374 . S
C465 C462 1.499 . S
C465 C466 1.373 . S
C465 C467 1.389 . S
C466 H439 0.950 . S
C466 C452 1.377 . S
C466 C465 1.373 . S
C467 C451 1.377 . S
C467 C465 1.389 . S
C467 C468 1.524 . S
C468 C467 1.524 . S
C468 C469 1.397 . S
C468 C473 1.363 . S
C469 H440 0.950 . S
C469 C468 1.397 . S
C469 C470 1.334 . S
C470 H441 0.950 . S
C470 C469 1.334 . S
C470 C471 1.287 . S
C471 C470 1.287 . S
C471 C472 1.524 . S
C471 H474 0.999 . S
C472 H442 0.950 . S
C472 C471 1.524 . S
C472 C473 1.415 . S
C473 H443 0.950 . S
C473 C468 1.363 . S
C473 C472 1.415 . S
H474 C471 0.999 . S
H475 C456 0.913 . S
H476 C494 0.951 . S
H477 C496 0.951 . S
H478 C498 0.950 . S
H479 C499 0.950 . S
H480 C501 0.950 . S
H481 C504 0.950 . S
H482 C505 0.950 . S
H483 C507 0.950 . S
H484 C508 0.950 . S
H485 C509 0.951 . S
H486 C511 0.951 . S
H487 C513 0.950 . S
H488 C514 0.950 . S
H489 C516 0.950 . S
H490 C519 0.950 . S
H491 C520 0.950 . S
H492 C522 0.950 . S
H493 C523 0.950 . S
C494 H476 0.951 . S
C494 C495 1.366 . S
C494 C496 1.388 . S
C495 C494 1.366 . S
C495 C499 1.385 . S
C496 H477 0.951 . S
C496 C494 1.388 . S
C496 C497 1.366 . S
C497 C496 1.366 . S
C497 C498 1.414 . S
C497 C500 1.499 . S
C498 H478 0.950 . S
C498 C497 1.414 . S
C498 C499 1.374 . S
C499 H479 0.950 . S
C499 C495 1.385 . S
C499 C498 1.374 . S
C500 C497 1.499 . S
C500 C501 1.373 . S
C500 C502 1.389 . S
C501 H480 0.950 . S
C501 C500 1.373 . S
C501 C517 1.377 . S
C502 C500 1.389 . S
C502 C503 1.524 . S
C502 C516 1.377 . S
C503 C502 1.524 . S
C503 C504 1.397 . S
C503 C508 1.363 . S
C504 H481 0.950 . S
C504 C503 1.397 . S
C504 C505 1.334 . S
C505 H482 0.950 . S
C505 C504 1.334 . S
C505 C506 1.287 . S
C506 C505 1.287 . S
C506 C507 1.524 . S
C506 H525 0.913 . S
C507 H483 0.950 . S
C507 C506 1.524 . S
C507 C508 1.415 . S
C508 H484 0.950 . S
C508 C503 1.363 . S
C508 C507 1.415 . S
C509 H485 0.951 . S
C509 C510 1.366 . S
C509 C511 1.388 . S
C510 C509 1.366 . S
C510 C514 1.385 . S
C511 H486 0.951 . S
C511 C509 1.388 . S
C511 C512 1.366 . S
C512 C511 1.366 . S
C512 C513 1.414 . S
C512 C515 1.499 . S
C513 H487 0.950 . S
C513 C512 1.414 . S
C513 C514 1.374 . S
C514 H488 0.950 . S
C514 C510 1.385 . S
C514 C513 1.374 . S
C515 C512 1.499 . S
C515 C516 1.373 . S
C515 C517 1.389 . S
C516 H489 0.950 . S
C516 C502 1.377 . S
C516 C515 1.373 . S
C517 C501 1.377 . S
C517 C515 1.389 . S
C517 C518 1.524 . S
C518 C517 1.524 . S
C518 C519 1.397 . S
C518 C523 1.363 . S
C519 H490 0.950 . S
C519 C518 1.397 . S
C519 C520 1.334 . S
C520 H491 0.950 . S
C520 C519 1.334 . S
C520 C521 1.287 . S
C521 C520 1.287 . S
C521 C522 1.524 . S
C521 H524 0.999 . S
C522 H492 0.950 . S
C522 C521 1.524 . S
C522 C523 1.415 . S
C523 H493 0.950 . S
C523 C518 1.363 . S
C523 C522 1.415 . S
H524 C521 0.999 . S
H525 C506 0.913 . S
H526 C544 0.951 . S
H527 C546 0.951 . S
H528 C548 0.950 . S
H529 C549 0.950 . S
H530 C551 0.950 . S
H531 C554 0.950 . S
H532 C555 0.950 . S
H533 C557 0.950 . S
H534 C558 0.950 . S
H535 C559 0.951 . S
H536 C561 0.951 . S
H537 C563 0.950 . S
H538 C564 0.950 . S
H539 C566 0.950 . S
H540 C569 0.950 . S
H541 C570 0.950 . S
H542 C572 0.950 . S
H543 C573 0.950 . S
C544 H526 0.951 . S
C544 C545 1.366 . S
C544 C546 1.388 . S
C545 C544 1.366 . S
C545 C549 1.385 . S
C546 H527 0.951 . S
C546 C544 1.388 . S
C546 C547 1.366 . S
C547 C546 1.366 . S
C547 C548 1.414 . S
C547 C550 1.499 . S
C548 H528 0.950 . S
C548 C547 1.414 . S
C548 C549 1.374 . S
C549 H529 0.950 . S
C549 C545 1.385 . S
C549 C548 1.374 . S
C550 C547 1.499 . S
C550 C551 1.373 . S
C550 C552 1.389 . S
C551 H530 0.950 . S
C551 C550 1.373 . S
C551 C567 1.377 . S
C552 C550 1.389 . S
C552 C553 1.524 . S
C552 C566 1.377 . S
C553 C552 1.524 . S
C553 C554 1.397 . S
C553 C558 1.363 . S
C554 H531 0.950 . S
C554 C553 1.397 . S
C554 C555 1.334 . S
C555 H532 0.950 . S
C555 C554 1.334 . S
C555 C556 1.287 . S
C556 C555 1.287 . S
C556 C557 1.524 . S
C556 H575 0.913 . S
C557 H533 0.950 . S
C557 C556 1.524 . S
C557 C558 1.415 . S
C558 H534 0.950 . S
C558 C553 1.363 . S
C558 C557 1.415 . S
C559 H535 0.951 . S
C559 C560 1.366 . S
C559 C561 1.388 . S
C560 C559 1.366 . S
C560 C564 1.385 . S
C561 H536 0.951 . S
C561 C559 1.388 . S
C561 C562 1.366 . S
C562 C561 1.366 . S
C562 C563 1.414 . S
C562 C565 1.499 . S
C563 H537 0.950 . S
C563 C562 1.414 . S
C563 C564 1.374 . S
C564 H538 0.950 . S
C564 C560 1.385 . S
C564 C563 1.374 . S
C565 C562 1.499 . S
C565 C566 1.373 . S
C565 C567 1.389 . S
C566 H539 0.950 . S
C566 C552 1.377 . S
C566 C565 1.373 . S
C567 C551 1.377 . S
C567 C565 1.389 . S
C567 C568 1.524 . S
C568 C567 1.524 . S
C568 C569 1.397 . S
C568 C573 1.363 . S
C569 H540 0.950 . S
C569 C568 1.397 . S
C569 C570 1.334 . S
C570 H541 0.950 . S
C570 C569 1.334 . S
C570 C571 1.287 . S
C571 C570 1.287 . S
C571 C572 1.524 . S
C571 H574 0.999 . S
C572 H542 0.950 . S
C572 C571 1.524 . S
C572 C573 1.415 . S
C573 H543 0.950 . S
C573 C568 1.363 . S
C573 C572 1.415 . S
H574 C571 0.999 . S
H575 C556 0.913 . S
H576 C594 0.951 . S
H577 C596 0.951 . S
H578 C598 0.950 . S
H579 C599 0.950 . S
H580 C601 0.950 . S
H581 C604 0.950 . S
H582 C605 0.950 . S
H583 C607 0.950 . S
H584 C608 0.950 . S
H585 C609 0.951 . S
H586 C611 0.951 . S
H587 C613 0.950 . S
H588 C614 0.950 . S
H589 C616 0.950 . S
H590 C619 0.950 . S
H591 C620 0.950 . S
H592 C622 0.950 . S
H593 C623 0.950 . S
C594 H576 0.951 . S
C594 C595 1.366 . S
C594 C596 1.388 . S
C595 C594 1.366 . S
C595 C599 1.385 . S
C596 H577 0.951 . S
C596 C594 1.388 . S
C596 C597 1.366 . S
C597 C596 1.366 . S
C597 C598 1.414 . S
C597 C600 1.499 . S
C598 H578 0.950 . S
C598 C597 1.414 . S
C598 C599 1.374 . S
C599 H579 0.950 . S
C599 C595 1.385 . S
C599 C598 1.374 . S
C600 C597 1.499 . S
C600 C601 1.373 . S
C600 C602 1.389 . S
C601 H580 0.950 . S
C601 C600 1.373 . S
C601 C617 1.377 . S
C602 C600 1.389 . S
C602 C603 1.524 . S
C602 C616 1.377 . S
C603 C602 1.524 . S
C603 C604 1.397 . S
C603 C608 1.363 . S
C604 H581 0.950 . S
C604 C603 1.397 . S
C604 C605 1.334 1_556 S
C605 H582 0.950 . S
C605 C604 1.334 1_554 S
C605 C606 1.287 . S
C606 C605 1.287 . S
C606 C607 1.524 . S
C606 H625 0.913 . S
C607 H583 0.950 . S
C607 C606 1.524 . S
C607 C608 1.415 1_554 S
C608 H584 0.950 . S
C608 C603 1.363 . S
C608 C607 1.415 1_556 S
C609 H585 0.951 . S
C609 C610 1.366 . S
C609 C611 1.388 . S
C610 C609 1.366 . S
C610 C614 1.385 . S
C611 H586 0.951 . S
C611 C609 1.388 . S
C611 C612 1.366 . S
C612 C611 1.366 . S
C612 C613 1.414 . S
C612 C615 1.499 . S
C613 H587 0.950 . S
C613 C612 1.414 . S
C613 C614 1.374 . S
C614 H588 0.950 . S
C614 C610 1.385 . S
C614 C613 1.374 . S
C615 C612 1.499 . S
C615 C616 1.373 . S
C615 C617 1.389 . S
C616 H589 0.950 . S
C616 C602 1.377 . S
C616 C615 1.373 . S
C617 C601 1.377 . S
C617 C615 1.389 . S
C617 C618 1.524 . S
C618 C617 1.524 . S
C618 C619 1.397 . S
C618 C623 1.363 . S
C619 H590 0.950 . S
C619 C618 1.397 . S
C619 C620 1.334 . S
C620 H591 0.950 . S
C620 C619 1.334 . S
C620 C621 1.287 . S
C621 C620 1.287 . S
C621 C622 1.524 . S
C621 H624 0.999 . S
C622 H592 0.950 . S
C622 C621 1.524 . S
C622 C623 1.415 . S
C623 H593 0.950 . S
C623 C618 1.363 . S
C623 C622 1.415 . S
H624 C621 0.999 . S
H625 C606 0.913 . S
H626 C644 0.951 . S
H627 C646 0.951 . S
H628 C648 0.950 . S
H629 C649 0.950 . S
H630 C651 0.950 . S
H631 C654 0.950 . S
H632 C655 0.950 . S
H633 C657 0.950 . S
H634 C658 0.950 . S
H635 C659 0.951 . S
H636 C661 0.951 . S
H637 C663 0.950 . S
H638 C664 0.950 . S
H639 C666 0.950 . S
H640 C669 0.950 . S
H641 C670 0.950 . S
H642 C672 0.950 . S
H643 C673 0.950 . S
C644 H626 0.951 . S
C644 C645 1.366 . S
C644 C646 1.388 . S
C645 C644 1.366 . S
C645 C649 1.385 . S
C646 H627 0.951 . S
C646 C644 1.388 . S
C646 C647 1.366 . S
C647 C646 1.366 . S
C647 C648 1.414 . S
C647 C650 1.499 . S
C648 H628 0.950 . S
C648 C647 1.414 . S
C648 C649 1.374 . S
C649 H629 0.950 . S
C649 C645 1.385 . S
C649 C648 1.374 . S
C650 C647 1.499 . S
C650 C651 1.373 . S
C650 C652 1.389 . S
C651 H630 0.950 . S
C651 C650 1.373 . S
C651 C667 1.377 . S
C652 C650 1.389 . S
C652 C653 1.524 . S
C652 C666 1.377 . S
C653 C652 1.524 . S
C653 C654 1.397 . S
C653 C658 1.363 . S
C654 H631 0.950 . S
C654 C653 1.397 . S
C654 C655 1.334 . S
C655 H632 0.950 . S
C655 C654 1.334 . S
C655 C656 1.287 . S
C656 C655 1.287 . S
C656 C657 1.524 . S
C656 H675 0.913 . S
C657 H633 0.950 . S
C657 C656 1.524 . S
C657 C658 1.415 . S
C658 H634 0.950 . S
C658 C653 1.363 . S
C658 C657 1.415 . S
C659 H635 0.951 . S
C659 C660 1.366 . S
C659 C661 1.388 . S
C660 C659 1.366 . S
C660 C664 1.385 . S
C661 H636 0.951 . S
C661 C659 1.388 . S
C661 C662 1.366 . S
C662 C661 1.366 . S
C662 C663 1.414 . S
C662 C665 1.499 . S
C663 H637 0.950 . S
C663 C662 1.414 . S
C663 C664 1.374 . S
C664 H638 0.950 . S
C664 C660 1.385 . S
C664 C663 1.374 . S
C665 C662 1.499 . S
C665 C666 1.373 . S
C665 C667 1.389 . S
C666 H639 0.950 . S
C666 C652 1.377 . S
C666 C665 1.373 . S
C667 C651 1.377 . S
C667 C665 1.389 . S
C667 C668 1.524 . S
C668 C667 1.524 . S
C668 C669 1.397 . S
C668 C673 1.363 . S
C669 H640 0.950 . S
C669 C668 1.397 . S
C669 C670 1.334 . S
C670 H641 0.950 . S
C670 C669 1.334 . S
C670 C671 1.287 . S
C671 C670 1.287 . S
C671 C672 1.524 . S
C671 H674 0.999 . S
C672 H642 0.950 . S
C672 C671 1.524 . S
C672 C673 1.415 . S
C673 H643 0.950 . S
C673 C668 1.363 . S
C673 C672 1.415 . S
H674 C671 0.999 . S
H675 C656 0.913 . S
H676 C694 0.951 . S
H677 C696 0.951 . S
H678 C698 0.950 . S
H679 C699 0.950 . S
H680 C701 0.950 . S
H681 C704 0.950 . S
H682 C705 0.950 . S
H683 C707 0.950 . S
H684 C708 0.950 . S
H685 C709 0.951 . S
H686 C711 0.951 . S
H687 C713 0.950 . S
H688 C714 0.950 . S
H689 C716 0.950 . S
H690 C719 0.950 . S
H691 C720 0.950 . S
H692 C722 0.950 . S
H693 C723 0.950 . S
C694 H676 0.951 . S
C694 C695 1.366 . S
C694 C696 1.388 . S
C695 C694 1.366 . S
C695 C699 1.385 . S
C696 H677 0.951 . S
C696 C694 1.388 . S
C696 C697 1.366 . S
C697 C696 1.366 . S
C697 C698 1.414 . S
C697 C700 1.499 . S
C698 H678 0.950 . S
C698 C697 1.414 . S
C698 C699 1.374 . S
C699 H679 0.950 . S
C699 C695 1.385 . S
C699 C698 1.374 . S
C700 C697 1.499 . S
C700 C701 1.373 . S
C700 C702 1.389 . S
C701 H680 0.950 . S
C701 C700 1.373 . S
C701 C717 1.377 . S
C702 C700 1.389 . S
C702 C703 1.524 . S
C702 C716 1.377 . S
C703 C702 1.524 . S
C703 C704 1.397 . S
C703 C708 1.363 . S
C704 H681 0.950 . S
C704 C703 1.397 . S
C704 C705 1.334 . S
C705 H682 0.950 . S
C705 C704 1.334 . S
C705 C706 1.287 . S
C706 C705 1.287 . S
C706 C707 1.524 . S
C706 H725 0.913 . S
C707 H683 0.950 . S
C707 C706 1.524 . S
C707 C708 1.415 . S
C708 H684 0.950 . S
C708 C703 1.363 . S
C708 C707 1.415 . S
C709 H685 0.951 . S
C709 C710 1.366 . S
C709 C711 1.388 . S
C710 C709 1.366 . S
C710 C714 1.385 . S
C711 H686 0.951 . S
C711 C709 1.388 . S
C711 C712 1.366 . S
C712 C711 1.366 . S
C712 C713 1.414 . S
C712 C715 1.499 . S
C713 H687 0.950 . S
C713 C712 1.414 . S
C713 C714 1.374 . S
C714 H688 0.950 . S
C714 C710 1.385 . S
C714 C713 1.374 . S
C715 C712 1.499 . S
C715 C716 1.373 . S
C715 C717 1.389 . S
C716 H689 0.950 . S
C716 C702 1.377 . S
C716 C715 1.373 . S
C717 C701 1.377 . S
C717 C715 1.389 . S
C717 C718 1.524 . S
C718 C717 1.524 . S
C718 C719 1.397 . S
C718 C723 1.363 . S
C719 H690 0.950 . S
C719 C718 1.397 . S
C719 C720 1.334 . S
C720 H691 0.950 . S
C720 C719 1.334 . S
C720 C721 1.287 . S
C721 C720 1.287 . S
C721 C722 1.524 . S
C721 H724 0.999 . S
C722 H692 0.950 . S
C722 C721 1.524 . S
C722 C723 1.415 . S
C723 H693 0.950 . S
C723 C718 1.363 . S
C723 C722 1.415 . S
H724 C721 0.999 . S
H725 C706 0.913 . S
H726 C744 0.951 . S
H727 C746 0.951 . S
H728 C748 0.950 . S
H729 C749 0.950 . S
H730 C751 0.950 . S
H731 C754 0.950 . S
H732 C755 0.950 . S
H733 C757 0.950 . S
H734 C758 0.950 . S
H735 C759 0.951 . S
H736 C761 0.951 . S
H737 C763 0.950 . S
H738 C764 0.950 . S
H739 C766 0.950 . S
H740 C769 0.950 . S
H741 C770 0.950 . S
H742 C772 0.950 . S
H743 C773 0.950 . S
C744 H726 0.951 . S
C744 C745 1.366 . S
C744 C746 1.388 . S
C745 C744 1.366 . S
C745 C749 1.385 . S
C746 H727 0.951 . S
C746 C744 1.388 . S
C746 C747 1.366 . S
C747 C746 1.366 . S
C747 C748 1.414 . S
C747 C750 1.499 . S
C748 H728 0.950 . S
C748 C747 1.414 . S
C748 C749 1.374 . S
C749 H729 0.950 . S
C749 C745 1.385 . S
C749 C748 1.374 . S
C750 C747 1.499 . S
C750 C751 1.373 . S
C750 C752 1.389 . S
C751 H730 0.950 . S
C751 C750 1.373 . S
C751 C767 1.377 . S
C752 C750 1.389 . S
C752 C753 1.524 . S
C752 C766 1.377 . S
C753 C752 1.524 . S
C753 C754 1.397 . S
C753 C758 1.363 . S
C754 H731 0.950 . S
C754 C753 1.397 . S
C754 C755 1.334 . S
C755 H732 0.950 . S
C755 C754 1.334 . S
C755 C756 1.287 . S
C756 C755 1.287 . S
C756 C757 1.524 . S
C756 H775 0.913 . S
C757 H733 0.950 . S
C757 C756 1.524 . S
C757 C758 1.415 . S
C758 H734 0.950 . S
C758 C753 1.363 . S
C758 C757 1.415 . S
C759 H735 0.951 . S
C759 C760 1.366 . S
C759 C761 1.388 . S
C760 C759 1.366 . S
C760 C764 1.385 . S
C761 H736 0.951 . S
C761 C759 1.388 . S
C761 C762 1.366 . S
C762 C761 1.366 . S
C762 C763 1.414 . S
C762 C765 1.499 . S
C763 H737 0.950 . S
C763 C762 1.414 . S
C763 C764 1.374 . S
C764 H738 0.950 . S
C764 C760 1.385 . S
C764 C763 1.374 . S
C765 C762 1.499 . S
C765 C766 1.373 . S
C765 C767 1.389 . S
C766 H739 0.950 . S
C766 C752 1.377 . S
C766 C765 1.373 . S
C767 C751 1.377 . S
C767 C765 1.389 . S
C767 C768 1.524 . S
C768 C767 1.524 . S
C768 C769 1.397 . S
C768 C773 1.363 . S
C769 H740 0.950 . S
C769 C768 1.397 . S
C769 C770 1.334 . S
C770 H741 0.950 . S
C770 C769 1.334 . S
C770 C771 1.287 . S
C771 C770 1.287 . S
C771 C772 1.524 . S
C771 H774 0.999 . S
C772 H742 0.950 . S
C772 C771 1.524 . S
C772 C773 1.415 . S
C773 H743 0.950 . S
C773 C768 1.363 . S
C773 C772 1.415 . S
H774 C771 0.999 . S
H775 C756 0.913 . S
H776 C794 0.951 . S
H777 C796 0.951 . S
H778 C798 0.950 . S
H779 C799 0.950 1_554 S
H780 C801 0.950 . S
H781 C804 0.950 . S
H782 C805 0.950 . S
H783 C807 0.950 . S
H784 C808 0.950 . S
H785 C809 0.951 . S
H786 C811 0.951 . S
H787 C813 0.950 . S
H788 C814 0.950 . S
H789 C816 0.967 . S
H790 C819 0.950 . S
H791 C820 0.950 . S
H792 C822 0.950 . S
H793 C823 0.950 . S
C794 H776 0.951 . S
C794 C795 1.366 . S
C794 C796 1.388 . S
C795 C794 1.366 . S
C795 C799 1.385 . S
C796 H777 0.951 . S
C796 C794 1.388 . S
C796 C797 1.366 . S
C797 C796 1.366 . S
C797 C798 1.414 . S
C797 C800 1.499 . S
C798 H778 0.950 . S
C798 C797 1.414 . S
C798 C799 1.374 . S
C799 H779 0.950 1_556 S
C799 C795 1.385 . S
C799 C798 1.374 . S
C800 C797 1.499 . S
C800 C801 1.373 1_565 S
C800 C802 1.389 . S
C801 H780 0.950 . S
C801 C800 1.373 1_545 S
C801 C817 1.377 . S
C802 C800 1.389 . S
C802 C803 1.524 . S
C802 C816 1.406 . S
C803 C802 1.524 . S
C803 C804 1.397 . S
C803 C808 1.363 . S
C804 H781 0.950 . S
C804 C803 1.397 . S
C804 C805 1.334 . S
C805 H782 0.950 . S
C805 C804 1.334 . S
C805 C806 1.287 . S
C806 C805 1.287 . S
C806 C807 1.524 . S
C806 H825 0.913 . S
C807 H783 0.950 . S
C807 C806 1.524 . S
C807 C808 1.415 . S
C808 H784 0.950 . S
C808 C803 1.363 . S
C808 C807 1.415 . S
C809 H785 0.951 . S
C809 C810 1.366 . S
C809 C811 1.388 . S
C810 C809 1.366 . S
C810 C814 1.385 . S
C811 H786 0.951 . S
C811 C809 1.388 . S
C811 C812 1.366 . S
C812 C811 1.366 . S
C812 C813 1.414 . S
C812 C815 1.499 . S
C813 H787 0.950 . S
C813 C812 1.414 . S
C813 C814 1.374 . S
C814 H788 0.950 . S
C814 C810 1.385 . S
C814 C813 1.374 . S
C815 C812 1.499 . S
C815 C816 1.328 1_545 S
C815 C817 1.389 . S
C816 H789 0.967 . S
C816 C802 1.406 . S
C816 C815 1.328 1_565 S
C817 C801 1.377 . S
C817 C815 1.389 . S
C817 C818 1.524 . S
C818 C817 1.524 . S
C818 C819 1.397 . S
C818 C823 1.363 . S
C819 H790 0.950 . S
C819 C818 1.397 . S
C819 C820 1.334 . S
C820 H791 0.950 . S
C820 C819 1.334 . S
C820 C821 1.287 . S
C821 C820 1.287 . S
C821 C822 1.524 . S
C821 H824 0.999 . S
C822 H792 0.950 . S
C822 C821 1.524 . S
C822 C823 1.415 . S
C823 H793 0.950 . S
C823 C818 1.363 . S
C823 C822 1.415 . S
H824 C821 0.999 . S
H825 C806 0.913 . S
H826 C844 0.951 . S
H827 C846 0.951 . S
H828 C848 0.950 1_565 S
H829 C849 0.950 . S
H830 C851 0.950 . S
H831 C854 0.950 . S
H832 C855 0.950 . S
H833 C857 0.950 1_545 S
H834 C858 0.950 1_545 S
H835 C859 0.951 . S
H836 C861 0.951 . S
H837 C863 0.950 . S
H838 C864 0.950 . S
H839 C866 0.950 . S
H840 C869 0.950 . S
H841 C870 0.950 . S
H842 C872 0.950 . S
H843 C873 0.950 . S
C844 H826 0.951 . S
C844 C845 1.366 . S
C844 C846 1.388 . S
C845 C844 1.366 . S
C845 C849 1.385 . S
C846 H827 0.951 . S
C846 C844 1.388 . S
C846 C847 1.366 . S
C847 C846 1.366 . S
C847 C848 1.414 . S
C847 C850 1.499 1_545 S
C848 H828 0.950 1_545 S
C848 C847 1.414 . S
C848 C849 1.374 . S
C849 H829 0.950 . S
C849 C845 1.385 . S
C849 C848 1.374 . S
C850 C847 1.499 1_565 S
C850 C851 1.373 . S
C850 C852 1.389 . S
C851 H830 0.950 . S
C851 C850 1.373 . S
C851 C867 1.377 . S
C852 C850 1.389 . S
C852 C853 1.524 . S
C852 C866 1.377 . S
C853 C852 1.524 . S
C853 C854 1.397 . S
C853 C858 1.363 . S
C854 H831 0.950 . S
C854 C853 1.397 . S
C854 C855 1.334 . S
C855 H832 0.950 . S
C855 C854 1.334 . S
C855 C856 1.287 . S
C856 C855 1.287 . S
C856 C857 1.524 . S
C856 H875 0.913 . S
C857 H833 0.950 1_565 S
C857 C856 1.524 . S
C857 C858 1.415 . S
C858 H834 0.950 1_565 S
C858 C853 1.363 . S
C858 C857 1.415 . S
C859 H835 0.951 . S
C859 C860 1.366 . S
C859 C861 1.388 . S
C860 C859 1.366 . S
C860 C864 1.385 . S
C861 H836 0.951 . S
C861 C859 1.388 . S
C861 C862 1.366 . S
C862 C861 1.366 . S
C862 C863 1.414 . S
C862 C865 1.499 . S
C863 H837 0.950 . S
C863 C862 1.414 . S
C863 C864 1.374 . S
C864 H838 0.950 . S
C864 C860 1.385 . S
C864 C863 1.374 . S
C865 C862 1.499 . S
C865 C866 1.373 . S
C865 C867 1.389 . S
C866 H839 0.950 . S
C866 C852 1.377 . S
C866 C865 1.373 . S
C867 C851 1.377 . S
C867 C865 1.389 . S
C867 C868 1.524 . S
C868 C867 1.524 . S
C868 C869 1.397 . S
C868 C873 1.363 . S
C869 H840 0.950 . S
C869 C868 1.397 . S
C869 C870 1.334 . S
C870 H841 0.950 . S
C870 C869 1.334 . S
C870 C871 1.287 . S
C871 C870 1.287 . S
C871 C872 1.524 . S
C871 H874 0.999 . S
C872 H842 0.950 . S
C872 C871 1.524 . S
C872 C873 1.415 . S
C873 H843 0.950 . S
C873 C868 1.363 . S
C873 C872 1.415 . S
H874 C871 0.999 . S
H875 C856 0.913 . S
H876 C894 0.951 . S
H877 C896 0.951 . S
H878 C898 0.950 . S
H879 C899 0.950 . S
H880 C901 0.950 . S
H881 C904 0.950 . S
H882 C905 0.950 . S
H883 C907 0.950 . S
H884 C908 0.950 . S
H885 C909 0.951 . S
H886 C911 0.951 . S
H887 C913 0.950 . S
H888 C914 0.950 . S
H889 C916 0.958 . S
H890 C919 0.950 . S
H891 C920 0.950 . S
H892 C922 0.950 . S
H893 C923 0.950 . S
C894 H876 0.951 . S
C894 C895 1.366 . S
C894 C896 1.388 . S
C895 C894 1.366 . S
C895 C899 1.385 . S
C896 H877 0.951 . S
C896 C894 1.388 . S
C896 C897 1.366 . S
C897 C896 1.366 . S
C897 C898 1.414 . S
C897 C900 1.499 . S
C898 H878 0.950 . S
C898 C897 1.414 . S
C898 C899 1.374 . S
C899 H879 0.950 . S
C899 C895 1.385 . S
C899 C898 1.374 . S
C900 C897 1.499 . S
C900 C901 1.373 1_565 S
C900 C902 1.389 . S
C901 H880 0.950 . S
C901 C900 1.373 1_545 S
C901 C917 1.377 . S
C902 C900 1.389 . S
C902 C903 1.524 . S
C902 C916 1.389 . S
C903 C902 1.524 . S
C903 C904 1.397 . S
C903 C908 1.363 . S
C904 H881 0.950 . S
C904 C903 1.397 . S
C904 C905 1.334 . S
C905 H882 0.950 . S
C905 C904 1.334 . S
C905 C906 1.287 . S
C906 C905 1.287 . S
C906 C907 1.524 . S
C906 H925 0.913 . S
C907 H883 0.950 . S
C907 C906 1.524 . S
C907 C908 1.415 . S
C908 H884 0.950 . S
C908 C903 1.363 . S
C908 C907 1.415 . S
C909 H885 0.951 . S
C909 C910 1.366 . S
C909 C911 1.388 . S
C910 C909 1.366 . S
C910 C914 1.385 . S
C911 H886 0.951 . S
C911 C909 1.388 . S
C911 C912 1.366 . S
C912 C911 1.366 . S
C912 C913 1.414 . S
C912 C915 1.499 . S
C913 H887 0.950 . S
C913 C912 1.414 . S
C913 C914 1.374 . S
C914 H888 0.950 . S
C914 C910 1.385 . S
C914 C913 1.374 . S
C915 C912 1.499 . S
C915 C916 1.353 1_545 S
C915 C917 1.389 . S
C916 H889 0.958 . S
C916 C902 1.389 . S
C916 C915 1.353 1_565 S
C917 C901 1.377 . S
C917 C915 1.389 . S
C917 C918 1.524 . S
C918 C917 1.524 . S
C918 C919 1.397 . S
C918 C923 1.363 . S
C919 H890 0.950 . S
C919 C918 1.397 . S
C919 C920 1.334 . S
C920 H891 0.950 . S
C920 C919 1.334 . S
C920 C921 1.287 . S
C921 C920 1.287 . S
C921 C922 1.524 . S
C921 H924 0.999 . S
C922 H892 0.950 . S
C922 C921 1.524 . S
C922 C923 1.415 . S
C923 H893 0.950 . S
C923 C918 1.363 . S
C923 C922 1.415 . S
H924 C921 0.999 . S
H925 C906 0.913 . S
H926 C944 0.951 . S
H927 C946 0.951 . S
H928 C948 0.950 . S
H929 C949 0.950 . S
H930 C951 0.950 . S
H931 C954 0.950 . S
H932 C955 0.950 . S
H933 C957 0.950 . S
H934 C958 0.963 . S
H935 C959 0.951 . S
H936 C961 0.951 . S
H937 C963 0.950 . S
H938 C964 0.950 . S
H939 C966 0.950 . S
H940 C969 0.950 . S
H941 C970 0.950 . S
H942 C972 0.950 . S
H943 C973 0.950 . S
C944 H926 0.951 . S
C944 C945 1.366 . S
C944 C946 1.388 . S
C945 C944 1.366 . S
C945 C949 1.385 . S
C946 H927 0.951 . S
C946 C944 1.388 . S
C946 C947 1.366 . S
C947 C946 1.366 . S
C947 C948 1.414 . S
C947 C950 1.499 . S
C948 H928 0.950 . S
C948 C947 1.414 . S
C948 C949 1.374 . S
C949 H929 0.950 . S
C949 C945 1.385 . S
C949 C948 1.374 . S
C950 C947 1.499 . S
C950 C951 1.373 1_545 S
C950 C952 1.389 . S
C951 H930 0.950 . S
C951 C950 1.373 1_565 S
C951 C967 1.377 . S
C952 C950 1.389 . S
C952 C953 1.524 . S
C952 C966 1.377 1_545 S
C953 C952 1.524 . S
C953 C954 1.397 . S
C953 C958 1.363 . S
C954 H931 0.950 . S
C954 C953 1.397 . S
C954 C955 1.334 . S
C955 H932 0.950 . S
C955 C954 1.334 . S
C955 C956 1.287 . S
C956 C955 1.287 . S
C956 C957 1.524 . S
C956 H975 0.913 . S
C957 H933 0.950 . S
C957 C956 1.524 . S
C957 C958 1.415 . S
C958 H934 0.963 . S
C958 C953 1.363 . S
C958 C957 1.415 . S
C959 H935 0.951 . S
C959 C960 1.366 . S
C959 C961 1.388 . S
C960 C959 1.366 . S
C960 C964 1.385 . S
C961 H936 0.951 . S
C961 C959 1.388 . S
C961 C962 1.366 . S
C962 C961 1.366 . S
C962 C963 1.414 . S
C962 C965 1.499 . S
C963 H937 0.950 . S
C963 C962 1.414 . S
C963 C964 1.374 . S
C964 H938 0.950 . S
C964 C960 1.385 . S
C964 C963 1.374 . S
C965 C962 1.499 . S
C965 C966 1.373 . S
C965 C967 1.389 . S
C966 H939 0.950 . S
C966 C952 1.377 1_565 S
C966 C965 1.373 . S
C967 C951 1.377 . S
C967 C965 1.389 . S
C967 C968 1.524 . S
C968 C967 1.524 . S
C968 C969 1.397 . S
C968 C973 1.363 . S
C969 H940 0.950 . S
C969 C968 1.397 . S
C969 C970 1.334 . S
C970 H941 0.950 . S
C970 C969 1.334 . S
C970 C971 1.287 . S
C971 C970 1.287 . S
C971 C972 1.524 . S
C971 H974 0.999 . S
C972 H942 0.950 . S
C972 C971 1.524 . S
C972 C973 1.415 . S
C973 H943 0.950 . S
C973 C968 1.363 . S
C973 C972 1.415 . S
H974 C971 0.999 . S
H975 C956 0.913 . S
H976 C994 0.951 . S
H977 C996 0.951 . S
H978 C998 0.950 . S
H979 C999 0.950 . S
H980 C1001 0.950 . S
H981 C1004 0.950 . S
H982 C1005 0.950 . S
H983 C1007 0.950 . S
H984 C1008 0.950 . S
H985 C1009 0.951 . S
H986 C1011 0.951 . S
H987 C1013 0.950 . S
H988 C1014 0.950 . S
H989 C1016 0.950 . S
H990 C1019 0.950 . S
H991 C1020 0.950 . S
H992 C1022 0.950 . S
H993 C1023 0.950 . S
C994 H976 0.951 . S
C994 C995 1.366 . S
C994 C996 1.388 . S
C995 C994 1.366 . S
C995 C999 1.385 . S
C996 H977 0.951 . S
C996 C994 1.388 . S
C996 C997 1.366 . S
C997 C996 1.366 . S
C997 C998 1.414 . S
C997 C1000 1.499 . S
C998 H978 0.950 . S
C998 C997 1.414 . S
C998 C999 1.374 . S
C999 H979 0.950 . S
C999 C995 1.385 . S
C999 C998 1.374 . S
C1000 C997 1.499 . S
C1000 C1001 1.373 . S
C1000 C1002 1.389 . S
C1001 H980 0.950 . S
C1001 C1000 1.373 . S
C1001 C1017 1.377 . S
C1002 C1000 1.389 . S
C1002 C1003 1.524 . S
C1002 C1016 1.377 . S
C1003 C1002 1.524 . S
C1003 C1004 1.397 . S
C1003 C1008 1.363 . S
C1004 H981 0.950 . S
C1004 C1003 1.397 . S
C1004 C1005 1.334 . S
C1005 H982 0.950 . S
C1005 C1004 1.334 . S
C1005 C1006 1.287 . S
C1006 C1005 1.287 . S
C1006 C1007 1.524 . S
C1006 H1025 0.913 . S
C1007 H983 0.950 . S
C1007 C1006 1.524 . S
C1007 C1008 1.415 . S
C1008 H984 0.950 . S
C1008 C1003 1.363 . S
C1008 C1007 1.415 . S
C1009 H985 0.951 . S
C1009 C1010 1.366 . S
C1009 C1011 1.388 . S
C1010 C1009 1.366 . S
C1010 C1014 1.385 . S
C1011 H986 0.951 . S
C1011 C1009 1.388 . S
C1011 C1012 1.366 . S
C1012 C1011 1.366 . S
C1012 C1013 1.414 . S
C1012 C1015 1.499 . S
C1013 H987 0.950 . S
C1013 C1012 1.414 . S
C1013 C1014 1.374 . S
C1014 H988 0.950 . S
C1014 C1010 1.385 . S
C1014 C1013 1.374 . S
C1015 C1012 1.499 . S
C1015 C1016 1.373 . S
C1015 C1017 1.389 . S
C1016 H989 0.950 . S
C1016 C1002 1.377 . S
C1016 C1015 1.373 . S
C1017 C1001 1.377 . S
C1017 C1015 1.389 . S
C1017 C1018 1.524 . S
C1018 C1017 1.524 . S
C1018 C1019 1.397 . S
C1018 C1023 1.363 . S
C1019 H990 0.950 . S
C1019 C1018 1.397 . S
C1019 C1020 1.334 . S
C1020 H991 0.950 . S
C1020 C1019 1.334 . S
C1020 C1021 1.287 . S
C1021 C1020 1.287 . S
C1021 C1022 1.524 . S
C1021 H1024 0.999 . S
C1022 H992 0.950 . S
C1022 C1021 1.524 . S
C1022 C1023 1.415 . S
C1023 H993 0.950 . S
C1023 C1018 1.363 . S
C1023 C1022 1.415 . S
H1024 C1021 0.999 . S
H1025 C1006 0.913 . S
H1026 C1044 0.951 . S
H1027 C1046 0.951 . S
H1028 C1048 0.950 . S
H1029 C1049 0.950 . S
H1030 C1051 0.950 . S
H1031 C1054 0.950 . S
H1032 C1055 0.950 . S
H1033 C1057 0.950 . S
H1034 C1058 0.950 . S
H1035 C1059 0.951 . S
H1036 C1061 0.951 . S
H1037 C1063 0.950 . S
H1038 C1064 0.950 . S
H1039 C1066 0.950 . S
H1040 C1069 0.950 . S
H1041 C1070 0.950 . S
H1042 C1072 0.950 . S
H1043 C1073 0.950 . S
C1044 H1026 0.951 . S
C1044 C1045 1.366 . S
C1044 C1046 1.388 . S
C1045 C1044 1.366 . S
C1045 C1049 1.385 . S
C1046 H1027 0.951 . S
C1046 C1044 1.388 . S
C1046 C1047 1.366 . S
C1047 C1046 1.366 . S
C1047 C1048 1.414 . S
C1047 C1050 1.499 . S
C1048 H1028 0.950 . S
C1048 C1047 1.414 . S
C1048 C1049 1.374 . S
C1049 H1029 0.950 . S
C1049 C1045 1.385 . S
C1049 C1048 1.374 . S
C1050 C1047 1.499 . S
C1050 C1051 1.373 . S
C1050 C1052 1.389 . S
C1051 H1030 0.950 . S
C1051 C1050 1.373 . S
C1051 C1067 1.377 . S
C1052 C1050 1.389 . S
C1052 C1053 1.524 . S
C1052 C1066 1.377 . S
C1053 C1052 1.524 . S
C1053 C1054 1.397 . S
C1053 C1058 1.363 . S
C1054 H1031 0.950 . S
C1054 C1053 1.397 . S
C1054 C1055 1.334 . S
C1055 H1032 0.950 . S
C1055 C1054 1.334 . S
C1055 C1056 1.287 . S
C1056 C1055 1.287 . S
C1056 C1057 1.524 . S
C1056 H1075 0.913 . S
C1057 H1033 0.950 . S
C1057 C1056 1.524 . S
C1057 C1058 1.415 . S
C1058 H1034 0.950 . S
C1058 C1053 1.363 . S
C1058 C1057 1.415 . S
C1059 H1035 0.951 . S
C1059 C1060 1.366 . S
C1059 C1061 1.388 . S
C1060 C1059 1.366 . S
C1060 C1064 1.385 . S
C1061 H1036 0.951 . S
C1061 C1059 1.388 . S
C1061 C1062 1.366 . S
C1062 C1061 1.366 . S
C1062 C1063 1.414 . S
C1062 C1065 1.499 . S
C1063 H1037 0.950 . S
C1063 C1062 1.414 . S
C1063 C1064 1.374 . S
C1064 H1038 0.950 . S
C1064 C1060 1.385 . S
C1064 C1063 1.374 . S
C1065 C1062 1.499 . S
C1065 C1066 1.373 . S
C1065 C1067 1.389 . S
C1066 H1039 0.950 . S
C1066 C1052 1.377 . S
C1066 C1065 1.373 . S
C1067 C1051 1.377 . S
C1067 C1065 1.389 . S
C1067 C1068 1.524 . S
C1068 C1067 1.524 . S
C1068 C1069 1.397 . S
C1068 C1073 1.363 . S
C1069 H1040 0.950 . S
C1069 C1068 1.397 . S
C1069 C1070 1.334 . S
C1070 H1041 0.950 . S
C1070 C1069 1.334 . S
C1070 C1071 1.287 . S
C1071 C1070 1.287 . S
C1071 C1072 1.524 . S
C1071 H1074 0.999 . S
C1072 H1042 0.950 . S
C1072 C1071 1.524 . S
C1072 C1073 1.415 . S
C1073 H1043 0.950 . S
C1073 C1068 1.363 . S
C1073 C1072 1.415 . S
H1074 C1071 0.999 . S
H1075 C1056 0.913 . S
H1076 C1094 0.951 . S
H1077 C1096 0.951 . S
H1078 C1098 0.950 . S
H1079 C1099 0.950 . S
H1080 C1101 0.950 . S
H1081 C1104 0.950 . S
H1082 C1105 0.950 . S
H1083 C1107 0.950 . S
H1084 C1108 0.950 . S
H1085 C1109 0.951 . S
H1086 C1111 0.951 . S
H1087 C1113 0.950 . S
H1088 C1114 0.950 . S
H1089 C1116 0.950 . S
H1090 C1119 0.950 . S
H1091 C1120 0.950 . S
H1092 C1122 0.950 . S
H1093 C1123 0.950 . S
C1094 H1076 0.951 . S
C1094 C1095 1.366 . S
C1094 C1096 1.388 . S
C1095 C1094 1.366 . S
C1095 C1099 1.385 . S
C1096 H1077 0.951 . S
C1096 C1094 1.388 . S
C1096 C1097 1.366 . S
C1097 C1096 1.366 . S
C1097 C1098 1.414 . S
C1097 C1100 1.499 . S
C1098 H1078 0.950 . S
C1098 C1097 1.414 . S
C1098 C1099 1.374 . S
C1099 H1079 0.950 . S
C1099 C1095 1.385 . S
C1099 C1098 1.374 . S
C1100 C1097 1.499 . S
C1100 C1101 1.373 . S
C1100 C1102 1.389 . S
C1101 H1080 0.950 . S
C1101 C1100 1.373 . S
C1101 C1117 1.377 . S
C1102 C1100 1.389 . S
C1102 C1103 1.524 . S
C1102 C1116 1.377 . S
C1103 C1102 1.524 . S
C1103 C1104 1.397 . S
C1103 C1108 1.363 . S
C1104 H1081 0.950 . S
C1104 C1103 1.397 . S
C1104 C1105 1.334 . S
C1105 H1082 0.950 . S
C1105 C1104 1.334 . S
C1105 C1106 1.287 . S
C1106 C1105 1.287 . S
C1106 C1107 1.524 . S
C1106 H1125 0.913 . S
C1107 H1083 0.950 . S
C1107 C1106 1.524 . S
C1107 C1108 1.415 . S
C1108 H1084 0.950 . S
C1108 C1103 1.363 . S
C1108 C1107 1.415 . S
C1109 H1085 0.951 . S
C1109 C1110 1.366 . S
C1109 C1111 1.388 . S
C1110 C1109 1.366 . S
C1110 C1114 1.385 . S
C1111 H1086 0.951 . S
C1111 C1109 1.388 . S
C1111 C1112 1.366 . S
C1112 C1111 1.366 . S
C1112 C1113 1.414 . S
C1112 C1115 1.499 . S
C1113 H1087 0.950 . S
C1113 C1112 1.414 . S
C1113 C1114 1.374 . S
C1114 H1088 0.950 . S
C1114 C1110 1.385 . S
C1114 C1113 1.374 . S
C1115 C1112 1.499 . S
C1115 C1116 1.373 . S
C1115 C1117 1.389 . S
C1116 H1089 0.950 . S
C1116 C1102 1.377 . S
C1116 C1115 1.373 . S
C1117 C1101 1.377 . S
C1117 C1115 1.389 . S
C1117 C1118 1.524 . S
C1118 C1117 1.524 . S
C1118 C1119 1.397 . S
C1118 C1123 1.363 . S
C1119 H1090 0.950 . S
C1119 C1118 1.397 . S
C1119 C1120 1.334 . S
C1120 H1091 0.950 . S
C1120 C1119 1.334 . S
C1120 C1121 1.287 . S
C1121 C1120 1.287 . S
C1121 C1122 1.524 . S
C1121 H1124 0.999 . S
C1122 H1092 0.950 . S
C1122 C1121 1.524 . S
C1122 C1123 1.415 . S
C1123 H1093 0.950 . S
C1123 C1118 1.363 . S
C1123 C1122 1.415 . S
H1124 C1121 0.999 . S
H1125 C1106 0.913 . S
H1126 C1144 0.951 . S
H1127 C1146 0.951 . S
H1128 C1148 0.950 . S
H1129 C1149 0.950 . S
H1130 C1151 0.950 . S
H1131 C1154 0.950 . S
H1132 C1155 0.950 . S
H1133 C1157 0.950 . S
H1134 C1158 0.950 . S
H1135 C1159 0.951 . S
H1136 C1161 0.951 . S
H1137 C1163 0.950 . S
H1138 C1164 0.950 . S
H1139 C1166 0.950 . S
H1140 C1169 0.950 . S
H1141 C1170 0.950 . S
H1142 C1172 0.950 . S
H1143 C1173 0.950 . S
C1144 H1126 0.951 . S
C1144 C1145 1.366 . S
C1144 C1146 1.388 . S
C1145 C1144 1.366 . S
C1145 C1149 1.385 . S
C1146 H1127 0.951 . S
C1146 C1144 1.388 . S
C1146 C1147 1.366 . S
C1147 C1146 1.366 . S
C1147 C1148 1.414 . S
C1147 C1150 1.499 . S
C1148 H1128 0.950 . S
C1148 C1147 1.414 . S
C1148 C1149 1.374 . S
C1149 H1129 0.950 . S
C1149 C1145 1.385 . S
C1149 C1148 1.374 . S
C1150 C1147 1.499 . S
C1150 C1151 1.373 . S
C1150 C1152 1.389 . S
C1151 H1130 0.950 . S
C1151 C1150 1.373 . S
C1151 C1167 1.377 . S
C1152 C1150 1.389 . S
C1152 C1153 1.524 . S
C1152 C1166 1.377 . S
C1153 C1152 1.524 . S
C1153 C1154 1.397 . S
C1153 C1158 1.363 . S
C1154 H1131 0.950 . S
C1154 C1153 1.397 . S
C1154 C1155 1.334 . S
C1155 H1132 0.950 . S
C1155 C1154 1.334 . S
C1155 C1156 1.287 . S
C1156 C1155 1.287 . S
C1156 C1157 1.524 . S
C1156 H1175 0.913 . S
C1157 H1133 0.950 . S
C1157 C1156 1.524 . S
C1157 C1158 1.415 . S
C1158 H1134 0.950 . S
C1158 C1153 1.363 . S
C1158 C1157 1.415 . S
C1159 H1135 0.951 . S
C1159 C1160 1.366 . S
C1159 C1161 1.388 . S
C1160 C1159 1.366 . S
C1160 C1164 1.385 . S
C1161 H1136 0.951 . S
C1161 C1159 1.388 . S
C1161 C1162 1.366 . S
C1162 C1161 1.366 . S
C1162 C1163 1.414 . S
C1162 C1165 1.499 . S
C1163 H1137 0.950 . S
C1163 C1162 1.414 . S
C1163 C1164 1.374 . S
C1164 H1138 0.950 . S
C1164 C1160 1.385 . S
C1164 C1163 1.374 . S
C1165 C1162 1.499 . S
C1165 C1166 1.373 . S
C1165 C1167 1.389 . S
C1166 H1139 0.950 . S
C1166 C1152 1.377 . S
C1166 C1165 1.373 . S
C1167 C1151 1.377 . S
C1167 C1165 1.389 . S
C1167 C1168 1.524 . S
C1168 C1167 1.524 . S
C1168 C1169 1.397 . S
C1168 C1173 1.363 . S
C1169 H1140 0.950 . S
C1169 C1168 1.397 . S
C1169 C1170 1.334 . S
C1170 H1141 0.950 . S
C1170 C1169 1.334 . S
C1170 C1171 1.287 . S
C1171 C1170 1.287 . S
C1171 C1172 1.524 . S
C1171 H1174 0.999 . S
C1172 H1142 0.950 . S
C1172 C1171 1.524 . S
C1172 C1173 1.415 . S
C1173 H1143 0.950 . S
C1173 C1168 1.363 . S
C1173 C1172 1.415 . S
H1174 C1171 0.999 . S
H1175 C1156 0.913 . S
H1176 C1194 0.951 . S
H1177 C1196 0.951 . S
H1178 C1198 0.950 . S
H1179 C1199 0.950 . S
H1180 C1201 0.950 . S
H1181 C1204 0.950 . S
H1182 C1205 0.950 . S
H1183 C1207 0.950 . S
H1184 C1208 0.950 . S
H1185 C1209 0.951 . S
H1186 C1211 0.951 . S
H1187 C1213 0.950 . S
H1188 C1214 0.950 . S
H1189 C1216 0.950 . S
H1190 C1219 0.950 . S
H1191 C1220 0.950 . S
H1192 C1222 0.950 . S
H1193 C1223 0.950 . S
C1194 H1176 0.951 . S
C1194 C1195 1.366 . S
C1194 C1196 1.388 . S
C1195 C1194 1.366 . S
C1195 C1199 1.385 . S
C1196 H1177 0.951 . S
C1196 C1194 1.388 . S
C1196 C1197 1.366 . S
C1197 C1196 1.366 . S
C1197 C1198 1.414 . S
C1197 C1200 1.499 . S
C1198 H1178 0.950 . S
C1198 C1197 1.414 . S
C1198 C1199 1.374 . S
C1199 H1179 0.950 . S
C1199 C1195 1.385 . S
C1199 C1198 1.374 . S
C1200 C1197 1.499 . S
C1200 C1201 1.373 . S
C1200 C1202 1.389 . S
C1201 H1180 0.950 . S
C1201 C1200 1.373 . S
C1201 C1217 1.377 . S
C1202 C1200 1.389 . S
C1202 C1203 1.524 . S
C1202 C1216 1.377 . S
C1203 C1202 1.524 . S
C1203 C1204 1.397 . S
C1203 C1208 1.363 . S
C1204 H1181 0.950 . S
C1204 C1203 1.397 . S
C1204 C1205 1.334 . S
C1205 H1182 0.950 . S
C1205 C1204 1.334 . S
C1205 C1206 1.287 . S
C1206 C1205 1.287 . S
C1206 C1207 1.524 . S
C1206 H1225 0.913 . S
C1207 H1183 0.950 . S
C1207 C1206 1.524 . S
C1207 C1208 1.415 . S
C1208 H1184 0.950 . S
C1208 C1203 1.363 . S
C1208 C1207 1.415 . S
C1209 H1185 0.951 . S
C1209 C1210 1.366 . S
C1209 C1211 1.388 . S
C1210 C1209 1.366 . S
C1210 C1214 1.385 . S
C1211 H1186 0.951 . S
C1211 C1209 1.388 . S
C1211 C1212 1.366 . S
C1212 C1211 1.366 . S
C1212 C1213 1.414 . S
C1212 C1215 1.499 . S
C1213 H1187 0.950 . S
C1213 C1212 1.414 . S
C1213 C1214 1.374 . S
C1214 H1188 0.950 . S
C1214 C1210 1.385 . S
C1214 C1213 1.374 . S
C1215 C1212 1.499 . S
C1215 C1216 1.373 . S
C1215 C1217 1.389 . S
C1216 H1189 0.950 . S
C1216 C1202 1.377 . S
C1216 C1215 1.373 . S
C1217 C1201 1.377 . S
C1217 C1215 1.389 . S
C1217 C1218 1.524 . S
C1218 C1217 1.524 . S
C1218 C1219 1.397 . S
C1218 C1223 1.363 . S
C1219 H1190 0.950 . S
C1219 C1218 1.397 . S
C1219 C1220 1.334 . S
C1220 H1191 0.950 . S
C1220 C1219 1.334 . S
C1220 C1221 1.287 . S
C1221 C1220 1.287 . S
C1221 C1222 1.524 . S
C1221 H1224 0.999 . S
C1222 H1192 0.950 . S
C1222 C1221 1.524 . S
C1222 C1223 1.415 . S
C1223 H1193 0.950 . S
C1223 C1218 1.363 . S
C1223 C1222 1.415 . S
H1224 C1221 0.999 . S
H1225 C1206 0.913 . S
H1226 C1244 0.951 . S
H1227 C1246 0.951 . S
H1228 C1248 0.950 . S
H1229 C1249 0.950 . S
H1230 C1251 0.950 . S
H1231 C1254 0.950 . S
H1232 C1255 0.950 . S
H1233 C1257 0.950 . S
H1234 C1258 0.950 . S
H1235 C1259 0.951 . S
H1236 C1261 0.951 . S
H1237 C1263 0.950 . S
H1238 C1264 0.950 . S
H1239 C1266 0.950 . S
H1240 C1269 0.950 . S
H1241 C1270 0.950 . S
H1242 C1272 0.950 . S
H1243 C1273 0.950 . S
C1244 H1226 0.951 . S
C1244 C1245 1.366 . S
C1244 C1246 1.388 . S
C1245 C1244 1.366 . S
C1245 C1249 1.385 . S
C1246 H1227 0.951 . S
C1246 C1244 1.388 . S
C1246 C1247 1.366 . S
C1247 C1246 1.366 . S
C1247 C1248 1.414 . S
C1247 C1250 1.499 . S
C1248 H1228 0.950 . S
C1248 C1247 1.414 . S
C1248 C1249 1.374 . S
C1249 H1229 0.950 . S
C1249 C1245 1.385 . S
C1249 C1248 1.374 . S
C1250 C1247 1.499 . S
C1250 C1251 1.373 . S
C1250 C1252 1.389 . S
C1251 H1230 0.950 . S
C1251 C1250 1.373 . S
C1251 C1267 1.377 . S
C1252 C1250 1.389 . S
C1252 C1253 1.524 . S
C1252 C1266 1.377 . S
C1253 C1252 1.524 . S
C1253 C1254 1.397 . S
C1253 C1258 1.363 . S
C1254 H1231 0.950 . S
C1254 C1253 1.397 . S
C1254 C1255 1.334 . S
C1255 H1232 0.950 . S
C1255 C1254 1.334 . S
C1255 C1256 1.287 . S
C1256 C1255 1.287 . S
C1256 C1257 1.524 . S
C1256 H1275 0.913 . S
C1257 H1233 0.950 . S
C1257 C1256 1.524 . S
C1257 C1258 1.415 . S
C1258 H1234 0.950 . S
C1258 C1253 1.363 . S
C1258 C1257 1.415 . S
C1259 H1235 0.951 . S
C1259 C1260 1.366 . S
C1259 C1261 1.388 . S
C1260 C1259 1.366 . S
C1260 C1264 1.385 . S
C1261 H1236 0.951 . S
C1261 C1259 1.388 . S
C1261 C1262 1.366 . S
C1262 C1261 1.366 . S
C1262 C1263 1.414 . S
C1262 C1265 1.499 . S
C1263 H1237 0.950 . S
C1263 C1262 1.414 . S
C1263 C1264 1.374 . S
C1264 H1238 0.950 . S
C1264 C1260 1.385 . S
C1264 C1263 1.374 . S
C1265 C1262 1.499 . S
C1265 C1266 1.373 . S
C1265 C1267 1.389 . S
C1266 H1239 0.950 . S
C1266 C1252 1.377 . S
C1266 C1265 1.373 . S
C1267 C1251 1.377 . S
C1267 C1265 1.389 . S
C1267 C1268 1.524 . S
C1268 C1267 1.524 . S
C1268 C1269 1.397 . S
C1268 C1273 1.363 . S
C1269 H1240 0.950 . S
C1269 C1268 1.397 . S
C1269 C1270 1.334 . S
C1270 H1241 0.950 . S
C1270 C1269 1.334 . S
C1270 C1271 1.287 . S
C1271 C1270 1.287 . S
C1271 C1272 1.524 . S
C1271 H1274 0.999 . S
C1272 H1242 0.950 . S
C1272 C1271 1.524 . S
C1272 C1273 1.415 . S
C1273 H1243 0.950 . S
C1273 C1268 1.363 . S
C1273 C1272 1.415 . S
H1274 C1271 0.999 . S
H1275 C1256 0.913 . S
H1276 C1294 0.951 . S
H1277 C1296 0.951 . S
H1278 C1298 0.950 . S
H1279 C1299 0.950 . S
H1280 C1301 0.950 . S
H1281 C1304 0.950 . S
H1282 C1305 0.950 . S
H1283 C1307 0.950 . S
H1284 C1308 0.950 . S
H1285 C1309 0.951 . S
H1286 C1311 0.951 . S
H1287 C1313 0.950 . S
H1288 C1314 0.950 . S
H1289 C1316 0.950 . S
H1290 C1319 0.950 . S
H1291 C1320 0.950 . S
H1292 C1322 0.950 . S
H1293 C1323 0.950 . S
C1294 H1276 0.951 . S
C1294 C1295 1.366 . S
C1294 C1296 1.388 . S
C1295 C1294 1.366 . S
C1295 C1299 1.385 . S
C1296 H1277 0.951 . S
C1296 C1294 1.388 . S
C1296 C1297 1.366 . S
C1297 C1296 1.366 . S
C1297 C1298 1.414 . S
C1297 C1300 1.499 . S
C1298 H1278 0.950 . S
C1298 C1297 1.414 . S
C1298 C1299 1.374 . S
C1299 H1279 0.950 . S
C1299 C1295 1.385 . S
C1299 C1298 1.374 . S
C1300 C1297 1.499 . S
C1300 C1301 1.373 . S
C1300 C1302 1.389 . S
C1301 H1280 0.950 . S
C1301 C1300 1.373 . S
C1301 C1317 1.377 . S
C1302 C1300 1.389 . S
C1302 C1303 1.524 . S
C1302 C1316 1.377 . S
C1303 C1302 1.524 . S
C1303 C1304 1.397 . S
C1303 C1308 1.363 . S
C1304 H1281 0.950 . S
C1304 C1303 1.397 . S
C1304 C1305 1.334 . S
C1305 H1282 0.950 . S
C1305 C1304 1.334 . S
C1305 C1306 1.287 . S
C1306 C1305 1.287 . S
C1306 C1307 1.524 . S
C1306 H1325 0.913 . S
C1307 H1283 0.950 . S
C1307 C1306 1.524 . S
C1307 C1308 1.415 . S
C1308 H1284 0.950 . S
C1308 C1303 1.363 . S
C1308 C1307 1.415 . S
C1309 H1285 0.951 . S
C1309 C1310 1.366 . S
C1309 C1311 1.388 . S
C1310 C1309 1.366 . S
C1310 C1314 1.385 . S
C1311 H1286 0.951 . S
C1311 C1309 1.388 . S
C1311 C1312 1.366 . S
C1312 C1311 1.366 . S
C1312 C1313 1.414 . S
C1312 C1315 1.499 . S
C1313 H1287 0.950 . S
C1313 C1312 1.414 . S
C1313 C1314 1.374 . S
C1314 H1288 0.950 . S
C1314 C1310 1.385 . S
C1314 C1313 1.374 . S
C1315 C1312 1.499 . S
C1315 C1316 1.373 . S
C1315 C1317 1.389 . S
C1316 H1289 0.950 . S
C1316 C1302 1.377 . S
C1316 C1315 1.373 . S
C1317 C1301 1.377 . S
C1317 C1315 1.389 . S
C1317 C1318 1.524 . S
C1318 C1317 1.524 . S
C1318 C1319 1.397 . S
C1318 C1323 1.363 . S
C1319 H1290 0.950 . S
C1319 C1318 1.397 . S
C1319 C1320 1.334 . S
C1320 H1291 0.950 . S
C1320 C1319 1.334 . S
C1320 C1321 1.287 . S
C1321 C1320 1.287 . S
C1321 C1322 1.524 . S
C1321 H1324 0.999 . S
C1322 H1292 0.950 . S
C1322 C1321 1.524 . S
C1322 C1323 1.415 . S
C1323 H1293 0.950 . S
C1323 C1318 1.363 . S
C1323 C1322 1.415 . S
H1324 C1321 0.999 . S
H1325 C1306 0.913 . S
H1326 C1344 0.951 . S
H1327 C1346 0.951 . S
H1328 C1348 0.950 . S
H1329 C1349 0.950 . S
H1330 C1351 0.950 . S
H1331 C1354 0.950 . S
H1332 C1355 0.950 . S
H1333 C1357 0.950 . S
H1334 C1358 0.950 . S
H1335 C1359 0.951 . S
H1336 C1361 0.951 . S
H1337 C1363 0.950 . S
H1338 C1364 0.950 . S
H1339 C1366 0.950 . S
H1340 C1369 0.950 . S
H1341 C1370 0.950 . S
H1342 C1372 0.950 . S
H1343 C1373 0.950 . S
C1344 H1326 0.951 . S
C1344 C1345 1.366 . S
C1344 C1346 1.388 . S
C1345 C1344 1.366 . S
C1345 C1349 1.385 . S
C1346 H1327 0.951 . S
C1346 C1344 1.388 . S
C1346 C1347 1.366 . S
C1347 C1346 1.366 . S
C1347 C1348 1.414 . S
C1347 C1350 1.499 . S
C1348 H1328 0.950 . S
C1348 C1347 1.414 . S
C1348 C1349 1.374 . S
C1349 H1329 0.950 . S
C1349 C1345 1.385 . S
C1349 C1348 1.374 . S
C1350 C1347 1.499 . S
C1350 C1351 1.373 . S
C1350 C1352 1.389 . S
C1351 H1330 0.950 . S
C1351 C1350 1.373 . S
C1351 C1367 1.377 . S
C1352 C1350 1.389 . S
C1352 C1353 1.524 . S
C1352 C1366 1.377 . S
C1353 C1352 1.524 . S
C1353 C1354 1.397 . S
C1353 C1358 1.363 . S
C1354 H1331 0.950 . S
C1354 C1353 1.397 . S
C1354 C1355 1.334 . S
C1355 H1332 0.950 . S
C1355 C1354 1.334 . S
C1355 C1356 1.287 . S
C1356 C1355 1.287 . S
C1356 C1357 1.524 . S
C1356 H1375 0.913 . S
C1357 H1333 0.950 . S
C1357 C1356 1.524 . S
C1357 C1358 1.415 . S
C1358 H1334 0.950 . S
C1358 C1353 1.363 . S
C1358 C1357 1.415 . S
C1359 H1335 0.951 . S
C1359 C1360 1.366 . S
C1359 C1361 1.388 . S
C1360 C1359 1.366 . S
C1360 C1364 1.385 . S
C1361 H1336 0.951 . S
C1361 C1359 1.388 . S
C1361 C1362 1.366 . S
C1362 C1361 1.366 . S
C1362 C1363 1.414 . S
C1362 C1365 1.499 . S
C1363 H1337 0.950 . S
C1363 C1362 1.414 . S
C1363 C1364 1.374 . S
C1364 H1338 0.950 . S
C1364 C1360 1.385 . S
C1364 C1363 1.374 . S
C1365 C1362 1.499 . S
C1365 C1366 1.373 . S
C1365 C1367 1.389 . S
C1366 H1339 0.950 . S
C1366 C1352 1.377 . S
C1366 C1365 1.373 . S
C1367 C1351 1.377 . S
C1367 C1365 1.389 . S
C1367 C1368 1.524 . S
C1368 C1367 1.524 . S
C1368 C1369 1.397 . S
C1368 C1373 1.363 . S
C1369 H1340 0.950 . S
C1369 C1368 1.397 . S
C1369 C1370 1.334 . S
C1370 H1341 0.950 . S
C1370 C1369 1.334 . S
C1370 C1371 1.287 . S
C1371 C1370 1.287 . S
C1371 C1372 1.524 . S
C1371 H1374 0.999 . S
C1372 H1342 0.950 . S
C1372 C1371 1.524 . S
C1372 C1373 1.415 . S
C1373 H1343 0.950 . S
C1373 C1368 1.363 . S
C1373 C1372 1.415 . S
H1374 C1371 0.999 . S
H1375 C1356 0.913 . S
C195 C8 1.719 . S
C210 C114 1.720 . S
C260 C92 1.380 . S
C245 C19 1.406 . S
C310 C118 1.517 . S
C295 C30 1.544 . S
C360 C96 1.525 . S
C345 C41 1.548 . S
C410 C158 1.720 . S
C395 C52 1.719 . S
C460 C136 1.380 . S
C445 C63 1.406 . S
C495 C74 1.544 . S
C510 C162 1.517 . S
C560 C140 1.525 . S
C545 C85 1.549 . S
C595 C7 1.670 . S
C610 C163 1.715 . S
C660 C141 1.294 . S
C645 C16 1.188 . S
C695 C29 1.571 . S
C710 C160 1.560 . S
C745 C40 1.504 . S
C760 C138 1.491 . S
C810 C119 1.715 . S
C795 C51 1.671 . S
C845 C60 1.189 . S
C860 C97 1.293 . S
C910 C116 1.560 . S
C895 C73 1.571 . S
C960 C94 1.491 . S
C945 C84 1.504 . S
C1010 C137 1.458 . S
C995 C5 1.216 . S
C1060 C159 1.438 . S
C1045 C18 1.450 . S
C1095 C27 1.345 . S
C1110 C139 1.461 . S
C1160 C161 1.434 . S
C1145 C38 1.315 . S
C1210 C93 1.458 . S
C1195 C49 1.215 . S
C1245 C62 1.450 . S
C1260 C115 1.438 . S
C1295 C71 1.343 . S
C1310 C95 1.462 . S
C1345 C82 1.315 . S
C1360 C117 1.435 . S
