# Generated by pormake.
# Topology ocu, (6,8)-cn, num edge types: 1
# Building blocks:
#     Node 0, Type 0, BuildingBlock: NUHQIS_clean_sbu_0, # of connection points: 6
#     Node 1, Type 0, BuildingBlock: NUHQIS_clean_sbu_0, # of connection points: 6
#     Node 2, Type 0, BuildingBlock: NUHQIS_clean_sbu_0, # of connection points: 6
#     Node 3, Type 0, BuildingBlock: NUHQIS_clean_sbu_0, # of connection points: 6
#     Node 4, Type 0, BuildingBlock: NUHQIS_clean_sbu_0, # of connection points: 6
#     Node 5, Type 0, BuildingBlock: NUHQIS_clean_sbu_0, # of connection points: 6
#     Node 6, Type 0, BuildingBlock: NUHQIS_clean_sbu_0, # of connection points: 6
#     Node 7, Type 0, BuildingBlock: NUHQIS_clean_sbu_0, # of connection points: 6
#     Node 8, Type 1, BuildingBlock: VETTIZ_charged_sbu_0, # of connection points: 8
#     Node 9, Type 1, BuildingBlock: VETTIZ_charged_sbu_0, # of connection points: 8
#     Node 10, Type 1, BuildingBlock: VETTIZ_charged_sbu_0, # of connection points: 8
#     Node 11, Type 1, BuildingBlock: VETTIZ_charged_sbu_0, # of connection points: 8
#     Node 12, Type 1, BuildingBlock: VETTIZ_charged_sbu_0, # of connection points: 8
#     Node 13, Type 1, BuildingBlock: VETTIZ_charged_sbu_0, # of connection points: 8
#     Edge 14, Type (0, 1), None
#     Edge 15, Type (0, 1), None
#     Edge 16, Type (0, 1), None
#     Edge 17, Type (0, 1), None
#     Edge 18, Type (0, 1), None
#     Edge 19, Type (0, 1), None
#     Edge 20, Type (0, 1), None
#     Edge 21, Type (0, 1), None
#     Edge 22, Type (0, 1), None
#     Edge 23, Type (0, 1), None
#     Edge 24, Type (0, 1), None
#     Edge 25, Type (0, 1), None
#     Edge 26, Type (0, 1), None
#     Edge 27, Type (0, 1), None
#     Edge 28, Type (0, 1), None
#     Edge 29, Type (0, 1), None
#     Edge 30, Type (0, 1), None
#     Edge 31, Type (0, 1), None
#     Edge 32, Type (0, 1), None
#     Edge 33, Type (0, 1), None
#     Edge 34, Type (0, 1), None
#     Edge 35, Type (0, 1), None
#     Edge 36, Type (0, 1), None
#     Edge 37, Type (0, 1), None
#     Edge 38, Type (0, 1), None
#     Edge 39, Type (0, 1), None
#     Edge 40, Type (0, 1), None
#     Edge 41, Type (0, 1), None
#     Edge 42, Type (0, 1), None
#     Edge 43, Type (0, 1), None
#     Edge 44, Type (0, 1), None
#     Edge 45, Type (0, 1), None
#     Edge 46, Type (0, 1), None
#     Edge 47, Type (0, 1), None
#     Edge 48, Type (0, 1), None
#     Edge 49, Type (0, 1), None
#     Edge 50, Type (0, 1), None
#     Edge 51, Type (0, 1), None
#     Edge 52, Type (0, 1), None
#     Edge 53, Type (0, 1), None
#     Edge 54, Type (0, 1), None
#     Edge 55, Type (0, 1), None
#     Edge 56, Type (0, 1), None
#     Edge 57, Type (0, 1), None
#     Edge 58, Type (0, 1), None
#     Edge 59, Type (0, 1), None
#     Edge 60, Type (0, 1), None
#     Edge 61, Type (0, 1), None
# Relax obj value: 0.330
# Max RMSD: 0.244
# Mean RMSD: 0.162
data_MOF--net-ocu--node1-NUHQIS_clean_sbu_0--node2-VETTIZ_charged_sbu_0--edge1-none
_symmetry_space_group_name_H-M    P1
_symmetry_Int_Tables_number       1
_symmetry_cell_setting            triclinic
loop_
_symmetry_equiv_pos_as_xyz
'x, y, z'
_cell_length_a     19.28697
_cell_length_b     20.862984
_cell_length_c     20.215246
_cell_angle_alpha  99.648666
_cell_angle_beta   83.271013
_cell_angle_gamma 108.81021
loop_
_atom_site_label
_atom_site_type_symbol
_atom_site_fract_x
_atom_site_fract_y
_atom_site_fract_z
_atom_type_partial_charge
Tb0 Tb 0.33915 0.28609 0.33852 0.0
Eu1 Eu 0.41116 0.35016 0.40261 0.0
C2 C 0.49045 0.24442 0.28253 0.0
C3 C 0.32694 0.22139 0.46447 0.0
C4 C 0.2299 0.24763 0.19697 0.0
C5 C 0.30366 0.34626 0.14573 0.0
C6 C 0.29011 0.27833 0.15424 0.0
C7 C 0.17215 0.2757 0.20984 0.0
C8 C 0.1881 0.34492 0.20749 0.0
C9 C 0.25583 0.38192 0.17844 0.0
C10 C 0.24589 0.22187 0.25469 0.0
O11 O 0.29312 0.3579 0.42836 0.0
O12 O 0.29105 0.35911 0.43005 0.0
O13 O 0.41957 0.43787 0.3502 0.0
O14 O 0.40858 0.3552 0.26751 0.0
C15 C 0.27131 0.41529 0.43127 0.0
O16 O 0.45176 0.41058 0.49605 0.0
O17 O 0.52079 0.42391 0.40207 0.0
O18 O 0.44042 0.2484 0.33538 0.0
O19 O 0.44065 0.24699 0.3357 0.0
O20 O 0.30486 0.20796 0.40411 0.0
O21 O 0.37329 0.28118 0.4823 0.0
C22 C 0.43253 0.42061 0.2876 0.0
O23 O 0.31023 0.21337 0.25235 0.0
O24 O 0.23082 0.25479 0.31268 0.0
C25 C 0.56341 0.39613 0.49144 0.0
C26 C 0.56006 0.28462 0.54918 0.0
C27 C 0.56762 0.34776 0.58975 0.0
C28 C 0.56905 0.40389 0.56077 0.0
C29 C 0.56445 0.33456 0.45108 0.0
C30 C 0.5597 0.27837 0.47989 0.0
C31 C 0.5186 0.4292 0.4678 0.0
H32 H 0.35404 0.37174 0.11858 0.0
H33 H 0.33311 0.25501 0.13808 0.0
H34 H 0.123 0.2509 0.23885 0.0
H35 H 0.1499 0.37004 0.23342 0.0
H36 H 0.57213 0.35326 0.64349 0.0
H37 H 0.56666 0.45048 0.5927 0.0
H38 H 0.56192 0.32749 0.39711 0.0
H39 H 0.55935 0.23108 0.44775 0.0
Tb40 Tb 0.94253 0.24856 0.37134 0.0
Eu41 Eu 0.82998 0.33243 0.40098 0.0
C42 C 0.79799 0.19813 0.31022 0.0
C43 C 0.967 0.36697 0.28727 0.0
C44 C 1.01768 0.10453 0.31664 0.0
C45 C 1.08684 0.05192 0.36786 0.0
C46 C 1.08309 0.09018 0.3193 0.0
C47 C 0.95173 0.06111 0.34169 0.0
C48 C 0.95495 1.02186 0.38956 0.0
C49 C 1.02403 1.02763 0.41032 0.0
C50 C 1.02388 0.17629 0.32424 0.0
O51 O 0.97954 0.32149 0.4585 0.0
O52 O 0.92683 0.40218 0.4446 0.0
O53 O 0.82731 0.28749 0.49481 0.0
O54 O 0.84858 0.19121 0.4384 0.0
C55 C 0.97086 0.38223 0.47323 0.0
O56 O 0.80305 0.42764 0.41858 0.0
O57 O 0.71737 0.3308 0.42608 0.0
O58 O 0.76541 0.22926 0.35762 0.0
O59 O 0.86737 0.22357 0.29607 0.0
O60 O 0.99992 0.34023 0.32349 0.0
O61 O 0.89581 0.35907 0.30065 0.0
C62 C 0.8165 0.22187 0.49065 0.0
O63 O 0.98117 0.19155 0.28872 0.0
O64 O 1.02335 0.20644 0.38647 0.0
C65 C 0.70764 0.39881 0.35236 0.0
C66 C 0.70325 0.43579 0.22862 0.0
C67 C 0.67651 0.46897 0.28774 0.0
C68 C 0.68109 0.45221 0.34966 0.0
C69 C 0.72705 0.36033 0.29301 0.0
C70 C 0.72641 0.37982 0.23097 0.0
C71 C 0.73381 0.39338 0.41378 0.0
H72 H 0.14047 0.05339 0.3802 0.0
H73 H 0.13371 0.12015 0.29601 0.0
H74 H 0.89982 0.06895 0.33656 0.0
H75 H 0.9047 0.99882 0.41856 0.0
H76 H 0.65598 0.51068 0.28757 0.0
H77 H 0.66821 0.4833 0.39502 0.0
H78 H 0.74866 0.31898 0.29485 0.0
H79 H 0.74572 0.35286 0.18572 0.0
Tb80 Tb 0.83861 0.77603 0.40663 0.0
Eu81 Eu 0.96368 0.83478 0.33314 0.0
C82 C 0.84448 0.68815 0.27922 0.0
C83 C 0.97773 0.72107 0.43403 0.0
C84 C 0.69682 0.80135 0.50483 0.0
C85 C 0.59737 0.83855 0.55351 0.0
C86 C 0.62985 0.78782 0.54014 0.0
C87 C 0.73418 0.86649 0.48615 0.0
C88 C 0.7047 0.91926 0.50496 0.0
C89 C 0.63581 0.90519 0.53867 0.0
C90 C 0.72604 0.74732 0.48007 0.0
O91 O 0.89597 0.86256 0.479 0.0
O92 O 1.00875 0.8759 0.43333 0.0
O93 O 0.89631 0.89923 0.29502 0.0
O94 O 0.79145 0.82923 0.32982 0.0
C95 C 0.96631 0.87965 0.48644 0.0
O96 O 1.07707 0.86877 0.30071 0.0
O97 O 1.00655 0.92058 0.27417 0.0
O98 O 0.89324 0.74485 0.26275 0.0
O99 O 0.82864 0.68239 0.34198 0.0
O100 O 0.90862 0.72248 0.45089 0.0
O101 O 1.00921 0.75668 0.38196 0.0
C102 C 0.82422 0.8804 0.29066 0.0
O103 O 0.7253 0.73215 0.41512 0.0
O104 O 0.7895 0.7574 0.50228 0.0
C105 C 1.08174 0.8815 0.18975 0.0
C106 C 1.0886 0.75678 0.20891 0.0
C107 C 0.15452 0.81139 0.19687 0.0
C108 C 0.15088 0.87298 0.18194 0.0
C109 C 1.02304 0.82258 0.17011 0.0
C110 C 1.0248 0.75962 0.18463 0.0
C111 C 1.06808 0.90693 0.25962 0.0
H112 H 0.54164 0.82499 0.57571 0.0
H113 H 0.60111 0.73739 0.55364 0.0
H114 H 0.78495 0.87635 0.45542 0.0
H115 H 0.73431 0.96961 0.49159 0.0
H116 H 0.20853 0.80719 0.19977 0.0
H117 H 0.2001 0.91665 0.18177 0.0
H118 H 0.9716 0.82716 0.15844 0.0
H119 H 0.97849 0.714 0.17564 0.0
Tb120 Tb 0.43163 0.77239 0.42256 0.0
Eu121 Eu 0.33405 0.8354 0.3581 0.0
C122 C 0.41672 0.91645 0.49495 0.0
C123 C 0.28075 0.75559 0.47553 0.0
C124 C 0.49148 0.63038 0.44588 0.0
C125 C 0.57943 0.63473 0.35207 0.0
C126 C 0.56182 0.62955 0.42046 0.0
C127 C 0.43474 0.59414 0.40387 0.0
C128 C 0.44956 0.59844 0.33551 0.0
C129 C 0.5227 0.62687 0.31054 0.0
C130 C 0.48807 0.69949 0.47225 0.0
O131 O 0.36797 0.6971 0.33956 0.0
O132 O 0.37405 0.77271 0.26998 0.0
O133 O 0.44297 0.90928 0.35995 0.0
O134 O 0.50199 0.82924 0.34636 0.0
C135 C 0.36474 0.70951 0.27761 0.0
O136 O 0.22493 0.80674 0.32143 0.0
O137 O 0.29764 0.91041 0.31995 0.0
O138 O 0.35694 0.90196 0.4615 0.0
O139 O 0.45895 0.876 0.48157 0.0
O140 O 0.34556 0.78068 0.49623 0.0
O141 O 0.27155 0.74986 0.41243 0.0
C142 C 0.50038 0.89023 0.33967 0.0
O143 O 0.52495 0.74712 0.43528 0.0
O144 O 0.42255 0.70365 0.49062 0.0
C145 C 0.18832 0.89368 0.3888 0.0
C146 C 0.21052 0.9327 0.52547 0.0
C147 C 0.23204 0.98062 0.47968 0.0
C148 C 0.21426 0.96277 0.41352 0.0
C149 C 0.15662 0.84673 0.43525 0.0
C150 C 0.16663 0.86687 0.50367 0.0
C151 C 0.22964 0.87129 0.32876 0.0
H152 H 0.63616 0.64807 0.33284 0.0
H153 H 0.60502 0.6418 0.4542 0.0
H154 H 0.37799 0.58088 0.42373 0.0
H155 H 0.40404 0.58277 0.30353 0.0
H156 H 0.26729 1.03093 0.49303 0.0
H157 H 0.23769 1.00042 0.37941 0.0
H158 H 0.13555 0.79259 0.41829 0.0
H159 H 0.14554 0.83038 0.53855 0.0
Tb160 Tb 0.40698 0.80921 0.87476 0.0
Eu161 Eu 0.30559 0.87555 0.95592 0.0
C162 C 0.25068 0.76685 0.81168 0.0
C163 C 0.41479 0.95018 0.84939 0.0
C164 C 0.55134 0.74615 0.86892 0.0
C165 C 0.52275 0.64597 0.92348 0.0
C166 C 0.52908 0.67506 0.86548 0.0
C167 C 0.58421 0.78698 0.92668 0.0
C168 C 0.58183 0.75729 0.98392 0.0
C169 C 0.54604 0.68757 0.98367 0.0
C170 C 0.51441 0.7745 0.82758 0.0
O171 O 0.46515 0.8619 0.97096 0.0
O172 O 0.377 0.89017 1.0437 0.0
O173 O 0.29134 0.78611 1.01233 0.0
O174 O 0.36359 0.73289 0.9411 0.0
C175 C 0.44381 0.88469 1.03332 0.0
O176 O 0.27749 0.96362 1.01446 0.0
O177 O 0.19566 0.88197 0.96263 0.0
O178 O 0.2399 0.81432 0.86077 0.0
O179 O 0.3122 0.75121 0.81104 0.0
O180 O 0.39831 0.88755 0.81947 0.0
O181 O 0.40166 0.95794 0.91407 0.0
C182 C 0.32272 0.73733 0.99657 0.0
O183 O 0.44782 0.73626 0.81376 0.0
O184 O 0.51901 0.83891 0.84532 0.0
C185 C 0.21211 0.98705 0.93673 0.0
C186 C 0.20845 0.04449 0.82279 0.0
C187 C 0.16211 0.05453 0.88054 0.0
C188 C 0.1644 1.02589 0.93847 0.0
C189 C 0.25432 0.97601 0.87776 0.0
C190 C 0.2537 1.0045 0.82231 0.0
C191 C 0.21471 0.94615 0.98756 0.0
H192 H 0.49774 0.59139 0.92146 0.0
H193 H 0.50763 0.64294 0.82026 0.0
H194 H 0.60473 0.84218 0.93006 0.0
H195 H 0.6034 0.78877 1.02951 0.0
H196 H 0.12478 0.08374 0.88056 0.0
H197 H 0.12856 1.03239 0.98274 0.0
H198 H 0.28336 0.93965 0.87237 0.0
H199 H 0.28581 0.99141 0.77746 0.0
Tb200 Tb 0.3982 0.38476 0.80987 0.0
Eu201 Eu 0.33936 0.26105 0.89397 0.0
C202 C 0.45474 0.40415 0.94548 0.0
C203 C 0.48883 0.27939 0.79819 0.0
C204 C 0.40434 0.54446 0.75751 0.0
C205 C 0.35694 0.60294 0.6894 0.0
C206 C 0.41054 0.57469 0.69954 0.0
C207 C 0.3523 0.55361 0.81018 0.0
C208 C 0.29854 0.58146 0.79971 0.0
C209 C 0.29606 0.59834 0.73617 0.0
C210 C 0.44234 0.49426 0.75839 0.0
O211 O 0.30273 0.32362 0.75412 0.0
O212 O 0.27039 0.22697 0.80436 0.0
O213 O 0.25761 0.31286 0.94346 0.0
O214 O 0.32006 0.40929 0.89476 0.0
C215 C 0.2624 0.26005 0.75761 0.0
O216 O 0.32625 0.15356 0.88438 0.0
O217 O 0.30268 0.20798 0.98174 0.0
O218 O 0.39931 0.35329 0.9636 0.0
O219 O 0.47776 0.40516 0.88264 0.0
O220 O 0.46626 0.31748 0.76456 0.0
O221 O 0.4563 0.26575 0.85709 0.0
C222 C 0.27104 0.37797 0.94118 0.0
O223 O 0.45803 0.48885 0.81745 0.0
O224 O 0.41317 0.43443 0.72432 0.0
C225 C 0.36735 0.13072 0.97874 0.0
C226 C 0.4677 0.09643 1.04356 0.0
C227 C 0.39632 0.09192 1.07325 0.0
C228 C 0.34722 0.10957 1.04143 0.0
C229 C 0.43833 0.13614 0.94847 0.0
C230 C 0.48875 0.11935 0.98104 0.0
C231 C 0.31597 0.15323 0.94912 0.0
H232 H 0.35619 0.61687 0.64023 0.0
H233 H 0.45152 0.56964 0.65921 0.0
H234 H 0.34815 0.53264 0.85649 0.0
H235 H 0.25252 0.5784 0.83671 0.0
H236 H 0.37787 0.07606 0.12237 0.0
H237 H 0.29343 0.10685 1.066 0.0
H238 H 0.45515 0.15424 0.90033 0.0
H239 H 0.54349 0.12457 0.95785 0.0
Tb240 Tb 0.94253 0.26822 0.89168 0.0
Eu241 Eu 0.85805 0.34786 0.90918 0.0
C242 C 0.96533 0.39709 1.0115 0.0
C243 C 0.82573 0.23408 1.01548 0.0
C244 C 1.02395 0.20952 0.77201 0.0
C245 C 1.0577 0.27399 0.67701 0.0
C246 C 1.07599 0.25957 0.73702 0.0
C247 C 0.9518 0.18576 0.7506 0.0
C248 C 0.93343 0.21607 0.70106 0.0
C249 C 0.98984 0.23369 0.65152 0.0
C250 C 1.02914 0.21059 0.84387 0.0
O251 O 0.84731 0.22301 0.82624 0.0
O252 O 0.76639 0.24787 0.90053 0.0
O253 O 0.97075 0.41898 0.87142 0.0
O254 O 0.97923 0.32984 0.80413 0.0
C255 C 0.77772 0.20871 0.84676 0.0
O256 O 0.82745 0.34679 0.80835 0.0
O257 O 0.80257 0.4175 0.89569 0.0
O258 O 0.90559 0.40864 1.00019 0.0
O259 O 0.98955 0.34985 0.9733 0.0
O260 O 0.87975 0.21698 0.97842 0.0
O261 O 0.8061 0.28507 0.9988 0.0
C262 C 1.00026 0.39671 0.81448 0.0
O263 O 1.05449 0.27288 0.87488 0.0
O264 O 0.96886 0.17498 0.87492 0.0
C265 C 0.71621 0.37292 0.81307 0.0
C266 C 0.66222 0.43158 0.92579 0.0
C267 C 0.67918 0.46645 0.8691 0.0
C268 C 0.70009 0.43257 0.80839 0.0
C269 C 0.66664 0.3296 0.85559 0.0
C270 C 0.64275 0.36037 0.91636 0.0
C271 C 0.79214 0.39116 0.83176 0.0
H272 H 0.10039 0.30471 0.6453 0.0
H273 H 0.12858 0.28836 0.75677 0.0
H274 H 0.90904 0.14628 0.77351 0.0
H275 H 0.87706 0.19737 0.68707 0.0
H276 H 0.6874 0.52051 0.87313 0.0
H277 H 0.72583 0.46219 0.76793 0.0
H278 H 0.66335 0.2769 0.85227 0.0
H279 H 0.62285 0.33117 0.95807 0.0
Tb280 Tb 0.80966 0.78948 0.82939 0.0
Eu281 Eu 0.9369 0.83934 0.92281 0.0
C282 C 0.94648 0.73244 0.79826 0.0
C283 C 0.80229 0.70466 0.93789 0.0
C284 C 0.67837 0.79079 0.71821 0.0
C285 C 0.5643 0.80403 0.69595 0.0
C286 C 0.60697 0.76168 0.6977 0.0
C287 C 0.70986 0.86182 0.72869 0.0
C288 C 0.66716 0.90356 0.72926 0.0
C289 C 0.59291 0.87474 0.71697 0.0
C290 C 0.71407 0.75018 0.74439 0.0
O291 O 0.76603 0.83917 0.92794 0.0
O292 O 0.87495 0.91413 0.96206 0.0
O293 O 0.97556 0.89693 0.83228 0.0
O294 O 0.86221 0.89545 0.81217 0.0
C295 C 0.803 0.89255 0.97033 0.0
O296 O 0.97394 0.8594 1.02446 0.0
O297 O 1.05264 0.86362 0.93818 0.0
O298 O 0.95183 0.74261 0.86272 0.0
O299 O 0.90414 0.76027 0.77419 0.0
O300 O 0.79433 0.6985 0.87406 0.0
O301 O 0.84136 0.76259 0.9694 0.0
C302 C 0.93343 0.91854 0.80053 0.0
O303 O 0.78417 0.76537 0.72844 0.0
O304 O 0.6992 0.7471 0.80852 0.0
C305 C 1.04826 0.78875 1.01275 0.0
C306 C 1.07023 0.66655 1.02852 0.0
C307 C 0.12448 0.72895 1.04352 0.0
C308 C 0.1123 0.78932 1.03811 0.0
C309 C 0.99462 0.72572 0.99558 0.0
C310 C 1.00501 0.66479 1.00391 0.0
C311 C 1.03704 0.85182 1.00046 0.0
H312 H 0.50755 0.78098 0.68376 0.0
H313 H 0.58233 0.70666 0.68891 0.0
H314 H 0.76578 0.88521 0.74206 0.0
H315 H 0.69178 0.95813 0.74282 0.0
H316 H 0.17201 0.73189 1.06838 0.0
H317 H 0.15154 0.83614 1.05761 0.0
H318 H 0.9434 0.72347 0.97848 0.0
H319 H 0.96078 0.61719 0.99525 0.0
Fe320 Fe 0.1317 0.12512 0.59016 0.0
O321 O 1.05107 0.06342 0.64519 0.0
Fe322 Fe 0.294 0.10293 0.62649 0.0
Fe323 Fe 0.94836 1.01567 0.6197 0.0
O324 O 0.19256 0.06796 0.59985 0.0
O325 O 0.1904 0.06292 0.59842 0.0
O326 O 1.04898 0.05705 0.64626 0.0
Fe327 Fe 0.10914 0.99681 0.64873 0.0
C328 C 0.99584 0.17079 0.60862 0.0
O329 O 0.09644 0.06272 0.50314 0.0
O330 O 0.9736 1.02803 0.52104 0.0
O331 O 0.1862 0.94477 0.64355 0.0
O332 O 0.29569 1.00317 0.59781 0.0
O333 O 0.31922 0.141 0.53599 0.0
O334 O 0.22163 0.18238 0.53394 0.0
O335 O 0.95342 0.91939 0.60032 0.0
O336 O 1.06597 0.93835 0.55842 0.0
C337 C 0.28684 0.17814 0.51401 0.0
O338 O 0.14459 0.05463 0.73745 0.0
O339 O 0.26543 0.07612 0.72042 0.0
O340 O 1.06005 0.17643 0.5787 0.0
O341 O 0.9499 0.11429 0.62745 0.0
C342 C 1.03204 1.03605 0.48244 0.0
C343 C 0.9973 0.90862 0.5525 0.0
C344 C 0.96539 0.95443 0.74095 0.0
O345 O 0.93197 0.99195 0.7191 0.0
O346 O 1.02276 0.9398 0.70951 0.0
C347 C 0.23641 0.95148 0.59408 0.0
O348 O 0.28929 0.19901 0.65936 0.0
O349 O 0.17073 0.18855 0.6801 0.0
C350 C 0.20692 0.06697 0.75902 0.0
C351 C 0.23819 0.21703 0.69374 0.0
Fe352 Fe 0.6359 0.89899 0.15364 0.0
O353 O 0.68495 0.99654 0.1643 0.0
Fe354 Fe 0.50612 1.01925 0.21306 0.0
Fe355 Fe 0.79178 0.04412 0.14952 0.0
O356 O 0.62067 1.00686 0.17765 0.0
O357 O 0.60533 0.05389 0.19324 0.0
O358 O 0.72879 0.08213 0.1031 0.0
Fe359 Fe 0.65634 0.13596 0.15117 0.0
C360 C 0.78405 0.9164 0.2403 0.0
O361 O 0.70827 0.89227 1.06421 0.0
O362 O 0.80599 0.98468 1.05943 0.0
O363 O 0.58782 0.10348 1.07274 0.0
O364 O 0.48663 0.05386 0.13414 0.0
O365 O 0.47365 0.92199 0.15268 0.0
O366 O 0.55978 0.89592 1.08239 0.0
O367 O 0.79487 0.13784 0.09095 0.0
O368 O 0.7258 0.21078 0.10111 0.0
C369 C 0.49634 0.9052 0.09186 0.0
O370 O 0.58121 0.19409 0.20427 0.0
O371 O 0.50891 0.1219 0.27243 0.0
O372 O 0.71459 0.88942 0.2257 0.0
O373 O 0.82079 0.97185 0.21096 0.0
C374 C 0.7681 0.9256 1.03336 0.0
C375 C 0.78232 0.19382 1.0731 0.0
C376 C 0.75816 0.15128 0.25974 0.0
O377 O 0.78357 0.10262 0.23716 0.0
O378 O 0.71847 0.17278 0.22941 0.0
C379 C 0.51798 0.08091 1.08283 0.0
O380 O 0.53301 0.98444 0.29001 0.0
O381 O 0.56044 0.89058 0.23589 0.0
C382 C 0.52873 0.1829 0.25316 0.0
C383 C 0.54517 0.92754 0.2892 0.0
Fe384 Fe 0.19494 0.61914 0.14315 0.0
O385 O 0.11471 0.54661 0.18503 0.0
Fe386 Fe 0.33579 0.56123 1.08332 0.0
Fe387 Fe 1.00936 0.54194 0.18586 0.0
O388 O 0.23275 0.54754 0.09408 0.0
O389 O 0.22625 0.54208 1.08604 0.0
O390 O 0.11261 0.54113 0.18427 0.0
Fe391 Fe 0.14817 0.46706 0.12804 0.0
C392 C 1.09537 0.69217 0.22219 0.0
O393 O 0.13486 0.60333 1.06152 0.0
O394 O 1.02368 0.59685 0.10889 0.0
O395 O 0.20096 0.40422 1.05084 0.0
O396 O 0.30467 0.48324 1.00639 0.0
O397 O 0.34074 0.63712 1.02575 0.0
O398 O 0.27438 0.69331 0.09747 0.0
O399 O 0.97659 0.45379 0.12077 0.0
O400 O 1.07797 0.45492 1.05611 0.0
C401 C 0.31198 0.68605 1.04206 0.0
O402 O 0.22169 0.48115 0.19723 0.0
O403 O 0.32575 0.48419 0.13901 0.0
O404 O 0.15264 0.68667 0.189 0.0
O405 O 1.04109 0.64093 0.24106 0.0
C406 C 1.07265 0.61139 1.06161 0.0
C407 C 1.00887 0.43897 1.06511 0.0
C408 C 1.01133 0.41826 0.24174 0.0
O409 O 0.99611 0.47591 0.25415 0.0
O410 O 1.05844 0.40326 0.19194 0.0
C411 C 0.25426 0.42403 1.00278 0.0
O412 O 0.36211 0.63834 0.16878 0.0
O413 O 0.2566 0.63713 0.22569 0.0
C414 C 0.27327 0.45588 0.17922 0.0
C415 C 0.32627 0.65445 0.22324 0.0
Fe416 Fe 0.62287 0.5654 1.04258 0.0
O417 O 0.70128 0.6024 0.10777 0.0
Fe418 Fe 0.45676 0.54421 0.12854 0.0
Fe419 Fe 0.79193 0.57459 1.0831 0.0
O420 O 0.55314 0.53278 0.11808 0.0
O421 O 0.55337 0.52978 0.12141 0.0
O422 O 0.70152 0.60284 0.1136 0.0
Fe423 Fe 0.63071 0.56073 0.18695 0.0
C424 C 0.68632 0.46687 0.99073 0.0
O425 O 0.70449 0.60809 0.96856 0.0
O426 O 0.81196 0.64673 1.02226 0.0
O427 O 0.60235 0.64751 0.21389 0.0
O428 O 0.48376 0.62466 0.20552 0.0
O429 O 0.48168 0.61105 1.05804 0.0
O430 O 0.60162 0.65547 1.06026 0.0
O431 O 0.82869 0.63929 0.16749 0.0
O432 O 0.72886 0.60606 0.24427 0.0
C433 C 0.54137 0.65633 1.04337 0.0
O434 O 0.54348 0.50484 0.2523 0.0
O435 O 0.43624 0.47826 0.19841 0.0
O436 O 0.63722 0.47452 1.03239 0.0
O437 O 0.75144 0.50619 0.99796 0.0
C438 C 0.77147 0.64793 0.97644 0.0
C439 C 0.79812 0.63942 0.22786 0.0
C440 C 0.7074 0.46166 0.166 0.0
O441 O 0.76901 0.49947 0.1451 0.0
O442 O 0.65015 0.47134 0.15398 0.0
C443 C 0.53868 0.64295 0.24136 0.0
O444 O 0.43951 0.4675 1.04951 0.0
O445 O 0.53767 0.51496 0.97902 0.0
C446 C 0.47411 0.47073 0.24316 0.0
C447 C 0.47987 0.46538 0.99413 0.0
Fe448 Fe 0.13072 0.46709 0.61099 0.0
O449 O 1.06135 0.51077 0.64539 0.0
Fe450 Fe 0.11063 0.57523 0.50259 0.0
Fe451 Fe 1.06524 0.5866 0.71003 0.0
O452 O 0.17124 0.53405 0.54194 0.0
O453 O 0.0972 0.62612 0.604 0.0
O454 O 1.09383 0.63455 0.62444 0.0
Fe455 Fe 0.10419 0.73146 0.62797 0.0
C456 C 1.04242 0.44496 0.76108 0.0
O457 O 0.21351 0.52278 0.66562 0.0
O458 O 0.17478 0.60383 0.73129 0.0
O459 O 0.19677 0.74731 0.56501 0.0
O460 O 0.19897 0.65395 0.48805 0.0
O461 O 0.18488 0.49324 0.48561 0.0
O462 O 0.20136 0.41887 0.54822 0.0
O463 O 0.15887 0.66091 0.76099 0.0
O464 O 0.17365 0.75605 0.71462 0.0
C465 C 0.21689 0.44283 0.49062 0.0
O466 O 1.03826 0.72327 0.54187 0.0
O467 O 1.04328 0.63409 0.4635 0.0
O468 O 1.07468 0.42087 0.70369 0.0
O469 O 1.03992 0.50881 0.77468 0.0
C470 C 0.22441 0.57536 0.70845 0.0
C471 C 0.18995 0.72684 0.7604 0.0
C472 C 0.99716 0.70092 0.75223 0.0
O473 O 1.02927 0.66303 0.77317 0.0
O474 O 1.0094 0.71608 0.69223 0.0
C475 C 0.22471 0.71551 0.51514 0.0
O476 O 1.01953 0.49428 0.51964 0.0
O477 O 1.05354 0.41055 0.552 0.0
C478 C 1.0223 0.69002 0.48189 0.0
C479 C 1.01627 0.43173 0.51834 0.0
Fe480 Fe 0.48883 0.9779 0.66641 0.0
O481 O 0.59318 1.02858 0.70654 0.0
Fe482 Fe 0.58757 0.09516 0.55652 0.0
Fe483 Fe 0.56451 0.09779 0.75052 0.0
O484 O 0.49935 0.06077 0.62073 0.0
O485 O 0.61937 0.13621 0.6529 0.0
O486 O 0.61891 0.13794 0.66518 0.0
Fe487 Fe 0.683 0.235 0.66862 0.0
C488 C 0.44741 1.00915 0.81167 0.0
O489 O 0.48253 0.89662 0.70836 0.0
O490 O 0.58335 0.9888 0.72537 0.0
O491 O 0.7621 0.20652 0.60104 0.0
O492 O 0.69207 0.15204 0.51382 0.0
O493 O 0.63491 1.02019 0.55689 0.0
O494 O 0.53962 0.93704 0.58844 0.0
O495 O 0.6602 0.13687 0.80486 0.0
O496 O 0.7318 0.22203 0.74916 0.0
C497 C 0.60197 0.95772 0.56054 0.0
O498 O 0.64393 0.2521 0.58902 0.0
O499 O 0.54419 0.17129 0.55557 0.0
O500 O 0.4289 1.00681 0.75215 0.0
O501 O 0.50823 0.0512 0.82883 0.0
C502 C 0.54755 0.91984 0.72597 0.0
C503 C 0.72077 0.1849 0.79589 0.0
C504 C 0.54275 0.24141 0.76811 0.0
O505 O 0.53146 0.18301 0.78649 0.0
O506 O 0.59746 0.26703 0.72738 0.0
C507 C 0.75558 0.18505 0.53762 0.0
O508 O 0.47571 1.02086 0.57843 0.0
O509 O 0.39659 0.93085 0.61299 0.0
C510 C 0.57809 0.23346 0.57497 0.0
C511 C 0.42233 0.96154 0.56148 0.0
loop_
_geom_bond_atom_site_label_1
_geom_bond_atom_site_label_2
_geom_bond_distance
_geom_bond_site_symmetry_2
_ccdc_geom_bond_type
Tb0 C10 2.825 . S
Tb0 O11 2.347 . S
Tb0 O14 2.366 . S
Tb0 O19 2.418 . S
Tb0 O20 2.384 . S
Tb0 O23 2.479 . S
Tb0 O24 2.471 . S
Eu1 O12 2.418 . S
Eu1 O13 2.384 . S
Eu1 O16 2.479 . S
Eu1 O17 2.471 . S
Eu1 O18 2.347 . S
Eu1 O21 2.366 . S
Eu1 C31 2.825 . S
C2 O18 1.259 . S
C2 O19 1.265 . S
C3 O20 1.255 . S
C3 O21 1.265 . S
C4 C6 1.380 . S
C4 C7 1.374 . S
C4 C10 1.507 . S
C5 C6 1.384 . S
C5 C9 1.387 . S
C5 H32 0.930 1_554 S
C6 C4 1.380 . S
C6 C5 1.384 . S
C6 H33 0.931 . S
C7 C4 1.374 . S
C7 C8 1.390 . S
C7 H34 0.930 . S
C8 C7 1.390 . S
C8 C9 1.391 . S
C8 H35 0.930 . S
C9 C5 1.387 . S
C9 C8 1.391 . S
C10 Tb0 2.825 . S
C10 C4 1.507 . S
C10 O23 1.238 . S
C10 O24 1.247 . S
O11 Tb0 2.347 . S
O11 C15 1.259 . S
O12 Eu1 2.418 . S
O12 C15 1.265 . S
O13 Eu1 2.384 . S
O13 C22 1.255 . S
O14 Tb0 2.366 . S
O14 C22 1.265 . S
C15 O11 1.259 . S
C15 O12 1.265 . S
O16 Eu1 2.479 . S
O16 C31 1.238 . S
O17 Eu1 2.471 . S
O17 C31 1.247 . S
O18 Eu1 2.347 . S
O18 C2 1.259 . S
O19 Tb0 2.418 . S
O19 C2 1.265 . S
O20 Tb0 2.384 . S
O20 C3 1.255 . S
O21 Eu1 2.366 . S
O21 C3 1.265 . S
C22 O13 1.255 . S
C22 O14 1.265 . S
O23 Tb0 2.479 . S
O23 C10 1.238 . S
O24 Tb0 2.471 . S
O24 C10 1.247 . S
C25 C28 1.380 . S
C25 C29 1.374 . S
C25 C31 1.507 . S
C26 C27 1.387 . S
C26 C30 1.391 . S
C27 C26 1.387 . S
C27 C28 1.384 . S
C27 H36 0.930 . S
C28 C25 1.380 . S
C28 C27 1.384 . S
C28 H37 0.931 . S
C29 C25 1.374 . S
C29 C30 1.390 . S
C29 H38 0.930 . S
C30 C26 1.391 . S
C30 C29 1.390 . S
C30 H39 0.930 . S
C31 Eu1 2.825 . S
C31 O16 1.238 . S
C31 O17 1.247 . S
C31 C25 1.507 . S
H32 C5 0.930 1_556 S
H33 C6 0.931 . S
H34 C7 0.930 . S
H35 C8 0.930 . S
H36 C27 0.930 . S
H37 C28 0.931 . S
H38 C29 0.930 . S
H39 C30 0.930 . S
Tb40 C50 2.825 . S
Tb40 O51 2.347 . S
Tb40 O54 2.366 . S
Tb40 O59 2.418 . S
Tb40 O60 2.384 . S
Tb40 O63 2.479 . S
Tb40 O64 2.471 . S
Eu41 O52 2.418 . S
Eu41 O53 2.384 . S
Eu41 O56 2.479 . S
Eu41 O57 2.471 . S
Eu41 O58 2.347 . S
Eu41 O61 2.366 . S
Eu41 C71 2.825 . S
C42 O58 1.259 . S
C42 O59 1.265 . S
C43 O60 1.255 . S
C43 O61 1.265 . S
C44 C46 1.380 . S
C44 C47 1.374 . S
C44 C50 1.507 . S
C45 C46 1.384 . S
C45 C49 1.387 . S
C45 H72 0.935 . S
C46 C44 1.380 . S
C46 C45 1.384 . S
C46 H73 0.931 . S
C47 C44 1.374 . S
C47 C48 1.390 . S
C47 H74 0.930 . S
C48 C47 1.390 . S
C48 C49 1.391 . S
C48 H75 0.930 . S
C49 C45 1.387 . S
C49 C48 1.391 . S
C50 Tb40 2.825 . S
C50 C44 1.507 . S
C50 O63 1.238 . S
C50 O64 1.247 . S
O51 Tb40 2.347 . S
O51 C55 1.259 . S
O52 Eu41 2.418 . S
O52 C55 1.265 . S
O53 Eu41 2.384 . S
O53 C62 1.255 . S
O54 Tb40 2.366 . S
O54 C62 1.265 . S
C55 O51 1.259 . S
C55 O52 1.265 . S
O56 Eu41 2.479 . S
O56 C71 1.238 . S
O57 Eu41 2.471 . S
O57 C71 1.247 . S
O58 Eu41 2.347 . S
O58 C42 1.259 . S
O59 Tb40 2.418 . S
O59 C42 1.265 . S
O60 Tb40 2.384 . S
O60 C43 1.255 . S
O61 Eu41 2.366 . S
O61 C43 1.265 . S
C62 O53 1.255 . S
C62 O54 1.265 . S
O63 Tb40 2.479 . S
O63 C50 1.238 . S
O64 Tb40 2.471 . S
O64 C50 1.247 . S
C65 C68 1.380 . S
C65 C69 1.374 . S
C65 C71 1.507 . S
C66 C67 1.387 . S
C66 C70 1.391 . S
C67 C66 1.387 . S
C67 C68 1.384 . S
C67 H76 0.930 . S
C68 C65 1.380 . S
C68 C67 1.384 . S
C68 H77 0.931 . S
C69 C65 1.374 . S
C69 C70 1.390 . S
C69 H78 0.930 . S
C70 C66 1.391 . S
C70 C69 1.390 . S
C70 H79 0.930 . S
C71 Eu41 2.825 . S
C71 O56 1.238 . S
C71 O57 1.247 . S
C71 C65 1.507 . S
H72 C45 0.935 . S
H73 C46 0.931 . S
H74 C47 0.930 . S
H75 C48 0.930 . S
H76 C67 0.930 . S
H77 C68 0.931 . S
H78 C69 0.930 . S
H79 C70 0.930 . S
Tb80 C90 2.825 . S
Tb80 O91 2.347 . S
Tb80 O94 2.366 . S
Tb80 O99 2.418 . S
Tb80 O100 2.384 . S
Tb80 O103 2.479 . S
Tb80 O104 2.471 . S
Eu81 O92 2.418 . S
Eu81 O93 2.384 . S
Eu81 O96 2.479 . S
Eu81 O97 2.471 . S
Eu81 O98 2.347 . S
Eu81 O101 2.366 . S
Eu81 C111 2.825 . S
C82 O98 1.259 . S
C82 O99 1.265 . S
C83 O100 1.255 . S
C83 O101 1.265 . S
C84 C86 1.380 . S
C84 C87 1.374 . S
C84 C90 1.507 . S
C85 C86 1.384 . S
C85 C89 1.387 . S
C85 H112 0.930 . S
C86 C84 1.380 . S
C86 C85 1.384 . S
C86 H113 0.931 . S
C87 C84 1.374 . S
C87 C88 1.390 . S
C87 H114 0.930 . S
C88 C87 1.390 . S
C88 C89 1.391 . S
C88 H115 0.930 . S
C89 C85 1.387 . S
C89 C88 1.391 . S
C90 Tb80 2.825 . S
C90 C84 1.507 . S
C90 O103 1.238 . S
C90 O104 1.247 . S
O91 Tb80 2.347 . S
O91 C95 1.259 . S
O92 Eu81 2.418 . S
O92 C95 1.265 . S
O93 Eu81 2.384 . S
O93 C102 1.255 . S
O94 Tb80 2.366 . S
O94 C102 1.265 . S
C95 O91 1.259 . S
C95 O92 1.265 . S
O96 Eu81 2.479 . S
O96 C111 1.238 . S
O97 Eu81 2.471 . S
O97 C111 1.247 . S
O98 Eu81 2.347 . S
O98 C82 1.259 . S
O99 Tb80 2.418 . S
O99 C82 1.265 . S
O100 Tb80 2.384 . S
O100 C83 1.255 . S
O101 Eu81 2.366 . S
O101 C83 1.265 . S
C102 O93 1.255 . S
C102 O94 1.265 . S
O103 Tb80 2.479 . S
O103 C90 1.238 . S
O104 Tb80 2.471 . S
O104 C90 1.247 . S
C105 C108 1.380 1_655 S
C105 C109 1.374 . S
C105 C111 1.507 . S
C106 C107 1.387 . S
C106 C110 1.391 1_455 S
C107 C106 1.387 . S
C107 C108 1.384 . S
C107 H116 0.930 . S
C108 C105 1.380 1_455 S
C108 C107 1.384 . S
C108 H117 0.931 . S
C109 C105 1.374 . S
C109 C110 1.390 . S
C109 H118 0.930 . S
C110 C106 1.391 1_655 S
C110 C109 1.390 . S
C110 H119 0.930 . S
C111 Eu81 2.825 . S
C111 O96 1.238 . S
C111 O97 1.247 . S
C111 C105 1.507 . S
H112 C85 0.930 . S
H113 C86 0.931 . S
H114 C87 0.930 . S
H115 C88 0.930 . S
H116 C107 0.930 . S
H117 C108 0.931 . S
H118 C109 0.930 . S
H119 C110 0.930 . S
Tb120 C130 2.825 . S
Tb120 O131 2.347 . S
Tb120 O134 2.366 . S
Tb120 O139 2.418 . S
Tb120 O140 2.384 . S
Tb120 O143 2.479 . S
Tb120 O144 2.471 . S
Eu121 O132 2.418 . S
Eu121 O133 2.384 . S
Eu121 O136 2.479 . S
Eu121 O137 2.471 . S
Eu121 O138 2.347 . S
Eu121 O141 2.366 . S
Eu121 C151 2.825 . S
C122 O138 1.259 . S
C122 O139 1.265 . S
C123 O140 1.255 . S
C123 O141 1.265 . S
C124 C126 1.380 . S
C124 C127 1.374 . S
C124 C130 1.507 . S
C125 C126 1.384 . S
C125 C129 1.387 . S
C125 H152 0.930 . S
C126 C124 1.380 . S
C126 C125 1.384 . S
C126 H153 0.931 . S
C127 C124 1.374 . S
C127 C128 1.390 . S
C127 H154 0.930 . S
C128 C127 1.390 . S
C128 C129 1.391 . S
C128 H155 0.930 . S
C129 C125 1.387 . S
C129 C128 1.391 . S
C130 Tb120 2.825 . S
C130 C124 1.507 . S
C130 O143 1.238 . S
C130 O144 1.247 . S
O131 Tb120 2.347 . S
O131 C135 1.259 . S
O132 Eu121 2.418 . S
O132 C135 1.265 . S
O133 Eu121 2.384 . S
O133 C142 1.255 . S
O134 Tb120 2.366 . S
O134 C142 1.265 . S
C135 O131 1.259 . S
C135 O132 1.265 . S
O136 Eu121 2.479 . S
O136 C151 1.238 . S
O137 Eu121 2.471 . S
O137 C151 1.247 . S
O138 Eu121 2.347 . S
O138 C122 1.259 . S
O139 Tb120 2.418 . S
O139 C122 1.265 . S
O140 Tb120 2.384 . S
O140 C123 1.255 . S
O141 Eu121 2.366 . S
O141 C123 1.265 . S
C142 O133 1.255 . S
C142 O134 1.265 . S
O143 Tb120 2.479 . S
O143 C130 1.238 . S
O144 Tb120 2.471 . S
O144 C130 1.247 . S
C145 C148 1.380 . S
C145 C149 1.374 . S
C145 C151 1.507 . S
C146 C147 1.387 1_455 S
C146 C150 1.391 . S
C147 C146 1.387 1_655 S
C147 C148 1.384 1_655 S
C147 H156 0.930 . S
C148 C145 1.380 . S
C148 C147 1.384 1_455 S
C148 H157 0.931 . S
C149 C145 1.374 . S
C149 C150 1.390 . S
C149 H158 0.930 . S
C150 C146 1.391 . S
C150 C149 1.390 . S
C150 H159 0.930 . S
C151 Eu121 2.825 . S
C151 O136 1.238 . S
C151 O137 1.247 . S
C151 C145 1.507 . S
H152 C125 0.930 . S
H153 C126 0.931 . S
H154 C127 0.930 . S
H155 C128 0.930 . S
H156 C147 0.930 . S
H157 C148 0.931 . S
H158 C149 0.930 . S
H159 C150 0.930 . S
Tb160 C170 2.825 . S
Tb160 O171 2.347 . S
Tb160 O174 2.366 . S
Tb160 O179 2.418 . S
Tb160 O180 2.384 . S
Tb160 O183 2.479 . S
Tb160 O184 2.471 . S
Eu161 O172 2.418 . S
Eu161 O173 2.384 . S
Eu161 O176 2.479 . S
Eu161 O177 2.471 . S
Eu161 O178 2.347 . S
Eu161 O181 2.366 . S
Eu161 C191 2.825 . S
C162 O178 1.259 . S
C162 O179 1.265 . S
C163 O180 1.255 . S
C163 O181 1.265 . S
C164 C166 1.380 . S
C164 C167 1.374 . S
C164 C170 1.507 . S
C165 C166 1.384 . S
C165 C169 1.387 . S
C165 H192 0.930 . S
C166 C164 1.380 . S
C166 C165 1.384 . S
C166 H193 0.931 . S
C167 C164 1.374 . S
C167 C168 1.390 . S
C167 H194 0.930 . S
C168 C167 1.390 . S
C168 C169 1.391 . S
C168 H195 0.930 . S
C169 C165 1.387 . S
C169 C168 1.391 . S
C170 Tb160 2.825 . S
C170 C164 1.507 . S
C170 O183 1.238 . S
C170 O184 1.247 . S
O171 Tb160 2.347 . S
O171 C175 1.259 . S
O172 Eu161 2.418 . S
O172 C175 1.265 . S
O173 Eu161 2.384 . S
O173 C182 1.255 . S
O174 Tb160 2.366 . S
O174 C182 1.265 . S
C175 O171 1.259 . S
C175 O172 1.265 . S
O176 Eu161 2.479 . S
O176 C191 1.238 . S
O177 Eu161 2.471 . S
O177 C191 1.247 . S
O178 Eu161 2.347 . S
O178 C162 1.259 . S
O179 Tb160 2.418 . S
O179 C162 1.265 . S
O180 Tb160 2.384 . S
O180 C163 1.255 . S
O181 Eu161 2.366 . S
O181 C163 1.265 . S
C182 O173 1.255 . S
C182 O174 1.265 . S
O183 Tb160 2.479 . S
O183 C170 1.238 . S
O184 Tb160 2.471 . S
O184 C170 1.247 . S
C185 C188 1.380 . S
C185 C189 1.374 . S
C185 C191 1.507 . S
C186 C187 1.387 . S
C186 C190 1.391 1_545 S
C187 C186 1.387 . S
C187 C188 1.384 1_545 S
C187 H196 0.930 . S
C188 C185 1.380 . S
C188 C187 1.384 1_565 S
C188 H197 0.931 . S
C189 C185 1.374 . S
C189 C190 1.390 . S
C189 H198 0.930 . S
C190 C186 1.391 1_565 S
C190 C189 1.390 . S
C190 H199 0.930 . S
C191 Eu161 2.825 . S
C191 O176 1.238 . S
C191 O177 1.247 . S
C191 C185 1.507 . S
H192 C165 0.930 . S
H193 C166 0.931 . S
H194 C167 0.930 . S
H195 C168 0.930 . S
H196 C187 0.930 . S
H197 C188 0.931 . S
H198 C189 0.930 . S
H199 C190 0.930 . S
Tb200 C210 2.825 . S
Tb200 O211 2.347 . S
Tb200 O214 2.366 . S
Tb200 O219 2.418 . S
Tb200 O220 2.384 . S
Tb200 O223 2.479 . S
Tb200 O224 2.471 . S
Eu201 O212 2.418 . S
Eu201 O213 2.384 . S
Eu201 O216 2.479 . S
Eu201 O217 2.471 . S
Eu201 O218 2.347 . S
Eu201 O221 2.366 . S
Eu201 C231 2.825 . S
C202 O218 1.259 . S
C202 O219 1.265 . S
C203 O220 1.255 . S
C203 O221 1.265 . S
C204 C206 1.380 . S
C204 C207 1.374 . S
C204 C210 1.507 . S
C205 C206 1.384 . S
C205 C209 1.387 . S
C205 H232 0.930 . S
C206 C204 1.380 . S
C206 C205 1.384 . S
C206 H233 0.931 . S
C207 C204 1.374 . S
C207 C208 1.390 . S
C207 H234 0.930 . S
C208 C207 1.390 . S
C208 C209 1.391 . S
C208 H235 0.930 . S
C209 C205 1.387 . S
C209 C208 1.391 . S
C210 Tb200 2.825 . S
C210 C204 1.507 . S
C210 O223 1.238 . S
C210 O224 1.247 . S
O211 Tb200 2.347 . S
O211 C215 1.259 . S
O212 Eu201 2.418 . S
O212 C215 1.265 . S
O213 Eu201 2.384 . S
O213 C222 1.255 . S
O214 Tb200 2.366 . S
O214 C222 1.265 . S
C215 O211 1.259 . S
C215 O212 1.265 . S
O216 Eu201 2.479 . S
O216 C231 1.238 . S
O217 Eu201 2.471 . S
O217 C231 1.247 . S
O218 Eu201 2.347 . S
O218 C202 1.259 . S
O219 Tb200 2.418 . S
O219 C202 1.265 . S
O220 Tb200 2.384 . S
O220 C203 1.255 . S
O221 Eu201 2.366 . S
O221 C203 1.265 . S
C222 O213 1.255 . S
C222 O214 1.265 . S
O223 Tb200 2.479 . S
O223 C210 1.238 . S
O224 Tb200 2.471 . S
O224 C210 1.247 . S
C225 C228 1.380 . S
C225 C229 1.374 . S
C225 C231 1.507 . S
C226 C227 1.387 1_545 S
C226 C230 1.391 . S
C227 C226 1.387 1_565 S
C227 C228 1.384 1_565 S
C227 H236 0.930 . S
C228 C225 1.380 . S
C228 C227 1.384 1_545 S
C228 H237 0.931 . S
C229 C225 1.374 . S
C229 C230 1.390 . S
C229 H238 0.930 . S
C230 C226 1.391 . S
C230 C229 1.390 . S
C230 H239 0.930 . S
C231 Eu201 2.825 . S
C231 O216 1.238 . S
C231 O217 1.247 . S
C231 C225 1.507 . S
H232 C205 0.930 . S
H233 C206 0.931 . S
H234 C207 0.930 . S
H235 C208 0.930 . S
H236 C227 0.930 . S
H237 C228 0.931 . S
H238 C229 0.930 . S
H239 C230 0.930 . S
Tb240 C250 2.825 . S
Tb240 O251 2.347 . S
Tb240 O254 2.366 . S
Tb240 O259 2.418 . S
Tb240 O260 2.384 . S
Tb240 O263 2.479 . S
Tb240 O264 2.471 . S
Eu241 O252 2.418 . S
Eu241 O253 2.384 . S
Eu241 O256 2.479 . S
Eu241 O257 2.471 . S
Eu241 O258 2.347 . S
Eu241 O261 2.366 . S
Eu241 C271 2.825 . S
C242 O258 1.259 . S
C242 O259 1.265 . S
C243 O260 1.255 . S
C243 O261 1.265 . S
C244 C246 1.380 . S
C244 C247 1.374 . S
C244 C250 1.507 . S
C245 C246 1.384 1_455 S
C245 C249 1.387 . S
C245 H272 0.930 . S
C246 C244 1.380 . S
C246 C245 1.384 1_655 S
C246 H273 0.931 1_655 S
C247 C244 1.374 . S
C247 C248 1.390 . S
C247 H274 0.930 . S
C248 C247 1.390 . S
C248 C249 1.391 1_655 S
C248 H275 0.930 . S
C249 C245 1.387 . S
C249 C248 1.391 1_455 S
C250 Tb240 2.825 . S
C250 C244 1.507 . S
C250 O263 1.238 . S
C250 O264 1.247 . S
O251 Tb240 2.347 . S
O251 C255 1.259 . S
O252 Eu241 2.418 . S
O252 C255 1.265 . S
O253 Eu241 2.384 . S
O253 C262 1.255 . S
O254 Tb240 2.366 . S
O254 C262 1.265 . S
C255 O251 1.259 . S
C255 O252 1.265 . S
O256 Eu241 2.479 . S
O256 C271 1.238 . S
O257 Eu241 2.471 . S
O257 C271 1.247 . S
O258 Eu241 2.347 . S
O258 C242 1.259 . S
O259 Tb240 2.418 . S
O259 C242 1.265 . S
O260 Tb240 2.384 . S
O260 C243 1.255 . S
O261 Eu241 2.366 . S
O261 C243 1.265 . S
C262 O253 1.255 . S
C262 O254 1.265 . S
O263 Tb240 2.479 . S
O263 C250 1.238 . S
O264 Tb240 2.471 . S
O264 C250 1.247 . S
C265 C268 1.380 . S
C265 C269 1.374 . S
C265 C271 1.507 . S
C266 C267 1.387 1_554 S
C266 C270 1.391 . S
C267 C266 1.387 1_556 S
C267 C268 1.384 . S
C267 H276 0.930 . S
C268 C265 1.380 . S
C268 C267 1.384 . S
C268 H277 0.931 . S
C269 C265 1.374 . S
C269 C270 1.390 1_556 S
C269 H278 0.926 1_556 S
C270 C266 1.391 . S
C270 C269 1.390 1_554 S
C270 H279 0.930 . S
C271 Eu241 2.825 . S
C271 O256 1.238 . S
C271 O257 1.247 . S
C271 C265 1.507 . S
H272 C245 0.930 . S
H273 C246 0.931 1_455 S
H274 C247 0.930 . S
H275 C248 0.930 . S
H276 C267 0.930 . S
H277 C268 0.931 . S
H278 C269 0.926 1_554 S
H279 C270 0.930 . S
Tb280 C290 2.825 . S
Tb280 O291 2.347 . S
Tb280 O294 2.366 . S
Tb280 O299 2.418 . S
Tb280 O300 2.384 . S
Tb280 O303 2.479 . S
Tb280 O304 2.471 . S
Eu281 O292 2.418 . S
Eu281 O293 2.384 . S
Eu281 O296 2.479 . S
Eu281 O297 2.471 . S
Eu281 O298 2.347 . S
Eu281 O301 2.366 . S
Eu281 C311 2.825 . S
C282 O298 1.259 . S
C282 O299 1.265 . S
C283 O300 1.255 . S
C283 O301 1.265 . S
C284 C286 1.380 . S
C284 C287 1.374 . S
C284 C290 1.507 . S
C285 C286 1.384 . S
C285 C289 1.387 . S
C285 H312 0.930 . S
C286 C284 1.380 . S
C286 C285 1.384 . S
C286 H313 0.931 . S
C287 C284 1.374 . S
C287 C288 1.390 . S
C287 H314 0.930 . S
C288 C287 1.390 . S
C288 C289 1.391 . S
C288 H315 0.930 . S
C289 C285 1.387 . S
C289 C288 1.391 . S
C290 Tb280 2.825 . S
C290 C284 1.507 . S
C290 O303 1.238 . S
C290 O304 1.247 . S
O291 Tb280 2.347 . S
O291 C295 1.259 . S
O292 Eu281 2.418 . S
O292 C295 1.265 . S
O293 Eu281 2.384 . S
O293 C302 1.255 . S
O294 Tb280 2.366 . S
O294 C302 1.265 . S
C295 O291 1.259 . S
C295 O292 1.265 . S
O296 Eu281 2.479 . S
O296 C311 1.238 . S
O297 Eu281 2.471 . S
O297 C311 1.247 . S
O298 Eu281 2.347 . S
O298 C282 1.259 . S
O299 Tb280 2.418 . S
O299 C282 1.265 . S
O300 Tb280 2.384 . S
O300 C283 1.255 . S
O301 Eu281 2.366 . S
O301 C283 1.265 . S
C302 O293 1.255 . S
C302 O294 1.265 . S
O303 Tb280 2.479 . S
O303 C290 1.238 . S
O304 Tb280 2.471 . S
O304 C290 1.247 . S
C305 C308 1.380 1_556 S
C305 C309 1.374 . S
C305 C311 1.507 . S
C306 C307 1.387 . S
C306 C310 1.391 1_554 S
C307 C306 1.387 . S
C307 C308 1.384 . S
C307 H316 0.930 . S
C308 C305 1.380 1_554 S
C308 C307 1.384 . S
C308 H317 0.931 . S
C309 C305 1.374 . S
C309 C310 1.390 . S
C309 H318 0.930 . S
C310 C306 1.391 1_556 S
C310 C309 1.390 . S
C310 H319 0.930 . S
C311 Eu281 2.825 . S
C311 O296 1.238 . S
C311 O297 1.247 . S
C311 C305 1.507 . S
H312 C285 0.930 . S
H313 C286 0.931 . S
H314 C287 0.930 . S
H315 C288 0.930 . S
H316 C307 0.930 . S
H317 C308 0.931 . S
H318 C309 0.930 . S
H319 C310 0.930 . S
Fe320 O321 1.886 1_455 S
Fe320 O324 1.715 . S
Fe320 O329 2.077 1_455 S
Fe320 O334 1.935 . S
Fe320 O340 2.077 1_455 S
Fe320 O349 1.935 . S
O321 Fe320 1.886 1_655 S
O321 Fe323 1.715 1_545 S
Fe322 O324 1.886 . S
Fe322 O325 1.715 1_545 S
Fe322 O332 1.935 . S
Fe322 O333 2.077 . S
Fe322 O339 1.935 . S
Fe322 O348 2.077 . S
Fe323 O321 1.715 1_565 S
Fe323 O326 1.886 . S
Fe323 O330 1.935 1_565 S
Fe323 O335 2.077 . S
Fe323 O341 1.935 1_565 S
Fe323 O345 2.077 . S
O324 Fe320 1.715 . S
O324 Fe322 1.886 . S
O325 Fe322 1.715 1_565 S
O325 Fe327 1.886 1_455 S
O326 Fe323 1.886 . S
O326 Fe327 1.715 . S
Fe327 O325 1.886 1_655 S
Fe327 O326 1.715 . S
Fe327 O331 2.077 1_655 S
Fe327 O336 1.935 . S
Fe327 O338 2.077 1_655 S
Fe327 O346 1.935 . S
C328 O340 1.381 . S
C328 O341 1.421 . S
O329 Fe320 2.077 1_655 S
O329 C342 1.381 . S
O330 Fe323 1.935 1_545 S
O330 C342 1.421 . S
O331 Fe327 2.077 1_455 S
O331 C347 1.381 . S
O332 Fe322 1.935 . S
O332 C347 1.421 1_545 S
O333 Fe322 2.077 . S
O333 C337 1.381 . S
O334 Fe320 1.935 . S
O334 C337 1.421 . S
O335 Fe323 2.077 . S
O335 C343 1.381 . S
O336 Fe327 1.935 . S
O336 C343 1.421 . S
C337 O333 1.381 . S
C337 O334 1.421 . S
O338 Fe327 2.077 1_455 S
O338 C350 1.381 . S
O339 Fe322 1.935 . S
O339 C350 1.421 1_545 S
O340 Fe320 2.077 1_655 S
O340 C328 1.381 . S
O341 Fe323 1.935 1_545 S
O341 C328 1.421 . S
C342 O329 1.381 . S
C342 O330 1.421 . S
C343 O335 1.381 . S
C343 O336 1.421 . S
C344 O345 1.381 . S
C344 O346 1.421 . S
O345 Fe323 2.077 . S
O345 C344 1.381 . S
O346 Fe327 1.935 . S
O346 C344 1.421 . S
C347 O331 1.381 . S
C347 O332 1.421 1_565 S
O348 Fe322 2.077 . S
O348 C351 1.381 . S
O349 Fe320 1.935 . S
O349 C351 1.421 . S
C350 O338 1.381 . S
C350 O339 1.421 1_565 S
C351 O348 1.381 . S
C351 O349 1.421 . S
Fe352 O353 1.886 . S
Fe352 O356 1.715 . S
Fe352 O361 2.077 1_554 S
Fe352 O366 1.935 1_554 S
Fe352 O372 2.077 . S
Fe352 O381 1.935 . S
O353 Fe352 1.886 . S
O353 Fe355 1.715 1_565 S
Fe354 O356 1.886 . S
Fe354 O357 1.715 1_565 S
Fe354 O364 1.935 1_565 S
Fe354 O365 2.077 . S
Fe354 O371 1.935 1_565 S
Fe354 O380 2.077 . S
Fe355 O353 1.715 1_545 S
Fe355 O358 1.886 . S
Fe355 O362 1.935 1_544 S
Fe355 O367 2.077 . S
Fe355 O373 1.931 1_545 S
Fe355 O377 2.077 . S
O356 Fe352 1.715 . S
O356 Fe354 1.886 . S
O357 Fe354 1.715 1_545 S
O357 Fe359 1.886 . S
O358 Fe355 1.886 . S
O358 Fe359 1.715 . S
Fe359 O357 1.886 . S
Fe359 O358 1.715 . S
Fe359 O363 2.077 . S
Fe359 O368 1.935 . S
Fe359 O370 2.077 . S
Fe359 O378 1.935 . S
C360 O372 1.381 . S
C360 O373 1.427 . S
O361 Fe352 2.077 1_556 S
O361 C374 1.381 . S
O362 Fe355 1.935 1_566 S
O362 C374 1.421 . S
O363 Fe359 2.077 . S
O363 C379 1.381 1_554 S
O364 Fe354 1.935 1_545 S
O364 C379 1.421 1_554 S
O365 Fe354 2.077 . S
O365 C369 1.381 1_554 S
O366 Fe352 1.935 1_556 S
O366 C369 1.421 . S
O367 Fe355 2.077 . S
O367 C375 1.381 1_554 S
O368 Fe359 1.935 . S
O368 C375 1.421 1_554 S
C369 O365 1.381 1_556 S
C369 O366 1.421 . S
O370 Fe359 2.077 . S
O370 C382 1.381 . S
O371 Fe354 1.935 1_545 S
O371 C382 1.421 . S
O372 Fe352 2.077 . S
O372 C360 1.381 . S
O373 Fe355 1.931 1_565 S
O373 C360 1.427 . S
C374 O361 1.381 . S
C374 O362 1.421 . S
C375 O367 1.381 1_556 S
C375 O368 1.421 1_556 S
C376 O377 1.381 . S
C376 O378 1.421 . S
O377 Fe355 2.077 . S
O377 C376 1.381 . S
O378 Fe359 1.935 . S
O378 C376 1.421 . S
C379 O363 1.381 1_556 S
C379 O364 1.421 1_556 S
O380 Fe354 2.077 . S
O380 C383 1.381 . S
O381 Fe352 1.935 . S
O381 C383 1.421 . S
C382 O370 1.381 . S
C382 O371 1.421 . S
C383 O380 1.381 . S
C383 O381 1.421 . S
Fe384 O385 1.886 . S
Fe384 O388 1.715 . S
Fe384 O393 2.077 1_554 S
Fe384 O398 1.935 1_554 S
Fe384 O404 2.077 . S
Fe384 O413 1.935 . S
O385 Fe384 1.886 . S
O385 Fe387 1.715 1_455 S
Fe386 O388 1.884 . S
Fe386 O389 1.716 1_554 S
Fe386 O396 1.923 1_554 S
Fe386 O397 2.065 1_554 S
Fe386 O403 1.949 . S
Fe386 O412 2.087 . S
Fe387 O385 1.715 1_655 S
Fe387 O390 1.886 1_554 S
Fe387 O394 1.935 1_554 S
Fe387 O399 2.077 1_554 S
Fe387 O405 1.935 . S
Fe387 O409 2.077 . S
O388 Fe384 1.715 . S
O388 Fe386 1.884 . S
O389 Fe386 1.716 1_556 S
O389 Fe391 1.886 . S
O390 Fe387 1.886 1_556 S
O390 Fe391 1.715 1_655 S
Fe391 O389 1.886 . S
Fe391 O390 1.715 1_455 S
Fe391 O395 2.077 . S
Fe391 O400 1.935 1_455 S
Fe391 O402 2.077 1_556 S
Fe391 O410 1.935 1_456 S
C392 O404 1.381 1_655 S
C392 O405 1.421 . S
O393 Fe384 2.077 1_556 S
O393 C406 1.381 1_455 S
O394 Fe387 1.935 1_556 S
O394 C406 1.421 . S
O395 Fe391 2.077 . S
O395 C411 1.381 . S
O396 Fe386 1.923 1_556 S
O396 C411 1.421 . S
O397 Fe386 2.065 1_556 S
O397 C401 1.381 . S
O398 Fe384 1.935 1_556 S
O398 C401 1.421 . S
O399 Fe387 2.077 1_556 S
O399 C407 1.381 . S
O400 Fe391 1.935 1_655 S
O400 C407 1.421 . S
C401 O397 1.381 . S
C401 O398 1.421 . S
O402 Fe391 2.077 1_554 S
O402 C414 1.381 . S
O403 Fe386 1.949 . S
O403 C414 1.421 . S
O404 Fe384 2.077 . S
O404 C392 1.381 1_455 S
O405 Fe387 1.935 . S
O405 C392 1.421 . S
C406 O393 1.381 1_655 S
C406 O394 1.421 . S
C407 O399 1.381 . S
C407 O400 1.421 . S
C408 O409 1.381 . S
C408 O410 1.421 . S
O409 Fe387 2.077 . S
O409 C408 1.381 . S
O410 Fe391 1.935 1_654 S
O410 C408 1.421 . S
C411 O395 1.381 . S
C411 O396 1.421 . S
O412 Fe386 2.087 . S
O412 C415 1.381 . S
O413 Fe384 1.935 . S
O413 C415 1.421 . S
C414 O402 1.381 . S
C414 O403 1.421 . S
C415 O412 1.381 . S
C415 O413 1.421 . S
Fe416 O417 1.886 . S
Fe416 O420 1.715 . S
Fe416 O425 2.077 . S
Fe416 O430 1.935 . S
Fe416 O436 2.077 . S
Fe416 O445 1.935 . S
O417 Fe416 1.886 . S
O417 Fe419 1.715 1_556 S
Fe418 O420 1.886 1_554 S
Fe418 O421 1.715 . S
Fe418 O428 1.935 . S
Fe418 O429 2.077 1_554 S
Fe418 O435 1.935 . S
Fe418 O444 2.077 1_554 S
Fe419 O417 1.715 1_554 S
Fe419 O422 1.886 . S
Fe419 O426 1.935 . S
Fe419 O431 2.077 . S
Fe419 O437 1.935 1_554 S
Fe419 O441 2.077 . S
O420 Fe416 1.715 . S
O420 Fe418 1.886 1_556 S
O421 Fe418 1.715 . S
O421 Fe423 1.886 . S
O422 Fe419 1.886 . S
O422 Fe423 1.715 . S
Fe423 O421 1.886 . S
Fe423 O422 1.715 . S
Fe423 O427 2.077 . S
Fe423 O432 1.935 . S
Fe423 O434 2.077 . S
Fe423 O442 1.935 . S
C424 O436 1.381 . S
C424 O437 1.421 . S
O425 Fe416 2.077 . S
O425 C438 1.381 . S
O426 Fe419 1.935 . S
O426 C438 1.421 1_554 S
O427 Fe423 2.077 . S
O427 C443 1.381 . S
O428 Fe418 1.935 . S
O428 C443 1.421 . S
O429 Fe418 2.077 1_556 S
O429 C433 1.381 . S
O430 Fe416 1.935 . S
O430 C433 1.421 . S
O431 Fe419 2.077 . S
O431 C439 1.381 . S
O432 Fe423 1.935 . S
O432 C439 1.421 . S
C433 O429 1.381 . S
C433 O430 1.421 . S
O434 Fe423 2.077 . S
O434 C446 1.381 . S
O435 Fe418 1.935 . S
O435 C446 1.421 . S
O436 Fe416 2.077 . S
O436 C424 1.381 . S
O437 Fe419 1.935 1_556 S
O437 C424 1.421 . S
C438 O425 1.381 . S
C438 O426 1.421 1_556 S
C439 O431 1.381 . S
C439 O432 1.421 . S
C440 O441 1.381 . S
C440 O442 1.421 . S
O441 Fe419 2.077 . S
O441 C440 1.381 . S
O442 Fe423 1.935 . S
O442 C440 1.421 . S
C443 O427 1.381 . S
C443 O428 1.421 . S
O444 Fe418 2.077 1_556 S
O444 C447 1.381 . S
O445 Fe416 1.935 . S
O445 C447 1.421 . S
C446 O434 1.381 . S
C446 O435 1.421 . S
C447 O444 1.381 . S
C447 O445 1.421 . S
Fe448 O449 1.886 . S
Fe448 O452 1.715 . S
Fe448 O457 2.077 1_655 S
Fe448 O462 1.935 1_655 S
Fe448 O468 2.077 . S
Fe448 O477 1.935 . S
O449 Fe448 1.886 . S
O449 Fe451 1.715 1_655 S
Fe450 O452 1.886 1_455 S
Fe450 O453 1.715 . S
Fe450 O460 1.935 . S
Fe450 O461 2.077 . S
Fe450 O467 1.935 1_455 S
Fe450 O476 2.077 1_455 S
Fe451 O449 1.715 1_455 S
Fe451 O454 1.886 . S
Fe451 O458 1.935 . S
Fe451 O463 2.077 . S
Fe451 O469 1.935 1_455 S
Fe451 O473 2.077 1_455 S
O452 Fe448 1.715 . S
O452 Fe450 1.886 1_655 S
O453 Fe450 1.715 . S
O453 Fe455 1.886 . S
O454 Fe451 1.886 . S
O454 Fe455 1.715 . S
Fe455 O453 1.886 . S
Fe455 O454 1.715 . S
Fe455 O459 2.077 . S
Fe455 O464 1.935 . S
Fe455 O466 2.077 1_455 S
Fe455 O474 1.935 1_455 S
C456 O468 1.381 . S
C456 O469 1.421 . S
O457 Fe448 2.077 1_455 S
O457 C470 1.381 . S
O458 Fe451 1.935 . S
O458 C470 1.421 . S
O459 Fe455 2.077 . S
O459 C475 1.381 . S
O460 Fe450 1.935 . S
O460 C475 1.421 . S
O461 Fe450 2.077 . S
O461 C465 1.381 . S
O462 Fe448 1.935 1_455 S
O462 C465 1.421 . S
O463 Fe451 2.077 . S
O463 C471 1.381 . S
O464 Fe455 1.935 . S
O464 C471 1.421 . S
C465 O461 1.381 . S
C465 O462 1.421 . S
O466 Fe455 2.077 1_655 S
O466 C478 1.381 . S
O467 Fe450 1.935 1_655 S
O467 C478 1.421 . S
O468 Fe448 2.077 . S
O468 C456 1.381 . S
O469 Fe451 1.935 1_655 S
O469 C456 1.421 . S
C470 O457 1.381 . S
C470 O458 1.421 . S
C471 O463 1.381 . S
C471 O464 1.421 . S
C472 O473 1.381 . S
C472 O474 1.421 . S
O473 Fe451 2.077 1_655 S
O473 C472 1.381 . S
O474 Fe455 1.935 1_655 S
O474 C472 1.421 . S
C475 O459 1.381 . S
C475 O460 1.421 . S
O476 Fe450 2.077 1_655 S
O476 C479 1.381 . S
O477 Fe448 1.935 . S
O477 C479 1.421 . S
C478 O466 1.381 . S
C478 O467 1.421 . S
C479 O476 1.381 . S
C479 O477 1.421 . S
Fe480 O481 1.892 . S
Fe480 O484 1.715 . S
Fe480 O489 2.077 . S
Fe480 O494 1.935 . S
Fe480 O500 2.077 . S
Fe480 O509 1.935 . S
O481 Fe480 1.892 . S
O481 Fe483 1.708 1_565 S
Fe482 O484 1.886 1_545 S
Fe482 O485 1.715 . S
Fe482 O492 1.935 . S
Fe482 O493 2.077 1_545 S
Fe482 O499 1.935 . S
Fe482 O508 2.077 1_545 S
Fe483 O481 1.708 1_545 S
Fe483 O486 1.886 . S
Fe483 O490 1.935 . S
Fe483 O495 2.077 . S
Fe483 O501 1.935 1_545 S
Fe483 O505 2.077 . S
O484 Fe480 1.715 . S
O484 Fe482 1.886 1_565 S
O485 Fe482 1.715 . S
O485 Fe487 1.886 . S
O486 Fe483 1.886 . S
O486 Fe487 1.715 . S
Fe487 O485 1.886 . S
Fe487 O486 1.715 . S
Fe487 O491 2.077 . S
Fe487 O496 1.935 . S
Fe487 O498 2.077 . S
Fe487 O506 1.935 . S
C488 O500 1.381 . S
C488 O501 1.421 . S
O489 Fe480 2.077 . S
O489 C502 1.381 . S
O490 Fe483 1.935 . S
O490 C502 1.421 1_545 S
O491 Fe487 2.077 . S
O491 C507 1.381 . S
O492 Fe482 1.935 . S
O492 C507 1.421 . S
O493 Fe482 2.077 1_565 S
O493 C497 1.381 . S
O494 Fe480 1.935 . S
O494 C497 1.421 . S
O495 Fe483 2.077 . S
O495 C503 1.381 . S
O496 Fe487 1.935 . S
O496 C503 1.421 . S
C497 O493 1.381 . S
C497 O494 1.421 . S
O498 Fe487 2.077 . S
O498 C510 1.381 . S
O499 Fe482 1.935 . S
O499 C510 1.421 . S
O500 Fe480 2.077 . S
O500 C488 1.381 . S
O501 Fe483 1.935 1_565 S
O501 C488 1.421 . S
C502 O489 1.381 . S
C502 O490 1.421 1_565 S
C503 O495 1.381 . S
C503 O496 1.421 . S
C504 O505 1.381 . S
C504 O506 1.421 . S
O505 Fe483 2.077 . S
O505 C504 1.381 . S
O506 Fe487 1.935 . S
O506 C504 1.421 . S
C507 O491 1.381 . S
C507 O492 1.421 . S
O508 Fe482 2.077 1_565 S
O508 C511 1.381 . S
O509 Fe480 1.935 . S
O509 C511 1.421 . S
C510 O498 1.381 . S
C510 O499 1.421 . S
C511 O508 1.381 . S
C511 O509 1.421 . S
C337 C3 2.731 . S
C342 C49 0.726 . S
C343 C95 2.424 . S
C146 C347 2.256 . S
C186 C350 1.676 1_545 S
C351 C215 2.439 . S
C249 C328 2.328 1_455 S
C302 C344 2.775 . S
C382 C2 5.116 . S
C43 C408 3.268 . S
C360 C102 4.819 . S
C415 C135 2.950 . S
C175 C369 2.942 . S
C411 C222 2.985 . S
C243 C375 3.326 . S
C306 C406 2.688 1_554 S
C9 C414 1.646 . S
C182 C401 2.080 . S
C379 C226 1.948 . S
C407 C242 1.434 . S
C295 C374 4.188 . S
C106 C392 1.564 1_455 S
C383 C142 1.965 . S
C42 C376 1.461 . S
C283 C438 2.425 . S
C169 C433 1.075 . S
C447 C202 1.857 . S
C424 C266 2.762 1_556 S
C66 C440 0.873 . S
C439 C82 1.877 . S
C129 C443 2.495 . S
C22 C446 2.404 . S
C282 C472 4.373 . S
C488 C163 1.797 . S
C209 C470 2.131 . S
C255 C503 1.371 . S
C479 C55 1.180 . S
C89 C497 1.021 . S
C475 C123 1.694 . S
C510 C26 2.065 . S
C502 C289 3.231 . S
C62 C507 2.951 . S
C83 C478 4.901 . S
C511 C122 2.526 . S
C15 C465 5.419 . S
C203 C504 3.104 . S
C456 C262 2.876 . S
C471 C162 2.872 . S
