# Generated by pormake.
# Topology zzz, (3,6)-cn, num edge types: 1
# Building blocks:
#     Node 0, Type 0, BuildingBlock: OLANEW_clean_sbu_2, # of connection points: 3
#     Node 1, Type 0, BuildingBlock: OLANEW_clean_sbu_2, # of connection points: 3
#     Node 2, Type 0, BuildingBlock: OLANEW_clean_sbu_2, # of connection points: 3
#     Node 3, Type 0, BuildingBlock: OLANEW_clean_sbu_2, # of connection points: 3
#     Node 4, Type 0, BuildingBlock: OLANEW_clean_sbu_2, # of connection points: 3
#     Node 5, Type 0, BuildingBlock: OLANEW_clean_sbu_2, # of connection points: 3
#     Node 6, Type 0, BuildingBlock: OLANEW_clean_sbu_2, # of connection points: 3
#     Node 7, Type 0, BuildingBlock: OLANEW_clean_sbu_2, # of connection points: 3
#     Node 8, Type 1, BuildingBlock: BETDAH_clean_sbu_0, # of connection points: 6
#     Node 9, Type 1, BuildingBlock: BETDAH_clean_sbu_0, # of connection points: 6
#     Node 10, Type 1, BuildingBlock: BETDAH_clean_sbu_0, # of connection points: 6
#     Node 11, Type 1, BuildingBlock: BETDAH_clean_sbu_0, # of connection points: 6
#     Edge 12, Type (0, 1), BuildingBlock: XIVTED_clean_linker_0, # of connection points: 2
#     Edge 13, Type (0, 1), BuildingBlock: XIVTED_clean_linker_0, # of connection points: 2
#     Edge 14, Type (0, 1), BuildingBlock: XIVTED_clean_linker_0, # of connection points: 2
#     Edge 15, Type (0, 1), BuildingBlock: XIVTED_clean_linker_0, # of connection points: 2
#     Edge 16, Type (0, 1), BuildingBlock: XIVTED_clean_linker_0, # of connection points: 2
#     Edge 17, Type (0, 1), BuildingBlock: XIVTED_clean_linker_0, # of connection points: 2
#     Edge 18, Type (0, 1), BuildingBlock: XIVTED_clean_linker_0, # of connection points: 2
#     Edge 19, Type (0, 1), BuildingBlock: XIVTED_clean_linker_0, # of connection points: 2
#     Edge 20, Type (0, 1), BuildingBlock: XIVTED_clean_linker_0, # of connection points: 2
#     Edge 21, Type (0, 1), BuildingBlock: XIVTED_clean_linker_0, # of connection points: 2
#     Edge 22, Type (0, 1), BuildingBlock: XIVTED_clean_linker_0, # of connection points: 2
#     Edge 23, Type (0, 1), BuildingBlock: XIVTED_clean_linker_0, # of connection points: 2
#     Edge 24, Type (0, 1), BuildingBlock: XIVTED_clean_linker_0, # of connection points: 2
#     Edge 25, Type (0, 1), BuildingBlock: XIVTED_clean_linker_0, # of connection points: 2
#     Edge 26, Type (0, 1), BuildingBlock: XIVTED_clean_linker_0, # of connection points: 2
#     Edge 27, Type (0, 1), BuildingBlock: XIVTED_clean_linker_0, # of connection points: 2
#     Edge 28, Type (0, 1), BuildingBlock: XIVTED_clean_linker_0, # of connection points: 2
#     Edge 29, Type (0, 1), BuildingBlock: XIVTED_clean_linker_0, # of connection points: 2
#     Edge 30, Type (0, 1), BuildingBlock: XIVTED_clean_linker_0, # of connection points: 2
#     Edge 31, Type (0, 1), BuildingBlock: XIVTED_clean_linker_0, # of connection points: 2
#     Edge 32, Type (0, 1), BuildingBlock: XIVTED_clean_linker_0, # of connection points: 2
#     Edge 33, Type (0, 1), BuildingBlock: XIVTED_clean_linker_0, # of connection points: 2
#     Edge 34, Type (0, 1), BuildingBlock: XIVTED_clean_linker_0, # of connection points: 2
#     Edge 35, Type (0, 1), BuildingBlock: XIVTED_clean_linker_0, # of connection points: 2
# Relax obj value: 0.249
# Max RMSD: 0.191
# Mean RMSD: 0.174
data_MOF--net-zzz--node1-OLANEW_clean_sbu_2--node2-BETDAH_clean_sbu_0--edge1-XIVTED_clean_linker_0
_symmetry_space_group_name_H-M    P1
_symmetry_Int_Tables_number       1
_symmetry_cell_setting            triclinic
loop_
_symmetry_equiv_pos_as_xyz
'x, y, z'
_cell_length_a     56.565309
_cell_length_b     56.616292
_cell_length_c     15.020319
_cell_angle_alpha  89.895686
_cell_angle_beta   89.978261
_cell_angle_gamma 89.984838
loop_
_atom_site_label
_atom_site_type_symbol
_atom_site_fract_x
_atom_site_fract_y
_atom_site_fract_z
_atom_type_partial_charge
O0 O 0.73407 0.53535 0.32171 0.0
Cd1 Cd 0.69553 0.54296 0.38942 0.0
O2 O 0.7303 0.49746 0.35012 0.0
Cd3 Cd 0.74866 0.46392 0.36677 0.0
O4 O 0.78543 0.46299 0.40833 0.0
C5 C 0.78986 0.47646 0.47381 0.0
O6 O 0.77226 0.48737 0.51331 0.0
C7 C 0.74236 0.51452 0.31873 0.0
C8 C 0.65902 0.53571 0.26846 0.0
O9 O 0.66951 0.55571 0.27381 0.0
O10 O 0.66571 0.51911 0.32086 0.0
O11 O 0.96635 0.72722 0.31669 0.0
Cd12 Cd 0.96075 0.6883 0.38375 0.0
O13 O 0.0043 0.72596 0.34766 0.0
Cd14 Cd 0.03637 0.74671 0.36539 0.0
O15 O 0.03531 0.78361 0.40493 0.0
C16 C 0.02047 0.78771 0.46654 0.0
O17 O 0.00926 0.76985 0.50321 0.0
C18 C 0.98663 0.73681 0.31476 0.0
C19 C 0.96814 0.65293 0.2586 0.0
O20 O 0.94791 0.66288 0.26694 0.0
O21 O 0.9849 0.65954 0.31027 0.0
O22 O 0.7709 0.96855 0.31451 0.0
Cd23 Cd 0.80964 0.97161 0.38457 0.0
O24 O 0.77123 0.00684 0.33484 0.0
Cd25 Cd 0.75117 0.03954 0.34552 0.0
O26 O 0.71434 0.03931 0.38585 0.0
C27 C 0.71026 0.02538 0.45044 0.0
O28 O 0.72813 0.01471 0.48928 0.0
C29 C 0.76074 0.98843 0.30644 0.0
C30 C 0.84383 0.97911 0.25501 0.0
O31 O 0.84141 0.95874 0.29119 0.0
O32 O 0.83039 0.99596 0.2809 0.0
O33 O 0.53507 0.76257 0.28163 0.0
Cd34 Cd 0.54336 0.80211 0.33864 0.0
O35 O 0.49882 0.76472 0.33275 0.0
Cd36 Cd 0.46674 0.7469 0.37625 0.0
O37 O 0.46181 0.71138 0.42662 0.0
C38 C 0.4711 0.70694 0.50173 0.0
O39 O 0.48052 0.72432 0.54739 0.0
C40 C 0.51499 0.75303 0.29361 0.0
C41 C 0.53418 0.83741 0.2143 0.0
O42 O 0.5541 0.82662 0.21566 0.0
O43 O 0.51851 0.83145 0.27178 0.0
O44 O 0.27533 0.53905 0.12272 0.0
Cd45 Cd 0.31658 0.54523 0.08204 0.0
O46 O 0.27733 0.50103 0.09449 0.0
Cd47 Cd 0.25826 0.4681 0.07253 0.0
O48 O 0.22348 0.45765 0.02561 0.0
C49 C 0.21828 0.4641 0.94698 0.0
O50 O 0.23458 0.47444 0.89828 0.0
C51 C 0.26555 0.51888 0.12046 0.0
C52 C 0.3463 0.52673 0.21209 0.0
O53 O 0.33638 0.5469 0.22192 0.0
O54 O 0.34237 0.51524 0.14016 0.0
O55 O 0.97969 0.27479 0.08638 0.0
Cd56 Cd 0.98679 0.31345 0.02068 0.0
O57 O 0.01831 0.27241 0.08711 0.0
Cd58 Cd 0.05043 0.25122 0.09291 0.0
O59 O 0.05652 0.215 0.05224 0.0
C60 C 0.04772 0.21034 0.97653 0.0
O61 O 0.03806 0.22756 0.93035 0.0
C62 C 0.99829 0.26321 0.10455 0.0
C63 C 0.99311 0.34609 0.15616 0.0
O64 O 0.97298 0.34363 0.11812 0.0
O65 O 0.0104 0.33337 0.12902 0.0
O66 O 0.22632 0.96352 0.08492 0.0
Cd67 Cd 0.18545 0.9604 0.03521 0.0
O68 O 0.22408 0.00226 0.08037 0.0
Cd69 Cd 0.24353 0.03547 0.07997 0.0
O70 O 0.2793 0.04294 0.0352 0.0
C71 C 0.28424 0.03421 0.95958 0.0
O72 O 0.26742 0.0236 0.91447 0.0
C73 C 0.23586 0.98358 0.09637 0.0
C74 C 0.15509 0.97013 0.17615 0.0
O75 O 0.16334 0.94931 0.16392 0.0
O76 O 0.16097 0.98638 0.1209 0.0
O77 O 0.50809 0.2345 0.08527 0.0
Cd78 Cd 0.49875 0.19447 0.0366 0.0
O79 O 0.4762 0.24453 0.01279 0.0
Cd80 Cd 0.44834 0.26647 0.95488 0.0
O81 O 0.41376 0.2739 0.88218 0.0
C82 C 0.41032 0.29074 0.82671 0.0
O83 O 0.41296 0.27332 0.88271 0.0
C84 C 0.4936 0.25045 0.06147 0.0
C85 C 0.49743 0.16256 0.17802 0.0
O86 O 0.51613 0.1651 0.13068 0.0
O87 O 0.47934 0.17519 0.15874 0.0
Ho88 Ho 0.01029 0.99072 0.80442 0.0
Ho89 Ho 0.98994 0.01 0.62664 0.0
C90 C 0.99149 0.95428 0.6522 0.0
C91 C 0.01564 0.96995 0.95698 0.0
C92 C 0.01394 0.94586 0.99315 0.0
C93 C 0.00902 0.94273 0.08383 0.0
C94 C 0.00655 0.92004 0.11941 0.0
C95 C 0.00899 0.90002 0.0648 0.0
C96 C 0.01402 0.90327 0.97375 0.0
C97 C 0.01641 0.92601 0.93816 0.0
C98 C 0.04235 -0.00099 0.67556 0.0
C99 C 0.01297 0.04589 0.77287 0.0
C100 C 0.98068 0.03031 0.47571 0.0
C101 C 0.98323 0.05377 0.43491 0.0
C102 C 0.9976 0.07106 0.47373 0.0
C103 C 0.99917 0.09358 0.43578 0.0
C104 C 0.98657 0.09913 0.35757 0.0
C105 C 0.97246 0.0815 0.31832 0.0
C106 C 0.97075 0.05907 0.35691 0.0
C107 C 0.95853 0.00173 0.75773 0.0
O108 O 0.99555 0.95811 0.73788 0.0
O109 O 0.99097 0.97161 0.59315 0.0
O110 O 0.03309 0.97419 0.90204 0.0
O111 O 0.99574 0.97928 0.9304 0.0
O112 O 0.04705 0.00038 0.75999 0.0
O113 O 0.02189 0.99076 0.66473 0.0
O114 O 0.00775 0.04183 0.68811 0.0
O115 O 0.01204 0.02917 0.83431 0.0
O116 O 0.96553 0.02879 0.54114 0.0
O117 O 0.00024 0.01878 0.49195 0.0
O118 O 0.95422 0.99765 0.67437 0.0
O119 O 0.97875 0.01065 0.76651 0.0
H120 H 0.00698 0.95788 0.12716 0.0
H121 H 0.00294 0.91816 0.1899 0.0
H122 H 0.0157 0.88824 0.92966 0.0
H123 H 0.02001 0.92809 0.86774 0.0
H124 H 0.0075 0.06716 0.53355 0.0
H125 H 0.00997 0.10672 0.46868 0.0
H126 H 0.96284 0.08493 0.25733 0.0
H127 H 0.95965 0.04586 0.32583 0.0
Ho128 Ho 0.50699 0.01056 0.79724 0.0
Ho129 Ho 0.48944 0.99017 0.61809 0.0
C130 C 0.54475 0.9933 0.6468 0.0
C131 C 0.52752 0.01694 0.94915 0.0
C132 C 0.55107 0.01265 0.98793 0.0
C133 C 0.56415 0.99228 0.96719 0.0
C134 C 0.5865 0.98868 0.00485 0.0
C135 C 0.59625 0.00551 0.06303 0.0
C136 C 0.58308 0.02586 0.08344 0.0
C137 C 0.56068 0.02934 0.04642 0.0
C138 C 0.49788 0.04229 0.66762 0.0
C139 C 0.45185 0.01042 0.76547 0.0
C140 C 0.46928 0.98212 0.46667 0.0
C141 C 0.44541 0.9839 0.4276 0.0
C142 C 0.4318 0.00456 0.43519 0.0
C143 C 0.4094 0.00587 0.396 0.0
C144 C 0.40006 0.98648 0.34908 0.0
C145 C 0.41372 0.96577 0.34251 0.0
C146 C 0.43618 0.96456 0.38103 0.0
C147 C 0.50032 0.95847 0.74484 0.0
O148 O 0.54022 0.99615 0.73278 0.0
O149 O 0.52779 0.99321 0.58628 0.0
O150 O 0.52637 0.03323 0.88744 0.0
O151 O 0.51484 0.99828 0.93016 0.0
O152 O 0.4941 0.04651 0.75146 0.0
O153 O 0.5074 0.02243 0.65865 0.0
O154 O 0.45629 0.00523 0.68097 0.0
O155 O 0.46855 0.0109 0.82679 0.0
O156 O 0.47219 0.96589 0.52779 0.0
O157 O 0.48004 0.00193 0.48595 0.0
O158 O 0.50441 0.95513 0.66078 0.0
O159 O 0.48968 0.97775 0.75658 0.0
H160 H 0.55717 0.97921 0.92162 0.0
H161 H 0.59636 0.97298 0.98705 0.0
H162 H 0.59003 0.03903 0.12862 0.0
H163 H 0.55086 0.04515 0.06331 0.0
H164 H 0.43847 0.01976 0.471 0.0
H165 H 0.39956 0.0222 0.40164 0.0
H166 H 0.40699 0.95032 0.30858 0.0
H167 H 0.44634 0.94842 0.37465 0.0
Ho168 Ho 0.48997 0.49843 0.82736 0.0
Ho169 Ho 0.51476 0.48691 0.65019 0.0
C170 C 0.50431 0.54058 0.68894 0.0
C171 C 0.48059 0.51625 0.98178 0.0
C172 C 0.48445 0.53971 0.0217 0.0
C173 C 0.50372 0.55375 0.99566 0.0
C174 C 0.50669 0.57637 0.03114 0.0
C175 C 0.49039 0.58547 0.09303 0.0
C176 C 0.47113 0.5713 0.11904 0.0
C177 C 0.46822 0.54862 0.08372 0.0
C178 C 0.46039 0.48816 0.69207 0.0
C179 C 0.49321 0.44478 0.77444 0.0
C180 C 0.52984 0.47078 0.49939 0.0
C181 C 0.52536 0.4499 0.44436 0.0
C182 C 0.50539 0.43574 0.45898 0.0
C183 C 0.50186 0.41536 0.40837 0.0
C184 C 0.51826 0.40882 0.34234 0.0
C185 C 0.53806 0.42332 0.32727 0.0
C186 C 0.54157 0.44368 0.37797 0.0
C187 C 0.543 0.49921 0.78668 0.0
O188 O 0.50085 0.5342 0.77289 0.0
O189 O 0.50758 0.52492 0.62515 0.0
O190 O 0.46527 0.51554 0.91668 0.0
O191 O 0.49957 0.50378 0.96513 0.0
O192 O 0.4557 0.48371 0.77518 0.0
O193 O 0.47945 0.49958 0.68642 0.0
O194 O 0.49851 0.45231 0.69324 0.0
O195 O 0.492 0.45927 0.84324 0.0
O196 O 0.54045 0.46679 0.57525 0.0
O197 O 0.51234 0.48574 0.50675 0.0
O198 O 0.5468 0.50553 0.70504 0.0
O199 O 0.5252 0.486 0.79088 0.0
H200 H 0.51636 0.54735 0.94715 0.0
H201 H 0.5215 0.58693 0.00859 0.0
H202 H 0.45838 0.57769 0.16711 0.0
H203 H 0.45319 0.53809 0.10434 0.0
H204 H 0.49269 0.44031 0.51014 0.0
H205 H 0.48659 0.40442 0.42246 0.0
H206 H 0.55085 0.41895 0.27621 0.0
H207 H 0.55705 0.45449 0.36581 0.0
Ho208 Ho 0.99457 0.48668 0.80892 0.0
Ho209 Ho 0.01153 0.50957 0.63187 0.0
C210 C 0.95621 0.50674 0.66423 0.0
C211 C 0.97486 0.47898 0.96181 0.0
C212 C 0.95106 0.48159 0.0002 0.0
C213 C 0.94856 0.48523 0.09198 0.0
C214 C 0.92614 0.48839 0.12947 0.0
C215 C 0.90577 0.48797 0.07569 0.0
C216 C 0.9084 0.48424 0.98353 0.0
C217 C 0.93084 0.48109 0.94615 0.0
C218 C 0.00166 0.45709 0.67131 0.0
C219 C 0.04947 0.48603 0.77103 0.0
C220 C 0.03123 0.5193 0.48085 0.0
C221 C 0.05496 0.51768 0.44026 0.0
C222 C 0.06767 0.49634 0.43863 0.0
C223 C 0.08992 0.49525 0.39808 0.0
C224 C 0.10003 0.5155 0.35891 0.0
C225 C 0.08727 0.53684 0.36155 0.0
C226 C 0.06497 0.53786 0.40137 0.0
C227 C 0.0027 0.53922 0.76701 0.0
O228 O 0.96106 0.50198 0.74889 0.0
O229 O 0.97291 0.508 0.60277 0.0
O230 O 0.97746 0.46271 0.90076 0.0
O231 O 0.98566 0.49869 0.94143 0.0
O232 O 0.00571 0.45111 0.75353 0.0
O233 O 0.99285 0.47738 0.66826 0.0
O234 O 0.04454 0.49249 0.6881 0.0
O235 O 0.03324 0.48522 0.83419 0.0
O236 O 0.02872 0.53478 0.54475 0.0
O237 O 0.02019 0.49943 0.49724 0.0
O238 O 0.99806 0.54423 0.68447 0.0
O239 O 0.01274 0.51944 0.77286 0.0
H240 H 0.96398 0.4857 0.13471 0.0
H241 H 0.92475 0.49094 0.20072 0.0
H242 H 0.89315 0.48414 0.93996 0.0
H243 H 0.9324 0.47841 0.87503 0.0
H244 H 0.06042 0.48046 0.46823 0.0
H245 H 0.09903 0.47844 0.39649 0.0
H246 H 0.09461 0.55291 0.33384 0.0
H247 H 0.05552 0.55451 0.40201 0.0
H248 H 0.14699 0.9426 0.32246 0.0
H249 H 0.04438 0.02313 0.51913 0.0
H250 H 0.12757 0.00929 0.20343 0.0
H251 H 0.08156 0.97146 0.67643 0.0
H252 H 0.07276 0.01705 0.39766 0.0
H253 H 0.12091 0.95124 0.44797 0.0
C254 C 0.13722 0.95906 0.32269 0.0
C255 C 0.13941 0.97524 0.25235 0.0
C256 C 0.0748 0.00715 0.45895 0.0
C257 C 0.1095 0.98518 0.39558 0.0
C258 C 0.05853 0.01049 0.52767 0.0
C259 C 0.06062 0.99754 0.60666 0.0
C260 C 0.09298 0.99047 0.46934 0.0
C261 C 0.07951 0.98178 0.61615 0.0
C262 C 0.12245 0.96403 0.39457 0.0
C263 C 0.12642 0.99634 0.25636 0.0
N264 N 0.09487 0.97846 0.54775 0.0
N265 N 0.11186 0.00064 0.32654 0.0
H266 H 0.46522 0.1596 0.31411 0.0
H267 H 0.51698 0.03872 0.50263 0.0
H268 H 0.52793 0.12615 0.20972 0.0
H269 H 0.47565 0.08545 0.66752 0.0
H270 H 0.51627 0.06809 0.3838 0.0
H271 H 0.46434 0.13029 0.43474 0.0
C272 C 0.47877 0.14609 0.31652 0.0
C273 C 0.4967 0.1453 0.25187 0.0
C274 C 0.50734 0.07195 0.44591 0.0
C275 C 0.49559 0.11173 0.38856 0.0
C276 C 0.50762 0.05516 0.51362 0.0
C277 C 0.49642 0.05976 0.59504 0.0
C278 C 0.49552 0.09344 0.4591 0.0
C279 C 0.48459 0.08134 0.60572 0.0
C280 C 0.47829 0.12947 0.38543 0.0
C281 C 0.51385 0.12748 0.25829 0.0
N282 N 0.48438 0.09744 0.53821 0.0
N283 N 0.51278 0.11132 0.32504 0.0
H284 H 0.3839 0.49682 0.19206 0.0
H285 H 0.41236 0.48753 0.71045 0.0
H286 H 0.34416 0.535 0.39036 0.0
H287 H 0.46763 0.48967 0.51303 0.0
H288 H 0.38305 0.49362 0.59203 0.0
H289 H 0.41103 0.48318 0.30931 0.0
C290 C 0.38076 0.50209 0.26035 0.0
C291 C 0.36195 0.51719 0.28181 0.0
C292 C 0.40161 0.49241 0.57484 0.0
C293 C 0.39236 0.50131 0.41529 0.0
C294 C 0.41828 0.48882 0.64202 0.0
C295 C 0.44243 0.4883 0.62115 0.0
C296 C 0.40918 0.49494 0.48637 0.0
C297 C 0.44921 0.49015 0.53164 0.0
C298 C 0.39621 0.49436 0.32684 0.0
C299 C 0.35862 0.52356 0.37112 0.0
N300 N 0.43266 0.4934 0.46726 0.0
N301 N 0.37365 0.51551 0.4348 0.0
H302 H 0.0282 0.34687 0.28169 0.0
H303 H 0.98184 0.4648 0.50991 0.0
H304 H 0.96476 0.38327 0.19962 0.0
H305 H 0.02283 0.41355 0.6565 0.0
H306 H 0.98116 0.43825 0.38261 0.0
H307 H 0.03184 0.37424 0.4076 0.0
C308 C 0.01514 0.3607 0.28986 0.0
C309 C 0.99612 0.36283 0.23036 0.0
C310 C 0.99034 0.4328 0.44251 0.0
C311 C 0.00032 0.39409 0.37299 0.0
C312 C 0.99085 0.44797 0.51508 0.0
C313 C 0.00234 0.44125 0.59385 0.0
C314 C 0.00163 0.41081 0.44818 0.0
C315 C 0.01368 0.41925 0.59693 0.0
C316 C 0.01718 0.37617 0.3618 0.0
C317 C 0.97963 0.38095 0.24414 0.0
N318 N 0.01309 0.40473 0.52476 0.0
N319 N 0.98218 0.39595 0.3138 0.0
H320 H 0.88845 0.96117 0.24298 0.0
H321 H 0.91294 0.98633 0.74588 0.0
H322 H 0.83833 0.00548 0.10505 0.0
H323 H 0.96459 0.01169 0.93413 0.0
H324 H 0.88455 0.98162 0.8688 0.0
H325 H 0.91692 0.9676 0.12109 0.0
C326 C 0.88348 0.97216 0.18692 0.0
C327 C 0.86118 0.98292 0.18363 0.0
C328 C 0.90221 0.98803 0.8826 0.0
C329 C 0.89302 0.98963 0.04465 0.0
C330 C 0.91837 0.99066 0.81303 0.0
C331 C 0.94129 0.99887 0.83045 0.0
C332 C 0.90933 0.99306 0.96982 0.0
C333 C 0.94736 0.00455 0.91842 0.0
C334 C 0.89965 0.97585 0.11809 0.0
C335 C 0.85547 0.99706 0.10993 0.0
N336 N 0.93157 0.00119 0.98538 0.0
N337 N 0.87122 -0.00024 0.04233 0.0
H338 H 0.49758 0.86912 0.21158 0.0
H339 H 0.53033 0.92111 0.73401 0.0
H340 H 0.55996 0.84825 0.06591 0.0
H341 H 0.4838 0.9573 0.91586 0.0
H342 H 0.53928 0.89221 0.85057 0.0
H343 H 0.48996 0.89964 0.09942 0.0
C344 C 0.50967 0.87095 0.15604 0.0
C345 C 0.52942 0.8561 0.14793 0.0
C346 C 0.5272 0.90654 0.86517 0.0
C347 C 0.52073 0.89081 0.01944 0.0
C348 C 0.52204 0.92295 0.79867 0.0
C349 C 0.50631 0.94151 0.81564 0.0
C350 C 0.51627 0.90853 0.94877 0.0
C351 C 0.49609 0.94323 0.90044 0.0
C352 C 0.50536 0.88842 0.09234 0.0
C353 C 0.54454 0.85932 0.07484 0.0
N354 N 0.50111 0.92681 0.96385 0.0
N355 N 0.53979 0.87622 0.01311 0.0
H356 H 0.64582 0.56472 0.13159 0.0
H357 H 0.54375 0.47939 0.95264 0.0
H358 H 0.6292 0.49774 0.25438 0.0
H359 H 0.57641 0.53367 0.79271 0.0
H360 H 0.57042 0.48946 0.07564 0.0
H361 H 0.6158 0.55708 0.01833 0.0
C362 C 0.63577 0.54846 0.13505 0.0
C363 C 0.64013 0.53176 0.20218 0.0
C364 C 0.57167 0.4992 0.01369 0.0
C365 C 0.60571 0.52298 0.07296 0.0
C366 C 0.55643 0.49354 0.9438 0.0
C367 C 0.55806 0.50567 0.86262 0.0
C368 C 0.58842 0.51726 0.00227 0.0
C369 C 0.57477 0.5238 0.8542 0.0
C370 C 0.61869 0.54409 0.07023 0.0
C371 C 0.62653 0.51101 0.20342 0.0
N372 N 0.58933 0.52906 0.92322 0.0
N373 N 0.60992 0.5072 0.13967 0.0
H374 H 0.93975 0.64208 0.11755 0.0
H375 H 0.02058 0.53713 0.9358 0.0
H376 H 0.00564 0.62255 0.24261 0.0
H377 H 0.97213 0.57623 0.7699 0.0
H378 H 0.01142 0.56379 0.05992 0.0
H379 H 0.94742 0.61322 0.00023 0.0
C380 C 0.95577 0.63162 0.12064 0.0
C381 C 0.97215 0.63479 0.18967 0.0
C382 C 0.0028 0.56648 0.99632 0.0
C383 C 0.98094 0.6017 0.05595 0.0
C384 C 0.00794 0.55127 0.92581 0.0
C385 C 0.99711 0.55463 0.84283 0.0
C386 C 0.98649 0.58489 0.9837 0.0
C387 C 0.98093 0.57319 0.83289 0.0
C388 C 0.96017 0.61524 0.05349 0.0
C389 C 0.99262 0.62076 0.19025 0.0
N390 N 0.97604 0.58759 0.90266 0.0
N391 N 0.99643 0.60476 0.12438 0.0
H392 H 0.02837 0.24162 0.22164 0.0
H393 H 0.95127 0.12472 0.27591 0.0
H394 H 0.9636 0.23036 0.07655 0.0
H395 H 0.02511 0.12866 0.34765 0.0
H396 H 0.95403 0.16431 0.21185 0.0
H397 H 0.02605 0.2013 0.27863 0.0
C398 C 0.01393 0.23047 0.20014 0.0
C399 C 0.99663 0.23905 0.14159 0.0
C400 C 0.96962 0.15644 0.24143 0.0
C401 C 0.99321 0.1932 0.21016 0.0
C402 C 0.96812 0.13376 0.27768 0.0
C403 C 0.98799 0.1232 0.31753 0.0
C404 C 0.99107 0.16884 0.24573 0.0
C405 C 0.0092 0.13613 0.31922 0.0
C406 C 0.01245 0.20754 0.23361 0.0
C407 C 0.97747 0.22432 0.12069 0.0
N408 N 0.01014 0.15825 0.2842 0.0
N409 N 0.97627 0.20208 0.1549 0.0
H410 H 0.27342 0.95657 0.04456 0.0
H411 H 0.36025 0.00861 0.41335 0.0
H412 H 0.25414 0.01354 0.22015 0.0
H413 H 0.38495 0.96707 0.19099 0.0
H414 H 0.32093 0.00946 0.34686 0.0
H415 H 0.31407 0.95857 0.10123 0.0
C416 C 0.27783 0.96958 0.09468 0.0
C417 C 0.26058 0.98512 0.12703 0.0
C418 C 0.335 0.00025 0.31244 0.0
C419 C 0.30674 0.9873 0.19304 0.0
C420 C 0.35754 -0.00015 0.35016 0.0
C421 C 0.37608 0.98768 0.30807 0.0
C422 C 0.33078 0.9882 0.23239 0.0
C423 C 0.3712 0.97629 0.22697 0.0
C424 C 0.30099 0.97078 0.12674 0.0
C425 C 0.26708 0.00157 0.19224 0.0
N426 N 0.34902 0.97671 0.19211 0.0
N427 N 0.28961 0.00215 0.22351 0.0
H428 H 0.46006 0.28491 0.08744 0.0
H429 H 0.55211 0.37648 0.29609 0.0
H430 H 0.53493 0.27163 0.10885 0.0
H431 H 0.47731 0.39033 0.2732 0.0
H432 H 0.54648 0.33919 0.21789 0.0
H433 H 0.46632 0.32471 0.14454 0.0
C434 C 0.47789 0.29053 0.10188 0.0
C435 C 0.49706 0.27505 0.09149 0.0
C436 C 0.53129 0.35042 0.22954 0.0
C437 C 0.50427 0.32034 0.16061 0.0
C438 C 0.53452 0.37181 0.27378 0.0
C439 C 0.51514 0.38656 0.29152 0.0
C440 C 0.5085 0.34363 0.20283 0.0
C441 C 0.4927 0.37935 0.26216 0.0
C442 C 0.48143 0.3132 0.13584 0.0
C443 C 0.51965 0.28301 0.11564 0.0
N444 N 0.48999 0.35837 0.21952 0.0
N445 N 0.52263 0.30506 0.14926 0.0
H446 H 0.24559 0.48366 0.21945 0.0
H447 H 0.11559 0.53898 0.20926 0.0
H448 H 0.22905 0.54905 0.08577 0.0
H449 H 0.13897 0.48967 0.41067 0.0
H450 H 0.15529 0.53862 0.14528 0.0
H451 H 0.20454 0.48108 0.27058 0.0
C452 C 0.23318 0.49724 0.1995 0.0
C453 C 0.24056 0.51642 0.14732 0.0
C454 C 0.15166 0.52785 0.20336 0.0
C455 C 0.1938 0.51384 0.20686 0.0
C456 C 0.12902 0.52813 0.2404 0.0
C457 C 0.12384 0.51451 0.31631 0.0
C458 C 0.16927 0.51367 0.24171 0.0
C459 C 0.14194 0.50029 0.35179 0.0
C460 C 0.20985 0.49589 0.22946 0.0
C461 C 0.22399 0.53394 0.12574 0.0
N462 N 0.16382 0.50028 0.31429 0.0
N463 N 0.20133 0.53221 0.15539 0.0
H464 H 0.95765 0.77487 0.33885 0.0
H465 H 0.03564 0.86057 0.03107 0.0
H466 H 0.02184 0.75326 0.20753 0.0
H467 H 0.97584 0.88449 0.18494 0.0
H468 H 0.03027 0.82092 0.09242 0.0
H469 H 0.96329 0.81498 0.2804 0.0
C470 C 0.97289 0.77862 0.29749 0.0
C471 C 0.98947 0.76091 0.27871 0.0
C472 C 0.01833 0.83484 0.11292 0.0
C473 C 0.99598 0.80652 0.21109 0.0
C474 C 0.02131 0.85746 0.07746 0.0
C475 C 0.00612 0.87589 0.1026 0.0
C476 C -8e-05 0.83051 0.17363 0.0
C477 C 0.9881 0.87089 0.16422 0.0
C478 C 0.97618 0.80149 0.26449 0.0
C479 C 0.00889 0.76658 0.2248 0.0
N480 N 0.98544 0.84867 0.19732 0.0
N481 N 0.01161 0.78888 0.19282 0.0
H482 H 0.74346 0.02305 0.1988 0.0
H483 H 0.61558 0.96541 0.13634 0.0
H484 H 0.72376 0.9574 0.32421 0.0
H485 H 0.63172 0.03811 0.07513 0.0
H486 H 0.65569 0.96053 0.19595 0.0
H487 H 0.70321 0.02724 0.1426 0.0
C488 C 0.73053 0.00964 0.21535 0.0
C489 C 0.73673 0.9902 0.26829 0.0
C490 C 0.65039 0.97755 0.16967 0.0
C491 C 0.69073 0.99447 0.20183 0.0
C492 C 0.62758 0.98031 0.13524 0.0
C493 C 0.62032 0.0022 0.10067 0.0
C494 C 0.66614 0.99673 0.16833 0.0
C495 C 0.63649 0.02099 0.10182 0.0
C496 C 0.70758 0.01196 0.18279 0.0
C497 C 0.71959 0.97278 0.28426 0.0
N498 N 0.65864 0.01778 0.1346 0.0
N499 N 0.69729 0.97535 0.25139 0.0
H500 H 0.54716 0.71717 0.29628 0.0
H501 H 0.45621 0.61921 0.12019 0.0
H502 H 0.47463 0.73229 0.2289 0.0
H503 H 0.53121 0.60726 0.14759 0.0
H504 H 0.46173 0.6596 0.17404 0.0
H505 H 0.54093 0.67595 0.2535 0.0
C506 C 0.52988 0.71177 0.27285 0.0
C507 C 0.51125 0.72807 0.26788 0.0
C508 C 0.47697 0.64813 0.16835 0.0
C509 C 0.50397 0.68093 0.21852 0.0
C510 C 0.47382 0.625 0.13819 0.0
C511 C 0.4933 0.60981 0.12888 0.0
C512 C 0.49976 0.65616 0.18975 0.0
C513 C 0.51573 0.61843 0.15235 0.0
C514 C 0.52631 0.68823 0.24864 0.0
C515 C 0.48926 0.72015 0.23666 0.0
N516 N 0.51834 0.64099 0.18157 0.0
N517 N 0.48621 0.69715 0.2133 0.0
H518 H 0.75695 0.47871 0.21093 0.0
H519 H 0.8926 0.51937 0.20602 0.0
H520 H 0.78211 0.54103 0.3452 0.0
H521 H 0.8645 0.46474 0.0362 0.0
H522 H 0.85308 0.52538 0.26821 0.0
H523 H 0.79698 0.47144 0.15543 0.0
C524 C 0.771 0.49077 0.22911 0.0
C525 C 0.76636 0.51033 0.28345 0.0
C526 C 0.85557 0.51212 0.21719 0.0
C527 C 0.81213 0.50233 0.21951 0.0
C528 C 0.87817 0.50854 0.18208 0.0
C529 C 0.88191 0.49158 0.11534 0.0
C530 C 0.83653 0.49861 0.18562 0.0
C531 C 0.86243 0.47827 0.08641 0.0
C532 C 0.7938 0.4867 0.19709 0.0
C533 C 0.78502 0.52573 0.30346 0.0
N534 N 0.84062 0.48207 0.12168 0.0
N535 N 0.80714 0.52134 0.27188 0.0
H536 H 0.05659 0.16951 0.06917 0.0
H537 H 0.01262 0.08632 0.67216 0.0
H538 H 0.03431 0.19528 0.81181 0.0
H539 H 0.02903 0.06057 0.9358 0.0
H540 H 0.02357 0.12599 0.71898 0.0
H541 H 0.04991 0.12906 0.01799 0.0
C542 C 0.05057 0.16665 0.00159 0.0
C543 C 0.04595 0.18578 0.94467 0.0
C544 C 0.02484 0.11165 0.76657 0.0
C545 C 0.03812 0.13963 0.886 0.0
C546 C 0.01862 0.08893 0.73976 0.0
C547 C 0.01985 0.07002 0.80003 0.0
C548 C 0.03238 0.11554 0.8544 0.0
C549 C 0.02768 0.07461 0.88705 0.0
C550 C 0.04665 0.14357 0.97256 0.0
C551 C 0.038 0.18106 0.85804 0.0
N552 N 0.0336 0.09691 0.91166 0.0
N553 N 0.03427 0.15847 0.83147 0.0
H554 H 0.29965 0.02168 0.79402 0.0
H555 H 0.43613 0.02456 0.92932 0.0
H556 H 0.32482 0.04507 0.05044 0.0
H557 H 0.41154 0.0087 0.66377 0.0
H558 H 0.39552 0.0326 0.97413 0.0
H559 H 0.34051 0.01758 0.74413 0.0
C560 C 0.31378 0.02613 0.83965 0.0
C561 C 0.30882 0.03371 0.92657 0.0
C562 C 0.399 0.02746 0.90597 0.0
C563 C 0.35567 0.02884 0.8701 0.0
C564 C 0.42222 0.02279 0.88027 0.0
C565 C 0.4273 0.01581 0.79264 0.0
C566 C 0.38065 0.02505 0.84382 0.0
C567 C 0.40849 0.01395 0.73209 0.0
C568 C 0.33712 0.02378 0.81109 0.0
C569 C 0.32783 0.03926 0.98275 0.0
N570 N 0.38599 0.01844 0.75896 0.0
N571 N 0.35043 0.03656 0.95372 0.0
H572 H 0.41837 0.31671 0.68107 0.0
H573 H 0.48384 0.42061 0.92986 0.0
H574 H 0.43948 0.31019 0.95576 0.0
H575 H 0.48587 0.41192 0.64431 0.0
H576 H 0.46761 0.3806 0.94357 0.0
H577 H 0.44271 0.35222 0.66773 0.0
C578 C 0.42848 0.32261 0.73815 0.0
C579 C 0.42725 0.31039 0.81894 0.0
C580 C 0.47191 0.38741 0.87812 0.0
C581 C 0.4546 0.35131 0.80536 0.0
C582 C 0.48111 0.41026 0.87017 0.0
C583 C 0.48599 0.41979 0.78573 0.0
C584 C 0.46723 0.37422 0.80101 0.0
C585 C 0.48224 0.40547 0.71079 0.0
C586 C 0.44237 0.34283 0.7306 0.0
C587 C 0.4404 0.31885 0.8916 0.0
N588 N 0.4728 0.38357 0.72015 0.0
N589 N 0.45332 0.33902 0.8834 0.0
H590 H 0.20166 0.47434 0.78043 0.0
H591 H 0.06632 0.46985 0.93077 0.0
H592 H 0.17861 0.45195 0.04132 0.0
H593 H 0.08888 0.48798 0.66444 0.0
H594 H 0.10721 0.46116 0.9698 0.0
H595 H 0.16041 0.477 0.73374 0.0
C596 C 0.18793 0.46974 0.82766 0.0
C597 C 0.19359 0.46304 0.91509 0.0
C598 C 0.10322 0.46692 0.90268 0.0
C599 C 0.14631 0.46627 0.86229 0.0
C600 C 0.07984 0.47195 0.88031 0.0
C601 C 0.07412 0.47985 0.79431 0.0
C602 C 0.1211 0.46988 0.8388 0.0
C603 C 0.09244 0.48207 0.7317 0.0
C604 C 0.16437 0.4713 0.80095 0.0
C605 C 0.17507 0.45721 0.9733 0.0
N606 N 0.11512 0.47724 0.75538 0.0
N607 N 0.15225 0.45917 0.94606 0.0
H608 H 0.99813 0.80204 0.61782 0.0
H609 H 0.99598 0.93843 0.4809 0.0
H610 H 0.02891 0.82871 0.37461 0.0
H611 H 0.98656 0.91387 0.75104 0.0
H612 H 0.00117 0.89755 0.43276 0.0
H613 H 0.98766 0.84238 0.65989 0.0
C614 C 0.00271 0.8164 0.57332 0.0
C615 C 0.01465 0.81209 0.49313 0.0
C616 C 0.99779 0.90114 0.50242 0.0
C617 C 0.00241 0.85819 0.54025 0.0
C618 C 0.99462 0.92445 0.52994 0.0
C619 C 0.99101 0.92961 0.62035 0.0
C620 C 0.99712 0.88287 0.5656 0.0
C621 C 0.98951 0.91074 0.68082 0.0
C622 C 0.99672 0.8394 0.59737 0.0
C623 C 0.02003 0.83133 0.4377 0.0
N624 N 0.99267 0.8882 0.65239 0.0
N625 N 0.01382 0.85358 0.46225 0.0
H626 H 0.66952 0.032 0.35535 0.0
H627 H 0.58485 0.98956 0.74835 0.0
H628 H 0.69567 0.00532 0.60608 0.0
H629 H 0.56127 0.9984 0.47679 0.0
H630 H 0.62554 0.9958 0.6989 0.0
H631 H 0.6294 0.02109 0.40043 0.0
C632 C 0.66678 0.02403 0.42017 0.0
C633 C 0.68586 0.01975 0.47752 0.0
C634 C 0.61147 0.99611 0.65005 0.0
C635 C 0.64015 0.00716 0.52929 0.0
C636 C 0.58824 0.99252 0.67821 0.0
C637 C 0.5696 0.99359 0.61671 0.0
C638 C 0.61604 0.0011 0.56002 0.0
C639 C 0.57506 0.99743 0.52661 0.0
C640 C 0.64393 0.01762 0.44555 0.0
C641 C 0.6814 0.009 0.56005 0.0
N642 N 0.59776 0.00132 0.50115 0.0
N643 N 0.65898 0.00322 0.58376 0.0
H644 H 0.46675 0.66676 0.40251 0.0
H645 H 0.50016 0.57894 0.79957 0.0
H646 H 0.48362 0.69114 0.66721 0.0
H647 H 0.50186 0.5594 0.5217 0.0
H648 H 0.49148 0.61969 0.75568 0.0
H649 H 0.47588 0.62645 0.44905 0.0
C650 C 0.47208 0.66359 0.47078 0.0
C651 C 0.47438 0.6823 0.53125 0.0
C652 C 0.49393 0.60647 0.70446 0.0
C653 C 0.48507 0.63626 0.58466 0.0
C654 C 0.49893 0.58323 0.7294 0.0
C655 C 0.50171 0.56571 0.66422 0.0
C656 C 0.49143 0.61212 0.61385 0.0
C657 C 0.49991 0.5723 0.57432 0.0
C658 C 0.4775 0.64061 0.49707 0.0
C659 C 0.48165 0.6772 0.61852 0.0
N660 N 0.4947 0.59492 0.55187 0.0
N661 N 0.48671 0.65463 0.64272 0.0
H662 H 0.83037 0.46949 0.37751 0.0
H663 H 0.91647 0.51024 0.76801 0.0
H664 H 0.80506 0.49559 0.63001 0.0
H665 H 0.93908 0.50261 0.49488 0.0
H666 H 0.8756 0.50409 0.72053 0.0
H667 H 0.87069 0.47994 0.42137 0.0
C668 C 0.83334 0.47723 0.44248 0.0
C669 C 0.81441 0.48153 0.50057 0.0
C670 C 0.8895 0.50403 0.67091 0.0
C671 C 0.86038 0.49355 0.55107 0.0
C672 C 0.91283 0.50754 0.69798 0.0
C673 C 0.93125 0.50679 0.63547 0.0
C674 C 0.88461 0.49945 0.58088 0.0
C675 C 0.92546 0.50337 0.54547 0.0
C676 C 0.85631 0.48337 0.46719 0.0
C677 C 0.81918 0.49192 0.58336 0.0
N678 N 0.90268 0.49956 0.52102 0.0
N679 N 0.84172 0.49744 0.60641 0.0
loop_
_geom_bond_atom_site_label_1
_geom_bond_atom_site_label_2
_geom_bond_distance
_geom_bond_site_symmetry_2
_ccdc_geom_bond_type
O0 Cd1 2.300 . S
O0 C7 1.275 . S
Cd1 O0 2.300 . S
Cd1 O9 2.381 . S
Cd1 O10 2.378 . S
O2 Cd3 2.385 . S
O2 C7 1.255 . S
Cd3 O2 2.385 . S
Cd3 O4 2.317 . S
O4 Cd3 2.317 . S
O4 C5 1.232 . S
C5 O4 1.232 . S
C5 O6 1.218 . S
O6 C5 1.218 . S
C7 O0 1.275 . S
C7 O2 1.255 . S
C8 O9 1.258 . S
C8 O10 1.256 . S
O9 Cd1 2.381 . S
O9 C8 1.258 . S
O10 Cd1 2.378 . S
O10 C8 1.256 . S
O11 Cd12 2.300 1_655 S
O11 C18 1.275 1_655 S
Cd12 O11 2.300 1_455 S
Cd12 O20 2.381 1_455 S
Cd12 O21 2.378 . S
O13 Cd14 2.385 . S
O13 C18 1.255 . S
Cd14 O13 2.385 . S
Cd14 O15 2.317 . S
O15 Cd14 2.317 . S
O15 C16 1.232 . S
C16 O15 1.232 . S
C16 O17 1.218 . S
O17 C16 1.218 . S
C18 O11 1.275 1_455 S
C18 O13 1.255 . S
C19 O20 1.258 1_455 S
C19 O21 1.256 . S
O20 Cd12 2.381 1_655 S
O20 C19 1.258 1_655 S
O21 Cd12 2.378 . S
O21 C19 1.256 . S
O22 Cd23 2.300 1_565 S
O22 C29 1.275 1_565 S
Cd23 O22 2.300 1_545 S
Cd23 O31 2.381 1_545 S
Cd23 O32 2.378 . S
O24 Cd25 2.385 . S
O24 C29 1.255 . S
Cd25 O24 2.385 . S
Cd25 O26 2.317 . S
O26 Cd25 2.317 . S
O26 C27 1.232 . S
C27 O26 1.232 . S
C27 O28 1.218 . S
O28 C27 1.218 . S
C29 O22 1.275 1_545 S
C29 O24 1.255 . S
C30 O31 1.258 1_545 S
C30 O32 1.256 . S
O31 Cd23 2.381 1_565 S
O31 C30 1.258 1_565 S
O32 Cd23 2.378 . S
O32 C30 1.256 . S
O33 Cd34 2.300 . S
O33 C40 1.275 . S
Cd34 O33 2.300 . S
Cd34 O42 2.381 . S
Cd34 O43 2.378 . S
O35 Cd36 2.385 . S
O35 C40 1.255 . S
Cd36 O35 2.385 . S
Cd36 O37 2.317 . S
O37 Cd36 2.317 . S
O37 C38 1.232 . S
C38 O37 1.232 . S
C38 O39 1.218 . S
O39 C38 1.218 . S
C40 O33 1.275 . S
C40 O35 1.255 . S
C41 O42 1.258 . S
C41 O43 1.256 . S
O42 Cd34 2.381 . S
O42 C41 1.258 . S
O43 Cd34 2.378 . S
O43 C41 1.256 . S
O44 Cd45 2.300 . S
O44 C51 1.275 . S
Cd45 O44 2.300 . S
Cd45 O53 2.381 . S
Cd45 O54 2.378 . S
O46 Cd47 2.385 1_554 S
O46 C51 1.255 . S
Cd47 O46 2.385 1_556 S
Cd47 O48 2.317 . S
O48 Cd47 2.317 . S
O48 C49 1.232 . S
C49 O48 1.232 . S
C49 O50 1.218 . S
O50 C49 1.218 . S
C51 O44 1.275 . S
C51 O46 1.255 . S
C52 O53 1.258 . S
C52 O54 1.256 . S
O53 Cd45 2.381 . S
O53 C52 1.258 . S
O54 Cd45 2.378 . S
O54 C52 1.256 . S
O55 Cd56 2.300 1_655 S
O55 C62 1.275 1_655 S
Cd56 O55 2.300 1_455 S
Cd56 O64 2.381 1_455 S
Cd56 O65 2.378 . S
O57 Cd58 2.385 1_554 S
O57 C62 1.255 . S
Cd58 O57 2.385 1_556 S
Cd58 O59 2.317 . S
O59 Cd58 2.317 . S
O59 C60 1.232 . S
C60 O59 1.232 . S
C60 O61 1.218 . S
O61 C60 1.218 . S
C62 O55 1.275 1_455 S
C62 O57 1.255 . S
C63 O64 1.258 1_455 S
C63 O65 1.256 . S
O64 Cd56 2.381 1_655 S
O64 C63 1.258 1_655 S
O65 Cd56 2.378 . S
O65 C63 1.256 . S
O66 Cd67 2.300 1_565 S
O66 C73 1.275 1_565 S
Cd67 O66 2.300 1_545 S
Cd67 O75 2.381 1_545 S
Cd67 O76 2.378 . S
O68 Cd69 2.385 1_554 S
O68 C73 1.255 . S
Cd69 O68 2.385 1_556 S
Cd69 O70 2.317 . S
O70 Cd69 2.317 . S
O70 C71 1.232 . S
C71 O70 1.232 . S
C71 O72 1.218 . S
O72 C71 1.218 . S
C73 O66 1.275 1_545 S
C73 O68 1.255 . S
C74 O75 1.258 1_545 S
C74 O76 1.256 . S
O75 Cd67 2.381 1_565 S
O75 C74 1.258 1_565 S
O76 Cd67 2.378 . S
O76 C74 1.256 . S
O77 Cd78 2.300 . S
O77 C84 1.275 . S
Cd78 O77 2.300 . S
Cd78 O86 2.381 . S
Cd78 O87 2.378 . S
O79 Cd80 2.385 1_554 S
O79 C84 1.255 . S
Cd80 O79 2.385 1_556 S
Cd80 O81 2.317 . S
O81 Cd80 2.317 . S
O81 C82 1.232 . S
C82 O81 1.232 . S
C82 O83 1.218 . S
O83 C82 1.218 . S
C84 O77 1.275 . S
C84 O79 1.255 . S
C85 O86 1.258 . S
C85 O87 1.256 . S
O86 Cd78 2.381 . S
O86 C85 1.258 . S
O87 Cd78 2.378 . S
O87 C85 1.256 . S
Ho88 C91 2.811 . S
Ho88 O108 2.322 . S
Ho88 O110 2.378 . S
Ho88 O111 2.522 . S
Ho88 O112 2.381 . S
Ho88 O113 2.669 1_565 S
Ho88 O115 2.346 1_565 S
Ho88 O119 2.305 1_455 S
Ho89 C100 2.811 . S
Ho89 O109 2.346 1_545 S
Ho89 O113 2.305 1_655 S
Ho89 O114 2.322 . S
Ho89 O116 2.378 . S
Ho89 O117 2.522 1_655 S
Ho89 O118 2.381 . S
Ho89 O119 2.669 1_545 S
C90 O108 1.259 1_655 S
C90 O109 1.268 . S
C91 Ho88 2.811 . S
C91 C92 1.488 . S
C91 O110 1.215 . S
C91 O111 1.286 . S
C92 C91 1.488 . S
C92 C93 1.348 . S
C92 C97 1.413 . S
C93 C92 1.348 . S
C93 C94 1.442 1_556 S
C93 H120 0.930 1_455 S
C94 C93 1.442 1_554 S
C94 C95 1.381 . S
C94 H121 0.931 1_455 S
C95 C94 1.381 . S
C95 C96 1.321 1_554 S
C96 C95 1.321 1_556 S
C96 C97 1.403 . S
C96 H122 0.934 1_556 S
C97 C92 1.413 . S
C97 C96 1.403 . S
C97 H123 0.930 . S
C98 O112 1.294 . S
C98 O113 1.245 1_565 S
C99 O114 1.259 1_455 S
C99 O115 1.268 . S
C100 Ho89 2.811 . S
C100 C101 1.488 . S
C100 O116 1.215 . S
C100 O117 1.286 1_655 S
C101 C100 1.488 . S
C101 C102 1.348 . S
C101 C106 1.413 . S
C102 C101 1.348 . S
C102 C103 1.442 . S
C102 H124 0.930 1_655 S
C103 C102 1.442 . S
C103 C104 1.381 . S
C103 H125 0.931 1_655 S
C104 C103 1.381 . S
C104 C105 1.321 . S
C105 C104 1.321 . S
C105 C106 1.403 . S
C105 H126 0.934 . S
C106 C101 1.413 . S
C106 C105 1.403 . S
C106 H127 0.930 . S
C107 O118 1.275 . S
C107 O119 1.256 1_545 S
O108 Ho88 2.322 . S
O108 C90 1.259 1_455 S
O109 Ho89 2.346 1_565 S
O109 C90 1.268 . S
O110 Ho88 2.378 . S
O110 C91 1.215 . S
O111 Ho88 2.522 . S
O111 C91 1.286 . S
O112 Ho88 2.381 . S
O112 C98 1.294 . S
O113 Ho88 2.669 1_545 S
O113 Ho89 2.305 1_455 S
O113 C98 1.245 1_545 S
O114 Ho89 2.322 . S
O114 C99 1.259 1_655 S
O115 Ho88 2.346 1_545 S
O115 C99 1.268 . S
O116 Ho89 2.378 . S
O116 C100 1.215 . S
O117 Ho89 2.522 1_455 S
O117 C100 1.286 1_455 S
O118 Ho89 2.381 . S
O118 C107 1.275 . S
O119 Ho88 2.305 1_655 S
O119 Ho89 2.669 1_565 S
O119 C107 1.256 1_565 S
H120 C93 0.930 1_655 S
H121 C94 0.931 1_655 S
H122 C96 0.934 1_554 S
H123 C97 0.930 . S
H124 C102 0.930 1_455 S
H125 C103 0.931 1_455 S
H126 C105 0.934 . S
H127 C106 0.930 . S
Ho128 C131 2.811 . S
Ho128 O148 2.322 . S
Ho128 O150 2.378 . S
Ho128 O151 2.523 . S
Ho128 O152 2.381 . S
Ho128 O153 2.669 . S
Ho128 O155 2.346 . S
Ho128 O159 2.305 1_545 S
Ho129 C140 2.811 . S
Ho129 O149 2.346 . S
Ho129 O153 2.305 1_565 S
Ho129 O154 2.322 . S
Ho129 O156 2.378 . S
Ho129 O157 2.521 1_565 S
Ho129 O158 2.381 . S
Ho129 O159 2.669 . S
C130 O148 1.259 1_565 S
C130 O149 1.268 . S
C131 Ho128 2.811 . S
C131 C132 1.488 . S
C131 O150 1.215 . S
C131 O151 1.287 . S
C132 C131 1.488 . S
C132 C133 1.348 . S
C132 C137 1.413 . S
C133 C132 1.348 . S
C133 C134 1.442 1_556 S
C133 H160 0.930 1_545 S
C134 C133 1.442 1_554 S
C134 C135 1.381 . S
C134 H161 0.931 1_545 S
C135 C134 1.381 . S
C135 C136 1.321 1_554 S
C136 C135 1.321 1_556 S
C136 C137 1.403 . S
C136 H162 0.934 1_556 S
C137 C132 1.413 . S
C137 C136 1.403 . S
C137 H163 0.930 . S
C138 O152 1.275 . S
C138 O153 1.256 . S
C139 O154 1.259 1_545 S
C139 O155 1.268 . S
C140 Ho129 2.811 . S
C140 C141 1.488 . S
C140 O156 1.215 . S
C140 O157 1.284 1_565 S
C141 C140 1.488 . S
C141 C142 1.348 . S
C141 C146 1.413 . S
C142 C141 1.348 . S
C142 C143 1.442 . S
C142 H164 0.930 1_565 S
C143 C142 1.442 . S
C143 C144 1.381 . S
C143 H165 0.931 1_565 S
C144 C143 1.381 . S
C144 C145 1.321 . S
C145 C144 1.321 . S
C145 C146 1.403 . S
C145 H166 0.934 . S
C146 C141 1.413 . S
C146 C145 1.403 . S
C146 H167 0.930 . S
C147 O158 1.275 . S
C147 O159 1.256 . S
O148 Ho128 2.322 . S
O148 C130 1.259 1_545 S
O149 Ho129 2.346 . S
O149 C130 1.268 . S
O150 Ho128 2.378 . S
O150 C131 1.215 . S
O151 Ho128 2.523 . S
O151 C131 1.287 . S
O152 Ho128 2.381 . S
O152 C138 1.275 . S
O153 Ho128 2.669 . S
O153 Ho129 2.305 1_545 S
O153 C138 1.256 . S
O154 Ho129 2.322 . S
O154 C139 1.259 1_565 S
O155 Ho128 2.346 . S
O155 C139 1.268 . S
O156 Ho129 2.378 . S
O156 C140 1.215 . S
O157 Ho129 2.521 1_545 S
O157 C140 1.284 1_545 S
O158 Ho129 2.381 . S
O158 C147 1.275 . S
O159 Ho128 2.305 1_565 S
O159 Ho129 2.669 . S
O159 C147 1.256 . S
H160 C133 0.930 1_565 S
H161 C134 0.931 1_565 S
H162 C136 0.934 1_554 S
H163 C137 0.930 . S
H164 C142 0.930 1_545 S
H165 C143 0.931 1_545 S
H166 C145 0.934 . S
H167 C146 0.930 . S
Ho168 C171 2.811 . S
Ho168 O188 2.322 . S
Ho168 O190 2.378 . S
Ho168 O191 2.524 . S
Ho168 O192 2.381 . S
Ho168 O193 2.669 . S
Ho168 O195 2.346 . S
Ho168 O199 2.305 . S
Ho169 C180 2.811 . S
Ho169 O189 2.346 . S
Ho169 O193 2.305 . S
Ho169 O194 2.322 . S
Ho169 O196 2.378 . S
Ho169 O197 2.524 . S
Ho169 O198 2.381 . S
Ho169 O199 2.669 . S
C170 O188 1.259 . S
C170 O189 1.268 . S
C171 Ho168 2.811 . S
C171 C172 1.488 . S
C171 O190 1.215 . S
C171 O191 1.289 . S
C172 C171 1.488 . S
C172 C173 1.348 . S
C172 C177 1.413 . S
C173 C172 1.348 . S
C173 C174 1.442 1_556 S
C173 H200 0.930 . S
C174 C173 1.442 1_554 S
C174 C175 1.381 . S
C174 H201 0.931 . S
C175 C174 1.381 . S
C175 C176 1.321 1_554 S
C176 C175 1.321 1_556 S
C176 C177 1.403 . S
C176 H202 0.934 1_556 S
C177 C172 1.413 . S
C177 C176 1.403 . S
C177 H203 0.930 . S
C178 O192 1.275 . S
C178 O193 1.256 . S
C179 O194 1.259 . S
C179 O195 1.268 . S
C180 Ho169 2.811 . S
C180 C181 1.488 . S
C180 O196 1.215 . S
C180 O197 1.289 . S
C181 C180 1.488 . S
C181 C182 1.348 . S
C181 C186 1.413 . S
C182 C181 1.348 . S
C182 C183 1.442 . S
C182 H204 0.930 . S
C183 C182 1.442 . S
C183 C184 1.381 . S
C183 H205 0.931 . S
C184 C183 1.381 . S
C184 C185 1.321 . S
C185 C184 1.321 . S
C185 C186 1.403 . S
C185 H206 0.934 . S
C186 C181 1.413 . S
C186 C185 1.403 . S
C186 H207 0.930 . S
C187 O198 1.275 . S
C187 O199 1.256 . S
O188 Ho168 2.322 . S
O188 C170 1.259 . S
O189 Ho169 2.346 . S
O189 C170 1.268 . S
O190 Ho168 2.378 . S
O190 C171 1.215 . S
O191 Ho168 2.524 . S
O191 C171 1.289 . S
O192 Ho168 2.381 . S
O192 C178 1.275 . S
O193 Ho168 2.669 . S
O193 Ho169 2.305 . S
O193 C178 1.256 . S
O194 Ho169 2.322 . S
O194 C179 1.259 . S
O195 Ho168 2.346 . S
O195 C179 1.268 . S
O196 Ho169 2.378 . S
O196 C180 1.215 . S
O197 Ho169 2.524 . S
O197 C180 1.289 . S
O198 Ho169 2.381 . S
O198 C187 1.275 . S
O199 Ho168 2.305 . S
O199 Ho169 2.669 . S
O199 C187 1.256 . S
H200 C173 0.930 . S
H201 C174 0.931 . S
H202 C176 0.934 1_554 S
H203 C177 0.930 . S
H204 C182 0.930 . S
H205 C183 0.931 . S
H206 C185 0.934 . S
H207 C186 0.930 . S
Ho208 C211 2.811 . S
Ho208 O228 2.322 . S
Ho208 O230 2.378 . S
Ho208 O231 2.524 . S
Ho208 O232 2.381 . S
Ho208 O233 2.669 1_655 S
Ho208 O235 2.346 1_655 S
Ho208 O239 2.305 . S
Ho209 C220 2.811 . S
Ho209 O229 2.346 1_455 S
Ho209 O233 2.305 . S
Ho209 O234 2.322 . S
Ho209 O236 2.378 . S
Ho209 O237 2.524 . S
Ho209 O238 2.381 . S
Ho209 O239 2.669 1_455 S
C210 O228 1.259 . S
C210 O229 1.268 . S
C211 Ho208 2.811 . S
C211 C212 1.488 . S
C211 O230 1.215 . S
C211 O231 1.289 . S
C212 C211 1.488 . S
C212 C213 1.348 . S
C212 C217 1.413 . S
C213 C212 1.348 . S
C213 C214 1.442 1_556 S
C213 H240 0.930 . S
C214 C213 1.442 1_554 S
C214 C215 1.381 . S
C214 H241 0.931 . S
C215 C214 1.381 . S
C215 C216 1.321 1_554 S
C216 C215 1.321 1_556 S
C216 C217 1.403 . S
C216 H242 0.934 1_556 S
C217 C212 1.413 . S
C217 C216 1.403 . S
C217 H243 0.930 . S
C218 O232 1.294 . S
C218 O233 1.245 1_655 S
C219 O234 1.259 . S
C219 O235 1.268 . S
C220 Ho209 2.811 . S
C220 C221 1.488 . S
C220 O236 1.215 . S
C220 O237 1.289 . S
C221 C220 1.488 . S
C221 C222 1.348 . S
C221 C226 1.413 . S
C222 C221 1.348 . S
C222 C223 1.442 . S
C222 H244 0.930 . S
C223 C222 1.442 . S
C223 C224 1.381 . S
C223 H245 0.931 . S
C224 C223 1.381 . S
C224 C225 1.321 . S
C225 C224 1.321 . S
C225 C226 1.403 . S
C225 H246 0.934 . S
C226 C221 1.413 . S
C226 C225 1.403 . S
C226 H247 0.930 . S
C227 O238 1.275 . S
C227 O239 1.256 1_455 S
O228 Ho208 2.322 . S
O228 C210 1.259 . S
O229 Ho209 2.346 1_655 S
O229 C210 1.268 . S
O230 Ho208 2.378 . S
O230 C211 1.215 . S
O231 Ho208 2.524 . S
O231 C211 1.289 . S
O232 Ho208 2.381 . S
O232 C218 1.294 . S
O233 Ho208 2.669 1_455 S
O233 Ho209 2.305 . S
O233 C218 1.245 1_455 S
O234 Ho209 2.322 . S
O234 C219 1.259 . S
O235 Ho208 2.346 1_455 S
O235 C219 1.268 . S
O236 Ho209 2.378 . S
O236 C220 1.215 . S
O237 Ho209 2.524 . S
O237 C220 1.289 . S
O238 Ho209 2.381 . S
O238 C227 1.275 . S
O239 Ho208 2.305 . S
O239 Ho209 2.669 1_655 S
O239 C227 1.256 1_655 S
H240 C213 0.930 . S
H241 C214 0.931 . S
H242 C216 0.934 1_554 S
H243 C217 0.930 . S
H244 C222 0.930 . S
H245 C223 0.931 . S
H246 C225 0.934 . S
H247 C226 0.930 . S
H248 C254 0.930 . S
H249 C258 0.930 . S
H250 C263 0.929 . S
H251 C261 0.929 . S
H252 C256 0.929 . S
H253 C262 0.929 . S
C254 H248 0.930 . S
C254 C255 1.354 1_565 S
C254 C262 1.378 . S
C255 C254 1.354 1_545 S
C255 C263 1.447 . S
C256 H252 0.929 . S
C256 C258 1.378 . S
C256 C260 1.350 . S
C257 C260 1.464 . S
C257 C262 1.331 1_545 S
C257 N265 1.447 . S
C258 H249 0.930 . S
C258 C256 1.378 . S
C258 C259 1.367 . S
C259 C258 1.367 . S
C259 C261 1.433 1_545 S
C260 C256 1.350 . S
C260 C257 1.464 . S
C260 N264 1.427 1_545 S
C261 H251 0.929 . S
C261 C259 1.433 1_565 S
C261 N264 1.384 . S
C262 H253 0.929 . S
C262 C254 1.378 . S
C262 C257 1.331 1_565 S
C263 H250 0.929 . S
C263 C255 1.447 . S
C263 N265 1.384 . S
N264 C260 1.427 1_565 S
N264 C261 1.384 . S
N265 C257 1.447 . S
N265 C263 1.384 . S
H266 C272 0.930 . S
H267 C276 0.930 . S
H268 C281 0.929 . S
H269 C279 0.929 . S
H270 C274 0.929 . S
H271 C280 0.929 . S
C272 H266 0.930 . S
C272 C273 1.367 . S
C272 C280 1.378 . S
C273 C272 1.367 . S
C273 C281 1.433 . S
C274 H270 0.929 . S
C274 C276 1.378 . S
C274 C278 1.350 . S
C275 C278 1.463 . S
C275 C280 1.350 . S
C275 N283 1.427 . S
C276 H267 0.930 . S
C276 C274 1.378 . S
C276 C277 1.367 . S
C277 C276 1.367 . S
C277 C279 1.433 . S
C278 C274 1.350 . S
C278 C275 1.463 . S
C278 N282 1.427 . S
C279 H269 0.929 . S
C279 C277 1.433 . S
C279 N282 1.384 . S
C280 H271 0.929 . S
C280 C272 1.378 . S
C280 C275 1.350 . S
C281 H268 0.929 . S
C281 C273 1.433 . S
C281 N283 1.384 . S
N282 C278 1.427 . S
N282 C279 1.384 . S
N283 C275 1.427 . S
N283 C281 1.384 . S
H284 C290 0.930 . S
H285 C294 0.930 . S
H286 C299 0.929 . S
H287 C297 0.929 . S
H288 C292 0.929 . S
H289 C298 0.929 . S
C290 H284 0.930 . S
C290 C291 1.367 . S
C290 C298 1.378 . S
C291 C290 1.367 . S
C291 C299 1.433 . S
C292 H288 0.929 . S
C292 C294 1.378 . S
C292 C296 1.350 . S
C293 C296 1.463 . S
C293 C298 1.350 . S
C293 N301 1.427 . S
C294 H285 0.930 . S
C294 C292 1.378 . S
C294 C295 1.367 . S
C295 C294 1.367 . S
C295 C297 1.433 . S
C296 C292 1.350 . S
C296 C293 1.463 . S
C296 N300 1.427 . S
C297 H287 0.929 . S
C297 C295 1.433 . S
C297 N300 1.384 . S
C298 H289 0.929 . S
C298 C290 1.378 . S
C298 C293 1.350 . S
C299 H286 0.929 . S
C299 C291 1.433 . S
C299 N301 1.384 . S
N300 C296 1.427 . S
N300 C297 1.384 . S
N301 C293 1.427 . S
N301 C299 1.384 . S
H302 C308 0.930 . S
H303 C312 0.930 . S
H304 C317 0.929 . S
H305 C315 0.929 . S
H306 C310 0.929 . S
H307 C316 0.929 . S
C308 H302 0.930 . S
C308 C309 1.367 . S
C308 C316 1.378 . S
C309 C308 1.367 . S
C309 C317 1.433 1_455 S
C310 H306 0.929 . S
C310 C312 1.378 . S
C310 C314 1.325 1_655 S
C311 C314 1.464 . S
C311 C316 1.350 . S
C311 N319 1.427 1_455 S
C312 H303 0.930 . S
C312 C310 1.378 . S
C312 C313 1.367 1_655 S
C313 C312 1.367 1_455 S
C313 C315 1.433 . S
C314 C310 1.325 1_455 S
C314 C311 1.464 . S
C314 N318 1.454 . S
C315 H305 0.929 . S
C315 C313 1.433 . S
C315 N318 1.384 . S
C316 H307 0.929 . S
C316 C308 1.378 . S
C316 C311 1.350 . S
C317 H304 0.929 . S
C317 C309 1.433 1_655 S
C317 N319 1.384 . S
N318 C314 1.454 . S
N318 C315 1.384 . S
N319 C311 1.427 1_655 S
N319 C317 1.384 . S
H320 C326 0.930 . S
H321 C330 0.934 . S
H322 C335 0.929 . S
H323 C333 0.929 . S
H324 C328 0.933 . S
H325 C334 0.929 . S
C326 H320 0.930 . S
C326 C327 1.370 . S
C326 C334 1.378 . S
C327 C326 1.370 . S
C327 C335 1.431 1_565 S
C328 H324 0.933 . S
C328 C330 1.378 . S
C328 C332 1.347 1_546 S
C329 C332 1.463 . S
C329 C334 1.350 . S
C329 N337 1.427 1_565 S
C330 H321 0.934 . S
C330 C328 1.378 . S
C330 C331 1.364 1_545 S
C331 C330 1.364 1_565 S
C331 C333 1.433 . S
C332 C328 1.347 1_564 S
C332 C329 1.463 . S
C332 N336 1.427 . S
C333 H323 0.929 . S
C333 C331 1.433 . S
C333 N336 1.384 1_556 S
C334 H325 0.929 . S
C334 C326 1.378 . S
C334 C329 1.350 . S
C335 H322 0.929 . S
C335 C327 1.431 1_545 S
C335 N337 1.384 . S
N336 C332 1.427 . S
N336 C333 1.384 1_554 S
N337 C329 1.427 1_545 S
N337 C335 1.384 . S
H338 C344 0.930 . S
H339 C348 0.930 . S
H340 C353 0.929 . S
H341 C351 0.929 . S
H342 C346 0.929 . S
H343 C352 0.929 . S
C344 H338 0.930 . S
C344 C345 1.367 . S
C344 C352 1.378 . S
C345 C344 1.367 . S
C345 C353 1.433 . S
C346 H342 0.929 . S
C346 C348 1.378 . S
C346 C350 1.350 1_556 S
C347 C350 1.463 . S
C347 C352 1.350 . S
C347 N355 1.427 . S
C348 H339 0.930 . S
C348 C346 1.378 . S
C348 C349 1.367 . S
C349 C348 1.367 . S
C349 C351 1.433 . S
C350 C346 1.350 1_554 S
C350 C347 1.463 . S
C350 N354 1.427 . S
C351 H341 0.929 . S
C351 C349 1.433 . S
C351 N354 1.384 1_556 S
C352 H343 0.929 . S
C352 C344 1.378 . S
C352 C347 1.350 . S
C353 H340 0.929 . S
C353 C345 1.433 . S
C353 N355 1.384 . S
N354 C350 1.427 . S
N354 C351 1.384 1_554 S
N355 C347 1.427 . S
N355 C353 1.384 . S
H356 C362 0.930 . S
H357 C366 0.930 . S
H358 C371 0.929 . S
H359 C369 0.929 . S
H360 C364 0.929 . S
H361 C370 0.929 . S
C362 H356 0.930 . S
C362 C363 1.367 . S
C362 C370 1.378 . S
C363 C362 1.367 . S
C363 C371 1.433 . S
C364 H360 0.929 . S
C364 C366 1.378 1_554 S
C364 C368 1.350 . S
C365 C368 1.463 . S
C365 C370 1.350 . S
C365 N373 1.427 . S
C366 H357 0.930 . S
C366 C364 1.378 1_556 S
C366 C367 1.367 . S
C367 C366 1.367 . S
C367 C369 1.433 . S
C368 C364 1.350 . S
C368 C365 1.463 . S
C368 N372 1.427 1_554 S
C369 H359 0.929 . S
C369 C367 1.433 . S
C369 N372 1.384 . S
C370 H361 0.929 . S
C370 C362 1.378 . S
C370 C365 1.350 . S
C371 H358 0.929 . S
C371 C363 1.433 . S
C371 N373 1.384 . S
N372 C368 1.427 1_556 S
N372 C369 1.384 . S
N373 C365 1.427 . S
N373 C371 1.384 . S
H374 C380 0.930 . S
H375 C384 0.930 . S
H376 C389 0.929 . S
H377 C387 0.929 . S
H378 C382 0.929 . S
H379 C388 0.929 . S
C380 H374 0.930 . S
C380 C381 1.367 . S
C380 C388 1.378 . S
C381 C380 1.367 . S
C381 C389 1.433 1_655 S
C382 H378 0.929 . S
C382 C384 1.378 . S
C382 C386 1.334 1_456 S
C383 C386 1.464 . S
C383 C388 1.350 . S
C383 N391 1.427 1_655 S
C384 H375 0.930 . S
C384 C382 1.378 . S
C384 C385 1.367 1_455 S
C385 C384 1.367 1_655 S
C385 C387 1.433 . S
C386 C382 1.334 1_654 S
C386 C383 1.464 . S
C386 N390 1.444 . S
C387 H377 0.929 . S
C387 C385 1.433 . S
C387 N390 1.384 1_556 S
C388 H379 0.929 . S
C388 C380 1.378 . S
C388 C383 1.350 . S
C389 H376 0.929 . S
C389 C381 1.433 1_455 S
C389 N391 1.384 . S
N390 C386 1.444 . S
N390 C387 1.384 1_554 S
N391 C383 1.427 1_455 S
N391 C389 1.384 . S
H392 C398 0.930 . S
H393 C402 0.930 . S
H394 C407 0.929 . S
H395 C405 0.929 . S
H396 C400 0.929 . S
H397 C406 0.929 . S
C398 H392 0.930 . S
C398 C399 1.367 . S
C398 C406 1.378 . S
C399 C398 1.367 . S
C399 C407 1.433 1_455 S
C400 H396 0.929 . S
C400 C402 1.378 . S
C400 C404 1.350 . S
C401 C404 1.463 . S
C401 C406 1.350 1_655 S
C401 N409 1.427 . S
C402 H393 0.930 . S
C402 C400 1.378 . S
C402 C403 1.367 . S
C403 C402 1.367 . S
C403 C405 1.433 . S
C404 C400 1.350 . S
C404 C401 1.463 . S
C404 N408 1.427 . S
C405 H395 0.929 . S
C405 C403 1.433 . S
C405 N408 1.384 . S
C406 H397 0.929 . S
C406 C398 1.378 . S
C406 C401 1.350 1_455 S
C407 H394 0.929 . S
C407 C399 1.433 1_655 S
C407 N409 1.384 . S
N408 C404 1.427 . S
N408 C405 1.384 . S
N409 C401 1.427 . S
N409 C407 1.384 . S
H410 C416 0.930 . S
H411 C420 0.930 1_545 S
H412 C425 0.929 . S
H413 C423 0.929 . S
H414 C418 0.929 1_545 S
H415 C424 0.929 . S
C416 H410 0.930 . S
C416 C417 1.367 1_565 S
C416 C424 1.378 . S
C417 C416 1.367 1_545 S
C417 C425 1.433 . S
C418 H414 0.929 1_565 S
C418 C420 1.378 . S
C418 C422 1.350 . S
C419 C422 1.463 . S
C419 C424 1.350 . S
C419 N427 1.427 1_565 S
C420 H411 0.930 1_565 S
C420 C418 1.378 . S
C420 C421 1.367 . S
C421 C420 1.367 . S
C421 C423 1.433 . S
C422 C418 1.350 . S
C422 C419 1.463 . S
C422 N426 1.427 . S
C423 H413 0.929 . S
C423 C421 1.433 . S
C423 N426 1.384 . S
C424 H415 0.929 . S
C424 C416 1.378 . S
C424 C419 1.350 . S
C425 H412 0.929 . S
C425 C417 1.433 . S
C425 N427 1.384 . S
N426 C422 1.427 . S
N426 C423 1.384 . S
N427 C419 1.427 1_545 S
N427 C425 1.384 . S
H428 C434 0.930 . S
H429 C438 0.930 . S
H430 C443 0.929 . S
H431 C441 0.929 . S
H432 C436 0.929 . S
H433 C442 0.929 . S
C434 H428 0.930 . S
C434 C435 1.367 . S
C434 C442 1.378 . S
C435 C434 1.367 . S
C435 C443 1.433 . S
C436 H432 0.929 . S
C436 C438 1.378 . S
C436 C440 1.350 . S
C437 C440 1.463 . S
C437 C442 1.350 . S
C437 N445 1.427 . S
C438 H429 0.930 . S
C438 C436 1.378 . S
C438 C439 1.367 . S
C439 C438 1.367 . S
C439 C441 1.433 . S
C440 C436 1.350 . S
C440 C437 1.463 . S
C440 N444 1.427 . S
C441 H431 0.929 . S
C441 C439 1.433 . S
C441 N444 1.384 . S
C442 H433 0.929 . S
C442 C434 1.378 . S
C442 C437 1.350 . S
C443 H430 0.929 . S
C443 C435 1.433 . S
C443 N445 1.384 . S
N444 C440 1.427 . S
N444 C441 1.384 . S
N445 C437 1.427 . S
N445 C443 1.384 . S
H446 C452 0.930 . S
H447 C456 0.930 . S
H448 C461 0.929 . S
H449 C459 0.929 . S
H450 C454 0.929 . S
H451 C460 0.929 . S
C452 H446 0.930 . S
C452 C453 1.367 . S
C452 C460 1.378 . S
C453 C452 1.367 . S
C453 C461 1.433 . S
C454 H450 0.929 . S
C454 C456 1.378 . S
C454 C458 1.350 . S
C455 C458 1.463 . S
C455 C460 1.350 . S
C455 N463 1.427 . S
C456 H447 0.930 . S
C456 C454 1.378 . S
C456 C457 1.367 . S
C457 C456 1.367 . S
C457 C459 1.433 . S
C458 C454 1.350 . S
C458 C455 1.463 . S
C458 N462 1.427 . S
C459 H449 0.929 . S
C459 C457 1.433 . S
C459 N462 1.384 . S
C460 H451 0.929 . S
C460 C452 1.378 . S
C460 C455 1.350 . S
C461 H448 0.929 . S
C461 C453 1.433 . S
C461 N463 1.384 . S
N462 C458 1.427 . S
N462 C459 1.384 . S
N463 C455 1.427 . S
N463 C461 1.384 . S
H464 C470 0.930 . S
H465 C474 0.930 . S
H466 C479 0.929 . S
H467 C477 0.929 . S
H468 C472 0.929 . S
H469 C478 0.929 . S
C470 H464 0.930 . S
C470 C471 1.367 . S
C470 C478 1.378 . S
C471 C470 1.367 . S
C471 C479 1.433 1_655 S
C472 H468 0.929 . S
C472 C474 1.378 . S
C472 C476 1.350 . S
C473 C476 1.463 . S
C473 C478 1.350 1_455 S
C473 N481 1.427 . S
C474 H465 0.930 . S
C474 C472 1.378 . S
C474 C475 1.367 . S
C475 C474 1.367 . S
C475 C477 1.433 1_554 S
C476 C472 1.350 . S
C476 C473 1.463 . S
C476 N480 1.427 . S
C477 H467 0.929 . S
C477 C475 1.433 1_556 S
C477 N480 1.384 1_556 S
C478 H469 0.929 . S
C478 C470 1.378 . S
C478 C473 1.350 1_655 S
C479 H466 0.929 . S
C479 C471 1.433 1_455 S
C479 N481 1.384 . S
N480 C476 1.427 . S
N480 C477 1.384 1_554 S
N481 C473 1.427 . S
N481 C479 1.384 . S
H482 C488 0.930 . S
H483 C492 0.926 1_565 S
H484 C497 0.929 . S
H485 C495 0.929 . S
H486 C490 0.929 1_565 S
H487 C496 0.929 . S
C488 H482 0.930 . S
C488 C489 1.331 1_545 S
C488 C496 1.378 . S
C489 C488 1.331 1_565 S
C489 C497 1.460 . S
C490 H486 0.929 1_545 S
C490 C492 1.378 . S
C490 C494 1.350 . S
C491 C494 1.463 . S
C491 C496 1.350 . S
C491 N499 1.427 1_545 S
C492 H483 0.926 1_545 S
C492 C490 1.378 . S
C492 C493 1.367 . S
C493 C492 1.367 . S
C493 C495 1.433 . S
C494 C490 1.350 . S
C494 C491 1.463 . S
C494 N498 1.427 . S
C495 H485 0.929 . S
C495 C493 1.433 . S
C495 N498 1.384 . S
C496 H487 0.929 . S
C496 C488 1.378 . S
C496 C491 1.350 . S
C497 H484 0.929 . S
C497 C489 1.460 . S
C497 N499 1.384 . S
N498 C494 1.427 . S
N498 C495 1.384 . S
N499 C491 1.427 1_565 S
N499 C497 1.384 . S
H500 C506 0.930 . S
H501 C510 0.930 . S
H502 C515 0.929 . S
H503 C513 0.929 . S
H504 C508 0.929 . S
H505 C514 0.929 . S
C506 H500 0.930 . S
C506 C507 1.367 . S
C506 C514 1.378 . S
C507 C506 1.367 . S
C507 C515 1.433 . S
C508 H504 0.929 . S
C508 C510 1.378 1_554 S
C508 C512 1.350 . S
C509 C512 1.463 . S
C509 C514 1.350 . S
C509 N517 1.427 . S
C510 H501 0.930 . S
C510 C508 1.378 1_556 S
C510 C511 1.367 1_556 S
C511 C510 1.367 1_554 S
C511 C513 1.433 . S
C512 C508 1.350 . S
C512 C509 1.463 . S
C512 N516 1.427 . S
C513 H503 0.929 . S
C513 C511 1.433 . S
C513 N516 1.384 . S
C514 H505 0.929 . S
C514 C506 1.378 . S
C514 C509 1.350 . S
C515 H502 0.929 . S
C515 C507 1.433 . S
C515 N517 1.384 . S
N516 C512 1.427 . S
N516 C513 1.384 . S
N517 C509 1.427 . S
N517 C515 1.384 . S
H518 C524 0.930 . S
H519 C528 0.930 1_556 S
H520 C533 0.929 . S
H521 C531 0.929 . S
H522 C526 0.929 . S
H523 C532 0.929 . S
C524 H518 0.930 . S
C524 C525 1.367 . S
C524 C532 1.378 . S
C525 C524 1.367 . S
C525 C533 1.433 . S
C526 H522 0.929 . S
C526 C528 1.378 . S
C526 C530 1.350 . S
C527 C530 1.463 . S
C527 C532 1.350 . S
C527 N535 1.427 . S
C528 H519 0.930 1_554 S
C528 C526 1.378 . S
C528 C529 1.367 . S
C529 C528 1.367 . S
C529 C531 1.433 . S
C530 C526 1.350 . S
C530 C527 1.463 . S
C530 N534 1.427 . S
C531 H521 0.929 . S
C531 C529 1.433 . S
C531 N534 1.384 . S
C532 H523 0.929 . S
C532 C524 1.378 . S
C532 C527 1.350 . S
C533 H520 0.929 . S
C533 C525 1.433 . S
C533 N535 1.384 . S
N534 C530 1.427 . S
N534 C531 1.384 . S
N535 C527 1.427 . S
N535 C533 1.384 . S
H536 C542 0.930 . S
H537 C546 0.930 . S
H538 C551 0.929 . S
H539 C549 0.943 . S
H540 C544 0.929 . S
H541 C550 0.929 . S
C542 H536 0.930 . S
C542 C543 1.367 1_655 S
C542 C550 1.378 . S
C543 C542 1.367 1_455 S
C543 C551 1.433 . S
C544 H540 0.929 . S
C544 C546 1.378 . S
C544 C548 1.350 . S
C545 C548 1.463 . S
C545 C550 1.350 1_455 S
C545 N553 1.427 . S
C546 H537 0.930 . S
C546 C544 1.378 . S
C546 C547 1.367 . S
C547 C546 1.367 . S
C547 C549 1.417 1_455 S
C548 C544 1.350 . S
C548 C545 1.463 . S
C548 N552 1.427 1_455 S
C549 H539 0.943 . S
C549 C547 1.417 1_655 S
C549 N552 1.386 . S
C550 H541 0.929 . S
C550 C542 1.378 . S
C550 C545 1.350 1_655 S
C551 H538 0.929 . S
C551 C543 1.433 . S
C551 N553 1.384 . S
N552 C548 1.427 1_655 S
N552 C549 1.386 . S
N553 C545 1.427 . S
N553 C551 1.384 . S
H554 C560 0.930 . S
H555 C564 0.930 . S
H556 C569 0.929 . S
H557 C567 0.929 . S
H558 C562 0.929 . S
H559 C568 0.929 . S
C560 H554 0.930 . S
C560 C561 1.367 . S
C560 C568 1.378 . S
C561 C560 1.367 . S
C561 C569 1.433 . S
C562 H558 0.929 . S
C562 C564 1.378 . S
C562 C566 1.350 . S
C563 C566 1.463 . S
C563 C568 1.350 . S
C563 N571 1.427 . S
C564 H555 0.930 . S
C564 C562 1.378 . S
C564 C565 1.367 . S
C565 C564 1.367 . S
C565 C567 1.433 . S
C566 C562 1.350 . S
C566 C563 1.463 . S
C566 N570 1.427 . S
C567 H557 0.929 . S
C567 C565 1.433 . S
C567 N570 1.384 . S
C568 H559 0.929 . S
C568 C560 1.378 . S
C568 C563 1.350 . S
C569 H556 0.929 . S
C569 C561 1.433 . S
C569 N571 1.384 . S
N570 C566 1.427 . S
N570 C567 1.384 . S
N571 C563 1.427 . S
N571 C569 1.384 . S
H572 C578 0.930 . S
H573 C582 0.930 . S
H574 C587 0.929 . S
H575 C585 0.929 . S
H576 C580 0.929 . S
H577 C586 0.929 . S
C578 H572 0.930 . S
C578 C579 1.367 . S
C578 C586 1.378 . S
C579 C578 1.367 . S
C579 C587 1.433 . S
C580 H576 0.929 . S
C580 C582 1.378 . S
C580 C584 1.350 . S
C581 C584 1.463 . S
C581 C586 1.350 . S
C581 N589 1.427 . S
C582 H573 0.930 . S
C582 C580 1.378 . S
C582 C583 1.367 . S
C583 C582 1.367 . S
C583 C585 1.433 . S
C584 C580 1.350 . S
C584 C581 1.463 . S
C584 N588 1.427 . S
C585 H575 0.929 . S
C585 C583 1.433 . S
C585 N588 1.384 . S
C586 H577 0.929 . S
C586 C578 1.378 . S
C586 C581 1.350 . S
C587 H574 0.929 . S
C587 C579 1.433 . S
C587 N589 1.384 . S
N588 C584 1.427 . S
N588 C585 1.384 . S
N589 C581 1.427 . S
N589 C587 1.384 . S
H590 C596 0.930 . S
H591 C600 0.930 . S
H592 C605 0.929 . S
H593 C603 0.929 . S
H594 C598 0.929 . S
H595 C604 0.929 . S
C596 H590 0.930 . S
C596 C597 1.367 . S
C596 C604 1.378 . S
C597 C596 1.367 . S
C597 C605 1.433 . S
C598 H594 0.929 . S
C598 C600 1.378 . S
C598 C602 1.350 . S
C599 C602 1.463 . S
C599 C604 1.350 . S
C599 N607 1.427 . S
C600 H591 0.930 . S
C600 C598 1.378 . S
C600 C601 1.367 . S
C601 C600 1.367 . S
C601 C603 1.433 . S
C602 C598 1.350 . S
C602 C599 1.463 . S
C602 N606 1.427 . S
C603 H593 0.929 . S
C603 C601 1.433 . S
C603 N606 1.384 . S
C604 H595 0.929 . S
C604 C596 1.378 . S
C604 C599 1.350 . S
C605 H592 0.929 . S
C605 C597 1.433 . S
C605 N607 1.384 . S
N606 C602 1.427 . S
N606 C603 1.384 . S
N607 C599 1.427 . S
N607 C605 1.384 . S
H608 C614 0.930 . S
H609 C618 0.930 . S
H610 C623 0.929 . S
H611 C621 0.916 1_455 S
H612 C616 0.929 . S
H613 C622 0.929 . S
C614 H608 0.930 . S
C614 C615 1.367 1_455 S
C614 C622 1.378 . S
C615 C614 1.367 1_655 S
C615 C623 1.433 . S
C616 H612 0.929 . S
C616 C618 1.378 . S
C616 C620 1.350 . S
C617 C620 1.463 . S
C617 C622 1.350 1_655 S
C617 N625 1.427 . S
C618 H609 0.930 . S
C618 C616 1.378 . S
C618 C619 1.367 . S
C619 C618 1.367 . S
C619 C621 1.452 . S
C620 C616 1.350 . S
C620 C617 1.463 . S
C620 N624 1.420 1_655 S
C621 H611 0.916 1_655 S
C621 C619 1.452 . S
C621 N624 1.381 1_655 S
C622 H613 0.929 . S
C622 C614 1.378 . S
C622 C617 1.350 1_455 S
C623 H610 0.929 . S
C623 C615 1.433 . S
C623 N625 1.384 . S
N624 C620 1.420 1_455 S
N624 C621 1.381 1_455 S
N625 C617 1.427 . S
N625 C623 1.384 . S
H626 C632 0.930 . S
H627 C636 0.930 . S
H628 C641 0.929 . S
H629 C639 0.929 . S
H630 C634 0.929 . S
H631 C640 0.929 . S
C632 H626 0.930 . S
C632 C633 1.367 . S
C632 C640 1.378 . S
C633 C632 1.367 . S
C633 C641 1.433 1_565 S
C634 H630 0.929 . S
C634 C636 1.378 . S
C634 C638 1.350 1_545 S
C635 C638 1.463 . S
C635 C640 1.350 . S
C635 N643 1.427 1_565 S
C636 H627 0.930 . S
C636 C634 1.378 . S
C636 C637 1.367 1_545 S
C637 C636 1.367 1_565 S
C637 C639 1.433 . S
C638 C634 1.350 1_565 S
C638 C635 1.463 . S
C638 N642 1.427 . S
C639 H629 0.929 . S
C639 C637 1.433 . S
C639 N642 1.384 . S
C640 H631 0.929 . S
C640 C632 1.378 . S
C640 C635 1.350 . S
C641 H628 0.929 . S
C641 C633 1.433 1_545 S
C641 N643 1.384 . S
N642 C638 1.427 . S
N642 C639 1.384 . S
N643 C635 1.427 1_545 S
N643 C641 1.384 . S
H644 C650 0.930 . S
H645 C654 0.930 . S
H646 C659 0.929 . S
H647 C657 0.929 . S
H648 C652 0.929 . S
H649 C658 0.929 . S
C650 H644 0.930 . S
C650 C651 1.367 . S
C650 C658 1.378 . S
C651 C650 1.367 . S
C651 C659 1.433 . S
C652 H648 0.929 . S
C652 C654 1.378 . S
C652 C656 1.350 . S
C653 C656 1.463 . S
C653 C658 1.350 . S
C653 N661 1.427 . S
C654 H645 0.930 . S
C654 C652 1.378 . S
C654 C655 1.367 . S
C655 C654 1.367 . S
C655 C657 1.433 . S
C656 C652 1.350 . S
C656 C653 1.463 . S
C656 N660 1.427 . S
C657 H647 0.929 . S
C657 C655 1.433 . S
C657 N660 1.384 . S
C658 H649 0.929 . S
C658 C650 1.378 . S
C658 C653 1.350 . S
C659 H646 0.929 . S
C659 C651 1.433 . S
C659 N661 1.384 . S
N660 C656 1.427 . S
N660 C657 1.384 . S
N661 C653 1.427 . S
N661 C659 1.384 . S
H662 C668 0.930 . S
H663 C672 0.930 . S
H664 C677 0.929 . S
H665 C675 0.929 . S
H666 C670 0.929 . S
H667 C676 0.929 . S
C668 H662 0.930 . S
C668 C669 1.367 . S
C668 C676 1.378 . S
C669 C668 1.367 . S
C669 C677 1.433 . S
C670 H666 0.929 . S
C670 C672 1.378 . S
C670 C674 1.350 . S
C671 C674 1.463 . S
C671 C676 1.350 . S
C671 N679 1.427 . S
C672 H663 0.930 . S
C672 C670 1.378 . S
C672 C673 1.367 . S
C673 C672 1.367 . S
C673 C675 1.433 . S
C674 C670 1.350 . S
C674 C671 1.463 . S
C674 N678 1.427 . S
C675 H665 0.929 . S
C675 C673 1.433 . S
C675 N678 1.384 . S
C676 H667 0.929 . S
C676 C668 1.378 . S
C676 C671 1.350 . S
C677 H664 0.929 . S
C677 C669 1.433 . S
C677 N679 1.384 . S
N678 C674 1.427 . S
N678 C675 1.384 . S
N679 C671 1.427 . S
N679 C677 1.384 . S
C255 C74 1.778 . S
C259 C98 1.876 1_545 S
C277 C138 1.877 . S
C273 C85 1.779 . S
C295 C178 1.878 . S
C291 C52 1.784 . S
C313 C218 1.875 1_455 S
C309 C63 1.773 . S
C331 C107 1.879 1_565 S
C327 C30 1.787 1_565 S
C345 C41 1.788 . S
C349 C147 1.879 . S
C363 C8 1.779 . S
C367 C187 1.877 . S
C381 C19 1.786 1_655 S
C385 C227 1.877 1_655 S
C403 C104 0.625 . S
C399 C62 0.596 . S
C421 C144 0.597 . S
C417 C73 0.599 . S
C439 C184 0.619 . S
C435 C84 0.600 . S
C453 C51 0.592 . S
C457 C224 0.624 . S
C471 C18 0.637 1_655 S
C475 C95 0.619 . S
C493 C135 0.598 . S
C489 C29 0.596 1_565 S
C511 C175 0.617 . S
C507 C40 0.643 . S
C525 C7 0.615 . S
C529 C215 0.598 . S
C543 C60 1.710 . S
C547 C99 2.245 . S
C561 C71 1.719 . S
C565 C139 2.244 . S
C583 C179 2.247 . S
C579 C82 1.725 . S
C601 C219 2.244 . S
C597 C49 1.717 . S
C615 C16 1.785 1_655 S
C619 C90 2.246 . S
C637 C130 2.242 . S
C633 C27 1.783 1_565 S
C655 C170 2.241 . S
C651 C38 1.782 . S
C669 C5 1.777 . S
C673 C210 2.242 . S
