# Generated by pormake.
# Topology gar, (4,6)-cn, num edge types: 1
# Building blocks:
#     Node 0, Type 0, BuildingBlock: QUQFOY_clean_sbu_1, # of connection points: 4
#     Node 1, Type 0, BuildingBlock: QUQFOY_clean_sbu_1, # of connection points: 4
#     Node 2, Type 0, BuildingBlock: QUQFOY_clean_sbu_1, # of connection points: 4
#     Node 3, Type 0, BuildingBlock: QUQFOY_clean_sbu_1, # of connection points: 4
#     Node 4, Type 0, BuildingBlock: QUQFOY_clean_sbu_1, # of connection points: 4
#     Node 5, Type 0, BuildingBlock: QUQFOY_clean_sbu_1, # of connection points: 4
#     Node 6, Type 0, BuildingBlock: QUQFOY_clean_sbu_1, # of connection points: 4
#     Node 7, Type 0, BuildingBlock: QUQFOY_clean_sbu_1, # of connection points: 4
#     Node 8, Type 0, BuildingBlock: QUQFOY_clean_sbu_1, # of connection points: 4
#     Node 9, Type 0, BuildingBlock: QUQFOY_clean_sbu_1, # of connection points: 4
#     Node 10, Type 0, BuildingBlock: QUQFOY_clean_sbu_1, # of connection points: 4
#     Node 11, Type 0, BuildingBlock: QUQFOY_clean_sbu_1, # of connection points: 4
#     Node 12, Type 0, BuildingBlock: QUQFOY_clean_sbu_1, # of connection points: 4
#     Node 13, Type 0, BuildingBlock: QUQFOY_clean_sbu_1, # of connection points: 4
#     Node 14, Type 0, BuildingBlock: QUQFOY_clean_sbu_1, # of connection points: 4
#     Node 15, Type 0, BuildingBlock: QUQFOY_clean_sbu_1, # of connection points: 4
#     Node 16, Type 0, BuildingBlock: QUQFOY_clean_sbu_1, # of connection points: 4
#     Node 17, Type 0, BuildingBlock: QUQFOY_clean_sbu_1, # of connection points: 4
#     Node 18, Type 0, BuildingBlock: QUQFOY_clean_sbu_1, # of connection points: 4
#     Node 19, Type 0, BuildingBlock: QUQFOY_clean_sbu_1, # of connection points: 4
#     Node 20, Type 0, BuildingBlock: QUQFOY_clean_sbu_1, # of connection points: 4
#     Node 21, Type 0, BuildingBlock: QUQFOY_clean_sbu_1, # of connection points: 4
#     Node 22, Type 0, BuildingBlock: QUQFOY_clean_sbu_1, # of connection points: 4
#     Node 23, Type 0, BuildingBlock: QUQFOY_clean_sbu_1, # of connection points: 4
#     Node 24, Type 1, BuildingBlock: PAMTOO_clean_sbu_0, # of connection points: 6
#     Node 25, Type 1, BuildingBlock: PAMTOO_clean_sbu_0, # of connection points: 6
#     Node 26, Type 1, BuildingBlock: PAMTOO_clean_sbu_0, # of connection points: 6
#     Node 27, Type 1, BuildingBlock: PAMTOO_clean_sbu_0, # of connection points: 6
#     Node 28, Type 1, BuildingBlock: PAMTOO_clean_sbu_0, # of connection points: 6
#     Node 29, Type 1, BuildingBlock: PAMTOO_clean_sbu_0, # of connection points: 6
#     Node 30, Type 1, BuildingBlock: PAMTOO_clean_sbu_0, # of connection points: 6
#     Node 31, Type 1, BuildingBlock: PAMTOO_clean_sbu_0, # of connection points: 6
#     Node 32, Type 1, BuildingBlock: PAMTOO_clean_sbu_0, # of connection points: 6
#     Node 33, Type 1, BuildingBlock: PAMTOO_clean_sbu_0, # of connection points: 6
#     Node 34, Type 1, BuildingBlock: PAMTOO_clean_sbu_0, # of connection points: 6
#     Node 35, Type 1, BuildingBlock: PAMTOO_clean_sbu_0, # of connection points: 6
#     Node 36, Type 1, BuildingBlock: PAMTOO_clean_sbu_0, # of connection points: 6
#     Node 37, Type 1, BuildingBlock: PAMTOO_clean_sbu_0, # of connection points: 6
#     Node 38, Type 1, BuildingBlock: PAMTOO_clean_sbu_0, # of connection points: 6
#     Node 39, Type 1, BuildingBlock: PAMTOO_clean_sbu_0, # of connection points: 6
#     Edge 40, Type (0, 1), BuildingBlock: OJICUG_clean_linker_0, # of connection points: 2
#     Edge 41, Type (0, 1), BuildingBlock: OJICUG_clean_linker_0, # of connection points: 2
#     Edge 42, Type (0, 1), BuildingBlock: OJICUG_clean_linker_0, # of connection points: 2
#     Edge 43, Type (0, 1), BuildingBlock: OJICUG_clean_linker_0, # of connection points: 2
#     Edge 44, Type (0, 1), BuildingBlock: OJICUG_clean_linker_0, # of connection points: 2
#     Edge 45, Type (0, 1), BuildingBlock: OJICUG_clean_linker_0, # of connection points: 2
#     Edge 46, Type (0, 1), BuildingBlock: OJICUG_clean_linker_0, # of connection points: 2
#     Edge 47, Type (0, 1), BuildingBlock: OJICUG_clean_linker_0, # of connection points: 2
#     Edge 48, Type (0, 1), BuildingBlock: OJICUG_clean_linker_0, # of connection points: 2
#     Edge 49, Type (0, 1), BuildingBlock: OJICUG_clean_linker_0, # of connection points: 2
#     Edge 50, Type (0, 1), BuildingBlock: OJICUG_clean_linker_0, # of connection points: 2
#     Edge 51, Type (0, 1), BuildingBlock: OJICUG_clean_linker_0, # of connection points: 2
#     Edge 52, Type (0, 1), BuildingBlock: OJICUG_clean_linker_0, # of connection points: 2
#     Edge 53, Type (0, 1), BuildingBlock: OJICUG_clean_linker_0, # of connection points: 2
#     Edge 54, Type (0, 1), BuildingBlock: OJICUG_clean_linker_0, # of connection points: 2
#     Edge 55, Type (0, 1), BuildingBlock: OJICUG_clean_linker_0, # of connection points: 2
#     Edge 56, Type (0, 1), BuildingBlock: OJICUG_clean_linker_0, # of connection points: 2
#     Edge 57, Type (0, 1), BuildingBlock: OJICUG_clean_linker_0, # of connection points: 2
#     Edge 58, Type (0, 1), BuildingBlock: OJICUG_clean_linker_0, # of connection points: 2
#     Edge 59, Type (0, 1), BuildingBlock: OJICUG_clean_linker_0, # of connection points: 2
#     Edge 60, Type (0, 1), BuildingBlock: OJICUG_clean_linker_0, # of connection points: 2
#     Edge 61, Type (0, 1), BuildingBlock: OJICUG_clean_linker_0, # of connection points: 2
#     Edge 62, Type (0, 1), BuildingBlock: OJICUG_clean_linker_0, # of connection points: 2
#     Edge 63, Type (0, 1), BuildingBlock: OJICUG_clean_linker_0, # of connection points: 2
#     Edge 64, Type (0, 1), BuildingBlock: OJICUG_clean_linker_0, # of connection points: 2
#     Edge 65, Type (0, 1), BuildingBlock: OJICUG_clean_linker_0, # of connection points: 2
#     Edge 66, Type (0, 1), BuildingBlock: OJICUG_clean_linker_0, # of connection points: 2
#     Edge 67, Type (0, 1), BuildingBlock: OJICUG_clean_linker_0, # of connection points: 2
#     Edge 68, Type (0, 1), BuildingBlock: OJICUG_clean_linker_0, # of connection points: 2
#     Edge 69, Type (0, 1), BuildingBlock: OJICUG_clean_linker_0, # of connection points: 2
#     Edge 70, Type (0, 1), BuildingBlock: OJICUG_clean_linker_0, # of connection points: 2
#     Edge 71, Type (0, 1), BuildingBlock: OJICUG_clean_linker_0, # of connection points: 2
#     Edge 72, Type (0, 1), BuildingBlock: OJICUG_clean_linker_0, # of connection points: 2
#     Edge 73, Type (0, 1), BuildingBlock: OJICUG_clean_linker_0, # of connection points: 2
#     Edge 74, Type (0, 1), BuildingBlock: OJICUG_clean_linker_0, # of connection points: 2
#     Edge 75, Type (0, 1), BuildingBlock: OJICUG_clean_linker_0, # of connection points: 2
#     Edge 76, Type (0, 1), BuildingBlock: OJICUG_clean_linker_0, # of connection points: 2
#     Edge 77, Type (0, 1), BuildingBlock: OJICUG_clean_linker_0, # of connection points: 2
#     Edge 78, Type (0, 1), BuildingBlock: OJICUG_clean_linker_0, # of connection points: 2
#     Edge 79, Type (0, 1), BuildingBlock: OJICUG_clean_linker_0, # of connection points: 2
#     Edge 80, Type (0, 1), BuildingBlock: OJICUG_clean_linker_0, # of connection points: 2
#     Edge 81, Type (0, 1), BuildingBlock: OJICUG_clean_linker_0, # of connection points: 2
#     Edge 82, Type (0, 1), BuildingBlock: OJICUG_clean_linker_0, # of connection points: 2
#     Edge 83, Type (0, 1), BuildingBlock: OJICUG_clean_linker_0, # of connection points: 2
#     Edge 84, Type (0, 1), BuildingBlock: OJICUG_clean_linker_0, # of connection points: 2
#     Edge 85, Type (0, 1), BuildingBlock: OJICUG_clean_linker_0, # of connection points: 2
#     Edge 86, Type (0, 1), BuildingBlock: OJICUG_clean_linker_0, # of connection points: 2
#     Edge 87, Type (0, 1), BuildingBlock: OJICUG_clean_linker_0, # of connection points: 2
#     Edge 88, Type (0, 1), BuildingBlock: OJICUG_clean_linker_0, # of connection points: 2
#     Edge 89, Type (0, 1), BuildingBlock: OJICUG_clean_linker_0, # of connection points: 2
#     Edge 90, Type (0, 1), BuildingBlock: OJICUG_clean_linker_0, # of connection points: 2
#     Edge 91, Type (0, 1), BuildingBlock: OJICUG_clean_linker_0, # of connection points: 2
#     Edge 92, Type (0, 1), BuildingBlock: OJICUG_clean_linker_0, # of connection points: 2
#     Edge 93, Type (0, 1), BuildingBlock: OJICUG_clean_linker_0, # of connection points: 2
#     Edge 94, Type (0, 1), BuildingBlock: OJICUG_clean_linker_0, # of connection points: 2
#     Edge 95, Type (0, 1), BuildingBlock: OJICUG_clean_linker_0, # of connection points: 2
#     Edge 96, Type (0, 1), BuildingBlock: OJICUG_clean_linker_0, # of connection points: 2
#     Edge 97, Type (0, 1), BuildingBlock: OJICUG_clean_linker_0, # of connection points: 2
#     Edge 98, Type (0, 1), BuildingBlock: OJICUG_clean_linker_0, # of connection points: 2
#     Edge 99, Type (0, 1), BuildingBlock: OJICUG_clean_linker_0, # of connection points: 2
#     Edge 100, Type (0, 1), BuildingBlock: OJICUG_clean_linker_0, # of connection points: 2
#     Edge 101, Type (0, 1), BuildingBlock: OJICUG_clean_linker_0, # of connection points: 2
#     Edge 102, Type (0, 1), BuildingBlock: OJICUG_clean_linker_0, # of connection points: 2
#     Edge 103, Type (0, 1), BuildingBlock: OJICUG_clean_linker_0, # of connection points: 2
#     Edge 104, Type (0, 1), BuildingBlock: OJICUG_clean_linker_0, # of connection points: 2
#     Edge 105, Type (0, 1), BuildingBlock: OJICUG_clean_linker_0, # of connection points: 2
#     Edge 106, Type (0, 1), BuildingBlock: OJICUG_clean_linker_0, # of connection points: 2
#     Edge 107, Type (0, 1), BuildingBlock: OJICUG_clean_linker_0, # of connection points: 2
#     Edge 108, Type (0, 1), BuildingBlock: OJICUG_clean_linker_0, # of connection points: 2
#     Edge 109, Type (0, 1), BuildingBlock: OJICUG_clean_linker_0, # of connection points: 2
#     Edge 110, Type (0, 1), BuildingBlock: OJICUG_clean_linker_0, # of connection points: 2
#     Edge 111, Type (0, 1), BuildingBlock: OJICUG_clean_linker_0, # of connection points: 2
#     Edge 112, Type (0, 1), BuildingBlock: OJICUG_clean_linker_0, # of connection points: 2
#     Edge 113, Type (0, 1), BuildingBlock: OJICUG_clean_linker_0, # of connection points: 2
#     Edge 114, Type (0, 1), BuildingBlock: OJICUG_clean_linker_0, # of connection points: 2
#     Edge 115, Type (0, 1), BuildingBlock: OJICUG_clean_linker_0, # of connection points: 2
#     Edge 116, Type (0, 1), BuildingBlock: OJICUG_clean_linker_0, # of connection points: 2
#     Edge 117, Type (0, 1), BuildingBlock: OJICUG_clean_linker_0, # of connection points: 2
#     Edge 118, Type (0, 1), BuildingBlock: OJICUG_clean_linker_0, # of connection points: 2
#     Edge 119, Type (0, 1), BuildingBlock: OJICUG_clean_linker_0, # of connection points: 2
#     Edge 120, Type (0, 1), BuildingBlock: OJICUG_clean_linker_0, # of connection points: 2
#     Edge 121, Type (0, 1), BuildingBlock: OJICUG_clean_linker_0, # of connection points: 2
#     Edge 122, Type (0, 1), BuildingBlock: OJICUG_clean_linker_0, # of connection points: 2
#     Edge 123, Type (0, 1), BuildingBlock: OJICUG_clean_linker_0, # of connection points: 2
#     Edge 124, Type (0, 1), BuildingBlock: OJICUG_clean_linker_0, # of connection points: 2
#     Edge 125, Type (0, 1), BuildingBlock: OJICUG_clean_linker_0, # of connection points: 2
#     Edge 126, Type (0, 1), BuildingBlock: OJICUG_clean_linker_0, # of connection points: 2
#     Edge 127, Type (0, 1), BuildingBlock: OJICUG_clean_linker_0, # of connection points: 2
#     Edge 128, Type (0, 1), BuildingBlock: OJICUG_clean_linker_0, # of connection points: 2
#     Edge 129, Type (0, 1), BuildingBlock: OJICUG_clean_linker_0, # of connection points: 2
#     Edge 130, Type (0, 1), BuildingBlock: OJICUG_clean_linker_0, # of connection points: 2
#     Edge 131, Type (0, 1), BuildingBlock: OJICUG_clean_linker_0, # of connection points: 2
#     Edge 132, Type (0, 1), BuildingBlock: OJICUG_clean_linker_0, # of connection points: 2
#     Edge 133, Type (0, 1), BuildingBlock: OJICUG_clean_linker_0, # of connection points: 2
#     Edge 134, Type (0, 1), BuildingBlock: OJICUG_clean_linker_0, # of connection points: 2
#     Edge 135, Type (0, 1), BuildingBlock: OJICUG_clean_linker_0, # of connection points: 2
# Relax obj value: 0.211
# Max RMSD: 0.295
# Mean RMSD: 0.187
data_MOF--net-gar--node1-QUQFOY_clean_sbu_1--node2-PAMTOO_clean_sbu_0--edge1-OJICUG_clean_linker_0
_symmetry_space_group_name_H-M    P1
_symmetry_Int_Tables_number       1
_symmetry_cell_setting            triclinic
loop_
_symmetry_equiv_pos_as_xyz
'x, y, z'
_cell_length_a     45.06935
_cell_length_b     45.293118
_cell_length_c     43.150412
_cell_angle_alpha  97.627395
_cell_angle_beta   97.285626
_cell_angle_gamma 105.74386
loop_
_atom_site_label
_atom_site_type_symbol
_atom_site_fract_x
_atom_site_fract_y
_atom_site_fract_z
_atom_type_partial_charge
O0 O 0.09931 0.31345 0.4081 0.0
Cd1 Cd 0.10181 0.33612 0.36963 0.0
Cd2 Cd 0.08327 0.38298 0.42471 0.0
O3 O 0.09247 0.3478 0.44629 0.0
O4 O 0.12537 0.31266 0.34112 0.0
O5 O 0.14783 0.36021 0.36639 0.0
C6 C 0.15078 0.33567 0.34946 0.0
C7 C 0.08678 0.42835 0.46202 0.0
C8 C 0.09636 0.32155 0.43666 0.0
C9 C 1.03557 0.3508 0.36219 0.0
O10 O 0.04444 0.36885 0.38906 0.0
O11 O 0.05432 0.33721 0.34983 0.0
O12 O 0.06603 0.40225 0.46073 0.0
O13 O 0.1056 0.42937 0.44177 0.0
O14 O 0.06024 0.7382 0.7502 0.0
Cd15 Cd 0.07085 0.77785 0.7871 0.0
Cd16 Cd 0.09767 0.80888 0.73834 0.0
O17 O 0.07817 0.76453 0.71366 0.0
O18 O 1.03554 0.77049 0.81535 0.0
O19 O 0.04094 0.80649 0.78586 0.0
C20 C 1.02483 0.79172 0.80484 0.0
C21 C 0.09966 0.84562 0.70411 0.0
C22 C 0.06553 0.73878 0.72181 0.0
C23 C 0.14472 0.80661 0.79507 0.0
O24 O 0.13877 0.81534 0.76878 0.0
O25 O 0.12166 0.79271 0.80812 0.0
O26 O 0.11596 0.82644 0.70269 0.0
O27 O 0.0824 0.84485 0.72581 0.0
O28 O 0.67564 0.86759 0.91805 0.0
Cd29 Cd 0.6393 0.86656 0.94304 0.0
Cd30 Cd 0.60885 0.88338 0.89183 0.0
O31 O 0.64898 0.87046 0.87248 0.0
O32 O 0.64696 0.84393 0.97788 0.0
O33 O 0.60461 0.8272 0.94073 0.0
C34 C 0.62013 0.82389 0.96669 0.0
C35 C 0.55168 0.86484 0.87413 0.0
C36 C 0.67404 0.86719 0.8884 0.0
C37 C 0.62575 0.92776 0.95592 0.0
O38 O 0.61802 0.92499 0.92591 0.0
O39 O 0.63437 0.90644 0.96725 0.0
O40 O 0.56999 0.88473 0.86087 0.0
O41 O 0.5657 0.85266 0.89479 0.0
O42 O 0.54887 0.21731 0.23614 0.0
Cd43 Cd 0.5579 0.25815 0.27118 0.0
Cd44 Cd 0.58168 0.2866 0.22281 0.0
O45 O 0.56252 0.24253 0.19749 0.0
O46 O 0.52235 0.25242 0.2989 0.0
O47 O 0.52793 0.28637 0.267 0.0
C48 C 0.51174 0.27292 0.28667 0.0
C49 C 0.58153 0.32492 0.19125 0.0
C50 C 0.55238 0.21703 0.20715 0.0
C51 C 0.63064 0.28705 0.27869 0.0
O52 O 0.62389 0.29373 0.25152 0.0
O53 O 0.60813 0.27438 0.29293 0.0
O54 O 0.5977 0.30583 0.1872 0.0
O55 O 0.5652 0.3227 0.21376 0.0
O56 O 0.09238 0.76747 0.12348 0.0
Cd57 Cd 0.09749 0.80884 0.15289 0.0
Cd58 Cd 0.124 0.83383 0.10089 0.0
O59 O 0.1093 0.78283 0.08072 0.0
O60 O 0.08055 0.7904 0.18875 0.0
O61 O 0.06035 0.82237 0.16514 0.0
C62 C 0.05994 0.8051 0.18665 0.0
C63 C 0.10965 0.87989 0.0847 0.0
C64 C 0.09839 0.76052 0.09594 0.0
C65 C 0.16672 0.84329 0.16508 0.0
O66 O 0.16506 0.84547 0.13571 0.0
O67 O 0.14211 0.83175 0.17603 0.0
O68 O 0.13007 0.86881 0.07255 0.0
O69 O 0.09564 0.86391 0.1042 0.0
O70 O 0.5831 0.79033 0.47919 0.0
Cd71 Cd 0.56151 0.78908 0.5188 0.0
Cd72 Cd 0.5143 0.80946 0.46182 0.0
O73 O 0.5499 0.79912 0.44121 0.0
O74 O 0.58594 0.76612 0.54728 0.0
O75 O 0.5378 0.7434 0.52384 0.0
C76 C 0.56282 0.74076 0.5402 0.0
C77 C 0.47143 0.81027 0.42294 0.0
C78 C 0.57555 0.79382 0.45072 0.0
C79 C 0.54707 0.85591 0.52567 0.0
O80 O 0.5289 0.8471 0.49887 0.0
O81 O 0.56068 0.83715 0.53789 0.0
O82 O 0.49853 0.83028 0.42716 0.0
O83 O 0.46792 0.78964 0.44115 0.0
O84 O 0.60378 0.26649 0.63715 0.0
Cd85 Cd 0.60923 0.30732 0.66705 0.0
Cd86 Cd 0.63993 0.33394 0.62109 0.0
O87 O 0.62523 0.28399 0.59749 0.0
O88 O 0.58729 0.28783 0.69941 0.0
O89 O 0.57248 0.32297 0.67581 0.0
C90 C 0.56834 0.3042 0.69593 0.0
C91 C 0.62565 0.38075 0.60631 0.0
C92 C 0.61188 0.26078 0.61045 0.0
C93 C 0.67827 0.33756 0.68668 0.0
O94 O 0.67927 0.34245 0.65821 0.0
O95 O 0.65215 0.32606 0.69487 0.0
O96 O 0.64729 0.37094 0.59516 0.0
O97 O 0.61082 0.36346 0.62438 0.0
O98 O 1.03253 0.23014 0.98074 0.0
Cd99 Cd 1.03388 0.2668 0.95654 0.0
Cd100 Cd 1.01957 0.29733 1.00924 0.0
O101 O 1.03267 0.2569 0.02741 0.0
O102 O 0.05643 0.25889 0.92139 0.0
O103 O 0.07361 0.30096 0.95887 0.0
C104 C 0.07694 0.28533 0.9329 0.0
C105 C 0.03943 0.35438 0.02669 0.0
C106 C 1.03447 0.2316 1.01055 0.0
C107 C 0.97328 0.28202 0.94657 0.0
O108 O 0.97687 0.28891 0.97678 0.0
O109 O 0.99407 0.27333 0.93391 0.0
O110 O 1.01999 0.33658 0.04085 0.0
O111 O 0.05054 0.33989 1.00521 0.0
O112 O 0.39579 0.05314 0.30599 0.0
Cd113 Cd 0.38387 0.05923 0.35118 0.0
Cd114 Cd 0.44409 0.07341 0.35983 0.0
O115 O 0.4406 0.08973 0.31827 0.0
O116 O 0.37084 0.096 0.3683 0.0
O117 O 0.33788 0.05114 0.34271 0.0
C118 C 0.34241 0.07916 0.35715 0.0
C119 C 0.48425 0.09364 0.40184 0.0
C120 C 0.41945 0.07051 0.29734 0.0
C121 C 0.40745 1.01257 0.37008 0.0
O122 O 0.42913 0.02581 0.35609 0.0
O123 O 0.38918 0.02745 0.37906 0.0
O124 O 0.48908 0.08166 0.37484 0.0
O125 O 0.45712 0.09762 0.40367 0.0
O126 O 0.32845 0.24779 0.61778 0.0
Cd127 Cd 0.32266 0.21691 0.57659 0.0
Cd128 Cd 0.29817 0.26122 0.554 0.0
O129 O 0.31326 0.28611 0.60104 0.0
O130 O 0.33562 0.18409 0.59619 0.0
O131 O 0.36018 0.20701 0.56095 0.0
C132 C 0.35767 0.18689 0.57973 0.0
C133 C 0.31575 0.2734 0.50664 0.0
C134 C 0.32366 0.27416 0.62371 0.0
C135 C 0.2535 0.19874 0.54944 0.0
O136 O 0.25576 0.22707 0.54775 0.0
O137 O 0.27773 0.19059 0.55767 0.0
O138 O 0.29836 0.28789 0.52004 0.0
O139 O 0.32493 0.25339 0.52118 0.0
O140 O 0.14846 0.07477 0.76166 0.0
Cd141 Cd 0.17983 0.08213 0.80307 0.0
Cd142 Cd 0.13426 0.10569 0.825 0.0
O143 O 0.11063 0.09207 0.77781 0.0
O144 O 0.21302 0.06807 0.78486 0.0
O145 O 0.18947 0.04595 0.82117 0.0
C146 C 0.21014 0.04745 0.80286 0.0
C147 C 0.11786 0.08764 0.87084 0.0
C148 C 0.12244 0.08045 0.75554 0.0
C149 C 0.19747 0.15086 0.83016 0.0
O150 O 0.169 0.14779 0.83243 0.0
O151 O 0.20627 0.12728 0.82116 0.0
O152 O 0.10759 0.10837 0.85878 0.0
O153 O 0.13611 0.07565 0.85585 0.0
O154 O 0.38199 0.04894 0.0879 0.0
Cd155 Cd 0.37574 0.07143 0.04986 0.0
Cd156 Cd 0.34962 1.00724 0.02321 0.0
O157 O 0.3388 1.0116 0.06817 0.0
O158 O 0.37074 0.11299 0.06337 0.0
O159 O 0.33383 0.07332 0.03233 0.0
C160 C 0.34286 0.10199 0.0469 0.0
C161 C 0.32842 0.95734 0.99322 0.0
C162 C 0.36074 0.02521 0.09121 0.0
C163 C 0.41307 0.04849 1.01089 0.0
O164 O 0.39471 0.02262 1.01384 0.0
O165 O 0.40733 0.07368 0.02038 0.0
O166 O 0.34854 0.96273 0.01868 0.0
O167 O 0.3183 0.98002 0.9859 0.0
O168 O 0.33328 0.40154 0.14106 0.0
Cd169 Cd 0.34015 0.42791 0.10564 0.0
Cd170 Cd 0.3592 0.3803 0.07941 0.0
O171 O 0.34547 0.36061 0.11888 0.0
O172 O 0.31827 0.45994 0.11426 0.0
O173 O 0.30634 0.42586 0.06952 0.0
C174 C 0.30186 0.44959 0.08628 0.0
C175 C 0.34178 0.35863 0.02543 0.0
C176 C 0.33661 0.37467 0.14204 0.0
C177 C 0.4065 0.44347 0.09495 0.0
O178 O 0.40173 0.41445 0.08591 0.0
O179 O 0.38472 0.4536 0.10366 0.0
O180 O 0.36128 0.3489 0.04298 0.0
O181 O 0.32982 0.37864 0.03926 0.0
O182 O 0.85508 0.16485 0.17542 0.0
Cd183 Cd 0.83103 0.12673 0.14151 0.0
Cd184 Cd 0.81109 0.1684 0.11426 0.0
O185 O 0.84685 0.19916 0.14634 0.0
O186 O 0.85283 0.09515 0.1328 0.0
O187 O 0.83939 0.12307 0.09757 0.0
C188 C 0.85118 0.10116 0.10423 0.0
C189 C 0.79922 0.18476 0.06628 0.0
C190 C 0.85861 0.19299 0.17207 0.0
C191 C 0.7665 0.1207 0.14354 0.0
O192 O 0.77262 0.14572 0.13214 0.0
O193 O 0.7866 0.10611 0.14732 0.0
O194 O 0.79434 0.19808 0.09255 0.0
O195 O 0.81108 0.16192 0.06704 0.0
O196 O 0.22219 0.55918 0.22052 0.0
Cd197 Cd 0.25741 0.58153 0.25801 0.0
Cd198 Cd 0.21256 0.59872 0.2825 0.0
O199 O 0.18423 0.56653 0.2452 0.0
O200 O 0.29016 0.56042 0.25959 0.0
O201 O 0.26253 0.56511 0.29823 0.0
C202 C 0.28448 0.55566 0.2874 0.0
C203 C 0.19145 0.60544 0.32896 0.0
C204 C 0.19327 0.55545 0.22075 0.0
C205 C 0.26371 0.64675 0.26104 0.0
O206 O 0.23745 0.63953 0.27035 0.0
O207 O 0.27852 0.62693 0.25676 0.0
O208 O 0.18086 0.61332 0.30323 0.0
O209 O 0.21415 0.59319 0.32845 0.0
O210 O 0.85245 0.91368 0.65877 0.0
Cd211 Cd 0.85547 0.93487 0.61962 0.0
Cd212 Cd 0.8729 0.88525 0.59574 0.0
O213 O 0.86132 0.87016 0.6385 0.0
O214 O 0.83385 0.96714 0.62677 0.0
O215 O 0.81904 0.92889 0.58517 0.0
C216 C 0.81549 0.95395 0.60027 0.0
C217 C 0.85341 0.86083 0.54253 0.0
C218 C 0.85507 0.88693 0.66167 0.0
C219 C 0.91939 0.94823 0.60304 0.0
O220 O 0.91494 0.91896 0.59768 0.0
O221 O 0.89823 0.95927 0.61187 0.0
O222 O 0.87313 0.85155 0.56033 0.0
O223 O 0.84204 0.88156 0.55597 0.0
O224 O 0.98338 0.04863 0.23435 0.0
Cd225 Cd 0.96228 0.04661 0.27395 0.0
Cd226 Cd 1.01289 0.03085 0.29806 0.0
O227 O 1.02834 0.04332 0.25576 0.0
O228 O 0.92869 0.06647 0.26563 0.0
O229 O 0.96736 0.0841 0.30679 0.0
C230 C 0.94169 0.08613 0.29138 0.0
C231 C 1.03615 0.05094 0.35164 0.0
C232 C 1.01095 0.04776 0.23202 0.0
C233 C 0.95097 0.98339 0.29154 0.0
O234 O 0.98038 0.9879 0.295 0.0
O235 O 0.93929 1.0045 0.28413 0.0
O236 O 0.04713 0.03261 0.33389 0.0
O237 O 1.0141 0.06051 0.33805 0.0
O238 O 0.35342 0.70186 0.66421 0.0
Cd239 Cd 0.33469 0.67109 0.62233 0.0
Cd240 Cd 0.31596 0.7178 0.60675 0.0
O241 O 0.34743 0.74326 0.64575 0.0
O242 O 0.35328 0.63674 0.62526 0.0
O243 O 0.35775 0.66448 0.58654 0.0
C244 C 0.36293 0.64154 0.599 0.0
C245 C 0.31342 0.73596 0.55891 0.0
C246 C 0.35722 0.731 0.66821 0.0
C247 C 0.26744 0.66267 0.61683 0.0
O248 O 0.27405 0.69152 0.61573 0.0
O249 O 0.28821 0.64872 0.61632 0.0
O250 O 0.30467 0.74897 0.58311 0.0
O251 O 0.32475 0.713 0.56218 0.0
O252 O 0.49751 0.56388 0.75605 0.0
Cd253 Cd 0.47273 0.55961 0.79322 0.0
Cd254 Cd 0.52048 0.54 0.81809 0.0
O255 O 0.53978 0.55407 0.77851 0.0
O256 O 0.43959 0.58026 0.7844 0.0
O257 O 0.4763 0.59599 0.82717 0.0
C258 C 0.45139 0.59889 0.81104 0.0
C259 C 0.54066 0.55812 0.87247 0.0
C260 C 0.52476 0.56125 0.7549 0.0
C261 C 0.45775 0.49339 0.80441 0.0
O262 O 0.487 0.49713 0.81039 0.0
O263 O 0.4476 0.51593 0.79849 0.0
O264 O 0.55223 0.5399 0.8553 0.0
O265 O 0.51948 0.5683 0.85811 0.0
O266 O 0.7249 0.04755 0.72601 0.0
Cd267 Cd 0.76555 0.07148 0.75671 0.0
Cd268 Cd 0.72821 0.09724 0.78645 0.0
O269 O 0.69374 0.06642 0.753 0.0
O270 O 0.79571 0.04742 0.76139 0.0
O271 O 0.77345 0.06404 0.80074 0.0
C272 C 0.79314 0.05033 0.79108 0.0
C273 C 0.71658 0.10831 0.83717 0.0
C274 C 0.69772 0.04938 0.729 0.0
C275 C 0.77818 0.13699 0.75555 0.0
O276 O 0.75526 0.13434 0.77039 0.0
O277 O 0.78838 0.11411 0.748 0.0
O278 O 0.7044 0.11806 0.81343 0.0
O279 O 0.73533 0.09184 0.83213 0.0
O280 O 0.82857 0.74947 0.13062 0.0
Cd281 Cd 0.8204 0.71947 0.0885 0.0
Cd282 Cd 0.796 0.7647 0.069 0.0
O283 O 0.8113 0.78764 0.11667 0.0
O284 O 0.83427 0.68661 0.10699 0.0
O285 O 0.85602 0.70852 0.06966 0.0
C286 C 0.85489 0.68887 0.08885 0.0
C287 C 0.8161 0.7799 0.02353 0.0
C288 C 0.82313 0.77528 0.13813 0.0
C289 C 0.75059 0.7022 0.06454 0.0
O290 O 0.75315 0.73044 0.06197 0.0
O291 O 0.77477 0.69386 0.07246 0.0
O292 O 0.79797 0.79352 0.03678 0.0
O293 O 0.82398 0.75853 0.03683 0.0
O294 O 0.8671 0.53176 0.78813 0.0
Cd295 Cd 0.83695 0.52898 0.8204 0.0
Cd296 Cd 0.89608 0.55174 0.86777 0.0
O297 O 0.90794 0.55862 0.82432 0.0
O298 O 0.79703 0.53587 0.80361 0.0
O299 O 0.83194 0.56723 0.84397 0.0
C300 C 0.80506 0.56027 0.82562 0.0
C301 C 0.9429 0.56727 0.90387 0.0
C302 C 0.89581 0.54725 0.7956 0.0
C303 C 0.84479 0.48927 0.86675 0.0
O304 O 0.87032 0.51019 0.87834 0.0
O305 O 0.82768 0.49157 0.8421 0.0
O306 O 0.93643 0.54401 0.88124 0.0
O307 O 0.92274 0.58259 0.90618 0.0
O308 O 0.83216 0.49932 0.59299 0.0
Cd309 Cd 0.8309 0.52031 0.55256 0.0
Cd310 Cd 0.82293 0.46086 0.53074 0.0
O311 O 0.80041 0.4545 0.56816 0.0
O312 O 0.79611 0.53632 0.53562 0.0
O313 O 0.83851 0.56499 0.56937 0.0
C314 C 0.81262 0.56321 0.5517 0.0
C315 C 0.80882 0.42304 0.48595 0.0
C316 C 0.8155 0.47191 0.59387 0.0
C317 C 0.88321 0.50569 0.53278 0.0
O318 O 0.87068 0.47979 0.54058 0.0
O319 O 0.86679 0.52367 0.52786 0.0
O320 O 0.82047 0.41789 0.51277 0.0
O321 O 0.80287 0.44928 0.48505 0.0
O322 O 0.65339 0.57535 0.27779 0.0
Cd323 Cd 0.6858 0.58036 0.31772 0.0
Cd324 Cd 0.64174 0.60361 0.34414 0.0
O325 O 0.61582 0.59006 0.29763 0.0
O326 O 0.71771 0.56697 0.29633 0.0
O327 O 0.69476 0.54206 0.33139 0.0
C328 C 0.71432 0.54431 0.3118 0.0
C329 C 0.62899 0.58521 0.39102 0.0
C330 C 0.62682 0.58015 0.27382 0.0
C331 C 0.70447 0.64841 0.34842 0.0
O332 O 0.67609 0.64576 0.3509 0.0
O333 O 0.71276 0.62472 0.33843 0.0
O334 O 0.61513 0.60336 0.37844 0.0
O335 O 0.64882 0.57591 0.37601 0.0
Dy336 Dy 0.10735 0.07735 0.07068 0.0
Dy337 Dy 0.03968 0.03798 0.03338 0.0
C338 C 0.09427 0.06185 0.99575 0.0
O339 O 0.08398 0.116 0.0649 0.0
O340 O 0.0397 0.08793 0.02969 0.0
O341 O 0.13817 0.11686 0.10453 0.0
O342 O 0.15617 0.08154 0.08132 0.0
O343 O 1.03207 0.05395 0.08302 0.0
O344 O 0.08148 0.0603 0.10844 0.0
O345 O 0.05719 1.00036 0.05263 0.0
O346 O 0.10939 0.02643 0.06346 0.0
O347 O 0.9949 1.00352 0.02892 0.0
O348 O 1.00751 0.02526 0.9889 0.0
C349 C 0.05849 0.11512 0.04528 0.0
O350 O 0.10713 0.08405 0.02023 0.0
O351 O 0.07356 0.03649 0.9994 0.0
C352 C 0.18949 0.13201 0.09287 0.0
C353 C 0.24612 0.15312 0.07143 0.0
C354 C 0.21773 0.14947 0.05139 0.0
C355 C 0.18942 0.13872 0.06205 0.0
C356 C 0.21757 0.14092 0.11439 0.0
C357 C 0.24585 0.15168 0.10379 0.0
C358 C 0.16296 0.10856 0.09974 0.0
C359 C 0.05183 0.0566 0.10927 0.0
C360 C 0.08635 1.00017 0.06055 0.0
C361 C 0.95568 1.01645 0.99796 0.0
C362 C 0.90574 0.03712 1.01453 0.0
C363 C 0.93132 0.05779 1.00571 0.0
C364 C 0.95621 0.04755 0.99761 0.0
C365 C 0.9284 0.99495 1.00255 0.0
C366 C 0.90347 1.00523 1.01077 0.0
C367 C 0.98504 1.00819 1.00079 0.0
H368 H 0.21731 0.15106 0.02651 0.0
H369 H 0.16776 0.13214 0.04522 0.0
H370 H 0.21791 0.13601 0.13832 0.0
H371 H 0.26724 0.15448 0.11998 0.0
H372 H 0.93379 0.08251 1.00845 0.0
H373 H 0.97699 0.06463 0.99407 0.0
H374 H 0.92756 0.97083 1.00275 0.0
H375 H 0.88372 0.98878 0.01701 0.0
Dy376 Dy 0.35011 0.84223 0.26189 0.0
Dy377 Dy 0.30059 0.81952 0.31017 0.0
C378 C 0.34691 0.88639 0.3227 0.0
O379 O 0.38047 0.83577 0.30435 0.0
O380 O 0.3431 0.80576 0.32821 0.0
O381 O 0.39329 0.87307 0.25431 0.0
O382 O 0.36183 0.84033 0.21476 0.0
O383 O 0.28905 0.78906 0.26304 0.0
O384 O 0.33819 0.79061 0.25671 0.0
O385 O 0.27694 0.84567 0.27948 0.0
O386 O 0.30294 0.84229 0.23719 0.0
O387 O 0.27245 0.77901 0.32504 0.0
O388 O 0.27022 0.8252 0.34395 0.0
C389 C 0.37257 0.81847 0.32598 0.0
O390 O 0.34402 0.88313 0.29177 0.0
O391 O 0.33496 0.86318 0.3367 0.0
C392 C 0.38411 0.89132 0.20692 0.0
C393 C 0.3786 0.94005 0.17434 0.0
C394 C 0.36045 0.93232 0.19788 0.0
C395 C 0.36311 0.90814 0.21392 0.0
C396 C 0.40278 0.89923 0.18397 0.0
C397 C 0.40007 0.92346 0.16778 0.0
C398 C 0.38568 0.86537 0.22351 0.0
C399 C 0.30876 0.77479 0.25375 0.0
C400 C 0.27913 0.84743 0.24955 0.0
C401 C 0.26915 0.78881 0.37891 0.0
C402 C 0.28526 0.77229 0.43804 0.0
C403 C 0.26276 0.75077 0.41413 0.0
C404 C 0.25469 0.75903 0.38484 0.0
C405 C 0.29149 0.81044 0.40289 0.0
C406 C 0.29929 0.80231 0.43228 0.0
C407 C 0.26326 0.79578 0.34673 0.0
H408 H 0.34413 0.94493 0.20393 0.0
H409 H 0.34857 0.9024 0.2317 0.0
H410 H 0.41909 0.88646 0.17831 0.0
H411 H 0.4142 0.92864 0.14958 0.0
H412 H 0.2514 0.72757 0.41811 0.0
H413 H 0.23767 0.74191 0.36653 0.0
H414 H 0.30348 0.83338 0.39873 0.0
H415 H 0.31689 0.81923 0.45024 0.0
Dy416 Dy 0.55124 0.05439 0.58141 0.0
Dy417 Dy 0.61365 0.06242 0.54833 0.0
C418 C 0.55225 0.07068 0.51183 0.0
O419 O 0.54764 1.00503 0.55801 0.0
O420 O 0.59896 1.01134 0.55398 0.0
O421 O 0.50158 0.0335 0.57662 0.0
O422 O 0.52732 0.06514 0.61991 0.0
O423 O 0.62988 0.06326 0.59933 0.0
O424 O 0.58392 0.04191 0.61675 0.0
O425 O 0.61055 0.11233 0.55755 0.0
O426 O 0.57653 0.10648 0.59327 0.0
O427 O 0.66219 0.08492 0.54698 0.0
O428 O 0.63514 0.04636 0.51007 0.0
C429 C 0.57079 0.99288 0.55422 0.0
O430 O 0.5425 0.07522 0.53877 0.0
O431 O 0.57482 0.05796 0.50916 0.0
C432 C 0.47834 0.06998 0.59913 0.0
C433 C 0.44007 0.10958 0.59318 0.0
C434 C 0.45211 0.09867 0.56696 0.0
C435 C 0.47111 0.07917 0.56992 0.0
C436 C 0.46641 0.08077 0.62537 0.0
C437 C 0.44744 0.10042 0.62246 0.0
C438 C 0.49986 0.05087 0.60266 0.0
C439 C 0.61445 0.04968 0.61991 0.0
C440 C 0.59585 0.12461 0.57811 0.0
C441 C 0.68515 0.04627 0.53157 0.0
C442 C 0.72736 1.01393 0.55033 0.0
C443 C 0.7004 1.01135 0.56399 0.0
C444 C 0.67945 0.02723 0.55454 0.0
C445 C 0.7117 0.04849 0.51724 0.0
C446 C 0.73272 0.03215 0.52648 0.0
C447 C 0.66307 0.0637 0.52376 0.0
H448 H 0.44656 0.10488 0.54399 0.0
H449 H 0.48021 0.07136 0.54931 0.0
H450 H 0.47207 0.07429 0.64819 0.0
H451 H 0.4389 0.10878 0.64324 0.0
H452 H 0.69568 0.9972 0.5822 0.0
H453 H 0.65889 0.02501 0.56553 0.0
H454 H 0.71632 0.06302 0.49936 0.0
H455 H 0.75352 0.03444 0.51576 0.0
Dy456 Dy 0.35658 0.30797 0.82878 0.0
Dy457 Dy 0.2995 0.3394 0.81791 0.0
C458 C 0.36992 0.37806 0.81719 0.0
O459 O 0.35569 0.33256 0.87682 0.0
O460 O 0.30485 0.3337 0.86916 0.0
O461 O 0.40407 0.31228 0.84921 0.0
O462 O 0.37465 0.26867 0.82051 0.0
O463 O 0.27732 0.28805 0.8127 0.0
O464 O 0.31603 0.27478 0.84228 0.0
O465 O 0.31397 0.3338 0.76988 0.0
O466 O 0.33625 0.29478 0.77701 0.0
O467 O 0.25512 0.33974 0.79254 0.0
O468 O 0.27852 0.37502 0.83378 0.0
C469 C 0.33078 0.33556 0.88813 0.0
O470 O 0.37693 0.35188 0.8113 0.0
O471 O 0.3433 0.37893 0.82597 0.0
C472 C 0.42651 0.28645 0.81294 0.0
C473 C 0.47254 0.29262 0.77411 0.0
C474 C 0.44442 0.29912 0.76433 0.0
C475 C 0.42169 0.29624 0.78369 0.0
C476 C 0.4544 0.27988 0.82289 0.0
C477 C 0.47733 0.28299 0.80361 0.0
C478 C 0.40308 0.28524 0.83357 0.0
C479 C 0.28672 0.26884 0.82907 0.0
C480 C 0.32542 0.31163 0.75839 0.0
C481 C 0.22531 0.35112 0.83043 0.0
C482 C 0.1761 0.33173 0.86397 0.0
C483 C 0.19766 0.31476 0.8609 0.0
C484 C 0.22212 0.3245 0.84451 0.0
C485 C 0.20404 0.36842 0.83354 0.0
C486 C 0.17953 0.35881 0.85041 0.0
C487 C 0.25222 0.36106 0.81451 0.0
H488 H 0.43984 0.30621 0.74164 0.0
H489 H 0.40041 0.30191 0.77596 0.0
H490 H 0.45859 0.2728 0.84567 0.0
H491 H 0.499 0.2783 0.81203 0.0
H492 H 0.19585 0.29412 0.87157 0.0
H493 H 0.23885 0.31138 0.84311 0.0
H494 H 0.2065 0.38929 0.8232 0.0
H495 H 0.16309 0.37222 0.85253 0.0
Dy496 Dy 0.0932 0.04139 0.5505 0.0
Dy497 Dy 0.06412 0.10064 0.5595 0.0
C498 C 1.0236 0.03236 0.5645 0.0
O499 O 0.08727 0.05373 0.50196 0.0
O500 O 0.04993 0.07901 0.50764 0.0
O501 O 0.09043 0.99452 0.52922 0.0
O502 O 0.13068 0.02204 0.56412 0.0
O503 O 0.10831 0.11764 0.54103 0.0
O504 O 0.13363 0.08458 0.55966 0.0
O505 O 0.08684 0.09877 0.60862 0.0
O506 O 0.08721 0.04783 0.60124 0.0
O507 O 0.07124 0.14821 0.58127 0.0
O508 O 1.02776 0.12256 0.54964 0.0
C509 C 0.06577 0.06551 0.48959 0.0
O510 O 0.04183 0.02095 0.5481 0.0
O511 O 1.02974 0.06235 0.57462 0.0
C512 C 0.11071 0.96977 0.56815 0.0
C513 C 0.10561 0.92837 0.61201 0.0
C514 C 0.08103 0.9409 0.60346 0.0
C515 C 0.08365 0.96156 0.58191 0.0
C516 C 0.13508 0.95707 0.57621 0.0
C517 C 0.13261 0.9366 0.59797 0.0
C518 C 0.11509 0.99432 0.5486 0.0
C519 C 0.13407 0.11039 0.54885 0.0
C520 C 0.08929 0.07382 0.62006 0.0
C521 C 0.0506 0.17552 0.54626 0.0
C522 C 0.06866 0.22491 0.51258 0.0
C523 C 0.05642 0.19395 0.4964 0.0
C524 C 0.04772 0.16949 0.51308 0.0
C525 C 0.06203 0.20637 0.56244 0.0
C526 C 0.07107 0.23084 0.5458 0.0
C527 C 0.04575 0.14987 0.56447 0.0
H528 H 0.05977 0.93484 0.61345 0.0
H529 H 0.06478 0.97162 0.5765 0.0
H530 H 0.1564 0.96367 0.56638 0.0
H531 H 0.15226 0.92792 0.6044 0.0
H532 H 0.05363 0.18853 0.47079 0.0
H533 H 0.03943 0.14583 0.50002 0.0
H534 H 0.06495 0.21143 0.58809 0.0
H535 H 0.08074 0.25432 0.55909 0.0
Dy536 Dy 0.35207 0.86353 0.82528 0.0
Dy537 Dy 0.3423 0.8019 0.85922 0.0
C538 C 0.33436 0.86449 0.89476 0.0
O539 O 0.40175 0.86672 0.84768 0.0
O540 O 0.39464 0.81712 0.85818 0.0
O541 O 0.3715 0.91312 0.82927 0.0
O542 O 0.3429 0.88546 0.78505 0.0
O543 O 0.34268 0.78549 0.80807 0.0
O544 O 0.36672 0.83106 0.79217 0.0
O545 O 0.2928 0.80644 0.84962 0.0
O546 O 0.29991 0.83788 0.81197 0.0
O547 O 0.31933 0.75303 0.85775 0.0
O548 O 0.35461 0.77952 0.89801 0.0
C549 C 0.41344 0.8443 0.85538 0.0
O550 O 0.33126 0.87381 0.86754 0.0
O551 O 0.34502 0.84073 0.89836 0.0
C552 C 0.33512 0.93377 0.8023 0.0
C553 C 0.29272 0.9695 0.80181 0.0
C554 C 0.30183 0.95865 0.82946 0.0
C555 C 0.32267 0.94083 0.82966 0.0
C556 C 0.32616 0.94452 0.77467 0.0
C557 C 0.30509 0.96218 0.77438 0.0
C558 C 0.35554 0.91337 0.80184 0.0
C559 C 0.35762 0.80069 0.78808 0.0
C560 C 0.28109 0.82015 0.82787 0.0
C561 C 0.3557 0.72874 0.87777 0.0
C562 C 0.38766 0.68541 0.85957 0.0
C563 C 0.35513 0.67558 0.85891 0.0
C564 C 0.33931 0.69707 0.868 0.0
C565 C 0.38835 0.73842 0.87928 0.0
C566 C 0.40417 0.71695 0.87043 0.0
C567 C 0.33837 0.75183 0.88267 0.0
H568 H 0.29313 0.96418 0.85111 0.0
H569 H 0.32889 0.93247 0.85122 0.0
H570 H 0.3351 0.93888 0.7532 0.0
H571 H 0.29817 0.96972 0.75252 0.0
H572 H 0.34186 0.65133 0.85092 0.0
H573 H 0.31413 0.68913 0.86642 0.0
H574 H 0.40161 0.76277 0.88629 0.0
H575 H 0.42916 0.72527 0.87085 0.0
Dy576 Dy 0.60554 0.09699 0.0688 0.0
Dy577 Dy 0.56846 0.04148 0.10426 0.0
C578 C 0.60205 0.02383 0.04546 0.0
O579 O 0.56338 0.07218 0.03316 0.0
O580 O 0.53366 0.05131 0.0689 0.0
O581 O 0.61125 0.1338 0.04086 0.0
O582 O 0.65186 0.12448 0.06558 0.0
O583 O 0.56719 0.08685 0.13215 0.0
O584 O 0.5745 0.11871 0.09485 0.0
O585 O 0.61961 0.05001 0.11848 0.0
O586 O 0.62675 0.1011 0.11912 0.0
O587 O 0.56455 0.02265 0.14747 0.0
O588 O 0.52973 1.00135 0.10526 0.0
C589 C 0.53656 0.05801 0.04054 0.0
O590 O 0.61541 0.05369 0.04588 0.0
O591 O 0.58223 1.01392 0.06447 0.0
C592 C 0.65442 0.13661 1.01491 0.0
C593 C 0.67927 0.13068 0.95874 0.0
C594 C 0.66351 0.10409 0.9699 0.0
C595 C 0.65101 0.10705 0.99763 0.0
C596 C 0.67034 0.16331 1.00401 0.0
C597 C 0.68257 0.16038 0.97588 0.0
C598 C 0.64155 0.13902 0.04436 0.0
C599 C 0.56588 0.11272 0.12199 0.0
C600 C 0.63676 0.07876 0.12843 0.0
C601 C 0.51228 1.01001 0.1537 0.0
C602 C 0.47333 0.02859 0.19346 0.0
C603 C 0.48128 0.04427 0.16839 0.0
C604 C 0.5005 0.03501 0.14865 0.0
C605 C 0.5036 0.99357 0.178 0.0
C606 C 0.48407 1.00269 0.19768 0.0
C607 C 0.53647 1.00416 0.13605 0.0
H608 H 0.66033 0.08099 0.95684 0.0
H609 H 0.63865 0.08622 1.00558 0.0
H610 H 0.67323 0.1863 0.01716 0.0
H611 H 0.69474 0.18118 0.96761 0.0
H612 H 0.47304 0.06403 0.16438 0.0
H613 H 0.50708 0.04809 0.13006 0.0
H614 H 0.51275 0.97447 0.18243 0.0
H615 H 0.47843 0.99031 0.21698 0.0
Dy616 Dy 0.3157 0.27411 0.30272 0.0
Dy617 Dy 0.35178 0.34484 0.3353 0.0
C618 C 0.33449 0.29238 0.37882 0.0
O619 O 0.27565 0.29429 0.311 0.0
O620 O 0.30132 0.34281 0.33998 0.0
O621 O 0.2736 0.24169 0.27409 0.0
O622 O 0.31405 0.22643 0.28766 0.0
O623 O 0.32887 0.34716 0.28684 0.0
O624 O 0.32978 0.29962 0.26328 0.0
O625 O 0.39008 0.32658 0.31678 0.0
O626 O 0.3668 0.27413 0.31065 0.0
O627 O 0.38289 0.38967 0.33251 0.0
O628 O 0.36619 0.38141 0.37636 0.0
C629 C 0.27492 0.32079 0.32744 0.0
O630 O 0.31512 0.27307 0.35465 0.0
O631 O 0.35476 0.31794 0.37487 0.0
C632 C 0.26579 0.19187 0.28772 0.0
C633 C 0.25834 0.14305 0.32197 0.0
C634 C 0.25655 0.17214 0.33618 0.0
C635 C 0.2605 0.19662 0.31911 0.0
C636 C 0.26153 0.16166 0.27192 0.0
C637 C 0.25749 0.13718 0.28892 0.0
C638 C 0.28446 0.21797 0.2754 0.0
C639 C 0.32852 0.32786 0.2612 0.0
C640 C 0.39195 0.29774 0.31158 0.0
C641 C 0.36998 0.4302 0.3617 0.0
C642 C 0.34761 0.48064 0.35089 0.0
C643 C 0.32724 0.45311 0.35649 0.0
C644 C 0.33832 0.42804 0.36172 0.0
C645 C 0.3908 0.45835 0.35839 0.0
C646 C 0.3797 0.48348 0.35306 0.0
C647 C 0.38027 0.40214 0.36067 0.0
H648 H 0.25656 0.17711 0.36145 0.0
H649 H 0.26344 0.2199 0.33156 0.0
H650 H 0.26537 0.15766 0.24762 0.0
H651 H 0.25861 0.11498 0.27706 0.0
H652 H 0.30235 0.45006 0.35454 0.0
H653 H 0.32177 0.40641 0.36398 0.0
H654 H 0.41529 0.46033 0.35824 0.0
H655 H 0.39591 0.50459 0.34907 0.0
Dy656 Dy 0.59164 0.54514 0.06996 0.0
Dy657 Dy 0.56056 0.60249 0.08019 0.0
C658 C 0.52009 0.53281 0.07912 0.0
O659 O 0.58833 0.56048 0.02294 0.0
O660 O 0.54845 0.58216 0.02788 0.0
O661 O 0.59154 0.50084 0.04429 0.0
O662 O 0.62746 0.5243 0.08517 0.0
O663 O 0.60586 0.62292 0.06463 0.0
O664 O 0.63171 0.58873 0.07975 0.0
O665 O 0.5838 0.60017 0.12899 0.0
O666 O 0.58377 0.54925 0.12017 0.0
O667 O 0.5607 0.64627 0.10688 0.0
O668 O 0.52569 0.6248 0.06496 0.0
C669 C 0.56607 0.57097 1.01022 0.0
O670 O 0.53999 0.52317 0.06368 0.0
O671 O 0.52548 0.56219 0.09154 0.0
C672 C 0.60649 0.47053 0.08 0.0
C673 C 0.59471 0.42087 0.11399 0.0
C674 C 0.57252 0.43707 0.10871 0.0
C675 C 0.57844 0.46179 0.092 0.0
C676 C 0.62849 0.45426 0.08476 0.0
C677 C 0.62269 0.42962 0.10164 0.0
C678 C 0.61391 0.49837 0.06527 0.0
C679 C 0.63175 0.61532 0.07073 0.0
C680 C 0.58625 0.57489 0.13972 0.0
C681 C 0.55051 0.67849 0.07105 0.0
C682 C 0.57115 0.7276 0.03777 0.0
C683 C 0.5927 0.7154 0.05419 0.0
C684 C 0.58253 0.69126 0.07069 0.0
C685 C 0.52882 0.69073 0.05501 0.0
C686 C 0.53907 0.7152 0.0385 0.0
C687 C 0.54004 0.65038 0.08513 0.0
H688 H 0.55063 0.43073 0.11758 0.0
H689 H 0.56136 0.47446 0.08894 0.0
H690 H 0.65047 0.46109 0.07611 0.0
H691 H 0.64052 0.41801 0.10577 0.0
H692 H 0.6175 0.72392 0.05364 0.0
H693 H 0.5998 0.68207 0.08254 0.0
H694 H 0.504 0.68097 0.05471 0.0
H695 H 0.52194 0.72431 0.02626 0.0
Dy696 Dy 0.83731 0.34503 0.30298 0.0
Dy697 Dy 0.82882 0.28534 0.33929 0.0
C698 C 0.82451 0.34943 0.37439 0.0
O699 O 0.88645 0.35003 0.32789 0.0
O700 O 0.87995 0.29918 0.33279 0.0
O701 O 0.85976 0.39335 0.30257 0.0
O702 O 0.8241 0.36579 0.26295 0.0
O703 O 0.8224 0.268 0.28767 0.0
O704 O 0.85244 0.31056 0.27182 0.0
O705 O 0.7797 0.2908 0.33279 0.0
O706 O 0.78511 0.31939 0.29263 0.0
O707 O 0.80611 0.23721 0.34125 0.0
O708 O 0.84505 0.26439 0.37765 0.0
C709 C 0.89858 0.32716 0.33244 0.0
O710 O 0.81977 0.35825 0.34701 0.0
O711 O 0.83486 0.32545 0.37739 0.0
C712 C 0.82259 0.41648 0.28203 0.0
C713 C 0.78564 0.45715 0.29065 0.0
C714 C 0.7976 0.44546 0.31645 0.0
C715 C 0.8158 0.42533 0.31217 0.0
C716 C 0.81082 0.42812 0.25616 0.0
C717 C 0.79251 0.44836 0.26043 0.0
C718 C 0.84034 0.39378 0.27758 0.0
C719 C 0.84092 0.28033 0.26882 0.0
C720 C 0.76717 0.30316 0.31031 0.0
C721 C 0.84507 0.21444 0.35622 0.0
C722 C 0.87805 0.17261 0.33775 0.0
C723 C 0.87999 0.19892 0.32346 0.0
C724 C 0.86388 0.21975 0.33285 0.0
C725 C 0.84331 0.18843 0.37099 0.0
C726 C 0.85999 0.16763 0.36192 0.0
C727 C 0.8276 0.23651 0.36422 0.0
H728 H 0.79321 0.45215 0.3401 0.0
H729 H 0.82453 0.41664 0.33253 0.0
H730 H 0.8155 0.42129 0.23268 0.0
H731 H 0.78336 0.45676 0.24002 0.0
H732 H 0.89399 0.20335 0.30499 0.0
H733 H 0.86581 0.23991 0.32151 0.0
H734 H 0.829 0.18413 0.38921 0.0
H735 H 0.85821 0.14734 0.37315 0.0
Dy736 Dy 0.0796 0.60465 0.56399 0.0
Dy737 Dy 0.07346 0.56304 0.62105 0.0
C738 C 0.0851 0.53427 0.55297 0.0
O739 O 1.02883 0.58848 0.56557 0.0
O740 O 1.02946 0.54475 0.58638 0.0
O741 O 0.06354 0.61389 0.51805 0.0
O742 O 0.1057 0.64534 0.5476 0.0
O743 O 0.05302 0.60191 0.6349 0.0
O744 O 0.08171 0.63716 0.60884 0.0
O745 O 0.12234 0.5943 0.62964 0.0
O746 O 0.1254 0.59665 0.57761 0.0
O747 O 0.08172 0.56168 0.67124 0.0
O748 O 0.0569 0.51957 0.63777 0.0
C749 C 1.01478 0.56041 0.57003 0.0
O750 O 0.07649 0.55638 0.54064 0.0
O751 O 0.09051 0.535 0.58394 0.0
C752 C 0.10577 0.63425 0.49304 0.0
C753 C 0.13688 0.6269 0.4412 0.0
C754 C 0.1341 0.60577 0.46254 0.0
C755 C 0.11877 0.60951 0.48828 0.0
C756 C 0.10893 0.65574 0.47231 0.0
C757 C 0.12446 0.65216 0.44661 0.0
C758 C 0.08857 0.63707 0.51938 0.0
C759 C 0.06514 0.63086 0.63142 0.0
C760 C 0.1387 0.59964 0.60697 0.0
C761 C 1.03629 0.53009 0.68413 0.0
C762 C 0.98747 0.53521 0.71736 0.0
C763 C 0.98249 0.53083 0.68409 0.0
C764 C 1.00673 0.52851 0.66763 0.0
C765 C 0.04095 0.53314 0.71723 0.0
C766 C 1.01673 0.53564 0.73373 0.0
C767 C 0.06313 0.53337 0.66734 0.0
H768 H 0.14301 0.58588 0.45894 0.0
H769 H 0.11666 0.59282 0.50428 0.0
H770 H 0.09921 0.6751 0.47584 0.0
H771 H 0.12666 0.66915 0.43094 0.0
H772 H 0.96032 0.53061 0.67086 0.0
H773 H 1.0027 0.52677 0.64208 0.0
H774 H 0.06364 0.53477 0.73039 0.0
H775 H 1.02108 0.53849 0.75938 0.0
Dy776 Dy 0.86227 0.80551 0.34275 0.0
Dy777 Dy 0.80337 0.83584 0.33485 0.0
C778 C 0.87186 0.87499 0.32818 0.0
O779 O 0.86253 0.82846 0.39217 0.0
O780 O 0.81279 0.83352 0.38676 0.0
O781 O 0.91118 0.8116 0.35921 0.0
O782 O 0.88152 0.76731 0.33214 0.0
O783 O 0.78318 0.78462 0.33161 0.0
O784 O 0.82378 0.77167 0.35848 0.0
O785 O 0.81606 0.83029 0.28614 0.0
O786 O 0.83833 0.7911 0.29195 0.0
O787 O 0.757 0.8318 0.31076 0.0
O788 O 0.78053 0.8703 0.34922 0.0
C789 C 0.83883 0.83372 0.40458 0.0
O790 O 0.87969 0.84914 0.3239 0.0
O791 O 0.84571 0.87616 0.33797 0.0
C792 C 0.93162 0.78679 0.31977 0.0
C793 C 0.97332 0.79332 0.27587 0.0
C794 C 0.94416 0.79882 0.26887 0.0
C795 C 0.92366 0.7958 0.29071 0.0
C796 C 0.96059 0.78132 0.32703 0.0
C797 C 0.98133 0.78463 0.3053 0.0
C798 C 0.91017 0.78485 0.34286 0.0
C799 C 0.7939 0.76585 0.3475 0.0
C800 C 0.827 0.80809 0.27388 0.0
C801 C 0.72667 0.84543 0.34756 0.0
C802 C 0.67508 0.82264 0.3777 0.0
C803 C 0.70527 0.83621 0.39556 0.0
C804 C 0.73077 0.8473 0.38067 0.0
C805 C 0.69652 0.83237 0.32967 0.0
C806 C 0.67096 0.82102 0.34456 0.0
C807 C 0.75392 0.85413 0.33138 0.0
H808 H 0.93698 0.80517 0.2464 0.0
H809 H 0.90156 0.80066 0.28496 0.0
H810 H 0.9673 0.77485 0.34958 0.0
H811 H 1.00381 0.78078 0.31177 0.0
H812 H 0.70927 0.8385 0.42116 0.0
H813 H 0.75377 0.85693 0.39517 0.0
H814 H 0.69286 0.83029 0.30407 0.0
H815 H 0.6481 0.81047 0.33003 0.0
Dy816 Dy 0.85478 0.33359 0.79852 0.0
Dy817 Dy 0.80042 0.29654 0.83538 0.0
C818 C 0.83296 0.36713 0.85797 0.0
O819 O 0.8834 0.32592 0.84146 0.0
O820 O 0.84517 0.28988 0.85913 0.0
O821 O 0.88793 0.37632 0.79256 0.0
O822 O 0.87977 0.33382 0.75903 0.0
O823 O 0.79711 0.27151 0.78659 0.0
O824 O 0.84905 0.2829 0.78673 0.0
O825 O 0.776 0.32258 0.805 0.0
O826 O 0.80849 0.32825 0.76797 0.0
O827 O 0.77578 0.25087 0.84294 0.0
O828 O 0.76264 0.29136 0.86231 0.0
C829 C 0.87472 0.30565 0.86033 0.0
O830 O 0.83918 0.36788 0.82916 0.0
O831 O 0.82266 0.34112 0.86834 0.0
C832 C 0.88035 0.37939 0.73832 0.0
C833 C 0.85645 0.41082 0.69323 0.0
C834 C 0.88681 0.42393 0.71126 0.0
C835 C 0.8985 0.40848 0.73387 0.0
C836 C 0.85057 0.36598 0.71976 0.0
C837 C 0.83858 0.38162 0.69797 0.0
C838 C 0.89043 0.36416 0.76421 0.0
C839 C 0.82086 0.26415 0.7769 0.0
C840 C 0.78181 0.32891 0.77703 0.0
C841 C 0.76172 0.25187 0.89316 0.0
C842 C 0.77123 0.22968 0.95034 0.0
C843 C 0.75009 0.21043 0.92401 0.0
C844 C 0.74524 0.22148 0.89565 0.0
C845 C 0.7827 0.2713 0.91951 0.0
C846 C 0.78724 0.26036 0.94795 0.0
C847 C 0.75965 0.26181 0.86217 0.0
H848 H 0.90166 0.44604 0.70794 0.0
H849 H 0.9215 0.41936 0.74806 0.0
H850 H 0.83616 0.34347 0.72246 0.0
H851 H 0.81497 0.37085 0.68528 0.0
H852 H 0.73764 0.18675 0.92534 0.0
H853 H 0.72934 0.20602 0.8754 0.0
H854 H 0.79621 0.29462 0.91786 0.0
H855 H 0.80406 0.27555 0.96773 0.0
Dy856 Dy 0.82859 0.79468 0.82517 0.0
Dy857 Dy 0.86746 0.86386 0.86045 0.0
C858 C 0.84495 0.80897 0.90123 0.0
O859 O 0.78969 0.81695 0.83492 0.0
O860 O 0.81773 0.86474 0.86416 0.0
O861 O 0.78836 0.76644 0.79058 0.0
O862 O 0.82274 0.74598 0.81138 0.0
O863 O 0.84836 0.86876 0.81102 0.0
O864 O 0.84688 0.82037 0.78774 0.0
O865 O 0.90533 0.8447 0.8427 0.0
O866 O 0.87935 0.79256 0.83051 0.0
O867 O 0.9008 0.90826 0.86038 0.0
O868 O 0.88263 0.89864 0.90312 0.0
C869 C 0.79052 0.84394 0.85183 0.0
O870 O 0.82645 0.79063 0.87602 0.0
O871 O 0.86587 0.83497 0.89914 0.0
C872 C 0.77144 0.7141 0.79796 0.0
C873 C 0.74889 0.65534 0.81377 0.0
C874 C 0.7529 0.68222 0.83629 0.0
C875 C 0.76455 0.71163 0.82848 0.0
C876 C 0.76155 0.68781 0.77407 0.0
C877 C 0.75004 0.65846 0.78185 0.0
C878 C 0.79583 0.74092 0.79317 0.0
C879 C 0.84766 0.849 0.78549 0.0
C880 C 0.90559 0.81569 0.83402 0.0
C881 C 0.8888 0.94872 0.8906 0.0
C882 C 0.86498 0.99652 0.87393 0.0
C883 C 0.84627 0.97193 0.88586 0.0
C884 C 0.85806 0.94809 0.89402 0.0
C885 C 0.90864 0.97513 0.88251 0.0
C886 C 0.89679 0.99897 0.87422 0.0
C887 C 0.89791 0.91991 0.88872 0.0
H888 H 0.75126 0.68051 0.86085 0.0
H889 H 0.77174 0.73195 0.84711 0.0
H890 H 0.76643 0.6895 0.7503 0.0
H891 H 0.74675 0.63837 0.76368 0.0
H892 H 0.82165 0.96935 0.88578 0.0
H893 H 0.84225 0.92796 0.90026 0.0
H894 H 0.93245 0.97604 0.87987 0.0
H895 H 0.91176 0.01799 0.8655 0.0
Dy896 Dy 0.62402 0.57741 0.59338 0.0
Dy897 Dy 0.55361 0.54149 0.56018 0.0
C898 C 0.60709 0.56148 0.51691 0.0
O899 O 0.60478 0.61718 0.58153 0.0
O900 O 0.55494 0.59157 0.55554 0.0
O901 O 0.65234 0.6172 0.6282 0.0
O902 O 0.67306 0.58324 0.60689 0.0
O903 O 0.55087 0.56502 0.60841 0.0
O904 O 0.59728 0.56139 0.63145 0.0
O905 O 0.57225 0.50272 0.57693 0.0
O906 O 0.62504 0.52672 0.58657 0.0
O907 O 0.50744 0.51365 0.56417 0.0
O908 O 0.51793 0.52348 0.51843 0.0
C909 C 0.57772 0.61785 0.56611 0.0
O910 O 0.62741 0.57822 0.5419 0.0
O911 O 0.57999 0.54275 0.51957 0.0
C912 C 0.70308 0.63491 0.61652 0.0
C913 C 0.75412 0.65184 0.58591 0.0
C914 C 0.72472 0.653 0.57161 0.0
C915 C 0.69897 0.64388 0.58674 0.0
C916 C 0.73319 0.64154 0.63372 0.0
C917 C 0.75888 0.65062 0.6186 0.0
C918 C 0.67814 0.61049 0.62445 0.0
C919 C 0.56959 0.56434 0.63395 0.0
C920 C 0.60128 0.5012 0.58365 0.0
C921 C 0.46981 0.52713 0.5313 0.0
C922 C 0.42588 0.55948 0.5412 0.0
C923 C 0.4531 0.57359 0.52975 0.0
C924 C 0.47489 0.55756 0.52486 0.0
C925 C 0.44141 0.51199 0.53992 0.0
C926 C 0.41947 0.52802 0.5447 0.0
C927 C 0.49603 0.51382 0.5349 0.0
H928 H 0.72062 0.65521 0.54685 0.0
H929 H 0.67569 0.63946 0.57338 0.0
H930 H 0.7367 0.63533 0.65704 0.0
H931 H 0.78139 0.65074 0.63094 0.0
H932 H 0.45885 0.59783 0.52704 0.0
H933 H 0.49669 0.56982 0.51823 0.0
H934 H 0.43712 0.48855 0.54502 0.0
H935 H 0.39837 0.51642 0.553 0.0
Dy936 Dy 0.04473 0.55455 0.07549 0.0
Dy937 Dy 0.10298 0.56225 0.03651 0.0
C938 C 1.0378 0.56707 1.0041 0.0
O939 O 0.03969 0.50441 0.05362 0.0
O940 O 0.08842 0.51069 0.04045 0.0
O941 O 0.99534 0.53594 0.07531 0.0
O942 O 1.0259 0.56526 0.11769 0.0
O943 O 0.12273 0.56681 0.08759 0.0
O944 O 0.07977 0.54085 0.10653 0.0
O945 O 0.09768 0.61147 0.04382 0.0
O946 O 0.07046 0.60667 0.08525 0.0
O947 O 0.15079 0.58537 0.03283 0.0
O948 O 0.12351 0.5454 0.99774 0.0
C949 C 0.06156 0.4923 0.04481 0.0
O950 O 1.03048 0.57202 0.03223 0.0
O951 O 0.06182 0.55703 0.99945 0.0
C952 C 0.9771 0.57321 0.10296 0.0
C953 C 0.93735 0.6113 0.09778 0.0
C954 C 0.96761 0.62089 0.09043 0.0
C955 C 0.98721 0.60192 0.09282 0.0
C956 C 0.94708 0.56351 0.11044 0.0
C957 C 0.9273 0.58239 0.10785 0.0
C958 C 0.99706 0.55255 0.10299 0.0
C959 C 0.11005 0.5514 0.10859 0.0
C960 C 0.08587 0.62431 0.06681 0.0
C961 C 0.17403 0.54636 0.01917 0.0
C962 C 0.21627 0.51394 0.03841 0.0
C963 C 0.19098 0.51419 0.05417 0.0
C964 C 0.17003 0.53007 0.04454 0.0
C965 C 0.19896 0.5459 1.0029 0.0
C966 C 0.21996 0.52957 1.01239 0.0
C967 C 0.15151 0.56323 1.01051 0.0
H968 H 0.97624 0.64312 0.083 0.0
H969 H 1.01018 0.6095 0.08638 0.0
H970 H 0.93875 0.54114 0.11772 0.0
H971 H 0.90393 0.57408 0.11319 0.0
H972 H 0.18732 0.50199 0.07398 0.0
H973 H 0.15068 0.52974 0.05708 0.0
H974 H 0.20225 0.5582 0.98314 0.0
H975 H 0.23938 0.52971 0.99992 0.0
C976 C 1.0221 0.17257 1.00576 0.0
C977 C 1.03833 0.20251 0.0236 0.0
H978 H 1.01484 0.123 0.99839 0.0
C979 C 0.06082 0.20323 0.05004 0.0
H980 H 1.00488 0.17045 0.98501 0.0
C981 C 0.06722 0.17537 0.05747 0.0
C982 C 0.05109 0.14546 0.03912 0.0
H983 H 0.07452 0.22545 0.06421 0.0
H984 H 0.08525 0.17738 0.07743 0.0
C985 C 1.02799 0.14494 1.01346 0.0
C986 C 0.19815 0.85319 0.21973 0.0
C987 C 0.19739 0.85053 0.1867 0.0
H988 H 0.22419 0.85468 0.26524 0.0
C989 C 0.22512 0.85057 0.17495 0.0
H990 H 0.17736 0.85347 0.22976 0.0
C991 C 0.25223 0.8511 0.19551 0.0
C992 C 0.25226 0.85175 0.22831 0.0
H993 H 0.22542 0.84843 0.1497 0.0
H994 H 0.27273 0.84969 0.18545 0.0
C995 C 0.22513 0.85386 0.24019 0.0
C996 C 0.58437 0.91095 0.54777 0.0
C997 C 0.55371 0.89026 0.53981 0.0
H998 H 0.61391 0.95869 0.55792 0.0
C999 C 0.52899 0.90403 0.53808 0.0
H1000 H 0.60419 0.90172 0.54842 0.0
C1001 C 0.53448 0.93677 0.54355 0.0
C1002 C 0.56507 0.95754 0.5502 0.0
H1003 H 0.50504 0.88929 0.53132 0.0
H1004 H 0.51453 0.94579 0.54141 0.0
C1005 C 0.58993 0.94388 0.55269 0.0
C1006 C 0.53614 0.27629 0.73161 0.0
C1007 C 0.54306 0.30118 0.71485 0.0
H1008 H 0.5081 0.25375 0.76282 0.0
C1009 C 0.52629 0.3231 0.71717 0.0
H1010 H 0.54849 0.25883 0.73005 0.0
C1011 C 0.50335 0.32042 0.73646 0.0
C1012 C 0.49667 0.29562 0.75348 0.0
H1013 H 0.53129 0.34258 0.7046 0.0
H1014 H 0.49125 0.33805 0.73846 0.0
C1015 C 0.51313 0.27347 0.75059 0.0
C1016 C 0.11464 0.86216 0.65407 0.0
C1017 C 0.10055 0.86691 0.68082 0.0
H1018 H 0.12642 0.87701 0.61114 0.0
C1019 C 0.08752 0.89174 0.68465 0.0
H1020 H 0.12459 0.843 0.65018 0.0
C1021 C 0.08904 0.91171 0.66233 0.0
C1022 C 0.10333 0.90701 0.6356 0.0
H1023 H 0.07655 0.89598 0.70505 0.0
H1024 H 0.07949 0.93112 0.66633 0.0
C1025 C 0.11585 0.8818 0.6317 0.0
C1026 C 0.49578 0.8338 0.8789 0.0
C1027 C 0.51609 0.85845 0.86798 0.0
H1028 H 0.44854 0.80978 0.88341 0.0
C1029 C 0.50196 0.87833 0.85289 0.0
H1030 H 0.50531 0.81796 0.89082 0.0
C1031 C 0.46922 0.87405 0.84925 0.0
C1032 C 0.44887 0.84936 0.86007 0.0
H1033 H 0.51638 0.8978 0.84432 0.0
H1034 H 0.4598 0.89014 0.83765 0.0
C1035 C 0.46293 0.82915 0.87471 0.0
C1036 C 0.55014 0.18885 0.15237 0.0
C1037 C 0.54925 0.18766 0.18476 0.0
H1038 H 0.55594 0.16664 0.10753 0.0
C1039 C 0.55025 0.15986 0.19548 0.0
H1040 H 0.54916 0.20966 0.14299 0.0
C1041 C 0.55416 0.13485 0.17481 0.0
C1042 C 0.5573 0.13711 0.14297 0.0
H1043 H 0.54974 0.15804 0.2202 0.0
H1044 H 0.55612 0.1143 0.18419 0.0
C1045 C 0.55417 0.16409 0.13189 0.0
C1046 C 0.21079 0.35701 0.35384 0.0
C1047 C 0.18249 0.33294 0.34208 0.0
H1048 H 0.26122 0.37249 0.35879 0.0
C1049 C 0.18525 0.30525 0.32488 0.0
H1050 H 0.2102 0.37868 0.36738 0.0
C1051 C 0.21475 0.30164 0.31996 0.0
C1052 C 0.24313 0.32548 0.33206 0.0
H1053 H 0.16448 0.28592 0.31547 0.0
H1054 H 0.21524 0.27972 0.30684 0.0
C1055 C 0.24038 0.35337 0.34896 0.0
C1056 C 1.00082 0.05165 0.17392 0.0
C1057 C 1.02182 0.05086 0.20087 0.0
H1058 H 0.99345 0.05386 0.12416 0.0
C1059 C 0.05268 0.05232 0.19727 0.0
H1060 H 0.97678 0.05047 0.17559 0.0
C1061 C 0.06225 0.05443 0.16769 0.0
C1062 C 0.04119 0.05492 0.14068 0.0
H1063 H 0.06953 0.05176 0.21731 0.0
H1064 H 0.08625 0.05541 0.16603 0.0
C1065 C 1.01033 0.05353 0.14426 0.0
C1066 C 0.30859 0.72677 0.49972 0.0
C1067 C 0.30875 0.74615 0.52804 0.0
H1068 H 0.30071 0.71981 0.44886 0.0
C1069 C 0.30222 0.77461 0.52654 0.0
H1070 H 0.3134 0.70465 0.50017 0.0
C1071 C 0.29515 0.7833 0.4973 0.0
C1072 C 0.29406 0.76353 0.46897 0.0
H1073 H 0.30218 0.79003 0.54797 0.0
H1074 H 0.28971 0.80513 0.49683 0.0
C1075 C 0.30108 0.73529 0.47041 0.0
C1076 C 0.68063 0.03424 0.67082 0.0
C1077 C 0.67261 0.0392 0.70107 0.0
H1078 H 0.66871 0.03477 0.62157 0.0
C1079 C 0.6427 0.04221 0.70367 0.0
H1080 H 0.70336 0.03164 0.66788 0.0
C1081 C 0.62264 0.04373 0.67683 0.0
C1082 C 0.63253 0.04273 0.6473 0.0
H1083 H 0.63579 0.04584 0.72669 0.0
H1084 H 0.60052 0.04797 0.6796 0.0
C1085 C 0.66095 0.03648 0.64426 0.0
C1086 C 0.31312 0.35775 0.97082 0.0
C1087 C 0.33638 0.3499 0.99021 0.0
H1088 H 0.29276 0.35905 0.92334 0.0
C1089 C 0.35674 0.33623 0.97555 0.0
H1090 H 0.29713 0.36844 0.98133 0.0
C1091 C 0.35471 0.33155 0.94255 0.0
C1092 C 0.3319 0.3399 0.92313 0.0
H1093 H 0.37507 0.33007 0.98964 0.0
H1094 H 0.37122 0.32148 0.93225 0.0
C1095 C 0.31068 0.35247 0.9376 0.0
C1096 C 1.0308 0.07381 0.40671 0.0
C1097 C 0.04602 0.05771 0.38693 0.0
H1098 H 1.02484 0.08884 0.45427 0.0
C1099 C 0.0686 0.04532 0.40138 0.0
H1100 H 1.01314 0.08353 0.39652 0.0
C1101 C 0.07519 0.04819 0.43452 0.0
C1102 C 0.05935 0.06349 0.45431 0.0
H1103 H 0.08074 0.03265 0.38704 0.0
H1104 H 0.09242 0.0379 0.44455 0.0
C1105 C 1.03737 0.07666 0.43992 0.0
C1106 C 0.37268 0.78188 0.70485 0.0
C1107 C 0.36563 0.74932 0.70053 0.0
H1108 H 0.37566 0.82367 0.73598 0.0
C1109 C 0.36009 0.73421 0.72659 0.0
H1110 H 0.37715 0.79413 0.68521 0.0
C1111 C 0.35856 0.75104 0.75558 0.0
C1112 C 0.36303 0.78328 0.75905 0.0
H1113 H 0.35452 0.70909 0.72397 0.0
H1114 H 0.35264 0.73862 0.7748 0.0
C1115 C 0.37156 0.79873 0.7339 0.0
C1116 C 0.69016 0.1355 0.87415 0.0
C1117 C 0.70875 0.1155 0.86894 0.0
H1118 H 0.66647 0.15615 0.90699 0.0
C1119 C 0.71901 0.10192 0.89407 0.0
H1120 H 0.68204 0.14647 0.8553 0.0
C1121 C 0.71006 0.10752 0.92359 0.0
C1122 C 0.69099 0.12701 0.92852 0.0
H1123 H 0.73341 0.08649 0.89078 0.0
H1124 H 0.71774 0.09637 0.94251 0.0
C1125 C 0.68136 0.14121 0.90371 0.0
C1126 C 0.33568 0.33166 0.17439 0.0
C1127 C 0.33212 0.36114 0.17152 0.0
H1128 H 0.33709 0.29792 0.20466 0.0
C1129 C 0.32588 0.37879 0.19806 0.0
H1130 H 0.34052 0.31738 0.15453 0.0
C1131 C 0.32417 0.36774 0.2268 0.0
C1132 C 0.3284 0.33861 0.22993 0.0
H1133 H 0.32298 0.40157 0.19694 0.0
H1134 H 0.31991 0.38236 0.24676 0.0
C1135 C 0.33371 0.32047 0.20318 0.0
C1136 C 0.32753 0.14848 0.06901 0.0
C1137 C 0.32083 0.12077 0.04697 0.0
H1138 H 0.30879 0.18174 0.09345 0.0
C1139 C 0.29135 0.10919 0.02758 0.0
H1140 H 0.35031 0.15829 0.08389 0.0
C1141 C 0.26778 0.12278 0.03281 0.0
C1142 C 0.27323 0.14804 0.05776 0.0
H1143 H 0.28572 0.08823 1.00993 0.0
H1144 H 0.24449 0.11124 0.01955 0.0
C1145 C 0.30385 0.16204 0.07438 0.0
C1146 C 0.69171 0.68754 0.05702 0.0
C1147 C 0.71954 0.6792 0.06229 0.0
H1148 H 0.64208 0.67384 0.05525 0.0
C1149 C 0.71785 0.64913 0.06863 0.0
H1150 H 0.69214 0.71043 0.05207 0.0
C1151 C 0.68938 0.62842 0.07105 0.0
C1152 C 0.66171 0.63707 0.06692 0.0
H1153 H 0.73877 0.64175 0.07275 0.0
H1154 H 0.68922 0.60578 0.0766 0.0
C1155 C 0.66307 0.6666 0.05915 0.0
C1156 C 0.72732 0.49546 0.32141 0.0
C1157 C 0.73223 0.52173 0.30659 0.0
H1158 H 0.73991 0.45402 0.32747 0.0
C1159 C 0.75435 0.52628 0.28611 0.0
H1160 H 0.71029 0.49124 0.33714 0.0
C1161 C 0.77137 0.50516 0.28068 0.0
C1162 C 0.76665 0.47894 0.29558 0.0
H1163 H 0.75874 0.54634 0.27432 0.0
H1164 H 0.78868 0.50971 0.26528 0.0
C1165 C 0.74435 0.47423 0.31593 0.0
C1166 C 0.93615 0.50021 0.54785 0.0
C1167 C 0.91733 0.51778 0.53638 0.0
H1168 H 0.98179 0.50008 0.56769 0.0
C1169 C 0.93131 0.54864 0.53277 0.0
H1170 H 0.92605 0.47629 0.55065 0.0
C1171 C 0.96333 0.56239 0.54276 0.0
C1172 C 0.98171 0.54547 0.55644 0.0
H1173 H 0.91736 0.56266 0.52376 0.0
H1174 H 0.97338 0.5866 0.54093 0.0
C1175 C 0.96807 0.51395 0.55788 0.0
C1176 C 0.28664 0.07606 0.33928 0.0
C1177 C 0.31613 0.09262 0.35736 0.0
H1178 H 0.24362 0.07927 0.31463 0.0
C1179 C 0.32148 0.1237 0.37147 0.0
H1180 H 0.28156 0.05178 0.32873 0.0
C1181 C 0.29959 0.13927 0.3637 0.0
C1182 C 0.27222 0.12401 0.34141 0.0
H1183 H 0.34371 0.13683 0.38613 0.0
H1184 H 0.30614 0.16417 0.37208 0.0
C1185 C 0.26476 0.09169 0.33138 0.0
C1186 C 0.40531 0.17202 0.56765 0.0
C1187 C 0.37903 0.16743 0.58277 0.0
H1188 H 0.44568 0.15775 0.55961 0.0
C1189 C 0.37315 0.14393 0.60138 0.0
H1190 H 0.41051 0.19005 0.55329 0.0
C1191 C 0.393 0.12534 0.60479 0.0
C1192 C 0.41936 0.12986 0.5898 0.0
H1193 H 0.35299 0.13966 0.61324 0.0
H1194 H 0.38737 0.10705 0.61879 0.0
C1195 C 0.42534 0.15344 0.57119 0.0
C1196 C 0.7178 0.70601 0.35052 0.0
C1197 C 0.72764 0.67947 0.35337 0.0
H1198 H 0.73116 0.75415 0.34611 0.0
C1199 C 0.75982 0.68229 0.35716 0.0
H1200 H 0.69319 0.70457 0.34748 0.0
C1201 C 0.7816 0.71073 0.35661 0.0
C1202 C 0.77154 0.73673 0.35171 0.0
H1203 H 0.7681 0.66224 0.35955 0.0
H1204 H 0.80613 0.71197 0.35862 0.0
C1205 C 0.73953 0.73431 0.34943 0.0
C1206 C 0.86322 0.44983 0.89189 0.0
C1207 C 0.83819 0.45934 0.87802 0.0
H1208 H 0.88076 0.41094 0.89669 0.0
C1209 C 0.80857 0.43747 0.86821 0.0
H1210 H 0.88624 0.46629 0.90001 0.0
C1211 C 0.80539 0.4059 0.86716 0.0
C1212 C 0.83181 0.39622 0.87569 0.0
H1213 H 0.78879 0.44434 0.85796 0.0
H1214 H 0.78343 0.38905 0.85554 0.0
C1215 C 0.8601 0.41819 0.89032 0.0
C1216 C 0.1263 0.934 0.06772 0.0
C1217 C 0.10356 0.91046 0.0777 0.0
H1218 H 0.13959 0.98012 0.05541 0.0
C1219 C 0.07534 0.91722 0.08197 0.0
H1220 H 0.1485 0.93032 0.06429 0.0
C1221 C 0.0699 0.94568 0.07605 0.0
C1222 C 0.09276 0.96944 0.06652 0.0
H1223 H 0.0571 0.90025 0.0897 0.0
H1224 H 0.04767 0.94927 0.07949 0.0
C1225 C 0.12122 0.96293 0.06272 0.0
C1226 C 0.95252 0.29602 0.89568 0.0
C1227 C 0.94717 0.28755 0.92522 0.0
H1228 H 0.93448 0.30888 0.85276 0.0
C1229 C 0.9175 0.28523 0.93349 0.0
H1230 H 0.97513 0.29838 0.88853 0.0
C1231 C 0.89369 0.29061 0.91234 0.0
C1232 C 0.89942 0.29948 0.88298 0.0
H1233 H 0.91257 0.27885 0.95603 0.0
H1234 H 0.87097 0.28832 0.91917 0.0
C1235 C 0.92923 0.30228 0.87514 0.0
C1236 C 0.62517 0.21445 0.57809 0.0
C1237 C 0.60625 0.22621 0.59727 0.0
H1238 H 0.63723 0.17394 0.55709 0.0
C1239 C 0.58356 0.20381 0.60856 0.0
H1240 H 0.64325 0.23048 0.56919 0.0
C1241 C 0.58045 0.17165 0.60215 0.0
C1242 C 0.59979 0.15973 0.58393 0.0
H1243 H 0.5683 0.21124 0.62335 0.0
H1244 H 0.56276 0.15606 0.61196 0.0
C1245 C 0.62191 0.1818 0.57147 0.0
C1246 C 0.62727 0.78957 0.43822 0.0
C1247 C 0.599 0.79618 0.42929 0.0
H1248 H 0.67312 0.79191 0.42846 0.0
C1249 C 0.59485 0.80858 0.40138 0.0
H1250 H 0.63115 0.77975 0.4594 0.0
C1251 C 0.61913 0.81612 0.38399 0.0
C1252 C 0.64804 0.81117 0.39392 0.0
H1253 H 0.57341 0.81403 0.39377 0.0
H1254 H 0.61567 0.82725 0.36368 0.0
C1255 C 0.65145 0.79684 0.42063 0.0
C1256 C 0.08039 0.3031 0.48582 0.0
C1257 C 0.09329 0.29846 0.4582 0.0
H1258 H 0.06169 0.28337 0.524 0.0
C1259 C 0.1001 0.27027 0.44985 0.0
H1260 H 0.07465 0.32446 0.49286 0.0
C1261 C 0.09302 0.24678 0.46805 0.0
C1262 C 0.07864 0.25081 0.49477 0.0
H1263 H 0.11024 0.26605 0.42884 0.0
H1264 H 0.09846 0.22528 0.46089 0.0
C1265 C 0.07298 0.2795 0.50377 0.0
C1266 C 0.67751 0.27679 0.31299 0.0
C1267 C 0.66548 0.293 0.29103 0.0
H1268 H 0.71833 0.26684 0.33628 0.0
C1269 C 0.68764 0.31313 0.27696 0.0
H1270 H 0.66161 0.26078 0.32419 0.0
C1271 C 0.7199 0.31628 0.28348 0.0
C1272 C 0.73207 0.29955 0.30457 0.0
H1273 H 0.67998 0.32629 0.26001 0.0
H1274 H 0.73538 0.33188 0.27152 0.0
C1275 C 0.71023 0.28008 0.31969 0.0
C1276 C 0.62094 0.98255 0.97031 0.0
C1277 C 0.62137 0.95364 0.97864 0.0
H1278 H 0.61527 0.02775 0.98514 0.0
C1279 C 0.61618 0.94864 1.00934 0.0
H1280 H 0.62473 0.98721 0.94693 0.0
C1281 C 0.61002 0.97138 0.03079 0.0
C1282 C 0.60966 1.00026 0.02264 0.0
H1283 H 0.61604 0.92664 0.01667 0.0
H1284 H 0.60562 0.96632 0.05392 0.0
C1285 C 0.61562 1.00579 0.99227 0.0
C1286 C 0.98842 0.82676 0.8109 0.0
C1287 C 0.99461 0.79806 0.81322 0.0
H1288 H 0.95705 0.85497 0.81608 0.0
C1289 C 0.97088 0.77515 0.82273 0.0
H1290 H 1.0056 0.84517 0.80365 0.0
C1291 C 0.94226 0.7805 0.82906 0.0
C1292 C 0.93629 0.80939 0.82717 0.0
H1293 H 0.97413 0.7526 0.8247 0.0
H1294 H 0.92485 0.76194 0.83581 0.0
C1295 C 0.96027 0.83243 0.81816 0.0
C1296 C 0.1082 0.05016 0.90984 0.0
C1297 C 0.11094 0.08 0.90227 0.0
H1298 H 0.09982 0.02059 0.94506 0.0
C1299 C 0.10817 0.10339 0.92566 0.0
H1300 H 0.11029 0.03167 0.89237 0.0
C1301 C 0.1034 0.0974 0.95597 0.0
C1302 C 0.10021 0.06755 0.96352 0.0
H1303 H 0.11042 0.12668 0.92076 0.0
H1304 H 0.10169 0.11612 0.97344 0.0
C1305 C 0.10223 0.04382 0.93997 0.0
C1306 C 0.84115 0.47468 0.64975 0.0
C1307 C 0.8212 0.45722 0.62184 0.0
H1308 H 0.8674 0.47375 0.69418 0.0
C1309 C 0.81114 0.42457 0.61866 0.0
H1310 H 0.84944 0.49986 0.65296 0.0
C1311 C 0.82239 0.40967 0.64176 0.0
C1312 C 0.84339 0.42697 0.66923 0.0
H1313 H 0.79601 0.41024 0.59736 0.0
H1314 H 0.81551 0.38447 0.63719 0.0
C1315 C 0.85193 0.45969 0.67321 0.0
C1316 C 0.53231 0.08438 0.42841 0.0
C1317 C 0.50638 0.09568 0.43074 0.0
H1318 H 0.56681 0.06696 0.45216 0.0
C1319 C 0.49824 0.10234 0.46063 0.0
H1320 H 0.5393 0.07919 0.40569 0.0
C1321 C 0.51391 0.09513 0.48722 0.0
C1322 C 0.5379 0.08106 0.48432 0.0
H1323 H 0.47848 0.1112 0.46321 0.0
H1324 H 0.50632 0.09949 0.50976 0.0
C1325 C 0.54785 0.07699 0.45497 0.0
C1326 C 0.8121 0.80922 0.18457 0.0
C1327 C 0.8274 0.78795 0.17272 0.0
H1328 H 0.79971 0.83225 0.22579 0.0
C1329 C 0.8438 0.77508 0.19464 0.0
H1330 H 0.79903 0.81939 0.16844 0.0
C1331 C 0.84367 0.78187 0.22713 0.0
C1332 C 0.82744 0.8021 0.23906 0.0
H1333 H 0.85603 0.75873 0.18663 0.0
H1334 H 0.85603 0.77073 0.24285 0.0
C1335 C 0.81222 0.81631 0.21744 0.0
C1336 C 0.112 0.05194 0.69984 0.0
C1337 C 0.10849 0.07627 0.72154 0.0
H1338 H 0.10855 0.03197 0.65131 0.0
C1339 C 0.09678 0.09911 0.70966 0.0
H1340 H 0.12123 0.03414 0.70823 0.0
C1341 C 0.09022 0.09838 0.67671 0.0
C1342 C 0.09474 0.07448 0.65504 0.0
H1343 H 0.09435 0.11845 0.72578 0.0
H1344 H 0.08212 0.11678 0.66826 0.0
C1345 C 0.10492 0.05086 0.66712 0.0
C1346 C 0.81627 0.37435 0.45888 0.0
C1347 C 0.80707 0.40138 0.45679 0.0
H1348 H 0.82942 0.33699 0.43456 0.0
C1349 C 0.80091 0.40966 0.42698 0.0
H1350 H 0.821 0.36726 0.48156 0.0
C1351 C 0.80583 0.39229 0.39997 0.0
C1352 C 0.81714 0.3665 0.40243 0.0
H1353 H 0.79371 0.43034 0.42467 0.0
H1354 H 0.80159 0.39963 0.37738 0.0
C1355 C 0.82135 0.35712 0.43197 0.0
C1356 C 0.45049 0.08265 0.25427 0.0
C1357 C 0.42742 0.0616 0.26602 0.0
H1358 H 0.48297 0.08862 0.22183 0.0
C1359 C 0.41687 0.03017 0.25108 0.0
H1360 H 0.45919 0.10693 0.26549 0.0
C1361 C 0.43107 0.01954 0.22673 0.0
C1362 C 0.4554 0.04027 0.21622 0.0
H1363 H 0.39939 1.01327 0.25982 0.0
H1364 H 0.42385 0.9949 0.217 0.0
C1365 C 0.46415 0.07213 0.22937 0.0
C1366 C 0.82708 0.76395 0.96885 0.0
C1367 C 0.82611 0.78757 0.99314 0.0
H1368 H 0.83296 0.75195 0.92046 0.0
C1369 C 0.83291 0.81832 0.98732 0.0
H1370 H 0.82165 0.73999 0.97248 0.0
C1371 C 0.84052 0.82531 0.958 0.0
C1372 C 0.84035 0.80157 0.9333 0.0
H1373 H 0.83226 0.83701 1.00546 0.0
H1374 H 0.8453 0.8492 0.95422 0.0
C1375 C 0.83348 0.77077 0.93905 0.0
C1376 C 0.8709 0.05674 0.08615 0.0
C1377 C 0.86206 0.08298 0.07967 0.0
H1378 H 0.89111 0.02132 0.07019 0.0
C1379 C 0.86383 0.09162 0.0497 0.0
H1380 H 0.86943 0.04929 0.10889 0.0
C1381 C 0.87599 0.07529 0.02725 0.0
C1382 C 0.88628 0.04996 0.03439 0.0
H1383 H 0.85679 0.11156 0.04394 0.0
H1384 H 0.87847 0.08315 1.00482 0.0
C1385 C 0.88281 0.04036 0.06372 0.0
C1386 C 0.44192 0.498 0.10322 0.0
C1387 C 0.43658 0.46595 0.09277 0.0
H1388 H 0.47221 0.54414 0.10695 0.0
C1389 C 0.4592 0.456 0.07819 0.0
H1390 H 0.42499 0.50649 0.11452 0.0
C1391 C 0.48627 0.47769 0.07359 0.0
C1392 C 0.49132 0.50977 0.08358 0.0
H1393 H 0.45576 0.43149 0.06974 0.0
H1394 H 0.50314 0.46926 0.0621 0.0
C1395 C 0.46898 0.51963 0.09873 0.0
C1396 C 0.40688 0.62192 0.80672 0.0
C1397 C 0.4358 0.62175 0.8232 0.0
H1398 H 0.36908 0.64211 0.80534 0.0
C1399 C 0.44885 0.6427 0.85183 0.0
H1400 H 0.39615 0.60606 0.7846 0.0
C1401 C 0.43322 0.66334 0.86376 0.0
C1402 C 0.40413 0.66323 0.84741 0.0
H1403 H 0.47104 0.64304 0.86513 0.0
H1404 H 0.44369 0.67912 0.88598 0.0
C1405 C 0.39119 0.64236 0.81874 0.0
C1406 C 0.21663 0.65837 0.63506 0.0
C1407 C 0.23532 0.64498 0.61753 0.0
H1408 H 0.17075 0.65322 0.64643 0.0
C1409 C 0.22279 0.6149 0.59959 0.0
H1410 H 0.22608 0.68151 0.6492 0.0
C1411 C 0.19127 0.59917 0.59752 0.0
C1412 C 0.17243 0.61292 0.61433 0.0
H1413 H 0.23692 0.60427 0.58587 0.0
H1414 H 0.18134 0.57677 0.582 0.0
C1415 C 0.18532 0.64215 0.63382 0.0
C1416 C 0.80773 0.03827 0.84486 0.0
C1417 C 0.81294 0.03893 0.8135 0.0
H1418 H 0.82079 0.02475 0.88919 0.0
C1419 C 0.83749 0.02872 0.80356 0.0
H1420 H 0.78912 0.0463 0.85322 0.0
C1421 C 0.85574 1.01691 0.82416 0.0
C1422 C 0.84974 1.01491 0.85508 0.0
H1423 H 0.84228 0.02926 0.77964 0.0
H1424 H 0.8735 1.00781 0.81525 0.0
C1425 C 0.82591 0.02616 0.86548 0.0
C1426 C 0.78264 0.98954 0.60741 0.0
C1427 C 0.79209 0.9682 0.58722 0.0
H1428 H 0.75465 0.02073 0.61128 0.0
C1429 C 0.78041 0.96215 0.5545 0.0
H1430 H 0.79134 0.99468 0.63271 0.0
C1431 C 0.75983 0.97758 0.54216 0.0
C1432 C 0.75029 0.9987 0.56251 0.0
H1433 H 0.78762 0.946 0.53842 0.0
H1434 H 0.75101 0.97269 0.5169 0.0
C1435 C 0.76174 1.00446 0.59519 0.0
C1436 C 0.44488 0.43656 0.80791 0.0
C1437 C 0.43521 0.46337 0.80622 0.0
H1438 H 0.43174 0.38842 0.81247 0.0
C1439 C 0.40379 0.4617 0.80762 0.0
H1440 H 0.46892 0.43711 0.80688 0.0
C1441 C 0.38266 0.43402 0.81125 0.0
C1442 C 0.39234 0.40726 0.81315 0.0
H1443 H 0.39558 0.48195 0.80652 0.0
H1444 H 0.3587 0.43362 0.8125 0.0
C1445 C 0.42359 0.40869 0.81111 0.0
C1446 C 0.30838 0.6923 0.25723 0.0
C1447 C 0.27606 0.67813 0.25415 0.0
H1448 H 0.34455 0.7349 0.25919 0.0
C1449 C 0.25507 0.69458 0.24536 0.0
H1450 H 0.32495 0.67979 0.26363 0.0
C1451 C 0.26613 0.72549 0.24207 0.0
C1452 C 0.29838 0.74068 0.24809 0.0
H1453 H 0.23 0.68385 0.24198 0.0
H1454 H 0.2493 0.73803 0.23674 0.0
C1455 C 0.31955 0.72362 0.25436 0.0
C1456 C 0.59408 0.70684 0.56455 0.0
C1457 C 0.56576 0.70945 0.54844 0.0
H1458 H 0.62009 0.67734 0.5826 0.0
C1459 C 0.54112 0.68125 0.53871 0.0
H1460 H 0.6139 0.72747 0.57242 0.0
C1461 C 0.54472 0.65202 0.54454 0.0
C1462 C 0.5732 0.64941 0.56039 0.0
H1463 H 0.51891 0.68164 0.52609 0.0
H1464 H 0.52506 0.63131 0.53629 0.0
C1465 C 0.59769 0.67768 0.57039 0.0
C1466 C 0.70488 0.34145 0.74251 0.0
C1467 C 0.70706 0.34108 0.71013 0.0
H1468 H 0.72629 0.33812 0.78867 0.0
C1469 C 0.73522 0.33917 0.70045 0.0
H1470 H 0.68362 0.34293 0.75099 0.0
C1471 C 0.75976 0.33601 0.72224 0.0
C1472 C 0.75693 0.33494 0.75433 0.0
H1473 H 0.73768 0.33839 0.67573 0.0
H1474 H 0.78042 0.33309 0.71357 0.0
C1475 C 0.72938 0.33848 0.76422 0.0
C1476 C 0.07073 0.40965 0.02086 0.0
C1477 C 0.04638 0.38991 0.0328 0.0
H1478 H 0.09487 0.45638 0.01542 0.0
C1479 C 1.02727 0.40455 0.04887 0.0
H1480 H 0.08598 0.39973 1.00817 0.0
C1481 C 1.03192 0.43721 0.05242 0.0
C1482 C 0.05626 0.45699 0.04053 0.0
H1483 H 1.00807 0.39059 0.05826 0.0
H1484 H 1.01636 0.44701 0.06474 0.0
C1485 C 0.07577 0.44243 0.02495 0.0
C1486 C 1.03383 0.77843 0.22716 0.0
C1487 C 1.03702 0.80198 0.20857 0.0
H1488 H 1.01087 0.75676 0.26218 0.0
C1489 C 1.01882 0.82255 0.21184 0.0
H1490 H 0.04733 0.76201 0.22501 0.0
C1491 C 0.99818 0.81986 0.23372 0.0
C1492 C 0.99514 0.79636 0.2525 0.0
H1493 H 1.02092 0.84103 0.19796 0.0
H1494 H 0.98504 0.83656 0.23626 0.0
C1495 C 1.01306 0.77555 0.24871 0.0
C1496 C 0.57208 0.37459 0.17905 0.0
C1497 C 0.58251 0.34859 0.17071 0.0
H1498 H 0.56832 0.41827 0.16797 0.0
C1499 C 0.59533 0.34574 0.14282 0.0
H1500 H 0.56216 0.37737 0.20046 0.0
C1501 C 0.59848 0.36878 0.12406 0.0
C1502 C 0.58916 0.39541 0.13288 0.0
H1503 H 0.60322 0.32574 0.13552 0.0
H1504 H 0.60841 0.36579 0.10269 0.0
C1505 C 0.5755 0.39789 0.16036 0.0
C1506 C 0.98068 0.31375 0.33934 0.0
C1507 C 1.00129 0.34431 0.34798 0.0
H1508 H 0.9328 0.28427 0.32834 0.0
C1509 C 0.9875 0.36891 0.34994 0.0
H1510 H 0.99 0.29405 0.33844 0.0
C1511 C 0.95468 0.36338 0.34407 0.0
C1512 C 0.93395 0.33289 0.33681 0.0
H1513 H 1.00225 0.39275 0.35716 0.0
H1514 H 0.94554 0.3832 0.3464 0.0
C1515 C 0.94765 0.30815 0.33407 0.0
C1516 C 0.0534 0.67975 0.70609 0.0
C1517 C 0.06052 0.70974 0.69804 0.0
H1518 H 0.04897 0.63113 0.69138 0.0
C1519 C 0.06641 0.71258 0.66705 0.0
H1520 H 0.04884 0.67655 0.72965 0.0
C1521 C 0.06697 0.6869 0.64549 0.0
C1522 C 0.06123 0.6572 0.65383 0.0
H1523 H 0.07175 0.73507 0.65958 0.0
H1524 H 0.07254 0.69053 0.62233 0.0
C1525 C 0.05358 0.65372 0.68414 0.0
C1526 C 0.73303 0.88217 0.88977 0.0
C1527 C 0.70282 0.8636 0.87433 0.0
H1528 H 0.78301 0.89139 0.89485 0.0
C1529 C 0.70182 0.8388 0.85011 0.0
H1530 H 0.73528 0.90109 0.90896 0.0
C1531 C 0.72977 0.83256 0.84241 0.0
C1532 C 0.76002 0.85106 0.85829 0.0
H1533 H 0.67938 0.82324 0.83807 0.0
H1534 H 0.7276 0.81277 0.82427 0.0
C1535 C 0.76076 0.87638 0.88172 0.0
C1536 C 0.56709 0.56055 0.72157 0.0
C1537 C 0.53762 0.56439 0.72479 0.0
H1538 H 0.60032 0.55765 0.69068 0.0
C1539 C 0.51939 0.56945 0.69805 0.0
H1540 H 0.5818 0.55656 0.74152 0.0
C1541 C 0.5299 0.56985 0.66884 0.0
C1542 C 0.55904 0.56536 0.66543 0.0
H1543 H 0.49657 0.5725 0.69943 0.0
H1544 H 0.51491 0.57332 0.64879 0.0
C1545 C 0.5777 0.56112 0.69232 0.0
C1546 C 0.78964 0.17742 1.00696 0.0
C1547 C 0.79152 0.19572 0.03648 0.0
H1548 H 0.78141 0.17377 0.95641 0.0
C1549 C 0.78587 0.22483 0.03745 0.0
H1550 H 0.79369 0.15481 1.00555 0.0
C1551 C 0.77904 0.23571 1.00946 0.0
C1552 C 0.77737 0.21756 0.97993 0.0
H1553 H 0.7871 0.23943 0.05987 0.0
H1554 H 0.77492 0.2583 1.0109 0.0
C1555 C 0.7824 0.18816 0.9789 0.0
C1556 C 0.18235 0.54971 0.16203 0.0
C1557 C 0.17106 0.5458 0.19057 0.0
H1558 H 0.17198 0.5555 0.11393 0.0
C1559 C 0.1388 0.53961 0.19072 0.0
H1560 H 0.2071 0.55461 0.16113 0.0
C1561 C 0.11862 0.53994 0.16352 0.0
C1562 C 0.13047 0.54694 0.13592 0.0
H1563 H 0.12946 0.53646 0.21237 0.0
H1564 H 0.09408 0.53652 0.16472 0.0
C1565 C 0.16228 0.55064 0.13505 0.0
C1566 C 0.82395 0.85884 0.48795 0.0
C1567 C 0.84726 0.85102 0.50729 0.0
H1568 H 0.80278 0.85934 0.4406 0.0
C1569 C 0.86701 0.83657 0.49241 0.0
H1570 H 0.80845 0.87016 0.49854 0.0
C1571 C 0.86423 0.831 0.45924 0.0
C1572 C 0.84129 0.83926 0.43988 0.0
H1573 H 0.88542 0.83046 0.50643 0.0
H1574 H 0.88024 0.8203 0.44879 0.0
C1575 C 0.8208 0.85275 0.45469 0.0
C1576 C 0.57227 0.55303 0.92282 0.0
C1577 C 0.54919 0.56444 0.90781 0.0
H1578 H 0.59564 0.5461 0.96641 0.0
C1579 C 0.53249 0.57927 0.92695 0.0
H1580 H 0.58556 0.5414 0.90895 0.0
C1581 C 0.5381 0.58177 0.96015 0.0
C1582 C 0.56064 0.56959 0.97507 0.0
H1583 H 0.51442 0.5882 0.91624 0.0
H1584 H 0.52444 0.59286 0.97405 0.0
C1585 C 0.57796 0.55563 0.95592 0.0
C1586 C 0.87114 0.24862 0.19758 0.0
C1587 C 0.86482 0.21703 0.2005 0.0
H1588 H 0.86841 0.29374 0.21708 0.0
C1589 C 0.85456 0.20764 0.22799 0.0
H1590 H 0.8789 0.25641 0.17649 0.0
C1591 C 0.84684 0.22838 0.24998 0.0
C1592 C 0.8508 0.25938 0.24593 0.0
H1593 H 0.84916 0.18346 0.23093 0.0
H1594 H 0.83651 0.21961 0.26948 0.0
C1595 C 0.86454 0.26979 0.22042 0.0
C1596 C 0.1515 0.62176 0.35639 0.0
C1597 C 0.17786 0.61075 0.35789 0.0
H1598 H 0.11772 0.63497 0.38118 0.0
C1599 C 0.19102 0.60537 0.38712 0.0
H1600 H 0.14069 0.62604 0.3342 0.0
C1601 C 0.17801 0.61093 0.41431 0.0
C1602 C 0.15152 0.62185 0.41273 0.0
H1603 H 0.21145 0.59707 0.38905 0.0
H1604 H 0.18886 0.60692 0.4366 0.0
C1605 C 0.13845 0.62715 0.38343 0.0
C1606 C 0.85308 0.84669 0.69755 0.0
C1607 C 0.85208 0.87654 0.69297 0.0
H1608 H 0.85232 0.81465 0.72993 0.0
C1609 C 0.8491 0.89721 0.71918 0.0
H1610 H 0.85538 0.83013 0.67808 0.0
C1611 C 0.84757 0.88843 0.74909 0.0
C1612 C 0.84875 0.85865 0.7537 0.0
H1613 H 0.84832 0.92047 0.71676 0.0
H1614 H 0.84556 0.90508 0.76862 0.0
C1615 C 0.85133 0.83783 0.72742 0.0
C1616 C 0.81904 0.61941 0.57087 0.0
C1617 C 0.80135 0.59081 0.55188 0.0
H1618 H 0.81814 0.66342 0.5952 0.0
C1619 C 0.77145 0.58806 0.53585 0.0
H1620 H 0.84269 0.62262 0.58262 0.0
C1621 C 0.75756 0.61155 0.54278 0.0
C1622 C 0.77328 0.63791 0.56626 0.0
H1623 H 0.75765 0.56667 0.52022 0.0
H1624 H 0.73309 0.6068 0.53289 0.0
C1625 C 0.80516 0.643 0.57776 0.0
C1626 C 0.19475 0.18358 0.53923 0.0
C1627 C 0.22253 0.1753 0.54534 0.0
H1628 H 0.1449 0.1695 0.5355 0.0
C1629 C 0.22065 0.14485 0.55045 0.0
H1630 H 0.19537 0.20675 0.53519 0.0
C1631 C 0.19189 0.1236 0.55096 0.0
C1632 C 0.16425 0.13222 0.54612 0.0
H1633 H 0.2416 0.13756 0.55512 0.0
H1634 H 0.19143 0.10065 0.55572 0.0
C1635 C 0.16588 0.16218 0.53953 0.0
C1636 C 0.22562 1.00164 0.81882 0.0
C1637 C 0.2306 0.02693 0.80254 0.0
H1638 H 0.24089 0.96311 0.83075 0.0
C1639 C 0.25578 0.03291 0.78581 0.0
H1640 H 0.20631 0.9964 0.83178 0.0
C1641 C 0.27576 1.01423 0.78555 0.0
C1642 C 0.27092 0.9889 0.80178 0.0
H1643 H 0.26041 0.05236 0.77318 0.0
H1644 H 0.29537 0.02006 0.77307 0.0
C1645 C 0.24553 0.98271 0.81834 0.0
C1646 C 0.4672 0.07827 1.0064 0.0
C1647 C 0.44454 0.04945 1.0043 0.0
H1648 H 0.51589 0.10342 0.01917 0.0
C1649 C 0.45405 0.02231 1.00392 0.0
H1650 H 0.46052 0.09949 1.00614 0.0
C1651 C 0.48561 0.02471 1.01177 0.0
C1652 C 0.50779 0.05408 0.01888 0.0
H1653 H 0.43716 0.99963 1.00162 0.0
H1654 H 0.4923 1.00407 0.01566 0.0
C1655 C 0.49888 0.08055 1.01365 0.0
C1656 C 0.79495 0.60843 0.85086 0.0
C1657 C 0.78496 0.58092 0.82833 0.0
H1658 H 0.79049 0.65358 0.86455 0.0
C1659 C 0.75719 0.57494 0.80651 0.0
H1660 H 0.81585 0.61335 0.86848 0.0
C1661 C 0.74205 0.59792 0.8046 0.0
C1662 C 0.75473 0.62725 0.82423 0.0
H1663 H 0.74843 0.55349 0.78939 0.0
H1664 H 0.72228 0.59383 0.7858 0.0
C1665 C 0.77994 0.63137 0.8489 0.0
C1666 C 0.89566 0.66729 0.06797 0.0
C1667 C 0.87641 0.66953 0.09077 0.0
H1668 H 0.92957 0.64649 0.05184 0.0
C1669 C 0.87754 0.65279 0.11586 0.0
H1670 H 0.89517 0.67986 0.04832 0.0
C1671 C 0.8974 0.6341 0.11813 0.0
C1672 C 0.91645 0.63146 0.09522 0.0
H1673 H 0.8632 0.65424 0.13401 0.0
H1674 H 0.89805 0.62199 0.13812 0.0
C1675 C 0.91543 0.64831 0.0701 0.0
C1676 C 0.25238 0.18586 0.84077 0.0
C1677 C 0.2201 0.18215 0.83426 0.0
H1678 H 0.29874 0.21626 0.84458 0.0
C1679 C 0.20988 0.20775 0.82796 0.0
H1680 H 0.26093 0.16651 0.84569 0.0
C1681 C 0.23154 0.23606 0.82657 0.0
C1682 C 0.26382 0.23949 0.83214 0.0
H1683 H 0.18514 0.2055 0.82259 0.0
H1684 H 0.22293 0.25506 0.82062 0.0
C1685 C 0.27403 0.21434 0.84005 0.0
C1686 C 0.37049 0.96306 0.37776 0.0
C1687 C 0.39749 0.97845 0.36647 0.0
H1688 H 0.33287 0.92081 0.37241 0.0
C1689 C 0.41068 0.96123 0.34565 0.0
H1690 H 0.36006 0.97575 0.39414 0.0
C1691 C 0.39475 0.93038 0.33281 0.0
C1692 C 0.36603 0.91615 0.34136 0.0
H1693 H 0.43169 0.97226 0.33688 0.0
H1694 H 0.404 0.91815 0.31483 0.0
C1695 C 0.35486 0.93182 0.36531 0.0
C1696 C 0.64164 0.4353 0.5903 0.0
C1697 C 0.61899 0.41123 0.59963 0.0
H1698 H 0.65457 0.48167 0.57877 0.0
C1699 C 0.59029 0.41732 0.6033 0.0
H1700 H 0.66415 0.43219 0.5873 0.0
C1701 C 0.58444 0.44573 0.59756 0.0
C1702 C 0.60729 0.47002 0.58875 0.0
H1703 H 0.57204 0.39989 0.61047 0.0
H1704 H 0.56195 0.44887 0.60066 0.0
C1705 C 0.63612 0.46407 0.58545 0.0
C1706 C 0.45263 0.83105 0.37544 0.0
C1707 C 0.44587 0.8112 0.39775 0.0
H1708 H 0.43533 0.84858 0.33543 0.0
C1709 C 0.41476 0.79281 0.39558 0.0
H1710 H 0.47629 0.84549 0.37622 0.0
C1711 C 0.391 0.79471 0.37206 0.0
C1712 C 0.39782 0.81477 0.34988 0.0
H1713 H 0.40868 0.77728 0.41233 0.0
H1714 H 0.36723 0.7806 0.37143 0.0
C1715 C 0.42905 0.8327 0.35183 0.0
C1716 C 0.07512 0.70367 0.10008 0.0
C1717 C 0.09349 0.72563 0.08435 0.0
H1718 H 0.05868 0.65652 0.10755 0.0
C1719 C 0.10899 0.71342 0.06148 0.0
H1720 H 0.06256 0.71131 0.11783 0.0
C1721 C 0.10661 0.6809 0.05542 0.0
C1722 C 0.08884 0.65933 0.0721 0.0
H1723 H 0.1237 0.72905 0.04894 0.0
H1724 H 0.11917 0.67275 0.03796 0.0
C1725 C 0.07293 0.67166 0.09423 0.0
C1726 C 0.10874 0.27777 0.8911 0.0
C1727 C 0.10271 0.29755 0.91588 0.0
H1728 H 0.13651 0.27332 0.85511 0.0
C1729 C 0.12053 0.32906 0.92309 0.0
H1730 H 0.09532 0.2534 0.8849 0.0
C1731 C 0.14396 0.34056 0.90567 0.0
C1732 C 0.15011 0.32058 0.88116 0.0
H1733 H 0.11618 0.34487 0.94192 0.0
H1734 H 0.15766 0.36484 0.91174 0.0
C1735 C 0.13227 0.28914 0.87402 0.0
C1736 C 0.62268 0.79932 1.01478 0.0
C1737 C 0.60718 0.79899 0.98433 0.0
H1738 H 0.62287 0.77785 0.05586 0.0
C1739 C 0.57897 0.77558 0.97182 0.0
H1740 H 0.64422 0.81729 0.02533 0.0
C1741 C 0.5668 0.75262 0.98935 0.0
C1742 C 0.58258 0.75283 0.01971 0.0
H1743 H 0.56644 0.77487 0.94846 0.0
H1744 H 0.54545 0.73436 0.97886 0.0
C1745 C 0.61044 0.77665 0.03231 0.0
C1746 C 0.19082 0.79389 0.82842 0.0
C1747 C 0.17946 0.81155 0.80761 0.0
H1748 H 0.23093 0.78229 0.85107 0.0
C1749 C 0.20231 0.83234 0.79479 0.0
H1750 H 0.17447 0.77731 0.83864 0.0
C1751 C 0.23447 0.83486 0.80146 0.0
C1752 C 0.24595 0.81681 0.82148 0.0
H1753 H 0.19526 0.84661 0.77873 0.0
H1754 H 0.25044 0.85111 0.79053 0.0
C1755 C 0.22344 0.79656 0.83529 0.0
C1756 C 0.0788 0.4516 0.51531 0.0
C1757 C 0.08855 0.45582 0.48604 0.0
H1758 H 0.07097 0.47312 0.55977 0.0
C1759 C 0.09872 0.48624 0.47972 0.0
H1760 H 0.07092 0.42843 0.52092 0.0
C1761 C 0.09797 0.51176 0.50166 0.0
C1762 C 0.08801 0.5075 0.53083 0.0
H1763 H 0.10626 0.49023 0.45738 0.0
H1764 H 0.10508 0.53485 0.49572 0.0
C1765 C 0.07899 0.47718 0.53765 0.0
C1766 C 0.47471 0.30763 0.28869 0.0
C1767 C 0.4815 0.27979 0.29398 0.0
H1768 H 0.4426 0.33541 0.29054 0.0
C1769 C 0.45835 0.25811 0.30551 0.0
H1770 H 0.49148 0.32507 0.2798 0.0
C1771 C 0.42967 0.26372 0.31093 0.0
C1772 C 0.42301 0.2917 0.30596 0.0
H1773 H 0.4621 0.23628 0.30981 0.0
H1774 H 0.41269 0.24605 0.31933 0.0
C1775 C 0.44641 0.31363 0.29496 0.0
C1776 C 0.64799 0.57537 0.44533 0.0
C1777 C 0.62333 0.57681 0.42251 0.0
H1778 H 0.66262 0.57035 0.49344 0.0
C1779 C 0.5935 0.57231 0.43088 0.0
H1780 H 0.67135 0.57914 0.43973 0.0
C1781 C 0.58835 0.5663 0.46112 0.0
C1782 C 0.61309 0.56575 0.4843 0.0
H1783 H 0.57408 0.57346 0.41398 0.0
H1784 H 0.56504 0.56309 0.46673 0.0
C1785 C 0.64306 0.5705 0.47611 0.0
C1786 C 0.39586 1.00725 0.1288 0.0
C1787 C 0.36561 1.00816 0.11729 0.0
H1788 H 0.4235 0.98402 0.15463 0.0
C1789 C 0.33984 0.98805 0.12641 0.0
H1790 H 0.41613 0.02201 0.12158 0.0
C1791 C 0.34416 0.96673 0.14586 0.0
C1792 C 0.37432 0.96461 0.15603 0.0
H1793 H 0.31624 0.98798 0.11744 0.0
H1794 H 0.32371 0.95083 0.15156 0.0
C1795 C 0.4001 0.98531 0.1475 0.0
C1796 C 0.97272 0.5894 0.95843 0.0
C1797 C 0.97098 0.57334 0.9279 0.0
H1798 H 0.99555 0.59999 1.00673 0.0
C1799 C 0.99421 0.55905 0.92166 0.0
H1800 H 0.9552 0.60069 0.96381 0.0
C1801 C 1.01731 0.55856 0.94616 0.0
C1802 C 1.01732 0.57215 0.97726 0.0
H1803 H 0.99359 0.54681 0.89813 0.0
H1804 H 1.03392 0.546 0.94102 0.0
C1805 C 0.99568 0.58871 0.98299 0.0
C1806 C 0.31135 0.30939 0.6683 0.0
C1807 C 0.32748 0.28834 0.65785 0.0
H1808 H 0.29777 0.33329 0.70825 0.0
C1809 C 0.34439 0.27711 0.6809 0.0
H1810 H 0.29787 0.31832 0.65125 0.0
C1811 C 0.34395 0.28521 0.71316 0.0
C1812 C 0.32675 0.30505 0.72376 0.0
H1813 H 0.35729 0.26104 0.67396 0.0
H1814 H 0.35676 0.27526 0.72978 0.0
C1815 C 0.31106 0.31773 0.70097 0.0
C1816 C 0.59869 0.59951 0.23003 0.0
C1817 C 0.61079 0.57633 0.24057 0.0
H1818 H 0.58197 0.61775 0.18987 0.0
C1819 C 0.61267 0.55192 0.21787 0.0
H1820 H 0.59752 0.61894 0.24692 0.0
C1821 C 0.60363 0.55107 0.18545 0.0
C1822 C 0.5931 0.57503 0.17458 0.0
H1823 H 0.62217 0.53388 0.22519 0.0
H1824 H 0.60615 0.53212 0.16882 0.0
C1825 C 0.59019 0.59903 0.19733 0.0
C1826 C 0.33777 0.90605 0.97731 0.0
C1827 C 0.32218 0.92813 0.97055 0.0
H1828 H 0.35399 0.86821 0.95833 0.0
C1829 C 0.30574 0.92497 0.93991 0.0
H1830 H 0.35039 0.90769 1.00088 0.0
C1831 C 0.3079 0.90247 0.91568 0.0
C1832 C 0.3265 0.88273 0.9217 0.0
H1833 H 0.29323 0.94136 0.93403 0.0
H1834 H 0.29648 0.90182 0.89183 0.0
C1835 C 0.33992 0.88345 0.953 0.0
C1836 C 0.90886 0.52609 0.74413 0.0
C1837 C 0.91726 0.54805 0.77227 0.0
H1838 H 0.92464 0.50434 0.70474 0.0
C1839 C 0.94821 0.56765 0.78052 0.0
H1840 H 0.88526 0.51069 0.73752 0.0
C1841 C 0.97069 0.56395 0.76217 0.0
C1842 C 0.96278 0.54062 0.73511 0.0
H1843 H 0.95544 0.58505 0.80196 0.0
H1844 H 0.99447 0.57899 0.76956 0.0
C1845 C 0.93141 0.52237 0.72563 0.0
C1846 C 0.32168 0.25293 0.45112 0.0
C1847 C 0.32312 0.27831 0.47463 0.0
H1848 H 0.32314 0.23716 0.40208 0.0
C1849 C 0.32932 0.30813 0.46648 0.0
H1850 H 0.31652 0.22959 0.45656 0.0
C1851 C 0.33416 0.31257 0.43573 0.0
C1852 C 0.33173 0.28715 0.4119 0.0
H1853 H 0.33037 0.32809 0.48394 0.0
H1854 H 0.33873 0.3359 0.43027 0.0
C1855 C 0.32531 0.25721 0.41991 0.0
C1856 C 0.38665 0.62329 0.55339 0.0
C1857 C 0.37839 0.6204 0.58339 0.0
H1858 H 0.40745 0.60556 0.51587 0.0
C1859 C 0.38414 0.59629 0.5983 0.0
H1860 H 0.38218 0.64148 0.54122 0.0
C1861 C 0.3984 0.57583 0.58386 0.0
C1862 C 0.40717 0.5789 0.5541 0.0
H1863 H 0.37799 0.59338 0.62141 0.0
H1864 H 0.40355 0.55827 0.59662 0.0
C1865 C 0.40095 0.60269 0.53885 0.0
C1866 C 0.95269 1.00196 0.60223 0.0
C1867 C 0.94756 0.96958 0.59535 0.0
H1868 H 0.98032 0.04707 0.59755 0.0
C1869 C 0.96774 0.95795 0.57828 0.0
H1870 H 0.93753 1.01171 0.61526 0.0
C1871 C 0.99214 0.97829 0.56775 0.0
C1872 C 0.99694 1.01066 0.57422 0.0
H1873 H 0.96426 0.93311 0.57236 0.0
H1874 H 1.00721 0.96859 0.55453 0.0
C1875 C 0.97711 0.02226 0.59183 0.0
C1876 C 0.90454 0.11713 0.28256 0.0
C1877 C 0.92653 0.10922 0.30337 0.0
H1878 H 0.87199 0.14359 0.27738 0.0
C1879 C 0.93238 0.12208 0.33581 0.0
H1880 H 0.89957 0.1075 0.25746 0.0
C1881 C 0.91606 0.14223 0.34729 0.0
C1882 C 0.89423 0.15019 0.32636 0.0
H1883 H 0.94903 0.11609 0.35236 0.0
H1884 H 0.92079 0.15194 0.37237 0.0
C1885 C 0.88874 0.13766 0.29391 0.0
C1886 C 0.71807 0.12838 0.15913 0.0
C1887 C 0.7348 0.10783 0.14964 0.0
H1888 H 0.67311 0.13456 0.16104 0.0
C1889 C 0.71938 0.07582 0.14081 0.0
H1890 H 0.72972 0.15309 0.16664 0.0
C1891 C 0.68679 0.06517 0.13726 0.0
C1892 C 0.66978 0.08656 0.14276 0.0
H1893 H 0.73205 0.05961 0.13359 0.0
H1894 H 0.67493 0.04095 0.12722 0.0
C1895 C 0.68575 0.11775 0.15598 0.0
C1896 C 0.29402 0.53007 0.33413 0.0
C1897 C 0.30257 0.53939 0.30595 0.0
H1898 H 0.30217 0.50447 0.37107 0.0
C1899 C 0.32816 0.53216 0.29485 0.0
H1900 H 0.27454 0.53557 0.34337 0.0
C1901 C 0.34398 0.51463 0.31071 0.0
C1902 C 0.33449 0.5039 0.33798 0.0
H1903 H 0.33549 0.53927 0.27334 0.0
H1904 H 0.36258 0.5081 0.3006 0.0
C1905 C 0.30982 0.51235 0.34998 0.0
C1906 C 0.27119 0.48737 0.09424 0.0
C1907 C 0.27953 0.46542 0.07366 0.0
H1908 H 0.24488 0.52004 0.09905 0.0
C1909 C 0.26744 0.45993 0.04105 0.0
H1910 H 0.2802 0.49223 0.11946 0.0
C1911 C 0.24743 0.47623 0.02928 0.0
C1912 C 0.23888 0.49789 0.05003 0.0
H1913 H 0.27369 0.44331 0.02461 0.0
H1914 H 0.23817 0.4715 1.00412 0.0
C1915 C 0.25098 0.50331 0.08258 0.0
C1916 C 0.89967 0.95364 0.30369 0.0
C1917 C 0.93039 0.9549 0.29933 0.0
H1918 H 0.85729 0.92772 0.31681 0.0
C1919 C 0.94171 0.92974 0.30471 0.0
H1920 H 0.89029 0.97275 0.29999 0.0
C1921 C 0.92272 0.90387 0.31431 0.0
C1922 C 0.89217 0.90285 0.31911 0.0
H1923 H 0.96531 0.93007 0.30169 0.0
H1924 H 0.9321 0.88479 0.31818 0.0
C1925 C 0.88084 0.92797 0.31367 0.0
C1926 C 0.77453 0.18483 0.73703 0.0
C1927 C 0.79347 0.16771 0.74915 0.0
H1928 H 0.76938 0.23005 0.73555 0.0
C1929 C 0.8249 0.1827 0.76252 0.0
H1930 H 0.75026 0.17346 0.72643 0.0
C1931 C 0.83584 0.21522 0.76805 0.0
C1932 C 0.81522 0.23242 0.76013 0.0
H1933 H 0.83972 0.16966 0.77208 0.0
H1934 H 0.85894 0.2267 0.78179 0.0
C1935 C 0.78544 0.2171 0.74231 0.0
loop_
_geom_bond_atom_site_label_1
_geom_bond_atom_site_label_2
_geom_bond_distance
_geom_bond_site_symmetry_2
_ccdc_geom_bond_type
O0 Cd1 2.223 . S
O0 C8 1.315 . S
Cd1 O0 2.223 . S
Cd1 O4 2.297 . S
Cd1 O5 2.439 . S
Cd1 O11 2.240 . S
Cd2 O3 2.240 . S
Cd2 O10 2.223 1_455 S
Cd2 O12 2.297 . S
Cd2 O13 2.439 . S
O3 Cd2 2.240 . S
O3 C8 1.279 . S
O4 Cd1 2.297 . S
O4 C6 1.247 . S
O5 Cd1 2.439 . S
O5 C6 1.208 . S
C6 O4 1.247 . S
C6 O5 1.208 . S
C7 O12 1.247 . S
C7 O13 1.208 . S
C8 O0 1.315 . S
C8 O3 1.279 . S
C9 O10 1.315 . S
C9 O11 1.279 1_655 S
O10 Cd2 2.223 1_655 S
O10 C9 1.315 . S
O11 Cd1 2.240 . S
O11 C9 1.279 1_455 S
O12 Cd2 2.297 . S
O12 C7 1.247 . S
O13 Cd2 2.439 . S
O13 C7 1.208 . S
O14 Cd15 2.223 . S
O14 C22 1.315 . S
Cd15 O14 2.223 . S
Cd15 O18 2.297 1_455 S
Cd15 O19 2.439 1_455 S
Cd15 O25 2.240 . S
Cd16 O17 2.240 . S
Cd16 O24 2.223 . S
Cd16 O26 2.297 . S
Cd16 O27 2.439 . S
O17 Cd16 2.240 . S
O17 C22 1.279 . S
O18 Cd15 2.297 1_655 S
O18 C20 1.247 . S
O19 Cd15 2.439 1_655 S
O19 C20 1.208 . S
C20 O18 1.247 . S
C20 O19 1.208 . S
C21 O26 1.247 . S
C21 O27 1.208 . S
C22 O14 1.315 . S
C22 O17 1.279 . S
C23 O24 1.315 . S
C23 O25 1.279 . S
O24 Cd16 2.223 . S
O24 C23 1.315 . S
O25 Cd15 2.240 . S
O25 C23 1.279 . S
O26 Cd16 2.297 . S
O26 C21 1.247 . S
O27 Cd16 2.439 . S
O27 C21 1.208 . S
O28 Cd29 2.223 . S
O28 C36 1.315 . S
Cd29 O28 2.223 . S
Cd29 O32 2.297 . S
Cd29 O33 2.439 . S
Cd29 O39 2.240 . S
Cd30 O31 2.240 . S
Cd30 O38 2.223 . S
Cd30 O40 2.297 . S
Cd30 O41 2.439 . S
O31 Cd30 2.240 . S
O31 C36 1.279 . S
O32 Cd29 2.297 . S
O32 C34 1.247 . S
O33 Cd29 2.439 . S
O33 C34 1.208 . S
C34 O32 1.247 . S
C34 O33 1.208 . S
C35 O40 1.247 . S
C35 O41 1.208 . S
C36 O28 1.315 . S
C36 O31 1.279 . S
C37 O38 1.315 . S
C37 O39 1.279 . S
O38 Cd30 2.223 . S
O38 C37 1.315 . S
O39 Cd29 2.240 . S
O39 C37 1.279 . S
O40 Cd30 2.297 . S
O40 C35 1.247 . S
O41 Cd30 2.439 . S
O41 C35 1.208 . S
O42 Cd43 2.223 . S
O42 C50 1.315 . S
Cd43 O42 2.223 . S
Cd43 O46 2.297 . S
Cd43 O47 2.439 . S
Cd43 O53 2.240 . S
Cd44 O45 2.240 . S
Cd44 O52 2.223 . S
Cd44 O54 2.297 . S
Cd44 O55 2.439 . S
O45 Cd44 2.240 . S
O45 C50 1.279 . S
O46 Cd43 2.297 . S
O46 C48 1.247 . S
O47 Cd43 2.439 . S
O47 C48 1.208 . S
C48 O46 1.247 . S
C48 O47 1.208 . S
C49 O54 1.247 . S
C49 O55 1.208 . S
C50 O42 1.315 . S
C50 O45 1.279 . S
C51 O52 1.315 . S
C51 O53 1.279 . S
O52 Cd44 2.223 . S
O52 C51 1.315 . S
O53 Cd43 2.240 . S
O53 C51 1.279 . S
O54 Cd44 2.297 . S
O54 C49 1.247 . S
O55 Cd44 2.439 . S
O55 C49 1.208 . S
O56 Cd57 2.223 . S
O56 C64 1.315 . S
Cd57 O56 2.223 . S
Cd57 O60 2.297 . S
Cd57 O61 2.439 . S
Cd57 O67 2.240 . S
Cd58 O59 2.240 . S
Cd58 O66 2.223 . S
Cd58 O68 2.297 . S
Cd58 O69 2.439 . S
O59 Cd58 2.240 . S
O59 C64 1.279 . S
O60 Cd57 2.297 . S
O60 C62 1.247 . S
O61 Cd57 2.439 . S
O61 C62 1.208 . S
C62 O60 1.247 . S
C62 O61 1.208 . S
C63 O68 1.247 . S
C63 O69 1.208 . S
C64 O56 1.315 . S
C64 O59 1.279 . S
C65 O66 1.315 . S
C65 O67 1.279 . S
O66 Cd58 2.223 . S
O66 C65 1.315 . S
O67 Cd57 2.240 . S
O67 C65 1.279 . S
O68 Cd58 2.297 . S
O68 C63 1.247 . S
O69 Cd58 2.439 . S
O69 C63 1.208 . S
O70 Cd71 2.223 . S
O70 C78 1.315 . S
Cd71 O70 2.223 . S
Cd71 O74 2.297 . S
Cd71 O75 2.439 . S
Cd71 O81 2.240 . S
Cd72 O73 2.240 . S
Cd72 O80 2.223 . S
Cd72 O82 2.297 . S
Cd72 O83 2.439 . S
O73 Cd72 2.240 . S
O73 C78 1.279 . S
O74 Cd71 2.297 . S
O74 C76 1.247 . S
O75 Cd71 2.439 . S
O75 C76 1.208 . S
C76 O74 1.247 . S
C76 O75 1.208 . S
C77 O82 1.247 . S
C77 O83 1.208 . S
C78 O70 1.315 . S
C78 O73 1.279 . S
C79 O80 1.315 . S
C79 O81 1.279 . S
O80 Cd72 2.223 . S
O80 C79 1.315 . S
O81 Cd71 2.240 . S
O81 C79 1.279 . S
O82 Cd72 2.297 . S
O82 C77 1.247 . S
O83 Cd72 2.439 . S
O83 C77 1.208 . S
O84 Cd85 2.223 . S
O84 C92 1.315 . S
Cd85 O84 2.223 . S
Cd85 O88 2.297 . S
Cd85 O89 2.439 . S
Cd85 O95 2.240 . S
Cd86 O87 2.240 . S
Cd86 O94 2.223 . S
Cd86 O96 2.297 . S
Cd86 O97 2.439 . S
O87 Cd86 2.240 . S
O87 C92 1.279 . S
O88 Cd85 2.297 . S
O88 C90 1.247 . S
O89 Cd85 2.439 . S
O89 C90 1.208 . S
C90 O88 1.247 . S
C90 O89 1.208 . S
C91 O96 1.247 . S
C91 O97 1.208 . S
C92 O84 1.315 . S
C92 O87 1.279 . S
C93 O94 1.315 . S
C93 O95 1.279 . S
O94 Cd86 2.223 . S
O94 C93 1.315 . S
O95 Cd85 2.240 . S
O95 C93 1.279 . S
O96 Cd86 2.297 . S
O96 C91 1.247 . S
O97 Cd86 2.439 . S
O97 C91 1.208 . S
O98 Cd99 2.223 1_655 S
O98 C106 1.315 . S
Cd99 O98 2.223 1_455 S
Cd99 O102 2.297 . S
Cd99 O103 2.439 . S
Cd99 O109 2.240 1_455 S
Cd100 O101 2.240 1_655 S
Cd100 O108 2.223 1_554 S
Cd100 O110 2.297 . S
Cd100 O111 2.439 1_655 S
O101 Cd100 2.240 1_455 S
O101 C106 1.279 1_454 S
O102 Cd99 2.297 . S
O102 C104 1.247 . S
O103 Cd99 2.439 . S
O103 C104 1.208 . S
C104 O102 1.247 . S
C104 O103 1.208 . S
C105 O110 1.247 1_455 S
C105 O111 1.208 . S
C106 O98 1.315 . S
C106 O101 1.279 1_656 S
C107 O108 1.315 . S
C107 O109 1.279 . S
O108 Cd100 2.223 1_556 S
O108 C107 1.315 . S
O109 Cd99 2.240 1_655 S
O109 C107 1.279 . S
O110 Cd100 2.297 . S
O110 C105 1.247 1_655 S
O111 Cd100 2.439 1_455 S
O111 C105 1.208 . S
O112 Cd113 2.223 . S
O112 C120 1.315 . S
Cd113 O112 2.223 . S
Cd113 O116 2.297 1_565 S
Cd113 O117 2.439 1_565 S
Cd113 O123 2.240 . S
Cd114 O115 2.240 1_565 S
Cd114 O122 2.223 . S
Cd114 O124 2.297 . S
Cd114 O125 2.439 1_565 S
O115 Cd114 2.240 1_545 S
O115 C120 1.279 1_545 S
O116 Cd113 2.297 1_545 S
O116 C118 1.247 . S
O117 Cd113 2.439 1_545 S
O117 C118 1.208 . S
C118 O116 1.247 . S
C118 O117 1.208 . S
C119 O124 1.247 1_545 S
C119 O125 1.208 . S
C120 O112 1.315 . S
C120 O115 1.279 1_565 S
C121 O122 1.315 . S
C121 O123 1.279 . S
O122 Cd114 2.223 . S
O122 C121 1.315 . S
O123 Cd113 2.240 . S
O123 C121 1.279 . S
O124 Cd114 2.297 . S
O124 C119 1.247 1_565 S
O125 Cd114 2.439 1_545 S
O125 C119 1.208 . S
O126 Cd127 2.223 . S
O126 C134 1.315 . S
Cd127 O126 2.223 . S
Cd127 O130 2.297 . S
Cd127 O131 2.439 . S
Cd127 O137 2.240 . S
Cd128 O129 2.240 . S
Cd128 O136 2.223 . S
Cd128 O138 2.297 . S
Cd128 O139 2.439 . S
O129 Cd128 2.240 . S
O129 C134 1.279 . S
O130 Cd127 2.297 . S
O130 C132 1.247 . S
O131 Cd127 2.439 . S
O131 C132 1.208 . S
C132 O130 1.247 . S
C132 O131 1.208 . S
C133 O138 1.247 . S
C133 O139 1.208 . S
C134 O126 1.315 . S
C134 O129 1.279 . S
C135 O136 1.315 . S
C135 O137 1.279 . S
O136 Cd128 2.223 . S
O136 C135 1.315 . S
O137 Cd127 2.240 . S
O137 C135 1.279 . S
O138 Cd128 2.297 . S
O138 C133 1.247 . S
O139 Cd128 2.439 . S
O139 C133 1.208 . S
O140 Cd141 2.223 . S
O140 C148 1.315 . S
Cd141 O140 2.223 . S
Cd141 O144 2.297 . S
Cd141 O145 2.439 . S
Cd141 O151 2.240 . S
Cd142 O143 2.240 . S
Cd142 O150 2.223 . S
Cd142 O152 2.297 . S
Cd142 O153 2.439 . S
O143 Cd142 2.240 . S
O143 C148 1.279 . S
O144 Cd141 2.297 . S
O144 C146 1.247 . S
O145 Cd141 2.439 . S
O145 C146 1.208 . S
C146 O144 1.247 . S
C146 O145 1.208 . S
C147 O152 1.247 . S
C147 O153 1.208 . S
C148 O140 1.315 . S
C148 O143 1.279 . S
C149 O150 1.315 . S
C149 O151 1.279 . S
O150 Cd142 2.223 . S
O150 C149 1.315 . S
O151 Cd141 2.240 . S
O151 C149 1.279 . S
O152 Cd142 2.297 . S
O152 C147 1.247 . S
O153 Cd142 2.439 . S
O153 C147 1.208 . S
O154 Cd155 2.223 . S
O154 C162 1.315 . S
Cd155 O154 2.223 . S
Cd155 O158 2.297 . S
Cd155 O159 2.439 1_554 S
Cd155 O165 2.240 1_554 S
Cd156 O157 2.240 1_556 S
Cd156 O164 2.223 1_556 S
Cd156 O166 2.297 . S
Cd156 O167 2.439 . S
O157 Cd156 2.240 1_554 S
O157 C162 1.279 . S
O158 Cd155 2.297 . S
O158 C160 1.247 . S
O159 Cd155 2.439 1_556 S
O159 C160 1.208 1_556 S
C160 O158 1.247 . S
C160 O159 1.208 1_554 S
C161 O166 1.247 . S
C161 O167 1.208 . S
C162 O154 1.315 . S
C162 O157 1.279 . S
C163 O164 1.315 . S
C163 O165 1.279 1_554 S
O164 Cd156 2.223 1_554 S
O164 C163 1.315 . S
O165 Cd155 2.240 1_556 S
O165 C163 1.279 1_556 S
O166 Cd156 2.297 . S
O166 C161 1.247 . S
O167 Cd156 2.439 . S
O167 C161 1.208 . S
O168 Cd169 2.223 . S
O168 C176 1.315 . S
Cd169 O168 2.223 . S
Cd169 O172 2.297 . S
Cd169 O173 2.439 . S
Cd169 O179 2.240 . S
Cd170 O171 2.240 . S
Cd170 O178 2.223 . S
Cd170 O180 2.309 . S
Cd170 O181 2.439 . S
O171 Cd170 2.240 . S
O171 C176 1.279 . S
O172 Cd169 2.297 . S
O172 C174 1.247 . S
O173 Cd169 2.439 . S
O173 C174 1.208 . S
C174 O172 1.247 . S
C174 O173 1.208 . S
C175 O180 1.243 1_556 S
C175 O181 1.208 1_556 S
C176 O168 1.315 . S
C176 O171 1.279 . S
C177 O178 1.315 . S
C177 O179 1.279 . S
O178 Cd170 2.223 . S
O178 C177 1.315 . S
O179 Cd169 2.240 . S
O179 C177 1.279 . S
O180 Cd170 2.309 . S
O180 C175 1.243 1_554 S
O181 Cd170 2.439 . S
O181 C175 1.208 1_554 S
O182 Cd183 2.223 . S
O182 C190 1.315 . S
Cd183 O182 2.223 . S
Cd183 O186 2.297 . S
Cd183 O187 2.439 . S
Cd183 O193 2.240 . S
Cd184 O185 2.240 . S
Cd184 O192 2.223 . S
Cd184 O194 2.297 . S
Cd184 O195 2.439 . S
O185 Cd184 2.240 . S
O185 C190 1.279 . S
O186 Cd183 2.297 . S
O186 C188 1.247 . S
O187 Cd183 2.439 . S
O187 C188 1.208 . S
C188 O186 1.247 . S
C188 O187 1.208 . S
C189 O194 1.247 . S
C189 O195 1.208 . S
C190 O182 1.315 . S
C190 O185 1.279 . S
C191 O192 1.315 . S
C191 O193 1.279 . S
O192 Cd184 2.223 . S
O192 C191 1.315 . S
O193 Cd183 2.240 . S
O193 C191 1.279 . S
O194 Cd184 2.297 . S
O194 C189 1.247 . S
O195 Cd184 2.439 . S
O195 C189 1.208 . S
O196 Cd197 2.223 . S
O196 C204 1.315 . S
Cd197 O196 2.223 . S
Cd197 O200 2.297 . S
Cd197 O201 2.439 . S
Cd197 O207 2.240 . S
Cd198 O199 2.240 . S
Cd198 O206 2.223 . S
Cd198 O208 2.297 . S
Cd198 O209 2.439 . S
O199 Cd198 2.240 . S
O199 C204 1.279 . S
O200 Cd197 2.297 . S
O200 C202 1.247 . S
O201 Cd197 2.439 . S
O201 C202 1.208 . S
C202 O200 1.247 . S
C202 O201 1.208 . S
C203 O208 1.247 . S
C203 O209 1.208 . S
C204 O196 1.315 . S
C204 O199 1.279 . S
C205 O206 1.315 . S
C205 O207 1.279 . S
O206 Cd198 2.223 . S
O206 C205 1.315 . S
O207 Cd197 2.240 . S
O207 C205 1.279 . S
O208 Cd198 2.297 . S
O208 C203 1.247 . S
O209 Cd198 2.439 . S
O209 C203 1.208 . S
O210 Cd211 2.223 . S
O210 C218 1.315 . S
Cd211 O210 2.223 . S
Cd211 O214 2.297 . S
Cd211 O215 2.439 . S
Cd211 O221 2.240 . S
Cd212 O213 2.240 . S
Cd212 O220 2.223 . S
Cd212 O222 2.297 . S
Cd212 O223 2.439 . S
O213 Cd212 2.240 . S
O213 C218 1.279 . S
O214 Cd211 2.297 . S
O214 C216 1.247 . S
O215 Cd211 2.439 . S
O215 C216 1.208 . S
C216 O214 1.247 . S
C216 O215 1.208 . S
C217 O222 1.247 . S
C217 O223 1.208 . S
C218 O210 1.315 . S
C218 O213 1.279 . S
C219 O220 1.315 . S
C219 O221 1.279 . S
O220 Cd212 2.223 . S
O220 C219 1.315 . S
O221 Cd211 2.240 . S
O221 C219 1.279 . S
O222 Cd212 2.297 . S
O222 C217 1.247 . S
O223 Cd212 2.439 . S
O223 C217 1.208 . S
O224 Cd225 2.223 . S
O224 C232 1.315 . S
Cd225 O224 2.223 . S
Cd225 O228 2.297 . S
Cd225 O229 2.439 . S
Cd225 O235 2.240 1_545 S
Cd226 O227 2.240 . S
Cd226 O234 2.223 1_545 S
Cd226 O236 2.297 . S
Cd226 O237 2.439 . S
O227 Cd226 2.240 . S
O227 C232 1.279 . S
O228 Cd225 2.297 . S
O228 C230 1.247 . S
O229 Cd225 2.439 . S
O229 C230 1.208 . S
C230 O228 1.247 . S
C230 O229 1.208 . S
C231 O236 1.247 . S
C231 O237 1.208 . S
C232 O224 1.315 . S
C232 O227 1.279 . S
C233 O234 1.315 . S
C233 O235 1.279 . S
O234 Cd226 2.223 1_565 S
O234 C233 1.315 . S
O235 Cd225 2.240 1_565 S
O235 C233 1.279 . S
O236 Cd226 2.297 . S
O236 C231 1.247 . S
O237 Cd226 2.439 . S
O237 C231 1.208 . S
O238 Cd239 2.223 . S
O238 C246 1.315 . S
Cd239 O238 2.223 . S
Cd239 O242 2.297 . S
Cd239 O243 2.439 . S
Cd239 O249 2.240 . S
Cd240 O241 2.240 . S
Cd240 O248 2.223 . S
Cd240 O250 2.297 . S
Cd240 O251 2.439 . S
O241 Cd240 2.240 . S
O241 C246 1.279 . S
O242 Cd239 2.297 . S
O242 C244 1.247 . S
O243 Cd239 2.439 . S
O243 C244 1.208 . S
C244 O242 1.247 . S
C244 O243 1.208 . S
C245 O250 1.247 . S
C245 O251 1.208 . S
C246 O238 1.315 . S
C246 O241 1.279 . S
C247 O248 1.315 . S
C247 O249 1.279 . S
O248 Cd240 2.223 . S
O248 C247 1.315 . S
O249 Cd239 2.240 . S
O249 C247 1.279 . S
O250 Cd240 2.297 . S
O250 C245 1.247 . S
O251 Cd240 2.439 . S
O251 C245 1.208 . S
O252 Cd253 2.223 . S
O252 C260 1.315 . S
Cd253 O252 2.223 . S
Cd253 O256 2.297 . S
Cd253 O257 2.439 . S
Cd253 O263 2.240 . S
Cd254 O255 2.240 . S
Cd254 O262 2.223 . S
Cd254 O264 2.297 . S
Cd254 O265 2.439 . S
O255 Cd254 2.240 . S
O255 C260 1.279 . S
O256 Cd253 2.297 . S
O256 C258 1.247 . S
O257 Cd253 2.439 . S
O257 C258 1.208 . S
C258 O256 1.247 . S
C258 O257 1.208 . S
C259 O264 1.247 . S
C259 O265 1.208 . S
C260 O252 1.315 . S
C260 O255 1.279 . S
C261 O262 1.315 . S
C261 O263 1.279 . S
O262 Cd254 2.223 . S
O262 C261 1.315 . S
O263 Cd253 2.240 . S
O263 C261 1.279 . S
O264 Cd254 2.297 . S
O264 C259 1.247 . S
O265 Cd254 2.439 . S
O265 C259 1.208 . S
O266 Cd267 2.223 . S
O266 C274 1.315 . S
Cd267 O266 2.223 . S
Cd267 O270 2.297 . S
Cd267 O271 2.439 . S
Cd267 O277 2.240 . S
Cd268 O269 2.240 . S
Cd268 O276 2.223 . S
Cd268 O278 2.297 . S
Cd268 O279 2.439 . S
O269 Cd268 2.240 . S
O269 C274 1.279 . S
O270 Cd267 2.297 . S
O270 C272 1.247 . S
O271 Cd267 2.439 . S
O271 C272 1.208 . S
C272 O270 1.247 . S
C272 O271 1.208 . S
C273 O278 1.247 . S
C273 O279 1.208 . S
C274 O266 1.315 . S
C274 O269 1.279 . S
C275 O276 1.315 . S
C275 O277 1.279 . S
O276 Cd268 2.223 . S
O276 C275 1.315 . S
O277 Cd267 2.240 . S
O277 C275 1.279 . S
O278 Cd268 2.297 . S
O278 C273 1.247 . S
O279 Cd268 2.439 . S
O279 C273 1.208 . S
O280 Cd281 2.223 . S
O280 C288 1.315 . S
Cd281 O280 2.223 . S
Cd281 O284 2.297 . S
Cd281 O285 2.439 . S
Cd281 O291 2.240 . S
Cd282 O283 2.240 . S
Cd282 O290 2.223 . S
Cd282 O292 2.297 1_554 S
Cd282 O293 2.439 . S
O283 Cd282 2.240 . S
O283 C288 1.279 . S
O284 Cd281 2.297 . S
O284 C286 1.247 . S
O285 Cd281 2.439 . S
O285 C286 1.208 . S
C286 O284 1.247 . S
C286 O285 1.208 . S
C287 O292 1.248 . S
C287 O293 1.208 1_556 S
C288 O280 1.315 . S
C288 O283 1.279 . S
C289 O290 1.315 . S
C289 O291 1.279 . S
O290 Cd282 2.223 . S
O290 C289 1.315 . S
O291 Cd281 2.240 . S
O291 C289 1.279 . S
O292 Cd282 2.297 1_556 S
O292 C287 1.248 . S
O293 Cd282 2.439 . S
O293 C287 1.208 1_554 S
O294 Cd295 2.223 . S
O294 C302 1.315 . S
Cd295 O294 2.223 . S
Cd295 O298 2.297 . S
Cd295 O299 2.439 . S
Cd295 O305 2.240 . S
Cd296 O297 2.240 . S
Cd296 O304 2.223 . S
Cd296 O306 2.297 . S
Cd296 O307 2.439 . S
O297 Cd296 2.240 . S
O297 C302 1.279 . S
O298 Cd295 2.297 . S
O298 C300 1.247 . S
O299 Cd295 2.439 . S
O299 C300 1.208 . S
C300 O298 1.247 . S
C300 O299 1.208 . S
C301 O306 1.247 . S
C301 O307 1.208 . S
C302 O294 1.315 . S
C302 O297 1.279 . S
C303 O304 1.315 . S
C303 O305 1.279 . S
O304 Cd296 2.223 . S
O304 C303 1.315 . S
O305 Cd295 2.240 . S
O305 C303 1.279 . S
O306 Cd296 2.297 . S
O306 C301 1.247 . S
O307 Cd296 2.439 . S
O307 C301 1.208 . S
O308 Cd309 2.223 . S
O308 C316 1.315 . S
Cd309 O308 2.223 . S
Cd309 O312 2.297 . S
Cd309 O313 2.439 . S
Cd309 O319 2.240 . S
Cd310 O311 2.240 . S
Cd310 O318 2.223 . S
Cd310 O320 2.297 . S
Cd310 O321 2.439 . S
O311 Cd310 2.240 . S
O311 C316 1.279 . S
O312 Cd309 2.297 . S
O312 C314 1.247 . S
O313 Cd309 2.439 . S
O313 C314 1.208 . S
C314 O312 1.247 . S
C314 O313 1.208 . S
C315 O320 1.247 . S
C315 O321 1.208 . S
C316 O308 1.315 . S
C316 O311 1.279 . S
C317 O318 1.315 . S
C317 O319 1.279 . S
O318 Cd310 2.223 . S
O318 C317 1.315 . S
O319 Cd309 2.240 . S
O319 C317 1.279 . S
O320 Cd310 2.297 . S
O320 C315 1.247 . S
O321 Cd310 2.439 . S
O321 C315 1.208 . S
O322 Cd323 2.223 . S
O322 C330 1.315 . S
Cd323 O322 2.223 . S
Cd323 O326 2.297 . S
Cd323 O327 2.439 . S
Cd323 O333 2.240 . S
Cd324 O325 2.240 . S
Cd324 O332 2.223 . S
Cd324 O334 2.297 . S
Cd324 O335 2.439 . S
O325 Cd324 2.240 . S
O325 C330 1.279 . S
O326 Cd323 2.297 . S
O326 C328 1.247 . S
O327 Cd323 2.439 . S
O327 C328 1.208 . S
C328 O326 1.247 . S
C328 O327 1.208 . S
C329 O334 1.247 . S
C329 O335 1.208 . S
C330 O322 1.315 . S
C330 O325 1.279 . S
C331 O332 1.315 . S
C331 O333 1.279 . S
O332 Cd324 2.223 . S
O332 C331 1.315 . S
O333 Cd323 2.240 . S
O333 C331 1.279 . S
O334 Cd324 2.297 . S
O334 C329 1.247 . S
O335 Cd324 2.439 . S
O335 C329 1.208 . S
Dy336 O339 2.307 . S
Dy336 O341 2.395 . S
Dy336 O342 2.379 . S
Dy336 O344 2.339 . S
Dy336 O346 2.298 . S
Dy336 O350 2.275 . S
Dy336 C358 2.738 . S
Dy337 O340 2.298 1_655 S
Dy337 O343 2.275 1_655 S
Dy337 O345 2.307 1_655 S
Dy337 O347 2.395 . S
Dy337 O348 2.379 . S
Dy337 O351 2.339 1_655 S
Dy337 C367 2.738 . S
C338 O350 1.254 . S
C338 O351 1.257 . S
O339 Dy336 2.307 . S
O339 C349 1.266 . S
O340 Dy337 2.298 1_455 S
O340 C349 1.236 . S
O341 Dy336 2.395 . S
O341 C358 1.255 . S
O342 Dy336 2.379 . S
O342 C358 1.249 . S
O343 Dy337 2.275 1_455 S
O343 C359 1.254 . S
O344 Dy336 2.339 . S
O344 C359 1.257 . S
O345 Dy337 2.307 1_455 S
O345 C360 1.266 . S
O346 Dy336 2.298 . S
O346 C360 1.236 . S
O347 Dy337 2.395 . S
O347 C367 1.255 . S
O348 Dy337 2.379 . S
O348 C367 1.249 . S
C349 O339 1.266 . S
C349 O340 1.236 . S
O350 Dy336 2.275 . S
O350 C338 1.254 . S
O351 Dy337 2.339 1_455 S
O351 C338 1.257 . S
C352 C355 1.344 . S
C352 C356 1.328 . S
C352 C358 1.516 . S
C353 C354 1.304 . S
C353 C357 1.323 . S
C354 C353 1.304 . S
C354 C355 1.371 . S
C354 H368 0.930 . S
C355 C352 1.344 . S
C355 C354 1.371 . S
C355 H369 0.931 . S
C356 C352 1.328 . S
C356 C357 1.433 . S
C356 H370 0.931 . S
C357 C353 1.323 . S
C357 C356 1.433 . S
C357 H371 0.933 . S
C358 Dy336 2.738 . S
C358 O341 1.255 . S
C358 O342 1.249 . S
C358 C352 1.516 . S
C359 O343 1.254 . S
C359 O344 1.257 . S
C360 O345 1.266 . S
C360 O346 1.236 . S
C361 C364 1.344 . S
C361 C365 1.328 . S
C361 C367 1.516 . S
C362 C363 1.304 . S
C362 C366 1.323 . S
C363 C362 1.304 . S
C363 C364 1.371 . S
C363 H372 0.930 . S
C364 C361 1.344 . S
C364 C363 1.371 . S
C364 H373 0.931 . S
C365 C361 1.328 . S
C365 C366 1.433 . S
C365 H374 0.931 1_554 S
C366 C362 1.323 . S
C366 C365 1.433 . S
C366 H375 0.933 1_554 S
C367 Dy337 2.738 . S
C367 O347 1.255 . S
C367 O348 1.249 . S
C367 C361 1.516 . S
H368 C354 0.930 . S
H369 C355 0.931 . S
H370 C356 0.931 . S
H371 C357 0.933 . S
H372 C363 0.930 . S
H373 C364 0.931 . S
H374 C365 0.931 1_556 S
H375 C366 0.933 1_556 S
Dy376 O379 2.307 . S
Dy376 O381 2.395 . S
Dy376 O382 2.379 . S
Dy376 O384 2.339 . S
Dy376 O386 2.298 . S
Dy376 O390 2.275 . S
Dy376 C398 2.738 . S
Dy377 O380 2.298 . S
Dy377 O383 2.275 . S
Dy377 O385 2.307 . S
Dy377 O387 2.395 . S
Dy377 O388 2.379 . S
Dy377 O391 2.339 . S
Dy377 C407 2.738 . S
C378 O390 1.254 . S
C378 O391 1.257 . S
O379 Dy376 2.307 . S
O379 C389 1.266 . S
O380 Dy377 2.298 . S
O380 C389 1.236 . S
O381 Dy376 2.395 . S
O381 C398 1.255 . S
O382 Dy376 2.379 . S
O382 C398 1.249 . S
O383 Dy377 2.275 . S
O383 C399 1.254 . S
O384 Dy376 2.339 . S
O384 C399 1.257 . S
O385 Dy377 2.307 . S
O385 C400 1.266 . S
O386 Dy376 2.298 . S
O386 C400 1.236 . S
O387 Dy377 2.395 . S
O387 C407 1.255 . S
O388 Dy377 2.379 . S
O388 C407 1.249 . S
C389 O379 1.266 . S
C389 O380 1.236 . S
O390 Dy376 2.275 . S
O390 C378 1.254 . S
O391 Dy377 2.339 . S
O391 C378 1.257 . S
C392 C395 1.344 . S
C392 C396 1.328 . S
C392 C398 1.516 . S
C393 C394 1.304 . S
C393 C397 1.323 . S
C394 C393 1.304 . S
C394 C395 1.371 . S
C394 H408 0.930 . S
C395 C392 1.344 . S
C395 C394 1.371 . S
C395 H409 0.931 . S
C396 C392 1.328 . S
C396 C397 1.433 . S
C396 H410 0.931 . S
C397 C393 1.323 . S
C397 C396 1.433 . S
C397 H411 0.933 . S
C398 Dy376 2.738 . S
C398 O381 1.255 . S
C398 O382 1.249 . S
C398 C392 1.516 . S
C399 O383 1.254 . S
C399 O384 1.257 . S
C400 O385 1.266 . S
C400 O386 1.236 . S
C401 C404 1.344 . S
C401 C405 1.328 . S
C401 C407 1.516 . S
C402 C403 1.304 . S
C402 C406 1.323 . S
C403 C402 1.304 . S
C403 C404 1.371 . S
C403 H412 0.930 . S
C404 C401 1.344 . S
C404 C403 1.371 . S
C404 H413 0.931 . S
C405 C401 1.328 . S
C405 C406 1.433 . S
C405 H414 0.931 . S
C406 C402 1.323 . S
C406 C405 1.433 . S
C406 H415 0.933 . S
C407 Dy377 2.738 . S
C407 O387 1.255 . S
C407 O388 1.249 . S
C407 C401 1.516 . S
H408 C394 0.930 . S
H409 C395 0.931 . S
H410 C396 0.931 . S
H411 C397 0.933 . S
H412 C403 0.930 . S
H413 C404 0.931 . S
H414 C405 0.931 . S
H415 C406 0.933 . S
Dy416 O419 2.307 . S
Dy416 O421 2.395 . S
Dy416 O422 2.379 . S
Dy416 O424 2.339 . S
Dy416 O426 2.298 . S
Dy416 O430 2.275 . S
Dy416 C438 2.738 . S
Dy417 O420 2.298 . S
Dy417 O423 2.275 . S
Dy417 O425 2.307 . S
Dy417 O427 2.395 . S
Dy417 O428 2.379 . S
Dy417 O431 2.339 . S
Dy417 C447 2.738 . S
C418 O430 1.254 . S
C418 O431 1.257 . S
O419 Dy416 2.307 . S
O419 C429 1.266 1_545 S
O420 Dy417 2.298 . S
O420 C429 1.236 1_545 S
O421 Dy416 2.395 . S
O421 C438 1.255 . S
O422 Dy416 2.379 . S
O422 C438 1.249 . S
O423 Dy417 2.275 . S
O423 C439 1.254 . S
O424 Dy416 2.339 . S
O424 C439 1.257 . S
O425 Dy417 2.307 . S
O425 C440 1.266 . S
O426 Dy416 2.298 . S
O426 C440 1.236 . S
O427 Dy417 2.395 . S
O427 C447 1.255 . S
O428 Dy417 2.379 . S
O428 C447 1.249 . S
C429 O419 1.266 1_565 S
C429 O420 1.236 1_565 S
O430 Dy416 2.275 . S
O430 C418 1.254 . S
O431 Dy417 2.339 . S
O431 C418 1.257 . S
C432 C435 1.344 . S
C432 C436 1.328 . S
C432 C438 1.516 . S
C433 C434 1.304 . S
C433 C437 1.323 . S
C434 C433 1.304 . S
C434 C435 1.371 . S
C434 H448 0.930 . S
C435 C432 1.344 . S
C435 C434 1.371 . S
C435 H449 0.931 . S
C436 C432 1.328 . S
C436 C437 1.433 . S
C436 H450 0.931 . S
C437 C433 1.323 . S
C437 C436 1.433 . S
C437 H451 0.933 . S
C438 Dy416 2.738 . S
C438 O421 1.255 . S
C438 O422 1.249 . S
C438 C432 1.516 . S
C439 O423 1.254 . S
C439 O424 1.257 . S
C440 O425 1.266 . S
C440 O426 1.236 . S
C441 C444 1.344 . S
C441 C445 1.328 . S
C441 C447 1.516 . S
C442 C443 1.304 . S
C442 C446 1.323 . S
C443 C442 1.304 . S
C443 C444 1.371 1_565 S
C443 H452 0.930 . S
C444 C441 1.344 . S
C444 C443 1.371 1_545 S
C444 H453 0.931 . S
C445 C441 1.328 . S
C445 C446 1.433 1_545 S
C445 H454 0.931 . S
C446 C442 1.323 . S
C446 C445 1.433 1_565 S
C446 H455 0.933 . S
C447 Dy417 2.738 . S
C447 O427 1.255 . S
C447 O428 1.249 . S
C447 C441 1.516 . S
H448 C434 0.930 . S
H449 C435 0.931 . S
H450 C436 0.931 . S
H451 C437 0.933 . S
H452 C443 0.930 . S
H453 C444 0.931 . S
H454 C445 0.931 . S
H455 C446 0.933 . S
Dy456 O459 2.307 . S
Dy456 O461 2.395 . S
Dy456 O462 2.379 . S
Dy456 O464 2.339 . S
Dy456 O466 2.298 . S
Dy456 O470 2.275 . S
Dy456 C478 2.738 . S
Dy457 O460 2.298 . S
Dy457 O463 2.275 . S
Dy457 O465 2.307 . S
Dy457 O467 2.395 . S
Dy457 O468 2.379 . S
Dy457 O471 2.339 . S
Dy457 C487 2.738 . S
C458 O470 1.254 . S
C458 O471 1.257 . S
O459 Dy456 2.307 . S
O459 C469 1.266 . S
O460 Dy457 2.298 . S
O460 C469 1.236 . S
O461 Dy456 2.395 . S
O461 C478 1.255 . S
O462 Dy456 2.379 . S
O462 C478 1.249 . S
O463 Dy457 2.275 . S
O463 C479 1.254 . S
O464 Dy456 2.339 . S
O464 C479 1.257 . S
O465 Dy457 2.307 . S
O465 C480 1.266 . S
O466 Dy456 2.298 . S
O466 C480 1.236 . S
O467 Dy457 2.395 . S
O467 C487 1.255 . S
O468 Dy457 2.379 . S
O468 C487 1.249 . S
C469 O459 1.266 . S
C469 O460 1.236 . S
O470 Dy456 2.275 . S
O470 C458 1.254 . S
O471 Dy457 2.339 . S
O471 C458 1.257 . S
C472 C475 1.344 . S
C472 C476 1.328 . S
C472 C478 1.516 . S
C473 C474 1.304 . S
C473 C477 1.323 . S
C474 C473 1.304 . S
C474 C475 1.371 . S
C474 H488 0.930 . S
C475 C472 1.344 . S
C475 C474 1.371 . S
C475 H489 0.931 . S
C476 C472 1.328 . S
C476 C477 1.433 . S
C476 H490 0.931 . S
C477 C473 1.323 . S
C477 C476 1.433 . S
C477 H491 0.933 . S
C478 Dy456 2.738 . S
C478 O461 1.255 . S
C478 O462 1.249 . S
C478 C472 1.516 . S
C479 O463 1.254 . S
C479 O464 1.257 . S
C480 O465 1.266 . S
C480 O466 1.236 . S
C481 C484 1.344 . S
C481 C485 1.328 . S
C481 C487 1.516 . S
C482 C483 1.304 . S
C482 C486 1.323 . S
C483 C482 1.304 . S
C483 C484 1.371 . S
C483 H492 0.930 . S
C484 C481 1.344 . S
C484 C483 1.371 . S
C484 H493 0.931 . S
C485 C481 1.328 . S
C485 C486 1.433 . S
C485 H494 0.931 . S
C486 C482 1.323 . S
C486 C485 1.433 . S
C486 H495 0.933 . S
C487 Dy457 2.738 . S
C487 O467 1.255 . S
C487 O468 1.249 . S
C487 C481 1.516 . S
H488 C474 0.930 . S
H489 C475 0.931 . S
H490 C476 0.931 . S
H491 C477 0.933 . S
H492 C483 0.930 . S
H493 C484 0.931 . S
H494 C485 0.931 . S
H495 C486 0.933 . S
Dy496 O499 2.307 . S
Dy496 O501 2.395 1_545 S
Dy496 O502 2.379 1_545 S
Dy496 O504 2.339 . S
Dy496 O506 2.298 . S
Dy496 O510 2.275 . S
Dy496 C518 2.738 1_545 S
Dy497 O500 2.298 . S
Dy497 O503 2.275 . S
Dy497 O505 2.307 . S
Dy497 O507 2.395 . S
Dy497 O508 2.379 . S
Dy497 O511 2.339 1_455 S
Dy497 C527 2.738 . S
C498 O510 1.254 1_655 S
C498 O511 1.257 . S
O499 Dy496 2.307 . S
O499 C509 1.266 . S
O500 Dy497 2.298 . S
O500 C509 1.236 . S
O501 Dy496 2.395 1_565 S
O501 C518 1.255 . S
O502 Dy496 2.379 1_565 S
O502 C518 1.249 . S
O503 Dy497 2.275 . S
O503 C519 1.254 . S
O504 Dy496 2.339 . S
O504 C519 1.257 . S
O505 Dy497 2.307 . S
O505 C520 1.266 . S
O506 Dy496 2.298 . S
O506 C520 1.236 . S
O507 Dy497 2.395 . S
O507 C527 1.255 . S
O508 Dy497 2.379 . S
O508 C527 1.249 . S
C509 O499 1.266 . S
C509 O500 1.236 . S
O510 Dy496 2.275 . S
O510 C498 1.254 1_455 S
O511 Dy497 2.339 1_655 S
O511 C498 1.257 . S
C512 C515 1.344 . S
C512 C516 1.328 . S
C512 C518 1.516 . S
C513 C514 1.304 . S
C513 C517 1.323 . S
C514 C513 1.304 . S
C514 C515 1.371 . S
C514 H528 0.930 . S
C515 C512 1.344 . S
C515 C514 1.371 . S
C515 H529 0.931 . S
C516 C512 1.328 . S
C516 C517 1.433 . S
C516 H530 0.931 . S
C517 C513 1.323 . S
C517 C516 1.433 . S
C517 H531 0.933 . S
C518 Dy496 2.738 1_565 S
C518 O501 1.255 . S
C518 O502 1.249 . S
C518 C512 1.516 . S
C519 O503 1.254 . S
C519 O504 1.257 . S
C520 O505 1.266 . S
C520 O506 1.236 . S
C521 C524 1.344 . S
C521 C525 1.328 . S
C521 C527 1.516 . S
C522 C523 1.304 . S
C522 C526 1.334 . S
C523 C522 1.304 . S
C523 C524 1.371 . S
C523 H532 0.930 . S
C524 C521 1.344 . S
C524 C523 1.371 . S
C524 H533 0.931 . S
C525 C521 1.328 . S
C525 C526 1.437 . S
C525 H534 0.931 1_455 S
C526 C522 1.334 . S
C526 C525 1.437 . S
C526 H535 0.917 1_455 S
C527 Dy497 2.738 . S
C527 O507 1.255 . S
C527 O508 1.249 . S
C527 C521 1.516 . S
H528 C514 0.930 . S
H529 C515 0.931 . S
H530 C516 0.931 . S
H531 C517 0.933 . S
H532 C523 0.930 . S
H533 C524 0.931 . S
H534 C525 0.931 1_655 S
H535 C526 0.917 1_655 S
Dy536 O539 2.307 . S
Dy536 O541 2.395 . S
Dy536 O542 2.379 . S
Dy536 O544 2.339 . S
Dy536 O546 2.298 . S
Dy536 O550 2.275 . S
Dy536 C558 2.738 . S
Dy537 O540 2.298 . S
Dy537 O543 2.275 . S
Dy537 O545 2.307 . S
Dy537 O547 2.395 . S
Dy537 O548 2.379 . S
Dy537 O551 2.339 . S
Dy537 C567 2.738 . S
C538 O550 1.254 . S
C538 O551 1.257 . S
O539 Dy536 2.307 . S
O539 C549 1.266 . S
O540 Dy537 2.298 . S
O540 C549 1.236 . S
O541 Dy536 2.395 . S
O541 C558 1.255 . S
O542 Dy536 2.379 . S
O542 C558 1.249 . S
O543 Dy537 2.275 . S
O543 C559 1.254 . S
O544 Dy536 2.339 . S
O544 C559 1.257 . S
O545 Dy537 2.307 . S
O545 C560 1.266 . S
O546 Dy536 2.298 . S
O546 C560 1.236 . S
O547 Dy537 2.395 . S
O547 C567 1.255 . S
O548 Dy537 2.379 . S
O548 C567 1.249 . S
C549 O539 1.266 . S
C549 O540 1.236 . S
O550 Dy536 2.275 . S
O550 C538 1.254 . S
O551 Dy537 2.339 . S
O551 C538 1.257 . S
C552 C555 1.344 . S
C552 C556 1.328 . S
C552 C558 1.516 . S
C553 C554 1.304 . S
C553 C557 1.323 . S
C554 C553 1.304 . S
C554 C555 1.371 . S
C554 H568 0.930 . S
C555 C552 1.344 . S
C555 C554 1.371 . S
C555 H569 0.931 . S
C556 C552 1.328 . S
C556 C557 1.433 . S
C556 H570 0.931 . S
C557 C553 1.323 . S
C557 C556 1.433 . S
C557 H571 0.933 . S
C558 Dy536 2.738 . S
C558 O541 1.255 . S
C558 O542 1.249 . S
C558 C552 1.516 . S
C559 O543 1.254 . S
C559 O544 1.257 . S
C560 O545 1.266 . S
C560 O546 1.236 . S
C561 C564 1.344 . S
C561 C565 1.328 . S
C561 C567 1.516 . S
C562 C563 1.304 . S
C562 C566 1.323 . S
C563 C562 1.304 . S
C563 C564 1.371 . S
C563 H572 0.930 . S
C564 C561 1.344 . S
C564 C563 1.371 . S
C564 H573 0.931 . S
C565 C561 1.328 . S
C565 C566 1.433 . S
C565 H574 0.931 . S
C566 C562 1.323 . S
C566 C565 1.433 . S
C566 H575 0.933 . S
C567 Dy537 2.738 . S
C567 O547 1.255 . S
C567 O548 1.249 . S
C567 C561 1.516 . S
H568 C554 0.930 . S
H569 C555 0.931 . S
H570 C556 0.931 . S
H571 C557 0.933 . S
H572 C563 0.930 . S
H573 C564 0.931 . S
H574 C565 0.931 . S
H575 C566 0.933 . S
Dy576 O579 2.307 . S
Dy576 O581 2.395 1_554 S
Dy576 O582 2.379 1_554 S
Dy576 O584 2.339 . S
Dy576 O586 2.298 . S
Dy576 O590 2.275 . S
Dy576 C598 2.738 1_554 S
Dy577 O580 2.298 . S
Dy577 O583 2.275 . S
Dy577 O585 2.307 . S
Dy577 O587 2.395 . S
Dy577 O588 2.376 1_545 S
Dy577 O591 2.339 1_545 S
Dy577 C607 2.738 . S
C578 O590 1.254 . S
C578 O591 1.257 1_545 S
O579 Dy576 2.307 . S
O579 C589 1.266 . S
O580 Dy577 2.298 . S
O580 C589 1.236 . S
O581 Dy576 2.395 1_556 S
O581 C598 1.255 . S
O582 Dy576 2.379 1_556 S
O582 C598 1.249 . S
O583 Dy577 2.275 . S
O583 C599 1.254 . S
O584 Dy576 2.339 . S
O584 C599 1.257 . S
O585 Dy577 2.307 . S
O585 C600 1.266 . S
O586 Dy576 2.298 . S
O586 C600 1.236 . S
O587 Dy577 2.395 . S
O587 C607 1.255 . S
O588 Dy577 2.376 1_565 S
O588 C607 1.247 1_565 S
C589 O579 1.266 . S
C589 O580 1.236 . S
O590 Dy576 2.275 . S
O590 C578 1.254 . S
O591 Dy577 2.339 1_565 S
O591 C578 1.257 1_565 S
C592 C595 1.344 . S
C592 C596 1.328 . S
C592 C598 1.516 . S
C593 C594 1.304 . S
C593 C597 1.323 . S
C594 C593 1.304 . S
C594 C595 1.371 . S
C594 H608 0.930 . S
C595 C592 1.344 . S
C595 C594 1.371 . S
C595 H609 0.931 . S
C596 C592 1.328 . S
C596 C597 1.433 . S
C596 H610 0.931 . S
C597 C593 1.323 . S
C597 C596 1.433 . S
C597 H611 0.933 . S
C598 Dy576 2.738 1_556 S
C598 O581 1.255 . S
C598 O582 1.249 . S
C598 C592 1.516 . S
C599 O583 1.254 . S
C599 O584 1.257 . S
C600 O585 1.266 . S
C600 O586 1.236 . S
C601 C604 1.344 . S
C601 C605 1.328 1_545 S
C601 C607 1.516 . S
C602 C603 1.304 1_565 S
C602 C606 1.323 . S
C603 C602 1.304 1_545 S
C603 C604 1.371 . S
C603 H612 0.930 . S
C604 C601 1.344 . S
C604 C603 1.371 . S
C604 H613 0.931 . S
C605 C601 1.328 1_565 S
C605 C606 1.433 . S
C605 H614 0.931 . S
C606 C602 1.323 . S
C606 C605 1.433 . S
C606 H615 0.933 . S
C607 Dy577 2.738 . S
C607 O587 1.255 . S
C607 O588 1.247 1_545 S
C607 C601 1.516 . S
H608 C594 0.930 . S
H609 C595 0.931 . S
H610 C596 0.931 . S
H611 C597 0.933 . S
H612 C603 0.930 . S
H613 C604 0.931 . S
H614 C605 0.931 . S
H615 C606 0.933 . S
Dy616 O619 2.307 . S
Dy616 O621 2.395 . S
Dy616 O622 2.379 . S
Dy616 O624 2.339 . S
Dy616 O626 2.298 . S
Dy616 O630 2.275 . S
Dy616 C638 2.738 . S
Dy617 O620 2.298 . S
Dy617 O623 2.275 . S
Dy617 O625 2.307 . S
Dy617 O627 2.395 . S
Dy617 O628 2.379 . S
Dy617 O631 2.339 . S
Dy617 C647 2.738 . S
C618 O630 1.254 . S
C618 O631 1.257 . S
O619 Dy616 2.307 . S
O619 C629 1.266 . S
O620 Dy617 2.298 . S
O620 C629 1.236 . S
O621 Dy616 2.395 . S
O621 C638 1.255 . S
O622 Dy616 2.379 . S
O622 C638 1.249 . S
O623 Dy617 2.275 . S
O623 C639 1.254 . S
O624 Dy616 2.339 . S
O624 C639 1.257 . S
O625 Dy617 2.307 . S
O625 C640 1.266 . S
O626 Dy616 2.298 . S
O626 C640 1.236 . S
O627 Dy617 2.395 . S
O627 C647 1.255 . S
O628 Dy617 2.379 . S
O628 C647 1.249 . S
C629 O619 1.266 . S
C629 O620 1.236 . S
O630 Dy616 2.275 . S
O630 C618 1.254 . S
O631 Dy617 2.339 . S
O631 C618 1.257 . S
C632 C635 1.344 . S
C632 C636 1.328 . S
C632 C638 1.516 . S
C633 C634 1.304 . S
C633 C637 1.323 . S
C634 C633 1.304 . S
C634 C635 1.371 . S
C634 H648 0.930 . S
C635 C632 1.344 . S
C635 C634 1.371 . S
C635 H649 0.931 . S
C636 C632 1.328 . S
C636 C637 1.433 . S
C636 H650 0.931 . S
C637 C633 1.323 . S
C637 C636 1.433 . S
C637 H651 0.933 . S
C638 Dy616 2.738 . S
C638 O621 1.255 . S
C638 O622 1.249 . S
C638 C632 1.516 . S
C639 O623 1.254 . S
C639 O624 1.257 . S
C640 O625 1.266 . S
C640 O626 1.236 . S
C641 C644 1.344 . S
C641 C645 1.328 . S
C641 C647 1.516 . S
C642 C643 1.304 . S
C642 C646 1.323 . S
C643 C642 1.304 . S
C643 C644 1.371 . S
C643 H652 0.930 . S
C644 C641 1.344 . S
C644 C643 1.371 . S
C644 H653 0.931 . S
C645 C641 1.328 . S
C645 C646 1.433 . S
C645 H654 0.931 . S
C646 C642 1.323 . S
C646 C645 1.433 . S
C646 H655 0.933 . S
C647 Dy617 2.738 . S
C647 O627 1.255 . S
C647 O628 1.249 . S
C647 C641 1.516 . S
H648 C634 0.930 . S
H649 C635 0.931 . S
H650 C636 0.931 . S
H651 C637 0.933 . S
H652 C643 0.930 . S
H653 C644 0.931 . S
H654 C645 0.931 . S
H655 C646 0.933 . S
Dy656 O659 2.307 . S
Dy656 O661 2.395 . S
Dy656 O662 2.379 . S
Dy656 O664 2.339 . S
Dy656 O666 2.298 . S
Dy656 O670 2.275 . S
Dy656 C678 2.738 . S
Dy657 O660 2.298 . S
Dy657 O663 2.275 . S
Dy657 O665 2.307 . S
Dy657 O667 2.395 . S
Dy657 O668 2.379 . S
Dy657 O671 2.339 . S
Dy657 C687 2.738 . S
C658 O670 1.254 . S
C658 O671 1.257 . S
O659 Dy656 2.307 . S
O659 C669 1.266 . S
O660 Dy657 2.298 . S
O660 C669 1.236 . S
O661 Dy656 2.395 . S
O661 C678 1.255 . S
O662 Dy656 2.379 . S
O662 C678 1.249 . S
O663 Dy657 2.275 . S
O663 C679 1.254 . S
O664 Dy656 2.339 . S
O664 C679 1.257 . S
O665 Dy657 2.307 . S
O665 C680 1.266 . S
O666 Dy656 2.298 . S
O666 C680 1.236 . S
O667 Dy657 2.395 . S
O667 C687 1.255 . S
O668 Dy657 2.379 . S
O668 C687 1.249 . S
C669 O659 1.266 . S
C669 O660 1.236 . S
O670 Dy656 2.275 . S
O670 C658 1.254 . S
O671 Dy657 2.339 . S
O671 C658 1.257 . S
C672 C675 1.344 . S
C672 C676 1.328 . S
C672 C678 1.516 . S
C673 C674 1.304 . S
C673 C677 1.323 . S
C674 C673 1.304 . S
C674 C675 1.371 . S
C674 H688 0.930 . S
C675 C672 1.344 . S
C675 C674 1.371 . S
C675 H689 0.931 . S
C676 C672 1.328 . S
C676 C677 1.433 . S
C676 H690 0.931 . S
C677 C673 1.323 . S
C677 C676 1.433 . S
C677 H691 0.933 . S
C678 Dy656 2.738 . S
C678 O661 1.255 . S
C678 O662 1.249 . S
C678 C672 1.516 . S
C679 O663 1.254 . S
C679 O664 1.257 . S
C680 O665 1.266 . S
C680 O666 1.236 . S
C681 C684 1.344 . S
C681 C685 1.328 . S
C681 C687 1.516 . S
C682 C683 1.304 . S
C682 C686 1.323 1_556 S
C683 C682 1.304 . S
C683 C684 1.371 1_556 S
C683 H692 0.930 . S
C684 C681 1.344 . S
C684 C683 1.371 1_554 S
C684 H693 0.934 . S
C685 C681 1.328 . S
C685 C686 1.433 . S
C685 H694 0.931 . S
C686 C682 1.323 1_554 S
C686 C685 1.433 . S
C686 H695 0.933 . S
C687 Dy657 2.738 . S
C687 O667 1.255 . S
C687 O668 1.249 . S
C687 C681 1.516 . S
H688 C674 0.930 . S
H689 C675 0.931 . S
H690 C676 0.931 . S
H691 C677 0.933 . S
H692 C683 0.930 . S
H693 C684 0.934 . S
H694 C685 0.931 . S
H695 C686 0.933 . S
Dy696 O699 2.307 . S
Dy696 O701 2.395 . S
Dy696 O702 2.379 . S
Dy696 O704 2.339 . S
Dy696 O706 2.298 . S
Dy696 O710 2.275 . S
Dy696 C718 2.738 . S
Dy697 O700 2.298 . S
Dy697 O703 2.275 . S
Dy697 O705 2.307 . S
Dy697 O707 2.395 . S
Dy697 O708 2.379 . S
Dy697 O711 2.339 . S
Dy697 C727 2.738 . S
C698 O710 1.254 . S
C698 O711 1.257 . S
O699 Dy696 2.307 . S
O699 C709 1.266 . S
O700 Dy697 2.298 . S
O700 C709 1.236 . S
O701 Dy696 2.395 . S
O701 C718 1.255 . S
O702 Dy696 2.379 . S
O702 C718 1.249 . S
O703 Dy697 2.275 . S
O703 C719 1.254 . S
O704 Dy696 2.339 . S
O704 C719 1.257 . S
O705 Dy697 2.307 . S
O705 C720 1.266 . S
O706 Dy696 2.298 . S
O706 C720 1.236 . S
O707 Dy697 2.395 . S
O707 C727 1.255 . S
O708 Dy697 2.379 . S
O708 C727 1.249 . S
C709 O699 1.266 . S
C709 O700 1.236 . S
O710 Dy696 2.275 . S
O710 C698 1.254 . S
O711 Dy697 2.339 . S
O711 C698 1.257 . S
C712 C715 1.344 . S
C712 C716 1.328 . S
C712 C718 1.516 . S
C713 C714 1.304 . S
C713 C717 1.323 . S
C714 C713 1.304 . S
C714 C715 1.371 . S
C714 H728 0.930 . S
C715 C712 1.344 . S
C715 C714 1.371 . S
C715 H729 0.931 . S
C716 C712 1.328 . S
C716 C717 1.433 . S
C716 H730 0.931 . S
C717 C713 1.323 . S
C717 C716 1.433 . S
C717 H731 0.933 . S
C718 Dy696 2.738 . S
C718 O701 1.255 . S
C718 O702 1.249 . S
C718 C712 1.516 . S
C719 O703 1.254 . S
C719 O704 1.257 . S
C720 O705 1.266 . S
C720 O706 1.236 . S
C721 C724 1.344 . S
C721 C725 1.328 . S
C721 C727 1.516 . S
C722 C723 1.304 . S
C722 C726 1.323 . S
C723 C722 1.304 . S
C723 C724 1.371 . S
C723 H732 0.930 . S
C724 C721 1.344 . S
C724 C723 1.371 . S
C724 H733 0.931 . S
C725 C721 1.328 . S
C725 C726 1.433 . S
C725 H734 0.931 . S
C726 C722 1.323 . S
C726 C725 1.433 . S
C726 H735 0.933 . S
C727 Dy697 2.738 . S
C727 O707 1.255 . S
C727 O708 1.249 . S
C727 C721 1.516 . S
H728 C714 0.930 . S
H729 C715 0.931 . S
H730 C716 0.931 . S
H731 C717 0.933 . S
H732 C723 0.930 . S
H733 C724 0.931 . S
H734 C725 0.931 . S
H735 C726 0.933 . S
Dy736 O739 2.307 1_455 S
Dy736 O741 2.395 . S
Dy736 O742 2.379 . S
Dy736 O744 2.339 . S
Dy736 O746 2.298 . S
Dy736 O750 2.275 . S
Dy736 C758 2.738 . S
Dy737 O740 2.298 1_455 S
Dy737 O743 2.275 . S
Dy737 O745 2.307 . S
Dy737 O747 2.395 . S
Dy737 O748 2.379 . S
Dy737 O751 2.339 . S
Dy737 C767 2.760 . S
C738 O750 1.254 . S
C738 O751 1.257 . S
O739 Dy736 2.307 1_655 S
O739 C749 1.266 . S
O740 Dy737 2.298 1_655 S
O740 C749 1.236 . S
O741 Dy736 2.395 . S
O741 C758 1.255 . S
O742 Dy736 2.379 . S
O742 C758 1.249 . S
O743 Dy737 2.275 . S
O743 C759 1.254 . S
O744 Dy736 2.339 . S
O744 C759 1.257 . S
O745 Dy737 2.307 . S
O745 C760 1.266 . S
O746 Dy736 2.298 . S
O746 C760 1.236 . S
O747 Dy737 2.395 . S
O747 C767 1.250 . S
O748 Dy737 2.379 . S
O748 C767 1.277 . S
C749 O739 1.266 . S
C749 O740 1.236 . S
O750 Dy736 2.275 . S
O750 C738 1.254 . S
O751 Dy737 2.339 . S
O751 C738 1.257 . S
C752 C755 1.344 . S
C752 C756 1.328 . S
C752 C758 1.516 . S
C753 C754 1.304 . S
C753 C757 1.323 . S
C754 C753 1.304 . S
C754 C755 1.371 . S
C754 H768 0.930 . S
C755 C752 1.344 . S
C755 C754 1.371 . S
C755 H769 0.931 . S
C756 C752 1.328 . S
C756 C757 1.433 . S
C756 H770 0.931 . S
C757 C753 1.323 . S
C757 C756 1.433 . S
C757 H771 0.933 . S
C758 Dy736 2.738 . S
C758 O741 1.255 . S
C758 O742 1.249 . S
C758 C752 1.516 . S
C759 O743 1.254 . S
C759 O744 1.257 . S
C760 O745 1.266 . S
C760 O746 1.236 . S
C761 C764 1.344 . S
C761 C765 1.328 . S
C761 C767 1.494 1_655 S
C762 C763 1.304 . S
C762 C766 1.323 . S
C763 C762 1.304 . S
C763 C764 1.371 . S
C763 H772 0.930 . S
C764 C761 1.344 . S
C764 C763 1.371 . S
C764 H773 0.931 . S
C765 C761 1.328 . S
C765 C766 1.433 . S
C765 H774 0.931 . S
C766 C762 1.323 . S
C766 C765 1.433 . S
C766 H775 0.933 . S
C767 Dy737 2.760 . S
C767 O747 1.250 . S
C767 O748 1.277 . S
C767 C761 1.494 1_455 S
H768 C754 0.930 . S
H769 C755 0.931 . S
H770 C756 0.931 . S
H771 C757 0.933 . S
H772 C763 0.930 . S
H773 C764 0.931 . S
H774 C765 0.931 . S
H775 C766 0.933 . S
Dy776 O779 2.307 . S
Dy776 O781 2.395 . S
Dy776 O782 2.379 . S
Dy776 O784 2.339 . S
Dy776 O786 2.298 . S
Dy776 O790 2.275 . S
Dy776 C798 2.738 . S
Dy777 O780 2.298 . S
Dy777 O783 2.275 . S
Dy777 O785 2.307 . S
Dy777 O787 2.395 . S
Dy777 O788 2.379 . S
Dy777 O791 2.339 . S
Dy777 C807 2.738 . S
C778 O790 1.254 . S
C778 O791 1.257 . S
O779 Dy776 2.307 . S
O779 C789 1.266 . S
O780 Dy777 2.298 . S
O780 C789 1.236 . S
O781 Dy776 2.395 . S
O781 C798 1.255 . S
O782 Dy776 2.379 . S
O782 C798 1.249 . S
O783 Dy777 2.275 . S
O783 C799 1.254 . S
O784 Dy776 2.339 . S
O784 C799 1.257 . S
O785 Dy777 2.307 . S
O785 C800 1.266 . S
O786 Dy776 2.298 . S
O786 C800 1.236 . S
O787 Dy777 2.395 . S
O787 C807 1.255 . S
O788 Dy777 2.379 . S
O788 C807 1.249 . S
C789 O779 1.266 . S
C789 O780 1.236 . S
O790 Dy776 2.275 . S
O790 C778 1.254 . S
O791 Dy777 2.339 . S
O791 C778 1.257 . S
C792 C795 1.344 . S
C792 C796 1.328 . S
C792 C798 1.516 . S
C793 C794 1.304 . S
C793 C797 1.323 . S
C794 C793 1.304 . S
C794 C795 1.371 . S
C794 H808 0.930 . S
C795 C792 1.344 . S
C795 C794 1.371 . S
C795 H809 0.931 . S
C796 C792 1.328 . S
C796 C797 1.433 . S
C796 H810 0.931 . S
C797 C793 1.323 . S
C797 C796 1.433 . S
C797 H811 0.933 . S
C798 Dy776 2.738 . S
C798 O781 1.255 . S
C798 O782 1.249 . S
C798 C792 1.516 . S
C799 O783 1.254 . S
C799 O784 1.257 . S
C800 O785 1.266 . S
C800 O786 1.236 . S
C801 C804 1.344 . S
C801 C805 1.328 . S
C801 C807 1.516 . S
C802 C803 1.304 . S
C802 C806 1.323 . S
C803 C802 1.304 . S
C803 C804 1.371 . S
C803 H812 0.930 . S
C804 C801 1.344 . S
C804 C803 1.371 . S
C804 H813 0.931 . S
C805 C801 1.328 . S
C805 C806 1.433 . S
C805 H814 0.931 . S
C806 C802 1.323 . S
C806 C805 1.433 . S
C806 H815 0.933 . S
C807 Dy777 2.738 . S
C807 O787 1.255 . S
C807 O788 1.249 . S
C807 C801 1.516 . S
H808 C794 0.930 . S
H809 C795 0.931 . S
H810 C796 0.931 . S
H811 C797 0.933 . S
H812 C803 0.930 . S
H813 C804 0.931 . S
H814 C805 0.931 . S
H815 C806 0.933 . S
Dy816 O819 2.307 . S
Dy816 O821 2.395 . S
Dy816 O822 2.379 . S
Dy816 O824 2.339 . S
Dy816 O826 2.298 . S
Dy816 O830 2.275 . S
Dy816 C838 2.738 . S
Dy817 O820 2.298 . S
Dy817 O823 2.275 . S
Dy817 O825 2.307 . S
Dy817 O827 2.395 . S
Dy817 O828 2.379 . S
Dy817 O831 2.339 . S
Dy817 C847 2.738 . S
C818 O830 1.254 . S
C818 O831 1.257 . S
O819 Dy816 2.307 . S
O819 C829 1.266 . S
O820 Dy817 2.298 . S
O820 C829 1.236 . S
O821 Dy816 2.395 . S
O821 C838 1.255 . S
O822 Dy816 2.379 . S
O822 C838 1.249 . S
O823 Dy817 2.275 . S
O823 C839 1.254 . S
O824 Dy816 2.339 . S
O824 C839 1.257 . S
O825 Dy817 2.307 . S
O825 C840 1.266 . S
O826 Dy816 2.298 . S
O826 C840 1.236 . S
O827 Dy817 2.395 . S
O827 C847 1.255 . S
O828 Dy817 2.379 . S
O828 C847 1.249 . S
C829 O819 1.266 . S
C829 O820 1.236 . S
O830 Dy816 2.275 . S
O830 C818 1.254 . S
O831 Dy817 2.339 . S
O831 C818 1.257 . S
C832 C835 1.344 . S
C832 C836 1.328 . S
C832 C838 1.516 . S
C833 C834 1.304 . S
C833 C837 1.323 . S
C834 C833 1.304 . S
C834 C835 1.371 . S
C834 H848 0.930 . S
C835 C832 1.344 . S
C835 C834 1.371 . S
C835 H849 0.931 . S
C836 C832 1.328 . S
C836 C837 1.433 . S
C836 H850 0.931 . S
C837 C833 1.323 . S
C837 C836 1.433 . S
C837 H851 0.933 . S
C838 Dy816 2.738 . S
C838 O821 1.255 . S
C838 O822 1.249 . S
C838 C832 1.516 . S
C839 O823 1.254 . S
C839 O824 1.257 . S
C840 O825 1.266 . S
C840 O826 1.236 . S
C841 C844 1.344 . S
C841 C845 1.328 . S
C841 C847 1.516 . S
C842 C843 1.304 . S
C842 C846 1.323 . S
C843 C842 1.304 . S
C843 C844 1.371 . S
C843 H852 0.930 . S
C844 C841 1.344 . S
C844 C843 1.371 . S
C844 H853 0.931 . S
C845 C841 1.328 . S
C845 C846 1.433 . S
C845 H854 0.931 . S
C846 C842 1.323 . S
C846 C845 1.433 . S
C846 H855 0.933 . S
C847 Dy817 2.738 . S
C847 O827 1.255 . S
C847 O828 1.249 . S
C847 C841 1.516 . S
H848 C834 0.930 . S
H849 C835 0.931 . S
H850 C836 0.931 . S
H851 C837 0.933 . S
H852 C843 0.930 . S
H853 C844 0.931 . S
H854 C845 0.931 . S
H855 C846 0.933 . S
Dy856 O859 2.307 . S
Dy856 O861 2.395 . S
Dy856 O862 2.379 . S
Dy856 O864 2.339 . S
Dy856 O866 2.298 . S
Dy856 O870 2.275 . S
Dy856 C878 2.738 . S
Dy857 O860 2.298 . S
Dy857 O863 2.275 . S
Dy857 O865 2.307 . S
Dy857 O867 2.395 . S
Dy857 O868 2.379 . S
Dy857 O871 2.339 . S
Dy857 C887 2.738 . S
C858 O870 1.254 . S
C858 O871 1.257 . S
O859 Dy856 2.307 . S
O859 C869 1.266 . S
O860 Dy857 2.298 . S
O860 C869 1.236 . S
O861 Dy856 2.395 . S
O861 C878 1.255 . S
O862 Dy856 2.379 . S
O862 C878 1.249 . S
O863 Dy857 2.275 . S
O863 C879 1.254 . S
O864 Dy856 2.339 . S
O864 C879 1.257 . S
O865 Dy857 2.307 . S
O865 C880 1.266 . S
O866 Dy856 2.298 . S
O866 C880 1.236 . S
O867 Dy857 2.395 . S
O867 C887 1.255 . S
O868 Dy857 2.379 . S
O868 C887 1.249 . S
C869 O859 1.266 . S
C869 O860 1.236 . S
O870 Dy856 2.275 . S
O870 C858 1.254 . S
O871 Dy857 2.339 . S
O871 C858 1.257 . S
C872 C875 1.344 . S
C872 C876 1.328 . S
C872 C878 1.516 . S
C873 C874 1.304 . S
C873 C877 1.323 . S
C874 C873 1.304 . S
C874 C875 1.371 . S
C874 H888 0.930 . S
C875 C872 1.344 . S
C875 C874 1.371 . S
C875 H889 0.931 . S
C876 C872 1.328 . S
C876 C877 1.433 . S
C876 H890 0.931 . S
C877 C873 1.323 . S
C877 C876 1.433 . S
C877 H891 0.933 . S
C878 Dy856 2.738 . S
C878 O861 1.255 . S
C878 O862 1.249 . S
C878 C872 1.516 . S
C879 O863 1.254 . S
C879 O864 1.257 . S
C880 O865 1.266 . S
C880 O866 1.236 . S
C881 C884 1.344 . S
C881 C885 1.328 . S
C881 C887 1.516 . S
C882 C883 1.304 . S
C882 C886 1.323 . S
C883 C882 1.304 . S
C883 C884 1.371 . S
C883 H892 0.930 . S
C884 C881 1.344 . S
C884 C883 1.371 . S
C884 H893 0.931 . S
C885 C881 1.328 . S
C885 C886 1.433 . S
C885 H894 0.931 . S
C886 C882 1.323 . S
C886 C885 1.433 . S
C886 H895 0.933 . S
C887 Dy857 2.738 . S
C887 O867 1.255 . S
C887 O868 1.249 . S
C887 C881 1.516 . S
H888 C874 0.930 . S
H889 C875 0.931 . S
H890 C876 0.931 . S
H891 C877 0.933 . S
H892 C883 0.930 . S
H893 C884 0.931 . S
H894 C885 0.931 . S
H895 C886 0.933 . S
Dy896 O899 2.307 . S
Dy896 O901 2.395 . S
Dy896 O902 2.379 . S
Dy896 O904 2.339 . S
Dy896 O906 2.298 . S
Dy896 O910 2.275 . S
Dy896 C918 2.738 . S
Dy897 O900 2.298 . S
Dy897 O903 2.275 . S
Dy897 O905 2.307 . S
Dy897 O907 2.395 . S
Dy897 O908 2.379 . S
Dy897 O911 2.339 . S
Dy897 C927 2.738 . S
C898 O910 1.254 . S
C898 O911 1.257 . S
O899 Dy896 2.307 . S
O899 C909 1.266 . S
O900 Dy897 2.298 . S
O900 C909 1.236 . S
O901 Dy896 2.395 . S
O901 C918 1.255 . S
O902 Dy896 2.379 . S
O902 C918 1.249 . S
O903 Dy897 2.275 . S
O903 C919 1.254 . S
O904 Dy896 2.339 . S
O904 C919 1.257 . S
O905 Dy897 2.307 . S
O905 C920 1.266 . S
O906 Dy896 2.298 . S
O906 C920 1.236 . S
O907 Dy897 2.395 . S
O907 C927 1.255 . S
O908 Dy897 2.379 . S
O908 C927 1.249 . S
C909 O899 1.266 . S
C909 O900 1.236 . S
O910 Dy896 2.275 . S
O910 C898 1.254 . S
O911 Dy897 2.339 . S
O911 C898 1.257 . S
C912 C915 1.344 . S
C912 C916 1.328 . S
C912 C918 1.516 . S
C913 C914 1.304 . S
C913 C917 1.323 . S
C914 C913 1.304 . S
C914 C915 1.371 . S
C914 H928 0.930 . S
C915 C912 1.344 . S
C915 C914 1.371 . S
C915 H929 0.931 . S
C916 C912 1.328 . S
C916 C917 1.433 . S
C916 H930 0.931 . S
C917 C913 1.323 . S
C917 C916 1.433 . S
C917 H931 0.933 . S
C918 Dy896 2.738 . S
C918 O901 1.255 . S
C918 O902 1.249 . S
C918 C912 1.516 . S
C919 O903 1.254 . S
C919 O904 1.257 . S
C920 O905 1.266 . S
C920 O906 1.236 . S
C921 C924 1.344 . S
C921 C925 1.328 . S
C921 C927 1.516 . S
C922 C923 1.304 . S
C922 C926 1.323 . S
C923 C922 1.304 . S
C923 C924 1.371 . S
C923 H932 0.930 . S
C924 C921 1.344 . S
C924 C923 1.371 . S
C924 H933 0.931 . S
C925 C921 1.328 . S
C925 C926 1.433 . S
C925 H934 0.931 . S
C926 C922 1.323 . S
C926 C925 1.433 . S
C926 H935 0.933 . S
C927 Dy897 2.738 . S
C927 O907 1.255 . S
C927 O908 1.249 . S
C927 C921 1.516 . S
H928 C914 0.930 . S
H929 C915 0.931 . S
H930 C916 0.931 . S
H931 C917 0.933 . S
H932 C923 0.930 . S
H933 C924 0.931 . S
H934 C925 0.931 . S
H935 C926 0.933 . S
Dy936 O939 2.307 . S
Dy936 O941 2.395 1_455 S
Dy936 O942 2.379 1_455 S
Dy936 O944 2.339 . S
Dy936 O946 2.298 . S
Dy936 O950 2.275 . S
Dy936 C958 2.738 1_455 S
Dy937 O940 2.298 . S
Dy937 O943 2.275 . S
Dy937 O945 2.307 . S
Dy937 O947 2.395 . S
Dy937 O948 2.379 . S
Dy937 O951 2.339 . S
Dy937 C967 2.738 . S
C938 O950 1.254 . S
C938 O951 1.257 . S
O939 Dy936 2.307 . S
O939 C949 1.266 . S
O940 Dy937 2.298 . S
O940 C949 1.236 . S
O941 Dy936 2.395 1_655 S
O941 C958 1.255 . S
O942 Dy936 2.379 1_655 S
O942 C958 1.249 . S
O943 Dy937 2.275 . S
O943 C959 1.254 . S
O944 Dy936 2.339 . S
O944 C959 1.257 . S
O945 Dy937 2.307 . S
O945 C960 1.266 . S
O946 Dy936 2.298 . S
O946 C960 1.236 . S
O947 Dy937 2.395 . S
O947 C967 1.255 . S
O948 Dy937 2.379 . S
O948 C967 1.249 . S
C949 O939 1.266 . S
C949 O940 1.236 . S
O950 Dy936 2.275 . S
O950 C938 1.254 . S
O951 Dy937 2.339 . S
O951 C938 1.257 . S
C952 C955 1.344 . S
C952 C956 1.328 . S
C952 C958 1.516 . S
C953 C954 1.304 . S
C953 C957 1.323 . S
C954 C953 1.304 . S
C954 C955 1.371 . S
C954 H968 0.930 . S
C955 C952 1.344 . S
C955 C954 1.371 . S
C955 H969 0.931 . S
C956 C952 1.328 . S
C956 C957 1.433 . S
C956 H970 0.931 . S
C957 C953 1.323 . S
C957 C956 1.433 . S
C957 H971 0.933 . S
C958 Dy936 2.738 1_655 S
C958 O941 1.255 . S
C958 O942 1.249 . S
C958 C952 1.516 . S
C959 O943 1.254 . S
C959 O944 1.257 . S
C960 O945 1.266 . S
C960 O946 1.236 . S
C961 C964 1.344 . S
C961 C965 1.328 . S
C961 C967 1.516 . S
C962 C963 1.304 . S
C962 C966 1.323 . S
C963 C962 1.304 . S
C963 C964 1.371 . S
C963 H972 0.930 . S
C964 C961 1.344 . S
C964 C963 1.371 . S
C964 H973 0.931 . S
C965 C961 1.328 . S
C965 C966 1.433 . S
C965 H974 0.931 . S
C966 C962 1.323 . S
C966 C965 1.433 . S
C966 H975 0.945 . S
C967 Dy937 2.738 . S
C967 O947 1.255 . S
C967 O948 1.249 . S
C967 C961 1.516 . S
H968 C954 0.930 . S
H969 C955 0.931 . S
H970 C956 0.931 . S
H971 C957 0.933 . S
H972 C963 0.930 . S
H973 C964 0.931 . S
H974 C965 0.931 . S
H975 C966 0.945 . S
C976 C977 1.387 1_655 S
C976 H980 0.950 . S
C976 C985 1.390 . S
C977 C976 1.387 1_455 S
C977 C979 1.387 . S
H978 C985 0.950 . S
C979 C977 1.387 . S
C979 C981 1.390 . S
C979 H983 0.950 . S
H980 C976 0.950 . S
C981 C979 1.390 . S
C981 C982 1.387 . S
C981 H984 0.950 . S
C982 C981 1.387 . S
C982 C985 1.387 1_455 S
H983 C979 0.950 . S
H984 C981 0.950 . S
C985 C976 1.390 . S
C985 H978 0.950 . S
C985 C982 1.387 1_655 S
C986 C987 1.387 . S
C986 H990 0.950 . S
C986 C995 1.390 . S
C987 C986 1.387 . S
C987 C989 1.387 . S
H988 C995 0.950 . S
C989 C987 1.387 . S
C989 C991 1.390 . S
C989 H993 0.950 . S
H990 C986 0.950 . S
C991 C989 1.390 . S
C991 C992 1.387 . S
C991 H994 0.950 . S
C992 C991 1.387 . S
C992 C995 1.387 . S
H993 C989 0.950 . S
H994 C991 0.950 . S
C995 C986 1.390 . S
C995 H988 0.950 . S
C995 C992 1.387 . S
C996 C997 1.387 . S
C996 H1000 0.950 . S
C996 C1005 1.390 . S
C997 C996 1.387 . S
C997 C999 1.387 . S
H998 C1005 0.950 . S
C999 C997 1.387 . S
C999 C1001 1.390 . S
C999 H1003 0.950 . S
H1000 C996 0.950 . S
C1001 C999 1.390 . S
C1001 C1002 1.387 . S
C1001 H1004 0.950 . S
C1002 C1001 1.387 . S
C1002 C1005 1.387 . S
H1003 C999 0.950 . S
H1004 C1001 0.950 . S
C1005 C996 1.390 . S
C1005 H998 0.950 . S
C1005 C1002 1.387 . S
C1006 C1007 1.387 . S
C1006 H1010 0.950 . S
C1006 C1015 1.390 . S
C1007 C1006 1.387 . S
C1007 C1009 1.387 . S
H1008 C1015 0.950 . S
C1009 C1007 1.387 . S
C1009 C1011 1.390 . S
C1009 H1013 0.950 . S
H1010 C1006 0.950 . S
C1011 C1009 1.390 . S
C1011 C1012 1.387 . S
C1011 H1014 0.950 . S
C1012 C1011 1.387 . S
C1012 C1015 1.387 . S
H1013 C1009 0.950 . S
H1014 C1011 0.950 . S
C1015 C1006 1.390 . S
C1015 H1008 0.950 . S
C1015 C1012 1.387 . S
C1016 C1017 1.387 . S
C1016 H1020 0.950 . S
C1016 C1025 1.390 . S
C1017 C1016 1.387 . S
C1017 C1019 1.387 . S
H1018 C1025 0.950 . S
C1019 C1017 1.387 . S
C1019 C1021 1.390 . S
C1019 H1023 0.950 . S
H1020 C1016 0.950 . S
C1021 C1019 1.390 . S
C1021 C1022 1.387 . S
C1021 H1024 0.950 . S
C1022 C1021 1.387 . S
C1022 C1025 1.387 . S
H1023 C1019 0.950 . S
H1024 C1021 0.950 . S
C1025 C1016 1.390 . S
C1025 H1018 0.950 . S
C1025 C1022 1.387 . S
C1026 C1027 1.387 . S
C1026 H1030 0.950 . S
C1026 C1035 1.390 . S
C1027 C1026 1.387 . S
C1027 C1029 1.387 . S
H1028 C1035 0.950 . S
C1029 C1027 1.387 . S
C1029 C1031 1.390 . S
C1029 H1033 0.950 . S
H1030 C1026 0.950 . S
C1031 C1029 1.390 . S
C1031 C1032 1.387 . S
C1031 H1034 0.950 . S
C1032 C1031 1.387 . S
C1032 C1035 1.387 . S
H1033 C1029 0.950 . S
H1034 C1031 0.950 . S
C1035 C1026 1.390 . S
C1035 H1028 0.950 . S
C1035 C1032 1.387 . S
C1036 C1037 1.387 . S
C1036 H1040 0.950 . S
C1036 C1045 1.390 . S
C1037 C1036 1.387 . S
C1037 C1039 1.387 . S
H1038 C1045 0.950 . S
C1039 C1037 1.387 . S
C1039 C1041 1.390 . S
C1039 H1043 0.950 . S
H1040 C1036 0.950 . S
C1041 C1039 1.390 . S
C1041 C1042 1.387 . S
C1041 H1044 0.950 . S
C1042 C1041 1.387 . S
C1042 C1045 1.387 . S
H1043 C1039 0.950 . S
H1044 C1041 0.950 . S
C1045 C1036 1.390 . S
C1045 H1038 0.950 . S
C1045 C1042 1.387 . S
C1046 C1047 1.387 . S
C1046 H1050 0.950 . S
C1046 C1055 1.390 . S
C1047 C1046 1.387 . S
C1047 C1049 1.387 . S
H1048 C1055 0.950 . S
C1049 C1047 1.387 . S
C1049 C1051 1.390 . S
C1049 H1053 0.950 . S
H1050 C1046 0.950 . S
C1051 C1049 1.390 . S
C1051 C1052 1.387 . S
C1051 H1054 0.950 . S
C1052 C1051 1.387 . S
C1052 C1055 1.387 . S
H1053 C1049 0.950 . S
H1054 C1051 0.950 . S
C1055 C1046 1.390 . S
C1055 H1048 0.950 . S
C1055 C1052 1.387 . S
C1056 C1057 1.387 . S
C1056 H1060 0.936 1_545 S
C1056 C1065 1.390 . S
C1057 C1056 1.387 . S
C1057 C1059 1.387 1_655 S
H1058 C1065 0.950 . S
C1059 C1057 1.387 1_455 S
C1059 C1061 1.390 . S
C1059 H1063 0.950 . S
H1060 C1056 0.936 1_565 S
C1061 C1059 1.390 . S
C1061 C1062 1.387 . S
C1061 H1064 0.950 . S
C1062 C1061 1.387 . S
C1062 C1065 1.387 1_455 S
H1063 C1059 0.950 . S
H1064 C1061 0.950 . S
C1065 C1056 1.390 . S
C1065 H1058 0.950 . S
C1065 C1062 1.387 1_655 S
C1066 C1067 1.387 . S
C1066 H1070 0.950 . S
C1066 C1075 1.390 . S
C1067 C1066 1.387 . S
C1067 C1069 1.387 . S
H1068 C1075 0.950 . S
C1069 C1067 1.387 . S
C1069 C1071 1.390 . S
C1069 H1073 0.950 . S
H1070 C1066 0.950 . S
C1071 C1069 1.390 . S
C1071 C1072 1.387 . S
C1071 H1074 0.950 . S
C1072 C1071 1.387 . S
C1072 C1075 1.387 . S
H1073 C1069 0.950 . S
H1074 C1071 0.950 . S
C1075 C1066 1.390 . S
C1075 H1068 0.950 . S
C1075 C1072 1.387 . S
C1076 C1077 1.387 . S
C1076 H1080 0.950 . S
C1076 C1085 1.390 . S
C1077 C1076 1.387 . S
C1077 C1079 1.387 . S
H1078 C1085 0.950 . S
C1079 C1077 1.387 . S
C1079 C1081 1.390 . S
C1079 H1083 0.950 . S
H1080 C1076 0.950 . S
C1081 C1079 1.390 . S
C1081 C1082 1.387 . S
C1081 H1084 0.950 . S
C1082 C1081 1.387 . S
C1082 C1085 1.387 . S
H1083 C1079 0.950 . S
H1084 C1081 0.950 . S
C1085 C1076 1.390 . S
C1085 H1078 0.950 . S
C1085 C1082 1.387 . S
C1086 C1087 1.387 . S
C1086 H1090 0.950 . S
C1086 C1095 1.390 . S
C1087 C1086 1.387 . S
C1087 C1089 1.387 . S
H1088 C1095 0.950 . S
C1089 C1087 1.387 . S
C1089 C1091 1.390 . S
C1089 H1093 0.950 . S
H1090 C1086 0.950 . S
C1091 C1089 1.390 . S
C1091 C1092 1.387 . S
C1091 H1094 0.950 . S
C1092 C1091 1.387 . S
C1092 C1095 1.387 . S
H1093 C1089 0.950 . S
H1094 C1091 0.950 . S
C1095 C1086 1.390 . S
C1095 H1088 0.950 . S
C1095 C1092 1.387 . S
C1096 C1097 1.387 1_455 S
C1096 H1100 0.950 . S
C1096 C1105 1.390 . S
C1097 C1096 1.387 1_655 S
C1097 C1099 1.400 . S
H1098 C1105 0.950 . S
C1099 C1097 1.400 . S
C1099 C1101 1.379 1_655 S
C1099 H1103 0.950 1_545 S
H1100 C1096 0.950 . S
C1101 C1099 1.379 1_455 S
C1101 C1102 1.387 . S
C1101 H1104 0.950 . S
C1102 C1101 1.387 . S
C1102 C1105 1.387 . S
H1103 C1099 0.950 1_565 S
H1104 C1101 0.950 . S
C1105 C1096 1.390 . S
C1105 H1098 0.950 . S
C1105 C1102 1.387 . S
C1106 C1107 1.387 . S
C1106 H1110 0.950 . S
C1106 C1115 1.390 . S
C1107 C1106 1.387 . S
C1107 C1109 1.387 . S
H1108 C1115 0.950 . S
C1109 C1107 1.387 . S
C1109 C1111 1.390 . S
C1109 H1113 0.950 . S
H1110 C1106 0.950 . S
C1111 C1109 1.390 . S
C1111 C1112 1.387 . S
C1111 H1114 0.950 . S
C1112 C1111 1.387 . S
C1112 C1115 1.387 . S
H1113 C1109 0.950 . S
H1114 C1111 0.950 . S
C1115 C1106 1.390 . S
C1115 H1108 0.950 . S
C1115 C1112 1.387 . S
C1116 C1117 1.387 . S
C1116 H1120 0.950 . S
C1116 C1125 1.390 . S
C1117 C1116 1.387 . S
C1117 C1119 1.387 . S
H1118 C1125 0.950 . S
C1119 C1117 1.387 . S
C1119 C1121 1.390 . S
C1119 H1123 0.950 . S
H1120 C1116 0.950 . S
C1121 C1119 1.390 . S
C1121 C1122 1.387 . S
C1121 H1124 0.950 . S
C1122 C1121 1.387 . S
C1122 C1125 1.387 . S
H1123 C1119 0.950 . S
H1124 C1121 0.950 . S
C1125 C1116 1.390 . S
C1125 H1118 0.950 . S
C1125 C1122 1.387 . S
C1126 C1127 1.387 . S
C1126 H1130 0.950 . S
C1126 C1135 1.390 . S
C1127 C1126 1.387 . S
C1127 C1129 1.387 . S
H1128 C1135 0.950 . S
C1129 C1127 1.387 . S
C1129 C1131 1.390 . S
C1129 H1133 0.950 . S
H1130 C1126 0.950 . S
C1131 C1129 1.390 . S
C1131 C1132 1.387 . S
C1131 H1134 0.950 . S
C1132 C1131 1.387 . S
C1132 C1135 1.387 . S
H1133 C1129 0.950 . S
H1134 C1131 0.950 . S
C1135 C1126 1.390 . S
C1135 H1128 0.950 . S
C1135 C1132 1.387 . S
C1136 C1137 1.387 1_545 S
C1136 H1140 0.950 . S
C1136 C1145 1.390 . S
C1137 C1136 1.387 1_565 S
C1137 C1139 1.387 . S
H1138 C1145 0.950 . S
C1139 C1137 1.387 . S
C1139 C1141 1.390 . S
C1139 H1143 0.950 . S
H1140 C1136 0.950 . S
C1141 C1139 1.390 . S
C1141 C1142 1.387 1_565 S
C1141 H1144 0.950 . S
C1142 C1141 1.387 1_545 S
C1142 C1145 1.387 . S
H1143 C1139 0.950 . S
H1144 C1141 0.950 . S
C1145 C1136 1.390 . S
C1145 H1138 0.950 . S
C1145 C1142 1.387 . S
C1146 C1147 1.387 . S
C1146 H1150 0.950 . S
C1146 C1155 1.390 . S
C1147 C1146 1.387 . S
C1147 C1149 1.387 . S
H1148 C1155 0.950 . S
C1149 C1147 1.387 . S
C1149 C1151 1.390 . S
C1149 H1153 0.950 . S
H1150 C1146 0.950 . S
C1151 C1149 1.390 . S
C1151 C1152 1.387 . S
C1151 H1154 0.950 . S
C1152 C1151 1.387 . S
C1152 C1155 1.387 . S
H1153 C1149 0.950 . S
H1154 C1151 0.950 . S
C1155 C1146 1.390 . S
C1155 H1148 0.950 . S
C1155 C1152 1.387 . S
C1156 C1157 1.387 . S
C1156 H1160 0.950 . S
C1156 C1165 1.390 . S
C1157 C1156 1.387 . S
C1157 C1159 1.387 . S
H1158 C1165 0.950 . S
C1159 C1157 1.387 . S
C1159 C1161 1.390 . S
C1159 H1163 0.950 . S
H1160 C1156 0.950 . S
C1161 C1159 1.390 . S
C1161 C1162 1.387 . S
C1161 H1164 0.950 . S
C1162 C1161 1.387 . S
C1162 C1165 1.387 . S
H1163 C1159 0.950 . S
H1164 C1161 0.950 . S
C1165 C1156 1.390 . S
C1165 H1158 0.950 . S
C1165 C1162 1.387 . S
C1166 C1167 1.387 . S
C1166 H1170 0.950 . S
C1166 C1175 1.390 . S
C1167 C1166 1.387 . S
C1167 C1169 1.387 . S
H1168 C1175 0.950 . S
C1169 C1167 1.387 . S
C1169 C1171 1.390 . S
C1169 H1173 0.950 . S
H1170 C1166 0.950 . S
C1171 C1169 1.390 . S
C1171 C1172 1.387 . S
C1171 H1174 0.950 . S
C1172 C1171 1.387 . S
C1172 C1175 1.387 . S
H1173 C1169 0.950 . S
H1174 C1171 0.950 . S
C1175 C1166 1.390 . S
C1175 H1168 0.950 . S
C1175 C1172 1.387 . S
C1176 C1177 1.387 . S
C1176 H1180 0.950 . S
C1176 C1185 1.390 . S
C1177 C1176 1.387 . S
C1177 C1179 1.387 . S
H1178 C1185 0.950 . S
C1179 C1177 1.387 . S
C1179 C1181 1.390 . S
C1179 H1183 0.950 . S
H1180 C1176 0.950 . S
C1181 C1179 1.390 . S
C1181 C1182 1.387 . S
C1181 H1184 0.950 . S
C1182 C1181 1.387 . S
C1182 C1185 1.387 . S
H1183 C1179 0.950 . S
H1184 C1181 0.950 . S
C1185 C1176 1.390 . S
C1185 H1178 0.950 . S
C1185 C1182 1.387 . S
C1186 C1187 1.387 . S
C1186 H1190 0.950 . S
C1186 C1195 1.390 . S
C1187 C1186 1.387 . S
C1187 C1189 1.387 . S
H1188 C1195 0.950 . S
C1189 C1187 1.387 . S
C1189 C1191 1.390 . S
C1189 H1193 0.950 . S
H1190 C1186 0.950 . S
C1191 C1189 1.390 . S
C1191 C1192 1.387 . S
C1191 H1194 0.950 . S
C1192 C1191 1.387 . S
C1192 C1195 1.387 . S
H1193 C1189 0.950 . S
H1194 C1191 0.950 . S
C1195 C1186 1.390 . S
C1195 H1188 0.950 . S
C1195 C1192 1.387 . S
C1196 C1197 1.387 . S
C1196 H1200 0.950 . S
C1196 C1205 1.390 . S
C1197 C1196 1.387 . S
C1197 C1199 1.387 . S
H1198 C1205 0.950 . S
C1199 C1197 1.387 . S
C1199 C1201 1.390 . S
C1199 H1203 0.950 . S
H1200 C1196 0.950 . S
C1201 C1199 1.390 . S
C1201 C1202 1.387 . S
C1201 H1204 0.950 . S
C1202 C1201 1.387 . S
C1202 C1205 1.387 . S
H1203 C1199 0.950 . S
H1204 C1201 0.950 . S
C1205 C1196 1.390 . S
C1205 H1198 0.950 . S
C1205 C1202 1.387 . S
C1206 C1207 1.387 . S
C1206 H1210 0.950 . S
C1206 C1215 1.390 . S
C1207 C1206 1.387 . S
C1207 C1209 1.387 . S
H1208 C1215 0.950 . S
C1209 C1207 1.387 . S
C1209 C1211 1.390 . S
C1209 H1213 0.950 . S
H1210 C1206 0.950 . S
C1211 C1209 1.390 . S
C1211 C1212 1.387 . S
C1211 H1214 0.950 . S
C1212 C1211 1.387 . S
C1212 C1215 1.387 . S
H1213 C1209 0.950 . S
H1214 C1211 0.950 . S
C1215 C1206 1.390 . S
C1215 H1208 0.950 . S
C1215 C1212 1.387 . S
C1216 C1217 1.387 . S
C1216 H1220 0.950 . S
C1216 C1225 1.390 . S
C1217 C1216 1.387 . S
C1217 C1219 1.387 . S
H1218 C1225 0.950 . S
C1219 C1217 1.387 . S
C1219 C1221 1.390 . S
C1219 H1223 0.950 . S
H1220 C1216 0.950 . S
C1221 C1219 1.390 . S
C1221 C1222 1.387 . S
C1221 H1224 0.950 . S
C1222 C1221 1.387 . S
C1222 C1225 1.387 . S
H1223 C1219 0.950 . S
H1224 C1221 0.950 . S
C1225 C1216 1.390 . S
C1225 H1218 0.950 . S
C1225 C1222 1.387 . S
C1226 C1227 1.387 . S
C1226 H1230 0.950 . S
C1226 C1235 1.390 . S
C1227 C1226 1.387 . S
C1227 C1229 1.387 . S
H1228 C1235 0.950 . S
C1229 C1227 1.387 . S
C1229 C1231 1.390 . S
C1229 H1233 0.950 . S
H1230 C1226 0.950 . S
C1231 C1229 1.390 . S
C1231 C1232 1.387 . S
C1231 H1234 0.950 . S
C1232 C1231 1.387 . S
C1232 C1235 1.387 . S
H1233 C1229 0.950 . S
H1234 C1231 0.950 . S
C1235 C1226 1.390 . S
C1235 H1228 0.950 . S
C1235 C1232 1.387 . S
C1236 C1237 1.387 . S
C1236 H1240 0.950 . S
C1236 C1245 1.390 . S
C1237 C1236 1.387 . S
C1237 C1239 1.387 . S
H1238 C1245 0.950 . S
C1239 C1237 1.387 . S
C1239 C1241 1.390 . S
C1239 H1243 0.950 . S
H1240 C1236 0.950 . S
C1241 C1239 1.390 . S
C1241 C1242 1.387 . S
C1241 H1244 0.950 . S
C1242 C1241 1.387 . S
C1242 C1245 1.387 . S
H1243 C1239 0.950 . S
H1244 C1241 0.950 . S
C1245 C1236 1.390 . S
C1245 H1238 0.950 . S
C1245 C1242 1.387 . S
C1246 C1247 1.387 . S
C1246 H1250 0.950 . S
C1246 C1255 1.390 . S
C1247 C1246 1.387 . S
C1247 C1249 1.387 . S
H1248 C1255 0.950 . S
C1249 C1247 1.387 . S
C1249 C1251 1.390 . S
C1249 H1253 0.950 . S
H1250 C1246 0.950 . S
C1251 C1249 1.390 . S
C1251 C1252 1.387 . S
C1251 H1254 0.950 . S
C1252 C1251 1.387 . S
C1252 C1255 1.387 . S
H1253 C1249 0.950 . S
H1254 C1251 0.950 . S
C1255 C1246 1.390 . S
C1255 H1248 0.950 . S
C1255 C1252 1.387 . S
C1256 C1257 1.387 . S
C1256 H1260 0.950 1_455 S
C1256 C1265 1.390 1_455 S
C1257 C1256 1.387 . S
C1257 C1259 1.387 . S
H1258 C1265 0.950 . S
C1259 C1257 1.387 . S
C1259 C1261 1.390 . S
C1259 H1263 0.950 . S
H1260 C1256 0.950 1_655 S
C1261 C1259 1.390 . S
C1261 C1262 1.387 . S
C1261 H1264 0.950 . S
C1262 C1261 1.387 . S
C1262 C1265 1.387 1_455 S
H1263 C1259 0.950 . S
H1264 C1261 0.950 . S
C1265 C1256 1.390 1_655 S
C1265 H1258 0.950 . S
C1265 C1262 1.387 1_655 S
C1266 C1267 1.387 . S
C1266 H1270 0.950 . S
C1266 C1275 1.390 . S
C1267 C1266 1.387 . S
C1267 C1269 1.387 . S
H1268 C1275 0.950 . S
C1269 C1267 1.387 . S
C1269 C1271 1.390 . S
C1269 H1273 0.950 . S
H1270 C1266 0.950 . S
C1271 C1269 1.390 . S
C1271 C1272 1.387 . S
C1271 H1274 0.950 . S
C1272 C1271 1.387 . S
C1272 C1275 1.387 . S
H1273 C1269 0.950 . S
H1274 C1271 0.950 . S
C1275 C1266 1.390 . S
C1275 H1268 0.950 . S
C1275 C1272 1.387 . S
C1276 C1277 1.387 . S
C1276 H1280 0.950 . S
C1276 C1285 1.390 . S
C1277 C1276 1.387 . S
C1277 C1279 1.387 . S
H1278 C1285 0.950 1_545 S
C1279 C1277 1.387 . S
C1279 C1281 1.390 . S
C1279 H1283 0.950 . S
H1280 C1276 0.950 . S
C1281 C1279 1.390 . S
C1281 C1282 1.387 . S
C1281 H1284 0.950 . S
C1282 C1281 1.387 . S
C1282 C1285 1.387 . S
H1283 C1279 0.950 . S
H1284 C1281 0.950 . S
C1285 C1276 1.390 . S
C1285 H1278 0.950 1_565 S
C1285 C1282 1.387 . S
C1286 C1287 1.387 . S
C1286 H1290 0.950 . S
C1286 C1295 1.390 . S
C1287 C1286 1.387 . S
C1287 C1289 1.387 . S
H1288 C1295 0.950 . S
C1289 C1287 1.387 . S
C1289 C1291 1.390 . S
C1289 H1293 0.950 . S
H1290 C1286 0.950 . S
C1291 C1289 1.390 . S
C1291 C1292 1.387 . S
C1291 H1294 0.950 . S
C1292 C1291 1.387 . S
C1292 C1295 1.387 . S
H1293 C1289 0.950 . S
H1294 C1291 0.950 . S
C1295 C1286 1.390 . S
C1295 H1288 0.950 . S
C1295 C1292 1.387 . S
C1296 C1297 1.387 . S
C1296 H1300 0.950 . S
C1296 C1305 1.390 . S
C1297 C1296 1.387 . S
C1297 C1299 1.387 . S
H1298 C1305 0.950 . S
C1299 C1297 1.387 . S
C1299 C1301 1.390 . S
C1299 H1303 0.950 . S
H1300 C1296 0.950 . S
C1301 C1299 1.390 . S
C1301 C1302 1.387 . S
C1301 H1304 0.950 . S
C1302 C1301 1.387 . S
C1302 C1305 1.387 . S
H1303 C1299 0.950 . S
H1304 C1301 0.950 . S
C1305 C1296 1.390 . S
C1305 H1298 0.950 . S
C1305 C1302 1.387 . S
C1306 C1307 1.387 . S
C1306 H1310 0.950 . S
C1306 C1315 1.390 . S
C1307 C1306 1.387 . S
C1307 C1309 1.387 . S
H1308 C1315 0.950 . S
C1309 C1307 1.387 . S
C1309 C1311 1.390 . S
C1309 H1313 0.950 . S
H1310 C1306 0.950 . S
C1311 C1309 1.390 . S
C1311 C1312 1.387 . S
C1311 H1314 0.950 . S
C1312 C1311 1.387 . S
C1312 C1315 1.387 . S
H1313 C1309 0.950 . S
H1314 C1311 0.950 . S
C1315 C1306 1.390 . S
C1315 H1308 0.950 . S
C1315 C1312 1.387 . S
C1316 C1317 1.387 1_565 S
C1316 H1320 0.950 . S
C1316 C1325 1.390 1_565 S
C1317 C1316 1.387 1_545 S
C1317 C1319 1.387 . S
H1318 C1325 0.950 1_565 S
C1319 C1317 1.387 . S
C1319 C1321 1.390 . S
C1319 H1323 0.950 . S
H1320 C1316 0.950 . S
C1321 C1319 1.390 . S
C1321 C1322 1.387 . S
C1321 H1324 0.950 . S
C1322 C1321 1.387 . S
C1322 C1325 1.387 . S
H1323 C1319 0.950 . S
H1324 C1321 0.950 . S
C1325 C1316 1.390 1_545 S
C1325 H1318 0.950 1_545 S
C1325 C1322 1.387 . S
C1326 C1327 1.387 . S
C1326 H1330 0.950 . S
C1326 C1335 1.390 . S
C1327 C1326 1.387 . S
C1327 C1329 1.387 . S
H1328 C1335 0.950 . S
C1329 C1327 1.387 . S
C1329 C1331 1.390 . S
C1329 H1333 0.950 . S
H1330 C1326 0.950 . S
C1331 C1329 1.390 . S
C1331 C1332 1.387 . S
C1331 H1334 0.950 . S
C1332 C1331 1.387 . S
C1332 C1335 1.387 . S
H1333 C1329 0.950 . S
H1334 C1331 0.950 . S
C1335 C1326 1.390 . S
C1335 H1328 0.950 . S
C1335 C1332 1.387 . S
C1336 C1337 1.387 . S
C1336 H1340 0.950 . S
C1336 C1345 1.390 . S
C1337 C1336 1.387 . S
C1337 C1339 1.387 . S
H1338 C1345 0.950 . S
C1339 C1337 1.387 . S
C1339 C1341 1.390 . S
C1339 H1343 0.950 . S
H1340 C1336 0.950 . S
C1341 C1339 1.390 . S
C1341 C1342 1.387 . S
C1341 H1344 0.950 . S
C1342 C1341 1.387 . S
C1342 C1345 1.387 . S
H1343 C1339 0.950 . S
H1344 C1341 0.950 . S
C1345 C1336 1.390 . S
C1345 H1338 0.950 . S
C1345 C1342 1.387 . S
C1346 C1347 1.387 . S
C1346 H1350 0.950 . S
C1346 C1355 1.390 . S
C1347 C1346 1.387 . S
C1347 C1349 1.387 . S
H1348 C1355 0.950 . S
C1349 C1347 1.387 . S
C1349 C1351 1.390 . S
C1349 H1353 0.950 . S
H1350 C1346 0.950 . S
C1351 C1349 1.390 . S
C1351 C1352 1.387 . S
C1351 H1354 0.950 . S
C1352 C1351 1.387 . S
C1352 C1355 1.387 . S
H1353 C1349 0.950 . S
H1354 C1351 0.950 . S
C1355 C1346 1.390 . S
C1355 H1348 0.950 . S
C1355 C1352 1.387 . S
C1356 C1357 1.387 1_545 S
C1356 H1360 0.950 . S
C1356 C1365 1.390 . S
C1357 C1356 1.387 1_565 S
C1357 C1359 1.387 . S
H1358 C1365 0.950 . S
C1359 C1357 1.387 . S
C1359 C1361 1.390 . S
C1359 H1363 0.950 . S
H1360 C1356 0.950 . S
C1361 C1359 1.390 . S
C1361 C1362 1.387 . S
C1361 H1364 0.950 . S
C1362 C1361 1.387 . S
C1362 C1365 1.387 1_565 S
H1363 C1359 0.950 . S
H1364 C1361 0.950 . S
C1365 C1356 1.390 . S
C1365 H1358 0.950 . S
C1365 C1362 1.387 1_545 S
C1366 C1367 1.387 . S
C1366 H1370 0.950 . S
C1366 C1375 1.390 . S
C1367 C1366 1.387 . S
C1367 C1369 1.387 . S
H1368 C1375 0.950 . S
C1369 C1367 1.387 . S
C1369 C1371 1.390 . S
C1369 H1373 0.950 . S
H1370 C1366 0.950 . S
C1371 C1369 1.390 . S
C1371 C1372 1.387 . S
C1371 H1374 0.950 . S
C1372 C1371 1.387 . S
C1372 C1375 1.387 . S
H1373 C1369 0.950 . S
H1374 C1371 0.950 . S
C1375 C1366 1.390 . S
C1375 H1368 0.950 . S
C1375 C1372 1.387 . S
C1376 C1377 1.387 . S
C1376 H1380 0.950 . S
C1376 C1385 1.390 . S
C1377 C1376 1.387 . S
C1377 C1379 1.387 . S
H1378 C1385 0.950 . S
C1379 C1377 1.387 . S
C1379 C1381 1.390 . S
C1379 H1383 0.950 . S
H1380 C1376 0.950 . S
C1381 C1379 1.390 . S
C1381 C1382 1.387 . S
C1381 H1384 0.950 . S
C1382 C1381 1.387 . S
C1382 C1385 1.387 . S
H1383 C1379 0.950 . S
H1384 C1381 0.950 . S
C1385 C1376 1.390 . S
C1385 H1378 0.950 . S
C1385 C1382 1.387 . S
C1386 C1387 1.387 . S
C1386 H1390 0.950 . S
C1386 C1395 1.390 . S
C1387 C1386 1.387 . S
C1387 C1389 1.387 . S
H1388 C1395 0.950 . S
C1389 C1387 1.387 . S
C1389 C1391 1.390 . S
C1389 H1393 0.950 . S
H1390 C1386 0.950 . S
C1391 C1389 1.390 . S
C1391 C1392 1.387 . S
C1391 H1394 0.950 . S
C1392 C1391 1.387 . S
C1392 C1395 1.387 . S
H1393 C1389 0.950 . S
H1394 C1391 0.950 . S
C1395 C1386 1.390 . S
C1395 H1388 0.950 . S
C1395 C1392 1.387 . S
C1396 C1397 1.387 . S
C1396 H1400 0.950 . S
C1396 C1405 1.390 . S
C1397 C1396 1.387 . S
C1397 C1399 1.387 . S
H1398 C1405 0.950 . S
C1399 C1397 1.387 . S
C1399 C1401 1.390 . S
C1399 H1403 0.950 . S
H1400 C1396 0.950 . S
C1401 C1399 1.390 . S
C1401 C1402 1.387 . S
C1401 H1404 0.950 . S
C1402 C1401 1.387 . S
C1402 C1405 1.387 . S
H1403 C1399 0.950 . S
H1404 C1401 0.950 . S
C1405 C1396 1.390 . S
C1405 H1398 0.950 . S
C1405 C1402 1.387 . S
C1406 C1407 1.387 . S
C1406 H1410 0.950 . S
C1406 C1415 1.390 . S
C1407 C1406 1.387 . S
C1407 C1409 1.387 . S
H1408 C1415 0.950 . S
C1409 C1407 1.387 . S
C1409 C1411 1.390 . S
C1409 H1413 0.950 . S
H1410 C1406 0.950 . S
C1411 C1409 1.390 . S
C1411 C1412 1.387 . S
C1411 H1414 0.950 . S
C1412 C1411 1.387 . S
C1412 C1415 1.387 . S
H1413 C1409 0.950 . S
H1414 C1411 0.950 . S
C1415 C1406 1.390 . S
C1415 H1408 0.950 . S
C1415 C1412 1.387 . S
C1416 C1417 1.387 . S
C1416 H1420 0.950 . S
C1416 C1425 1.390 . S
C1417 C1416 1.387 . S
C1417 C1419 1.387 . S
H1418 C1425 0.950 . S
C1419 C1417 1.387 . S
C1419 C1421 1.390 1_545 S
C1419 H1423 0.950 1_545 S
H1420 C1416 0.950 . S
C1421 C1419 1.390 1_565 S
C1421 C1422 1.387 1_565 S
C1421 H1424 0.950 . S
C1422 C1421 1.387 1_545 S
C1422 C1425 1.387 . S
H1423 C1419 0.950 1_565 S
H1424 C1421 0.950 . S
C1425 C1416 1.390 . S
C1425 H1418 0.950 . S
C1425 C1422 1.387 . S
C1426 C1427 1.387 . S
C1426 H1430 0.950 . S
C1426 C1435 1.390 . S
C1427 C1426 1.387 . S
C1427 C1429 1.387 . S
H1428 C1435 0.950 . S
C1429 C1427 1.387 . S
C1429 C1431 1.390 . S
C1429 H1433 0.950 . S
H1430 C1426 0.950 . S
C1431 C1429 1.390 . S
C1431 C1432 1.387 . S
C1431 H1434 0.950 . S
C1432 C1431 1.387 . S
C1432 C1435 1.387 . S
H1433 C1429 0.950 . S
H1434 C1431 0.950 . S
C1435 C1426 1.390 . S
C1435 H1428 0.950 . S
C1435 C1432 1.387 . S
C1436 C1437 1.387 . S
C1436 H1440 0.950 . S
C1436 C1445 1.390 . S
C1437 C1436 1.387 . S
C1437 C1439 1.387 . S
H1438 C1445 0.950 . S
C1439 C1437 1.387 . S
C1439 C1441 1.390 . S
C1439 H1443 0.950 . S
H1440 C1436 0.950 . S
C1441 C1439 1.390 . S
C1441 C1442 1.387 . S
C1441 H1444 0.950 . S
C1442 C1441 1.387 . S
C1442 C1445 1.387 . S
H1443 C1439 0.950 . S
H1444 C1441 0.950 . S
C1445 C1436 1.390 . S
C1445 H1438 0.950 . S
C1445 C1442 1.387 . S
C1446 C1447 1.387 . S
C1446 H1450 0.950 . S
C1446 C1455 1.390 . S
C1447 C1446 1.387 . S
C1447 C1449 1.387 . S
H1448 C1455 0.950 . S
C1449 C1447 1.387 . S
C1449 C1451 1.390 . S
C1449 H1453 0.950 . S
H1450 C1446 0.950 . S
C1451 C1449 1.390 . S
C1451 C1452 1.387 . S
C1451 H1454 0.950 . S
C1452 C1451 1.387 . S
C1452 C1455 1.387 . S
H1453 C1449 0.950 . S
H1454 C1451 0.950 . S
C1455 C1446 1.390 . S
C1455 H1448 0.950 . S
C1455 C1452 1.387 . S
C1456 C1457 1.387 . S
C1456 H1460 0.950 . S
C1456 C1465 1.390 . S
C1457 C1456 1.387 . S
C1457 C1459 1.387 . S
H1458 C1465 0.950 . S
C1459 C1457 1.387 . S
C1459 C1461 1.390 . S
C1459 H1463 0.950 . S
H1460 C1456 0.950 . S
C1461 C1459 1.390 . S
C1461 C1462 1.387 . S
C1461 H1464 0.950 . S
C1462 C1461 1.387 . S
C1462 C1465 1.387 . S
H1463 C1459 0.950 . S
H1464 C1461 0.950 . S
C1465 C1456 1.390 . S
C1465 H1458 0.950 . S
C1465 C1462 1.387 . S
C1466 C1467 1.387 . S
C1466 H1470 0.950 . S
C1466 C1475 1.390 . S
C1467 C1466 1.387 . S
C1467 C1469 1.387 . S
H1468 C1475 0.950 . S
C1469 C1467 1.387 . S
C1469 C1471 1.390 . S
C1469 H1473 0.950 . S
H1470 C1466 0.950 . S
C1471 C1469 1.390 . S
C1471 C1472 1.387 . S
C1471 H1474 0.950 . S
C1472 C1471 1.387 . S
C1472 C1475 1.387 . S
H1473 C1469 0.950 . S
H1474 C1471 0.950 . S
C1475 C1466 1.390 . S
C1475 H1468 0.950 . S
C1475 C1472 1.387 . S
C1476 C1477 1.387 . S
C1476 H1480 0.950 . S
C1476 C1485 1.390 . S
C1477 C1476 1.387 . S
C1477 C1479 1.387 1_455 S
H1478 C1485 0.950 . S
C1479 C1477 1.387 1_655 S
C1479 C1481 1.390 . S
C1479 H1483 0.950 . S
H1480 C1476 0.950 . S
C1481 C1479 1.390 . S
C1481 C1482 1.387 1_655 S
C1481 H1484 0.950 . S
C1482 C1481 1.387 1_455 S
C1482 C1485 1.387 . S
H1483 C1479 0.950 . S
H1484 C1481 0.950 . S
C1485 C1476 1.390 . S
C1485 H1478 0.950 . S
C1485 C1482 1.387 . S
C1486 C1487 1.387 . S
C1486 H1490 0.950 . S
C1486 C1495 1.390 . S
C1487 C1486 1.387 . S
C1487 C1489 1.387 . S
H1488 C1495 0.950 . S
C1489 C1487 1.387 . S
C1489 C1491 1.390 . S
C1489 H1493 0.950 . S
H1490 C1486 0.950 . S
C1491 C1489 1.390 . S
C1491 C1492 1.387 . S
C1491 H1494 0.950 . S
C1492 C1491 1.387 . S
C1492 C1495 1.387 . S
H1493 C1489 0.950 . S
H1494 C1491 0.950 . S
C1495 C1486 1.390 . S
C1495 H1488 0.950 . S
C1495 C1492 1.387 . S
C1496 C1497 1.387 . S
C1496 H1500 0.950 . S
C1496 C1505 1.390 . S
C1497 C1496 1.387 . S
C1497 C1499 1.387 . S
H1498 C1505 0.950 . S
C1499 C1497 1.387 . S
C1499 C1501 1.390 . S
C1499 H1503 0.950 . S
H1500 C1496 0.950 . S
C1501 C1499 1.390 . S
C1501 C1502 1.387 . S
C1501 H1504 0.950 . S
C1502 C1501 1.387 . S
C1502 C1505 1.387 . S
H1503 C1499 0.950 . S
H1504 C1501 0.950 . S
C1505 C1496 1.390 . S
C1505 H1498 0.950 . S
C1505 C1502 1.387 . S
C1506 C1507 1.387 . S
C1506 H1510 0.950 . S
C1506 C1515 1.390 . S
C1507 C1506 1.387 . S
C1507 C1509 1.387 . S
H1508 C1515 0.950 . S
C1509 C1507 1.387 . S
C1509 C1511 1.390 . S
C1509 H1513 0.950 . S
H1510 C1506 0.950 . S
C1511 C1509 1.390 . S
C1511 C1512 1.387 . S
C1511 H1514 0.950 . S
C1512 C1511 1.387 . S
C1512 C1515 1.387 . S
H1513 C1509 0.950 . S
H1514 C1511 0.950 . S
C1515 C1506 1.390 . S
C1515 H1508 0.950 . S
C1515 C1512 1.387 . S
C1516 C1517 1.387 . S
C1516 H1520 0.950 1_455 S
C1516 C1525 1.390 . S
C1517 C1516 1.387 . S
C1517 C1519 1.387 . S
H1518 C1525 0.950 1_655 S
C1519 C1517 1.387 . S
C1519 C1521 1.390 . S
C1519 H1523 0.950 . S
H1520 C1516 0.950 1_655 S
C1521 C1519 1.390 . S
C1521 C1522 1.387 . S
C1521 H1524 0.950 . S
C1522 C1521 1.387 . S
C1522 C1525 1.387 . S
H1523 C1519 0.950 . S
H1524 C1521 0.950 . S
C1525 C1516 1.390 . S
C1525 H1518 0.950 1_455 S
C1525 C1522 1.387 . S
C1526 C1527 1.387 . S
C1526 H1530 0.950 . S
C1526 C1535 1.390 . S
C1527 C1526 1.387 . S
C1527 C1529 1.387 . S
H1528 C1535 0.950 . S
C1529 C1527 1.387 . S
C1529 C1531 1.390 . S
C1529 H1533 0.950 . S
H1530 C1526 0.950 . S
C1531 C1529 1.390 . S
C1531 C1532 1.387 . S
C1531 H1534 0.950 . S
C1532 C1531 1.387 . S
C1532 C1535 1.387 . S
H1533 C1529 0.950 . S
H1534 C1531 0.950 . S
C1535 C1526 1.390 . S
C1535 H1528 0.950 . S
C1535 C1532 1.387 . S
C1536 C1537 1.387 . S
C1536 H1540 0.950 . S
C1536 C1545 1.390 . S
C1537 C1536 1.387 . S
C1537 C1539 1.387 . S
H1538 C1545 0.950 . S
C1539 C1537 1.387 . S
C1539 C1541 1.390 . S
C1539 H1543 0.950 . S
H1540 C1536 0.950 . S
C1541 C1539 1.390 . S
C1541 C1542 1.387 . S
C1541 H1544 0.950 . S
C1542 C1541 1.387 . S
C1542 C1545 1.387 . S
H1543 C1539 0.950 . S
H1544 C1541 0.950 . S
C1545 C1536 1.390 . S
C1545 H1538 0.950 . S
C1545 C1542 1.387 . S
C1546 C1547 1.387 . S
C1546 H1550 0.950 . S
C1546 C1555 1.390 1_554 S
C1547 C1546 1.387 . S
C1547 C1549 1.387 . S
H1548 C1555 0.950 . S
C1549 C1547 1.387 . S
C1549 C1551 1.390 . S
C1549 H1553 0.950 . S
H1550 C1546 0.950 . S
C1551 C1549 1.390 . S
C1551 C1552 1.387 1_554 S
C1551 H1554 0.950 . S
C1552 C1551 1.387 1_556 S
C1552 C1555 1.387 . S
H1553 C1549 0.950 . S
H1554 C1551 0.950 . S
C1555 C1546 1.390 1_556 S
C1555 H1548 0.950 . S
C1555 C1552 1.387 . S
C1556 C1557 1.387 . S
C1556 H1560 0.950 . S
C1556 C1565 1.390 . S
C1557 C1556 1.387 . S
C1557 C1559 1.387 . S
H1558 C1565 0.950 . S
C1559 C1557 1.387 . S
C1559 C1561 1.390 . S
C1559 H1563 0.950 . S
H1560 C1556 0.950 . S
C1561 C1559 1.390 . S
C1561 C1562 1.387 . S
C1561 H1564 0.950 . S
C1562 C1561 1.387 . S
C1562 C1565 1.387 . S
H1563 C1559 0.950 . S
H1564 C1561 0.950 . S
C1565 C1556 1.390 . S
C1565 H1558 0.950 . S
C1565 C1562 1.387 . S
C1566 C1567 1.387 . S
C1566 H1570 0.950 . S
C1566 C1575 1.390 . S
C1567 C1566 1.387 . S
C1567 C1569 1.387 . S
H1568 C1575 0.950 . S
C1569 C1567 1.387 . S
C1569 C1571 1.390 . S
C1569 H1573 0.950 . S
H1570 C1566 0.950 . S
C1571 C1569 1.390 . S
C1571 C1572 1.387 . S
C1571 H1574 0.950 . S
C1572 C1571 1.387 . S
C1572 C1575 1.387 . S
H1573 C1569 0.950 . S
H1574 C1571 0.950 . S
C1575 C1566 1.390 . S
C1575 H1568 0.950 . S
C1575 C1572 1.387 . S
C1576 C1577 1.387 . S
C1576 H1580 0.950 . S
C1576 C1585 1.390 . S
C1577 C1576 1.387 . S
C1577 C1579 1.387 . S
H1578 C1585 0.950 . S
C1579 C1577 1.387 . S
C1579 C1581 1.390 . S
C1579 H1583 0.950 . S
H1580 C1576 0.950 . S
C1581 C1579 1.390 . S
C1581 C1582 1.387 . S
C1581 H1584 0.950 . S
C1582 C1581 1.387 . S
C1582 C1585 1.387 . S
H1583 C1579 0.950 . S
H1584 C1581 0.950 . S
C1585 C1576 1.390 . S
C1585 H1578 0.950 . S
C1585 C1582 1.387 . S
C1586 C1587 1.387 . S
C1586 H1590 0.950 . S
C1586 C1595 1.390 . S
C1587 C1586 1.387 . S
C1587 C1589 1.387 . S
H1588 C1595 0.950 . S
C1589 C1587 1.387 . S
C1589 C1591 1.390 . S
C1589 H1593 0.950 . S
H1590 C1586 0.950 . S
C1591 C1589 1.390 . S
C1591 C1592 1.387 . S
C1591 H1594 0.950 . S
C1592 C1591 1.387 . S
C1592 C1595 1.387 . S
H1593 C1589 0.950 . S
H1594 C1591 0.950 . S
C1595 C1586 1.390 . S
C1595 H1588 0.950 . S
C1595 C1592 1.387 . S
C1596 C1597 1.387 . S
C1596 H1600 0.950 . S
C1596 C1605 1.390 . S
C1597 C1596 1.387 . S
C1597 C1599 1.387 . S
H1598 C1605 0.950 . S
C1599 C1597 1.387 . S
C1599 C1601 1.390 . S
C1599 H1603 0.950 . S
H1600 C1596 0.950 . S
C1601 C1599 1.390 . S
C1601 C1602 1.387 . S
C1601 H1604 0.950 . S
C1602 C1601 1.387 . S
C1602 C1605 1.387 . S
H1603 C1599 0.950 . S
H1604 C1601 0.950 . S
C1605 C1596 1.390 . S
C1605 H1598 0.950 . S
C1605 C1602 1.387 . S
C1606 C1607 1.387 . S
C1606 H1610 0.950 . S
C1606 C1615 1.390 . S
C1607 C1606 1.387 . S
C1607 C1609 1.387 . S
H1608 C1615 0.950 . S
C1609 C1607 1.387 . S
C1609 C1611 1.390 . S
C1609 H1613 0.950 . S
H1610 C1606 0.950 . S
C1611 C1609 1.390 . S
C1611 C1612 1.387 . S
C1611 H1614 0.950 . S
C1612 C1611 1.387 . S
C1612 C1615 1.387 . S
H1613 C1609 0.950 . S
H1614 C1611 0.950 . S
C1615 C1606 1.390 . S
C1615 H1608 0.950 . S
C1615 C1612 1.387 . S
C1616 C1617 1.387 . S
C1616 H1620 0.950 . S
C1616 C1625 1.390 . S
C1617 C1616 1.387 . S
C1617 C1619 1.387 . S
H1618 C1625 0.950 . S
C1619 C1617 1.387 . S
C1619 C1621 1.390 . S
C1619 H1623 0.950 . S
H1620 C1616 0.950 . S
C1621 C1619 1.390 . S
C1621 C1622 1.387 . S
C1621 H1624 0.950 . S
C1622 C1621 1.387 . S
C1622 C1625 1.387 . S
H1623 C1619 0.950 . S
H1624 C1621 0.950 . S
C1625 C1616 1.390 . S
C1625 H1618 0.950 . S
C1625 C1622 1.387 . S
C1626 C1627 1.387 . S
C1626 H1630 0.950 . S
C1626 C1635 1.390 . S
C1627 C1626 1.387 . S
C1627 C1629 1.387 . S
H1628 C1635 0.950 . S
C1629 C1627 1.387 . S
C1629 C1631 1.390 . S
C1629 H1633 0.950 . S
H1630 C1626 0.950 . S
C1631 C1629 1.390 . S
C1631 C1632 1.387 . S
C1631 H1634 0.950 . S
C1632 C1631 1.387 . S
C1632 C1635 1.387 . S
H1633 C1629 0.950 . S
H1634 C1631 0.950 . S
C1635 C1626 1.390 . S
C1635 H1628 0.950 . S
C1635 C1632 1.387 . S
C1636 C1637 1.387 . S
C1636 H1640 0.950 . S
C1636 C1645 1.390 . S
C1637 C1636 1.387 . S
C1637 C1639 1.387 1_565 S
H1638 C1645 0.950 . S
C1639 C1637 1.387 1_545 S
C1639 C1641 1.390 1_545 S
C1639 H1643 0.950 . S
H1640 C1636 0.950 . S
C1641 C1639 1.390 1_565 S
C1641 C1642 1.387 . S
C1641 H1644 0.940 1_565 S
C1642 C1641 1.387 . S
C1642 C1645 1.387 . S
H1643 C1639 0.950 . S
H1644 C1641 0.940 1_545 S
C1645 C1636 1.390 . S
C1645 H1638 0.950 . S
C1645 C1642 1.387 . S
C1646 C1647 1.387 . S
C1646 H1650 0.951 1_554 S
C1646 C1655 1.390 1_565 S
C1647 C1646 1.387 . S
C1647 C1649 1.387 . S
H1648 C1655 0.948 1_556 S
C1649 C1647 1.387 . S
C1649 C1651 1.390 1_565 S
C1649 H1653 0.950 . S
H1650 C1646 0.951 1_556 S
C1651 C1649 1.390 1_545 S
C1651 C1652 1.387 . S
C1651 H1654 0.950 . S
C1652 C1651 1.387 . S
C1652 C1655 1.387 . S
H1653 C1649 0.950 . S
H1654 C1651 0.950 . S
C1655 C1646 1.390 1_545 S
C1655 H1648 0.948 1_554 S
C1655 C1652 1.387 . S
C1656 C1657 1.387 . S
C1656 H1660 0.950 . S
C1656 C1665 1.390 . S
C1657 C1656 1.387 . S
C1657 C1659 1.387 . S
H1658 C1665 0.950 . S
C1659 C1657 1.387 . S
C1659 C1661 1.390 . S
C1659 H1663 0.950 . S
H1660 C1656 0.950 . S
C1661 C1659 1.390 . S
C1661 C1662 1.387 . S
C1661 H1664 0.950 . S
C1662 C1661 1.387 . S
C1662 C1665 1.387 . S
H1663 C1659 0.950 . S
H1664 C1661 0.950 . S
C1665 C1656 1.390 . S
C1665 H1658 0.950 . S
C1665 C1662 1.387 . S
C1666 C1667 1.387 . S
C1666 H1670 0.950 . S
C1666 C1675 1.390 . S
C1667 C1666 1.387 . S
C1667 C1669 1.387 . S
H1668 C1675 0.950 . S
C1669 C1667 1.387 . S
C1669 C1671 1.390 . S
C1669 H1673 0.950 . S
H1670 C1666 0.950 . S
C1671 C1669 1.390 . S
C1671 C1672 1.387 . S
C1671 H1674 0.950 . S
C1672 C1671 1.387 . S
C1672 C1675 1.387 . S
H1673 C1669 0.950 . S
H1674 C1671 0.950 . S
C1675 C1666 1.390 . S
C1675 H1668 0.950 . S
C1675 C1672 1.387 . S
C1676 C1677 1.387 . S
C1676 H1680 0.950 . S
C1676 C1685 1.390 . S
C1677 C1676 1.387 . S
C1677 C1679 1.387 . S
H1678 C1685 0.950 . S
C1679 C1677 1.387 . S
C1679 C1681 1.390 . S
C1679 H1683 0.950 . S
H1680 C1676 0.950 . S
C1681 C1679 1.390 . S
C1681 C1682 1.387 . S
C1681 H1684 0.950 . S
C1682 C1681 1.387 . S
C1682 C1685 1.387 . S
H1683 C1679 0.950 . S
H1684 C1681 0.950 . S
C1685 C1676 1.390 . S
C1685 H1678 0.950 . S
C1685 C1682 1.387 . S
C1686 C1687 1.387 . S
C1686 H1690 0.950 . S
C1686 C1695 1.390 . S
C1687 C1686 1.387 . S
C1687 C1689 1.387 . S
H1688 C1695 0.950 . S
C1689 C1687 1.387 . S
C1689 C1691 1.390 . S
C1689 H1693 0.950 . S
H1690 C1686 0.950 . S
C1691 C1689 1.390 . S
C1691 C1692 1.387 . S
C1691 H1694 0.950 . S
C1692 C1691 1.387 . S
C1692 C1695 1.387 . S
H1693 C1689 0.950 . S
H1694 C1691 0.950 . S
C1695 C1686 1.390 . S
C1695 H1688 0.950 . S
C1695 C1692 1.387 . S
C1696 C1697 1.387 . S
C1696 H1700 0.950 . S
C1696 C1705 1.390 . S
C1697 C1696 1.387 . S
C1697 C1699 1.387 . S
H1698 C1705 0.950 . S
C1699 C1697 1.387 . S
C1699 C1701 1.390 . S
C1699 H1703 0.950 . S
H1700 C1696 0.950 . S
C1701 C1699 1.390 . S
C1701 C1702 1.387 . S
C1701 H1704 0.950 . S
C1702 C1701 1.387 . S
C1702 C1705 1.387 . S
H1703 C1699 0.950 . S
H1704 C1701 0.950 . S
C1705 C1696 1.390 . S
C1705 H1698 0.950 . S
C1705 C1702 1.387 . S
C1706 C1707 1.387 . S
C1706 H1710 0.950 . S
C1706 C1715 1.390 . S
C1707 C1706 1.387 . S
C1707 C1709 1.387 . S
H1708 C1715 0.950 . S
C1709 C1707 1.387 . S
C1709 C1711 1.390 . S
C1709 H1713 0.950 . S
H1710 C1706 0.950 . S
C1711 C1709 1.390 . S
C1711 C1712 1.387 . S
C1711 H1714 0.950 . S
C1712 C1711 1.387 . S
C1712 C1715 1.387 . S
H1713 C1709 0.950 . S
H1714 C1711 0.950 . S
C1715 C1706 1.390 . S
C1715 H1708 0.950 . S
C1715 C1712 1.387 . S
C1716 C1717 1.387 . S
C1716 H1720 0.950 . S
C1716 C1725 1.390 . S
C1717 C1716 1.387 . S
C1717 C1719 1.387 . S
H1718 C1725 0.950 . S
C1719 C1717 1.387 . S
C1719 C1721 1.390 . S
C1719 H1723 0.950 . S
H1720 C1716 0.950 . S
C1721 C1719 1.390 . S
C1721 C1722 1.387 . S
C1721 H1724 0.950 . S
C1722 C1721 1.387 . S
C1722 C1725 1.387 . S
H1723 C1719 0.950 . S
H1724 C1721 0.950 . S
C1725 C1716 1.390 . S
C1725 H1718 0.950 . S
C1725 C1722 1.387 . S
C1726 C1727 1.387 . S
C1726 H1730 0.950 . S
C1726 C1735 1.390 . S
C1727 C1726 1.387 . S
C1727 C1729 1.387 . S
H1728 C1735 0.950 . S
C1729 C1727 1.387 . S
C1729 C1731 1.390 . S
C1729 H1733 0.950 . S
H1730 C1726 0.950 . S
C1731 C1729 1.390 . S
C1731 C1732 1.387 . S
C1731 H1734 0.950 . S
C1732 C1731 1.387 . S
C1732 C1735 1.387 . S
H1733 C1729 0.950 . S
H1734 C1731 0.950 . S
C1735 C1726 1.390 . S
C1735 H1728 0.950 . S
C1735 C1732 1.387 . S
C1736 C1737 1.387 . S
C1736 H1740 0.950 . S
C1736 C1745 1.390 . S
C1737 C1736 1.387 . S
C1737 C1739 1.387 . S
H1738 C1745 0.953 . S
C1739 C1737 1.387 . S
C1739 C1741 1.390 . S
C1739 H1743 0.950 . S
H1740 C1736 0.950 . S
C1741 C1739 1.390 . S
C1741 C1742 1.387 . S
C1741 H1744 0.950 . S
C1742 C1741 1.387 . S
C1742 C1745 1.387 . S
H1743 C1739 0.950 . S
H1744 C1741 0.950 . S
C1745 C1736 1.390 . S
C1745 H1738 0.953 . S
C1745 C1742 1.387 . S
C1746 C1747 1.387 . S
C1746 H1750 0.950 . S
C1746 C1755 1.390 . S
C1747 C1746 1.387 . S
C1747 C1749 1.387 . S
H1748 C1755 0.950 . S
C1749 C1747 1.387 . S
C1749 C1751 1.390 . S
C1749 H1753 0.950 . S
H1750 C1746 0.950 . S
C1751 C1749 1.390 . S
C1751 C1752 1.387 . S
C1751 H1754 0.950 . S
C1752 C1751 1.387 . S
C1752 C1755 1.387 . S
H1753 C1749 0.950 . S
H1754 C1751 0.950 . S
C1755 C1746 1.390 . S
C1755 H1748 0.950 . S
C1755 C1752 1.387 . S
C1756 C1757 1.387 . S
C1756 H1760 0.950 . S
C1756 C1765 1.390 . S
C1757 C1756 1.387 . S
C1757 C1759 1.387 . S
H1758 C1765 0.950 . S
C1759 C1757 1.387 . S
C1759 C1761 1.390 . S
C1759 H1763 0.950 . S
H1760 C1756 0.950 . S
C1761 C1759 1.390 . S
C1761 C1762 1.387 . S
C1761 H1764 0.950 . S
C1762 C1761 1.387 . S
C1762 C1765 1.387 . S
H1763 C1759 0.950 . S
H1764 C1761 0.950 . S
C1765 C1756 1.390 . S
C1765 H1758 0.950 . S
C1765 C1762 1.387 . S
C1766 C1767 1.387 . S
C1766 H1770 0.950 . S
C1766 C1775 1.390 . S
C1767 C1766 1.387 . S
C1767 C1769 1.387 . S
H1768 C1775 0.950 . S
C1769 C1767 1.387 . S
C1769 C1771 1.390 . S
C1769 H1773 0.950 . S
H1770 C1766 0.950 . S
C1771 C1769 1.390 . S
C1771 C1772 1.387 . S
C1771 H1774 0.950 . S
C1772 C1771 1.387 . S
C1772 C1775 1.387 . S
H1773 C1769 0.950 . S
H1774 C1771 0.950 . S
C1775 C1766 1.390 . S
C1775 H1768 0.950 . S
C1775 C1772 1.387 . S
C1776 C1777 1.387 . S
C1776 H1780 0.950 . S
C1776 C1785 1.390 . S
C1777 C1776 1.387 . S
C1777 C1779 1.387 . S
H1778 C1785 0.950 . S
C1779 C1777 1.387 . S
C1779 C1781 1.390 . S
C1779 H1783 0.950 . S
H1780 C1776 0.950 . S
C1781 C1779 1.390 . S
C1781 C1782 1.387 . S
C1781 H1784 0.950 . S
C1782 C1781 1.387 . S
C1782 C1785 1.387 . S
H1783 C1779 0.950 . S
H1784 C1781 0.950 . S
C1785 C1776 1.390 . S
C1785 H1778 0.950 . S
C1785 C1782 1.387 . S
C1786 C1787 1.387 . S
C1786 H1790 0.950 . S
C1786 C1795 1.390 . S
C1787 C1786 1.387 . S
C1787 C1789 1.387 . S
H1788 C1795 0.950 . S
C1789 C1787 1.387 . S
C1789 C1791 1.390 . S
C1789 H1793 0.950 . S
H1790 C1786 0.950 . S
C1791 C1789 1.390 . S
C1791 C1792 1.387 . S
C1791 H1794 0.950 . S
C1792 C1791 1.387 . S
C1792 C1795 1.387 . S
H1793 C1789 0.950 . S
H1794 C1791 0.950 . S
C1795 C1786 1.390 . S
C1795 H1788 0.950 . S
C1795 C1792 1.387 . S
C1796 C1797 1.387 . S
C1796 H1800 0.950 . S
C1796 C1805 1.390 . S
C1797 C1796 1.387 . S
C1797 C1799 1.387 . S
H1798 C1805 0.950 . S
C1799 C1797 1.387 . S
C1799 C1801 1.390 . S
C1799 H1803 0.950 . S
H1800 C1796 0.950 . S
C1801 C1799 1.390 . S
C1801 C1802 1.387 1_556 S
C1801 H1804 0.949 1_556 S
C1802 C1801 1.387 1_554 S
C1802 C1805 1.387 1_554 S
H1803 C1799 0.950 . S
H1804 C1801 0.949 1_554 S
C1805 C1796 1.390 . S
C1805 H1798 0.950 . S
C1805 C1802 1.387 1_556 S
C1806 C1807 1.387 . S
C1806 H1810 0.950 . S
C1806 C1815 1.390 . S
C1807 C1806 1.387 . S
C1807 C1809 1.387 . S
H1808 C1815 0.950 . S
C1809 C1807 1.387 . S
C1809 C1811 1.390 . S
C1809 H1813 0.950 . S
H1810 C1806 0.950 . S
C1811 C1809 1.390 . S
C1811 C1812 1.387 . S
C1811 H1814 0.950 . S
C1812 C1811 1.387 . S
C1812 C1815 1.387 . S
H1813 C1809 0.950 . S
H1814 C1811 0.950 . S
C1815 C1806 1.390 . S
C1815 H1808 0.950 . S
C1815 C1812 1.387 . S
C1816 C1817 1.387 . S
C1816 H1820 0.950 . S
C1816 C1825 1.390 . S
C1817 C1816 1.387 . S
C1817 C1819 1.387 . S
H1818 C1825 0.950 . S
C1819 C1817 1.387 . S
C1819 C1821 1.390 . S
C1819 H1823 0.950 . S
H1820 C1816 0.950 . S
C1821 C1819 1.390 . S
C1821 C1822 1.387 . S
C1821 H1824 0.950 . S
C1822 C1821 1.387 . S
C1822 C1825 1.387 . S
H1823 C1819 0.950 . S
H1824 C1821 0.950 . S
C1825 C1816 1.390 . S
C1825 H1818 0.950 . S
C1825 C1822 1.387 . S
C1826 C1827 1.387 . S
C1826 H1830 0.950 . S
C1826 C1835 1.390 . S
C1827 C1826 1.387 . S
C1827 C1829 1.387 . S
H1828 C1835 0.950 . S
C1829 C1827 1.387 . S
C1829 C1831 1.390 . S
C1829 H1833 0.950 . S
H1830 C1826 0.950 . S
C1831 C1829 1.390 . S
C1831 C1832 1.387 . S
C1831 H1834 0.950 . S
C1832 C1831 1.387 . S
C1832 C1835 1.387 . S
H1833 C1829 0.950 . S
H1834 C1831 0.950 . S
C1835 C1826 1.390 . S
C1835 H1828 0.950 . S
C1835 C1832 1.387 . S
C1836 C1837 1.387 . S
C1836 H1840 0.950 . S
C1836 C1845 1.390 . S
C1837 C1836 1.387 . S
C1837 C1839 1.387 . S
H1838 C1845 0.950 . S
C1839 C1837 1.387 . S
C1839 C1841 1.390 . S
C1839 H1843 0.950 . S
H1840 C1836 0.950 . S
C1841 C1839 1.390 . S
C1841 C1842 1.387 . S
C1841 H1844 0.950 . S
C1842 C1841 1.387 . S
C1842 C1845 1.387 . S
H1843 C1839 0.950 . S
H1844 C1841 0.950 . S
C1845 C1836 1.390 . S
C1845 H1838 0.950 . S
C1845 C1842 1.387 . S
C1846 C1847 1.387 . S
C1846 H1850 0.950 . S
C1846 C1855 1.390 . S
C1847 C1846 1.387 . S
C1847 C1849 1.387 . S
H1848 C1855 0.950 . S
C1849 C1847 1.387 . S
C1849 C1851 1.390 . S
C1849 H1853 0.950 . S
H1850 C1846 0.950 . S
C1851 C1849 1.390 . S
C1851 C1852 1.387 . S
C1851 H1854 0.950 . S
C1852 C1851 1.387 . S
C1852 C1855 1.387 . S
H1853 C1849 0.950 . S
H1854 C1851 0.950 . S
C1855 C1846 1.390 . S
C1855 H1848 0.950 . S
C1855 C1852 1.387 . S
C1856 C1857 1.387 . S
C1856 H1860 0.950 . S
C1856 C1865 1.390 . S
C1857 C1856 1.387 . S
C1857 C1859 1.387 . S
H1858 C1865 0.950 . S
C1859 C1857 1.387 . S
C1859 C1861 1.390 . S
C1859 H1863 0.950 . S
H1860 C1856 0.950 . S
C1861 C1859 1.390 . S
C1861 C1862 1.387 . S
C1861 H1864 0.950 . S
C1862 C1861 1.387 . S
C1862 C1865 1.387 . S
H1863 C1859 0.950 . S
H1864 C1861 0.950 . S
C1865 C1856 1.390 . S
C1865 H1858 0.950 . S
C1865 C1862 1.387 . S
C1866 C1867 1.387 . S
C1866 H1870 0.950 . S
C1866 C1875 1.390 . S
C1867 C1866 1.387 . S
C1867 C1869 1.387 . S
H1868 C1875 0.950 1_545 S
C1869 C1867 1.387 . S
C1869 C1871 1.390 . S
C1869 H1873 0.950 . S
H1870 C1866 0.950 . S
C1871 C1869 1.390 . S
C1871 C1872 1.387 . S
C1871 H1874 0.950 . S
C1872 C1871 1.387 . S
C1872 C1875 1.387 . S
H1873 C1869 0.950 . S
H1874 C1871 0.950 . S
C1875 C1866 1.390 . S
C1875 H1868 0.950 1_565 S
C1875 C1872 1.387 . S
C1876 C1877 1.387 . S
C1876 H1880 0.950 . S
C1876 C1885 1.390 . S
C1877 C1876 1.387 . S
C1877 C1879 1.387 . S
H1878 C1885 0.950 . S
C1879 C1877 1.387 . S
C1879 C1881 1.390 . S
C1879 H1883 0.950 . S
H1880 C1876 0.950 . S
C1881 C1879 1.390 . S
C1881 C1882 1.387 . S
C1881 H1884 0.950 . S
C1882 C1881 1.387 . S
C1882 C1885 1.387 . S
H1883 C1879 0.950 . S
H1884 C1881 0.950 . S
C1885 C1876 1.390 . S
C1885 H1878 0.950 . S
C1885 C1882 1.387 . S
C1886 C1887 1.387 . S
C1886 H1890 0.950 . S
C1886 C1895 1.390 . S
C1887 C1886 1.387 . S
C1887 C1889 1.387 . S
H1888 C1895 0.950 . S
C1889 C1887 1.387 . S
C1889 C1891 1.390 . S
C1889 H1893 0.950 . S
H1890 C1886 0.950 . S
C1891 C1889 1.390 . S
C1891 C1892 1.387 . S
C1891 H1894 0.950 . S
C1892 C1891 1.387 . S
C1892 C1895 1.387 . S
H1893 C1889 0.950 . S
H1894 C1891 0.950 . S
C1895 C1886 1.390 . S
C1895 H1888 0.950 . S
C1895 C1892 1.387 . S
C1896 C1897 1.387 . S
C1896 H1900 0.950 . S
C1896 C1905 1.390 . S
C1897 C1896 1.387 . S
C1897 C1899 1.387 . S
H1898 C1905 0.950 . S
C1899 C1897 1.387 . S
C1899 C1901 1.390 . S
C1899 H1903 0.950 . S
H1900 C1896 0.950 . S
C1901 C1899 1.390 . S
C1901 C1902 1.387 . S
C1901 H1904 0.950 . S
C1902 C1901 1.387 . S
C1902 C1905 1.387 . S
H1903 C1899 0.950 . S
H1904 C1901 0.950 . S
C1905 C1896 1.390 . S
C1905 H1898 0.950 . S
C1905 C1902 1.387 . S
C1906 C1907 1.387 . S
C1906 H1910 0.950 . S
C1906 C1915 1.390 . S
C1907 C1906 1.387 . S
C1907 C1909 1.387 . S
H1908 C1915 0.950 . S
C1909 C1907 1.387 . S
C1909 C1911 1.390 . S
C1909 H1913 0.950 . S
H1910 C1906 0.950 . S
C1911 C1909 1.390 . S
C1911 C1912 1.387 . S
C1911 H1914 0.950 . S
C1912 C1911 1.387 . S
C1912 C1915 1.387 . S
H1913 C1909 0.950 . S
H1914 C1911 0.950 . S
C1915 C1906 1.390 . S
C1915 H1908 0.950 . S
C1915 C1912 1.387 . S
C1916 C1917 1.387 . S
C1916 H1920 0.950 . S
C1916 C1925 1.390 . S
C1917 C1916 1.387 . S
C1917 C1919 1.387 . S
H1918 C1925 0.950 . S
C1919 C1917 1.387 . S
C1919 C1921 1.390 . S
C1919 H1923 0.950 . S
H1920 C1916 0.950 . S
C1921 C1919 1.390 . S
C1921 C1922 1.387 . S
C1921 H1924 0.950 . S
C1922 C1921 1.387 . S
C1922 C1925 1.387 . S
H1923 C1919 0.950 . S
H1924 C1921 0.950 . S
C1925 C1916 1.390 . S
C1925 H1918 0.950 . S
C1925 C1922 1.387 . S
C1926 C1927 1.387 . S
C1926 H1930 0.950 . S
C1926 C1935 1.390 . S
C1927 C1926 1.387 . S
C1927 C1929 1.387 . S
H1928 C1935 0.950 . S
C1929 C1927 1.387 . S
C1929 C1931 1.390 . S
C1929 H1933 0.950 . S
H1930 C1926 0.950 . S
C1931 C1929 1.390 . S
C1931 C1932 1.387 . S
C1931 H1934 0.950 . S
C1932 C1931 1.387 . S
C1932 C1935 1.387 . S
H1933 C1929 0.950 . S
H1934 C1931 0.950 . S
C1935 C1926 1.390 . S
C1935 H1928 0.950 . S
C1935 C1932 1.387 . S
C977 C106 2.690 1_454 S
C982 C349 2.709 . S
C987 C65 2.157 . S
C992 C400 2.137 . S
C997 C79 2.035 . S
C1002 C429 2.004 . S
C1012 C473 1.298 . S
C1007 C90 1.284 . S
C1017 C21 1.210 . S
C1022 C513 1.216 . S
C1032 C549 1.695 . S
C1027 C35 1.722 . S
C1042 C599 2.103 . S
C1037 C50 2.084 . S
C1047 C6 2.397 . S
C1052 C629 2.420 . S
C1062 C359 2.291 . S
C1057 C232 2.279 . S
C1067 C245 0.914 . S
C1072 C402 0.937 . S
C1082 C439 1.506 . S
C1077 C274 1.485 . S
C1092 C469 1.497 . S
C1087 C175 1.494 . S
C1097 C231 1.403 . S
C1102 C509 1.400 . S
C1112 C559 1.055 . S
C1107 C246 1.050 . S
C1122 C593 0.891 . S
C1117 C273 0.894 . S
C1132 C639 2.217 . S
C1127 C176 2.208 . S
C1142 C353 1.565 . S
C1137 C160 1.569 . S
C1147 C289 1.815 . S
C1152 C679 1.832 . S
C1162 C713 1.590 . S
C1157 C328 1.577 . S
C1172 C749 1.061 . S
C1167 C317 1.135 . S
C1177 C118 1.654 . S
C1182 C633 1.629 . S
C1187 C132 1.636 . S
C1192 C433 1.642 . S
C1197 C331 1.766 . S
C1202 C799 1.774 . S
C1212 C818 0.602 . S
C1207 C303 0.575 . S
C1222 C360 2.417 1_565 S
C1217 C63 2.421 . S
C1232 C829 2.585 . S
C1227 C107 2.505 . S
C1237 C92 1.891 . S
C1242 C440 1.945 . S
C1247 C78 1.736 . S
C1252 C802 1.656 . S
C1262 C522 1.543 . S
C1257 C8 1.616 . S
C1267 C51 1.901 . S
C1272 C720 1.936 . S
C1282 C578 2.485 1_566 S
C1277 C37 2.379 . S
C1292 C880 2.497 . S
C1287 C20 2.499 . S
C1302 C338 2.093 1_556 S
C1297 C147 2.105 . S
C1312 C833 0.930 . S
C1307 C316 0.970 . S
C1317 C119 1.353 . S
C1322 C418 1.472 . S
C1327 C288 1.639 . S
C1332 C800 1.655 . S
C1337 C148 1.693 . S
C1342 C520 1.706 . S
C1352 C698 1.093 . S
C1347 C315 1.026 . S
C1357 C120 1.169 . S
C1362 C602 1.104 . S
C1367 C287 2.097 . S
C1372 C858 2.083 . S
C1377 C188 1.479 . S
C1382 C362 1.411 . S
C1387 C177 2.041 . S
C1392 C658 2.090 . S
C1397 C258 1.572 . S
C1402 C562 1.568 . S
C1407 C247 1.037 . S
C1412 C760 1.031 . S
C1422 C882 1.534 1_545 S
C1417 C272 1.615 . S
C1427 C216 1.558 . S
C1432 C442 1.529 . S
C1442 C458 2.023 . S
C1437 C261 1.972 . S
C1452 C399 0.584 . S
C1447 C205 0.588 . S
C1457 C76 2.292 . S
C1462 C909 2.312 . S
C1472 C840 2.203 . S
C1467 C93 2.226 . S
C1477 C105 1.711 . S
C1482 C949 1.673 . S
C1487 C62 1.297 1_655 S
C1492 C793 1.317 . S
C1497 C49 1.189 . S
C1502 C673 1.194 . S
C1512 C709 2.038 . S
C1507 C9 2.076 . S
C1522 C759 2.031 . S
C1517 C22 2.010 . S
C1532 C869 2.820 . S
C1527 C36 2.806 . S
C1542 C919 2.231 . S
C1537 C260 2.222 . S
C1547 C189 0.837 . S
C1552 C842 0.849 . S
C1562 C959 1.466 . S
C1557 C204 1.444 . S
C1572 C789 1.356 . S
C1567 C217 1.360 . S
C1582 C669 1.540 1_556 S
C1577 C259 1.536 . S
C1587 C190 1.086 . S
C1592 C719 1.089 . S
C1602 C753 0.993 . S
C1597 C203 0.994 . S
C1607 C218 2.263 . S
C1612 C879 2.275 . S
C1622 C913 1.578 . S
C1617 C314 1.586 . S
C1627 C135 1.853 . S
C1632 C519 1.860 . S
C1642 C553 1.618 . S
C1637 C146 1.604 1_565 S
C1652 C589 1.096 . S
C1647 C163 1.148 . S
C1662 C873 1.629 . S
C1657 C300 1.651 . S
C1667 C286 1.662 . S
C1672 C953 1.669 . S
C1682 C479 1.752 . S
C1677 C149 1.735 . S
C1692 C378 0.620 . S
C1687 C121 0.577 . S
C1697 C91 2.422 . S
C1702 C920 2.426 . S
C1712 C389 2.203 . S
C1707 C77 2.023 . S
C1717 C64 1.876 . S
C1722 C960 1.952 . S
C1727 C104 1.436 . S
C1732 C482 1.447 . S
C1737 C34 1.343 . S
C1742 C682 1.344 . S
C1752 C560 1.931 . S
C1747 C23 1.875 . S
C1757 C7 1.874 . S
C1762 C738 2.088 . S
C1767 C48 2.498 . S
C1772 C640 2.504 . S
C1782 C898 2.039 . S
C1777 C329 2.059 . S
C1787 C162 0.998 . S
C1792 C393 0.949 . S
C1802 C938 1.421 1_655 S
C1797 C301 1.312 . S
C1807 C134 1.638 . S
C1812 C480 1.665 . S
C1817 C330 1.697 . S
C1822 C680 1.714 . S
C1832 C538 1.050 . S
C1827 C161 0.996 . S
C1837 C302 1.160 . S
C1842 C762 1.103 . S
C1852 C618 2.028 . S
C1847 C133 2.051 . S
C1862 C922 1.464 . S
C1857 C244 1.529 . S
C1872 C498 2.087 1_565 S
C1867 C219 2.018 . S
C1877 C230 1.481 . S
C1882 C722 1.464 . S
C1892 C600 1.041 . S
C1887 C191 1.057 . S
C1897 C202 1.684 . S
C1902 C642 1.604 . S
C1907 C174 1.643 . S
C1912 C962 1.627 . S
C1922 C778 2.022 . S
C1917 C233 1.950 . S
C1932 C839 0.572 . S
C1927 C275 0.564 . S
