# Generated by pormake.
# Topology zzz, (3,6)-cn, num edge types: 1
# Building blocks:
#     Node 0, Type 0, BuildingBlock: OLANEW_clean_sbu_2, # of connection points: 3
#     Node 1, Type 0, BuildingBlock: OLANEW_clean_sbu_2, # of connection points: 3
#     Node 2, Type 0, BuildingBlock: OLANEW_clean_sbu_2, # of connection points: 3
#     Node 3, Type 0, BuildingBlock: OLANEW_clean_sbu_2, # of connection points: 3
#     Node 4, Type 0, BuildingBlock: OLANEW_clean_sbu_2, # of connection points: 3
#     Node 5, Type 0, BuildingBlock: OLANEW_clean_sbu_2, # of connection points: 3
#     Node 6, Type 0, BuildingBlock: OLANEW_clean_sbu_2, # of connection points: 3
#     Node 7, Type 0, BuildingBlock: OLANEW_clean_sbu_2, # of connection points: 3
#     Node 8, Type 1, BuildingBlock: PAMTOO_clean_sbu_0, # of connection points: 6
#     Node 9, Type 1, BuildingBlock: PAMTOO_clean_sbu_0, # of connection points: 6
#     Node 10, Type 1, BuildingBlock: PAMTOO_clean_sbu_0, # of connection points: 6
#     Node 11, Type 1, BuildingBlock: PAMTOO_clean_sbu_0, # of connection points: 6
#     Edge 12, Type (0, 1), BuildingBlock: XIVTED_clean_linker_0, # of connection points: 2
#     Edge 13, Type (0, 1), BuildingBlock: XIVTED_clean_linker_0, # of connection points: 2
#     Edge 14, Type (0, 1), BuildingBlock: XIVTED_clean_linker_0, # of connection points: 2
#     Edge 15, Type (0, 1), BuildingBlock: XIVTED_clean_linker_0, # of connection points: 2
#     Edge 16, Type (0, 1), BuildingBlock: XIVTED_clean_linker_0, # of connection points: 2
#     Edge 17, Type (0, 1), BuildingBlock: XIVTED_clean_linker_0, # of connection points: 2
#     Edge 18, Type (0, 1), BuildingBlock: XIVTED_clean_linker_0, # of connection points: 2
#     Edge 19, Type (0, 1), BuildingBlock: XIVTED_clean_linker_0, # of connection points: 2
#     Edge 20, Type (0, 1), BuildingBlock: XIVTED_clean_linker_0, # of connection points: 2
#     Edge 21, Type (0, 1), BuildingBlock: XIVTED_clean_linker_0, # of connection points: 2
#     Edge 22, Type (0, 1), BuildingBlock: XIVTED_clean_linker_0, # of connection points: 2
#     Edge 23, Type (0, 1), BuildingBlock: XIVTED_clean_linker_0, # of connection points: 2
#     Edge 24, Type (0, 1), BuildingBlock: XIVTED_clean_linker_0, # of connection points: 2
#     Edge 25, Type (0, 1), BuildingBlock: XIVTED_clean_linker_0, # of connection points: 2
#     Edge 26, Type (0, 1), BuildingBlock: XIVTED_clean_linker_0, # of connection points: 2
#     Edge 27, Type (0, 1), BuildingBlock: XIVTED_clean_linker_0, # of connection points: 2
#     Edge 28, Type (0, 1), BuildingBlock: XIVTED_clean_linker_0, # of connection points: 2
#     Edge 29, Type (0, 1), BuildingBlock: XIVTED_clean_linker_0, # of connection points: 2
#     Edge 30, Type (0, 1), BuildingBlock: XIVTED_clean_linker_0, # of connection points: 2
#     Edge 31, Type (0, 1), BuildingBlock: XIVTED_clean_linker_0, # of connection points: 2
#     Edge 32, Type (0, 1), BuildingBlock: XIVTED_clean_linker_0, # of connection points: 2
#     Edge 33, Type (0, 1), BuildingBlock: XIVTED_clean_linker_0, # of connection points: 2
#     Edge 34, Type (0, 1), BuildingBlock: XIVTED_clean_linker_0, # of connection points: 2
#     Edge 35, Type (0, 1), BuildingBlock: XIVTED_clean_linker_0, # of connection points: 2
# Relax obj value: 0.188
# Max RMSD: 0.235
# Mean RMSD: 0.132
data_MOF--net-zzz--node1-OLANEW_clean_sbu_2--node2-PAMTOO_clean_sbu_0--edge1-XIVTED_clean_linker_0
_symmetry_space_group_name_H-M    P1
_symmetry_Int_Tables_number       1
_symmetry_cell_setting            triclinic
loop_
_symmetry_equiv_pos_as_xyz
'x, y, z'
_cell_length_a     61.72293
_cell_length_b     52.181234
_cell_length_c     17.51188
_cell_angle_alpha  91.268145
_cell_angle_beta   80.507941
_cell_angle_gamma 85.483467
loop_
_atom_site_label
_atom_site_type_symbol
_atom_site_fract_x
_atom_site_fract_y
_atom_site_fract_z
_atom_type_partial_charge
O0 O 0.75632 0.62779 0.33395 0.0
Cd1 Cd 0.71898 0.64736 0.37888 0.0
O2 O 0.76008 0.61729 0.45217 0.0
Cd3 Cd 0.78146 0.6019 0.53087 0.0
O4 O 0.81249 0.58913 0.56752 0.0
C5 C 0.81413 0.57236 0.61816 0.0
O6 O 0.79632 0.56228 0.65203 0.0
C7 C 0.76776 0.61705 0.38013 0.0
C8 C 0.68982 0.62234 0.30341 0.0
O9 O 0.69909 0.64185 0.27424 0.0
O10 O 0.69396 0.615 0.36926 0.0
O11 O 0.8776 0.74346 0.20619 0.0
Cd12 Cd 0.86387 0.70529 0.26886 0.0
O13 O 0.90702 0.73238 0.25705 0.0
Cd14 Cd 0.93902 0.74248 0.28058 0.0
O15 O 0.96034 0.77211 0.30343 0.0
C16 C 0.9687 0.77245 0.36498 0.0
O17 O 0.96553 0.75363 0.41315 0.0
C18 C 0.89721 0.74709 0.21433 0.0
C19 C 0.89162 0.66416 0.19645 0.0
O20 O 0.87305 0.67032 0.1753 0.0
O21 O 0.89657 0.67665 0.25409 0.0
O22 O 0.76059 0.0655 0.06745 0.0
Cd23 Cd 0.79712 0.07291 0.09515 0.0
O24 O 0.74933 0.07436 0.19111 0.0
Cd25 Cd 0.72428 0.076 0.29514 0.0
O26 O 0.69518 0.06959 0.37886 0.0
C27 C 0.68403 0.05141 0.36241 0.0
O28 O 0.69066 0.03784 0.29748 0.0
C29 C 0.74496 0.06838 0.1248 0.0
C30 C 0.83203 0.05122 0.98553 0.0
O31 O 0.8236 0.03834 0.04291 0.0
O32 O 0.82363 0.07418 0.97923 0.0
O33 O 0.61452 0.71465 0.95537 0.0
Cd34 Cd 0.63792 0.74973 0.96565 0.0
O35 O 0.62493 0.69357 0.05221 0.0
Cd36 Cd 0.62234 0.66326 0.13758 0.0
O37 O 0.61427 0.6351 0.22649 0.0
C38 C 0.60333 0.61631 0.21321 0.0
O39 O 0.59758 0.6136 0.14474 0.0
C40 C 0.6133 0.6954 0.99859 0.0
C41 C 0.61512 0.79612 0.93945 0.0
O42 O 0.62551 0.78164 0.88299 0.0
O43 O 0.61577 0.7889 0.00858 0.0
O44 O 0.26703 0.42071 0.20687 0.0
Cd45 Cd 0.30465 0.40732 0.14441 0.0
O46 O 0.25397 0.40975 0.10286 0.0
Cd47 Cd 0.22766 0.40945 0.03363 0.0
O48 O 0.19624 0.41592 0.9934 0.0
C49 C 0.19311 0.43504 0.95177 0.0
O50 O 0.20924 0.44982 0.93183 0.0
C51 C 0.25069 0.41902 0.17201 0.0
C52 C 0.33357 0.43114 0.22368 0.0
O53 O 0.32659 0.44181 0.16609 0.0
O54 O 0.32727 0.40897 0.24243 0.0
O55 O 0.96229 0.29032 0.20031 0.0
Cd56 Cd 0.96058 0.33363 0.15098 0.0
O57 O 0.98917 0.28162 0.10258 0.0
Cd58 Cd 0.01226 0.25403 0.02878 0.0
O59 O 0.02328 0.21799 0.9638 0.0
C60 C 0.01316 0.19881 0.9889 0.0
O61 O 0.99753 0.20217 0.04982 0.0
C62 C 0.97732 0.27453 0.16366 0.0
C63 C 0.97303 0.36643 0.26005 0.0
O64 O 0.95263 0.36485 0.25602 0.0
O65 O 0.98752 0.35308 0.21117 0.0
O66 O 0.28145 0.85201 0.45707 0.0
Cd67 Cd 0.24866 0.83394 0.42555 0.0
O68 O 0.28212 0.87699 0.35757 0.0
Cd69 Cd 0.29656 0.90747 0.28736 0.0
O70 O 0.32274 0.9296 0.2302 0.0
C71 C 0.32457 0.93405 0.15854 0.0
O72 O 0.30979 0.92615 0.1193 0.0
C73 C 0.29054 0.86903 0.41522 0.0
C74 C 0.21164 0.86878 0.4616 0.0
O75 O 0.21768 0.85373 0.51243 0.0
O76 O 0.22313 0.86736 0.39341 0.0
O77 O 0.42357 0.29933 0.59865 0.0
Cd78 Cd 0.40219 0.26387 0.56999 0.0
O79 O 0.40855 0.32257 0.51522 0.0
Cd80 Cd 0.40508 0.35667 0.44552 0.0
O81 O 0.40789 0.38878 0.36704 0.0
C82 C 0.41817 0.40785 0.38293 0.0
O83 O 0.42615 0.40831 0.44794 0.0
C84 C 0.42145 0.32046 0.56488 0.0
C85 C 0.41989 0.2165 0.61252 0.0
O86 O 0.42534 0.22455 0.54393 0.0
O87 O 0.40611 0.2309 0.66106 0.0
Dy88 Dy 0.02171 0.99652 0.55524 0.0
Dy89 Dy 0.02287 0.96711 0.72054 0.0
C90 C 0.06589 0.97023 0.59928 0.0
O91 O 0.01125 0.9572 0.5343 0.0
O92 O 0.02395 0.9353 0.63312 0.0
O93 O 0.03794 0.01655 0.45852 0.0
O94 O 0.0037 0.00868 0.46442 0.0
O95 O 0.98838 0.97013 0.6976 0.0
O96 O 0.9903 0.00804 0.63611 0.0
O97 O 0.02093 0.00887 0.75092 0.0
O98 O 0.03266 0.02581 0.63251 0.0
O99 O 0.00936 0.96495 0.84182 0.0
O100 O 0.0367 0.93822 0.78918 0.0
C101 C 0.01619 0.93566 0.56768 0.0
O102 O 0.05361 0.97225 0.54482 0.0
O103 O 0.05727 0.97496 0.6723 0.0
C104 C 0.01443 0.04721 0.40667 0.0
C105 C 0.00423 0.09753 0.35988 0.0
C106 C 0.0167 0.09339 0.41953 0.0
C107 C 0.02165 0.06847 0.44304 0.0
C108 C 0.0018 0.05132 0.34776 0.0
C109 C 0.99667 0.07625 0.32474 0.0
C110 C 0.01998 0.02069 0.42872 0.0
C111 C 0.9788 0.99175 0.67824 0.0
C112 C 0.02795 0.0279 0.70847 0.0
C113 C 0.00981 0.92283 0.88589 0.0
C114 C 0.98473 0.88404 0.95485 0.0
C115 C 0.98848 0.90551 0.99928 0.0
C116 C 0.00098 0.9247 0.96506 0.0
C117 C 0.00608 0.90143 0.84126 0.0
C118 C 0.99378 0.88211 0.87561 0.0
C119 C 0.02166 0.94406 0.85006 0.0
H120 H 0.02252 0.10944 0.44831 0.0
H121 H 0.03121 0.06584 0.48932 0.0
H122 H 0.99604 0.03519 0.31908 0.0
H123 H 0.98719 0.07882 0.27821 0.0
H124 H 0.98187 0.90737 0.06059 0.0
H125 H 0.00356 0.94118 0.00025 0.0
H126 H 0.01244 0.89977 0.77972 0.0
H127 H 0.99094 0.86591 0.83984 0.0
Dy128 Dy 0.49926 0.98621 0.71758 0.0
Dy129 Dy 0.51269 0.01599 0.86962 0.0
C130 C 0.48584 0.04593 0.7566 0.0
O131 O 0.53511 0.99043 0.68595 0.0
O132 O 0.5372 0.0251 0.76663 0.0
O133 O 0.4913 0.98696 0.60182 0.0
O134 O 0.49278 0.95116 0.66103 0.0
O135 O 0.53411 0.97932 0.85047 0.0
O136 O 0.51082 0.95607 0.79374 0.0
O137 O 0.48245 0.9961 0.91396 0.0
O138 O 0.46803 0.9928 0.80159 0.0
O139 O 0.51971 0.01488 0.98646 0.0
O140 O 0.52137 0.0503 0.92439 0.0
C141 C 0.54532 0.01001 0.70583 0.0
O142 O 0.49445 0.02861 0.70223 0.0
O143 O 0.48671 0.04195 0.82977 0.0
C144 C 0.46695 0.95636 0.5775 0.0
C145 C 0.42739 0.94093 0.53799 0.0
C146 C 0.42703 0.95735 0.60314 0.0
C147 C 0.44667 0.96499 0.62276 0.0
C148 C 0.46742 0.94039 0.51191 0.0
C149 C 0.44781 0.93274 0.49219 0.0
C150 C 0.48774 0.9627 0.60045 0.0
C151 C 0.52762 0.95722 0.83046 0.0
C152 C 0.46594 0.99223 0.87732 0.0
C153 C 0.54824 0.04061 0.00228 0.0
C154 C 0.5911 0.04446 0.03543 0.0
C155 C 0.58795 0.03605 0.96145 0.0
C156 C 0.56674 0.03406 0.94516 0.0
C157 C 0.55119 0.04899 0.07611 0.0
C158 C 0.57245 0.0509 0.09264 0.0
C159 C 0.52601 0.03817 0.98481 0.0
H160 H 0.41158 0.96426 0.63906 0.0
H161 H 0.44607 0.97734 0.67374 0.0
H162 H 0.48299 0.93342 0.47675 0.0
H163 H 0.44871 0.91981 0.44233 0.0
H164 H 0.60186 0.03132 0.91563 0.0
H165 H 0.56476 0.02745 0.8878 0.0
H166 H 0.53707 0.05392 0.12102 0.0
H167 H 0.57427 0.05712 0.15047 0.0
Dy168 Dy 0.52834 0.49685 0.82782 0.0
Dy169 Dy 0.48676 0.53266 0.77853 0.0
C170 C 0.48196 0.50429 0.93747 0.0
O171 O 0.51452 0.47013 0.74994 0.0
O172 O 0.48038 0.49214 0.75541 0.0
O173 O 0.54326 0.47787 0.91682 0.0
O174 O 0.56151 0.47852 0.8003 0.0
O175 O 0.5116 0.52167 0.67292 0.0
O176 O 0.54119 0.52255 0.73366 0.0
O177 O 0.50814 0.56082 0.81983 0.0
O178 O 0.52548 0.53376 0.89636 0.0
O179 O 0.47516 0.56186 0.70573 0.0
O180 O 0.45183 0.54284 0.78663 0.0
C181 C 0.49404 0.47152 0.73697 0.0
O182 O 0.49801 0.4875 0.90568 0.0
O183 O 0.47743 0.52611 0.90514 0.0
C184 C 0.57969 0.48784 0.9047 0.0
C185 C 0.60599 0.51651 0.98613 0.0
C186 C 0.60381 0.49029 0.00052 0.0
C187 C 0.59068 0.4761 0.96029 0.0
C188 C 0.58247 0.5137 0.88824 0.0
C189 C 0.59548 0.52787 0.9284 0.0
C190 C 0.5626 0.47491 0.87322 0.0
C191 C 0.53244 0.52517 0.67084 0.0
C192 C 0.52058 0.55691 0.87323 0.0
C193 C 0.444 0.54793 0.66189 0.0
C194 C 0.42169 0.52572 0.55276 0.0
C195 C 0.44259 0.5151 0.56288 0.0
C196 C 0.45366 0.52616 0.61671 0.0
C197 C 0.42348 0.55918 0.65034 0.0
C198 C 0.41243 0.54823 0.59554 0.0
C199 C 0.45466 0.5568 0.72549 0.0
H200 H 0.61194 0.48084 0.0438 0.0
H201 H 0.58846 0.45628 0.97455 0.0
H202 H 0.57372 0.52335 0.84679 0.0
H203 H 0.59645 0.54806 0.91653 0.0
H204 H 0.45018 0.49792 0.53015 0.0
H205 H 0.4695 0.51717 0.6249 0.0
H206 H 0.41574 0.57587 0.68517 0.0
H207 H 0.39627 0.55668 0.58901 0.0
Dy208 Dy 0.01658 0.51876 0.69827 0.0
Dy209 Dy 0.9898 0.48518 0.87548 0.0
C210 C 0.00131 0.45875 0.73175 0.0
O211 O 0.97995 0.52397 0.70181 0.0
O212 O 0.96346 0.50178 0.81062 0.0
O213 O 0.02331 0.50402 0.57981 0.0
O214 O 0.03735 0.53887 0.61278 0.0
O215 O 0.00133 0.5214 0.8321 0.0
O216 O 0.00778 0.55548 0.77165 0.0
O217 O 0.02659 0.47652 0.86437 0.0
O218 O 0.04254 0.50385 0.76746 0.0
O219 O 0.98661 0.49917 0.99393 0.0
O220 O 0.96884 0.4668 0.96519 0.0
C221 C 0.96268 0.51585 0.74826 0.0
O222 O 0.00697 0.48179 0.74274 0.0
O223 O 0.99242 0.44975 0.79719 0.0
C224 C 0.05926 0.51061 0.51883 0.0
C225 C 0.10109 0.49046 0.44193 0.0
C226 C 0.08398 0.49685 0.39986 0.0
C227 C 0.06323 0.5069 0.43809 0.0
C228 C 0.07617 0.50393 0.56113 0.0
C229 C 0.09692 0.49406 0.52302 0.0
C230 C 0.03741 0.52103 0.55883 0.0
C231 C 0.99868 0.54633 0.83654 0.0
C232 C 0.04365 0.48702 0.82338 0.0
C233 C 0.95083 0.49632 0.06603 0.0
C234 C 0.91188 0.52168 0.15108 0.0
C235 C 0.93245 0.53102 0.15432 0.0
C236 C 0.95174 0.51837 0.11268 0.0
C237 C 0.93029 0.48657 0.06463 0.0
C238 C 0.91103 0.49911 0.10679 0.0
C239 C 0.9712 0.48399 0.01827 0.0
H240 H 0.08673 0.49445 0.33732 0.0
H241 H 0.05032 0.51183 0.40462 0.0
H242 H 0.07333 0.50636 0.62366 0.0
H243 H 0.10964 0.48895 0.55715 0.0
H244 H 0.93361 0.54825 0.1886 0.0
H245 H 0.96733 0.52618 0.11576 0.0
H246 H 0.92899 0.46949 0.02998 0.0
H247 H 0.89539 0.49155 0.10289 0.0
H248 H 0.19085 0.89807 0.36282 0.0
H249 H 0.09453 0.95675 0.69828 0.0
H250 H 0.18705 0.88072 0.60434 0.0
H251 H 0.09023 0.95938 0.45486 0.0
H252 H 0.13144 0.93493 0.66474 0.0
H253 H 0.15679 0.92626 0.39589 0.0
C254 C 0.18294 0.90031 0.42284 0.0
C255 C 0.19171 0.88687 0.48086 0.0
C256 C 0.12248 0.94044 0.61865 0.0
C257 C 0.15285 0.91915 0.519 0.0
C258 C 0.10142 0.95301 0.6377 0.0
C259 C 0.08915 0.95971 0.5793 0.0
C260 C 0.13142 0.9346 0.54062 0.0
C261 C 0.09901 0.95439 0.50182 0.0
C262 C 0.16349 0.91636 0.44161 0.0
C263 C 0.18078 0.89054 0.55766 0.0
N264 N 0.11953 0.94202 0.48474 0.0
N265 N 0.16191 0.90629 0.57446 0.0
H266 H 0.41464 0.19594 0.75637 0.0
H267 H 0.48495 0.06332 0.61063 0.0
H268 H 0.44626 0.1796 0.51964 0.0
H269 H 0.4633 0.085 0.85222 0.0
H270 H 0.4686 0.1046 0.57549 0.0
H271 H 0.43018 0.15419 0.79183 0.0
C272 C 0.42484 0.18357 0.71181 0.0
C273 C 0.42918 0.1913 0.6349 0.0
C274 C 0.46743 0.10033 0.63619 0.0
C275 C 0.44696 0.14345 0.67509 0.0
C276 C 0.47672 0.07672 0.65636 0.0
C277 C 0.47556 0.07067 0.73458 0.0
C278 C 0.45676 0.11804 0.69457 0.0
C279 C 0.46467 0.08884 0.7912 0.0
C280 C 0.43373 0.15975 0.73215 0.0
C281 C 0.44252 0.17448 0.57966 0.0
N282 N 0.45568 0.11169 0.77007 0.0
N283 N 0.45089 0.15134 0.6008 0.0
H284 H 0.34994 0.41413 0.35106 0.0
H285 H 0.39977 0.54606 0.44097 0.0
H286 H 0.34926 0.47859 0.20083 0.0
H287 H 0.4151 0.47478 0.54839 0.0
H288 H 0.37893 0.52288 0.35766 0.0
H289 H 0.37152 0.43737 0.43014 0.0
C290 C 0.35443 0.43312 0.3344 0.0
C291 C 0.34774 0.44445 0.26926 0.0
C292 C 0.38691 0.51234 0.39936 0.0
C293 C 0.3725 0.47116 0.3596 0.0
C294 C 0.39868 0.52556 0.44701 0.0
C295 C 0.40916 0.51227 0.50133 0.0
C296 C 0.38533 0.48578 0.40729 0.0
C297 C 0.4074 0.4857 0.50672 0.0
C298 C 0.36674 0.44638 0.37964 0.0
C299 C 0.35405 0.46913 0.25057 0.0
N300 N 0.39558 0.47338 0.4607 0.0
N301 N 0.36604 0.48171 0.29568 0.0
H302 H 0.01023 0.35894 0.32446 0.0
H303 H 0.98502 0.48128 0.61221 0.0
H304 H 0.9506 0.40907 0.33745 0.0
H305 H 0.01351 0.40928 0.68183 0.0
H306 H 0.97992 0.46023 0.49049 0.0
H307 H 0.01925 0.38276 0.43592 0.0
C308 C -0.00078 0.37518 0.35008 0.0
C309 C 0.97959 0.38204 0.32219 0.0
C310 C 0.98753 0.44918 0.53212 0.0
C311 C 0.98997 0.40935 0.44812 0.0
C312 C 0.99062 0.46118 0.601 0.0
C313 C -8e-05 0.44696 0.65614 0.0
C314 C 0.99418 0.42295 0.51815 0.0
C315 C 0.00636 0.42081 0.64016 0.0
C316 C 0.00432 0.3886 0.41369 0.0
C317 C 0.96581 0.40311 0.35768 0.0
N318 N 0.00351 0.40959 0.57213 0.0
N319 N 0.97131 0.41614 0.41879 0.0
H320 H 0.85329 0.003 0.98197 0.0
H321 H 0.95359 0.03601 0.65844 0.0
H322 H 0.85542 0.07478 0.86408 0.0
H323 H 0.95068 0.96378 0.77387 0.0
H324 H 0.91615 0.04905 0.72433 0.0
H325 H 0.88741 0.98684 0.89773 0.0
C326 C 0.86084 0.01531 0.93796 0.0
C327 C 0.85157 0.04037 0.93052 0.0
C328 C 0.92364 0.03026 0.73473 0.0
C329 C 0.89074 0.02203 0.83406 0.0
C330 C 0.94502 0.02278 0.69702 0.0
C331 C 0.95539 0.99885 0.71112 0.0
C332 C 0.91256 0.01373 0.78715 0.0
C333 C 0.94342 0.98248 0.76154 0.0
C334 C 0.88034 0.00606 0.88985 0.0
C335 C 0.86203 0.05538 0.87218 0.0
N336 N 0.92273 0.99031 0.79816 0.0
N337 N 0.88115 0.04606 0.82663 0.0
H338 H 0.60066 0.83712 0.04024 0.0
H339 H 0.52862 0.90957 0.76113 0.0
H340 H 0.60033 0.80969 0.80614 0.0
H341 H 0.5545 0.95015 0.93912 0.0
H342 H 0.54995 0.87022 0.78827 0.0
H343 H 0.57897 0.87653 0.01498 0.0
C344 C 0.59602 0.83938 0.98361 0.0
C345 C 0.60235 0.82017 0.92508 0.0
C346 C 0.55092 0.88777 0.82132 0.0
C347 C 0.57735 0.86487 0.8964 0.0
C348 C 0.53868 0.91017 0.80621 0.0
C349 C 0.53984 0.93316 0.84785 0.0
C350 C 0.56408 0.88826 0.87942 0.0
C351 C 0.55323 0.93286 0.90538 0.0
C352 C 0.58372 0.86186 0.96924 0.0
C353 C 0.59591 0.8241 0.85272 0.0
N354 N 0.56475 0.91071 0.91982 0.0
N355 N 0.58362 0.84593 0.84058 0.0
H356 H 0.66599 0.58181 0.35213 0.0
H357 H 0.63234 0.55508 0.93786 0.0
H358 H 0.6815 0.62998 0.15658 0.0
H359 H 0.60742 0.51455 0.14203 0.0
H360 H 0.6511 0.58207 0.01689 0.0
H361 H 0.64495 0.55638 0.27616 0.0
C362 C 0.66491 0.58711 0.29334 0.0
C363 C 0.67566 0.60795 0.26047 0.0
C364 C 0.64155 0.56724 0.04442 0.0
C365 C 0.65181 0.57877 0.17302 0.0
C366 C 0.63075 0.55184 0.99933 0.0
C367 C 0.61831 0.53237 0.0331 0.0
C368 C 0.6401 0.56307 0.12394 0.0
C369 C 0.61716 0.52894 0.11302 0.0
C370 C 0.65293 0.57254 0.24996 0.0
C371 C 0.67356 0.61402 0.18421 0.0
N372 N 0.62796 0.54409 0.15565 0.0
N373 N 0.66201 0.5994 0.14294 0.0
H374 H 0.93612 0.65834 0.19242 0.0
H375 H 0.96022 0.53293 0.92236 0.0
H376 H 0.88356 0.62594 0.09783 0.0
H377 H 0.00242 0.5951 0.88666 0.0
H378 H 0.9337 0.56076 0.01343 0.0
H379 H 0.96287 0.62845 0.10836 0.0
C380 C 0.93019 0.6447 0.15483 0.0
C381 C 0.9076 0.64459 0.15192 0.0
C382 C 0.94893 0.56809 0.98629 0.0
C383 C 0.93801 0.61047 0.05677 0.0
C384 C 0.96405 0.55228 0.93432 0.0
C385 C 0.98344 0.56184 0.89664 0.0
C386 C 0.95376 0.59317 0.00305 0.0
C387 C 0.98757 0.58712 0.9145 0.0
C388 C 0.94545 0.62786 0.10669 0.0
C389 C 0.90083 0.62671 0.10155 0.0
N390 N 0.97293 0.6019 0.96722 0.0
N391 N 0.916 0.61025 0.05597 0.0
H392 H 0.01675 0.24812 0.16904 0.0
H393 H 0.96513 0.11999 0.32821 0.0
H394 H 0.9467 0.24233 0.22609 0.0
H395 H 0.0328 0.13496 0.32998 0.0
H396 H 0.95821 0.16325 0.28103 0.0
H397 H 0.02319 0.20516 0.21828 0.0
C398 C 0.00273 0.23762 0.1912 0.0
C399 C 0.98118 0.24848 0.19226 0.0
C400 C 0.97454 0.15709 0.29207 0.0
C401 C 0.98836 0.19949 0.24945 0.0
C402 C 0.97853 0.13238 0.31857 0.0
C403 C -0.00043 0.12389 0.33313 0.0
C404 C 0.99179 0.17332 0.27914 0.0
C405 C 0.01628 0.14082 0.32032 0.0
C406 C 0.0064 0.21323 0.21998 0.0
C407 C 0.96357 0.23445 0.22369 0.0
N408 N 0.01206 0.16465 0.29368 0.0
N409 N 0.96753 0.21053 0.25047 0.0
H410 H 0.29974 0.88022 0.55855 0.0
H411 H 0.41551 0.93481 0.39482 0.0
H412 H 0.32717 0.88061 0.31575 0.0
H413 H 0.39212 0.92569 0.63816 0.0
H414 H 0.38218 0.91737 0.3649 0.0
H415 H 0.33272 0.89864 0.58945 0.0
C416 C 0.31268 0.88434 0.51179 0.0
C417 C 0.3105 0.87966 0.43443 0.0
C418 C 0.38433 0.91921 0.42486 0.0
C419 C 0.34821 0.90057 0.46902 0.0
C420 C 0.40339 0.92909 0.44198 0.0
C421 C 0.40669 0.93164 0.51913 0.0
C422 C 0.36838 0.91178 0.48529 0.0
C423 C 0.39019 0.92435 0.57792 0.0
C424 C 0.33145 0.89488 0.52935 0.0
C425 C 0.3278 0.885 0.37596 0.0
N426 N 0.3718 0.91469 0.55976 0.0
N427 N 0.34589 0.89527 0.39442 0.0
H428 H 0.46267 0.31881 0.60402 0.0
H429 H 0.45647 0.47138 0.67488 0.0
H430 H 0.40754 0.37148 0.57403 0.0
H431 H 0.51129 0.42079 0.72083 0.0
H432 H 0.44016 0.43477 0.62729 0.0
H433 H 0.48214 0.35545 0.6394 0.0
C434 C 0.45478 0.33811 0.60414 0.0
C435 C 0.43371 0.34223 0.58404 0.0
C436 C 0.45577 0.43154 0.64759 0.0
C437 C 0.45569 0.38403 0.62494 0.0
C438 C 0.46517 0.45253 0.67483 0.0
C439 C 0.48524 0.44918 0.70268 0.0
C440 C 0.46635 0.40678 0.64854 0.0
C441 C 0.49577 0.42425 0.70013 0.0
C442 C 0.46589 0.35897 0.62419 0.0
C443 C 0.42409 0.3675 0.58603 0.0
N444 N 0.48609 0.40391 0.67411 0.0
N445 N 0.43513 0.38739 0.60617 0.0
H446 H 0.21084 0.40054 0.15998 0.0
H447 H 0.1413 0.50365 0.46859 0.0
H448 H 0.23997 0.45937 0.27615 0.0
H449 H 0.11133 0.45393 0.32354 0.0
H450 H 0.17765 0.4861 0.40327 0.0
H451 H 0.17429 0.41846 0.22283 0.0
C452 C 0.20953 0.41757 0.19733 0.0
C453 C 0.22842 0.42901 0.21083 0.0
C454 C 0.16314 0.47903 0.38558 0.0
C455 C 0.18672 0.44896 0.2857 0.0
C456 C 0.14238 0.48895 0.42317 0.0
C457 C 0.12325 0.4802 0.40162 0.0
C458 C 0.16486 0.46007 0.32623 0.0
C459 C 0.12564 0.46139 0.34154 0.0
C460 C 0.18866 0.42759 0.23406 0.0
C461 C 0.2258 0.4501 0.26359 0.0
N462 N 0.14607 0.45188 0.30615 0.0
N463 N 0.20535 0.45942 0.29896 0.0
H464 H 0.88167 0.79705 0.19796 0.0
H465 H 0.99407 0.83199 0.93826 0.0
H466 H 0.93906 0.74345 0.13648 0.0
H467 H 0.94513 0.88994 0.05332 0.0
H468 H 0.97198 0.79867 0.99847 0.0
H469 H 0.90256 0.83097 0.13276 0.0
C470 C 0.89864 0.79249 0.17063 0.0
C471 C 0.90887 0.76768 0.17366 0.0
C472 C 0.96606 0.81868 0.01061 0.0
C473 C 0.93264 0.80593 0.09874 0.0
C474 C 0.9786 0.83767 0.97594 0.0
C475 C 0.97142 0.86372 0.99098 0.0
C476 C 0.94605 0.82575 0.0601 0.0
C477 C 0.95135 0.87005 0.04089 0.0
C478 C 0.91056 0.81178 0.13385 0.0
C479 C 0.93079 0.76256 0.13696 0.0
N480 N 0.9393 0.85118 0.07354 0.0
N481 N 0.94195 0.7815 0.10104 0.0
H482 H 0.70691 0.09553 0.19437 0.0
H483 H 0.6284 0.01213 0.98663 0.0
H484 H 0.73127 0.03305 0.02973 0.0
H485 H 0.60558 0.08201 0.12253 0.0
H486 H 0.66577 0.01738 0.00982 0.0
H487 H 0.66927 0.08858 0.17752 0.0
C488 C 0.70429 0.08005 0.15563 0.0
C489 C 0.72216 0.06445 0.11469 0.0
C490 C 0.65258 0.03154 0.03463 0.0
C491 C 0.67917 0.05682 0.09335 0.0
C492 C 0.63122 0.02864 0.02113 0.0
C493 C 0.61376 0.04676 0.05219 0.0
C494 C 0.65657 0.05267 0.07981 0.0
C495 C 0.61842 0.06742 0.09797 0.0
C496 C 0.68281 0.07629 0.14532 0.0
C497 C 0.7179 0.0454 0.06269 0.0
N498 N 0.63936 0.06983 0.11021 0.0
N499 N 0.69682 0.04204 0.05371 0.0
H500 H 0.57401 0.70269 0.94723 0.0
H501 H 0.54885 0.55515 0.97827 0.0
H502 H 0.61856 0.64342 0.01775 0.0
H503 H 0.51702 0.60788 0.83641 0.0
H504 H 0.57031 0.58939 0.01388 0.0
H505 H 0.54927 0.66992 0.92399 0.0
C506 C 0.57846 0.68281 0.95863 0.0
C507 C 0.59805 0.67583 0.98666 0.0
C508 C 0.55852 0.59351 0.97535 0.0
C509 C 0.56993 0.63838 0.96012 0.0
C510 C 0.54618 0.57399 0.95509 0.0
C511 C 0.53126 0.57853 0.90337 0.0
C512 C 0.5558 0.61789 0.94447 0.0
C513 C 0.52841 0.60345 0.87605 0.0
C514 C 0.56435 0.66417 0.94538 0.0
C515 C 0.60317 0.64982 0.99955 0.0
N516 N 0.54065 0.62221 0.8967 0.0
N517 N 0.58917 0.63203 0.98629 0.0
H518 H 0.79968 0.63361 0.26963 0.0
H519 H 0.87641 0.50241 0.23975 0.0
H520 H 0.78518 0.57062 0.41973 0.0
H521 H 0.90046 0.57329 0.15286 0.0
H522 H 0.84171 0.52622 0.29901 0.0
H523 H 0.83568 0.61096 0.21773 0.0
C524 C 0.80418 0.61509 0.29192 0.0
C525 C 0.78971 0.60413 0.34993 0.0
C526 C 0.85463 0.5366 0.26729 0.0
C527 C 0.83047 0.57799 0.29028 0.0
C528 C 0.87436 0.52301 0.23322 0.0
C529 C 0.89126 0.53595 0.19111 0.0
C530 C 0.85164 0.56325 0.25811 0.0
C531 C 0.88785 0.56268 0.18509 0.0
C532 C 0.82469 0.60223 0.26259 0.0
C533 C 0.79615 0.58001 0.37646 0.0
N534 N 0.86835 0.57545 0.21757 0.0
N535 N 0.81601 0.56766 0.34614 0.0
H536 H 0.00132 0.15285 0.04504 0.0
H537 H 0.03942 0.07378 0.64462 0.0
H538 H 0.03605 0.18667 0.84267 0.0
H539 H 0.0192 0.03907 0.86393 0.0
H540 H 0.03833 0.11542 0.71357 0.0
H541 H 0.00749 0.11102 0.97722 0.0
C542 C 0.01032 0.15145 0.98629 0.0
C543 C 0.01808 0.17327 0.94924 0.0
C544 C 0.03434 0.09858 0.7464 0.0
C545 C 0.02513 0.12537 0.87087 0.0
C546 C 0.03494 0.07483 0.70714 0.0
C547 C 0.02923 0.05289 0.7484 0.0
C548 C 0.02782 0.10036 0.82724 0.0
C549 C 0.02358 0.05541 0.8294 0.0
C550 C 0.01391 0.12752 0.94762 0.0
C551 C 0.0298 0.17028 0.87328 0.0
N552 N 0.02286 0.0787 0.86592 0.0
N553 N 0.0328 0.14676 0.8362 0.0
H554 H 0.33384 0.94625 0.00602 0.0
H555 H 0.45463 0.98739 0.0346 0.0
H556 H 0.35992 0.94888 0.21996 0.0
H557 H 0.42807 0.98403 0.82162 0.0
H558 H 0.41931 0.97598 0.10522 0.0
H559 H 0.36744 0.96294 0.93926 0.0
C560 C 0.34657 0.95049 0.0391 0.0
C561 C 0.34409 0.946 0.11862 0.0
C562 C 0.42121 0.97786 0.04306 0.0
C563 C 0.38272 0.96502 0.04239 0.0
C564 C 0.44138 0.98438 0.00268 0.0
C565 C 0.44442 0.98653 0.92191 0.0
C566 C 0.40395 0.97344 0.00241 0.0
C567 C 0.4266 0.98247 0.88376 0.0
C568 C 0.36578 0.96001 0.0009 0.0
C569 C 0.36113 0.95196 0.15852 0.0
N570 N 0.40721 0.97603 0.92427 0.0
N571 N 0.37977 0.96101 0.11989 0.0
H572 H 0.40215 0.41498 0.24701 0.0
H573 H 0.49752 0.49682 0.07094 0.0
H574 H 0.44567 0.44625 0.38768 0.0
H575 H 0.43825 0.49639 0.97128 0.0
H576 H 0.47837 0.47898 0.18895 0.0
H577 H 0.41406 0.44509 0.14638 0.0
C578 C 0.41406 0.42831 0.25704 0.0
C579 C 0.4232 0.4278 0.32537 0.0
C580 C 0.46935 0.48327 0.14206 0.0
C581 C 0.43708 0.46197 0.21012 0.0
C582 C 0.48028 0.49342 0.07492 0.0
C583 C 0.4693 0.49812 0.01222 0.0
C584 C 0.44752 0.47697 0.1453 0.0
C585 C 0.44709 0.49318 0.01917 0.0
C586 C 0.42075 0.44558 0.19976 0.0
C587 C 0.43839 0.44571 0.33556 0.0
N588 N 0.43698 0.48236 0.08419 0.0
N589 N 0.44514 0.46176 0.278 0.0
H590 H 0.1551 0.41151 0.99576 0.0
H591 H 0.083 0.50571 0.76302 0.0
H592 H 0.18129 0.4731 0.85789 0.0
H593 H 0.05528 0.45015 0.92235 0.0
H594 H 0.11945 0.49223 0.79107 0.0
H595 H 0.1188 0.42354 0.96291 0.0
C596 C 0.15325 0.42749 0.95827 0.0
C597 C 0.17127 0.44136 0.92966 0.0
C598 C 0.10539 0.483 0.81993 0.0
C599 C 0.12972 0.45526 0.89201 0.0
C600 C 0.0845 0.49067 0.80389 0.0
C601 C 0.0659 0.47911 0.84044 0.0
C602 C 0.1078 0.46358 0.87278 0.0
C603 C 0.06905 0.45972 0.89292 0.0
C604 C 0.13249 0.43438 0.93973 0.0
C605 C 0.16787 0.4619 0.88143 0.0
N606 N 0.08958 0.45257 0.90745 0.0
N607 N 0.1475 0.46824 0.86419 0.0
H608 H 0.9738 0.817 0.28629 0.0
H609 H 0.02243 0.88747 0.62323 0.0
H610 H 0.98794 0.78009 0.49289 0.0
H611 H 0.00097 0.927 0.43119 0.0
H612 H 0.01403 0.84693 0.56799 0.0
H613 H 0.98805 0.85616 0.32992 0.0
C614 C 0.9801 0.81702 0.34047 0.0
C615 C 0.97948 0.79528 0.3864 0.0
C616 C 0.01125 0.86444 0.5377 0.0
C617 C 0.99573 0.84012 0.43676 0.0
C618 C 0.01606 0.88767 0.5692 0.0
C619 C 0.01224 0.9108 0.53215 0.0
C620 C 0.00257 0.86422 0.46852 0.0
C621 C 0.00404 0.9097 0.46209 0.0
C622 C 0.98818 0.83943 0.36543 0.0
C623 C 0.98795 0.79643 0.45588 0.0
N624 N -0.00062 0.88681 0.43273 0.0
N625 N 0.99559 0.81853 0.47915 0.0
H626 H 0.66539 0.07561 0.50114 0.0
H627 H 0.56612 0.98443 0.57263 0.0
H628 H 0.65682 0.01372 0.34394 0.0
H629 H 0.57235 0.04799 0.72763 0.0
H630 H 0.60006 0.99426 0.4907 0.0
H631 H 0.63198 0.0653 0.58692 0.0
C632 C 0.6565 0.05985 0.48467 0.0
C633 C 0.66392 0.0455 0.41522 0.0
C634 C 0.59404 0.00607 0.54264 0.0
C635 C 0.62572 0.0336 0.51311 0.0
C636 C 0.57463 0.00044 0.58964 0.0
C637 C 0.56628 0.01547 0.65709 0.0
C638 C 0.60528 0.02687 0.56303 0.0
C639 C 0.57812 0.03594 0.67602 0.0
C640 C 0.63744 0.05398 0.53368 0.0
C641 C 0.65175 0.0253 0.39685 0.0
N642 N 0.59701 0.04107 0.62912 0.0
N643 N 0.63327 0.01997 0.44547 0.0
H644 H 0.57526 0.57836 0.20989 0.0
H645 H 0.57296 0.54425 0.65435 0.0
H646 H 0.61411 0.61437 0.35886 0.0
H647 H 0.52149 0.5276 0.52559 0.0
H648 H 0.59268 0.56309 0.53915 0.0
H649 H 0.56008 0.55262 0.31786 0.0
C650 C 0.58072 0.58075 0.26513 0.0
C651 C 0.5957 0.59888 0.27575 0.0
C652 C 0.57715 0.55514 0.53604 0.0
C653 C 0.57847 0.56937 0.39928 0.0
C654 C 0.56591 0.54429 0.60165 0.0
C655 C 0.54545 0.5345 0.59977 0.0
C656 C 0.56798 0.55599 0.46781 0.0
C657 C 0.53713 0.5351 0.52984 0.0
C658 C 0.57201 0.56608 0.32672 0.0
C659 C 0.60235 0.60091 0.34838 0.0
N660 N 0.54839 0.54574 0.4667 0.0
N661 N 0.59362 0.58642 0.40749 0.0
H662 H 0.85431 0.5865 0.54994 0.0
H663 H 0.92226 0.5043 0.82535 0.0
H664 H 0.82387 0.53928 0.72982 0.0
H665 H 0.95241 0.54513 0.62879 0.0
H666 H 0.88607 0.5178 0.79425 0.0
H667 H 0.89031 0.57253 0.5814 0.0
C668 C 0.85518 0.57321 0.5962 0.0
C669 C 0.83601 0.56407 0.63738 0.0
C670 C 0.90062 0.52374 0.75789 0.0
C671 C 0.8773 0.54795 0.67371 0.0
C672 C 0.92135 0.51604 0.77556 0.0
C673 C 0.94055 0.52353 0.72963 0.0
C674 C 0.89901 0.53914 0.69402 0.0
C675 C 0.93818 0.53882 0.66601 0.0
C676 C 0.87578 0.5652 0.61403 0.0
C677 C 0.8382 0.54681 0.69655 0.0
N678 N 0.91782 0.54613 0.65025 0.0
N679 N 0.85848 0.53934 0.71304 0.0
loop_
_geom_bond_atom_site_label_1
_geom_bond_atom_site_label_2
_geom_bond_distance
_geom_bond_site_symmetry_2
_ccdc_geom_bond_type
O0 Cd1 2.300 . S
O0 C7 1.275 . S
Cd1 O0 2.300 . S
Cd1 O9 2.381 . S
Cd1 O10 2.378 . S
O2 Cd3 2.385 . S
O2 C7 1.255 . S
Cd3 O2 2.385 . S
Cd3 O4 2.317 . S
O4 Cd3 2.317 . S
O4 C5 1.232 . S
C5 O4 1.232 . S
C5 O6 1.218 . S
O6 C5 1.218 . S
C7 O0 1.275 . S
C7 O2 1.255 . S
C8 O9 1.258 . S
C8 O10 1.256 . S
O9 Cd1 2.381 . S
O9 C8 1.258 . S
O10 Cd1 2.378 . S
O10 C8 1.256 . S
O11 Cd12 2.300 1_655 S
O11 C18 1.275 . S
Cd12 O11 2.300 1_455 S
Cd12 O20 2.381 1_455 S
Cd12 O21 2.378 . S
O13 Cd14 2.385 . S
O13 C18 1.255 1_455 S
Cd14 O13 2.385 . S
Cd14 O15 2.317 . S
O15 Cd14 2.317 . S
O15 C16 1.232 . S
C16 O15 1.232 . S
C16 O17 1.218 . S
O17 C16 1.218 . S
C18 O11 1.275 . S
C18 O13 1.255 1_655 S
C19 O20 1.258 . S
C19 O21 1.256 1_655 S
O20 Cd12 2.381 1_655 S
O20 C19 1.258 . S
O21 Cd12 2.378 . S
O21 C19 1.256 1_455 S
O22 Cd23 2.300 1_565 S
O22 C29 1.275 1_565 S
Cd23 O22 2.300 1_545 S
Cd23 O31 2.381 1_545 S
Cd23 O32 2.378 . S
O24 Cd25 2.385 . S
O24 C29 1.255 . S
Cd25 O24 2.385 . S
Cd25 O26 2.317 . S
O26 Cd25 2.317 . S
O26 C27 1.232 . S
C27 O26 1.232 . S
C27 O28 1.218 . S
O28 C27 1.218 . S
C29 O22 1.275 1_545 S
C29 O24 1.255 . S
C30 O31 1.258 1_545 S
C30 O32 1.256 . S
O31 Cd23 2.381 1_565 S
O31 C30 1.258 1_565 S
O32 Cd23 2.378 . S
O32 C30 1.256 . S
O33 Cd34 2.300 1_556 S
O33 C40 1.275 1_556 S
Cd34 O33 2.300 1_554 S
Cd34 O42 2.381 . S
Cd34 O43 2.378 . S
O35 Cd36 2.385 . S
O35 C40 1.255 . S
Cd36 O35 2.385 . S
Cd36 O37 2.317 . S
O37 Cd36 2.317 . S
O37 C38 1.232 . S
C38 O37 1.232 . S
C38 O39 1.218 . S
O39 C38 1.218 . S
C40 O33 1.275 1_554 S
C40 O35 1.255 . S
C41 O42 1.258 . S
C41 O43 1.256 . S
O42 Cd34 2.381 . S
O42 C41 1.258 . S
O43 Cd34 2.378 . S
O43 C41 1.256 . S
O44 Cd45 2.300 . S
O44 C51 1.275 . S
Cd45 O44 2.300 . S
Cd45 O53 2.381 . S
Cd45 O54 2.378 . S
O46 Cd47 2.385 1_554 S
O46 C51 1.255 . S
Cd47 O46 2.385 1_556 S
Cd47 O48 2.317 . S
O48 Cd47 2.317 . S
O48 C49 1.232 . S
C49 O48 1.232 . S
C49 O50 1.218 . S
O50 C49 1.218 . S
C51 O44 1.275 . S
C51 O46 1.255 . S
C52 O53 1.258 . S
C52 O54 1.256 . S
O53 Cd45 2.381 . S
O53 C52 1.258 . S
O54 Cd45 2.378 . S
O54 C52 1.256 . S
O55 Cd56 2.300 . S
O55 C62 1.275 . S
Cd56 O55 2.300 . S
Cd56 O64 2.381 . S
Cd56 O65 2.378 . S
O57 Cd58 2.385 . S
O57 C62 1.255 . S
Cd58 O57 2.385 . S
Cd58 O59 2.317 1_554 S
O59 Cd58 2.317 1_556 S
O59 C60 1.232 . S
C60 O59 1.232 . S
C60 O61 1.218 . S
O61 C60 1.218 . S
C62 O55 1.275 . S
C62 O57 1.255 . S
C63 O64 1.258 . S
C63 O65 1.256 . S
O64 Cd56 2.381 . S
O64 C63 1.258 . S
O65 Cd56 2.378 . S
O65 C63 1.256 . S
O66 Cd67 2.300 1_565 S
O66 C73 1.275 1_565 S
Cd67 O66 2.300 1_545 S
Cd67 O75 2.381 1_545 S
Cd67 O76 2.378 . S
O68 Cd69 2.385 . S
O68 C73 1.255 . S
Cd69 O68 2.385 . S
Cd69 O70 2.317 . S
O70 Cd69 2.317 . S
O70 C71 1.232 . S
C71 O70 1.232 . S
C71 O72 1.218 . S
O72 C71 1.218 . S
C73 O66 1.275 1_545 S
C73 O68 1.255 . S
C74 O75 1.258 1_545 S
C74 O76 1.256 . S
O75 Cd67 2.381 1_565 S
O75 C74 1.258 1_565 S
O76 Cd67 2.378 . S
O76 C74 1.256 . S
O77 Cd78 2.300 . S
O77 C84 1.275 . S
Cd78 O77 2.300 . S
Cd78 O86 2.381 . S
Cd78 O87 2.378 . S
O79 Cd80 2.385 . S
O79 C84 1.255 . S
Cd80 O79 2.385 . S
Cd80 O81 2.317 . S
O81 Cd80 2.317 . S
O81 C82 1.232 . S
C82 O81 1.232 . S
C82 O83 1.218 . S
O83 C82 1.218 . S
C84 O77 1.275 . S
C84 O79 1.255 . S
C85 O86 1.258 . S
C85 O87 1.256 . S
O86 Cd78 2.381 . S
O86 C85 1.258 . S
O87 Cd78 2.378 . S
O87 C85 1.256 . S
Dy88 O91 2.307 1_545 S
Dy88 O93 2.395 1_655 S
Dy88 O94 2.379 . S
Dy88 O96 2.339 . S
Dy88 O98 2.298 . S
Dy88 O102 2.275 1_655 S
Dy88 C110 2.738 . S
Dy89 O92 2.298 . S
Dy89 O95 2.275 1_455 S
Dy89 O97 2.307 1_565 S
Dy89 O99 2.395 1_455 S
Dy89 O100 2.379 . S
Dy89 O103 2.339 . S
Dy89 C119 2.738 . S
C90 O102 1.254 1_565 S
C90 O103 1.257 . S
O91 Dy88 2.307 1_565 S
O91 C101 1.286 . S
O92 Dy89 2.298 . S
O92 C101 1.202 1_455 S
O93 Dy88 2.395 1_455 S
O93 C110 1.255 1_455 S
O94 Dy88 2.379 . S
O94 C110 1.249 . S
O95 Dy89 2.275 1_655 S
O95 C111 1.254 1_565 S
O96 Dy88 2.339 . S
O96 C111 1.257 . S
O97 Dy89 2.307 1_545 S
O97 C112 1.266 . S
O98 Dy88 2.298 . S
O98 C112 1.236 1_655 S
O99 Dy89 2.395 1_655 S
O99 C119 1.255 1_655 S
O100 Dy89 2.379 . S
O100 C119 1.249 . S
C101 O91 1.286 . S
C101 O92 1.202 1_655 S
O102 Dy88 2.275 1_455 S
O102 C90 1.254 1_545 S
O103 Dy89 2.339 . S
O103 C90 1.257 . S
C104 C107 1.344 1_655 S
C104 C108 1.328 . S
C104 C110 1.516 . S
C105 C106 1.304 1_655 S
C105 C109 1.323 . S
C106 C105 1.304 1_455 S
C106 C107 1.371 . S
C106 H120 0.930 . S
C107 C104 1.344 1_455 S
C107 C106 1.371 . S
C107 H121 0.931 . S
C108 C104 1.328 . S
C108 C109 1.433 . S
C108 H122 0.931 . S
C109 C105 1.323 . S
C109 C108 1.433 . S
C109 H123 0.933 . S
C110 Dy88 2.738 . S
C110 O93 1.255 1_655 S
C110 O94 1.249 . S
C110 C104 1.516 . S
C111 O95 1.254 1_545 S
C111 O96 1.257 . S
C112 O97 1.266 . S
C112 O98 1.236 1_455 S
C113 C116 1.344 1_455 S
C113 C117 1.328 . S
C113 C119 1.516 . S
C114 C115 1.259 1_455 S
C114 C118 1.323 . S
C115 C114 1.259 1_655 S
C115 C116 1.374 1_554 S
C115 H124 0.976 . S
C116 C113 1.344 1_655 S
C116 C115 1.374 1_556 S
C116 H125 0.931 . S
C117 C113 1.328 . S
C117 C118 1.433 1_556 S
C117 H126 0.931 . S
C118 C114 1.323 . S
C118 C117 1.433 1_554 S
C118 H127 0.933 . S
C119 Dy89 2.738 . S
C119 O99 1.255 1_455 S
C119 O100 1.249 . S
C119 C113 1.516 . S
H120 C106 0.930 . S
H121 C107 0.931 . S
H122 C108 0.931 . S
H123 C109 0.933 . S
H124 C115 0.976 . S
H125 C116 0.931 . S
H126 C117 0.931 . S
H127 C118 0.933 . S
Dy128 O131 2.307 . S
Dy128 O133 2.395 1_565 S
Dy128 O134 2.379 . S
Dy128 O136 2.339 . S
Dy128 O138 2.298 . S
Dy128 O142 2.275 1_565 S
Dy128 C150 2.738 . S
Dy129 O132 2.298 . S
Dy129 O135 2.275 1_545 S
Dy129 O137 2.307 . S
Dy129 O139 2.395 1_545 S
Dy129 O140 2.379 . S
Dy129 O143 2.339 . S
Dy129 C159 2.738 . S
C130 O142 1.254 . S
C130 O143 1.257 . S
O131 Dy128 2.307 . S
O131 C141 1.266 . S
O132 Dy129 2.298 . S
O132 C141 1.236 1_545 S
O133 Dy128 2.395 1_545 S
O133 C150 1.255 1_545 S
O134 Dy128 2.379 . S
O134 C150 1.249 . S
O135 Dy129 2.275 1_565 S
O135 C151 1.254 . S
O136 Dy128 2.339 . S
O136 C151 1.257 . S
O137 Dy129 2.307 . S
O137 C152 1.266 . S
O138 Dy128 2.298 . S
O138 C152 1.236 1_565 S
O139 Dy129 2.395 1_565 S
O139 C159 1.255 1_565 S
O140 Dy129 2.379 . S
O140 C159 1.249 . S
C141 O131 1.266 . S
C141 O132 1.236 1_565 S
O142 Dy128 2.275 1_545 S
O142 C130 1.254 . S
O143 Dy129 2.339 . S
O143 C130 1.257 . S
C144 C147 1.344 1_565 S
C144 C148 1.328 . S
C144 C150 1.516 . S
C145 C146 1.304 1_565 S
C145 C149 1.323 . S
C146 C145 1.304 1_545 S
C146 C147 1.371 . S
C146 H160 0.930 . S
C147 C144 1.344 1_545 S
C147 C146 1.371 . S
C147 H161 0.931 . S
C148 C144 1.328 . S
C148 C149 1.433 . S
C148 H162 0.931 . S
C149 C145 1.323 . S
C149 C148 1.433 . S
C149 H163 0.933 . S
C150 Dy128 2.738 . S
C150 O133 1.255 1_565 S
C150 O134 1.249 . S
C150 C144 1.516 . S
C151 O135 1.254 . S
C151 O136 1.257 . S
C152 O137 1.266 . S
C152 O138 1.236 1_545 S
C153 C156 1.344 1_545 S
C153 C157 1.328 . S
C153 C159 1.516 . S
C154 C155 1.304 1_544 S
C154 C158 1.323 1_554 S
C155 C154 1.304 1_566 S
C155 C156 1.371 . S
C155 H164 0.930 . S
C156 C153 1.344 1_565 S
C156 C155 1.371 . S
C156 H165 0.931 . S
C157 C153 1.328 . S
C157 C158 1.433 . S
C157 H166 0.931 . S
C158 C154 1.323 1_556 S
C158 C157 1.433 . S
C158 H167 0.933 1_556 S
C159 Dy129 2.738 . S
C159 O139 1.255 1_545 S
C159 O140 1.249 . S
C159 C153 1.516 . S
H160 C146 0.930 . S
H161 C147 0.931 . S
H162 C148 0.931 . S
H163 C149 0.933 . S
H164 C155 0.930 . S
H165 C156 0.931 . S
H166 C157 0.931 . S
H167 C158 0.933 1_554 S
Dy168 O171 2.307 . S
Dy168 O173 2.395 . S
Dy168 O174 2.379 . S
Dy168 O176 2.339 . S
Dy168 O178 2.298 . S
Dy168 O182 2.275 . S
Dy168 C190 2.738 . S
Dy169 O172 2.298 . S
Dy169 O175 2.275 . S
Dy169 O177 2.307 . S
Dy169 O179 2.395 . S
Dy169 O180 2.379 . S
Dy169 O183 2.339 . S
Dy169 C199 2.738 . S
C170 O182 1.254 . S
C170 O183 1.257 . S
O171 Dy168 2.307 . S
O171 C181 1.266 . S
O172 Dy169 2.298 . S
O172 C181 1.236 . S
O173 Dy168 2.395 . S
O173 C190 1.255 . S
O174 Dy168 2.379 . S
O174 C190 1.249 . S
O175 Dy169 2.275 . S
O175 C191 1.254 . S
O176 Dy168 2.339 . S
O176 C191 1.257 . S
O177 Dy169 2.307 . S
O177 C192 1.266 . S
O178 Dy168 2.298 . S
O178 C192 1.236 . S
O179 Dy169 2.395 . S
O179 C199 1.255 . S
O180 Dy169 2.379 . S
O180 C199 1.249 . S
C181 O171 1.266 . S
C181 O172 1.236 . S
O182 Dy168 2.275 . S
O182 C170 1.254 . S
O183 Dy169 2.339 . S
O183 C170 1.257 . S
C184 C187 1.344 . S
C184 C188 1.328 . S
C184 C190 1.516 . S
C185 C186 1.304 1_556 S
C185 C189 1.323 . S
C186 C185 1.304 1_554 S
C186 C187 1.371 1_554 S
C186 H200 0.930 . S
C187 C184 1.344 . S
C187 C186 1.371 1_556 S
C187 H201 0.931 . S
C188 C184 1.328 . S
C188 C189 1.433 . S
C188 H202 0.931 . S
C189 C185 1.323 . S
C189 C188 1.433 . S
C189 H203 0.933 . S
C190 Dy168 2.738 . S
C190 O173 1.255 . S
C190 O174 1.249 . S
C190 C184 1.516 . S
C191 O175 1.254 . S
C191 O176 1.257 . S
C192 O177 1.266 . S
C192 O178 1.236 . S
C193 C196 1.344 . S
C193 C197 1.328 . S
C193 C199 1.516 . S
C194 C195 1.304 . S
C194 C198 1.323 . S
C195 C194 1.304 . S
C195 C196 1.371 . S
C195 H204 0.930 . S
C196 C193 1.344 . S
C196 C195 1.371 . S
C196 H205 0.931 . S
C197 C193 1.328 . S
C197 C198 1.433 . S
C197 H206 0.931 . S
C198 C194 1.323 . S
C198 C197 1.433 . S
C198 H207 0.933 . S
C199 Dy169 2.738 . S
C199 O179 1.255 . S
C199 O180 1.249 . S
C199 C193 1.516 . S
H200 C186 0.930 . S
H201 C187 0.931 . S
H202 C188 0.931 . S
H203 C189 0.933 . S
H204 C195 0.930 . S
H205 C196 0.931 . S
H206 C197 0.931 . S
H207 C198 0.933 . S
Dy208 O211 2.307 1_455 S
Dy208 O213 2.395 . S
Dy208 O214 2.379 . S
Dy208 O216 2.339 . S
Dy208 O218 2.298 . S
Dy208 O222 2.275 . S
Dy208 C230 2.738 . S
Dy209 O212 2.298 . S
Dy209 O215 2.266 1_655 S
Dy209 O217 2.307 1_655 S
Dy209 O219 2.395 . S
Dy209 O220 2.379 . S
Dy209 O223 2.339 . S
Dy209 C239 2.738 . S
C210 O222 1.254 . S
C210 O223 1.257 1_455 S
O211 Dy208 2.307 1_655 S
O211 C221 1.266 . S
O212 Dy209 2.298 . S
O212 C221 1.236 . S
O213 Dy208 2.395 . S
O213 C230 1.255 . S
O214 Dy208 2.379 . S
O214 C230 1.249 . S
O215 Dy209 2.266 1_455 S
O215 C231 1.262 . S
O216 Dy208 2.339 . S
O216 C231 1.257 . S
O217 Dy209 2.307 1_455 S
O217 C232 1.266 . S
O218 Dy208 2.298 . S
O218 C232 1.236 . S
O219 Dy209 2.395 . S
O219 C239 1.255 . S
O220 Dy209 2.379 . S
O220 C239 1.249 . S
C221 O211 1.266 . S
C221 O212 1.236 . S
O222 Dy208 2.275 . S
O222 C210 1.254 . S
O223 Dy209 2.339 . S
O223 C210 1.257 1_655 S
C224 C227 1.344 . S
C224 C228 1.328 . S
C224 C230 1.516 . S
C225 C226 1.304 . S
C225 C229 1.323 . S
C226 C225 1.304 . S
C226 C227 1.371 . S
C226 H240 0.930 . S
C227 C224 1.344 . S
C227 C226 1.371 . S
C227 H241 0.931 . S
C228 C224 1.328 . S
C228 C229 1.433 . S
C228 H242 0.931 . S
C229 C225 1.323 . S
C229 C228 1.433 . S
C229 H243 0.933 . S
C230 Dy208 2.738 . S
C230 O213 1.255 . S
C230 O214 1.249 . S
C230 C224 1.516 . S
C231 O215 1.262 . S
C231 O216 1.257 . S
C232 O217 1.266 . S
C232 O218 1.236 . S
C233 C236 1.344 1_556 S
C233 C237 1.328 1_556 S
C233 C239 1.516 . S
C234 C235 1.304 . S
C234 C238 1.323 . S
C235 C234 1.304 . S
C235 C236 1.371 . S
C235 H244 0.930 . S
C236 C233 1.344 1_554 S
C236 C235 1.371 . S
C236 H245 0.931 . S
C237 C233 1.328 1_554 S
C237 C238 1.433 . S
C237 H246 0.931 1_554 S
C238 C234 1.323 . S
C238 C237 1.433 . S
C238 H247 0.933 . S
C239 Dy209 2.738 . S
C239 O219 1.255 . S
C239 O220 1.249 . S
C239 C233 1.516 . S
H240 C226 0.930 . S
H241 C227 0.931 . S
H242 C228 0.931 . S
H243 C229 0.933 . S
H244 C235 0.930 . S
H245 C236 0.931 . S
H246 C237 0.931 1_556 S
H247 C238 0.933 . S
H248 C254 0.930 . S
H249 C258 0.930 . S
H250 C263 0.929 . S
H251 C261 0.929 . S
H252 C256 0.929 . S
H253 C262 0.929 . S
C254 H248 0.930 . S
C254 C255 1.367 . S
C254 C262 1.378 . S
C255 C254 1.367 . S
C255 C263 1.433 1_545 S
C256 H252 0.929 . S
C256 C258 1.378 . S
C256 C260 1.350 1_565 S
C257 C260 1.463 . S
C257 C262 1.350 . S
C257 N265 1.427 1_545 S
C258 H249 0.930 . S
C258 C256 1.378 . S
C258 C259 1.367 1_565 S
C259 C258 1.367 1_545 S
C259 C261 1.433 . S
C260 C256 1.350 1_545 S
C260 C257 1.463 . S
C260 N264 1.427 . S
C261 H251 0.929 . S
C261 C259 1.433 . S
C261 N264 1.384 . S
C262 H253 0.929 . S
C262 C254 1.378 . S
C262 C257 1.350 . S
C263 H250 0.929 . S
C263 C255 1.433 1_565 S
C263 N265 1.384 . S
N264 C260 1.427 . S
N264 C261 1.384 . S
N265 C257 1.427 1_565 S
N265 C263 1.384 . S
H266 C272 0.930 . S
H267 C276 0.930 . S
H268 C281 0.929 . S
H269 C279 0.929 . S
H270 C274 0.929 . S
H271 C280 0.929 . S
C272 H266 0.930 . S
C272 C273 1.367 . S
C272 C280 1.378 . S
C273 C272 1.367 . S
C273 C281 1.433 . S
C274 H270 0.929 . S
C274 C276 1.378 . S
C274 C278 1.350 . S
C275 C278 1.463 . S
C275 C280 1.350 . S
C275 N283 1.427 . S
C276 H267 0.930 . S
C276 C274 1.378 . S
C276 C277 1.367 . S
C277 C276 1.367 . S
C277 C279 1.433 . S
C278 C274 1.350 . S
C278 C275 1.463 . S
C278 N282 1.427 . S
C279 H269 0.929 . S
C279 C277 1.433 . S
C279 N282 1.384 . S
C280 H271 0.929 . S
C280 C272 1.378 . S
C280 C275 1.350 . S
C281 H268 0.929 . S
C281 C273 1.433 . S
C281 N283 1.384 . S
N282 C278 1.427 . S
N282 C279 1.384 . S
N283 C275 1.427 . S
N283 C281 1.384 . S
H284 C290 0.930 . S
H285 C294 0.930 . S
H286 C299 0.929 . S
H287 C297 0.929 . S
H288 C292 0.929 . S
H289 C298 0.929 . S
C290 H284 0.930 . S
C290 C291 1.367 . S
C290 C298 1.378 . S
C291 C290 1.367 . S
C291 C299 1.433 . S
C292 H288 0.929 . S
C292 C294 1.378 . S
C292 C296 1.350 . S
C293 C296 1.463 . S
C293 C298 1.350 . S
C293 N301 1.427 . S
C294 H285 0.930 . S
C294 C292 1.378 . S
C294 C295 1.367 . S
C295 C294 1.367 . S
C295 C297 1.433 . S
C296 C292 1.350 . S
C296 C293 1.463 . S
C296 N300 1.427 . S
C297 H287 0.929 . S
C297 C295 1.433 . S
C297 N300 1.384 . S
C298 H289 0.929 . S
C298 C290 1.378 . S
C298 C293 1.350 . S
C299 H286 0.929 . S
C299 C291 1.433 . S
C299 N301 1.384 . S
N300 C296 1.427 . S
N300 C297 1.384 . S
N301 C293 1.427 . S
N301 C299 1.384 . S
H302 C308 0.930 . S
H303 C312 0.930 1_655 S
H304 C317 0.929 . S
H305 C315 0.929 . S
H306 C310 0.926 1_655 S
H307 C316 0.929 . S
C308 H302 0.930 . S
C308 C309 1.367 . S
C308 C316 1.378 . S
C309 C308 1.367 . S
C309 C317 1.433 . S
C310 H306 0.926 1_455 S
C310 C312 1.378 . S
C310 C314 1.350 . S
C311 C314 1.463 . S
C311 C316 1.350 . S
C311 N319 1.427 . S
C312 H303 0.930 1_455 S
C312 C310 1.378 . S
C312 C313 1.367 . S
C313 C312 1.367 . S
C313 C315 1.433 . S
C314 C310 1.350 . S
C314 C311 1.463 . S
C314 N318 1.427 . S
C315 H305 0.929 . S
C315 C313 1.433 . S
C315 N318 1.384 . S
C316 H307 0.929 . S
C316 C308 1.378 . S
C316 C311 1.350 . S
C317 H304 0.929 . S
C317 C309 1.433 . S
C317 N319 1.384 . S
N318 C314 1.427 . S
N318 C315 1.384 . S
N319 C311 1.427 . S
N319 C317 1.384 . S
H320 C326 0.930 . S
H321 C330 0.930 . S
H322 C335 0.929 . S
H323 C333 0.929 . S
H324 C328 0.929 . S
H325 C334 0.929 . S
C326 H320 0.930 . S
C326 C327 1.367 . S
C326 C334 1.378 . S
C327 C326 1.367 . S
C327 C335 1.433 1_565 S
C328 H324 0.929 . S
C328 C330 1.378 . S
C328 C332 1.368 . S
C329 C332 1.460 1_564 S
C329 C334 1.350 . S
C329 N337 1.427 1_565 S
C330 H321 0.930 . S
C330 C328 1.378 . S
C330 C331 1.388 . S
C331 C330 1.388 . S
C331 C333 1.410 1_545 S
C332 C328 1.368 . S
C332 C329 1.460 1_546 S
C332 N336 1.411 1_545 S
C333 H323 0.929 . S
C333 C331 1.410 1_565 S
C333 N336 1.384 . S
C334 H325 0.929 . S
C334 C326 1.378 . S
C334 C329 1.350 . S
C335 H322 0.929 . S
C335 C327 1.433 1_545 S
C335 N337 1.384 . S
N336 C332 1.411 1_565 S
N336 C333 1.384 . S
N337 C329 1.427 1_545 S
N337 C335 1.384 . S
H338 C344 0.930 . S
H339 C348 0.930 . S
H340 C353 0.929 . S
H341 C351 0.929 . S
H342 C346 0.929 . S
H343 C352 0.929 1_554 S
C344 H338 0.930 . S
C344 C345 1.367 . S
C344 C352 1.378 1_554 S
C345 C344 1.367 . S
C345 C353 1.433 1_554 S
C346 H342 0.929 . S
C346 C348 1.378 . S
C346 C350 1.350 . S
C347 C350 1.463 . S
C347 C352 1.350 . S
C347 N355 1.427 . S
C348 H339 0.930 . S
C348 C346 1.378 . S
C348 C349 1.367 . S
C349 C348 1.367 . S
C349 C351 1.433 . S
C350 C346 1.350 . S
C350 C347 1.463 . S
C350 N354 1.427 . S
C351 H341 0.929 . S
C351 C349 1.433 . S
C351 N354 1.384 . S
C352 H343 0.929 1_556 S
C352 C344 1.378 1_556 S
C352 C347 1.350 . S
C353 H340 0.929 . S
C353 C345 1.433 1_556 S
C353 N355 1.384 . S
N354 C350 1.427 . S
N354 C351 1.384 . S
N355 C347 1.427 . S
N355 C353 1.384 . S
H356 C362 0.930 . S
H357 C366 0.930 1_556 S
H358 C371 0.929 . S
H359 C369 0.929 . S
H360 C364 0.929 . S
H361 C370 0.929 . S
C362 H356 0.930 . S
C362 C363 1.367 . S
C362 C370 1.378 . S
C363 C362 1.367 . S
C363 C371 1.433 . S
C364 H360 0.929 . S
C364 C366 1.378 . S
C364 C368 1.350 . S
C365 C368 1.463 . S
C365 C370 1.350 . S
C365 N373 1.427 . S
C366 H357 0.930 1_554 S
C366 C364 1.378 . S
C366 C367 1.367 . S
C367 C366 1.367 . S
C367 C369 1.433 . S
C368 C364 1.350 . S
C368 C365 1.463 . S
C368 N372 1.427 . S
C369 H359 0.929 . S
C369 C367 1.433 . S
C369 N372 1.384 . S
C370 H361 0.929 . S
C370 C362 1.378 . S
C370 C365 1.350 . S
C371 H358 0.929 . S
C371 C363 1.433 . S
C371 N373 1.384 . S
N372 C368 1.427 . S
N372 C369 1.384 . S
N373 C365 1.427 . S
N373 C371 1.384 . S
H374 C380 0.930 . S
H375 C384 0.930 . S
H376 C389 0.929 . S
H377 C387 0.929 . S
H378 C382 0.929 . S
H379 C388 0.929 . S
C380 H374 0.930 . S
C380 C381 1.367 1_455 S
C380 C388 1.378 . S
C381 C380 1.367 1_655 S
C381 C389 1.433 . S
C382 H378 0.929 . S
C382 C384 1.378 1_554 S
C382 C386 1.350 . S
C383 C386 1.463 . S
C383 C388 1.350 1_655 S
C383 N391 1.427 . S
C384 H375 0.930 . S
C384 C382 1.378 1_556 S
C384 C385 1.352 1_655 S
C385 C384 1.352 1_455 S
C385 C387 1.453 . S
C386 C382 1.350 . S
C386 C383 1.463 . S
C386 N390 1.427 1_654 S
C387 H377 0.929 . S
C387 C385 1.453 . S
C387 N390 1.384 . S
C388 H379 0.929 . S
C388 C380 1.378 . S
C388 C383 1.350 1_455 S
C389 H376 0.929 . S
C389 C381 1.433 . S
C389 N391 1.384 . S
N390 C386 1.427 1_456 S
N390 C387 1.384 . S
N391 C383 1.427 . S
N391 C389 1.384 . S
H392 C398 0.930 . S
H393 C402 0.930 . S
H394 C407 0.929 . S
H395 C405 0.929 . S
H396 C400 0.929 . S
H397 C406 0.929 . S
C398 H392 0.930 . S
C398 C399 1.367 . S
C398 C406 1.378 . S
C399 C398 1.367 . S
C399 C407 1.433 1_455 S
C400 H396 0.929 . S
C400 C402 1.378 . S
C400 C404 1.386 . S
C401 C404 1.451 1_455 S
C401 C406 1.350 . S
C401 N409 1.427 1_455 S
C402 H393 0.930 . S
C402 C400 1.378 . S
C402 C403 1.367 . S
C403 C402 1.367 . S
C403 C405 1.433 1_655 S
C404 C400 1.386 . S
C404 C401 1.451 1_655 S
C404 N408 1.402 1_655 S
C405 H395 0.929 . S
C405 C403 1.433 1_455 S
C405 N408 1.384 . S
C406 H397 0.929 . S
C406 C398 1.378 . S
C406 C401 1.350 . S
C407 H394 0.929 . S
C407 C399 1.433 1_655 S
C407 N409 1.384 . S
N408 C404 1.402 1_455 S
N408 C405 1.384 . S
N409 C401 1.427 1_655 S
N409 C407 1.384 . S
H410 C416 0.932 1_545 S
H411 C420 0.930 . S
H412 C425 0.929 . S
H413 C423 0.929 . S
H414 C418 0.929 . S
H415 C424 0.929 . S
C416 H410 0.932 1_565 S
C416 C417 1.367 1_565 S
C416 C424 1.377 . S
C417 C416 1.367 1_545 S
C417 C425 1.433 . S
C418 H414 0.929 . S
C418 C420 1.378 . S
C418 C422 1.350 . S
C419 C422 1.463 . S
C419 C424 1.350 . S
C419 N427 1.427 . S
C420 H411 0.930 . S
C420 C418 1.378 . S
C420 C421 1.367 . S
C421 C420 1.367 . S
C421 C423 1.433 . S
C422 C418 1.350 . S
C422 C419 1.463 . S
C422 N426 1.427 . S
C423 H413 0.929 . S
C423 C421 1.433 . S
C423 N426 1.384 . S
C424 H415 0.929 . S
C424 C416 1.377 . S
C424 C419 1.350 . S
C425 H412 0.929 . S
C425 C417 1.433 . S
C425 N427 1.384 1_545 S
N426 C422 1.427 . S
N426 C423 1.384 . S
N427 C419 1.427 . S
N427 C425 1.384 1_565 S
H428 C434 0.930 . S
H429 C438 0.930 . S
H430 C443 0.929 . S
H431 C441 0.929 . S
H432 C436 0.929 . S
H433 C442 0.929 . S
C434 H428 0.930 . S
C434 C435 1.367 . S
C434 C442 1.378 . S
C435 C434 1.367 . S
C435 C443 1.433 . S
C436 H432 0.929 . S
C436 C438 1.378 . S
C436 C440 1.350 . S
C437 C440 1.463 . S
C437 C442 1.350 . S
C437 N445 1.427 . S
C438 H429 0.930 . S
C438 C436 1.378 . S
C438 C439 1.367 . S
C439 C438 1.367 . S
C439 C441 1.433 . S
C440 C436 1.350 . S
C440 C437 1.463 . S
C440 N444 1.427 . S
C441 H431 0.929 . S
C441 C439 1.433 . S
C441 N444 1.384 . S
C442 H433 0.929 . S
C442 C434 1.378 . S
C442 C437 1.350 . S
C443 H430 0.929 . S
C443 C435 1.433 . S
C443 N445 1.384 . S
N444 C440 1.427 . S
N444 C441 1.384 . S
N445 C437 1.427 . S
N445 C443 1.384 . S
H446 C452 0.930 . S
H447 C456 0.930 . S
H448 C461 0.929 . S
H449 C459 0.929 . S
H450 C454 0.929 . S
H451 C460 0.929 . S
C452 H446 0.930 . S
C452 C453 1.367 . S
C452 C460 1.378 . S
C453 C452 1.367 . S
C453 C461 1.433 . S
C454 H450 0.929 . S
C454 C456 1.378 . S
C454 C458 1.350 . S
C455 C458 1.463 . S
C455 C460 1.350 . S
C455 N463 1.427 . S
C456 H447 0.930 . S
C456 C454 1.378 . S
C456 C457 1.367 . S
C457 C456 1.367 . S
C457 C459 1.433 . S
C458 C454 1.350 . S
C458 C455 1.463 . S
C458 N462 1.427 . S
C459 H449 0.929 . S
C459 C457 1.433 . S
C459 N462 1.384 . S
C460 H451 0.929 . S
C460 C452 1.378 . S
C460 C455 1.350 . S
C461 H448 0.929 . S
C461 C453 1.433 . S
C461 N463 1.384 . S
N462 C458 1.427 . S
N462 C459 1.384 . S
N463 C455 1.427 . S
N463 C461 1.384 . S
H464 C470 0.930 . S
H465 C474 0.930 . S
H466 C479 0.929 . S
H467 C477 0.929 1_556 S
H468 C472 0.929 . S
H469 C478 0.929 . S
C470 H464 0.930 . S
C470 C471 1.367 . S
C470 C478 1.378 . S
C471 C470 1.367 . S
C471 C479 1.433 1_655 S
C472 H468 0.929 . S
C472 C474 1.378 . S
C472 C476 1.350 . S
C473 C476 1.463 . S
C473 C478 1.350 1_455 S
C473 N481 1.427 . S
C474 H465 0.930 . S
C474 C472 1.378 . S
C474 C475 1.367 . S
C475 C474 1.367 . S
C475 C477 1.433 . S
C476 C472 1.350 . S
C476 C473 1.463 . S
C476 N480 1.427 . S
C477 H467 0.929 1_554 S
C477 C475 1.433 . S
C477 N480 1.384 . S
C478 H469 0.929 . S
C478 C470 1.378 . S
C478 C473 1.350 1_655 S
C479 H466 0.929 . S
C479 C471 1.433 1_455 S
C479 N481 1.384 . S
N480 C476 1.427 . S
N480 C477 1.384 . S
N481 C473 1.427 . S
N481 C479 1.384 . S
H482 C488 0.930 . S
H483 C492 0.930 . S
H484 C497 0.929 . S
H485 C495 0.929 . S
H486 C490 0.929 1_565 S
H487 C496 0.929 . S
C488 H482 0.930 . S
C488 C489 1.355 1_545 S
C488 C496 1.378 . S
C489 C488 1.355 1_565 S
C489 C497 1.443 . S
C490 H486 0.929 1_545 S
C490 C492 1.378 . S
C490 C494 1.350 . S
C491 C494 1.463 . S
C491 C496 1.350 . S
C491 N499 1.427 1_545 S
C492 H483 0.930 . S
C492 C490 1.378 . S
C492 C493 1.367 . S
C493 C492 1.367 . S
C493 C495 1.433 1_554 S
C494 C490 1.350 . S
C494 C491 1.463 . S
C494 N498 1.427 . S
C495 H485 0.929 . S
C495 C493 1.433 1_556 S
C495 N498 1.384 1_556 S
C496 H487 0.929 . S
C496 C488 1.378 . S
C496 C491 1.350 . S
C497 H484 0.929 . S
C497 C489 1.443 . S
C497 N499 1.384 . S
N498 C494 1.427 . S
N498 C495 1.384 1_554 S
N499 C491 1.427 1_565 S
N499 C497 1.384 . S
H500 C506 0.930 . S
H501 C510 0.936 . S
H502 C515 0.929 . S
H503 C513 0.929 . S
H504 C508 0.929 1_554 S
H505 C514 0.929 . S
C506 H500 0.930 . S
C506 C507 1.367 1_556 S
C506 C514 1.378 . S
C507 C506 1.367 1_554 S
C507 C515 1.433 . S
C508 H504 0.929 1_556 S
C508 C510 1.378 . S
C508 C512 1.350 . S
C509 C512 1.463 . S
C509 C514 1.350 . S
C509 N517 1.427 1_556 S
C510 H501 0.936 . S
C510 C508 1.378 . S
C510 C511 1.367 . S
C511 C510 1.367 . S
C511 C513 1.433 . S
C512 C508 1.350 . S
C512 C509 1.463 . S
C512 N516 1.427 . S
C513 H503 0.929 . S
C513 C511 1.433 . S
C513 N516 1.384 . S
C514 H505 0.929 . S
C514 C506 1.378 . S
C514 C509 1.350 . S
C515 H502 0.929 . S
C515 C507 1.433 . S
C515 N517 1.384 . S
N516 C512 1.427 . S
N516 C513 1.384 . S
N517 C509 1.427 1_554 S
N517 C515 1.384 . S
H518 C524 0.930 . S
H519 C528 0.930 . S
H520 C533 0.929 . S
H521 C531 0.929 . S
H522 C526 0.929 . S
H523 C532 0.929 . S
C524 H518 0.930 . S
C524 C525 1.367 . S
C524 C532 1.378 . S
C525 C524 1.367 . S
C525 C533 1.433 . S
C526 H522 0.929 . S
C526 C528 1.378 . S
C526 C530 1.350 . S
C527 C530 1.463 . S
C527 C532 1.350 . S
C527 N535 1.427 . S
C528 H519 0.930 . S
C528 C526 1.378 . S
C528 C529 1.367 . S
C529 C528 1.367 . S
C529 C531 1.433 . S
C530 C526 1.350 . S
C530 C527 1.463 . S
C530 N534 1.427 . S
C531 H521 0.929 . S
C531 C529 1.433 . S
C531 N534 1.384 . S
C532 H523 0.929 . S
C532 C524 1.378 . S
C532 C527 1.350 . S
C533 H520 0.929 . S
C533 C525 1.433 . S
C533 N535 1.384 . S
N534 C530 1.427 . S
N534 C531 1.384 . S
N535 C527 1.427 . S
N535 C533 1.384 . S
H536 C542 0.930 1_654 S
H537 C546 0.930 . S
H538 C551 0.929 . S
H539 C549 0.917 1_655 S
H540 C544 0.929 . S
H541 C550 0.929 1_655 S
C542 H536 0.930 1_456 S
C542 C543 1.367 . S
C542 C550 1.378 . S
C543 C542 1.367 . S
C543 C551 1.433 . S
C544 H540 0.929 . S
C544 C546 1.378 . S
C544 C548 1.350 . S
C545 C548 1.463 . S
C545 C550 1.350 . S
C545 N553 1.427 . S
C546 H537 0.930 . S
C546 C544 1.378 . S
C546 C547 1.367 . S
C547 C546 1.367 . S
C547 C549 1.443 . S
C548 C544 1.350 . S
C548 C545 1.463 . S
C548 N552 1.451 . S
C549 H539 0.917 1_455 S
C549 C547 1.443 . S
C549 N552 1.381 . S
C550 H541 0.929 1_455 S
C550 C542 1.378 . S
C550 C545 1.350 . S
C551 H538 0.929 . S
C551 C543 1.433 . S
C551 N553 1.384 . S
N552 C548 1.451 . S
N552 C549 1.381 . S
N553 C545 1.427 . S
N553 C551 1.384 . S
H554 C560 0.930 . S
H555 C564 0.930 . S
H556 C569 0.929 . S
H557 C567 0.929 . S
H558 C562 0.929 . S
H559 C568 0.929 . S
C560 H554 0.930 . S
C560 C561 1.367 1_565 S
C560 C568 1.378 . S
C561 C560 1.367 1_545 S
C561 C569 1.433 1_556 S
C562 H558 0.929 . S
C562 C564 1.378 . S
C562 C566 1.350 . S
C563 C566 1.463 . S
C563 C568 1.350 1_545 S
C563 N571 1.427 . S
C564 H555 0.930 . S
C564 C562 1.378 . S
C564 C565 1.367 . S
C565 C564 1.367 . S
C565 C567 1.433 1_545 S
C566 C562 1.350 . S
C566 C563 1.463 . S
C566 N570 1.427 1_545 S
C567 H557 0.929 . S
C567 C565 1.433 1_565 S
C567 N570 1.384 . S
C568 H559 0.929 . S
C568 C560 1.378 . S
C568 C563 1.350 1_565 S
C569 H556 0.929 . S
C569 C561 1.433 1_554 S
C569 N571 1.384 1_554 S
N570 C566 1.427 1_565 S
N570 C567 1.384 . S
N571 C563 1.427 . S
N571 C569 1.384 1_556 S
H572 C578 0.930 . S
H573 C582 0.930 1_554 S
H574 C587 0.929 . S
H575 C585 0.929 . S
H576 C580 0.929 . S
H577 C586 0.929 . S
C578 H572 0.930 . S
C578 C579 1.367 . S
C578 C586 1.378 . S
C579 C578 1.367 . S
C579 C587 1.433 . S
C580 H576 0.929 . S
C580 C582 1.377 1_554 S
C580 C584 1.350 . S
C581 C584 1.463 . S
C581 C586 1.350 . S
C581 N589 1.427 . S
C582 H573 0.930 1_556 S
C582 C580 1.377 1_556 S
C582 C583 1.368 . S
C583 C582 1.368 . S
C583 C585 1.433 . S
C584 C580 1.350 . S
C584 C581 1.463 . S
C584 N588 1.427 1_554 S
C585 H575 0.929 . S
C585 C583 1.433 . S
C585 N588 1.384 . S
C586 H577 0.929 . S
C586 C578 1.378 . S
C586 C581 1.350 . S
C587 H574 0.929 . S
C587 C579 1.433 . S
C587 N589 1.384 . S
N588 C584 1.427 1_556 S
N588 C585 1.384 . S
N589 C581 1.427 . S
N589 C587 1.384 . S
H590 C596 0.930 . S
H591 C600 0.930 . S
H592 C605 0.929 . S
H593 C603 0.929 . S
H594 C598 0.929 . S
H595 C604 0.929 . S
C596 H590 0.930 . S
C596 C597 1.367 . S
C596 C604 1.378 . S
C597 C596 1.367 . S
C597 C605 1.433 . S
C598 H594 0.929 . S
C598 C600 1.378 . S
C598 C602 1.350 . S
C599 C602 1.463 . S
C599 C604 1.350 . S
C599 N607 1.427 . S
C600 H591 0.930 . S
C600 C598 1.378 . S
C600 C601 1.367 . S
C601 C600 1.367 . S
C601 C603 1.433 . S
C602 C598 1.350 . S
C602 C599 1.463 . S
C602 N606 1.427 . S
C603 H593 0.929 . S
C603 C601 1.433 . S
C603 N606 1.384 . S
C604 H595 0.929 . S
C604 C596 1.378 . S
C604 C599 1.350 . S
C605 H592 0.929 . S
C605 C597 1.433 . S
C605 N607 1.384 . S
N606 C602 1.427 . S
N606 C603 1.384 . S
N607 C599 1.427 . S
N607 C605 1.384 . S
H608 C614 0.930 . S
H609 C618 0.922 1_455 S
H610 C623 0.929 1_455 S
H611 C621 0.929 . S
H612 C616 0.921 1_455 S
H613 C622 0.929 . S
C614 H608 0.930 . S
C614 C615 1.367 . S
C614 C622 1.378 . S
C615 C614 1.367 . S
C615 C623 1.433 . S
C616 H612 0.921 1_655 S
C616 C618 1.377 . S
C616 C620 1.362 . S
C617 C620 1.463 . S
C617 C622 1.350 . S
C617 N625 1.441 . S
C618 H609 0.922 1_655 S
C618 C616 1.377 . S
C618 C619 1.373 . S
C619 C618 1.373 . S
C619 C621 1.433 . S
C620 C616 1.362 . S
C620 C617 1.463 . S
C620 N624 1.427 . S
C621 H611 0.929 . S
C621 C619 1.433 . S
C621 N624 1.384 . S
C622 H613 0.929 . S
C622 C614 1.378 . S
C622 C617 1.350 . S
C623 H610 0.929 1_655 S
C623 C615 1.433 . S
C623 N625 1.391 . S
N624 C620 1.427 . S
N624 C621 1.384 . S
N625 C617 1.441 . S
N625 C623 1.391 . S
H626 C632 0.930 . S
H627 C636 0.930 . S
H628 C641 0.929 . S
H629 C639 0.929 . S
H630 C634 0.929 . S
H631 C640 0.929 . S
C632 H626 0.930 . S
C632 C633 1.367 1_545 S
C632 C640 1.378 . S
C633 C632 1.367 1_565 S
C633 C641 1.433 . S
C634 H630 0.929 . S
C634 C636 1.378 . S
C634 C638 1.350 . S
C635 C638 1.463 . S
C635 C640 1.350 1_565 S
C635 N643 1.427 . S
C636 H627 0.930 . S
C636 C634 1.378 . S
C636 C637 1.367 . S
C637 C636 1.367 . S
C637 C639 1.433 1_565 S
C638 C634 1.350 . S
C638 C635 1.463 . S
C638 N642 1.427 1_565 S
C639 H629 0.929 . S
C639 C637 1.433 1_545 S
C639 N642 1.384 . S
C640 H631 0.929 . S
C640 C632 1.378 . S
C640 C635 1.350 1_545 S
C641 H628 0.929 . S
C641 C633 1.433 . S
C641 N643 1.384 . S
N642 C638 1.427 1_545 S
N642 C639 1.384 . S
N643 C635 1.427 . S
N643 C641 1.384 . S
H644 C650 0.930 . S
H645 C654 0.930 . S
H646 C659 0.929 . S
H647 C657 0.929 . S
H648 C652 0.929 . S
H649 C658 0.929 . S
C650 H644 0.930 . S
C650 C651 1.367 . S
C650 C658 1.378 . S
C651 C650 1.367 . S
C651 C659 1.433 . S
C652 H648 0.929 . S
C652 C654 1.378 . S
C652 C656 1.350 . S
C653 C656 1.463 . S
C653 C658 1.350 . S
C653 N661 1.427 . S
C654 H645 0.930 . S
C654 C652 1.378 . S
C654 C655 1.367 . S
C655 C654 1.367 . S
C655 C657 1.433 . S
C656 C652 1.350 . S
C656 C653 1.463 . S
C656 N660 1.427 . S
C657 H647 0.929 . S
C657 C655 1.433 . S
C657 N660 1.384 . S
C658 H649 0.929 . S
C658 C650 1.378 . S
C658 C653 1.350 . S
C659 H646 0.929 . S
C659 C651 1.433 . S
C659 N661 1.384 . S
N660 C656 1.427 . S
N660 C657 1.384 . S
N661 C653 1.427 . S
N661 C659 1.384 . S
H662 C668 0.930 . S
H663 C672 0.930 . S
H664 C677 0.929 . S
H665 C675 0.929 . S
H666 C670 0.929 . S
H667 C676 0.929 . S
C668 H662 0.930 . S
C668 C669 1.367 . S
C668 C676 1.378 . S
C669 C668 1.367 . S
C669 C677 1.433 . S
C670 H666 0.929 . S
C670 C672 1.378 . S
C670 C674 1.350 . S
C671 C674 1.463 . S
C671 C676 1.350 . S
C671 N679 1.427 . S
C672 H663 0.930 . S
C672 C670 1.378 . S
C672 C673 1.367 . S
C673 C672 1.367 . S
C673 C675 1.433 . S
C674 C670 1.350 . S
C674 C671 1.463 . S
C674 N678 1.427 . S
C675 H665 0.929 . S
C675 C673 1.433 . S
C675 N678 1.384 . S
C676 H667 0.929 . S
C676 C668 1.378 . S
C676 C671 1.350 . S
C677 H664 0.929 . S
C677 C669 1.433 . S
C677 N679 1.384 . S
N678 C674 1.427 . S
N678 C675 1.384 . S
N679 C671 1.427 . S
N679 C677 1.384 . S
C255 C74 1.876 . S
C259 C90 1.908 1_545 S
C277 C130 1.989 . S
C273 C85 1.989 . S
C295 C194 1.913 . S
C291 C52 1.867 . S
C313 C210 1.600 . S
C309 C63 1.482 . S
C331 C111 1.913 . S
C327 C30 1.875 1_565 S
C345 C41 1.956 . S
C349 C151 1.988 . S
C363 C8 1.833 . S
C367 C185 1.916 1_554 S
C381 C19 1.473 . S
C385 C231 1.604 . S
C403 C105 0.520 . S
C399 C62 0.489 . S
C421 C145 0.812 . S
C417 C73 0.810 . S
C439 C181 0.735 . S
C435 C84 0.751 . S
C453 C51 0.715 . S
C457 C225 0.737 . S
C471 C18 0.548 . S
C475 C114 0.516 . S
C493 C154 0.808 . S
C489 C29 0.791 1_565 S
C511 C192 0.765 . S
C507 C40 0.757 . S
C525 C7 0.752 . S
C529 C234 0.744 . S
C543 C60 1.597 . S
C547 C112 2.048 . S
C561 C71 1.551 1_556 S
C565 C152 1.973 . S
C583 C170 1.587 . S
C579 C82 1.411 . S
C601 C232 2.413 . S
C597 C49 1.957 . S
C615 C16 1.583 1_655 S
C619 C101 2.056 . S
C637 C141 1.971 . S
C633 C27 1.563 1_565 S
C655 C191 1.579 . S
C651 C38 1.268 . S
C669 C5 1.841 . S
C673 C221 2.415 . S
