# Generated by pormake.
# Topology gar, (4,6)-cn, num edge types: 1
# Building blocks:
#     Node 0, Type 0, BuildingBlock: AZAVOO_clean_sbu_0, # of connection points: 4
#     Node 1, Type 0, BuildingBlock: AZAVOO_clean_sbu_0, # of connection points: 4
#     Node 2, Type 0, BuildingBlock: AZAVOO_clean_sbu_0, # of connection points: 4
#     Node 3, Type 0, BuildingBlock: AZAVOO_clean_sbu_0, # of connection points: 4
#     Node 4, Type 0, BuildingBlock: AZAVOO_clean_sbu_0, # of connection points: 4
#     Node 5, Type 0, BuildingBlock: AZAVOO_clean_sbu_0, # of connection points: 4
#     Node 6, Type 0, BuildingBlock: AZAVOO_clean_sbu_0, # of connection points: 4
#     Node 7, Type 0, BuildingBlock: AZAVOO_clean_sbu_0, # of connection points: 4
#     Node 8, Type 0, BuildingBlock: AZAVOO_clean_sbu_0, # of connection points: 4
#     Node 9, Type 0, BuildingBlock: AZAVOO_clean_sbu_0, # of connection points: 4
#     Node 10, Type 0, BuildingBlock: AZAVOO_clean_sbu_0, # of connection points: 4
#     Node 11, Type 0, BuildingBlock: AZAVOO_clean_sbu_0, # of connection points: 4
#     Node 12, Type 0, BuildingBlock: AZAVOO_clean_sbu_0, # of connection points: 4
#     Node 13, Type 0, BuildingBlock: AZAVOO_clean_sbu_0, # of connection points: 4
#     Node 14, Type 0, BuildingBlock: AZAVOO_clean_sbu_0, # of connection points: 4
#     Node 15, Type 0, BuildingBlock: AZAVOO_clean_sbu_0, # of connection points: 4
#     Node 16, Type 0, BuildingBlock: AZAVOO_clean_sbu_0, # of connection points: 4
#     Node 17, Type 0, BuildingBlock: AZAVOO_clean_sbu_0, # of connection points: 4
#     Node 18, Type 0, BuildingBlock: AZAVOO_clean_sbu_0, # of connection points: 4
#     Node 19, Type 0, BuildingBlock: AZAVOO_clean_sbu_0, # of connection points: 4
#     Node 20, Type 0, BuildingBlock: AZAVOO_clean_sbu_0, # of connection points: 4
#     Node 21, Type 0, BuildingBlock: AZAVOO_clean_sbu_0, # of connection points: 4
#     Node 22, Type 0, BuildingBlock: AZAVOO_clean_sbu_0, # of connection points: 4
#     Node 23, Type 0, BuildingBlock: AZAVOO_clean_sbu_0, # of connection points: 4
#     Node 24, Type 1, BuildingBlock: BETDEL_clean_sbu_0, # of connection points: 6
#     Node 25, Type 1, BuildingBlock: BETDEL_clean_sbu_0, # of connection points: 6
#     Node 26, Type 1, BuildingBlock: BETDEL_clean_sbu_0, # of connection points: 6
#     Node 27, Type 1, BuildingBlock: BETDEL_clean_sbu_0, # of connection points: 6
#     Node 28, Type 1, BuildingBlock: BETDEL_clean_sbu_0, # of connection points: 6
#     Node 29, Type 1, BuildingBlock: BETDEL_clean_sbu_0, # of connection points: 6
#     Node 30, Type 1, BuildingBlock: BETDEL_clean_sbu_0, # of connection points: 6
#     Node 31, Type 1, BuildingBlock: BETDEL_clean_sbu_0, # of connection points: 6
#     Node 32, Type 1, BuildingBlock: BETDEL_clean_sbu_0, # of connection points: 6
#     Node 33, Type 1, BuildingBlock: BETDEL_clean_sbu_0, # of connection points: 6
#     Node 34, Type 1, BuildingBlock: BETDEL_clean_sbu_0, # of connection points: 6
#     Node 35, Type 1, BuildingBlock: BETDEL_clean_sbu_0, # of connection points: 6
#     Node 36, Type 1, BuildingBlock: BETDEL_clean_sbu_0, # of connection points: 6
#     Node 37, Type 1, BuildingBlock: BETDEL_clean_sbu_0, # of connection points: 6
#     Node 38, Type 1, BuildingBlock: BETDEL_clean_sbu_0, # of connection points: 6
#     Node 39, Type 1, BuildingBlock: BETDEL_clean_sbu_0, # of connection points: 6
#     Edge 40, Type (0, 1), BuildingBlock: XIVTED_clean_linker_0, # of connection points: 2
#     Edge 41, Type (0, 1), BuildingBlock: XIVTED_clean_linker_0, # of connection points: 2
#     Edge 42, Type (0, 1), BuildingBlock: XIVTED_clean_linker_0, # of connection points: 2
#     Edge 43, Type (0, 1), BuildingBlock: XIVTED_clean_linker_0, # of connection points: 2
#     Edge 44, Type (0, 1), BuildingBlock: XIVTED_clean_linker_0, # of connection points: 2
#     Edge 45, Type (0, 1), BuildingBlock: XIVTED_clean_linker_0, # of connection points: 2
#     Edge 46, Type (0, 1), BuildingBlock: XIVTED_clean_linker_0, # of connection points: 2
#     Edge 47, Type (0, 1), BuildingBlock: XIVTED_clean_linker_0, # of connection points: 2
#     Edge 48, Type (0, 1), BuildingBlock: XIVTED_clean_linker_0, # of connection points: 2
#     Edge 49, Type (0, 1), BuildingBlock: XIVTED_clean_linker_0, # of connection points: 2
#     Edge 50, Type (0, 1), BuildingBlock: XIVTED_clean_linker_0, # of connection points: 2
#     Edge 51, Type (0, 1), BuildingBlock: XIVTED_clean_linker_0, # of connection points: 2
#     Edge 52, Type (0, 1), BuildingBlock: XIVTED_clean_linker_0, # of connection points: 2
#     Edge 53, Type (0, 1), BuildingBlock: XIVTED_clean_linker_0, # of connection points: 2
#     Edge 54, Type (0, 1), BuildingBlock: XIVTED_clean_linker_0, # of connection points: 2
#     Edge 55, Type (0, 1), BuildingBlock: XIVTED_clean_linker_0, # of connection points: 2
#     Edge 56, Type (0, 1), BuildingBlock: XIVTED_clean_linker_0, # of connection points: 2
#     Edge 57, Type (0, 1), BuildingBlock: XIVTED_clean_linker_0, # of connection points: 2
#     Edge 58, Type (0, 1), BuildingBlock: XIVTED_clean_linker_0, # of connection points: 2
#     Edge 59, Type (0, 1), BuildingBlock: XIVTED_clean_linker_0, # of connection points: 2
#     Edge 60, Type (0, 1), BuildingBlock: XIVTED_clean_linker_0, # of connection points: 2
#     Edge 61, Type (0, 1), BuildingBlock: XIVTED_clean_linker_0, # of connection points: 2
#     Edge 62, Type (0, 1), BuildingBlock: XIVTED_clean_linker_0, # of connection points: 2
#     Edge 63, Type (0, 1), BuildingBlock: XIVTED_clean_linker_0, # of connection points: 2
#     Edge 64, Type (0, 1), BuildingBlock: XIVTED_clean_linker_0, # of connection points: 2
#     Edge 65, Type (0, 1), BuildingBlock: XIVTED_clean_linker_0, # of connection points: 2
#     Edge 66, Type (0, 1), BuildingBlock: XIVTED_clean_linker_0, # of connection points: 2
#     Edge 67, Type (0, 1), BuildingBlock: XIVTED_clean_linker_0, # of connection points: 2
#     Edge 68, Type (0, 1), BuildingBlock: XIVTED_clean_linker_0, # of connection points: 2
#     Edge 69, Type (0, 1), BuildingBlock: XIVTED_clean_linker_0, # of connection points: 2
#     Edge 70, Type (0, 1), BuildingBlock: XIVTED_clean_linker_0, # of connection points: 2
#     Edge 71, Type (0, 1), BuildingBlock: XIVTED_clean_linker_0, # of connection points: 2
#     Edge 72, Type (0, 1), BuildingBlock: XIVTED_clean_linker_0, # of connection points: 2
#     Edge 73, Type (0, 1), BuildingBlock: XIVTED_clean_linker_0, # of connection points: 2
#     Edge 74, Type (0, 1), BuildingBlock: XIVTED_clean_linker_0, # of connection points: 2
#     Edge 75, Type (0, 1), BuildingBlock: XIVTED_clean_linker_0, # of connection points: 2
#     Edge 76, Type (0, 1), BuildingBlock: XIVTED_clean_linker_0, # of connection points: 2
#     Edge 77, Type (0, 1), BuildingBlock: XIVTED_clean_linker_0, # of connection points: 2
#     Edge 78, Type (0, 1), BuildingBlock: XIVTED_clean_linker_0, # of connection points: 2
#     Edge 79, Type (0, 1), BuildingBlock: XIVTED_clean_linker_0, # of connection points: 2
#     Edge 80, Type (0, 1), BuildingBlock: XIVTED_clean_linker_0, # of connection points: 2
#     Edge 81, Type (0, 1), BuildingBlock: XIVTED_clean_linker_0, # of connection points: 2
#     Edge 82, Type (0, 1), BuildingBlock: XIVTED_clean_linker_0, # of connection points: 2
#     Edge 83, Type (0, 1), BuildingBlock: XIVTED_clean_linker_0, # of connection points: 2
#     Edge 84, Type (0, 1), BuildingBlock: XIVTED_clean_linker_0, # of connection points: 2
#     Edge 85, Type (0, 1), BuildingBlock: XIVTED_clean_linker_0, # of connection points: 2
#     Edge 86, Type (0, 1), BuildingBlock: XIVTED_clean_linker_0, # of connection points: 2
#     Edge 87, Type (0, 1), BuildingBlock: XIVTED_clean_linker_0, # of connection points: 2
#     Edge 88, Type (0, 1), BuildingBlock: XIVTED_clean_linker_0, # of connection points: 2
#     Edge 89, Type (0, 1), BuildingBlock: XIVTED_clean_linker_0, # of connection points: 2
#     Edge 90, Type (0, 1), BuildingBlock: XIVTED_clean_linker_0, # of connection points: 2
#     Edge 91, Type (0, 1), BuildingBlock: XIVTED_clean_linker_0, # of connection points: 2
#     Edge 92, Type (0, 1), BuildingBlock: XIVTED_clean_linker_0, # of connection points: 2
#     Edge 93, Type (0, 1), BuildingBlock: XIVTED_clean_linker_0, # of connection points: 2
#     Edge 94, Type (0, 1), BuildingBlock: XIVTED_clean_linker_0, # of connection points: 2
#     Edge 95, Type (0, 1), BuildingBlock: XIVTED_clean_linker_0, # of connection points: 2
#     Edge 96, Type (0, 1), BuildingBlock: XIVTED_clean_linker_0, # of connection points: 2
#     Edge 97, Type (0, 1), BuildingBlock: XIVTED_clean_linker_0, # of connection points: 2
#     Edge 98, Type (0, 1), BuildingBlock: XIVTED_clean_linker_0, # of connection points: 2
#     Edge 99, Type (0, 1), BuildingBlock: XIVTED_clean_linker_0, # of connection points: 2
#     Edge 100, Type (0, 1), BuildingBlock: XIVTED_clean_linker_0, # of connection points: 2
#     Edge 101, Type (0, 1), BuildingBlock: XIVTED_clean_linker_0, # of connection points: 2
#     Edge 102, Type (0, 1), BuildingBlock: XIVTED_clean_linker_0, # of connection points: 2
#     Edge 103, Type (0, 1), BuildingBlock: XIVTED_clean_linker_0, # of connection points: 2
#     Edge 104, Type (0, 1), BuildingBlock: XIVTED_clean_linker_0, # of connection points: 2
#     Edge 105, Type (0, 1), BuildingBlock: XIVTED_clean_linker_0, # of connection points: 2
#     Edge 106, Type (0, 1), BuildingBlock: XIVTED_clean_linker_0, # of connection points: 2
#     Edge 107, Type (0, 1), BuildingBlock: XIVTED_clean_linker_0, # of connection points: 2
#     Edge 108, Type (0, 1), BuildingBlock: XIVTED_clean_linker_0, # of connection points: 2
#     Edge 109, Type (0, 1), BuildingBlock: XIVTED_clean_linker_0, # of connection points: 2
#     Edge 110, Type (0, 1), BuildingBlock: XIVTED_clean_linker_0, # of connection points: 2
#     Edge 111, Type (0, 1), BuildingBlock: XIVTED_clean_linker_0, # of connection points: 2
#     Edge 112, Type (0, 1), BuildingBlock: XIVTED_clean_linker_0, # of connection points: 2
#     Edge 113, Type (0, 1), BuildingBlock: XIVTED_clean_linker_0, # of connection points: 2
#     Edge 114, Type (0, 1), BuildingBlock: XIVTED_clean_linker_0, # of connection points: 2
#     Edge 115, Type (0, 1), BuildingBlock: XIVTED_clean_linker_0, # of connection points: 2
#     Edge 116, Type (0, 1), BuildingBlock: XIVTED_clean_linker_0, # of connection points: 2
#     Edge 117, Type (0, 1), BuildingBlock: XIVTED_clean_linker_0, # of connection points: 2
#     Edge 118, Type (0, 1), BuildingBlock: XIVTED_clean_linker_0, # of connection points: 2
#     Edge 119, Type (0, 1), BuildingBlock: XIVTED_clean_linker_0, # of connection points: 2
#     Edge 120, Type (0, 1), BuildingBlock: XIVTED_clean_linker_0, # of connection points: 2
#     Edge 121, Type (0, 1), BuildingBlock: XIVTED_clean_linker_0, # of connection points: 2
#     Edge 122, Type (0, 1), BuildingBlock: XIVTED_clean_linker_0, # of connection points: 2
#     Edge 123, Type (0, 1), BuildingBlock: XIVTED_clean_linker_0, # of connection points: 2
#     Edge 124, Type (0, 1), BuildingBlock: XIVTED_clean_linker_0, # of connection points: 2
#     Edge 125, Type (0, 1), BuildingBlock: XIVTED_clean_linker_0, # of connection points: 2
#     Edge 126, Type (0, 1), BuildingBlock: XIVTED_clean_linker_0, # of connection points: 2
#     Edge 127, Type (0, 1), BuildingBlock: XIVTED_clean_linker_0, # of connection points: 2
#     Edge 128, Type (0, 1), BuildingBlock: XIVTED_clean_linker_0, # of connection points: 2
#     Edge 129, Type (0, 1), BuildingBlock: XIVTED_clean_linker_0, # of connection points: 2
#     Edge 130, Type (0, 1), BuildingBlock: XIVTED_clean_linker_0, # of connection points: 2
#     Edge 131, Type (0, 1), BuildingBlock: XIVTED_clean_linker_0, # of connection points: 2
#     Edge 132, Type (0, 1), BuildingBlock: XIVTED_clean_linker_0, # of connection points: 2
#     Edge 133, Type (0, 1), BuildingBlock: XIVTED_clean_linker_0, # of connection points: 2
#     Edge 134, Type (0, 1), BuildingBlock: XIVTED_clean_linker_0, # of connection points: 2
#     Edge 135, Type (0, 1), BuildingBlock: XIVTED_clean_linker_0, # of connection points: 2
# Relax obj value: 0.168
# Max RMSD: 0.267
# Mean RMSD: 0.190
data_MOF--net-gar--node1-AZAVOO_clean_sbu_0--node2-BETDEL_clean_sbu_0--edge1-XIVTED_clean_linker_0
_symmetry_space_group_name_H-M    P1
_symmetry_Int_Tables_number       1
_symmetry_cell_setting            triclinic
loop_
_symmetry_equiv_pos_as_xyz
'x, y, z'
_cell_length_a     57.167688
_cell_length_b     52.173531
_cell_length_c     54.639735
_cell_angle_alpha  98.116388
_cell_angle_beta   92.181011
_cell_angle_gamma 101.96102
loop_
_atom_site_label
_atom_site_type_symbol
_atom_site_fract_x
_atom_site_fract_y
_atom_site_fract_z
_atom_type_partial_charge
Mg0 Mg 0.00761 0.25017 0.36939 0.0
O1 O 0.00928 0.28792 0.39774 0.0
O2 O 0.97309 0.28291 0.41316 0.0
Mg3 Mg 0.95009 0.24242 0.39796 0.0
C4 C 0.99417 0.29644 0.41165 0.0
C5 C 0.05659 0.28064 0.35424 0.0
O6 O 0.04306 0.29694 0.34907 0.0
O7 O 0.01284 0.22681 0.40081 0.0
O8 O 0.97672 0.22211 0.41597 0.0
O9 O 0.99151 0.2687 0.34031 0.0
O10 O 0.97046 0.24422 0.36499 0.0
C11 C -0.00206 0.21788 0.41603 0.0
C12 C 0.97091 0.25928 0.34821 0.0
O13 O 0.0476 0.26081 0.36454 0.0
Mg14 Mg 0.98563 0.78241 0.64593 0.0
O15 O 0.98107 0.74269 0.62148 0.0
O16 O 0.94542 0.73084 0.60031 0.0
Mg17 Mg 0.92748 0.76604 0.61059 0.0
C18 C 0.96583 0.72637 0.60622 0.0
C19 C 0.02935 0.76107 0.65998 0.0
O20 O 0.01149 0.74272 0.66502 0.0
O21 O 0.99268 0.8027 0.61203 0.0
O22 O 0.95643 0.79302 0.5918 0.0
O23 O 0.96734 0.76334 0.67632 0.0
O24 O 0.94882 0.77784 0.64656 0.0
C25 C 0.97866 0.80443 0.59385 0.0
C26 C 0.94752 0.76626 0.66593 0.0
O27 O 0.02485 0.78149 0.6522 0.0
Mg28 Mg 0.5121 0.77349 0.88583 0.0
O29 O 0.51486 0.81191 0.9136 0.0
O30 O 0.47865 0.80812 0.92883 0.0
Mg31 Mg 0.4546 0.76818 0.91391 0.0
C32 C 0.4999 0.82116 0.92723 0.0
C33 C 0.56167 0.8002 0.87021 0.0
O34 O 0.54887 0.81674 0.86391 0.0
O35 O 0.51548 0.74995 0.91692 0.0
O36 O 0.4796 0.74606 0.93257 0.0
O37 O 0.49836 0.79277 0.85657 0.0
O38 O 0.4753 0.76955 0.88092 0.0
C39 C 0.50061 0.74122 0.93216 0.0
C40 C 0.4773 0.78491 0.86423 0.0
O41 O 0.55206 0.78166 0.88177 0.0
Mg42 Mg 0.50064 0.3105 0.1701 0.0
O43 O 0.50433 0.27026 0.14838 0.0
O44 O 0.46793 0.25413 0.12864 0.0
Mg45 Mg 0.44191 0.28131 0.13757 0.0
C46 C 0.48952 0.25235 0.1337 0.0
C47 C 0.56108 0.32215 0.17504 0.0
O48 O 0.58028 0.34141 0.17894 0.0
O49 O 0.5011 0.32669 0.13409 0.0
O50 O 0.46425 0.31173 0.11584 0.0
O51 O 0.48785 0.29332 0.20415 0.0
O52 O 0.46458 0.29576 0.17188 0.0
C53 C 0.48553 0.32572 0.11651 0.0
C54 C 0.46653 0.2887 0.19329 0.0
O55 O 0.5407 0.32814 0.17612 0.0
Mg56 Mg 0.01715 0.78641 0.14242 0.0
O57 O 0.01464 0.74556 0.11896 0.0
O58 O 0.97815 0.73483 0.09935 0.0
Mg59 Mg 0.95655 0.76578 0.11244 0.0
C60 C -0.00116 0.73004 0.10351 0.0
C61 C 0.06669 0.81069 0.16612 0.0
O62 O 0.05315 0.8261 0.17645 0.0
O63 O 0.01974 0.80571 0.10734 0.0
O64 O 0.9814 0.79489 0.09232 0.0
O65 O 0.00243 0.76884 0.17542 0.0
O66 O 0.98078 0.7794 0.14569 0.0
C67 C 0.00313 0.80708 0.09152 0.0
C68 C 0.98163 0.77042 0.16631 0.0
O69 O 0.05727 0.79185 0.14899 0.0
Mg70 Mg 0.47811 0.73138 0.35538 0.0
O71 O 0.47907 0.77145 0.38022 0.0
O72 O 0.44482 0.76577 0.39941 0.0
Mg73 Mg 0.4226 0.72397 0.38769 0.0
C74 C 0.46483 0.78012 0.39527 0.0
C75 C 0.52478 0.75492 0.3309 0.0
O76 O 0.50916 0.76423 0.31842 0.0
O77 O 0.48665 0.71425 0.38967 0.0
O78 O 0.45185 0.70838 0.40759 0.0
O79 O 0.45936 0.74349 0.3239 0.0
O80 O 0.44083 0.72381 0.35318 0.0
C81 C 0.47377 0.70652 0.40689 0.0
C82 C 0.43956 0.73505 0.33379 0.0
O83 O 0.51782 0.74213 0.3484 0.0
Mg84 Mg 0.52706 0.30457 0.64614 0.0
O85 O 0.52317 0.26179 0.62662 0.0
O86 O 0.4864 0.24933 0.60773 0.0
Mg87 Mg 0.46606 0.2823 0.61691 0.0
C88 C 0.50703 0.24484 0.61271 0.0
C89 C 0.57803 0.32634 0.66944 0.0
O90 O 0.56617 0.34307 0.68072 0.0
O91 O 0.52991 0.31912 0.60856 0.0
O92 O 0.49158 0.30662 0.59349 0.0
O93 O 0.51183 0.29137 0.68089 0.0
O94 O 0.49074 0.29944 0.64934 0.0
C95 C 0.51337 0.31804 0.59175 0.0
C96 C 0.49123 0.29253 0.67093 0.0
O97 O 0.56704 0.30814 0.65248 0.0
Mg98 Mg 0.97879 0.21616 0.84632 0.0
O99 O 0.97768 0.25656 0.86927 0.0
O100 O 0.94231 0.25161 0.88627 0.0
Mg101 Mg 0.92214 0.20861 0.87638 0.0
C102 C 0.96247 0.26588 0.88249 0.0
C103 C 0.02553 0.24494 0.82528 0.0
O104 O 0.00978 0.25573 0.81468 0.0
O105 O 0.98703 0.20072 0.88183 0.0
O106 O 0.95177 0.19614 0.89889 0.0
O107 O 0.96026 0.22739 0.81428 0.0
O108 O 0.94143 0.20608 0.84253 0.0
C109 C 0.97377 0.1944 0.89925 0.0
C110 C 0.94035 0.21777 0.82341 0.0
O111 O 0.01859 0.22917 0.84057 0.0
Mg112 Mg 0.40005 0.07138 0.29609 0.0
O113 O 0.38181 0.02848 0.29857 0.0
O114 O 0.37116 0.02671 0.33729 0.0
Mg115 Mg 0.38232 0.06848 0.35921 0.0
C116 C 0.37209 0.01561 0.31506 0.0
C117 C 0.406 0.04192 0.24496 0.0
O118 O 0.4119 0.02584 0.25943 0.0
O119 O 0.36345 0.08041 0.29548 0.0
O120 O 0.35339 0.07988 0.33462 0.0
O121 O 0.43509 0.06411 0.30713 0.0
O122 O 0.41035 0.07852 0.33351 0.0
C123 C 0.34873 0.08265 0.31217 0.0
C124 C 0.42991 0.07035 0.32975 0.0
O125 O 0.39854 0.0621 0.25449 0.0
Mg126 Mg 0.27528 0.14121 0.47777 0.0
O127 O 0.2759 0.1654 0.51668 0.0
O128 O 0.31227 0.19181 0.52399 0.0
Mg129 Mg 0.33533 0.18233 0.49166 0.0
C130 C 0.29114 0.1835 0.53054 0.0
C131 C 0.22523 0.11701 0.49282 0.0
O132 O 0.2392 0.11251 0.51066 0.0
O133 O 0.27465 0.17724 0.45869 0.0
O134 O 0.31283 0.19929 0.4642 0.0
O135 O 0.28717 0.10846 0.49339 0.0
O136 O 0.31203 0.1424 0.48205 0.0
C137 C 0.2915 0.19603 0.45446 0.0
C138 C 0.30899 0.1206 0.49125 0.0
O139 O 0.23465 0.12971 0.47619 0.0
Mg140 Mg 0.12668 0.00076 0.77776 0.0
O141 O 0.15003 0.04225 0.78823 0.0
O142 O 0.16997 0.04577 0.82483 0.0
Mg143 Mg 0.15785 0.00584 0.83852 0.0
C144 C 0.16491 0.05557 0.80569 0.0
C145 C 0.11512 0.03008 0.7353 0.0
O146 O 0.10939 0.04506 0.75456 0.0
O147 O 0.15964 0.9843 0.7693 0.0
O148 O 0.17691 0.98584 0.80704 0.0
O149 O 0.09597 0.0128 0.79635 0.0
O150 O 0.12392 -0.00274 0.81505 0.0
C151 C 0.17607 0.97975 0.78346 0.0
C152 C 0.10488 0.00684 0.8164 0.0
O153 O 0.12259 0.00941 0.73851 0.0
Mg154 Mg 0.26034 0.90735 0.00725 0.0
O155 O 0.25833 0.88042 0.96946 0.0
O156 O 0.2933 0.86731 0.96892 0.0
Mg157 Mg 0.31641 0.88414 0.00465 0.0
C158 C 0.27287 0.86757 0.95876 0.0
C159 C 0.21632 0.9226 0.02423 0.0
O160 O 0.23209 0.92829 0.04341 0.0
O161 O 0.25319 0.87137 0.02675 0.0
O162 O 0.28869 0.85976 0.02667 0.0
O163 O 0.27717 0.9428 0.99124 0.0
O164 O 0.29723 0.91643 0.00737 0.0
C165 C 0.26704 0.85669 0.03282 0.0
C166 C 0.29739 0.93644 0.99594 0.0
O167 O 0.22138 0.90958 0.00442 0.0
Mg168 Mg 0.26315 0.39829 0.03844 0.0
O169 O 0.26531 0.37249 0.00069 0.0
O170 O 0.29984 0.359 0.00333 0.0
Mg171 Mg 0.31962 0.37561 0.04114 0.0
C172 C 0.2805 0.35977 0.99123 0.0
C173 C 0.22033 0.40897 0.00969 0.0
O174 O 0.23788 0.4141 0.99507 0.0
O175 O 0.25375 0.36162 0.05815 0.0
O176 O 0.28989 0.35187 0.06107 0.0
O177 O 0.28272 0.43464 0.02465 0.0
O178 O 0.30053 0.40803 0.04299 0.0
C179 C 0.26784 0.3479 0.06588 0.0
C180 C 0.30232 0.42834 0.03171 0.0
O181 O 0.2242 0.39932 0.0292 0.0
Mg182 Mg 0.77656 0.13482 0.98626 0.0
O183 O 0.7859 0.15772 0.02476 0.0
O184 O 0.82443 0.17824 0.02963 0.0
Mg185 Mg 0.84018 0.16639 0.99275 0.0
C186 C 0.80367 0.17275 0.03787 0.0
C187 C 0.72657 0.10741 0.99585 0.0
O188 O 0.73721 0.08766 0.98957 0.0
O189 O 0.778 0.17347 0.97155 0.0
O190 O 0.81738 0.19099 0.97437 0.0
O191 O 0.78603 0.09983 -0.00089 0.0
O192 O 0.81157 0.13012 0.98316 0.0
C193 C 0.79572 0.1918 0.96836 0.0
C194 C 0.80754 0.10883 0.99319 0.0
O195 O 0.73772 0.13085 0.99463 0.0
Mg196 Mg 0.10782 0.47906 0.23559 0.0
O197 O 0.12563 0.52342 0.2452 0.0
O198 O 0.14244 0.52972 0.28379 0.0
Mg199 Mg 0.13639 0.49047 0.2986 0.0
C200 C 0.13774 0.53846 0.2639 0.0
C201 C 0.08231 0.46694 0.18473 0.0
O202 O 0.07093 0.44883 0.19706 0.0
O203 O 0.14494 0.47008 0.2294 0.0
O204 O 0.16005 0.47706 0.26879 0.0
O205 O 0.0743 0.48565 0.25348 0.0
O206 O 0.10505 0.47555 0.27264 0.0
C207 C 0.16194 0.47084 0.24559 0.0
C208 C 0.08436 0.48142 0.27372 0.0
O209 O 0.10055 0.48355 0.19542 0.0
Mg210 Mg 0.77085 0.89711 0.54105 0.0
O211 O 0.76875 0.86877 0.50397 0.0
O212 O 0.7996 0.84884 0.50647 0.0
Mg213 Mg 0.82074 0.86318 0.54385 0.0
C214 C 0.78127 0.85267 0.49459 0.0
C215 C 0.72515 0.91806 0.54952 0.0
O216 O 0.73656 0.92367 0.57159 0.0
O217 O 0.75603 0.86256 0.5623 0.0
O218 O 0.78856 0.84527 0.56428 0.0
O219 O 0.7959 0.92893 0.52531 0.0
O220 O 0.80771 0.8999 0.54584 0.0
C221 C 0.76709 0.84578 0.56969 0.0
C222 C 0.81324 0.91932 0.53356 0.0
O223 O 0.73394 0.90506 0.53208 0.0
Mg224 Mg 0.88977 0.04613 0.24633 0.0
O225 O 0.86525 0.00443 0.24547 0.0
O226 O 0.85337 0.00455 0.28413 0.0
Mg227 Mg 0.86616 0.04472 0.30774 0.0
C228 C 0.85413 0.99281 0.26213 0.0
C229 C 0.90861 0.0596 0.19862 0.0
O230 O 0.91626 0.08058 0.21552 0.0
O231 O 0.85691 0.06474 0.24321 0.0
O232 O 0.84515 0.06366 0.28162 0.0
O233 O 0.92022 0.03038 0.26051 0.0
O234 O 0.89643 0.04929 0.28456 0.0
C235 C 0.84275 0.0697 0.25996 0.0
C236 C 0.91316 0.03613 0.28243 0.0
O237 O 0.89388 0.04004 0.20466 0.0
Mg238 Mg 0.27187 0.62657 0.49761 0.0
O239 O 0.28385 0.65515 0.5332 0.0
O240 O 0.32145 0.67735 0.53156 0.0
Mg241 Mg 0.33346 0.66192 0.49384 0.0
C242 C 0.3022 0.67251 0.54275 0.0
C243 C 0.22512 0.59435 0.50638 0.0
O244 O 0.23762 0.57794 0.49574 0.0
O245 O 0.26742 0.6613 0.47876 0.0
O246 O 0.30568 0.68134 0.47626 0.0
O247 O 0.28612 0.59554 0.51283 0.0
O248 O 0.30683 0.62434 0.49129 0.0
C249 C 0.2832 0.67982 0.47234 0.0
C250 C 0.30601 0.60482 0.50352 0.0
O251 O 0.23403 0.61906 0.50936 0.0
Mg252 Mg 0.39482 0.55032 0.74349 0.0
O253 O 0.36791 0.50984 0.73747 0.0
O254 O 0.34782 0.50847 0.7719 0.0
Mg255 Mg 0.36277 0.54517 0.80022 0.0
C256 C 0.35178 0.49831 0.75023 0.0
C257 C 0.42057 0.56454 0.69811 0.0
O258 O 0.42983 0.58395 0.71608 0.0
O259 O 0.36462 0.57311 0.7385 0.0
O260 O 0.34893 0.57089 0.77516 0.0
O261 O 0.42208 0.53137 0.76016 0.0
O262 O 0.3963 0.54968 0.78164 0.0
C263 C 0.34995 0.57929 0.75431 0.0
C264 C 0.41293 0.5364 0.78114 0.0
O265 O 0.4032 0.5466 0.7026 0.0
Mg266 Mg 0.61854 0.9807 0.74672 0.0
O267 O 0.63293 0.02563 0.75646 0.0
O268 O 0.64506 0.03444 0.79672 0.0
Mg269 Mg 0.63972 0.99551 0.81213 0.0
C270 C 0.64195 0.04196 0.77582 0.0
C271 C 0.6016 0.96405 0.69337 0.0
O272 O 0.59236 0.94368 0.70419 0.0
O273 O 0.6569 0.97551 0.74626 0.0
O274 O 0.66828 0.98429 0.78675 0.0
O275 O 0.58261 0.98545 0.75834 0.0
O276 O 0.61143 0.97798 0.78289 0.0
C277 C 0.67265 0.9781 0.76416 0.0
C278 C 0.59048 0.98307 0.78025 0.0
O279 O 0.61592 0.98368 0.70613 0.0
Mg280 Mg 0.77155 0.6398 0.98216 0.0
O281 O 0.77403 0.6647 0.02062 0.0
O282 O 0.81045 0.69098 0.02685 0.0
Mg283 Mg 0.8318 0.68123 0.9932 0.0
C284 C 0.78959 0.68278 0.03403 0.0
C285 C 0.72291 0.60293 0.97926 0.0
O286 O 0.73742 0.58739 0.97168 0.0
O287 O 0.76934 0.67536 0.96256 0.0
O288 O 0.80754 0.69761 0.96747 0.0
O289 O 0.78552 0.60824 -0.00202 0.0
O290 O 0.80833 0.64151 0.9835 0.0
C291 C 0.78603 0.69433 0.95824 0.0
C292 C 0.80669 0.62027 0.99336 0.0
O293 O 0.73132 0.62773 0.98449 0.0
Mg294 Mg 0.8906 0.57385 0.77688 0.0
O295 O 0.87768 0.52879 0.77354 0.0
O296 O 0.87049 0.52027 0.81191 0.0
Mg297 Mg 0.87801 0.55888 0.83909 0.0
C298 C 0.87113 0.51262 0.78872 0.0
C299 C 0.88705 0.56426 0.71465 0.0
O300 O 0.87407 0.56635 0.69498 0.0
O301 O 0.85275 0.57776 0.78243 0.0
O302 O 0.84534 0.57055 0.82097 0.0
O303 O 0.92888 0.57022 0.7846 0.0
O304 O 0.90351 0.57591 0.8132 0.0
C305 C 0.83885 0.57598 0.80003 0.0
C306 C 0.92417 0.57166 0.80771 0.0
O307 O 0.88055 0.57193 0.73587 0.0
Mg308 Mg 0.74965 0.3933 0.50725 0.0
O309 O 0.74845 0.36977 0.46791 0.0
O310 O 0.78324 0.3563 0.46628 0.0
Mg311 Mg 0.80569 0.3699 0.50274 0.0
C312 C 0.76297 0.35752 0.4564 0.0
C313 C 0.70714 0.4123 0.52223 0.0
O314 O 0.72314 0.4186 0.54122 0.0
O315 O 0.74132 0.35449 0.52256 0.0
O316 O 0.77688 0.34294 0.52119 0.0
O317 O 0.76795 0.43105 0.49547 0.0
O318 O 0.78649 0.40189 0.50887 0.0
C319 C 0.75502 0.33889 0.52674 0.0
C320 C 0.78767 0.42359 0.4999 0.0
O321 O 0.71111 0.39685 0.50345 0.0
Mg322 Mg 0.61715 0.4856 0.26595 0.0
O323 O 0.64104 0.52744 0.27312 0.0
O324 O 0.65772 0.53283 0.31176 0.0
Mg325 Mg 0.64295 0.49633 0.32983 0.0
C326 C 0.65499 0.5413 0.29121 0.0
C327 C 0.61796 0.49171 0.204 0.0
O328 O 0.62516 0.47918 0.18408 0.0
O329 O 0.64981 0.46823 0.26511 0.0
O330 O 0.66418 0.4716 0.30419 0.0
O331 O 0.58488 0.50073 0.27943 0.0
O332 O 0.61139 0.48852 0.30312 0.0
C333 C 0.66478 0.46393 0.28099 0.0
C334 C 0.59268 0.49829 0.30138 0.0
O335 O 0.61989 0.48294 0.2243 0.0
Dy336 Dy 0.98848 0.01621 0.00762 0.0
C337 C 0.08945 0.02756 0.02226 0.0
C338 C 0.94092 0.01621 0.00463 0.0
Dy339 Dy 0.04255 0.03101 0.02193 0.0
O340 O 0.95357 0.01195 0.98587 0.0
O341 O 0.95416 0.01983 0.02516 0.0
O342 O -0.00507 0.9937 0.97135 0.0
O343 O 0.02041 0.02738 0.98794 0.0
C344 C 0.01611 0.0084 0.97024 0.0
C345 C 0.01434 0.03905 0.0588 0.0
O346 O 0.03914 0.06885 0.00901 0.0
O347 O -0.00221 0.06085 0.01129 0.0
O348 O 0.07883 0.03541 0.04168 0.0
O349 O 0.07469 0.02287 0.00277 0.0
O350 O 0.03542 0.05418 0.05785 0.0
O351 O 0.01059 0.01979 0.04141 0.0
O352 O 0.99178 0.9773 0.01769 0.0
O353 O 0.03341 0.9865 0.01902 0.0
C354 C 0.01857 0.07682 0.00853 0.0
C355 C 0.01248 0.96981 0.01916 0.0
Dy356 Dy 0.25011 0.77537 0.23505 0.0
C357 C 0.24627 0.77479 0.34006 0.0
C358 C 0.24463 0.7808 0.18649 0.0
Dy359 Dy 0.24507 0.77979 0.29118 0.0
O360 O 0.25858 0.76704 0.19525 0.0
O361 O 0.23384 0.79175 0.20426 0.0
O362 O 0.27816 0.75153 0.23666 0.0
O363 O 0.27495 0.77957 0.26741 0.0
C364 C 0.28518 0.76099 0.25969 0.0
C365 C 0.21037 0.79308 0.2647 0.0
O366 O 0.26673 0.81994 0.29096 0.0
O367 O 0.26606 0.8191 0.24819 0.0
O368 O 0.26443 0.78528 0.32859 0.0
O369 O 0.22731 0.76705 0.32483 0.0
O370 O 0.21725 0.80435 0.28731 0.0
O371 O 0.22075 0.77443 0.25871 0.0
O372 O 0.22646 0.73579 0.23759 0.0
O373 O 0.2386 0.73614 0.27856 0.0
C374 C 0.2716 0.8317 0.27131 0.0
C375 C 0.22787 0.72343 0.25706 0.0
Dy376 Dy 0.5458 0.01903 0.50969 0.0
C377 C 0.44782 0.03369 0.50936 0.0
C378 C 0.58854 0.00588 0.51996 0.0
Dy379 Dy 0.49083 0.01876 0.51096 0.0
O380 O 0.58242 0.01315 0.49925 0.0
O381 O 0.57163 0.00649 0.53504 0.0
O382 O 0.54837 0.04184 0.47752 0.0
O383 O 0.51626 0.01515 0.48272 0.0
C384 C 0.52587 0.03233 0.47009 0.0
C385 C 0.51177 0.00578 0.55043 0.0
O386 O 0.48718 0.97758 0.49176 0.0
O387 O 0.52743 0.97574 0.49831 0.0
O388 O 0.46373 0.04001 0.52797 0.0
O389 O 0.45505 0.01843 0.49158 0.0
O390 O 0.48941 0.99568 0.54315 0.0
O391 O 0.52053 0.02305 0.53764 0.0
O392 O 0.54762 0.06052 0.52844 0.0
O393 O 0.50954 0.06133 0.51249 0.0
C394 C 0.50472 0.96438 0.4907 0.0
C395 C 0.53067 0.07351 0.52383 0.0
Dy396 Dy 0.23698 0.268 0.75464 0.0
C397 C 0.33921 0.28125 0.75515 0.0
C398 C 0.18921 0.25636 0.76215 0.0
Dy399 Dy 0.29114 0.27151 0.76072 0.0
O400 O 0.19947 0.27467 0.74985 0.0
O401 O 0.20493 0.24398 0.76971 0.0
O402 O 0.24263 0.30292 0.73429 0.0
O403 O 0.26855 0.3004 0.76173 0.0
C404 C 0.26391 0.31321 0.74487 0.0
C405 C 0.26351 0.22704 0.77107 0.0
O406 O 0.28722 0.29213 0.7983 0.0
O407 O 0.24559 0.28008 0.79617 0.0
O408 O 0.32719 0.26058 0.76328 0.0
O409 O 0.32502 0.29665 0.75045 0.0
O410 O 0.28433 0.23768 0.78249 0.0
O411 O 0.25952 0.23931 0.75361 0.0
O412 O 0.24193 0.24774 0.71649 0.0
O413 O 0.28329 0.26269 0.7195 0.0
C414 C 0.26659 0.29015 0.80891 0.0
C415 C 0.26287 0.25163 0.70624 0.0
Dy416 Dy 0.00669 -0.0006 0.47268 0.0
C417 C 0.06351 0.04323 0.56488 0.0
C418 C 0.97666 0.97971 0.43133 0.0
Dy419 Dy 0.03361 0.02117 0.52395 0.0
O420 O -0.00079 0.97893 0.43328 0.0
O421 O 0.97044 0.99035 0.45235 0.0
O422 O 0.03831 0.02104 0.45496 0.0
O423 O 0.04358 0.00601 0.48784 0.0
C424 C 0.05375 0.01951 0.47243 0.0
C425 C 0.98671 0.00103 0.52484 0.0
O426 O 0.03427 0.05839 0.50724 0.0
O427 O 0.00229 0.04118 0.47797 0.0
O428 O 0.04209 0.04721 0.56095 0.0
O429 O 0.06873 0.02761 0.54619 0.0
O430 O 0.00237 0.00057 0.54249 0.0
O431 O -0.00352 0.01431 0.509 0.0
O432 O 0.0062 0.96195 0.48866 0.0
O433 O 0.0362 0.97871 0.52032 0.0
C434 C 0.0178 0.06146 0.49079 0.0
C435 C 0.02108 0.95861 0.50663 0.0
Dy436 Dy 0.2911 0.798 0.75194 0.0
C437 C 0.19734 0.75397 0.70366 0.0
C438 C 0.3309 0.81425 0.78353 0.0
Dy439 Dy 0.23976 0.77087 0.73129 0.0
O440 O 0.32983 0.81835 0.76064 0.0
O441 O 0.31033 0.8014 0.78902 0.0
O442 O 0.30258 0.80353 0.71379 0.0
O443 O 0.27527 0.77151 0.71851 0.0
C444 C 0.28605 0.78388 0.70267 0.0
C445 C 0.24545 0.78592 0.78056 0.0
O446 O 0.25598 0.73506 0.7303 0.0
O447 O 0.28834 0.75561 0.75812 0.0
O448 O 0.20227 0.74641 0.72455 0.0
O449 O 0.21579 0.7704 0.69762 0.0
O450 O 0.22918 0.76569 0.77017 0.0
O451 O 0.25562 0.79782 0.76422 0.0
O452 O 0.2765 0.83412 0.75019 0.0
O453 O 0.24234 0.81329 0.72483 0.0
C454 C 0.27427 0.73392 0.74552 0.0
C455 C 0.25751 0.83512 0.73595 0.0
Dy456 Dy 0.50537 0.04438 0.04283 0.0
C457 C 0.52802 0.03906 0.94133 0.0
C458 C 0.48625 0.04223 0.08721 0.0
Dy459 Dy 0.51728 0.05229 0.98846 0.0
O460 O 0.48499 0.02201 0.07002 0.0
O461 O 0.49836 0.06373 0.08039 0.0
O462 O 0.52471 0.01053 0.03925 0.0
O463 O 0.50692 0.01904 0.0083 0.0
C464 C 0.52016 0.0047 0.0154 0.0
C465 C 0.51632 0.0963 0.01985 0.0
O466 O 0.47788 0.03639 0.98214 0.0
O467 O 0.46875 0.03819 0.02367 0.0
O468 O 0.51549 0.05683 0.94801 0.0
O469 O 0.53491 0.02945 0.96033 0.0
O470 O 0.52949 0.09672 0.00087 0.0
O471 O 0.50326 0.07366 0.01904 0.0
O472 O 0.54346 0.06654 0.04882 0.0
O473 O 0.55265 0.05455 0.00819 0.0
C474 C 0.46238 0.03393 -0.00046 0.0
C475 C 0.55901 0.06406 0.03179 0.0
Dy476 Dy 0.26461 0.30349 0.26402 0.0
C477 C 0.24592 0.19153 0.2675 0.0
C478 C 0.26432 0.35098 0.2491 0.0
Dy479 Dy 0.25036 0.24236 0.25906 0.0
O480 O 0.27259 0.34817 0.27091 0.0
O481 O 0.2565 0.32797 0.23572 0.0
O482 O 0.28436 0.30674 0.30106 0.0
O483 O 0.25461 0.2753 0.28926 0.0
C484 C 0.27163 0.2843 0.30566 0.0
C485 C 0.24502 0.26307 0.21766 0.0
O486 O 0.21569 0.25104 0.27056 0.0
O487 O 0.22479 0.29651 0.26966 0.0
O488 O 0.24688 0.19883 0.24571 0.0
O489 O 0.24745 0.21197 0.28444 0.0
O490 O 0.23062 0.24164 0.22214 0.0
O491 O 0.26169 0.27058 0.23443 0.0
O492 O 0.29986 0.29451 0.25439 0.0
O493 O 0.29078 0.24991 0.25952 0.0
C494 C 0.20954 0.27432 0.27267 0.0
C495 C 0.30621 0.27168 0.25587 0.0
Dy496 Dy 0.50349 0.51358 0.98476 0.0
C497 C 0.537 0.5551 0.0862 0.0
C498 C 0.47877 0.49918 0.9396 0.0
Dy499 Dy 0.51691 0.53934 0.03889 0.0
O500 O 0.50102 0.49801 0.94391 0.0
O501 O 0.47004 0.50769 0.96002 0.0
O502 O 0.54017 0.50597 0.98061 0.0
O503 O 0.53542 0.53959 0.00461 0.0
C504 C 0.55044 0.52609 0.99709 0.0
C505 C 0.46995 0.52526 0.02523 0.0
O506 O 0.51844 0.57678 0.02347 0.0
O507 O 0.50257 0.55644 0.98387 0.0
O508 O 0.51454 0.54464 0.0802 0.0
O509 O 0.54855 0.55708 0.06629 0.0
O510 O 0.47921 0.54593 0.0415 0.0
O511 O 0.48583 0.51279 0.01886 0.0
O512 O 0.49992 0.47692 0.00197 0.0
O513 O 0.52308 0.49781 0.03791 0.0
C514 C 0.51024 0.57785 0.00074 0.0
C515 C 0.51216 0.476 0.02279 0.0
Dy516 Dy 0.77494 0.27518 0.25099 0.0
C517 C 0.67885 0.23559 0.20662 0.0
C518 C 0.8177 0.28898 0.27837 0.0
Dy519 Dy 0.72277 0.25038 0.23222 0.0
O520 O 0.8144 0.29358 0.25589 0.0
O521 O 0.79759 0.27724 0.28594 0.0
O522 O 0.78425 0.28218 0.21295 0.0
O523 O 0.75764 0.24919 0.21737 0.0
C524 C 0.76811 0.26229 0.2017 0.0
C525 C 0.73083 0.26536 0.28151 0.0
O526 O 0.73674 0.21323 0.23112 0.0
O527 O 0.77042 0.23281 0.25753 0.0
O528 O 0.68334 0.23185 0.22915 0.0
O529 O 0.69852 0.24704 0.19791 0.0
O530 O 0.71382 0.24553 0.2718 0.0
O531 O 0.74047 0.27673 0.26467 0.0
O532 O 0.76123 0.31222 0.25195 0.0
O533 O 0.72713 0.29313 0.22595 0.0
C534 C 0.75525 0.21153 0.24569 0.0
C535 C 0.74261 0.31436 0.23775 0.0
Dy536 Dy 0.00273 0.51352 0.54699 0.0
C537 C 0.02039 0.50622 0.44106 0.0
C538 C 0.99096 0.51892 0.59493 0.0
Dy539 Dy 0.01103 0.51868 0.48904 0.0
O540 O 0.00446 0.53735 0.5849 0.0
O541 O 0.98381 0.49763 0.57871 0.0
O542 O 0.01599 0.47526 0.54087 0.0
O543 O -0.00102 0.48794 0.51156 0.0
C544 C 0.01005 0.47094 0.51715 0.0
C545 C 0.01077 0.56538 0.51721 0.0
O546 O 0.97157 0.50425 0.48805 0.0
O547 O 0.96618 0.5142 0.53043 0.0
O548 O 0.00555 0.52105 0.44852 0.0
O549 O 0.02996 0.49821 0.45977 0.0
O550 O 0.01409 0.56352 0.49363 0.0
O551 O 0.00901 0.54285 0.52309 0.0
O552 O 0.04211 0.5301 0.54855 0.0
O553 O 0.04735 0.51971 0.50618 0.0
C554 C 0.95779 0.50741 0.50679 0.0
C555 C 0.05573 0.52721 0.52966 0.0
Dy556 Dy 0.73395 0.76221 0.25844 0.0
C557 C 0.83507 0.76788 0.25827 0.0
C558 C 0.68612 0.75431 0.26547 0.0
Dy559 Dy 0.78719 0.76113 0.26427 0.0
O560 O 0.6977 0.77203 0.25331 0.0
O561 O 0.70054 0.74044 0.27314 0.0
O562 O 0.74271 0.79825 0.23951 0.0
O563 O 0.76693 0.79212 0.26686 0.0
C564 C 0.76398 0.80638 0.25071 0.0
C565 C 0.75697 0.71746 0.27266 0.0
O566 O 0.78429 0.78006 0.30266 0.0
O567 O 0.74262 0.77239 0.30018 0.0
O568 O 0.82153 0.74641 0.26351 0.0
O569 O 0.82253 0.78577 0.25686 0.0
O570 O 0.77794 0.7263 0.28438 0.0
O571 O 0.75404 0.73102 0.25588 0.0
O572 O 0.73806 0.74272 0.21984 0.0
O573 O 0.77956 0.7556 0.22311 0.0
C574 C 0.76375 0.77983 0.31316 0.0
C575 C 0.75902 0.74611 0.20966 0.0
Dy576 Dy 0.75435 0.26825 0.72733 0.0
C577 C 0.76548 0.28516 0.83408 0.0
C578 C 0.74343 0.26687 0.67827 0.0
Dy579 Dy 0.75692 0.28287 0.78445 0.0
O580 O 0.75634 0.25213 0.6872 0.0
O581 O 0.73692 0.28256 0.69607 0.0
O582 O 0.77873 0.23988 0.73053 0.0
O583 O 0.7818 0.27378 0.75716 0.0
C584 C 0.78888 0.25256 0.75176 0.0
C585 C 0.7229 0.29859 0.75932 0.0
O586 O 0.78285 0.31783 0.77621 0.0
O587 O 0.77544 0.31093 0.73321 0.0
O588 O 0.78156 0.28534 0.81795 0.0
O589 O 0.7446 0.28379 0.82311 0.0
O590 O 0.73346 0.31205 0.78011 0.0
O591 O 0.72962 0.27708 0.75457 0.0
O592 O 0.72755 0.2341 0.73678 0.0
O593 O 0.74161 0.23899 0.77797 0.0
C594 C 0.7859 0.32556 0.75428 0.0
C595 C 0.72847 0.22492 0.75814 0.0
Dy596 Dy 0.76058 0.80274 0.76835 0.0
C597 C 0.73744 0.69069 0.77012 0.0
C598 C 0.76658 0.85355 0.75953 0.0
Dy599 Dy 0.74291 0.74169 0.76164 0.0
O600 O 0.77242 0.84672 0.78055 0.0
O601 O 0.75729 0.83266 0.74363 0.0
O602 O 0.78222 0.80194 0.80344 0.0
O603 O 0.75017 0.77374 0.79275 0.0
C604 C 0.76809 0.78045 0.80818 0.0
C605 C 0.73593 0.76464 0.7219 0.0
O606 O 0.71033 0.75339 0.77652 0.0
O607 O 0.72113 0.79845 0.77377 0.0
O608 O 0.73491 0.69763 0.74838 0.0
O609 O 0.74289 0.71155 0.7869 0.0
O610 O 0.72138 0.74327 0.72638 0.0
O611 O 0.75363 0.77064 0.73755 0.0
O612 O 0.79252 0.79094 0.75263 0.0
O613 O 0.78285 0.74632 0.75706 0.0
C614 C 0.70542 0.77731 0.77831 0.0
C615 C 0.79807 0.76743 0.75165 0.0
Dy616 Dy 0.4902 0.51657 0.50135 0.0
C617 C 0.59123 0.52888 0.51082 0.0
C618 C 0.44251 0.51548 0.50184 0.0
Dy619 Dy 0.54427 0.53176 0.51239 0.0
O620 O 0.45425 0.5134 0.48207 0.0
O621 O 0.45677 0.5176 0.52139 0.0
O622 O 0.49473 0.49493 0.46405 0.0
O623 O 0.52054 0.52885 0.47958 0.0
C624 C 0.51536 0.51014 0.46161 0.0
C625 C 0.51837 0.53865 0.55158 0.0
O626 O 0.53961 0.56983 0.50107 0.0
O627 O 0.4988 0.56128 0.50662 0.0
O628 O 0.58146 0.53796 0.53038 0.0
O629 O 0.57556 0.52285 0.492 0.0
O630 O 0.53897 0.5541 0.54942 0.0
O631 O 0.51386 0.51961 0.53393 0.0
O632 O 0.4947 0.47732 0.50954 0.0
O633 O 0.53613 0.48728 0.50882 0.0
C634 C 0.51903 0.57766 0.50291 0.0
C635 C 0.51561 0.47019 0.50964 0.0
Dy636 Dy 0.03843 0.50992 0.98524 0.0
C637 C 0.94123 0.52461 0.98318 0.0
C638 C 0.08028 0.49474 0.99457 0.0
Dy639 Dy 0.98405 0.50959 0.98702 0.0
O640 O 0.07681 0.5091 0.97768 0.0
O641 O 0.06116 0.48931 0.00653 0.0
O642 O 0.04091 0.53154 0.95219 0.0
O643 O 0.0087 0.50589 0.95813 0.0
C644 C 0.01827 0.52279 0.94514 0.0
C645 C 0.00514 0.4973 0.02704 0.0
O646 O 0.98057 0.46944 0.96502 0.0
O647 O 0.02019 0.46676 0.9734 0.0
O648 O 0.94583 0.50767 0.99699 0.0
O649 O 0.9597 0.53251 0.97095 0.0
O650 O 0.98269 0.48774 0.01995 0.0
O651 O 0.01398 0.51435 0.014 0.0
O652 O 0.04139 0.55091 0.00619 0.0
O653 O 0.00199 0.55269 0.99571 0.0
C654 C -0.00227 0.45572 0.96478 0.0
C655 C 0.02407 0.56427 0.00485 0.0
H656 H 0.95275 0.18351 0.94186 0.0
H657 H 0.05093 0.10641 0.98219 0.0
H658 H 0.01767 0.18121 0.90446 0.0
H659 H 0.98328 0.10465 0.0151 0.0
H660 H 0.04335 0.14157 0.95966 0.0
H661 H 0.96765 0.16203 0.97412 0.0
C662 C 0.97023 0.17866 0.94048 0.0
C663 C 0.98377 0.18376 0.92012 0.0
C664 C 0.03039 0.13384 0.97219 0.0
C665 C 0.00096 0.15902 0.95713 0.0
C666 C 0.03481 0.11393 0.98524 0.0
C667 C 0.01752 0.10231 0.00022 0.0
C668 C 0.00857 0.14211 0.97423 0.0
C669 C -0.00308 0.11276 0.00341 0.0
C670 C 0.97877 0.16643 0.95899 0.0
C671 C 0.00647 0.17738 0.91964 0.0
N672 N 0.99287 0.13178 0.99025 0.0
N673 N 0.01422 0.16503 0.9377 0.0
H674 H 0.09874 0.78028 0.15113 0.0
H675 H 0.18666 0.83371 0.2734 0.0
H676 H 0.09008 0.84488 0.20637 0.0
H677 H 0.19114 0.76591 0.22 0.0
H678 H 0.15422 0.84187 0.24681 0.0
H679 H 0.13623 0.77909 0.17334 0.0
C680 C 0.10486 0.79444 0.16776 0.0
C681 C 0.09108 0.81245 0.1771 0.0
C682 C 0.16246 0.82535 0.24084 0.0
C683 C 0.13384 0.81099 0.20281 0.0
C684 C 0.18088 0.82067 0.25603 0.0
C685 C 0.19147 0.79911 0.24885 0.0
C686 C 0.15467 0.80826 0.21843 0.0
C687 C 0.18347 0.78282 0.22618 0.0
C688 C 0.12625 0.7937 0.1805 0.0
C689 C 0.10001 0.83047 0.19864 0.0
N690 N 0.1655 0.78767 0.21182 0.0
N691 N 0.12071 0.82909 0.21094 0.0
H692 H 0.50889 0.81478 0.40044 0.0
H693 H 0.46055 0.93165 0.47955 0.0
H694 H 0.43603 0.80785 0.42149 0.0
H695 H 0.53597 0.93361 0.47346 0.0
H696 H 0.45128 0.88693 0.45634 0.0
H697 H 0.51922 0.85938 0.42474 0.0
C698 C 0.49506 0.82263 0.41004 0.0
C699 C 0.47156 0.80749 0.40893 0.0
C700 C 0.46988 0.89705 0.46018 0.0
C701 C 0.48326 0.85835 0.43671 0.0
C702 C 0.47519 0.92263 0.47346 0.0
C703 C 0.49908 0.93645 0.47847 0.0
C704 C 0.48856 0.8852 0.45158 0.0
C705 C 0.5173 0.92367 0.47012 0.0
C706 C 0.501 0.84801 0.42401 0.0
C707 C 0.45441 0.81866 0.42185 0.0
N708 N 0.51165 0.89881 0.45692 0.0
N709 N 0.46059 0.84336 0.43511 0.0
H710 H 0.44909 0.3043 0.6576 0.0
H711 H 0.37133 0.25 0.76205 0.0
H712 H 0.48306 0.27226 0.71471 0.0
H713 H 0.36288 0.31921 0.73066 0.0
H714 H 0.41001 0.25211 0.74314 0.0
H715 H 0.41377 0.30239 0.68102 0.0
C716 C 0.44905 0.29651 0.67495 0.0
C717 C 0.4691 0.28842 0.68422 0.0
C718 C 0.39977 0.26699 0.74081 0.0
C719 C 0.42856 0.28645 0.71127 0.0
C720 C 0.37781 0.26585 0.75154 0.0
C721 C 0.36393 0.28436 0.74767 0.0
C722 C 0.40738 0.28643 0.72582 0.0
C723 C 0.37299 0.30448 0.73396 0.0
C724 C 0.42892 0.29572 0.68843 0.0
C725 C 0.46796 0.27871 0.70696 0.0
N726 N 0.39398 0.30473 0.7232 0.0
N727 N 0.44788 0.27788 0.71978 0.0
H728 H 0.95526 0.81193 0.55153 0.0
H729 H 0.05133 0.94229 0.53824 0.0
H730 H 0.02295 0.83746 0.595 0.0
H731 H 0.98576 0.91423 0.49154 0.0
H732 H 0.04389 0.90073 0.55511 0.0
H733 H 0.96861 0.8457 0.52547 0.0
C734 C 0.97305 0.82441 0.55545 0.0
C735 C 0.98784 0.8221 0.57579 0.0
C736 C 0.03129 0.90348 0.54091 0.0
C737 C 0.00317 0.86099 0.54604 0.0
C738 C 0.03553 0.92724 0.53125 0.0
C739 C 0.01898 0.93192 0.51367 0.0
C740 C 0.01021 0.88434 0.53316 0.0
C741 C -0.00105 0.91157 0.50516 0.0
C742 C 0.98067 0.84371 0.54051 0.0
C743 C 0.0108 0.83867 0.57972 0.0
N744 N -0.00505 0.88882 0.51525 0.0
N745 N 0.01762 0.85763 0.5652 0.0
H746 H 0.47666 0.81916 0.83082 0.0
H747 H 0.335 0.80477 0.83086 0.0
H748 H 0.43093 0.77279 0.87698 0.0
H749 H 0.37679 0.83316 0.77224 0.0
H750 H 0.37189 0.80337 0.85413 0.0
H751 H 0.4418 0.83351 0.81472 0.0
C752 C 0.45935 0.81215 0.83773 0.0
C753 C 0.45666 0.79463 0.8552 0.0
C754 C 0.37303 0.81025 0.83633 0.0
C755 C 0.41692 0.81117 0.83706 0.0
C756 C 0.35202 0.81117 0.82311 0.0
C757 C 0.35298 0.81865 0.79949 0.0
C758 C 0.39506 0.81678 0.82575 0.0
C759 C 0.37539 0.82701 0.79034 0.0
C760 C 0.43951 0.82043 0.82858 0.0
C761 C 0.43387 0.78633 0.8636 0.0
N762 N 0.39564 0.8255 0.80337 0.0
N763 N 0.41485 0.79459 0.85435 0.0
H764 H 0.53378 0.24806 0.11719 0.0
H765 H 0.48341 0.09766 0.05379 0.0
H766 H 0.46217 0.20293 0.12173 0.0
H767 H 0.5461 0.14609 0.02921 0.0
H768 H 0.48009 0.13439 0.08512 0.0
H769 H 0.54308 0.20925 0.09116 0.0
C770 C 0.52021 0.22988 0.11308 0.0
C771 C 0.49711 0.22868 0.12138 0.0
C772 C 0.49466 0.1371 0.07299 0.0
C773 C 0.50753 0.18464 0.09193 0.0
C774 C 0.49663 0.11606 0.05514 0.0
C775 C 0.51503 0.11889 0.03888 0.0
C776 C 0.51112 0.16141 0.07463 0.0
C777 C 0.53154 0.14326 0.04133 0.0
C778 C 0.52545 0.2079 0.09812 0.0
C779 C 0.48012 0.20479 0.11548 0.0
N780 N 0.52915 0.16376 0.05887 0.0
N781 N 0.48565 0.18382 0.10111 0.0
H782 H 0.08207 0.32034 0.33155 0.0
H783 H 0.17544 0.23376 0.28421 0.0
H784 H 0.08531 0.24478 0.35358 0.0
H785 H 0.1897 0.31826 0.28336 0.0
H786 H 0.13907 0.23679 0.30484 0.0
H787 H 0.11921 0.3198 0.31054 0.0
C788 C 0.09069 0.3038 0.33221 0.0
C789 C 0.08049 0.2825 0.34426 0.0
C790 C 0.1501 0.2547 0.30012 0.0
C791 C 0.12255 0.28159 0.31992 0.0
C792 C 0.17086 0.25298 0.28813 0.0
C793 C 0.18586 0.27585 0.28215 0.0
C794 C 0.14401 0.2794 0.3061 0.0
C795 C 0.17874 0.30013 0.28768 0.0
C796 C 0.11182 0.3035 0.32017 0.0
C797 C 0.09244 0.26161 0.34452 0.0
N798 N 0.1583 0.3013 0.29943 0.0
N799 N 0.11267 0.26157 0.33233 0.0
H800 H 0.90315 0.0164 0.16185 0.0
H801 H 0.01638 0.08282 0.09338 0.0
H802 H 0.94131 0.09777 0.1816 0.0
H803 H 0.97384 0.00448 0.06768 0.0
H804 H 0.9882 0.08893 0.12523 0.0
H805 H 0.92738 0.01202 0.12605 0.0
C806 C 0.91636 0.03344 0.15848 0.0
C807 C 0.92032 0.05742 0.1749 0.0
C808 C 0.98492 0.07043 0.11255 0.0
C809 C 0.94834 0.05245 0.13421 0.0
C810 C 0.00107 0.06693 0.09446 0.0
C811 C -0.00259 0.04313 0.07795 0.0
C812 C 0.96507 0.04987 0.11428 0.0
C813 C 0.97725 0.02319 0.08004 0.0
C814 C 0.93027 0.0309 0.1381 0.0
C815 C 0.93772 0.07883 0.16959 0.0
N816 N 0.96189 0.02695 0.09795 0.0
N817 N 0.9512 0.07576 0.14989 0.0
H818 H 0.31034 0.72635 0.46252 0.0
H819 H 0.21203 0.74475 0.36371 0.0
H820 H 0.23834 0.67854 0.45179 0.0
H821 H 0.28502 0.78962 0.37314 0.0
H822 H 0.21851 0.72692 0.40193 0.0
H823 H 0.29864 0.75594 0.43597 0.0
C824 C 0.292 0.72217 0.45473 0.0
C825 C 0.27543 0.69959 0.45892 0.0
C826 C 0.23297 0.74104 0.39589 0.0
C827 C 0.26194 0.73337 0.42837 0.0
C828 C 0.22925 0.75126 0.37415 0.0
C829 C 0.24818 0.76825 0.36518 0.0
C830 C 0.25579 0.74787 0.40852 0.0
C831 C 0.27009 0.77624 0.37933 0.0
C832 C 0.2853 0.73915 0.43962 0.0
C833 C 0.25179 0.69551 0.44876 0.0
N834 N 0.27341 0.76567 0.40014 0.0
N835 N 0.24584 0.71202 0.43361 0.0
H836 H 0.56534 0.92934 0.66424 0.0
H837 H 0.55275 0.03479 0.57483 0.0
H838 H 0.61479 0.00461 0.66668 0.0
H839 H 0.50212 0.96034 0.57144 0.0
H840 H 0.57729 0.02212 0.60647 0.0
H841 H 0.54426 0.93779 0.62748 0.0
C842 C 0.57201 0.94745 0.65682 0.0
C843 C 0.59162 0.96651 0.66876 0.0
C844 C 0.56086 0.00846 0.59886 0.0
C845 C 0.56745 0.97638 0.62696 0.0
C846 C 0.54682 0.01572 0.58085 0.0
C847 C 0.52553 -0.00154 0.57053 0.0
C848 C 0.5534 0.98385 0.60687 0.0
C849 C 0.51846 0.97415 0.57907 0.0
C850 C 0.55988 0.95231 0.63591 0.0
C851 C 0.59957 0.98951 0.65825 0.0
N852 N 0.53241 0.96751 0.59684 0.0
N853 N 0.58728 0.99392 0.6381 0.0
H854 H 0.31077 0.33469 0.96426 0.0
H855 H 0.22921 0.29945 0.83688 0.0
H856 H 0.24189 0.35587 0.95778 0.0
H857 H 0.30527 0.3023 0.84256 0.0
H858 H 0.23117 0.31499 0.88167 0.0
H859 H 0.30634 0.3169 0.92038 0.0
C860 C 0.29458 0.33547 0.95369 0.0
C861 C 0.27673 0.347 0.96486 0.0
C862 C 0.24738 0.31221 0.87303 0.0
C863 C 0.27161 0.32654 0.91418 0.0
C864 C 0.24629 0.30331 0.8475 0.0
C865 C 0.26713 0.29965 0.83588 0.0
C866 C 0.26939 0.3171 0.88705 0.0
C867 C 0.28875 0.30497 0.85059 0.0
C868 C 0.29213 0.32537 0.92852 0.0
C869 C 0.25616 0.34727 0.95 0.0
N870 N 0.28928 0.3133 0.87534 0.0
N871 N 0.25417 0.33723 0.92539 0.0
H872 H 0.90369 0.0471 0.3309 0.0
H873 H 0.99035 0.96654 0.38464 0.0
H874 H 0.94152 -0.00042 0.28244 0.0
H875 H 0.93245 0.99002 0.42421 0.0
H876 H 0.97261 0.97641 0.34645 0.0
H877 H 0.91488 0.02627 0.36529 0.0
C878 C 0.91416 0.03208 0.3274 0.0
C879 C 0.92137 0.02482 0.30365 0.0
C880 C 0.96352 0.97881 0.36338 0.0
C881 C 0.93469 0.00115 0.34322 0.0
C882 C 0.97354 0.97303 0.38512 0.0
C883 C 0.96298 0.97787 0.40759 0.0
C884 C 0.94308 0.9898 0.36438 0.0
C885 C 0.94127 0.98629 0.40728 0.0
C886 C 0.92054 0.02014 0.3471 0.0
C887 C 0.93557 0.00577 0.30047 0.0
N888 N 0.93227 0.9925 0.3861 0.0
N889 N 0.94192 0.99467 0.32011 0.0
H890 H 0.26545 0.66564 0.5733 0.0
H891 H 0.32009 0.7966 0.66983 0.0
H892 H 0.33381 0.71705 0.56631 0.0
H893 H 0.25432 0.74141 0.67789 0.0
H894 H 0.32413 0.76997 0.63011 0.0
H895 H 0.2604 0.6947 0.61066 0.0
C896 C 0.2795 0.68297 0.57969 0.0
C897 C 0.30011 0.68888 0.56661 0.0
C898 C 0.30873 0.76384 0.6405 0.0
C899 C 0.29429 0.72249 0.60942 0.0
C900 C 0.30633 0.77912 0.66303 0.0
C901 C 0.28695 0.77099 0.67714 0.0
C902 C 0.29157 0.74041 0.63216 0.0
C903 C 0.26963 0.74821 0.66761 0.0
C904 C 0.27655 0.69965 0.60102 0.0
C905 C 0.31768 0.71165 0.57585 0.0
N906 N 0.27244 0.73362 0.64579 0.0
N907 N 0.31434 0.7277 0.59669 0.0
H908 H 0.5942 0.9643 0.82338 0.0
H909 H 0.52032 0.05912 0.89831 0.0
H910 H 0.55691 0.01384 0.78689 0.0
H911 H 0.54731 -0.00291 0.92699 0.0
H912 H 0.53193 0.04297 0.85687 0.0
H913 H 0.57551 0.9759 0.86125 0.0
C914 C 0.58191 0.97756 0.82337 0.0
C915 C 0.57719 0.98831 0.80216 0.0
C916 C 0.53506 0.03285 0.87227 0.0
C917 C 0.55583 0.00205 0.8456 0.0
C918 C 0.52853 0.04208 0.89581 0.0
C919 C 0.53327 0.02964 0.916 0.0
C920 C 0.5463 0.01115 0.86925 0.0
C921 C 0.54371 0.00754 0.91197 0.0
C922 C 0.57116 0.98416 0.84499 0.0
C923 C 0.56095 0.00517 0.80299 0.0
N924 N 0.54998 -0.00087 0.88912 0.0
N925 N 0.55101 0.01187 0.82458 0.0
H926 H 0.22494 0.33876 0.08862 0.0
H927 H 0.28417 0.28986 0.19896 0.0
H928 H 0.29296 0.31513 0.08457 0.0
H929 H 0.20831 0.25941 0.18207 0.0
H930 H 0.2868 0.30637 0.15941 0.0
H931 H 0.21674 0.31483 0.12425 0.0
C932 C 0.23791 0.32817 0.09481 0.0
C933 C 0.25988 0.32939 0.08376 0.0
C934 C 0.26957 0.29599 0.16428 0.0
C935 C 0.25077 0.30267 0.12456 0.0
C936 C 0.26801 0.28669 0.1869 0.0
C937 C 0.24599 0.27314 0.1937 0.0
C938 C 0.24889 0.29232 0.14844 0.0
C939 C 0.22563 0.26963 0.17733 0.0
C940 C 0.2332 0.31459 0.11513 0.0
C941 C 0.27596 0.31522 0.09263 0.0
N942 N 0.22748 0.27945 0.15543 0.0
N943 N 0.2713 0.30296 0.11273 0.0
H944 H 0.18614 0.92508 0.98485 0.0
H945 H 0.11776 0.02487 0.0629 0.0
H946 H 0.20104 0.95185 0.06343 0.0
H947 H 0.11033 0.00565 0.98318 0.0
H948 H 0.14873 -0.00123 0.06377 0.0
H949 H 0.15701 0.95328 0.98432 0.0
C950 C 0.18305 0.9366 0.00206 0.0
C951 C 0.1961 0.93617 0.0242 0.0
C952 C 0.14053 0.00054 0.04607 0.0
C953 C 0.1631 0.96884 0.02366 0.0
C954 C 0.12305 0.01564 0.04557 0.0
C955 C 0.11151 0.0173 0.02295 0.0
C956 C 0.14627 0.98693 0.02378 0.0
C957 C 0.11881 0.00481 0.00102 0.0
C958 C 0.1666 0.95292 0.0017 0.0
C959 C 0.19144 0.95163 0.04592 0.0
N960 N 0.13556 0.98991 0.002 0.0
N961 N 0.17538 0.96741 0.04509 0.0
H962 H 0.6997 0.55105 0.96844 0.0
H963 H 0.57505 0.57553 0.0183 0.0
H964 H 0.68881 0.62828 -0.00088 0.0
H965 H 0.58486 0.50101 0.97939 0.0
H966 H 0.61774 0.59438 0.01572 0.0
H967 H 0.65849 0.53176 0.97584 0.0
C968 C 0.68862 0.56399 0.97669 0.0
C969 C 0.69769 0.59136 0.98305 0.0
C970 C 0.61057 0.57385 0.00791 0.0
C971 C 0.65042 0.56931 0.99174 0.0
C972 C 0.58628 0.56306 0.00951 0.0
C973 C 0.57648 0.53677 -0.00117 0.0
C974 C 0.62505 0.55815 0.99564 0.0
C975 C 0.59172 0.52144 0.98768 0.0
C976 C 0.66508 0.55293 0.98096 0.0
C977 C 0.6825 0.60711 0.99379 0.0
N978 N 0.61522 0.5324 0.98625 0.0
N979 N 0.65958 0.59585 -0.00221 0.0
H980 H 0.67255 0.4469 0.23296 0.0
H981 H 0.70938 0.32886 0.20823 0.0
H982 H 0.69595 0.44346 0.30833 0.0
H983 H 0.76093 0.35912 0.27082 0.0
H984 H 0.69431 0.36948 0.21559 0.0
H985 H 0.69589 0.41449 0.21824 0.0
C986 C 0.68268 0.43944 0.24646 0.0
C987 C 0.68179 0.44746 0.27202 0.0
C988 C 0.70941 0.36764 0.22725 0.0
C989 C 0.70818 0.40989 0.25516 0.0
C990 C 0.71791 0.34432 0.22314 0.0
C991 C 0.73635 0.34053 0.23898 0.0
C992 C 0.7193 0.38718 0.24749 0.0
C993 C 0.74669 0.36119 0.25811 0.0
C994 C 0.69586 0.42075 0.23798 0.0
C995 C 0.69579 0.43754 0.28851 0.0
N996 N 0.73769 0.38343 0.26214 0.0
N997 N 0.70825 0.41903 0.27979 0.0
H998 H 0.80331 0.47683 0.5119 0.0
H999 H 0.93346 0.4759 0.46591 0.0
H1000 H 0.82432 0.40618 0.47764 0.0
H1001 H 0.9228 0.52235 0.53491 0.0
H1002 H 0.89019 0.45909 0.45939 0.0
H1003 H 0.84442 0.50211 0.50963 0.0
C1004 C 0.81649 0.46685 0.50344 0.0
C1005 C 0.8108 0.43948 0.49522 0.0
C1006 C 0.89739 0.47331 0.47571 0.0
C1007 C 0.85705 0.46798 0.4922 0.0
C1008 C 0.92201 0.48297 0.47946 0.0
C1009 C 0.93169 0.50024 0.50119 0.0
C1010 C 0.88241 0.48131 0.49359 0.0
C1011 C 0.91601 0.50873 0.51811 0.0
C1012 C 0.8398 0.48117 0.50227 0.0
C1013 C 0.82829 0.42722 0.48452 0.0
N1014 N 0.89201 0.49903 0.51402 0.0
N1015 N 0.85075 0.4416 0.48331 0.0
H1016 H 0.32783 0.07816 0.26561 0.0
H1017 H 0.24462 0.17446 0.31223 0.0
H1018 H 0.31702 0.10141 0.34267 0.0
H1019 H 0.25477 0.15027 0.23527 0.0
H1020 H 0.26153 0.13794 0.32303 0.0
H1021 H 0.29288 0.09467 0.25384 0.0
C1022 C 0.31797 0.08657 0.28009 0.0
C1023 C 0.32577 0.0892 0.30516 0.0
C1024 C 0.25954 0.14017 0.30371 0.0
C1025 C 0.28576 0.10821 0.29177 0.0
C1026 C 0.24982 0.16096 0.29753 0.0
C1027 C 0.249 0.16567 0.27293 0.0
C1028 C 0.26879 0.12439 0.28514 0.0
C1029 C 0.25557 0.14751 0.25453 0.0
C1030 C 0.2979 0.09582 0.27334 0.0
C1031 C 0.31191 0.0995 0.32311 0.0
N1032 N 0.26577 0.12798 0.26108 0.0
N1033 N 0.29283 0.10915 0.31605 0.0
H1034 H 0.3561 0.14502 0.50413 0.0
H1035 H 0.40691 0.01508 0.47865 0.0
H1036 H 0.30811 0.06815 0.49006 0.0
H1037 H 0.44057 0.0789 0.53618 0.0
H1038 H 0.37234 0.03621 0.47589 0.0
H1039 H 0.38975 0.1232 0.50974 0.0
C1040 C 0.35264 0.12361 0.50237 0.0
C1041 C 0.32931 0.10836 0.49678 0.0
C1042 C 0.3873 0.04543 0.48917 0.0
C1043 C 0.36758 0.08342 0.50239 0.0
C1044 C 0.40696 0.03346 0.4907 0.0
C1045 C 0.42644 0.04521 0.50777 0.0
C1046 C 0.38759 0.06965 0.50428 0.0
C1047 C 0.42576 0.0691 0.52293 0.0
C1048 C 0.37178 0.11122 0.50558 0.0
C1049 C 0.3258 0.08065 0.49461 0.0
N1050 N 0.40677 0.08073 0.52063 0.0
N1051 N 0.34478 0.06902 0.49707 0.0
H1052 H 0.65227 0.56877 0.25208 0.0
H1053 H 0.76037 0.68821 0.30939 0.0
H1054 H 0.68897 0.57485 0.32394 0.0
H1055 H 0.71658 0.69045 0.244 0.0
H1056 H 0.73453 0.64603 0.31433 0.0
H1057 H 0.67583 0.61265 0.24794 0.0
C1058 C 0.66522 0.57929 0.267 0.0
C1059 C 0.66867 0.568 0.28838 0.0
C1060 C 0.73045 0.65573 0.29893 0.0
C1061 C 0.69568 0.61815 0.28369 0.0
C1062 C 0.74523 0.6798 0.2961 0.0
C1063 C 0.74063 0.69267 0.2762 0.0
C1064 C 0.71099 0.64432 0.28161 0.0
C1065 C 0.72072 0.68104 0.25957 0.0
C1066 C 0.67861 0.60437 0.26463 0.0
C1067 C 0.68567 0.58265 0.30711 0.0
N1068 N 0.70668 0.65737 0.26255 0.0
N1069 N 0.69857 0.60685 0.30427 0.0
H1070 H 0.85134 0.48864 0.74233 0.0
H1071 H 0.82538 0.34579 0.78505 0.0
H1072 H 0.8727 0.4717 0.81391 0.0
H1073 H 0.78538 0.36266 0.72293 0.0
H1074 H 0.85048 0.39004 0.78946 0.0
H1075 H 0.83411 0.44109 0.7294 0.0
C1076 C 0.85272 0.47489 0.75516 0.0
C1077 C 0.86317 0.48407 0.77934 0.0
C1078 C 0.83635 0.38413 0.77472 0.0
C1079 C 0.84385 0.43008 0.76465 0.0
C1080 C 0.82198 0.35885 0.7722 0.0
C1081 C 0.80296 0.35085 0.75395 0.0
C1082 C 0.83157 0.4018 0.75908 0.0
C1083 C 0.79977 0.36828 0.73739 0.0
C1084 C 0.84283 0.44786 0.7478 0.0
C1085 C 0.8645 0.46552 0.79523 0.0
N1086 N 0.81373 0.39326 0.74059 0.0
N1087 N 0.85489 0.43948 0.78763 0.0
H1088 H 0.0446 0.84379 0.08816 0.0
H1089 H 0.97448 0.92733 0.01456 0.0
H1090 H 0.97296 0.81348 0.05396 0.0
H1091 H 0.0509 0.94989 0.03259 0.0
H1092 H 0.97462 0.88364 0.02556 0.0
H1093 H 0.0489 0.8805 0.06424 0.0
C1094 C 0.02996 0.84452 0.07529 0.0
C1095 C 0.00818 0.82586 0.07353 0.0
C1096 C 0.99143 0.89803 0.02679 0.0
C1097 C 0.01285 0.86796 0.04642 0.0
C1098 C 0.99132 0.92303 0.02061 0.0
C1099 C 0.01262 0.94242 0.02303 0.0
C1100 C 0.01293 0.89253 0.0358 0.0
C1101 C 0.03399 0.93562 0.03067 0.0
C1102 C 0.0324 0.86553 0.06166 0.0
C1103 C 0.98991 0.82772 0.05636 0.0
N1104 N 0.03354 0.91136 0.03716 0.0
N1105 N 0.9925 0.84866 0.04382 0.0
H1106 H 0.89585 0.18612 0.82319 0.0
H1107 H 0.82433 0.28786 0.78069 0.0
H1108 H 0.93281 0.25952 0.80172 0.0
H1109 H 0.80187 0.2049 0.75061 0.0
H1110 H 0.86115 0.27902 0.79894 0.0
H1111 H 0.85779 0.19391 0.80637 0.0
C1112 C 0.89589 0.20388 0.81502 0.0
C1113 C 0.91739 0.22216 0.81364 0.0
C1114 C 0.84806 0.26279 0.78844 0.0
C1115 C 0.87427 0.23137 0.79515 0.0
C1116 C 0.82707 0.26775 0.77815 0.0
C1117 C 0.81023 0.24704 0.76404 0.0
C1118 C 0.85185 0.23688 0.78514 0.0
C1119 C 0.8146 0.22136 0.76125 0.0
C1120 C 0.8743 0.20822 0.80541 0.0
C1121 C 0.91661 0.24486 0.80291 0.0
N1122 N 0.835 0.2169 0.77188 0.0
N1123 N 0.89531 0.24899 0.79428 0.0
H1124 H 0.54632 0.22358 0.62184 0.0
H1125 H 0.50843 0.10856 0.50562 0.0
H1126 H 0.48159 0.21023 0.57413 0.0
H1127 H 0.55857 0.10273 0.56458 0.0
H1128 H 0.50523 0.15183 0.52673 0.0
H1129 H 0.55637 0.18398 0.59831 0.0
C1130 C 0.53419 0.21233 0.60654 0.0
C1131 C 0.51299 0.2202 0.60005 0.0
C1132 C 0.51715 0.14127 0.53499 0.0
C1133 C 0.52468 0.17548 0.57288 0.0
C1134 C 0.51912 0.11663 0.52285 0.0
C1135 C 0.53354 0.10191 0.53355 0.0
C1136 C 0.52961 0.15135 0.5581 0.0
C1137 C 0.54723 0.11349 0.55574 0.0
C1138 C 0.54 0.18983 0.59312 0.0
C1139 C 0.49802 0.20492 0.57999 0.0
N1140 N 0.54468 0.13748 0.56754 0.0
N1141 N 0.50421 0.18344 0.56712 0.0
H1142 H 0.55948 0.73117 0.34771 0.0
H1143 H 0.65433 0.78323 0.2521 0.0
H1144 H 0.54576 0.7812 0.29466 0.0
H1145 H 0.66232 0.72321 0.29665 0.0
H1146 H 0.61513 0.78415 0.26841 0.0
H1147 H 0.59837 0.73029 0.33098 0.0
C1148 C 0.56471 0.74217 0.33268 0.0
C1149 C 0.54928 0.75624 0.32254 0.0
C1150 C 0.62538 0.77065 0.2745 0.0
C1151 C 0.59376 0.75512 0.30315 0.0
C1152 C 0.64769 0.77005 0.26512 0.0
C1153 C 0.66149 0.75309 0.27304 0.0
C1154 C 0.61695 0.75432 0.29207 0.0
C1155 C 0.65217 0.73653 0.29003 0.0
C1156 C 0.58688 0.74151 0.32303 0.0
C1157 C 0.55704 0.77004 0.30303 0.0
N1158 N 0.63054 0.73766 0.29909 0.0
N1159 N 0.57871 0.76911 0.29395 0.0
H1160 H 0.03998 0.20015 0.42059 0.0
H1161 H 0.97771 0.07974 0.483 0.0
H1162 H 0.97018 0.19449 0.4497 0.0
H1163 H 0.0548 0.10316 0.48676 0.0
H1164 H 0.97501 0.12183 0.4698 0.0
H1165 H 0.04686 0.16527 0.44407 0.0
C1166 C 0.02627 0.19192 0.43215 0.0
C1167 C 0.00429 0.19999 0.43279 0.0
C1168 C 0.99256 0.11802 0.47385 0.0
C1169 C 0.01199 0.16007 0.45937 0.0
C1170 C 0.99408 0.09399 0.4813 0.0
C1171 C 0.01649 0.08814 0.48595 0.0
C1172 C 0.0136 0.13608 0.47034 0.0
C1173 C 0.0372 0.10717 0.4835 0.0
C1174 C 0.03025 0.17208 0.44557 0.0
C1175 C 0.98725 0.18871 0.44826 0.0
N1176 N 0.03529 0.13023 0.4754 0.0
N1177 N 0.99132 0.16909 0.46058 0.0
H1178 H 0.5797 0.29911 0.13518 0.0
H1179 H 0.63598 0.22202 0.22706 0.0
H1180 H 0.55229 0.28471 0.20538 0.0
H1181 H 0.66661 0.24504 0.16049 0.0
H1182 H 0.59759 0.23011 0.2123 0.0
H1183 H 0.60196 0.26406 0.13642 0.0
C1184 C 0.57753 0.28765 0.15032 0.0
C1185 C 0.56438 0.2948 0.1703 0.0
C1186 C 0.61252 0.23273 0.2006 0.0
C1187 C 0.59083 0.25585 0.17264 0.0
C1188 C 0.63443 0.22807 0.20901 0.0
C1189 C 0.65459 0.23352 0.19521 0.0
C1190 C 0.61088 0.24302 0.17833 0.0
C1191 C 0.65159 0.24109 0.17189 0.0
C1192 C 0.59047 0.26785 0.15121 0.0
C1193 C 0.56229 0.27967 0.18963 0.0
N1194 N 0.63027 0.24611 0.1644 0.0
N1195 N 0.576 0.26137 0.19072 0.0
H1196 H 0.47016 0.85512 0.9314 0.0
H1197 H 0.5461 0.96882 0.02744 0.0
H1198 H 0.54311 0.85056 0.94982 0.0
H1199 H 0.50001 0.98406 0.96925 0.0
H1200 H 0.54481 0.92448 0.00394 0.0
H1201 H 0.47911 0.90135 0.95073 0.0
C1202 C 0.48808 0.86387 0.93968 0.0
C1203 C 0.50591 0.84903 0.9392 0.0
C1204 C 0.53541 0.93785 0.99625 0.0
C1205 C 0.5162 0.90193 0.96146 0.0
C1206 C 0.53606 0.96299 0.0096 0.0
C1207 C 0.52289 0.97988 0.00037 0.0
C1208 C 0.5211 0.92965 0.97394 0.0
C1209 C 0.51026 0.97157 0.97715 0.0
C1210 C 0.49321 0.89029 0.95049 0.0
C1211 C 0.52892 0.86145 0.94989 0.0
N1212 N 0.50932 0.94685 0.96495 0.0
N1213 N 0.53339 0.88725 0.961 0.0
H1214 H 0.93794 0.7433 0.70799 0.0
H1215 H 0.82333 0.8 0.72316 0.0
H1216 H 0.90418 0.77282 0.64898 0.0
H1217 H 0.82363 0.72779 0.7533 0.0
H1218 H 0.85836 0.79436 0.70139 0.0
H1219 H 0.90034 0.7393 0.7292 0.0
C1220 C 0.92256 0.7484 0.69925 0.0
C1221 C 0.9243 0.75878 0.67683 0.0
C1222 C 0.8508 0.77971 0.71276 0.0
C1223 C 0.88187 0.75459 0.701 0.0
C1224 C 0.8309 0.78303 0.72548 0.0
C1225 C 0.8205 0.76434 0.74019 0.0
C1226 C 0.86083 0.75779 0.71493 0.0
C1227 C 0.83112 0.74262 0.74211 0.0
C1228 C 0.9012 0.74605 0.71133 0.0
C1229 C 0.90383 0.76499 0.66629 0.0
N1230 N 0.85098 0.73998 0.7297 0.0
N1231 N 0.88365 0.76325 0.67868 0.0
H1232 H 0.12502 0.0175 0.86407 0.0
H1233 H 0.00341 0.97626 0.92585 0.0
H1234 H 0.05715 0.00148 0.82139 0.0
H1235 H 0.05945 0.03952 0.96372 0.0
H1236 H 0.02542 0.97715 0.8882 0.0
H1237 H 0.10365 0.01821 0.90224 0.0
C1238 C 0.10567 0.01419 0.86275 0.0
C1239 C 0.09277 0.00944 0.83963 0.0
C1240 C 0.03289 0.99067 0.90487 0.0
C1241 C 0.06843 0.00957 0.88286 0.0
C1242 C 0.02046 0.9901 0.92633 0.0
C1243 C 0.02979 0.00765 0.94796 0.0
C1244 C 0.05498 0.00851 0.90529 0.0
C1245 C 0.05187 0.02534 0.94755 0.0
C1246 C 0.09355 0.01468 0.88446 0.0
C1247 C 0.06772 0.00541 0.83891 0.0
N1248 N 0.06388 0.02519 0.92656 0.0
N1249 N 0.05629 0.00519 0.86023 0.0
H1250 H 0.77683 0.29876 0.53534 0.0
H1251 H 0.75911 0.23865 0.63854 0.0
H1252 H 0.71433 0.33059 0.55213 0.0
H1253 H 0.71649 0.29672 0.65811 0.0
H1254 H 0.75551 0.24542 0.59531 0.0
H1255 H 0.76873 0.27167 0.5678 0.0
C1256 C 0.76098 0.2995 0.54544 0.0
C1257 C 0.74662 0.31754 0.54147 0.0
C1258 C 0.74701 0.2568 0.60899 0.0
C1259 C 0.73694 0.28617 0.57875 0.0
C1260 C 0.7489 0.25273 0.63363 0.0
C1261 C 0.73867 0.26774 0.65186 0.0
C1262 C 0.73509 0.2763 0.60281 0.0
C1263 C 0.72514 0.28523 0.64462 0.0
C1264 C 0.75619 0.28376 0.56398 0.0
C1265 C 0.72614 0.31732 0.55484 0.0
N1266 N 0.72403 0.28931 0.62068 0.0
N1267 N 0.72224 0.30237 0.5733 0.0
H1268 H 0.43824 0.09885 0.37625 0.0
H1269 H 0.49289 -0.00159 0.43801 0.0
H1270 H 0.4558 0.03233 0.32989 0.0
H1271 H 0.53023 0.08031 0.45416 0.0
H1272 H 0.47057 0.00887 0.40288 0.0
H1273 H 0.46405 0.0911 0.41042 0.0
C1274 C 0.4475 0.08264 0.37335 0.0
C1275 C 0.44504 0.06615 0.3504 0.0
C1276 C 0.48374 0.02445 0.4141 0.0
C1277 C 0.47378 0.05711 0.38899 0.0
C1278 C 0.49637 0.01857 0.43403 0.0
C1279 C 0.51344 0.03857 0.4486 0.0
C1280 C 0.48769 0.05061 0.40937 0.0
C1281 C 0.51735 0.06442 0.44298 0.0
C1282 C 0.46225 0.07842 0.39265 0.0
C1283 C 0.4574 0.0455 0.34735 0.0
N1284 N 0.50423 0.06988 0.42385 0.0
N1285 N 0.47101 0.04127 0.36661 0.0
H1286 H 0.8171 0.72295 0.06727 0.0
H1287 H 0.7255 0.71261 0.1751 0.0
H1288 H 0.7482 0.66847 0.05775 0.0
H1289 H 0.79638 0.7629 0.18252 0.0
H1290 H 0.73132 0.69847 0.13118 0.0
H1291 H 0.80777 0.74002 0.10869 0.0
C1292 C 0.79995 0.71459 0.07382 0.0
C1293 C 0.78351 0.69409 0.05893 0.0
C1294 C 0.74549 0.71272 0.14248 0.0
C1295 C 0.77265 0.71362 0.10674 0.0
C1296 C 0.74213 0.72086 0.16749 0.0
C1297 C 0.76055 0.73875 0.18261 0.0
C1298 C 0.76734 0.72272 0.13262 0.0
C1299 C 0.78175 0.74879 0.17175 0.0
C1300 C 0.79461 0.72438 0.09757 0.0
C1301 C 0.7615 0.68422 0.06856 0.0
N1302 N 0.78456 0.74059 0.14759 0.0
N1303 N 0.75675 0.69398 0.09189 0.0
H1304 H 0.13083 0.00773 0.6924 0.0
H1305 H 0.05358 0.07347 0.60647 0.0
H1306 H 0.09308 0.06791 0.72103 0.0
H1307 H 0.10364 0.02684 0.57854 0.0
H1308 H 0.07074 0.07544 0.64855 0.0
H1309 H 0.12357 0.0172 0.65063 0.0
C1310 C 0.12112 0.02304 0.68991 0.0
C1311 C 0.11225 0.0368 0.71017 0.0
C1312 C 0.07829 0.06519 0.63319 0.0
C1313 C 0.10384 0.04772 0.66242 0.0
C1314 C 0.06855 0.06415 0.60918 0.0
C1315 C 0.07704 0.04968 0.58916 0.0
C1316 C 0.09638 0.05133 0.6371 0.0
C1317 C 0.09647 0.03802 0.59357 0.0
C1318 C 0.11709 0.02855 0.66607 0.0
C1319 C 0.10005 0.05665 0.7059 0.0
N1320 N 0.10523 0.03869 0.61716 0.0
N1321 N 0.09593 0.06129 0.68244 0.0
H1322 H 0.71814 0.33479 0.4337 0.0
H1323 H 0.76684 0.30577 0.30151 0.0
H1324 H 0.79344 0.34941 0.42082 0.0
H1325 H 0.70371 0.25345 0.32088 0.0
H1326 H 0.77361 0.32774 0.34415 0.0
H1327 H 0.70912 0.31046 0.39112 0.0
C1328 C 0.73269 0.33305 0.42188 0.0
C1329 C 0.75656 0.34411 0.4307 0.0
C1330 C 0.75835 0.31133 0.33917 0.0
C1331 C 0.74643 0.31671 0.3825 0.0
C1332 C 0.75452 0.29866 0.31485 0.0
C1333 C 0.73493 0.27742 0.30777 0.0
C1334 C 0.7422 0.30318 0.35662 0.0
C1335 C 0.7192 0.26956 0.32575 0.0
C1336 C 0.72756 0.31902 0.3978 0.0
C1337 C 0.77481 0.34111 0.4148 0.0
N1338 N 0.72308 0.28261 0.34949 0.0
N1339 N 0.76934 0.32789 0.39145 0.0
H1340 H 0.40779 0.07877 0.2138 0.0
H1341 H 0.46585 -0.00177 0.10627 0.0
H1342 H 0.42016 0.00046 0.21764 0.0
H1343 H 0.47744 0.08357 0.11915 0.0
H1344 H 0.44272 0.99648 0.14304 0.0
H1345 H 0.42587 0.07804 0.17403 0.0
C1346 C 0.41394 0.06123 0.2061 0.0
C1347 C 0.41277 0.03975 0.21916 0.0
C1348 C 0.45037 0.01556 0.13781 0.0
C1349 C 0.43354 0.03895 0.17388 0.0
C1350 C 0.46357 0.01658 0.11695 0.0
C1351 C 0.47361 0.0411 0.10994 0.0
C1352 C 0.44695 0.03922 0.15142 0.0
C1353 C 0.47011 0.06431 0.12418 0.0
C1354 C 0.42442 0.06095 0.18352 0.0
C1355 C 0.42096 0.01754 0.20827 0.0
N1356 N 0.45694 0.06281 0.14426 0.0
N1357 N 0.43116 0.01777 0.18626 0.0
H1358 H 0.81616 0.73804 0.94595 0.0
H1359 H 0.7338 0.74459 0.82616 0.0
H1360 H 0.74562 0.68831 0.92707 0.0
H1361 H 0.80565 0.79127 0.84329 0.0
H1362 H 0.73663 0.72597 0.8645 0.0
H1363 H 0.81102 0.76066 0.91065 0.0
C1364 C 0.79943 0.73206 0.9346 0.0
C1365 C 0.78137 0.71101 0.93946 0.0
C1366 C 0.75179 0.74029 0.85993 0.0
C1367 C 0.77551 0.73678 0.89866 0.0
C1368 C 0.75026 0.75078 0.83793 0.0
C1369 C 0.76969 0.76919 0.83138 0.0
C1370 C 0.77287 0.74837 0.87561 0.0
C1371 C 0.79033 0.77699 0.8476 0.0
C1372 C 0.79657 0.74496 0.91433 0.0
C1373 C 0.76007 0.70435 0.92408 0.0
N1374 N 0.79142 0.76647 0.86893 0.0
N1375 N 0.75783 0.71701 0.90425 0.0
H1376 H 0.81024 0.07461 0.02621 0.0
H1377 H 0.91719 0.02256 0.96281 0.0
H1378 H 0.84758 0.10987 0.96791 0.0
H1379 H 0.91212 0.02691 0.04185 0.0
H1380 H 0.8831 0.04387 0.96061 0.0
H1381 H 0.84072 0.04792 0.02916 0.0
C1382 C 0.8249 0.07678 0.01414 0.0
C1383 C 0.82656 0.09444 0.99683 0.0
C1384 C 0.88928 0.03978 0.97835 0.0
C1385 C 0.86059 0.06364 -0.00042 0.0
C1386 C 0.90852 0.02743 0.97961 0.0
C1387 C 0.9175 0.02327 0.00259 0.0
C1388 C 0.8788 0.04759 0.00015 0.0
C1389 C 0.90569 0.02997 0.02382 0.0
C1390 C 0.84214 0.06159 0.01582 0.0
C1391 C 0.8458 0.0966 0.9816 0.0
N1392 N 0.88689 0.04201 0.02214 0.0
N1393 N 0.86197 0.08112 0.98314 0.0
H1394 H 0.31521 0.48146 0.03068 0.0
H1395 H 0.44958 0.47692 -0.00056 0.0
H1396 H 0.34269 0.40997 0.02098 0.0
H1397 H 0.43189 0.54582 0.04174 0.0
H1398 H 0.40757 0.45419 0.99722 0.0
H1399 H 0.35544 0.50711 0.02531 0.0
C1400 C 0.32967 0.47117 0.0272 0.0
C1401 C 0.32582 0.44364 0.02666 0.0
C1402 C 0.41284 0.47437 0.00679 0.0
C1403 C 0.37137 0.47259 0.02015 0.0
C1404 C 0.43677 0.4874 0.00801 0.0
C1405 C 0.4442 0.51315 0.02111 0.0
C1406 C 0.39615 0.48724 0.01855 0.0
C1407 C 0.42684 0.52586 0.03167 0.0
C1408 C 0.35252 0.48578 0.02425 0.0
C1409 C 0.34502 0.43119 0.0221 0.0
N1410 N 0.40353 0.51268 0.0303 0.0
N1411 N 0.36698 0.44576 0.01898 0.0
H1412 H 0.34387 0.60229 0.7123 0.0
H1413 H 0.2931 0.71736 0.78524 0.0
H1414 H 0.32203 0.60087 0.78704 0.0
H1415 H 0.27273 0.6934 0.70725 0.0
H1416 H 0.30879 0.67721 0.78563 0.0
H1417 H 0.32214 0.63798 0.7088 0.0
C1418 C 0.33438 0.60919 0.72781 0.0
C1419 C 0.33501 0.59863 0.75006 0.0
C1420 C 0.30067 0.68059 0.76847 0.0
C1421 C 0.31067 0.63948 0.74628 0.0
C1422 C 0.29174 0.70346 0.76826 0.0
C1423 C 0.28143 0.70846 0.74626 0.0
C1424 C 0.29993 0.66297 0.74637 0.0
C1425 C 0.28026 0.68995 0.72466 0.0
C1426 C 0.32198 0.62947 0.72578 0.0
C1427 C 0.32229 0.60837 0.76955 0.0
N1428 N 0.28975 0.6681 0.72514 0.0
N1429 N 0.31102 0.62842 0.76732 0.0
H1430 H 0.19507 0.62194 0.53144 0.0
H1431 H 0.08659 0.49864 0.51015 0.0
H1432 H 0.20165 0.54277 0.50155 0.0
H1433 H 0.08362 0.57059 0.55842 0.0
H1434 H 0.12985 0.51363 0.50999 0.0
H1435 H 0.15513 0.60352 0.54401 0.0
C1436 C 0.18816 0.60071 0.52763 0.0
C1437 C 0.20148 0.58389 0.51506 0.0
C1438 C 0.11991 0.526 0.52104 0.0
C1439 C 0.15613 0.56279 0.52948 0.0
C1440 C 0.09526 0.5174 0.52114 0.0
C1441 C 0.08178 0.53356 0.53419 0.0
C1442 C 0.131 0.55127 0.53351 0.0
C1443 C 0.09362 0.55764 0.5482 0.0
C1444 C 0.16549 0.59021 0.53497 0.0
C1445 C 0.19187 0.55653 0.51087 0.0
N1446 N 0.11764 0.56612 0.54708 0.0
N1447 N 0.16969 0.54688 0.51784 0.0
H1448 H 0.7126 0.98709 0.79597 0.0
H1449 H 0.75441 0.86984 0.71663 0.0
H1450 H 0.68595 0.95344 0.72081 0.0
H1451 H 0.77581 0.8984 0.79386 0.0
H1452 H 0.74127 0.91091 0.71329 0.0
H1453 H 0.74672 0.96607 0.79062 0.0
C1454 C 0.71413 0.97566 0.77817 0.0
C1455 C 0.69591 0.97111 0.75912 0.0
C1456 C 0.7494 0.90853 0.73083 0.0
C1457 C 0.73481 0.94687 0.75299 0.0
C1458 C 0.75691 0.88511 0.73273 0.0
C1459 C 0.76543 0.88054 0.75576 0.0
C1460 C 0.75008 0.92716 0.75222 0.0
C1461 C 0.76879 0.90102 0.77591 0.0
C1462 C 0.73369 0.96374 0.77511 0.0
C1463 C 0.69923 0.95686 0.73624 0.0
N1464 N 0.76053 0.92326 0.77384 0.0
N1465 N 0.71801 0.94467 0.734 0.0
H1466 H 0.70331 0.92078 0.50456 0.0
H1467 H 0.60447 0.99426 0.56372 0.0
H1468 H 0.69925 0.9418 0.58334 0.0
H1469 H 0.62033 0.9919 0.48699 0.0
H1470 H 0.63738 0.97228 0.57087 0.0
H1471 H 0.67058 0.94315 0.49721 0.0
C1472 C 0.69541 0.92987 0.52031 0.0
C1473 C 0.70406 0.92943 0.54462 0.0
C1474 C 0.63381 0.97671 0.55249 0.0
C1475 C 0.66672 0.95515 0.53632 0.0
C1476 C 0.61507 0.98932 0.54842 0.0
C1477 C 0.6098 0.99497 0.52475 0.0
C1478 C 0.6472 0.96938 0.53267 0.0
C1479 C 0.62396 0.98802 0.50555 0.0
C1480 C 0.67685 0.9428 0.51609 0.0
C1481 C 0.69321 0.94169 0.5643 0.0
N1482 N 0.64194 0.97539 0.50989 0.0
N1483 N 0.67512 0.95401 0.55972 0.0
H1484 H 0.30359 0.47969 0.74341 0.0
H1485 H 0.30859 0.33806 0.76559 0.0
H1486 H 0.37089 0.45499 0.7391 0.0
H1487 H 0.25094 0.3483 0.71719 0.0
H1488 H 0.33109 0.38223 0.76065 0.0
H1489 H 0.28249 0.43291 0.73749 0.0
C1490 C 0.31381 0.46433 0.74056 0.0
C1491 C 0.33889 0.47096 0.74135 0.0
C1492 C 0.31365 0.37457 0.75085 0.0
C1493 C 0.31516 0.41791 0.73583 0.0
C1494 C 0.30085 0.34941 0.75362 0.0
C1495 C 0.27804 0.3394 0.74151 0.0
C1496 C 0.30319 0.39013 0.73659 0.0
C1497 C 0.26853 0.35527 0.72677 0.0
C1498 C 0.30183 0.43777 0.73728 0.0
C1499 C 0.35149 0.45051 0.73815 0.0
N1500 N 0.28099 0.38008 0.72503 0.0
N1501 N 0.3395 0.4248 0.73606 0.0
H1502 H 0.13711 0.56456 0.22334 0.0
H1503 H 0.23163 0.69172 0.29176 0.0
H1504 H 0.16379 0.57607 0.30003 0.0
H1505 H 0.19612 0.69116 0.22042 0.0
H1506 H 0.20879 0.64732 0.29273 0.0
H1507 H 0.15934 0.60946 0.22015 0.0
C1508 C 0.1474 0.57655 0.23955 0.0
C1509 C 0.14866 0.5664 0.26197 0.0
C1510 C 0.20592 0.65679 0.2768 0.0
C1511 C 0.17429 0.61746 0.25828 0.0
C1512 C 0.21908 0.68221 0.27617 0.0
C1513 C 0.21568 0.69534 0.25604 0.0
C1514 C 0.18913 0.64414 0.25716 0.0
C1515 C 0.19928 0.68177 0.23631 0.0
C1516 C 0.16014 0.60211 0.23766 0.0
C1517 C 0.16233 0.58285 0.28232 0.0
N1518 N 0.18649 0.65686 0.23739 0.0
N1519 N 0.17466 0.60739 0.27991 0.0
H1520 H 0.5187 0.69569 0.41042 0.0
H1521 H 0.48378 0.60459 0.51403 0.0
H1522 H 0.45266 0.68877 0.44728 0.0
H1523 H 0.54973 0.60994 0.47725 0.0
H1524 H 0.47598 0.64214 0.49561 0.0
H1525 H 0.53374 0.67071 0.43981 0.0
C1526 C 0.50743 0.68917 0.42482 0.0
C1527 C 0.48418 0.69394 0.42607 0.0
C1528 C 0.49237 0.63543 0.49185 0.0
C1529 C 0.50133 0.66534 0.45977 0.0
C1530 C 0.49686 0.61401 0.50243 0.0
C1531 C 0.51722 0.60386 0.4968 0.0
C1532 C 0.50818 0.64656 0.47525 0.0
C1533 C 0.53372 0.61704 0.48194 0.0
C1534 C 0.51607 0.67494 0.44163 0.0
C1535 C 0.47054 0.68523 0.44532 0.0
N1536 N 0.52861 0.63743 0.47127 0.0
N1537 N 0.47922 0.67113 0.46121 0.0
H1538 H 0.60616 0.29181 0.65307 0.0
H1539 H 0.70613 0.34452 0.76573 0.0
H1540 H 0.60554 0.36 0.70777 0.0
H1541 H 0.69621 0.26848 0.7193 0.0
H1542 H 0.67328 0.35461 0.74104 0.0
H1543 H 0.64387 0.2877 0.6729 0.0
C1544 C 0.61409 0.30612 0.66908 0.0
C1545 C 0.60249 0.32605 0.67899 0.0
C1546 C 0.67848 0.33583 0.73618 0.0
C1547 C 0.64558 0.3213 0.70193 0.0
C1548 C 0.69714 0.33007 0.75026 0.0
C1549 C 0.70385 0.30568 0.74447 0.0
C1550 C 0.66662 0.31705 0.7162 0.0
C1551 C 0.69171 0.28761 0.72427 0.0
C1552 C 0.63558 0.3037 0.68046 0.0
C1553 C 0.61374 0.34416 0.69966 0.0
N1554 N 0.67368 0.29365 0.7109 0.0
N1555 N 0.63456 0.34121 0.71061 0.0
H1556 H 0.006 0.30121 0.88747 0.0
H1557 H 0.95364 0.42353 0.95034 0.0
H1558 H 0.93189 0.29499 0.90381 0.0
H1559 H 0.0293 0.42392 0.95197 0.0
H1560 H 0.94515 0.37748 0.92987 0.0
H1561 H 0.01473 0.34754 0.90752 0.0
C1562 C 0.99156 0.30956 0.89519 0.0
C1563 C 0.96819 0.29412 0.89401 0.0
C1564 C 0.9636 0.38765 0.93477 0.0
C1565 C 0.97804 0.34708 0.91687 0.0
C1566 C 0.96847 0.41396 0.94642 0.0
C1567 C 0.99222 0.42764 0.95293 0.0
C1568 C 0.98262 0.37497 0.92934 0.0
C1569 C 0.01071 0.41416 0.9474 0.0
C1570 C -0.00343 0.33597 0.90671 0.0
C1571 C 0.9502 0.30604 0.90439 0.0
N1572 N 0.00552 0.38861 0.93584 0.0
N1573 N 0.95549 0.33178 0.9153 0.0
H1574 H 0.97493 0.74779 0.20896 0.0
H1575 H 0.86048 0.80703 0.2362 0.0
H1576 H 0.93936 0.78373 0.15609 0.0
H1577 H 0.86418 0.7324 0.2599 0.0
H1578 H 0.89715 0.80603 0.21489 0.0
H1579 H 0.94029 0.74722 0.23465 0.0
C1580 C 0.95978 0.75519 0.20261 0.0
C1581 C 0.96 0.76581 0.18036 0.0
C1582 C 0.89005 0.79004 0.22502 0.0
C1583 C 0.92124 0.76607 0.20983 0.0
C1584 C 0.86929 0.79069 0.23732 0.0
C1585 C 0.85927 0.76964 0.24956 0.0
C1586 C 0.90102 0.76838 0.22527 0.0
C1587 C 0.87138 0.74892 0.25047 0.0
C1588 C 0.94018 0.75495 0.21728 0.0
C1589 C 0.93999 0.77528 0.17303 0.0
N1590 N 0.89171 0.74871 0.23832 0.0
N1591 N 0.92161 0.77553 0.18788 0.0
H1592 H 0.52907 0.35764 0.11203 0.0
H1593 H 0.48026 0.42907 0.00701 0.0
H1594 H 0.45702 0.33354 0.07765 0.0
H1595 H 0.54213 0.46416 0.05758 0.0
H1596 H 0.47593 0.38829 0.02538 0.0
H1597 H 0.53823 0.39069 0.08453 0.0
C1598 C 0.5152 0.35906 0.09853 0.0
C1599 C 0.49204 0.34308 0.09752 0.0
C1600 C 0.49062 0.40482 0.03218 0.0
C1601 C 0.50255 0.38102 0.06594 0.0
C1602 C 0.49319 0.42804 0.02165 0.0
C1603 C 0.51143 0.45013 0.03101 0.0
C1604 C 0.50655 0.40367 0.05198 0.0
C1605 C 0.52763 0.44772 0.05003 0.0
C1606 C 0.52048 0.37799 0.08284 0.0
C1607 C 0.475 0.34565 0.07933 0.0
N1608 N 0.52471 0.42497 0.05999 0.0
N1609 N 0.48052 0.36451 0.06441 0.0
H1610 H 0.9253 0.24187 0.36101 0.0
H1611 H 0.86202 0.30762 0.26265 0.0
H1612 H 0.9661 0.29367 0.31554 0.0
H1613 H 0.82664 0.27561 0.32349 0.0
H1614 H 0.9006 0.30414 0.28166 0.0
H1615 H 0.88909 0.25444 0.34708 0.0
C1616 C 0.92675 0.25617 0.34833 0.0
C1617 C 0.94887 0.26694 0.33967 0.0
C1618 C 0.88442 0.29829 0.29102 0.0
C1619 C 0.90714 0.28105 0.32311 0.0
C1620 C 0.86246 0.30033 0.28024 0.0
C1621 C 0.8412 0.29161 0.29145 0.0
C1622 C 0.88493 0.28719 0.31296 0.0
C1623 C 0.84265 0.28233 0.31417 0.0
C1624 C 0.90597 0.26333 0.34032 0.0
C1625 C 0.94941 0.2849 0.32272 0.0
N1626 N 0.86411 0.28004 0.32402 0.0
N1627 N 0.92878 0.29127 0.31482 0.0
H1628 H 0.0105 0.72124 0.59457 0.0
H1629 H 0.98192 0.56624 0.55573 0.0
H1630 H 0.93743 0.67696 0.59094 0.0
H1631 H 0.02776 0.6171 0.51332 0.0
H1632 H 0.97074 0.60548 0.57868 0.0
H1633 H 0.02244 0.6815 0.57421 0.0
C1634 C -0.003 0.70308 0.58961 0.0
C1635 C 0.97291 0.7023 0.59427 0.0
C1636 C 0.98338 0.60792 0.56447 0.0
C1637 C 0.9866 0.65695 0.57163 0.0
C1638 C 0.98992 0.58571 0.55159 0.0
C1639 C 0.00581 0.58866 0.53277 0.0
C1640 C 0.99337 0.63311 0.55883 0.0
C1641 C 0.01544 0.61416 0.52775 0.0
C1642 C 0.00384 0.68056 0.57798 0.0
C1643 C 0.95613 0.67834 0.58744 0.0
N1644 N 0.00921 0.63553 0.54088 0.0
N1645 N 0.96334 0.65642 0.5766 0.0
H1646 H 0.58932 0.76379 0.87354 0.0
H1647 H 0.687 0.82233 0.78412 0.0
H1648 H 0.5866 0.83452 0.84186 0.0
H1649 H 0.67322 0.74149 0.79875 0.0
H1650 H 0.65289 0.8297 0.80793 0.0
H1651 H 0.62406 0.75877 0.8504 0.0
C1652 C 0.5962 0.77848 0.86197 0.0
C1653 C 0.58488 0.79949 0.85947 0.0
C1654 C 0.6573 0.81033 0.80572 0.0
C1655 C 0.62456 0.79364 0.83269 0.0
C1656 C 0.67668 0.80606 0.79207 0.0
C1657 C 0.68305 0.78127 0.78946 0.0
C1658 C 0.64447 0.78976 0.81707 0.0
C1659 C 0.66904 0.76093 0.8002 0.0
C1660 C 0.61593 0.77546 0.84858 0.0
C1661 C 0.5947 0.81794 0.84422 0.0
N1662 N 0.65057 0.76571 0.81369 0.0
N1663 N 0.61395 0.81453 0.83128 0.0
H1664 H 0.45636 0.60086 0.68279 0.0
H1665 H 0.47831 0.50428 0.56226 0.0
H1666 H 0.4122 0.52272 0.65962 0.0
H1667 H 0.52268 0.58179 0.5874 0.0
H1668 H 0.45238 0.51137 0.59616 0.0
H1669 H 0.47892 0.59517 0.64621 0.0
C1670 C 0.45124 0.58255 0.66989 0.0
C1671 C 0.4324 0.56217 0.67442 0.0
C1672 C 0.46773 0.52687 0.59423 0.0
C1673 C 0.45847 0.55541 0.63239 0.0
C1674 C 0.48251 0.52285 0.57486 0.0
C1675 C 0.50261 0.54254 0.572 0.0
C1676 C 0.47316 0.55071 0.61094 0.0
C1677 C 0.50739 0.56609 0.58898 0.0
C1678 C 0.46422 0.57929 0.64899 0.0
C1679 C 0.42659 0.53895 0.65692 0.0
N1680 N 0.4928 0.5695 0.60771 0.0
N1681 N 0.43969 0.53613 0.63677 0.0
H1682 H 0.82878 0.23257 0.95496 0.0
H1683 H 0.73216 0.27235 0.8673 0.0
H1684 H 0.75248 0.20112 0.95281 0.0
H1685 H 0.80835 0.28961 0.85929 0.0
H1686 H 0.7394 0.25725 0.90681 0.0
H1687 H 0.82133 0.26416 0.92829 0.0
C1688 C 0.81043 0.23251 0.94918 0.0
C1689 C 0.79126 0.21367 0.95562 0.0
C1690 C 0.75456 0.26484 0.89664 0.0
C1691 C 0.78268 0.2498 0.92507 0.0
C1692 C 0.75043 0.27354 0.87418 0.0
C1693 C 0.76969 0.28171 0.85995 0.0
C1694 C 0.77807 0.26439 0.90474 0.0
C1695 C 0.79302 0.28304 0.86963 0.0
C1696 C 0.80621 0.25059 0.93396 0.0
C1697 C 0.76786 0.2149 0.94789 0.0
N1698 N 0.79655 0.27408 0.8913 0.0
N1699 N 0.76424 0.23239 0.9327 0.0
H1700 H 0.04277 0.43548 0.15811 0.0
H1701 H 0.04935 0.52263 0.04821 0.0
H1702 H 0.09945 0.50367 0.15473 0.0
H1703 H 0.98953 0.45927 0.05578 0.0
H1704 H 0.06972 0.51365 0.08521 0.0
H1705 H 0.02494 0.44143 0.11862 0.0
C1706 C 0.05158 0.45162 0.14899 0.0
C1707 C 0.07258 0.46922 0.15985 0.0
C1708 C 0.05217 0.50164 0.07877 0.0
C1709 C 0.05214 0.47619 0.11458 0.0
C1710 C 0.04056 0.50673 0.05763 0.0
C1711 C 0.01774 0.49164 0.049 0.0
C1712 C 0.04084 0.48135 0.09139 0.0
C1713 C 0.0071 0.47139 0.06192 0.0
C1714 C 0.04134 0.45503 0.12643 0.0
C1715 C 0.08321 0.48969 0.14709 0.0
N1716 N 0.01873 0.46685 0.08251 0.0
N1717 N 0.07281 0.49269 0.12518 0.0
H1718 H 0.74408 0.85477 0.46152 0.0
H1719 H 0.80125 0.7843 0.34685 0.0
H1720 H 0.80607 0.82023 0.46786 0.0
H1721 H 0.7287 0.79574 0.34124 0.0
H1722 H 0.80365 0.79999 0.39112 0.0
H1723 H 0.73807 0.83535 0.41748 0.0
C1724 C 0.75629 0.84297 0.45379 0.0
C1725 C 0.77572 0.83932 0.4685 0.0
C1726 C 0.78713 0.799 0.3803 0.0
C1727 C 0.76906 0.81735 0.41815 0.0
C1728 C 0.78578 0.79013 0.35492 0.0
C1729 C 0.76476 0.78877 0.34023 0.0
C1730 C 0.76744 0.80694 0.39124 0.0
C1731 C 0.74524 0.79644 0.35188 0.0
C1732 C 0.75283 0.8319 0.42866 0.0
C1733 C 0.79092 0.82378 0.45738 0.0
N1734 N 0.74711 0.80542 0.37671 0.0
N1735 N 0.78738 0.81362 0.43294 0.0
H1736 H 0.39623 0.54321 0.82729 0.0
H1737 H 0.49673 0.48871 0.89437 0.0
H1738 H 0.44734 0.50736 0.78627 0.0
H1739 H 0.43363 0.50501 0.92877 0.0
H1740 H 0.47869 0.49321 0.85413 0.0
H1741 H 0.40952 0.52803 0.86428 0.0
C1742 C 0.41003 0.53182 0.82591 0.0
C1743 C 0.42052 0.5264 0.80351 0.0
C1744 C 0.46865 0.49535 0.87043 0.0
C1745 C 0.43633 0.50937 0.84625 0.0
C1746 C 0.4789 0.49271 0.89334 0.0
C1747 C 0.4667 0.49678 0.91486 0.0
C1748 C 0.44624 0.50236 0.86925 0.0
C1749 C 0.4437 0.50194 0.91262 0.0
C1750 C 0.41768 0.52316 0.84715 0.0
C1751 C 0.43874 0.51198 0.80315 0.0
N1752 N 0.43434 0.50493 0.89028 0.0
N1753 N 0.44625 0.50415 0.82429 0.0
H1754 H 0.83134 0.21669 0.06673 0.0
H1755 H 0.74323 0.21473 0.17678 0.0
H1756 H 0.76556 0.15798 0.06515 0.0
H1757 H 0.79869 0.28247 0.16881 0.0
H1758 H 0.75188 0.19253 0.13666 0.0
H1759 H 0.82128 0.23951 0.10591 0.0
C1760 C 0.81493 0.20845 0.07474 0.0
C1761 C 0.79926 0.18544 0.06265 0.0
C1762 C 0.762 0.21235 0.14361 0.0
C1763 C 0.78755 0.2115 0.10724 0.0
C1764 C 0.75699 0.22504 0.16641 0.0
C1765 C 0.77039 0.25035 0.17611 0.0
C1766 C 0.78065 0.22503 0.13062 0.0
C1767 C 0.78803 0.26287 0.162 0.0
C1768 C 0.80909 0.2216 0.09697 0.0
C1769 C 0.77813 0.17575 0.07377 0.0
N1770 N 0.79283 0.24997 0.14005 0.0
N1771 N 0.77291 0.18882 0.09545 0.0
H1772 H 0.09761 0.4645 0.31574 0.0
H1773 H 0.00465 0.52414 0.39996 0.0
H1774 H 0.04584 0.50369 0.28615 0.0
H1775 H 0.05126 0.47592 0.42404 0.0
H1776 H 0.01858 0.51697 0.35804 0.0
H1777 H 0.08033 0.46898 0.35554 0.0
C1778 C 0.08262 0.47419 0.31765 0.0
C1779 C 0.07331 0.48399 0.29765 0.0
C1780 C 0.0256 0.50784 0.37249 0.0
C1781 C 0.05318 0.48904 0.3434 0.0
C1782 C 0.01766 0.5119 0.39634 0.0
C1783 C 0.02697 0.50071 0.4154 0.0
C1784 C 0.04299 0.49259 0.36787 0.0
C1785 C 0.04374 0.48502 0.40987 0.0
C1786 C 0.07263 0.47661 0.34041 0.0
C1787 C 0.05359 0.49595 0.30115 0.0
N1788 N 0.05129 0.48155 0.38666 0.0
N1789 N 0.04422 0.4983 0.3237 0.0
H1790 H 0.78388 0.80494 0.58466 0.0
H1791 H 0.69827 0.76385 0.68826 0.0
H1792 H 0.72667 0.84708 0.59612 0.0
H1793 H 0.77509 0.78885 0.7013 0.0
H1794 H 0.7013 0.781 0.64814 0.0
H1795 H 0.77262 0.78312 0.62027 0.0
C1796 C 0.76863 0.8093 0.59433 0.0
C1797 C 0.75654 0.82839 0.5876 0.0
C1798 C 0.71734 0.78266 0.65998 0.0
C1799 C 0.74347 0.80298 0.62836 0.0
C1800 C 0.71567 0.77287 0.68269 0.0
C1801 C 0.73646 0.77496 0.69805 0.0
C1802 C 0.74 0.79366 0.65252 0.0
C1803 C 0.75859 0.78688 0.69011 0.0
C1804 C 0.76228 0.79679 0.61467 0.0
C1805 C 0.73664 0.8327 0.60076 0.0
N1806 N 0.75979 0.79543 0.66781 0.0
N1807 N 0.73084 0.8203 0.62081 0.0
H1808 H 0.67811 0.41416 0.48164 0.0
H1809 H 0.62119 0.52972 0.55118 0.0
H1810 H 0.69461 0.44699 0.55894 0.0
H1811 H 0.60911 0.50115 0.47274 0.0
H1812 H 0.64979 0.50114 0.55407 0.0
H1813 H 0.65242 0.4457 0.4781 0.0
C1814 C 0.67606 0.42773 0.49795 0.0
C1815 C 0.68856 0.42798 0.52061 0.0
C1816 C 0.64114 0.50139 0.53615 0.0
C1817 C 0.6596 0.46445 0.51658 0.0
C1818 C 0.62503 0.51793 0.53446 0.0
C1819 C 0.61274 0.51764 0.51172 0.0
C1820 C 0.64478 0.48438 0.51496 0.0
C1821 C 0.61821 0.50188 0.49065 0.0
C1822 C 0.66161 0.44593 0.49585 0.0
C1823 C 0.68535 0.44613 0.54109 0.0
N1824 N 0.63361 0.4856 0.49283 0.0
N1825 N 0.67126 0.4637 0.53856 0.0
H1826 H 0.19101 0.12168 0.45809 0.0
H1827 H 0.08879 0.01394 0.50504 0.0
H1828 H 0.20038 0.08496 0.52279 0.0
H1829 H 0.07569 0.05807 0.4468 0.0
H1830 H 0.13003 0.03953 0.51133 0.0
H1831 H 0.14882 0.09873 0.45336 0.0
C1832 C 0.18417 0.10895 0.4714 0.0
C1833 C 0.19928 0.10512 0.4908 0.0
C1834 C 0.11815 0.04373 0.49722 0.0
C1835 C 0.15113 0.07867 0.48536 0.0
C1836 C 0.09461 0.02917 0.49369 0.0
C1837 C 0.07886 0.03413 0.47556 0.0
C1838 C 0.12606 0.06325 0.48233 0.0
C1839 C 0.08737 0.05366 0.46096 0.0
C1840 C 0.1601 0.09583 0.46867 0.0
C1841 C 0.18943 0.08845 0.50751 0.0
N1842 N 0.11045 0.06753 0.46465 0.0
N1843 N 0.16603 0.07572 0.50431 0.0
H1844 H 0.21813 0.9737 0.80514 0.0
H1845 H 0.2832 0.88407 0.75711 0.0
H1846 H 0.17304 0.95079 0.73707 0.0
H1847 H 0.21635 0.84542 0.71566 0.0
H1848 H 0.26841 0.92484 0.76486 0.0
H1849 H 0.24277 0.94308 0.78941 0.0
C1850 C 0.21371 0.96263 0.78665 0.0
C1851 C 0.19336 0.96466 0.77252 0.0
C1852 C 0.25696 0.90744 0.75411 0.0
C1853 C 0.22175 0.92965 0.75413 0.0
C1854 C 0.26549 0.88418 0.74943 0.0
C1855 C 0.25075 0.86103 0.73626 0.0
C1856 C 0.23344 0.90749 0.74576 0.0
C1857 C 0.22819 0.86262 0.72629 0.0
C1858 C 0.22798 0.94529 0.77752 0.0
C1859 C 0.18854 0.94983 0.74865 0.0
N1860 N 0.22009 0.88537 0.73154 0.0
N1861 N 0.20236 0.93255 0.74041 0.0
H1862 H 0.3084 0.98954 0.99615 0.0
H1863 H 0.44298 0.99538 0.96117 0.0
H1864 H 0.33722 0.91926 0.98069 0.0
H1865 H 0.42433 0.04882 0.02127 0.0
H1866 H 0.40054 0.97282 0.95383 0.0
H1867 H 0.34787 0.01667 0.99075 0.0
C1868 C 0.32293 0.97984 0.99112 0.0
C1869 C 0.31986 0.95227 0.98927 0.0
C1870 C 0.40579 0.98989 0.9682 0.0
C1871 C 0.36439 0.98287 0.98259 0.0
C1872 C 0.42983 0.0028 0.97231 0.0
C1873 C 0.43694 0.02376 0.99195 0.0
C1874 C 0.38893 -0.00145 0.98346 0.0
C1875 C 0.41941 0.03255 0.00609 0.0
C1876 C 0.34531 0.99527 0.98811 0.0
C1877 C 0.33911 0.94053 0.98276 0.0
N1878 N 0.39611 0.01981 0.00161 0.0
N1879 N 0.36071 0.95596 0.97971 0.0
H1880 H 0.81315 0.57162 0.75612 0.0
H1881 H 0.74074 0.67396 0.81471 0.0
H1882 H 0.81036 0.59403 0.83488 0.0
H1883 H 0.74055 0.64795 0.73619 0.0
H1884 H 0.75664 0.63581 0.82279 0.0
H1885 H 0.77808 0.58993 0.74893 0.0
C1886 C 0.80491 0.58009 0.77195 0.0
C1887 C 0.81505 0.58204 0.79611 0.0
C1888 C 0.75258 0.638 0.80378 0.0
C1889 C 0.77507 0.60337 0.78799 0.0
C1890 C 0.74345 0.65975 0.79916 0.0
C1891 C 0.73996 0.66433 0.77476 0.0
C1892 C 0.75864 0.6211 0.78381 0.0
C1893 C 0.7434 0.64527 0.75528 0.0
C1894 C 0.7848 0.59045 0.76783 0.0
C1895 C 0.80332 0.59254 0.81594 0.0
N1896 N 0.75313 0.62477 0.76023 0.0
N1897 N 0.78425 0.60341 0.81141 0.0
H1898 H 0.8521 0.63815 0.98019 0.0
H1899 H 0.9016 0.51229 0.00949 0.0
H1900 H 0.80904 0.57461 0.012 0.0
H1901 H 0.93377 0.56566 0.96065 0.0
H1902 H 0.8692 0.53666 0.01466 0.0
H1903 H 0.88473 0.61453 0.9784 0.0
C1904 C 0.84961 0.61941 0.98717 0.0
C1905 C 0.82773 0.60827 0.99614 0.0
C1906 C 0.8833 0.5429 0.00272 0.0
C1907 C 0.86499 0.5809 0.99379 0.0
C1908 C 0.90168 0.52895 -0.00032 0.0
C1909 C 0.92026 0.53696 0.98456 0.0
C1910 C 0.88378 0.56514 0.99078 0.0
C1911 C 0.9197 0.55877 0.9724 0.0
C1912 C 0.8682 0.60581 0.98593 0.0
C1913 C 0.82559 0.58388 0.00488 0.0
N1914 N 0.90185 0.57219 0.97589 0.0
N1915 N 0.84395 0.57091 0.00336 0.0
H1916 H 0.20121 0.08916 0.83613 0.0
H1917 H 0.2218 0.19896 0.74572 0.0
H1918 H 0.15772 0.08373 0.76841 0.0
H1919 H 0.26874 0.20092 0.80997 0.0
H1920 H 0.19595 0.15865 0.75569 0.0
H1921 H 0.22391 0.13224 0.82894 0.0
C1922 C 0.19629 0.09708 0.81985 0.0
C1923 C 0.17761 0.08265 0.80277 0.0
C1924 C 0.21187 0.16793 0.76765 0.0
C1925 C 0.20363 0.13195 0.79437 0.0
C1926 C 0.22658 0.19092 0.76197 0.0
C1927 C 0.24742 0.20313 0.77701 0.0
C1928 C 0.2181 0.15711 0.78851 0.0
C1929 C 0.25287 0.19198 0.79783 0.0
C1930 C 0.20932 0.12166 0.81572 0.0
C1931 C 0.17206 0.09401 0.78203 0.0
N1932 N 0.23833 0.16955 0.80294 0.0
N1933 N 0.18508 0.11789 0.77837 0.0
H1934 H 0.36568 0.98568 0.26859 0.0
H1935 H 0.27681 0.86536 0.3147 0.0
H1936 H 0.34913 0.98173 0.34464 0.0
H1937 H 0.29746 0.86147 0.23928 0.0
H1938 H 0.30212 0.90922 0.32468 0.0
H1939 H 0.3408 0.94101 0.25657 0.0
C1940 C 0.35705 0.97538 0.2828 0.0
C1941 C 0.35943 0.98761 0.30769 0.0
C1942 C 0.30121 0.89892 0.30591 0.0
C1943 C 0.33078 0.9367 0.29396 0.0
C1944 C 0.28664 0.87377 0.30013 0.0
C1945 C 0.28514 0.85953 0.27612 0.0
C1946 C 0.31453 0.91022 0.28761 0.0
C1947 C 0.2981 0.87176 0.25802 0.0
C1948 C 0.34278 0.94993 0.27588 0.0
C1949 C 0.34779 0.97327 0.32524 0.0
N1950 N 0.31241 0.89644 0.26417 0.0
N1951 N 0.33392 0.94872 0.318 0.0
H1952 H 0.48696 0.31153 0.54782 0.0
H1953 H 0.47827 0.4274 0.50789 0.0
H1954 H 0.55086 0.35966 0.58874 0.0
H1955 H 0.55533 0.45102 0.51997 0.0
H1956 H 0.48002 0.38473 0.52011 0.0
H1957 H 0.48908 0.34385 0.51938 0.0
C1958 C 0.50165 0.32875 0.55062 0.0
C1959 C 0.51835 0.33338 0.57114 0.0
C1960 C 0.49666 0.39885 0.51933 0.0
C1961 C 0.52034 0.37081 0.53921 0.0
C1962 C 0.49561 0.4234 0.51261 0.0
C1963 C 0.51662 0.44293 0.51322 0.0
C1964 C 0.51889 0.3939 0.52689 0.0
C1965 C 0.53862 0.43662 0.51942 0.0
C1966 C 0.50268 0.34732 0.53452 0.0
C1967 C 0.53737 0.35557 0.57343 0.0
N1968 N 0.53913 0.41283 0.52652 0.0
N1969 N 0.53759 0.37379 0.55791 0.0
H1970 H 0.42755 0.73742 0.28577 0.0
H1971 H 0.30358 0.77878 0.30757 0.0
H1972 H 0.39954 0.74163 0.35808 0.0
H1973 H 0.31643 0.73268 0.23941 0.0
H1974 H 0.34097 0.77186 0.3266 0.0
H1975 H 0.3892 0.74296 0.26819 0.0
C1976 C 0.41333 0.73958 0.29795 0.0
C1977 C 0.41659 0.73884 0.32336 0.0
C1978 C 0.33543 0.76316 0.30754 0.0
C1979 C 0.37295 0.74548 0.30349 0.0
C1980 C 0.31415 0.76707 0.29672 0.0
C1981 C 0.30691 0.7562 0.27197 0.0
C1982 C 0.34972 0.74886 0.29325 0.0
C1983 C 0.32136 0.74138 0.25858 0.0
C1984 C 0.39147 0.74258 0.2879 0.0
C1985 C 0.39762 0.74169 0.33834 0.0
N1986 N 0.34223 0.73838 0.26931 0.0
N1987 N 0.37659 0.74511 0.32821 0.0
H1988 H 0.97426 0.69988 0.06207 0.0
H1989 H 0.0526 0.59026 0.04652 0.0
H1990 H 0.03764 0.70715 0.11037 0.0
H1991 H 0.00244 0.60133 0.99004 0.0
H1992 H 0.04924 0.63297 0.07037 0.0
H1993 H 0.98474 0.66265 0.03643 0.0
C1994 C 0.99038 0.69358 0.0674 0.0
C1995 C 0.00501 0.70667 0.08854 0.0
C1996 C 0.03939 0.62623 0.05252 0.0
C1997 C 0.0173 0.66375 0.0589 0.0
C1998 C 0.04147 0.60203 0.03882 0.0
C1999 C 0.02759 0.59222 0.01643 0.0
C2000 C 0.02323 0.64036 0.04366 0.0
C2001 C 0.01322 0.60803 0.00738 0.0
C2002 C -0.00351 0.67237 0.05257 0.0
C2003 C 0.02581 0.69761 0.09425 0.0
N2004 N 0.01119 0.63107 0.02114 0.0
N2005 N 0.03127 0.67654 0.0796 0.0
H2006 H 0.04619 0.27678 0.7927 0.0
H2007 H 0.16718 0.22195 0.79158 0.0
H2008 H 0.06101 0.22033 0.8386 0.0
H2009 H 0.15529 0.28355 0.75069 0.0
H2010 H 0.12751 0.21966 0.80756 0.0
H2011 H 0.08567 0.27897 0.77645 0.0
C2012 C 0.0578 0.26499 0.79952 0.0
C2013 C 0.05022 0.24831 0.81703 0.0
C2014 C 0.13351 0.23361 0.79502 0.0
C2015 C 0.0954 0.2505 0.79826 0.0
C2016 C 0.15608 0.23481 0.78579 0.0
C2017 C 0.16445 0.25295 0.76981 0.0
C2018 C 0.11919 0.25069 0.78819 0.0
C2019 C 0.14945 0.26924 0.76295 0.0
C2020 C 0.08033 0.26618 0.79015 0.0
C2021 C 0.06607 0.23348 0.82514 0.0
N2022 N 0.12755 0.26778 0.77223 0.0
N2023 N 0.08784 0.23484 0.81561 0.0
H2024 H 0.47943 0.72578 0.97352 0.0
H2025 H 0.51926 0.59103 0.95531 0.0
H2026 H 0.53493 0.7121 0.92497 0.0
H2027 H 0.50411 0.62369 0.02855 0.0
H2028 H 0.52099 0.63415 0.9421 0.0
H2029 H 0.48491 0.68788 0.99339 0.0
C2030 C 0.49303 0.71512 0.96733 0.0
C2031 C 0.50657 0.72192 0.94739 0.0
C2032 C 0.51745 0.63192 0.96111 0.0
C2033 C 0.51246 0.67851 0.9696 0.0
C2034 C 0.51623 0.60731 0.96858 0.0
C2035 C 0.5114 0.60389 0.99298 0.0
C2036 C 0.5132 0.65305 0.97798 0.0
C2037 C 0.50789 0.62566 0.00956 0.0
C2038 C 0.49614 0.69359 0.9787 0.0
C2039 C 0.52402 0.70752 0.9402 0.0
N2040 N 0.50848 0.64936 0.00164 0.0
N2041 N 0.52611 0.68614 0.95096 0.0
H2042 H 0.07012 0.79182 0.64613 0.0
H2043 H 0.15744 0.7197 0.71394 0.0
H2044 H 0.04517 0.72232 0.68033 0.0
H2045 H 0.18204 0.7784 0.66711 0.0
H2046 H 0.11609 0.7184 0.69974 0.0
H2047 H 0.11121 0.78615 0.65219 0.0
C2048 C 0.07328 0.77535 0.65488 0.0
C2049 C 0.05423 0.75767 0.66297 0.0
C2050 C 0.13052 0.73128 0.69226 0.0
C2051 C 0.10115 0.75103 0.66989 0.0
C2052 C 0.1541 0.73195 0.7003 0.0
C2053 C 0.17304 0.74933 0.69179 0.0
C2054 C 0.12593 0.74841 0.67588 0.0
C2055 C 0.16786 0.76479 0.67415 0.0
C2056 C 0.09672 0.77203 0.6582 0.0
C2057 C 0.05933 0.73653 0.67396 0.0
N2058 N 0.14472 0.76426 0.66703 0.0
N2059 N 0.08233 0.73393 0.67729 0.0
H2060 H 0.03634 0.32266 0.43812 0.0
H2061 H 0.99017 0.45644 0.47018 0.0
H2062 H 0.96559 0.33167 0.41611 0.0
H2063 H 0.03452 0.43212 0.52437 0.0
H2064 H 0.98989 0.41542 0.44247 0.0
H2065 H 0.04395 0.36739 0.46296 0.0
C2066 C 0.02259 0.33418 0.43833 0.0
C2067 C 0.00026 0.32359 0.42532 0.0
C2068 C -0.00013 0.41918 0.46034 0.0
C2069 C 0.00895 0.37426 0.45284 0.0
C2070 C 0.0001 0.44257 0.47614 0.0
C2071 C 0.01213 0.44743 0.49971 0.0
C2072 C 0.01193 0.40058 0.46802 0.0
C2073 C 0.02482 0.42887 0.50641 0.0
C2074 C 0.02688 0.35947 0.4525 0.0
C2075 C 0.98294 0.33909 0.42613 0.0
N2076 N 0.02431 0.40604 0.49063 0.0
N2077 N 0.98769 0.36369 0.43955 0.0
H2078 H 0.42518 0.25521 0.17256 0.0
H2079 H 0.34667 0.30976 0.26997 0.0
H2080 H 0.45849 0.30004 0.24197 0.0
H2081 H 0.32226 0.23016 0.23105 0.0
H2082 H 0.38751 0.30853 0.25839 0.0
H2083 H 0.38675 0.24649 0.1917 0.0
C2084 C 0.42446 0.26275 0.19196 0.0
C2085 C 0.44491 0.27842 0.20574 0.0
C2086 C 0.37326 0.2912 0.25275 0.0
C2087 C 0.40112 0.26926 0.2274 0.0
C2088 C 0.35001 0.29194 0.25921 0.0
C2089 C 0.33117 0.27006 0.25138 0.0
C2090 C 0.37751 0.26874 0.23769 0.0
C2091 C 0.33637 0.2474 0.23751 0.0
C2092 C 0.4026 0.25774 0.20286 0.0
C2093 C 0.4431 0.28774 0.2308 0.0
N2094 N 0.35902 0.24751 0.23063 0.0
N2095 N 0.42141 0.28358 0.24071 0.0
H2096 H 0.54455 0.49132 0.30643 0.0
H2097 H 0.5578 0.54127 0.45244 0.0
H2098 H 0.61312 0.52102 0.34723 0.0
H2099 H 0.49871 0.48031 0.41682 0.0
H2100 H 0.57612 0.54205 0.41262 0.0
H2101 H 0.52486 0.49627 0.34556 0.0
C2102 C 0.55539 0.49936 0.32356 0.0
C2103 C 0.58045 0.50549 0.32376 0.0
C2104 C 0.55914 0.52853 0.41358 0.0
C2105 C 0.55826 0.51116 0.36825 0.0
C2106 C 0.54876 0.52798 0.43627 0.0
C2107 C 0.5269 0.51044 0.43794 0.0
C2108 C 0.54732 0.51182 0.39237 0.0
C2109 C 0.51571 0.49395 0.41635 0.0
C2110 C 0.54421 0.50192 0.34583 0.0
C2111 C 0.59377 0.51564 0.3464 0.0
N2112 N 0.526 0.49511 0.3944 0.0
N2113 N 0.58251 0.51814 0.36778 0.0
H2114 H 0.2891 0.81863 0.04681 0.0
H2115 H 0.21451 0.80697 0.16548 0.0
H2116 H 0.22644 0.85179 0.05843 0.0
H2117 H 0.27091 0.76499 0.14889 0.0
H2118 H 0.21525 0.81891 0.12378 0.0
H2119 H 0.27933 0.7938 0.08101 0.0
C2120 C 0.27307 0.82039 0.05629 0.0
C2121 C 0.25884 0.83775 0.05004 0.0
C2122 C 0.22726 0.80678 0.1291 0.0
C2123 C 0.24772 0.80961 0.08943 0.0
C2124 C 0.22687 0.80004 0.15291 0.0
C2125 C 0.24293 0.78535 0.16062 0.0
C2126 C 0.24404 0.79902 0.11308 0.0
C2127 C 0.25841 0.77659 0.14365 0.0
C2128 C 0.2675 0.80619 0.07584 0.0
C2129 C 0.23811 0.83891 0.06277 0.0
N2130 N 0.25882 0.78388 0.12075 0.0
N2131 N 0.23341 0.82541 0.08215 0.0
H2132 H 0.96844 0.55858 0.80289 0.0
H2133 H 0.97106 0.5066 0.93005 0.0
H2134 H 0.9178 0.57318 0.85703 0.0
H2135 H 0.03724 0.55356 0.91078 0.0
H2136 H 0.94981 0.51975 0.89584 0.0
H2137 H 0.99351 0.54699 0.83571 0.0
C2138 C 0.96255 0.55931 0.82153 0.0
C2139 C 0.94062 0.56621 0.82702 0.0
C2140 C 0.969 0.52708 0.89911 0.0
C2141 C 0.96875 0.55259 0.86406 0.0
C2142 C 0.98111 0.51974 0.91866 0.0
C2143 C 0.00581 0.52957 0.9236 0.0
C2144 C 0.98179 0.54366 0.88388 0.0
C2145 C 0.01809 0.54588 0.90773 0.0
C2146 C 0.97684 0.55276 0.84014 0.0
C2147 C 0.93402 0.56712 0.85158 0.0
N2148 N 0.00594 0.5524 0.8884 0.0
N2149 N 0.9478 0.55996 0.86904 0.0
H2150 H 0.24959 0.1684 0.55405 0.0
H2151 H 0.29967 0.26881 0.67856 0.0
H2152 H 0.31782 0.22406 0.56395 0.0
H2153 H 0.23029 0.21556 0.67233 0.0
H2154 H 0.30485 0.25353 0.63558 0.0
H2155 H 0.24064 0.186 0.59595 0.0
C2156 C 0.26263 0.18439 0.5649 0.0
C2157 C 0.28459 0.19464 0.55536 0.0
C2158 C 0.2884 0.24513 0.64342 0.0
C2159 C 0.27439 0.21483 0.60338 0.0
C2160 C 0.28541 0.25385 0.66812 0.0
C2161 C 0.26456 0.2433 0.67929 0.0
C2162 C 0.27053 0.22543 0.62941 0.0
C2163 C 0.24666 0.22423 0.66452 0.0
C2164 C 0.25749 0.1944 0.58885 0.0
C2165 C 0.30073 0.21536 0.57039 0.0
N2166 N 0.25013 0.21572 0.64036 0.0
N2167 N 0.29533 0.22462 0.59352 0.0
H2168 H 0.64048 0.5367 0.18857 0.0
H2169 H 0.51558 0.54415 0.12843 0.0
H2170 H 0.57266 0.49821 0.21171 0.0
H2171 H 0.58417 0.57445 0.10137 0.0
H2172 H 0.53588 0.54095 0.16778 0.0
H2173 H 0.62023 0.56501 0.16736 0.0
C2174 C 0.62139 0.53507 0.19005 0.0
C2175 C 0.60809 0.51506 0.20159 0.0
C2176 C 0.54646 0.54891 0.15348 0.0
C2177 C 0.58462 0.54622 0.17633 0.0
C2178 C 0.53489 0.55074 0.13101 0.0
C2179 C 0.54834 0.55896 0.11149 0.0
C2180 C 0.57162 0.55523 0.15628 0.0
C2181 C 0.57321 0.56754 0.11584 0.0
C2182 C 0.60977 0.55101 0.17772 0.0
C2183 C 0.58345 0.51348 0.20293 0.0
N2184 N 0.5841 0.56499 0.13763 0.0
N2185 N 0.57233 0.52834 0.18975 0.0
H2186 H 0.22842 0.84559 0.93462 0.0
H2187 H 0.27827 0.82886 0.80268 0.0
H2188 H 0.30424 0.85888 0.92426 0.0
H2189 H 0.21884 0.76905 0.81851 0.0
H2190 H 0.28393 0.84742 0.84651 0.0
H2191 H 0.22034 0.82391 0.89104 0.0
C2192 C 0.24329 0.84393 0.92323 0.0
C2193 C 0.26703 0.85397 0.93301 0.0
C2194 C 0.2697 0.83017 0.84039 0.0
C2195 C 0.25794 0.82992 0.88363 0.0
C2196 C 0.26653 0.81947 0.81543 0.0
C2197 C 0.24843 0.79701 0.8071 0.0
C2198 C 0.25423 0.81884 0.85709 0.0
C2199 C 0.23322 0.78619 0.82434 0.0
C2200 C 0.23868 0.83149 0.89855 0.0
C2201 C 0.28568 0.85128 0.91754 0.0
N2202 N 0.23636 0.79734 0.84867 0.0
N2203 N 0.28073 0.8398 0.89357 0.0
H2204 H 0.88902 0.51303 0.70095 0.0
H2205 H 0.00257 0.56312 0.63004 0.0
H2206 H 0.93302 0.59178 0.71758 0.0
H2207 H 0.96047 0.4831 0.61695 0.0
H2208 H 0.9836 0.57099 0.66899 0.0
H2209 H 0.92124 0.49834 0.67854 0.0
C2210 C 0.90596 0.52691 0.70076 0.0
C2211 C 0.90857 0.55355 0.71104 0.0
C2212 C 0.97882 0.55154 0.65786 0.0
C2213 C 0.94492 0.53746 0.68437 0.0
C2214 C 0.98961 0.54708 0.6356 0.0
C2215 C 0.98266 0.52261 0.62011 0.0
C2216 C 0.96079 0.53146 0.66444 0.0
C2217 C 0.96602 0.5024 0.62823 0.0
C2218 C 0.92426 0.51866 0.68773 0.0
C2219 C 0.93054 0.571 0.70997 0.0
N2220 N 0.95534 0.50741 0.64965 0.0
N2221 N 0.94773 0.56281 0.69627 0.0
H2222 H 0.24991 0.19196 0.42585 0.0
H2223 H 0.3095 0.29749 0.34045 0.0
H2224 H 0.32274 0.23726 0.43894 0.0
H2225 H 0.23947 0.24633 0.32381 0.0
H2226 H 0.31354 0.27853 0.3786 0.0
H2227 H 0.24445 0.21497 0.39083 0.0
C2228 C 0.26469 0.20697 0.42162 0.0
C2229 C 0.2869 0.21249 0.4354 0.0
C2230 C 0.29728 0.27145 0.36661 0.0
C2231 C 0.28077 0.23883 0.39497 0.0
C2232 C 0.29498 0.28227 0.34486 0.0
C2233 C 0.27425 0.27324 0.32884 0.0
C2234 C 0.27863 0.25156 0.37248 0.0
C2235 C 0.25593 0.25355 0.33544 0.0
C2236 C 0.26158 0.22002 0.40147 0.0
C2237 C 0.30533 0.2322 0.42887 0.0
N2238 N 0.25856 0.24335 0.35671 0.0
N2239 N 0.3019 0.24451 0.40907 0.0
H2240 H 0.34399 0.60888 0.47486 0.0
H2241 H 0.41607 0.52289 0.5418 0.0
H2242 H 0.314 0.57118 0.53548 0.0
H2243 H 0.41606 0.52436 0.463 0.0
H2244 H 0.38129 0.54382 0.54316 0.0
H2245 H 0.37517 0.58319 0.47427 0.0
C2246 C 0.34417 0.59545 0.48826 0.0
C2247 C 0.32644 0.59203 0.5052 0.0
C2248 C 0.38872 0.53908 0.52557 0.0
C2249 C 0.3618 0.56261 0.50449 0.0
C2250 C 0.40839 0.52708 0.52475 0.0
C2251 C 0.41889 0.52215 0.50228 0.0
C2252 C 0.3801 0.54657 0.50388 0.0
C2253 C 0.40848 0.52797 0.4807 0.0
C2254 C 0.36175 0.5806 0.48771 0.0
C2255 C 0.32737 0.57425 0.52207 0.0
N2256 N 0.38987 0.54036 0.4821 0.0
N2257 N 0.3449 0.56019 0.52138 0.0
H2258 H 0.83129 0.95725 0.50489 0.0
H2259 H 0.96679 0.96402 0.55224 0.0
H2260 H 0.85296 0.90604 0.55282 0.0
H2261 H 0.94892 0.00783 0.49553 0.0
H2262 H 0.92466 0.94277 0.55222 0.0
H2263 H 0.87373 0.9762 0.50054 0.0
C2264 C 0.84493 0.94985 0.51432 0.0
C2265 C 0.83855 0.92999 0.52922 0.0
C2266 C 0.92984 0.95693 0.53966 0.0
C2267 C 0.88695 0.95164 0.52447 0.0
C2268 C 0.95391 0.96913 0.53973 0.0
C2269 C 0.96125 0.98774 0.52393 0.0
C2270 C 0.91282 0.96353 0.52381 0.0
C2271 C 0.9439 0.9935 0.50795 0.0
C2272 C 0.86912 0.96065 0.51181 0.0
C2273 C 0.85694 0.92116 0.54102 0.0
N2274 N 0.92037 0.98155 0.50841 0.0
N2275 N 0.88022 0.93212 0.5385 0.0
H2276 H 0.81141 0.08502 0.29245 0.0
H2277 H 0.75461 0.17162 0.20727 0.0
H2278 H 0.83165 0.08933 0.21748 0.0
H2279 H 0.77101 0.19368 0.28607 0.0
H2280 H 0.77192 0.13225 0.20866 0.0
H2281 H 0.78507 0.11528 0.28761 0.0
C2282 C 0.81015 0.09202 0.2748 0.0
C2283 C 0.8242 0.08492 0.25546 0.0
C2284 C 0.77129 0.14553 0.22563 0.0
C2285 C 0.79373 0.11956 0.2499 0.0
C2286 C 0.76126 0.16774 0.22491 0.0
C2287 C 0.76141 0.1857 0.24664 0.0
C2288 C 0.78088 0.14114 0.24832 0.0
C2289 C 0.7706 0.18022 0.26896 0.0
C2290 C 0.79507 0.10934 0.27213 0.0
C2291 C 0.82139 0.09449 0.23297 0.0
N2292 N 0.77995 0.1584 0.26924 0.0
N2293 N 0.80658 0.11156 0.23085 0.0
H2294 H 0.69992 0.1436 0.01255 0.0
H2295 H 0.58898 0.03095 0.03398 0.0
H2296 H 0.69977 0.05998 0.00346 0.0
H2297 H 0.58669 0.11368 0.04221 0.0
H2298 H 0.63231 0.04266 0.03123 0.0
H2299 H 0.66078 0.13441 0.02998 0.0
C2300 C 0.69166 0.12333 0.01421 0.0
C2301 C 0.70293 0.10246 0.00621 0.0
C2302 C 0.62253 0.0584 0.03426 0.0
C2303 C 0.65846 0.0919 0.0264 0.0
C2304 C 0.5979 0.05169 0.03614 0.0
C2305 C 0.58464 0.07148 0.03855 0.0
C2306 C 0.63372 0.08502 0.03411 0.0
C2307 C 0.59662 0.09801 0.04068 0.0
C2308 C 0.66943 0.11813 0.02433 0.0
C2309 C 0.69161 0.07664 0.00909 0.0
N2310 N 0.62057 0.10406 0.03795 0.0
N2311 N 0.66995 0.07209 0.01881 0.0
H2312 H 0.16807 0.43718 0.20399 0.0
H2313 H 0.27439 0.40041 0.27668 0.0
H2314 H 0.20579 0.48421 0.27064 0.0
H2315 H 0.24205 0.35726 0.2062 0.0
H2316 H 0.25652 0.43752 0.26919 0.0
H2317 H 0.20129 0.41435 0.19856 0.0
C2318 C 0.18362 0.4432 0.21709 0.0
C2319 C 0.18389 0.462 0.23819 0.0
C2320 C 0.25373 0.42019 0.25507 0.0
C2321 C 0.22169 0.43585 0.23236 0.0
C2322 C 0.26399 0.39905 0.25937 0.0
C2323 C 0.25914 0.37562 0.24232 0.0
C2324 C 0.23819 0.41755 0.23382 0.0
C2325 C 0.24579 0.37488 0.22005 0.0
C2326 C 0.20256 0.43011 0.21406 0.0
C2327 C 0.20456 0.46923 0.25448 0.0
N2328 N 0.23529 0.3953 0.21668 0.0
N2329 N 0.2224 0.45578 0.25151 0.0
H2330 H 0.20815 0.43332 0.97148 0.0
H2331 H 0.08915 0.46532 0.02975 0.0
H2332 H 0.18228 0.40748 0.03909 0.0
H2333 H 0.1189 0.49719 0.96624 0.0
H2334 H 0.12233 0.44269 0.03272 0.0
H2335 H 0.17417 0.45443 0.96784 0.0
C2336 C 0.19519 0.43183 0.98545 0.0
C2337 C 0.19816 0.4187 0.00571 0.0
C2338 C 0.12169 0.45471 0.01818 0.0
C2339 C 0.15928 0.44314 0.00175 0.0
C2340 C 0.10282 0.4677 0.01654 0.0
C2341 C 0.10138 0.48314 -0.00226 0.0
C2342 C 0.13919 0.45707 0.0008 0.0
C2343 C 0.11945 0.48554 0.98106 0.0
C2344 C 0.17584 0.44405 0.98341 0.0
C2345 C 0.18075 0.41742 0.02318 0.0
N2346 N 0.13758 0.47253 0.98293 0.0
N2347 N 0.16211 0.42961 0.02086 0.0
H2348 H 0.8318 0.96281 0.21852 0.0
H2349 H 0.80439 0.83012 0.27986 0.0
H2350 H 0.85193 0.95782 0.29433 0.0
H2351 H 0.76017 0.84075 0.21791 0.0
H2352 H 0.82901 0.87425 0.27959 0.0
H2353 H 0.8118 0.9154 0.2127 0.0
C2354 C 0.83218 0.9517 0.23379 0.0
C2355 C 0.84321 0.96422 0.25701 0.0
C2356 C 0.81402 0.86688 0.26593 0.0
C2357 C 0.82099 0.91048 0.25044 0.0
C2358 C 0.80001 0.84167 0.26603 0.0
C2359 C 0.78009 0.83198 0.24907 0.0
C2360 C 0.80813 0.88252 0.2487 0.0
C2361 C 0.77528 0.84772 0.23147 0.0
C2362 C 0.82075 0.92481 0.23051 0.0
C2363 C 0.84329 0.94903 0.27624 0.0
N2364 N 0.78915 0.87239 0.2318 0.0
N2365 N 0.83239 0.92303 0.27251 0.0
H2366 H 0.66074 0.0828 0.81299 0.0
H2367 H 0.70085 0.18845 0.72159 0.0
H2368 H 0.6442 0.06557 0.73379 0.0
H2369 H 0.72259 0.20132 0.79973 0.0
H2370 H 0.67698 0.14485 0.72595 0.0
H2371 H 0.67983 0.12802 0.80874 0.0
C2372 C 0.66093 0.08855 0.7947 0.0
C2373 C 0.65102 0.0702 0.77368 0.0
C2374 C 0.68695 0.15727 0.74212 0.0
C2375 C 0.67311 0.1221 0.76868 0.0
C2376 C 0.7006 0.18216 0.73966 0.0
C2377 C 0.71386 0.19854 0.7603 0.0
C2378 C 0.6865 0.14878 0.7654 0.0
C2379 C 0.71279 0.18935 0.78325 0.0
C2380 C 0.67192 0.11441 0.79229 0.0
C2381 C 0.65169 0.07897 0.7505 0.0
N2382 N 0.69939 0.1651 0.78516 0.0
N2383 N 0.66273 0.10426 0.7486 0.0
loop_
_geom_bond_atom_site_label_1
_geom_bond_atom_site_label_2
_geom_bond_distance
_geom_bond_site_symmetry_2
_ccdc_geom_bond_type
Mg0 O1 2.028 . S
Mg0 O7 1.986 . S
Mg0 O9 2.114 1_455 S
Mg0 O10 2.251 1_455 S
Mg0 O13 2.010 . S
O1 Mg0 2.028 . S
O1 C4 1.250 . S
O2 Mg3 2.052 . S
O2 C4 1.212 1_655 S
Mg3 O2 2.052 . S
Mg3 O8 2.032 . S
Mg3 O10 2.079 . S
C4 O1 1.250 . S
C4 O2 1.212 1_455 S
C5 O6 1.264 . S
C5 O13 1.249 . S
O6 C5 1.264 . S
O7 Mg0 1.986 . S
O7 C11 1.246 . S
O8 Mg3 2.032 . S
O8 C11 1.259 1_655 S
O9 Mg0 2.114 1_655 S
O9 C12 1.252 . S
O10 Mg0 2.251 1_655 S
O10 Mg3 2.079 . S
O10 C12 1.273 . S
C11 O7 1.246 . S
C11 O8 1.259 1_455 S
C12 O9 1.252 . S
C12 O10 1.273 . S
O13 Mg0 2.010 . S
O13 C5 1.249 . S
Mg14 O15 2.028 . S
Mg14 O21 1.986 . S
Mg14 O23 2.114 1_455 S
Mg14 O24 2.251 1_455 S
Mg14 O27 2.010 . S
O15 Mg14 2.028 . S
O15 C18 1.250 1_455 S
O16 Mg17 2.028 . S
O16 C18 1.248 . S
Mg17 O16 2.028 . S
Mg17 O22 2.032 . S
Mg17 O24 2.079 . S
C18 O15 1.250 1_655 S
C18 O16 1.248 . S
C19 O20 1.264 . S
C19 O27 1.249 . S
O20 C19 1.264 . S
O21 Mg14 1.986 . S
O21 C25 1.246 . S
O22 Mg17 2.032 . S
O22 C25 1.259 1_655 S
O23 Mg14 2.114 1_655 S
O23 C26 1.252 . S
O24 Mg14 2.251 1_655 S
O24 Mg17 2.079 . S
O24 C26 1.273 . S
C25 O21 1.246 . S
C25 O22 1.259 1_455 S
C26 O23 1.252 . S
C26 O24 1.273 . S
O27 Mg14 2.010 . S
O27 C19 1.249 . S
Mg28 O29 2.028 . S
Mg28 O35 1.986 . S
Mg28 O37 2.114 . S
Mg28 O38 2.251 . S
Mg28 O41 2.010 . S
O29 Mg28 2.028 . S
O29 C32 1.250 . S
O30 Mg31 2.028 . S
O30 C32 1.248 . S
Mg31 O30 2.028 . S
Mg31 O36 2.032 . S
Mg31 O38 2.079 . S
C32 O29 1.250 . S
C32 O30 1.248 . S
C33 O34 1.264 . S
C33 O41 1.249 . S
O34 C33 1.264 . S
O35 Mg28 1.986 . S
O35 C39 1.246 . S
O36 Mg31 2.032 . S
O36 C39 1.259 . S
O37 Mg28 2.114 . S
O37 C40 1.252 . S
O38 Mg28 2.251 . S
O38 Mg31 2.079 . S
O38 C40 1.273 . S
C39 O35 1.246 . S
C39 O36 1.259 . S
C40 O37 1.252 . S
C40 O38 1.273 . S
O41 Mg28 2.010 . S
O41 C33 1.249 . S
Mg42 O43 2.028 . S
Mg42 O49 1.986 . S
Mg42 O51 2.114 . S
Mg42 O52 2.251 . S
Mg42 O55 2.010 . S
O43 Mg42 2.028 . S
O43 C46 1.250 . S
O44 Mg45 2.028 . S
O44 C46 1.248 . S
Mg45 O44 2.028 . S
Mg45 O50 2.032 . S
Mg45 O52 2.079 . S
C46 O43 1.250 . S
C46 O44 1.248 . S
C47 O48 1.264 . S
C47 O55 1.249 . S
O48 C47 1.264 . S
O49 Mg42 1.986 . S
O49 C53 1.246 . S
O50 Mg45 2.032 . S
O50 C53 1.259 . S
O51 Mg42 2.114 . S
O51 C54 1.252 . S
O52 Mg42 2.251 . S
O52 Mg45 2.079 . S
O52 C54 1.273 . S
C53 O49 1.246 . S
C53 O50 1.259 . S
C54 O51 1.252 . S
C54 O52 1.273 . S
O55 Mg42 2.010 . S
O55 C47 1.249 . S
Mg56 O57 2.028 . S
Mg56 O63 1.986 . S
Mg56 O65 2.114 . S
Mg56 O66 2.251 1_455 S
Mg56 O69 2.010 . S
O57 Mg56 2.028 . S
O57 C60 1.250 . S
O58 Mg59 2.060 . S
O58 C60 1.207 1_655 S
Mg59 O58 2.060 . S
Mg59 O64 2.032 1_655 S
Mg59 O66 2.079 . S
C60 O57 1.250 . S
C60 O58 1.207 1_455 S
C61 O62 1.264 . S
C61 O69 1.249 . S
O62 C61 1.264 . S
O63 Mg56 1.986 . S
O63 C67 1.246 . S
O64 Mg59 2.032 1_455 S
O64 C67 1.259 . S
O65 Mg56 2.114 . S
O65 C68 1.252 1_455 S
O66 Mg56 2.251 1_655 S
O66 Mg59 2.079 . S
O66 C68 1.273 . S
C67 O63 1.246 . S
C67 O64 1.259 . S
C68 O65 1.252 1_655 S
C68 O66 1.273 . S
O69 Mg56 2.010 . S
O69 C61 1.249 . S
Mg70 O71 2.028 . S
Mg70 O77 1.986 . S
Mg70 O79 2.114 . S
Mg70 O80 2.251 . S
Mg70 O83 2.010 . S
O71 Mg70 2.028 . S
O71 C74 1.250 . S
O72 Mg73 2.028 . S
O72 C74 1.248 . S
Mg73 O72 2.028 . S
Mg73 O78 2.032 . S
Mg73 O80 2.079 . S
C74 O71 1.250 . S
C74 O72 1.248 . S
C75 O76 1.264 . S
C75 O83 1.249 . S
O76 C75 1.264 . S
O77 Mg70 1.986 . S
O77 C81 1.246 . S
O78 Mg73 2.032 . S
O78 C81 1.259 . S
O79 Mg70 2.114 . S
O79 C82 1.252 . S
O80 Mg70 2.251 . S
O80 Mg73 2.079 . S
O80 C82 1.273 . S
C81 O77 1.246 . S
C81 O78 1.259 . S
C82 O79 1.252 . S
C82 O80 1.273 . S
O83 Mg70 2.010 . S
O83 C75 1.249 . S
Mg84 O85 2.028 . S
Mg84 O91 1.986 . S
Mg84 O93 2.114 . S
Mg84 O94 2.251 . S
Mg84 O97 2.010 . S
O85 Mg84 2.028 . S
O85 C88 1.250 . S
O86 Mg87 2.028 . S
O86 C88 1.248 . S
Mg87 O86 2.028 . S
Mg87 O92 2.032 . S
Mg87 O94 2.079 . S
C88 O85 1.250 . S
C88 O86 1.248 . S
C89 O90 1.264 . S
C89 O97 1.249 . S
O90 C89 1.264 . S
O91 Mg84 1.986 . S
O91 C95 1.246 . S
O92 Mg87 2.032 . S
O92 C95 1.259 . S
O93 Mg84 2.114 . S
O93 C96 1.252 . S
O94 Mg84 2.251 . S
O94 Mg87 2.079 . S
O94 C96 1.273 . S
C95 O91 1.246 . S
C95 O92 1.259 . S
C96 O93 1.252 . S
C96 O94 1.273 . S
O97 Mg84 2.010 . S
O97 C89 1.249 . S
Mg98 O99 2.033 . S
Mg98 O105 1.999 . S
Mg98 O107 2.085 1_455 S
Mg98 O108 2.202 1_455 S
Mg98 O111 2.055 . S
O99 Mg98 2.033 . S
O99 C102 1.250 . S
O100 Mg101 2.028 . S
O100 C102 1.248 1_655 S
Mg101 O100 2.028 . S
Mg101 O106 2.032 . S
Mg101 O108 2.079 . S
C102 O99 1.250 . S
C102 O100 1.248 1_455 S
C103 O104 1.264 . S
C103 O111 1.249 . S
O104 C103 1.264 . S
O105 Mg98 1.999 . S
O105 C109 1.246 1_455 S
O106 Mg101 2.032 . S
O106 C109 1.259 . S
O107 Mg98 2.085 1_655 S
O107 C110 1.252 . S
O108 Mg98 2.202 1_655 S
O108 Mg101 2.079 . S
O108 C110 1.273 . S
C109 O105 1.246 1_655 S
C109 O106 1.259 . S
C110 O107 1.252 . S
C110 O108 1.273 . S
O111 Mg98 2.055 . S
O111 C103 1.249 . S
Mg112 O113 2.028 1_545 S
Mg112 O119 1.986 . S
Mg112 O121 2.114 . S
Mg112 O122 2.251 . S
Mg112 O125 2.010 . S
O113 Mg112 2.028 1_565 S
O113 C116 1.250 . S
O114 Mg115 2.028 1_565 S
O114 C116 1.248 . S
Mg115 O114 2.028 1_545 S
Mg115 O120 2.032 . S
Mg115 O122 2.079 . S
C116 O113 1.250 . S
C116 O114 1.248 . S
C117 O118 1.264 . S
C117 O125 1.249 . S
O118 C117 1.264 . S
O119 Mg112 1.986 . S
O119 C123 1.246 . S
O120 Mg115 2.032 . S
O120 C123 1.259 . S
O121 Mg112 2.114 . S
O121 C124 1.252 . S
O122 Mg112 2.251 . S
O122 Mg115 2.079 . S
O122 C124 1.273 . S
C123 O119 1.246 . S
C123 O120 1.259 . S
C124 O121 1.252 . S
C124 O122 1.273 . S
O125 Mg112 2.010 . S
O125 C117 1.249 . S
Mg126 O127 2.028 . S
Mg126 O133 1.986 . S
Mg126 O135 2.114 . S
Mg126 O136 2.251 . S
Mg126 O139 2.010 . S
O127 Mg126 2.028 . S
O127 C130 1.250 . S
O128 Mg129 2.028 . S
O128 C130 1.248 . S
Mg129 O128 2.028 . S
Mg129 O134 2.032 . S
Mg129 O136 2.079 . S
C130 O127 1.250 . S
C130 O128 1.248 . S
C131 O132 1.264 . S
C131 O139 1.249 . S
O132 C131 1.264 . S
O133 Mg126 1.986 . S
O133 C137 1.246 . S
O134 Mg129 2.032 . S
O134 C137 1.259 . S
O135 Mg126 2.114 . S
O135 C138 1.252 . S
O136 Mg126 2.251 . S
O136 Mg129 2.079 . S
O136 C138 1.273 . S
C137 O133 1.246 . S
C137 O134 1.259 . S
C138 O135 1.252 . S
C138 O136 1.273 . S
O139 Mg126 2.010 . S
O139 C131 1.249 . S
Mg140 O141 2.028 1_565 S
Mg140 O147 1.986 . S
Mg140 O149 2.114 1_565 S
Mg140 O150 2.251 . S
Mg140 O153 2.010 . S
O141 Mg140 2.028 1_545 S
O141 C144 1.250 . S
O142 Mg143 2.028 . S
O142 C144 1.248 . S
Mg143 O142 2.028 . S
Mg143 O148 2.032 1_545 S
Mg143 O150 2.079 1_545 S
C144 O141 1.250 . S
C144 O142 1.248 . S
C145 O146 1.264 . S
C145 O153 1.249 . S
O146 C145 1.264 . S
O147 Mg140 1.986 . S
O147 C151 1.246 . S
O148 Mg143 2.032 1_565 S
O148 C151 1.259 . S
O149 Mg140 2.114 1_545 S
O149 C152 1.252 . S
O150 Mg140 2.251 . S
O150 Mg143 2.079 1_565 S
O150 C152 1.273 1_565 S
C151 O147 1.246 . S
C151 O148 1.259 . S
C152 O149 1.252 . S
C152 O150 1.273 1_545 S
O153 Mg140 2.010 . S
O153 C145 1.249 . S
Mg154 O155 2.022 1_554 S
Mg154 O161 1.986 . S
Mg154 O163 2.114 . S
Mg154 O164 2.251 . S
Mg154 O167 2.010 . S
O155 Mg154 2.022 1_556 S
O155 C158 1.254 . S
O156 Mg157 2.028 1_556 S
O156 C158 1.248 . S
Mg157 O156 2.028 1_554 S
Mg157 O162 2.032 . S
Mg157 O164 2.079 . S
C158 O155 1.254 . S
C158 O156 1.248 . S
C159 O160 1.264 . S
C159 O167 1.249 . S
O160 C159 1.264 . S
O161 Mg154 1.986 . S
O161 C165 1.246 . S
O162 Mg157 2.032 . S
O162 C165 1.259 . S
O163 Mg154 2.114 . S
O163 C166 1.252 . S
O164 Mg154 2.251 . S
O164 Mg157 2.079 . S
O164 C166 1.273 . S
C165 O161 1.246 . S
C165 O162 1.259 . S
C166 O163 1.252 . S
C166 O164 1.273 . S
O167 Mg154 2.010 . S
O167 C159 1.249 . S
Mg168 O169 2.028 1_554 S
Mg168 O175 1.986 . S
Mg168 O177 2.114 . S
Mg168 O178 2.251 . S
Mg168 O181 2.010 . S
O169 Mg168 2.028 1_556 S
O169 C172 1.250 . S
O170 Mg171 2.028 1_556 S
O170 C172 1.248 . S
Mg171 O170 2.028 1_554 S
Mg171 O176 2.032 . S
Mg171 O178 2.079 . S
C172 O169 1.250 . S
C172 O170 1.248 . S
C173 O174 1.264 . S
C173 O181 1.249 . S
O174 C173 1.264 . S
O175 Mg168 1.986 . S
O175 C179 1.246 . S
O176 Mg171 2.032 . S
O176 C179 1.259 . S
O177 Mg168 2.114 . S
O177 C180 1.252 . S
O178 Mg168 2.251 . S
O178 Mg171 2.079 . S
O178 C180 1.273 . S
C179 O175 1.246 . S
C179 O176 1.259 . S
C180 O177 1.252 . S
C180 O178 1.273 . S
O181 Mg168 2.010 . S
O181 C173 1.249 . S
Mg182 O183 2.028 1_556 S
Mg182 O189 1.986 . S
Mg182 O191 2.114 1_556 S
Mg182 O192 2.251 . S
Mg182 O195 2.010 . S
O183 Mg182 2.028 1_554 S
O183 C186 1.250 . S
O184 Mg185 2.028 . S
O184 C186 1.248 . S
Mg185 O184 2.028 . S
Mg185 O190 2.032 1_554 S
Mg185 O192 2.079 1_554 S
C186 O183 1.250 . S
C186 O184 1.248 . S
C187 O188 1.264 . S
C187 O195 1.249 . S
O188 C187 1.264 . S
O189 Mg182 1.986 . S
O189 C193 1.246 . S
O190 Mg185 2.032 1_556 S
O190 C193 1.259 . S
O191 Mg182 2.114 1_554 S
O191 C194 1.265 . S
O192 Mg182 2.251 . S
O192 Mg185 2.079 1_556 S
O192 C194 1.257 1_556 S
C193 O189 1.246 . S
C193 O190 1.259 . S
C194 O191 1.265 . S
C194 O192 1.257 1_554 S
O195 Mg182 2.010 . S
O195 C187 1.249 . S
Mg196 O197 2.028 . S
Mg196 O203 1.986 . S
Mg196 O205 2.114 . S
Mg196 O206 2.251 . S
Mg196 O209 2.010 . S
O197 Mg196 2.028 . S
O197 C200 1.250 . S
O198 Mg199 2.028 . S
O198 C200 1.248 . S
Mg199 O198 2.028 . S
Mg199 O204 2.032 . S
Mg199 O206 2.079 . S
C200 O197 1.250 . S
C200 O198 1.248 . S
C201 O202 1.264 . S
C201 O209 1.249 . S
O202 C201 1.264 . S
O203 Mg196 1.986 . S
O203 C207 1.246 . S
O204 Mg199 2.032 . S
O204 C207 1.259 . S
O205 Mg196 2.114 . S
O205 C208 1.252 . S
O206 Mg196 2.251 . S
O206 Mg199 2.079 . S
O206 C208 1.273 . S
C207 O203 1.246 . S
C207 O204 1.259 . S
C208 O205 1.252 . S
C208 O206 1.273 . S
O209 Mg196 2.010 . S
O209 C201 1.249 . S
Mg210 O211 2.028 . S
Mg210 O217 1.986 . S
Mg210 O219 2.114 . S
Mg210 O220 2.251 . S
Mg210 O223 2.010 . S
O211 Mg210 2.028 . S
O211 C214 1.250 . S
O212 Mg213 2.028 . S
O212 C214 1.248 . S
Mg213 O212 2.028 . S
Mg213 O218 2.032 . S
Mg213 O220 2.079 . S
C214 O211 1.250 . S
C214 O212 1.248 . S
C215 O216 1.264 . S
C215 O223 1.249 . S
O216 C215 1.264 . S
O217 Mg210 1.986 . S
O217 C221 1.246 . S
O218 Mg213 2.032 . S
O218 C221 1.259 . S
O219 Mg210 2.114 . S
O219 C222 1.252 . S
O220 Mg210 2.251 . S
O220 Mg213 2.079 . S
O220 C222 1.273 . S
C221 O217 1.246 . S
C221 O218 1.259 . S
C222 O219 1.252 . S
C222 O220 1.273 . S
O223 Mg210 2.010 . S
O223 C215 1.249 . S
Mg224 O225 2.028 . S
Mg224 O231 1.986 . S
Mg224 O233 2.114 . S
Mg224 O234 2.251 . S
Mg224 O237 2.010 . S
O225 Mg224 2.028 . S
O225 C228 1.250 . S
O226 Mg227 2.028 . S
O226 C228 1.248 . S
Mg227 O226 2.028 . S
Mg227 O232 2.032 . S
Mg227 O234 2.079 . S
C228 O225 1.250 . S
C228 O226 1.248 . S
C229 O230 1.264 . S
C229 O237 1.249 . S
O230 C229 1.264 . S
O231 Mg224 1.986 . S
O231 C235 1.246 . S
O232 Mg227 2.032 . S
O232 C235 1.259 . S
O233 Mg224 2.114 . S
O233 C236 1.252 . S
O234 Mg224 2.251 . S
O234 Mg227 2.079 . S
O234 C236 1.273 . S
C235 O231 1.246 . S
C235 O232 1.259 . S
C236 O233 1.252 . S
C236 O234 1.273 . S
O237 Mg224 2.010 . S
O237 C229 1.249 . S
Mg238 O239 2.028 . S
Mg238 O245 1.986 . S
Mg238 O247 2.114 . S
Mg238 O248 2.251 . S
Mg238 O251 2.010 . S
O239 Mg238 2.028 . S
O239 C242 1.250 . S
O240 Mg241 2.028 . S
O240 C242 1.248 . S
Mg241 O240 2.028 . S
Mg241 O246 2.032 . S
Mg241 O248 2.079 . S
C242 O239 1.250 . S
C242 O240 1.248 . S
C243 O244 1.264 . S
C243 O251 1.249 . S
O244 C243 1.264 . S
O245 Mg238 1.986 . S
O245 C249 1.246 . S
O246 Mg241 2.032 . S
O246 C249 1.259 . S
O247 Mg238 2.114 . S
O247 C250 1.252 . S
O248 Mg238 2.251 . S
O248 Mg241 2.079 . S
O248 C250 1.273 . S
C249 O245 1.246 . S
C249 O246 1.259 . S
C250 O247 1.252 . S
C250 O248 1.273 . S
O251 Mg238 2.010 . S
O251 C243 1.249 . S
Mg252 O253 2.028 . S
Mg252 O259 1.986 . S
Mg252 O261 2.114 . S
Mg252 O262 2.251 . S
Mg252 O265 2.010 . S
O253 Mg252 2.028 . S
O253 C256 1.250 . S
O254 Mg255 2.028 . S
O254 C256 1.248 . S
Mg255 O254 2.028 . S
Mg255 O260 2.032 . S
Mg255 O262 2.079 . S
C256 O253 1.250 . S
C256 O254 1.248 . S
C257 O258 1.264 . S
C257 O265 1.249 . S
O258 C257 1.264 . S
O259 Mg252 1.986 . S
O259 C263 1.246 . S
O260 Mg255 2.032 . S
O260 C263 1.259 . S
O261 Mg252 2.114 . S
O261 C264 1.252 . S
O262 Mg252 2.251 . S
O262 Mg255 2.079 . S
O262 C264 1.273 . S
C263 O259 1.246 . S
C263 O260 1.259 . S
C264 O261 1.252 . S
C264 O262 1.273 . S
O265 Mg252 2.010 . S
O265 C257 1.249 . S
Mg266 O267 2.028 . S
Mg266 O273 1.986 1_545 S
Mg266 O275 2.114 . S
Mg266 O276 2.251 . S
Mg266 O279 2.010 . S
O267 Mg266 2.028 . S
O267 C270 1.250 . S
O268 Mg269 2.028 . S
O268 C270 1.248 . S
Mg269 O268 2.028 . S
Mg269 O274 2.032 . S
Mg269 O276 2.079 . S
C270 O267 1.250 . S
C270 O268 1.248 . S
C271 O272 1.264 1_545 S
C271 O279 1.249 . S
O272 C271 1.264 1_565 S
O273 Mg266 1.986 1_565 S
O273 C277 1.246 . S
O274 Mg269 2.032 . S
O274 C277 1.259 1_545 S
O275 Mg266 2.114 . S
O275 C278 1.252 . S
O276 Mg266 2.251 . S
O276 Mg269 2.079 . S
O276 C278 1.273 . S
C277 O273 1.246 . S
C277 O274 1.259 1_565 S
C278 O275 1.252 . S
C278 O276 1.273 . S
O279 Mg266 2.010 . S
O279 C271 1.249 . S
Mg280 O281 2.028 1_556 S
Mg280 O287 1.986 . S
Mg280 O289 2.114 1_556 S
Mg280 O290 2.251 1_556 S
Mg280 O293 2.010 . S
O281 Mg280 2.028 1_554 S
O281 C284 1.250 . S
O282 Mg283 2.028 . S
O282 C284 1.248 . S
Mg283 O282 2.028 . S
Mg283 O288 2.032 1_554 S
Mg283 O290 2.079 . S
C284 O281 1.250 . S
C284 O282 1.248 . S
C285 O286 1.264 . S
C285 O293 1.249 . S
O286 C285 1.264 . S
O287 Mg280 1.986 . S
O287 C291 1.246 . S
O288 Mg283 2.032 1_556 S
O288 C291 1.259 . S
O289 Mg280 2.114 1_554 S
O289 C292 1.252 . S
O290 Mg280 2.251 1_554 S
O290 Mg283 2.079 . S
O290 C292 1.273 . S
C291 O287 1.246 . S
C291 O288 1.259 . S
C292 O289 1.252 . S
C292 O290 1.273 . S
O293 Mg280 2.010 . S
O293 C285 1.249 . S
Mg294 O295 2.028 . S
Mg294 O301 1.986 . S
Mg294 O303 2.114 . S
Mg294 O304 2.251 . S
Mg294 O307 2.010 . S
O295 Mg294 2.028 . S
O295 C298 1.250 . S
O296 Mg297 2.028 . S
O296 C298 1.248 . S
Mg297 O296 2.028 . S
Mg297 O302 2.032 . S
Mg297 O304 2.079 . S
C298 O295 1.250 . S
C298 O296 1.248 . S
C299 O300 1.264 . S
C299 O307 1.249 . S
O300 C299 1.264 . S
O301 Mg294 1.986 . S
O301 C305 1.246 . S
O302 Mg297 2.032 . S
O302 C305 1.259 . S
O303 Mg294 2.114 . S
O303 C306 1.252 . S
O304 Mg294 2.251 . S
O304 Mg297 2.079 . S
O304 C306 1.273 . S
C305 O301 1.246 . S
C305 O302 1.259 . S
C306 O303 1.252 . S
C306 O304 1.273 . S
O307 Mg294 2.010 . S
O307 C299 1.249 . S
Mg308 O309 2.028 . S
Mg308 O315 1.986 . S
Mg308 O317 2.114 . S
Mg308 O318 2.251 . S
Mg308 O321 2.010 . S
O309 Mg308 2.028 . S
O309 C312 1.250 . S
O310 Mg311 2.028 . S
O310 C312 1.248 . S
Mg311 O310 2.028 . S
Mg311 O316 2.032 . S
Mg311 O318 2.079 . S
C312 O309 1.250 . S
C312 O310 1.248 . S
C313 O314 1.264 . S
C313 O321 1.249 . S
O314 C313 1.264 . S
O315 Mg308 1.986 . S
O315 C319 1.246 . S
O316 Mg311 2.032 . S
O316 C319 1.259 . S
O317 Mg308 2.114 . S
O317 C320 1.252 . S
O318 Mg308 2.251 . S
O318 Mg311 2.079 . S
O318 C320 1.273 . S
C319 O315 1.246 . S
C319 O316 1.259 . S
C320 O317 1.252 . S
C320 O318 1.273 . S
O321 Mg308 2.010 . S
O321 C313 1.249 . S
Mg322 O323 2.028 . S
Mg322 O329 1.986 . S
Mg322 O331 2.114 . S
Mg322 O332 2.251 . S
Mg322 O335 2.010 . S
O323 Mg322 2.028 . S
O323 C326 1.250 . S
O324 Mg325 2.028 . S
O324 C326 1.248 . S
Mg325 O324 2.028 . S
Mg325 O330 2.032 . S
Mg325 O332 2.079 . S
C326 O323 1.250 . S
C326 O324 1.248 . S
C327 O328 1.264 . S
C327 O335 1.249 . S
O328 C327 1.264 . S
O329 Mg322 1.986 . S
O329 C333 1.246 . S
O330 Mg325 2.032 . S
O330 C333 1.259 . S
O331 Mg322 2.114 . S
O331 C334 1.252 . S
O332 Mg322 2.251 . S
O332 Mg325 2.079 . S
O332 C334 1.273 . S
C333 O329 1.246 . S
C333 O330 1.259 . S
C334 O331 1.252 . S
C334 O332 1.273 . S
O335 Mg322 2.010 . S
O335 C327 1.249 . S
Dy336 O340 2.398 . S
Dy336 O341 2.491 1_556 S
Dy336 O342 2.403 . S
Dy336 O343 2.664 1_655 S
Dy336 O347 2.326 . S
Dy336 O351 2.324 1_556 S
Dy336 O352 2.351 1_546 S
C337 O348 1.185 . S
C337 O349 1.355 . S
C338 O340 1.185 . S
C338 O341 1.355 1_556 S
Dy339 O343 2.310 1_554 S
Dy339 O346 2.351 . S
Dy339 O348 2.398 . S
Dy339 O349 2.491 . S
Dy339 O350 2.403 . S
Dy339 O351 2.631 1_455 S
Dy339 O353 2.326 1_545 S
O340 Dy336 2.398 . S
O340 C338 1.185 . S
O341 Dy336 2.491 1_554 S
O341 C338 1.355 1_554 S
O342 Dy336 2.403 . S
O342 C344 1.254 1_655 S
O343 Dy336 2.664 1_455 S
O343 Dy339 2.310 1_556 S
O343 C344 1.268 . S
C344 O342 1.254 1_455 S
C344 O343 1.268 . S
C345 O350 1.254 . S
C345 O351 1.261 1_455 S
O346 Dy339 2.351 . S
O346 C354 1.249 1_554 S
O347 Dy336 2.326 . S
O347 C354 1.267 1_655 S
O348 C337 1.185 . S
O348 Dy339 2.398 . S
O349 C337 1.355 . S
O349 Dy339 2.491 . S
O350 Dy339 2.403 . S
O350 C345 1.254 . S
O351 Dy336 2.324 1_554 S
O351 Dy339 2.631 1_655 S
O351 C345 1.261 1_655 S
O352 Dy336 2.351 1_564 S
O352 C355 1.249 1_655 S
O353 Dy339 2.326 1_565 S
O353 C355 1.267 . S
C354 O346 1.249 1_556 S
C354 O347 1.267 1_455 S
C355 O352 1.249 1_455 S
C355 O353 1.267 . S
Dy356 O360 2.398 . S
Dy356 O361 2.491 . S
Dy356 O362 2.403 . S
Dy356 O363 2.664 . S
Dy356 O367 2.326 . S
Dy356 O371 2.310 . S
Dy356 O372 2.351 . S
C357 O368 1.185 . S
C357 O369 1.355 . S
C358 O360 1.185 . S
C358 O361 1.355 . S
Dy359 O363 2.310 . S
Dy359 O366 2.351 . S
Dy359 O368 2.398 . S
Dy359 O369 2.491 . S
Dy359 O370 2.403 . S
Dy359 O371 2.664 . S
Dy359 O373 2.326 . S
O360 Dy356 2.398 . S
O360 C358 1.185 . S
O361 Dy356 2.491 . S
O361 C358 1.355 . S
O362 Dy356 2.403 . S
O362 C364 1.254 . S
O363 Dy356 2.664 . S
O363 Dy359 2.310 . S
O363 C364 1.268 . S
C364 O362 1.254 . S
C364 O363 1.268 . S
C365 O370 1.254 . S
C365 O371 1.268 . S
O366 Dy359 2.351 . S
O366 C374 1.249 . S
O367 Dy356 2.326 . S
O367 C374 1.267 . S
O368 C357 1.185 . S
O368 Dy359 2.398 . S
O369 C357 1.355 . S
O369 Dy359 2.491 . S
O370 Dy359 2.403 . S
O370 C365 1.254 . S
O371 Dy356 2.310 . S
O371 Dy359 2.664 . S
O371 C365 1.268 . S
O372 Dy356 2.351 . S
O372 C375 1.249 . S
O373 Dy359 2.326 . S
O373 C375 1.267 . S
C374 O366 1.249 . S
C374 O367 1.267 . S
C375 O372 1.249 . S
C375 O373 1.267 . S
Dy376 O380 2.398 . S
Dy376 O381 2.491 1_545 S
Dy376 O382 2.403 . S
Dy376 O383 2.664 . S
Dy376 O387 2.326 1_545 S
Dy376 O391 2.310 . S
Dy376 O392 2.351 . S
C377 O388 1.185 . S
C377 O389 1.355 . S
C378 O380 1.185 1_565 S
C378 O381 1.355 . S
Dy379 O383 2.310 . S
Dy379 O386 2.351 1_545 S
Dy379 O388 2.398 . S
Dy379 O389 2.491 . S
Dy379 O390 2.403 . S
Dy379 O391 2.664 . S
Dy379 O393 2.326 . S
O380 Dy376 2.398 . S
O380 C378 1.185 1_545 S
O381 Dy376 2.491 1_565 S
O381 C378 1.355 . S
O382 Dy376 2.403 . S
O382 C384 1.254 . S
O383 Dy376 2.664 . S
O383 Dy379 2.310 . S
O383 C384 1.268 . S
C384 O382 1.254 . S
C384 O383 1.268 . S
C385 O390 1.254 . S
C385 O391 1.268 . S
O386 Dy379 2.351 1_565 S
O386 C394 1.249 . S
O387 Dy376 2.326 1_565 S
O387 C394 1.267 . S
O388 C377 1.185 . S
O388 Dy379 2.398 . S
O389 C377 1.355 . S
O389 Dy379 2.491 . S
O390 Dy379 2.403 . S
O390 C385 1.254 . S
O391 Dy376 2.310 . S
O391 Dy379 2.664 . S
O391 C385 1.268 . S
O392 Dy376 2.351 . S
O392 C395 1.249 . S
O393 Dy379 2.326 . S
O393 C395 1.267 . S
C394 O386 1.249 . S
C394 O387 1.267 . S
C395 O392 1.249 . S
C395 O393 1.267 . S
Dy396 O400 2.398 . S
Dy396 O401 2.491 . S
Dy396 O402 2.403 . S
Dy396 O403 2.664 . S
Dy396 O407 2.326 . S
Dy396 O411 2.310 . S
Dy396 O412 2.351 . S
C397 O408 1.185 . S
C397 O409 1.355 . S
C398 O400 1.185 . S
C398 O401 1.355 . S
Dy399 O403 2.310 . S
Dy399 O406 2.351 . S
Dy399 O408 2.398 . S
Dy399 O409 2.491 . S
Dy399 O410 2.403 . S
Dy399 O411 2.664 . S
Dy399 O413 2.326 . S
O400 Dy396 2.398 . S
O400 C398 1.185 . S
O401 Dy396 2.491 . S
O401 C398 1.355 . S
O402 Dy396 2.403 . S
O402 C404 1.254 . S
O403 Dy396 2.664 . S
O403 Dy399 2.310 . S
O403 C404 1.268 . S
C404 O402 1.254 . S
C404 O403 1.268 . S
C405 O410 1.254 . S
C405 O411 1.268 . S
O406 Dy399 2.351 . S
O406 C414 1.249 . S
O407 Dy396 2.326 . S
O407 C414 1.267 . S
O408 C397 1.185 . S
O408 Dy399 2.398 . S
O409 C397 1.355 . S
O409 Dy399 2.491 . S
O410 Dy399 2.403 . S
O410 C405 1.254 . S
O411 Dy396 2.310 . S
O411 Dy399 2.664 . S
O411 C405 1.268 . S
O412 Dy396 2.351 . S
O412 C415 1.249 . S
O413 Dy399 2.326 . S
O413 C415 1.267 . S
C414 O406 1.249 . S
C414 O407 1.267 . S
C415 O412 1.249 . S
C415 O413 1.267 . S
Dy416 O420 2.398 . S
Dy416 O421 2.491 1_455 S
Dy416 O422 2.403 . S
Dy416 O423 2.664 . S
Dy416 O427 2.326 . S
Dy416 O431 2.310 1_455 S
Dy416 O432 2.351 1_545 S
C417 O428 1.185 . S
C417 O429 1.355 . S
C418 O420 1.185 1_655 S
C418 O421 1.355 . S
Dy419 O423 2.310 . S
Dy419 O426 2.351 . S
Dy419 O428 2.398 . S
Dy419 O429 2.491 . S
Dy419 O430 2.403 1_455 S
Dy419 O431 2.664 1_455 S
Dy419 O433 2.326 1_545 S
O420 Dy416 2.398 . S
O420 C418 1.185 1_455 S
O421 Dy416 2.491 1_655 S
O421 C418 1.355 . S
O422 Dy416 2.403 . S
O422 C424 1.254 . S
O423 Dy416 2.664 . S
O423 Dy419 2.310 . S
O423 C424 1.268 . S
C424 O422 1.254 . S
C424 O423 1.268 . S
C425 O430 1.254 . S
C425 O431 1.268 . S
O426 Dy419 2.351 . S
O426 C434 1.249 . S
O427 Dy416 2.326 . S
O427 C434 1.267 . S
O428 C417 1.185 . S
O428 Dy419 2.398 . S
O429 C417 1.355 . S
O429 Dy419 2.491 . S
O430 Dy419 2.403 1_655 S
O430 C425 1.254 . S
O431 Dy416 2.310 1_655 S
O431 Dy419 2.664 1_655 S
O431 C425 1.268 . S
O432 Dy416 2.351 1_565 S
O432 C435 1.249 . S
O433 Dy419 2.326 1_565 S
O433 C435 1.267 . S
C434 O426 1.249 . S
C434 O427 1.267 . S
C435 O432 1.249 . S
C435 O433 1.267 . S
Dy436 O440 2.398 . S
Dy436 O441 2.491 . S
Dy436 O442 2.403 . S
Dy436 O443 2.664 . S
Dy436 O447 2.326 . S
Dy436 O451 2.310 . S
Dy436 O452 2.351 . S
C437 O448 1.185 . S
C437 O449 1.355 . S
C438 O440 1.185 . S
C438 O441 1.355 . S
Dy439 O443 2.310 . S
Dy439 O446 2.351 . S
Dy439 O448 2.398 . S
Dy439 O449 2.491 . S
Dy439 O450 2.403 . S
Dy439 O451 2.664 . S
Dy439 O453 2.326 . S
O440 Dy436 2.398 . S
O440 C438 1.185 . S
O441 Dy436 2.491 . S
O441 C438 1.355 . S
O442 Dy436 2.403 . S
O442 C444 1.254 . S
O443 Dy436 2.664 . S
O443 Dy439 2.310 . S
O443 C444 1.268 . S
C444 O442 1.254 . S
C444 O443 1.268 . S
C445 O450 1.254 . S
C445 O451 1.268 . S
O446 Dy439 2.351 . S
O446 C454 1.249 . S
O447 Dy436 2.326 . S
O447 C454 1.267 . S
O448 C437 1.185 . S
O448 Dy439 2.398 . S
O449 C437 1.355 . S
O449 Dy439 2.491 . S
O450 Dy439 2.403 . S
O450 C445 1.254 . S
O451 Dy436 2.310 . S
O451 Dy439 2.664 . S
O451 C445 1.268 . S
O452 Dy436 2.351 . S
O452 C455 1.249 . S
O453 Dy439 2.326 . S
O453 C455 1.267 . S
C454 O446 1.249 . S
C454 O447 1.267 . S
C455 O452 1.249 . S
C455 O453 1.267 . S
Dy456 O460 2.398 1_545 S
Dy456 O461 2.491 . S
Dy456 O462 2.403 1_545 S
Dy456 O463 2.664 1_544 S
Dy456 O467 2.326 1_545 S
Dy456 O471 2.310 . S
Dy456 O472 2.351 . S
C457 O468 1.185 . S
C457 O469 1.355 . S
C458 O460 1.185 1_545 S
C458 O461 1.355 . S
Dy459 O463 2.310 1_545 S
Dy459 O466 2.351 . S
Dy459 O468 2.398 . S
Dy459 O469 2.491 . S
Dy459 O470 2.403 . S
Dy459 O471 2.664 1_556 S
Dy459 O473 2.326 . S
O460 Dy456 2.398 1_565 S
O460 C458 1.185 1_565 S
O461 Dy456 2.491 . S
O461 C458 1.355 . S
O462 Dy456 2.403 1_565 S
O462 C464 1.258 . S
O463 Dy456 2.664 1_566 S
O463 Dy459 2.310 1_565 S
O463 C464 1.266 1_556 S
C464 O462 1.258 . S
C464 O463 1.266 1_554 S
C465 O470 1.254 1_554 S
C465 O471 1.268 . S
O466 Dy459 2.351 . S
O466 C474 1.249 1_556 S
O467 Dy456 2.326 1_565 S
O467 C474 1.267 1_565 S
O468 C457 1.185 . S
O468 Dy459 2.398 . S
O469 C457 1.355 . S
O469 Dy459 2.491 . S
O470 Dy459 2.403 . S
O470 C465 1.254 1_556 S
O471 Dy456 2.310 . S
O471 Dy459 2.664 1_554 S
O471 C465 1.268 . S
O472 Dy456 2.351 . S
O472 C475 1.249 . S
O473 Dy459 2.326 . S
O473 C475 1.267 1_556 S
C474 O466 1.249 1_554 S
C474 O467 1.267 1_545 S
C475 O472 1.249 . S
C475 O473 1.267 1_554 S
Dy476 O480 2.398 . S
Dy476 O481 2.491 . S
Dy476 O482 2.403 . S
Dy476 O483 2.664 . S
Dy476 O487 2.326 . S
Dy476 O491 2.310 . S
Dy476 O492 2.351 . S
C477 O488 1.185 . S
C477 O489 1.355 . S
C478 O480 1.185 . S
C478 O481 1.355 . S
Dy479 O483 2.310 . S
Dy479 O486 2.351 . S
Dy479 O488 2.398 . S
Dy479 O489 2.491 . S
Dy479 O490 2.403 . S
Dy479 O491 2.664 . S
Dy479 O493 2.326 . S
O480 Dy476 2.398 . S
O480 C478 1.185 . S
O481 Dy476 2.491 . S
O481 C478 1.355 . S
O482 Dy476 2.403 . S
O482 C484 1.254 . S
O483 Dy476 2.664 . S
O483 Dy479 2.310 . S
O483 C484 1.268 . S
C484 O482 1.254 . S
C484 O483 1.268 . S
C485 O490 1.254 . S
C485 O491 1.268 . S
O486 Dy479 2.351 . S
O486 C494 1.249 . S
O487 Dy476 2.326 . S
O487 C494 1.267 . S
O488 C477 1.185 . S
O488 Dy479 2.398 . S
O489 C477 1.355 . S
O489 Dy479 2.491 . S
O490 Dy479 2.403 . S
O490 C485 1.254 . S
O491 Dy476 2.310 . S
O491 Dy479 2.664 . S
O491 C485 1.268 . S
O492 Dy476 2.351 . S
O492 C495 1.249 . S
O493 Dy479 2.326 . S
O493 C495 1.267 . S
C494 O486 1.249 . S
C494 O487 1.267 . S
C495 O492 1.249 . S
C495 O493 1.267 . S
Dy496 O500 2.398 . S
Dy496 O501 2.491 . S
Dy496 O502 2.403 . S
Dy496 O503 2.664 1_556 S
Dy496 O507 2.326 . S
Dy496 O511 2.310 1_556 S
Dy496 O512 2.351 1_556 S
C497 O508 1.185 . S
C497 O509 1.355 . S
C498 O500 1.185 . S
C498 O501 1.355 . S
Dy499 O503 2.310 . S
Dy499 O506 2.351 . S
Dy499 O508 2.398 . S
Dy499 O509 2.491 . S
Dy499 O510 2.403 . S
Dy499 O511 2.664 . S
Dy499 O513 2.326 . S
O500 Dy496 2.398 . S
O500 C498 1.185 . S
O501 Dy496 2.491 . S
O501 C498 1.355 . S
O502 Dy496 2.403 . S
O502 C504 1.227 1_556 S
O503 Dy496 2.664 1_554 S
O503 Dy499 2.310 . S
O503 C504 1.288 . S
C504 O502 1.227 1_554 S
C504 O503 1.288 . S
C505 O510 1.254 . S
C505 O511 1.268 . S
O506 Dy499 2.351 . S
O506 C514 1.249 1_554 S
O507 Dy496 2.326 . S
O507 C514 1.267 . S
O508 C497 1.185 . S
O508 Dy499 2.398 . S
O509 C497 1.355 . S
O509 Dy499 2.491 . S
O510 Dy499 2.403 . S
O510 C505 1.254 . S
O511 Dy496 2.310 1_554 S
O511 Dy499 2.664 . S
O511 C505 1.268 . S
O512 Dy496 2.351 1_554 S
O512 C515 1.249 . S
O513 Dy499 2.326 . S
O513 C515 1.267 . S
C514 O506 1.249 1_556 S
C514 O507 1.267 . S
C515 O512 1.249 . S
C515 O513 1.267 . S
Dy516 O520 2.398 . S
Dy516 O521 2.491 . S
Dy516 O522 2.403 . S
Dy516 O523 2.664 . S
Dy516 O527 2.326 . S
Dy516 O531 2.310 . S
Dy516 O532 2.351 . S
C517 O528 1.185 . S
C517 O529 1.355 . S
C518 O520 1.185 . S
C518 O521 1.355 . S
Dy519 O523 2.310 . S
Dy519 O526 2.351 . S
Dy519 O528 2.398 . S
Dy519 O529 2.491 . S
Dy519 O530 2.403 . S
Dy519 O531 2.664 . S
Dy519 O533 2.326 . S
O520 Dy516 2.398 . S
O520 C518 1.185 . S
O521 Dy516 2.491 . S
O521 C518 1.355 . S
O522 Dy516 2.403 . S
O522 C524 1.254 . S
O523 Dy516 2.664 . S
O523 Dy519 2.310 . S
O523 C524 1.268 . S
C524 O522 1.254 . S
C524 O523 1.268 . S
C525 O530 1.254 . S
C525 O531 1.268 . S
O526 Dy519 2.351 . S
O526 C534 1.249 . S
O527 Dy516 2.326 . S
O527 C534 1.267 . S
O528 C517 1.185 . S
O528 Dy519 2.398 . S
O529 C517 1.355 . S
O529 Dy519 2.491 . S
O530 Dy519 2.403 . S
O530 C525 1.254 . S
O531 Dy516 2.310 . S
O531 Dy519 2.664 . S
O531 C525 1.268 . S
O532 Dy516 2.351 . S
O532 C535 1.249 . S
O533 Dy519 2.326 . S
O533 C535 1.267 . S
C534 O526 1.249 . S
C534 O527 1.267 . S
C535 O532 1.249 . S
C535 O533 1.267 . S
Dy536 O540 2.398 1_455 S
Dy536 O541 2.491 1_455 S
Dy536 O542 2.403 . S
Dy536 O543 2.664 . S
Dy536 O547 2.326 1_455 S
Dy536 O551 2.310 . S
Dy536 O552 2.351 . S
C537 O548 1.185 . S
C537 O549 1.355 . S
C538 O540 1.185 . S
C538 O541 1.355 . S
Dy539 O543 2.310 . S
Dy539 O546 2.351 1_455 S
Dy539 O548 2.398 . S
Dy539 O549 2.491 . S
Dy539 O550 2.403 . S
Dy539 O551 2.664 . S
Dy539 O553 2.326 . S
O540 Dy536 2.398 1_655 S
O540 C538 1.185 . S
O541 Dy536 2.491 1_655 S
O541 C538 1.355 . S
O542 Dy536 2.403 . S
O542 C544 1.254 . S
O543 Dy536 2.664 . S
O543 Dy539 2.310 . S
O543 C544 1.268 . S
C544 O542 1.254 . S
C544 O543 1.268 . S
C545 O550 1.254 . S
C545 O551 1.268 . S
O546 Dy539 2.351 1_655 S
O546 C554 1.249 . S
O547 Dy536 2.326 1_655 S
O547 C554 1.267 . S
O548 C537 1.185 . S
O548 Dy539 2.398 . S
O549 C537 1.355 . S
O549 Dy539 2.491 . S
O550 Dy539 2.403 . S
O550 C545 1.254 . S
O551 Dy536 2.310 . S
O551 Dy539 2.664 . S
O551 C545 1.268 . S
O552 Dy536 2.351 . S
O552 C555 1.249 . S
O553 Dy539 2.326 . S
O553 C555 1.267 . S
C554 O546 1.249 . S
C554 O547 1.267 . S
C555 O552 1.249 . S
C555 O553 1.267 . S
Dy556 O560 2.398 . S
Dy556 O561 2.491 . S
Dy556 O562 2.403 . S
Dy556 O563 2.664 . S
Dy556 O567 2.326 . S
Dy556 O571 2.310 . S
Dy556 O572 2.351 . S
C557 O568 1.185 . S
C557 O569 1.355 . S
C558 O560 1.185 . S
C558 O561 1.355 . S
Dy559 O563 2.310 . S
Dy559 O566 2.351 . S
Dy559 O568 2.398 . S
Dy559 O569 2.491 . S
Dy559 O570 2.403 . S
Dy559 O571 2.664 . S
Dy559 O573 2.326 . S
O560 Dy556 2.398 . S
O560 C558 1.185 . S
O561 Dy556 2.491 . S
O561 C558 1.355 . S
O562 Dy556 2.403 . S
O562 C564 1.254 . S
O563 Dy556 2.664 . S
O563 Dy559 2.310 . S
O563 C564 1.268 . S
C564 O562 1.254 . S
C564 O563 1.268 . S
C565 O570 1.254 . S
C565 O571 1.268 . S
O566 Dy559 2.351 . S
O566 C574 1.249 . S
O567 Dy556 2.326 . S
O567 C574 1.267 . S
O568 C557 1.185 . S
O568 Dy559 2.398 . S
O569 C557 1.355 . S
O569 Dy559 2.491 . S
O570 Dy559 2.403 . S
O570 C565 1.254 . S
O571 Dy556 2.310 . S
O571 Dy559 2.664 . S
O571 C565 1.268 . S
O572 Dy556 2.351 . S
O572 C575 1.249 . S
O573 Dy559 2.326 . S
O573 C575 1.267 . S
C574 O566 1.249 . S
C574 O567 1.267 . S
C575 O572 1.249 . S
C575 O573 1.267 . S
Dy576 O580 2.398 . S
Dy576 O581 2.491 . S
Dy576 O582 2.403 . S
Dy576 O583 2.664 . S
Dy576 O587 2.326 . S
Dy576 O591 2.310 . S
Dy576 O592 2.351 . S
C577 O588 1.185 . S
C577 O589 1.355 . S
C578 O580 1.185 . S
C578 O581 1.355 . S
Dy579 O583 2.310 . S
Dy579 O586 2.351 . S
Dy579 O588 2.398 . S
Dy579 O589 2.491 . S
Dy579 O590 2.403 . S
Dy579 O591 2.664 . S
Dy579 O593 2.326 . S
O580 Dy576 2.398 . S
O580 C578 1.185 . S
O581 Dy576 2.491 . S
O581 C578 1.355 . S
O582 Dy576 2.403 . S
O582 C584 1.254 . S
O583 Dy576 2.664 . S
O583 Dy579 2.310 . S
O583 C584 1.268 . S
C584 O582 1.254 . S
C584 O583 1.268 . S
C585 O590 1.254 . S
C585 O591 1.268 . S
O586 Dy579 2.351 . S
O586 C594 1.249 . S
O587 Dy576 2.326 . S
O587 C594 1.267 . S
O588 C577 1.185 . S
O588 Dy579 2.398 . S
O589 C577 1.355 . S
O589 Dy579 2.491 . S
O590 Dy579 2.403 . S
O590 C585 1.254 . S
O591 Dy576 2.310 . S
O591 Dy579 2.664 . S
O591 C585 1.268 . S
O592 Dy576 2.351 . S
O592 C595 1.249 . S
O593 Dy579 2.326 . S
O593 C595 1.267 . S
C594 O586 1.249 . S
C594 O587 1.267 . S
C595 O592 1.249 . S
C595 O593 1.267 . S
Dy596 O600 2.398 . S
Dy596 O601 2.491 . S
Dy596 O602 2.403 . S
Dy596 O603 2.664 . S
Dy596 O607 2.326 . S
Dy596 O611 2.310 . S
Dy596 O612 2.351 . S
C597 O608 1.185 . S
C597 O609 1.355 . S
C598 O600 1.185 . S
C598 O601 1.355 . S
Dy599 O603 2.310 . S
Dy599 O606 2.351 . S
Dy599 O608 2.398 . S
Dy599 O609 2.491 . S
Dy599 O610 2.403 . S
Dy599 O611 2.664 . S
Dy599 O613 2.326 . S
O600 Dy596 2.398 . S
O600 C598 1.185 . S
O601 Dy596 2.491 . S
O601 C598 1.355 . S
O602 Dy596 2.403 . S
O602 C604 1.254 . S
O603 Dy596 2.664 . S
O603 Dy599 2.310 . S
O603 C604 1.268 . S
C604 O602 1.254 . S
C604 O603 1.268 . S
C605 O610 1.254 . S
C605 O611 1.268 . S
O606 Dy599 2.351 . S
O606 C614 1.249 . S
O607 Dy596 2.326 . S
O607 C614 1.267 . S
O608 C597 1.185 . S
O608 Dy599 2.398 . S
O609 C597 1.355 . S
O609 Dy599 2.491 . S
O610 Dy599 2.403 . S
O610 C605 1.254 . S
O611 Dy596 2.310 . S
O611 Dy599 2.664 . S
O611 C605 1.268 . S
O612 Dy596 2.351 . S
O612 C615 1.249 . S
O613 Dy599 2.326 . S
O613 C615 1.267 . S
C614 O606 1.249 . S
C614 O607 1.267 . S
C615 O612 1.249 . S
C615 O613 1.267 . S
Dy616 O620 2.398 . S
Dy616 O621 2.491 . S
Dy616 O622 2.403 . S
Dy616 O623 2.664 . S
Dy616 O627 2.326 . S
Dy616 O631 2.310 . S
Dy616 O632 2.351 . S
C617 O628 1.185 . S
C617 O629 1.355 . S
C618 O620 1.185 . S
C618 O621 1.355 . S
Dy619 O623 2.310 . S
Dy619 O626 2.351 . S
Dy619 O628 2.398 . S
Dy619 O629 2.491 . S
Dy619 O630 2.403 . S
Dy619 O631 2.664 . S
Dy619 O633 2.326 . S
O620 Dy616 2.398 . S
O620 C618 1.185 . S
O621 Dy616 2.491 . S
O621 C618 1.355 . S
O622 Dy616 2.403 . S
O622 C624 1.254 . S
O623 Dy616 2.664 . S
O623 Dy619 2.310 . S
O623 C624 1.268 . S
C624 O622 1.254 . S
C624 O623 1.268 . S
C625 O630 1.254 . S
C625 O631 1.268 . S
O626 Dy619 2.351 . S
O626 C634 1.249 . S
O627 Dy616 2.326 . S
O627 C634 1.267 . S
O628 C617 1.185 . S
O628 Dy619 2.398 . S
O629 C617 1.355 . S
O629 Dy619 2.491 . S
O630 Dy619 2.403 . S
O630 C625 1.254 . S
O631 Dy616 2.310 . S
O631 Dy619 2.664 . S
O631 C625 1.268 . S
O632 Dy616 2.351 . S
O632 C635 1.249 . S
O633 Dy619 2.326 . S
O633 C635 1.267 . S
C634 O626 1.249 . S
C634 O627 1.267 . S
C635 O632 1.249 . S
C635 O633 1.267 . S
Dy636 O640 2.414 . S
Dy636 O641 2.481 1_556 S
Dy636 O642 2.432 . S
Dy636 O643 2.676 1_455 S
Dy636 O647 2.332 . S
Dy636 O651 2.284 1_556 S
Dy636 O652 2.345 1_556 S
C637 O648 1.185 . S
C637 O649 1.355 . S
C638 O640 1.185 . S
C638 O641 1.355 1_556 S
Dy639 O643 2.307 1_554 S
Dy639 O646 2.351 . S
Dy639 O648 2.398 . S
Dy639 O649 2.491 . S
Dy639 O650 2.403 . S
Dy639 O651 2.664 1_655 S
Dy639 O653 2.340 . S
O640 Dy636 2.414 . S
O640 C638 1.185 . S
O641 Dy636 2.481 1_554 S
O641 C638 1.355 1_554 S
O642 Dy636 2.432 . S
O642 C644 1.254 . S
O643 Dy636 2.676 1_655 S
O643 Dy639 2.307 1_556 S
O643 C644 1.269 1_655 S
C644 O642 1.254 . S
C644 O643 1.269 1_455 S
C645 O650 1.254 1_455 S
C645 O651 1.268 . S
O646 Dy639 2.351 . S
O646 C654 1.249 1_654 S
O647 Dy636 2.332 . S
O647 C654 1.267 . S
O648 C637 1.185 . S
O648 Dy639 2.398 . S
O649 C637 1.355 . S
O649 Dy639 2.491 . S
O650 Dy639 2.403 . S
O650 C645 1.254 1_655 S
O651 Dy636 2.284 1_554 S
O651 Dy639 2.664 1_455 S
O651 C645 1.268 . S
O652 Dy636 2.345 1_554 S
O652 C655 1.249 . S
O653 Dy639 2.340 . S
O653 C655 1.239 1_655 S
C654 O646 1.249 1_456 S
C654 O647 1.267 . S
C655 O652 1.249 . S
C655 O653 1.239 1_455 S
H656 C662 0.930 . S
H657 C666 0.930 . S
H658 C671 0.929 . S
H659 C669 0.929 . S
H660 C664 0.929 . S
H661 C670 0.929 . S
C662 H656 0.930 . S
C662 C663 1.367 . S
C662 C670 1.378 . S
C663 C662 1.367 . S
C663 C671 1.433 1_655 S
C664 H660 0.929 . S
C664 C666 1.378 . S
C664 C668 1.350 . S
C665 C668 1.463 . S
C665 C670 1.350 1_455 S
C665 N673 1.427 . S
C666 H657 0.930 . S
C666 C664 1.378 . S
C666 C667 1.367 . S
C667 C666 1.367 . S
C667 C669 1.433 1_456 S
C668 C664 1.350 . S
C668 C665 1.463 . S
C668 N672 1.427 1_455 S
C669 H659 0.929 . S
C669 C667 1.433 1_654 S
C669 N672 1.384 1_554 S
C670 H661 0.929 . S
C670 C662 1.378 . S
C670 C665 1.350 1_655 S
C671 H658 0.929 . S
C671 C663 1.433 1_455 S
C671 N673 1.384 . S
N672 C668 1.427 1_655 S
N672 C669 1.384 1_556 S
N673 C665 1.427 . S
N673 C671 1.384 . S
H674 C680 0.930 . S
H675 C684 0.930 . S
H676 C689 0.929 . S
H677 C687 0.929 . S
H678 C682 0.929 . S
H679 C688 0.929 . S
C680 H674 0.930 . S
C680 C681 1.367 . S
C680 C688 1.378 . S
C681 C680 1.367 . S
C681 C689 1.433 . S
C682 H678 0.929 . S
C682 C684 1.378 . S
C682 C686 1.350 . S
C683 C686 1.463 . S
C683 C688 1.350 . S
C683 N691 1.427 . S
C684 H675 0.930 . S
C684 C682 1.378 . S
C684 C685 1.367 . S
C685 C684 1.367 . S
C685 C687 1.433 . S
C686 C682 1.350 . S
C686 C683 1.463 . S
C686 N690 1.427 . S
C687 H677 0.929 . S
C687 C685 1.433 . S
C687 N690 1.384 . S
C688 H679 0.929 . S
C688 C680 1.378 . S
C688 C683 1.350 . S
C689 H676 0.929 . S
C689 C681 1.433 . S
C689 N691 1.384 . S
N690 C686 1.427 . S
N690 C687 1.384 . S
N691 C683 1.427 . S
N691 C689 1.384 . S
H692 C698 0.930 . S
H693 C702 0.930 . S
H694 C707 0.929 . S
H695 C705 0.929 . S
H696 C700 0.929 . S
H697 C706 0.929 . S
C698 H692 0.930 . S
C698 C699 1.367 . S
C698 C706 1.378 . S
C699 C698 1.367 . S
C699 C707 1.433 . S
C700 H696 0.929 . S
C700 C702 1.378 . S
C700 C704 1.350 . S
C701 C704 1.463 . S
C701 C706 1.350 . S
C701 N709 1.427 . S
C702 H693 0.930 . S
C702 C700 1.378 . S
C702 C703 1.367 . S
C703 C702 1.367 . S
C703 C705 1.433 . S
C704 C700 1.350 . S
C704 C701 1.463 . S
C704 N708 1.427 . S
C705 H695 0.929 . S
C705 C703 1.433 . S
C705 N708 1.384 . S
C706 H697 0.929 . S
C706 C698 1.378 . S
C706 C701 1.350 . S
C707 H694 0.929 . S
C707 C699 1.433 . S
C707 N709 1.384 . S
N708 C704 1.427 . S
N708 C705 1.384 . S
N709 C701 1.427 . S
N709 C707 1.384 . S
H710 C716 0.930 . S
H711 C720 0.930 . S
H712 C725 0.929 . S
H713 C723 0.929 . S
H714 C718 0.929 . S
H715 C724 0.929 . S
C716 H710 0.930 . S
C716 C717 1.367 . S
C716 C724 1.378 . S
C717 C716 1.367 . S
C717 C725 1.433 . S
C718 H714 0.929 . S
C718 C720 1.378 . S
C718 C722 1.350 . S
C719 C722 1.463 . S
C719 C724 1.350 . S
C719 N727 1.427 . S
C720 H711 0.930 . S
C720 C718 1.378 . S
C720 C721 1.367 . S
C721 C720 1.367 . S
C721 C723 1.433 . S
C722 C718 1.350 . S
C722 C719 1.463 . S
C722 N726 1.427 . S
C723 H713 0.929 . S
C723 C721 1.433 . S
C723 N726 1.384 . S
C724 H715 0.929 . S
C724 C716 1.378 . S
C724 C719 1.350 . S
C725 H712 0.929 . S
C725 C717 1.433 . S
C725 N727 1.384 . S
N726 C722 1.427 . S
N726 C723 1.384 . S
N727 C719 1.427 . S
N727 C725 1.384 . S
H728 C734 0.930 . S
H729 C738 0.930 . S
H730 C743 0.929 . S
H731 C741 0.929 . S
H732 C736 0.929 . S
H733 C742 0.929 . S
C734 H728 0.930 . S
C734 C735 1.367 1_655 S
C734 C742 1.378 . S
C735 C734 1.367 1_455 S
C735 C743 1.433 . S
C736 H732 0.929 . S
C736 C738 1.378 . S
C736 C740 1.350 . S
C737 C740 1.463 . S
C737 C742 1.350 1_455 S
C737 N745 1.427 . S
C738 H729 0.930 . S
C738 C736 1.378 . S
C738 C739 1.367 . S
C739 C738 1.367 . S
C739 C741 1.433 1_455 S
C740 C736 1.350 . S
C740 C737 1.463 . S
C740 N744 1.427 1_455 S
C741 H731 0.929 . S
C741 C739 1.433 1_655 S
C741 N744 1.384 . S
C742 H733 0.929 . S
C742 C734 1.378 . S
C742 C737 1.350 1_655 S
C743 H730 0.929 . S
C743 C735 1.433 . S
C743 N745 1.384 . S
N744 C740 1.427 1_655 S
N744 C741 1.384 . S
N745 C737 1.427 . S
N745 C743 1.384 . S
H746 C752 0.930 . S
H747 C756 0.930 . S
H748 C761 0.929 . S
H749 C759 0.929 . S
H750 C754 0.929 . S
H751 C760 0.929 . S
C752 H746 0.930 . S
C752 C753 1.367 . S
C752 C760 1.378 . S
C753 C752 1.367 . S
C753 C761 1.433 . S
C754 H750 0.929 . S
C754 C756 1.378 . S
C754 C758 1.350 . S
C755 C758 1.463 . S
C755 C760 1.350 . S
C755 N763 1.427 . S
C756 H747 0.930 . S
C756 C754 1.378 . S
C756 C757 1.367 . S
C757 C756 1.367 . S
C757 C759 1.433 . S
C758 C754 1.350 . S
C758 C755 1.463 . S
C758 N762 1.427 . S
C759 H749 0.929 . S
C759 C757 1.433 . S
C759 N762 1.384 . S
C760 H751 0.929 . S
C760 C752 1.378 . S
C760 C755 1.350 . S
C761 H748 0.929 . S
C761 C753 1.433 . S
C761 N763 1.384 . S
N762 C758 1.427 . S
N762 C759 1.384 . S
N763 C755 1.427 . S
N763 C761 1.384 . S
H764 C770 0.930 . S
H765 C774 0.930 . S
H766 C779 0.929 . S
H767 C777 0.929 . S
H768 C772 0.929 . S
H769 C778 0.929 . S
C770 H764 0.930 . S
C770 C771 1.367 . S
C770 C778 1.378 . S
C771 C770 1.367 . S
C771 C779 1.433 . S
C772 H768 0.929 . S
C772 C774 1.378 . S
C772 C776 1.350 . S
C773 C776 1.463 . S
C773 C778 1.350 . S
C773 N781 1.427 . S
C774 H765 0.930 . S
C774 C772 1.378 . S
C774 C775 1.367 . S
C775 C774 1.367 . S
C775 C777 1.433 . S
C776 C772 1.350 . S
C776 C773 1.463 . S
C776 N780 1.427 . S
C777 H767 0.929 . S
C777 C775 1.433 . S
C777 N780 1.384 . S
C778 H769 0.929 . S
C778 C770 1.378 . S
C778 C773 1.350 . S
C779 H766 0.929 . S
C779 C771 1.433 . S
C779 N781 1.384 . S
N780 C776 1.427 . S
N780 C777 1.384 . S
N781 C773 1.427 . S
N781 C779 1.384 . S
H782 C788 0.930 . S
H783 C792 0.930 . S
H784 C797 0.929 . S
H785 C795 0.929 . S
H786 C790 0.929 . S
H787 C796 0.929 . S
C788 H782 0.930 . S
C788 C789 1.367 . S
C788 C796 1.378 . S
C789 C788 1.367 . S
C789 C797 1.433 . S
C790 H786 0.929 . S
C790 C792 1.378 . S
C790 C794 1.350 . S
C791 C794 1.463 . S
C791 C796 1.350 . S
C791 N799 1.427 . S
C792 H783 0.930 . S
C792 C790 1.378 . S
C792 C793 1.367 . S
C793 C792 1.367 . S
C793 C795 1.433 . S
C794 C790 1.350 . S
C794 C791 1.463 . S
C794 N798 1.427 . S
C795 H785 0.929 . S
C795 C793 1.433 . S
C795 N798 1.384 . S
C796 H787 0.929 . S
C796 C788 1.378 . S
C796 C791 1.350 . S
C797 H784 0.929 . S
C797 C789 1.433 . S
C797 N799 1.384 . S
N798 C794 1.427 . S
N798 C795 1.384 . S
N799 C791 1.427 . S
N799 C797 1.384 . S
H800 C806 0.930 . S
H801 C810 0.930 1_455 S
H802 C815 0.929 . S
H803 C813 0.939 . S
H804 C808 0.929 . S
H805 C814 0.929 . S
C806 H800 0.930 . S
C806 C807 1.367 . S
C806 C814 1.378 . S
C807 C806 1.367 . S
C807 C815 1.433 . S
C808 H804 0.929 . S
C808 C810 1.378 . S
C808 C812 1.350 . S
C809 C812 1.463 . S
C809 C814 1.350 . S
C809 N817 1.427 . S
C810 H801 0.930 1_655 S
C810 C808 1.378 . S
C810 C811 1.367 . S
C811 C810 1.367 . S
C811 C813 1.433 . S
C812 C808 1.350 . S
C812 C809 1.463 . S
C812 N816 1.427 . S
C813 H803 0.939 . S
C813 C811 1.433 . S
C813 N816 1.384 . S
C814 H805 0.929 . S
C814 C806 1.378 . S
C814 C809 1.350 . S
C815 H802 0.929 . S
C815 C807 1.433 . S
C815 N817 1.384 . S
N816 C812 1.427 . S
N816 C813 1.384 . S
N817 C809 1.427 . S
N817 C815 1.384 . S
H818 C824 0.930 . S
H819 C828 0.930 . S
H820 C833 0.929 . S
H821 C831 0.929 . S
H822 C826 0.929 . S
H823 C832 0.929 . S
C824 H818 0.930 . S
C824 C825 1.367 . S
C824 C832 1.378 . S
C825 C824 1.367 . S
C825 C833 1.433 . S
C826 H822 0.929 . S
C826 C828 1.378 . S
C826 C830 1.350 . S
C827 C830 1.463 . S
C827 C832 1.350 . S
C827 N835 1.427 . S
C828 H819 0.930 . S
C828 C826 1.378 . S
C828 C829 1.367 . S
C829 C828 1.367 . S
C829 C831 1.433 . S
C830 C826 1.350 . S
C830 C827 1.463 . S
C830 N834 1.427 . S
C831 H821 0.929 . S
C831 C829 1.433 . S
C831 N834 1.384 . S
C832 H823 0.929 . S
C832 C824 1.378 . S
C832 C827 1.350 . S
C833 H820 0.929 . S
C833 C825 1.433 . S
C833 N835 1.384 . S
N834 C830 1.427 . S
N834 C831 1.384 . S
N835 C827 1.427 . S
N835 C833 1.384 . S
H836 C842 0.962 . S
H837 C846 0.930 . S
H838 C851 0.929 . S
H839 C849 0.929 . S
H840 C844 0.929 . S
H841 C850 0.929 . S
C842 H836 0.962 . S
C842 C843 1.342 1_565 S
C842 C850 1.372 . S
C843 C842 1.342 1_545 S
C843 C851 1.433 . S
C844 H840 0.929 . S
C844 C846 1.378 . S
C844 C848 1.350 . S
C845 C848 1.463 . S
C845 C850 1.350 1_545 S
C845 N853 1.427 . S
C846 H837 0.930 . S
C846 C844 1.378 . S
C846 C847 1.367 . S
C847 C846 1.367 . S
C847 C849 1.433 1_545 S
C848 C844 1.350 . S
C848 C845 1.463 . S
C848 N852 1.427 1_545 S
C849 H839 0.929 . S
C849 C847 1.433 1_565 S
C849 N852 1.384 . S
C850 H841 0.929 . S
C850 C842 1.372 . S
C850 C845 1.350 1_565 S
C851 H838 0.929 . S
C851 C843 1.433 . S
C851 N853 1.384 . S
N852 C848 1.427 1_565 S
N852 C849 1.384 . S
N853 C845 1.427 . S
N853 C851 1.384 . S
H854 C860 0.930 . S
H855 C864 0.930 . S
H856 C869 0.929 . S
H857 C867 0.929 . S
H858 C862 0.929 . S
H859 C868 0.929 . S
C860 H854 0.930 . S
C860 C861 1.367 . S
C860 C868 1.378 . S
C861 C860 1.367 . S
C861 C869 1.433 . S
C862 H858 0.929 . S
C862 C864 1.378 . S
C862 C866 1.350 . S
C863 C866 1.463 . S
C863 C868 1.350 . S
C863 N871 1.427 . S
C864 H855 0.930 . S
C864 C862 1.378 . S
C864 C865 1.367 . S
C865 C864 1.367 . S
C865 C867 1.433 . S
C866 C862 1.350 . S
C866 C863 1.463 . S
C866 N870 1.427 . S
C867 H857 0.929 . S
C867 C865 1.433 . S
C867 N870 1.384 . S
C868 H859 0.929 . S
C868 C860 1.378 . S
C868 C863 1.350 . S
C869 H856 0.929 . S
C869 C861 1.433 . S
C869 N871 1.384 . S
N870 C866 1.427 . S
N870 C867 1.384 . S
N871 C863 1.427 . S
N871 C869 1.384 . S
H872 C878 0.930 . S
H873 C882 0.930 1_565 S
H874 C887 0.929 . S
H875 C885 0.929 . S
H876 C880 0.929 1_565 S
H877 C886 0.929 . S
C878 H872 0.930 . S
C878 C879 1.367 . S
C878 C886 1.378 . S
C879 C878 1.367 . S
C879 C887 1.433 . S
C880 H876 0.929 1_545 S
C880 C882 1.378 . S
C880 C884 1.350 . S
C881 C884 1.463 . S
C881 C886 1.350 . S
C881 N889 1.427 . S
C882 H873 0.930 1_545 S
C882 C880 1.378 . S
C882 C883 1.367 . S
C883 C882 1.367 . S
C883 C885 1.433 . S
C884 C880 1.350 . S
C884 C881 1.463 . S
C884 N888 1.427 . S
C885 H875 0.929 . S
C885 C883 1.433 . S
C885 N888 1.384 . S
C886 H877 0.929 . S
C886 C878 1.378 . S
C886 C881 1.350 . S
C887 H874 0.929 . S
C887 C879 1.433 . S
C887 N889 1.384 . S
N888 C884 1.427 . S
N888 C885 1.384 . S
N889 C881 1.427 . S
N889 C887 1.384 . S
H890 C896 0.930 . S
H891 C900 0.930 . S
H892 C905 0.929 . S
H893 C903 0.929 . S
H894 C898 0.929 . S
H895 C904 0.929 . S
C896 H890 0.930 . S
C896 C897 1.367 . S
C896 C904 1.378 . S
C897 C896 1.367 . S
C897 C905 1.433 . S
C898 H894 0.929 . S
C898 C900 1.378 . S
C898 C902 1.350 . S
C899 C902 1.463 . S
C899 C904 1.350 . S
C899 N907 1.427 . S
C900 H891 0.930 . S
C900 C898 1.378 . S
C900 C901 1.367 . S
C901 C900 1.367 . S
C901 C903 1.433 . S
C902 C898 1.350 . S
C902 C899 1.463 . S
C902 N906 1.427 . S
C903 H893 0.929 . S
C903 C901 1.433 . S
C903 N906 1.384 . S
C904 H895 0.929 . S
C904 C896 1.378 . S
C904 C899 1.350 . S
C905 H892 0.929 . S
C905 C897 1.433 . S
C905 N907 1.384 . S
N906 C902 1.427 . S
N906 C903 1.384 . S
N907 C899 1.427 . S
N907 C905 1.384 . S
H908 C914 0.930 1_565 S
H909 C918 0.930 . S
H910 C923 0.929 . S
H911 C921 0.929 . S
H912 C916 0.929 . S
H913 C922 0.929 1_565 S
C914 H908 0.930 1_545 S
C914 C915 1.367 . S
C914 C922 1.378 . S
C915 C914 1.367 . S
C915 C923 1.433 . S
C916 H912 0.929 . S
C916 C918 1.378 . S
C916 C920 1.350 . S
C917 C920 1.463 . S
C917 C922 1.350 . S
C917 N925 1.427 . S
C918 H909 0.930 . S
C918 C916 1.378 . S
C918 C919 1.367 . S
C919 C918 1.367 . S
C919 C921 1.433 . S
C920 C916 1.350 . S
C920 C917 1.463 . S
C920 N924 1.427 . S
C921 H911 0.929 . S
C921 C919 1.433 . S
C921 N924 1.384 . S
C922 H913 0.929 1_545 S
C922 C914 1.378 . S
C922 C917 1.350 . S
C923 H910 0.929 . S
C923 C915 1.433 . S
C923 N925 1.384 . S
N924 C920 1.427 . S
N924 C921 1.384 . S
N925 C917 1.427 . S
N925 C923 1.384 . S
H926 C932 0.930 . S
H927 C936 0.930 . S
H928 C941 0.929 . S
H929 C939 0.929 . S
H930 C934 0.929 . S
H931 C940 0.929 . S
C932 H926 0.930 . S
C932 C933 1.367 . S
C932 C940 1.378 . S
C933 C932 1.367 . S
C933 C941 1.433 . S
C934 H930 0.929 . S
C934 C936 1.378 . S
C934 C938 1.350 . S
C935 C938 1.463 . S
C935 C940 1.350 . S
C935 N943 1.427 . S
C936 H927 0.930 . S
C936 C934 1.378 . S
C936 C937 1.367 . S
C937 C936 1.367 . S
C937 C939 1.433 . S
C938 C934 1.350 . S
C938 C935 1.463 . S
C938 N942 1.427 . S
C939 H929 0.929 . S
C939 C937 1.433 . S
C939 N942 1.384 . S
C940 H931 0.929 . S
C940 C932 1.378 . S
C940 C935 1.350 . S
C941 H928 0.929 . S
C941 C933 1.433 . S
C941 N943 1.384 . S
N942 C938 1.427 . S
N942 C939 1.384 . S
N943 C935 1.427 . S
N943 C941 1.384 . S
H944 C950 0.930 1_556 S
H945 C954 0.930 . S
H946 C959 0.929 . S
H947 C957 0.929 . S
H948 C952 0.929 1_545 S
H949 C958 0.929 1_556 S
C950 H944 0.930 1_554 S
C950 C951 1.367 . S
C950 C958 1.378 . S
C951 C950 1.367 . S
C951 C959 1.433 . S
C952 H948 0.929 1_565 S
C952 C954 1.378 1_565 S
C952 C956 1.350 . S
C953 C956 1.463 . S
C953 C958 1.350 . S
C953 N961 1.427 . S
C954 H945 0.930 . S
C954 C952 1.378 1_545 S
C954 C955 1.367 1_545 S
C955 C954 1.367 1_565 S
C955 C957 1.433 . S
C956 C952 1.350 . S
C956 C953 1.463 . S
C956 N960 1.427 . S
C957 H947 0.929 . S
C957 C955 1.433 . S
C957 N960 1.384 . S
C958 H949 0.929 1_554 S
C958 C950 1.378 . S
C958 C953 1.350 . S
C959 H946 0.929 . S
C959 C951 1.433 . S
C959 N961 1.384 . S
N960 C956 1.427 . S
N960 C957 1.384 . S
N961 C953 1.427 . S
N961 C959 1.384 . S
H962 C968 0.930 . S
H963 C972 0.930 . S
H964 C977 0.929 . S
H965 C975 0.929 . S
H966 C970 0.929 . S
H967 C976 0.929 . S
C968 H962 0.930 . S
C968 C969 1.367 1_556 S
C968 C976 1.378 . S
C969 C968 1.367 1_554 S
C969 C977 1.433 . S
C970 H966 0.929 . S
C970 C972 1.378 . S
C970 C974 1.350 . S
C971 C974 1.463 . S
C971 C976 1.350 1_554 S
C971 N979 1.427 . S
C972 H963 0.930 . S
C972 C970 1.378 . S
C972 C973 1.367 . S
C973 C972 1.367 . S
C973 C975 1.433 1_554 S
C974 C970 1.350 . S
C974 C971 1.463 . S
C974 N978 1.427 1_554 S
C975 H965 0.929 . S
C975 C973 1.433 1_556 S
C975 N978 1.384 . S
C976 H967 0.929 . S
C976 C968 1.378 . S
C976 C971 1.350 1_556 S
C977 H964 0.929 . S
C977 C969 1.433 . S
C977 N979 1.384 . S
N978 C974 1.427 1_556 S
N978 C975 1.384 . S
N979 C971 1.427 . S
N979 C977 1.384 . S
H980 C986 0.930 . S
H981 C990 0.930 . S
H982 C995 0.929 . S
H983 C993 0.929 . S
H984 C988 0.929 . S
H985 C994 0.929 . S
C986 H980 0.930 . S
C986 C987 1.367 . S
C986 C994 1.378 . S
C987 C986 1.367 . S
C987 C995 1.433 . S
C988 H984 0.929 . S
C988 C990 1.378 . S
C988 C992 1.350 . S
C989 C992 1.463 . S
C989 C994 1.350 . S
C989 N997 1.427 . S
C990 H981 0.930 . S
C990 C988 1.378 . S
C990 C991 1.367 . S
C991 C990 1.367 . S
C991 C993 1.433 . S
C992 C988 1.350 . S
C992 C989 1.463 . S
C992 N996 1.427 . S
C993 H983 0.929 . S
C993 C991 1.433 . S
C993 N996 1.384 . S
C994 H985 0.929 . S
C994 C986 1.378 . S
C994 C989 1.350 . S
C995 H982 0.929 . S
C995 C987 1.433 . S
C995 N997 1.384 . S
N996 C992 1.427 . S
N996 C993 1.384 . S
N997 C989 1.427 . S
N997 C995 1.384 . S
H998 C1004 0.930 . S
H999 C1008 0.930 . S
H1000 C1013 0.929 . S
H1001 C1011 0.929 . S
H1002 C1006 0.929 . S
H1003 C1012 0.929 . S
C1004 H998 0.930 . S
C1004 C1005 1.367 . S
C1004 C1012 1.378 . S
C1005 C1004 1.367 . S
C1005 C1013 1.433 . S
C1006 H1002 0.929 . S
C1006 C1008 1.378 . S
C1006 C1010 1.350 . S
C1007 C1010 1.463 . S
C1007 C1012 1.350 . S
C1007 N1015 1.427 . S
C1008 H999 0.930 . S
C1008 C1006 1.378 . S
C1008 C1009 1.367 . S
C1009 C1008 1.367 . S
C1009 C1011 1.433 . S
C1010 C1006 1.350 . S
C1010 C1007 1.463 . S
C1010 N1014 1.427 . S
C1011 H1001 0.929 . S
C1011 C1009 1.433 . S
C1011 N1014 1.384 . S
C1012 H1003 0.929 . S
C1012 C1004 1.378 . S
C1012 C1007 1.350 . S
C1013 H1000 0.929 . S
C1013 C1005 1.433 . S
C1013 N1015 1.384 . S
N1014 C1010 1.427 . S
N1014 C1011 1.384 . S
N1015 C1007 1.427 . S
N1015 C1013 1.384 . S
H1016 C1022 0.930 . S
H1017 C1026 0.930 . S
H1018 C1031 0.929 . S
H1019 C1029 0.929 . S
H1020 C1024 0.929 . S
H1021 C1030 0.929 . S
C1022 H1016 0.930 . S
C1022 C1023 1.367 . S
C1022 C1030 1.378 . S
C1023 C1022 1.367 . S
C1023 C1031 1.433 . S
C1024 H1020 0.929 . S
C1024 C1026 1.378 . S
C1024 C1028 1.350 . S
C1025 C1028 1.463 . S
C1025 C1030 1.350 . S
C1025 N1033 1.427 . S
C1026 H1017 0.930 . S
C1026 C1024 1.378 . S
C1026 C1027 1.367 . S
C1027 C1026 1.367 . S
C1027 C1029 1.433 . S
C1028 C1024 1.350 . S
C1028 C1025 1.463 . S
C1028 N1032 1.427 . S
C1029 H1019 0.929 . S
C1029 C1027 1.433 . S
C1029 N1032 1.384 . S
C1030 H1021 0.929 . S
C1030 C1022 1.378 . S
C1030 C1025 1.350 . S
C1031 H1018 0.929 . S
C1031 C1023 1.433 . S
C1031 N1033 1.384 . S
N1032 C1028 1.427 . S
N1032 C1029 1.384 . S
N1033 C1025 1.427 . S
N1033 C1031 1.384 . S
H1034 C1040 0.930 . S
H1035 C1044 0.930 . S
H1036 C1049 0.929 . S
H1037 C1047 0.929 . S
H1038 C1042 0.929 . S
H1039 C1048 0.929 . S
C1040 H1034 0.930 . S
C1040 C1041 1.367 . S
C1040 C1048 1.378 . S
C1041 C1040 1.367 . S
C1041 C1049 1.433 . S
C1042 H1038 0.929 . S
C1042 C1044 1.378 . S
C1042 C1046 1.350 . S
C1043 C1046 1.463 . S
C1043 C1048 1.350 . S
C1043 N1051 1.427 . S
C1044 H1035 0.930 . S
C1044 C1042 1.378 . S
C1044 C1045 1.367 . S
C1045 C1044 1.367 . S
C1045 C1047 1.433 . S
C1046 C1042 1.350 . S
C1046 C1043 1.463 . S
C1046 N1050 1.427 . S
C1047 H1037 0.929 . S
C1047 C1045 1.433 . S
C1047 N1050 1.384 . S
C1048 H1039 0.929 . S
C1048 C1040 1.378 . S
C1048 C1043 1.350 . S
C1049 H1036 0.929 . S
C1049 C1041 1.433 . S
C1049 N1051 1.384 . S
N1050 C1046 1.427 . S
N1050 C1047 1.384 . S
N1051 C1043 1.427 . S
N1051 C1049 1.384 . S
H1052 C1058 0.930 . S
H1053 C1062 0.930 . S
H1054 C1067 0.929 . S
H1055 C1065 0.929 . S
H1056 C1060 0.929 . S
H1057 C1066 0.929 . S
C1058 H1052 0.930 . S
C1058 C1059 1.367 . S
C1058 C1066 1.378 . S
C1059 C1058 1.367 . S
C1059 C1067 1.433 . S
C1060 H1056 0.929 . S
C1060 C1062 1.378 . S
C1060 C1064 1.350 . S
C1061 C1064 1.463 . S
C1061 C1066 1.350 . S
C1061 N1069 1.427 . S
C1062 H1053 0.930 . S
C1062 C1060 1.378 . S
C1062 C1063 1.367 . S
C1063 C1062 1.367 . S
C1063 C1065 1.433 . S
C1064 C1060 1.350 . S
C1064 C1061 1.463 . S
C1064 N1068 1.427 . S
C1065 H1055 0.929 . S
C1065 C1063 1.433 . S
C1065 N1068 1.384 . S
C1066 H1057 0.929 . S
C1066 C1058 1.378 . S
C1066 C1061 1.350 . S
C1067 H1054 0.929 . S
C1067 C1059 1.433 . S
C1067 N1069 1.384 . S
N1068 C1064 1.427 . S
N1068 C1065 1.384 . S
N1069 C1061 1.427 . S
N1069 C1067 1.384 . S
H1070 C1076 0.930 . S
H1071 C1080 0.930 . S
H1072 C1085 0.929 . S
H1073 C1083 0.929 . S
H1074 C1078 0.929 . S
H1075 C1084 0.929 . S
C1076 H1070 0.930 . S
C1076 C1077 1.367 . S
C1076 C1084 1.378 . S
C1077 C1076 1.367 . S
C1077 C1085 1.433 . S
C1078 H1074 0.929 . S
C1078 C1080 1.378 . S
C1078 C1082 1.350 . S
C1079 C1082 1.463 . S
C1079 C1084 1.350 . S
C1079 N1087 1.427 . S
C1080 H1071 0.930 . S
C1080 C1078 1.378 . S
C1080 C1081 1.367 . S
C1081 C1080 1.367 . S
C1081 C1083 1.433 . S
C1082 C1078 1.350 . S
C1082 C1079 1.463 . S
C1082 N1086 1.427 . S
C1083 H1073 0.929 . S
C1083 C1081 1.433 . S
C1083 N1086 1.384 . S
C1084 H1075 0.929 . S
C1084 C1076 1.378 . S
C1084 C1079 1.350 . S
C1085 H1072 0.929 . S
C1085 C1077 1.433 . S
C1085 N1087 1.384 . S
N1086 C1082 1.427 . S
N1086 C1083 1.384 . S
N1087 C1079 1.427 . S
N1087 C1085 1.384 . S
H1088 C1094 0.930 . S
H1089 C1098 0.930 . S
H1090 C1103 0.929 1_655 S
H1091 C1101 0.929 . S
H1092 C1096 0.929 . S
H1093 C1102 0.929 . S
C1094 H1088 0.930 . S
C1094 C1095 1.367 . S
C1094 C1102 1.378 . S
C1095 C1094 1.367 . S
C1095 C1103 1.433 . S
C1096 H1092 0.929 . S
C1096 C1098 1.378 . S
C1096 C1100 1.350 1_655 S
C1097 C1100 1.463 . S
C1097 C1102 1.350 . S
C1097 N1105 1.427 . S
C1098 H1089 0.930 . S
C1098 C1096 1.378 . S
C1098 C1099 1.367 1_655 S
C1099 C1098 1.367 1_455 S
C1099 C1101 1.433 . S
C1100 C1096 1.350 1_455 S
C1100 C1097 1.463 . S
C1100 N1104 1.427 . S
C1101 H1091 0.929 . S
C1101 C1099 1.433 . S
C1101 N1104 1.384 . S
C1102 H1093 0.929 . S
C1102 C1094 1.378 . S
C1102 C1097 1.350 . S
C1103 H1090 0.929 1_455 S
C1103 C1095 1.433 . S
C1103 N1105 1.384 . S
N1104 C1100 1.427 . S
N1104 C1101 1.384 . S
N1105 C1097 1.427 . S
N1105 C1103 1.384 . S
H1106 C1112 0.930 . S
H1107 C1116 0.930 . S
H1108 C1121 0.929 . S
H1109 C1119 0.929 . S
H1110 C1114 0.929 . S
H1111 C1120 0.929 . S
C1112 H1106 0.930 . S
C1112 C1113 1.367 . S
C1112 C1120 1.378 . S
C1113 C1112 1.367 . S
C1113 C1121 1.433 . S
C1114 H1110 0.929 . S
C1114 C1116 1.378 . S
C1114 C1118 1.350 . S
C1115 C1118 1.463 . S
C1115 C1120 1.350 . S
C1115 N1123 1.427 . S
C1116 H1107 0.930 . S
C1116 C1114 1.378 . S
C1116 C1117 1.367 . S
C1117 C1116 1.367 . S
C1117 C1119 1.433 . S
C1118 C1114 1.350 . S
C1118 C1115 1.463 . S
C1118 N1122 1.427 . S
C1119 H1109 0.929 . S
C1119 C1117 1.433 . S
C1119 N1122 1.384 . S
C1120 H1111 0.929 . S
C1120 C1112 1.378 . S
C1120 C1115 1.350 . S
C1121 H1108 0.929 . S
C1121 C1113 1.433 . S
C1121 N1123 1.384 . S
N1122 C1118 1.427 . S
N1122 C1119 1.384 . S
N1123 C1115 1.427 . S
N1123 C1121 1.384 . S
H1124 C1130 0.930 . S
H1125 C1134 0.930 . S
H1126 C1139 0.929 . S
H1127 C1137 0.929 . S
H1128 C1132 0.929 . S
H1129 C1138 0.929 . S
C1130 H1124 0.930 . S
C1130 C1131 1.367 . S
C1130 C1138 1.378 . S
C1131 C1130 1.367 . S
C1131 C1139 1.433 . S
C1132 H1128 0.929 . S
C1132 C1134 1.378 . S
C1132 C1136 1.350 . S
C1133 C1136 1.463 . S
C1133 C1138 1.350 . S
C1133 N1141 1.427 . S
C1134 H1125 0.930 . S
C1134 C1132 1.378 . S
C1134 C1135 1.367 . S
C1135 C1134 1.367 . S
C1135 C1137 1.433 . S
C1136 C1132 1.350 . S
C1136 C1133 1.463 . S
C1136 N1140 1.427 . S
C1137 H1127 0.929 . S
C1137 C1135 1.433 . S
C1137 N1140 1.384 . S
C1138 H1129 0.929 . S
C1138 C1130 1.378 . S
C1138 C1133 1.350 . S
C1139 H1126 0.929 . S
C1139 C1131 1.433 . S
C1139 N1141 1.384 . S
N1140 C1136 1.427 . S
N1140 C1137 1.384 . S
N1141 C1133 1.427 . S
N1141 C1139 1.384 . S
H1142 C1148 0.930 . S
H1143 C1152 0.930 . S
H1144 C1157 0.929 . S
H1145 C1155 0.929 . S
H1146 C1150 0.929 . S
H1147 C1156 0.929 . S
C1148 H1142 0.930 . S
C1148 C1149 1.367 . S
C1148 C1156 1.378 . S
C1149 C1148 1.367 . S
C1149 C1157 1.433 . S
C1150 H1146 0.929 . S
C1150 C1152 1.378 . S
C1150 C1154 1.350 . S
C1151 C1154 1.463 . S
C1151 C1156 1.350 . S
C1151 N1159 1.427 . S
C1152 H1143 0.930 . S
C1152 C1150 1.378 . S
C1152 C1153 1.367 . S
C1153 C1152 1.367 . S
C1153 C1155 1.433 . S
C1154 C1150 1.350 . S
C1154 C1151 1.463 . S
C1154 N1158 1.427 . S
C1155 H1145 0.929 . S
C1155 C1153 1.433 . S
C1155 N1158 1.384 . S
C1156 H1147 0.929 . S
C1156 C1148 1.378 . S
C1156 C1151 1.350 . S
C1157 H1144 0.929 . S
C1157 C1149 1.433 . S
C1157 N1159 1.384 . S
N1158 C1154 1.427 . S
N1158 C1155 1.384 . S
N1159 C1151 1.427 . S
N1159 C1157 1.384 . S
H1160 C1166 0.930 . S
H1161 C1170 0.930 . S
H1162 C1175 0.929 . S
H1163 C1173 0.929 . S
H1164 C1168 0.929 . S
H1165 C1174 0.929 . S
C1166 H1160 0.930 . S
C1166 C1167 1.367 . S
C1166 C1174 1.378 . S
C1167 C1166 1.367 . S
C1167 C1175 1.433 1_455 S
C1168 H1164 0.929 . S
C1168 C1170 1.378 . S
C1168 C1172 1.350 1_655 S
C1169 C1172 1.463 . S
C1169 C1174 1.350 . S
C1169 N1177 1.427 1_455 S
C1170 H1161 0.930 . S
C1170 C1168 1.378 . S
C1170 C1171 1.367 . S
C1171 C1170 1.367 . S
C1171 C1173 1.433 1_655 S
C1172 C1168 1.350 1_455 S
C1172 C1169 1.463 . S
C1172 N1176 1.427 . S
C1173 H1163 0.929 . S
C1173 C1171 1.433 1_455 S
C1173 N1176 1.384 . S
C1174 H1165 0.929 . S
C1174 C1166 1.378 . S
C1174 C1169 1.350 . S
C1175 H1162 0.929 . S
C1175 C1167 1.433 1_655 S
C1175 N1177 1.384 . S
N1176 C1172 1.427 . S
N1176 C1173 1.384 . S
N1177 C1169 1.427 1_655 S
N1177 C1175 1.384 . S
H1178 C1184 0.930 . S
H1179 C1188 0.930 . S
H1180 C1193 0.929 . S
H1181 C1191 0.929 . S
H1182 C1186 0.929 . S
H1183 C1192 0.929 . S
C1184 H1178 0.930 . S
C1184 C1185 1.367 . S
C1184 C1192 1.378 . S
C1185 C1184 1.367 . S
C1185 C1193 1.433 . S
C1186 H1182 0.929 . S
C1186 C1188 1.378 . S
C1186 C1190 1.350 . S
C1187 C1190 1.463 . S
C1187 C1192 1.350 . S
C1187 N1195 1.427 . S
C1188 H1179 0.930 . S
C1188 C1186 1.378 . S
C1188 C1189 1.367 . S
C1189 C1188 1.367 . S
C1189 C1191 1.433 . S
C1190 C1186 1.350 . S
C1190 C1187 1.463 . S
C1190 N1194 1.427 . S
C1191 H1181 0.929 . S
C1191 C1189 1.433 . S
C1191 N1194 1.384 . S
C1192 H1183 0.929 . S
C1192 C1184 1.378 . S
C1192 C1187 1.350 . S
C1193 H1180 0.929 . S
C1193 C1185 1.433 . S
C1193 N1195 1.384 . S
N1194 C1190 1.427 . S
N1194 C1191 1.384 . S
N1195 C1187 1.427 . S
N1195 C1193 1.384 . S
H1196 C1202 0.930 . S
H1197 C1206 0.930 . S
H1198 C1211 0.929 . S
H1199 C1209 0.929 . S
H1200 C1204 0.929 . S
H1201 C1210 0.929 . S
C1202 H1196 0.930 . S
C1202 C1203 1.367 . S
C1202 C1210 1.378 . S
C1203 C1202 1.367 . S
C1203 C1211 1.433 . S
C1204 H1200 0.929 . S
C1204 C1206 1.378 . S
C1204 C1208 1.350 . S
C1205 C1208 1.463 . S
C1205 C1210 1.350 . S
C1205 N1213 1.427 . S
C1206 H1197 0.930 . S
C1206 C1204 1.378 . S
C1206 C1207 1.367 . S
C1207 C1206 1.367 . S
C1207 C1209 1.433 . S
C1208 C1204 1.350 . S
C1208 C1205 1.463 . S
C1208 N1212 1.427 . S
C1209 H1199 0.929 . S
C1209 C1207 1.433 . S
C1209 N1212 1.384 . S
C1210 H1201 0.929 . S
C1210 C1202 1.378 . S
C1210 C1205 1.350 . S
C1211 H1198 0.929 . S
C1211 C1203 1.433 . S
C1211 N1213 1.384 . S
N1212 C1208 1.427 . S
N1212 C1209 1.384 . S
N1213 C1205 1.427 . S
N1213 C1211 1.384 . S
H1214 C1220 0.930 . S
H1215 C1224 0.930 . S
H1216 C1229 0.929 . S
H1217 C1227 0.929 . S
H1218 C1222 0.929 . S
H1219 C1228 0.929 . S
C1220 H1214 0.930 . S
C1220 C1221 1.367 . S
C1220 C1228 1.378 . S
C1221 C1220 1.367 . S
C1221 C1229 1.433 . S
C1222 H1218 0.929 . S
C1222 C1224 1.378 . S
C1222 C1226 1.350 . S
C1223 C1226 1.463 . S
C1223 C1228 1.350 . S
C1223 N1231 1.427 . S
C1224 H1215 0.930 . S
C1224 C1222 1.378 . S
C1224 C1225 1.367 . S
C1225 C1224 1.367 . S
C1225 C1227 1.433 . S
C1226 C1222 1.350 . S
C1226 C1223 1.463 . S
C1226 N1230 1.427 . S
C1227 H1217 0.929 . S
C1227 C1225 1.433 . S
C1227 N1230 1.384 . S
C1228 H1219 0.929 . S
C1228 C1220 1.378 . S
C1228 C1223 1.350 . S
C1229 H1216 0.929 . S
C1229 C1221 1.433 . S
C1229 N1231 1.384 . S
N1230 C1226 1.427 . S
N1230 C1227 1.384 . S
N1231 C1223 1.427 . S
N1231 C1229 1.384 . S
H1232 C1238 0.930 . S
H1233 C1242 0.930 . S
H1234 C1247 0.929 . S
H1235 C1245 0.929 . S
H1236 C1240 0.929 . S
H1237 C1246 0.929 . S
C1238 H1232 0.930 . S
C1238 C1239 1.367 . S
C1238 C1246 1.378 . S
C1239 C1238 1.367 . S
C1239 C1247 1.433 . S
C1240 H1236 0.929 . S
C1240 C1242 1.378 . S
C1240 C1244 1.350 . S
C1241 C1244 1.463 . S
C1241 C1246 1.350 . S
C1241 N1249 1.427 . S
C1242 H1233 0.930 . S
C1242 C1240 1.378 . S
C1242 C1243 1.367 . S
C1243 C1242 1.367 . S
C1243 C1245 1.433 . S
C1244 C1240 1.350 . S
C1244 C1241 1.463 . S
C1244 N1248 1.427 . S
C1245 H1235 0.929 . S
C1245 C1243 1.433 . S
C1245 N1248 1.384 . S
C1246 H1237 0.929 . S
C1246 C1238 1.378 . S
C1246 C1241 1.350 . S
C1247 H1234 0.929 . S
C1247 C1239 1.433 . S
C1247 N1249 1.384 . S
N1248 C1244 1.427 . S
N1248 C1245 1.384 . S
N1249 C1241 1.427 . S
N1249 C1247 1.384 . S
H1250 C1256 0.930 . S
H1251 C1260 0.930 . S
H1252 C1265 0.929 . S
H1253 C1263 0.929 . S
H1254 C1258 0.929 . S
H1255 C1264 0.929 . S
C1256 H1250 0.930 . S
C1256 C1257 1.367 . S
C1256 C1264 1.378 . S
C1257 C1256 1.367 . S
C1257 C1265 1.433 . S
C1258 H1254 0.929 . S
C1258 C1260 1.378 . S
C1258 C1262 1.350 . S
C1259 C1262 1.463 . S
C1259 C1264 1.350 . S
C1259 N1267 1.427 . S
C1260 H1251 0.930 . S
C1260 C1258 1.378 . S
C1260 C1261 1.367 . S
C1261 C1260 1.367 . S
C1261 C1263 1.433 . S
C1262 C1258 1.350 . S
C1262 C1259 1.463 . S
C1262 N1266 1.427 . S
C1263 H1253 0.929 . S
C1263 C1261 1.433 . S
C1263 N1266 1.384 . S
C1264 H1255 0.929 . S
C1264 C1256 1.378 . S
C1264 C1259 1.350 . S
C1265 H1252 0.929 . S
C1265 C1257 1.433 . S
C1265 N1267 1.384 . S
N1266 C1262 1.427 . S
N1266 C1263 1.384 . S
N1267 C1259 1.427 . S
N1267 C1265 1.384 . S
H1268 C1274 0.930 . S
H1269 C1278 0.930 1_565 S
H1270 C1283 0.929 1_565 S
H1271 C1281 0.929 . S
H1272 C1276 0.929 1_565 S
H1273 C1282 0.929 . S
C1274 H1268 0.930 . S
C1274 C1275 1.367 . S
C1274 C1282 1.378 . S
C1275 C1274 1.367 . S
C1275 C1283 1.433 . S
C1276 H1272 0.929 1_545 S
C1276 C1278 1.378 . S
C1276 C1280 1.350 . S
C1277 C1280 1.463 . S
C1277 C1282 1.350 . S
C1277 N1285 1.427 . S
C1278 H1269 0.930 1_545 S
C1278 C1276 1.378 . S
C1278 C1279 1.367 . S
C1279 C1278 1.367 . S
C1279 C1281 1.433 . S
C1280 C1276 1.350 . S
C1280 C1277 1.463 . S
C1280 N1284 1.427 . S
C1281 H1271 0.929 . S
C1281 C1279 1.433 . S
C1281 N1284 1.384 . S
C1282 H1273 0.929 . S
C1282 C1274 1.378 . S
C1282 C1277 1.350 . S
C1283 H1270 0.929 1_545 S
C1283 C1275 1.433 . S
C1283 N1285 1.384 . S
N1284 C1280 1.427 . S
N1284 C1281 1.384 . S
N1285 C1277 1.427 . S
N1285 C1283 1.384 . S
H1286 C1292 0.930 . S
H1287 C1296 0.930 . S
H1288 C1301 0.929 . S
H1289 C1299 0.929 . S
H1290 C1294 0.929 . S
H1291 C1300 0.929 . S
C1292 H1286 0.930 . S
C1292 C1293 1.367 . S
C1292 C1300 1.378 . S
C1293 C1292 1.367 . S
C1293 C1301 1.433 . S
C1294 H1290 0.929 . S
C1294 C1296 1.378 . S
C1294 C1298 1.350 . S
C1295 C1298 1.463 . S
C1295 C1300 1.350 . S
C1295 N1303 1.427 . S
C1296 H1287 0.930 . S
C1296 C1294 1.378 . S
C1296 C1297 1.367 . S
C1297 C1296 1.367 . S
C1297 C1299 1.433 . S
C1298 C1294 1.350 . S
C1298 C1295 1.463 . S
C1298 N1302 1.427 . S
C1299 H1289 0.929 . S
C1299 C1297 1.433 . S
C1299 N1302 1.384 . S
C1300 H1291 0.929 . S
C1300 C1292 1.378 . S
C1300 C1295 1.350 . S
C1301 H1288 0.929 . S
C1301 C1293 1.433 . S
C1301 N1303 1.384 . S
N1302 C1298 1.427 . S
N1302 C1299 1.384 . S
N1303 C1295 1.427 . S
N1303 C1301 1.384 . S
H1304 C1310 0.930 . S
H1305 C1314 0.945 . S
H1306 C1319 0.929 . S
H1307 C1317 0.929 . S
H1308 C1312 0.929 . S
H1309 C1318 0.929 . S
C1310 H1304 0.930 . S
C1310 C1311 1.367 1_545 S
C1310 C1318 1.378 . S
C1311 C1310 1.367 1_565 S
C1311 C1319 1.433 . S
C1312 H1308 0.929 . S
C1312 C1314 1.390 . S
C1312 C1316 1.350 1_565 S
C1313 C1316 1.463 . S
C1313 C1318 1.350 . S
C1313 N1321 1.427 1_545 S
C1314 H1305 0.945 . S
C1314 C1312 1.390 . S
C1314 C1315 1.341 1_565 S
C1315 C1314 1.341 1_545 S
C1315 C1317 1.433 . S
C1316 C1312 1.350 1_545 S
C1316 C1313 1.463 . S
C1316 N1320 1.427 . S
C1317 H1307 0.929 . S
C1317 C1315 1.433 . S
C1317 N1320 1.384 . S
C1318 H1309 0.929 . S
C1318 C1310 1.378 . S
C1318 C1313 1.350 . S
C1319 H1306 0.929 . S
C1319 C1311 1.433 . S
C1319 N1321 1.384 . S
N1320 C1316 1.427 . S
N1320 C1317 1.384 . S
N1321 C1313 1.427 1_565 S
N1321 C1319 1.384 . S
H1322 C1328 0.930 . S
H1323 C1332 0.930 . S
H1324 C1337 0.929 . S
H1325 C1335 0.929 . S
H1326 C1330 0.929 . S
H1327 C1336 0.929 . S
C1328 H1322 0.930 . S
C1328 C1329 1.367 . S
C1328 C1336 1.378 . S
C1329 C1328 1.367 . S
C1329 C1337 1.433 . S
C1330 H1326 0.929 . S
C1330 C1332 1.378 . S
C1330 C1334 1.350 . S
C1331 C1334 1.463 . S
C1331 C1336 1.350 . S
C1331 N1339 1.427 . S
C1332 H1323 0.930 . S
C1332 C1330 1.378 . S
C1332 C1333 1.367 . S
C1333 C1332 1.367 . S
C1333 C1335 1.433 . S
C1334 C1330 1.350 . S
C1334 C1331 1.463 . S
C1334 N1338 1.427 . S
C1335 H1325 0.929 . S
C1335 C1333 1.433 . S
C1335 N1338 1.384 . S
C1336 H1327 0.929 . S
C1336 C1328 1.378 . S
C1336 C1331 1.350 . S
C1337 H1324 0.929 . S
C1337 C1329 1.433 . S
C1337 N1339 1.384 . S
N1338 C1334 1.427 . S
N1338 C1335 1.384 . S
N1339 C1331 1.427 . S
N1339 C1337 1.384 . S
H1340 C1346 0.930 . S
H1341 C1350 0.930 . S
H1342 C1355 0.929 . S
H1343 C1353 0.929 . S
H1344 C1348 0.929 . S
H1345 C1354 0.929 . S
C1346 H1340 0.930 . S
C1346 C1347 1.367 . S
C1346 C1354 1.378 . S
C1347 C1346 1.367 . S
C1347 C1355 1.433 1_545 S
C1348 H1344 0.929 . S
C1348 C1350 1.378 . S
C1348 C1352 1.350 1_565 S
C1349 C1352 1.463 . S
C1349 C1354 1.350 . S
C1349 N1357 1.427 1_545 S
C1350 H1341 0.930 . S
C1350 C1348 1.378 . S
C1350 C1351 1.367 . S
C1351 C1350 1.367 . S
C1351 C1353 1.433 1_565 S
C1352 C1348 1.350 1_545 S
C1352 C1349 1.463 . S
C1352 N1356 1.427 . S
C1353 H1343 0.929 . S
C1353 C1351 1.433 1_545 S
C1353 N1356 1.384 . S
C1354 H1345 0.929 . S
C1354 C1346 1.378 . S
C1354 C1349 1.350 . S
C1355 H1342 0.929 . S
C1355 C1347 1.433 1_565 S
C1355 N1357 1.384 . S
N1356 C1352 1.427 . S
N1356 C1353 1.384 . S
N1357 C1349 1.427 1_565 S
N1357 C1355 1.384 . S
H1358 C1364 0.930 . S
H1359 C1368 0.930 . S
H1360 C1373 0.929 . S
H1361 C1371 0.929 . S
H1362 C1366 0.929 . S
H1363 C1372 0.929 . S
C1364 H1358 0.930 . S
C1364 C1365 1.367 . S
C1364 C1372 1.378 . S
C1365 C1364 1.367 . S
C1365 C1373 1.433 . S
C1366 H1362 0.929 . S
C1366 C1368 1.378 . S
C1366 C1370 1.350 . S
C1367 C1370 1.463 . S
C1367 C1372 1.350 . S
C1367 N1375 1.427 . S
C1368 H1359 0.930 . S
C1368 C1366 1.378 . S
C1368 C1369 1.367 . S
C1369 C1368 1.367 . S
C1369 C1371 1.433 . S
C1370 C1366 1.350 . S
C1370 C1367 1.463 . S
C1370 N1374 1.427 . S
C1371 H1361 0.929 . S
C1371 C1369 1.433 . S
C1371 N1374 1.384 . S
C1372 H1363 0.929 . S
C1372 C1364 1.378 . S
C1372 C1367 1.350 . S
C1373 H1360 0.929 . S
C1373 C1365 1.433 . S
C1373 N1375 1.384 . S
N1374 C1370 1.427 . S
N1374 C1371 1.384 . S
N1375 C1367 1.427 . S
N1375 C1373 1.384 . S
H1376 C1382 0.930 . S
H1377 C1386 0.930 . S
H1378 C1391 0.929 . S
H1379 C1389 0.929 1_554 S
H1380 C1384 0.929 . S
H1381 C1390 0.929 . S
C1382 H1376 0.930 . S
C1382 C1383 1.353 1_554 S
C1382 C1390 1.378 . S
C1383 C1382 1.353 1_556 S
C1383 C1391 1.450 . S
C1384 H1380 0.929 . S
C1384 C1386 1.378 . S
C1384 C1388 1.350 . S
C1385 C1388 1.463 . S
C1385 C1390 1.350 1_556 S
C1385 N1393 1.427 . S
C1386 H1377 0.930 . S
C1386 C1384 1.378 . S
C1386 C1387 1.367 . S
C1387 C1386 1.367 . S
C1387 C1389 1.433 . S
C1388 C1384 1.350 . S
C1388 C1385 1.463 . S
C1388 N1392 1.427 . S
C1389 H1379 0.929 1_556 S
C1389 C1387 1.433 . S
C1389 N1392 1.384 . S
C1390 H1381 0.929 . S
C1390 C1382 1.378 . S
C1390 C1385 1.350 1_554 S
C1391 H1378 0.929 . S
C1391 C1383 1.450 . S
C1391 N1393 1.384 . S
N1392 C1388 1.427 . S
N1392 C1389 1.384 . S
N1393 C1385 1.427 . S
N1393 C1391 1.384 . S
H1394 C1400 0.930 . S
H1395 C1404 0.930 . S
H1396 C1409 0.929 . S
H1397 C1407 0.929 . S
H1398 C1402 0.929 . S
H1399 C1408 0.929 . S
C1400 H1394 0.930 . S
C1400 C1401 1.367 . S
C1400 C1408 1.378 . S
C1401 C1400 1.367 . S
C1401 C1409 1.433 1_554 S
C1402 H1398 0.929 . S
C1402 C1404 1.378 . S
C1402 C1406 1.350 1_556 S
C1403 C1406 1.463 . S
C1403 C1408 1.350 . S
C1403 N1411 1.427 1_554 S
C1404 H1395 0.930 . S
C1404 C1402 1.378 . S
C1404 C1405 1.367 1_556 S
C1405 C1404 1.367 1_554 S
C1405 C1407 1.433 . S
C1406 C1402 1.350 1_554 S
C1406 C1403 1.463 . S
C1406 N1410 1.427 . S
C1407 H1397 0.929 . S
C1407 C1405 1.433 . S
C1407 N1410 1.384 . S
C1408 H1399 0.929 . S
C1408 C1400 1.378 . S
C1408 C1403 1.350 . S
C1409 H1396 0.929 . S
C1409 C1401 1.433 1_556 S
C1409 N1411 1.384 . S
N1410 C1406 1.427 . S
N1410 C1407 1.384 . S
N1411 C1403 1.427 1_556 S
N1411 C1409 1.384 . S
H1412 C1418 0.930 . S
H1413 C1422 0.930 . S
H1414 C1427 0.929 . S
H1415 C1425 0.929 . S
H1416 C1420 0.929 . S
H1417 C1426 0.929 . S
C1418 H1412 0.930 . S
C1418 C1419 1.367 . S
C1418 C1426 1.378 . S
C1419 C1418 1.367 . S
C1419 C1427 1.433 . S
C1420 H1416 0.929 . S
C1420 C1422 1.378 . S
C1420 C1424 1.350 . S
C1421 C1424 1.463 . S
C1421 C1426 1.350 . S
C1421 N1429 1.427 . S
C1422 H1413 0.930 . S
C1422 C1420 1.378 . S
C1422 C1423 1.367 . S
C1423 C1422 1.367 . S
C1423 C1425 1.433 . S
C1424 C1420 1.350 . S
C1424 C1421 1.463 . S
C1424 N1428 1.427 . S
C1425 H1415 0.929 . S
C1425 C1423 1.433 . S
C1425 N1428 1.384 . S
C1426 H1417 0.929 . S
C1426 C1418 1.378 . S
C1426 C1421 1.350 . S
C1427 H1414 0.929 . S
C1427 C1419 1.433 . S
C1427 N1429 1.384 . S
N1428 C1424 1.427 . S
N1428 C1425 1.384 . S
N1429 C1421 1.427 . S
N1429 C1427 1.384 . S
H1430 C1436 0.930 . S
H1431 C1440 0.930 . S
H1432 C1445 0.929 . S
H1433 C1443 0.929 . S
H1434 C1438 0.929 . S
H1435 C1444 0.929 . S
C1436 H1430 0.930 . S
C1436 C1437 1.367 . S
C1436 C1444 1.378 . S
C1437 C1436 1.367 . S
C1437 C1445 1.433 . S
C1438 H1434 0.929 . S
C1438 C1440 1.378 . S
C1438 C1442 1.350 . S
C1439 C1442 1.463 . S
C1439 C1444 1.350 . S
C1439 N1447 1.427 . S
C1440 H1431 0.930 . S
C1440 C1438 1.378 . S
C1440 C1441 1.367 . S
C1441 C1440 1.367 . S
C1441 C1443 1.433 . S
C1442 C1438 1.350 . S
C1442 C1439 1.463 . S
C1442 N1446 1.427 . S
C1443 H1433 0.929 . S
C1443 C1441 1.433 . S
C1443 N1446 1.384 . S
C1444 H1435 0.929 . S
C1444 C1436 1.378 . S
C1444 C1439 1.350 . S
C1445 H1432 0.929 . S
C1445 C1437 1.433 . S
C1445 N1447 1.384 . S
N1446 C1442 1.427 . S
N1446 C1443 1.384 . S
N1447 C1439 1.427 . S
N1447 C1445 1.384 . S
H1448 C1454 0.930 . S
H1449 C1458 0.930 . S
H1450 C1463 0.929 . S
H1451 C1461 0.929 . S
H1452 C1456 0.929 . S
H1453 C1462 0.929 . S
C1454 H1448 0.930 . S
C1454 C1455 1.367 . S
C1454 C1462 1.378 . S
C1455 C1454 1.367 . S
C1455 C1463 1.433 . S
C1456 H1452 0.929 . S
C1456 C1458 1.378 . S
C1456 C1460 1.350 . S
C1457 C1460 1.463 . S
C1457 C1462 1.350 . S
C1457 N1465 1.427 . S
C1458 H1449 0.930 . S
C1458 C1456 1.378 . S
C1458 C1459 1.367 . S
C1459 C1458 1.367 . S
C1459 C1461 1.433 . S
C1460 C1456 1.350 . S
C1460 C1457 1.463 . S
C1460 N1464 1.427 . S
C1461 H1451 0.929 . S
C1461 C1459 1.433 . S
C1461 N1464 1.384 . S
C1462 H1453 0.929 . S
C1462 C1454 1.378 . S
C1462 C1457 1.350 . S
C1463 H1450 0.929 . S
C1463 C1455 1.433 . S
C1463 N1465 1.384 . S
N1464 C1460 1.427 . S
N1464 C1461 1.384 . S
N1465 C1457 1.427 . S
N1465 C1463 1.384 . S
H1466 C1472 0.930 . S
H1467 C1476 0.930 1_545 S
H1468 C1481 0.929 . S
H1469 C1479 0.929 . S
H1470 C1474 0.929 . S
H1471 C1480 0.929 . S
C1472 H1466 0.930 . S
C1472 C1473 1.367 . S
C1472 C1480 1.378 . S
C1473 C1472 1.367 . S
C1473 C1481 1.433 . S
C1474 H1470 0.929 . S
C1474 C1476 1.378 . S
C1474 C1478 1.350 . S
C1475 C1478 1.463 . S
C1475 C1480 1.350 . S
C1475 N1483 1.427 . S
C1476 H1467 0.930 1_565 S
C1476 C1474 1.378 . S
C1476 C1477 1.367 . S
C1477 C1476 1.367 . S
C1477 C1479 1.433 . S
C1478 C1474 1.350 . S
C1478 C1475 1.463 . S
C1478 N1482 1.427 . S
C1479 H1469 0.929 . S
C1479 C1477 1.433 . S
C1479 N1482 1.384 . S
C1480 H1471 0.929 . S
C1480 C1472 1.378 . S
C1480 C1475 1.350 . S
C1481 H1468 0.929 . S
C1481 C1473 1.433 . S
C1481 N1483 1.384 . S
N1482 C1478 1.427 . S
N1482 C1479 1.384 . S
N1483 C1475 1.427 . S
N1483 C1481 1.384 . S
H1484 C1490 0.930 . S
H1485 C1494 0.930 . S
H1486 C1499 0.929 . S
H1487 C1497 0.929 . S
H1488 C1492 0.929 . S
H1489 C1498 0.929 . S
C1490 H1484 0.930 . S
C1490 C1491 1.367 . S
C1490 C1498 1.378 . S
C1491 C1490 1.367 . S
C1491 C1499 1.433 . S
C1492 H1488 0.929 . S
C1492 C1494 1.378 . S
C1492 C1496 1.350 . S
C1493 C1496 1.463 . S
C1493 C1498 1.350 . S
C1493 N1501 1.427 . S
C1494 H1485 0.930 . S
C1494 C1492 1.378 . S
C1494 C1495 1.367 . S
C1495 C1494 1.367 . S
C1495 C1497 1.433 . S
C1496 C1492 1.350 . S
C1496 C1493 1.463 . S
C1496 N1500 1.427 . S
C1497 H1487 0.929 . S
C1497 C1495 1.433 . S
C1497 N1500 1.384 . S
C1498 H1489 0.929 . S
C1498 C1490 1.378 . S
C1498 C1493 1.350 . S
C1499 H1486 0.929 . S
C1499 C1491 1.433 . S
C1499 N1501 1.384 . S
N1500 C1496 1.427 . S
N1500 C1497 1.384 . S
N1501 C1493 1.427 . S
N1501 C1499 1.384 . S
H1502 C1508 0.930 . S
H1503 C1512 0.930 . S
H1504 C1517 0.929 . S
H1505 C1515 0.929 . S
H1506 C1510 0.929 . S
H1507 C1516 0.929 . S
C1508 H1502 0.930 . S
C1508 C1509 1.367 . S
C1508 C1516 1.378 . S
C1509 C1508 1.367 . S
C1509 C1517 1.433 . S
C1510 H1506 0.929 . S
C1510 C1512 1.378 . S
C1510 C1514 1.350 . S
C1511 C1514 1.463 . S
C1511 C1516 1.350 . S
C1511 N1519 1.427 . S
C1512 H1503 0.930 . S
C1512 C1510 1.378 . S
C1512 C1513 1.367 . S
C1513 C1512 1.367 . S
C1513 C1515 1.433 . S
C1514 C1510 1.350 . S
C1514 C1511 1.463 . S
C1514 N1518 1.427 . S
C1515 H1505 0.929 . S
C1515 C1513 1.433 . S
C1515 N1518 1.384 . S
C1516 H1507 0.929 . S
C1516 C1508 1.378 . S
C1516 C1511 1.350 . S
C1517 H1504 0.929 . S
C1517 C1509 1.433 . S
C1517 N1519 1.384 . S
N1518 C1514 1.427 . S
N1518 C1515 1.384 . S
N1519 C1511 1.427 . S
N1519 C1517 1.384 . S
H1520 C1526 0.930 . S
H1521 C1530 0.930 . S
H1522 C1535 0.929 . S
H1523 C1533 0.929 . S
H1524 C1528 0.929 . S
H1525 C1534 0.929 . S
C1526 H1520 0.930 . S
C1526 C1527 1.367 . S
C1526 C1534 1.378 . S
C1527 C1526 1.367 . S
C1527 C1535 1.433 . S
C1528 H1524 0.929 . S
C1528 C1530 1.378 . S
C1528 C1532 1.350 . S
C1529 C1532 1.463 . S
C1529 C1534 1.350 . S
C1529 N1537 1.427 . S
C1530 H1521 0.930 . S
C1530 C1528 1.378 . S
C1530 C1531 1.367 . S
C1531 C1530 1.367 . S
C1531 C1533 1.433 . S
C1532 C1528 1.350 . S
C1532 C1529 1.463 . S
C1532 N1536 1.427 . S
C1533 H1523 0.929 . S
C1533 C1531 1.433 . S
C1533 N1536 1.384 . S
C1534 H1525 0.929 . S
C1534 C1526 1.378 . S
C1534 C1529 1.350 . S
C1535 H1522 0.929 . S
C1535 C1527 1.433 . S
C1535 N1537 1.384 . S
N1536 C1532 1.427 . S
N1536 C1533 1.384 . S
N1537 C1529 1.427 . S
N1537 C1535 1.384 . S
H1538 C1544 0.930 . S
H1539 C1548 0.930 . S
H1540 C1553 0.929 . S
H1541 C1551 0.929 . S
H1542 C1546 0.929 . S
H1543 C1552 0.929 . S
C1544 H1538 0.930 . S
C1544 C1545 1.367 . S
C1544 C1552 1.378 . S
C1545 C1544 1.367 . S
C1545 C1553 1.433 . S
C1546 H1542 0.929 . S
C1546 C1548 1.378 . S
C1546 C1550 1.350 . S
C1547 C1550 1.463 . S
C1547 C1552 1.350 . S
C1547 N1555 1.427 . S
C1548 H1539 0.930 . S
C1548 C1546 1.378 . S
C1548 C1549 1.367 . S
C1549 C1548 1.367 . S
C1549 C1551 1.433 . S
C1550 C1546 1.350 . S
C1550 C1547 1.463 . S
C1550 N1554 1.427 . S
C1551 H1541 0.929 . S
C1551 C1549 1.433 . S
C1551 N1554 1.384 . S
C1552 H1543 0.929 . S
C1552 C1544 1.378 . S
C1552 C1547 1.350 . S
C1553 H1540 0.929 . S
C1553 C1545 1.433 . S
C1553 N1555 1.384 . S
N1554 C1550 1.427 . S
N1554 C1551 1.384 . S
N1555 C1547 1.427 . S
N1555 C1553 1.384 . S
H1556 C1562 0.930 . S
H1557 C1566 0.930 . S
H1558 C1571 0.929 . S
H1559 C1569 0.929 . S
H1560 C1564 0.929 . S
H1561 C1570 0.929 . S
C1562 H1556 0.930 . S
C1562 C1563 1.367 . S
C1562 C1570 1.378 . S
C1563 C1562 1.367 . S
C1563 C1571 1.433 1_455 S
C1564 H1560 0.929 . S
C1564 C1566 1.378 . S
C1564 C1568 1.350 1_655 S
C1565 C1568 1.463 . S
C1565 C1570 1.350 . S
C1565 N1573 1.427 1_455 S
C1566 H1557 0.930 . S
C1566 C1564 1.378 . S
C1566 C1567 1.367 1_655 S
C1567 C1566 1.367 1_455 S
C1567 C1569 1.433 . S
C1568 C1564 1.350 1_455 S
C1568 C1565 1.463 . S
C1568 N1572 1.427 . S
C1569 H1559 0.929 . S
C1569 C1567 1.433 . S
C1569 N1572 1.384 . S
C1570 H1561 0.929 . S
C1570 C1562 1.378 . S
C1570 C1565 1.350 . S
C1571 H1558 0.929 . S
C1571 C1563 1.433 1_655 S
C1571 N1573 1.384 . S
N1572 C1568 1.427 . S
N1572 C1569 1.384 . S
N1573 C1565 1.427 1_655 S
N1573 C1571 1.384 . S
H1574 C1580 0.930 . S
H1575 C1584 0.930 . S
H1576 C1589 0.929 . S
H1577 C1587 0.929 . S
H1578 C1582 0.929 . S
H1579 C1588 0.929 . S
C1580 H1574 0.930 . S
C1580 C1581 1.367 . S
C1580 C1588 1.378 . S
C1581 C1580 1.367 . S
C1581 C1589 1.433 . S
C1582 H1578 0.929 . S
C1582 C1584 1.378 . S
C1582 C1586 1.350 . S
C1583 C1586 1.463 . S
C1583 C1588 1.350 . S
C1583 N1591 1.427 . S
C1584 H1575 0.930 . S
C1584 C1582 1.378 . S
C1584 C1585 1.367 . S
C1585 C1584 1.367 . S
C1585 C1587 1.433 . S
C1586 C1582 1.350 . S
C1586 C1583 1.463 . S
C1586 N1590 1.427 . S
C1587 H1577 0.929 . S
C1587 C1585 1.433 . S
C1587 N1590 1.384 . S
C1588 H1579 0.929 . S
C1588 C1580 1.378 . S
C1588 C1583 1.350 . S
C1589 H1576 0.929 . S
C1589 C1581 1.433 . S
C1589 N1591 1.384 . S
N1590 C1586 1.427 . S
N1590 C1587 1.384 . S
N1591 C1583 1.427 . S
N1591 C1589 1.384 . S
H1592 C1598 0.930 . S
H1593 C1602 0.930 . S
H1594 C1607 0.929 . S
H1595 C1605 0.929 . S
H1596 C1600 0.929 . S
H1597 C1606 0.929 . S
C1598 H1592 0.930 . S
C1598 C1599 1.367 . S
C1598 C1606 1.378 . S
C1599 C1598 1.367 . S
C1599 C1607 1.433 . S
C1600 H1596 0.929 . S
C1600 C1602 1.378 . S
C1600 C1604 1.350 . S
C1601 C1604 1.463 . S
C1601 C1606 1.350 . S
C1601 N1609 1.427 . S
C1602 H1593 0.930 . S
C1602 C1600 1.378 . S
C1602 C1603 1.367 . S
C1603 C1602 1.367 . S
C1603 C1605 1.433 . S
C1604 C1600 1.350 . S
C1604 C1601 1.463 . S
C1604 N1608 1.427 . S
C1605 H1595 0.929 . S
C1605 C1603 1.433 . S
C1605 N1608 1.384 . S
C1606 H1597 0.929 . S
C1606 C1598 1.378 . S
C1606 C1601 1.350 . S
C1607 H1594 0.929 . S
C1607 C1599 1.433 . S
C1607 N1609 1.384 . S
N1608 C1604 1.427 . S
N1608 C1605 1.384 . S
N1609 C1601 1.427 . S
N1609 C1607 1.384 . S
H1610 C1616 0.930 . S
H1611 C1620 0.930 . S
H1612 C1625 0.929 . S
H1613 C1623 0.929 . S
H1614 C1618 0.929 . S
H1615 C1624 0.929 . S
C1616 H1610 0.930 . S
C1616 C1617 1.367 . S
C1616 C1624 1.378 . S
C1617 C1616 1.367 . S
C1617 C1625 1.433 . S
C1618 H1614 0.929 . S
C1618 C1620 1.378 . S
C1618 C1622 1.350 . S
C1619 C1622 1.463 . S
C1619 C1624 1.350 . S
C1619 N1627 1.427 . S
C1620 H1611 0.930 . S
C1620 C1618 1.378 . S
C1620 C1621 1.367 . S
C1621 C1620 1.367 . S
C1621 C1623 1.433 . S
C1622 C1618 1.350 . S
C1622 C1619 1.463 . S
C1622 N1626 1.427 . S
C1623 H1613 0.929 . S
C1623 C1621 1.433 . S
C1623 N1626 1.384 . S
C1624 H1615 0.929 . S
C1624 C1616 1.378 . S
C1624 C1619 1.350 . S
C1625 H1612 0.929 . S
C1625 C1617 1.433 . S
C1625 N1627 1.384 . S
N1626 C1622 1.427 . S
N1626 C1623 1.384 . S
N1627 C1619 1.427 . S
N1627 C1625 1.384 . S
H1628 C1634 0.930 . S
H1629 C1638 0.930 . S
H1630 C1643 0.929 . S
H1631 C1641 0.929 . S
H1632 C1636 0.929 . S
H1633 C1642 0.929 . S
C1634 H1628 0.930 . S
C1634 C1635 1.367 . S
C1634 C1642 1.378 . S
C1635 C1634 1.367 . S
C1635 C1643 1.433 1_455 S
C1636 H1632 0.929 . S
C1636 C1638 1.378 . S
C1636 C1640 1.350 1_655 S
C1637 C1640 1.463 . S
C1637 C1642 1.350 . S
C1637 N1645 1.427 1_455 S
C1638 H1629 0.930 . S
C1638 C1636 1.378 . S
C1638 C1639 1.367 1_655 S
C1639 C1638 1.367 1_455 S
C1639 C1641 1.433 . S
C1640 C1636 1.350 1_455 S
C1640 C1637 1.463 . S
C1640 N1644 1.427 . S
C1641 H1631 0.929 . S
C1641 C1639 1.433 . S
C1641 N1644 1.384 . S
C1642 H1633 0.929 . S
C1642 C1634 1.378 . S
C1642 C1637 1.350 . S
C1643 H1630 0.929 . S
C1643 C1635 1.433 1_655 S
C1643 N1645 1.384 . S
N1644 C1640 1.427 . S
N1644 C1641 1.384 . S
N1645 C1637 1.427 1_655 S
N1645 C1643 1.384 . S
H1646 C1652 0.930 . S
H1647 C1656 0.930 . S
H1648 C1661 0.929 . S
H1649 C1659 0.929 . S
H1650 C1654 0.929 . S
H1651 C1660 0.929 . S
C1652 H1646 0.930 . S
C1652 C1653 1.367 . S
C1652 C1660 1.378 . S
C1653 C1652 1.367 . S
C1653 C1661 1.433 . S
C1654 H1650 0.929 . S
C1654 C1656 1.378 . S
C1654 C1658 1.350 . S
C1655 C1658 1.463 . S
C1655 C1660 1.350 . S
C1655 N1663 1.427 . S
C1656 H1647 0.930 . S
C1656 C1654 1.378 . S
C1656 C1657 1.367 . S
C1657 C1656 1.367 . S
C1657 C1659 1.433 . S
C1658 C1654 1.350 . S
C1658 C1655 1.463 . S
C1658 N1662 1.427 . S
C1659 H1649 0.929 . S
C1659 C1657 1.433 . S
C1659 N1662 1.384 . S
C1660 H1651 0.929 . S
C1660 C1652 1.378 . S
C1660 C1655 1.350 . S
C1661 H1648 0.929 . S
C1661 C1653 1.433 . S
C1661 N1663 1.384 . S
N1662 C1658 1.427 . S
N1662 C1659 1.384 . S
N1663 C1655 1.427 . S
N1663 C1661 1.384 . S
H1664 C1670 0.930 . S
H1665 C1674 0.930 . S
H1666 C1679 0.929 . S
H1667 C1677 0.929 . S
H1668 C1672 0.929 . S
H1669 C1678 0.929 . S
C1670 H1664 0.930 . S
C1670 C1671 1.367 . S
C1670 C1678 1.378 . S
C1671 C1670 1.367 . S
C1671 C1679 1.433 . S
C1672 H1668 0.929 . S
C1672 C1674 1.378 . S
C1672 C1676 1.350 . S
C1673 C1676 1.463 . S
C1673 C1678 1.350 . S
C1673 N1681 1.427 . S
C1674 H1665 0.930 . S
C1674 C1672 1.378 . S
C1674 C1675 1.367 . S
C1675 C1674 1.367 . S
C1675 C1677 1.433 . S
C1676 C1672 1.350 . S
C1676 C1673 1.463 . S
C1676 N1680 1.427 . S
C1677 H1667 0.929 . S
C1677 C1675 1.433 . S
C1677 N1680 1.384 . S
C1678 H1669 0.929 . S
C1678 C1670 1.378 . S
C1678 C1673 1.350 . S
C1679 H1666 0.929 . S
C1679 C1671 1.433 . S
C1679 N1681 1.384 . S
N1680 C1676 1.427 . S
N1680 C1677 1.384 . S
N1681 C1673 1.427 . S
N1681 C1679 1.384 . S
H1682 C1688 0.930 . S
H1683 C1692 0.930 . S
H1684 C1697 0.929 . S
H1685 C1695 0.929 . S
H1686 C1690 0.929 . S
H1687 C1696 0.929 . S
C1688 H1682 0.930 . S
C1688 C1689 1.367 . S
C1688 C1696 1.378 . S
C1689 C1688 1.367 . S
C1689 C1697 1.433 . S
C1690 H1686 0.929 . S
C1690 C1692 1.378 . S
C1690 C1694 1.350 . S
C1691 C1694 1.463 . S
C1691 C1696 1.350 . S
C1691 N1699 1.427 . S
C1692 H1683 0.930 . S
C1692 C1690 1.378 . S
C1692 C1693 1.367 . S
C1693 C1692 1.367 . S
C1693 C1695 1.433 . S
C1694 C1690 1.350 . S
C1694 C1691 1.463 . S
C1694 N1698 1.427 . S
C1695 H1685 0.929 . S
C1695 C1693 1.433 . S
C1695 N1698 1.384 . S
C1696 H1687 0.929 . S
C1696 C1688 1.378 . S
C1696 C1691 1.350 . S
C1697 H1684 0.929 . S
C1697 C1689 1.433 . S
C1697 N1699 1.384 . S
N1698 C1694 1.427 . S
N1698 C1695 1.384 . S
N1699 C1691 1.427 . S
N1699 C1697 1.384 . S
H1700 C1706 0.930 . S
H1701 C1710 0.930 . S
H1702 C1715 0.929 . S
H1703 C1713 0.929 . S
H1704 C1708 0.929 . S
H1705 C1714 0.929 . S
C1706 H1700 0.930 . S
C1706 C1707 1.367 . S
C1706 C1714 1.378 . S
C1707 C1706 1.367 . S
C1707 C1715 1.433 . S
C1708 H1704 0.929 . S
C1708 C1710 1.378 . S
C1708 C1712 1.350 . S
C1709 C1712 1.463 . S
C1709 C1714 1.350 . S
C1709 N1717 1.427 . S
C1710 H1701 0.930 . S
C1710 C1708 1.378 . S
C1710 C1711 1.367 . S
C1711 C1710 1.367 . S
C1711 C1713 1.433 . S
C1712 C1708 1.350 . S
C1712 C1709 1.463 . S
C1712 N1716 1.427 . S
C1713 H1703 0.929 . S
C1713 C1711 1.433 . S
C1713 N1716 1.384 . S
C1714 H1705 0.929 . S
C1714 C1706 1.378 . S
C1714 C1709 1.350 . S
C1715 H1702 0.929 . S
C1715 C1707 1.433 . S
C1715 N1717 1.384 . S
N1716 C1712 1.427 . S
N1716 C1713 1.384 . S
N1717 C1709 1.427 . S
N1717 C1715 1.384 . S
H1718 C1724 0.930 . S
H1719 C1728 0.930 . S
H1720 C1733 0.929 . S
H1721 C1731 0.929 . S
H1722 C1726 0.929 . S
H1723 C1732 0.929 . S
C1724 H1718 0.930 . S
C1724 C1725 1.367 . S
C1724 C1732 1.378 . S
C1725 C1724 1.367 . S
C1725 C1733 1.433 . S
C1726 H1722 0.929 . S
C1726 C1728 1.378 . S
C1726 C1730 1.350 . S
C1727 C1730 1.463 . S
C1727 C1732 1.350 . S
C1727 N1735 1.427 . S
C1728 H1719 0.930 . S
C1728 C1726 1.378 . S
C1728 C1729 1.367 . S
C1729 C1728 1.367 . S
C1729 C1731 1.433 . S
C1730 C1726 1.350 . S
C1730 C1727 1.463 . S
C1730 N1734 1.427 . S
C1731 H1721 0.929 . S
C1731 C1729 1.433 . S
C1731 N1734 1.384 . S
C1732 H1723 0.929 . S
C1732 C1724 1.378 . S
C1732 C1727 1.350 . S
C1733 H1720 0.929 . S
C1733 C1725 1.433 . S
C1733 N1735 1.384 . S
N1734 C1730 1.427 . S
N1734 C1731 1.384 . S
N1735 C1727 1.427 . S
N1735 C1733 1.384 . S
H1736 C1742 0.930 . S
H1737 C1746 0.930 . S
H1738 C1751 0.929 . S
H1739 C1749 0.929 . S
H1740 C1744 0.929 . S
H1741 C1750 0.929 . S
C1742 H1736 0.930 . S
C1742 C1743 1.367 . S
C1742 C1750 1.378 . S
C1743 C1742 1.367 . S
C1743 C1751 1.433 . S
C1744 H1740 0.929 . S
C1744 C1746 1.378 . S
C1744 C1748 1.350 . S
C1745 C1748 1.463 . S
C1745 C1750 1.350 . S
C1745 N1753 1.427 . S
C1746 H1737 0.930 . S
C1746 C1744 1.378 . S
C1746 C1747 1.367 . S
C1747 C1746 1.367 . S
C1747 C1749 1.433 . S
C1748 C1744 1.350 . S
C1748 C1745 1.463 . S
C1748 N1752 1.427 . S
C1749 H1739 0.929 . S
C1749 C1747 1.433 . S
C1749 N1752 1.384 . S
C1750 H1741 0.929 . S
C1750 C1742 1.378 . S
C1750 C1745 1.350 . S
C1751 H1738 0.929 . S
C1751 C1743 1.433 . S
C1751 N1753 1.384 . S
N1752 C1748 1.427 . S
N1752 C1749 1.384 . S
N1753 C1745 1.427 . S
N1753 C1751 1.384 . S
H1754 C1760 0.930 . S
H1755 C1764 0.930 . S
H1756 C1769 0.929 . S
H1757 C1767 0.929 . S
H1758 C1762 0.929 . S
H1759 C1768 0.929 . S
C1760 H1754 0.930 . S
C1760 C1761 1.367 . S
C1760 C1768 1.378 . S
C1761 C1760 1.367 . S
C1761 C1769 1.433 . S
C1762 H1758 0.929 . S
C1762 C1764 1.378 . S
C1762 C1766 1.350 . S
C1763 C1766 1.463 . S
C1763 C1768 1.350 . S
C1763 N1771 1.427 . S
C1764 H1755 0.930 . S
C1764 C1762 1.378 . S
C1764 C1765 1.367 . S
C1765 C1764 1.367 . S
C1765 C1767 1.433 . S
C1766 C1762 1.350 . S
C1766 C1763 1.463 . S
C1766 N1770 1.427 . S
C1767 H1757 0.929 . S
C1767 C1765 1.433 . S
C1767 N1770 1.384 . S
C1768 H1759 0.929 . S
C1768 C1760 1.378 . S
C1768 C1763 1.350 . S
C1769 H1756 0.929 . S
C1769 C1761 1.433 . S
C1769 N1771 1.384 . S
N1770 C1766 1.427 . S
N1770 C1767 1.384 . S
N1771 C1763 1.427 . S
N1771 C1769 1.384 . S
H1772 C1778 0.930 . S
H1773 C1782 0.930 . S
H1774 C1787 0.929 . S
H1775 C1785 0.929 . S
H1776 C1780 0.929 . S
H1777 C1786 0.929 . S
C1778 H1772 0.930 . S
C1778 C1779 1.367 . S
C1778 C1786 1.378 . S
C1779 C1778 1.367 . S
C1779 C1787 1.433 . S
C1780 H1776 0.929 . S
C1780 C1782 1.378 . S
C1780 C1784 1.350 . S
C1781 C1784 1.463 . S
C1781 C1786 1.350 . S
C1781 N1789 1.427 . S
C1782 H1773 0.930 . S
C1782 C1780 1.378 . S
C1782 C1783 1.367 . S
C1783 C1782 1.367 . S
C1783 C1785 1.433 . S
C1784 C1780 1.350 . S
C1784 C1781 1.463 . S
C1784 N1788 1.427 . S
C1785 H1775 0.929 . S
C1785 C1783 1.433 . S
C1785 N1788 1.384 . S
C1786 H1777 0.929 . S
C1786 C1778 1.378 . S
C1786 C1781 1.350 . S
C1787 H1774 0.929 . S
C1787 C1779 1.433 . S
C1787 N1789 1.384 . S
N1788 C1784 1.427 . S
N1788 C1785 1.384 . S
N1789 C1781 1.427 . S
N1789 C1787 1.384 . S
H1790 C1796 0.930 . S
H1791 C1800 0.930 . S
H1792 C1805 0.929 . S
H1793 C1803 0.929 . S
H1794 C1798 0.929 . S
H1795 C1804 0.929 . S
C1796 H1790 0.930 . S
C1796 C1797 1.367 . S
C1796 C1804 1.378 . S
C1797 C1796 1.367 . S
C1797 C1805 1.433 . S
C1798 H1794 0.929 . S
C1798 C1800 1.378 . S
C1798 C1802 1.350 . S
C1799 C1802 1.463 . S
C1799 C1804 1.350 . S
C1799 N1807 1.427 . S
C1800 H1791 0.930 . S
C1800 C1798 1.378 . S
C1800 C1801 1.367 . S
C1801 C1800 1.367 . S
C1801 C1803 1.433 . S
C1802 C1798 1.350 . S
C1802 C1799 1.463 . S
C1802 N1806 1.427 . S
C1803 H1793 0.929 . S
C1803 C1801 1.433 . S
C1803 N1806 1.384 . S
C1804 H1795 0.929 . S
C1804 C1796 1.378 . S
C1804 C1799 1.350 . S
C1805 H1792 0.929 . S
C1805 C1797 1.433 . S
C1805 N1807 1.384 . S
N1806 C1802 1.427 . S
N1806 C1803 1.384 . S
N1807 C1799 1.427 . S
N1807 C1805 1.384 . S
H1808 C1814 0.930 . S
H1809 C1818 0.930 . S
H1810 C1823 0.929 . S
H1811 C1821 0.929 . S
H1812 C1816 0.929 . S
H1813 C1822 0.929 . S
C1814 H1808 0.930 . S
C1814 C1815 1.367 . S
C1814 C1822 1.378 . S
C1815 C1814 1.367 . S
C1815 C1823 1.433 . S
C1816 H1812 0.929 . S
C1816 C1818 1.378 . S
C1816 C1820 1.350 . S
C1817 C1820 1.463 . S
C1817 C1822 1.350 . S
C1817 N1825 1.427 . S
C1818 H1809 0.930 . S
C1818 C1816 1.378 . S
C1818 C1819 1.367 . S
C1819 C1818 1.367 . S
C1819 C1821 1.433 . S
C1820 C1816 1.350 . S
C1820 C1817 1.463 . S
C1820 N1824 1.427 . S
C1821 H1811 0.929 . S
C1821 C1819 1.433 . S
C1821 N1824 1.384 . S
C1822 H1813 0.929 . S
C1822 C1814 1.378 . S
C1822 C1817 1.350 . S
C1823 H1810 0.929 . S
C1823 C1815 1.433 . S
C1823 N1825 1.384 . S
N1824 C1820 1.427 . S
N1824 C1821 1.384 . S
N1825 C1817 1.427 . S
N1825 C1823 1.384 . S
H1826 C1832 0.930 . S
H1827 C1836 0.930 . S
H1828 C1841 0.929 . S
H1829 C1839 0.929 . S
H1830 C1834 0.929 . S
H1831 C1840 0.929 . S
C1832 H1826 0.930 . S
C1832 C1833 1.367 . S
C1832 C1840 1.378 . S
C1833 C1832 1.367 . S
C1833 C1841 1.433 . S
C1834 H1830 0.929 . S
C1834 C1836 1.378 . S
C1834 C1838 1.350 . S
C1835 C1838 1.463 . S
C1835 C1840 1.350 . S
C1835 N1843 1.427 . S
C1836 H1827 0.930 . S
C1836 C1834 1.378 . S
C1836 C1837 1.367 . S
C1837 C1836 1.367 . S
C1837 C1839 1.433 . S
C1838 C1834 1.350 . S
C1838 C1835 1.463 . S
C1838 N1842 1.427 . S
C1839 H1829 0.929 . S
C1839 C1837 1.433 . S
C1839 N1842 1.384 . S
C1840 H1831 0.929 . S
C1840 C1832 1.378 . S
C1840 C1835 1.350 . S
C1841 H1828 0.929 . S
C1841 C1833 1.433 . S
C1841 N1843 1.384 . S
N1842 C1838 1.427 . S
N1842 C1839 1.384 . S
N1843 C1835 1.427 . S
N1843 C1841 1.384 . S
H1844 C1850 0.930 . S
H1845 C1854 0.930 . S
H1846 C1859 0.929 . S
H1847 C1857 0.929 . S
H1848 C1852 0.929 . S
H1849 C1858 0.929 . S
C1850 H1844 0.930 . S
C1850 C1851 1.367 . S
C1850 C1858 1.378 . S
C1851 C1850 1.367 . S
C1851 C1859 1.433 . S
C1852 H1848 0.929 . S
C1852 C1854 1.378 . S
C1852 C1856 1.350 . S
C1853 C1856 1.463 . S
C1853 C1858 1.350 . S
C1853 N1861 1.427 . S
C1854 H1845 0.930 . S
C1854 C1852 1.378 . S
C1854 C1855 1.367 . S
C1855 C1854 1.367 . S
C1855 C1857 1.433 . S
C1856 C1852 1.350 . S
C1856 C1853 1.463 . S
C1856 N1860 1.427 . S
C1857 H1847 0.929 . S
C1857 C1855 1.433 . S
C1857 N1860 1.384 . S
C1858 H1849 0.929 . S
C1858 C1850 1.378 . S
C1858 C1853 1.350 . S
C1859 H1846 0.929 . S
C1859 C1851 1.433 . S
C1859 N1861 1.384 . S
N1860 C1856 1.427 . S
N1860 C1857 1.384 . S
N1861 C1853 1.427 . S
N1861 C1859 1.384 . S
H1862 C1868 0.930 . S
H1863 C1872 0.930 . S
H1864 C1877 0.929 . S
H1865 C1875 0.929 . S
H1866 C1870 0.929 . S
H1867 C1876 0.929 1_545 S
C1868 H1862 0.930 . S
C1868 C1869 1.367 . S
C1868 C1876 1.378 . S
C1869 C1868 1.367 . S
C1869 C1877 1.433 . S
C1870 H1866 0.929 . S
C1870 C1872 1.378 . S
C1870 C1874 1.350 . S
C1871 C1874 1.463 . S
C1871 C1876 1.350 . S
C1871 N1879 1.427 . S
C1872 H1863 0.930 . S
C1872 C1870 1.378 . S
C1872 C1873 1.367 1_565 S
C1873 C1872 1.367 1_545 S
C1873 C1875 1.433 . S
C1874 C1870 1.350 . S
C1874 C1871 1.463 . S
C1874 N1878 1.427 1_565 S
C1875 H1865 0.929 . S
C1875 C1873 1.433 . S
C1875 N1878 1.384 . S
C1876 H1867 0.929 1_565 S
C1876 C1868 1.378 . S
C1876 C1871 1.350 . S
C1877 H1864 0.929 . S
C1877 C1869 1.433 . S
C1877 N1879 1.384 . S
N1878 C1874 1.427 1_545 S
N1878 C1875 1.384 . S
N1879 C1871 1.427 . S
N1879 C1877 1.384 . S
H1880 C1886 0.930 . S
H1881 C1890 0.930 . S
H1882 C1895 0.929 . S
H1883 C1893 0.929 . S
H1884 C1888 0.929 . S
H1885 C1894 0.929 . S
C1886 H1880 0.930 . S
C1886 C1887 1.367 . S
C1886 C1894 1.378 . S
C1887 C1886 1.367 . S
C1887 C1895 1.433 . S
C1888 H1884 0.929 . S
C1888 C1890 1.378 . S
C1888 C1892 1.350 . S
C1889 C1892 1.463 . S
C1889 C1894 1.350 . S
C1889 N1897 1.427 . S
C1890 H1881 0.930 . S
C1890 C1888 1.378 . S
C1890 C1891 1.367 . S
C1891 C1890 1.367 . S
C1891 C1893 1.433 . S
C1892 C1888 1.350 . S
C1892 C1889 1.463 . S
C1892 N1896 1.427 . S
C1893 H1883 0.929 . S
C1893 C1891 1.433 . S
C1893 N1896 1.384 . S
C1894 H1885 0.929 . S
C1894 C1886 1.378 . S
C1894 C1889 1.350 . S
C1895 H1882 0.929 . S
C1895 C1887 1.433 . S
C1895 N1897 1.384 . S
N1896 C1892 1.427 . S
N1896 C1893 1.384 . S
N1897 C1889 1.427 . S
N1897 C1895 1.384 . S
H1898 C1904 0.930 . S
H1899 C1908 0.930 . S
H1900 C1913 0.929 . S
H1901 C1911 0.929 . S
H1902 C1906 0.929 . S
H1903 C1912 0.929 . S
C1904 H1898 0.930 . S
C1904 C1905 1.367 . S
C1904 C1912 1.378 . S
C1905 C1904 1.367 . S
C1905 C1913 1.433 . S
C1906 H1902 0.929 . S
C1906 C1908 1.378 . S
C1906 C1910 1.350 . S
C1907 C1910 1.463 . S
C1907 C1912 1.350 . S
C1907 N1915 1.427 . S
C1908 H1899 0.930 . S
C1908 C1906 1.378 . S
C1908 C1909 1.367 . S
C1909 C1908 1.367 . S
C1909 C1911 1.433 . S
C1910 C1906 1.350 . S
C1910 C1907 1.463 . S
C1910 N1914 1.427 . S
C1911 H1901 0.929 . S
C1911 C1909 1.433 . S
C1911 N1914 1.384 . S
C1912 H1903 0.929 . S
C1912 C1904 1.378 . S
C1912 C1907 1.350 . S
C1913 H1900 0.929 . S
C1913 C1905 1.433 . S
C1913 N1915 1.384 . S
N1914 C1910 1.427 . S
N1914 C1911 1.384 . S
N1915 C1907 1.427 . S
N1915 C1913 1.384 . S
H1916 C1922 0.930 . S
H1917 C1926 0.930 . S
H1918 C1931 0.929 . S
H1919 C1929 0.929 . S
H1920 C1924 0.929 . S
H1921 C1930 0.929 . S
C1922 H1916 0.930 . S
C1922 C1923 1.367 . S
C1922 C1930 1.378 . S
C1923 C1922 1.367 . S
C1923 C1931 1.433 . S
C1924 H1920 0.929 . S
C1924 C1926 1.378 . S
C1924 C1928 1.350 . S
C1925 C1928 1.463 . S
C1925 C1930 1.350 . S
C1925 N1933 1.427 . S
C1926 H1917 0.930 . S
C1926 C1924 1.378 . S
C1926 C1927 1.367 . S
C1927 C1926 1.367 . S
C1927 C1929 1.433 . S
C1928 C1924 1.350 . S
C1928 C1925 1.463 . S
C1928 N1932 1.427 . S
C1929 H1919 0.929 . S
C1929 C1927 1.433 . S
C1929 N1932 1.384 . S
C1930 H1921 0.929 . S
C1930 C1922 1.378 . S
C1930 C1925 1.350 . S
C1931 H1918 0.929 . S
C1931 C1923 1.433 . S
C1931 N1933 1.384 . S
N1932 C1928 1.427 . S
N1932 C1929 1.384 . S
N1933 C1925 1.427 . S
N1933 C1931 1.384 . S
H1934 C1940 0.930 . S
H1935 C1944 0.930 . S
H1936 C1949 0.929 . S
H1937 C1947 0.929 . S
H1938 C1942 0.929 . S
H1939 C1948 0.929 . S
C1940 H1934 0.930 . S
C1940 C1941 1.367 . S
C1940 C1948 1.378 . S
C1941 C1940 1.367 . S
C1941 C1949 1.433 . S
C1942 H1938 0.929 . S
C1942 C1944 1.378 . S
C1942 C1946 1.350 . S
C1943 C1946 1.463 . S
C1943 C1948 1.350 . S
C1943 N1951 1.427 . S
C1944 H1935 0.930 . S
C1944 C1942 1.378 . S
C1944 C1945 1.367 . S
C1945 C1944 1.367 . S
C1945 C1947 1.433 . S
C1946 C1942 1.350 . S
C1946 C1943 1.463 . S
C1946 N1950 1.427 . S
C1947 H1937 0.929 . S
C1947 C1945 1.433 . S
C1947 N1950 1.384 . S
C1948 H1939 0.929 . S
C1948 C1940 1.378 . S
C1948 C1943 1.350 . S
C1949 H1936 0.929 . S
C1949 C1941 1.433 . S
C1949 N1951 1.384 . S
N1950 C1946 1.427 . S
N1950 C1947 1.384 . S
N1951 C1943 1.427 . S
N1951 C1949 1.384 . S
H1952 C1958 0.930 . S
H1953 C1962 0.930 . S
H1954 C1967 0.929 . S
H1955 C1965 0.929 . S
H1956 C1960 0.929 . S
H1957 C1966 0.929 . S
C1958 H1952 0.930 . S
C1958 C1959 1.367 . S
C1958 C1966 1.378 . S
C1959 C1958 1.367 . S
C1959 C1967 1.433 . S
C1960 H1956 0.929 . S
C1960 C1962 1.378 . S
C1960 C1964 1.350 . S
C1961 C1964 1.463 . S
C1961 C1966 1.350 . S
C1961 N1969 1.427 . S
C1962 H1953 0.930 . S
C1962 C1960 1.378 . S
C1962 C1963 1.367 . S
C1963 C1962 1.367 . S
C1963 C1965 1.433 . S
C1964 C1960 1.350 . S
C1964 C1961 1.463 . S
C1964 N1968 1.427 . S
C1965 H1955 0.929 . S
C1965 C1963 1.433 . S
C1965 N1968 1.384 . S
C1966 H1957 0.929 . S
C1966 C1958 1.378 . S
C1966 C1961 1.350 . S
C1967 H1954 0.929 . S
C1967 C1959 1.433 . S
C1967 N1969 1.384 . S
N1968 C1964 1.427 . S
N1968 C1965 1.384 . S
N1969 C1961 1.427 . S
N1969 C1967 1.384 . S
H1970 C1976 0.930 . S
H1971 C1980 0.930 . S
H1972 C1985 0.929 . S
H1973 C1983 0.929 . S
H1974 C1978 0.929 . S
H1975 C1984 0.929 . S
C1976 H1970 0.930 . S
C1976 C1977 1.367 . S
C1976 C1984 1.378 . S
C1977 C1976 1.367 . S
C1977 C1985 1.433 . S
C1978 H1974 0.929 . S
C1978 C1980 1.378 . S
C1978 C1982 1.350 . S
C1979 C1982 1.463 . S
C1979 C1984 1.350 . S
C1979 N1987 1.427 . S
C1980 H1971 0.930 . S
C1980 C1978 1.378 . S
C1980 C1981 1.367 . S
C1981 C1980 1.367 . S
C1981 C1983 1.433 . S
C1982 C1978 1.350 . S
C1982 C1979 1.463 . S
C1982 N1986 1.427 . S
C1983 H1973 0.929 . S
C1983 C1981 1.433 . S
C1983 N1986 1.384 . S
C1984 H1975 0.929 . S
C1984 C1976 1.378 . S
C1984 C1979 1.350 . S
C1985 H1972 0.929 . S
C1985 C1977 1.433 . S
C1985 N1987 1.384 . S
N1986 C1982 1.427 . S
N1986 C1983 1.384 . S
N1987 C1979 1.427 . S
N1987 C1985 1.384 . S
H1988 C1994 0.930 . S
H1989 C1998 0.930 . S
H1990 C2003 0.929 . S
H1991 C2001 0.929 1_556 S
H1992 C1996 0.929 . S
H1993 C2002 0.929 . S
C1994 H1988 0.930 . S
C1994 C1995 1.367 . S
C1994 C2002 1.378 . S
C1995 C1994 1.367 . S
C1995 C2003 1.433 . S
C1996 H1992 0.929 . S
C1996 C1998 1.378 . S
C1996 C2000 1.350 . S
C1997 C2000 1.463 . S
C1997 C2002 1.350 . S
C1997 N2005 1.427 . S
C1998 H1989 0.930 . S
C1998 C1996 1.378 . S
C1998 C1999 1.367 . S
C1999 C1998 1.367 . S
C1999 C2001 1.433 . S
C2000 C1996 1.350 . S
C2000 C1997 1.463 . S
C2000 N2004 1.427 . S
C2001 H1991 0.929 1_554 S
C2001 C1999 1.433 . S
C2001 N2004 1.384 . S
C2002 H1993 0.929 . S
C2002 C1994 1.378 . S
C2002 C1997 1.350 . S
C2003 H1990 0.929 . S
C2003 C1995 1.433 . S
C2003 N2005 1.384 . S
N2004 C2000 1.427 . S
N2004 C2001 1.384 . S
N2005 C1997 1.427 . S
N2005 C2003 1.384 . S
H2006 C2012 0.930 . S
H2007 C2016 0.930 . S
H2008 C2021 0.929 . S
H2009 C2019 0.929 . S
H2010 C2014 0.929 . S
H2011 C2020 0.929 . S
C2012 H2006 0.930 . S
C2012 C2013 1.367 . S
C2012 C2020 1.378 . S
C2013 C2012 1.367 . S
C2013 C2021 1.433 . S
C2014 H2010 0.929 . S
C2014 C2016 1.378 . S
C2014 C2018 1.350 . S
C2015 C2018 1.463 . S
C2015 C2020 1.350 . S
C2015 N2023 1.427 . S
C2016 H2007 0.930 . S
C2016 C2014 1.378 . S
C2016 C2017 1.367 . S
C2017 C2016 1.367 . S
C2017 C2019 1.433 . S
C2018 C2014 1.350 . S
C2018 C2015 1.463 . S
C2018 N2022 1.427 . S
C2019 H2009 0.929 . S
C2019 C2017 1.433 . S
C2019 N2022 1.384 . S
C2020 H2011 0.929 . S
C2020 C2012 1.378 . S
C2020 C2015 1.350 . S
C2021 H2008 0.929 . S
C2021 C2013 1.433 . S
C2021 N2023 1.384 . S
N2022 C2018 1.427 . S
N2022 C2019 1.384 . S
N2023 C2015 1.427 . S
N2023 C2021 1.384 . S
H2024 C2030 0.930 . S
H2025 C2034 0.930 . S
H2026 C2039 0.929 . S
H2027 C2037 0.929 1_554 S
H2028 C2032 0.929 . S
H2029 C2038 0.929 . S
C2030 H2024 0.930 . S
C2030 C2031 1.367 . S
C2030 C2038 1.378 . S
C2031 C2030 1.367 . S
C2031 C2039 1.433 . S
C2032 H2028 0.929 . S
C2032 C2034 1.378 . S
C2032 C2036 1.350 . S
C2033 C2036 1.463 . S
C2033 C2038 1.350 . S
C2033 N2041 1.427 . S
C2034 H2025 0.930 . S
C2034 C2032 1.378 . S
C2034 C2035 1.367 . S
C2035 C2034 1.367 . S
C2035 C2037 1.433 . S
C2036 C2032 1.350 . S
C2036 C2033 1.463 . S
C2036 N2040 1.427 . S
C2037 H2027 0.929 1_556 S
C2037 C2035 1.433 . S
C2037 N2040 1.384 . S
C2038 H2029 0.929 . S
C2038 C2030 1.378 . S
C2038 C2033 1.350 . S
C2039 H2026 0.929 . S
C2039 C2031 1.433 . S
C2039 N2041 1.384 . S
N2040 C2036 1.427 . S
N2040 C2037 1.384 . S
N2041 C2033 1.427 . S
N2041 C2039 1.384 . S
H2042 C2048 0.930 . S
H2043 C2052 0.930 . S
H2044 C2057 0.929 . S
H2045 C2055 0.929 . S
H2046 C2050 0.929 . S
H2047 C2056 0.929 . S
C2048 H2042 0.930 . S
C2048 C2049 1.367 . S
C2048 C2056 1.378 . S
C2049 C2048 1.367 . S
C2049 C2057 1.433 . S
C2050 H2046 0.929 . S
C2050 C2052 1.378 . S
C2050 C2054 1.350 . S
C2051 C2054 1.463 . S
C2051 C2056 1.350 . S
C2051 N2059 1.427 . S
C2052 H2043 0.930 . S
C2052 C2050 1.378 . S
C2052 C2053 1.367 . S
C2053 C2052 1.367 . S
C2053 C2055 1.433 . S
C2054 C2050 1.350 . S
C2054 C2051 1.463 . S
C2054 N2058 1.427 . S
C2055 H2045 0.929 . S
C2055 C2053 1.433 . S
C2055 N2058 1.384 . S
C2056 H2047 0.929 . S
C2056 C2048 1.378 . S
C2056 C2051 1.350 . S
C2057 H2044 0.929 . S
C2057 C2049 1.433 . S
C2057 N2059 1.384 . S
N2058 C2054 1.427 . S
N2058 C2055 1.384 . S
N2059 C2051 1.427 . S
N2059 C2057 1.384 . S
H2060 C2066 0.930 . S
H2061 C2070 0.930 . S
H2062 C2075 0.929 . S
H2063 C2073 0.929 . S
H2064 C2068 0.929 . S
H2065 C2074 0.929 . S
C2066 H2060 0.930 . S
C2066 C2067 1.367 . S
C2066 C2074 1.378 . S
C2067 C2066 1.367 . S
C2067 C2075 1.433 . S
C2068 H2064 0.929 . S
C2068 C2070 1.378 . S
C2068 C2072 1.350 . S
C2069 C2072 1.463 . S
C2069 C2074 1.350 . S
C2069 N2077 1.427 . S
C2070 H2061 0.930 . S
C2070 C2068 1.378 . S
C2070 C2071 1.367 . S
C2071 C2070 1.367 . S
C2071 C2073 1.433 . S
C2072 C2068 1.350 . S
C2072 C2069 1.463 . S
C2072 N2076 1.427 . S
C2073 H2063 0.929 . S
C2073 C2071 1.433 . S
C2073 N2076 1.384 . S
C2074 H2065 0.929 . S
C2074 C2066 1.378 . S
C2074 C2069 1.350 . S
C2075 H2062 0.929 . S
C2075 C2067 1.433 . S
C2075 N2077 1.384 . S
N2076 C2072 1.427 . S
N2076 C2073 1.384 . S
N2077 C2069 1.427 . S
N2077 C2075 1.384 . S
H2078 C2084 0.930 . S
H2079 C2088 0.930 . S
H2080 C2093 0.929 . S
H2081 C2091 0.929 . S
H2082 C2086 0.929 . S
H2083 C2092 0.929 . S
C2084 H2078 0.930 . S
C2084 C2085 1.367 . S
C2084 C2092 1.378 . S
C2085 C2084 1.367 . S
C2085 C2093 1.433 . S
C2086 H2082 0.929 . S
C2086 C2088 1.378 . S
C2086 C2090 1.350 . S
C2087 C2090 1.463 . S
C2087 C2092 1.350 . S
C2087 N2095 1.427 . S
C2088 H2079 0.930 . S
C2088 C2086 1.378 . S
C2088 C2089 1.367 . S
C2089 C2088 1.367 . S
C2089 C2091 1.433 . S
C2090 C2086 1.350 . S
C2090 C2087 1.463 . S
C2090 N2094 1.427 . S
C2091 H2081 0.929 . S
C2091 C2089 1.433 . S
C2091 N2094 1.384 . S
C2092 H2083 0.929 . S
C2092 C2084 1.378 . S
C2092 C2087 1.350 . S
C2093 H2080 0.929 . S
C2093 C2085 1.433 . S
C2093 N2095 1.384 . S
N2094 C2090 1.427 . S
N2094 C2091 1.384 . S
N2095 C2087 1.427 . S
N2095 C2093 1.384 . S
H2096 C2102 0.930 . S
H2097 C2106 0.930 . S
H2098 C2111 0.929 . S
H2099 C2109 0.929 . S
H2100 C2104 0.929 . S
H2101 C2110 0.929 . S
C2102 H2096 0.930 . S
C2102 C2103 1.367 . S
C2102 C2110 1.378 . S
C2103 C2102 1.367 . S
C2103 C2111 1.433 . S
C2104 H2100 0.929 . S
C2104 C2106 1.378 . S
C2104 C2108 1.350 . S
C2105 C2108 1.463 . S
C2105 C2110 1.350 . S
C2105 N2113 1.427 . S
C2106 H2097 0.930 . S
C2106 C2104 1.378 . S
C2106 C2107 1.367 . S
C2107 C2106 1.367 . S
C2107 C2109 1.433 . S
C2108 C2104 1.350 . S
C2108 C2105 1.463 . S
C2108 N2112 1.427 . S
C2109 H2099 0.929 . S
C2109 C2107 1.433 . S
C2109 N2112 1.384 . S
C2110 H2101 0.929 . S
C2110 C2102 1.378 . S
C2110 C2105 1.350 . S
C2111 H2098 0.929 . S
C2111 C2103 1.433 . S
C2111 N2113 1.384 . S
N2112 C2108 1.427 . S
N2112 C2109 1.384 . S
N2113 C2105 1.427 . S
N2113 C2111 1.384 . S
H2114 C2120 0.930 . S
H2115 C2124 0.930 . S
H2116 C2129 0.929 . S
H2117 C2127 0.929 . S
H2118 C2122 0.929 . S
H2119 C2128 0.929 . S
C2120 H2114 0.930 . S
C2120 C2121 1.367 . S
C2120 C2128 1.378 . S
C2121 C2120 1.367 . S
C2121 C2129 1.433 . S
C2122 H2118 0.929 . S
C2122 C2124 1.378 . S
C2122 C2126 1.350 . S
C2123 C2126 1.463 . S
C2123 C2128 1.350 . S
C2123 N2131 1.427 . S
C2124 H2115 0.930 . S
C2124 C2122 1.378 . S
C2124 C2125 1.367 . S
C2125 C2124 1.367 . S
C2125 C2127 1.433 . S
C2126 C2122 1.350 . S
C2126 C2123 1.463 . S
C2126 N2130 1.427 . S
C2127 H2117 0.929 . S
C2127 C2125 1.433 . S
C2127 N2130 1.384 . S
C2128 H2119 0.929 . S
C2128 C2120 1.378 . S
C2128 C2123 1.350 . S
C2129 H2116 0.929 . S
C2129 C2121 1.433 . S
C2129 N2131 1.384 . S
N2130 C2126 1.427 . S
N2130 C2127 1.384 . S
N2131 C2123 1.427 . S
N2131 C2129 1.384 . S
H2132 C2138 0.930 . S
H2133 C2142 0.930 . S
H2134 C2147 0.929 . S
H2135 C2145 0.929 1_455 S
H2136 C2140 0.929 . S
H2137 C2146 0.929 . S
C2138 H2132 0.930 . S
C2138 C2139 1.367 . S
C2138 C2146 1.378 . S
C2139 C2138 1.367 . S
C2139 C2147 1.433 . S
C2140 H2136 0.929 . S
C2140 C2142 1.378 . S
C2140 C2144 1.350 . S
C2141 C2144 1.463 . S
C2141 C2146 1.350 . S
C2141 N2149 1.427 . S
C2142 H2133 0.930 . S
C2142 C2140 1.378 . S
C2142 C2143 1.367 . S
C2143 C2142 1.367 . S
C2143 C2145 1.433 . S
C2144 C2140 1.350 . S
C2144 C2141 1.463 . S
C2144 N2148 1.427 . S
C2145 H2135 0.929 1_655 S
C2145 C2143 1.433 . S
C2145 N2148 1.384 . S
C2146 H2137 0.929 . S
C2146 C2138 1.378 . S
C2146 C2141 1.350 . S
C2147 H2134 0.929 . S
C2147 C2139 1.433 . S
C2147 N2149 1.384 . S
N2148 C2144 1.427 . S
N2148 C2145 1.384 . S
N2149 C2141 1.427 . S
N2149 C2147 1.384 . S
H2150 C2156 0.930 . S
H2151 C2160 0.930 . S
H2152 C2165 0.929 . S
H2153 C2163 0.929 . S
H2154 C2158 0.929 . S
H2155 C2164 0.929 . S
C2156 H2150 0.930 . S
C2156 C2157 1.367 . S
C2156 C2164 1.378 . S
C2157 C2156 1.367 . S
C2157 C2165 1.433 . S
C2158 H2154 0.929 . S
C2158 C2160 1.378 . S
C2158 C2162 1.350 . S
C2159 C2162 1.463 . S
C2159 C2164 1.350 . S
C2159 N2167 1.427 . S
C2160 H2151 0.930 . S
C2160 C2158 1.378 . S
C2160 C2161 1.367 . S
C2161 C2160 1.367 . S
C2161 C2163 1.433 . S
C2162 C2158 1.350 . S
C2162 C2159 1.463 . S
C2162 N2166 1.427 . S
C2163 H2153 0.929 . S
C2163 C2161 1.433 . S
C2163 N2166 1.384 . S
C2164 H2155 0.929 . S
C2164 C2156 1.378 . S
C2164 C2159 1.350 . S
C2165 H2152 0.929 . S
C2165 C2157 1.433 . S
C2165 N2167 1.384 . S
N2166 C2162 1.427 . S
N2166 C2163 1.384 . S
N2167 C2159 1.427 . S
N2167 C2165 1.384 . S
H2168 C2174 0.930 . S
H2169 C2178 0.930 . S
H2170 C2183 0.929 . S
H2171 C2181 0.929 . S
H2172 C2176 0.929 . S
H2173 C2182 0.929 . S
C2174 H2168 0.930 . S
C2174 C2175 1.367 . S
C2174 C2182 1.378 . S
C2175 C2174 1.367 . S
C2175 C2183 1.433 . S
C2176 H2172 0.929 . S
C2176 C2178 1.378 . S
C2176 C2180 1.350 . S
C2177 C2180 1.463 . S
C2177 C2182 1.350 . S
C2177 N2185 1.427 . S
C2178 H2169 0.930 . S
C2178 C2176 1.378 . S
C2178 C2179 1.367 . S
C2179 C2178 1.367 . S
C2179 C2181 1.433 . S
C2180 C2176 1.350 . S
C2180 C2177 1.463 . S
C2180 N2184 1.427 . S
C2181 H2171 0.929 . S
C2181 C2179 1.433 . S
C2181 N2184 1.384 . S
C2182 H2173 0.929 . S
C2182 C2174 1.378 . S
C2182 C2177 1.350 . S
C2183 H2170 0.929 . S
C2183 C2175 1.433 . S
C2183 N2185 1.384 . S
N2184 C2180 1.427 . S
N2184 C2181 1.384 . S
N2185 C2177 1.427 . S
N2185 C2183 1.384 . S
H2186 C2192 0.930 . S
H2187 C2196 0.930 . S
H2188 C2201 0.929 . S
H2189 C2199 0.929 . S
H2190 C2194 0.929 . S
H2191 C2200 0.929 . S
C2192 H2186 0.930 . S
C2192 C2193 1.367 . S
C2192 C2200 1.378 . S
C2193 C2192 1.367 . S
C2193 C2201 1.433 . S
C2194 H2190 0.929 . S
C2194 C2196 1.378 . S
C2194 C2198 1.350 . S
C2195 C2198 1.463 . S
C2195 C2200 1.350 . S
C2195 N2203 1.427 . S
C2196 H2187 0.930 . S
C2196 C2194 1.378 . S
C2196 C2197 1.367 . S
C2197 C2196 1.367 . S
C2197 C2199 1.433 . S
C2198 C2194 1.350 . S
C2198 C2195 1.463 . S
C2198 N2202 1.427 . S
C2199 H2189 0.929 . S
C2199 C2197 1.433 . S
C2199 N2202 1.384 . S
C2200 H2191 0.929 . S
C2200 C2192 1.378 . S
C2200 C2195 1.350 . S
C2201 H2188 0.929 . S
C2201 C2193 1.433 . S
C2201 N2203 1.384 . S
N2202 C2198 1.427 . S
N2202 C2199 1.384 . S
N2203 C2195 1.427 . S
N2203 C2201 1.384 . S
H2204 C2210 0.930 . S
H2205 C2214 0.930 1_455 S
H2206 C2219 0.929 . S
H2207 C2217 0.929 . S
H2208 C2212 0.929 . S
H2209 C2218 0.929 . S
C2210 H2204 0.930 . S
C2210 C2211 1.367 . S
C2210 C2218 1.378 . S
C2211 C2210 1.367 . S
C2211 C2219 1.433 . S
C2212 H2208 0.929 . S
C2212 C2214 1.378 . S
C2212 C2216 1.350 . S
C2213 C2216 1.463 . S
C2213 C2218 1.350 . S
C2213 N2221 1.427 . S
C2214 H2205 0.930 1_655 S
C2214 C2212 1.378 . S
C2214 C2215 1.367 . S
C2215 C2214 1.367 . S
C2215 C2217 1.433 . S
C2216 C2212 1.350 . S
C2216 C2213 1.463 . S
C2216 N2220 1.427 . S
C2217 H2207 0.929 . S
C2217 C2215 1.433 . S
C2217 N2220 1.384 . S
C2218 H2209 0.929 . S
C2218 C2210 1.378 . S
C2218 C2213 1.350 . S
C2219 H2206 0.929 . S
C2219 C2211 1.433 . S
C2219 N2221 1.384 . S
N2220 C2216 1.427 . S
N2220 C2217 1.384 . S
N2221 C2213 1.427 . S
N2221 C2219 1.384 . S
H2222 C2228 0.930 . S
H2223 C2232 0.930 . S
H2224 C2237 0.929 . S
H2225 C2235 0.929 . S
H2226 C2230 0.929 . S
H2227 C2236 0.929 . S
C2228 H2222 0.930 . S
C2228 C2229 1.367 . S
C2228 C2236 1.378 . S
C2229 C2228 1.367 . S
C2229 C2237 1.433 . S
C2230 H2226 0.929 . S
C2230 C2232 1.378 . S
C2230 C2234 1.350 . S
C2231 C2234 1.463 . S
C2231 C2236 1.350 . S
C2231 N2239 1.427 . S
C2232 H2223 0.930 . S
C2232 C2230 1.378 . S
C2232 C2233 1.367 . S
C2233 C2232 1.367 . S
C2233 C2235 1.433 . S
C2234 C2230 1.350 . S
C2234 C2231 1.463 . S
C2234 N2238 1.427 . S
C2235 H2225 0.929 . S
C2235 C2233 1.433 . S
C2235 N2238 1.384 . S
C2236 H2227 0.929 . S
C2236 C2228 1.378 . S
C2236 C2231 1.350 . S
C2237 H2224 0.929 . S
C2237 C2229 1.433 . S
C2237 N2239 1.384 . S
N2238 C2234 1.427 . S
N2238 C2235 1.384 . S
N2239 C2231 1.427 . S
N2239 C2237 1.384 . S
H2240 C2246 0.930 . S
H2241 C2250 0.930 . S
H2242 C2255 0.929 . S
H2243 C2253 0.929 . S
H2244 C2248 0.929 . S
H2245 C2254 0.929 . S
C2246 H2240 0.930 . S
C2246 C2247 1.367 . S
C2246 C2254 1.378 . S
C2247 C2246 1.367 . S
C2247 C2255 1.433 . S
C2248 H2244 0.929 . S
C2248 C2250 1.378 . S
C2248 C2252 1.350 . S
C2249 C2252 1.463 . S
C2249 C2254 1.350 . S
C2249 N2257 1.427 . S
C2250 H2241 0.930 . S
C2250 C2248 1.378 . S
C2250 C2251 1.367 . S
C2251 C2250 1.367 . S
C2251 C2253 1.433 . S
C2252 C2248 1.350 . S
C2252 C2249 1.463 . S
C2252 N2256 1.427 . S
C2253 H2243 0.929 . S
C2253 C2251 1.433 . S
C2253 N2256 1.384 . S
C2254 H2245 0.929 . S
C2254 C2246 1.378 . S
C2254 C2249 1.350 . S
C2255 H2242 0.929 . S
C2255 C2247 1.433 . S
C2255 N2257 1.384 . S
N2256 C2252 1.427 . S
N2256 C2253 1.384 . S
N2257 C2249 1.427 . S
N2257 C2255 1.384 . S
H2258 C2264 0.930 . S
H2259 C2268 0.930 . S
H2260 C2273 0.929 . S
H2261 C2271 0.929 1_545 S
H2262 C2266 0.929 . S
H2263 C2272 0.929 . S
C2264 H2258 0.930 . S
C2264 C2265 1.367 . S
C2264 C2272 1.378 . S
C2265 C2264 1.367 . S
C2265 C2273 1.433 . S
C2266 H2262 0.929 . S
C2266 C2268 1.378 . S
C2266 C2270 1.350 . S
C2267 C2270 1.463 . S
C2267 C2272 1.350 . S
C2267 N2275 1.427 . S
C2268 H2259 0.930 . S
C2268 C2266 1.378 . S
C2268 C2269 1.367 . S
C2269 C2268 1.367 . S
C2269 C2271 1.433 . S
C2270 C2266 1.350 . S
C2270 C2267 1.463 . S
C2270 N2274 1.427 . S
C2271 H2261 0.929 1_565 S
C2271 C2269 1.433 . S
C2271 N2274 1.384 . S
C2272 H2263 0.929 . S
C2272 C2264 1.378 . S
C2272 C2267 1.350 . S
C2273 H2260 0.929 . S
C2273 C2265 1.433 . S
C2273 N2275 1.384 . S
N2274 C2270 1.427 . S
N2274 C2271 1.384 . S
N2275 C2267 1.427 . S
N2275 C2273 1.384 . S
H2276 C2282 0.930 . S
H2277 C2286 0.930 . S
H2278 C2291 0.929 . S
H2279 C2289 0.929 . S
H2280 C2284 0.929 . S
H2281 C2290 0.929 . S
C2282 H2276 0.930 . S
C2282 C2283 1.367 . S
C2282 C2290 1.378 . S
C2283 C2282 1.367 . S
C2283 C2291 1.433 . S
C2284 H2280 0.929 . S
C2284 C2286 1.378 . S
C2284 C2288 1.350 . S
C2285 C2288 1.463 . S
C2285 C2290 1.350 . S
C2285 N2293 1.427 . S
C2286 H2277 0.930 . S
C2286 C2284 1.378 . S
C2286 C2287 1.367 . S
C2287 C2286 1.367 . S
C2287 C2289 1.433 . S
C2288 C2284 1.350 . S
C2288 C2285 1.463 . S
C2288 N2292 1.427 . S
C2289 H2279 0.929 . S
C2289 C2287 1.433 . S
C2289 N2292 1.384 . S
C2290 H2281 0.929 . S
C2290 C2282 1.378 . S
C2290 C2285 1.350 . S
C2291 H2278 0.929 . S
C2291 C2283 1.433 . S
C2291 N2293 1.384 . S
N2292 C2288 1.427 . S
N2292 C2289 1.384 . S
N2293 C2285 1.427 . S
N2293 C2291 1.384 . S
H2294 C2300 0.930 . S
H2295 C2304 0.930 . S
H2296 C2309 0.929 . S
H2297 C2307 0.929 . S
H2298 C2302 0.929 . S
H2299 C2308 0.929 . S
C2300 H2294 0.930 . S
C2300 C2301 1.365 1_554 S
C2300 C2308 1.378 . S
C2301 C2300 1.365 1_556 S
C2301 C2309 1.434 . S
C2302 H2298 0.929 . S
C2302 C2304 1.378 . S
C2302 C2306 1.350 1_556 S
C2303 C2306 1.463 . S
C2303 C2308 1.350 . S
C2303 N2311 1.427 1_554 S
C2304 H2295 0.930 . S
C2304 C2302 1.378 . S
C2304 C2305 1.367 1_556 S
C2305 C2304 1.367 1_554 S
C2305 C2307 1.433 . S
C2306 C2302 1.350 1_554 S
C2306 C2303 1.463 . S
C2306 N2310 1.427 . S
C2307 H2297 0.929 . S
C2307 C2305 1.433 . S
C2307 N2310 1.384 . S
C2308 H2299 0.929 . S
C2308 C2300 1.378 . S
C2308 C2303 1.350 . S
C2309 H2296 0.929 . S
C2309 C2301 1.434 . S
C2309 N2311 1.384 . S
N2310 C2306 1.427 . S
N2310 C2307 1.384 . S
N2311 C2303 1.427 1_556 S
N2311 C2309 1.384 . S
H2312 C2318 0.930 . S
H2313 C2322 0.930 . S
H2314 C2327 0.929 . S
H2315 C2325 0.929 . S
H2316 C2320 0.929 . S
H2317 C2326 0.929 . S
C2318 H2312 0.930 . S
C2318 C2319 1.367 . S
C2318 C2326 1.378 . S
C2319 C2318 1.367 . S
C2319 C2327 1.433 . S
C2320 H2316 0.929 . S
C2320 C2322 1.378 . S
C2320 C2324 1.350 . S
C2321 C2324 1.463 . S
C2321 C2326 1.350 . S
C2321 N2329 1.427 . S
C2322 H2313 0.930 . S
C2322 C2320 1.378 . S
C2322 C2323 1.367 . S
C2323 C2322 1.367 . S
C2323 C2325 1.433 . S
C2324 C2320 1.350 . S
C2324 C2321 1.463 . S
C2324 N2328 1.427 . S
C2325 H2315 0.929 . S
C2325 C2323 1.433 . S
C2325 N2328 1.384 . S
C2326 H2317 0.929 . S
C2326 C2318 1.378 . S
C2326 C2321 1.350 . S
C2327 H2314 0.929 . S
C2327 C2319 1.433 . S
C2327 N2329 1.384 . S
N2328 C2324 1.427 . S
N2328 C2325 1.384 . S
N2329 C2321 1.427 . S
N2329 C2327 1.384 . S
H2330 C2336 0.930 . S
H2331 C2340 0.930 . S
H2332 C2345 0.929 . S
H2333 C2343 0.929 . S
H2334 C2338 0.929 . S
H2335 C2344 0.929 . S
C2336 H2330 0.930 . S
C2336 C2337 1.367 1_556 S
C2336 C2344 1.378 . S
C2337 C2336 1.367 1_554 S
C2337 C2345 1.433 . S
C2338 H2334 0.929 . S
C2338 C2340 1.378 . S
C2338 C2342 1.350 1_554 S
C2339 C2342 1.463 . S
C2339 C2344 1.350 . S
C2339 N2347 1.427 1_556 S
C2340 H2331 0.930 . S
C2340 C2338 1.378 . S
C2340 C2341 1.367 1_554 S
C2341 C2340 1.367 1_556 S
C2341 C2343 1.433 . S
C2342 C2338 1.350 1_556 S
C2342 C2339 1.463 . S
C2342 N2346 1.427 . S
C2343 H2333 0.929 . S
C2343 C2341 1.433 . S
C2343 N2346 1.384 . S
C2344 H2335 0.929 . S
C2344 C2336 1.378 . S
C2344 C2339 1.350 . S
C2345 H2332 0.929 . S
C2345 C2337 1.433 . S
C2345 N2347 1.384 . S
N2346 C2342 1.427 . S
N2346 C2343 1.384 . S
N2347 C2339 1.427 1_554 S
N2347 C2345 1.384 . S
H2348 C2354 0.930 . S
H2349 C2358 0.930 . S
H2350 C2363 0.929 . S
H2351 C2361 0.929 . S
H2352 C2356 0.929 . S
H2353 C2362 0.929 . S
C2354 H2348 0.930 . S
C2354 C2355 1.367 . S
C2354 C2362 1.378 . S
C2355 C2354 1.367 . S
C2355 C2363 1.433 . S
C2356 H2352 0.929 . S
C2356 C2358 1.378 . S
C2356 C2360 1.350 . S
C2357 C2360 1.463 . S
C2357 C2362 1.350 . S
C2357 N2365 1.427 . S
C2358 H2349 0.930 . S
C2358 C2356 1.378 . S
C2358 C2359 1.367 . S
C2359 C2358 1.367 . S
C2359 C2361 1.433 . S
C2360 C2356 1.350 . S
C2360 C2357 1.463 . S
C2360 N2364 1.427 . S
C2361 H2351 0.929 . S
C2361 C2359 1.433 . S
C2361 N2364 1.384 . S
C2362 H2353 0.929 . S
C2362 C2354 1.378 . S
C2362 C2357 1.350 . S
C2363 H2350 0.929 . S
C2363 C2355 1.433 . S
C2363 N2365 1.384 . S
N2364 C2360 1.427 . S
N2364 C2361 1.384 . S
N2365 C2357 1.427 . S
N2365 C2363 1.384 . S
H2366 C2372 0.930 . S
H2367 C2376 0.930 . S
H2368 C2381 0.929 . S
H2369 C2379 0.929 . S
H2370 C2374 0.929 . S
H2371 C2380 0.929 . S
C2372 H2366 0.930 . S
C2372 C2373 1.367 . S
C2372 C2380 1.378 . S
C2373 C2372 1.367 . S
C2373 C2381 1.433 . S
C2374 H2370 0.929 . S
C2374 C2376 1.378 . S
C2374 C2378 1.350 . S
C2375 C2378 1.463 . S
C2375 C2380 1.350 . S
C2375 N2383 1.427 . S
C2376 H2367 0.930 . S
C2376 C2374 1.378 . S
C2376 C2377 1.367 . S
C2377 C2376 1.367 . S
C2377 C2379 1.433 . S
C2378 C2374 1.350 . S
C2378 C2375 1.463 . S
C2378 N2382 1.427 . S
C2379 H2369 0.929 . S
C2379 C2377 1.433 . S
C2379 N2382 1.384 . S
C2380 H2371 0.929 . S
C2380 C2372 1.378 . S
C2380 C2375 1.350 . S
C2381 H2368 0.929 . S
C2381 C2373 1.433 . S
C2381 N2383 1.384 . S
N2382 C2378 1.427 . S
N2382 C2379 1.384 . S
N2383 C2375 1.427 . S
N2383 C2381 1.384 . S
C663 C109 1.480 . S
C667 C354 1.442 . S
C681 C61 1.337 . S
C685 C365 1.527 . S
C699 C74 0.989 . S
C703 C394 0.989 . S
C721 C397 1.442 . S
C717 C96 1.460 . S
C735 C25 1.500 . S
C739 C435 1.475 . S
C757 C438 0.921 . S
C753 C40 0.925 . S
C775 C465 1.506 . S
C771 C46 1.509 . S
C789 C5 1.346 . S
C793 C494 1.559 . S
C811 C345 1.397 1_655 S
C807 C229 1.206 . S
C825 C249 0.837 . S
C829 C357 0.833 . S
C847 C385 1.440 . S
C843 C271 1.238 . S
C865 C414 1.215 . S
C861 C172 1.169 . S
C879 C236 0.962 . S
C883 C418 0.962 . S
C901 C444 1.748 . S
C897 C242 1.747 . S
C919 C457 0.687 . S
C915 C278 0.675 . S
C937 C485 1.625 . S
C933 C179 1.628 . S
C955 C337 1.465 1_565 S
C951 C159 1.244 . S
C969 C285 1.393 1_554 S
C973 C504 1.627 . S
C991 C535 1.386 . S
C987 C333 1.438 . S
C1009 C554 0.912 . S
C1005 C320 0.916 . S
C1023 C123 1.292 . S
C1027 C477 1.262 . S
C1041 C138 1.488 . S
C1045 C377 1.466 . S
C1059 C326 1.658 . S
C1063 C565 1.648 . S
C1081 C594 0.912 . S
C1077 C298 0.909 . S
C1099 C355 1.434 . S
C1095 C67 1.443 . S
C1117 C584 1.491 . S
C1113 C110 1.498 . S
C1131 C88 0.997 . S
C1135 C395 0.994 . S
C1149 C75 1.167 . S
C1153 C558 1.369 . S
C1171 C434 1.428 1_655 S
C1167 C11 1.463 . S
C1185 C47 0.878 . S
C1189 C517 0.923 . S
C1207 C464 1.410 1_556 S
C1203 C32 1.366 . S
C1225 C615 1.578 . S
C1221 C26 1.643 . S
C1243 C344 1.509 . S
C1239 C152 1.519 . S
C1261 C578 0.835 . S
C1257 C319 0.828 . S
C1275 C124 1.439 . S
C1279 C384 1.426 . S
C1293 C284 1.226 . S
C1297 C575 1.215 . S
C1311 C145 0.903 . S
C1315 C417 0.945 . S
C1333 C525 1.659 . S
C1329 C312 1.642 . S
C1347 C117 0.648 . S
C1351 C458 0.570 1_565 S
C1365 C291 1.557 . S
C1369 C604 1.555 . S
C1383 C194 1.526 1_556 S
C1387 C338 1.505 . S
C1401 C180 1.627 . S
C1405 C505 1.607 . S
C1419 C263 1.332 . S
C1423 C454 1.305 . S
C1437 C243 0.828 . S
C1441 C555 0.845 . S
C1459 C598 1.285 . S
C1455 C277 1.265 . S
C1473 C215 1.273 . S
C1477 C378 1.439 . S
C1495 C404 1.565 . S
C1491 C256 1.527 . S
C1513 C375 0.978 . S
C1509 C200 0.996 . S
C1527 C81 1.483 . S
C1531 C634 1.449 . S
C1549 C585 1.526 . S
C1545 C89 1.324 . S
C1563 C102 0.989 . S
C1567 C654 0.987 . S
C1581 C68 1.461 . S
C1585 C557 1.450 . S
C1599 C53 1.506 . S
C1603 C515 1.466 . S
C1621 C518 0.926 . S
C1617 C12 0.918 . S
C1639 C545 1.508 . S
C1635 C18 1.506 1_455 S
C1657 C614 1.561 . S
C1653 C33 1.320 . S
C1675 C625 1.400 . S
C1671 C257 1.176 . S
C1689 C193 0.837 . S
C1693 C577 0.836 . S
C1711 C645 1.438 . S
C1707 C201 1.241 . S
C1729 C574 1.215 . S
C1725 C214 1.186 . S
C1747 C498 0.963 . S
C1743 C264 0.960 . S
C1761 C186 1.751 . S
C1765 C524 1.741 . S
C1783 C537 0.669 . S
C1779 C208 0.671 . S
C1797 C221 1.621 . S
C1801 C605 1.631 . S
C1819 C617 1.468 . S
C1815 C313 1.241 . S
C1833 C131 1.392 . S
C1837 C424 1.626 . S
C1855 C455 1.398 . S
C1851 C151 1.443 . S
C1873 C474 0.904 . S
C1869 C166 0.920 . S
C1891 C597 1.260 . S
C1887 C305 1.293 . S
C1905 C292 1.490 . S
C1909 C637 1.470 . S
C1927 C405 1.649 . S
C1923 C144 1.647 . S
C1945 C374 0.928 . S
C1941 C116 0.925 . S
C1959 C95 1.439 . S
C1963 C635 1.425 . S
C1981 C364 1.494 . S
C1977 C82 1.496 . S
C1995 C60 0.995 . S
C1999 C655 0.976 . S
C2013 C103 1.186 . S
C2017 C398 1.367 . S
C2031 C39 1.457 . S
C2035 C514 1.419 . S
C2053 C437 0.923 . S
C2049 C19 0.883 . S
C2067 C4 1.372 . S
C2071 C544 1.418 . S
C2085 C54 1.642 . S
C2089 C495 1.586 . S
C2107 C624 1.514 . S
C2103 C334 1.518 . S
C2121 C165 0.832 . S
C2125 C358 0.840 . S
C2143 C644 1.430 1_655 S
C2139 C306 1.439 . S
C2157 C130 1.227 . S
C2161 C415 1.220 . S
C2175 C327 0.896 . S
C2179 C497 0.949 . S
C2197 C445 1.659 . S
C2193 C158 1.641 . S
C2211 C299 0.663 . S
C2215 C538 0.561 . S
C2233 C484 1.552 . S
C2229 C137 1.559 . S
C2251 C618 1.496 . S
C2247 C250 1.522 . S
C2269 C425 1.600 1_565 S
C2265 C222 1.627 . S
C2283 C235 1.323 . S
C2287 C534 1.291 . S
C2305 C475 0.846 . S
C2301 C187 0.827 . S
C2319 C207 1.280 . S
C2323 C478 1.292 . S
C2337 C173 1.271 . S
C2341 C638 1.439 . S
C2359 C564 1.566 . S
C2355 C228 1.531 1_565 S
C2377 C595 0.965 . S
C2373 C270 0.983 . S
