# Generated by pormake.
# Topology gar, (4,6)-cn, num edge types: 1
# Building blocks:
#     Node 0, Type 0, BuildingBlock: NAHDIM_clean_sbu_0, # of connection points: 4
#     Node 1, Type 0, BuildingBlock: NAHDIM_clean_sbu_0, # of connection points: 4
#     Node 2, Type 0, BuildingBlock: NAHDIM_clean_sbu_0, # of connection points: 4
#     Node 3, Type 0, BuildingBlock: NAHDIM_clean_sbu_0, # of connection points: 4
#     Node 4, Type 0, BuildingBlock: NAHDIM_clean_sbu_0, # of connection points: 4
#     Node 5, Type 0, BuildingBlock: NAHDIM_clean_sbu_0, # of connection points: 4
#     Node 6, Type 0, BuildingBlock: NAHDIM_clean_sbu_0, # of connection points: 4
#     Node 7, Type 0, BuildingBlock: NAHDIM_clean_sbu_0, # of connection points: 4
#     Node 8, Type 0, BuildingBlock: NAHDIM_clean_sbu_0, # of connection points: 4
#     Node 9, Type 0, BuildingBlock: NAHDIM_clean_sbu_0, # of connection points: 4
#     Node 10, Type 0, BuildingBlock: NAHDIM_clean_sbu_0, # of connection points: 4
#     Node 11, Type 0, BuildingBlock: NAHDIM_clean_sbu_0, # of connection points: 4
#     Node 12, Type 0, BuildingBlock: NAHDIM_clean_sbu_0, # of connection points: 4
#     Node 13, Type 0, BuildingBlock: NAHDIM_clean_sbu_0, # of connection points: 4
#     Node 14, Type 0, BuildingBlock: NAHDIM_clean_sbu_0, # of connection points: 4
#     Node 15, Type 0, BuildingBlock: NAHDIM_clean_sbu_0, # of connection points: 4
#     Node 16, Type 0, BuildingBlock: NAHDIM_clean_sbu_0, # of connection points: 4
#     Node 17, Type 0, BuildingBlock: NAHDIM_clean_sbu_0, # of connection points: 4
#     Node 18, Type 0, BuildingBlock: NAHDIM_clean_sbu_0, # of connection points: 4
#     Node 19, Type 0, BuildingBlock: NAHDIM_clean_sbu_0, # of connection points: 4
#     Node 20, Type 0, BuildingBlock: NAHDIM_clean_sbu_0, # of connection points: 4
#     Node 21, Type 0, BuildingBlock: NAHDIM_clean_sbu_0, # of connection points: 4
#     Node 22, Type 0, BuildingBlock: NAHDIM_clean_sbu_0, # of connection points: 4
#     Node 23, Type 0, BuildingBlock: NAHDIM_clean_sbu_0, # of connection points: 4
#     Node 24, Type 1, BuildingBlock: BETFAJ_clean_sbu_0, # of connection points: 6
#     Node 25, Type 1, BuildingBlock: BETFAJ_clean_sbu_0, # of connection points: 6
#     Node 26, Type 1, BuildingBlock: BETFAJ_clean_sbu_0, # of connection points: 6
#     Node 27, Type 1, BuildingBlock: BETFAJ_clean_sbu_0, # of connection points: 6
#     Node 28, Type 1, BuildingBlock: BETFAJ_clean_sbu_0, # of connection points: 6
#     Node 29, Type 1, BuildingBlock: BETFAJ_clean_sbu_0, # of connection points: 6
#     Node 30, Type 1, BuildingBlock: BETFAJ_clean_sbu_0, # of connection points: 6
#     Node 31, Type 1, BuildingBlock: BETFAJ_clean_sbu_0, # of connection points: 6
#     Node 32, Type 1, BuildingBlock: BETFAJ_clean_sbu_0, # of connection points: 6
#     Node 33, Type 1, BuildingBlock: BETFAJ_clean_sbu_0, # of connection points: 6
#     Node 34, Type 1, BuildingBlock: BETFAJ_clean_sbu_0, # of connection points: 6
#     Node 35, Type 1, BuildingBlock: BETFAJ_clean_sbu_0, # of connection points: 6
#     Node 36, Type 1, BuildingBlock: BETFAJ_clean_sbu_0, # of connection points: 6
#     Node 37, Type 1, BuildingBlock: BETFAJ_clean_sbu_0, # of connection points: 6
#     Node 38, Type 1, BuildingBlock: BETFAJ_clean_sbu_0, # of connection points: 6
#     Node 39, Type 1, BuildingBlock: BETFAJ_clean_sbu_0, # of connection points: 6
#     Edge 40, Type (0, 1), BuildingBlock: AJUNOK_clean_linker_0, # of connection points: 2
#     Edge 41, Type (0, 1), BuildingBlock: AJUNOK_clean_linker_0, # of connection points: 2
#     Edge 42, Type (0, 1), BuildingBlock: AJUNOK_clean_linker_0, # of connection points: 2
#     Edge 43, Type (0, 1), BuildingBlock: AJUNOK_clean_linker_0, # of connection points: 2
#     Edge 44, Type (0, 1), BuildingBlock: AJUNOK_clean_linker_0, # of connection points: 2
#     Edge 45, Type (0, 1), BuildingBlock: AJUNOK_clean_linker_0, # of connection points: 2
#     Edge 46, Type (0, 1), BuildingBlock: AJUNOK_clean_linker_0, # of connection points: 2
#     Edge 47, Type (0, 1), BuildingBlock: AJUNOK_clean_linker_0, # of connection points: 2
#     Edge 48, Type (0, 1), BuildingBlock: AJUNOK_clean_linker_0, # of connection points: 2
#     Edge 49, Type (0, 1), BuildingBlock: AJUNOK_clean_linker_0, # of connection points: 2
#     Edge 50, Type (0, 1), BuildingBlock: AJUNOK_clean_linker_0, # of connection points: 2
#     Edge 51, Type (0, 1), BuildingBlock: AJUNOK_clean_linker_0, # of connection points: 2
#     Edge 52, Type (0, 1), BuildingBlock: AJUNOK_clean_linker_0, # of connection points: 2
#     Edge 53, Type (0, 1), BuildingBlock: AJUNOK_clean_linker_0, # of connection points: 2
#     Edge 54, Type (0, 1), BuildingBlock: AJUNOK_clean_linker_0, # of connection points: 2
#     Edge 55, Type (0, 1), BuildingBlock: AJUNOK_clean_linker_0, # of connection points: 2
#     Edge 56, Type (0, 1), BuildingBlock: AJUNOK_clean_linker_0, # of connection points: 2
#     Edge 57, Type (0, 1), BuildingBlock: AJUNOK_clean_linker_0, # of connection points: 2
#     Edge 58, Type (0, 1), BuildingBlock: AJUNOK_clean_linker_0, # of connection points: 2
#     Edge 59, Type (0, 1), BuildingBlock: AJUNOK_clean_linker_0, # of connection points: 2
#     Edge 60, Type (0, 1), BuildingBlock: AJUNOK_clean_linker_0, # of connection points: 2
#     Edge 61, Type (0, 1), BuildingBlock: AJUNOK_clean_linker_0, # of connection points: 2
#     Edge 62, Type (0, 1), BuildingBlock: AJUNOK_clean_linker_0, # of connection points: 2
#     Edge 63, Type (0, 1), BuildingBlock: AJUNOK_clean_linker_0, # of connection points: 2
#     Edge 64, Type (0, 1), BuildingBlock: AJUNOK_clean_linker_0, # of connection points: 2
#     Edge 65, Type (0, 1), BuildingBlock: AJUNOK_clean_linker_0, # of connection points: 2
#     Edge 66, Type (0, 1), BuildingBlock: AJUNOK_clean_linker_0, # of connection points: 2
#     Edge 67, Type (0, 1), BuildingBlock: AJUNOK_clean_linker_0, # of connection points: 2
#     Edge 68, Type (0, 1), BuildingBlock: AJUNOK_clean_linker_0, # of connection points: 2
#     Edge 69, Type (0, 1), BuildingBlock: AJUNOK_clean_linker_0, # of connection points: 2
#     Edge 70, Type (0, 1), BuildingBlock: AJUNOK_clean_linker_0, # of connection points: 2
#     Edge 71, Type (0, 1), BuildingBlock: AJUNOK_clean_linker_0, # of connection points: 2
#     Edge 72, Type (0, 1), BuildingBlock: AJUNOK_clean_linker_0, # of connection points: 2
#     Edge 73, Type (0, 1), BuildingBlock: AJUNOK_clean_linker_0, # of connection points: 2
#     Edge 74, Type (0, 1), BuildingBlock: AJUNOK_clean_linker_0, # of connection points: 2
#     Edge 75, Type (0, 1), BuildingBlock: AJUNOK_clean_linker_0, # of connection points: 2
#     Edge 76, Type (0, 1), BuildingBlock: AJUNOK_clean_linker_0, # of connection points: 2
#     Edge 77, Type (0, 1), BuildingBlock: AJUNOK_clean_linker_0, # of connection points: 2
#     Edge 78, Type (0, 1), BuildingBlock: AJUNOK_clean_linker_0, # of connection points: 2
#     Edge 79, Type (0, 1), BuildingBlock: AJUNOK_clean_linker_0, # of connection points: 2
#     Edge 80, Type (0, 1), BuildingBlock: AJUNOK_clean_linker_0, # of connection points: 2
#     Edge 81, Type (0, 1), BuildingBlock: AJUNOK_clean_linker_0, # of connection points: 2
#     Edge 82, Type (0, 1), BuildingBlock: AJUNOK_clean_linker_0, # of connection points: 2
#     Edge 83, Type (0, 1), BuildingBlock: AJUNOK_clean_linker_0, # of connection points: 2
#     Edge 84, Type (0, 1), BuildingBlock: AJUNOK_clean_linker_0, # of connection points: 2
#     Edge 85, Type (0, 1), BuildingBlock: AJUNOK_clean_linker_0, # of connection points: 2
#     Edge 86, Type (0, 1), BuildingBlock: AJUNOK_clean_linker_0, # of connection points: 2
#     Edge 87, Type (0, 1), BuildingBlock: AJUNOK_clean_linker_0, # of connection points: 2
#     Edge 88, Type (0, 1), BuildingBlock: AJUNOK_clean_linker_0, # of connection points: 2
#     Edge 89, Type (0, 1), BuildingBlock: AJUNOK_clean_linker_0, # of connection points: 2
#     Edge 90, Type (0, 1), BuildingBlock: AJUNOK_clean_linker_0, # of connection points: 2
#     Edge 91, Type (0, 1), BuildingBlock: AJUNOK_clean_linker_0, # of connection points: 2
#     Edge 92, Type (0, 1), BuildingBlock: AJUNOK_clean_linker_0, # of connection points: 2
#     Edge 93, Type (0, 1), BuildingBlock: AJUNOK_clean_linker_0, # of connection points: 2
#     Edge 94, Type (0, 1), BuildingBlock: AJUNOK_clean_linker_0, # of connection points: 2
#     Edge 95, Type (0, 1), BuildingBlock: AJUNOK_clean_linker_0, # of connection points: 2
#     Edge 96, Type (0, 1), BuildingBlock: AJUNOK_clean_linker_0, # of connection points: 2
#     Edge 97, Type (0, 1), BuildingBlock: AJUNOK_clean_linker_0, # of connection points: 2
#     Edge 98, Type (0, 1), BuildingBlock: AJUNOK_clean_linker_0, # of connection points: 2
#     Edge 99, Type (0, 1), BuildingBlock: AJUNOK_clean_linker_0, # of connection points: 2
#     Edge 100, Type (0, 1), BuildingBlock: AJUNOK_clean_linker_0, # of connection points: 2
#     Edge 101, Type (0, 1), BuildingBlock: AJUNOK_clean_linker_0, # of connection points: 2
#     Edge 102, Type (0, 1), BuildingBlock: AJUNOK_clean_linker_0, # of connection points: 2
#     Edge 103, Type (0, 1), BuildingBlock: AJUNOK_clean_linker_0, # of connection points: 2
#     Edge 104, Type (0, 1), BuildingBlock: AJUNOK_clean_linker_0, # of connection points: 2
#     Edge 105, Type (0, 1), BuildingBlock: AJUNOK_clean_linker_0, # of connection points: 2
#     Edge 106, Type (0, 1), BuildingBlock: AJUNOK_clean_linker_0, # of connection points: 2
#     Edge 107, Type (0, 1), BuildingBlock: AJUNOK_clean_linker_0, # of connection points: 2
#     Edge 108, Type (0, 1), BuildingBlock: AJUNOK_clean_linker_0, # of connection points: 2
#     Edge 109, Type (0, 1), BuildingBlock: AJUNOK_clean_linker_0, # of connection points: 2
#     Edge 110, Type (0, 1), BuildingBlock: AJUNOK_clean_linker_0, # of connection points: 2
#     Edge 111, Type (0, 1), BuildingBlock: AJUNOK_clean_linker_0, # of connection points: 2
#     Edge 112, Type (0, 1), BuildingBlock: AJUNOK_clean_linker_0, # of connection points: 2
#     Edge 113, Type (0, 1), BuildingBlock: AJUNOK_clean_linker_0, # of connection points: 2
#     Edge 114, Type (0, 1), BuildingBlock: AJUNOK_clean_linker_0, # of connection points: 2
#     Edge 115, Type (0, 1), BuildingBlock: AJUNOK_clean_linker_0, # of connection points: 2
#     Edge 116, Type (0, 1), BuildingBlock: AJUNOK_clean_linker_0, # of connection points: 2
#     Edge 117, Type (0, 1), BuildingBlock: AJUNOK_clean_linker_0, # of connection points: 2
#     Edge 118, Type (0, 1), BuildingBlock: AJUNOK_clean_linker_0, # of connection points: 2
#     Edge 119, Type (0, 1), BuildingBlock: AJUNOK_clean_linker_0, # of connection points: 2
#     Edge 120, Type (0, 1), BuildingBlock: AJUNOK_clean_linker_0, # of connection points: 2
#     Edge 121, Type (0, 1), BuildingBlock: AJUNOK_clean_linker_0, # of connection points: 2
#     Edge 122, Type (0, 1), BuildingBlock: AJUNOK_clean_linker_0, # of connection points: 2
#     Edge 123, Type (0, 1), BuildingBlock: AJUNOK_clean_linker_0, # of connection points: 2
#     Edge 124, Type (0, 1), BuildingBlock: AJUNOK_clean_linker_0, # of connection points: 2
#     Edge 125, Type (0, 1), BuildingBlock: AJUNOK_clean_linker_0, # of connection points: 2
#     Edge 126, Type (0, 1), BuildingBlock: AJUNOK_clean_linker_0, # of connection points: 2
#     Edge 127, Type (0, 1), BuildingBlock: AJUNOK_clean_linker_0, # of connection points: 2
#     Edge 128, Type (0, 1), BuildingBlock: AJUNOK_clean_linker_0, # of connection points: 2
#     Edge 129, Type (0, 1), BuildingBlock: AJUNOK_clean_linker_0, # of connection points: 2
#     Edge 130, Type (0, 1), BuildingBlock: AJUNOK_clean_linker_0, # of connection points: 2
#     Edge 131, Type (0, 1), BuildingBlock: AJUNOK_clean_linker_0, # of connection points: 2
#     Edge 132, Type (0, 1), BuildingBlock: AJUNOK_clean_linker_0, # of connection points: 2
#     Edge 133, Type (0, 1), BuildingBlock: AJUNOK_clean_linker_0, # of connection points: 2
#     Edge 134, Type (0, 1), BuildingBlock: AJUNOK_clean_linker_0, # of connection points: 2
#     Edge 135, Type (0, 1), BuildingBlock: AJUNOK_clean_linker_0, # of connection points: 2
# Relax obj value: 0.267
# Max RMSD: 0.337
# Mean RMSD: 0.195
data_MOF--net-gar--node1-NAHDIM_clean_sbu_0--node2-BETFAJ_clean_sbu_0--edge1-AJUNOK_clean_linker_0
_symmetry_space_group_name_H-M    P1
_symmetry_Int_Tables_number       1
_symmetry_cell_setting            triclinic
loop_
_symmetry_equiv_pos_as_xyz
'x, y, z'
_cell_length_a     49.163459
_cell_length_b     42.536627
_cell_length_c     41.762777
_cell_angle_alpha  100.40462
_cell_angle_beta   96.170472
_cell_angle_gamma 103.5611
loop_
_atom_site_label
_atom_site_type_symbol
_atom_site_fract_x
_atom_site_fract_y
_atom_site_fract_z
_atom_type_partial_charge
C0 C 0.20425 0.3895 0.36271 0.0
O1 O 0.20418 0.41999 0.3757 0.0
O2 O 0.13998 0.33588 0.41164 0.0
Zn3 Zn 0.15072 0.36917 0.38437 0.0
O4 O 0.15408 0.41432 0.41005 0.0
C5 C 0.09977 0.33551 0.33798 0.0
O6 O 0.10046 0.31016 0.35166 0.0
O7 O 0.18489 0.36536 0.36608 0.0
C8 C 0.13012 0.42019 0.412 0.0
O9 O 0.107 0.39644 0.39972 0.0
C10 C 0.14378 0.34322 0.44287 0.0
O11 O 0.15653 0.37377 0.45832 0.0
O12 O 0.12011 0.36138 0.34659 0.0
C13 C 0.96464 0.74802 0.7012 0.0
O14 O 0.96085 0.71743 0.68505 0.0
O15 O 1.01012 0.71766 0.6481 0.0
Zn16 Zn 1.0164 0.76379 0.67396 0.0
O17 O 0.02315 0.79631 0.645 0.0
C18 C 0.05478 0.74704 0.71821 0.0
O19 O 0.03414 0.71979 0.7121 0.0
O20 O 0.98586 0.77031 0.69852 0.0
C21 C 0.04809 0.80639 0.63895 0.0
O22 O 0.06877 0.79647 0.65315 0.0
C23 C 1.01589 0.71381 0.61906 0.0
O24 O 1.01882 0.73855 0.60389 0.0
O25 O 0.05126 0.77134 0.7061 0.0
C26 C 0.70778 0.88073 0.87829 0.0
O27 O 0.70706 0.87247 0.90708 0.0
O28 O 0.65156 0.84883 0.91466 0.0
Zn29 Zn 0.65371 0.88434 0.88799 0.0
O30 O 0.65277 0.92654 0.91679 0.0
C31 C 0.59595 0.85808 0.86436 0.0
O32 O 0.59692 0.85167 0.89399 0.0
O33 O 0.6869 0.88893 0.86502 0.0
C34 C 0.64182 0.94783 0.90659 0.0
O35 O 0.63492 0.94543 0.87484 0.0
C36 C 0.6488 0.85551 0.94485 0.0
O37 O 0.64973 0.886 0.95891 0.0
O38 O 0.61883 0.87129 0.85504 0.0
C39 C 0.46821 0.25985 0.19662 0.0
O40 O 0.46236 0.24375 0.16576 0.0
O41 O 0.52805 0.22345 0.1707 0.0
Zn42 Zn 0.5255 0.26987 0.1855 0.0
O43 O 0.52393 0.2932 0.14827 0.0
C44 C 0.56565 0.27874 0.23991 0.0
O45 O 0.54461 0.25651 0.24627 0.0
O46 O 0.4938 0.27246 0.20985 0.0
C47 C 0.54167 0.29179 0.12846 0.0
O48 O 0.55956 0.27362 0.13213 0.0
C49 C 0.51447 0.20467 0.14392 0.0
O50 O 0.49626 0.2152 0.12604 0.0
O51 O 0.56133 0.29171 0.21543 0.0
C52 C 0.07999 0.83586 0.14852 0.0
O53 O 0.0757 0.83095 0.11621 0.0
O54 O 0.1225 0.7997 0.10189 0.0
Zn55 Zn 0.13493 0.84639 0.13202 0.0
O56 O 0.12778 0.88409 0.10814 0.0
C57 C 0.18417 0.82997 0.16721 0.0
O58 O 0.16596 0.80073 0.16063 0.0
O59 O 0.10552 0.84366 0.16328 0.0
C60 C 0.14211 0.90101 0.09034 0.0
O61 O 0.16621 0.89495 0.08406 0.0
C62 C 0.13814 0.78317 0.088 0.0
O63 O 0.16511 0.79767 0.08953 0.0
O64 O 0.17614 0.85405 0.15813 0.0
C65 C 0.58816 0.80959 0.41344 0.0
O66 O 0.59164 0.82642 0.44383 0.0
O67 O 0.52996 0.74746 0.45012 0.0
Zn68 Zn 0.53102 0.78841 0.42785 0.0
O69 O 0.54194 0.83393 0.46084 0.0
C70 C 0.46771 0.77509 0.39829 0.0
O71 O 0.46113 0.75956 0.42198 0.0
O72 O 0.56375 0.79068 0.40057 0.0
C73 C 0.52704 0.8547 0.45984 0.0
O74 O 0.50235 0.8451 0.44065 0.0
C75 C 0.55234 0.74614 0.46806 0.0
O76 O 0.57447 0.77178 0.47375 0.0
O77 O 0.49391 0.78646 0.39645 0.0
C78 C 0.58163 0.33477 0.65046 0.0
O79 O 0.57634 0.31891 0.61953 0.0
O80 O 0.62556 0.30429 0.60178 0.0
Zn81 Zn 0.63899 0.34985 0.63431 0.0
O82 O 0.64039 0.3913 0.61212 0.0
C83 C 0.70291 0.35814 0.66145 0.0
O84 O 0.71034 0.37395 0.63821 0.0
O85 O 0.60728 0.34957 0.66326 0.0
C86 C 0.61875 0.39199 0.59239 0.0
O87 O 0.59755 0.36526 0.58417 0.0
C88 C 0.64167 0.28508 0.59593 0.0
O89 O 0.66886 0.29641 0.60733 0.0
O90 O 0.67654 0.34892 0.66379 0.0
C91 C 0.08786 0.30774 0.91351 0.0
O92 O 0.09183 0.32697 0.9429 0.0
O93 O 0.03209 0.24538 0.9535 0.0
Zn94 Zn 0.03109 0.28507 0.93004 0.0
O95 O 0.03977 0.3303 0.96272 0.0
C96 C 0.97323 0.29239 0.90654 0.0
O97 O 0.97617 0.30997 0.93657 0.0
O98 O 0.06343 0.28807 0.90227 0.0
C99 C 0.0371 0.35525 0.95086 0.0
O100 O 0.02835 0.35084 0.91914 0.0
C101 C 0.05578 0.24517 0.9694 0.0
O102 O 0.07739 0.27074 0.97156 0.0
O103 O 0.99279 0.27852 0.8988 0.0
C104 C 0.43036 0.10903 0.29154 0.0
O105 O 0.44715 0.09909 0.27181 0.0
O106 O 0.46149 0.04722 0.2924 0.0
Zn107 Zn 0.45086 0.07147 0.33236 0.0
O108 O 0.48551 0.09224 0.36566 0.0
C109 C 0.4291 1.0107 0.34766 0.0
O110 O 0.45554 1.01029 0.3471 0.0
O111 O 0.43118 0.10306 0.32017 0.0
C112 C 0.48626 0.08673 0.39443 0.0
O113 O 0.463 0.0707 0.4032 0.0
C114 C 0.48355 0.03679 0.29484 0.0
O115 O 0.50044 0.04479 0.32324 0.0
O116 O 0.42183 0.03687 0.34508 0.0
C117 C 0.35225 0.20443 0.50627 0.0
O118 O 0.35989 0.23605 0.50594 0.0
O119 O 0.30743 0.24644 0.55121 0.0
Zn120 Zn 0.29727 0.21777 0.50413 0.0
O121 O 0.30181 0.23978 0.46338 0.0
C122 C 0.23724 0.19105 0.51421 0.0
O123 O 0.24058 0.21995 0.53382 0.0
O124 O 0.32609 0.19034 0.50463 0.0
C125 C 0.31955 0.26705 0.46354 0.0
O126 O 0.33403 0.28475 0.49196 0.0
C127 C 0.29903 0.26982 0.56734 0.0
O128 O 0.28086 0.28245 0.55197 0.0
O129 O 0.25759 0.18575 0.49921 0.0
C130 C 0.22866 0.97512 0.7808 0.0
O131 O 0.20183 0.96189 0.76839 0.0
O132 O 0.1855 0.04542 0.74339 0.0
Zn133 Zn 0.21008 0.0486 0.79394 0.0
O134 O 0.18262 0.04662 0.83709 0.0
C135 C 0.23546 0.12506 0.79103 0.0
O136 O 0.20955 0.1224 0.77707 0.0
O137 O 0.23602 1.00747 0.79141 0.0
C138 C 0.18282 0.06881 0.86351 0.0
O139 O 0.20107 0.09766 0.86697 0.0
C140 C 0.16225 0.05329 0.73424 0.0
O141 O 0.14806 0.06262 0.75751 0.0
O142 O 0.2404 0.09921 0.80075 0.0
C143 C 0.31177 1.00825 0.03274 0.0
O144 O 0.31511 0.98325 0.04566 0.0
O145 O 0.36471 0.96885 0.03482 0.0
Zn146 Zn 0.35667 0.99355 1.00051 0.0
O147 O 0.34662 0.96044 0.9585 0.0
C148 C 0.40902 0.03459 0.02766 0.0
O149 O 0.39697 0.03269 0.05408 0.0
O150 O 0.32701 1.017 1.01152 0.0
C151 C 0.36351 0.94201 0.95449 0.0
O152 O 0.38636 0.94758 0.9763 0.0
C153 C 0.35292 0.93846 0.03225 0.0
O154 O 0.33227 0.92292 1.00785 0.0
O155 O 0.39366 0.02367 0.99963 0.0
C156 C 0.32062 0.43857 0.03176 0.0
O157 O 0.31808 0.4109 1.01055 0.0
O158 O 0.36846 0.40674 0.10031 0.0
Zn159 Zn 0.37413 0.42606 0.0582 0.0
O160 O 0.3725 0.39541 1.0128 0.0
C161 C 0.43451 0.45434 0.05535 0.0
O162 O 0.43304 0.42377 0.04082 0.0
O163 O 0.34273 0.44991 0.05355 0.0
C164 C 0.35577 0.36783 0.99737 0.0
O165 O 0.3361 0.3526 1.01228 0.0
C166 C 0.36227 0.37661 0.103 0.0
O167 O 0.35989 0.35343 0.07666 0.0
O168 O 0.41251 0.46083 0.06575 0.0
C169 C 0.85621 0.13082 0.01766 0.0
O170 O 0.84222 0.13719 0.99204 0.0
O171 O 0.82717 0.19637 0.09252 0.0
Zn172 Zn 0.81917 0.16184 0.05088 0.0
O173 O 0.81311 0.18415 1.01368 0.0
C174 C 0.77008 0.12979 0.07443 0.0
O175 O 0.78356 0.14771 0.1032 0.0
O176 O 0.85025 0.13985 0.04612 0.0
C177 C 0.7882 0.1826 1.00043 0.0
O178 O 0.76634 0.16465 1.01002 0.0
C179 C 0.81551 0.22022 0.09424 0.0
O180 O 0.79912 0.22257 0.06833 0.0
O181 O 0.78313 0.1287 0.04989 0.0
C182 C 0.23253 0.52572 0.27645 0.0
O183 O 0.23085 0.54879 0.30114 0.0
O184 O 0.17895 0.55872 0.20361 0.0
Zn185 Zn 0.20771 0.56396 0.24251 0.0
O186 O 0.19668 0.58651 0.28284 0.0
C187 C 0.2488 0.60844 0.2149 0.0
O188 O 0.23102 0.5988 0.18706 0.0
O189 O 0.2191 0.5236 0.24812 0.0
C190 C 0.19682 0.61678 0.28574 0.0
O191 O 0.20131 0.63151 0.26102 0.0
C192 C 0.15331 0.55721 0.20663 0.0
O193 O 0.14515 0.55626 0.23545 0.0
O194 O 0.24295 0.59528 0.239 0.0
C195 C 0.81485 0.93318 0.54977 0.0
O196 O 0.80785 0.90226 0.55296 0.0
O197 O 0.86244 0.90391 0.60035 0.0
Zn198 Zn 0.8702 0.92208 0.55818 0.0
O199 O 0.86213 0.88726 0.51425 0.0
C200 C 0.93337 0.94851 0.566 0.0
O201 O 0.93424 0.91825 0.56785 0.0
O202 O 0.84092 0.94764 0.55166 0.0
C203 C 0.87962 0.88709 0.49375 0.0
O204 O 0.90484 0.9078 0.50191 0.0
C205 C 0.87053 0.88071 0.61086 0.0
O206 O 0.88614 0.86522 0.59364 0.0
O207 O 0.9094 0.95531 0.56337 0.0
C208 C 0.93972 0.16381 0.27265 0.0
O209 O 0.9651 0.17618 0.26614 0.0
O210 O 0.98488 0.09213 0.22575 0.0
Zn211 Zn 0.96006 0.09136 0.27128 0.0
O212 O 0.98699 0.09663 0.32107 0.0
C213 C 0.93399 1.01158 0.26445 0.0
O214 O 0.95928 1.00864 0.25954 0.0
O215 O 0.93397 0.13262 0.27535 0.0
C216 C 1.00123 0.07666 0.33027 0.0
O217 O 1.00278 0.05181 0.30742 0.0
C218 C 0.99842 0.07202 0.21087 0.0
O219 O 0.9998 0.04638 0.22375 0.0
O220 O 0.92979 0.04106 0.26775 0.0
C221 C 0.36174 0.63842 0.53387 0.0
O222 O 0.36429 0.66947 0.53205 0.0
O223 O 0.32897 0.68649 0.59601 0.0
Zn224 Zn 0.31332 0.64915 0.55701 0.0
O225 O 0.3023 0.66777 0.51931 0.0
C226 C 0.26339 0.63424 0.58538 0.0
O227 O 0.27704 0.66035 0.60816 0.0
O228 O 0.34067 0.62328 0.5451 0.0
C229 C 0.28502 0.65074 0.49402 0.0
O230 O 0.27643 0.61844 0.49005 0.0
C231 C 0.32833 0.71587 0.59431 0.0
O232 O 0.3216 0.72255 0.56551 0.0
O233 O 0.27648 0.62202 0.56375 0.0
C234 C 0.44008 0.66566 0.77377 0.0
O235 O 0.46659 0.67893 0.77157 0.0
O236 O 0.48221 0.5865 0.72435 0.0
Zn237 Zn 0.45903 0.59183 0.77094 0.0
O238 O 0.48548 0.59648 0.82111 0.0
C239 C 0.43338 0.51672 0.77826 0.0
O240 O 0.45878 0.52082 0.79437 0.0
O241 O 0.43344 0.63373 0.77368 0.0
C242 C 0.50461 0.58164 0.82971 0.0
O243 O 0.51321 0.56352 0.80592 0.0
C244 C 0.50387 0.6051 0.71501 0.0
O245 O 0.51664 0.63326 0.73555 0.0
O246 O 0.42844 0.54154 0.76644 0.0
C247 C 0.74069 0.02975 0.77025 0.0
O248 O 0.73577 0.05369 0.79158 0.0
O249 O 0.68643 0.04549 0.686 0.0
Zn250 Zn 0.71073 0.0572 0.72959 0.0
O251 O 0.69038 0.07231 0.765 0.0
C252 C 0.73617 0.12069 0.72169 0.0
O253 O 0.71031 0.11728 0.7075 0.0
O254 O 0.72881 0.02337 0.74045 0.0
C255 C 0.67346 0.09036 0.76232 0.0
O256 O 0.66414 0.09496 0.73334 0.0
C257 C 0.66017 0.03147 0.68205 0.0
O258 O 0.64959 1.01856 0.70576 0.0
O259 O 0.74237 0.09671 0.73209 0.0
C260 C 0.85075 0.70335 0.0272 0.0
O261 O 0.8561 0.73412 0.04348 0.0
O262 O 0.8056 0.75049 0.04862 0.0
Zn263 Zn 0.7969 0.71578 1.00475 0.0
O264 O 0.8031 0.73359 0.96216 0.0
C265 C 0.73302 0.68607 0.99716 0.0
O266 O 0.72955 0.71469 0.99244 0.0
O267 O 0.82678 0.69008 1.00901 0.0
C268 C 0.79944 0.75994 0.95394 0.0
O269 O 0.78916 0.77996 0.97413 0.0
C270 C 0.78754 0.75401 0.06782 0.0
O271 O 0.76094 0.73768 0.05778 0.0
O272 O 0.75809 0.6823 1.00146 0.0
C273 C 0.9317 0.61211 0.78888 0.0
O274 O 0.93948 0.59204 0.76603 0.0
O275 O 0.98165 0.56915 0.79118 0.0
Zn276 Zn 0.96407 0.58475 0.82935 0.0
O277 O 0.99453 0.60248 0.86818 0.0
C278 C 0.94607 0.51885 0.83558 0.0
O279 O 0.97357 0.52267 0.83885 0.0
O280 O 0.94178 0.61545 0.81895 0.0
C281 C 0.99079 0.59098 0.89372 0.0
O282 O 0.96506 0.57548 0.89681 0.0
C283 C 1.00565 0.56298 0.7946 0.0
O284 O 0.02089 0.56976 0.82398 0.0
O285 O 0.93645 0.54375 0.83372 0.0
C286 C 0.81337 0.51497 0.53327 0.0
O287 O 0.81278 0.48797 0.54457 0.0
O288 O 0.86385 0.47344 0.54064 0.0
Zn289 Zn 0.85417 0.49219 0.50189 0.0
O290 O 0.8335 0.45509 0.46477 0.0
C291 C 0.90612 0.49109 0.48578 0.0
O292 O 0.89309 0.45967 0.48164 0.0
O293 O 0.83058 0.52303 0.51374 0.0
C294 C 0.83911 0.45534 0.43594 0.0
O295 O 0.85471 0.48268 0.43004 0.0
C296 C 0.86252 0.44284 0.53666 0.0
O297 O 0.85139 0.42298 0.50801 0.0
O298 O 0.89245 0.51281 0.49213 0.0
C299 C 0.72805 0.47176 0.28214 0.0
O300 O 0.70115 0.45821 0.27035 0.0
O301 O 0.68234 0.53935 0.24288 0.0
Zn302 Zn 0.70883 0.5451 0.2933 0.0
O303 O 0.68381 0.54462 0.3388 0.0
C304 C 0.73475 0.62494 0.29968 0.0
O305 O 0.70955 0.62794 0.30496 0.0
O306 O 0.73527 0.50424 0.29166 0.0
C307 C 0.66806 0.56283 0.35207 0.0
O308 O 0.66457 0.58694 0.3377 0.0
C309 C 0.66893 0.56008 0.23374 0.0
O310 O 0.6673 0.58456 0.25694 0.0
O311 O 0.73897 0.59546 0.29648 0.0
Sm312 Sm 0.06653 0.05058 1.01426 0.0
Sm313 Sm 0.10716 0.0869 0.05434 0.0
C314 C 1.0149 0.024 0.98053 0.0
C315 C 0.98941 0.03443 0.98714 0.0
C316 C 0.9907 0.05702 0.0166 0.0
C317 C 0.9682 0.07083 0.02195 0.0
C318 C 0.94375 0.06185 0.99817 0.0
C319 C 0.94224 0.0387 0.96889 0.0
C320 C 0.96506 0.02513 0.96335 0.0
C321 C 0.11214 0.05484 0.97645 0.0
C322 C 0.07581 0.12946 0.01886 0.0
C323 C 0.15729 0.11328 0.09141 0.0
C324 C 0.18405 0.10661 0.08412 0.0
C325 C 0.18622 0.09356 0.05139 0.0
C326 C 0.20888 0.08057 0.04441 0.0
C327 C 0.22963 0.08022 0.07005 0.0
C328 C 0.22814 0.09457 0.10267 0.0
C329 C 0.20534 0.1076 0.10969 0.0
C330 C 0.06037 0.08235 0.09061 0.0
C331 C 0.10288 1.0093 0.04542 0.0
O332 O 0.02593 1.01124 1.00315 0.0
O333 O 0.03385 0.04603 0.97135 0.0
O334 O 0.10783 0.07861 0.99744 0.0
O335 O 0.09342 0.02797 0.97734 0.0
O336 O 0.05596 0.10195 0.01626 0.0
O337 O 0.10152 0.12937 0.03024 0.0
O338 O 0.14578 0.12875 0.07173 0.0
O339 O 0.13913 0.08773 0.0965 0.0
O340 O 0.06623 0.05869 0.07113 0.0
O341 O 0.078 0.10948 0.08841 0.0
O342 O 0.12103 0.03778 0.04716 0.0
O343 O 0.07621 1.00757 0.03632 0.0
H344 H 1.00956 0.06481 0.03506 0.0
H345 H 0.97033 0.08931 0.04427 0.0
H346 H 0.92359 0.03148 0.95017 0.0
H347 H 0.96396 1.00805 0.94032 0.0
H348 H 0.16961 0.09185 0.03136 0.0
H349 H 0.20945 0.06933 0.01912 0.0
H350 H 0.24415 0.09483 0.12275 0.0
H351 H 0.20368 0.11707 0.13508 0.0
Sm352 Sm 0.35062 0.81429 0.25414 0.0
Sm353 Sm 0.31547 0.81213 0.29924 0.0
C354 C 0.37811 0.81326 0.20294 0.0
C355 C 0.3835 0.83529 0.18039 0.0
C356 C 0.37274 0.86318 0.18433 0.0
C357 C 0.37414 0.88202 0.16046 0.0
C358 C 0.38631 0.8731 0.13245 0.0
C359 C 0.39882 0.84646 0.12967 0.0
C360 C 0.39728 0.82743 0.15363 0.0
C361 C 0.38072 0.80993 0.31275 0.0
C362 C 0.35582 0.88083 0.30212 0.0
C363 C 0.28275 0.80279 0.34455 0.0
C364 C 0.27628 0.77633 0.36234 0.0
C365 C 0.2931 0.75389 0.36167 0.0
C366 C 0.28795 0.72929 0.37968 0.0
C367 C 0.26579 0.72678 0.3984 0.0
C368 C 0.24788 0.74804 0.3974 0.0
C369 C 0.25323 0.77291 0.37951 0.0
C370 C 0.29187 0.83474 0.24678 0.0
C371 C 0.31541 0.74162 0.25498 0.0
O372 O 0.35156 0.79783 0.20093 0.0
O373 O 0.39044 0.82581 0.23318 0.0
O374 O 0.35554 0.79293 0.30094 0.0
O375 O 0.38917 0.83108 0.29501 0.0
O376 O 0.35204 0.86921 0.27019 0.0
O377 O 0.34823 0.86053 0.32149 0.0
O378 O 0.30893 0.82099 0.3514 0.0
O379 O 0.2733 0.7939 0.31302 0.0
O380 O 0.3031 0.81066 0.2444 0.0
O381 O 0.29567 0.84952 0.27737 0.0
O382 O 0.30558 0.75627 0.27986 0.0
O383 O 0.33393 0.75844 0.24017 0.0
H384 H 0.36202 0.86938 0.20503 0.0
H385 H 0.36416 0.90232 0.16293 0.0
H386 H 0.40861 0.83957 0.10837 0.0
H387 H 0.40579 0.80595 0.15064 0.0
H388 H 0.31069 0.75602 0.34794 0.0
H389 H 0.30217 0.71334 0.38031 0.0
H390 H 0.23045 0.74614 0.41138 0.0
H391 H 0.23981 0.78981 0.37959 0.0
Sm392 Sm 0.61635 0.07034 0.52574 0.0
Sm393 Sm 0.55239 0.06911 0.52961 0.0
C394 C 0.66873 0.06341 0.52962 0.0
C395 C 0.68612 0.03935 0.52955 0.0
C396 C 0.69099 0.02571 0.55724 0.0
C397 C 0.71061 1.00673 0.55864 0.0
C398 C 0.72587 1.00118 0.53251 0.0
C399 C 0.72005 1.01354 0.50424 0.0
C400 C 0.70051 0.0326 0.50286 0.0
C401 C 0.58509 0.07752 0.47127 0.0
C402 C 0.56696 0.99813 0.51071 0.0
C403 C 0.49981 0.07505 0.52085 0.0
C404 C 0.48187 0.09862 0.52081 0.0
C405 C 0.47249 0.10678 0.49115 0.0
C406 C 0.45247 0.12524 0.48989 0.0
C407 C 0.44121 0.13573 0.51824 0.0
C408 C 0.45136 0.1287 0.54821 0.0
C409 C 0.47138 0.11019 0.54945 0.0
C410 C 0.58306 0.06146 0.5847 0.0
C411 C 0.60185 0.14144 0.54609 0.0
O412 O 0.65624 0.06967 0.55527 0.0
O413 O 0.65345 0.06313 0.50183 0.0
O414 O 0.57724 0.05767 0.48928 0.0
O415 O 0.61095 0.09531 0.48135 0.0
O416 O 0.59417 1.01407 0.52042 0.0
O417 O 0.54714 1.01428 0.50827 0.0
O418 O 0.51473 0.07161 0.49685 0.0
O419 O 0.51278 0.07298 0.5492 0.0
O420 O 0.59149 0.08094 0.56642 0.0
O421 O 0.55647 0.04582 0.57527 0.0
O422 O 0.57459 0.12548 0.5372 0.0
O423 O 0.62193 0.12546 0.54708 0.0
H424 H 0.68038 0.03056 0.57833 0.0
H425 H 0.71466 0.99749 0.58073 0.0
H426 H 0.73103 1.009 0.48342 0.0
H427 H 0.69728 0.04289 0.48128 0.0
H428 H 0.47993 0.09802 0.46862 0.0
H429 H 0.44504 0.13027 0.46645 0.0
H430 H 0.44351 0.13711 0.5706 0.0
H431 H 0.47803 0.1042 0.57268 0.0
Sm432 Sm 0.30792 0.33092 0.78356 0.0
Sm433 Sm 0.36386 0.30843 0.78269 0.0
C434 C 0.25563 0.33562 0.78913 0.0
C435 C 0.23193 0.32872 0.80818 0.0
C436 C 0.21687 0.2964 0.80886 0.0
C437 C 0.19358 0.29123 0.82584 0.0
C438 C 0.18487 0.31825 0.84233 0.0
C439 C 0.20026 0.35044 0.84188 0.0
C440 C 0.22339 0.35557 0.82498 0.0
C441 C 0.35071 0.38624 0.77656 0.0
C442 C 0.34684 0.33383 0.85397 0.0
C443 C 0.41664 0.30444 0.77841 0.0
C444 C 0.44134 0.31364 0.76155 0.0
C445 C 0.44208 0.33453 0.73902 0.0
C446 C 0.46515 0.34079 0.7218 0.0
C447 C 0.48775 0.32606 0.72667 0.0
C448 C 0.48704 0.30574 0.7498 0.0
C449 C 0.46408 0.29957 0.76696 0.0
C450 C 0.321 0.25319 0.7902 0.0
C451 C 0.32417 0.30416 0.7119 0.0
O452 O 0.26106 0.31112 0.76906 0.0
O453 O 0.27846 0.35827 0.80435 0.0
O454 O 0.35377 0.35757 0.77888 0.0
O455 O 0.32426 0.38517 0.77705 0.0
O456 O 0.32128 0.33078 0.83823 0.0
O457 O 0.36823 0.33072 0.83818 0.0
O458 O 0.41051 0.32769 0.79935 0.0
O459 O 0.39416 0.28303 0.76065 0.0
O460 O 0.31808 0.28187 0.78768 0.0
O461 O 0.34749 0.25431 0.78979 0.0
O462 O 0.34948 0.30558 0.72742 0.0
O463 O 0.30358 0.31007 0.72799 0.0
H464 H 0.22296 0.27517 0.79619 0.0
H465 H 0.18251 0.26613 0.82626 0.0
H466 H 0.19408 0.37178 0.85415 0.0
H467 H 0.23445 0.38073 0.82468 0.0
H468 H 0.42472 0.34561 0.73444 0.0
H469 H 0.46525 0.35702 0.70458 0.0
H470 H 0.50391 0.29382 0.75397 0.0
H471 H 0.46383 0.2832 0.78408 0.0
Sm472 Sm 0.07847 0.10157 0.54957 0.0
Sm473 Sm 0.09037 0.03432 0.51518 0.0
C474 C 0.08474 0.1655 0.56951 0.0
C475 C 0.0942 0.19238 0.55274 0.0
C476 C 0.10426 0.18546 0.52279 0.0
C477 C 0.11221 0.2103 0.50554 0.0
C478 C 0.10942 0.24223 0.5175 0.0
C479 C 0.09952 0.24919 0.54768 0.0
C480 C 0.09193 0.2243 0.56525 0.0
C481 C 0.0346 0.04975 0.55614 0.0
C482 C 0.05688 0.0736 0.46679 0.0
C483 C 0.08718 0.97095 0.49532 0.0
C484 C 0.08273 0.9444 0.51357 0.0
C485 C 0.08853 0.95263 0.54811 0.0
C486 C 0.08311 0.92824 0.56625 0.0
C487 C 0.07176 0.8951 0.55019 0.0
C488 C 0.06611 0.88659 0.51557 0.0
C489 C 0.07163 0.91125 0.49727 0.0
C490 C 0.13413 0.08633 0.5092 0.0
C491 C 0.11207 0.06278 0.59806 0.0
O492 O 0.1041 0.15066 0.578 0.0
O493 O 0.06043 0.14488 0.55547 0.0
O494 O 0.05593 0.04745 0.54214 0.0
O495 O 0.03652 0.08074 0.5677 0.0
O496 O 0.06103 0.09821 0.49323 0.0
O497 O 0.06523 0.04633 0.46942 0.0
O498 O 0.06557 0.98342 0.48993 0.0
O499 O 0.11116 0.99357 0.50559 0.0
O500 O 0.11266 0.08822 0.5229 0.0
O501 O 0.13201 0.05555 0.49674 0.0
O502 O 0.10891 0.03876 0.57139 0.0
O503 O 0.10267 0.08941 0.59591 0.0
H504 H 0.10567 0.16071 0.51258 0.0
H505 H 0.1204 0.20448 0.48274 0.0
H506 H 0.09716 0.27365 0.5573 0.0
H507 H 0.08389 0.22979 0.58821 0.0
H508 H 0.09682 0.97801 0.56119 0.0
H509 H 0.08729 0.93536 0.59293 0.0
H510 H 0.05746 0.86102 0.50281 0.0
H511 H 0.06692 0.90457 0.47061 0.0
Sm512 Sm 0.35965 0.84639 0.77564 0.0
Sm513 Sm 0.30913 0.79468 0.78165 0.0
C514 C 0.41013 0.88825 0.78737 0.0
C515 C 0.4386 0.88376 0.78767 0.0
C516 C 0.4616 0.90882 0.80601 0.0
C517 C 0.4879 0.90227 0.81228 0.0
C518 C 0.49113 0.87054 0.80053 0.0
C519 C 0.46852 0.84598 0.78072 0.0
C520 C 0.44232 0.85265 0.7741 0.0
C521 C 0.33269 0.80732 0.7165 0.0
C522 C 0.36779 0.76797 0.78178 0.0
C523 C 0.2587 0.75266 0.77039 0.0
C524 C 0.22919 0.75445 0.76859 0.0
C525 C 0.21906 0.775 0.75012 0.0
C526 C 0.19051 0.77461 0.74656 0.0
C527 C 0.1717 0.75393 0.76164 0.0
C528 C 0.18208 0.7345 0.78132 0.0
C529 C 0.21066 0.73465 0.78463 0.0
C530 C 0.33653 0.83581 0.83985 0.0
C531 C 0.30056 0.87272 0.77602 0.0
O532 O 0.39725 0.87735 0.81063 0.0
O533 O 0.39399 0.8801 0.75853 0.0
O534 O 0.33722 0.79775 0.74293 0.0
O535 O 0.34286 0.83917 0.72071 0.0
O536 O 0.37994 0.80009 0.78238 0.0
O537 O 0.33979 0.75906 0.78054 0.0
O538 O 0.27204 0.76237 0.74693 0.0
O539 O 0.27425 0.76231 0.79963 0.0
O540 O 0.33102 0.84355 0.8129 0.0
O541 O 0.32665 0.80414 0.83755 0.0
O542 O 0.28853 0.84036 0.77438 0.0
O543 O 0.32869 0.88203 0.77812 0.0
H544 H 0.45885 0.93276 0.81696 0.0
H545 H 0.50523 0.92129 0.82796 0.0
H546 H 0.47082 0.82135 0.77171 0.0
H547 H 0.42463 0.83305 0.75995 0.0
H548 H 0.23302 0.7908 0.73777 0.0
H549 H 0.18296 0.78967 0.7311 0.0
H550 H 0.168 0.71879 0.79362 0.0
H551 H 0.2182 0.71888 0.79922 0.0
Sm552 Sm 0.59246 0.05406 0.07119 0.0
Sm553 Sm 0.58544 0.09453 1.01163 0.0
C554 C 0.59567 0.03167 0.12543 0.0
C555 C 0.57516 0.02304 0.14688 0.0
C556 C 0.55444 0.04039 0.15094 0.0
C557 C 0.53346 0.03047 0.16937 0.0
C558 C 0.53266 1.00273 0.18347 0.0
C559 C 0.55273 0.98451 0.17808 0.0
C560 C 0.57395 0.99469 0.15982 0.0
C561 C 0.60187 1.02068 1.01201 0.0
C562 C 0.52955 0.04895 0.03282 0.0
C563 C 0.58102 0.11495 0.95621 0.0
C564 C 0.59747 0.11847 0.92974 0.0
C565 C 0.61682 0.09949 0.92418 0.0
C566 C 0.63308 0.10337 0.89936 0.0
C567 C 0.63032 0.12661 0.88008 0.0
C568 C 0.6115 0.14635 0.88636 0.0
C569 C 0.59513 0.14232 0.91126 0.0
C570 C 0.57161 0.12599 0.06886 0.0
C571 C 0.64802 0.10107 0.05307 0.0
O572 O 0.60485 0.0633 0.12529 0.0
O573 O 0.58887 1.01236 0.09608 0.0
O574 O 0.59599 0.048 0.01781 0.0
O575 O 0.60273 1.00946 0.03871 0.0
O576 O 0.54478 0.04637 0.05984 0.0
O577 O 0.54079 0.06077 1.00854 0.0
O578 O 0.56903 0.08448 0.95842 0.0
O579 O 0.59331 0.13469 0.98451 0.0
O580 O 0.58086 0.10062 0.06485 0.0
O581 O 0.5717 0.13712 0.04208 0.0
O582 O 0.63358 0.10269 0.02496 0.0
O583 O 0.63616 0.08889 0.07662 0.0
H584 H 0.55465 0.06181 0.14021 0.0
H585 H 0.51882 0.04561 0.17408 0.0
H586 H 0.55259 0.96327 0.18905 0.0
H587 H 0.58943 0.98054 0.15584 0.0
H588 H 0.61899 0.0814 0.9387 0.0
H589 H 0.64691 0.08724 0.89438 0.0
H590 H 0.60904 0.16424 0.87154 0.0
H591 H 0.58053 0.15753 0.91591 0.0
Sm592 Sm 0.35984 0.35815 0.30079 0.0
Sm593 Sm 0.31397 0.28979 0.26379 0.0
C594 C 0.38775 0.4206 0.3138 0.0
C595 C 0.37553 0.44648 0.30431 0.0
C596 C 0.35886 0.43946 0.27315 0.0
C597 C 0.33777 0.45544 0.26767 0.0
C598 C 0.3334 0.47939 0.29299 0.0
C599 C 0.35175 0.48866 0.32326 0.0
C600 C 0.37275 0.47227 0.32889 0.0
C601 C 0.34912 0.31807 0.34609 0.0
C602 C 0.2907 0.35037 0.29635 0.0
C603 C 0.28642 0.22724 0.24739 0.0
C604 C 0.29988 0.20121 0.25331 0.0
C605 C 0.32161 0.20893 0.28041 0.0
C606 C 0.34077 0.18988 0.28198 0.0
C607 C 0.33875 0.16296 0.25635 0.0
C608 C 0.31661 0.15414 0.22968 0.0
C609 C 0.29716 0.17335 0.22813 0.0
C610 C 0.32626 0.33127 0.21957 0.0
C611 C 0.38218 0.29708 0.2663 0.0
O612 O 0.39242 0.39901 0.28966 0.0
O613 O 0.3749 0.40672 0.33551 0.0
O614 O 0.33819 0.31069 0.31577 0.0
O615 O 0.36828 0.34597 0.35167 0.0
O616 O 0.31643 0.37035 0.29992 0.0
O617 O 0.28485 0.31811 0.28567 0.0
O618 O 0.28268 0.24695 0.27365 0.0
O619 O 0.29771 0.24323 0.22614 0.0
O620 O 0.33547 0.33707 0.25005 0.0
O621 O 0.30782 0.30278 0.21218 0.0
O622 O 0.35684 0.27728 0.26487 0.0
O623 O 0.38853 0.32939 0.27731 0.0
H624 H 0.36014 0.41928 0.25399 0.0
H625 H 0.32357 0.4472 0.24437 0.0
H626 H 0.34883 0.50724 0.34309 0.0
H627 H 0.38499 0.47761 0.35331 0.0
H628 H 0.32524 0.23117 0.29925 0.0
H629 H 0.35789 0.19688 0.30266 0.0
H630 H 0.31492 0.13317 0.20983 0.0
H631 H 0.28117 0.16774 0.20647 0.0
Sm632 Sm 0.58337 0.60593 0.04724 0.0
Sm633 Sm 0.58873 0.53221 1.01513 0.0
C634 C 0.59602 0.67073 0.06551 0.0
C635 C 0.60405 0.698 0.04817 0.0
C636 C 0.63265 0.71198 0.04658 0.0
C637 C 0.63999 0.73681 0.02893 0.0
C638 C 0.61888 0.74834 1.01305 0.0
C639 C 0.59034 0.73436 1.0145 0.0
C640 C 0.58298 0.70956 0.03203 0.0
C641 C 0.53786 0.55744 0.05672 0.0
C642 C 0.55785 0.57426 0.9659 0.0
C643 C 0.57824 0.46755 0.99507 0.0
C644 C 0.57124 0.43869 1.01055 0.0
C645 C 0.54302 0.42356 1.0127 0.0
C646 C 0.53687 0.39756 0.02919 0.0
C647 C 0.55879 0.38603 0.04344 0.0
C648 C 0.58692 0.40078 0.0408 0.0
C649 C 0.59307 0.42664 0.0243 0.0
C650 C 0.63408 0.58148 1.00617 0.0
C651 C 0.61357 0.56368 0.09674 0.0
O652 O 0.61462 0.65364 0.07 0.0
O653 O 0.5699 0.65227 0.05697 0.0
O654 O 0.55889 0.55378 0.04306 0.0
O655 O 0.54096 0.58897 0.06706 0.0
O656 O 0.56538 0.60092 0.99076 0.0
O657 O 0.56327 0.54569 0.97017 0.0
O658 O 0.55881 0.4837 0.99132 0.0
O659 O 0.60386 0.48708 1.00468 0.0
O660 O 0.61267 0.58425 0.01922 0.0
O661 O 0.63173 0.55009 0.99626 0.0
O662 O 0.60597 0.53691 0.07194 0.0
O663 O 0.60843 0.5923 0.09224 0.0
H664 H 0.64937 0.70366 0.05881 0.0
H665 H 0.66216 0.74742 0.02818 0.0
H666 H 0.57371 0.74268 1.00206 0.0
H667 H 0.56075 0.69934 0.03276 0.0
H668 H 0.52571 0.43205 1.00206 0.0
H669 H 0.51499 0.38655 0.0309 0.0
H670 H 0.60428 0.39288 0.05222 0.0
H671 H 0.61503 0.43762 0.02293 0.0
Sm672 Sm 0.86152 0.34599 0.27979 0.0
Sm673 Sm 0.80648 0.29004 0.28203 0.0
C674 C 0.91325 0.38509 0.29267 0.0
C675 C 0.9414 0.37848 0.29582 0.0
C676 C 0.95262 0.37068 0.3249 0.0
C677 C 0.97792 0.36136 0.32681 0.0
C678 C 0.99262 0.35993 0.29985 0.0
C679 C 0.98192 0.36845 0.27104 0.0
C680 C 0.95649 0.37774 0.26906 0.0
C681 C 0.83206 0.30934 0.22061 0.0
C682 C 0.86746 0.26594 0.28314 0.0
C683 C 0.75779 0.24599 0.26185 0.0
C684 C 0.72912 0.24742 0.26663 0.0
C685 C 0.7065 0.23041 0.24156 0.0
C686 C 0.68007 0.23684 0.24262 0.0
C687 C 0.6761 0.26017 0.26885 0.0
C688 C 0.69831 0.27602 0.29478 0.0
C689 C 0.72484 0.26983 0.29357 0.0
C690 C 0.82552 0.33221 0.34277 0.0
C691 C 0.80107 0.3703 0.28053 0.0
O692 O 0.89812 0.37814 0.31567 0.0
O693 O 0.89834 0.37612 0.26304 0.0
O694 O 0.83684 0.29892 0.24641 0.0
O695 O 0.84386 0.34095 0.22516 0.0
O696 O 0.87988 0.29776 0.28247 0.0
O697 O 0.83951 0.25707 0.28359 0.0
O698 O 0.76929 0.26604 0.24361 0.0
O699 O 0.77495 0.24591 0.28825 0.0
O700 O 0.83623 0.33096 0.31694 0.0
O701 O 0.80351 0.30701 0.33784 0.0
O702 O 0.78843 0.33759 0.27594 0.0
O703 O 0.82939 0.38017 0.28447 0.0
H704 H 0.94169 0.37126 0.34609 0.0
H705 H 0.98615 0.35546 0.34948 0.0
H706 H 0.99305 0.36754 0.25001 0.0
H707 H 0.94838 0.38375 0.2464 0.0
H708 H 0.70965 0.21352 0.22039 0.0
H709 H 0.66301 0.22462 0.22234 0.0
H710 H 0.69551 0.29437 0.31493 0.0
H711 H 0.74232 0.28375 0.31278 0.0
Sm712 Sm 0.08866 0.54977 0.55357 0.0
Sm713 Sm 0.08182 0.58802 0.50614 0.0
C714 C 0.08538 0.51079 0.59644 0.0
C715 C 0.06695 0.50351 0.62051 0.0
C716 C 0.04307 0.51608 0.62138 0.0
C717 C 0.0295 0.51664 0.64891 0.0
C718 C 0.03991 0.50488 0.67575 0.0
C719 C 0.0619 0.48909 0.67323 0.0
C720 C 0.07553 0.4886 0.64566 0.0
C721 C 0.11266 0.53086 0.49896 0.0
C722 C 0.02776 0.53294 0.50754 0.0
C723 C 0.08795 0.62549 0.46219 0.0
C724 C 0.11037 0.63394 0.44262 0.0
C725 C 0.12629 0.61139 0.43353 0.0
C726 C 0.14634 0.6182 0.41304 0.0
C727 C 0.15114 0.64791 0.40171 0.0
C728 C 0.1367 0.67158 0.41296 0.0
C729 C 0.1162 0.66448 0.43317 0.0
C730 C 0.05659 0.60666 0.55958 0.0
C731 C 0.14169 0.6055 0.55487 0.0
O732 O 0.10137 0.54108 0.60297 0.0
O733 O 0.07355 0.5006 0.56564 0.0
O734 O 0.08886 0.53707 0.49827 0.0
O735 O 0.12464 0.53512 0.529 0.0
O736 O 0.0405 0.53571 0.53765 0.0
O737 O 0.04141 0.54726 0.48651 0.0
O738 O 0.07338 0.59448 0.45498 0.0
O739 O 0.09508 0.63743 0.49383 0.0
O740 O 0.0807 0.60087 0.56141 0.0
O741 O 0.04545 0.60227 0.5292 0.0
O742 O 0.12999 0.60144 0.52402 0.0
O743 O 0.12661 0.59288 0.57563 0.0
H744 H 0.03633 0.52776 0.60204 0.0
H745 H 1.01261 0.52901 0.65046 0.0
H746 H 0.06992 0.47955 0.69363 0.0
H747 H 0.09395 0.47877 0.64507 0.0
H748 H 0.12253 0.58797 0.44132 0.0
H749 H 0.15693 0.59931 0.40464 0.0
H750 H 0.14051 0.69498 0.40521 0.0
H751 H 0.10448 0.68243 0.44079 0.0
Sm752 Sm 0.80784 0.83058 0.28418 0.0
Sm753 Sm 0.8604 0.80563 0.27817 0.0
C754 C 0.7561 0.83736 0.28996 0.0
C755 C 0.73123 0.8307 0.30701 0.0
C756 C 0.72164 0.80095 0.31742 0.0
C757 C 0.69816 0.79641 0.33419 0.0
C758 C 0.6842 0.82167 0.341 0.0
C759 C 0.69363 0.85103 0.3299 0.0
C760 C 0.71689 0.85549 0.3132 0.0
C761 C 0.85019 0.88585 0.27613 0.0
C762 C 0.84818 0.83263 0.35231 0.0
C763 C 0.91227 0.79935 0.27195 0.0
C764 C 0.93742 0.80957 0.25619 0.0
C765 C 0.93699 0.82716 0.23083 0.0
C766 C 0.96032 0.83347 0.2141 0.0
C767 C 0.98435 0.82205 0.22226 0.0
C768 C 0.98491 0.8054 0.2484 0.0
C769 C 0.96168 0.7992 0.26512 0.0
C770 C 0.81822 0.75034 0.28643 0.0
C771 C 0.81992 0.80432 0.21005 0.0
O772 O 0.76095 0.81313 0.26906 0.0
O773 O 0.77921 0.85805 0.30711 0.0
O774 O 0.85346 0.8569 0.2769 0.0
O775 O 0.82419 0.88503 0.2791 0.0
O776 O 0.82239 0.83125 0.33858 0.0
O777 O 0.86759 0.82712 0.33409 0.0
O778 O 0.90712 0.82098 0.2955 0.0
O779 O 0.88932 0.78078 0.25254 0.0
O780 O 0.81487 0.77925 0.28556 0.0
O781 O 0.84421 0.75117 0.2833 0.0
O782 O 0.84562 0.80519 0.22371 0.0
O783 O 0.8006 0.80997 0.22829 0.0
H784 H 0.7324 0.78147 0.3129 0.0
H785 H 0.6913 0.77353 0.34246 0.0
H786 H 0.683 0.87066 0.3342 0.0
H787 H 0.72382 0.87854 0.30521 0.0
H788 H 0.91845 0.83539 0.22358 0.0
H789 H 0.95944 0.847 0.19456 0.0
H790 H 1.00297 0.79617 0.25523 0.0
H791 H 0.96235 0.78543 0.28451 0.0
Sm792 Sm 0.85417 0.31444 0.75482 0.0
Sm793 Sm 0.824 0.32495 0.80509 0.0
C794 C 0.88148 0.31323 0.70403 0.0
C795 C 0.88509 0.33644 0.68229 0.0
C796 C 0.86467 0.35407 0.6782 0.0
C797 C 0.86769 0.37658 0.65786 0.0
C798 C 0.8914 0.38217 0.64171 0.0
C799 C 0.9127 0.36592 0.64734 0.0
C800 C 0.90947 0.34294 0.66755 0.0
C801 C 0.87822 0.29589 0.8095 0.0
C802 C 0.86799 0.3896 0.79479 0.0
C803 C 0.80195 0.33664 0.85964 0.0
C804 C 0.78326 0.31506 0.87589 0.0
C805 C 0.77456 0.281 0.86211 0.0
C806 C 0.76694 0.25867 0.88222 0.0
C807 C 0.76796 0.27051 0.916 0.0
C808 C 0.7723 0.30454 0.92845 0.0
C809 C 0.78026 0.32688 0.90842 0.0
C810 C 0.79055 0.32287 0.74647 0.0
C811 C 0.80896 0.25257 0.76218 0.0
O812 O 0.85549 0.29561 0.70219 0.0
O813 O 0.89417 0.32582 0.73423 0.0
O814 O 0.86984 0.32187 0.80989 0.0
O815 O 0.87188 0.27773 0.78005 0.0
O816 O 0.87281 0.37003 0.76931 0.0
O817 O 0.84918 0.37879 0.8128 0.0
O818 O 0.8267 0.33052 0.85898 0.0
O819 O 0.79101 0.34106 0.83152 0.0
O820 O 0.81671 0.33854 0.75432 0.0
O821 O 0.78288 0.30607 0.76837 0.0
O822 O 0.81437 0.26803 0.79332 0.0
O823 O 0.81799 0.26839 0.73978 0.0
H824 H 0.8461 0.35003 0.6903 0.0
H825 H 0.85086 0.38857 0.65371 0.0
H826 H 0.93138 0.37039 0.63552 0.0
H827 H 0.92577 0.33014 0.67145 0.0
H828 H 0.77676 0.27164 0.83688 0.0
H829 H 0.76362 0.23247 0.87223 0.0
H830 H 0.77285 0.31393 0.95448 0.0
H831 H 0.78691 0.35315 0.91924 0.0
Sm832 Sm 0.8563 0.85331 0.80163 0.0
Sm833 Sm 0.81066 0.78433 0.7599 0.0
C834 C 0.88627 0.91498 0.8166 0.0
C835 C 0.87615 0.94207 0.80693 0.0
C836 C 0.85826 0.93525 0.77663 0.0
C837 C 0.83955 0.95428 0.77151 0.0
C838 C 0.83859 0.9808 0.79639 0.0
C839 C 0.85834 0.98966 0.82553 0.0
C840 C 0.87697 0.97018 0.83088 0.0
C841 C 0.84291 0.80846 0.84218 0.0
C842 C 0.78764 0.84291 0.79861 0.0
C843 C 0.78189 0.72231 0.74178 0.0
C844 C 0.79292 0.69535 0.75044 0.0
C845 C 0.80987 0.7015 0.78127 0.0
C846 C 0.82975 0.68384 0.78613 0.0
C847 C 0.8328 0.65922 0.76059 0.0
C848 C 0.81411 0.65086 0.73064 0.0
C849 C 0.79432 0.66905 0.72551 0.0
C850 C 0.82427 0.83062 0.72039 0.0
C851 C 0.87946 0.79226 0.76744 0.0
O852 O 0.89084 0.89325 0.7925 0.0
O853 O 0.87164 0.90131 0.83722 0.0
O854 O 0.83499 0.80413 0.81147 0.0
O855 O 0.86052 0.83752 0.85195 0.0
O856 O 0.81244 0.8643 0.80031 0.0
O857 O 0.78227 0.81088 0.78651 0.0
O858 O 0.77621 0.74263 0.7663 0.0
O859 O 0.79658 0.73767 0.72223 0.0
O860 O 0.83189 0.83369 0.75081 0.0
O861 O 0.80653 0.80175 0.71002 0.0
O862 O 0.85383 0.77203 0.76355 0.0
O863 O 0.88506 0.82451 0.77854 0.0
H864 H 0.85667 0.91328 0.758 0.0
H865 H 0.82442 0.94662 0.74892 0.0
H866 H 0.85842 1.01052 0.84476 0.0
H867 H 0.89027 0.97544 0.85464 0.0
H868 H 0.80982 0.72214 0.80069 0.0
H869 H 0.84417 0.69106 0.80917 0.0
H870 H 0.81568 0.63145 0.71077 0.0
H871 H 0.78183 0.66438 0.70132 0.0
Sm872 Sm 0.56402 0.55157 0.51309 0.0
Sm873 Sm 0.60447 0.58795 0.5516 0.0
C874 C 0.5127 0.52514 0.47873 0.0
C875 C 0.48756 0.53614 0.48593 0.0
C876 C 0.48887 0.5565 0.51683 0.0
C877 C 0.46759 0.57221 0.52282 0.0
C878 C 0.44458 0.56766 0.49809 0.0
C879 C 0.44251 0.54619 0.46761 0.0
C880 C 0.46414 0.53068 0.46141 0.0
C881 C 0.61015 0.55446 0.47553 0.0
C882 C 0.57154 0.62953 0.51598 0.0
C883 C 0.65535 0.61527 0.5868 0.0
C884 C 0.68169 0.60763 0.57939 0.0
C885 C 0.68219 0.59025 0.54763 0.0
C886 C 0.70545 0.57848 0.54083 0.0
C887 C 0.72866 0.58402 0.56568 0.0
C888 C 0.72833 0.60172 0.59744 0.0
C889 C 0.70486 0.61351 0.60428 0.0
C890 C 0.55923 0.58807 0.58947 0.0
C891 C 0.59785 0.50968 0.54729 0.0
O892 O 0.52363 0.51182 0.50096 0.0
O893 O 0.5318 0.54715 0.46973 0.0
O894 O 0.6047 0.57861 0.4947 0.0
O895 O 0.59212 0.52778 0.47826 0.0
O896 O 0.55224 0.60184 0.51409 0.0
O897 O 0.59754 0.63034 0.52738 0.0
O898 O 0.64362 0.62934 0.56589 0.0
O899 O 0.63725 0.59079 0.59376 0.0
O900 O 0.56298 0.56265 0.57025 0.0
O901 O 0.578 0.61365 0.58592 0.0
O902 O 0.61684 0.53784 0.55001 0.0
O903 O 0.57183 0.5085 0.53562 0.0
H904 H 0.50694 0.56127 0.53596 0.0
H905 H 0.46934 0.58842 0.5466 0.0
H906 H 0.42474 0.54243 0.44833 0.0
H907 H 0.46307 0.51542 0.43732 0.0
H908 H 0.6641 0.58473 0.52834 0.0
H909 H 0.70485 0.56404 0.51645 0.0
H910 H 0.74598 0.60594 0.61698 0.0
H911 H 0.70444 0.62629 0.62906 0.0
Sm912 Sm 0.11472 0.56686 0.03218 0.0
Sm913 Sm 0.05057 0.56615 0.03342 0.0
C914 C 0.16713 0.56061 0.04319 0.0
C915 C 0.1862 0.53844 0.03837 0.0
C916 C 0.19348 0.52273 0.06368 0.0
C917 C 0.21424 0.50527 0.06141 0.0
C918 C 0.22821 0.50314 0.03381 0.0
C919 C 0.22061 0.51827 1.00818 0.0
C920 C 0.19985 0.53581 1.01045 0.0
C921 C 0.08302 0.56598 0.97362 0.0
C922 C 0.06572 0.49451 0.0167 0.0
C923 C 0.99864 0.57314 0.02003 0.0
C924 C 0.97983 0.59563 0.02421 0.0
C925 C 0.97121 0.60858 0.99731 0.0
C926 C 0.95112 0.62695 0.9992 0.0
C927 C 0.93912 0.63277 0.02802 0.0
C928 C 0.94804 0.62031 0.05518 0.0
C929 C 0.96819 0.60187 0.0533 0.0
C930 C 0.08042 0.56611 0.09235 0.0
C931 C 0.10002 0.63836 0.04728 0.0
O932 O 0.14866 0.55473 0.06317 0.0
O933 O 0.15756 0.57147 0.01792 0.0
O934 O 0.07563 0.55017 0.99509 0.0
O935 O 0.10939 0.58285 0.98182 0.0
O936 O 0.09283 0.51063 0.02658 0.0
O937 O 0.04583 0.5106 1.01364 0.0
O938 O 1.01829 0.57993 1.00172 0.0
O939 O 1.00676 0.56102 0.04507 0.0
O940 O 0.08962 0.58212 0.07145 0.0
O941 O 0.05358 0.55138 0.0838 0.0
O942 O 0.07285 0.62214 0.03832 0.0
O943 O 0.11999 0.62251 0.05067 0.0
H944 H 0.18371 0.52471 0.08576 0.0
H945 H 0.21965 0.49377 0.08148 0.0
H946 H 0.2314 0.51753 0.98688 0.0
H947 H 0.19515 0.54812 0.99079 0.0
H948 H 0.97952 0.60382 0.97442 0.0
H949 H 0.94473 0.63635 0.97795 0.0
H950 H 0.93879 0.62395 0.07751 0.0
H951 H 0.97409 0.59185 0.07429 0.0
C952 C 0.0387 0.18638 0.97864 0.0
C953 C 0.06009 0.21631 0.9839 0.0
C954 C 0.0435 0.15868 0.99061 0.0
C955 C 0.06995 0.15961 1.00831 0.0
H956 H 1.0182 0.18407 0.96467 0.0
H957 H 0.02651 0.13616 0.98533 0.0
S958 S 0.1327 0.23243 0.03055 0.0
N959 N 0.10855 0.24516 1.00959 0.0
N960 N 0.11739 0.19383 0.03157 0.0
C961 C 0.09123 0.18963 1.01436 0.0
C962 C 0.08637 0.21768 1.00233 0.0
C963 C 0.22464 0.80565 0.18241 0.0
C964 C 0.21346 0.83358 0.18488 0.0
C965 C 0.25075 0.80673 0.20089 0.0
C966 C 0.26677 0.83567 0.22333 0.0
H967 H 0.21284 0.78236 0.16638 0.0
H968 H 0.25776 0.78422 0.19861 0.0
S969 S 0.2481 0.91624 0.23817 0.0
N970 N 0.22159 0.89166 0.21046 0.0
N971 N 0.27007 0.89349 0.2458 0.0
C972 C 0.25632 0.86407 0.22536 0.0
C973 C 0.22993 0.86312 0.20602 0.0
C974 C 0.51935 0.91087 0.47797 0.0
C975 C 0.53812 0.89042 0.47664 0.0
C976 C 0.52892 0.9452 0.48972 0.0
C977 C 0.55787 0.9611 0.50071 0.0
H978 H 0.49691 0.90041 0.46917 0.0
H979 H 0.51329 0.95939 0.48946 0.0
S980 S 0.61598 0.91891 0.50405 0.0
N981 N 0.58718 0.88858 0.48876 0.0
N982 N 0.60525 0.9532 0.51074 0.0
C983 C 0.57692 0.94091 0.50054 0.0
C984 C 0.56706 0.90565 0.48861 0.0
C985 C 0.56255 0.34023 0.70439 0.0
C986 C 0.55774 0.33471 0.66975 0.0
C987 C 0.53993 0.33797 0.72262 0.0
C988 C 0.51158 0.33061 0.70702 0.0
H989 H 0.58389 0.3455 0.71751 0.0
H990 H 0.54466 0.34185 0.74919 0.0
S991 S 0.48752 0.3153 0.61694 0.0
N992 N 0.52232 0.3226 0.62065 0.0
N993 N 0.48012 0.31827 0.65482 0.0
C994 C 0.50655 0.32583 0.67247 0.0
C995 C 0.52951 0.32786 0.6539 0.0
C996 C 0.08109 0.84758 0.61664 0.0
C997 C 0.05362 0.82757 0.61495 0.0
C998 C 0.08694 0.86863 0.5948 0.0
C999 C 0.06561 0.87002 0.57027 0.0
H1000 H 0.09809 0.84758 0.63545 0.0
H1001 H 0.10823 0.88432 0.59739 0.0
S1002 S 0.99058 0.8215 0.55428 0.0
N1003 N 1.00506 0.80945 0.58592 0.0
N1004 N 1.01626 0.84933 0.54481 0.0
C1005 C 0.03824 0.84957 0.56765 0.0
C1006 C 0.03217 0.82829 0.59009 0.0
C1007 C 0.56806 0.87243 0.81839 0.0
C1008 C 0.56859 0.85592 0.84475 0.0
C1009 C 0.5426 0.87581 0.80291 0.0
C1010 C 0.51693 0.8622 0.81286 0.0
H1011 H 0.58754 0.88435 0.81072 0.0
H1012 H 0.54304 0.89011 0.78387 0.0
S1013 S 0.50612 0.81438 0.87829 0.0
N1014 N 0.54071 0.82404 0.87855 0.0
N1015 N 0.49278 0.8302 0.84885 0.0
C1016 C 0.5168 0.8441 0.83774 0.0
C1017 C 0.5427 0.84094 0.85384 0.0
C1018 C 0.55104 0.17239 0.14298 0.0
C1019 C 0.52462 0.17598 0.12936 0.0
C1020 C 0.5653 0.15221 0.12471 0.0
C1021 C 0.55341 0.13503 0.09254 0.0
H1022 H 0.562 0.18746 0.16665 0.0
H1023 H 0.58676 0.1527 0.13451 0.0
S1024 S 0.48264 0.13076 0.04818 0.0
N1025 N 0.4852 0.15588 0.08408 0.0
N1026 N 0.51252 0.11938 0.04933 0.0
C1027 C 0.52582 0.13559 0.08016 0.0
C1028 C 0.5112 0.15567 0.09877 0.0
C1029 C 0.25324 0.40271 0.34905 0.0
C1030 C 0.22538 0.38257 0.34221 0.0
C1031 C 0.27425 0.39343 0.33225 0.0
C1032 C 0.2678 0.36388 0.30811 0.0
H1033 H 0.25915 0.42472 0.36862 0.0
H1034 H 0.29588 0.40847 0.33962 0.0
S1035 S 0.19657 0.30641 0.27682 0.0
N1036 N 0.19149 0.33456 0.30667 0.0
N1037 N 0.23072 0.31735 0.27485 0.0
C1038 C 0.23944 0.3452 0.29917 0.0
C1039 C 0.21826 0.35446 0.31636 0.0
C1040 C 0.02023 0.10456 0.16652 0.0
C1041 C 1.01279 0.07517 0.17901 0.0
C1042 C 0.03505 0.10663 0.13845 0.0
C1043 C 0.04317 0.0794 0.12014 0.0
H1044 H 1.0151 0.12657 0.17892 0.0
H1045 H 0.04027 0.13017 0.13105 0.0
S1046 S 0.02924 0.99633 0.14102 0.0
N1047 N 1.01559 1.01782 0.16902 0.0
N1048 N 0.04201 0.0219 0.11769 0.0
C1049 C 0.03551 0.04994 0.13201 0.0
C1050 C 0.02091 0.04786 0.16068 0.0
C1051 C 0.27078 0.65374 0.4359 0.0
C1052 C 0.27482 0.66784 0.46968 0.0
C1053 C 0.26591 0.67234 0.4125 0.0
C1054 C 0.26441 0.70523 0.42232 0.0
H1055 H 0.27314 0.62902 0.42757 0.0
H1056 H 0.26463 0.66153 0.38665 0.0
S1057 S 0.27003 0.75175 0.50795 0.0
N1058 N 0.27399 0.7151 0.51186 0.0
N1059 N 0.26528 0.75024 0.46792 0.0
C1060 C 0.26642 0.7187 0.456 0.0
C1061 C 0.27152 0.6999 0.47972 0.0
C1062 C 0.61308 1.01824 0.64623 0.0
C1063 C 0.64115 0.03784 0.65557 0.0
C1064 C 0.59398 0.02611 0.62346 0.0
C1065 C 0.60223 0.05437 0.61024 0.0
H1066 H 0.60585 0.99668 0.65651 0.0
H1067 H 0.57276 1.00997 0.61614 0.0
S1068 S 0.67225 0.11581 0.62928 0.0
N1069 N 0.6759 0.08695 0.6497 0.0
N1070 N 0.63913 0.10378 0.61057 0.0
C1071 C 0.62978 0.07485 0.6204 0.0
C1072 C 0.64953 0.06598 0.64205 0.0
C1073 C 0.37444 0.37499 0.94428 0.0
C1074 C 0.35535 0.35634 0.96113 0.0
C1075 C 0.37243 0.36685 0.9097 0.0
C1076 C 0.35099 0.34006 0.89054 0.0
H1077 H 0.39066 0.39663 0.95778 0.0
H1078 H 0.38703 0.38242 0.89779 0.0
S1079 S 0.29775 0.28093 0.92185 0.0
N1080 N 0.31586 0.30771 0.95534 0.0
N1081 N 0.31187 0.29328 0.89067 0.0
C1082 C 0.33252 0.32048 0.90691 0.0
C1083 C 0.33477 0.32835 0.94207 0.0
C1084 C 0.03276 0.05686 0.37144 0.0
C1085 C 1.01577 0.07885 0.36594 0.0
C1086 C 0.04558 0.05562 0.40333 0.0
C1087 C 0.04278 0.07645 0.43262 0.0
H1088 H 0.03621 0.0398 0.35064 0.0
H1089 H 0.05803 0.0379 0.40487 0.0
S1090 S 1.00021 0.1385 0.43389 0.0
N1091 N 0.99669 0.12192 0.3942 0.0
N1092 N 0.02081 0.12003 0.45341 0.0
C1093 C 0.02603 0.09887 0.42777 0.0
C1094 C 1.01267 0.09996 0.395 0.0
C1095 C 0.3295 0.72976 0.65488 0.0
C1096 C 0.32985 0.74029 0.62487 0.0
C1097 C 0.32903 0.75137 0.68402 0.0
C1098 C 0.32934 0.78458 0.6845 0.0
H1099 H 0.32934 0.70447 0.65601 0.0
H1100 H 0.32908 0.74201 0.70649 0.0
S1101 S 0.32912 0.82448 0.61261 0.0
N1102 N 0.32946 0.78601 0.59718 0.0
N1103 N 0.32904 0.82692 0.65251 0.0
C1104 C 0.32924 0.79548 0.65473 0.0
C1105 C 0.32947 0.7733 0.6248 0.0
C1106 C 0.6372 0.11042 0.79076 0.0
C1107 C 0.66466 0.10611 0.79205 0.0
C1108 C 0.62688 0.12021 0.81974 0.0
C1109 C 0.64393 0.12625 0.85058 0.0
H1110 H 0.62299 0.10404 0.76751 0.0
H1111 H 0.60481 0.12057 0.81809 0.0
S1112 S 0.71952 0.1263 0.86629 0.0
N1113 N 0.71034 0.11409 0.82589 0.0
N1114 N 0.69085 0.13299 0.88053 0.0
C1115 C 0.67235 0.12544 0.85191 0.0
C1116 C 0.68277 0.11517 0.8225 0.0
C1117 C 0.34646 0.3877 0.15922 0.0
C1118 C 0.35651 0.3673 0.13511 0.0
C1119 C 0.33805 0.37708 0.18778 0.0
C1120 C 0.34007 0.34608 0.19369 0.0
H1121 H 0.34377 0.41131 0.15523 0.0
H1122 H 0.32857 0.39244 0.20433 0.0
S1123 S 0.36677 0.28453 0.13983 0.0
N1124 N 0.36912 0.3153 0.12041 0.0
N1125 N 0.35389 0.29588 0.17371 0.0
C1126 C 0.35105 0.32621 0.17045 0.0
C1127 C 0.3592 0.33669 0.14139 0.0
C1128 C 0.28679 0.05226 0.02801 0.0
C1129 C 0.29109 0.02658 0.04334 0.0
C1130 C 0.26731 0.07 0.03734 0.0
C1131 C 0.25164 0.06295 0.06253 0.0
H1132 H 0.29834 0.0586 1.00842 0.0
H1133 H 0.26437 0.08932 0.02463 0.0
S1134 S 0.25437 0.99789 0.11019 0.0
N1135 N 0.27768 0.9948 0.08492 0.0
N1136 N 0.24114 0.02846 0.1024 0.0
C1137 C 0.25581 0.0376 0.07832 0.0
C1138 C 0.27548 1.01928 0.06868 0.0
C1139 C 0.68136 0.66568 1.00241 0.0
C1140 C 0.70801 0.65913 0.99969 0.0
C1141 C 0.65761 0.64082 1.00527 0.0
C1142 C 0.65944 0.60828 1.00502 0.0
H1143 H 0.67876 0.69027 1.00246 0.0
H1144 H 0.63756 0.64693 1.00697 0.0
S1145 S 0.72416 0.57804 0.99967 0.0
N1146 N 0.73461 0.61745 0.99802 0.0
N1147 N 0.69018 0.57102 1.00278 0.0
C1148 C 0.6859 0.60143 1.00257 0.0
C1149 C 0.7101 0.62672 1.00009 0.0
C1150 C 0.77806 0.45582 0.28656 0.0
C1151 C 0.74789 0.44713 0.2836 0.0
C1152 C 0.79478 0.43167 0.28559 0.0
C1153 C 0.78288 0.39673 0.28159 0.0
H1154 H 0.78905 0.48158 0.28919 0.0
H1155 H 0.81754 0.44072 0.28787 0.0
S1156 S 0.70535 0.35964 0.27478 0.0
N1157 N 0.70764 0.39942 0.27791 0.0
N1158 N 0.7381 0.35603 0.27606 0.0
C1159 C 0.75293 0.38797 0.27922 0.0
C1160 C 0.73599 0.41229 0.28019 0.0
C1161 C 0.95135 0.5238 0.47388 0.0
C1162 C 0.93699 0.50064 0.49028 0.0
C1163 C 0.98097 0.53292 0.47831 0.0
C1164 C 0.99693 0.51968 0.4999 0.0
H1165 H 0.93963 0.53482 0.45755 0.0
H1166 H 0.9914 0.55133 0.46567 0.0
S1167 S 0.96876 0.45897 0.54953 0.0
N1168 N 0.94038 0.46485 0.52905 0.0
N1169 N 0.99612 0.48258 0.53804 0.0
C1170 C 0.98265 0.49653 0.51649 0.0
C1171 C 0.9526 0.48685 0.51151 0.0
C1172 C 0.38043 0.11045 0.28987 0.0
C1173 C 0.40648 0.1204 0.27878 0.0
C1174 C 0.35752 0.12229 0.27994 0.0
C1175 C 0.36006 0.14443 0.25876 0.0
H1176 H 0.37786 0.09391 0.30689 0.0
H1177 H 0.33819 0.11549 0.29022 0.0
S1178 S 0.4234 0.17693 0.22212 0.0
N1179 N 0.43327 0.15213 0.24451 0.0
N1180 N 0.39009 0.1754 0.22639 0.0
C1181 C 0.38561 0.15365 0.24655 0.0
C1182 C 0.4089 0.14125 0.25638 0.0
C1183 C 0.39986 0.19646 0.49739 0.0
C1184 C 0.37425 0.18608 0.50931 0.0
C1185 C 0.42138 0.18012 0.50044 0.0
C1186 C 0.41835 0.15314 0.51608 0.0
H1187 H 0.40324 0.21723 0.48529 0.0
H1188 H 0.44066 0.18886 0.49071 0.0
S1189 S 0.3558 0.11687 0.55249 0.0
N1190 N 0.3473 0.14749 0.53793 0.0
N1191 N 0.38779 0.11684 0.54381 0.0
C1192 C 0.39298 0.14272 0.52845 0.0
C1193 C 0.3709 0.15912 0.52497 0.0
C1194 C 0.74983 0.68756 0.29968 0.0
C1195 C 0.75682 0.65649 0.29649 0.0
C1196 C 0.76903 0.71739 0.29632 0.0
C1197 C 0.79674 0.7184 0.28961 0.0
H1198 H 0.729 0.68905 0.30482 0.0
H1199 H 0.76205 0.73992 0.29917 0.0
S1200 S 0.82636 0.64456 0.27786 0.0
N1201 N 0.7941 0.62956 0.28537 0.0
N1202 N 0.82973 0.68437 0.27931 0.0
C1203 C 0.80399 0.6875 0.28619 0.0
C1204 C 0.78438 0.65716 0.28952 0.0
C1205 C 0.89697 0.4818 0.8256 0.0
C1206 C 0.92647 0.48549 0.82863 0.0
C1207 C 0.8778 0.45054 0.81505 0.0
C1208 C 0.88764 0.42227 0.80657 0.0
H1209 H 0.88857 0.50324 0.83079 0.0
H1210 H 0.85526 0.44855 0.81264 0.0
S1211 S 0.96226 0.41752 0.81381 0.0
N1212 N 0.96429 0.45734 0.82514 0.0
N1213 N 0.92812 0.39887 0.80467 0.0
C1214 C 0.91687 0.42529 0.81068 0.0
C1215 C 0.93637 0.45688 0.82194 0.0
C1216 C 0.10432 0.93148 0.07955 0.0
C1217 C 0.13202 0.92801 0.07745 0.0
C1218 C 0.09472 0.95701 0.06822 0.0
C1219 C 0.1125 0.98068 0.05476 0.0
H1220 H 0.08985 0.91436 0.09015 0.0
H1221 H 0.0734 0.95873 0.07087 0.0
S1222 S 0.18631 0.98232 0.04195 0.0
N1223 N 0.17662 0.95031 0.05922 0.0
N1224 N 0.1588 0.99817 0.03887 0.0
C1225 C 0.14004 0.97733 0.05214 0.0
C1226 C 0.1497 0.95112 0.06317 0.0
C1227 C 0.9332 0.31581 0.88746 0.0
C1228 C 0.94843 0.29153 0.88166 0.0
C1229 C 0.91034 0.31665 0.86443 0.0
C1230 C 0.90132 0.29302 0.83457 0.0
H1231 H 0.93931 0.33491 0.90981 0.0
H1232 H 0.89987 0.33628 0.86997 0.0
S1233 S 0.93297 0.2232 0.80772 0.0
N1234 N 0.95216 0.24272 0.84382 0.0
N1235 N 0.90909 0.24382 0.80094 0.0
C1236 C 0.91596 0.26816 0.82868 0.0
C1237 C 0.93949 0.26756 0.85201 0.0
C1238 C 0.64879 0.22985 0.57119 0.0
C1239 C 0.63 0.24916 0.58009 0.0
C1240 C 0.63933 0.19542 0.55963 0.0
C1241 C 0.61055 0.17843 0.55631 0.0
H1242 H 0.67127 0.24131 0.57374 0.0
H1243 H 0.65496 0.18201 0.55365 0.0
S1244 S 0.55225 0.21716 0.57566 0.0
N1245 N 0.58088 0.24852 0.58415 0.0
N1246 N 0.56309 0.1839 0.5624 0.0
C1247 C 0.5913 0.19745 0.56429 0.0
C1248 C 0.60099 0.23269 0.57614 0.0
C1249 C 0.61291 0.78828 0.3675 0.0
C1250 C 0.61267 0.81281 0.39504 0.0
C1251 C 0.63635 0.79078 0.35056 0.0
C1252 C 0.66022 0.81815 0.36022 0.0
H1253 H 0.59497 0.76684 0.35913 0.0
H1254 H 0.63557 0.77148 0.32938 0.0
S1255 S 0.67052 0.88901 0.43074 0.0
N1256 N 0.63877 0.86537 0.43114 0.0
N1257 N 0.68247 0.86983 0.39945 0.0
C1258 C 0.6603 0.84272 0.38774 0.0
C1259 C 0.63665 0.84012 0.40508 0.0
C1260 C 0.14305 0.32365 0.49573 0.0
C1261 C 0.13395 0.3175 0.46155 0.0
C1262 C 0.13466 0.29934 0.51381 0.0
C1263 C 0.11682 0.26811 0.49834 0.0
H1264 H 0.15714 0.34721 0.5086 0.0
H1265 H 0.14268 0.30478 0.53994 0.0
S1266 S 0.08476 0.24049 0.41011 0.0
N1267 N 0.10463 0.27835 0.41332 0.0
N1268 N 0.08857 0.233 0.44752 0.0
C1269 C 0.10685 0.26192 0.46441 0.0
C1270 C 0.11548 0.28654 0.44595 0.0
C1271 C 0.6171 0.29368 0.23681 0.0
C1272 C 0.59508 0.28067 0.25352 0.0
C1273 C 0.64382 0.28818 0.24317 0.0
C1274 C 0.6496 0.27025 0.26693 0.0
H1275 H 0.61326 0.30619 0.21703 0.0
H1276 H 0.65971 0.2967 0.22838 0.0
S1277 S 0.60127 0.23579 0.32124 0.0
N1278 N 0.58206 0.25241 0.29761 0.0
N1279 N 0.63291 0.24273 0.30982 0.0
C1280 C 0.62882 0.25961 0.28582 0.0
C1281 C 0.60137 0.26479 0.27911 0.0
C1282 C 0.63544 1.00166 0.93619 0.0
C1283 C 0.62848 0.96693 0.92994 0.0
C1284 C 0.62506 1.01951 0.96167 0.0
C1285 C 0.60736 1.00297 0.98097 0.0
H1286 H 0.65006 1.015 0.92259 0.0
H1287 H 0.63238 0.04616 0.96778 0.0
S1288 S 0.58005 0.91229 0.97104 0.0
N1289 N 0.6007 0.9167 0.94263 0.0
N1290 N 0.5813 0.95021 0.99025 0.0
C1291 C 0.59901 0.9683 0.9735 0.0
C1292 C 0.60954 0.95026 0.94793 0.0
C1293 C 0.91611 0.73767 0.71618 0.0
C1294 C 0.94406 0.75742 0.72157 0.0
C1295 C 0.89558 0.7481 0.73291 0.0
C1296 C 0.90233 0.77883 0.75531 0.0
H1297 H 0.90971 0.71485 0.69774 0.0
H1298 H 0.874 0.73274 0.72682 0.0
S1299 S 0.97348 0.83792 0.78093 0.0
N1300 N 0.97817 0.80762 0.75313 0.0
N1301 N 0.9396 0.82742 0.78431 0.0
C1302 C 0.93061 0.79796 0.76224 0.0
C1303 C 0.95147 0.78726 0.74534 0.0
C1304 C 0.14627 0.03375 0.8951 0.0
C1305 C 0.16376 0.06436 0.89152 0.0
C1306 C 0.13015 0.03086 0.92202 0.0
C1307 C 0.13007 0.05825 0.94758 0.0
H1308 H 0.14512 1.01154 0.87708 0.0
H1309 H 0.11749 1.00653 0.92273 0.0
S1310 S 0.17098 0.14447 0.95079 0.0
N1311 N 0.17864 0.12316 0.9174 0.0
N1312 N 0.14927 0.11733 0.96615 0.0
C1313 C 0.14718 0.08883 0.94414 0.0
C1314 C 0.16353 0.0919 0.91697 0.0
C1315 C 0.87512 0.44559 0.59636 0.0
C1316 C 0.87453 0.43004 0.56356 0.0
C1317 C 0.88334 0.43149 0.62224 0.0
C1318 C 0.89131 0.40157 0.616 0.0
H1319 H 0.86773 0.46774 0.60199 0.0
H1320 H 0.88183 0.44295 0.64714 0.0
S1321 S 0.89856 0.35492 0.53471 0.0
N1322 N 0.88673 0.38626 0.52637 0.0
N1323 N 0.9016 0.35921 0.57511 0.0
C1324 C 0.89327 0.38749 0.58352 0.0
C1325 C 0.88487 0.40182 0.55719 0.0
C1326 C 0.53213 0.1146 0.43149 0.0
C1327 C 0.51354 0.08594 0.41134 0.0
C1328 C 0.55759 0.11288 0.44898 0.0
C1329 C 0.56485 0.08255 0.44605 0.0
H1330 H 0.52637 0.13792 0.43483 0.0
H1331 H 0.57057 0.13464 0.46642 0.0
S1332 S 0.52485 1.00173 0.39366 0.0
N1333 N 0.50516 0.02731 0.38777 0.0
N1334 N 0.55317 0.0244 0.41977 0.0
C1335 C 0.54733 0.05449 0.42435 0.0
C1336 C 0.52149 0.05608 0.40718 0.0
C1337 C 0.82412 0.77401 0.11915 0.0
C1338 C 0.79676 0.77144 0.10305 0.0
C1339 C 0.83167 0.78556 0.1535 0.0
C1340 C 0.81225 0.79524 0.17326 0.0
H1341 H 0.83948 0.76564 0.10537 0.0
H1342 H 0.85269 0.78592 0.16469 0.0
S1343 S 0.739 0.79731 0.14233 0.0
N1344 N 0.75104 0.78237 0.10902 0.0
N1345 N 0.7651 0.80424 0.17319 0.0
C1346 C 0.78529 0.79444 0.1571 0.0
C1347 C 0.77761 0.78253 0.12218 0.0
C1348 C 0.12179 0.0546 0.69011 0.0
C1349 C 0.1504 0.0535 0.69822 0.0
C1350 C 0.10991 0.05747 0.65834 0.0
C1351 C 0.12559 0.05916 0.63196 0.0
H1352 H 0.10814 0.05348 0.70879 0.0
H1353 H 0.08797 0.05825 0.65441 0.0
S1354 S 0.20188 0.05994 0.63905 0.0
N1355 N 0.19438 0.05621 0.67606 0.0
N1356 N 0.17218 0.06089 0.61699 0.0
C1357 C 0.1542 0.05812 0.63942 0.0
C1358 C 0.16646 0.05547 0.67205 0.0
C1359 C 0.84902 0.42235 0.38516 0.0
C1360 C 0.83431 0.4236 0.4122 0.0
C1361 C 0.8471 0.39236 0.36383 0.0
C1362 C 0.83015 0.36246 0.36836 0.0
H1363 H 0.86247 0.44464 0.38053 0.0
H1364 H 0.85849 0.39287 0.34318 0.0
S1365 S 0.78777 0.35179 0.4357 0.0
N1366 N 0.80257 0.39198 0.44283 0.0
N1367 N 0.7988 0.33554 0.40214 0.0
C1368 C 0.81549 0.36313 0.39539 0.0
C1369 C 0.81755 0.39372 0.41739 0.0
C1370 C 0.51754 1.00999 0.26883 0.0
C1371 C 0.49157 1.01844 0.26567 0.0
C1372 C 0.52924 1.0 0.24109 0.0
C1373 C 0.51525 0.99815 0.20943 0.0
H1374 H 0.53009 1.01363 0.29281 0.0
H1375 H 0.55068 0.99735 0.24472 0.0
S1376 S 0.44297 1.00737 0.1876 0.0
N1377 N 0.44924 1.0168 0.22831 0.0
N1378 N 0.47156 0.9977 0.17592 0.0
C1379 C 0.48749 1.0016 0.20577 0.0
C1380 C 0.47554 1.01196 0.23404 0.0
C1381 C 0.80247 0.79749 0.91337 0.0
C1382 C 0.80818 0.76915 0.92271 0.0
C1383 C 0.81246 0.80862 0.886 0.0
C1384 C 0.82796 0.79159 0.86602 0.0
H1385 H 0.79096 0.81199 0.92795 0.0
H1386 H 0.80899 0.83169 0.88122 0.0
S1387 S 0.85047 0.71743 0.88036 0.0
N1388 N 0.83148 0.72485 0.90979 0.0
N1389 N 0.85009 0.74614 0.85853 0.0
C1390 C 0.83374 0.76319 0.87471 0.0
C1391 C 0.82376 0.75181 0.90282 0.0
C1392 C 0.88855 0.10857 0.98309 0.0
C1393 C 0.87824 0.11278 1.0133 0.0
C1394 C 0.9094 0.09156 0.97822 0.0
C1395 C 0.92058 0.07802 1.00332 0.0
H1396 H 0.88074 0.11882 0.96313 0.0
H1397 H 0.91723 0.0896 0.95486 0.0
S1398 S 0.89969 0.08048 0.08631 0.0
N1399 N 0.88023 0.10113 0.0684 0.0
N1400 N 0.91904 0.06858 0.05889 0.0
C1401 C 0.91018 0.08158 0.03346 0.0
C1402 C 0.8891 0.09909 0.03854 0.0
C1403 C 0.48541 0.47294 0.04678 0.0
C1404 C 0.46113 0.48099 0.05764 0.0
C1405 C 0.51029 0.49756 0.04704 0.0
C1406 C 0.51199 0.5313 0.05801 0.0
H1407 H 0.4852 0.44736 0.03773 0.0
H1408 H 0.52828 0.49011 0.03849 0.0
S1409 S 0.45499 0.56592 0.08991 0.0
N1410 N 0.44097 0.52554 0.08048 0.0
N1411 N 0.4874 0.57149 0.08085 0.0
C1412 C 0.48813 0.5397 0.0695 0.0
C1413 C 0.46283 0.5147 0.06932 0.0
C1414 C 0.43098 0.72423 0.77552 0.0
C1415 C 0.41994 0.69007 0.77628 0.0
C1416 C 0.41466 0.74842 0.77764 0.0
C1417 C 0.38546 0.74102 0.78068 0.0
H1418 H 0.45305 0.73288 0.77315 0.0
H1419 H 0.42531 0.77347 0.77662 0.0
S1420 S 0.34462 0.65608 0.78477 0.0
N1421 N 0.37658 0.65116 0.78103 0.0
N1422 N 0.34639 0.69537 0.78477 0.0
C1423 C 0.37393 0.70698 0.78165 0.0
C1424 C 0.39074 0.68221 0.77956 0.0
C1425 C 0.21841 0.61553 0.54605 0.0
C1426 C 0.23229 0.62583 0.57886 0.0
C1427 C 0.18921 0.61071 0.53852 0.0
C1428 C 0.17271 0.61545 0.56355 0.0
H1429 H 0.23021 0.61179 0.52586 0.0
H1430 H 0.17946 0.6023 0.51288 0.0
S1431 S 0.19891 0.6427 0.65336 0.0
N1432 N 0.22763 0.6413 0.63653 0.0
N1433 N 0.1723 0.63133 0.62243 0.0
C1434 C 0.18628 0.62582 0.59648 0.0
C1435 C 0.21619 0.63123 0.60412 0.0
C1436 C 0.78307 1.01357 0.75433 0.0
C1437 C 0.76542 1.01755 0.77819 0.0
C1438 C 0.80772 1.00377 0.76134 0.0
C1439 C 0.81528 0.99682 0.79219 0.0
H1440 H 0.77803 1.01851 0.73012 0.0
H1441 H 0.82067 1.00091 0.74214 0.0
S1442 S 0.77585 1.00367 0.86311 0.0
N1443 N 0.75726 1.0152 0.83411 0.0
N1444 N 0.80305 0.99466 0.84698 0.0
C1445 C 0.79803 1.00131 0.81658 0.0
C1446 C 0.77315 1.01211 0.80959 0.0
C1447 C 0.76489 0.93736 0.55027 0.0
C1448 C 0.7925 0.95076 0.54442 0.0
C1449 C 0.74343 0.95361 0.54608 0.0
C1450 C 0.74862 0.98373 0.53551 0.0
H1451 H 0.7598 0.91428 0.55857 0.0
H1452 H 0.72257 0.94247 0.55109 0.0
S1453 S 0.81701 0.02922 0.51635 0.0
N1454 N 0.82364 0.9959 0.527 0.0
N1455 N 0.78336 0.02646 0.51936 0.0
C1456 C 0.776 0.99727 0.52921 0.0
C1457 C 0.79791 0.98083 0.53365 0.0
C1458 C 0.41984 0.45807 0.79035 0.0
C1459 C 0.41182 0.48291 0.77541 0.0
C1460 C 0.40096 0.42663 0.78948 0.0
C1461 C 0.37253 0.41786 0.77385 0.0
H1462 H 0.44113 0.46301 0.80348 0.0
H1463 H 0.40853 0.40953 0.80218 0.0
S1464 S 0.34037 0.47158 0.72853 0.0
N1465 N 0.37304 0.49443 0.74261 0.0
N1466 N 0.33786 0.43662 0.74137 0.0
C1467 C 0.36433 0.44203 0.75818 0.0
C1468 C 0.38368 0.47393 0.75881 0.0
C1469 C 0.2853 0.65245 0.25473 0.0
C1470 C 0.27123 0.63974 0.22199 0.0
C1471 C 0.301 0.68529 0.26494 0.0
C1472 C 0.30404 0.70615 0.24255 0.0
H1473 H 0.28263 0.63772 0.27335 0.0
H1474 H 0.30983 0.6948 0.29078 0.0
S1475 S 0.27567 0.68431 0.15334 0.0
N1476 N 0.2641 0.64997 0.16655 0.0
N1477 N 0.29476 0.71179 0.18584 0.0
C1478 C 0.29256 0.69325 0.20922 0.0
C1479 C 0.27591 0.65989 0.19885 0.0
C1480 C 0.58002 0.71764 0.50234 0.0
C1481 C 0.55497 0.71607 0.48135 0.0
C1482 C 0.58473 0.6899 0.51374 0.0
C1483 C 0.56462 0.65896 0.50504 0.0
H1484 H 0.59659 0.74053 0.50982 0.0
H1485 H 0.60461 0.69279 0.52937 0.0
S1486 S 0.49541 0.64071 0.45054 0.0
N1487 N 0.50963 0.68037 0.45233 0.0
N1488 N 0.51835 0.62839 0.47397 0.0
C1489 C 0.53917 0.65696 0.48456 0.0
C1490 C 0.5344 0.68535 0.47271 0.0
C1491 C 0.75425 0.36495 0.68609 0.0
C1492 C 0.72512 0.34879 0.68303 0.0
C1493 C 0.77547 0.35624 0.70583 0.0
C1494 C 0.7686 0.33065 0.72316 0.0
H1495 H 0.76077 0.38487 0.67341 0.0
H1496 H 0.79735 0.36995 0.70784 0.0
S1497 S 0.69591 0.27826 0.72117 0.0
N1498 N 0.69106 0.30457 0.6979 0.0
N1499 N 0.73034 0.28783 0.734 0.0
C1500 C 0.73963 0.31363 0.71943 0.0
C1501 C 0.71811 0.32277 0.69975 0.0
C1502 C 0.02508 0.40916 0.9666 0.0
C1503 C 0.04346 0.38911 0.9717 0.0
C1504 C 0.03189 0.44263 0.9826 0.0
C1505 C 0.05779 0.45786 1.00382 0.0
H1506 H 1.0054 0.39901 0.94954 0.0
H1507 H 1.01712 0.45694 0.97708 0.0
S1508 S 0.11315 0.41577 0.02597 0.0
N1509 N 0.0882 0.38634 1.00034 0.0
N1510 N 0.10156 0.44951 0.02979 0.0
C1511 C 0.07612 0.43778 1.00975 0.0
C1512 C 0.06882 0.40338 0.99389 0.0
C1513 C 0.05964 0.84039 0.20163 0.0
C1514 C 0.05536 0.83241 0.16692 0.0
C1515 C 0.03666 0.83735 0.21929 0.0
C1516 C 1.00841 0.82628 0.20301 0.0
H1517 H 0.08091 0.84913 0.21537 0.0
H1518 H 0.04108 0.84389 0.24596 0.0
S1519 S 0.9854 0.80032 0.1125 0.0
N1520 N 0.0203 0.81184 0.11699 0.0
N1521 N 0.9775 0.8059 0.15018 0.0
C1522 C 1.0038 0.81796 0.16836 0.0
C1523 C 0.02713 0.82103 0.15036 0.0
C1524 C 0.53122 0.33976 0.10757 0.0
C1525 C 0.54425 0.31343 0.10432 0.0
C1526 C 0.53537 0.36257 0.08713 0.0
C1527 C 0.5526 0.35983 0.06257 0.0
H1528 H 0.51841 0.34351 0.12676 0.0
H1529 H 0.5258 0.38315 0.09134 0.0
S1530 S 0.58885 0.29338 0.04123 0.0
N1531 N 0.57339 0.28458 0.07288 0.0
N1532 N 0.5808 0.32731 0.03412 0.0
C1533 C 0.56479 0.3329 0.05807 0.0
C1534 C 0.56069 0.30972 0.079 0.0
C1535 C 0.04737 0.3153 0.32207 0.0
C1536 C 0.07284 0.33807 0.32061 0.0
C1537 C 0.02121 0.32166 0.31346 0.0
C1538 C 0.0197 0.35078 0.30281 0.0
H1539 H 0.04757 0.29347 0.33195 0.0
H1540 H 1.00209 0.30442 0.31655 0.0
S1541 S 0.07974 0.41639 0.29085 0.0
N1542 N 0.09462 0.38929 0.30435 0.0
N1543 N 0.04531 0.40124 0.2887 0.0
C1544 C 0.04474 0.37252 0.29888 0.0
C1545 C 0.07138 0.36611 0.3076 0.0
C1546 C 1.01334 0.65362 0.60702 0.0
C1547 C 0.02786 0.6863 0.60728 0.0
C1548 C 0.02419 0.62719 0.59411 0.0
C1549 C 0.05032 0.63304 0.58258 0.0
H1550 H 0.99291 0.64843 0.61527 0.0
H1551 H 1.01148 0.60208 0.59158 0.0
S1552 S 0.0979 0.71436 0.58166 0.0
N1553 N 0.07053 0.72331 0.5974 0.0
N1554 N 0.09127 0.6736 0.57414 0.0
C1555 C 0.06589 0.6657 0.58491 0.0
C1556 C 0.05454 0.69243 0.59705 0.0
C1557 C 0.73939 0.84572 0.86173 0.0
C1558 C 0.72917 0.87328 0.85849 0.0
C1559 C 0.75754 0.83564 0.84112 0.0
C1560 C 0.76704 0.85359 0.8176 0.0
H1561 H 0.73259 0.83109 0.87954 0.0
H1562 H 0.7644 0.81373 0.84384 0.0
S1563 S 0.74515 0.92606 0.79775 0.0
N1564 N 0.72819 0.91708 0.82837 0.0
N1565 N 0.76433 0.89913 0.79095 0.0
C1566 C 0.7572 0.88122 0.81402 0.0
C1567 C 0.73772 0.89083 0.83421 0.0
C1568 C 0.53824 0.62252 0.6747 0.0
C1569 C 0.51604 0.59767 0.6817 0.0
C1570 C 0.55113 0.6187 0.64561 0.0
C1571 C 0.54351 0.58947 0.62046 0.0
H1572 H 0.5461 0.64598 0.69214 0.0
H1573 H 0.56777 0.63943 0.64306 0.0
S1574 S 0.48625 0.51567 0.62404 0.0
N1575 N 0.48677 0.54181 0.65878 0.0
N1576 N 0.51101 0.53458 0.60504 0.0
C1577 C 0.52129 0.56404 0.62668 0.0
C1578 C 0.50774 0.5681 0.6566 0.0
C1579 C 0.75772 0.19737 0.95709 0.0
C1580 C 0.7836 0.20478 0.97849 0.0
C1581 C 0.75231 0.21901 0.93713 0.0
C1582 C 0.77236 0.24896 0.9387 0.0
H1583 H 0.74166 0.17459 0.95555 0.0
H1584 H 0.73244 0.21235 0.92041 0.0
S1585 S 0.8435 0.27957 0.99004 0.0
N1586 N 0.82955 0.24394 0.99968 0.0
N1587 N 0.81933 0.28452 0.96215 0.0
C1588 C 0.79832 0.25657 0.95985 0.0
C1589 C 0.80397 0.23447 0.97979 0.0
C1590 C 0.14491 0.57658 0.1548 0.0
C1591 C 0.13383 0.55986 0.17855 0.0
C1592 C 0.12721 0.57958 0.12772 0.0
C1593 C 0.09795 0.56489 0.1227 0.0
H1594 H 0.16743 0.58783 0.15731 0.0
H1595 H 0.13663 0.5933 0.11046 0.0
S1596 S 0.05815 0.52083 0.17912 0.0
N1597 N 0.09158 0.53076 0.19686 0.0
N1598 N 0.05828 0.53503 0.14484 0.0
C1599 C 0.08643 0.54889 0.14669 0.0
C1600 C 0.10442 0.54663 0.17487 0.0
C1601 C 0.84299 0.86345 0.44282 0.0
C1602 C 0.87068 0.86808 0.45906 0.0
C1603 C 0.83571 0.851 0.40856 0.0
C1604 C 0.85573 0.8424 0.3891 0.0
H1605 H 0.82719 0.87106 0.45635 0.0
H1606 H 0.81438 0.84915 0.39717 0.0
S1607 S 0.93015 0.84559 0.42089 0.0
N1608 N 0.91746 0.8602 0.45382 0.0
N1609 N 0.90387 0.83647 0.38983 0.0
C1610 C 0.88306 0.84512 0.40554 0.0
C1611 C 0.89048 0.85804 0.44034 0.0
C1612 C 0.52494 0.60814 0.89234 0.0
C1613 C 0.51552 0.58024 0.86567 0.0
C1614 C 0.5382 0.60621 0.9242 0.0
C1615 C 0.54281 0.57624 0.9317 0.0
H1616 H 0.52291 0.63199 0.88838 0.0
H1617 H 0.54527 0.62873 0.94307 0.0
S1618 S 0.51963 0.49507 0.87181 0.0
N1619 N 0.51053 0.52112 0.85052 0.0
N1620 N 0.53443 0.51749 0.90877 0.0
C1621 C 0.53257 0.54813 0.90541 0.0
C1622 C 0.51936 0.55015 0.87319 0.0
C1623 C 0.82425 0.23289 0.1553 0.0
C1624 C 0.81845 0.24337 0.1259 0.0
C1625 C 0.82726 0.2541 0.18581 0.0
C1626 C 0.82517 0.28683 0.18808 0.0
H1627 H 0.82644 0.20805 0.15479 0.0
H1628 H 0.83214 0.24496 0.20776 0.0
S1629 S 0.80894 0.3259 0.11848 0.0
N1630 N 0.8094 0.28806 0.10078 0.0
N1631 N 0.81584 0.3284 0.1586 0.0
C1632 C 0.8188 0.2975 0.15897 0.0
C1633 C 0.81524 0.27563 0.12775 0.0
C1634 C 0.20337 0.63093 0.34644 0.0
C1635 C 0.19021 0.63417 0.31615 0.0
C1636 C 0.19272 0.63985 0.37542 0.0
C1637 C 0.16799 0.65112 0.37469 0.0
H1638 H 0.22092 0.61957 0.34739 0.0
H1639 H 0.20236 0.63507 0.39802 0.0
S1640 S 0.12835 0.66803 0.30167 0.0
N1641 N 0.15406 0.6536 0.28735 0.0
N1642 N 0.13277 0.66873 0.34157 0.0
C1643 C 0.15638 0.65747 0.34493 0.0
C1644 C 0.16776 0.64917 0.31557 0.0
C1645 C 0.84257 0.88502 0.65854 0.0
C1646 C 0.86139 0.87035 0.64151 0.0
C1647 C 0.83202 0.87383 0.68582 0.0
C1648 C 0.84019 0.84788 0.6975 0.0
H1649 H 0.83514 0.9046 0.65011 0.0
H1650 H 0.81653 0.88466 0.69698 0.0
S1651 S 0.88948 0.80167 0.66332 0.0
N1652 N 0.88824 0.82879 0.63981 0.0
N1653 N 0.86847 0.80827 0.69066 0.0
C1654 C 0.85956 0.83375 0.68154 0.0
C1655 C 0.87018 0.84487 0.65376 0.0
C1656 C 0.7804 0.53142 0.57029 0.0
C1657 C 0.79338 0.53471 0.54222 0.0
C1658 C 0.76022 0.54854 0.57847 0.0
C1659 C 0.75221 0.56927 0.55868 0.0
H1660 H 0.78562 0.51523 0.5859 0.0
H1661 H 0.75013 0.54467 0.59978 0.0
S1662 S 0.78008 0.58678 0.48295 0.0
N1663 N 0.79704 0.56065 0.49489 0.0
N1664 N 0.7591 0.59295 0.51046 0.0
C1665 C 0.76533 0.57325 0.53091 0.0
C1666 C 0.78597 0.55597 0.52265 0.0
C1667 C 0.1883 0.17076 0.52827 0.0
C1668 C 0.21045 0.16448 0.51118 0.0
C1669 C 0.16345 0.14576 0.52724 0.0
C1670 C 0.15951 0.11352 0.5088 0.0
H1671 H 0.1903 0.1951 0.5431 0.0
H1672 H 0.14758 0.15157 0.54163 0.0
S1673 S 0.21076 0.08377 0.45953 0.0
N1674 N 0.22648 0.12314 0.47529 0.0
N1675 N 0.17998 0.07666 0.47291 0.0
C1676 C 0.18132 0.10698 0.49131 0.0
C1677 C 0.20665 0.13229 0.49254 0.0
C1678 C 0.27822 0.95849 0.78247 0.0
C1679 C 0.24828 0.95031 0.78175 0.0
C1680 C 0.29461 0.93402 0.78051 0.0
C1681 C 0.28257 0.8993 0.77773 0.0
H1682 H 0.28923 0.98405 0.78394 0.0
H1683 H 0.31723 0.94265 0.78106 0.0
S1684 S 0.20563 0.86376 0.77708 0.0
N1685 N 0.20811 0.9035 0.77953 0.0
N1686 N 0.23802 0.85946 0.77602 0.0
C1687 C 0.25287 0.8911 0.77768 0.0
C1688 C 0.23625 0.91574 0.77958 0.0
C1689 C 0.45213 0.03654 1.00078 0.0
C1690 C 0.44002 0.04023 0.02987 0.0
C1691 C 0.48093 0.03813 1.00183 0.0
C1692 C 0.4987 0.04318 0.03196 0.0
H1693 H 0.43924 0.03205 0.97687 0.0
H1694 H 0.48934 0.03555 0.97883 0.0
S1695 S 0.47794 0.05627 0.11541 0.0
N1696 N 0.44836 0.05051 0.08983 0.0
N1697 N 0.50241 0.05315 0.09182 0.0
C1698 C 0.48693 0.04696 0.0613 0.0
C1699 C 0.45766 0.04575 0.06025 0.0
C1700 C 0.88802 0.62625 0.80335 0.0
C1701 C 0.90699 0.62442 0.78069 0.0
C1702 C 0.86329 0.63575 0.79572 0.0
C1703 C 0.85689 0.64449 0.76543 0.0
H1704 H 0.89201 0.61972 0.827 0.0
H1705 H 0.84924 0.63674 0.81395 0.0
S1706 S 0.90015 0.64398 0.69781 0.0
N1707 N 0.91787 0.63131 0.72661 0.0
N1708 N 0.8718 0.65101 0.71267 0.0
C1709 C 0.87568 0.6426 0.74239 0.0
C1710 C 0.90069 0.63221 0.74999 0.0
C1711 C 0.87185 0.65787 1.00329 0.0
C1712 C 0.87296 0.68501 0.02874 0.0
C1713 C 0.8933 0.64118 1.00332 0.0
C1714 C 0.91654 0.65068 0.029 0.0
H1715 H 0.85454 0.64977 0.98282 0.0
H1716 H 0.89162 0.62053 0.9831 0.0
S1717 S 0.92918 0.71941 0.10199 0.0
N1718 N 0.89907 0.72014 0.08078 0.0
N1719 N 0.9393 0.68869 0.0807 0.0
C1720 C 0.91773 0.67741 0.05485 0.0
C1721 C 0.89601 0.69461 0.05473 0.0
C1722 C 0.24965 0.18597 0.7847 0.0
C1723 C 0.25787 0.15822 0.7935 0.0
C1724 C 0.26943 0.2166 0.78462 0.0
C1725 C 0.29896 0.22161 0.79304 0.0
H1726 H 0.22743 0.18403 0.77731 0.0
H1727 H 0.26144 0.23623 0.77708 0.0
S1728 S 0.33258 0.15843 0.81958 0.0
N1729 N 0.29845 0.13941 0.81216 0.0
N1730 N 0.33512 0.19564 0.81177 0.0
C1731 C 0.30747 0.19435 0.8025 0.0
C1732 C 0.28729 0.16329 0.80283 0.0
C1733 C 0.38384 0.97324 0.31689 0.0
C1734 C 0.40776 0.97907 0.34107 0.0
C1735 C 0.36667 0.94117 0.30441 0.0
C1736 C 0.37259 0.91446 0.3165 0.0
H1737 H 0.37939 0.99318 0.3061 0.0
H1738 H 0.349 0.93714 0.28492 0.0
S1739 S 0.43204 0.917 0.38038 0.0
N1740 N 0.4362 0.95584 0.37688 0.0
N1741 N 0.40319 0.89561 0.35435 0.0
C1742 C 0.39565 0.92016 0.34164 0.0
C1743 C 0.41345 0.95257 0.35375 0.0
C1744 C 0.58939 0.42174 0.56178 0.0
C1745 C 0.61552 0.42251 0.58016 0.0
C1746 C 0.5843 0.44963 0.551 0.0
C1747 C 0.60508 0.48005 0.55768 0.0
H1748 H 0.57223 0.39936 0.55594 0.0
H1749 H 0.5636 0.44727 0.53746 0.0
S1750 S 0.67766 0.49587 0.60387 0.0
N1751 N 0.66283 0.45676 0.60396 0.0
N1752 N 0.65342 0.50902 0.58342 0.0
C1753 C 0.63159 0.48124 0.57547 0.0
C1754 C 0.63675 0.45267 0.58674 0.0
C1755 C 0.45165 0.80911 0.35996 0.0
C1756 C 0.4449 0.78261 0.37612 0.0
C1757 C 0.43066 0.81789 0.34036 0.0
C1758 C 0.4018 0.80037 0.3354 0.0
H1759 H 0.47337 0.82368 0.36285 0.0
H1760 H 0.43731 0.83865 0.32877 0.0
S1761 S 0.37255 0.72835 0.37129 0.0
N1762 N 0.40684 0.73867 0.38551 0.0
N1763 N 0.36773 0.75479 0.3481 0.0
C1764 C 0.39467 0.77367 0.35116 0.0
C1765 C 0.41606 0.76492 0.37157 0.0
C1766 C 0.14646 0.72719 0.06867 0.0
C1767 C 0.12723 0.74662 0.0749 0.0
C1768 C 0.13736 0.6925 0.05935 0.0
C1769 C 0.10853 0.67543 0.05547 0.0
H1770 H 0.16896 0.73875 0.07186 0.0
H1771 H 0.15327 0.67898 0.05548 0.0
S1772 S 0.04915 0.71454 0.06715 0.0
N1773 N 0.07766 0.74603 0.07538 0.0
N1774 N 0.06057 0.68101 0.05758 0.0
C1775 C 0.0889 0.69456 0.06068 0.0
C1776 C 0.09822 0.72999 0.07047 0.0
C1777 C 0.1388 0.33044 0.90884 0.0
C1778 C 0.11209 0.30887 0.89466 0.0
C1779 C 0.16215 0.33272 0.89203 0.0
C1780 C 0.15998 0.31351 0.86022 0.0
H1781 H 0.14184 0.34598 0.93321 0.0
H1782 H 0.18214 0.34979 0.9041 0.0
S1783 S 0.09502 0.25318 0.8117 0.0
N1784 N 0.08502 0.26763 0.84669 0.0
N1785 N 0.1289 0.27226 0.81499 0.0
C1786 C 0.13355 0.29155 0.84578 0.0
C1787 C 0.10965 0.2892 0.86295 0.0
C1788 C 0.65077 0.79977 0.95458 0.0
C1789 C 0.64159 0.82871 0.96288 0.0
C1790 C 0.64364 0.77387 0.97117 0.0
C1791 C 0.62662 0.77588 0.99605 0.0
H1792 H 0.66371 0.79724 0.93532 0.0
H1793 H 0.65112 0.75195 0.96422 0.0
S1794 S 0.59641 0.84569 0.02623 0.0
N1795 N 0.61423 0.8575 0.99726 0.0
N1796 N 0.60066 0.80868 0.02813 0.0
C1797 C 0.61712 0.80448 1.00436 0.0
C1798 C 0.62467 0.83097 0.98786 0.0
C1799 C 0.10313 0.7784 0.74673 0.0
C1800 C 0.08333 0.74775 0.73372 0.0
C1801 C 0.13152 0.78014 0.75718 0.0
C1802 C 0.14109 0.75129 0.75483 0.0
H1803 H 0.09683 0.8013 0.748 0.0
H1804 H 0.14624 0.80426 0.76633 0.0
S1805 S 0.09792 0.66499 0.72219 0.0
N1806 N 0.07523 0.68785 0.71937 0.0
N1807 N 0.12879 0.69126 0.73854 0.0
C1808 C 0.12142 0.72044 0.74273 0.0
C1809 C 0.09245 0.71863 0.73228 0.0
C1810 C 0.14874 0.47016 0.45696 0.0
C1811 C 0.12791 0.4521 0.43012 0.0
C1812 C 0.14458 0.49759 0.47791 0.0
C1813 C 0.11957 0.50779 0.47244 0.0
H1814 H 0.16753 0.46191 0.46301 0.0
H1815 H 0.16032 0.50968 0.49953 0.0
S1816 S 0.06137 0.47255 0.4016 0.0
N1817 N 0.08346 0.44888 0.3963 0.0
N1818 N 0.07573 0.50081 0.43556 0.0
C1819 C 0.09987 0.49182 0.4439 0.0
C1820 C 0.10398 0.46372 0.42278 0.0
C1821 C 0.45299 0.2898 0.24528 0.0
C1822 C 0.44565 0.26613 0.21536 0.0
C1823 C 0.43226 0.29848 0.26264 0.0
C1824 C 0.4035 0.28321 0.2512 0.0
H1825 H 0.4749 0.30273 0.25489 0.0
H1826 H 0.43878 0.31792 0.28474 0.0
S1827 S 0.37296 0.218 0.17558 0.0
N1828 N 0.4075 0.22692 0.17546 0.0
N1829 N 0.36848 0.24187 0.20938 0.0
C1830 C 0.39579 0.25827 0.22228 0.0
C1831 C 0.41689 0.25019 0.20393 0.0
C1832 C 0.65951 0.54028 0.40703 0.0
C1833 C 0.65305 0.55892 0.38342 0.0
C1834 C 0.64606 0.53898 0.43623 0.0
C1835 C 0.62551 0.55667 0.44454 0.0
H1836 H 0.67533 0.52666 0.40318 0.0
H1837 H 0.65219 0.52408 0.45276 0.0
S1838 S 0.59799 0.60653 0.39066 0.0
N1839 N 0.6219 0.59349 0.37081 0.0
N1840 N 0.59836 0.59157 0.42446 0.0
C1841 C 0.61859 0.57479 0.42104 0.0
C1842 C 0.63176 0.57576 0.39124 0.0
C1843 C 0.37905 0.93951 0.08667 0.0
C1844 C 0.36334 0.92105 0.05617 0.0
C1845 C 0.38827 0.92379 0.11062 0.0
C1846 C 0.38223 0.88916 0.10474 0.0
H1847 H 0.38349 0.96626 0.09258 0.0
H1848 H 0.39923 0.93873 0.13438 0.0
S1849 S 0.34475 0.82981 0.0276 0.0
N1850 N 0.34448 0.86656 0.02017 0.0
N1851 N 0.36148 0.83685 0.06567 0.0
C1852 C 0.36795 0.87046 0.07374 0.0
C1853 C 0.35847 0.88647 0.04933 0.0
C1854 C 1.01187 0.55619 0.9251 0.0
C1855 C 1.01533 0.58542 0.91313 0.0
C1856 C 0.03477 0.54898 0.94221 0.0
C1857 C 0.06181 0.57125 0.94901 0.0
H1858 H 0.99132 0.53856 0.92117 0.0
H1859 H 0.03087 0.52649 0.95165 0.0
S1860 S 0.08286 0.64892 0.91907 0.0
N1861 N 0.0485 0.63481 0.90551 0.0
N1862 N 0.09156 0.62196 0.93949 0.0
C1863 C 0.06603 0.59965 0.93561 0.0
C1864 C 0.04271 0.60666 0.91739 0.0
C1865 C 0.29267 0.29958 0.62292 0.0
C1866 C 0.30701 0.27969 0.6041 0.0
C1867 C 0.29827 0.30728 0.65761 0.0
C1868 C 0.31877 0.29586 0.67509 0.0
H1869 H 0.27653 0.30887 0.61084 0.0
H1870 H 0.28648 0.32247 0.67082 0.0
S1871 S 0.36223 0.24267 0.63803 0.0
N1872 N 0.34266 0.24851 0.60606 0.0
N1873 N 0.35329 0.26331 0.67091 0.0
C1874 C 0.3335 0.27625 0.65668 0.0
C1875 C 0.3276 0.26808 0.62136 0.0
C1876 C 0.64531 0.53107 0.17216 0.0
C1877 C 0.65638 0.55983 0.1977 0.0
C1878 C 0.63185 0.53219 0.14005 0.0
C1879 C 0.62857 0.56213 0.13116 0.0
H1880 H 0.64644 0.50727 0.17716 0.0
H1881 H 0.6236 0.50912 0.1221 0.0
S1882 S 0.6562 0.64518 0.18731 0.0
N1883 N 0.6644 0.61967 0.20985 0.0
N1884 N 0.63984 0.6216 0.15143 0.0
C1885 C 0.6403 0.59097 0.15627 0.0
C1886 C 0.65385 0.58985 0.18865 0.0
C1887 C 0.34186 0.91665 0.89694 0.0
C1888 C 0.35681 0.91397 0.92632 0.0
C1889 C 0.33525 0.89083 0.86943 0.0
C1890 C 0.3429 0.86108 0.87041 0.0
H1891 H 0.33562 0.93911 0.89494 0.0
H1892 H 0.32395 0.89434 0.84719 0.0
S1893 S 0.38074 0.84089 0.94226 0.0
N1894 N 0.37833 0.87902 0.95561 0.0
N1895 N 0.36522 0.82978 0.90335 0.0
C1896 C 0.35718 0.85757 0.89986 0.0
C1897 C 0.3644 0.88428 0.92798 0.0
C1898 C 0.99471 0.52512 0.7396 0.0
C1899 C 1.01502 0.54585 0.76588 0.0
C1900 C 1.00293 0.51002 0.71103 0.0
C1901 C 0.03168 0.51523 0.70795 0.0
H1902 H 0.97228 0.52093 0.74089 0.0
H1903 H 0.98674 0.49508 0.69081 0.0
S1904 S 0.09291 0.56775 0.7695 0.0
N1905 N 0.0649 0.57057 0.78725 0.0
N1906 N 0.08047 0.54269 0.73316 0.0
C1907 C 0.0522 0.53521 0.73437 0.0
C1908 C 0.04382 0.55042 0.76351 0.0
C1909 C 0.34962 0.30464 0.43377 0.0
C1910 C 0.32601 0.27794 0.43221 0.0
C1911 C 0.35693 0.31597 0.40554 0.0
C1912 C 0.34093 0.30167 0.37394 0.0
H1913 H 0.36284 0.31715 0.45716 0.0
H1914 H 0.3753 0.33679 0.40887 0.0
S1915 S 0.27707 0.23067 0.35561 0.0
N1916 N 0.28692 0.23652 0.3958 0.0
N1917 N 0.29997 0.25915 0.343 0.0
C1918 C 0.31728 0.27479 0.37175 0.0
C1919 C 0.31003 0.26266 0.4007 0.0
C1920 C 0.37544 0.58627 0.51447 0.0
C1921 C 0.38284 0.62111 0.52283 0.0
C1922 C 0.39529 0.56902 0.50511 0.0
C1923 C 0.42322 0.58609 0.50436 0.0
H1924 H 0.35421 0.57216 0.51533 0.0
H1925 H 0.38902 0.54221 0.49945 0.0
S1926 S 0.45324 0.677 0.52275 0.0
N1927 N 0.41988 0.672 0.52838 0.0
N1928 N 0.45733 0.63934 0.51166 0.0
C1929 C 0.43082 0.62082 0.51204 0.0
C1930 C 0.41055 0.63843 0.52102 0.0
C1931 C 0.96152 1.0076 0.57274 0.0
C1932 C 0.95963 0.97359 0.56366 0.0
C1933 C 0.98593 0.03157 0.57032 0.0
C1934 C 1.00949 0.02276 0.55826 0.0
H1935 H 0.94407 1.01584 0.58205 0.0
H1936 H 0.98616 0.05738 0.57784 0.0
S1937 S 1.01444 0.93694 0.52928 0.0
N1938 N 0.983 0.93225 0.54089 0.0
N1939 N 0.02874 0.97727 0.53645 0.0
C1940 C 1.00772 0.98884 0.54875 0.0
C1941 C 0.98289 0.96434 0.55144 0.0
C1942 C 0.92988 0.22171 0.27286 0.0
C1943 C 0.91968 0.18824 0.27631 0.0
C1944 C 0.91354 0.24584 0.27548 0.0
C1945 C 0.88513 0.23902 0.28166 0.0
H1946 H 0.95128 0.22986 0.26789 0.0
H1947 H 0.92352 0.27036 0.27222 0.0
S1948 S 0.8468 0.15609 0.29396 0.0
N1949 N 0.87809 0.15065 0.28728 0.0
N1950 N 0.84779 0.19477 0.29184 0.0
C1951 C 0.87445 0.20569 0.28541 0.0
C1952 C 0.89132 0.18099 0.28289 0.0
C1953 C 0.72395 0.12583 0.09487 0.0
C1954 C 0.73881 0.11927 0.06855 0.0
C1955 C 0.69459 0.12079 0.08945 0.0
C1956 C 0.67906 0.10954 0.05748 0.0
H1957 H 0.73507 0.13547 0.11986 0.0
H1958 H 0.68397 0.12591 0.11049 0.0
S1959 S 0.70721 0.08644 0.98024 0.0
N1960 N 0.73522 0.09838 1.00937 0.0
N1961 N 0.68018 0.09078 0.99927 0.0
C1962 C 0.69344 0.10257 0.03094 0.0
C1963 C 0.72326 0.10677 0.03648 0.0
C1964 C 0.26507 0.50174 0.30825 0.0
C1965 C 0.25679 0.51135 0.27908 0.0
C1966 C 0.29016 0.49182 0.31281 0.0
C1967 C 0.30801 0.49197 0.28861 0.0
H1968 H 0.25211 0.502 0.32767 0.0
H1969 H 0.29544 0.48367 0.33526 0.0
S1970 S 0.29707 0.51821 0.20928 0.0
N1971 N 0.26891 0.52197 0.22631 0.0
N1972 N 0.31653 0.50443 0.23544 0.0
C1973 C 0.30017 0.50215 0.25962 0.0
C1974 C 0.27442 0.51158 0.2547 0.0
C1975 C 0.29619 0.47949 0.05868 0.0
C1976 C 0.29724 0.45529 0.03129 0.0
C1977 C 0.27372 0.49461 0.05935 0.0
C1978 C 0.25155 0.4864 0.03254 0.0
H1979 H 0.31267 0.48657 0.08 0.0
H1980 H 0.27383 0.51314 0.08094 0.0
S1981 S 0.24389 0.42456 0.95499 0.0
N1982 N 0.27382 0.42383 0.97658 0.0
N1983 N 0.23172 0.45231 0.97809 0.0
C1984 C 0.25232 0.4624 1.00498 0.0
C1985 C 0.27508 0.44682 1.00431 0.0
C1986 C 0.91835 0.94857 0.26233 0.0
C1987 C 0.9118 0.97993 0.26712 0.0
C1988 C 0.8991 0.91865 0.26539 0.0
C1989 C 0.87179 0.91787 0.2734 0.0
H1990 H 0.93886 0.94692 0.2561 0.0
H1991 H 0.90572 0.89588 0.26122 0.0
S1992 S 0.84352 0.99249 0.28981 0.0
N1993 N 0.87544 1.00736 0.28126 0.0
N1994 N 0.83971 0.9524 0.2868 0.0
C1995 C 0.86499 0.94904 0.27843 0.0
C1996 C 0.88465 0.97946 0.27538 0.0
C1997 C 0.77553 0.16277 0.75982 0.0
C1998 C 0.75607 0.15351 0.73034 0.0
C1999 C 0.79246 0.19522 0.77047 0.0
C2000 C 0.79075 0.21894 0.75154 0.0
H2001 H 0.77706 0.14515 0.77527 0.0
H2002 H 0.80708 0.20171 0.79342 0.0
S2003 S 0.74332 0.207 0.67249 0.0
N2004 N 0.73606 0.17046 0.6825 0.0
N2005 N 0.76823 0.23134 0.70217 0.0
C2006 C 0.77169 0.20986 0.72181 0.0
C2007 C 0.75422 0.17709 0.71127 0.0
loop_
_geom_bond_atom_site_label_1
_geom_bond_atom_site_label_2
_geom_bond_distance
_geom_bond_site_symmetry_2
_ccdc_geom_bond_type
C0 O1 1.160 . S
C0 O7 1.185 . S
O1 C0 1.160 . S
O2 Zn3 1.899 . S
O2 C10 1.284 . S
Zn3 O2 1.899 . S
Zn3 O4 2.032 . S
Zn3 O7 2.086 . S
Zn3 O12 1.977 . S
O4 Zn3 2.032 . S
O4 C8 1.278 . S
C5 O6 1.203 . S
C5 O12 1.267 . S
O6 C5 1.203 . S
O7 C0 1.185 . S
O7 Zn3 2.086 . S
C8 O4 1.278 . S
C8 O9 1.211 . S
O9 C8 1.211 . S
C10 O2 1.284 . S
C10 O11 1.273 . S
O11 C10 1.273 . S
O12 Zn3 1.977 . S
O12 C5 1.267 . S
C13 O14 1.160 . S
C13 O20 1.185 . S
O14 C13 1.160 . S
O15 Zn16 1.894 . S
O15 C23 1.284 . S
Zn16 O15 1.894 . S
Zn16 O17 2.047 . S
Zn16 O20 2.120 . S
Zn16 O25 1.946 1_655 S
O17 Zn16 2.047 . S
O17 C21 1.278 1_655 S
C18 O19 1.203 . S
C18 O25 1.267 . S
O19 C18 1.203 . S
O20 C13 1.185 . S
O20 Zn16 2.120 . S
C21 O17 1.278 1_455 S
C21 O22 1.211 . S
O22 C21 1.211 . S
C23 O15 1.284 . S
C23 O24 1.273 1_655 S
O24 C23 1.273 1_455 S
O25 Zn16 1.946 1_455 S
O25 C18 1.267 . S
C26 O27 1.160 . S
C26 O33 1.185 . S
O27 C26 1.160 . S
O28 Zn29 1.899 . S
O28 C36 1.284 . S
Zn29 O28 1.899 . S
Zn29 O30 2.032 . S
Zn29 O33 2.086 . S
Zn29 O38 1.977 . S
O30 Zn29 2.032 . S
O30 C34 1.278 . S
C31 O32 1.203 . S
C31 O38 1.267 . S
O32 C31 1.203 . S
O33 C26 1.185 . S
O33 Zn29 2.086 . S
C34 O30 1.278 . S
C34 O35 1.211 . S
O35 C34 1.211 . S
C36 O28 1.284 . S
C36 O37 1.273 . S
O37 C36 1.273 . S
O38 Zn29 1.977 . S
O38 C31 1.267 . S
C39 O40 1.160 . S
C39 O46 1.185 . S
O40 C39 1.160 . S
O41 Zn42 1.899 . S
O41 C49 1.284 . S
Zn42 O41 1.899 . S
Zn42 O43 2.032 . S
Zn42 O46 2.086 . S
Zn42 O51 1.977 . S
O43 Zn42 2.032 . S
O43 C47 1.278 . S
C44 O45 1.203 . S
C44 O51 1.267 . S
O45 C44 1.203 . S
O46 C39 1.185 . S
O46 Zn42 2.086 . S
C47 O43 1.278 . S
C47 O48 1.211 . S
O48 C47 1.211 . S
C49 O41 1.284 . S
C49 O50 1.273 . S
O50 C49 1.273 . S
O51 Zn42 1.977 . S
O51 C44 1.267 . S
C52 O53 1.160 . S
C52 O59 1.185 . S
O53 C52 1.160 . S
O54 Zn55 1.899 . S
O54 C62 1.284 . S
Zn55 O54 1.899 . S
Zn55 O56 2.032 . S
Zn55 O59 2.086 . S
Zn55 O64 1.977 . S
O56 Zn55 2.032 . S
O56 C60 1.278 . S
C57 O58 1.203 . S
C57 O64 1.267 . S
O58 C57 1.203 . S
O59 C52 1.185 . S
O59 Zn55 2.086 . S
C60 O56 1.278 . S
C60 O61 1.211 . S
O61 C60 1.211 . S
C62 O54 1.284 . S
C62 O63 1.273 . S
O63 C62 1.273 . S
O64 Zn55 1.977 . S
O64 C57 1.267 . S
C65 O66 1.160 . S
C65 O72 1.185 . S
O66 C65 1.160 . S
O67 Zn68 1.899 . S
O67 C75 1.284 . S
Zn68 O67 1.899 . S
Zn68 O69 2.032 . S
Zn68 O72 2.086 . S
Zn68 O77 1.977 . S
O69 Zn68 2.032 . S
O69 C73 1.278 . S
C70 O71 1.203 . S
C70 O77 1.267 . S
O71 C70 1.203 . S
O72 C65 1.185 . S
O72 Zn68 2.086 . S
C73 O69 1.278 . S
C73 O74 1.211 . S
O74 C73 1.211 . S
C75 O67 1.284 . S
C75 O76 1.273 . S
O76 C75 1.273 . S
O77 Zn68 1.977 . S
O77 C70 1.267 . S
C78 O79 1.160 . S
C78 O85 1.185 . S
O79 C78 1.160 . S
O80 Zn81 1.899 . S
O80 C88 1.284 . S
Zn81 O80 1.899 . S
Zn81 O82 2.032 . S
Zn81 O85 2.086 . S
Zn81 O90 1.977 . S
O82 Zn81 2.032 . S
O82 C86 1.278 . S
C83 O84 1.203 . S
C83 O90 1.267 . S
O84 C83 1.203 . S
O85 C78 1.185 . S
O85 Zn81 2.086 . S
C86 O82 1.278 . S
C86 O87 1.211 . S
O87 C86 1.211 . S
C88 O80 1.284 . S
C88 O89 1.273 . S
O89 C88 1.273 . S
O90 Zn81 1.977 . S
O90 C83 1.267 . S
C91 O92 1.160 . S
C91 O98 1.185 . S
O92 C91 1.160 . S
O93 Zn94 1.899 . S
O93 C101 1.284 . S
Zn94 O93 1.899 . S
Zn94 O95 2.032 . S
Zn94 O98 2.086 . S
Zn94 O103 1.977 1_455 S
O95 Zn94 2.032 . S
O95 C99 1.278 . S
C96 O97 1.203 . S
C96 O103 1.267 . S
O97 C96 1.203 . S
O98 C91 1.185 . S
O98 Zn94 2.086 . S
C99 O95 1.278 . S
C99 O100 1.211 . S
O100 C99 1.211 . S
C101 O93 1.284 . S
C101 O102 1.273 . S
O102 C101 1.273 . S
O103 Zn94 1.977 1_655 S
O103 C96 1.267 . S
C104 O105 1.160 . S
C104 O111 1.185 . S
O105 C104 1.160 . S
O106 Zn107 1.899 . S
O106 C114 1.283 1_545 S
Zn107 O106 1.899 . S
Zn107 O108 2.032 . S
Zn107 O111 2.086 . S
Zn107 O116 1.977 1_545 S
O108 Zn107 2.032 . S
O108 C112 1.278 . S
C109 O110 1.203 . S
C109 O116 1.267 . S
O110 C109 1.203 . S
O111 C104 1.185 . S
O111 Zn107 2.086 . S
C112 O108 1.278 . S
C112 O113 1.211 1_545 S
O113 C112 1.211 1_565 S
C114 O106 1.283 1_565 S
C114 O115 1.273 . S
O115 C114 1.273 . S
O116 Zn107 1.977 1_565 S
O116 C109 1.267 . S
C117 O118 1.160 . S
C117 O124 1.185 . S
O118 C117 1.160 . S
O119 Zn120 1.899 . S
O119 C127 1.284 . S
Zn120 O119 1.899 . S
Zn120 O121 2.032 . S
Zn120 O124 2.086 . S
Zn120 O129 1.977 . S
O121 Zn120 2.032 . S
O121 C125 1.278 . S
C122 O123 1.203 . S
C122 O129 1.267 . S
O123 C122 1.203 . S
O124 C117 1.185 . S
O124 Zn120 2.086 . S
C125 O121 1.278 . S
C125 O126 1.211 . S
O126 C125 1.211 . S
C127 O119 1.284 . S
C127 O128 1.273 . S
O128 C127 1.273 . S
O129 Zn120 1.977 . S
O129 C122 1.267 . S
C130 O131 1.160 . S
C130 O137 1.185 . S
O131 C130 1.160 . S
O132 Zn133 1.899 . S
O132 C140 1.284 . S
Zn133 O132 1.899 . S
Zn133 O134 2.032 . S
Zn133 O137 2.086 1_545 S
Zn133 O142 1.977 . S
O134 Zn133 2.032 . S
O134 C138 1.278 . S
C135 O136 1.203 . S
C135 O142 1.267 . S
O136 C135 1.203 . S
O137 C130 1.185 . S
O137 Zn133 2.086 1_565 S
C138 O134 1.278 . S
C138 O139 1.211 . S
O139 C138 1.211 . S
C140 O132 1.284 . S
C140 O141 1.273 . S
O141 C140 1.273 . S
O142 Zn133 1.977 . S
O142 C135 1.267 . S
C143 O144 1.160 . S
C143 O150 1.185 . S
O144 C143 1.160 . S
O145 Zn146 1.899 . S
O145 C153 1.284 . S
Zn146 O145 1.899 . S
Zn146 O147 2.032 1_554 S
Zn146 O150 2.086 . S
Zn146 O155 1.977 . S
O147 Zn146 2.032 1_556 S
O147 C151 1.278 . S
C148 O149 1.203 . S
C148 O155 1.267 . S
O149 C148 1.203 . S
O150 C143 1.185 . S
O150 Zn146 2.086 . S
C151 O147 1.278 . S
C151 O152 1.211 . S
O152 C151 1.211 . S
C153 O145 1.284 . S
C153 O154 1.273 . S
O154 C153 1.273 . S
O155 Zn146 1.977 . S
O155 C148 1.267 . S
C156 O157 1.160 . S
C156 O163 1.185 . S
O157 C156 1.160 . S
O158 Zn159 1.899 . S
O158 C166 1.284 . S
Zn159 O158 1.899 . S
Zn159 O160 2.032 1_554 S
Zn159 O163 2.086 . S
Zn159 O168 1.977 . S
O160 Zn159 2.032 1_556 S
O160 C164 1.278 . S
C161 O162 1.203 . S
C161 O168 1.267 . S
O162 C161 1.203 . S
O163 C156 1.185 . S
O163 Zn159 2.086 . S
C164 O160 1.278 . S
C164 O165 1.211 . S
O165 C164 1.211 . S
C166 O158 1.284 . S
C166 O167 1.273 . S
O167 C166 1.273 . S
O168 Zn159 1.977 . S
O168 C161 1.267 . S
C169 O170 1.160 . S
C169 O176 1.185 . S
O170 C169 1.160 . S
O171 Zn172 1.899 . S
O171 C179 1.284 . S
Zn172 O171 1.899 . S
Zn172 O173 2.005 1_554 S
Zn172 O176 2.086 . S
Zn172 O181 1.977 . S
O173 Zn172 2.005 1_556 S
O173 C177 1.294 . S
C174 O175 1.203 . S
C174 O181 1.267 . S
O175 C174 1.203 . S
O176 C169 1.185 . S
O176 Zn172 2.086 . S
C177 O173 1.294 . S
C177 O178 1.211 . S
O178 C177 1.211 . S
C179 O171 1.284 . S
C179 O180 1.273 . S
O180 C179 1.273 . S
O181 Zn172 1.977 . S
O181 C174 1.267 . S
C182 O183 1.160 . S
C182 O189 1.185 . S
O183 C182 1.160 . S
O184 Zn185 1.899 . S
O184 C192 1.284 . S
Zn185 O184 1.899 . S
Zn185 O186 2.032 . S
Zn185 O189 2.086 . S
Zn185 O194 1.977 . S
O186 Zn185 2.032 . S
O186 C190 1.278 . S
C187 O188 1.203 . S
C187 O194 1.267 . S
O188 C187 1.203 . S
O189 C182 1.185 . S
O189 Zn185 2.086 . S
C190 O186 1.278 . S
C190 O191 1.211 . S
O191 C190 1.211 . S
C192 O184 1.284 . S
C192 O193 1.273 . S
O193 C192 1.273 . S
O194 Zn185 1.977 . S
O194 C187 1.267 . S
C195 O196 1.160 . S
C195 O202 1.185 . S
O196 C195 1.160 . S
O197 Zn198 1.899 . S
O197 C205 1.284 . S
Zn198 O197 1.899 . S
Zn198 O199 2.032 . S
Zn198 O202 2.086 . S
Zn198 O207 1.977 . S
O199 Zn198 2.032 . S
O199 C203 1.278 . S
C200 O201 1.203 . S
C200 O207 1.267 . S
O201 C200 1.203 . S
O202 C195 1.185 . S
O202 Zn198 2.086 . S
C203 O199 1.278 . S
C203 O204 1.211 . S
O204 C203 1.211 . S
C205 O197 1.284 . S
C205 O206 1.273 . S
O206 C205 1.273 . S
O207 Zn198 1.977 . S
O207 C200 1.267 . S
C208 O209 1.160 . S
C208 O215 1.185 . S
O209 C208 1.160 . S
O210 Zn211 1.899 . S
O210 C218 1.284 . S
Zn211 O210 1.899 . S
Zn211 O212 2.032 . S
Zn211 O215 2.086 . S
Zn211 O220 1.977 . S
O212 Zn211 2.032 . S
O212 C216 1.278 . S
C213 O214 1.203 . S
C213 O220 1.267 . S
O214 C213 1.203 . S
O215 C208 1.185 . S
O215 Zn211 2.086 . S
C216 O212 1.278 . S
C216 O217 1.211 . S
O217 C216 1.211 . S
C218 O210 1.284 . S
C218 O219 1.273 1_655 S
O219 C218 1.273 1_455 S
O220 Zn211 1.977 . S
O220 C213 1.267 . S
C221 O222 1.160 . S
C221 O228 1.185 . S
O222 C221 1.160 . S
O223 Zn224 1.899 . S
O223 C231 1.284 . S
Zn224 O223 1.899 . S
Zn224 O225 2.032 . S
Zn224 O228 2.086 . S
Zn224 O233 1.977 . S
O225 Zn224 2.032 . S
O225 C229 1.278 . S
C226 O227 1.203 . S
C226 O233 1.267 . S
O227 C226 1.203 . S
O228 C221 1.185 . S
O228 Zn224 2.086 . S
C229 O225 1.278 . S
C229 O230 1.211 . S
O230 C229 1.211 . S
C231 O223 1.284 . S
C231 O232 1.273 . S
O232 C231 1.273 . S
O233 Zn224 1.977 . S
O233 C226 1.267 . S
C234 O235 1.160 . S
C234 O241 1.185 . S
O235 C234 1.160 . S
O236 Zn237 1.899 . S
O236 C244 1.284 . S
Zn237 O236 1.899 . S
Zn237 O238 2.032 . S
Zn237 O241 2.086 . S
Zn237 O246 1.977 . S
O238 Zn237 2.032 . S
O238 C242 1.278 . S
C239 O240 1.203 . S
C239 O246 1.267 . S
O240 C239 1.203 . S
O241 C234 1.185 . S
O241 Zn237 2.086 . S
C242 O238 1.278 . S
C242 O243 1.211 . S
O243 C242 1.211 . S
C244 O236 1.284 . S
C244 O245 1.273 . S
O245 C244 1.273 . S
O246 Zn237 1.977 . S
O246 C239 1.267 . S
C247 O248 1.160 . S
C247 O254 1.185 . S
O248 C247 1.160 . S
O249 Zn250 1.899 . S
O249 C257 1.284 . S
Zn250 O249 1.899 . S
Zn250 O251 2.032 . S
Zn250 O254 2.086 . S
Zn250 O259 1.977 . S
O251 Zn250 2.032 . S
O251 C255 1.278 . S
C252 O253 1.203 . S
C252 O259 1.267 . S
O253 C252 1.203 . S
O254 C247 1.185 . S
O254 Zn250 2.086 . S
C255 O251 1.278 . S
C255 O256 1.211 . S
O256 C255 1.211 . S
C257 O249 1.284 . S
C257 O258 1.273 . S
O258 C257 1.273 . S
O259 Zn250 1.977 . S
O259 C252 1.267 . S
C260 O261 1.160 . S
C260 O267 1.185 1_554 S
O261 C260 1.160 . S
O262 Zn263 1.899 . S
O262 C270 1.284 . S
Zn263 O262 1.899 . S
Zn263 O264 2.032 1_554 S
Zn263 O267 2.086 1_554 S
Zn263 O272 1.977 1_554 S
O264 Zn263 2.032 1_556 S
O264 C268 1.278 . S
C265 O266 1.203 . S
C265 O272 1.267 1_554 S
O266 C265 1.203 . S
O267 C260 1.185 1_556 S
O267 Zn263 2.086 1_556 S
C268 O264 1.278 . S
C268 O269 1.211 . S
O269 C268 1.211 . S
C270 O262 1.284 . S
C270 O271 1.273 . S
O271 C270 1.273 . S
O272 Zn263 1.977 1_556 S
O272 C265 1.267 1_556 S
C273 O274 1.160 . S
C273 O280 1.185 . S
O274 C273 1.160 . S
O275 Zn276 1.899 . S
O275 C283 1.284 . S
Zn276 O275 1.899 . S
Zn276 O277 2.032 . S
Zn276 O280 2.086 . S
Zn276 O285 1.977 . S
O277 Zn276 2.032 . S
O277 C281 1.278 . S
C278 O279 1.203 . S
C278 O285 1.267 . S
O279 C278 1.203 . S
O280 C273 1.185 . S
O280 Zn276 2.086 . S
C281 O277 1.278 . S
C281 O282 1.211 . S
O282 C281 1.211 . S
C283 O275 1.284 . S
C283 O284 1.273 . S
O284 C283 1.273 . S
O285 Zn276 1.977 . S
O285 C278 1.267 . S
C286 O287 1.160 . S
C286 O293 1.185 . S
O287 C286 1.160 . S
O288 Zn289 1.899 . S
O288 C296 1.284 . S
Zn289 O288 1.899 . S
Zn289 O290 2.032 . S
Zn289 O293 2.086 . S
Zn289 O298 1.977 . S
O290 Zn289 2.032 . S
O290 C294 1.278 . S
C291 O292 1.203 . S
C291 O298 1.267 . S
O292 C291 1.203 . S
O293 C286 1.185 . S
O293 Zn289 2.086 . S
C294 O290 1.278 . S
C294 O295 1.211 . S
O295 C294 1.211 . S
C296 O288 1.284 . S
C296 O297 1.273 . S
O297 C296 1.273 . S
O298 Zn289 1.977 . S
O298 C291 1.267 . S
C299 O300 1.160 . S
C299 O306 1.185 . S
O300 C299 1.160 . S
O301 Zn302 1.899 . S
O301 C309 1.284 . S
Zn302 O301 1.899 . S
Zn302 O303 2.032 . S
Zn302 O306 2.086 . S
Zn302 O311 1.977 . S
O303 Zn302 2.032 . S
O303 C307 1.278 . S
C304 O305 1.203 . S
C304 O311 1.267 . S
O305 C304 1.203 . S
O306 C299 1.185 . S
O306 Zn302 2.086 . S
C307 O303 1.278 . S
C307 O308 1.211 . S
O308 C307 1.211 . S
C309 O301 1.284 . S
C309 O310 1.273 . S
O310 C309 1.273 . S
O311 Zn302 1.977 . S
O311 C304 1.267 . S
Sm312 C314 2.846 1_455 S
Sm312 O332 2.543 1_456 S
Sm312 O333 2.450 1_455 S
Sm312 O334 2.681 . S
Sm312 O335 2.464 . S
Sm312 O336 2.396 . S
Sm312 O340 2.386 1_556 S
Sm312 O343 2.408 1_546 S
Sm313 C323 2.846 . S
Sm313 O334 2.386 1_554 S
Sm313 O337 2.408 . S
Sm313 O338 2.543 . S
Sm313 O339 2.450 . S
Sm313 O340 2.681 . S
Sm313 O341 2.464 . S
Sm313 O342 2.396 . S
C314 Sm312 2.846 1_655 S
C314 C315 1.506 . S
C314 O332 1.261 1_556 S
C314 O333 1.242 . S
C315 C314 1.506 . S
C315 C316 1.358 . S
C315 C320 1.382 . S
C316 C315 1.358 . S
C316 C317 1.385 . S
C316 H344 0.930 1_556 S
C317 C316 1.385 . S
C317 C318 1.395 . S
C317 H345 0.929 1_556 S
C318 C317 1.395 . S
C318 C319 1.335 . S
C319 C318 1.335 . S
C319 C320 1.398 . S
C319 H346 0.930 . S
C320 C315 1.382 . S
C320 C319 1.398 . S
C320 H347 0.929 . S
C321 O334 1.271 . S
C321 O335 1.251 . S
C322 O336 1.252 1_554 S
C322 O337 1.272 . S
C323 Sm313 2.846 . S
C323 C324 1.506 . S
C323 O338 1.261 . S
C323 O339 1.242 . S
C324 C323 1.506 . S
C324 C325 1.358 . S
C324 C329 1.382 . S
C325 C324 1.358 . S
C325 C326 1.385 . S
C325 H348 0.930 . S
C326 C325 1.385 . S
C326 C327 1.395 . S
C326 H349 0.929 1_545 S
C327 C326 1.395 . S
C327 C328 1.335 . S
C328 C327 1.335 . S
C328 C329 1.398 . S
C328 H350 0.930 . S
C329 C324 1.382 . S
C329 C328 1.398 . S
C329 H351 0.929 . S
C330 O340 1.271 . S
C330 O341 1.251 . S
C331 O342 1.252 1_565 S
C331 O343 1.272 . S
O332 Sm312 2.543 1_654 S
O332 C314 1.261 1_554 S
O333 Sm312 2.450 1_655 S
O333 C314 1.242 . S
O334 Sm312 2.681 . S
O334 Sm313 2.386 1_556 S
O334 C321 1.271 . S
O335 Sm312 2.464 . S
O335 C321 1.251 . S
O336 Sm312 2.396 . S
O336 C322 1.252 1_556 S
O337 Sm313 2.408 . S
O337 C322 1.272 . S
O338 Sm313 2.543 . S
O338 C323 1.261 . S
O339 Sm313 2.450 . S
O339 C323 1.242 . S
O340 Sm312 2.386 1_554 S
O340 Sm313 2.681 . S
O340 C330 1.271 . S
O341 Sm313 2.464 . S
O341 C330 1.251 . S
O342 Sm313 2.396 . S
O342 C331 1.252 1_545 S
O343 Sm312 2.408 1_564 S
O343 C331 1.272 . S
H344 C316 0.930 1_554 S
H345 C317 0.929 1_554 S
H346 C319 0.930 . S
H347 C320 0.929 . S
H348 C325 0.930 . S
H349 C326 0.929 1_565 S
H350 C328 0.930 . S
H351 C329 0.929 . S
Sm352 C354 2.846 . S
Sm352 O372 2.543 . S
Sm352 O373 2.450 . S
Sm352 O374 2.681 . S
Sm352 O375 2.464 . S
Sm352 O376 2.396 . S
Sm352 O380 2.386 . S
Sm352 O383 2.408 . S
Sm353 C363 2.846 . S
Sm353 O374 2.386 . S
Sm353 O377 2.408 . S
Sm353 O378 2.543 . S
Sm353 O379 2.450 . S
Sm353 O380 2.681 . S
Sm353 O381 2.464 . S
Sm353 O382 2.396 . S
C354 Sm352 2.846 . S
C354 C355 1.506 . S
C354 O372 1.261 . S
C354 O373 1.242 . S
C355 C354 1.506 . S
C355 C356 1.358 . S
C355 C360 1.382 . S
C356 C355 1.358 . S
C356 C357 1.385 . S
C356 H384 0.930 . S
C357 C356 1.385 . S
C357 C358 1.395 . S
C357 H385 0.929 . S
C358 C357 1.395 . S
C358 C359 1.335 . S
C359 C358 1.335 . S
C359 C360 1.398 . S
C359 H386 0.930 . S
C360 C355 1.382 . S
C360 C359 1.398 . S
C360 H387 0.929 . S
C361 O374 1.271 . S
C361 O375 1.251 . S
C362 O376 1.252 . S
C362 O377 1.272 . S
C363 Sm353 2.846 . S
C363 C364 1.506 . S
C363 O378 1.261 . S
C363 O379 1.242 . S
C364 C363 1.506 . S
C364 C365 1.358 . S
C364 C369 1.382 . S
C365 C364 1.358 . S
C365 C366 1.385 . S
C365 H388 0.930 . S
C366 C365 1.385 . S
C366 C367 1.395 . S
C366 H389 0.929 . S
C367 C366 1.395 . S
C367 C368 1.335 . S
C368 C367 1.335 . S
C368 C369 1.398 . S
C368 H390 0.930 . S
C369 C364 1.382 . S
C369 C368 1.398 . S
C369 H391 0.929 . S
C370 O380 1.271 . S
C370 O381 1.251 . S
C371 O382 1.252 . S
C371 O383 1.272 . S
O372 Sm352 2.543 . S
O372 C354 1.261 . S
O373 Sm352 2.450 . S
O373 C354 1.242 . S
O374 Sm352 2.681 . S
O374 Sm353 2.386 . S
O374 C361 1.271 . S
O375 Sm352 2.464 . S
O375 C361 1.251 . S
O376 Sm352 2.396 . S
O376 C362 1.252 . S
O377 Sm353 2.408 . S
O377 C362 1.272 . S
O378 Sm353 2.543 . S
O378 C363 1.261 . S
O379 Sm353 2.450 . S
O379 C363 1.242 . S
O380 Sm352 2.386 . S
O380 Sm353 2.681 . S
O380 C370 1.271 . S
O381 Sm353 2.464 . S
O381 C370 1.251 . S
O382 Sm353 2.396 . S
O382 C371 1.252 . S
O383 Sm352 2.408 . S
O383 C371 1.272 . S
H384 C356 0.930 . S
H385 C357 0.929 . S
H386 C359 0.930 . S
H387 C360 0.929 . S
H388 C365 0.930 . S
H389 C366 0.929 . S
H390 C368 0.930 . S
H391 C369 0.929 . S
Sm392 C394 2.846 . S
Sm392 O412 2.543 . S
Sm392 O413 2.450 . S
Sm392 O414 2.681 . S
Sm392 O415 2.464 . S
Sm392 O416 2.418 . S
Sm392 O420 2.386 . S
Sm392 O423 2.408 . S
Sm393 C403 2.846 . S
Sm393 O414 2.386 . S
Sm393 O417 2.408 1_545 S
Sm393 O418 2.543 . S
Sm393 O419 2.450 . S
Sm393 O420 2.681 . S
Sm393 O421 2.464 . S
Sm393 O422 2.396 . S
C394 Sm392 2.846 . S
C394 C395 1.506 1_545 S
C394 O412 1.261 . S
C394 O413 1.242 . S
C395 C394 1.506 1_565 S
C395 C396 1.358 . S
C395 C400 1.382 . S
C396 C395 1.358 . S
C396 C397 1.385 . S
C396 H424 0.930 . S
C397 C396 1.385 . S
C397 C398 1.395 . S
C397 H425 0.929 . S
C398 C397 1.395 . S
C398 C399 1.335 . S
C399 C398 1.335 . S
C399 C400 1.398 . S
C399 H426 0.930 . S
C400 C395 1.382 . S
C400 C399 1.398 . S
C400 H427 0.929 1_565 S
C401 O414 1.271 . S
C401 O415 1.251 . S
C402 O416 1.239 1_565 S
C402 O417 1.272 . S
C403 Sm393 2.846 . S
C403 C404 1.506 . S
C403 O418 1.261 . S
C403 O419 1.242 . S
C404 C403 1.506 . S
C404 C405 1.358 . S
C404 C409 1.382 . S
C405 C404 1.358 . S
C405 C406 1.385 . S
C405 H428 0.930 . S
C406 C405 1.385 . S
C406 C407 1.395 . S
C406 H429 0.929 . S
C407 C406 1.395 . S
C407 C408 1.335 . S
C408 C407 1.335 . S
C408 C409 1.398 . S
C408 H430 0.930 . S
C409 C404 1.382 . S
C409 C408 1.398 . S
C409 H431 0.929 . S
C410 O420 1.271 . S
C410 O421 1.251 . S
C411 O422 1.252 . S
C411 O423 1.272 . S
O412 Sm392 2.543 . S
O412 C394 1.261 . S
O413 Sm392 2.450 . S
O413 C394 1.242 . S
O414 Sm392 2.681 . S
O414 Sm393 2.386 . S
O414 C401 1.271 . S
O415 Sm392 2.464 . S
O415 C401 1.251 . S
O416 Sm392 2.418 . S
O416 C402 1.239 1_545 S
O417 Sm393 2.408 1_565 S
O417 C402 1.272 . S
O418 Sm393 2.543 . S
O418 C403 1.261 . S
O419 Sm393 2.450 . S
O419 C403 1.242 . S
O420 Sm392 2.386 . S
O420 Sm393 2.681 . S
O420 C410 1.271 . S
O421 Sm393 2.464 . S
O421 C410 1.251 . S
O422 Sm393 2.396 . S
O422 C411 1.252 . S
O423 Sm392 2.408 . S
O423 C411 1.272 . S
H424 C396 0.930 . S
H425 C397 0.929 . S
H426 C399 0.930 . S
H427 C400 0.929 1_545 S
H428 C405 0.930 . S
H429 C406 0.929 . S
H430 C408 0.930 . S
H431 C409 0.929 . S
Sm432 C434 2.846 . S
Sm432 O452 2.543 . S
Sm432 O453 2.450 . S
Sm432 O454 2.681 . S
Sm432 O455 2.464 . S
Sm432 O456 2.396 . S
Sm432 O460 2.386 . S
Sm432 O463 2.408 . S
Sm433 C443 2.846 . S
Sm433 O454 2.386 . S
Sm433 O457 2.408 . S
Sm433 O458 2.543 . S
Sm433 O459 2.450 . S
Sm433 O460 2.681 . S
Sm433 O461 2.464 . S
Sm433 O462 2.396 . S
C434 Sm432 2.846 . S
C434 C435 1.506 . S
C434 O452 1.261 . S
C434 O453 1.242 . S
C435 C434 1.506 . S
C435 C436 1.358 . S
C435 C440 1.382 . S
C436 C435 1.358 . S
C436 C437 1.385 . S
C436 H464 0.930 . S
C437 C436 1.385 . S
C437 C438 1.395 . S
C437 H465 0.929 . S
C438 C437 1.395 . S
C438 C439 1.335 . S
C439 C438 1.335 . S
C439 C440 1.398 . S
C439 H466 0.930 . S
C440 C435 1.382 . S
C440 C439 1.398 . S
C440 H467 0.929 . S
C441 O454 1.271 . S
C441 O455 1.251 . S
C442 O456 1.252 . S
C442 O457 1.272 . S
C443 Sm433 2.846 . S
C443 C444 1.506 . S
C443 O458 1.261 . S
C443 O459 1.242 . S
C444 C443 1.506 . S
C444 C445 1.358 . S
C444 C449 1.382 . S
C445 C444 1.358 . S
C445 C446 1.385 . S
C445 H468 0.930 . S
C446 C445 1.385 . S
C446 C447 1.395 . S
C446 H469 0.929 . S
C447 C446 1.395 . S
C447 C448 1.335 . S
C448 C447 1.335 . S
C448 C449 1.398 . S
C448 H470 0.930 . S
C449 C444 1.382 . S
C449 C448 1.398 . S
C449 H471 0.929 . S
C450 O460 1.271 . S
C450 O461 1.251 . S
C451 O462 1.252 . S
C451 O463 1.272 . S
O452 Sm432 2.543 . S
O452 C434 1.261 . S
O453 Sm432 2.450 . S
O453 C434 1.242 . S
O454 Sm432 2.681 . S
O454 Sm433 2.386 . S
O454 C441 1.271 . S
O455 Sm432 2.464 . S
O455 C441 1.251 . S
O456 Sm432 2.396 . S
O456 C442 1.252 . S
O457 Sm433 2.408 . S
O457 C442 1.272 . S
O458 Sm433 2.543 . S
O458 C443 1.261 . S
O459 Sm433 2.450 . S
O459 C443 1.242 . S
O460 Sm432 2.386 . S
O460 Sm433 2.681 . S
O460 C450 1.271 . S
O461 Sm433 2.464 . S
O461 C450 1.251 . S
O462 Sm433 2.396 . S
O462 C451 1.252 . S
O463 Sm432 2.408 . S
O463 C451 1.272 . S
H464 C436 0.930 . S
H465 C437 0.929 . S
H466 C439 0.930 . S
H467 C440 0.929 . S
H468 C445 0.930 . S
H469 C446 0.929 . S
H470 C448 0.930 . S
H471 C449 0.929 . S
Sm472 C474 2.846 . S
Sm472 O492 2.543 . S
Sm472 O493 2.450 . S
Sm472 O494 2.681 . S
Sm472 O495 2.464 . S
Sm472 O496 2.396 . S
Sm472 O500 2.386 . S
Sm472 O503 2.408 . S
Sm473 C483 2.846 1_545 S
Sm473 O494 2.386 . S
Sm473 O497 2.408 . S
Sm473 O498 2.543 1_545 S
Sm473 O499 2.450 1_545 S
Sm473 O500 2.681 . S
Sm473 O501 2.464 . S
Sm473 O502 2.396 . S
C474 Sm472 2.846 . S
C474 C475 1.506 . S
C474 O492 1.261 . S
C474 O493 1.242 . S
C475 C474 1.506 . S
C475 C476 1.358 . S
C475 C480 1.382 . S
C476 C475 1.358 . S
C476 C477 1.385 . S
C476 H504 0.930 . S
C477 C476 1.385 . S
C477 C478 1.395 . S
C477 H505 0.929 . S
C478 C477 1.395 . S
C478 C479 1.335 . S
C479 C478 1.335 . S
C479 C480 1.398 . S
C479 H506 0.930 . S
C480 C475 1.382 . S
C480 C479 1.398 . S
C480 H507 0.929 . S
C481 O494 1.271 . S
C481 O495 1.251 . S
C482 O496 1.252 . S
C482 O497 1.272 . S
C483 Sm473 2.846 1_565 S
C483 C484 1.506 . S
C483 O498 1.261 . S
C483 O499 1.242 . S
C484 C483 1.506 . S
C484 C485 1.358 . S
C484 C489 1.382 . S
C485 C484 1.358 . S
C485 C486 1.385 . S
C485 H508 0.930 . S
C486 C485 1.385 . S
C486 C487 1.395 . S
C486 H509 0.929 . S
C487 C486 1.395 . S
C487 C488 1.335 . S
C488 C487 1.335 . S
C488 C489 1.398 . S
C488 H510 0.930 . S
C489 C484 1.382 . S
C489 C488 1.398 . S
C489 H511 0.929 . S
C490 O500 1.271 . S
C490 O501 1.251 . S
C491 O502 1.252 . S
C491 O503 1.272 . S
O492 Sm472 2.543 . S
O492 C474 1.261 . S
O493 Sm472 2.450 . S
O493 C474 1.242 . S
O494 Sm472 2.681 . S
O494 Sm473 2.386 . S
O494 C481 1.271 . S
O495 Sm472 2.464 . S
O495 C481 1.251 . S
O496 Sm472 2.396 . S
O496 C482 1.252 . S
O497 Sm473 2.408 . S
O497 C482 1.272 . S
O498 Sm473 2.543 1_565 S
O498 C483 1.261 . S
O499 Sm473 2.450 1_565 S
O499 C483 1.242 . S
O500 Sm472 2.386 . S
O500 Sm473 2.681 . S
O500 C490 1.271 . S
O501 Sm473 2.464 . S
O501 C490 1.251 . S
O502 Sm473 2.396 . S
O502 C491 1.252 . S
O503 Sm472 2.408 . S
O503 C491 1.272 . S
H504 C476 0.930 . S
H505 C477 0.929 . S
H506 C479 0.930 . S
H507 C480 0.929 . S
H508 C485 0.930 . S
H509 C486 0.929 . S
H510 C488 0.930 . S
H511 C489 0.929 . S
Sm512 C514 2.846 . S
Sm512 O532 2.543 . S
Sm512 O533 2.450 . S
Sm512 O534 2.681 . S
Sm512 O535 2.464 . S
Sm512 O536 2.396 . S
Sm512 O540 2.386 . S
Sm512 O543 2.408 . S
Sm513 C523 2.846 . S
Sm513 O534 2.386 . S
Sm513 O537 2.408 . S
Sm513 O538 2.543 . S
Sm513 O539 2.450 . S
Sm513 O540 2.681 . S
Sm513 O541 2.464 . S
Sm513 O542 2.396 . S
C514 Sm512 2.846 . S
C514 C515 1.506 . S
C514 O532 1.261 . S
C514 O533 1.242 . S
C515 C514 1.506 . S
C515 C516 1.358 . S
C515 C520 1.382 . S
C516 C515 1.358 . S
C516 C517 1.385 . S
C516 H544 0.930 . S
C517 C516 1.385 . S
C517 C518 1.395 . S
C517 H545 0.929 . S
C518 C517 1.395 . S
C518 C519 1.335 . S
C519 C518 1.335 . S
C519 C520 1.398 . S
C519 H546 0.930 . S
C520 C515 1.382 . S
C520 C519 1.398 . S
C520 H547 0.929 . S
C521 O534 1.271 . S
C521 O535 1.251 . S
C522 O536 1.252 . S
C522 O537 1.272 . S
C523 Sm513 2.846 . S
C523 C524 1.506 . S
C523 O538 1.261 . S
C523 O539 1.242 . S
C524 C523 1.506 . S
C524 C525 1.358 . S
C524 C529 1.382 . S
C525 C524 1.358 . S
C525 C526 1.385 . S
C525 H548 0.930 . S
C526 C525 1.385 . S
C526 C527 1.395 . S
C526 H549 0.929 . S
C527 C526 1.395 . S
C527 C528 1.335 . S
C528 C527 1.335 . S
C528 C529 1.398 . S
C528 H550 0.930 . S
C529 C524 1.382 . S
C529 C528 1.398 . S
C529 H551 0.929 . S
C530 O540 1.271 . S
C530 O541 1.251 . S
C531 O542 1.252 . S
C531 O543 1.272 . S
O532 Sm512 2.543 . S
O532 C514 1.261 . S
O533 Sm512 2.450 . S
O533 C514 1.242 . S
O534 Sm512 2.681 . S
O534 Sm513 2.386 . S
O534 C521 1.271 . S
O535 Sm512 2.464 . S
O535 C521 1.251 . S
O536 Sm512 2.396 . S
O536 C522 1.252 . S
O537 Sm513 2.408 . S
O537 C522 1.272 . S
O538 Sm513 2.543 . S
O538 C523 1.261 . S
O539 Sm513 2.450 . S
O539 C523 1.242 . S
O540 Sm512 2.386 . S
O540 Sm513 2.681 . S
O540 C530 1.271 . S
O541 Sm513 2.464 . S
O541 C530 1.251 . S
O542 Sm513 2.396 . S
O542 C531 1.252 . S
O543 Sm512 2.408 . S
O543 C531 1.272 . S
H544 C516 0.930 . S
H545 C517 0.929 . S
H546 C519 0.930 . S
H547 C520 0.929 . S
H548 C525 0.930 . S
H549 C526 0.929 . S
H550 C528 0.930 . S
H551 C529 0.929 . S
Sm552 C554 2.846 . S
Sm552 O572 2.543 . S
Sm552 O573 2.450 1_545 S
Sm552 O574 2.681 1_554 S
Sm552 O575 2.464 1_545 S
Sm552 O576 2.396 . S
Sm552 O580 2.386 . S
Sm552 O583 2.408 . S
Sm553 C563 2.846 . S
Sm553 O574 2.386 . S
Sm553 O577 2.408 . S
Sm553 O578 2.543 . S
Sm553 O579 2.450 . S
Sm553 O580 2.681 1_556 S
Sm553 O581 2.464 1_556 S
Sm553 O582 2.396 1_556 S
C554 Sm552 2.846 . S
C554 C555 1.504 1_545 S
C554 O572 1.261 . S
C554 O573 1.242 1_545 S
C555 C554 1.504 1_565 S
C555 C556 1.355 1_565 S
C555 C560 1.387 . S
C556 C555 1.355 1_545 S
C556 C557 1.385 . S
C556 H584 0.930 . S
C557 C556 1.385 . S
C557 C558 1.395 1_545 S
C557 H585 0.929 . S
C558 C557 1.395 1_565 S
C558 C559 1.335 . S
C559 C558 1.335 . S
C559 C560 1.398 . S
C559 H586 0.930 . S
C560 C555 1.387 . S
C560 C559 1.398 . S
C560 H587 0.929 . S
C561 O574 1.267 1_564 S
C561 O575 1.265 . S
C562 O576 1.252 . S
C562 O577 1.272 1_554 S
C563 Sm553 2.846 . S
C563 C564 1.506 . S
C563 O578 1.261 . S
C563 O579 1.242 . S
C564 C563 1.506 . S
C564 C565 1.358 . S
C564 C569 1.382 . S
C565 C564 1.358 . S
C565 C566 1.385 . S
C565 H588 0.930 . S
C566 C565 1.385 . S
C566 C567 1.395 . S
C566 H589 0.929 . S
C567 C566 1.395 . S
C567 C568 1.335 . S
C568 C567 1.335 . S
C568 C569 1.398 . S
C568 H590 0.930 . S
C569 C564 1.382 . S
C569 C568 1.398 . S
C569 H591 0.929 . S
C570 O580 1.271 . S
C570 O581 1.251 . S
C571 O582 1.252 . S
C571 O583 1.272 . S
O572 Sm552 2.543 . S
O572 C554 1.261 . S
O573 Sm552 2.450 1_565 S
O573 C554 1.242 1_565 S
O574 Sm552 2.681 1_556 S
O574 Sm553 2.386 . S
O574 C561 1.267 1_546 S
O575 Sm552 2.464 1_565 S
O575 C561 1.265 . S
O576 Sm552 2.396 . S
O576 C562 1.252 . S
O577 Sm553 2.408 . S
O577 C562 1.272 1_556 S
O578 Sm553 2.543 . S
O578 C563 1.261 . S
O579 Sm553 2.450 . S
O579 C563 1.242 . S
O580 Sm552 2.386 . S
O580 Sm553 2.681 1_554 S
O580 C570 1.271 . S
O581 Sm553 2.464 1_554 S
O581 C570 1.251 . S
O582 Sm553 2.396 1_554 S
O582 C571 1.252 . S
O583 Sm552 2.408 . S
O583 C571 1.272 . S
H584 C556 0.930 . S
H585 C557 0.929 . S
H586 C559 0.930 . S
H587 C560 0.929 . S
H588 C565 0.930 . S
H589 C566 0.929 . S
H590 C568 0.930 . S
H591 C569 0.929 . S
Sm592 C594 2.846 . S
Sm592 O612 2.543 . S
Sm592 O613 2.450 . S
Sm592 O614 2.681 . S
Sm592 O615 2.464 . S
Sm592 O616 2.396 . S
Sm592 O620 2.386 . S
Sm592 O623 2.408 . S
Sm593 C603 2.846 . S
Sm593 O614 2.386 . S
Sm593 O617 2.408 . S
Sm593 O618 2.543 . S
Sm593 O619 2.450 . S
Sm593 O620 2.681 . S
Sm593 O621 2.464 . S
Sm593 O622 2.396 . S
C594 Sm592 2.846 . S
C594 C595 1.506 . S
C594 O612 1.261 . S
C594 O613 1.242 . S
C595 C594 1.506 . S
C595 C596 1.358 . S
C595 C600 1.382 . S
C596 C595 1.358 . S
C596 C597 1.385 . S
C596 H624 0.930 . S
C597 C596 1.385 . S
C597 C598 1.395 . S
C597 H625 0.929 . S
C598 C597 1.395 . S
C598 C599 1.335 . S
C599 C598 1.335 . S
C599 C600 1.398 . S
C599 H626 0.930 . S
C600 C595 1.382 . S
C600 C599 1.398 . S
C600 H627 0.929 . S
C601 O614 1.271 . S
C601 O615 1.251 . S
C602 O616 1.252 . S
C602 O617 1.272 . S
C603 Sm593 2.846 . S
C603 C604 1.506 . S
C603 O618 1.261 . S
C603 O619 1.242 . S
C604 C603 1.506 . S
C604 C605 1.358 . S
C604 C609 1.382 . S
C605 C604 1.358 . S
C605 C606 1.385 . S
C605 H628 0.930 . S
C606 C605 1.385 . S
C606 C607 1.395 . S
C606 H629 0.929 . S
C607 C606 1.395 . S
C607 C608 1.335 . S
C608 C607 1.335 . S
C608 C609 1.398 . S
C608 H630 0.930 . S
C609 C604 1.382 . S
C609 C608 1.398 . S
C609 H631 0.929 . S
C610 O620 1.271 . S
C610 O621 1.251 . S
C611 O622 1.252 . S
C611 O623 1.272 . S
O612 Sm592 2.543 . S
O612 C594 1.261 . S
O613 Sm592 2.450 . S
O613 C594 1.242 . S
O614 Sm592 2.681 . S
O614 Sm593 2.386 . S
O614 C601 1.271 . S
O615 Sm592 2.464 . S
O615 C601 1.251 . S
O616 Sm592 2.396 . S
O616 C602 1.252 . S
O617 Sm593 2.408 . S
O617 C602 1.272 . S
O618 Sm593 2.543 . S
O618 C603 1.261 . S
O619 Sm593 2.450 . S
O619 C603 1.242 . S
O620 Sm592 2.386 . S
O620 Sm593 2.681 . S
O620 C610 1.271 . S
O621 Sm593 2.464 . S
O621 C610 1.251 . S
O622 Sm593 2.396 . S
O622 C611 1.252 . S
O623 Sm592 2.408 . S
O623 C611 1.272 . S
H624 C596 0.930 . S
H625 C597 0.929 . S
H626 C599 0.930 . S
H627 C600 0.929 . S
H628 C605 0.930 . S
H629 C606 0.929 . S
H630 C608 0.930 . S
H631 C609 0.929 . S
Sm632 C634 2.846 . S
Sm632 O652 2.543 . S
Sm632 O653 2.450 . S
Sm632 O654 2.681 . S
Sm632 O655 2.464 . S
Sm632 O656 2.396 1_554 S
Sm632 O660 2.386 . S
Sm632 O663 2.408 . S
Sm633 C643 2.856 . S
Sm633 O654 2.393 . S
Sm633 O657 2.394 1_554 S
Sm633 O658 2.555 . S
Sm633 O659 2.455 . S
Sm633 O660 2.679 . S
Sm633 O661 2.459 . S
Sm633 O662 2.410 . S
C634 Sm632 2.846 . S
C634 C635 1.506 1_554 S
C634 O652 1.261 . S
C634 O653 1.242 . S
C635 C634 1.506 1_556 S
C635 C636 1.358 . S
C635 C640 1.382 . S
C636 C635 1.358 . S
C636 C637 1.385 . S
C636 H664 0.930 . S
C637 C636 1.385 . S
C637 C638 1.395 . S
C637 H665 0.929 . S
C638 C637 1.395 . S
C638 C639 1.335 . S
C639 C638 1.335 . S
C639 C640 1.398 . S
C639 H666 0.930 . S
C640 C635 1.382 . S
C640 C639 1.398 . S
C640 H667 0.929 1_556 S
C641 O654 1.271 . S
C641 O655 1.251 . S
C642 O656 1.252 . S
C642 O657 1.272 . S
C643 Sm633 2.856 . S
C643 C644 1.506 . S
C643 O658 1.261 . S
C643 O659 1.242 . S
C644 C643 1.506 . S
C644 C645 1.358 . S
C644 C649 1.382 . S
C645 C644 1.358 . S
C645 C646 1.385 . S
C645 H668 0.930 . S
C646 C645 1.385 . S
C646 C647 1.395 . S
C646 H669 0.929 . S
C647 C646 1.395 . S
C647 C648 1.335 . S
C648 C647 1.335 . S
C648 C649 1.398 . S
C648 H670 0.930 . S
C649 C644 1.382 . S
C649 C648 1.398 . S
C649 H671 0.929 . S
C650 O660 1.271 . S
C650 O661 1.251 . S
C651 O662 1.252 . S
C651 O663 1.272 . S
O652 Sm632 2.543 . S
O652 C634 1.261 . S
O653 Sm632 2.450 . S
O653 C634 1.242 . S
O654 Sm632 2.681 . S
O654 Sm633 2.393 . S
O654 C641 1.271 . S
O655 Sm632 2.464 . S
O655 C641 1.251 . S
O656 Sm632 2.396 1_556 S
O656 C642 1.252 . S
O657 Sm633 2.394 1_556 S
O657 C642 1.272 . S
O658 Sm633 2.555 . S
O658 C643 1.261 . S
O659 Sm633 2.455 . S
O659 C643 1.242 . S
O660 Sm632 2.386 . S
O660 Sm633 2.679 . S
O660 C650 1.271 . S
O661 Sm633 2.459 . S
O661 C650 1.251 . S
O662 Sm633 2.410 . S
O662 C651 1.252 . S
O663 Sm632 2.408 . S
O663 C651 1.272 . S
H664 C636 0.930 . S
H665 C637 0.929 . S
H666 C639 0.930 . S
H667 C640 0.929 1_554 S
H668 C645 0.930 . S
H669 C646 0.929 . S
H670 C648 0.930 . S
H671 C649 0.929 . S
Sm672 C674 2.846 . S
Sm672 O692 2.543 . S
Sm672 O693 2.450 . S
Sm672 O694 2.681 . S
Sm672 O695 2.464 . S
Sm672 O696 2.396 . S
Sm672 O700 2.386 . S
Sm672 O703 2.408 . S
Sm673 C683 2.846 . S
Sm673 O694 2.386 . S
Sm673 O697 2.408 . S
Sm673 O698 2.543 . S
Sm673 O699 2.450 . S
Sm673 O700 2.681 . S
Sm673 O701 2.464 . S
Sm673 O702 2.396 . S
C674 Sm672 2.846 . S
C674 C675 1.506 . S
C674 O692 1.261 . S
C674 O693 1.242 . S
C675 C674 1.506 . S
C675 C676 1.358 . S
C675 C680 1.382 . S
C676 C675 1.358 . S
C676 C677 1.385 . S
C676 H704 0.930 . S
C677 C676 1.385 . S
C677 C678 1.395 . S
C677 H705 0.929 . S
C678 C677 1.395 . S
C678 C679 1.335 . S
C679 C678 1.335 . S
C679 C680 1.398 . S
C679 H706 0.930 . S
C680 C675 1.382 . S
C680 C679 1.398 . S
C680 H707 0.929 . S
C681 O694 1.271 . S
C681 O695 1.251 . S
C682 O696 1.252 . S
C682 O697 1.272 . S
C683 Sm673 2.846 . S
C683 C684 1.506 . S
C683 O698 1.261 . S
C683 O699 1.242 . S
C684 C683 1.506 . S
C684 C685 1.358 . S
C684 C689 1.382 . S
C685 C684 1.358 . S
C685 C686 1.385 . S
C685 H708 0.930 . S
C686 C685 1.385 . S
C686 C687 1.395 . S
C686 H709 0.929 . S
C687 C686 1.395 . S
C687 C688 1.335 . S
C688 C687 1.335 . S
C688 C689 1.398 . S
C688 H710 0.930 . S
C689 C684 1.382 . S
C689 C688 1.398 . S
C689 H711 0.929 . S
C690 O700 1.271 . S
C690 O701 1.251 . S
C691 O702 1.252 . S
C691 O703 1.272 . S
O692 Sm672 2.543 . S
O692 C674 1.261 . S
O693 Sm672 2.450 . S
O693 C674 1.242 . S
O694 Sm672 2.681 . S
O694 Sm673 2.386 . S
O694 C681 1.271 . S
O695 Sm672 2.464 . S
O695 C681 1.251 . S
O696 Sm672 2.396 . S
O696 C682 1.252 . S
O697 Sm673 2.408 . S
O697 C682 1.272 . S
O698 Sm673 2.543 . S
O698 C683 1.261 . S
O699 Sm673 2.450 . S
O699 C683 1.242 . S
O700 Sm672 2.386 . S
O700 Sm673 2.681 . S
O700 C690 1.271 . S
O701 Sm673 2.464 . S
O701 C690 1.251 . S
O702 Sm673 2.396 . S
O702 C691 1.252 . S
O703 Sm672 2.408 . S
O703 C691 1.272 . S
H704 C676 0.930 . S
H705 C677 0.929 . S
H706 C679 0.930 . S
H707 C680 0.929 . S
H708 C685 0.930 . S
H709 C686 0.929 . S
H710 C688 0.930 . S
H711 C689 0.929 . S
Sm712 C714 2.846 . S
Sm712 O732 2.543 . S
Sm712 O733 2.450 . S
Sm712 O734 2.681 . S
Sm712 O735 2.464 . S
Sm712 O736 2.396 . S
Sm712 O740 2.386 . S
Sm712 O743 2.408 . S
Sm713 C723 2.846 . S
Sm713 O734 2.386 . S
Sm713 O737 2.408 . S
Sm713 O738 2.543 . S
Sm713 O739 2.450 . S
Sm713 O740 2.681 . S
Sm713 O741 2.464 . S
Sm713 O742 2.396 . S
C714 Sm712 2.846 . S
C714 C715 1.506 . S
C714 O732 1.261 . S
C714 O733 1.242 . S
C715 C714 1.506 . S
C715 C716 1.358 . S
C715 C720 1.382 . S
C716 C715 1.358 . S
C716 C717 1.385 1_455 S
C716 H744 0.930 . S
C717 C716 1.385 1_655 S
C717 C718 1.395 . S
C717 H745 0.929 . S
C718 C717 1.395 . S
C718 C719 1.335 1_655 S
C719 C718 1.335 1_455 S
C719 C720 1.398 . S
C719 H746 0.930 . S
C720 C715 1.382 . S
C720 C719 1.398 . S
C720 H747 0.929 . S
C721 O734 1.271 . S
C721 O735 1.251 . S
C722 O736 1.252 . S
C722 O737 1.272 . S
C723 Sm713 2.846 . S
C723 C724 1.506 . S
C723 O738 1.261 . S
C723 O739 1.242 . S
C724 C723 1.506 . S
C724 C725 1.358 . S
C724 C729 1.382 . S
C725 C724 1.358 . S
C725 C726 1.385 . S
C725 H748 0.930 . S
C726 C725 1.385 . S
C726 C727 1.395 . S
C726 H749 0.929 . S
C727 C726 1.395 . S
C727 C728 1.335 . S
C728 C727 1.335 . S
C728 C729 1.398 . S
C728 H750 0.930 . S
C729 C724 1.382 . S
C729 C728 1.398 . S
C729 H751 0.929 . S
C730 O740 1.271 . S
C730 O741 1.251 . S
C731 O742 1.252 . S
C731 O743 1.272 . S
O732 Sm712 2.543 . S
O732 C714 1.261 . S
O733 Sm712 2.450 . S
O733 C714 1.242 . S
O734 Sm712 2.681 . S
O734 Sm713 2.386 . S
O734 C721 1.271 . S
O735 Sm712 2.464 . S
O735 C721 1.251 . S
O736 Sm712 2.396 . S
O736 C722 1.252 . S
O737 Sm713 2.408 . S
O737 C722 1.272 . S
O738 Sm713 2.543 . S
O738 C723 1.261 . S
O739 Sm713 2.450 . S
O739 C723 1.242 . S
O740 Sm712 2.386 . S
O740 Sm713 2.681 . S
O740 C730 1.271 . S
O741 Sm713 2.464 . S
O741 C730 1.251 . S
O742 Sm713 2.396 . S
O742 C731 1.252 . S
O743 Sm712 2.408 . S
O743 C731 1.272 . S
H744 C716 0.930 . S
H745 C717 0.929 . S
H746 C719 0.930 . S
H747 C720 0.929 . S
H748 C725 0.930 . S
H749 C726 0.929 . S
H750 C728 0.930 . S
H751 C729 0.929 . S
Sm752 C754 2.846 . S
Sm752 O772 2.543 . S
Sm752 O773 2.450 . S
Sm752 O774 2.681 . S
Sm752 O775 2.464 . S
Sm752 O776 2.396 . S
Sm752 O780 2.386 . S
Sm752 O783 2.408 . S
Sm753 C763 2.846 . S
Sm753 O774 2.386 . S
Sm753 O777 2.408 . S
Sm753 O778 2.543 . S
Sm753 O779 2.450 . S
Sm753 O780 2.681 . S
Sm753 O781 2.464 . S
Sm753 O782 2.396 . S
C754 Sm752 2.846 . S
C754 C755 1.506 . S
C754 O772 1.261 . S
C754 O773 1.242 . S
C755 C754 1.506 . S
C755 C756 1.358 . S
C755 C760 1.382 . S
C756 C755 1.358 . S
C756 C757 1.385 . S
C756 H784 0.930 . S
C757 C756 1.385 . S
C757 C758 1.395 . S
C757 H785 0.929 . S
C758 C757 1.395 . S
C758 C759 1.335 . S
C759 C758 1.335 . S
C759 C760 1.398 . S
C759 H786 0.930 . S
C760 C755 1.382 . S
C760 C759 1.398 . S
C760 H787 0.929 . S
C761 O774 1.271 . S
C761 O775 1.251 . S
C762 O776 1.252 . S
C762 O777 1.272 . S
C763 Sm753 2.846 . S
C763 C764 1.506 . S
C763 O778 1.261 . S
C763 O779 1.242 . S
C764 C763 1.506 . S
C764 C765 1.358 . S
C764 C769 1.382 . S
C765 C764 1.358 . S
C765 C766 1.385 . S
C765 H788 0.930 . S
C766 C765 1.385 . S
C766 C767 1.395 . S
C766 H789 0.929 . S
C767 C766 1.395 . S
C767 C768 1.335 . S
C768 C767 1.335 . S
C768 C769 1.398 . S
C768 H790 0.930 . S
C769 C764 1.382 . S
C769 C768 1.398 . S
C769 H791 0.929 . S
C770 O780 1.271 . S
C770 O781 1.251 . S
C771 O782 1.252 . S
C771 O783 1.272 . S
O772 Sm752 2.543 . S
O772 C754 1.261 . S
O773 Sm752 2.450 . S
O773 C754 1.242 . S
O774 Sm752 2.681 . S
O774 Sm753 2.386 . S
O774 C761 1.271 . S
O775 Sm752 2.464 . S
O775 C761 1.251 . S
O776 Sm752 2.396 . S
O776 C762 1.252 . S
O777 Sm753 2.408 . S
O777 C762 1.272 . S
O778 Sm753 2.543 . S
O778 C763 1.261 . S
O779 Sm753 2.450 . S
O779 C763 1.242 . S
O780 Sm752 2.386 . S
O780 Sm753 2.681 . S
O780 C770 1.271 . S
O781 Sm753 2.464 . S
O781 C770 1.251 . S
O782 Sm753 2.396 . S
O782 C771 1.252 . S
O783 Sm752 2.408 . S
O783 C771 1.272 . S
H784 C756 0.930 . S
H785 C757 0.929 . S
H786 C759 0.930 . S
H787 C760 0.929 . S
H788 C765 0.930 . S
H789 C766 0.929 . S
H790 C768 0.930 . S
H791 C769 0.929 . S
Sm792 C794 2.846 . S
Sm792 O812 2.543 . S
Sm792 O813 2.450 . S
Sm792 O814 2.681 . S
Sm792 O815 2.464 . S
Sm792 O816 2.396 . S
Sm792 O820 2.386 . S
Sm792 O823 2.408 . S
Sm793 C803 2.846 . S
Sm793 O814 2.386 . S
Sm793 O817 2.408 . S
Sm793 O818 2.543 . S
Sm793 O819 2.450 . S
Sm793 O820 2.681 . S
Sm793 O821 2.464 . S
Sm793 O822 2.396 . S
C794 Sm792 2.846 . S
C794 C795 1.506 . S
C794 O812 1.261 . S
C794 O813 1.242 . S
C795 C794 1.506 . S
C795 C796 1.358 . S
C795 C800 1.382 . S
C796 C795 1.358 . S
C796 C797 1.385 . S
C796 H824 0.930 . S
C797 C796 1.385 . S
C797 C798 1.395 . S
C797 H825 0.929 . S
C798 C797 1.395 . S
C798 C799 1.335 . S
C799 C798 1.335 . S
C799 C800 1.398 . S
C799 H826 0.930 . S
C800 C795 1.382 . S
C800 C799 1.398 . S
C800 H827 0.929 . S
C801 O814 1.271 . S
C801 O815 1.251 . S
C802 O816 1.252 . S
C802 O817 1.272 . S
C803 Sm793 2.846 . S
C803 C804 1.506 . S
C803 O818 1.261 . S
C803 O819 1.242 . S
C804 C803 1.506 . S
C804 C805 1.358 . S
C804 C809 1.382 . S
C805 C804 1.358 . S
C805 C806 1.385 . S
C805 H828 0.930 . S
C806 C805 1.385 . S
C806 C807 1.395 . S
C806 H829 0.929 . S
C807 C806 1.395 . S
C807 C808 1.335 . S
C808 C807 1.335 . S
C808 C809 1.398 . S
C808 H830 0.930 . S
C809 C804 1.382 . S
C809 C808 1.398 . S
C809 H831 0.929 . S
C810 O820 1.271 . S
C810 O821 1.251 . S
C811 O822 1.252 . S
C811 O823 1.272 . S
O812 Sm792 2.543 . S
O812 C794 1.261 . S
O813 Sm792 2.450 . S
O813 C794 1.242 . S
O814 Sm792 2.681 . S
O814 Sm793 2.386 . S
O814 C801 1.271 . S
O815 Sm792 2.464 . S
O815 C801 1.251 . S
O816 Sm792 2.396 . S
O816 C802 1.252 . S
O817 Sm793 2.408 . S
O817 C802 1.272 . S
O818 Sm793 2.543 . S
O818 C803 1.261 . S
O819 Sm793 2.450 . S
O819 C803 1.242 . S
O820 Sm792 2.386 . S
O820 Sm793 2.681 . S
O820 C810 1.271 . S
O821 Sm793 2.464 . S
O821 C810 1.251 . S
O822 Sm793 2.396 . S
O822 C811 1.252 . S
O823 Sm792 2.408 . S
O823 C811 1.272 . S
H824 C796 0.930 . S
H825 C797 0.929 . S
H826 C799 0.930 . S
H827 C800 0.929 . S
H828 C805 0.930 . S
H829 C806 0.929 . S
H830 C808 0.930 . S
H831 C809 0.929 . S
Sm832 C834 2.846 . S
Sm832 O852 2.543 . S
Sm832 O853 2.450 . S
Sm832 O854 2.681 . S
Sm832 O855 2.464 . S
Sm832 O856 2.396 . S
Sm832 O860 2.386 . S
Sm832 O863 2.408 . S
Sm833 C843 2.846 . S
Sm833 O854 2.386 . S
Sm833 O857 2.408 . S
Sm833 O858 2.543 . S
Sm833 O859 2.450 . S
Sm833 O860 2.681 . S
Sm833 O861 2.464 . S
Sm833 O862 2.396 . S
C834 Sm832 2.846 . S
C834 C835 1.506 . S
C834 O852 1.261 . S
C834 O853 1.242 . S
C835 C834 1.506 . S
C835 C836 1.358 . S
C835 C840 1.382 . S
C836 C835 1.358 . S
C836 C837 1.385 . S
C836 H864 0.930 . S
C837 C836 1.385 . S
C837 C838 1.395 . S
C837 H865 0.929 . S
C838 C837 1.395 . S
C838 C839 1.335 . S
C839 C838 1.335 . S
C839 C840 1.398 . S
C839 H866 0.930 . S
C840 C835 1.382 . S
C840 C839 1.398 . S
C840 H867 0.929 . S
C841 O854 1.271 . S
C841 O855 1.251 . S
C842 O856 1.252 . S
C842 O857 1.272 . S
C843 Sm833 2.846 . S
C843 C844 1.506 . S
C843 O858 1.261 . S
C843 O859 1.242 . S
C844 C843 1.506 . S
C844 C845 1.358 . S
C844 C849 1.382 . S
C845 C844 1.358 . S
C845 C846 1.385 . S
C845 H868 0.930 . S
C846 C845 1.385 . S
C846 C847 1.395 . S
C846 H869 0.929 . S
C847 C846 1.395 . S
C847 C848 1.335 . S
C848 C847 1.335 . S
C848 C849 1.398 . S
C848 H870 0.930 . S
C849 C844 1.382 . S
C849 C848 1.398 . S
C849 H871 0.929 . S
C850 O860 1.271 . S
C850 O861 1.251 . S
C851 O862 1.252 . S
C851 O863 1.272 . S
O852 Sm832 2.543 . S
O852 C834 1.261 . S
O853 Sm832 2.450 . S
O853 C834 1.242 . S
O854 Sm832 2.681 . S
O854 Sm833 2.386 . S
O854 C841 1.271 . S
O855 Sm832 2.464 . S
O855 C841 1.251 . S
O856 Sm832 2.396 . S
O856 C842 1.252 . S
O857 Sm833 2.408 . S
O857 C842 1.272 . S
O858 Sm833 2.543 . S
O858 C843 1.261 . S
O859 Sm833 2.450 . S
O859 C843 1.242 . S
O860 Sm832 2.386 . S
O860 Sm833 2.681 . S
O860 C850 1.271 . S
O861 Sm833 2.464 . S
O861 C850 1.251 . S
O862 Sm833 2.396 . S
O862 C851 1.252 . S
O863 Sm832 2.408 . S
O863 C851 1.272 . S
H864 C836 0.930 . S
H865 C837 0.929 . S
H866 C839 0.930 . S
H867 C840 0.929 . S
H868 C845 0.930 . S
H869 C846 0.929 . S
H870 C848 0.930 . S
H871 C849 0.929 . S
Sm872 C874 2.846 . S
Sm872 O892 2.543 . S
Sm872 O893 2.450 . S
Sm872 O894 2.681 . S
Sm872 O895 2.464 . S
Sm872 O896 2.396 . S
Sm872 O900 2.386 . S
Sm872 O903 2.408 . S
Sm873 C883 2.846 . S
Sm873 O894 2.386 . S
Sm873 O897 2.408 . S
Sm873 O898 2.543 . S
Sm873 O899 2.450 . S
Sm873 O900 2.681 . S
Sm873 O901 2.464 . S
Sm873 O902 2.396 . S
C874 Sm872 2.846 . S
C874 C875 1.506 . S
C874 O892 1.261 . S
C874 O893 1.242 . S
C875 C874 1.506 . S
C875 C876 1.358 . S
C875 C880 1.382 . S
C876 C875 1.358 . S
C876 C877 1.385 . S
C876 H904 0.930 . S
C877 C876 1.385 . S
C877 C878 1.395 . S
C877 H905 0.929 . S
C878 C877 1.395 . S
C878 C879 1.335 . S
C879 C878 1.335 . S
C879 C880 1.398 . S
C879 H906 0.930 . S
C880 C875 1.382 . S
C880 C879 1.398 . S
C880 H907 0.929 . S
C881 O894 1.271 . S
C881 O895 1.251 . S
C882 O896 1.252 . S
C882 O897 1.272 . S
C883 Sm873 2.846 . S
C883 C884 1.506 . S
C883 O898 1.261 . S
C883 O899 1.242 . S
C884 C883 1.506 . S
C884 C885 1.358 . S
C884 C889 1.382 . S
C885 C884 1.358 . S
C885 C886 1.385 . S
C885 H908 0.930 . S
C886 C885 1.385 . S
C886 C887 1.395 . S
C886 H909 0.929 . S
C887 C886 1.395 . S
C887 C888 1.335 . S
C888 C887 1.335 . S
C888 C889 1.398 . S
C888 H910 0.930 . S
C889 C884 1.382 . S
C889 C888 1.398 . S
C889 H911 0.929 . S
C890 O900 1.271 . S
C890 O901 1.251 . S
C891 O902 1.252 . S
C891 O903 1.272 . S
O892 Sm872 2.543 . S
O892 C874 1.261 . S
O893 Sm872 2.450 . S
O893 C874 1.242 . S
O894 Sm872 2.681 . S
O894 Sm873 2.386 . S
O894 C881 1.271 . S
O895 Sm872 2.464 . S
O895 C881 1.251 . S
O896 Sm872 2.396 . S
O896 C882 1.252 . S
O897 Sm873 2.408 . S
O897 C882 1.272 . S
O898 Sm873 2.543 . S
O898 C883 1.261 . S
O899 Sm873 2.450 . S
O899 C883 1.242 . S
O900 Sm872 2.386 . S
O900 Sm873 2.681 . S
O900 C890 1.271 . S
O901 Sm873 2.464 . S
O901 C890 1.251 . S
O902 Sm873 2.396 . S
O902 C891 1.252 . S
O903 Sm872 2.408 . S
O903 C891 1.272 . S
H904 C876 0.930 . S
H905 C877 0.929 . S
H906 C879 0.930 . S
H907 C880 0.929 . S
H908 C885 0.930 . S
H909 C886 0.929 . S
H910 C888 0.930 . S
H911 C889 0.929 . S
Sm912 C914 2.846 . S
Sm912 O932 2.543 1_556 S
Sm912 O933 2.450 . S
Sm912 O934 2.681 . S
Sm912 O935 2.464 . S
Sm912 O936 2.396 . S
Sm912 O940 2.386 1_556 S
Sm912 O943 2.408 1_556 S
Sm913 C923 2.846 1_455 S
Sm913 O934 2.386 1_554 S
Sm913 O937 2.408 . S
Sm913 O938 2.516 1_455 S
Sm913 O939 2.450 . S
Sm913 O940 2.681 . S
Sm913 O941 2.464 . S
Sm913 O942 2.396 . S
C914 Sm912 2.846 . S
C914 C915 1.506 . S
C914 O932 1.261 1_556 S
C914 O933 1.242 . S
C915 C914 1.506 . S
C915 C916 1.358 1_556 S
C915 C920 1.382 . S
C916 C915 1.358 1_554 S
C916 C917 1.385 1_554 S
C916 H944 0.930 . S
C917 C916 1.385 1_556 S
C917 C918 1.395 . S
C917 H945 0.929 1_556 S
C918 C917 1.395 . S
C918 C919 1.335 . S
C919 C918 1.335 . S
C919 C920 1.398 . S
C919 H946 0.930 . S
C920 C915 1.382 . S
C920 C919 1.398 . S
C920 H947 0.929 . S
C921 O934 1.271 . S
C921 O935 1.251 . S
C922 O936 1.252 . S
C922 O937 1.272 1_556 S
C923 Sm913 2.846 1_655 S
C923 C924 1.506 . S
C923 O938 1.276 . S
C923 O939 1.242 1_655 S
C924 C923 1.506 . S
C924 C925 1.358 . S
C924 C929 1.382 . S
C925 C924 1.358 . S
C925 C926 1.385 . S
C925 H948 0.941 . S
C926 C925 1.385 . S
C926 C927 1.395 . S
C926 H949 0.929 . S
C927 C926 1.395 . S
C927 C928 1.335 . S
C928 C927 1.335 . S
C928 C929 1.398 . S
C928 H950 0.930 . S
C929 C924 1.382 . S
C929 C928 1.398 . S
C929 H951 0.929 . S
C930 O940 1.271 . S
C930 O941 1.251 . S
C931 O942 1.252 . S
C931 O943 1.272 . S
O932 Sm912 2.543 1_554 S
O932 C914 1.261 1_554 S
O933 Sm912 2.450 . S
O933 C914 1.242 . S
O934 Sm912 2.681 . S
O934 Sm913 2.386 1_556 S
O934 C921 1.271 . S
O935 Sm912 2.464 . S
O935 C921 1.251 . S
O936 Sm912 2.396 . S
O936 C922 1.252 . S
O937 Sm913 2.408 . S
O937 C922 1.272 1_554 S
O938 Sm913 2.516 1_655 S
O938 C923 1.276 . S
O939 Sm913 2.450 . S
O939 C923 1.242 1_455 S
O940 Sm912 2.386 1_554 S
O940 Sm913 2.681 . S
O940 C930 1.271 . S
O941 Sm913 2.464 . S
O941 C930 1.251 . S
O942 Sm913 2.396 . S
O942 C931 1.252 . S
O943 Sm912 2.408 1_554 S
O943 C931 1.272 . S
H944 C916 0.930 . S
H945 C917 0.929 1_554 S
H946 C919 0.930 . S
H947 C920 0.929 . S
H948 C925 0.941 . S
H949 C926 0.929 . S
H950 C928 0.930 . S
H951 C929 0.929 . S
C952 C953 1.369 . S
C952 C954 1.419 . S
C952 H956 0.930 1_455 S
C953 C952 1.369 . S
C953 C962 1.429 . S
C954 C952 1.419 . S
C954 C955 1.363 . S
C954 H957 0.929 . S
C955 C954 1.363 . S
C955 C961 1.428 . S
H956 C952 0.930 1_655 S
H957 C954 0.929 . S
S958 N959 1.613 1_554 S
S958 N960 1.610 . S
N959 S958 1.613 1_556 S
N959 C962 1.350 . S
N960 S958 1.610 . S
N960 C961 1.351 1_554 S
C961 C955 1.428 . S
C961 N960 1.351 1_556 S
C961 C962 1.434 . S
C962 C953 1.429 . S
C962 N959 1.350 . S
C962 C961 1.434 . S
C963 C964 1.369 . S
C963 C965 1.419 . S
C963 H967 0.930 . S
C964 C963 1.369 . S
C964 C973 1.429 . S
C965 C963 1.419 . S
C965 C966 1.363 . S
C965 H968 0.929 . S
C966 C965 1.363 . S
C966 C972 1.428 . S
H967 C963 0.930 . S
H968 C965 0.929 . S
S969 N970 1.613 . S
S969 N971 1.610 . S
N970 S969 1.613 . S
N970 C973 1.350 . S
N971 S969 1.610 . S
N971 C972 1.351 . S
C972 C966 1.428 . S
C972 N971 1.351 . S
C972 C973 1.434 . S
C973 C964 1.429 . S
C973 N970 1.350 . S
C973 C972 1.434 . S
C974 C975 1.369 . S
C974 C976 1.419 . S
C974 H978 0.930 . S
C975 C974 1.369 . S
C975 C984 1.429 . S
C976 C974 1.419 . S
C976 C977 1.363 . S
C976 H979 0.929 . S
C977 C976 1.363 . S
C977 C983 1.428 . S
H978 C974 0.930 . S
H979 C976 0.929 . S
S980 N981 1.613 . S
S980 N982 1.610 . S
N981 S980 1.613 . S
N981 C984 1.350 . S
N982 S980 1.610 . S
N982 C983 1.351 . S
C983 C977 1.428 . S
C983 N982 1.351 . S
C983 C984 1.434 . S
C984 C975 1.429 . S
C984 N981 1.350 . S
C984 C983 1.434 . S
C985 C986 1.369 . S
C985 C987 1.419 . S
C985 H989 0.930 . S
C986 C985 1.369 . S
C986 C995 1.429 . S
C987 C985 1.419 . S
C987 C988 1.363 . S
C987 H990 0.929 . S
C988 C987 1.363 . S
C988 C994 1.428 . S
H989 C985 0.930 . S
H990 C987 0.929 . S
S991 N992 1.613 . S
S991 N993 1.610 . S
N992 S991 1.613 . S
N992 C995 1.350 . S
N993 S991 1.610 . S
N993 C994 1.351 . S
C994 C988 1.428 . S
C994 N993 1.351 . S
C994 C995 1.434 . S
C995 C986 1.429 . S
C995 N992 1.350 . S
C995 C994 1.434 . S
C996 C997 1.369 . S
C996 C998 1.419 . S
C996 H1000 0.930 . S
C997 C996 1.369 . S
C997 C1006 1.429 . S
C998 C996 1.419 . S
C998 C999 1.363 . S
C998 H1001 0.929 . S
C999 C998 1.363 . S
C999 C1005 1.428 . S
H1000 C996 0.930 . S
H1001 C998 0.929 . S
S1002 N1003 1.613 . S
S1002 N1004 1.610 1_655 S
N1003 S1002 1.613 . S
N1003 C1006 1.350 1_655 S
N1004 S1002 1.610 1_455 S
N1004 C1005 1.351 . S
C1005 C999 1.428 . S
C1005 N1004 1.351 . S
C1005 C1006 1.434 . S
C1006 C997 1.429 . S
C1006 N1003 1.350 1_455 S
C1006 C1005 1.434 . S
C1007 C1008 1.369 . S
C1007 C1009 1.419 . S
C1007 H1011 0.930 . S
C1008 C1007 1.369 . S
C1008 C1017 1.429 . S
C1009 C1007 1.419 . S
C1009 C1010 1.363 . S
C1009 H1012 0.929 . S
C1010 C1009 1.363 . S
C1010 C1016 1.428 . S
H1011 C1007 0.930 . S
H1012 C1009 0.929 . S
S1013 N1014 1.613 . S
S1013 N1015 1.610 . S
N1014 S1013 1.613 . S
N1014 C1017 1.350 . S
N1015 S1013 1.610 . S
N1015 C1016 1.351 . S
C1016 C1010 1.428 . S
C1016 N1015 1.351 . S
C1016 C1017 1.434 . S
C1017 C1008 1.429 . S
C1017 N1014 1.350 . S
C1017 C1016 1.434 . S
C1018 C1019 1.369 . S
C1018 C1020 1.419 . S
C1018 H1022 0.930 . S
C1019 C1018 1.369 . S
C1019 C1028 1.429 . S
C1020 C1018 1.419 . S
C1020 C1021 1.363 . S
C1020 H1023 0.929 . S
C1021 C1020 1.363 . S
C1021 C1027 1.428 . S
H1022 C1018 0.930 . S
H1023 C1020 0.929 . S
S1024 N1025 1.613 . S
S1024 N1026 1.610 . S
N1025 S1024 1.613 . S
N1025 C1028 1.350 . S
N1026 S1024 1.610 . S
N1026 C1027 1.351 . S
C1027 C1021 1.428 . S
C1027 N1026 1.351 . S
C1027 C1028 1.434 . S
C1028 C1019 1.429 . S
C1028 N1025 1.350 . S
C1028 C1027 1.434 . S
C1029 C1030 1.369 . S
C1029 C1031 1.419 . S
C1029 H1033 0.930 . S
C1030 C1029 1.369 . S
C1030 C1039 1.429 . S
C1031 C1029 1.419 . S
C1031 C1032 1.363 . S
C1031 H1034 0.929 . S
C1032 C1031 1.363 . S
C1032 C1038 1.428 . S
H1033 C1029 0.930 . S
H1034 C1031 0.929 . S
S1035 N1036 1.613 . S
S1035 N1037 1.610 . S
N1036 S1035 1.613 . S
N1036 C1039 1.350 . S
N1037 S1035 1.610 . S
N1037 C1038 1.351 . S
C1038 C1032 1.428 . S
C1038 N1037 1.351 . S
C1038 C1039 1.434 . S
C1039 C1030 1.429 . S
C1039 N1036 1.350 . S
C1039 C1038 1.434 . S
C1040 C1041 1.369 . S
C1040 C1042 1.419 . S
C1040 H1044 0.930 1_455 S
C1041 C1040 1.369 . S
C1041 C1050 1.429 . S
C1042 C1040 1.419 . S
C1042 C1043 1.363 . S
C1042 H1045 0.929 . S
C1043 C1042 1.363 . S
C1043 C1049 1.428 . S
H1044 C1040 0.930 1_655 S
H1045 C1042 0.929 . S
S1046 N1047 1.613 . S
S1046 N1048 1.610 . S
N1047 S1046 1.613 . S
N1047 C1050 1.350 . S
N1048 S1046 1.610 . S
N1048 C1049 1.351 . S
C1049 C1043 1.428 . S
C1049 N1048 1.351 . S
C1049 C1050 1.434 . S
C1050 C1041 1.429 . S
C1050 N1047 1.350 . S
C1050 C1049 1.434 . S
C1051 C1052 1.369 . S
C1051 C1053 1.419 . S
C1051 H1055 0.930 . S
C1052 C1051 1.369 . S
C1052 C1061 1.429 . S
C1053 C1051 1.419 . S
C1053 C1054 1.363 . S
C1053 H1056 0.929 . S
C1054 C1053 1.363 . S
C1054 C1060 1.428 . S
H1055 C1051 0.930 . S
H1056 C1053 0.929 . S
S1057 N1058 1.613 . S
S1057 N1059 1.610 . S
N1058 S1057 1.613 . S
N1058 C1061 1.350 . S
N1059 S1057 1.610 . S
N1059 C1060 1.351 . S
C1060 C1054 1.428 . S
C1060 N1059 1.351 . S
C1060 C1061 1.434 . S
C1061 C1052 1.429 . S
C1061 N1058 1.350 . S
C1061 C1060 1.434 . S
C1062 C1063 1.369 . S
C1062 C1064 1.419 . S
C1062 H1066 0.930 . S
C1063 C1062 1.369 . S
C1063 C1072 1.429 . S
C1064 C1062 1.419 . S
C1064 C1065 1.363 . S
C1064 H1067 0.929 . S
C1065 C1064 1.363 . S
C1065 C1071 1.428 . S
H1066 C1062 0.930 . S
H1067 C1064 0.929 . S
S1068 N1069 1.613 . S
S1068 N1070 1.610 . S
N1069 S1068 1.613 . S
N1069 C1072 1.350 . S
N1070 S1068 1.610 . S
N1070 C1071 1.351 . S
C1071 C1065 1.428 . S
C1071 N1070 1.351 . S
C1071 C1072 1.434 . S
C1072 C1063 1.429 . S
C1072 N1069 1.350 . S
C1072 C1071 1.434 . S
C1073 C1074 1.369 . S
C1073 C1075 1.419 . S
C1073 H1077 0.930 . S
C1074 C1073 1.369 . S
C1074 C1083 1.429 . S
C1075 C1073 1.419 . S
C1075 C1076 1.363 . S
C1075 H1078 0.929 . S
C1076 C1075 1.363 . S
C1076 C1082 1.428 . S
H1077 C1073 0.930 . S
H1078 C1075 0.929 . S
S1079 N1080 1.613 . S
S1079 N1081 1.610 . S
N1080 S1079 1.613 . S
N1080 C1083 1.350 . S
N1081 S1079 1.610 . S
N1081 C1082 1.351 . S
C1082 C1076 1.428 . S
C1082 N1081 1.351 . S
C1082 C1083 1.434 . S
C1083 C1074 1.429 . S
C1083 N1080 1.350 . S
C1083 C1082 1.434 . S
C1084 C1085 1.369 . S
C1084 C1086 1.419 . S
C1084 H1088 0.930 . S
C1085 C1084 1.369 . S
C1085 C1094 1.429 1_455 S
C1086 C1084 1.419 . S
C1086 C1087 1.363 . S
C1086 H1089 0.929 . S
C1087 C1086 1.363 . S
C1087 C1093 1.428 . S
H1088 C1084 0.930 . S
H1089 C1086 0.929 . S
S1090 N1091 1.613 . S
S1090 N1092 1.610 . S
N1091 S1090 1.613 . S
N1091 C1094 1.350 . S
N1092 S1090 1.610 . S
N1092 C1093 1.351 1_655 S
C1093 C1087 1.428 . S
C1093 N1092 1.351 1_455 S
C1093 C1094 1.434 1_455 S
C1094 C1085 1.429 1_655 S
C1094 N1091 1.350 . S
C1094 C1093 1.434 1_655 S
C1095 C1096 1.369 . S
C1095 C1097 1.419 . S
C1095 H1099 0.930 . S
C1096 C1095 1.369 . S
C1096 C1105 1.429 . S
C1097 C1095 1.419 . S
C1097 C1098 1.363 . S
C1097 H1100 0.929 . S
C1098 C1097 1.363 . S
C1098 C1104 1.428 . S
H1099 C1095 0.930 . S
H1100 C1097 0.929 . S
S1101 N1102 1.613 . S
S1101 N1103 1.610 . S
N1102 S1101 1.613 . S
N1102 C1105 1.350 . S
N1103 S1101 1.610 . S
N1103 C1104 1.351 . S
C1104 C1098 1.428 . S
C1104 N1103 1.351 . S
C1104 C1105 1.434 . S
C1105 C1096 1.429 . S
C1105 N1102 1.350 . S
C1105 C1104 1.434 . S
C1106 C1107 1.369 . S
C1106 C1108 1.419 . S
C1106 H1110 0.930 . S
C1107 C1106 1.369 . S
C1107 C1116 1.429 . S
C1108 C1106 1.419 . S
C1108 C1109 1.363 . S
C1108 H1111 0.929 . S
C1109 C1108 1.363 . S
C1109 C1115 1.428 . S
H1110 C1106 0.930 . S
H1111 C1108 0.929 . S
S1112 N1113 1.613 . S
S1112 N1114 1.610 . S
N1113 S1112 1.613 . S
N1113 C1116 1.350 . S
N1114 S1112 1.610 . S
N1114 C1115 1.351 . S
C1115 C1109 1.428 . S
C1115 N1114 1.351 . S
C1115 C1116 1.434 . S
C1116 C1107 1.429 . S
C1116 N1113 1.350 . S
C1116 C1115 1.434 . S
C1117 C1118 1.369 . S
C1117 C1119 1.419 . S
C1117 H1121 0.930 . S
C1118 C1117 1.369 . S
C1118 C1127 1.429 . S
C1119 C1117 1.419 . S
C1119 C1120 1.363 . S
C1119 H1122 0.929 . S
C1120 C1119 1.363 . S
C1120 C1126 1.428 . S
H1121 C1117 0.930 . S
H1122 C1119 0.929 . S
S1123 N1124 1.613 . S
S1123 N1125 1.610 . S
N1124 S1123 1.613 . S
N1124 C1127 1.350 . S
N1125 S1123 1.610 . S
N1125 C1126 1.351 . S
C1126 C1120 1.428 . S
C1126 N1125 1.351 . S
C1126 C1127 1.434 . S
C1127 C1118 1.429 . S
C1127 N1124 1.350 . S
C1127 C1126 1.434 . S
C1128 C1129 1.369 1_545 S
C1128 C1130 1.419 . S
C1128 H1132 0.930 1_554 S
C1129 C1128 1.369 1_565 S
C1129 C1138 1.429 . S
C1130 C1128 1.419 . S
C1130 C1131 1.363 . S
C1130 H1133 0.929 . S
C1131 C1130 1.363 . S
C1131 C1137 1.428 1_545 S
H1132 C1128 0.930 1_556 S
H1133 C1130 0.929 . S
S1134 N1135 1.613 . S
S1134 N1136 1.610 . S
N1135 S1134 1.613 . S
N1135 C1138 1.350 . S
N1136 S1134 1.610 . S
N1136 C1137 1.351 . S
C1137 C1131 1.428 1_565 S
C1137 N1136 1.351 . S
C1137 C1138 1.434 . S
C1138 C1129 1.429 . S
C1138 N1135 1.350 . S
C1138 C1137 1.434 . S
C1139 C1140 1.369 . S
C1139 C1141 1.419 . S
C1139 H1143 0.930 . S
C1140 C1139 1.369 . S
C1140 C1149 1.429 1_556 S
C1141 C1139 1.419 . S
C1141 C1142 1.363 1_556 S
C1141 H1144 0.929 . S
C1142 C1141 1.363 1_554 S
C1142 C1148 1.428 . S
H1143 C1139 0.930 . S
H1144 C1141 0.929 . S
S1145 N1146 1.613 . S
S1145 N1147 1.610 . S
N1146 S1145 1.613 . S
N1146 C1149 1.350 . S
N1147 S1145 1.610 . S
N1147 C1148 1.351 . S
C1148 C1142 1.428 . S
C1148 N1147 1.351 . S
C1148 C1149 1.434 . S
C1149 C1140 1.429 1_554 S
C1149 N1146 1.350 . S
C1149 C1148 1.434 . S
C1150 C1151 1.369 . S
C1150 C1152 1.419 . S
C1150 H1154 0.930 . S
C1151 C1150 1.369 . S
C1151 C1160 1.429 . S
C1152 C1150 1.419 . S
C1152 C1153 1.363 . S
C1152 H1155 0.929 . S
C1153 C1152 1.363 . S
C1153 C1159 1.428 . S
H1154 C1150 0.930 . S
H1155 C1152 0.929 . S
S1156 N1157 1.613 . S
S1156 N1158 1.610 . S
N1157 S1156 1.613 . S
N1157 C1160 1.350 . S
N1158 S1156 1.610 . S
N1158 C1159 1.351 . S
C1159 C1153 1.428 . S
C1159 N1158 1.351 . S
C1159 C1160 1.434 . S
C1160 C1151 1.429 . S
C1160 N1157 1.350 . S
C1160 C1159 1.434 . S
C1161 C1162 1.369 . S
C1161 C1163 1.419 . S
C1161 H1165 0.930 . S
C1162 C1161 1.369 . S
C1162 C1171 1.429 . S
C1163 C1161 1.419 . S
C1163 C1164 1.363 . S
C1163 H1166 0.929 . S
C1164 C1163 1.363 . S
C1164 C1170 1.428 . S
H1165 C1161 0.930 . S
H1166 C1163 0.929 . S
S1167 N1168 1.613 . S
S1167 N1169 1.610 . S
N1168 S1167 1.613 . S
N1168 C1171 1.350 . S
N1169 S1167 1.610 . S
N1169 C1170 1.351 . S
C1170 C1164 1.428 . S
C1170 N1169 1.351 . S
C1170 C1171 1.434 . S
C1171 C1162 1.429 . S
C1171 N1168 1.350 . S
C1171 C1170 1.434 . S
C1172 C1173 1.369 . S
C1172 C1174 1.419 . S
C1172 H1176 0.930 . S
C1173 C1172 1.369 . S
C1173 C1182 1.429 . S
C1174 C1172 1.419 . S
C1174 C1175 1.363 . S
C1174 H1177 0.929 . S
C1175 C1174 1.363 . S
C1175 C1181 1.428 . S
H1176 C1172 0.930 . S
H1177 C1174 0.929 . S
S1178 N1179 1.613 . S
S1178 N1180 1.610 . S
N1179 S1178 1.613 . S
N1179 C1182 1.350 . S
N1180 S1178 1.610 . S
N1180 C1181 1.351 . S
C1181 C1175 1.428 . S
C1181 N1180 1.351 . S
C1181 C1182 1.434 . S
C1182 C1173 1.429 . S
C1182 N1179 1.350 . S
C1182 C1181 1.434 . S
C1183 C1184 1.369 . S
C1183 C1185 1.419 . S
C1183 H1187 0.930 . S
C1184 C1183 1.369 . S
C1184 C1193 1.429 . S
C1185 C1183 1.419 . S
C1185 C1186 1.363 . S
C1185 H1188 0.929 . S
C1186 C1185 1.363 . S
C1186 C1192 1.428 . S
H1187 C1183 0.930 . S
H1188 C1185 0.929 . S
S1189 N1190 1.613 . S
S1189 N1191 1.610 . S
N1190 S1189 1.613 . S
N1190 C1193 1.350 . S
N1191 S1189 1.610 . S
N1191 C1192 1.351 . S
C1192 C1186 1.428 . S
C1192 N1191 1.351 . S
C1192 C1193 1.434 . S
C1193 C1184 1.429 . S
C1193 N1190 1.350 . S
C1193 C1192 1.434 . S
C1194 C1195 1.369 . S
C1194 C1196 1.419 . S
C1194 H1198 0.930 . S
C1195 C1194 1.369 . S
C1195 C1204 1.429 . S
C1196 C1194 1.419 . S
C1196 C1197 1.363 . S
C1196 H1199 0.929 . S
C1197 C1196 1.363 . S
C1197 C1203 1.428 . S
H1198 C1194 0.930 . S
H1199 C1196 0.929 . S
S1200 N1201 1.613 . S
S1200 N1202 1.610 . S
N1201 S1200 1.613 . S
N1201 C1204 1.350 . S
N1202 S1200 1.610 . S
N1202 C1203 1.351 . S
C1203 C1197 1.428 . S
C1203 N1202 1.351 . S
C1203 C1204 1.434 . S
C1204 C1195 1.429 . S
C1204 N1201 1.350 . S
C1204 C1203 1.434 . S
C1205 C1206 1.369 . S
C1205 C1207 1.419 . S
C1205 H1209 0.930 . S
C1206 C1205 1.369 . S
C1206 C1215 1.429 . S
C1207 C1205 1.419 . S
C1207 C1208 1.363 . S
C1207 H1210 0.929 . S
C1208 C1207 1.363 . S
C1208 C1214 1.428 . S
H1209 C1205 0.930 . S
H1210 C1207 0.929 . S
S1211 N1212 1.613 . S
S1211 N1213 1.610 . S
N1212 S1211 1.613 . S
N1212 C1215 1.350 . S
N1213 S1211 1.610 . S
N1213 C1214 1.351 . S
C1214 C1208 1.428 . S
C1214 N1213 1.351 . S
C1214 C1215 1.434 . S
C1215 C1206 1.429 . S
C1215 N1212 1.350 . S
C1215 C1214 1.434 . S
C1216 C1217 1.369 . S
C1216 C1218 1.419 . S
C1216 H1220 0.930 . S
C1217 C1216 1.369 . S
C1217 C1226 1.429 . S
C1218 C1216 1.419 . S
C1218 C1219 1.363 . S
C1218 H1221 0.929 . S
C1219 C1218 1.363 . S
C1219 C1225 1.428 . S
H1220 C1216 0.930 . S
H1221 C1218 0.929 . S
S1222 N1223 1.613 . S
S1222 N1224 1.610 . S
N1223 S1222 1.613 . S
N1223 C1226 1.350 . S
N1224 S1222 1.610 . S
N1224 C1225 1.351 . S
C1225 C1219 1.428 . S
C1225 N1224 1.351 . S
C1225 C1226 1.434 . S
C1226 C1217 1.429 . S
C1226 N1223 1.350 . S
C1226 C1225 1.434 . S
C1227 C1228 1.369 . S
C1227 C1229 1.419 . S
C1227 H1231 0.930 . S
C1228 C1227 1.369 . S
C1228 C1237 1.429 . S
C1229 C1227 1.419 . S
C1229 C1230 1.363 . S
C1229 H1232 0.929 . S
C1230 C1229 1.363 . S
C1230 C1236 1.428 . S
H1231 C1227 0.930 . S
H1232 C1229 0.929 . S
S1233 N1234 1.613 . S
S1233 N1235 1.610 . S
N1234 S1233 1.613 . S
N1234 C1237 1.350 . S
N1235 S1233 1.610 . S
N1235 C1236 1.351 . S
C1236 C1230 1.428 . S
C1236 N1235 1.351 . S
C1236 C1237 1.434 . S
C1237 C1228 1.429 . S
C1237 N1234 1.350 . S
C1237 C1236 1.434 . S
C1238 C1239 1.369 . S
C1238 C1240 1.419 . S
C1238 H1242 0.930 . S
C1239 C1238 1.369 . S
C1239 C1248 1.429 . S
C1240 C1238 1.419 . S
C1240 C1241 1.363 . S
C1240 H1243 0.929 . S
C1241 C1240 1.363 . S
C1241 C1247 1.428 . S
H1242 C1238 0.930 . S
H1243 C1240 0.929 . S
S1244 N1245 1.613 . S
S1244 N1246 1.610 . S
N1245 S1244 1.613 . S
N1245 C1248 1.350 . S
N1246 S1244 1.610 . S
N1246 C1247 1.351 . S
C1247 C1241 1.428 . S
C1247 N1246 1.351 . S
C1247 C1248 1.434 . S
C1248 C1239 1.429 . S
C1248 N1245 1.350 . S
C1248 C1247 1.434 . S
C1249 C1250 1.369 . S
C1249 C1251 1.419 . S
C1249 H1253 0.930 . S
C1250 C1249 1.369 . S
C1250 C1259 1.429 . S
C1251 C1249 1.419 . S
C1251 C1252 1.363 . S
C1251 H1254 0.929 . S
C1252 C1251 1.363 . S
C1252 C1258 1.428 . S
H1253 C1249 0.930 . S
H1254 C1251 0.929 . S
S1255 N1256 1.613 . S
S1255 N1257 1.610 . S
N1256 S1255 1.613 . S
N1256 C1259 1.350 . S
N1257 S1255 1.610 . S
N1257 C1258 1.351 . S
C1258 C1252 1.428 . S
C1258 N1257 1.351 . S
C1258 C1259 1.434 . S
C1259 C1250 1.429 . S
C1259 N1256 1.350 . S
C1259 C1258 1.434 . S
C1260 C1261 1.369 . S
C1260 C1262 1.419 . S
C1260 H1264 0.930 . S
C1261 C1260 1.369 . S
C1261 C1270 1.429 . S
C1262 C1260 1.419 . S
C1262 C1263 1.363 . S
C1262 H1265 0.929 . S
C1263 C1262 1.363 . S
C1263 C1269 1.428 . S
H1264 C1260 0.930 . S
H1265 C1262 0.929 . S
S1266 N1267 1.613 . S
S1266 N1268 1.610 . S
N1267 S1266 1.613 . S
N1267 C1270 1.350 . S
N1268 S1266 1.610 . S
N1268 C1269 1.351 . S
C1269 C1263 1.428 . S
C1269 N1268 1.351 . S
C1269 C1270 1.434 . S
C1270 C1261 1.429 . S
C1270 N1267 1.350 . S
C1270 C1269 1.434 . S
C1271 C1272 1.369 . S
C1271 C1273 1.419 . S
C1271 H1275 0.930 . S
C1272 C1271 1.369 . S
C1272 C1281 1.429 . S
C1273 C1271 1.419 . S
C1273 C1274 1.363 . S
C1273 H1276 0.929 . S
C1274 C1273 1.363 . S
C1274 C1280 1.428 . S
H1275 C1271 0.930 . S
H1276 C1273 0.929 . S
S1277 N1278 1.613 . S
S1277 N1279 1.610 . S
N1278 S1277 1.613 . S
N1278 C1281 1.350 . S
N1279 S1277 1.610 . S
N1279 C1280 1.351 . S
C1280 C1274 1.428 . S
C1280 N1279 1.351 . S
C1280 C1281 1.434 . S
C1281 C1272 1.429 . S
C1281 N1278 1.350 . S
C1281 C1280 1.434 . S
C1282 C1283 1.369 . S
C1282 C1284 1.419 . S
C1282 H1286 0.930 . S
C1283 C1282 1.369 . S
C1283 C1292 1.429 . S
C1284 C1282 1.419 . S
C1284 C1285 1.363 . S
C1284 H1287 0.929 1_565 S
C1285 C1284 1.363 . S
C1285 C1291 1.428 . S
H1286 C1282 0.930 . S
H1287 C1284 0.929 1_545 S
S1288 N1289 1.613 . S
S1288 N1290 1.610 . S
N1289 S1288 1.613 . S
N1289 C1292 1.350 . S
N1290 S1288 1.610 . S
N1290 C1291 1.351 . S
C1291 C1285 1.428 . S
C1291 N1290 1.351 . S
C1291 C1292 1.434 . S
C1292 C1283 1.429 . S
C1292 N1289 1.350 . S
C1292 C1291 1.434 . S
C1293 C1294 1.369 . S
C1293 C1295 1.419 . S
C1293 H1297 0.930 . S
C1294 C1293 1.369 . S
C1294 C1303 1.429 . S
C1295 C1293 1.419 . S
C1295 C1296 1.363 . S
C1295 H1298 0.929 . S
C1296 C1295 1.363 . S
C1296 C1302 1.428 . S
H1297 C1293 0.930 . S
H1298 C1295 0.929 . S
S1299 N1300 1.613 . S
S1299 N1301 1.610 . S
N1300 S1299 1.613 . S
N1300 C1303 1.350 . S
N1301 S1299 1.610 . S
N1301 C1302 1.351 . S
C1302 C1296 1.428 . S
C1302 N1301 1.351 . S
C1302 C1303 1.434 . S
C1303 C1294 1.429 . S
C1303 N1300 1.350 . S
C1303 C1302 1.434 . S
C1304 C1305 1.369 1_565 S
C1304 C1306 1.419 . S
C1304 H1308 0.930 . S
C1305 C1304 1.369 1_545 S
C1305 C1314 1.429 . S
C1306 C1304 1.419 . S
C1306 C1307 1.363 1_565 S
C1306 H1309 0.929 . S
C1307 C1306 1.363 1_545 S
C1307 C1313 1.428 . S
H1308 C1304 0.930 . S
H1309 C1306 0.929 . S
S1310 N1311 1.613 . S
S1310 N1312 1.610 . S
N1311 S1310 1.613 . S
N1311 C1314 1.350 . S
N1312 S1310 1.610 . S
N1312 C1313 1.351 . S
C1313 C1307 1.428 . S
C1313 N1312 1.351 . S
C1313 C1314 1.434 . S
C1314 C1305 1.429 . S
C1314 N1311 1.350 . S
C1314 C1313 1.434 . S
C1315 C1316 1.369 . S
C1315 C1317 1.419 . S
C1315 H1319 0.930 . S
C1316 C1315 1.369 . S
C1316 C1325 1.429 . S
C1317 C1315 1.419 . S
C1317 C1318 1.363 . S
C1317 H1320 0.929 . S
C1318 C1317 1.363 . S
C1318 C1324 1.428 . S
H1319 C1315 0.930 . S
H1320 C1317 0.929 . S
S1321 N1322 1.613 . S
S1321 N1323 1.610 . S
N1322 S1321 1.613 . S
N1322 C1325 1.350 . S
N1323 S1321 1.610 . S
N1323 C1324 1.351 . S
C1324 C1318 1.428 . S
C1324 N1323 1.351 . S
C1324 C1325 1.434 . S
C1325 C1316 1.429 . S
C1325 N1322 1.350 . S
C1325 C1324 1.434 . S
C1326 C1327 1.369 . S
C1326 C1328 1.419 . S
C1326 H1330 0.930 . S
C1327 C1326 1.369 . S
C1327 C1336 1.429 . S
C1328 C1326 1.419 . S
C1328 C1329 1.363 . S
C1328 H1331 0.929 . S
C1329 C1328 1.363 . S
C1329 C1335 1.428 . S
H1330 C1326 0.930 . S
H1331 C1328 0.929 . S
S1332 N1333 1.613 . S
S1332 N1334 1.610 1_565 S
N1333 S1332 1.613 . S
N1333 C1336 1.350 1_565 S
N1334 S1332 1.610 1_545 S
N1334 C1335 1.351 . S
C1335 C1329 1.428 . S
C1335 N1334 1.351 . S
C1335 C1336 1.434 . S
C1336 C1327 1.429 . S
C1336 N1333 1.350 1_545 S
C1336 C1335 1.434 . S
C1337 C1338 1.369 . S
C1337 C1339 1.419 . S
C1337 H1341 0.930 . S
C1338 C1337 1.369 . S
C1338 C1347 1.429 . S
C1339 C1337 1.419 . S
C1339 C1340 1.363 . S
C1339 H1342 0.929 . S
C1340 C1339 1.363 . S
C1340 C1346 1.428 . S
H1341 C1337 0.930 . S
H1342 C1339 0.929 . S
S1343 N1344 1.613 . S
S1343 N1345 1.610 . S
N1344 S1343 1.613 . S
N1344 C1347 1.350 . S
N1345 S1343 1.610 . S
N1345 C1346 1.351 . S
C1346 C1340 1.428 . S
C1346 N1345 1.351 . S
C1346 C1347 1.434 . S
C1347 C1338 1.429 . S
C1347 N1344 1.350 . S
C1347 C1346 1.434 . S
C1348 C1349 1.369 . S
C1348 C1350 1.419 . S
C1348 H1352 0.930 1_545 S
C1349 C1348 1.369 . S
C1349 C1358 1.429 . S
C1350 C1348 1.419 . S
C1350 C1351 1.363 . S
C1350 H1353 0.929 . S
C1351 C1350 1.363 . S
C1351 C1357 1.428 . S
H1352 C1348 0.930 1_565 S
H1353 C1350 0.929 . S
S1354 N1355 1.613 . S
S1354 N1356 1.610 . S
N1355 S1354 1.613 . S
N1355 C1358 1.350 . S
N1356 S1354 1.610 . S
N1356 C1357 1.351 . S
C1357 C1351 1.428 . S
C1357 N1356 1.351 . S
C1357 C1358 1.434 . S
C1358 C1349 1.429 . S
C1358 N1355 1.350 . S
C1358 C1357 1.434 . S
C1359 C1360 1.369 . S
C1359 C1361 1.419 . S
C1359 H1363 0.930 . S
C1360 C1359 1.369 . S
C1360 C1369 1.429 . S
C1361 C1359 1.419 . S
C1361 C1362 1.363 . S
C1361 H1364 0.929 . S
C1362 C1361 1.363 . S
C1362 C1368 1.428 . S
H1363 C1359 0.930 . S
H1364 C1361 0.929 . S
S1365 N1366 1.613 . S
S1365 N1367 1.610 . S
N1366 S1365 1.613 . S
N1366 C1369 1.350 . S
N1367 S1365 1.610 . S
N1367 C1368 1.351 . S
C1368 C1362 1.428 . S
C1368 N1367 1.351 . S
C1368 C1369 1.434 . S
C1369 C1360 1.429 . S
C1369 N1366 1.350 . S
C1369 C1368 1.434 . S
C1370 C1371 1.400 . S
C1370 C1372 1.419 . S
C1370 H1374 0.930 . S
C1371 C1370 1.400 . S
C1371 C1380 1.410 1_565 S
C1372 C1370 1.419 . S
C1372 C1373 1.363 . S
C1372 H1375 0.929 . S
C1373 C1372 1.363 . S
C1373 C1379 1.428 . S
H1374 C1370 0.930 . S
H1375 C1372 0.929 . S
S1376 N1377 1.613 . S
S1376 N1378 1.623 . S
N1377 S1376 1.613 . S
N1377 C1380 1.350 . S
N1378 S1376 1.623 . S
N1378 C1379 1.341 1_545 S
C1379 C1373 1.428 . S
C1379 N1378 1.341 1_565 S
C1379 C1380 1.434 1_565 S
C1380 C1371 1.410 1_545 S
C1380 N1377 1.350 . S
C1380 C1379 1.434 1_545 S
C1381 C1382 1.369 . S
C1381 C1383 1.419 . S
C1381 H1385 0.930 . S
C1382 C1381 1.369 . S
C1382 C1391 1.429 . S
C1383 C1381 1.419 . S
C1383 C1384 1.363 . S
C1383 H1386 0.929 . S
C1384 C1383 1.363 . S
C1384 C1390 1.428 . S
H1385 C1381 0.930 . S
H1386 C1383 0.929 . S
S1387 N1388 1.613 . S
S1387 N1389 1.610 . S
N1388 S1387 1.613 . S
N1388 C1391 1.350 . S
N1389 S1387 1.610 . S
N1389 C1390 1.351 . S
C1390 C1384 1.428 . S
C1390 N1389 1.351 . S
C1390 C1391 1.434 . S
C1391 C1382 1.429 . S
C1391 N1388 1.350 . S
C1391 C1390 1.434 . S
C1392 C1393 1.369 1_556 S
C1392 C1394 1.419 . S
C1392 H1396 0.930 . S
C1393 C1392 1.369 1_554 S
C1393 C1402 1.429 . S
C1394 C1392 1.419 . S
C1394 C1395 1.363 . S
C1394 H1397 0.929 . S
C1395 C1394 1.363 . S
C1395 C1401 1.428 1_556 S
H1396 C1392 0.930 . S
H1397 C1394 0.929 . S
S1398 N1399 1.613 . S
S1398 N1400 1.610 . S
N1399 S1398 1.613 . S
N1399 C1402 1.350 . S
N1400 S1398 1.610 . S
N1400 C1401 1.351 . S
C1401 C1395 1.428 1_554 S
C1401 N1400 1.351 . S
C1401 C1402 1.434 . S
C1402 C1393 1.429 . S
C1402 N1399 1.350 . S
C1402 C1401 1.434 . S
C1403 C1404 1.369 . S
C1403 C1405 1.419 . S
C1403 H1407 0.930 . S
C1404 C1403 1.369 . S
C1404 C1413 1.429 . S
C1405 C1403 1.419 . S
C1405 C1406 1.363 . S
C1405 H1408 0.929 . S
C1406 C1405 1.363 . S
C1406 C1412 1.428 . S
H1407 C1403 0.930 . S
H1408 C1405 0.929 . S
S1409 N1410 1.613 . S
S1409 N1411 1.610 . S
N1410 S1409 1.613 . S
N1410 C1413 1.350 . S
N1411 S1409 1.610 . S
N1411 C1412 1.351 . S
C1412 C1406 1.428 . S
C1412 N1411 1.351 . S
C1412 C1413 1.434 . S
C1413 C1404 1.429 . S
C1413 N1410 1.350 . S
C1413 C1412 1.434 . S
C1414 C1415 1.369 . S
C1414 C1416 1.419 . S
C1414 H1418 0.930 . S
C1415 C1414 1.369 . S
C1415 C1424 1.429 . S
C1416 C1414 1.419 . S
C1416 C1417 1.363 . S
C1416 H1419 0.929 . S
C1417 C1416 1.363 . S
C1417 C1423 1.428 . S
H1418 C1414 0.930 . S
H1419 C1416 0.929 . S
S1420 N1421 1.613 . S
S1420 N1422 1.610 . S
N1421 S1420 1.613 . S
N1421 C1424 1.350 . S
N1422 S1420 1.610 . S
N1422 C1423 1.351 . S
C1423 C1417 1.428 . S
C1423 N1422 1.351 . S
C1423 C1424 1.434 . S
C1424 C1415 1.429 . S
C1424 N1421 1.350 . S
C1424 C1423 1.434 . S
C1425 C1426 1.369 . S
C1425 C1427 1.419 . S
C1425 H1429 0.930 . S
C1426 C1425 1.369 . S
C1426 C1435 1.429 . S
C1427 C1425 1.419 . S
C1427 C1428 1.363 . S
C1427 H1430 0.929 . S
C1428 C1427 1.363 . S
C1428 C1434 1.428 . S
H1429 C1425 0.930 . S
H1430 C1427 0.929 . S
S1431 N1432 1.613 . S
S1431 N1433 1.610 . S
N1432 S1431 1.613 . S
N1432 C1435 1.350 . S
N1433 S1431 1.610 . S
N1433 C1434 1.351 . S
C1434 C1428 1.428 . S
C1434 N1433 1.351 . S
C1434 C1435 1.434 . S
C1435 C1426 1.429 . S
C1435 N1432 1.350 . S
C1435 C1434 1.434 . S
C1436 C1437 1.369 . S
C1436 C1438 1.419 . S
C1436 H1440 0.930 . S
C1437 C1436 1.369 . S
C1437 C1446 1.429 . S
C1438 C1436 1.419 . S
C1438 C1439 1.363 . S
C1438 H1441 0.929 1_545 S
C1439 C1438 1.363 . S
C1439 C1445 1.428 . S
H1440 C1436 0.930 . S
H1441 C1438 0.929 1_565 S
S1442 N1443 1.613 . S
S1442 N1444 1.610 . S
N1443 S1442 1.613 . S
N1443 C1446 1.350 . S
N1444 S1442 1.610 . S
N1444 C1445 1.351 . S
C1445 C1439 1.428 . S
C1445 N1444 1.351 . S
C1445 C1446 1.434 . S
C1446 C1437 1.429 . S
C1446 N1443 1.350 . S
C1446 C1445 1.434 . S
C1447 C1448 1.369 . S
C1447 C1449 1.419 . S
C1447 H1451 0.930 . S
C1448 C1447 1.369 . S
C1448 C1457 1.429 . S
C1449 C1447 1.419 . S
C1449 C1450 1.363 . S
C1449 H1452 0.929 . S
C1450 C1449 1.363 . S
C1450 C1456 1.428 . S
H1451 C1447 0.930 . S
H1452 C1449 0.929 . S
S1453 N1454 1.613 . S
S1453 N1455 1.610 . S
N1454 S1453 1.613 . S
N1454 C1457 1.350 . S
N1455 S1453 1.610 . S
N1455 C1456 1.351 . S
C1456 C1450 1.428 . S
C1456 N1455 1.351 . S
C1456 C1457 1.434 . S
C1457 C1448 1.429 . S
C1457 N1454 1.350 . S
C1457 C1456 1.434 . S
C1458 C1459 1.369 . S
C1458 C1460 1.419 . S
C1458 H1462 0.930 . S
C1459 C1458 1.369 . S
C1459 C1468 1.429 . S
C1460 C1458 1.419 . S
C1460 C1461 1.363 . S
C1460 H1463 0.929 . S
C1461 C1460 1.363 . S
C1461 C1467 1.428 . S
H1462 C1458 0.930 . S
H1463 C1460 0.929 . S
S1464 N1465 1.613 . S
S1464 N1466 1.610 . S
N1465 S1464 1.613 . S
N1465 C1468 1.350 . S
N1466 S1464 1.610 . S
N1466 C1467 1.351 . S
C1467 C1461 1.428 . S
C1467 N1466 1.351 . S
C1467 C1468 1.434 . S
C1468 C1459 1.429 . S
C1468 N1465 1.350 . S
C1468 C1467 1.434 . S
C1469 C1470 1.369 . S
C1469 C1471 1.419 . S
C1469 H1473 0.930 . S
C1470 C1469 1.369 . S
C1470 C1479 1.429 . S
C1471 C1469 1.419 . S
C1471 C1472 1.363 . S
C1471 H1474 0.929 . S
C1472 C1471 1.363 . S
C1472 C1478 1.428 . S
H1473 C1469 0.930 . S
H1474 C1471 0.929 . S
S1475 N1476 1.613 . S
S1475 N1477 1.610 . S
N1476 S1475 1.613 . S
N1476 C1479 1.350 . S
N1477 S1475 1.610 . S
N1477 C1478 1.351 . S
C1478 C1472 1.428 . S
C1478 N1477 1.351 . S
C1478 C1479 1.434 . S
C1479 C1470 1.429 . S
C1479 N1476 1.350 . S
C1479 C1478 1.434 . S
C1480 C1481 1.369 . S
C1480 C1482 1.419 . S
C1480 H1484 0.930 . S
C1481 C1480 1.369 . S
C1481 C1490 1.429 . S
C1482 C1480 1.419 . S
C1482 C1483 1.363 . S
C1482 H1485 0.929 . S
C1483 C1482 1.363 . S
C1483 C1489 1.428 . S
H1484 C1480 0.930 . S
H1485 C1482 0.929 . S
S1486 N1487 1.613 . S
S1486 N1488 1.610 . S
N1487 S1486 1.613 . S
N1487 C1490 1.350 . S
N1488 S1486 1.610 . S
N1488 C1489 1.351 . S
C1489 C1483 1.428 . S
C1489 N1488 1.351 . S
C1489 C1490 1.434 . S
C1490 C1481 1.429 . S
C1490 N1487 1.350 . S
C1490 C1489 1.434 . S
C1491 C1492 1.369 . S
C1491 C1493 1.419 . S
C1491 H1495 0.930 . S
C1492 C1491 1.369 . S
C1492 C1501 1.429 . S
C1493 C1491 1.419 . S
C1493 C1494 1.363 . S
C1493 H1496 0.929 . S
C1494 C1493 1.363 . S
C1494 C1500 1.428 . S
H1495 C1491 0.930 . S
H1496 C1493 0.929 . S
S1497 N1498 1.613 . S
S1497 N1499 1.610 . S
N1498 S1497 1.613 . S
N1498 C1501 1.350 . S
N1499 S1497 1.610 . S
N1499 C1500 1.351 . S
C1500 C1494 1.428 . S
C1500 N1499 1.351 . S
C1500 C1501 1.434 . S
C1501 C1492 1.429 . S
C1501 N1498 1.350 . S
C1501 C1500 1.434 . S
C1502 C1503 1.369 . S
C1502 C1504 1.419 . S
C1502 H1506 0.930 . S
C1503 C1502 1.369 . S
C1503 C1512 1.429 1_556 S
C1504 C1502 1.419 . S
C1504 C1505 1.363 . S
C1504 H1507 0.929 . S
C1505 C1504 1.363 . S
C1505 C1511 1.428 1_556 S
H1506 C1502 0.930 . S
H1507 C1504 0.929 . S
S1508 N1509 1.613 . S
S1508 N1510 1.610 . S
N1509 S1508 1.613 . S
N1509 C1512 1.350 . S
N1510 S1508 1.610 . S
N1510 C1511 1.351 . S
C1511 C1505 1.428 1_554 S
C1511 N1510 1.351 . S
C1511 C1512 1.434 . S
C1512 C1503 1.429 1_554 S
C1512 N1509 1.350 . S
C1512 C1511 1.434 . S
C1513 C1514 1.369 . S
C1513 C1515 1.419 1_455 S
C1513 H1517 0.930 . S
C1514 C1513 1.369 . S
C1514 C1523 1.429 . S
C1515 C1513 1.419 1_655 S
C1515 C1516 1.363 . S
C1515 H1518 0.929 . S
C1516 C1515 1.363 . S
C1516 C1522 1.428 . S
H1517 C1513 0.930 . S
H1518 C1515 0.929 . S
S1519 N1520 1.613 1_655 S
S1519 N1521 1.610 . S
N1520 S1519 1.613 1_455 S
N1520 C1523 1.350 . S
N1521 S1519 1.610 . S
N1521 C1522 1.351 . S
C1522 C1516 1.428 . S
C1522 N1521 1.351 . S
C1522 C1523 1.434 1_655 S
C1523 C1514 1.429 . S
C1523 N1520 1.350 . S
C1523 C1522 1.434 1_455 S
C1524 C1525 1.369 . S
C1524 C1526 1.419 . S
C1524 H1528 0.930 . S
C1525 C1524 1.369 . S
C1525 C1534 1.429 . S
C1526 C1524 1.419 . S
C1526 C1527 1.363 . S
C1526 H1529 0.929 . S
C1527 C1526 1.363 . S
C1527 C1533 1.428 . S
H1528 C1524 0.930 . S
H1529 C1526 0.929 . S
S1530 N1531 1.613 . S
S1530 N1532 1.610 . S
N1531 S1530 1.613 . S
N1531 C1534 1.350 . S
N1532 S1530 1.610 . S
N1532 C1533 1.351 . S
C1533 C1527 1.428 . S
C1533 N1532 1.351 . S
C1533 C1534 1.434 . S
C1534 C1525 1.429 . S
C1534 N1531 1.350 . S
C1534 C1533 1.434 . S
C1535 C1536 1.369 . S
C1535 C1537 1.419 . S
C1535 H1539 0.930 . S
C1536 C1535 1.369 . S
C1536 C1545 1.429 . S
C1537 C1535 1.419 . S
C1537 C1538 1.363 . S
C1537 H1540 0.929 1_455 S
C1538 C1537 1.363 . S
C1538 C1544 1.428 . S
H1539 C1535 0.930 . S
H1540 C1537 0.929 1_655 S
S1541 N1542 1.613 . S
S1541 N1543 1.610 . S
N1542 S1541 1.613 . S
N1542 C1545 1.350 . S
N1543 S1541 1.610 . S
N1543 C1544 1.351 . S
C1544 C1538 1.428 . S
C1544 N1543 1.351 . S
C1544 C1545 1.434 . S
C1545 C1536 1.429 . S
C1545 N1542 1.350 . S
C1545 C1544 1.434 . S
C1546 C1547 1.369 . S
C1546 C1548 1.419 . S
C1546 H1550 0.930 1_455 S
C1547 C1546 1.369 . S
C1547 C1556 1.429 . S
C1548 C1546 1.419 . S
C1548 C1549 1.363 . S
C1548 H1551 0.929 . S
C1549 C1548 1.363 . S
C1549 C1555 1.428 . S
H1550 C1546 0.930 1_655 S
H1551 C1548 0.929 . S
S1552 N1553 1.613 . S
S1552 N1554 1.610 . S
N1553 S1552 1.613 . S
N1553 C1556 1.350 . S
N1554 S1552 1.610 . S
N1554 C1555 1.351 . S
C1555 C1549 1.428 . S
C1555 N1554 1.351 . S
C1555 C1556 1.434 . S
C1556 C1547 1.429 . S
C1556 N1553 1.350 . S
C1556 C1555 1.434 . S
C1557 C1558 1.369 . S
C1557 C1559 1.419 . S
C1557 H1561 0.930 . S
C1558 C1557 1.369 . S
C1558 C1567 1.429 . S
C1559 C1557 1.419 . S
C1559 C1560 1.363 . S
C1559 H1562 0.929 . S
C1560 C1559 1.363 . S
C1560 C1566 1.428 . S
H1561 C1557 0.930 . S
H1562 C1559 0.929 . S
S1563 N1564 1.613 . S
S1563 N1565 1.610 . S
N1564 S1563 1.613 . S
N1564 C1567 1.350 . S
N1565 S1563 1.610 . S
N1565 C1566 1.351 . S
C1566 C1560 1.428 . S
C1566 N1565 1.351 . S
C1566 C1567 1.434 . S
C1567 C1558 1.429 . S
C1567 N1564 1.350 . S
C1567 C1566 1.434 . S
C1568 C1569 1.369 . S
C1568 C1570 1.419 . S
C1568 H1572 0.930 . S
C1569 C1568 1.369 . S
C1569 C1578 1.429 . S
C1570 C1568 1.419 . S
C1570 C1571 1.363 . S
C1570 H1573 0.929 . S
C1571 C1570 1.363 . S
C1571 C1577 1.428 . S
H1572 C1568 0.930 . S
H1573 C1570 0.929 . S
S1574 N1575 1.613 . S
S1574 N1576 1.610 . S
N1575 S1574 1.613 . S
N1575 C1578 1.350 . S
N1576 S1574 1.610 . S
N1576 C1577 1.351 . S
C1577 C1571 1.428 . S
C1577 N1576 1.351 . S
C1577 C1578 1.434 . S
C1578 C1569 1.429 . S
C1578 N1575 1.350 . S
C1578 C1577 1.434 . S
C1579 C1580 1.369 . S
C1579 C1581 1.419 . S
C1579 H1583 0.930 . S
C1580 C1579 1.369 . S
C1580 C1589 1.429 . S
C1581 C1579 1.419 . S
C1581 C1582 1.363 . S
C1581 H1584 0.929 . S
C1582 C1581 1.363 . S
C1582 C1588 1.428 . S
H1583 C1579 0.930 . S
H1584 C1581 0.929 . S
S1585 N1586 1.613 . S
S1585 N1587 1.610 . S
N1586 S1585 1.613 . S
N1586 C1589 1.350 . S
N1587 S1585 1.610 . S
N1587 C1588 1.351 . S
C1588 C1582 1.428 . S
C1588 N1587 1.351 . S
C1588 C1589 1.434 . S
C1589 C1580 1.429 . S
C1589 N1586 1.350 . S
C1589 C1588 1.434 . S
C1590 C1591 1.369 . S
C1590 C1592 1.419 . S
C1590 H1594 0.930 . S
C1591 C1590 1.369 . S
C1591 C1600 1.429 . S
C1592 C1590 1.419 . S
C1592 C1593 1.363 . S
C1592 H1595 0.929 . S
C1593 C1592 1.363 . S
C1593 C1599 1.428 . S
H1594 C1590 0.930 . S
H1595 C1592 0.929 . S
S1596 N1597 1.613 . S
S1596 N1598 1.610 . S
N1597 S1596 1.613 . S
N1597 C1600 1.350 . S
N1598 S1596 1.610 . S
N1598 C1599 1.351 . S
C1599 C1593 1.428 . S
C1599 N1598 1.351 . S
C1599 C1600 1.434 . S
C1600 C1591 1.429 . S
C1600 N1597 1.350 . S
C1600 C1599 1.434 . S
C1601 C1602 1.369 . S
C1601 C1603 1.419 . S
C1601 H1605 0.930 . S
C1602 C1601 1.369 . S
C1602 C1611 1.429 . S
C1603 C1601 1.419 . S
C1603 C1604 1.363 . S
C1603 H1606 0.929 . S
C1604 C1603 1.363 . S
C1604 C1610 1.428 . S
H1605 C1601 0.930 . S
H1606 C1603 0.929 . S
S1607 N1608 1.613 . S
S1607 N1609 1.610 . S
N1608 S1607 1.613 . S
N1608 C1611 1.350 . S
N1609 S1607 1.610 . S
N1609 C1610 1.351 . S
C1610 C1604 1.428 . S
C1610 N1609 1.351 . S
C1610 C1611 1.434 . S
C1611 C1602 1.429 . S
C1611 N1608 1.350 . S
C1611 C1610 1.434 . S
C1612 C1613 1.369 . S
C1612 C1614 1.419 . S
C1612 H1616 0.930 . S
C1613 C1612 1.369 . S
C1613 C1622 1.429 . S
C1614 C1612 1.419 . S
C1614 C1615 1.363 . S
C1614 H1617 0.929 . S
C1615 C1614 1.363 . S
C1615 C1621 1.428 . S
H1616 C1612 0.930 . S
H1617 C1614 0.929 . S
S1618 N1619 1.613 . S
S1618 N1620 1.610 . S
N1619 S1618 1.613 . S
N1619 C1622 1.350 . S
N1620 S1618 1.610 . S
N1620 C1621 1.351 . S
C1621 C1615 1.428 . S
C1621 N1620 1.351 . S
C1621 C1622 1.434 . S
C1622 C1613 1.429 . S
C1622 N1619 1.350 . S
C1622 C1621 1.434 . S
C1623 C1624 1.369 . S
C1623 C1625 1.419 . S
C1623 H1627 0.930 . S
C1624 C1623 1.369 . S
C1624 C1633 1.429 . S
C1625 C1623 1.419 . S
C1625 C1626 1.363 . S
C1625 H1628 0.929 . S
C1626 C1625 1.363 . S
C1626 C1632 1.428 . S
H1627 C1623 0.930 . S
H1628 C1625 0.929 . S
S1629 N1630 1.613 . S
S1629 N1631 1.610 . S
N1630 S1629 1.613 . S
N1630 C1633 1.350 . S
N1631 S1629 1.610 . S
N1631 C1632 1.351 . S
C1632 C1626 1.428 . S
C1632 N1631 1.351 . S
C1632 C1633 1.434 . S
C1633 C1624 1.429 . S
C1633 N1630 1.350 . S
C1633 C1632 1.434 . S
C1634 C1635 1.369 . S
C1634 C1636 1.419 . S
C1634 H1638 0.930 . S
C1635 C1634 1.369 . S
C1635 C1644 1.429 . S
C1636 C1634 1.419 . S
C1636 C1637 1.363 . S
C1636 H1639 0.929 . S
C1637 C1636 1.363 . S
C1637 C1643 1.428 . S
H1638 C1634 0.930 . S
H1639 C1636 0.929 . S
S1640 N1641 1.613 . S
S1640 N1642 1.610 . S
N1641 S1640 1.613 . S
N1641 C1644 1.350 . S
N1642 S1640 1.610 . S
N1642 C1643 1.351 . S
C1643 C1637 1.428 . S
C1643 N1642 1.351 . S
C1643 C1644 1.434 . S
C1644 C1635 1.429 . S
C1644 N1641 1.350 . S
C1644 C1643 1.434 . S
C1645 C1646 1.369 . S
C1645 C1647 1.419 . S
C1645 H1649 0.930 . S
C1646 C1645 1.369 . S
C1646 C1655 1.429 . S
C1647 C1645 1.419 . S
C1647 C1648 1.363 . S
C1647 H1650 0.929 . S
C1648 C1647 1.363 . S
C1648 C1654 1.428 . S
H1649 C1645 0.930 . S
H1650 C1647 0.929 . S
S1651 N1652 1.613 . S
S1651 N1653 1.610 . S
N1652 S1651 1.613 . S
N1652 C1655 1.350 . S
N1653 S1651 1.610 . S
N1653 C1654 1.351 . S
C1654 C1648 1.428 . S
C1654 N1653 1.351 . S
C1654 C1655 1.434 . S
C1655 C1646 1.429 . S
C1655 N1652 1.350 . S
C1655 C1654 1.434 . S
C1656 C1657 1.369 . S
C1656 C1658 1.419 . S
C1656 H1660 0.930 . S
C1657 C1656 1.369 . S
C1657 C1666 1.429 . S
C1658 C1656 1.419 . S
C1658 C1659 1.363 . S
C1658 H1661 0.929 . S
C1659 C1658 1.363 . S
C1659 C1665 1.428 . S
H1660 C1656 0.930 . S
H1661 C1658 0.929 . S
S1662 N1663 1.613 . S
S1662 N1664 1.610 . S
N1663 S1662 1.613 . S
N1663 C1666 1.350 . S
N1664 S1662 1.610 . S
N1664 C1665 1.351 . S
C1665 C1659 1.428 . S
C1665 N1664 1.351 . S
C1665 C1666 1.434 . S
C1666 C1657 1.429 . S
C1666 N1663 1.350 . S
C1666 C1665 1.434 . S
C1667 C1668 1.369 . S
C1667 C1669 1.419 . S
C1667 H1671 0.930 . S
C1668 C1667 1.369 . S
C1668 C1677 1.429 . S
C1669 C1667 1.419 . S
C1669 C1670 1.363 . S
C1669 H1672 0.929 . S
C1670 C1669 1.363 . S
C1670 C1676 1.428 . S
H1671 C1667 0.930 . S
H1672 C1669 0.929 . S
S1673 N1674 1.613 . S
S1673 N1675 1.610 . S
N1674 S1673 1.613 . S
N1674 C1677 1.350 . S
N1675 S1673 1.610 . S
N1675 C1676 1.351 . S
C1676 C1670 1.428 . S
C1676 N1675 1.351 . S
C1676 C1677 1.434 . S
C1677 C1668 1.429 . S
C1677 N1674 1.350 . S
C1677 C1676 1.434 . S
C1678 C1679 1.369 . S
C1678 C1680 1.419 . S
C1678 H1682 0.930 . S
C1679 C1678 1.369 . S
C1679 C1688 1.429 . S
C1680 C1678 1.419 . S
C1680 C1681 1.363 . S
C1680 H1683 0.929 . S
C1681 C1680 1.363 . S
C1681 C1687 1.428 . S
H1682 C1678 0.930 . S
H1683 C1680 0.929 . S
S1684 N1685 1.613 . S
S1684 N1686 1.610 . S
N1685 S1684 1.613 . S
N1685 C1688 1.350 . S
N1686 S1684 1.610 . S
N1686 C1687 1.351 . S
C1687 C1681 1.428 . S
C1687 N1686 1.351 . S
C1687 C1688 1.434 . S
C1688 C1679 1.429 . S
C1688 N1685 1.350 . S
C1688 C1687 1.434 . S
C1689 C1690 1.369 1_566 S
C1689 C1691 1.419 . S
C1689 H1693 0.930 . S
C1690 C1689 1.369 1_544 S
C1690 C1699 1.429 . S
C1691 C1689 1.419 . S
C1691 C1692 1.363 1_566 S
C1691 H1694 0.929 . S
C1692 C1691 1.363 1_544 S
C1692 C1698 1.428 . S
H1693 C1689 0.930 . S
H1694 C1691 0.929 . S
S1695 N1696 1.613 . S
S1695 N1697 1.610 . S
N1696 S1695 1.613 . S
N1696 C1699 1.350 . S
N1697 S1695 1.610 . S
N1697 C1698 1.351 . S
C1698 C1692 1.428 . S
C1698 N1697 1.351 . S
C1698 C1699 1.434 . S
C1699 C1690 1.429 . S
C1699 N1696 1.350 . S
C1699 C1698 1.434 . S
C1700 C1701 1.369 . S
C1700 C1702 1.419 . S
C1700 H1704 0.930 . S
C1701 C1700 1.369 . S
C1701 C1710 1.429 . S
C1702 C1700 1.419 . S
C1702 C1703 1.363 . S
C1702 H1705 0.929 . S
C1703 C1702 1.363 . S
C1703 C1709 1.428 . S
H1704 C1700 0.930 . S
H1705 C1702 0.929 . S
S1706 N1707 1.613 . S
S1706 N1708 1.610 . S
N1707 S1706 1.613 . S
N1707 C1710 1.350 . S
N1708 S1706 1.610 . S
N1708 C1709 1.351 . S
C1709 C1703 1.428 . S
C1709 N1708 1.351 . S
C1709 C1710 1.434 . S
C1710 C1701 1.429 . S
C1710 N1707 1.350 . S
C1710 C1709 1.434 . S
C1711 C1712 1.369 . S
C1711 C1713 1.419 . S
C1711 H1715 0.930 1_554 S
C1712 C1711 1.369 . S
C1712 C1721 1.429 . S
C1713 C1711 1.419 . S
C1713 C1714 1.363 . S
C1713 H1716 0.929 . S
C1714 C1713 1.363 . S
C1714 C1720 1.428 . S
H1715 C1711 0.930 1_556 S
H1716 C1713 0.929 . S
S1717 N1718 1.613 . S
S1717 N1719 1.610 . S
N1718 S1717 1.613 . S
N1718 C1721 1.350 . S
N1719 S1717 1.610 . S
N1719 C1720 1.351 . S
C1720 C1714 1.428 . S
C1720 N1719 1.351 . S
C1720 C1721 1.434 . S
C1721 C1712 1.429 . S
C1721 N1718 1.350 . S
C1721 C1720 1.434 . S
C1722 C1723 1.369 . S
C1722 C1724 1.419 . S
C1722 H1726 0.930 . S
C1723 C1722 1.369 . S
C1723 C1732 1.429 . S
C1724 C1722 1.419 . S
C1724 C1725 1.363 . S
C1724 H1727 0.929 . S
C1725 C1724 1.363 . S
C1725 C1731 1.428 . S
H1726 C1722 0.930 . S
H1727 C1724 0.929 . S
S1728 N1729 1.613 . S
S1728 N1730 1.610 . S
N1729 S1728 1.613 . S
N1729 C1732 1.350 . S
N1730 S1728 1.610 . S
N1730 C1731 1.351 . S
C1731 C1725 1.428 . S
C1731 N1730 1.351 . S
C1731 C1732 1.434 . S
C1732 C1723 1.429 . S
C1732 N1729 1.350 . S
C1732 C1731 1.434 . S
C1733 C1734 1.369 . S
C1733 C1735 1.419 . S
C1733 H1737 0.930 . S
C1734 C1733 1.369 . S
C1734 C1743 1.429 . S
C1735 C1733 1.419 . S
C1735 C1736 1.363 . S
C1735 H1738 0.929 . S
C1736 C1735 1.363 . S
C1736 C1742 1.428 . S
H1737 C1733 0.930 . S
H1738 C1735 0.929 . S
S1739 N1740 1.613 . S
S1739 N1741 1.610 . S
N1740 S1739 1.613 . S
N1740 C1743 1.350 . S
N1741 S1739 1.610 . S
N1741 C1742 1.351 . S
C1742 C1736 1.428 . S
C1742 N1741 1.351 . S
C1742 C1743 1.434 . S
C1743 C1734 1.429 . S
C1743 N1740 1.350 . S
C1743 C1742 1.434 . S
C1744 C1745 1.369 . S
C1744 C1746 1.419 . S
C1744 H1748 0.930 . S
C1745 C1744 1.369 . S
C1745 C1754 1.429 . S
C1746 C1744 1.419 . S
C1746 C1747 1.363 . S
C1746 H1749 0.929 . S
C1747 C1746 1.363 . S
C1747 C1753 1.428 . S
H1748 C1744 0.930 . S
H1749 C1746 0.929 . S
S1750 N1751 1.613 . S
S1750 N1752 1.610 . S
N1751 S1750 1.613 . S
N1751 C1754 1.350 . S
N1752 S1750 1.610 . S
N1752 C1753 1.351 . S
C1753 C1747 1.428 . S
C1753 N1752 1.351 . S
C1753 C1754 1.434 . S
C1754 C1745 1.429 . S
C1754 N1751 1.350 . S
C1754 C1753 1.434 . S
C1755 C1756 1.369 . S
C1755 C1757 1.419 . S
C1755 H1759 0.930 . S
C1756 C1755 1.369 . S
C1756 C1765 1.429 . S
C1757 C1755 1.419 . S
C1757 C1758 1.363 . S
C1757 H1760 0.929 . S
C1758 C1757 1.363 . S
C1758 C1764 1.428 . S
H1759 C1755 0.930 . S
H1760 C1757 0.929 . S
S1761 N1762 1.613 . S
S1761 N1763 1.610 . S
N1762 S1761 1.613 . S
N1762 C1765 1.350 . S
N1763 S1761 1.610 . S
N1763 C1764 1.351 . S
C1764 C1758 1.428 . S
C1764 N1763 1.351 . S
C1764 C1765 1.434 . S
C1765 C1756 1.429 . S
C1765 N1762 1.350 . S
C1765 C1764 1.434 . S
C1766 C1767 1.369 . S
C1766 C1768 1.419 . S
C1766 H1770 0.930 . S
C1767 C1766 1.369 . S
C1767 C1776 1.429 . S
C1768 C1766 1.419 . S
C1768 C1769 1.363 . S
C1768 H1771 0.929 . S
C1769 C1768 1.363 . S
C1769 C1775 1.428 . S
H1770 C1766 0.930 . S
H1771 C1768 0.929 . S
S1772 N1773 1.613 . S
S1772 N1774 1.610 . S
N1773 S1772 1.613 . S
N1773 C1776 1.350 . S
N1774 S1772 1.610 . S
N1774 C1775 1.351 . S
C1775 C1769 1.428 . S
C1775 N1774 1.351 . S
C1775 C1776 1.434 . S
C1776 C1767 1.429 . S
C1776 N1773 1.350 . S
C1776 C1775 1.434 . S
C1777 C1778 1.369 . S
C1777 C1779 1.419 . S
C1777 H1781 0.930 . S
C1778 C1777 1.369 . S
C1778 C1787 1.429 . S
C1779 C1777 1.419 . S
C1779 C1780 1.363 . S
C1779 H1782 0.929 . S
C1780 C1779 1.363 . S
C1780 C1786 1.428 . S
H1781 C1777 0.930 . S
H1782 C1779 0.929 . S
S1783 N1784 1.613 . S
S1783 N1785 1.610 . S
N1784 S1783 1.613 . S
N1784 C1787 1.350 . S
N1785 S1783 1.610 . S
N1785 C1786 1.351 . S
C1786 C1780 1.428 . S
C1786 N1785 1.351 . S
C1786 C1787 1.434 . S
C1787 C1778 1.429 . S
C1787 N1784 1.350 . S
C1787 C1786 1.434 . S
C1788 C1789 1.369 . S
C1788 C1790 1.419 . S
C1788 H1792 0.930 . S
C1789 C1788 1.369 . S
C1789 C1798 1.429 . S
C1790 C1788 1.419 . S
C1790 C1791 1.363 . S
C1790 H1793 0.929 . S
C1791 C1790 1.363 . S
C1791 C1797 1.428 . S
H1792 C1788 0.930 . S
H1793 C1790 0.929 . S
S1794 N1795 1.613 . S
S1794 N1796 1.610 . S
N1795 S1794 1.613 . S
N1795 C1798 1.350 . S
N1796 S1794 1.610 . S
N1796 C1797 1.351 . S
C1797 C1791 1.428 . S
C1797 N1796 1.351 . S
C1797 C1798 1.434 . S
C1798 C1789 1.429 . S
C1798 N1795 1.350 . S
C1798 C1797 1.434 . S
C1799 C1800 1.369 . S
C1799 C1801 1.419 . S
C1799 H1803 0.930 . S
C1800 C1799 1.369 . S
C1800 C1809 1.429 . S
C1801 C1799 1.419 . S
C1801 C1802 1.363 . S
C1801 H1804 0.929 . S
C1802 C1801 1.363 . S
C1802 C1808 1.428 . S
H1803 C1799 0.930 . S
H1804 C1801 0.929 . S
S1805 N1806 1.613 . S
S1805 N1807 1.610 . S
N1806 S1805 1.613 . S
N1806 C1809 1.350 . S
N1807 S1805 1.610 . S
N1807 C1808 1.351 . S
C1808 C1802 1.428 . S
C1808 N1807 1.351 . S
C1808 C1809 1.434 . S
C1809 C1800 1.429 . S
C1809 N1806 1.350 . S
C1809 C1808 1.434 . S
C1810 C1811 1.369 . S
C1810 C1812 1.419 . S
C1810 H1814 0.930 . S
C1811 C1810 1.369 . S
C1811 C1820 1.429 . S
C1812 C1810 1.419 . S
C1812 C1813 1.363 . S
C1812 H1815 0.929 . S
C1813 C1812 1.363 . S
C1813 C1819 1.428 . S
H1814 C1810 0.930 . S
H1815 C1812 0.929 . S
S1816 N1817 1.613 . S
S1816 N1818 1.610 . S
N1817 S1816 1.613 . S
N1817 C1820 1.350 . S
N1818 S1816 1.610 . S
N1818 C1819 1.351 . S
C1819 C1813 1.428 . S
C1819 N1818 1.351 . S
C1819 C1820 1.434 . S
C1820 C1811 1.429 . S
C1820 N1817 1.350 . S
C1820 C1819 1.434 . S
C1821 C1822 1.369 . S
C1821 C1823 1.419 . S
C1821 H1825 0.930 . S
C1822 C1821 1.369 . S
C1822 C1831 1.429 . S
C1823 C1821 1.419 . S
C1823 C1824 1.363 . S
C1823 H1826 0.929 . S
C1824 C1823 1.363 . S
C1824 C1830 1.428 . S
H1825 C1821 0.930 . S
H1826 C1823 0.929 . S
S1827 N1828 1.613 . S
S1827 N1829 1.610 . S
N1828 S1827 1.613 . S
N1828 C1831 1.350 . S
N1829 S1827 1.610 . S
N1829 C1830 1.351 . S
C1830 C1824 1.428 . S
C1830 N1829 1.351 . S
C1830 C1831 1.434 . S
C1831 C1822 1.429 . S
C1831 N1828 1.350 . S
C1831 C1830 1.434 . S
C1832 C1833 1.369 . S
C1832 C1834 1.419 . S
C1832 H1836 0.930 . S
C1833 C1832 1.369 . S
C1833 C1842 1.429 . S
C1834 C1832 1.419 . S
C1834 C1835 1.363 . S
C1834 H1837 0.929 . S
C1835 C1834 1.363 . S
C1835 C1841 1.428 . S
H1836 C1832 0.930 . S
H1837 C1834 0.929 . S
S1838 N1839 1.613 . S
S1838 N1840 1.610 . S
N1839 S1838 1.613 . S
N1839 C1842 1.350 . S
N1840 S1838 1.610 . S
N1840 C1841 1.351 . S
C1841 C1835 1.428 . S
C1841 N1840 1.351 . S
C1841 C1842 1.434 . S
C1842 C1833 1.429 . S
C1842 N1839 1.350 . S
C1842 C1841 1.434 . S
C1843 C1844 1.369 . S
C1843 C1845 1.419 . S
C1843 H1847 0.930 . S
C1844 C1843 1.369 . S
C1844 C1853 1.429 . S
C1845 C1843 1.419 . S
C1845 C1846 1.363 . S
C1845 H1848 0.929 . S
C1846 C1845 1.363 . S
C1846 C1852 1.428 . S
H1847 C1843 0.930 . S
H1848 C1845 0.929 . S
S1849 N1850 1.613 . S
S1849 N1851 1.610 . S
N1850 S1849 1.613 . S
N1850 C1853 1.350 . S
N1851 S1849 1.610 . S
N1851 C1852 1.351 . S
C1852 C1846 1.428 . S
C1852 N1851 1.351 . S
C1852 C1853 1.434 . S
C1853 C1844 1.429 . S
C1853 N1850 1.350 . S
C1853 C1852 1.434 . S
C1854 C1855 1.369 . S
C1854 C1856 1.419 1_655 S
C1854 H1858 0.930 . S
C1855 C1854 1.369 . S
C1855 C1864 1.429 1_655 S
C1856 C1854 1.419 1_455 S
C1856 C1857 1.363 . S
C1856 H1859 0.928 . S
C1857 C1856 1.363 . S
C1857 C1863 1.428 . S
H1858 C1854 0.930 . S
H1859 C1856 0.928 . S
S1860 N1861 1.613 . S
S1860 N1862 1.610 . S
N1861 S1860 1.613 . S
N1861 C1864 1.350 . S
N1862 S1860 1.610 . S
N1862 C1863 1.351 . S
C1863 C1857 1.428 . S
C1863 N1862 1.351 . S
C1863 C1864 1.434 . S
C1864 C1855 1.429 1_455 S
C1864 N1861 1.350 . S
C1864 C1863 1.434 . S
C1865 C1866 1.369 . S
C1865 C1867 1.419 . S
C1865 H1869 0.930 . S
C1866 C1865 1.369 . S
C1866 C1875 1.429 . S
C1867 C1865 1.419 . S
C1867 C1868 1.363 . S
C1867 H1870 0.929 . S
C1868 C1867 1.363 . S
C1868 C1874 1.428 . S
H1869 C1865 0.930 . S
H1870 C1867 0.929 . S
S1871 N1872 1.613 . S
S1871 N1873 1.610 . S
N1872 S1871 1.613 . S
N1872 C1875 1.350 . S
N1873 S1871 1.610 . S
N1873 C1874 1.351 . S
C1874 C1868 1.428 . S
C1874 N1873 1.351 . S
C1874 C1875 1.434 . S
C1875 C1866 1.429 . S
C1875 N1872 1.350 . S
C1875 C1874 1.434 . S
C1876 C1877 1.369 . S
C1876 C1878 1.419 . S
C1876 H1880 0.930 . S
C1877 C1876 1.369 . S
C1877 C1886 1.429 . S
C1878 C1876 1.419 . S
C1878 C1879 1.363 . S
C1878 H1881 0.929 . S
C1879 C1878 1.363 . S
C1879 C1885 1.428 . S
H1880 C1876 0.930 . S
H1881 C1878 0.929 . S
S1882 N1883 1.613 . S
S1882 N1884 1.610 . S
N1883 S1882 1.613 . S
N1883 C1886 1.350 . S
N1884 S1882 1.610 . S
N1884 C1885 1.351 . S
C1885 C1879 1.428 . S
C1885 N1884 1.351 . S
C1885 C1886 1.434 . S
C1886 C1877 1.429 . S
C1886 N1883 1.350 . S
C1886 C1885 1.434 . S
C1887 C1888 1.369 . S
C1887 C1889 1.419 . S
C1887 H1891 0.930 . S
C1888 C1887 1.369 . S
C1888 C1897 1.429 . S
C1889 C1887 1.419 . S
C1889 C1890 1.363 . S
C1889 H1892 0.929 . S
C1890 C1889 1.363 . S
C1890 C1896 1.428 . S
H1891 C1887 0.930 . S
H1892 C1889 0.929 . S
S1893 N1894 1.613 . S
S1893 N1895 1.610 . S
N1894 S1893 1.613 . S
N1894 C1897 1.350 . S
N1895 S1893 1.610 . S
N1895 C1896 1.351 . S
C1896 C1890 1.428 . S
C1896 N1895 1.351 . S
C1896 C1897 1.434 . S
C1897 C1888 1.429 . S
C1897 N1894 1.350 . S
C1897 C1896 1.434 . S
C1898 C1899 1.369 . S
C1898 C1900 1.419 . S
C1898 H1902 0.930 . S
C1899 C1898 1.369 . S
C1899 C1908 1.429 . S
C1900 C1898 1.419 . S
C1900 C1901 1.363 . S
C1900 H1903 0.929 . S
C1901 C1900 1.363 . S
C1901 C1907 1.428 . S
H1902 C1898 0.930 . S
H1903 C1900 0.929 . S
S1904 N1905 1.613 1_455 S
S1904 N1906 1.610 . S
N1905 S1904 1.613 1_655 S
N1905 C1908 1.350 . S
N1906 S1904 1.610 . S
N1906 C1907 1.351 1_455 S
C1907 C1901 1.428 . S
C1907 N1906 1.351 1_655 S
C1907 C1908 1.434 . S
C1908 C1899 1.429 . S
C1908 N1905 1.350 . S
C1908 C1907 1.434 . S
C1909 C1910 1.369 . S
C1909 C1911 1.419 . S
C1909 H1913 0.930 . S
C1910 C1909 1.369 . S
C1910 C1919 1.429 . S
C1911 C1909 1.419 . S
C1911 C1912 1.363 . S
C1911 H1914 0.929 . S
C1912 C1911 1.363 . S
C1912 C1918 1.428 . S
H1913 C1909 0.930 . S
H1914 C1911 0.929 . S
S1915 N1916 1.613 . S
S1915 N1917 1.610 . S
N1916 S1915 1.613 . S
N1916 C1919 1.350 . S
N1917 S1915 1.610 . S
N1917 C1918 1.351 . S
C1918 C1912 1.428 . S
C1918 N1917 1.351 . S
C1918 C1919 1.434 . S
C1919 C1910 1.429 . S
C1919 N1916 1.350 . S
C1919 C1918 1.434 . S
C1920 C1921 1.369 . S
C1920 C1922 1.419 . S
C1920 H1924 0.930 . S
C1921 C1920 1.369 . S
C1921 C1930 1.429 . S
C1922 C1920 1.419 . S
C1922 C1923 1.363 . S
C1922 H1925 0.929 . S
C1923 C1922 1.363 . S
C1923 C1929 1.428 . S
H1924 C1920 0.930 . S
H1925 C1922 0.929 . S
S1926 N1927 1.613 . S
S1926 N1928 1.610 . S
N1927 S1926 1.613 . S
N1927 C1930 1.350 . S
N1928 S1926 1.610 . S
N1928 C1929 1.351 . S
C1929 C1923 1.428 . S
C1929 N1928 1.351 . S
C1929 C1930 1.434 . S
C1930 C1921 1.429 . S
C1930 N1927 1.350 . S
C1930 C1929 1.434 . S
C1931 C1932 1.369 . S
C1931 C1933 1.419 1_565 S
C1931 H1935 0.930 . S
C1932 C1931 1.369 . S
C1932 C1941 1.429 . S
C1933 C1931 1.419 1_545 S
C1933 C1934 1.363 . S
C1933 H1936 0.929 . S
C1934 C1933 1.363 . S
C1934 C1940 1.428 1_545 S
H1935 C1931 0.930 . S
H1936 C1933 0.929 . S
S1937 N1938 1.613 . S
S1937 N1939 1.610 . S
N1938 S1937 1.613 . S
N1938 C1941 1.350 . S
N1939 S1937 1.610 . S
N1939 C1940 1.351 . S
C1940 C1934 1.428 1_565 S
C1940 N1939 1.351 . S
C1940 C1941 1.434 . S
C1941 C1932 1.429 . S
C1941 N1938 1.350 . S
C1941 C1940 1.434 . S
C1942 C1943 1.369 . S
C1942 C1944 1.419 . S
C1942 H1946 0.930 . S
C1943 C1942 1.369 . S
C1943 C1952 1.429 . S
C1944 C1942 1.419 . S
C1944 C1945 1.363 . S
C1944 H1947 0.929 . S
C1945 C1944 1.363 . S
C1945 C1951 1.428 . S
H1946 C1942 0.930 . S
H1947 C1944 0.929 . S
S1948 N1949 1.613 . S
S1948 N1950 1.610 . S
N1949 S1948 1.613 . S
N1949 C1952 1.350 . S
N1950 S1948 1.610 . S
N1950 C1951 1.351 . S
C1951 C1945 1.428 . S
C1951 N1950 1.351 . S
C1951 C1952 1.434 . S
C1952 C1943 1.429 . S
C1952 N1949 1.350 . S
C1952 C1951 1.434 . S
C1953 C1954 1.369 . S
C1953 C1955 1.419 . S
C1953 H1957 0.930 . S
C1954 C1953 1.369 . S
C1954 C1963 1.429 1_554 S
C1955 C1953 1.419 . S
C1955 C1956 1.363 . S
C1955 H1958 0.929 . S
C1956 C1955 1.363 . S
C1956 C1962 1.428 1_554 S
H1957 C1953 0.930 . S
H1958 C1955 0.929 . S
S1959 N1960 1.613 . S
S1959 N1961 1.610 . S
N1960 S1959 1.613 . S
N1960 C1963 1.350 . S
N1961 S1959 1.610 . S
N1961 C1962 1.351 . S
C1962 C1956 1.428 1_556 S
C1962 N1961 1.351 . S
C1962 C1963 1.434 . S
C1963 C1954 1.429 1_556 S
C1963 N1960 1.350 . S
C1963 C1962 1.434 . S
C1964 C1965 1.369 . S
C1964 C1966 1.419 . S
C1964 H1968 0.930 . S
C1965 C1964 1.369 . S
C1965 C1974 1.429 . S
C1966 C1964 1.419 . S
C1966 C1967 1.363 . S
C1966 H1969 0.929 . S
C1967 C1966 1.363 . S
C1967 C1973 1.428 . S
H1968 C1964 0.930 . S
H1969 C1966 0.929 . S
S1970 N1971 1.613 . S
S1970 N1972 1.610 . S
N1971 S1970 1.613 . S
N1971 C1974 1.350 . S
N1972 S1970 1.610 . S
N1972 C1973 1.351 . S
C1973 C1967 1.428 . S
C1973 N1972 1.351 . S
C1973 C1974 1.434 . S
C1974 C1965 1.429 . S
C1974 N1971 1.350 . S
C1974 C1973 1.434 . S
C1975 C1976 1.369 . S
C1975 C1977 1.419 . S
C1975 H1979 0.930 . S
C1976 C1975 1.369 . S
C1976 C1985 1.429 1_554 S
C1977 C1975 1.419 . S
C1977 C1978 1.363 1_554 S
C1977 H1980 0.929 . S
C1978 C1977 1.363 1_556 S
C1978 C1984 1.428 . S
H1979 C1975 0.930 . S
H1980 C1977 0.929 . S
S1981 N1982 1.613 . S
S1981 N1983 1.610 . S
N1982 S1981 1.613 . S
N1982 C1985 1.350 . S
N1983 S1981 1.610 . S
N1983 C1984 1.351 . S
C1984 C1978 1.428 . S
C1984 N1983 1.351 . S
C1984 C1985 1.434 . S
C1985 C1976 1.429 1_556 S
C1985 N1982 1.350 . S
C1985 C1984 1.434 . S
C1986 C1987 1.369 . S
C1986 C1988 1.419 . S
C1986 H1990 0.930 . S
C1987 C1986 1.369 . S
C1987 C1996 1.429 . S
C1988 C1986 1.419 . S
C1988 C1989 1.363 . S
C1988 H1991 0.929 . S
C1989 C1988 1.363 . S
C1989 C1995 1.428 . S
H1990 C1986 0.930 . S
H1991 C1988 0.929 . S
S1992 N1993 1.613 . S
S1992 N1994 1.610 . S
N1993 S1992 1.613 . S
N1993 C1996 1.350 . S
N1994 S1992 1.610 . S
N1994 C1995 1.351 . S
C1995 C1989 1.428 . S
C1995 N1994 1.351 . S
C1995 C1996 1.434 . S
C1996 C1987 1.429 . S
C1996 N1993 1.350 . S
C1996 C1995 1.434 . S
C1997 C1998 1.369 . S
C1997 C1999 1.419 . S
C1997 H2001 0.930 . S
C1998 C1997 1.369 . S
C1998 C2007 1.429 . S
C1999 C1997 1.419 . S
C1999 C2000 1.363 . S
C1999 H2002 0.929 . S
C2000 C1999 1.363 . S
C2000 C2006 1.428 . S
H2001 C1997 0.930 . S
H2002 C1999 0.929 . S
S2003 N2004 1.613 . S
S2003 N2005 1.610 . S
N2004 S2003 1.613 . S
N2004 C2007 1.350 . S
N2005 S2003 1.610 . S
N2005 C2006 1.351 . S
C2006 C2000 1.428 . S
C2006 N2005 1.351 . S
C2006 C2007 1.434 . S
C2007 C1998 1.429 . S
C2007 N2004 1.350 . S
C2007 C2006 1.434 . S
C953 C101 2.403 . S
C955 C322 2.413 1_556 S
C964 C57 2.172 . S
C966 C370 2.218 . S
C975 C73 1.450 . S
C977 C402 1.508 . S
C988 C447 1.371 . S
C986 C78 1.319 . S
C997 C21 1.465 . S
C999 C487 1.540 . S
C1010 C518 0.721 . S
C1008 C31 0.719 . S
C1021 C570 1.644 . S
C1019 C49 1.570 . S
C1030 C0 1.827 . S
C1032 C602 1.894 . S
C1043 C330 2.532 . S
C1041 C218 2.532 1_455 S
C1052 C229 0.787 . S
C1054 C367 0.807 . S
C1065 C410 1.246 . S
C1063 C257 1.248 . S
C1076 C442 1.575 . S
C1074 C164 1.491 . S
C1085 C216 1.891 1_455 S
C1087 C482 2.032 . S
C1098 C521 1.468 . S
C1096 C231 1.465 . S
C1109 C567 0.638 . S
C1107 C255 0.640 . S
C1120 C610 2.181 . S
C1118 C166 2.207 . S
C1131 C327 1.661 . S
C1129 C143 1.548 . S
C1140 C265 1.931 1_556 S
C1142 C650 1.970 . S
C1153 C691 2.578 . S
C1151 C299 2.612 . S
C1164 C722 0.905 1_655 S
C1162 C291 0.856 . S
C1173 C104 1.617 . S
C1175 C607 1.688 . S
C1184 C117 1.534 . S
C1186 C407 1.627 . S
C1195 C304 2.145 . S
C1197 C770 2.177 . S
C1208 C802 0.633 . S
C1206 C278 0.590 . S
C1219 C331 2.385 . S
C1217 C60 2.397 . S
C1230 C801 2.161 . S
C1228 C96 2.161 . S
C1239 C88 1.420 . S
C1241 C411 1.397 . S
C1250 C65 1.354 . S
C1252 C758 1.324 . S
C1263 C478 1.530 . S
C1261 C10 1.594 . S
C1272 C44 0.729 . S
C1274 C687 0.734 . S
C1285 C561 1.553 1_556 S
C1283 C34 1.318 . S
C1296 C851 1.893 . S
C1294 C13 2.026 . S
C1307 C321 2.501 . S
C1305 C138 2.456 . S
C1318 C798 0.820 . S
C1316 C296 0.821 . S
C1327 C112 1.167 . S
C1329 C401 1.176 . S
C1338 C270 1.502 . S
C1340 C771 1.493 . S
C1349 C140 1.960 . S
C1351 C491 1.965 . S
C1362 C690 1.448 . S
C1360 C294 1.454 . S
C1371 C114 0.577 . S
C1373 C558 0.615 . S
C1382 C268 2.169 . S
C1384 C841 2.157 . S
C1393 C169 1.759 . S
C1395 C318 1.628 . S
C1404 C161 1.918 . S
C1406 C641 1.920 . S
C1415 C234 2.605 . S
C1417 C522 2.547 . S
C1426 C226 0.740 . S
C1428 C731 0.730 . S
C1439 C838 1.752 1_545 S
C1437 C247 1.949 . S
C1448 C195 1.720 . S
C1450 C398 1.626 . S
C1461 C441 2.120 . S
C1459 C239 2.120 . S
C1472 C371 0.676 . S
C1470 C187 0.598 . S
C1481 C75 2.407 . S
C1483 C882 2.413 . S
C1494 C810 2.217 . S
C1492 C83 2.169 . S
C1503 C99 1.449 . S
C1505 C922 1.507 . S
C1514 C52 1.315 . S
C1516 C767 1.374 . S
C1525 C47 1.453 . S
C1527 C647 1.547 . S
C1538 C678 0.729 1_455 S
C1536 C5 0.730 . S
C1549 C730 1.648 . S
C1547 C23 1.558 1_455 S
C1560 C842 1.894 . S
C1558 C26 1.835 . S
C1571 C890 2.533 . S
C1569 C244 2.533 . S
C1580 C177 0.804 . S
C1582 C807 0.794 . S
C1593 C930 1.244 . S
C1591 C192 1.244 . S
C1604 C762 1.573 . S
C1602 C203 1.483 . S
C1615 C642 2.034 . S
C1613 C242 1.886 . S
C1624 C179 1.464 . S
C1626 C681 1.469 . S
C1637 C727 0.638 . S
C1635 C190 0.642 . S
C1646 C205 2.207 . S
C1648 C850 2.181 . S
C1659 C887 1.653 . S
C1657 C286 1.562 . S
C1668 C122 1.932 . S
C1670 C490 1.969 . S
C1681 C531 2.578 . S
C1679 C130 2.612 . S
C1692 C562 0.904 . S
C1690 C148 0.862 1_545 S
C1703 C847 1.697 . S
C1701 C273 1.612 . S
C1712 C260 1.535 . S
C1714 C927 1.626 . S
C1725 C450 2.177 . S
C1723 C135 2.147 . S
C1736 C362 0.632 . S
C1734 C109 0.597 . S
C1745 C86 2.396 . S
C1747 C891 2.385 . S
C1758 C361 2.161 . S
C1756 C70 2.161 . S
C1767 C62 1.420 . S
C1769 C931 1.399 . S
C1778 C91 1.355 . S
C1780 C438 1.316 . S
C1789 C36 1.591 . S
C1791 C638 1.532 . S
C1802 C527 0.726 . S
C1800 C18 0.720 . S
C1811 C8 1.323 . S
C1813 C721 1.560 . S
C1822 C39 2.027 . S
C1824 C611 1.887 . S
C1835 C881 2.500 . S
C1833 C307 2.456 . S
C1844 C153 0.831 . S
C1846 C358 0.808 . S
C1857 C921 1.176 . S
C1855 C281 1.170 . S
C1866 C127 1.500 . S
C1868 C451 1.493 . S
C1877 C309 1.958 . S
C1879 C651 1.967 . S
C1890 C530 1.452 . S
C1888 C151 1.451 . S
C1899 C283 0.573 . S
C1901 C718 0.609 . S
C1912 C601 2.157 . S
C1910 C125 2.169 . S
C1923 C878 1.634 . S
C1921 C221 1.755 . S
C1934 C481 1.920 1_655 S
C1932 C200 1.916 . S
C1943 C208 2.606 . S
C1945 C682 2.548 . S
C1956 C571 0.735 . S
C1954 C174 0.734 . S
C1965 C182 1.955 . S
C1967 C598 1.742 . S
C1976 C156 1.717 . S
C1978 C918 1.629 . S
C1989 C761 2.121 . S
C1987 C213 2.119 1_565 S
C2000 C811 0.669 . S
C1998 C252 0.602 . S
