# Generated by pormake.
# Topology pyr, (3,6)-cn, num edge types: 1
# Building blocks:
#     Node 0, Type 0, BuildingBlock: OLANEW_clean_sbu_2, # of connection points: 3
#     Node 1, Type 0, BuildingBlock: OLANEW_clean_sbu_2, # of connection points: 3
#     Node 2, Type 0, BuildingBlock: OLANEW_clean_sbu_2, # of connection points: 3
#     Node 3, Type 0, BuildingBlock: OLANEW_clean_sbu_2, # of connection points: 3
#     Node 4, Type 0, BuildingBlock: OLANEW_clean_sbu_2, # of connection points: 3
#     Node 5, Type 0, BuildingBlock: OLANEW_clean_sbu_2, # of connection points: 3
#     Node 6, Type 0, BuildingBlock: OLANEW_clean_sbu_2, # of connection points: 3
#     Node 7, Type 0, BuildingBlock: OLANEW_clean_sbu_2, # of connection points: 3
#     Node 8, Type 1, BuildingBlock: BETDIP_clean_sbu_0, # of connection points: 6
#     Node 9, Type 1, BuildingBlock: BETDIP_clean_sbu_0, # of connection points: 6
#     Node 10, Type 1, BuildingBlock: BETDIP_clean_sbu_0, # of connection points: 6
#     Node 11, Type 1, BuildingBlock: BETDIP_clean_sbu_0, # of connection points: 6
#     Edge 12, Type (0, 1), BuildingBlock: KIFKEQ_clean_linker_1, # of connection points: 2
#     Edge 13, Type (0, 1), BuildingBlock: KIFKEQ_clean_linker_1, # of connection points: 2
#     Edge 14, Type (0, 1), BuildingBlock: KIFKEQ_clean_linker_1, # of connection points: 2
#     Edge 15, Type (0, 1), BuildingBlock: KIFKEQ_clean_linker_1, # of connection points: 2
#     Edge 16, Type (0, 1), BuildingBlock: KIFKEQ_clean_linker_1, # of connection points: 2
#     Edge 17, Type (0, 1), BuildingBlock: KIFKEQ_clean_linker_1, # of connection points: 2
#     Edge 18, Type (0, 1), BuildingBlock: KIFKEQ_clean_linker_1, # of connection points: 2
#     Edge 19, Type (0, 1), BuildingBlock: KIFKEQ_clean_linker_1, # of connection points: 2
#     Edge 20, Type (0, 1), BuildingBlock: KIFKEQ_clean_linker_1, # of connection points: 2
#     Edge 21, Type (0, 1), BuildingBlock: KIFKEQ_clean_linker_1, # of connection points: 2
#     Edge 22, Type (0, 1), BuildingBlock: KIFKEQ_clean_linker_1, # of connection points: 2
#     Edge 23, Type (0, 1), BuildingBlock: KIFKEQ_clean_linker_1, # of connection points: 2
#     Edge 24, Type (0, 1), BuildingBlock: KIFKEQ_clean_linker_1, # of connection points: 2
#     Edge 25, Type (0, 1), BuildingBlock: KIFKEQ_clean_linker_1, # of connection points: 2
#     Edge 26, Type (0, 1), BuildingBlock: KIFKEQ_clean_linker_1, # of connection points: 2
#     Edge 27, Type (0, 1), BuildingBlock: KIFKEQ_clean_linker_1, # of connection points: 2
#     Edge 28, Type (0, 1), BuildingBlock: KIFKEQ_clean_linker_1, # of connection points: 2
#     Edge 29, Type (0, 1), BuildingBlock: KIFKEQ_clean_linker_1, # of connection points: 2
#     Edge 30, Type (0, 1), BuildingBlock: KIFKEQ_clean_linker_1, # of connection points: 2
#     Edge 31, Type (0, 1), BuildingBlock: KIFKEQ_clean_linker_1, # of connection points: 2
#     Edge 32, Type (0, 1), BuildingBlock: KIFKEQ_clean_linker_1, # of connection points: 2
#     Edge 33, Type (0, 1), BuildingBlock: KIFKEQ_clean_linker_1, # of connection points: 2
#     Edge 34, Type (0, 1), BuildingBlock: KIFKEQ_clean_linker_1, # of connection points: 2
#     Edge 35, Type (0, 1), BuildingBlock: KIFKEQ_clean_linker_1, # of connection points: 2
# Relax obj value: 0.158
# Max RMSD: 0.233
# Mean RMSD: 0.144
data_MOF--net-pyr--node1-OLANEW_clean_sbu_2--node2-BETDIP_clean_sbu_0--edge1-KIFKEQ_clean_linker_1
_symmetry_space_group_name_H-M    P1
_symmetry_Int_Tables_number       1
_symmetry_cell_setting            triclinic
loop_
_symmetry_equiv_pos_as_xyz
'x, y, z'
_cell_length_a     38.439954
_cell_length_b     43.830602
_cell_length_c     42.135696
_cell_angle_alpha  91.880018
_cell_angle_beta   93.228586
_cell_angle_gamma 107.20685
loop_
_atom_site_label
_atom_site_type_symbol
_atom_site_fract_x
_atom_site_fract_y
_atom_site_fract_z
_atom_type_partial_charge
O0 O 0.40619 0.28027 0.15577 0.0
Cd1 Cd 0.39768 0.33274 0.16734 0.0
O2 O 0.39494 0.26973 0.20524 0.0
Cd3 Cd 0.38376 0.23898 0.24557 0.0
O4 O 0.35669 0.21206 0.28458 0.0
C5 C 0.35864 0.22596 0.31186 0.0
O6 O 0.37833 0.25607 0.31635 0.0
C7 C 0.40376 0.26142 0.17839 0.0
C8 C 0.33307 0.34295 0.14298 0.0
O9 O 0.36165 0.34977 0.12713 0.0
O10 O 0.33468 0.3303 0.16982 0.0
O11 O 0.17487 0.71783 0.82871 0.0
Cd12 Cd 0.14222 0.67801 0.78728 0.0
O13 O 0.15852 0.75368 0.80176 0.0
Cd14 Cd 0.15669 0.80058 0.78685 0.0
O15 O 0.14192 0.83848 0.76208 0.0
C16 C 0.11272 0.83009 0.74401 0.0
O17 O 0.09337 0.79977 0.74167 0.0
C18 C 0.17632 0.74688 0.82548 0.0
C19 C 0.19396 0.67028 0.74663 0.0
O20 O 0.17706 0.69106 0.7416 0.0
O21 O 0.18546 0.65251 0.77027 0.0
O22 O 0.69751 0.41548 0.87275 0.0
Cd23 Cd 0.64611 0.39241 0.83177 0.0
O24 O 0.68805 0.38205 0.91255 0.0
Cd25 Cd 0.63999 0.33892 0.90469 0.0
O26 O 0.60799 0.29121 0.92039 0.0
C27 C 0.62367 0.27783 0.94076 0.0
O28 O 0.65766 0.29265 0.95088 0.0
C29 C 0.70663 0.40753 0.90022 0.0
C30 C 0.62719 0.43309 0.78688 0.0
O31 O 0.61055 0.42656 0.81249 0.0
O32 O 0.65364 0.42146 0.78279 0.0
O33 O 0.93672 0.77209 0.34795 0.0
Cd34 Cd 0.90907 0.71638 0.32391 0.0
O35 O 0.88925 0.76991 0.37624 0.0
Cd36 Cd 0.85368 0.72063 0.36888 0.0
O37 O 0.80819 0.68909 0.39281 0.0
C38 C 0.80323 0.69998 0.42002 0.0
O39 O 0.8254 0.72774 0.43106 0.0
C40 C 0.92038 0.78534 0.36727 0.0
C41 C 0.93194 0.69204 0.26786 0.0
O42 O 0.90649 0.70549 0.26644 0.0
O43 O 0.94795 0.6916 0.29532 0.0
O44 O 0.67007 0.75569 0.77852 0.0
Cd45 Cd 0.63825 0.71739 0.81594 0.0
O46 O 0.66499 0.79406 0.81057 0.0
Cd47 Cd 0.66665 0.84151 0.82965 0.0
O48 O 0.65066 0.87358 0.86284 0.0
C49 C 0.61706 0.8718 0.86332 0.0
O50 O 0.59339 0.85193 0.8428 0.0
C51 C 0.67644 0.78542 0.78506 0.0
C52 C 0.68803 0.69356 0.84988 0.0
O53 O 0.67167 0.67977 0.82356 0.0
O54 O 0.68038 0.71841 0.86046 0.0
O55 O 0.83951 0.26771 0.37968 0.0
Cd56 Cd 0.87739 0.28744 0.42853 0.0
O57 O 0.84163 0.31375 0.35937 0.0
Cd58 Cd 0.86216 0.33993 0.40473 0.0
O59 O 0.83745 0.36355 0.43939 0.0
C60 C 0.83009 0.38863 0.43087 0.0
O61 O 0.8412 0.40046 0.40368 0.0
C62 C 0.83201 0.2834 0.35683 0.0
C63 C 0.90599 0.23824 0.44516 0.0
O64 O 0.92298 0.26022 0.42744 0.0
O65 O 0.87624 0.24029 0.45604 0.0
O66 O 0.43667 0.78193 0.25673 0.0
Cd67 Cd 0.41542 0.72571 0.27537 0.0
O68 O 0.39294 0.77139 0.21789 0.0
Cd69 Cd 0.36133 0.72118 0.22193 0.0
O70 O 0.3155 0.68392 0.19687 0.0
C71 C 0.30571 0.69134 0.16955 0.0
O72 O 0.32368 0.7192 0.1592 0.0
C73 C 0.42081 0.79094 0.23283 0.0
C74 C 0.43832 0.70297 0.33322 0.0
O75 O 0.45798 0.7072 0.3092 0.0
O76 O 0.40898 0.71126 0.33086 0.0
O77 O 0.15222 0.4069 0.7875 0.0
Cd78 Cd 0.17191 0.38325 0.74022 0.0
O79 O 0.10143 0.36699 0.78961 0.0
Cd80 Cd 0.10848 0.33374 0.75123 0.0
O81 O 0.09779 0.29138 0.71739 0.0
C82 C 0.10661 0.26649 0.72458 0.0
O83 O 0.12372 0.26636 0.75244 0.0
C84 C 0.12237 0.39422 0.80029 0.0
C85 C 0.23201 0.42174 0.71001 0.0
O86 O 0.19948 0.42257 0.70269 0.0
O87 O 0.23629 0.40356 0.73219 0.0
Tb88 Tb 0.97699 1.00341 0.55942 0.0
Tb89 Tb 0.05967 0.03639 0.54937 0.0
C90 C 0.91444 0.96439 0.5623 0.0
C91 C 0.89086 0.94855 0.58695 0.0
C92 C 0.86199 0.92092 0.57843 0.0
C93 C 0.83813 0.90617 0.601 0.0
C94 C 0.84258 0.91888 0.63261 0.0
C95 C 0.87205 0.94638 0.64119 0.0
C96 C 0.89602 0.96108 0.61854 0.0
C97 C 0.00791 0.05781 0.59282 0.0
C98 C 0.0385 0.98299 0.6001 0.0
C99 C 0.12246 0.07546 0.55137 0.0
C100 C 0.14752 0.09018 0.52729 0.0
C101 C 0.17435 0.11947 0.53462 0.0
C102 C 0.19807 0.13387 0.51174 0.0
C103 C 0.19535 0.11914 0.48111 0.0
C104 C 0.16832 0.08971 0.47396 0.0
C105 C 0.14456 0.07545 0.49678 0.0
C106 C 0.02937 0.98941 0.50469 0.0
C107 C 0.9975 0.05639 0.51108 0.0
O108 O 0.94377 0.95569 0.55851 0.0
O109 O 0.92078 0.99538 0.56155 0.0
O110 O 0.02294 0.03681 0.58559 0.0
O111 O 0.97334 0.0467 0.58463 0.0
O112 O 1.00326 0.97819 0.59243 0.0
O113 O 0.06464 1.00568 0.58796 0.0
O114 O 0.09265 0.08415 0.55208 0.0
O115 O 0.11619 0.04454 0.5537 0.0
O116 O 0.01545 0.99973 0.52727 0.0
O117 O 0.06317 1.00688 0.50628 0.0
O118 O 0.03096 0.06584 0.52498 0.0
O119 O 0.97418 0.02816 0.51591 0.0
H120 H 0.85772 0.91084 0.55418 0.0
H121 H 0.81629 0.88466 0.59367 0.0
H122 H 0.87618 0.95694 0.66522 0.0
H123 H 0.91827 0.98242 0.62557 0.0
H124 H 0.17683 0.13129 0.55799 0.0
H125 H 0.21817 0.15675 0.51791 0.0
H126 H 0.16574 0.07748 0.4508 0.0
H127 H 0.12392 0.05287 0.49059 0.0
Tb128 Tb 0.54724 0.04884 0.08771 0.0
Tb129 Tb 0.46914 1.01526 0.06873 0.0
C130 C 0.60925 0.08904 0.09866 0.0
C131 C 0.62905 0.11245 0.12389 0.0
C132 C 0.66567 0.12925 0.12067 0.0
C133 C 0.68571 0.15066 0.14501 0.0
C134 C 0.66936 0.1556 0.17297 0.0
C135 C 0.63228 0.1391 0.17578 0.0
C136 C 0.61227 0.11761 0.15139 0.0
C137 C 0.51885 0.99665 0.11888 0.0
C138 C 0.48472 0.07139 0.11912 0.0
C139 C 0.40715 0.97491 0.05851 0.0
C140 C 0.38609 0.95166 0.03355 0.0
C141 C 0.35248 0.93062 0.04039 0.0
C142 C 0.33064 0.90955 1.01663 0.0
C143 C 0.34202 0.90923 0.98551 0.0
C144 C 0.37622 0.93 0.9789 0.0
C145 C 0.39811 0.9511 1.00278 0.0
C146 C 0.49809 0.06763 0.03798 0.0
C147 C 0.53128 0.99574 0.0332 0.0
O148 O 0.58174 0.09531 0.0835 0.0
O149 O 0.60161 0.05906 0.10565 0.0
O150 O 0.50307 0.01707 0.11105 0.0
O151 O 0.55236 1.00659 0.11144 0.0
O152 O 0.51936 0.07889 0.11234 0.0
O153 O 0.46112 0.04378 0.10902 0.0
O154 O 0.43506 0.96849 0.07289 0.0
O155 O 0.41452 1.00497 0.05182 0.0
O156 O 0.51311 0.04695 0.04602 0.0
O157 O 0.46422 0.0578 0.04458 0.0
O158 O 0.49682 0.98702 0.04079 0.0
O159 O 0.55486 0.02251 0.04551 0.0
H160 H 0.67896 0.1254 0.09955 0.0
H161 H 0.7143 0.16259 0.14229 0.0
H162 H 0.61883 0.14265 0.19689 0.0
H163 H 0.58391 0.10477 0.15414 0.0
H164 H 0.3429 0.93074 0.06409 0.0
H165 H 0.30484 0.89344 0.02268 0.0
H166 H 0.38567 0.93047 0.95514 0.0
H167 H 0.42406 0.96731 0.99715 0.0
Tb168 Tb 0.51331 0.59324 0.57627 0.0
Tb169 Tb 0.51837 0.53123 0.54992 0.0
C170 C 0.50474 0.64711 0.58667 0.0
C171 C 0.47209 0.65457 0.59709 0.0
C172 C 0.43713 0.63537 0.58575 0.0
C173 C 0.40613 0.63905 0.59901 0.0
C174 C 0.40935 0.66182 0.62411 0.0
C175 C 0.44428 0.68194 0.6346 0.0
C176 C 0.47542 0.67826 0.62121 0.0
C177 C 0.53718 0.55892 0.61806 0.0
C178 C 0.44808 0.53337 0.58586 0.0
C179 C 0.52545 0.4766 0.54045 0.0
C180 C 0.55599 0.46651 0.52912 0.0
C181 C 0.56305 0.43924 0.54084 0.0
C182 C 0.59411 0.43122 0.5326 0.0
C183 C 0.61868 0.45044 0.51253 0.0
C184 C 0.61111 0.47754 0.50049 0.0
C185 C 0.58017 0.48557 0.50882 0.0
C186 C 0.49649 0.56629 0.50775 0.0
C187 C 0.58393 0.59091 0.54071 0.0
O188 O 0.50159 0.63337 0.55817 0.0
O189 O 0.52057 0.63328 0.6076 0.0
O190 O 0.54539 0.5622 0.5895 0.0
O191 O 0.51659 0.57661 0.6244 0.0
O192 O 0.45784 0.56466 0.58341 0.0
O193 O 0.46896 0.51616 0.57627 0.0
O194 O 0.53219 0.49213 0.5682 0.0
O195 O 0.50866 0.49004 0.51984 0.0
O196 O 0.48711 0.56279 0.53607 0.0
O197 O 0.51669 0.54809 0.50188 0.0
O198 O 0.57371 0.55953 0.54261 0.0
O199 O 0.56349 0.60845 0.55073 0.0
H200 H 0.43369 0.61668 0.56735 0.0
H201 H 0.37962 0.62353 0.59005 0.0
H202 H 0.44768 0.69953 0.65409 0.0
H203 H 0.50214 0.69304 0.63056 0.0
H204 H 0.54498 0.42455 0.55694 0.0
H205 H 0.59934 0.41044 0.54262 0.0
H206 H 0.6291 0.4926 0.48461 0.0
H207 H 0.57544 0.50696 0.49977 0.0
Tb208 Tb 0.01175 0.56264 1.00944 0.0
Tb209 Tb 0.01544 0.51089 0.05247 0.0
C210 C 0.99423 0.60241 0.97502 0.0
C211 C 0.96276 0.61423 0.96867 0.0
C212 C 0.92912 0.59982 0.98129 0.0
C213 C 0.89831 0.60887 0.97159 0.0
C214 C 0.90081 0.63228 0.94903 0.0
C215 C 0.93497 0.64745 0.93754 0.0
C216 C 0.96565 0.63846 0.94727 0.0
C217 C 0.07737 0.56953 0.03743 0.0
C218 C 0.98668 0.56485 0.08015 0.0
C219 C 0.03475 0.47144 0.0861 0.0
C220 C 0.06322 0.45522 0.0866 0.0
C221 C 0.0918 0.46352 0.06621 0.0
C222 C 0.11954 0.4488 0.06815 0.0
C223 C 0.11927 0.42566 0.09064 0.0
C224 C 0.0902 0.41725 0.11072 0.0
C225 C 0.06246 0.43188 0.10866 0.0
C226 C 0.94937 0.50436 0.02545 0.0
C227 C 0.04062 0.50895 0.98187 0.0
O228 O 0.98913 0.5725 0.96618 0.0
O229 O 0.01193 0.61008 1.00295 0.0
O230 O 0.04715 0.55931 0.04934 0.0
O231 O 0.07154 0.57863 1.00925 0.0
O232 O 0.98182 0.57201 0.05015 0.0
O233 O 1.00302 0.54309 0.08733 0.0
O234 O 0.04622 0.50242 0.09194 0.0
O235 O 0.00971 0.46307 0.06248 0.0
O236 O 0.9793 0.5144 1.01284 0.0
O237 O 0.95581 0.49508 0.05348 0.0
O238 O 0.0453 0.50168 1.01176 0.0
O239 O 0.02349 0.53006 0.97462 0.0
H240 H 0.92647 0.58093 0.99777 0.0
H241 H 0.87231 0.59666 0.9807 0.0
H242 H 0.93783 0.6659 0.92054 0.0
H243 H 0.99144 0.64977 0.93732 0.0
H244 H 0.09293 0.48163 0.04911 0.0
H245 H 0.14122 0.45561 0.05206 0.0
H246 H 0.08935 0.39997 0.12867 0.0
H247 H 0.0407 0.42534 0.12472 0.0
H248 H 0.35768 0.24832 0.37306 0.0
H249 H 0.31037 0.16571 0.30866 0.0
H250 H 0.31911 0.22201 0.41426 0.0
H251 H 0.27213 0.13935 0.35001 0.0
H252 H 0.17875 0.12204 0.41744 0.0
H253 H 0.21966 0.14671 0.37721 0.0
H254 H 0.30941 0.17609 0.44898 0.0
H255 H 0.2686 0.151 0.48929 0.0
C256 C 0.33929 0.22446 0.36776 0.0
C257 C 0.337 0.20918 0.33752 0.0
C258 C 0.31732 0.20933 0.39144 0.0
C259 C 0.29245 0.17867 0.38533 0.0
C260 C 0.29066 0.16316 0.35528 0.0
C261 C 0.31275 0.1782 0.33167 0.0
C262 C 0.20729 0.1334 0.42463 0.0
C263 C 0.22036 0.13445 0.45663 0.0
C264 C 0.23073 0.14756 0.40155 0.0
C265 C 0.26779 0.16326 0.40991 0.0
C266 C 0.2809 0.16446 0.44188 0.0
C267 C 0.25748 0.15015 0.46497 0.0
H268 H 0.23664 0.74389 0.86019 0.0
H269 H 0.16955 0.8059 0.84266 0.0
H270 H 0.2768 0.78434 0.89745 0.0
H271 H 0.21078 0.84712 0.87887 0.0
H272 H 0.26802 0.89525 0.97473 0.0
H273 H 0.2281 0.85695 0.93537 0.0
H274 H 0.32193 0.83645 0.89861 0.0
H275 H 0.36176 0.87379 0.93891 0.0
C276 C 0.23063 0.76632 0.86408 0.0
C277 C 0.20025 0.77192 0.848 0.0
C278 C 0.2539 0.78964 0.88519 0.0
C279 C 0.24729 0.81913 0.89086 0.0
C280 C 0.21666 0.82465 0.87502 0.0
C281 C 0.19333 0.80123 0.85384 0.0
C282 C 0.28012 0.88242 0.95838 0.0
C283 C 0.31806 0.88734 0.96017 0.0
C284 C 0.25726 0.86077 0.93554 0.0
C285 C 0.27179 0.84355 0.91391 0.0
C286 C 0.30982 0.84903 0.91521 0.0
C287 C 0.33269 0.87068 0.93808 0.0
H288 H 0.66394 0.46135 0.73618 0.0
H289 H 0.56302 0.44811 0.78148 0.0
H290 H 0.64373 0.49219 0.69573 0.0
H291 H 0.54182 0.47722 0.74035 0.0
H292 H 0.52342 0.55482 0.68048 0.0
H293 H 0.54654 0.52628 0.72091 0.0
H294 H 0.60602 0.49223 0.65066 0.0
H295 H 0.58465 0.523 0.61068 0.0
C296 C 0.63732 0.46489 0.73743 0.0
C297 C 0.61527 0.45241 0.76231 0.0
C298 C 0.62549 0.4824 0.71397 0.0
C299 C 0.59097 0.48756 0.71441 0.0
C300 C 0.5689 0.47469 0.73929 0.0
C301 C 0.58098 0.45769 0.76296 0.0
C302 C 0.54154 0.54132 0.67365 0.0
C303 C 0.55176 0.5409 0.64219 0.0
C304 C 0.55461 0.52454 0.69689 0.0
C305 C 0.57797 0.50628 0.68937 0.0
C306 C 0.58842 0.5061 0.65776 0.0
C307 C 0.57574 0.52341 0.63457 0.0
H308 H 0.89782 0.68283 0.20763 0.0
H309 H 0.98631 0.66368 0.26292 0.0
H310 H 0.90939 0.65216 0.16211 0.0
H311 H 0.9986 0.63385 0.21729 0.0
H312 H 0.98766 0.55346 0.14367 0.0
H313 H 0.97447 0.58469 0.18757 0.0
H314 H 0.94927 0.64954 0.1213 0.0
H315 H 0.96158 0.61758 0.07709 0.0
C316 C 0.92008 0.67244 0.20999 0.0
C317 C 0.94103 0.67574 0.23912 0.0
C318 C 0.92682 0.65487 0.18375 0.0
C319 C 0.95478 0.64009 0.18583 0.0
C320 C 0.9763 0.64416 0.21478 0.0
C321 C 0.96947 0.6616 0.241 0.0
C322 C 0.97906 0.57424 0.13831 0.0
C323 C 0.97578 0.58289 0.10665 0.0
C324 C 0.9718 0.59244 0.16366 0.0
C325 C 0.96119 0.62008 0.15831 0.0
C326 C 0.95709 0.62836 0.12654 0.0
C327 C 0.96425 0.61002 0.10108 0.0
H328 H 0.43906 0.2327 0.22036 0.0
H329 H 0.3884 0.22192 0.12494 0.0
H330 H 0.45716 0.18425 0.21065 0.0
H331 H 0.40606 0.17328 0.11541 0.0
H332 H 0.41405 0.07167 0.12115 0.0
H333 H 0.3922 0.11589 0.13871 0.0
H334 H 0.5023 0.17101 0.17013 0.0
H335 H 0.52456 0.12695 0.15202 0.0
C336 C 0.43106 0.21955 0.1976 0.0
C337 C 0.41189 0.23076 0.17352 0.0
C338 C 0.44173 0.19207 0.19198 0.0
C339 C 0.43283 0.17501 0.16237 0.0
C340 C 0.41292 0.18583 0.13856 0.0
C341 C 0.40293 0.21365 0.14396 0.0
C342 C 0.43361 0.09291 0.13239 0.0
C343 C 0.47112 0.09581 0.13509 0.0
C344 C 0.42105 0.11829 0.14223 0.0
C345 C 0.4456 0.14686 0.15553 0.0
C346 C 0.4828 0.14914 0.16003 0.0
C347 C 0.49552 0.12395 0.14964 0.0
H348 H 0.14564 0.89474 0.74356 0.0
H349 H 0.05354 0.81884 0.70153 0.0
H350 H 0.12704 0.93313 0.71116 0.0
H351 H 0.03552 0.85696 0.66871 0.0
H352 H 0.99365 0.93698 0.63412 0.0
H353 H 0.01108 0.90164 0.67109 0.0
H354 H 0.12471 0.9465 0.65594 0.0
H355 H 0.10744 0.98235 0.61957 0.0
C356 C 0.12144 0.88624 0.72742 0.0
C357 C 0.10112 0.85371 0.72509 0.0
C358 C 0.11089 0.90821 0.70873 0.0
C359 C 0.0798 0.89813 0.68729 0.0
C360 C 0.05929 0.86565 0.68529 0.0
C361 C 0.06979 0.84372 0.70398 0.0
C362 C 0.02238 0.93948 0.6388 0.0
C363 C 0.04912 0.96248 0.62374 0.0
C364 C 0.03236 0.91907 0.65989 0.0
C365 C 0.06929 0.9211 0.66637 0.0
C366 C 0.09605 0.94453 0.65181 0.0
C367 C 0.08609 0.96499 0.63077 0.0
H368 H 0.77174 0.43989 0.87676 0.0
H369 H 0.71865 0.41901 0.96432 0.0
H370 H 0.82974 0.46547 0.90695 0.0
H371 H 0.77555 0.44654 0.99467 0.0
H372 H 0.88781 0.46044 0.04222 0.0
H373 H 0.82953 0.44 1.01191 0.0
H374 H 0.86947 0.50594 0.93863 0.0
H375 H 0.92891 0.52446 0.96831 0.0
C376 C 0.77234 0.44153 0.9025 0.0
C377 C 0.74072 0.42719 0.91816 0.0
C378 C 0.80566 0.45636 0.91997 0.0
C379 C 0.80802 0.45788 0.95359 0.0
C380 C 0.77561 0.44504 0.96899 0.0
C381 C 0.74267 0.42951 0.95157 0.0
C382 C 0.88409 0.47064 1.01967 0.0
C383 C 0.91303 0.49404 1.00766 0.0
C384 C 0.85034 0.45912 1.00224 0.0
C385 C 0.84408 0.47124 0.97254 0.0
C386 C 0.87302 0.49538 0.96097 0.0
C387 C 0.90714 0.50635 0.97815 0.0
H388 H 0.78572 0.71867 0.47781 0.0
H389 H 0.75115 0.64227 0.40482 0.0
H390 H 0.73456 0.69181 0.50827 0.0
H391 H 0.69942 0.61549 0.43529 0.0
H392 H 0.63026 0.56246 0.51325 0.0
H393 H 0.68411 0.5879 0.48496 0.0
H394 H 0.66841 0.68011 0.50443 0.0
H395 H 0.61488 0.65483 0.53302 0.0
C396 C 0.76721 0.6961 0.46822 0.0
C397 C 0.77252 0.6827 0.43876 0.0
C398 C 0.73772 0.68078 0.48566 0.0
C399 C 0.71274 0.65158 0.47418 0.0
C400 C 0.71835 0.63783 0.44496 0.0
C401 C 0.74788 0.65325 0.42741 0.0
C402 C 0.63844 0.5882 0.51177 0.0
C403 C 0.6182 0.60659 0.52552 0.0
C404 C 0.66918 0.60274 0.49529 0.0
C405 C 0.68055 0.63603 0.49232 0.0
C406 C 0.66068 0.65445 0.50656 0.0
C407 C 0.62987 0.63992 0.5229 0.0
H408 H 0.32383 0.37571 0.09053 0.0
H409 H 0.26743 0.32926 0.16987 0.0
H410 H 0.27119 0.39344 0.07459 0.0
H411 H 0.21503 0.34724 0.15408 0.0
H412 H 0.1153 0.36349 0.1024 0.0
H413 H 0.16565 0.34099 0.11212 0.0
H414 H 0.24264 0.43245 0.09639 0.0
H415 H 0.19247 0.45511 0.08712 0.0
C416 C 0.3001 0.36902 0.10441 0.0
C417 C 0.29991 0.35118 0.13157 0.0
C418 C 0.27003 0.37936 0.09537 0.0
C419 C 0.239 0.37192 0.11316 0.0
C420 C 0.23836 0.35315 0.13969 0.0
C421 C 0.26849 0.34297 0.14883 0.0
C422 C 0.14296 0.37885 0.10109 0.0
C423 C 0.14976 0.4112 0.09414 0.0
C424 C 0.17181 0.36591 0.1066 0.0
C425 C 0.20816 0.38494 0.10512 0.0
C426 C 0.21494 0.41702 0.09729 0.0
C427 C 0.18611 0.43001 0.09193 0.0
H428 H 0.55226 0.24047 0.92774 0.0
H429 H 0.65142 0.2438 0.98315 0.0
H430 H 0.52148 0.18918 0.94972 0.0
H431 H 0.62071 0.19319 1.00538 0.0
H432 H 0.56672 0.08711 1.01668 0.0
H433 H 0.59615 0.13693 0.99181 0.0
H434 H 0.49863 0.16587 0.99889 0.0
H435 H 0.46917 0.11577 0.02343 0.0
C436 C 0.56751 0.23033 0.94458 0.0
C437 C 0.60439 0.24638 0.95357 0.0
C438 C 0.5498 0.20097 0.95735 0.0
C439 C 0.56855 0.18683 0.97934 0.0
C440 C 0.60545 0.20293 0.98817 0.0
C441 C 0.62305 0.2322 0.97551 0.0
C442 C 0.5516 0.10414 1.01293 0.0
C443 C 0.5157 0.09759 0.02219 0.0
C444 C 0.5685 0.1328 0.99875 0.0
C445 C 0.54991 0.15567 0.99337 0.0
C446 C 0.51372 0.14878 1.00226 0.0
C447 C 0.49686 0.12012 1.01651 0.0
H448 H 0.99335 0.81679 0.38151 0.0
H449 H 0.88602 0.82795 0.3866 0.0
H450 H 0.01946 0.86688 0.41335 0.0
H451 H 0.91188 0.87856 0.41679 0.0
H452 H 0.96025 0.94704 0.50224 0.0
H453 H 0.93519 0.8993 0.46716 0.0
H454 H 0.03542 0.92236 0.41892 0.0
H455 H 0.06088 0.9689 0.4555 0.0
C456 C 0.97547 0.83038 0.3887 0.0
C457 C 0.93761 0.81826 0.38162 0.0
C458 C 0.99039 0.85922 0.40703 0.0
C459 C 0.96786 0.87693 0.41832 0.0
C460 C 0.93019 0.86542 0.4096 0.0
C461 C 0.91531 0.83645 0.39185 0.0
C462 C 0.97691 0.94174 0.48431 0.0
C463 C 0.01265 0.96152 0.482 0.0
C464 C 0.96244 0.91448 0.46376 0.0
C465 C 0.98314 0.90655 0.43988 0.0
C466 C 0.01871 0.927 0.43722 0.0
C467 C 0.03327 0.95396 0.45807 0.0
H468 H 0.22058 0.70648 0.69672 0.0
H469 H 0.23469 0.62892 0.75168 0.0
H470 H 0.27165 0.70427 0.66575 0.0
H471 H 0.28602 0.62711 0.72114 0.0
H472 H 0.35332 0.61154 0.64066 0.0
H473 H 0.29976 0.61308 0.66802 0.0
H474 H 0.33826 0.71637 0.67345 0.0
H475 H 0.39138 0.71485 0.6449 0.0
C476 C 0.23446 0.68888 0.70211 0.0
C477 C 0.22355 0.66785 0.72664 0.0
C478 C 0.26389 0.68779 0.68452 0.0
C479 C 0.28294 0.66558 0.69104 0.0
C480 C 0.27164 0.64425 0.71526 0.0
C481 C 0.2423 0.64537 0.73286 0.0
C482 C 0.35012 0.63462 0.64723 0.0
C483 C 0.37653 0.66311 0.64044 0.0
C484 C 0.31962 0.63547 0.66327 0.0
C485 C 0.31479 0.66483 0.67299 0.0
C486 C 0.34102 0.69336 0.66599 0.0
C487 C 0.37163 0.69251 0.64995 0.0
H488 H 0.67923 0.7764 0.72143 0.0
H489 H 0.72149 0.84645 0.79938 0.0
H490 H 0.71778 0.81184 0.68563 0.0
H491 H 0.76005 0.88227 0.76329 0.0
H492 H 0.85738 0.90979 0.69561 0.0
H493 H 0.81478 0.88124 0.73321 0.0
H494 H 0.72614 0.86397 0.66084 0.0
H495 H 0.76841 0.89292 0.62343 0.0
C496 C 0.69639 0.79962 0.73081 0.0
C497 C 0.69707 0.80875 0.76316 0.0
C498 C 0.71834 0.82 0.71025 0.0
C499 C 0.74191 0.84988 0.72161 0.0
C500 C 0.74222 0.85932 0.75389 0.0
C501 C 0.71982 0.83901 0.77446 0.0
C502 C 0.82871 0.90042 0.68786 0.0
C503 C 0.81646 0.90335 0.65632 0.0
C504 C 0.8043 0.88407 0.70944 0.0
C505 C 0.76715 0.87017 0.69991 0.0
C506 C 0.75471 0.87399 0.66873 0.0
C507 C 0.77901 0.89045 0.64726 0.0
H508 H 0.81123 0.21918 0.3426 0.0
H509 H 0.80302 0.30819 0.30651 0.0
H510 H 0.77156 0.18985 0.29777 0.0
H511 H 0.76256 0.2786 0.26182 0.0
H512 H 0.72113 0.21368 0.16997 0.0
H513 H 0.76159 0.24544 0.21355 0.0
H514 H 0.70742 0.17702 0.27996 0.0
H515 H 0.66811 0.14465 0.23635 0.0
C516 C 0.80102 0.23252 0.32507 0.0
C517 C 0.81017 0.26603 0.32822 0.0
C518 C 0.77803 0.21566 0.29949 0.0
C519 C 0.76354 0.23188 0.27649 0.0
C520 C 0.77344 0.26545 0.2791 0.0
C521 C 0.79656 0.28238 0.30473 0.0
C522 C 0.71795 0.20542 0.19389 0.0
C523 C 0.69157 0.17655 0.19969 0.0
C524 C 0.74089 0.22376 0.21887 0.0
C525 C 0.73791 0.21357 0.25013 0.0
C526 C 0.71079 0.18522 0.25603 0.0
C527 C 0.68791 0.1669 0.2311 0.0
H528 H 0.50348 0.69227 0.35012 0.0
H529 H 0.39472 0.67659 0.38092 0.0
H530 H 0.51774 0.66217 0.39391 0.0
H531 H 0.40822 0.64501 0.42397 0.0
H532 H 0.45056 0.60442 0.51245 0.0
H533 H 0.43813 0.6405 0.47304 0.0
H534 H 0.50712 0.61039 0.40903 0.0
H535 H 0.5209 0.5763 0.44887 0.0
C536 C 0.48255 0.68239 0.36628 0.0
C537 C 0.44791 0.68687 0.36179 0.0
C538 C 0.49058 0.66473 0.39137 0.0
C539 C 0.46403 0.65037 0.41256 0.0
C540 C 0.42965 0.65572 0.40857 0.0
C541 C 0.42179 0.67382 0.38368 0.0
C542 C 0.46344 0.606 0.49014 0.0
C543 C 0.48719 0.58781 0.48411 0.0
C544 C 0.45601 0.62644 0.46726 0.0
C545 C 0.47185 0.62895 0.43759 0.0
C546 C 0.49507 0.61014 0.43166 0.0
C547 C 0.50271 0.59013 0.45453 0.0
H548 H 0.16611 0.44114 0.84236 0.0
H549 H 0.05369 0.38575 0.81991 0.0
H550 H 0.14743 0.46865 0.88705 0.0
H551 H 0.03514 0.41379 0.86393 0.0
H552 H 0.01696 0.50163 0.91898 0.0
H553 H 0.0374 0.47391 0.87589 0.0
H554 H 0.1155 0.45197 0.94183 0.0
H555 H 0.09442 0.47913 0.98538 0.0
C556 C 0.13745 0.43489 0.84686 0.0
C557 C 0.11142 0.41121 0.82748 0.0
C558 C 0.12681 0.45054 0.87255 0.0
C559 C 0.08981 0.44342 0.87897 0.0
C560 C 0.06382 0.41991 0.8595 0.0
C561 C 0.0745 0.40378 0.83433 0.0
C562 C 0.03855 0.49098 0.92438 0.0
C563 C 0.05402 0.49263 0.9557 0.0
C564 C 0.05013 0.47497 0.89967 0.0
C565 C 0.07804 0.46075 0.90544 0.0
C566 C 0.09404 0.46283 0.93663 0.0
C567 C 0.08186 0.47826 0.96157 0.0
H568 H 0.65677 0.90756 0.91478 0.0
H569 H 0.54858 0.87774 0.8674 0.0
H570 H 0.63539 0.93624 0.95614 0.0
H571 H 0.52741 0.90735 0.90824 0.0
H572 H 0.49319 0.93751 1.00398 0.0
H573 H 0.51377 0.90725 0.96313 0.0
H574 H 0.61638 0.98241 0.96464 0.0
H575 H 0.59645 1.01191 1.00593 0.0
C576 C 0.62849 0.9074 0.91301 0.0
C577 C 0.60442 0.8904 0.88775 0.0
C578 C 0.61622 0.92396 0.93668 0.0
C579 C 0.57963 0.9242 0.93556 0.0
C580 C 0.55561 0.90731 0.91016 0.0
C581 C 0.56784 0.89054 0.88659 0.0
C582 C 0.52018 0.94746 0.99563 0.0
C583 C 0.5432 0.97705 1.00836 0.0
C584 C 0.53191 0.93023 0.97206 0.0
C585 C 0.56683 0.94232 0.9606 0.0
C586 C 0.58963 0.97202 0.97327 0.0
C587 C 0.57804 0.98907 0.99689 0.0
H588 H 0.96569 0.22524 0.42259 0.0
H589 H 0.87667 0.18865 0.48262 0.0
H590 H 0.98701 0.17903 0.43259 0.0
H591 H 0.89842 0.14289 0.49317 0.0
H592 H 0.03782 0.11562 0.4951 0.0
H593 H 0.01526 0.15844 0.4762 0.0
H594 H 0.9052 0.09423 0.46844 0.0
H595 H 0.92768 0.05136 0.48819 0.0
C596 C 0.95078 0.20743 0.43805 0.0
C597 C 0.91959 0.2107 0.45194 0.0
C598 C 0.96301 0.18095 0.44379 0.0
C599 C 0.94434 0.15717 0.46356 0.0
C600 C 0.91307 0.16044 0.47734 0.0
C601 C 0.90081 0.18687 0.47157 0.0
C602 C 0.00885 0.11038 0.48887 0.0
C603 C 0.98452 0.0801 0.49352 0.0
C604 C 0.99593 0.13499 0.47788 0.0
C605 C 0.95836 0.1299 0.47122 0.0
C606 C 0.93424 0.09908 0.47399 0.0
C607 C 0.94718 0.07441 0.48499 0.0
H608 H 0.26156 0.63164 0.18257 0.0
H609 H 0.27796 0.70277 0.11182 0.0
H610 H 0.20846 0.59785 0.15011 0.0
H611 H 0.22483 0.66974 0.08008 0.0
H612 H 0.14442 0.59657 1.01575 0.0
H613 H 0.20155 0.62206 0.04726 0.0
H614 H 0.14678 0.59594 0.13359 0.0
H615 H 0.09001 0.5696 0.10189 0.0
C616 C 0.25391 0.64005 0.16012 0.0
C617 C 0.27405 0.66995 0.14985 0.0
C618 C 0.22337 0.62076 0.14156 0.0
C619 C 0.21231 0.63094 0.11233 0.0
C620 C 0.23281 0.66071 0.10207 0.0
C621 C 0.26324 0.67986 0.12049 0.0
C622 C 0.14479 0.59591 0.04145 0.0
C623 C 0.11273 0.5814 0.05637 0.0
C624 C 0.17745 0.61071 0.05956 0.0
C625 C 0.17876 0.61157 0.09307 0.0
C626 C 0.14696 0.59562 0.1079 0.0
C627 C 0.11434 0.58062 0.08973 0.0
H628 H 0.23275 0.46506 0.66419 0.0
H629 H 0.30251 0.41973 0.71587 0.0
H630 H 0.28375 0.49252 0.63325 0.0
H631 H 0.35335 0.44725 0.68514 0.0
H632 H 0.42289 0.47057 0.60021 0.0
H633 H 0.37059 0.44499 0.63003 0.0
H634 H 0.34446 0.53406 0.6382 0.0
H635 H 0.39686 0.55982 0.60805 0.0
C636 C 0.259 0.46111 0.66912 0.0
C637 C 0.26345 0.44007 0.69249 0.0
C638 C 0.28827 0.47695 0.65145 0.0
C639 C 0.3226 0.47191 0.6565 0.0
C640 C 0.32715 0.4513 0.68025 0.0
C641 C 0.29802 0.43568 0.69805 0.0
C642 C 0.4059 0.48474 0.60807 0.0
C643 C 0.41425 0.51733 0.60168 0.0
C644 C 0.37602 0.47008 0.62545 0.0
C645 C 0.35348 0.48751 0.63683 0.0
C646 C 0.36114 0.51988 0.62968 0.0
C647 C 0.39125 0.53466 0.61243 0.0
H648 H 0.72698 0.7171 0.9064 0.0
H649 H 0.71253 0.64369 0.83157 0.0
H650 H 0.77658 0.70041 0.93188 0.0
H651 H 0.76176 0.6269 0.85722 0.0
H652 H 0.88181 0.6383 0.88694 0.0
H653 H 0.82842 0.65135 0.86485 0.0
H654 H 0.79085 0.65513 0.95919 0.0
H655 H 0.84503 0.6426 0.9815 0.0
C656 C 0.7341 0.6972 0.89557 0.0
C657 C 0.71601 0.68189 0.86681 0.0
C658 C 0.76237 0.68754 0.91027 0.0
C659 C 0.77322 0.66251 0.89642 0.0
C660 C 0.75435 0.64658 0.86821 0.0
C661 C 0.72604 0.65612 0.8536 0.0
C662 C 0.8623 0.64211 0.90302 0.0
C663 C 0.86774 0.63968 0.93598 0.0
C664 C 0.83149 0.64921 0.89032 0.0
C665 C 0.80536 0.65413 0.91026 0.0
C666 C 0.81065 0.65162 0.94327 0.0
C667 C 0.84147 0.64425 0.956 0.0
H668 H 0.48761 0.83701 0.24682 0.0
H669 H 0.38567 0.81928 0.19036 0.0
H670 H 0.51097 0.88838 0.2221 0.0
H671 H 0.40897 0.86979 0.16557 0.0
H672 H 0.4504 0.97429 0.14139 0.0
H673 H 0.42688 0.92713 0.17248 0.0
H674 H 0.53069 0.9079 0.17081 0.0
H675 H 0.55405 0.95501 0.14019 0.0
C676 C 0.47005 0.84413 0.22944 0.0
C677 C 0.43477 0.82375 0.2206 0.0
C678 C 0.48352 0.8735 0.21502 0.0
C679 C 0.46197 0.88339 0.19161 0.0
C680 C 0.42633 0.8634 0.18366 0.0
C681 C 0.41303 0.83413 0.19784 0.0
C682 C 0.46814 0.95998 0.14775 0.0
C683 C 0.50403 0.96836 0.13817 0.0
C684 C 0.45468 0.93287 0.16553 0.0
C685 C 0.47683 0.9135 0.17433 0.0
C686 C 0.51291 0.92232 0.16503 0.0
C687 C 0.52625 0.94928 0.14718 0.0
H688 H 0.12123 0.20969 0.73326 0.0
H689 H 0.06755 0.2567 0.66653 0.0
H690 H 0.10016 0.16049 0.69971 0.0
H691 H 0.047 0.2076 0.63265 0.0
H692 H 0.97679 0.10455 0.60456 0.0
H693 H 1.00311 0.15552 0.63425 0.0
H694 H 0.10518 0.1338 0.64917 0.0
H695 H 0.07825 0.08213 0.61964 0.0
C696 C 0.10524 0.20968 0.71126 0.0
C697 C 0.09589 0.23721 0.70279 0.0
C698 C 0.09334 0.18143 0.69186 0.0
C699 C 0.07166 0.17987 0.66347 0.0
C700 C 0.06315 0.20769 0.65458 0.0
C701 C 0.07512 0.23597 0.67395 0.0
C702 C 1.00492 0.11067 0.61407 0.0
C703 C 0.02541 0.08928 0.60985 0.0
C704 C 0.02015 0.14009 0.63091 0.0
C705 C 0.05637 0.14899 0.64414 0.0
C706 C 0.0771 0.12766 0.63959 0.0
C707 C 0.0618 0.09814 0.62254 0.0
H708 H 0.79144 0.36283 0.48118 0.0
H709 H 0.80995 0.44221 0.41958 0.0
H710 H 0.74262 0.37915 0.50454 0.0
H711 H 0.76099 0.45825 0.44273 0.0
H712 H 0.68722 0.4916 0.50769 0.0
H713 H 0.74158 0.4787 0.49207 0.0
H714 H 0.68062 0.37841 0.48368 0.0
H715 H 0.62612 0.39125 0.49883 0.0
C716 C 0.78549 0.38402 0.47295 0.0
C717 C 0.80439 0.40108 0.44833 0.0
C718 C 0.75734 0.39321 0.48617 0.0
C719 C 0.74773 0.41977 0.47524 0.0
C720 C 0.76789 0.43778 0.4518 0.0
C721 C 0.79587 0.4285 0.43844 0.0
C722 C 0.68532 0.4668 0.50233 0.0
C723 C 0.6522 0.44247 0.50431 0.0
C724 C 0.71653 0.45943 0.49352 0.0
C725 C 0.71539 0.42756 0.48669 0.0
C726 C 0.68251 0.40317 0.4893 0.0
C727 C 0.65126 0.41054 0.49795 0.0
loop_
_geom_bond_atom_site_label_1
_geom_bond_atom_site_label_2
_geom_bond_distance
_geom_bond_site_symmetry_2
_ccdc_geom_bond_type
O0 Cd1 2.300 . S
O0 C7 1.275 . S
Cd1 O0 2.300 . S
Cd1 O9 2.381 . S
Cd1 O10 2.378 . S
O2 Cd3 2.385 . S
O2 C7 1.255 . S
Cd3 O2 2.385 . S
Cd3 O4 2.317 . S
O4 Cd3 2.317 . S
O4 C5 1.232 . S
C5 O4 1.232 . S
C5 O6 1.218 . S
O6 C5 1.218 . S
C7 O0 1.275 . S
C7 O2 1.255 . S
C8 O9 1.258 . S
C8 O10 1.256 . S
O9 Cd1 2.381 . S
O9 C8 1.258 . S
O10 Cd1 2.378 . S
O10 C8 1.256 . S
O11 Cd12 2.300 . S
O11 C18 1.275 . S
Cd12 O11 2.300 . S
Cd12 O20 2.381 . S
Cd12 O21 2.378 . S
O13 Cd14 2.385 . S
O13 C18 1.255 . S
Cd14 O13 2.385 . S
Cd14 O15 2.317 . S
O15 Cd14 2.317 . S
O15 C16 1.232 . S
C16 O15 1.232 . S
C16 O17 1.218 . S
O17 C16 1.218 . S
C18 O11 1.275 . S
C18 O13 1.255 . S
C19 O20 1.258 . S
C19 O21 1.256 . S
O20 Cd12 2.381 . S
O20 C19 1.258 . S
O21 Cd12 2.378 . S
O21 C19 1.256 . S
O22 Cd23 2.300 . S
O22 C29 1.275 . S
Cd23 O22 2.300 . S
Cd23 O31 2.381 . S
Cd23 O32 2.378 . S
O24 Cd25 2.385 . S
O24 C29 1.255 . S
Cd25 O24 2.385 . S
Cd25 O26 2.317 . S
O26 Cd25 2.317 . S
O26 C27 1.232 . S
C27 O26 1.232 . S
C27 O28 1.218 . S
O28 C27 1.218 . S
C29 O22 1.275 . S
C29 O24 1.255 . S
C30 O31 1.258 . S
C30 O32 1.256 . S
O31 Cd23 2.381 . S
O31 C30 1.258 . S
O32 Cd23 2.378 . S
O32 C30 1.256 . S
O33 Cd34 2.300 . S
O33 C40 1.275 . S
Cd34 O33 2.300 . S
Cd34 O42 2.381 . S
Cd34 O43 2.378 . S
O35 Cd36 2.385 . S
O35 C40 1.255 . S
Cd36 O35 2.385 . S
Cd36 O37 2.317 . S
O37 Cd36 2.317 . S
O37 C38 1.232 . S
C38 O37 1.232 . S
C38 O39 1.218 . S
O39 C38 1.218 . S
C40 O33 1.275 . S
C40 O35 1.255 . S
C41 O42 1.258 . S
C41 O43 1.256 . S
O42 Cd34 2.381 . S
O42 C41 1.258 . S
O43 Cd34 2.378 . S
O43 C41 1.256 . S
O44 Cd45 2.300 . S
O44 C51 1.275 . S
Cd45 O44 2.300 . S
Cd45 O53 2.381 . S
Cd45 O54 2.378 . S
O46 Cd47 2.385 . S
O46 C51 1.255 . S
Cd47 O46 2.385 . S
Cd47 O48 2.317 . S
O48 Cd47 2.317 . S
O48 C49 1.232 . S
C49 O48 1.232 . S
C49 O50 1.218 . S
O50 C49 1.218 . S
C51 O44 1.275 . S
C51 O46 1.255 . S
C52 O53 1.258 . S
C52 O54 1.256 . S
O53 Cd45 2.381 . S
O53 C52 1.258 . S
O54 Cd45 2.378 . S
O54 C52 1.256 . S
O55 Cd56 2.300 . S
O55 C62 1.275 . S
Cd56 O55 2.300 . S
Cd56 O64 2.381 . S
Cd56 O65 2.378 . S
O57 Cd58 2.385 . S
O57 C62 1.255 . S
Cd58 O57 2.385 . S
Cd58 O59 2.317 . S
O59 Cd58 2.317 . S
O59 C60 1.232 . S
C60 O59 1.232 . S
C60 O61 1.218 . S
O61 C60 1.218 . S
C62 O55 1.275 . S
C62 O57 1.255 . S
C63 O64 1.258 . S
C63 O65 1.256 . S
O64 Cd56 2.381 . S
O64 C63 1.258 . S
O65 Cd56 2.378 . S
O65 C63 1.256 . S
O66 Cd67 2.300 . S
O66 C73 1.275 . S
Cd67 O66 2.300 . S
Cd67 O75 2.381 . S
Cd67 O76 2.378 . S
O68 Cd69 2.385 . S
O68 C73 1.255 . S
Cd69 O68 2.385 . S
Cd69 O70 2.317 . S
O70 Cd69 2.317 . S
O70 C71 1.232 . S
C71 O70 1.232 . S
C71 O72 1.218 . S
O72 C71 1.218 . S
C73 O66 1.275 . S
C73 O68 1.255 . S
C74 O75 1.258 . S
C74 O76 1.256 . S
O75 Cd67 2.381 . S
O75 C74 1.258 . S
O76 Cd67 2.378 . S
O76 C74 1.256 . S
O77 Cd78 2.300 . S
O77 C84 1.275 . S
Cd78 O77 2.300 . S
Cd78 O86 2.381 . S
Cd78 O87 2.378 . S
O79 Cd80 2.385 . S
O79 C84 1.255 . S
Cd80 O79 2.385 . S
Cd80 O81 2.317 . S
O81 Cd80 2.317 . S
O81 C82 1.232 . S
C82 O81 1.232 . S
C82 O83 1.218 . S
O83 C82 1.218 . S
C84 O77 1.275 . S
C84 O79 1.255 . S
C85 O86 1.258 . S
C85 O87 1.256 . S
O86 Cd78 2.381 . S
O86 C85 1.258 . S
O87 Cd78 2.378 . S
O87 C85 1.256 . S
Tb88 C90 2.809 1_545 S
Tb88 O108 2.484 1_545 S
Tb88 O109 2.440 1_545 S
Tb88 O110 2.658 1_655 S
Tb88 O111 2.409 . S
Tb88 O112 2.378 1_645 S
Tb88 O116 2.325 1_545 S
Tb88 O119 2.341 . S
Tb89 C99 2.809 . S
Tb89 O110 2.325 . S
Tb89 O113 2.341 1_545 S
Tb89 O114 2.484 . S
Tb89 O115 2.440 . S
Tb89 O116 2.658 1_445 S
Tb89 O117 2.409 1_545 S
Tb89 O118 2.378 1_455 S
C90 Tb88 2.809 1_565 S
C90 C91 1.514 . S
C90 O108 1.248 . S
C90 O109 1.266 . S
C91 C90 1.514 . S
C91 C92 1.359 . S
C91 C96 1.348 . S
C92 C91 1.359 . S
C92 C93 1.380 . S
C92 H120 0.929 . S
C93 C92 1.380 . S
C93 C94 1.347 . S
C93 H121 0.931 . S
C94 C93 1.347 . S
C94 C95 1.369 . S
C95 C94 1.369 . S
C95 C96 1.408 . S
C95 H122 0.930 . S
C96 C91 1.348 . S
C96 C95 1.408 . S
C96 H123 0.930 . S
C97 O110 1.281 . S
C97 O111 1.254 1_455 S
C98 O112 1.236 . S
C98 O113 1.266 . S
C99 Tb89 2.809 . S
C99 C100 1.514 . S
C99 O114 1.248 . S
C99 O115 1.266 . S
C100 C99 1.514 . S
C100 C101 1.359 . S
C100 C105 1.348 . S
C101 C100 1.359 . S
C101 C102 1.380 . S
C101 H124 0.929 . S
C102 C101 1.380 . S
C102 C103 1.347 . S
C102 H125 0.931 . S
C103 C102 1.347 . S
C103 C104 1.369 . S
C104 C103 1.369 . S
C104 C105 1.408 . S
C104 H126 0.930 . S
C105 C100 1.348 . S
C105 C104 1.408 . S
C105 H127 0.930 . S
C106 O116 1.281 . S
C106 O117 1.254 1_655 S
C107 O118 1.236 . S
C107 O119 1.266 . S
O108 Tb88 2.484 1_565 S
O108 C90 1.248 . S
O109 Tb88 2.440 1_565 S
O109 C90 1.266 . S
O110 Tb88 2.658 1_455 S
O110 Tb89 2.325 . S
O110 C97 1.281 . S
O111 Tb88 2.409 . S
O111 C97 1.254 1_655 S
O112 Tb88 2.378 1_465 S
O112 C98 1.236 . S
O113 Tb89 2.341 1_565 S
O113 C98 1.266 . S
O114 Tb89 2.484 . S
O114 C99 1.248 . S
O115 Tb89 2.440 . S
O115 C99 1.266 . S
O116 Tb88 2.325 1_565 S
O116 Tb89 2.658 1_665 S
O116 C106 1.281 . S
O117 Tb89 2.409 1_565 S
O117 C106 1.254 1_455 S
O118 Tb89 2.378 1_655 S
O118 C107 1.236 . S
O119 Tb88 2.341 . S
O119 C107 1.266 . S
H120 C92 0.929 . S
H121 C93 0.931 . S
H122 C95 0.930 . S
H123 C96 0.930 . S
H124 C101 0.929 . S
H125 C102 0.931 . S
H126 C104 0.930 . S
H127 C105 0.930 . S
Tb128 C130 2.809 . S
Tb128 O148 2.484 . S
Tb128 O149 2.440 . S
Tb128 O150 2.658 . S
Tb128 O151 2.409 1_545 S
Tb128 O152 2.378 . S
Tb128 O156 2.325 . S
Tb128 O159 2.341 . S
Tb129 C139 2.809 1_544 S
Tb129 O150 2.324 . S
Tb129 O153 2.341 . S
Tb129 O154 2.484 1_545 S
Tb129 O155 2.440 1_554 S
Tb129 O156 2.658 . S
Tb129 O157 2.409 1_554 S
Tb129 O158 2.378 1_554 S
C130 Tb128 2.809 . S
C130 C131 1.514 . S
C130 O148 1.248 . S
C130 O149 1.266 . S
C131 C130 1.514 . S
C131 C132 1.359 . S
C131 C136 1.348 . S
C132 C131 1.359 . S
C132 C133 1.380 . S
C132 H160 0.929 . S
C133 C132 1.380 . S
C133 C134 1.347 . S
C133 H161 0.931 . S
C134 C133 1.347 . S
C134 C135 1.369 . S
C135 C134 1.369 . S
C135 C136 1.408 . S
C135 H162 0.930 . S
C136 C131 1.348 . S
C136 C135 1.408 . S
C136 H163 0.930 . S
C137 O150 1.281 1_565 S
C137 O151 1.254 . S
C138 O152 1.236 . S
C138 O153 1.266 . S
C139 Tb129 2.809 1_566 S
C139 C140 1.514 . S
C139 O154 1.248 1_556 S
C139 O155 1.266 1_565 S
C140 C139 1.514 . S
C140 C141 1.359 . S
C140 C145 1.348 . S
C141 C140 1.359 . S
C141 C142 1.380 . S
C141 H164 0.929 . S
C142 C141 1.380 . S
C142 C143 1.347 . S
C142 H165 0.931 . S
C143 C142 1.347 . S
C143 C144 1.369 . S
C144 C143 1.369 . S
C144 C145 1.408 . S
C144 H166 0.930 . S
C145 C140 1.348 . S
C145 C144 1.408 . S
C145 H167 0.930 . S
C146 O156 1.281 . S
C146 O157 1.254 1_554 S
C147 O158 1.236 1_564 S
C147 O159 1.266 1_565 S
O148 Tb128 2.484 . S
O148 C130 1.248 . S
O149 Tb128 2.440 . S
O149 C130 1.266 . S
O150 Tb128 2.658 . S
O150 Tb129 2.324 . S
O150 C137 1.281 1_545 S
O151 Tb128 2.409 1_565 S
O151 C137 1.254 . S
O152 Tb128 2.378 . S
O152 C138 1.236 . S
O153 Tb129 2.341 . S
O153 C138 1.266 . S
O154 Tb129 2.484 1_565 S
O154 C139 1.248 1_554 S
O155 Tb129 2.440 1_556 S
O155 C139 1.266 1_545 S
O156 Tb128 2.325 . S
O156 Tb129 2.658 . S
O156 C146 1.281 . S
O157 Tb129 2.409 1_556 S
O157 C146 1.254 1_556 S
O158 Tb129 2.378 1_556 S
O158 C147 1.236 1_546 S
O159 Tb128 2.341 . S
O159 C147 1.266 1_545 S
H160 C132 0.929 . S
H161 C133 0.931 . S
H162 C135 0.930 . S
H163 C136 0.930 . S
H164 C141 0.929 . S
H165 C142 0.931 . S
H166 C144 0.930 . S
H167 C145 0.930 . S
Tb168 C170 2.809 . S
Tb168 O188 2.484 . S
Tb168 O189 2.440 . S
Tb168 O190 2.658 . S
Tb168 O191 2.409 . S
Tb168 O192 2.378 . S
Tb168 O196 2.325 . S
Tb168 O199 2.341 . S
Tb169 C179 2.809 . S
Tb169 O190 2.325 . S
Tb169 O193 2.341 . S
Tb169 O194 2.484 . S
Tb169 O195 2.440 . S
Tb169 O196 2.658 . S
Tb169 O197 2.409 . S
Tb169 O198 2.378 . S
C170 Tb168 2.809 . S
C170 C171 1.514 . S
C170 O188 1.248 . S
C170 O189 1.266 . S
C171 C170 1.514 . S
C171 C172 1.359 . S
C171 C176 1.348 . S
C172 C171 1.359 . S
C172 C173 1.380 . S
C172 H200 0.929 . S
C173 C172 1.380 . S
C173 C174 1.347 . S
C173 H201 0.931 . S
C174 C173 1.347 . S
C174 C175 1.369 . S
C175 C174 1.369 . S
C175 C176 1.408 . S
C175 H202 0.930 . S
C176 C171 1.348 . S
C176 C175 1.408 . S
C176 H203 0.930 . S
C177 O190 1.281 . S
C177 O191 1.254 . S
C178 O192 1.236 . S
C178 O193 1.266 . S
C179 Tb169 2.809 . S
C179 C180 1.514 . S
C179 O194 1.248 . S
C179 O195 1.266 . S
C180 C179 1.514 . S
C180 C181 1.359 . S
C180 C185 1.348 . S
C181 C180 1.359 . S
C181 C182 1.380 . S
C181 H204 0.929 . S
C182 C181 1.380 . S
C182 C183 1.347 . S
C182 H205 0.931 . S
C183 C182 1.347 . S
C183 C184 1.369 . S
C184 C183 1.369 . S
C184 C185 1.408 . S
C184 H206 0.930 . S
C185 C180 1.348 . S
C185 C184 1.408 . S
C185 H207 0.930 . S
C186 O196 1.281 . S
C186 O197 1.254 . S
C187 O198 1.236 . S
C187 O199 1.266 . S
O188 Tb168 2.484 . S
O188 C170 1.248 . S
O189 Tb168 2.440 . S
O189 C170 1.266 . S
O190 Tb168 2.658 . S
O190 Tb169 2.325 . S
O190 C177 1.281 . S
O191 Tb168 2.409 . S
O191 C177 1.254 . S
O192 Tb168 2.378 . S
O192 C178 1.236 . S
O193 Tb169 2.341 . S
O193 C178 1.266 . S
O194 Tb169 2.484 . S
O194 C179 1.248 . S
O195 Tb169 2.440 . S
O195 C179 1.266 . S
O196 Tb168 2.325 . S
O196 Tb169 2.658 . S
O196 C186 1.281 . S
O197 Tb169 2.409 . S
O197 C186 1.254 . S
O198 Tb169 2.378 . S
O198 C187 1.236 . S
O199 Tb168 2.341 . S
O199 C187 1.266 . S
H200 C172 0.929 . S
H201 C173 0.931 . S
H202 C175 0.930 . S
H203 C176 0.930 . S
H204 C181 0.929 . S
H205 C182 0.931 . S
H206 C184 0.930 . S
H207 C185 0.930 . S
Tb208 C210 2.809 1_455 S
Tb208 O228 2.484 1_455 S
Tb208 O229 2.440 . S
Tb208 O230 2.658 1_556 S
Tb208 O231 2.409 1_556 S
Tb208 O232 2.391 1_556 S
Tb208 O236 2.325 1_455 S
Tb208 O239 2.341 . S
Tb209 C219 2.809 . S
Tb209 O230 2.325 . S
Tb209 O233 2.341 1_455 S
Tb209 O234 2.484 . S
Tb209 O235 2.440 . S
Tb209 O236 2.658 1_454 S
Tb209 O237 2.409 1_455 S
Tb209 O238 2.378 1_554 S
C210 Tb208 2.809 1_655 S
C210 C211 1.514 . S
C210 O228 1.248 . S
C210 O229 1.266 1_655 S
C211 C210 1.514 . S
C211 C212 1.359 . S
C211 C216 1.348 . S
C212 C211 1.359 . S
C212 C213 1.380 . S
C212 H240 0.929 . S
C213 C212 1.380 . S
C213 C214 1.347 . S
C213 H241 0.931 . S
C214 C213 1.347 . S
C214 C215 1.369 . S
C215 C214 1.369 . S
C215 C216 1.408 . S
C215 H242 0.930 . S
C216 C211 1.348 . S
C216 C215 1.408 . S
C216 H243 0.930 1_655 S
C217 O230 1.281 . S
C217 O231 1.254 . S
C218 O232 1.226 1_655 S
C218 O233 1.266 . S
C219 Tb209 2.809 . S
C219 C220 1.514 . S
C219 O234 1.248 . S
C219 O235 1.266 . S
C220 C219 1.514 . S
C220 C221 1.359 . S
C220 C225 1.348 . S
C221 C220 1.359 . S
C221 C222 1.380 . S
C221 H244 0.929 . S
C222 C221 1.380 . S
C222 C223 1.347 . S
C222 H245 0.931 . S
C223 C222 1.347 . S
C223 C224 1.369 . S
C224 C223 1.369 . S
C224 C225 1.408 . S
C224 H246 0.930 . S
C225 C220 1.348 . S
C225 C224 1.408 . S
C225 H247 0.930 . S
C226 O236 1.281 . S
C226 O237 1.254 1_556 S
C227 O238 1.236 . S
C227 O239 1.266 . S
O228 Tb208 2.484 1_655 S
O228 C210 1.248 . S
O229 Tb208 2.440 . S
O229 C210 1.266 1_455 S
O230 Tb208 2.658 1_554 S
O230 Tb209 2.325 . S
O230 C217 1.281 . S
O231 Tb208 2.409 1_554 S
O231 C217 1.254 . S
O232 Tb208 2.391 1_554 S
O232 C218 1.226 1_455 S
O233 Tb209 2.341 1_655 S
O233 C218 1.266 . S
O234 Tb209 2.484 . S
O234 C219 1.248 . S
O235 Tb209 2.440 . S
O235 C219 1.266 . S
O236 Tb208 2.325 1_655 S
O236 Tb209 2.658 1_656 S
O236 C226 1.281 . S
O237 Tb209 2.409 1_655 S
O237 C226 1.254 1_554 S
O238 Tb209 2.378 1_556 S
O238 C227 1.236 . S
O239 Tb208 2.341 . S
O239 C227 1.266 . S
H240 C212 0.929 . S
H241 C213 0.931 . S
H242 C215 0.930 . S
H243 C216 0.930 1_455 S
H244 C221 0.929 . S
H245 C222 0.931 . S
H246 C224 0.930 . S
H247 C225 0.930 . S
H248 C256 0.950 . S
H249 C261 0.950 . S
H250 C258 0.950 . S
H251 C260 0.950 . S
H252 C262 0.950 . S
H253 C264 0.950 . S
H254 C266 0.950 . S
H255 C267 0.950 . S
C256 H248 0.950 . S
C256 C257 1.386 . S
C256 C258 1.391 . S
C257 C256 1.386 . S
C257 C261 1.393 . S
C258 H250 0.950 . S
C258 C256 1.391 . S
C258 C259 1.400 . S
C259 C258 1.400 . S
C259 C260 1.398 . S
C259 C265 1.491 . S
C260 H251 0.950 . S
C260 C259 1.398 . S
C260 C261 1.391 . S
C261 H249 0.950 . S
C261 C257 1.393 . S
C261 C260 1.391 . S
C262 H252 0.950 . S
C262 C263 1.386 . S
C262 C264 1.391 . S
C263 C262 1.386 . S
C263 C267 1.393 . S
C264 H253 0.950 . S
C264 C262 1.391 . S
C264 C265 1.400 . S
C265 C259 1.491 . S
C265 C264 1.400 . S
C265 C266 1.398 . S
C266 H254 0.950 . S
C266 C265 1.398 . S
C266 C267 1.391 . S
C267 H255 0.950 . S
C267 C263 1.393 . S
C267 C266 1.391 . S
H268 C276 0.950 . S
H269 C281 0.950 . S
H270 C278 0.950 . S
H271 C280 0.950 . S
H272 C282 0.950 . S
H273 C284 0.950 . S
H274 C286 0.950 . S
H275 C287 0.950 . S
C276 H268 0.950 . S
C276 C277 1.386 . S
C276 C278 1.391 . S
C277 C276 1.386 . S
C277 C281 1.393 . S
C278 H270 0.950 . S
C278 C276 1.391 . S
C278 C279 1.400 . S
C279 C278 1.400 . S
C279 C280 1.398 . S
C279 C285 1.491 . S
C280 H271 0.950 . S
C280 C279 1.398 . S
C280 C281 1.391 . S
C281 H269 0.950 . S
C281 C277 1.393 . S
C281 C280 1.391 . S
C282 H272 0.950 . S
C282 C283 1.386 . S
C282 C284 1.391 . S
C283 C282 1.386 . S
C283 C287 1.393 . S
C284 H273 0.950 . S
C284 C282 1.391 . S
C284 C285 1.400 . S
C285 C279 1.491 . S
C285 C284 1.400 . S
C285 C286 1.398 . S
C286 H274 0.950 . S
C286 C285 1.398 . S
C286 C287 1.391 . S
C287 H275 0.950 . S
C287 C283 1.393 . S
C287 C286 1.391 . S
H288 C296 0.950 . S
H289 C301 0.950 . S
H290 C298 0.950 . S
H291 C300 0.950 . S
H292 C302 0.950 . S
H293 C304 0.950 . S
H294 C306 0.950 . S
H295 C307 0.950 . S
C296 H288 0.950 . S
C296 C297 1.386 . S
C296 C298 1.391 . S
C297 C296 1.386 . S
C297 C301 1.393 . S
C298 H290 0.950 . S
C298 C296 1.391 . S
C298 C299 1.400 . S
C299 C298 1.400 . S
C299 C300 1.398 . S
C299 C305 1.491 . S
C300 H291 0.950 . S
C300 C299 1.398 . S
C300 C301 1.391 . S
C301 H289 0.950 . S
C301 C297 1.393 . S
C301 C300 1.391 . S
C302 H292 0.950 . S
C302 C303 1.386 . S
C302 C304 1.391 . S
C303 C302 1.386 . S
C303 C307 1.393 . S
C304 H293 0.950 . S
C304 C302 1.391 . S
C304 C305 1.400 . S
C305 C299 1.491 . S
C305 C304 1.400 . S
C305 C306 1.398 . S
C306 H294 0.950 . S
C306 C305 1.398 . S
C306 C307 1.391 . S
C307 H295 0.950 . S
C307 C303 1.393 . S
C307 C306 1.391 . S
H308 C316 0.950 . S
H309 C321 0.950 . S
H310 C318 0.950 . S
H311 C320 0.950 . S
H312 C322 0.950 . S
H313 C324 0.950 . S
H314 C326 0.950 . S
H315 C327 0.950 1_455 S
C316 H308 0.950 . S
C316 C317 1.386 . S
C316 C318 1.391 . S
C317 C316 1.386 . S
C317 C321 1.393 . S
C318 H310 0.950 . S
C318 C316 1.391 . S
C318 C319 1.400 . S
C319 C318 1.400 . S
C319 C320 1.398 . S
C319 C325 1.491 . S
C320 H311 0.950 . S
C320 C319 1.398 . S
C320 C321 1.391 . S
C321 H309 0.950 . S
C321 C317 1.393 . S
C321 C320 1.391 . S
C322 H312 0.950 . S
C322 C323 1.386 . S
C322 C324 1.391 . S
C323 C322 1.386 . S
C323 C327 1.393 . S
C324 H313 0.950 . S
C324 C322 1.391 . S
C324 C325 1.400 . S
C325 C319 1.491 . S
C325 C324 1.400 . S
C325 C326 1.398 . S
C326 H314 0.950 . S
C326 C325 1.398 . S
C326 C327 1.391 . S
C327 H315 0.950 1_655 S
C327 C323 1.393 . S
C327 C326 1.391 . S
H328 C336 0.950 . S
H329 C341 0.950 . S
H330 C338 0.950 . S
H331 C340 0.950 . S
H332 C342 0.950 . S
H333 C344 0.950 . S
H334 C346 0.950 . S
H335 C347 0.950 . S
C336 H328 0.950 . S
C336 C337 1.386 . S
C336 C338 1.391 . S
C337 C336 1.386 . S
C337 C341 1.393 . S
C338 H330 0.950 . S
C338 C336 1.391 . S
C338 C339 1.400 . S
C339 C338 1.400 . S
C339 C340 1.398 . S
C339 C345 1.491 . S
C340 H331 0.950 . S
C340 C339 1.398 . S
C340 C341 1.391 . S
C341 H329 0.950 . S
C341 C337 1.393 . S
C341 C340 1.391 . S
C342 H332 0.950 . S
C342 C343 1.386 . S
C342 C344 1.391 . S
C343 C342 1.386 . S
C343 C347 1.393 . S
C344 H333 0.950 . S
C344 C342 1.391 . S
C344 C345 1.400 . S
C345 C339 1.491 . S
C345 C344 1.400 . S
C345 C346 1.398 . S
C346 H334 0.950 . S
C346 C345 1.398 . S
C346 C347 1.391 . S
C347 H335 0.950 . S
C347 C343 1.393 . S
C347 C346 1.391 . S
H348 C356 0.950 . S
H349 C361 0.950 . S
H350 C358 0.950 . S
H351 C360 0.950 . S
H352 C362 0.950 . S
H353 C364 0.950 . S
H354 C366 0.950 . S
H355 C367 0.950 . S
C356 H348 0.950 . S
C356 C357 1.386 . S
C356 C358 1.391 . S
C357 C356 1.386 . S
C357 C361 1.393 . S
C358 H350 0.950 . S
C358 C356 1.391 . S
C358 C359 1.400 . S
C359 C358 1.400 . S
C359 C360 1.398 . S
C359 C365 1.491 . S
C360 H351 0.950 . S
C360 C359 1.398 . S
C360 C361 1.391 . S
C361 H349 0.950 . S
C361 C357 1.393 . S
C361 C360 1.391 . S
C362 H352 0.950 . S
C362 C363 1.386 . S
C362 C364 1.391 . S
C363 C362 1.386 . S
C363 C367 1.393 . S
C364 H353 0.950 . S
C364 C362 1.391 . S
C364 C365 1.400 . S
C365 C359 1.491 . S
C365 C364 1.400 . S
C365 C366 1.398 . S
C366 H354 0.950 . S
C366 C365 1.398 . S
C366 C367 1.391 . S
C367 H355 0.950 . S
C367 C363 1.393 . S
C367 C366 1.391 . S
H368 C376 0.950 . S
H369 C381 0.950 . S
H370 C378 0.950 . S
H371 C380 0.950 . S
H372 C382 0.950 . S
H373 C384 0.950 . S
H374 C386 0.950 . S
H375 C387 0.950 . S
C376 H368 0.950 . S
C376 C377 1.386 . S
C376 C378 1.391 . S
C377 C376 1.386 . S
C377 C381 1.393 . S
C378 H370 0.950 . S
C378 C376 1.391 . S
C378 C379 1.400 . S
C379 C378 1.400 . S
C379 C380 1.398 . S
C379 C385 1.491 . S
C380 H371 0.950 . S
C380 C379 1.398 . S
C380 C381 1.391 . S
C381 H369 0.950 . S
C381 C377 1.393 . S
C381 C380 1.391 . S
C382 H372 0.950 . S
C382 C383 1.386 . S
C382 C384 1.391 . S
C383 C382 1.386 . S
C383 C387 1.393 . S
C384 H373 0.950 . S
C384 C382 1.391 . S
C384 C385 1.400 . S
C385 C379 1.491 . S
C385 C384 1.400 . S
C385 C386 1.398 . S
C386 H374 0.950 . S
C386 C385 1.398 . S
C386 C387 1.391 . S
C387 H375 0.950 . S
C387 C383 1.393 . S
C387 C386 1.391 . S
H388 C396 0.950 . S
H389 C401 0.950 . S
H390 C398 0.950 . S
H391 C400 0.950 . S
H392 C402 0.950 . S
H393 C404 0.950 . S
H394 C406 0.950 . S
H395 C407 0.950 . S
C396 H388 0.950 . S
C396 C397 1.386 . S
C396 C398 1.391 . S
C397 C396 1.386 . S
C397 C401 1.393 . S
C398 H390 0.950 . S
C398 C396 1.391 . S
C398 C399 1.400 . S
C399 C398 1.400 . S
C399 C400 1.398 . S
C399 C405 1.491 . S
C400 H391 0.950 . S
C400 C399 1.398 . S
C400 C401 1.391 . S
C401 H389 0.950 . S
C401 C397 1.393 . S
C401 C400 1.391 . S
C402 H392 0.950 . S
C402 C403 1.386 . S
C402 C404 1.391 . S
C403 C402 1.386 . S
C403 C407 1.393 . S
C404 H393 0.950 . S
C404 C402 1.391 . S
C404 C405 1.400 . S
C405 C399 1.491 . S
C405 C404 1.400 . S
C405 C406 1.398 . S
C406 H394 0.950 . S
C406 C405 1.398 . S
C406 C407 1.391 . S
C407 H395 0.950 . S
C407 C403 1.393 . S
C407 C406 1.391 . S
H408 C416 0.950 . S
H409 C421 0.950 . S
H410 C418 0.950 . S
H411 C420 0.950 . S
H412 C422 0.950 . S
H413 C424 0.950 . S
H414 C426 0.950 . S
H415 C427 0.950 . S
C416 H408 0.950 . S
C416 C417 1.386 . S
C416 C418 1.391 . S
C417 C416 1.386 . S
C417 C421 1.393 . S
C418 H410 0.950 . S
C418 C416 1.391 . S
C418 C419 1.400 . S
C419 C418 1.400 . S
C419 C420 1.398 . S
C419 C425 1.491 . S
C420 H411 0.950 . S
C420 C419 1.398 . S
C420 C421 1.391 . S
C421 H409 0.950 . S
C421 C417 1.393 . S
C421 C420 1.391 . S
C422 H412 0.950 . S
C422 C423 1.386 . S
C422 C424 1.391 . S
C423 C422 1.386 . S
C423 C427 1.393 . S
C424 H413 0.950 . S
C424 C422 1.391 . S
C424 C425 1.400 . S
C425 C419 1.491 . S
C425 C424 1.400 . S
C425 C426 1.398 . S
C426 H414 0.950 . S
C426 C425 1.398 . S
C426 C427 1.391 . S
C427 H415 0.950 . S
C427 C423 1.393 . S
C427 C426 1.391 . S
H428 C436 0.950 . S
H429 C441 0.950 . S
H430 C438 0.950 . S
H431 C440 0.950 . S
H432 C442 0.950 1_554 S
H433 C444 0.950 . S
H434 C446 0.950 . S
H435 C447 0.950 . S
C436 H428 0.950 . S
C436 C437 1.386 . S
C436 C438 1.391 . S
C437 C436 1.386 . S
C437 C441 1.393 . S
C438 H430 0.950 . S
C438 C436 1.391 . S
C438 C439 1.400 . S
C439 C438 1.400 . S
C439 C440 1.398 . S
C439 C445 1.491 . S
C440 H431 0.950 . S
C440 C439 1.398 . S
C440 C441 1.391 . S
C441 H429 0.950 . S
C441 C437 1.393 . S
C441 C440 1.391 . S
C442 H432 0.950 1_556 S
C442 C443 1.386 . S
C442 C444 1.391 . S
C443 C442 1.386 . S
C443 C447 1.393 . S
C444 H433 0.950 . S
C444 C442 1.391 . S
C444 C445 1.400 . S
C445 C439 1.491 . S
C445 C444 1.400 . S
C445 C446 1.398 . S
C446 H434 0.950 . S
C446 C445 1.398 . S
C446 C447 1.391 . S
C447 H435 0.950 . S
C447 C443 1.393 . S
C447 C446 1.391 . S
H448 C456 0.950 . S
H449 C461 0.950 . S
H450 C458 0.950 . S
H451 C460 0.950 . S
H452 C462 0.950 . S
H453 C464 0.950 . S
H454 C466 0.950 . S
H455 C467 0.950 . S
C456 H448 0.950 . S
C456 C457 1.386 . S
C456 C458 1.391 . S
C457 C456 1.386 . S
C457 C461 1.393 . S
C458 H450 0.950 . S
C458 C456 1.391 . S
C458 C459 1.400 . S
C459 C458 1.400 . S
C459 C460 1.398 . S
C459 C465 1.491 . S
C460 H451 0.950 . S
C460 C459 1.398 . S
C460 C461 1.391 . S
C461 H449 0.950 . S
C461 C457 1.393 . S
C461 C460 1.391 . S
C462 H452 0.950 . S
C462 C463 1.386 . S
C462 C464 1.391 . S
C463 C462 1.386 . S
C463 C467 1.393 . S
C464 H453 0.950 . S
C464 C462 1.391 . S
C464 C465 1.400 . S
C465 C459 1.491 . S
C465 C464 1.400 . S
C465 C466 1.398 . S
C466 H454 0.950 . S
C466 C465 1.398 . S
C466 C467 1.391 . S
C467 H455 0.950 . S
C467 C463 1.393 . S
C467 C466 1.391 . S
H468 C476 0.950 . S
H469 C481 0.950 . S
H470 C478 0.950 . S
H471 C480 0.950 . S
H472 C482 0.950 . S
H473 C484 0.950 . S
H474 C486 0.950 . S
H475 C487 0.950 . S
C476 H468 0.950 . S
C476 C477 1.386 . S
C476 C478 1.391 . S
C477 C476 1.386 . S
C477 C481 1.393 . S
C478 H470 0.950 . S
C478 C476 1.391 . S
C478 C479 1.400 . S
C479 C478 1.400 . S
C479 C480 1.398 . S
C479 C485 1.491 . S
C480 H471 0.950 . S
C480 C479 1.398 . S
C480 C481 1.391 . S
C481 H469 0.950 . S
C481 C477 1.393 . S
C481 C480 1.391 . S
C482 H472 0.950 . S
C482 C483 1.386 . S
C482 C484 1.391 . S
C483 C482 1.386 . S
C483 C487 1.393 . S
C484 H473 0.950 . S
C484 C482 1.391 . S
C484 C485 1.400 . S
C485 C479 1.491 . S
C485 C484 1.400 . S
C485 C486 1.398 . S
C486 H474 0.950 . S
C486 C485 1.398 . S
C486 C487 1.391 . S
C487 H475 0.950 . S
C487 C483 1.393 . S
C487 C486 1.391 . S
H488 C496 0.950 . S
H489 C501 0.950 . S
H490 C498 0.950 . S
H491 C500 0.950 . S
H492 C502 0.950 . S
H493 C504 0.950 . S
H494 C506 0.950 . S
H495 C507 0.950 . S
C496 H488 0.950 . S
C496 C497 1.386 . S
C496 C498 1.391 . S
C497 C496 1.386 . S
C497 C501 1.393 . S
C498 H490 0.950 . S
C498 C496 1.391 . S
C498 C499 1.400 . S
C499 C498 1.400 . S
C499 C500 1.398 . S
C499 C505 1.491 . S
C500 H491 0.950 . S
C500 C499 1.398 . S
C500 C501 1.391 . S
C501 H489 0.950 . S
C501 C497 1.393 . S
C501 C500 1.391 . S
C502 H492 0.950 . S
C502 C503 1.386 . S
C502 C504 1.391 . S
C503 C502 1.386 . S
C503 C507 1.393 . S
C504 H493 0.950 . S
C504 C502 1.391 . S
C504 C505 1.400 . S
C505 C499 1.491 . S
C505 C504 1.400 . S
C505 C506 1.398 . S
C506 H494 0.950 . S
C506 C505 1.398 . S
C506 C507 1.391 . S
C507 H495 0.950 . S
C507 C503 1.393 . S
C507 C506 1.391 . S
H508 C516 0.950 . S
H509 C521 0.950 . S
H510 C518 0.950 . S
H511 C520 0.950 . S
H512 C522 0.950 . S
H513 C524 0.950 . S
H514 C526 0.950 . S
H515 C527 0.950 . S
C516 H508 0.950 . S
C516 C517 1.386 . S
C516 C518 1.391 . S
C517 C516 1.386 . S
C517 C521 1.393 . S
C518 H510 0.950 . S
C518 C516 1.391 . S
C518 C519 1.400 . S
C519 C518 1.400 . S
C519 C520 1.398 . S
C519 C525 1.491 . S
C520 H511 0.950 . S
C520 C519 1.398 . S
C520 C521 1.391 . S
C521 H509 0.950 . S
C521 C517 1.393 . S
C521 C520 1.391 . S
C522 H512 0.950 . S
C522 C523 1.386 . S
C522 C524 1.391 . S
C523 C522 1.386 . S
C523 C527 1.393 . S
C524 H513 0.950 . S
C524 C522 1.391 . S
C524 C525 1.400 . S
C525 C519 1.491 . S
C525 C524 1.400 . S
C525 C526 1.398 . S
C526 H514 0.950 . S
C526 C525 1.398 . S
C526 C527 1.391 . S
C527 H515 0.950 . S
C527 C523 1.393 . S
C527 C526 1.391 . S
H528 C536 0.950 . S
H529 C541 0.950 . S
H530 C538 0.950 . S
H531 C540 0.950 . S
H532 C542 0.950 . S
H533 C544 0.950 . S
H534 C546 0.950 . S
H535 C547 0.950 . S
C536 H528 0.950 . S
C536 C537 1.386 . S
C536 C538 1.391 . S
C537 C536 1.386 . S
C537 C541 1.393 . S
C538 H530 0.950 . S
C538 C536 1.391 . S
C538 C539 1.400 . S
C539 C538 1.400 . S
C539 C540 1.398 . S
C539 C545 1.491 . S
C540 H531 0.950 . S
C540 C539 1.398 . S
C540 C541 1.391 . S
C541 H529 0.950 . S
C541 C537 1.393 . S
C541 C540 1.391 . S
C542 H532 0.950 . S
C542 C543 1.386 . S
C542 C544 1.391 . S
C543 C542 1.386 . S
C543 C547 1.393 . S
C544 H533 0.950 . S
C544 C542 1.391 . S
C544 C545 1.400 . S
C545 C539 1.491 . S
C545 C544 1.400 . S
C545 C546 1.398 . S
C546 H534 0.950 . S
C546 C545 1.398 . S
C546 C547 1.391 . S
C547 H535 0.950 . S
C547 C543 1.393 . S
C547 C546 1.391 . S
H548 C556 0.950 . S
H549 C561 0.950 . S
H550 C558 0.950 . S
H551 C560 0.950 . S
H552 C562 0.950 . S
H553 C564 0.950 . S
H554 C566 0.950 . S
H555 C567 0.950 . S
C556 H548 0.950 . S
C556 C557 1.386 . S
C556 C558 1.391 . S
C557 C556 1.386 . S
C557 C561 1.393 . S
C558 H550 0.950 . S
C558 C556 1.391 . S
C558 C559 1.400 . S
C559 C558 1.400 . S
C559 C560 1.398 . S
C559 C565 1.491 . S
C560 H551 0.950 . S
C560 C559 1.398 . S
C560 C561 1.391 . S
C561 H549 0.950 . S
C561 C557 1.393 . S
C561 C560 1.391 . S
C562 H552 0.950 . S
C562 C563 1.386 . S
C562 C564 1.391 . S
C563 C562 1.386 . S
C563 C567 1.393 . S
C564 H553 0.950 . S
C564 C562 1.391 . S
C564 C565 1.400 . S
C565 C559 1.491 . S
C565 C564 1.400 . S
C565 C566 1.398 . S
C566 H554 0.950 . S
C566 C565 1.398 . S
C566 C567 1.391 . S
C567 H555 0.950 . S
C567 C563 1.393 . S
C567 C566 1.391 . S
H568 C576 0.950 . S
H569 C581 0.950 . S
H570 C578 0.950 . S
H571 C580 0.950 . S
H572 C582 0.950 . S
H573 C584 0.950 . S
H574 C586 0.950 . S
H575 C587 0.950 1_554 S
C576 H568 0.950 . S
C576 C577 1.386 . S
C576 C578 1.391 . S
C577 C576 1.386 . S
C577 C581 1.393 . S
C578 H570 0.950 . S
C578 C576 1.391 . S
C578 C579 1.400 . S
C579 C578 1.400 . S
C579 C580 1.398 . S
C579 C585 1.491 . S
C580 H571 0.950 . S
C580 C579 1.398 . S
C580 C581 1.391 . S
C581 H569 0.950 . S
C581 C577 1.393 . S
C581 C580 1.391 . S
C582 H572 0.950 . S
C582 C583 1.386 . S
C582 C584 1.391 . S
C583 C582 1.386 . S
C583 C587 1.393 . S
C584 H573 0.950 . S
C584 C582 1.391 . S
C584 C585 1.400 . S
C585 C579 1.491 . S
C585 C584 1.400 . S
C585 C586 1.398 . S
C586 H574 0.950 . S
C586 C585 1.398 . S
C586 C587 1.391 . S
C587 H575 0.950 1_556 S
C587 C583 1.393 . S
C587 C586 1.391 . S
H588 C596 0.950 . S
H589 C601 0.950 . S
H590 C598 0.950 . S
H591 C600 0.936 1_455 S
H592 C602 0.950 1_455 S
H593 C604 0.945 1_455 S
H594 C606 0.950 . S
H595 C607 0.950 . S
C596 H588 0.950 . S
C596 C597 1.386 . S
C596 C598 1.391 . S
C597 C596 1.386 . S
C597 C601 1.393 . S
C598 H590 0.950 . S
C598 C596 1.391 . S
C598 C599 1.400 . S
C599 C598 1.400 . S
C599 C600 1.398 . S
C599 C605 1.491 . S
C600 H591 0.936 1_655 S
C600 C599 1.398 . S
C600 C601 1.391 . S
C601 H589 0.950 . S
C601 C597 1.393 . S
C601 C600 1.391 . S
C602 H592 0.950 1_655 S
C602 C603 1.386 . S
C602 C604 1.391 . S
C603 C602 1.386 . S
C603 C607 1.393 . S
C604 H593 0.945 1_655 S
C604 C602 1.391 . S
C604 C605 1.400 . S
C605 C599 1.491 . S
C605 C604 1.400 . S
C605 C606 1.398 . S
C606 H594 0.950 . S
C606 C605 1.398 . S
C606 C607 1.391 . S
C607 H595 0.950 . S
C607 C603 1.393 . S
C607 C606 1.391 . S
H608 C616 0.950 . S
H609 C621 0.950 . S
H610 C618 0.950 . S
H611 C620 0.950 . S
H612 C622 0.950 . S
H613 C624 0.950 . S
H614 C626 0.950 . S
H615 C627 0.950 . S
C616 H608 0.950 . S
C616 C617 1.386 . S
C616 C618 1.391 . S
C617 C616 1.386 . S
C617 C621 1.393 . S
C618 H610 0.950 . S
C618 C616 1.391 . S
C618 C619 1.400 . S
C619 C618 1.400 . S
C619 C620 1.398 . S
C619 C625 1.491 . S
C620 H611 0.950 . S
C620 C619 1.398 . S
C620 C621 1.391 . S
C621 H609 0.950 . S
C621 C617 1.393 . S
C621 C620 1.391 . S
C622 H612 0.950 . S
C622 C623 1.386 . S
C622 C624 1.391 . S
C623 C622 1.386 . S
C623 C627 1.393 . S
C624 H613 0.950 . S
C624 C622 1.391 . S
C624 C625 1.400 . S
C625 C619 1.491 . S
C625 C624 1.400 . S
C625 C626 1.398 . S
C626 H614 0.950 . S
C626 C625 1.398 . S
C626 C627 1.391 . S
C627 H615 0.950 . S
C627 C623 1.393 . S
C627 C626 1.391 . S
H628 C636 0.950 . S
H629 C641 0.950 . S
H630 C638 0.950 . S
H631 C640 0.950 . S
H632 C642 0.950 . S
H633 C644 0.950 . S
H634 C646 0.950 . S
H635 C647 0.950 . S
C636 H628 0.950 . S
C636 C637 1.386 . S
C636 C638 1.391 . S
C637 C636 1.386 . S
C637 C641 1.393 . S
C638 H630 0.950 . S
C638 C636 1.391 . S
C638 C639 1.400 . S
C639 C638 1.400 . S
C639 C640 1.398 . S
C639 C645 1.491 . S
C640 H631 0.950 . S
C640 C639 1.398 . S
C640 C641 1.391 . S
C641 H629 0.950 . S
C641 C637 1.393 . S
C641 C640 1.391 . S
C642 H632 0.950 . S
C642 C643 1.386 . S
C642 C644 1.391 . S
C643 C642 1.386 . S
C643 C647 1.393 . S
C644 H633 0.950 . S
C644 C642 1.391 . S
C644 C645 1.400 . S
C645 C639 1.491 . S
C645 C644 1.400 . S
C645 C646 1.398 . S
C646 H634 0.950 . S
C646 C645 1.398 . S
C646 C647 1.391 . S
C647 H635 0.950 . S
C647 C643 1.393 . S
C647 C646 1.391 . S
H648 C656 0.950 . S
H649 C661 0.950 . S
H650 C658 0.950 . S
H651 C660 0.950 . S
H652 C662 0.950 . S
H653 C664 0.950 . S
H654 C666 0.950 . S
H655 C667 0.981 . S
C656 H648 0.950 . S
C656 C657 1.386 . S
C656 C658 1.391 . S
C657 C656 1.386 . S
C657 C661 1.393 . S
C658 H650 0.950 . S
C658 C656 1.391 . S
C658 C659 1.400 . S
C659 C658 1.400 . S
C659 C660 1.398 . S
C659 C665 1.491 . S
C660 H651 0.950 . S
C660 C659 1.398 . S
C660 C661 1.391 . S
C661 H649 0.950 . S
C661 C657 1.393 . S
C661 C660 1.391 . S
C662 H652 0.950 . S
C662 C663 1.386 . S
C662 C664 1.391 . S
C663 C662 1.386 . S
C663 C667 1.393 . S
C664 H653 0.950 . S
C664 C662 1.391 . S
C664 C665 1.400 . S
C665 C659 1.491 . S
C665 C664 1.400 . S
C665 C666 1.398 . S
C666 H654 0.950 . S
C666 C665 1.398 . S
C666 C667 1.391 . S
C667 H655 0.981 . S
C667 C663 1.393 . S
C667 C666 1.391 . S
H668 C676 0.950 . S
H669 C681 0.950 . S
H670 C678 0.950 . S
H671 C680 0.950 . S
H672 C682 0.950 . S
H673 C684 0.950 . S
H674 C686 0.950 . S
H675 C687 0.950 . S
C676 H668 0.950 . S
C676 C677 1.386 . S
C676 C678 1.391 . S
C677 C676 1.386 . S
C677 C681 1.393 . S
C678 H670 0.950 . S
C678 C676 1.391 . S
C678 C679 1.400 . S
C679 C678 1.400 . S
C679 C680 1.398 . S
C679 C685 1.491 . S
C680 H671 0.950 . S
C680 C679 1.398 . S
C680 C681 1.391 . S
C681 H669 0.950 . S
C681 C677 1.393 . S
C681 C680 1.391 . S
C682 H672 0.950 . S
C682 C683 1.386 . S
C682 C684 1.391 . S
C683 C682 1.386 . S
C683 C687 1.393 . S
C684 H673 0.950 . S
C684 C682 1.391 . S
C684 C685 1.400 . S
C685 C679 1.491 . S
C685 C684 1.400 . S
C685 C686 1.398 . S
C686 H674 0.950 . S
C686 C685 1.398 . S
C686 C687 1.391 . S
C687 H675 0.950 . S
C687 C683 1.393 . S
C687 C686 1.391 . S
H688 C696 0.950 . S
H689 C701 0.950 . S
H690 C698 0.950 . S
H691 C700 0.950 . S
H692 C702 0.950 . S
H693 C704 0.950 . S
H694 C706 0.950 . S
H695 C707 0.950 . S
C696 H688 0.950 . S
C696 C697 1.386 . S
C696 C698 1.391 . S
C697 C696 1.386 . S
C697 C701 1.393 . S
C698 H690 0.950 . S
C698 C696 1.391 . S
C698 C699 1.400 . S
C699 C698 1.400 . S
C699 C700 1.398 . S
C699 C705 1.491 . S
C700 H691 0.950 . S
C700 C699 1.398 . S
C700 C701 1.391 . S
C701 H689 0.950 . S
C701 C697 1.393 . S
C701 C700 1.391 . S
C702 H692 0.950 . S
C702 C703 1.386 . S
C702 C704 1.391 . S
C703 C702 1.386 . S
C703 C707 1.393 . S
C704 H693 0.950 . S
C704 C702 1.391 . S
C704 C705 1.400 . S
C705 C699 1.491 . S
C705 C704 1.400 . S
C705 C706 1.398 . S
C706 H694 0.950 . S
C706 C705 1.398 . S
C706 C707 1.391 . S
C707 H695 0.950 . S
C707 C703 1.393 . S
C707 C706 1.391 . S
H708 C716 0.950 . S
H709 C721 0.950 . S
H710 C718 0.950 . S
H711 C720 0.950 . S
H712 C722 0.950 . S
H713 C724 0.950 . S
H714 C726 0.950 . S
H715 C727 0.950 . S
C716 H708 0.950 . S
C716 C717 1.386 . S
C716 C718 1.391 . S
C717 C716 1.386 . S
C717 C721 1.393 . S
C718 H710 0.950 . S
C718 C716 1.391 . S
C718 C719 1.400 . S
C719 C718 1.400 . S
C719 C720 1.398 . S
C719 C725 1.491 . S
C720 H711 0.950 . S
C720 C719 1.398 . S
C720 C721 1.391 . S
C721 H709 0.950 . S
C721 C717 1.393 . S
C721 C720 1.391 . S
C722 H712 0.950 . S
C722 C723 1.386 . S
C722 C724 1.391 . S
C723 C722 1.386 . S
C723 C727 1.393 . S
C724 H713 0.950 . S
C724 C722 1.391 . S
C724 C725 1.400 . S
C725 C719 1.491 . S
C725 C724 1.400 . S
C725 C726 1.398 . S
C726 H714 0.950 . S
C726 C725 1.398 . S
C726 C727 1.391 . S
C727 H715 0.950 . S
C727 C723 1.393 . S
C727 C726 1.391 . S
C257 C5 1.110 . S
C263 C103 1.312 . S
C277 C18 1.125 . S
C283 C143 1.148 . S
C303 C177 2.114 . S
C297 C30 2.130 . S
C317 C41 2.334 . S
C323 C218 2.311 . S
C343 C138 1.496 . S
C337 C7 1.380 . S
C363 C98 2.175 . S
C357 C16 2.107 . S
C383 C226 1.630 . S
C377 C29 1.624 . S
C403 C187 1.431 . S
C397 C38 1.191 . S
C417 C8 1.318 . S
C423 C223 1.354 . S
C443 C146 2.201 1_556 S
C437 C27 2.040 . S
C457 C40 2.470 . S
C463 C106 2.402 . S
C477 C19 1.398 . S
C483 C174 1.409 . S
C503 C94 1.344 . S
C497 C51 1.190 . S
C517 C62 1.478 . S
C523 C134 1.421 . S
C537 C74 2.293 . S
C543 C186 2.289 . S
C557 C84 2.299 . S
C563 C227 2.342 . S
C577 C49 1.454 . S
C583 C147 1.857 1_556 S
C603 C107 2.145 . S
C597 C63 2.099 . S
C623 C217 1.489 . S
C617 C71 1.342 . S
C643 C178 1.621 . S
C637 C85 1.680 . S
C657 C52 1.298 . S
C663 C214 1.366 . S
C683 C137 2.262 . S
C677 C73 2.331 . S
C703 C97 2.054 . S
C697 C82 1.990 . S
C717 C60 1.482 . S
C723 C183 1.583 . S
