# Generated by pormake.
# Topology ssa, (4,4)-cn, num edge types: 1
# Building blocks:
#     Node 0, Type 0, BuildingBlock: KOZSID_clean_sbu_0, # of connection points: 4
#     Node 1, Type 0, BuildingBlock: KOZSID_clean_sbu_0, # of connection points: 4
#     Node 2, Type 0, BuildingBlock: KOZSID_clean_sbu_0, # of connection points: 4
#     Node 3, Type 0, BuildingBlock: KOZSID_clean_sbu_0, # of connection points: 4
#     Node 4, Type 0, BuildingBlock: KOZSID_clean_sbu_0, # of connection points: 4
#     Node 5, Type 0, BuildingBlock: KOZSID_clean_sbu_0, # of connection points: 4
#     Node 6, Type 1, BuildingBlock: MUDLON_clean_sbu_0, # of connection points: 4
#     Node 7, Type 1, BuildingBlock: MUDLON_clean_sbu_0, # of connection points: 4
#     Node 8, Type 1, BuildingBlock: MUDLON_clean_sbu_0, # of connection points: 4
#     Node 9, Type 1, BuildingBlock: MUDLON_clean_sbu_0, # of connection points: 4
#     Node 10, Type 1, BuildingBlock: MUDLON_clean_sbu_0, # of connection points: 4
#     Node 11, Type 1, BuildingBlock: MUDLON_clean_sbu_0, # of connection points: 4
#     Edge 12, Type (0, 1), BuildingBlock: MIFKUJ_clean_linker_0, # of connection points: 2
#     Edge 13, Type (0, 1), BuildingBlock: MIFKUJ_clean_linker_0, # of connection points: 2
#     Edge 14, Type (0, 1), BuildingBlock: MIFKUJ_clean_linker_0, # of connection points: 2
#     Edge 15, Type (0, 1), BuildingBlock: MIFKUJ_clean_linker_0, # of connection points: 2
#     Edge 16, Type (0, 1), BuildingBlock: MIFKUJ_clean_linker_0, # of connection points: 2
#     Edge 17, Type (0, 1), BuildingBlock: MIFKUJ_clean_linker_0, # of connection points: 2
#     Edge 18, Type (0, 1), BuildingBlock: MIFKUJ_clean_linker_0, # of connection points: 2
#     Edge 19, Type (0, 1), BuildingBlock: MIFKUJ_clean_linker_0, # of connection points: 2
#     Edge 20, Type (0, 1), BuildingBlock: MIFKUJ_clean_linker_0, # of connection points: 2
#     Edge 21, Type (0, 1), BuildingBlock: MIFKUJ_clean_linker_0, # of connection points: 2
#     Edge 22, Type (0, 1), BuildingBlock: MIFKUJ_clean_linker_0, # of connection points: 2
#     Edge 23, Type (0, 1), BuildingBlock: MIFKUJ_clean_linker_0, # of connection points: 2
#     Edge 24, Type (0, 1), BuildingBlock: MIFKUJ_clean_linker_0, # of connection points: 2
#     Edge 25, Type (0, 1), BuildingBlock: MIFKUJ_clean_linker_0, # of connection points: 2
#     Edge 26, Type (0, 1), BuildingBlock: MIFKUJ_clean_linker_0, # of connection points: 2
#     Edge 27, Type (0, 1), BuildingBlock: MIFKUJ_clean_linker_0, # of connection points: 2
#     Edge 28, Type (0, 1), BuildingBlock: MIFKUJ_clean_linker_0, # of connection points: 2
#     Edge 29, Type (0, 1), BuildingBlock: MIFKUJ_clean_linker_0, # of connection points: 2
#     Edge 30, Type (0, 1), BuildingBlock: MIFKUJ_clean_linker_0, # of connection points: 2
#     Edge 31, Type (0, 1), BuildingBlock: MIFKUJ_clean_linker_0, # of connection points: 2
#     Edge 32, Type (0, 1), BuildingBlock: MIFKUJ_clean_linker_0, # of connection points: 2
#     Edge 33, Type (0, 1), BuildingBlock: MIFKUJ_clean_linker_0, # of connection points: 2
#     Edge 34, Type (0, 1), BuildingBlock: MIFKUJ_clean_linker_0, # of connection points: 2
#     Edge 35, Type (0, 1), BuildingBlock: MIFKUJ_clean_linker_0, # of connection points: 2
# Relax obj value: 0.014
# Max RMSD: 0.033
# Mean RMSD: 0.021
data_MOF--net-ssa--node1-KOZSID_clean_sbu_0--node2-MUDLON_clean_sbu_0--edge1-MIFKUJ_clean_linker_0
_symmetry_space_group_name_H-M    P1
_symmetry_Int_Tables_number       1
_symmetry_cell_setting            triclinic
loop_
_symmetry_equiv_pos_as_xyz
'x, y, z'
_cell_length_a     60.319159
_cell_length_b     61.670408
_cell_length_c     57.345798
_cell_angle_alpha  87.933337
_cell_angle_beta   90.13482
_cell_angle_gamma 122.25653
loop_
_atom_site_label
_atom_site_type_symbol
_atom_site_fract_x
_atom_site_fract_y
_atom_site_fract_z
_atom_type_partial_charge
C0 C 0.96054 0.51116 0.00441 0.0
C1 C 0.93611 0.50648 0.01078 0.0
C2 C 0.92775 0.49016 0.02997 0.0
C3 C 0.94737 0.48571 0.03417 0.0
N4 N 0.96802 0.49853 0.01906 0.0
Co5 Co 1.00002 0.49629 0.01799 0.0
N6 N 0.98697 0.47114 0.04539 0.0
C7 C 0.96388 0.46104 0.05713 0.0
C8 C 0.96103 0.4453 0.07591 0.0
C9 C 0.98396 0.44589 0.07659 0.0
C10 C 0.99951 0.46211 0.05815 0.0
N11 N 0.03192 0.49387 0.01688 0.0
C12 C 0.04018 0.4827 0.03247 0.0
C13 C 0.06448 0.48713 0.026 0.0
C14 C 0.07197 0.50187 0.0058 0.0
C15 C 0.05202 0.50573 1.00113 0.0
N16 N 0.01325 0.52171 0.99076 0.0
C17 C 0.03627 0.53156 0.97895 0.0
C18 C 0.03968 0.54814 0.96073 0.0
C19 C 0.01734 0.54865 0.96067 0.0
C20 C 1.00151 0.5322 0.97888 0.0
N21 N 0.01814 0.52479 0.03991 0.0
C22 C 0.04545 0.56195 0.07361 0.0
C23 C 0.0582 0.56165 0.05345 0.0
C24 C 0.04424 0.54328 0.03684 0.0
C25 C 0.01857 0.54395 0.07621 0.0
C26 C 0.00542 0.52562 0.05933 0.0
N27 N 0.98189 0.46766 0.99604 0.0
C28 C 0.98119 0.44877 0.95945 0.0
C29 C 0.95512 0.42884 0.96339 0.0
C30 C 0.94291 0.42841 0.98425 0.0
C31 C 0.95653 0.44773 1.00018 0.0
C32 C 0.99405 0.46775 0.97582 0.0
H33 H 0.94597 0.44621 0.01561 0.0
H34 H 0.01372 0.4825 0.97149 0.0
H35 H 0.05512 0.54414 0.02187 0.0
H36 H 0.9851 0.51195 0.06263 0.0
C37 C 0.94637 0.46856 0.05138 0.0
C38 C 0.97505 0.52634 0.98349 0.0
C39 C 0.0267 0.46977 0.05451 0.0
C40 C 0.05329 0.52327 0.9842 0.0
H41 H 0.92508 0.51354 1.00212 0.0
H42 H 0.90921 0.4819 0.03931 0.0
H43 H 0.94471 0.43548 0.08825 0.0
H44 H 0.9891 0.43628 0.08965 0.0
H45 H 0.0762 0.48134 0.03535 0.0
H46 H 0.09049 0.5101 0.99642 0.0
H47 H 0.05607 0.55803 0.94849 0.0
H48 H 0.01288 0.55942 0.9483 0.0
H49 H 0.07893 0.57554 0.05048 0.0
H50 H 0.00786 0.54345 0.09157 0.0
H51 H 0.99153 0.45018 0.94349 0.0
H52 H 0.92287 0.41315 0.98838 0.0
C53 C 0.53536 0.00573 0.55868 0.0
C54 C 0.53368 0.99144 0.57865 0.0
C55 C 0.50763 0.97361 0.58276 0.0
C56 C 0.49486 0.97774 0.56502 0.0
N57 N 0.51128 0.99668 0.54962 0.0
Co58 Co 0.50053 0.0087 0.52165 0.0
N59 N 0.46441 0.97797 0.52359 0.0
C60 C 0.45278 0.96195 0.54229 0.0
C61 C 0.42779 0.942 0.53791 0.0
C62 C 0.4236 0.9457 0.51497 0.0
C63 C 0.44639 0.96769 0.50668 0.0
N64 N 0.48946 0.02041 0.49377 0.0
C65 C 0.46951 0.00634 0.47917 0.0
C66 C 0.46974 0.02158 0.46064 0.0
C67 C 0.49041 0.04605 0.46405 0.0
C68 C 0.50176 0.04438 0.48426 0.0
N69 N 0.53671 0.03975 0.51968 0.0
C70 C 0.54403 0.06152 0.50705 0.0
C71 C 0.5697 0.08055 0.50998 0.0
C72 C 0.5791 0.07044 0.52582 0.0
C73 C 0.55853 0.04562 0.53175 0.0
N74 N 0.51084 0.99055 0.50125 0.0
C75 C 0.51563 0.96101 0.46776 0.0
C76 C 0.52569 0.98723 0.46332 0.0
C77 C 0.52334 0.00166 0.48033 0.0
C78 C 0.50473 0.95048 0.49001 0.0
C79 C 0.50251 0.96548 0.50641 0.0
N80 N 0.4897 0.02666 0.54182 0.0
C81 C 0.45889 0.03862 0.55175 0.0
C82 C 0.47418 0.05227 0.57062 0.0
C83 C 0.49736 0.05286 0.57473 0.0
C84 C 0.50482 0.04016 0.56009 0.0
C85 C 0.46686 0.02577 0.53772 0.0
H86 H 0.52293 0.04143 0.56362 0.0
H87 H 0.45451 0.0151 0.52351 0.0
H88 H 0.53046 0.0215 0.47606 0.0
H89 H 0.49296 0.95641 0.5229 0.0
C90 C 0.46783 0.96296 0.56128 0.0
C91 C 0.55938 0.03019 0.55155 0.0
C92 C 0.45022 0.97876 0.48293 0.0
C93 C 0.52682 0.06285 0.49153 0.0
H94 H 0.54956 0.99444 0.58973 0.0
H95 H 0.49905 0.95937 0.59701 0.0
H96 H 0.41479 0.92582 0.54951 0.0
H97 H 0.40604 0.93345 0.50532 0.0
H98 H 0.4569 0.01575 0.44588 0.0
H99 H 0.49739 0.06266 0.4523 0.0
H100 H 0.5803 0.0996 0.50174 0.0
H101 H 0.59857 0.08072 0.53293 0.0
H102 H 0.53433 0.9964 0.44649 0.0
H103 H 0.49742 0.93057 0.49467 0.0
H104 H 0.44075 0.03761 0.54804 0.0
H105 H 0.50995 0.0635 0.58893 0.0
C106 C 0.54116 0.5362 0.9711 0.0
C107 C 0.54781 0.55241 0.95148 0.0
C108 C 0.53119 0.56128 0.95151 0.0
C109 C 0.51541 0.54999 0.97109 0.0
N110 N 0.5213 0.53481 0.98338 0.0
Co111 Co 0.50274 0.5133 0.01174 0.0
N112 N 0.47104 0.51456 0.00513 0.0
C113 C 0.47002 0.53122 0.98995 0.0
C114 C 0.44583 0.52829 0.98944 0.0
C115 C 0.43084 0.50902 0.00569 0.0
C116 C 0.44682 0.5013 0.01535 0.0
N117 N 0.48442 0.49168 0.04029 0.0
C118 C 0.45909 0.48043 0.04762 0.0
C119 C 0.45519 0.46821 0.06945 0.0
C120 C 0.47896 0.47251 0.07618 0.0
C121 C 0.49606 0.48701 0.0582 0.0
N122 N 0.53451 0.5123 0.01805 0.0
C123 C 0.54114 0.50629 0.03854 0.0
C124 C 0.56373 0.50599 0.03683 0.0
C125 C 0.57156 0.51201 0.01376 0.0
C126 C 0.55321 0.51561 1.00277 0.0
N127 N 0.51685 0.54429 0.02991 0.0
C128 C 0.53473 0.58846 0.0554 0.0
C129 C 0.55198 0.58635 0.04069 0.0
C130 C 0.54254 0.56411 0.02785 0.0
C131 C 0.50876 0.56798 0.05742 0.0
C132 C 0.5004 0.5462 0.04482 0.0
N133 N 0.48875 0.4825 0.99354 0.0
C134 C 0.4838 0.44169 0.98748 0.0
C135 C 0.47431 0.44108 0.96498 0.0
C136 C 0.47128 0.46125 0.95756 0.0
C137 C 0.4786 0.48169 0.97203 0.0
C138 C 0.49073 0.46244 1.00148 0.0
H139 H 0.47668 0.49718 0.96549 0.0
H140 H 0.4985 0.46261 0.01845 0.0
H141 H 0.55591 0.56294 0.01624 0.0
H142 H 0.4805 0.53091 0.04722 0.0
C143 C 0.49148 0.5479 0.97522 0.0
C144 C 0.55392 0.52245 0.978 0.0
C145 C 0.43965 0.48496 0.03681 0.0
C146 C 0.52261 0.49504 0.05685 0.0
H147 H 0.56264 0.55686 0.93833 0.0
H148 H 0.52959 0.57306 0.93798 0.0
H149 H 0.43982 0.53894 0.97863 0.0
H150 H 0.41081 0.50225 0.0107 0.0
H151 H 0.43731 0.4583 0.07994 0.0
H152 H 0.48327 0.466 0.09234 0.0
H153 H 0.57245 0.50031 0.0503 0.0
H154 H 0.58841 0.51309 0.00585 0.0
H155 H 0.57236 0.6018 0.03889 0.0
H156 H 0.49495 0.56861 0.069 0.0
H157 H 0.4867 0.42671 0.99401 0.0
H158 H 0.46348 0.46144 0.94058 0.0
C159 C 0.96354 0.45686 0.51567 0.0
C160 C 0.94038 0.43988 0.50476 0.0
C161 C 0.93875 0.45301 0.48581 0.0
C162 C 0.96096 0.47712 0.48626 0.0
N163 N 0.97709 0.47985 0.50389 0.0
Co164 Co 0.00997 0.51207 0.51284 0.0
N165 N 0.00519 0.53275 0.488 0.0
C166 C 0.98479 0.5246 0.47345 0.0
C167 C 0.98847 0.54288 0.45684 0.0
C168 C 0.01308 0.56353 0.46045 0.0
C169 C 0.02296 0.55653 0.47908 0.0
N170 N 0.04306 0.54441 0.52154 0.0
C171 C 0.05738 0.56681 0.50883 0.0
C172 C 0.08101 0.58343 0.51933 0.0
C173 C 0.08197 0.57079 0.53896 0.0
C174 C 0.05908 0.5472 0.53929 0.0
N175 N 0.01472 0.49135 0.53779 0.0
C176 C 0.03478 0.49987 0.5528 0.0
C177 C 0.03114 0.48178 0.56956 0.0
C178 C 0.00693 0.46079 0.56553 0.0
C179 C 0.99721 0.46728 0.54639 0.0
N180 N 0.0309 0.5061 0.49015 0.0
C181 C 0.06559 0.50824 0.45577 0.0
C182 C 0.0726 0.5121 0.47922 0.0
C183 C 0.05499 0.51054 0.49598 0.0
C184 C 0.04007 0.50132 0.45021 0.0
C185 C 0.02319 0.50037 0.46752 0.0
N186 N 0.98895 0.51793 0.53568 0.0
C187 C 0.98018 0.5221 0.57594 0.0
C188 C 0.95432 0.51432 0.57096 0.0
C189 C 0.94684 0.5105 0.54763 0.0
C190 C 0.9644 0.51266 0.53039 0.0
C191 C 0.99705 0.52399 0.55818 0.0
H192 H 0.95731 0.50902 0.51304 0.0
H193 H 0.01622 0.52935 0.56333 0.0
H194 H 0.06174 0.51406 0.51341 0.0
H195 H 0.00436 0.49589 0.46202 0.0
C196 C 0.9651 0.49853 0.47298 0.0
C197 C 0.97021 0.45154 0.53868 0.0
C198 C 0.05043 0.57138 0.48553 0.0
C199 C 0.05454 0.52591 0.553 0.0
H200 H 0.92551 0.42058 0.51078 0.0
H201 H 0.92239 0.44636 0.47417 0.0
H202 H 0.97575 0.54069 0.44256 0.0
H203 H 0.02338 0.58102 0.44964 0.0
H204 H 0.09675 0.60208 0.51291 0.0
H205 H 0.09843 0.5772 0.55044 0.0
H206 H 0.04371 0.48421 0.58404 0.0
H207 H 0.99706 0.44332 0.57634 0.0
H208 H 0.092 0.51737 0.48464 0.0
H209 H 0.03326 0.49727 0.43248 0.0
H210 H 0.98713 0.52563 0.59367 0.0
H211 H 0.9273 0.50532 0.54271 0.0
C212 C 0.48965 0.0068 0.06457 0.0
C213 C 0.48771 0.01665 0.08531 0.0
C214 C 0.50859 0.04139 0.08548 0.0
C215 C 0.52207 0.04519 0.06497 0.0
N216 N 0.51061 0.02461 0.05136 0.0
Co217 Co 0.52518 0.02045 0.02164 0.0
N218 N 0.55791 0.05545 0.02342 0.0
C219 C 0.5641 0.0724 0.04036 0.0
C220 C 0.58611 0.09604 0.03526 0.0
C221 C 0.59392 0.09441 0.01342 0.0
C222 C 0.57623 0.06968 0.00649 0.0
N223 N 0.5399 0.01601 0.99223 0.0
C224 C 0.56049 0.03386 0.97879 0.0
C225 C 0.56338 0.02359 0.95877 0.0
C226 C 0.54318 0.99848 0.95914 0.0
C227 C 0.52926 0.99491 0.97934 0.0
N228 N 0.49227 0.98576 0.01943 0.0
C229 C 0.48575 0.96918 1.00209 0.0
C230 C 0.46255 0.94622 0.00622 0.0
C231 C 0.45412 0.94799 0.02774 0.0
C232 C 0.4728 0.97198 0.03551 0.0
N233 N 0.50948 0.03644 1.00283 0.0
C234 C 0.50515 0.06859 0.96964 0.0
C235 C 0.49735 0.04352 0.96441 0.0
C236 C 0.49954 0.02779 0.98125 0.0
C237 C 0.51149 0.07581 0.9927 0.0
C238 C 0.51291 0.05927 0.00906 0.0
N239 N 0.54133 0.00473 0.04036 0.0
C240 C 0.54501 0.96828 0.05024 0.0
C241 C 0.55928 0.98002 0.0701 0.0
C242 C 0.56531 0.00474 0.07429 0.0
C243 C 0.55621 0.01661 0.05936 0.0
C244 C 0.53654 0.98098 0.0356 0.0
H245 H 0.56098 0.03515 0.06392 0.0
H246 H 0.52574 0.97095 0.02079 0.0
H247 H 0.49483 0.00942 0.97592 0.0
H248 H 0.51848 0.06606 0.02622 0.0
C249 C 0.54681 0.06672 0.05914 0.0
C250 C 0.47263 0.97987 0.05909 0.0
C251 C 0.57558 0.06122 0.9829 0.0
C252 C 0.50385 0.97403 0.98428 0.0
H253 H 0.47336 0.00663 0.0993 0.0
H254 H 0.51408 0.05456 0.09947 0.0
H255 H 0.59438 0.113 0.04548 0.0
H256 H 0.60993 0.11012 0.00337 0.0
H257 H 0.57761 0.03369 0.94471 0.0
H258 H 0.53806 0.98507 0.94542 0.0
H259 H 0.45374 0.92955 0.99559 0.0
H260 H 0.43693 0.93289 0.0372 0.0
H261 H 0.49163 0.03675 0.94693 0.0
H262 H 0.51638 0.09456 0.9979 0.0
H263 H 0.5403 0.94931 0.04602 0.0
H264 H 0.57628 0.01461 0.08948 0.0
C265 C 0.52213 0.56172 0.4999 0.0
C266 C 0.51372 0.57714 0.50804 0.0
C267 C 0.49731 0.56405 0.52668 0.0
C268 C 0.49664 0.5415 0.52885 0.0
N269 N 0.51194 0.53954 0.51292 0.0
Co270 Co 0.51559 0.50944 0.50898 0.0
N271 N 0.49232 0.49064 0.53695 0.0
C272 C 0.47971 0.4984 0.55048 0.0
C273 C 0.46766 0.48272 0.56993 0.0
C274 C 0.47371 0.46434 0.56919 0.0
C275 C 0.48905 0.4699 0.54922 0.0
N276 N 0.51875 0.47907 0.50487 0.0
C277 C 0.51245 0.4592 0.52009 0.0
C278 C 0.5194 0.4429 0.51144 0.0
C279 C 0.53124 0.4533 0.49017 0.0
C280 C 0.53081 0.47525 0.4871 0.0
N281 N 0.5398 0.52853 0.48161 0.0
C282 C 0.55164 0.52011 0.46782 0.0
C283 C 0.56697 0.53738 0.45028 0.0
C284 C 0.56471 0.55803 0.45293 0.0
C285 C 0.54801 0.55211 0.47201 0.0
N286 N 0.54608 0.52425 0.52982 0.0
C287 C 0.58569 0.53794 0.56273 0.0
C288 C 0.58691 0.5288 0.54112 0.0
C289 C 0.56714 0.52226 0.525 0.0
C290 C 0.56513 0.54163 0.56696 0.0
C291 C 0.54573 0.53481 0.55033 0.0
N292 N 0.48474 0.49449 0.48792 0.0
C293 C 0.46647 0.4813 0.4495 0.0
C294 C 0.44298 0.47883 0.45637 0.0
C295 C 0.44044 0.48332 0.47966 0.0
C296 C 0.46129 0.49106 0.49492 0.0
C297 C 0.4867 0.48877 0.46541 0.0
H298 H 0.45794 0.49445 0.51219 0.0
H299 H 0.50388 0.49021 0.4588 0.0
H300 H 0.56883 0.51485 0.50902 0.0
H301 H 0.53013 0.5374 0.55473 0.0
C302 C 0.48223 0.52204 0.54588 0.0
C303 C 0.53911 0.5687 0.4793 0.0
C304 C 0.5021 0.45651 0.54361 0.0
C305 C 0.54628 0.4951 0.4707 0.0
H306 H 0.51875 0.5958 0.50105 0.0
H307 H 0.48699 0.57019 0.53729 0.0
H308 H 0.45712 0.48525 0.58372 0.0
H309 H 0.46848 0.44927 0.58237 0.0
H310 H 0.51734 0.42605 0.52018 0.0
H311 H 0.5409 0.44675 0.47917 0.0
H312 H 0.57786 0.53495 0.43675 0.0
H313 H 0.57374 0.5752 0.44166 0.0
H314 H 0.60281 0.52622 0.5368 0.0
H315 H 0.56334 0.54868 0.58343 0.0
H316 H 0.46973 0.4782 0.4317 0.0
H317 H 0.42244 0.48101 0.48621 0.0
Mg318 Mg 0.24074 0.48222 0.25351 0.0
C319 C 0.18593 0.4683 0.24082 0.0
O320 O 0.1901 0.48326 0.25819 0.0
C321 C 0.26426 0.45414 0.27793 0.0
O322 O 0.27282 0.45494 0.25669 0.0
C323 C 0.24737 0.51692 0.29231 0.0
O324 O 0.25911 0.50601 0.30169 0.0
O325 O 0.24127 0.51345 0.27092 0.0
O326 O 0.20254 0.46211 0.23662 0.0
O327 O 0.26938 0.49267 0.22518 0.0
C328 C 0.2623 0.47517 0.21053 0.0
O329 O 0.23919 0.4539 0.21351 0.0
O330 O 0.24855 0.46167 0.28105 0.0
Mg331 Mg 0.75689 0.23973 0.75062 0.0
C332 C 0.74921 0.20244 0.7121 0.0
O333 O 0.76874 0.22315 0.70162 0.0
C334 C 0.80805 0.25506 0.782 0.0
O335 O 0.81575 0.24326 0.76873 0.0
C336 C 0.72287 0.21679 0.79028 0.0
O337 O 0.74084 0.21091 0.79123 0.0
O338 O 0.72316 0.23025 0.77274 0.0
O339 O 0.74271 0.20363 0.73293 0.0
O340 O 0.7715 0.27074 0.72379 0.0
C341 C 0.79482 0.27819 0.71744 0.0
O342 O 0.80619 0.2674 0.72784 0.0
O343 O 0.78729 0.25477 0.77722 0.0
Mg344 Mg 0.56079 0.78685 0.27048 0.0
C345 C 0.5964 0.82156 0.23057 0.0
O346 O 0.58838 0.79938 0.22145 0.0
C347 C 0.55373 0.74732 0.30449 0.0
O348 O 0.53177 0.73716 0.29292 0.0
C349 C 0.52584 0.7934 0.30559 0.0
O350 O 0.52271 0.77268 0.31616 0.0
O351 O 0.53797 0.80109 0.28596 0.0
O352 O 0.5912 0.82189 0.25201 0.0
O353 O 0.54345 0.75745 0.24406 0.0
C354 C 0.55589 0.74622 0.24139 0.0
O355 O 0.57602 0.75252 0.25476 0.0
O356 O 0.57196 0.77032 0.29905 0.0
Mg357 Mg 0.77417 0.5319 0.78424 0.0
C358 C 0.74594 0.53365 0.74472 0.0
O359 O 0.73646 0.50946 0.75069 0.0
C360 C 0.80318 0.55052 0.82909 0.0
O361 O 0.77911 0.53509 0.83715 0.0
C362 C 0.72869 0.52499 0.80935 0.0
O363 O 0.7404 0.54792 0.799 0.0
O364 O 0.73829 0.51119 0.8062 0.0
O365 O 0.76448 0.55077 0.75665 0.0
O366 O 0.78983 0.51281 0.76475 0.0
C367 C 0.77978 0.49232 0.75348 0.0
O368 O 0.75426 0.47614 0.75404 0.0
O369 O 0.80689 0.55532 0.80716 0.0
Mg370 Mg 0.25985 0.77198 0.26983 0.0
C371 C 0.22268 0.73759 0.23861 0.0
O372 O 0.24179 0.73345 0.24131 0.0
C373 C 0.2932 0.80563 0.3048 0.0
O374 O 0.29948 0.78863 0.30119 0.0
C375 C 0.23855 0.73987 0.31197 0.0
O376 O 0.23582 0.75944 0.31425 0.0
O377 O 0.24998 0.73913 0.2936 0.0
O378 O 0.22387 0.75572 0.24975 0.0
O379 O 0.28966 0.7874 0.24189 0.0
C380 C 0.31299 0.7924 0.24032 0.0
O381 O 0.32262 0.78548 0.25752 0.0
O382 O 0.27468 0.8044 0.29292 0.0
Mg383 Mg 0.4802 0.25493 0.76212 0.0
C384 C 0.45611 0.22267 0.72 0.0
O385 O 0.46317 0.24529 0.7107 0.0
C386 C 0.4515 0.25791 0.80411 0.0
O387 O 0.45575 0.24038 0.81254 0.0
C388 C 0.51156 0.23339 0.78379 0.0
O389 O 0.51212 0.22685 0.76235 0.0
O390 O 0.50174 0.24675 0.78777 0.0
O391 O 0.45882 0.22057 0.74182 0.0
O392 O 0.503 0.28708 0.73704 0.0
C393 C 0.50505 0.30843 0.74007 0.0
O394 O 0.49673 0.31181 0.75994 0.0
O395 O 0.45715 0.26532 0.78276 0.0
H396 H 0.03853 0.49409 0.09535 0.0
H397 H 0.06273 0.4905 0.12807 0.0
H398 H 0.07208 0.43629 0.09061 0.0
H399 H 0.04669 0.43902 0.05833 0.0
H400 H 0.06261 0.42164 0.13495 0.0
H401 H 0.12198 0.50058 0.0932 0.0
H402 H 0.13588 0.54263 0.07433 0.0
H403 H 0.12999 0.57038 0.14012 0.0
H404 H 0.11556 0.52825 0.15937 0.0
H405 H 0.17218 0.43941 0.20182 0.0
H406 H 0.14257 0.4366 0.17105 0.0
H407 H 0.12413 0.48371 0.20999 0.0
H408 H 0.15357 0.48666 0.24068 0.0
H409 H 0.13874 0.5015 0.1644 0.0
H410 H 0.07934 0.42125 0.20568 0.0
H411 H 0.06533 0.3787 0.22341 0.0
H412 H 0.07312 0.35347 0.15682 0.0
H413 H 0.08753 0.39602 0.13874 0.0
C414 C 0.04571 0.48136 0.09424 0.0
C415 C 0.04129 0.4672 0.07425 0.0
C416 C 0.05963 0.47939 0.11284 0.0
C417 C 0.06979 0.46355 0.11163 0.0
C418 C 0.06463 0.44878 0.09191 0.0
C419 C 0.05037 0.45049 0.07341 0.0
C420 C 0.08624 0.46287 0.13072 0.0
C421 C 0.07947 0.43909 0.14116 0.0
C422 C 0.1081 0.48564 0.13908 0.0
C423 C 0.11748 0.51121 0.12771 0.0
C424 C 0.12352 0.51561 0.10364 0.0
C425 C 0.13147 0.53944 0.09288 0.0
C426 C 0.13372 0.55913 0.10603 0.0
C427 C 0.12814 0.55506 0.12999 0.0
C428 C 0.12011 0.53123 0.14084 0.0
C429 C 0.16146 0.44878 0.20403 0.0
C430 C 0.16527 0.46323 0.22377 0.0
C431 C 0.14455 0.44718 0.18642 0.0
C432 C 0.13117 0.46001 0.18819 0.0
C433 C 0.13431 0.47374 0.2082 0.0
C434 C 0.15104 0.47523 0.22584 0.0
C435 C 0.11497 0.4603 0.16873 0.0
C436 C 0.12189 0.48406 0.15816 0.0
C437 C 0.0935 0.43751 0.16008 0.0
C438 C 0.08477 0.41191 0.17091 0.0
C439 C 0.07828 0.40671 0.19485 0.0
C440 C 0.07023 0.38257 0.20496 0.0
C441 C 0.06841 0.36342 0.19126 0.0
C442 C 0.07457 0.36834 0.16742 0.0
C443 C 0.08267 0.39245 0.15723 0.0
H444 H 0.06216 0.34474 0.19912 0.0
H445 H 0.13984 0.57756 0.09767 0.0
H446 H 0.55353 0.04498 0.59397 0.0
H447 H 0.58731 0.07061 0.62194 0.0
H448 H 0.64594 0.07313 0.57694 0.0
H449 H 0.61164 0.04648 0.54909 0.0
H450 H 0.65675 0.06933 0.622 0.0
H451 H 0.638 0.12311 0.577 0.0
H452 H 0.61021 0.13644 0.55799 0.0
H453 H 0.58198 0.14144 0.625 0.0
H454 H 0.60925 0.12763 0.64444 0.0
H455 H 0.76068 0.18894 0.67098 0.0
H456 H 0.72982 0.15591 0.64483 0.0
H457 H 0.66685 0.13297 0.69451 0.0
H458 H 0.69762 0.16542 0.72101 0.0
H459 H 0.66065 0.14794 0.64554 0.0
H460 H 0.68209 0.09306 0.68937 0.0
H461 H 0.71241 0.08129 0.7054 0.0
H462 H 0.7401 0.0824 0.63618 0.0
H463 H 0.7102 0.09456 0.61975 0.0
C464 C 0.57355 0.05063 0.59021 0.0
C465 C 0.58002 0.0438 0.56935 0.0
C466 C 0.5929 0.06543 0.60614 0.0
C467 C 0.61932 0.07427 0.6014 0.0
C468 C 0.62573 0.06663 0.58098 0.0
C469 C 0.60621 0.0515 0.56507 0.0
C470 C 0.64009 0.09256 0.61725 0.0
C471 C 0.65779 0.08667 0.62691 0.0
C472 C 0.64161 0.11529 0.62369 0.0
C473 C 0.62552 0.12412 0.61218 0.0
C474 C 0.62575 0.12689 0.5877 0.0
C475 C 0.61009 0.13453 0.57684 0.0
C476 C 0.59432 0.13974 0.59028 0.0
C477 C 0.59421 0.13737 0.61462 0.0
C478 C 0.60978 0.12965 0.62557 0.0
C479 C 0.74037 0.17647 0.67657 0.0
C480 C 0.73164 0.17983 0.6981 0.0
C481 C 0.72277 0.15764 0.66159 0.0
C482 C 0.69604 0.14208 0.66769 0.0
C483 C 0.68741 0.14479 0.68948 0.0
C484 C 0.70508 0.16325 0.70467 0.0
C485 C 0.67678 0.12436 0.65068 0.0
C486 C 0.65951 0.13055 0.64065 0.0
C487 C 0.67618 0.10234 0.64349 0.0
C488 C 0.69412 0.09501 0.65336 0.0
C489 C 0.69484 0.09106 0.67758 0.0
C490 C 0.71191 0.08425 0.68674 0.0
C491 C 0.72824 0.08117 0.67183 0.0
C492 C 0.72748 0.08483 0.64772 0.0
C493 C 0.71046 0.09166 0.63847 0.0
H494 H 0.74143 0.07589 0.67895 0.0
H495 H 0.58224 0.14567 0.5818 0.0
H496 H 0.57137 0.60736 0.08941 0.0
H497 H 0.57635 0.6373 0.11915 0.0
H498 H 0.52044 0.64932 0.08363 0.0
H499 H 0.51533 0.61932 0.05408 0.0
H500 H 0.56172 0.6944 0.10408 0.0
H501 H 0.49821 0.60574 0.12396 0.0
H502 H 0.48353 0.56013 0.12922 0.0
H503 H 0.54024 0.57873 0.18271 0.0
H504 H 0.55578 0.62463 0.17729 0.0
H505 H 0.52582 0.73823 0.20247 0.0
H506 H 0.5218 0.71273 0.16891 0.0
H507 H 0.57038 0.68989 0.20317 0.0
H508 H 0.57411 0.71477 0.23659 0.0
H509 H 0.53105 0.65031 0.18214 0.0
H510 H 0.59539 0.73909 0.16169 0.0
H511 H 0.61083 0.78489 0.15587 0.0
H512 H 0.5527 0.76622 0.10377 0.0
H513 H 0.53661 0.72023 0.10958 0.0
C514 C 0.56091 0.61713 0.08756 0.0
C515 C 0.54301 0.61113 0.06951 0.0
C516 C 0.5636 0.63406 0.1046 0.0
C517 C 0.54851 0.6453 0.10374 0.0
C518 C 0.53227 0.64091 0.08464 0.0
C519 C 0.52937 0.6238 0.06778 0.0
C520 C 0.54718 0.65894 0.12402 0.0
C521 C 0.5548 0.68474 0.12111 0.0
C522 C 0.53818 0.64633 0.14624 0.0
C523 C 0.52836 0.61867 0.15003 0.0
C524 C 0.5077 0.60015 0.13672 0.0
C525 C 0.49922 0.57424 0.13972 0.0
C526 C 0.51098 0.56654 0.15626 0.0
C527 C 0.53119 0.58474 0.16988 0.0
C528 C 0.53986 0.61071 0.16682 0.0
C529 C 0.53527 0.72744 0.20296 0.0
C530 C 0.55042 0.72868 0.22214 0.0
C531 C 0.53314 0.71303 0.18371 0.0
C532 C 0.54614 0.69968 0.18335 0.0
C533 C 0.56025 0.70005 0.20295 0.0
C534 C 0.56242 0.7144 0.22206 0.0
C535 C 0.54604 0.68601 0.16241 0.0
C536 C 0.53797 0.66006 0.16515 0.0
C537 C 0.55465 0.69853 0.14008 0.0
C538 C 0.56461 0.7262 0.13625 0.0
C539 C 0.58579 0.74473 0.1491 0.0
C540 C 0.59466 0.77073 0.1458 0.0
C541 C 0.5827 0.77845 0.12951 0.0
C542 C 0.56191 0.76021 0.11642 0.0
C543 C 0.55291 0.73417 0.1197 0.0
H544 H 0.58958 0.79859 0.127 0.0
H545 H 0.50441 0.54647 0.15857 0.0
H546 H 0.90302 0.4746 0.57574 0.0
H547 H 0.872 0.46562 0.60762 0.0
H548 H 0.9312 0.53343 0.64141 0.0
H549 H 0.96234 0.54241 0.60968 0.0
H550 H 0.90523 0.49387 0.67261 0.0
H551 H 0.88149 0.53233 0.61038 0.0
H552 H 0.86817 0.53587 0.57043 0.0
H553 H 0.79871 0.4606 0.57928 0.0
H554 H 0.81181 0.45648 0.6192 0.0
H555 H 0.83306 0.52269 0.74808 0.0
H556 H 0.86063 0.52091 0.71828 0.0
H557 H 0.79329 0.45318 0.69162 0.0
H558 H 0.76526 0.45515 0.72129 0.0
H559 H 0.82066 0.4866 0.6569 0.0
H560 H 0.84156 0.45116 0.72164 0.0
H561 H 0.85495 0.44799 0.7616 0.0
H562 H 0.92983 0.51741 0.74856 0.0
H563 H 0.91676 0.52127 0.70862 0.0
C564 C 0.90937 0.48776 0.58984 0.0
C565 C 0.93517 0.50934 0.59003 0.0
C566 C 0.89162 0.48254 0.60812 0.0
C567 C 0.89913 0.49897 0.62688 0.0
C568 C 0.92492 0.5204 0.6272 0.0
C569 C 0.94272 0.52554 0.60901 0.0
C570 C 0.88015 0.49418 0.64602 0.0
C571 C 0.88685 0.49254 0.66921 0.0
C572 C 0.8557 0.49149 0.6416 0.0
C573 C 0.84777 0.49399 0.61766 0.0
C574 C 0.86347 0.51646 0.60374 0.0
C575 C 0.85595 0.51859 0.58112 0.0
C576 C 0.83265 0.49844 0.5723 0.0
C577 C 0.81678 0.47616 0.58612 0.0
C578 C 0.82423 0.47393 0.60874 0.0
C579 C 0.82405 0.50716 0.73612 0.0
C580 C 0.79684 0.48906 0.73714 0.0
C581 C 0.83994 0.50612 0.71908 0.0
C582 C 0.82916 0.48678 0.70274 0.0
C583 C 0.80211 0.46828 0.70403 0.0
C584 C 0.78611 0.46934 0.7211 0.0
C585 C 0.84601 0.48695 0.68362 0.0
C586 C 0.83889 0.48766 0.66039 0.0
C587 C 0.8701 0.48884 0.68806 0.0
C588 C 0.87807 0.48659 0.71212 0.0
C589 C 0.86079 0.46591 0.72734 0.0
C590 C 0.86835 0.46396 0.74999 0.0
C591 C 0.8932 0.48251 0.75763 0.0
C592 C 0.91057 0.50304 0.74262 0.0
C593 C 0.90311 0.50509 0.71995 0.0
H594 H 0.89902 0.48096 0.77517 0.0
H595 H 0.82685 0.50012 0.55478 0.0
H596 H 0.42577 0.96706 0.07853 0.0
H597 H 0.40037 0.93414 0.10936 0.0
H598 H 0.45991 0.9155 0.11249 0.0
H599 H 0.48499 0.94816 0.08127 0.0
H600 H 0.41262 0.8727 0.11488 0.0
H601 H 0.45525 0.95128 0.15399 0.0
H602 H 0.46925 0.99604 0.16086 0.0
H603 H 0.38892 0.9733 0.17022 0.0
H604 H 0.37438 0.92845 0.16297 0.0
H605 H 0.36236 0.80414 0.22748 0.0
H606 H 0.39125 0.83487 0.19641 0.0
H607 H 0.33145 0.85022 0.17801 0.0
H608 H 0.30245 0.81946 0.20844 0.0
H609 H 0.38228 0.89502 0.18517 0.0
H610 H 0.34063 0.81628 0.14348 0.0
H611 H 0.32797 0.77183 0.13691 0.0
H612 H 0.40909 0.79566 0.13409 0.0
H613 H 0.42222 0.84024 0.14099 0.0
C614 C 0.43333 0.9559 0.08592 0.0
C615 C 0.4573 0.96014 0.07787 0.0
C616 C 0.41892 0.93718 0.10353 0.0
C617 C 0.42839 0.92255 0.11354 0.0
C618 C 0.45222 0.92655 0.10512 0.0
C619 C 0.46657 0.94522 0.08742 0.0
C620 C 0.41343 0.90321 0.13285 0.0
C621 C 0.40637 0.8777 0.13041 0.0
C622 C 0.40507 0.9096 0.15311 0.0
C623 C 0.41371 0.93651 0.15774 0.0
C624 C 0.44054 0.95584 0.15735 0.0
C625 C 0.44858 0.98124 0.16132 0.0
C626 C 0.42998 0.98752 0.16593 0.0
C627 C 0.4033 0.96841 0.16662 0.0
C628 C 0.39515 0.94299 0.16259 0.0
C629 C 0.35528 0.81386 0.21664 0.0
C630 C 0.33006 0.80928 0.22049 0.0
C631 C 0.37181 0.83141 0.19892 0.0
C632 C 0.3635 0.84489 0.18498 0.0
C633 C 0.33828 0.8401 0.18862 0.0
C634 C 0.32167 0.82236 0.20599 0.0
C635 C 0.38115 0.86455 0.16695 0.0
C636 C 0.38876 0.89013 0.16969 0.0
C637 C 0.39025 0.85828 0.14716 0.0
C638 C 0.38239 0.83152 0.14305 0.0
C639 C 0.35576 0.81199 0.1417 0.0
C640 C 0.3485 0.78679 0.13786 0.0
C641 C 0.36771 0.78091 0.13517 0.0
C642 C 0.39423 0.80024 0.13624 0.0
C643 C 0.40159 0.82548 0.1401 0.0
H644 H 0.36206 0.76138 0.13218 0.0
H645 H 0.43624 0.00719 0.16901 0.0
H646 H 0.46938 0.40651 0.5578 0.0
H647 H 0.47516 0.38351 0.59075 0.0
H648 H 0.55041 0.45127 0.60424 0.0
H649 H 0.5446 0.47415 0.57113 0.0
H650 H 0.55145 0.40731 0.61045 0.0
H651 H 0.49888 0.43913 0.63569 0.0
H652 H 0.46216 0.44588 0.63299 0.0
H653 H 0.40706 0.36451 0.63979 0.0
H654 H 0.44348 0.35725 0.64214 0.0
H655 H 0.50985 0.35503 0.74068 0.0
H656 H 0.5151 0.38324 0.70733 0.0
H657 H 0.52051 0.33258 0.66103 0.0
H658 H 0.51552 0.30432 0.69439 0.0
H659 H 0.48247 0.37211 0.67265 0.0
H660 H 0.55753 0.36834 0.61173 0.0
H661 H 0.59665 0.36545 0.61509 0.0
H662 H 0.61108 0.39698 0.68302 0.0
H663 H 0.5723 0.40039 0.67996 0.0
C664 C 0.48723 0.41626 0.56771 0.0
C665 C 0.50651 0.44196 0.5622 0.0
C666 C 0.49053 0.40322 0.58649 0.0
C667 C 0.51309 0.41576 0.60015 0.0
C668 C 0.53286 0.44122 0.594 0.0
C669 C 0.52953 0.45427 0.57519 0.0
C670 C 0.51513 0.40278 0.62167 0.0
C671 C 0.53635 0.39949 0.62402 0.0
C672 C 0.49586 0.39331 0.63973 0.0
C673 C 0.4739 0.39764 0.63893 0.0
C674 C 0.47893 0.42267 0.63651 0.0
C675 C 0.45818 0.42659 0.63504 0.0
C676 C 0.4323 0.40564 0.63619 0.0
C677 C 0.42712 0.38072 0.63889 0.0
C678 C 0.44781 0.37669 0.64032 0.0
C679 C 0.51261 0.35006 0.72346 0.0
C680 C 0.51217 0.32732 0.72024 0.0
C681 C 0.5155 0.36619 0.70438 0.0
C682 C 0.51815 0.36006 0.68164 0.0
C683 C 0.51876 0.33789 0.67842 0.0
C684 C 0.51589 0.32172 0.69753 0.0
C685 C 0.51845 0.37589 0.66126 0.0
C686 C 0.49761 0.37979 0.65911 0.0
C687 C 0.53836 0.38631 0.64367 0.0
C688 C 0.56179 0.38435 0.64569 0.0
C689 C 0.56908 0.37472 0.62736 0.0
C690 C 0.59121 0.37298 0.62922 0.0
C691 C 0.60629 0.38094 0.64929 0.0
C692 C 0.59931 0.3907 0.66753 0.0
C693 C 0.57721 0.39247 0.66576 0.0
H694 H 0.62342 0.37959 0.65068 0.0
H695 H 0.41625 0.40871 0.63501 0.0
H696 H 0.47792 0.91088 0.4596 0.0
H697 H 0.47856 0.88342 0.43037 0.0
H698 H 0.55291 0.94628 0.40348 0.0
H699 H 0.55309 0.97376 0.43334 0.0
H700 H 0.51479 0.91691 0.36819 0.0
H701 H 0.5549 0.90427 0.43571 0.0
H702 H 0.55737 0.89467 0.4774 0.0
H703 H 0.48668 0.82053 0.47252 0.0
H704 H 0.48359 0.82986 0.43084 0.0
H705 H 0.54924 0.84532 0.29956 0.0
H706 H 0.5458 0.87412 0.32515 0.0
H707 H 0.48613 0.80897 0.36652 0.0
H708 H 0.49085 0.78014 0.34174 0.0
H709 H 0.5172 0.8407 0.39442 0.0
H710 H 0.47495 0.85092 0.32831 0.0
H711 H 0.46973 0.85905 0.28686 0.0
H712 H 0.53865 0.93483 0.28887 0.0
H713 H 0.54449 0.92704 0.33029 0.0
C714 C 0.49468 0.91888 0.44777 0.0
C715 C 0.51569 0.94455 0.44923 0.0
C716 C 0.49487 0.90315 0.43091 0.0
C717 C 0.51588 0.91273 0.41487 0.0
C718 C 0.53648 0.9385 0.41568 0.0
C719 C 0.53649 0.95421 0.43276 0.0
C720 C 0.51659 0.89551 0.39779 0.0
C721 C 0.51551 0.90033 0.37384 0.0
C722 C 0.51695 0.87358 0.40521 0.0
C723 C 0.51888 0.86787 0.43022 0.0
C724 C 0.53977 0.88601 0.44357 0.0
C725 C 0.5413 0.8806 0.46719 0.0
C726 C 0.52216 0.85703 0.47762 0.0
C727 C 0.50148 0.8388 0.46442 0.0
C728 C 0.49984 0.84413 0.4408 0.0
C729 C 0.53502 0.83708 0.31385 0.0
C730 C 0.52027 0.8104 0.31859 0.0
C731 C 0.53297 0.85363 0.32849 0.0
C732 C 0.51546 0.84389 0.34778 0.0
C733 C 0.4999 0.81712 0.35189 0.0
C734 C 0.50245 0.80059 0.3376 0.0
C735 C 0.51469 0.86154 0.36455 0.0
C736 C 0.51607 0.85699 0.38857 0.0
C737 C 0.51394 0.88337 0.35716 0.0
C738 C 0.51029 0.8883 0.33236 0.0
C739 C 0.48908 0.86927 0.31989 0.0
C740 C 0.486 0.87383 0.2964 0.0
C741 C 0.50387 0.89742 0.28523 0.0
C742 C 0.52482 0.91655 0.29755 0.0
C743 C 0.52801 0.91209 0.32104 0.0
H744 H 0.50146 0.90089 0.26704 0.0
H745 H 0.52338 0.85288 0.49591 0.0
H746 H 0.53816 0.48042 0.95268 0.0
H747 H 0.5644 0.47344 0.9247 0.0
H748 H 0.63134 0.5489 0.93714 0.0
H749 H 0.60512 0.5556 0.96527 0.0
H750 H 0.5883 0.49734 0.88453 0.0
H751 H 0.68729 0.54894 0.93314 0.0
H752 H 0.70268 0.5568 0.97365 0.0
H753 H 0.63065 0.48932 0.99787 0.0
H754 H 0.61501 0.48079 0.95749 0.0
H755 H 0.69822 0.545 0.81051 0.0
H756 H 0.66484 0.5367 0.83937 0.0
H757 H 0.67477 0.47937 0.87424 0.0
H758 H 0.70877 0.48785 0.84515 0.0
H759 H 0.67516 0.51203 0.90496 0.0
H760 H 0.61876 0.46111 0.84521 0.0
H761 H 0.60193 0.45068 0.80531 0.0
H762 H 0.58598 0.51073 0.80457 0.0
H763 H 0.60306 0.52178 0.84435 0.0
C764 C 0.55852 0.49539 0.94938 0.0
C765 C 0.5698 0.51848 0.96101 0.0
C766 C 0.57346 0.49146 0.93341 0.0
C767 C 0.59998 0.5105 0.92898 0.0
C768 C 0.6111 0.53372 0.94054 0.0
C769 C 0.59615 0.53763 0.95649 0.0
C770 C 0.61598 0.50641 0.91199 0.0
C771 C 0.60722 0.50042 0.88904 0.0
C772 C 0.64039 0.50972 0.91797 0.0
C773 C 0.64991 0.51435 0.94227 0.0
C774 C 0.67481 0.53568 0.94708 0.0
C775 C 0.68356 0.54027 0.97003 0.0
C776 C 0.66763 0.52361 0.98832 0.0
C777 C 0.64295 0.50225 0.9837 0.0
C778 C 0.63412 0.49754 0.96078 0.0
C779 C 0.69315 0.53037 0.82412 0.0
C780 C 0.7062 0.51709 0.82552 0.0
C781 C 0.67389 0.52554 0.84059 0.0
C782 C 0.66706 0.50726 0.85893 0.0
C783 C 0.67965 0.49352 0.86019 0.0
C784 C 0.69893 0.49824 0.8435 0.0
C785 C 0.64791 0.50393 0.8773 0.0
C786 C 0.65608 0.50859 0.90052 0.0
C787 C 0.62277 0.499 0.87166 0.0
C788 C 0.61233 0.49236 0.84775 0.0
C789 C 0.61182 0.47221 0.83649 0.0
C790 C 0.60221 0.46617 0.8139 0.0
C791 C 0.59293 0.48006 0.8024 0.0
C792 C 0.59318 0.49999 0.8135 0.0
C793 C 0.60278 0.50612 0.83609 0.0
H794 H 0.58551 0.47536 0.7849 0.0
H795 H 0.67443 0.52723 0.00608 0.0
H796 H 0.08749 0.62307 0.48376 0.0
H797 H 0.12123 0.64771 0.4536 0.0
H798 H 0.09097 0.5795 0.41402 0.0
H799 H 0.05857 0.55453 0.44522 0.0
H800 H 0.14011 0.60441 0.40856 0.0
H801 H 0.07816 0.62835 0.40049 0.0
H802 H 0.04877 0.64261 0.41216 0.0
H803 H 0.11508 0.71468 0.43217 0.0
H804 H 0.14487 0.7007 0.42096 0.0
H805 H 0.20953 0.68795 0.3053 0.0
H806 H 0.17856 0.65474 0.33388 0.0
H807 H 0.20709 0.7111 0.38684 0.0
H808 H 0.23731 0.74411 0.35839 0.0
H809 H 0.15514 0.68844 0.3811 0.0
H810 H 0.2155 0.6573 0.39157 0.0
H811 H 0.24131 0.64046 0.37597 0.0
H812 H 0.17242 0.57964 0.34434 0.0
H813 H 0.14624 0.59605 0.35989 0.0
C814 C 0.08854 0.61324 0.46894 0.0
C815 C 0.07091 0.58677 0.46713 0.0
C816 C 0.10751 0.62741 0.45143 0.0
C817 C 0.1085 0.61564 0.4312 0.0
C818 C 0.09078 0.58912 0.42939 0.0
C819 C 0.07219 0.57486 0.44717 0.0
C820 C 0.12773 0.63115 0.4119 0.0
C821 C 0.1432 0.62267 0.40244 0.0
C822 C 0.13155 0.65479 0.40336 0.0
C823 C 0.11374 0.66338 0.41005 0.0
C824 C 0.08647 0.64718 0.40752 0.0
C825 C 0.06974 0.65522 0.41405 0.0
C826 C 0.08005 0.67952 0.42295 0.0
C827 C 0.10712 0.69585 0.42529 0.0
C828 C 0.12395 0.68789 0.41884 0.0
C829 C 0.2098 0.69292 0.32327 0.0
C830 C 0.22573 0.71855 0.32969 0.0
C831 C 0.19204 0.67398 0.33958 0.0
C832 C 0.19033 0.68045 0.36253 0.0
C833 C 0.20786 0.70565 0.36925 0.0
C834 C 0.22524 0.72449 0.35301 0.0
C835 C 0.16844 0.66238 0.37882 0.0
C836 C 0.15213 0.67023 0.38739 0.0
C837 C 0.16334 0.6379 0.38588 0.0
C838 C 0.17903 0.628 0.37671 0.0
C839 C 0.20593 0.6404 0.38122 0.0
C840 C 0.22059 0.63089 0.37244 0.0
C841 C 0.20854 0.60907 0.35908 0.0
C842 C 0.18176 0.5966 0.35459 0.0
C843 C 0.16699 0.60594 0.36345 0.0
H844 H 0.21994 0.60178 0.35226 0.0
H845 H 0.06706 0.68571 0.42799 0.0
H846 H 0.47312 0.06201 0.93287 0.0
H847 H 0.48071 0.0932 0.90134 0.0
H848 H 0.5537 0.14925 0.93214 0.0
H849 H 0.54618 0.11822 0.9637 0.0
H850 H 0.53016 0.1719 0.91849 0.0
H851 H 0.55349 0.11946 0.8828 0.0
H852 H 0.54981 0.07955 0.87122 0.0
H853 H 0.48187 0.06028 0.83121 0.0
H854 H 0.48475 0.09979 0.84298 0.0
H855 H 0.54286 0.21361 0.78346 0.0
H856 H 0.54932 0.19021 0.81545 0.0
H857 H 0.49828 0.2006 0.85991 0.0
H858 H 0.4933 0.22529 0.82866 0.0
H859 H 0.51996 0.14827 0.83564 0.0
H860 H 0.50701 0.19724 0.91575 0.0
H861 H 0.51991 0.2407 0.92686 0.0
H862 H 0.58369 0.2738 0.87688 0.0
H863 H 0.57137 0.23058 0.86563 0.0
C864 C 0.49079 0.08097 0.9329 0.0
C865 C 0.50889 0.08768 0.95092 0.0
C866 C 0.49518 0.09877 0.91482 0.0
C867 C 0.51796 0.12355 0.91418 0.0
C868 C 0.53597 0.13033 0.93224 0.0
C869 C 0.53153 0.1126 0.95038 0.0
C870 C 0.52269 0.14246 0.89485 0.0
C871 C 0.528 0.16677 0.90036 0.0
C872 C 0.52113 0.13633 0.87111 0.0
C873 C 0.51917 0.11246 0.86399 0.0
C874 C 0.53758 0.10656 0.87176 0.0
C875 C 0.53566 0.08404 0.86514 0.0
C876 C 0.5156 0.06738 0.85053 0.0
C877 C 0.49739 0.0732 0.84254 0.0
C878 C 0.49914 0.09566 0.84919 0.0
C879 C 0.53354 0.21136 0.80026 0.0
C880 C 0.51778 0.22151 0.80358 0.0
C881 C 0.53708 0.19783 0.81852 0.0
C882 C 0.52457 0.19376 0.84036 0.0
C883 C 0.50891 0.20405 0.84362 0.0
C884 C 0.50593 0.21811 0.82561 0.0
C885 C 0.52639 0.17747 0.85927 0.0
C886 C 0.52235 0.1536 0.85371 0.0
C887 C 0.53048 0.18456 0.88289 0.0
C888 C 0.53814 0.21064 0.88975 0.0
C889 C 0.52387 0.21378 0.90722 0.0
C890 C 0.53106 0.23838 0.91351 0.0
C891 C 0.55259 0.25998 0.90256 0.0
C892 C 0.56698 0.25705 0.8853 0.0
C893 C 0.55987 0.23251 0.87893 0.0
H894 H 0.55816 0.27901 0.90749 0.0
H895 H 0.5142 0.04999 0.84537 0.0
H896 H 0.40933 0.49616 0.45439 0.0
H897 H 0.37565 0.48673 0.42574 0.0
H898 H 0.39525 0.43861 0.39014 0.0
H899 H 0.42829 0.447 0.41924 0.0
H900 H 0.3929 0.47494 0.36053 0.0
H901 H 0.34024 0.41082 0.42029 0.0
H902 H 0.32294 0.39519 0.46037 0.0
H903 H 0.29072 0.44271 0.4601 0.0
H904 H 0.30817 0.45891 0.42012 0.0
H905 H 0.29319 0.43192 0.27819 0.0
H906 H 0.31993 0.43095 0.30979 0.0
H907 H 0.29228 0.46676 0.35458 0.0
H908 H 0.26462 0.46674 0.32337 0.0
H909 H 0.2984 0.4348 0.37987 0.0
H910 H 0.35241 0.50158 0.32308 0.0
H911 H 0.37094 0.52045 0.28392 0.0
H912 H 0.4022 0.47236 0.27957 0.0
H913 H 0.38354 0.45295 0.31861 0.0
C914 C 0.4062 0.48311 0.44081 0.0
C915 C 0.4217 0.47236 0.43929 0.0
C916 C 0.38697 0.47787 0.42433 0.0
C917 C 0.38286 0.4619 0.40584 0.0
C918 C 0.39815 0.45106 0.40423 0.0
C919 C 0.41718 0.45604 0.42085 0.0
C920 C 0.36327 0.45728 0.38773 0.0
C921 C 0.37216 0.46576 0.36466 0.0
C922 C 0.33636 0.44608 0.39329 0.0
C923 C 0.32572 0.43625 0.41728 0.0
C924 C 0.32966 0.4181 0.42884 0.0
C925 C 0.31979 0.4091 0.45153 0.0
C926 C 0.3058 0.418 0.4628 0.0
C927 C 0.30159 0.43586 0.45136 0.0
C928 C 0.31144 0.44493 0.42868 0.0
C929 C 0.29242 0.43916 0.29491 0.0
C930 C 0.27696 0.44965 0.29815 0.0
C931 C 0.30791 0.43879 0.31294 0.0
C932 C 0.30879 0.44948 0.33443 0.0
C933 C 0.29215 0.45856 0.33815 0.0
C934 C 0.27631 0.45854 0.32024 0.0
C935 C 0.32797 0.45244 0.35251 0.0
C936 C 0.31908 0.44379 0.37563 0.0
C937 C 0.35503 0.46394 0.3471 0.0
C938 C 0.36633 0.47561 0.32365 0.0
C939 C 0.36307 0.4949 0.3137 0.0
C940 C 0.37362 0.50571 0.29154 0.0
C941 C 0.38767 0.49755 0.27923 0.0
C942 C 0.39127 0.47862 0.2891 0.0
C943 C 0.38072 0.46772 0.31125 0.0
H944 H 0.39583 0.50595 0.26208 0.0
H945 H 0.29817 0.41101 0.48036 0.0
H946 H 0.97324 0.40511 0.93666 0.0
H947 H 0.9497 0.37349 0.90699 0.0
H948 H 0.88079 0.37603 0.92029 0.0
H949 H 0.90417 0.40763 0.94993 0.0
H950 H 0.8675 0.32777 0.91608 0.0
H951 H 0.92147 0.40745 0.87225 0.0
H952 H 0.96287 0.44711 0.85994 0.0
H953 H 0.99354 0.4026 0.83664 0.0
H954 H 0.95242 0.36265 0.84911 0.0
H955 H 0.79499 0.27804 0.81426 0.0
H956 H 0.82135 0.30472 0.84579 0.0
H957 H 0.88353 0.29334 0.82706 0.0
H958 H 0.8572 0.26665 0.79494 0.0
H959 H 0.90224 0.34355 0.83478 0.0
H960 H 0.84569 0.26333 0.87592 0.0
H961 H 0.80337 0.22429 0.88739 0.0
H962 H 0.77669 0.27038 0.91521 0.0
H963 H 0.81873 0.30974 0.90362 0.0
C964 C 0.95312 0.39906 0.93319 0.0
C965 C 0.94066 0.40902 0.94569 0.0
C966 C 0.93966 0.38093 0.91621 0.0
C967 C 0.91351 0.37251 0.91117 0.0
C968 C 0.90091 0.38213 0.92387 0.0
C969 C 0.91432 0.40018 0.94089 0.0
C970 C 0.89924 0.35386 0.89259 0.0
C971 C 0.87502 0.33135 0.89827 0.0
C972 C 0.90929 0.3581 0.86942 0.0
C973 C 0.93399 0.38208 0.86186 0.0
C974 C 0.93712 0.40613 0.86467 0.0
C975 C 0.96052 0.42866 0.85763 0.0
C976 C 0.98085 0.42738 0.84758 0.0
C977 C 0.97779 0.40356 0.84447 0.0
C978 C 0.95444 0.38097 0.85151 0.0
C979 C 0.81422 0.28102 0.81681 0.0
C980 C 0.82393 0.27011 0.80199 0.0
C981 C 0.82925 0.29624 0.83501 0.0
C982 C 0.85434 0.30085 0.83905 0.0
C983 C 0.86418 0.28999 0.82435 0.0
C984 C 0.84906 0.27464 0.80606 0.0
C985 C 0.87035 0.31764 0.85822 0.0
C986 C 0.89488 0.33982 0.85265 0.0
C987 C 0.86052 0.31316 0.88147 0.0
C988 C 0.83532 0.2895 0.88875 0.0
C989 C 0.83074 0.26516 0.88436 0.0
C990 C 0.80681 0.24296 0.8909 0.0
C991 C 0.78733 0.24485 0.90198 0.0
C992 C 0.79179 0.26894 0.90662 0.0
C993 C 0.81569 0.2912 0.9001 0.0
H994 H 0.7688 0.22765 0.90701 0.0
H995 H 0.99895 0.44484 0.84213 0.0
H996 H 0.95697 0.50492 0.94171 0.0
H997 H 0.93265 0.51442 0.91307 0.0
H998 H 0.93854 0.57259 0.95702 0.0
H999 H 0.96329 0.56332 0.98541 0.0
H1000 H 0.88651 0.50851 0.91831 0.0
H1001 H 0.93736 0.61902 0.92295 0.0
H1002 H 0.98143 0.65683 0.92946 0.0
H1003 H 0.01648 0.61659 0.90514 0.0
H1004 H 0.97266 0.57869 0.89814 0.0
H1005 H 0.80142 0.54362 0.87641 0.0
H1006 H 0.8352 0.54519 0.90107 0.0
H1007 H 0.88892 0.57285 0.84209 0.0
H1008 H 0.8551 0.57138 0.81712 0.0
H1009 H 0.91366 0.59474 0.88478 0.0
H1010 H 0.85668 0.512 0.85343 0.0
H1011 H 0.81399 0.47362 0.84437 0.0
H1012 H 0.79457 0.45713 0.91751 0.0
H1013 H 0.83702 0.49567 0.92698 0.0
C1014 C 0.95328 0.51993 0.945 0.0
C1015 C 0.9618 0.53338 0.96564 0.0
C1016 C 0.93937 0.5253 0.92874 0.0
C1017 C 0.93384 0.54431 0.9328 0.0
C1018 C 0.94286 0.55811 0.9533 0.0
C1019 C 0.95684 0.55276 0.96955 0.0
C1020 C 0.9173 0.54854 0.91628 0.0
C1021 C 0.89255 0.52739 0.91099 0.0
C1022 C 0.92522 0.5731 0.9064 0.0
C1023 C 0.95169 0.59592 0.91024 0.0
C1024 C 0.95447 0.61828 0.91889 0.0
C1025 C 0.97941 0.63973 0.92268 0.0
C1026 C 0.00173 0.63909 0.91778 0.0
C1027 C 0.99917 0.61703 0.90901 0.0
C1028 C 0.97428 0.59555 0.90515 0.0
C1029 C 0.82058 0.55059 0.86871 0.0
C1030 C 0.82541 0.55703 0.84468 0.0
C1031 C 0.83987 0.55144 0.88286 0.0
C1032 C 0.8644 0.55869 0.87332 0.0
C1033 C 0.87007 0.56711 0.84978 0.0
C1034 C 0.85071 0.56626 0.83553 0.0
C1035 C 0.88283 0.55481 0.88737 0.0
C1036 C 0.90779 0.57594 0.89217 0.0
C1037 C 0.87538 0.53015 0.89651 0.0
C1038 C 0.84992 0.50685 0.8909 0.0
C1039 C 0.84322 0.5003 0.86757 0.0
C1040 C 0.81908 0.4785 0.86236 0.0
C1041 C 0.80155 0.46298 0.88035 0.0
C1042 C 0.80816 0.46919 0.90359 0.0
C1043 C 0.83226 0.491 0.90889 0.0
H1044 H 0.78287 0.44611 0.87629 0.0
H1045 H 0.02102 0.6557 0.92075 0.0
H1046 H 0.44791 0.93709 0.46629 0.0
H1047 H 0.41973 0.90918 0.43577 0.0
H1048 H 0.38653 0.95591 0.4264 0.0
H1049 H 0.41338 0.98263 0.45818 0.0
H1050 H 0.3495 0.9083 0.42352 0.0
H1051 H 0.43636 0.95975 0.38877 0.0
H1052 H 0.48392 0.97736 0.38662 0.0
H1053 H 0.4688 0.90114 0.38353 0.0
H1054 H 0.42136 0.88311 0.38619 0.0
H1055 H 0.29032 0.84758 0.31533 0.0
H1056 H 0.31599 0.87965 0.34451 0.0
H1057 H 0.35358 0.83879 0.36388 0.0
H1058 H 0.32874 0.80741 0.33493 0.0
H1059 H 0.38889 0.88778 0.35887 0.0
H1060 H 0.30434 0.8359 0.3977 0.0
H1061 H 0.25656 0.81605 0.40205 0.0
H1062 H 0.26689 0.8906 0.39857 0.0
H1063 H 0.31474 0.91088 0.39389 0.0
C1064 C 0.4346 0.94134 0.45762 0.0
C1065 C 0.43344 0.96249 0.46392 0.0
C1066 C 0.41861 0.92553 0.44008 0.0
C1067 C 0.40153 0.93087 0.42815 0.0
C1068 C 0.3998 0.95158 0.43502 0.0
C1069 C 0.41542 0.96708 0.45292 0.0
C1070 C 0.38545 0.91482 0.4086 0.0
C1071 C 0.35821 0.90419 0.40918 0.0
C1072 C 0.39662 0.90903 0.38999 0.0
C1073 C 0.42527 0.92006 0.3878 0.0
C1074 C 0.44322 0.94676 0.38773 0.0
C1075 C 0.47019 0.95682 0.38646 0.0
C1076 C 0.47944 0.94041 0.38499 0.0
C1077 C 0.46173 0.9139 0.38471 0.0
C1078 C 0.43478 0.90373 0.38609 0.0
C1079 C 0.30403 0.84549 0.32589 0.0
C1080 C 0.30752 0.82498 0.32269 0.0
C1081 C 0.31863 0.86376 0.34259 0.0
C1082 C 0.33676 0.86165 0.35645 0.0
C1083 C 0.33994 0.84102 0.35334 0.0
C1084 C 0.32557 0.82298 0.33673 0.0
C1085 C 0.35293 0.88082 0.37408 0.0
C1086 C 0.38024 0.89217 0.37307 0.0
C1087 C 0.3418 0.88704 0.39235 0.0
C1088 C 0.31307 0.87488 0.39514 0.0
C1089 C 0.2964 0.84804 0.39765 0.0
C1090 C 0.26931 0.83672 0.40022 0.0
C1091 C 0.25869 0.85205 0.40051 0.0
C1092 C 0.27514 0.87874 0.39829 0.0
C1093 C 0.30224 0.89016 0.39569 0.0
H1094 H 0.23771 0.84324 0.40251 0.0
H1095 H 0.50031 0.94823 0.38403 0.0
H1096 H 0.4833 0.44474 0.91772 0.0
H1097 H 0.47372 0.41048 0.89166 0.0
H1098 H 0.44346 0.35558 0.94995 0.0
H1099 H 0.45227 0.38966 0.97617 0.0
H1100 H 0.47772 0.35089 0.92139 0.0
H1101 H 0.40152 0.35579 0.91279 0.0
H1102 H 0.37744 0.3774 0.90559 0.0
H1103 H 0.41233 0.40207 0.83692 0.0
H1104 H 0.43693 0.38092 0.84384 0.0
H1105 H 0.43492 0.2456 0.84978 0.0
H1106 H 0.43278 0.27323 0.87803 0.0
H1107 H 0.45459 0.33182 0.82374 0.0
H1108 H 0.45579 0.30396 0.79528 0.0
H1109 H 0.42123 0.33207 0.85246 0.0
H1110 H 0.50032 0.33128 0.86176 0.0
H1111 H 0.52572 0.31091 0.86837 0.0
H1112 H 0.48721 0.28019 0.93507 0.0
H1113 H 0.46133 0.30011 0.92871 0.0
C1114 C 0.47417 0.42534 0.92502 0.0
C1115 C 0.46837 0.42002 0.9491 0.0
C1116 C 0.46883 0.40576 0.91007 0.0
C1117 C 0.45763 0.38041 0.91881 0.0
C1118 C 0.45209 0.37501 0.94283 0.0
C1119 C 0.45726 0.39457 0.95781 0.0
C1120 C 0.45225 0.35973 0.90285 0.0
C1121 C 0.465 0.34643 0.90655 0.0
C1122 C 0.43612 0.35433 0.88319 0.0
C1123 C 0.42124 0.36694 0.87891 0.0
C1124 C 0.40422 0.36599 0.89622 0.0
C1125 C 0.39045 0.37813 0.89218 0.0
C1126 C 0.3934 0.39115 0.87083 0.0
C1127 C 0.41008 0.392 0.85346 0.0
C1128 C 0.42392 0.37991 0.85742 0.0
C1129 C 0.43876 0.26417 0.84376 0.0
C1130 C 0.44578 0.27265 0.8203 0.0
C1131 C 0.43773 0.28005 0.85998 0.0
C1132 C 0.44424 0.30494 0.85319 0.0
C1133 C 0.44966 0.3128 0.82949 0.0
C1134 C 0.45033 0.2968 0.8132 0.0
C1135 C 0.44693 0.32335 0.87082 0.0
C1136 C 0.43375 0.3363 0.86742 0.0
C1137 C 0.46288 0.32863 0.89066 0.0
C1138 C 0.47869 0.31695 0.89465 0.0
C1139 C 0.49717 0.32006 0.87777 0.0
C1140 C 0.51165 0.30861 0.88148 0.0
C1141 C 0.50801 0.2942 0.90209 0.0
C1142 C 0.48997 0.29131 0.91909 0.0
C1143 C 0.4754 0.30269 0.91546 0.0
H1144 H 0.5192 0.2853 0.90492 0.0
H1145 H 0.38272 0.40053 0.86774 0.0
H1146 H 0.10426 0.49738 0.45841 0.0
H1147 H 0.13773 0.5067 0.42902 0.0
H1148 H 0.10456 0.53721 0.38156 0.0
H1149 H 0.0715 0.52891 0.41119 0.0
H1150 H 0.1155 0.50238 0.36138 0.0
H1151 H 0.15662 0.57633 0.40586 0.0
H1152 H 0.17317 0.6032 0.44008 0.0
H1153 H 0.2241 0.57582 0.45496 0.0
H1154 H 0.20769 0.54864 0.42083 0.0
H1155 H 0.21743 0.53683 0.27991 0.0
H1156 H 0.1896 0.54346 0.30587 0.0
H1157 H 0.22019 0.52385 0.36549 0.0
H1158 H 0.24865 0.51816 0.33986 0.0
H1159 H 0.21042 0.55856 0.37702 0.0
H1160 H 0.16272 0.47853 0.33742 0.0
H1161 H 0.14675 0.45185 0.3029 0.0
H1162 H 0.10809 0.49019 0.27972 0.0
H1163 H 0.12417 0.51736 0.31396 0.0
C1164 C 0.10415 0.50634 0.44186 0.0
C1165 C 0.08508 0.51242 0.4373 0.0
C1166 C 0.12329 0.51156 0.42502 0.0
C1167 C 0.12373 0.52279 0.40318 0.0
C1168 C 0.10451 0.52846 0.39831 0.0
C1169 C 0.0855 0.52351 0.41524 0.0
C1170 C 0.14413 0.52821 0.38542 0.0
C1171 C 0.13626 0.51507 0.36458 0.0
C1172 C 0.17122 0.54443 0.38982 0.0
C1173 C 0.18077 0.56031 0.41076 0.0
C1174 C 0.1712 0.57589 0.41648 0.0
C1175 C 0.18061 0.59123 0.43586 0.0
C1176 C 0.19965 0.59119 0.44972 0.0
C1177 C 0.20934 0.57583 0.4442 0.0
C1178 C 0.20002 0.56049 0.42479 0.0
C1179 C 0.21874 0.53458 0.29858 0.0
C1180 C 0.235 0.52655 0.30775 0.0
C1181 C 0.20264 0.53818 0.31342 0.0
C1182 C 0.20218 0.5334 0.33763 0.0
C1183 C 0.21997 0.52745 0.34689 0.0
C1184 C 0.23626 0.52415 0.33213 0.0
C1185 C 0.18183 0.53228 0.35321 0.0
C1186 C 0.18967 0.54612 0.37371 0.0
C1187 C 0.15469 0.51658 0.34859 0.0
C1188 C 0.14485 0.50014 0.32811 0.0
C1189 C 0.15094 0.48136 0.32488 0.0
C1190 C 0.14186 0.46615 0.30538 0.0
C1191 C 0.12643 0.46934 0.28912 0.0
C1192 C 0.12006 0.48776 0.29233 0.0
C1193 C 0.12914 0.50306 0.31177 0.0
H1194 H 0.11936 0.45749 0.27408 0.0
H1195 H 0.20693 0.60308 0.46473 0.0
H1196 H 0.62709 0.0964 0.97182 0.0
H1197 H 0.64472 0.12726 0.9384 0.0
H1198 H 0.56616 0.09809 0.91446 0.0
H1199 H 0.54868 0.06712 0.94781 0.0
H1200 H 0.59867 0.10437 0.87889 0.0
H1201 H 0.59841 0.15535 0.93753 0.0
H1202 H 0.60532 0.17324 0.9765 0.0
H1203 H 0.68855 0.20915 0.9674 0.0
H1204 H 0.68212 0.19109 0.92851 0.0
H1205 H 0.67113 0.20302 0.78917 0.0
H1206 H 0.6383 0.18134 0.82118 0.0
H1207 H 0.69854 0.18802 0.8667 0.0
H1208 H 0.73089 0.20935 0.83521 0.0
H1209 H 0.66449 0.19653 0.88976 0.0
H1210 H 0.65988 0.13335 0.8357 0.0
H1211 H 0.65136 0.11408 0.79715 0.0
H1212 H 0.57434 0.10203 0.79798 0.0
H1213 H 0.58264 0.12164 0.83635 0.0
C1214 C 0.61365 0.0969 0.95957 0.0
C1215 C 0.58652 0.07998 0.96267 0.0
C1216 C 0.62367 0.11447 0.9405 0.0
C1217 C 0.60672 0.11535 0.92414 0.0
C1218 C 0.5796 0.09796 0.92692 0.0
C1219 C 0.56962 0.0804 0.94602 0.0
C1220 C 0.61769 0.13398 0.90384 0.0
C1221 C 0.61252 0.12465 0.88123 0.0
C1222 C 0.6356 0.16048 0.90682 0.0
C1223 C 0.63975 0.17177 0.93008 0.0
C1224 C 0.61818 0.16695 0.94387 0.0
C1225 C 0.62202 0.17713 0.96596 0.0
C1226 C 0.64736 0.19232 0.97443 0.0
C1227 C 0.66893 0.1974 0.9608 0.0
C1228 C 0.6652 0.18722 0.93871 0.0
C1229 C 0.67732 0.20031 0.80619 0.0
C1230 C 0.70346 0.20763 0.80969 0.0
C1231 C 0.65859 0.18784 0.82439 0.0
C1232 C 0.66594 0.18286 0.8463 0.0
C1233 C 0.69236 0.19164 0.85002 0.0
C1234 C 0.71084 0.20372 0.83193 0.0
C1235 C 0.64644 0.16665 0.86502 0.0
C1236 C 0.64995 0.17642 0.88739 0.0
C1237 C 0.62674 0.14064 0.8618 0.0
C1238 C 0.62192 0.12908 0.83874 0.0
C1239 C 0.6412 0.12672 0.82756 0.0
C1240 C 0.63642 0.11575 0.80576 0.0
C1241 C 0.61234 0.10688 0.7951 0.0
C1242 C 0.59299 0.10894 0.80623 0.0
C1243 C 0.59771 0.11996 0.828 0.0
H1244 H 0.60867 0.09837 0.77823 0.0
H1245 H 0.6503 0.20018 0.99154 0.0
H1246 H 0.50517 0.56853 0.44837 0.0
H1247 H 0.51317 0.60271 0.41986 0.0
H1248 H 0.59129 0.65116 0.44593 0.0
H1249 H 0.58311 0.6168 0.47463 0.0
H1250 H 0.56558 0.67764 0.43629 0.0
H1251 H 0.58525 0.62207 0.39842 0.0
H1252 H 0.57683 0.58019 0.38705 0.0
H1253 H 0.50917 0.56628 0.34928 0.0
H1254 H 0.51686 0.60787 0.36084 0.0
H1255 H 0.59537 0.7615 0.33373 0.0
H1256 H 0.59877 0.73461 0.36448 0.0
H1257 H 0.52171 0.67133 0.34799 0.0
H1258 H 0.51829 0.69764 0.31745 0.0
H1259 H 0.55524 0.65576 0.3529 0.0
H1260 H 0.53197 0.70788 0.39512 0.0
H1261 H 0.53856 0.74868 0.40782 0.0
H1262 H 0.61224 0.76865 0.43751 0.0
H1263 H 0.60622 0.72807 0.42471 0.0
C1264 C 0.5239 0.58661 0.44809 0.0
C1265 C 0.5436 0.59024 0.46344 0.0
C1266 C 0.52851 0.60605 0.43184 0.0
C1267 C 0.55294 0.62935 0.43063 0.0
C1268 C 0.57234 0.63332 0.44658 0.0
C1269 C 0.56773 0.61378 0.46285 0.0
C1270 C 0.55834 0.64889 0.41192 0.0
C1271 C 0.56383 0.67309 0.41801 0.0
C1272 C 0.5559 0.64283 0.38812 0.0
C1273 C 0.55156 0.61806 0.38062 0.0
C1274 C 0.56849 0.61003 0.3878 0.0
C1275 C 0.56384 0.58633 0.38132 0.0
C1276 C 0.54247 0.57057 0.36746 0.0
C1277 C 0.52573 0.57851 0.36001 0.0
C1278 C 0.53023 0.60216 0.36651 0.0
C1279 C 0.57921 0.74184 0.33669 0.0
C1280 C 0.55656 0.73175 0.32315 0.0
C1281 C 0.58114 0.72654 0.35429 0.0
C1282 C 0.56044 0.70096 0.35858 0.0
C1283 C 0.53798 0.69094 0.34495 0.0
C1284 C 0.53604 0.70612 0.32751 0.0
C1285 C 0.5616 0.68428 0.37725 0.0
C1286 C 0.55744 0.66055 0.37113 0.0
C1287 C 0.56522 0.69078 0.40098 0.0
C1288 C 0.56881 0.71512 0.4087 0.0
C1289 C 0.54968 0.72108 0.40418 0.0
C1290 C 0.55329 0.74414 0.41143 0.0
C1291 C 0.57585 0.76129 0.42339 0.0
C1292 C 0.5948 0.75537 0.42819 0.0
C1293 C 0.5913 0.73235 0.42095 0.0
H1294 H 0.5786 0.77913 0.429 0.0
H1295 H 0.53889 0.55223 0.36248 0.0
H1296 H 0.45904 0.08535 0.55714 0.0
H1297 H 0.45 0.11129 0.58221 0.0
H1298 H 0.46295 0.07686 0.64324 0.0
H1299 H 0.4723 0.0511 0.61826 0.0
H1300 H 0.41818 0.08256 0.64693 0.0
H1301 H 0.51053 0.1314 0.6278 0.0
H1302 H 0.54907 0.15103 0.60128 0.0
H1303 H 0.52283 0.19596 0.56646 0.0
H1304 H 0.48389 0.17635 0.59271 0.0
H1305 H 0.4486 0.17575 0.73237 0.0
H1306 H 0.44513 0.14366 0.70624 0.0
H1307 H 0.44598 0.18901 0.64679 0.0
H1308 H 0.44982 0.22133 0.67275 0.0
H1309 H 0.48132 0.17677 0.64101 0.0
H1310 H 0.39062 0.13069 0.66302 0.0
H1311 H 0.35226 0.1109 0.68985 0.0
H1312 H 0.37479 0.06063 0.71937 0.0
H1313 H 0.41352 0.08037 0.69293 0.0
C1314 C 0.45959 0.08307 0.57591 0.0
C1315 C 0.46648 0.06632 0.58576 0.0
C1316 C 0.4545 0.09792 0.59019 0.0
C1317 C 0.45588 0.09602 0.61457 0.0
C1318 C 0.46172 0.07855 0.62448 0.0
C1319 C 0.46722 0.064 0.6102 0.0
C1320 C 0.45298 0.11348 0.62961 0.0
C1321 C 0.43205 0.10315 0.64583 0.0
C1322 C 0.47081 0.14033 0.6278 0.0
C1323 C 0.49416 0.15219 0.61201 0.0
C1324 C 0.51285 0.14529 0.61435 0.0
C1325 C 0.5348 0.15645 0.59939 0.0
C1326 C 0.53836 0.17465 0.58211 0.0
C1327 C 0.52001 0.18181 0.57982 0.0
C1328 C 0.49801 0.1707 0.59475 0.0
C1329 C 0.44752 0.17867 0.71377 0.0
C1330 C 0.44965 0.20122 0.70467 0.0
C1331 C 0.44547 0.16024 0.69882 0.0
C1332 C 0.44526 0.16386 0.6745 0.0
C1333 C 0.4462 0.18581 0.66547 0.0
C1334 C 0.44831 0.20426 0.68037 0.0
C1335 C 0.44637 0.14599 0.65846 0.0
C1336 C 0.46716 0.15623 0.64205 0.0
C1337 C 0.42836 0.11908 0.66016 0.0
C1338 C 0.40512 0.10719 0.67613 0.0
C1339 C 0.38753 0.11557 0.67537 0.0
C1340 C 0.36569 0.10433 0.69048 0.0
C1341 C 0.36112 0.08456 0.70634 0.0
C1342 C 0.37837 0.07596 0.70709 0.0
C1343 C 0.40026 0.08715 0.69203 0.0
H1344 H 0.34419 0.07588 0.71802 0.0
H1345 H 0.55538 0.18327 0.57054 0.0
H1346 H 0.44207 0.52353 0.06056 0.0
H1347 H 0.41079 0.52076 0.08919 0.0
H1348 H 0.35901 0.44025 0.07692 0.0
H1349 H 0.39108 0.44281 0.04846 0.0
H1350 H 0.33503 0.47208 0.07896 0.0
H1351 H 0.39133 0.45233 0.12097 0.0
H1352 H 0.43371 0.45955 0.13371 0.0
H1353 H 0.45171 0.52892 0.16565 0.0
H1354 H 0.40998 0.52276 0.15218 0.0
H1355 H 0.25169 0.44035 0.17759 0.0
H1356 H 0.28081 0.44228 0.14718 0.0
H1357 H 0.34213 0.51669 0.16918 0.0
H1358 H 0.31304 0.51466 0.20023 0.0
H1359 H 0.36109 0.48716 0.16182 0.0
H1360 H 0.30837 0.51003 0.11874 0.0
H1361 H 0.26762 0.50597 0.10495 0.0
H1362 H 0.24423 0.43407 0.07511 0.0
H1363 H 0.28469 0.43752 0.08901 0.0
C1364 C 0.42409 0.50522 0.06391 0.0
C1365 C 0.41905 0.48329 0.05246 0.0
C1366 C 0.40619 0.50369 0.08025 0.0
C1367 C 0.38273 0.48028 0.08529 0.0
C1368 C 0.37708 0.45849 0.07325 0.0
C1369 C 0.39529 0.45993 0.05707 0.0
C1370 C 0.36468 0.47876 0.1037 0.0
C1371 C 0.34047 0.47492 0.09716 0.0
C1372 C 0.37233 0.48343 0.12726 0.0
C1373 C 0.3976 0.48724 0.13526 0.0
C1374 C 0.4045 0.46937 0.13035 0.0
C1375 C 0.42844 0.47327 0.13771 0.0
C1376 C 0.44548 0.49477 0.15035 0.0
C1377 C 0.43861 0.51239 0.15568 0.0
C1378 C 0.41483 0.50873 0.14813 0.0
C1379 C 0.27132 0.45725 0.17597 0.0
C1380 C 0.28 0.47741 0.19136 0.0
C1381 C 0.28794 0.45836 0.15843 0.0
C1382 C 0.31359 0.47976 0.15564 0.0
C1383 C 0.32238 0.49999 0.17095 0.0
C1384 C 0.30571 0.49887 0.18862 0.0
C1385 C 0.33131 0.4805 0.13716 0.0
C1386 C 0.35554 0.48424 0.14366 0.0
C1387 C 0.32384 0.4761 0.1135 0.0
C1388 C 0.29945 0.47392 0.10513 0.0
C1389 C 0.29443 0.49324 0.10941 0.0
C1390 C 0.2714 0.49107 0.10154 0.0
C1391 C 0.25331 0.46974 0.08922 0.0
C1392 C 0.25824 0.45057 0.08469 0.0
C1393 C 0.28124 0.45263 0.09255 0.0
H1394 H 0.2355 0.4681 0.08313 0.0
H1395 H 0.46396 0.4977 0.15613 0.0
H1396 H 0.9598 0.40587 0.5582 0.0
H1397 H 0.92495 0.37762 0.58655 0.0
H1398 H 0.89661 0.42884 0.58401 0.0
H1399 H 0.93228 0.45761 0.5564 0.0
H1400 H 0.8957 0.41411 0.6271 0.0
H1401 H 0.86392 0.37038 0.55698 0.0
H1402 H 0.86508 0.35146 0.52022 0.0
H1403 H 0.87782 0.29796 0.55835 0.0
H1404 H 0.87716 0.31682 0.59534 0.0
H1405 H 0.78375 0.31237 0.69641 0.0
H1406 H 0.80828 0.34338 0.66374 0.0
H1407 H 0.86125 0.31664 0.66135 0.0
H1408 H 0.83745 0.28628 0.69368 0.0
H1409 H 0.84186 0.32008 0.61739 0.0
H1410 H 0.87918 0.36977 0.687 0.0
H1411 H 0.87726 0.38955 0.72292 0.0
H1412 H 0.85118 0.43225 0.68372 0.0
H1413 H 0.85264 0.41248 0.6476 0.0
C1414 C 0.94623 0.41111 0.56391 0.0
C1415 C 0.94883 0.43398 0.55549 0.0
C1416 C 0.92614 0.39487 0.57987 0.0
C1417 C 0.90784 0.40088 0.58721 0.0
C1418 C 0.91041 0.42375 0.57864 0.0
C1419 C 0.9307 0.44012 0.56286 0.0
C1420 C 0.88648 0.38349 0.60421 0.0
C1421 C 0.88354 0.39361 0.62472 0.0
C1422 C 0.87043 0.35673 0.60114 0.0
C1423 C 0.87063 0.34513 0.57895 0.0
C1424 C 0.86713 0.35468 0.55753 0.0
C1425 C 0.86768 0.34396 0.53665 0.0
C1426 C 0.87155 0.32354 0.53695 0.0
C1427 C 0.87482 0.31377 0.55814 0.0
C1428 C 0.87432 0.32445 0.57908 0.0
C1429 C 0.80062 0.31317 0.68884 0.0
C1430 C 0.80869 0.29693 0.69768 0.0
C1431 C 0.81461 0.33088 0.67027 0.0
C1432 C 0.83656 0.33225 0.66015 0.0
C1433 C 0.84434 0.31585 0.66884 0.0
C1434 C 0.83072 0.29856 0.68745 0.0
C1435 C 0.85193 0.35061 0.64052 0.0
C1436 C 0.85365 0.34066 0.61946 0.0
C1437 C 0.86651 0.3775 0.64295 0.0
C1438 C 0.86555 0.38928 0.66468 0.0
C1439 C 0.87273 0.38313 0.68609 0.0
C1440 C 0.87182 0.39442 0.70647 0.0
C1441 C 0.864 0.41206 0.70563 0.0
C1442 C 0.85719 0.41855 0.68438 0.0
C1443 C 0.85803 0.4073 0.66394 0.0
H1444 H 0.86329 0.42069 0.72146 0.0
H1445 H 0.87198 0.31526 0.52076 0.0
H1446 H 0.60666 0.99875 0.09111 0.0
H1447 H 0.61882 0.97624 0.11939 0.0
H1448 H 0.54165 0.90799 0.11501 0.0
H1449 H 0.52931 0.93043 0.08697 0.0
H1450 H 0.55748 0.91877 0.16034 0.0
H1451 H 0.59197 0.91176 0.08713 0.0
H1452 H 0.6185 0.92843 0.05072 0.0
H1453 H 0.68841 0.97176 0.0903 0.0
H1454 H 0.66222 0.95561 0.12697 0.0
H1455 H 0.60096 0.82475 0.18303 0.0
H1456 H 0.60143 0.85701 0.15694 0.0
H1457 H 0.60931 0.90206 0.21584 0.0
H1458 H 0.60796 0.86932 0.24227 0.0
H1459 H 0.63065 0.90615 0.14462 0.0
H1460 H 0.57118 0.92688 0.20741 0.0
H1461 H 0.54289 0.90776 0.24269 0.0
H1462 H 0.51911 0.83234 0.22152 0.0
H1463 H 0.54706 0.85103 0.186 0.0
C1464 C 0.59229 0.97896 0.09624 0.0
C1465 C 0.56707 0.96631 0.08673 0.0
C1466 C 0.59929 0.96611 0.1123 0.0
C1467 C 0.58117 0.94041 0.11924 0.0
C1468 C 0.55594 0.92782 0.1099 0.0
C1469 C 0.54899 0.94058 0.09372 0.0
C1470 C 0.58839 0.92651 0.13618 0.0
C1471 C 0.5736 0.91616 0.15698 0.0
C1472 C 0.60935 0.92304 0.13177 0.0
C1473 C 0.62511 0.93271 0.10977 0.0
C1474 C 0.61297 0.92502 0.08806 0.0
C1475 C 0.62795 0.93434 0.06738 0.0
C1476 C 0.65511 0.9512 0.0682 0.0
C1477 C 0.66736 0.95873 0.0897 0.0
C1478 C 0.65247 0.94949 0.11043 0.0
C1479 C 0.60338 0.84176 0.19049 0.0
C1480 C 0.60387 0.84415 0.21482 0.0
C1481 C 0.60369 0.86027 0.17548 0.0
C1482 C 0.60468 0.88164 0.18445 0.0
C1483 C 0.60787 0.8854 0.20856 0.0
C1484 C 0.60729 0.86673 0.22364 0.0
C1485 C 0.59968 0.89828 0.16879 0.0
C1486 C 0.61484 0.90914 0.1482 0.0
C1487 C 0.5788 0.90194 0.17323 0.0
C1488 C 0.56141 0.89038 0.19421 0.0
C1489 C 0.55981 0.90621 0.21025 0.0
C1490 C 0.54386 0.89545 0.23029 0.0
C1491 C 0.52926 0.86885 0.23439 0.0
C1492 C 0.53048 0.85295 0.21837 0.0
C1493 C 0.54639 0.86361 0.19829 0.0
H1494 H 0.51697 0.86058 0.24994 0.0
H1495 H 0.66667 0.95839 0.05217 0.0
H1496 H 0.60424 0.5073 0.57435 0.0
H1497 H 0.63364 0.51225 0.60581 0.0
H1498 H 0.63879 0.58169 0.62524 0.0
H1499 H 0.60977 0.57725 0.59317 0.0
H1500 H 0.68722 0.58551 0.62682 0.0
H1501 H 0.59973 0.52868 0.65663 0.0
H1502 H 0.55418 0.49156 0.65577 0.0
H1503 H 0.58203 0.44058 0.65306 0.0
H1504 H 0.62771 0.47731 0.65366 0.0
H1505 H 0.74402 0.57701 0.73652 0.0
H1506 H 0.71863 0.5832 0.70626 0.0
H1507 H 0.69594 0.51013 0.67853 0.0
H1508 H 0.72046 0.50369 0.70872 0.0
H1509 H 0.65444 0.51262 0.68471 0.0
H1510 H 0.74153 0.56923 0.65081 0.0
H1511 H 0.78728 0.6061 0.65026 0.0
H1512 H 0.76052 0.65727 0.65993 0.0
H1513 H 0.7146 0.62064 0.66082 0.0
C1514 C 0.61197 0.52391 0.585 0.0
C1515 C 0.60469 0.54192 0.58122 0.0
C1516 C 0.6286 0.52658 0.60313 0.0
C1517 C 0.63814 0.54717 0.61804 0.0
C1518 C 0.63156 0.56562 0.61398 0.0
C1519 C 0.61484 0.56295 0.59578 0.0
C1520 C 0.65418 0.54863 0.63829 0.0
C1521 C 0.67997 0.56981 0.63976 0.0
C1522 C 0.64472 0.52805 0.65504 0.0
C1523 C 0.61718 0.5058 0.65512 0.0
C1524 C 0.59614 0.50955 0.65577 0.0
C1525 C 0.57028 0.48856 0.65536 0.0
C1526 C 0.56519 0.46369 0.65444 0.0
C1527 C 0.58596 0.45979 0.65389 0.0
C1528 C 0.61185 0.48069 0.65431 0.0
C1529 C 0.73391 0.56253 0.7237 0.0
C1530 C 0.73404 0.53979 0.72506 0.0
C1531 C 0.71941 0.56605 0.70645 0.0
C1532 C 0.70522 0.54704 0.69016 0.0
C1533 C 0.70641 0.52493 0.69102 0.0
C1534 C 0.72053 0.52131 0.70828 0.0
C1535 C 0.68796 0.54906 0.67281 0.0
C1536 C 0.66172 0.52852 0.67199 0.0
C1537 C 0.69709 0.57019 0.65669 0.0
C1538 C 0.72467 0.59217 0.65617 0.0
C1539 C 0.74542 0.58832 0.65302 0.0
C1540 C 0.77137 0.60918 0.65261 0.0
C1541 C 0.77681 0.634 0.65514 0.0
C1542 C 0.75629 0.63803 0.65803 0.0
C1543 C 0.7303 0.61723 0.65847 0.0
H1544 H 0.79691 0.65013 0.65481 0.0
H1545 H 0.54517 0.44747 0.65415 0.0
H1546 H 0.09175 0.57319 0.09257 0.0
H1547 H 0.11628 0.60331 0.12309 0.0
H1548 H 0.05743 0.62261 0.12693 0.0
H1549 H 0.03267 0.59231 0.09636 0.0
H1550 H 0.10936 0.66591 0.12594 0.0
H1551 H 0.0578 0.58554 0.16703 0.0
H1552 H 0.0393 0.53969 0.17661 0.0
H1553 H 0.11613 0.55546 0.19195 0.0
H1554 H 0.13529 0.60123 0.18149 0.0
H1555 H 0.17826 0.73851 0.22771 0.0
H1556 H 0.14251 0.70932 0.20207 0.0
H1557 H 0.18241 0.67 0.18897 0.0
H1558 H 0.21746 0.6984 0.21424 0.0
H1559 H 0.13185 0.63641 0.19863 0.0
H1560 H 0.18356 0.71376 0.1493 0.0
H1561 H 0.20331 0.7597 0.13884 0.0
H1562 H 0.12704 0.74936 0.13988 0.0
H1563 H 0.10688 0.70339 0.15064 0.0
C1564 C 0.0841 0.58395 0.09983 0.0
C1565 C 0.06031 0.58043 0.09206 0.0
C1566 C 0.09805 0.60103 0.11736 0.0
C1567 C 0.0886 0.6151 0.1274 0.0
C1568 C 0.06504 0.61192 0.11946 0.0
C1569 C 0.05086 0.59453 0.10211 0.0
C1570 C 0.10352 0.63307 0.14616 0.0
C1571 C 0.11389 0.65942 0.14204 0.0
C1572 C 0.10954 0.62461 0.16712 0.0
C1573 C 0.09806 0.5969 0.17317 0.0
C1574 C 0.07085 0.57922 0.17206 0.0
C1575 C 0.06022 0.5532 0.17766 0.0
C1576 C 0.07654 0.54463 0.18475 0.0
C1577 C 0.10351 0.56209 0.18633 0.0
C1578 C 0.11427 0.58808 0.1805 0.0
C1579 C 0.17932 0.72363 0.21932 0.0
C1580 C 0.20075 0.72083 0.2231 0.0
C1581 C 0.15893 0.707 0.20466 0.0
C1582 C 0.15974 0.6874 0.19359 0.0
C1583 C 0.18116 0.68477 0.1974 0.0
C1584 C 0.20133 0.70121 0.21188 0.0
C1585 C 0.13869 0.6693 0.17792 0.0
C1586 C 0.12699 0.64285 0.18268 0.0
C1587 C 0.13165 0.67766 0.15752 0.0
C1588 C 0.14376 0.70525 0.15107 0.0
C1589 C 0.17103 0.72134 0.1475 0.0
C1590 C 0.1823 0.74737 0.14148 0.0
C1591 C 0.16645 0.75747 0.13878 0.0
C1592 C 0.1393 0.74153 0.14203 0.0
C1593 C 0.12794 0.71549 0.14809 0.0
H1594 H 0.1752 0.77762 0.13411 0.0
H1595 H 0.06828 0.52449 0.18911 0.0
loop_
_geom_bond_atom_site_label_1
_geom_bond_atom_site_label_2
_geom_bond_distance
_geom_bond_site_symmetry_2
_ccdc_geom_bond_type
C0 C1 1.443 . S
C0 N4 1.376 1_556 S
C0 C38 1.389 . S
C1 C0 1.443 . S
C1 C2 1.340 1_556 S
C1 H41 0.951 . S
C2 C1 1.340 1_554 S
C2 C3 1.439 . S
C2 H42 0.950 . S
C3 C2 1.439 . S
C3 N4 1.374 . S
C3 C37 1.395 . S
N4 C0 1.376 1_554 S
N4 C3 1.374 . S
N4 Co5 2.008 1_655 S
Co5 N4 2.008 1_455 S
Co5 N6 1.995 . S
Co5 N11 2.008 . S
Co5 N16 1.995 1_554 S
Co5 N21 2.282 . S
Co5 N27 2.282 1_454 S
N6 Co5 1.995 . S
N6 C7 1.376 1_455 S
N6 C10 1.383 . S
C7 N6 1.376 1_655 S
C7 C8 1.446 . S
C7 C37 1.391 . S
C8 C7 1.446 . S
C8 C9 1.339 1_655 S
C8 H43 0.949 . S
C9 C8 1.339 1_455 S
C9 C10 1.439 . S
C9 H44 0.950 . S
C10 N6 1.383 . S
C10 C9 1.439 . S
C10 C39 1.392 . S
N11 Co5 2.008 . S
N11 C12 1.376 . S
N11 C15 1.374 1_554 S
C12 N11 1.376 . S
C12 C13 1.443 . S
C12 C39 1.389 . S
C13 C12 1.443 . S
C13 C14 1.340 . S
C13 H45 0.951 . S
C14 C13 1.340 . S
C14 C15 1.439 1_554 S
C14 H46 0.950 1_554 S
C15 N11 1.374 1_556 S
C15 C14 1.439 1_556 S
C15 C40 1.395 . S
N16 Co5 1.995 1_556 S
N16 C17 1.376 . S
N16 C20 1.383 . S
C17 N16 1.376 . S
C17 C18 1.446 . S
C17 C40 1.391 . S
C18 C17 1.446 . S
C18 C19 1.339 . S
C18 H47 0.949 . S
C19 C18 1.339 . S
C19 C20 1.439 . S
C19 H48 0.950 . S
C20 N16 1.383 . S
C20 C19 1.439 . S
C20 C38 1.392 1_455 S
N21 Co5 2.282 . S
N21 C24 1.332 . S
N21 C26 1.332 . S
C22 C23 1.386 . S
C22 C25 1.388 . S
C23 C22 1.386 . S
C23 C24 1.382 . S
C23 H49 0.950 . S
C24 N21 1.332 . S
C24 C23 1.382 . S
C24 H35 0.952 . S
C25 C22 1.388 . S
C25 C26 1.382 . S
C25 H50 0.950 . S
C26 N21 1.332 . S
C26 C25 1.382 . S
C26 H36 0.948 . S
N27 Co5 2.282 1_656 S
N27 C31 1.332 . S
N27 C32 1.332 1_655 S
C28 C29 1.388 . S
C28 C32 1.382 1_655 S
C28 H51 0.952 1_655 S
C29 C28 1.388 . S
C29 C30 1.386 . S
C30 C29 1.386 . S
C30 C31 1.382 . S
C30 H52 0.950 . S
C31 N27 1.332 . S
C31 C30 1.382 . S
C31 H33 0.952 1_556 S
C32 N27 1.332 1_455 S
C32 C28 1.382 1_455 S
C32 H34 0.948 . S
H33 C31 0.952 1_554 S
H34 C32 0.948 . S
H35 C24 0.952 . S
H36 C26 0.948 . S
C37 C3 1.395 . S
C37 C7 1.391 . S
C38 C0 1.389 . S
C38 C20 1.392 1_655 S
C39 C10 1.392 . S
C39 C12 1.389 . S
C40 C15 1.395 . S
C40 C17 1.391 . S
H41 C1 0.951 . S
H42 C2 0.950 . S
H43 C8 0.949 . S
H44 C9 0.950 . S
H45 C13 0.951 . S
H46 C14 0.950 1_556 S
H47 C18 0.949 . S
H48 C19 0.950 . S
H49 C23 0.950 . S
H50 C25 0.950 . S
H51 C28 0.952 1_455 S
H52 C30 0.950 . S
C53 C54 1.443 . S
C53 N57 1.376 . S
C53 C91 1.389 . S
C54 C53 1.443 . S
C54 C55 1.340 1_545 S
C54 H94 0.951 . S
C55 C54 1.340 1_565 S
C55 C56 1.439 . S
C55 H95 0.950 . S
C56 C55 1.439 . S
C56 N57 1.374 1_565 S
C56 C90 1.395 . S
N57 C53 1.376 . S
N57 C56 1.374 1_545 S
N57 Co58 2.008 . S
Co58 N57 2.008 . S
Co58 N59 1.995 1_545 S
Co58 N64 2.008 . S
Co58 N69 1.995 . S
Co58 N74 2.282 1_545 S
Co58 N80 2.282 . S
N59 Co58 1.995 1_565 S
N59 C60 1.376 . S
N59 C63 1.383 . S
C60 N59 1.376 . S
C60 C61 1.446 . S
C60 C90 1.391 . S
C61 C60 1.446 . S
C61 C62 1.339 . S
C61 H96 0.949 . S
C62 C61 1.339 . S
C62 C63 1.439 . S
C62 H97 0.950 . S
C63 N59 1.383 . S
C63 C62 1.439 . S
C63 C92 1.392 . S
N64 Co58 2.008 . S
N64 C65 1.376 . S
N64 C68 1.374 . S
C65 N64 1.376 . S
C65 C66 1.443 . S
C65 C92 1.389 1_545 S
C66 C65 1.443 . S
C66 C67 1.340 . S
C66 H98 0.951 . S
C67 C66 1.340 . S
C67 C68 1.439 . S
C67 H99 0.950 . S
C68 N64 1.374 . S
C68 C67 1.439 . S
C68 C93 1.395 . S
N69 Co58 1.995 . S
N69 C70 1.376 . S
N69 C73 1.383 . S
C70 N69 1.376 . S
C70 C71 1.446 . S
C70 C93 1.391 . S
C71 C70 1.446 . S
C71 C72 1.339 . S
C71 H100 0.949 . S
C72 C71 1.339 . S
C72 C73 1.439 . S
C72 H101 0.950 . S
C73 N69 1.383 . S
C73 C72 1.439 . S
C73 C91 1.392 . S
N74 Co58 2.282 1_565 S
N74 C77 1.332 1_565 S
N74 C79 1.332 . S
C75 C76 1.386 . S
C75 C78 1.388 . S
C76 C75 1.386 . S
C76 C77 1.382 1_565 S
C76 H102 0.950 1_565 S
C77 N74 1.332 1_545 S
C77 C76 1.382 1_545 S
C77 H88 0.952 . S
C78 C75 1.388 . S
C78 C79 1.382 . S
C78 H103 0.950 . S
C79 N74 1.332 . S
C79 C78 1.382 . S
C79 H89 0.948 . S
N80 Co58 2.282 . S
N80 C84 1.332 . S
N80 C85 1.332 . S
C81 C82 1.388 . S
C81 C85 1.382 . S
C81 H104 0.950 . S
C82 C81 1.388 . S
C82 C83 1.386 . S
C83 C82 1.386 . S
C83 C84 1.382 . S
C83 H105 0.950 . S
C84 N80 1.332 . S
C84 C83 1.382 . S
C84 H86 0.952 . S
C85 N80 1.332 . S
C85 C81 1.382 . S
C85 H87 0.948 . S
H86 C84 0.952 . S
H87 C85 0.948 . S
H88 C77 0.952 . S
H89 C79 0.948 . S
C90 C56 1.395 . S
C90 C60 1.391 . S
C91 C53 1.389 . S
C91 C73 1.392 . S
C92 C63 1.392 . S
C92 C65 1.389 1_565 S
C93 C68 1.395 . S
C93 C70 1.391 . S
H94 C54 0.951 . S
H95 C55 0.950 . S
H96 C61 0.949 . S
H97 C62 0.950 . S
H98 C66 0.951 . S
H99 C67 0.950 . S
H100 C71 0.949 . S
H101 C72 0.950 . S
H102 C76 0.950 1_545 S
H103 C78 0.950 . S
H104 C81 0.950 . S
H105 C83 0.950 . S
C106 C107 1.443 . S
C106 N110 1.376 . S
C106 C144 1.389 . S
C107 C106 1.443 . S
C107 C108 1.340 . S
C107 H147 0.951 . S
C108 C107 1.340 . S
C108 C109 1.439 . S
C108 H148 0.950 . S
C109 C108 1.439 . S
C109 N110 1.374 . S
C109 C143 1.395 . S
N110 C106 1.376 . S
N110 C109 1.374 . S
N110 Co111 2.008 1_556 S
Co111 N110 2.008 1_554 S
Co111 N112 1.995 . S
Co111 N117 2.008 . S
Co111 N122 1.995 . S
Co111 N127 2.282 . S
Co111 N133 2.282 1_554 S
N112 Co111 1.995 . S
N112 C113 1.376 1_554 S
N112 C116 1.383 . S
C113 N112 1.376 1_556 S
C113 C114 1.457 . S
C113 C143 1.391 . S
C114 C113 1.457 . S
C114 C115 1.304 1_556 S
C114 H149 0.970 . S
C115 C114 1.304 1_554 S
C115 C116 1.439 . S
C115 H150 0.950 . S
C116 N112 1.383 . S
C116 C115 1.439 . S
C116 C145 1.392 . S
N117 Co111 2.008 . S
N117 C118 1.376 . S
N117 C121 1.374 . S
C118 N117 1.376 . S
C118 C119 1.443 . S
C118 C145 1.389 . S
C119 C118 1.443 . S
C119 C120 1.340 . S
C119 H151 0.951 . S
C120 C119 1.340 . S
C120 C121 1.439 . S
C120 H152 0.950 . S
C121 N117 1.374 . S
C121 C120 1.439 . S
C121 C146 1.395 . S
N122 Co111 1.995 . S
N122 C123 1.376 . S
N122 C126 1.383 1_554 S
C123 N122 1.376 . S
C123 C124 1.446 . S
C123 C146 1.391 . S
C124 C123 1.446 . S
C124 C125 1.364 . S
C124 H153 0.949 . S
C125 C124 1.364 . S
C125 C126 1.432 1_554 S
C125 H154 0.934 1_554 S
C126 N122 1.383 1_556 S
C126 C125 1.432 1_556 S
C126 C144 1.392 . S
N127 Co111 2.282 . S
N127 C130 1.332 . S
N127 C132 1.332 . S
C128 C129 1.386 . S
C128 C131 1.388 . S
C129 C128 1.386 . S
C129 C130 1.382 . S
C129 H155 0.950 . S
C130 N127 1.332 . S
C130 C129 1.382 . S
C130 H141 0.952 . S
C131 C128 1.388 . S
C131 C132 1.382 . S
C131 H156 0.950 . S
C132 N127 1.332 . S
C132 C131 1.382 . S
C132 H142 0.948 . S
N133 Co111 2.282 1_556 S
N133 C137 1.332 . S
N133 C138 1.332 . S
C134 C135 1.388 . S
C134 C138 1.382 . S
C134 H157 0.950 . S
C135 C134 1.388 . S
C135 C136 1.386 . S
C136 C135 1.386 . S
C136 C137 1.382 . S
C136 H158 0.950 . S
C137 N133 1.332 . S
C137 C136 1.382 . S
C137 H139 0.952 . S
C138 N133 1.332 . S
C138 C134 1.382 . S
C138 H140 0.931 1_556 S
H139 C137 0.952 . S
H140 C138 0.931 1_554 S
H141 C130 0.952 . S
H142 C132 0.948 . S
C143 C109 1.395 . S
C143 C113 1.391 . S
C144 C106 1.389 . S
C144 C126 1.392 . S
C145 C116 1.392 . S
C145 C118 1.389 . S
C146 C121 1.395 . S
C146 C123 1.391 . S
H147 C107 0.951 . S
H148 C108 0.950 . S
H149 C114 0.970 . S
H150 C115 0.950 . S
H151 C119 0.951 . S
H152 C120 0.950 . S
H153 C124 0.949 . S
H154 C125 0.934 1_556 S
H155 C129 0.950 . S
H156 C131 0.950 . S
H157 C134 0.950 . S
H158 C136 0.950 . S
C159 C160 1.443 . S
C159 N163 1.376 . S
C159 C197 1.389 . S
C160 C159 1.443 . S
C160 C161 1.340 . S
C160 H200 0.951 . S
C161 C160 1.340 . S
C161 C162 1.439 . S
C161 H201 0.950 . S
C162 C161 1.439 . S
C162 N163 1.374 . S
C162 C196 1.395 . S
N163 C159 1.376 . S
N163 C162 1.374 . S
N163 Co164 2.008 1_655 S
Co164 N163 2.008 1_455 S
Co164 N165 1.995 1_455 S
Co164 N170 2.008 . S
Co164 N175 1.995 . S
Co164 N180 2.282 . S
Co164 N186 2.282 1_455 S
N165 Co164 1.995 1_655 S
N165 C166 1.376 . S
N165 C169 1.383 1_655 S
C166 N165 1.376 . S
C166 C167 1.446 . S
C166 C196 1.391 . S
C167 C166 1.446 . S
C167 C168 1.339 . S
C167 H202 0.949 . S
C168 C167 1.339 . S
C168 C169 1.439 1_655 S
C168 H203 0.950 1_655 S
C169 N165 1.383 1_455 S
C169 C168 1.439 1_455 S
C169 C198 1.392 . S
N170 Co164 2.008 . S
N170 C171 1.376 . S
N170 C174 1.374 . S
C171 N170 1.376 . S
C171 C172 1.443 . S
C171 C198 1.389 . S
C172 C171 1.443 . S
C172 C173 1.340 . S
C172 H204 0.951 . S
C173 C172 1.340 . S
C173 C174 1.439 . S
C173 H205 0.950 . S
C174 N170 1.374 . S
C174 C173 1.439 . S
C174 C199 1.395 . S
N175 Co164 1.995 . S
N175 C176 1.376 . S
N175 C179 1.383 1_455 S
C176 N175 1.376 . S
C176 C177 1.446 . S
C176 C199 1.391 . S
C177 C176 1.446 . S
C177 C178 1.339 . S
C177 H206 0.949 . S
C178 C177 1.339 . S
C178 C179 1.439 1_455 S
C178 H207 0.950 . S
C179 N175 1.383 1_655 S
C179 C178 1.439 1_655 S
C179 C197 1.392 . S
N180 Co164 2.282 . S
N180 C183 1.332 . S
N180 C185 1.332 . S
C181 C182 1.386 . S
C181 C184 1.388 . S
C182 C181 1.386 . S
C182 C183 1.382 . S
C182 H208 0.950 . S
C183 N180 1.332 . S
C183 C182 1.382 . S
C183 H194 0.952 . S
C184 C181 1.388 . S
C184 C185 1.382 . S
C184 H209 0.950 . S
C185 N180 1.332 . S
C185 C184 1.382 . S
C185 H195 0.948 1_455 S
N186 Co164 2.282 1_655 S
N186 C190 1.332 . S
N186 C191 1.332 . S
C187 C188 1.388 . S
C187 C191 1.382 . S
C187 H210 0.950 . S
C188 C187 1.388 . S
C188 C189 1.386 . S
C189 C188 1.386 . S
C189 C190 1.382 . S
C189 H211 0.950 . S
C190 N186 1.332 . S
C190 C189 1.382 . S
C190 H192 0.952 . S
C191 N186 1.332 . S
C191 C187 1.382 . S
C191 H193 0.948 1_655 S
H192 C190 0.952 . S
H193 C191 0.948 1_455 S
H194 C183 0.952 . S
H195 C185 0.948 1_655 S
C196 C162 1.395 . S
C196 C166 1.391 . S
C197 C159 1.389 . S
C197 C179 1.392 . S
C198 C169 1.392 . S
C198 C171 1.389 . S
C199 C174 1.395 . S
C199 C176 1.391 . S
H200 C160 0.951 . S
H201 C161 0.950 . S
H202 C167 0.949 . S
H203 C168 0.950 1_455 S
H204 C172 0.951 . S
H205 C173 0.950 . S
H206 C177 0.949 . S
H207 C178 0.950 . S
H208 C182 0.950 . S
H209 C184 0.950 . S
H210 C187 0.950 . S
H211 C189 0.950 . S
C212 C213 1.443 1_565 S
C212 N216 1.376 1_565 S
C212 C250 1.389 . S
C213 C212 1.443 1_545 S
C213 C214 1.340 . S
C213 H253 0.951 1_545 S
C214 C213 1.340 . S
C214 C215 1.439 . S
C214 H254 0.950 . S
C215 C214 1.439 . S
C215 N216 1.374 . S
C215 C249 1.395 . S
N216 C212 1.376 1_545 S
N216 C215 1.374 . S
N216 Co217 2.008 . S
Co217 N216 2.008 . S
Co217 N218 1.995 . S
Co217 N223 2.008 1_544 S
Co217 N228 1.995 1_545 S
Co217 N233 2.282 1_554 S
Co217 N239 2.282 1_545 S
N218 Co217 1.995 . S
N218 C219 1.376 . S
N218 C222 1.383 1_554 S
C219 N218 1.376 . S
C219 C220 1.446 . S
C219 C249 1.391 . S
C220 C219 1.446 . S
C220 C221 1.339 1_554 S
C220 H255 0.949 . S
C221 C220 1.339 1_556 S
C221 C222 1.439 . S
C221 H256 0.950 . S
C222 N218 1.383 1_556 S
C222 C221 1.439 . S
C222 C251 1.392 . S
N223 Co217 2.008 1_566 S
N223 C224 1.376 1_565 S
N223 C227 1.374 . S
C224 N223 1.376 1_545 S
C224 C225 1.443 1_545 S
C224 C251 1.389 . S
C225 C224 1.443 1_565 S
C225 C226 1.340 . S
C225 H257 0.951 1_565 S
C226 C225 1.340 . S
C226 C227 1.439 . S
C226 H258 0.950 . S
C227 N223 1.374 . S
C227 C226 1.439 . S
C227 C252 1.395 . S
N228 Co217 1.995 1_565 S
N228 C229 1.376 1_554 S
N228 C232 1.383 . S
C229 N228 1.376 1_556 S
C229 C230 1.446 1_556 S
C229 C252 1.391 . S
C230 C229 1.446 1_554 S
C230 C231 1.339 . S
C230 H259 0.949 1_554 S
C231 C230 1.339 . S
C231 C232 1.439 . S
C231 H260 0.950 . S
C232 N228 1.383 . S
C232 C231 1.439 . S
C232 C250 1.392 . S
N233 Co217 2.282 1_556 S
N233 C236 1.332 . S
N233 C238 1.332 . S
C234 C235 1.386 . S
C234 C237 1.388 . S
C235 C234 1.386 . S
C235 C236 1.382 . S
C235 H261 0.950 . S
C236 N233 1.332 . S
C236 C235 1.382 . S
C236 H247 0.952 1_545 S
C237 C234 1.388 . S
C237 C238 1.382 . S
C237 H262 0.950 . S
C238 N233 1.332 . S
C238 C237 1.382 . S
C238 H248 0.948 . S
N239 Co217 2.282 1_565 S
N239 C243 1.332 . S
N239 C244 1.332 . S
C240 C241 1.388 . S
C240 C244 1.382 . S
C240 H263 0.950 . S
C241 C240 1.388 . S
C241 C242 1.386 . S
C242 C241 1.386 . S
C242 C243 1.382 . S
C242 H264 0.950 . S
C243 N239 1.332 . S
C243 C242 1.382 . S
C243 H245 0.952 1_565 S
C244 N239 1.332 . S
C244 C240 1.382 . S
C244 H246 0.948 . S
H245 C243 0.952 1_545 S
H246 C244 0.948 . S
H247 C236 0.952 1_565 S
H248 C238 0.948 . S
C249 C215 1.395 . S
C249 C219 1.391 . S
C250 C212 1.389 . S
C250 C232 1.392 . S
C251 C222 1.392 . S
C251 C224 1.389 . S
C252 C227 1.395 . S
C252 C229 1.391 . S
H253 C213 0.951 1_565 S
H254 C214 0.950 . S
H255 C220 0.949 . S
H256 C221 0.950 . S
H257 C225 0.951 1_545 S
H258 C226 0.950 . S
H259 C230 0.949 1_556 S
H260 C231 0.950 . S
H261 C235 0.950 . S
H262 C237 0.950 . S
H263 C240 0.950 . S
H264 C242 0.950 . S
C265 C266 1.443 . S
C265 N269 1.376 . S
C265 C303 1.389 . S
C266 C265 1.443 . S
C266 C267 1.340 . S
C266 H306 0.951 . S
C267 C266 1.340 . S
C267 C268 1.439 . S
C267 H307 0.950 . S
C268 C267 1.439 . S
C268 N269 1.374 . S
C268 C302 1.395 . S
N269 C265 1.376 . S
N269 C268 1.374 . S
N269 Co270 2.008 . S
Co270 N269 2.008 . S
Co270 N271 1.995 . S
Co270 N276 2.008 . S
Co270 N281 1.995 . S
Co270 N286 2.282 . S
Co270 N292 2.282 . S
N271 Co270 1.995 . S
N271 C272 1.376 . S
N271 C275 1.383 . S
C272 N271 1.376 . S
C272 C273 1.446 . S
C272 C302 1.391 . S
C273 C272 1.446 . S
C273 C274 1.339 . S
C273 H308 0.949 . S
C274 C273 1.339 . S
C274 C275 1.439 . S
C274 H309 0.950 . S
C275 N271 1.383 . S
C275 C274 1.439 . S
C275 C304 1.392 . S
N276 Co270 2.008 . S
N276 C277 1.376 . S
N276 C280 1.374 . S
C277 N276 1.376 . S
C277 C278 1.443 . S
C277 C304 1.389 . S
C278 C277 1.443 . S
C278 C279 1.340 . S
C278 H310 0.951 . S
C279 C278 1.340 . S
C279 C280 1.439 . S
C279 H311 0.950 . S
C280 N276 1.374 . S
C280 C279 1.439 . S
C280 C305 1.395 . S
N281 Co270 1.995 . S
N281 C282 1.376 . S
N281 C285 1.383 . S
C282 N281 1.376 . S
C282 C283 1.446 . S
C282 C305 1.391 . S
C283 C282 1.446 . S
C283 C284 1.339 . S
C283 H312 0.949 . S
C284 C283 1.339 . S
C284 C285 1.439 . S
C284 H313 0.950 . S
C285 N281 1.383 . S
C285 C284 1.439 . S
C285 C303 1.392 . S
N286 Co270 2.282 . S
N286 C289 1.332 . S
N286 C291 1.332 . S
C287 C288 1.386 . S
C287 C290 1.388 . S
C288 C287 1.386 . S
C288 C289 1.382 . S
C288 H314 0.950 . S
C289 N286 1.332 . S
C289 C288 1.382 . S
C289 H300 0.952 . S
C290 C287 1.388 . S
C290 C291 1.382 . S
C290 H315 0.950 . S
C291 N286 1.332 . S
C291 C290 1.382 . S
C291 H301 0.948 . S
N292 Co270 2.282 . S
N292 C296 1.332 . S
N292 C297 1.332 . S
C293 C294 1.388 . S
C293 C297 1.382 . S
C293 H316 0.950 . S
C294 C293 1.388 . S
C294 C295 1.386 . S
C295 C294 1.386 . S
C295 C296 1.382 . S
C295 H317 0.950 . S
C296 N292 1.332 . S
C296 C295 1.382 . S
C296 H298 0.952 . S
C297 N292 1.332 . S
C297 C293 1.382 . S
C297 H299 0.948 . S
H298 C296 0.952 . S
H299 C297 0.948 . S
H300 C289 0.952 . S
H301 C291 0.948 . S
C302 C268 1.395 . S
C302 C272 1.391 . S
C303 C265 1.389 . S
C303 C285 1.392 . S
C304 C275 1.392 . S
C304 C277 1.389 . S
C305 C280 1.395 . S
C305 C282 1.391 . S
H306 C266 0.951 . S
H307 C267 0.950 . S
H308 C273 0.949 . S
H309 C274 0.950 . S
H310 C278 0.951 . S
H311 C279 0.950 . S
H312 C283 0.949 . S
H313 C284 0.950 . S
H314 C288 0.950 . S
H315 C290 0.950 . S
H316 C293 0.950 . S
H317 C295 0.950 . S
Mg318 O325 2.141 . S
Mg318 O326 2.048 . S
Mg318 O327 2.048 . S
Mg318 O330 2.141 . S
C319 O320 1.313 . S
C319 O326 1.195 . S
O320 C319 1.313 . S
C321 O322 1.245 . S
C321 O330 1.289 . S
O322 C321 1.245 . S
C323 O324 1.245 . S
C323 O325 1.289 . S
O324 C323 1.245 . S
O325 Mg318 2.141 . S
O325 C323 1.289 . S
O326 Mg318 2.048 . S
O326 C319 1.195 . S
O327 Mg318 2.048 . S
O327 C328 1.195 . S
C328 O327 1.195 . S
C328 O329 1.313 . S
O329 C328 1.313 . S
O330 Mg318 2.141 . S
O330 C321 1.289 . S
Mg331 O338 2.141 . S
Mg331 O339 2.048 . S
Mg331 O340 2.048 . S
Mg331 O343 2.141 . S
C332 O333 1.313 . S
C332 O339 1.195 . S
O333 C332 1.313 . S
C334 O335 1.245 . S
C334 O343 1.289 . S
O335 C334 1.245 . S
C336 O337 1.245 . S
C336 O338 1.289 . S
O337 C336 1.245 . S
O338 Mg331 2.141 . S
O338 C336 1.289 . S
O339 Mg331 2.048 . S
O339 C332 1.195 . S
O340 Mg331 2.048 . S
O340 C341 1.195 . S
C341 O340 1.195 . S
C341 O342 1.313 . S
O342 C341 1.313 . S
O343 Mg331 2.141 . S
O343 C334 1.289 . S
Mg344 O351 2.141 . S
Mg344 O352 2.048 . S
Mg344 O353 2.048 . S
Mg344 O356 2.141 . S
C345 O346 1.313 . S
C345 O352 1.195 . S
O346 C345 1.313 . S
C347 O348 1.245 . S
C347 O356 1.289 . S
O348 C347 1.245 . S
C349 O350 1.245 . S
C349 O351 1.289 . S
O350 C349 1.245 . S
O351 Mg344 2.141 . S
O351 C349 1.289 . S
O352 Mg344 2.048 . S
O352 C345 1.195 . S
O353 Mg344 2.048 . S
O353 C354 1.195 . S
C354 O353 1.195 . S
C354 O355 1.313 . S
O355 C354 1.313 . S
O356 Mg344 2.141 . S
O356 C347 1.289 . S
Mg357 O364 2.141 . S
Mg357 O365 2.048 . S
Mg357 O366 2.048 . S
Mg357 O369 2.141 . S
C358 O359 1.313 . S
C358 O365 1.195 . S
O359 C358 1.313 . S
C360 O361 1.245 . S
C360 O369 1.289 . S
O361 C360 1.245 . S
C362 O363 1.245 . S
C362 O364 1.289 . S
O363 C362 1.245 . S
O364 Mg357 2.141 . S
O364 C362 1.289 . S
O365 Mg357 2.048 . S
O365 C358 1.195 . S
O366 Mg357 2.048 . S
O366 C367 1.195 . S
C367 O366 1.195 . S
C367 O368 1.313 . S
O368 C367 1.313 . S
O369 Mg357 2.141 . S
O369 C360 1.289 . S
Mg370 O377 2.141 . S
Mg370 O378 2.048 . S
Mg370 O379 2.048 . S
Mg370 O382 2.141 . S
C371 O372 1.313 . S
C371 O378 1.195 . S
O372 C371 1.313 . S
C373 O374 1.245 . S
C373 O382 1.289 . S
O374 C373 1.245 . S
C375 O376 1.245 . S
C375 O377 1.289 . S
O376 C375 1.245 . S
O377 Mg370 2.141 . S
O377 C375 1.289 . S
O378 Mg370 2.048 . S
O378 C371 1.195 . S
O379 Mg370 2.048 . S
O379 C380 1.195 . S
C380 O379 1.195 . S
C380 O381 1.313 . S
O381 C380 1.313 . S
O382 Mg370 2.141 . S
O382 C373 1.289 . S
Mg383 O390 2.141 . S
Mg383 O391 2.048 . S
Mg383 O392 2.048 . S
Mg383 O395 2.141 . S
C384 O385 1.313 . S
C384 O391 1.195 . S
O385 C384 1.313 . S
C386 O387 1.245 . S
C386 O395 1.289 . S
O387 C386 1.245 . S
C388 O389 1.245 . S
C388 O390 1.289 . S
O389 C388 1.245 . S
O390 Mg383 2.141 . S
O390 C388 1.289 . S
O391 Mg383 2.048 . S
O391 C384 1.195 . S
O392 Mg383 2.048 . S
O392 C393 1.195 . S
C393 O392 1.195 . S
C393 O394 1.313 . S
O394 C393 1.313 . S
O395 Mg383 2.141 . S
O395 C386 1.289 . S
H396 C414 0.951 . S
H397 C416 0.951 . S
H398 C418 0.950 . S
H399 C419 0.950 . S
H400 C421 0.950 . S
H401 C424 0.950 . S
H402 C425 0.950 . S
H403 C427 0.950 . S
H404 C428 0.950 . S
H405 C429 0.951 . S
H406 C431 0.951 . S
H407 C433 0.950 . S
H408 C434 0.950 . S
H409 C436 0.950 . S
H410 C439 0.950 . S
H411 C440 0.950 . S
H412 C442 0.950 . S
H413 C443 0.950 . S
C414 H396 0.951 . S
C414 C415 1.366 . S
C414 C416 1.388 . S
C415 C414 1.366 . S
C415 C419 1.385 . S
C416 H397 0.951 . S
C416 C414 1.388 . S
C416 C417 1.366 . S
C417 C416 1.366 . S
C417 C418 1.414 . S
C417 C420 1.499 . S
C418 H398 0.950 . S
C418 C417 1.414 . S
C418 C419 1.374 . S
C419 H399 0.950 . S
C419 C415 1.385 . S
C419 C418 1.374 . S
C420 C417 1.499 . S
C420 C421 1.373 . S
C420 C422 1.389 . S
C421 H400 0.950 . S
C421 C420 1.373 . S
C421 C437 1.377 . S
C422 C420 1.389 . S
C422 C423 1.524 . S
C422 C436 1.377 . S
C423 C422 1.524 . S
C423 C424 1.397 . S
C423 C428 1.363 . S
C424 H401 0.950 . S
C424 C423 1.397 . S
C424 C425 1.334 . S
C425 H402 0.950 . S
C425 C424 1.334 . S
C425 C426 1.287 . S
C426 C425 1.287 . S
C426 C427 1.524 . S
C426 H445 0.913 . S
C427 H403 0.950 . S
C427 C426 1.524 . S
C427 C428 1.415 . S
C428 H404 0.950 . S
C428 C423 1.363 . S
C428 C427 1.415 . S
C429 H405 0.951 . S
C429 C430 1.366 . S
C429 C431 1.388 . S
C430 C429 1.366 . S
C430 C434 1.385 . S
C431 H406 0.951 . S
C431 C429 1.388 . S
C431 C432 1.366 . S
C432 C431 1.366 . S
C432 C433 1.414 . S
C432 C435 1.499 . S
C433 H407 0.950 . S
C433 C432 1.414 . S
C433 C434 1.374 . S
C434 H408 0.950 . S
C434 C430 1.385 . S
C434 C433 1.374 . S
C435 C432 1.499 . S
C435 C436 1.373 . S
C435 C437 1.389 . S
C436 H409 0.950 . S
C436 C422 1.377 . S
C436 C435 1.373 . S
C437 C421 1.377 . S
C437 C435 1.389 . S
C437 C438 1.524 . S
C438 C437 1.524 . S
C438 C439 1.397 . S
C438 C443 1.363 . S
C439 H410 0.950 . S
C439 C438 1.397 . S
C439 C440 1.334 . S
C440 H411 0.950 . S
C440 C439 1.334 . S
C440 C441 1.287 . S
C441 C440 1.287 . S
C441 C442 1.524 . S
C441 H444 0.999 . S
C442 H412 0.950 . S
C442 C441 1.524 . S
C442 C443 1.415 . S
C443 H413 0.950 . S
C443 C438 1.363 . S
C443 C442 1.415 . S
H444 C441 0.999 . S
H445 C426 0.913 . S
H446 C464 0.951 . S
H447 C466 0.951 . S
H448 C468 0.950 . S
H449 C469 0.950 . S
H450 C471 0.950 . S
H451 C474 0.950 . S
H452 C475 0.950 . S
H453 C477 0.950 . S
H454 C478 0.950 . S
H455 C479 0.951 . S
H456 C481 0.951 . S
H457 C483 0.950 . S
H458 C484 0.950 . S
H459 C486 0.950 . S
H460 C489 0.950 . S
H461 C490 0.950 . S
H462 C492 0.950 . S
H463 C493 0.950 . S
C464 H446 0.951 . S
C464 C465 1.366 . S
C464 C466 1.388 . S
C465 C464 1.366 . S
C465 C469 1.385 . S
C466 H447 0.951 . S
C466 C464 1.388 . S
C466 C467 1.366 . S
C467 C466 1.366 . S
C467 C468 1.414 . S
C467 C470 1.499 . S
C468 H448 0.950 . S
C468 C467 1.414 . S
C468 C469 1.374 . S
C469 H449 0.950 . S
C469 C465 1.385 . S
C469 C468 1.374 . S
C470 C467 1.499 . S
C470 C471 1.373 . S
C470 C472 1.389 . S
C471 H450 0.950 . S
C471 C470 1.373 . S
C471 C487 1.377 . S
C472 C470 1.389 . S
C472 C473 1.524 . S
C472 C486 1.377 . S
C473 C472 1.524 . S
C473 C474 1.397 . S
C473 C478 1.363 . S
C474 H451 0.950 . S
C474 C473 1.397 . S
C474 C475 1.334 . S
C475 H452 0.950 . S
C475 C474 1.334 . S
C475 C476 1.287 . S
C476 C475 1.287 . S
C476 C477 1.524 . S
C476 H495 0.913 . S
C477 H453 0.950 . S
C477 C476 1.524 . S
C477 C478 1.415 . S
C478 H454 0.950 . S
C478 C473 1.363 . S
C478 C477 1.415 . S
C479 H455 0.951 . S
C479 C480 1.366 . S
C479 C481 1.388 . S
C480 C479 1.366 . S
C480 C484 1.385 . S
C481 H456 0.951 . S
C481 C479 1.388 . S
C481 C482 1.366 . S
C482 C481 1.366 . S
C482 C483 1.414 . S
C482 C485 1.499 . S
C483 H457 0.950 . S
C483 C482 1.414 . S
C483 C484 1.374 . S
C484 H458 0.950 . S
C484 C480 1.385 . S
C484 C483 1.374 . S
C485 C482 1.499 . S
C485 C486 1.373 . S
C485 C487 1.389 . S
C486 H459 0.950 . S
C486 C472 1.377 . S
C486 C485 1.373 . S
C487 C471 1.377 . S
C487 C485 1.389 . S
C487 C488 1.524 . S
C488 C487 1.524 . S
C488 C489 1.397 . S
C488 C493 1.363 . S
C489 H460 0.950 . S
C489 C488 1.397 . S
C489 C490 1.334 . S
C490 H461 0.950 . S
C490 C489 1.334 . S
C490 C491 1.287 . S
C491 C490 1.287 . S
C491 C492 1.524 . S
C491 H494 0.999 . S
C492 H462 0.950 . S
C492 C491 1.524 . S
C492 C493 1.415 . S
C493 H463 0.950 . S
C493 C488 1.363 . S
C493 C492 1.415 . S
H494 C491 0.999 . S
H495 C476 0.913 . S
H496 C514 0.951 . S
H497 C516 0.951 . S
H498 C518 0.950 . S
H499 C519 0.950 . S
H500 C521 0.950 . S
H501 C524 0.950 . S
H502 C525 0.950 . S
H503 C527 0.950 . S
H504 C528 0.950 . S
H505 C529 0.951 . S
H506 C531 0.951 . S
H507 C533 0.950 . S
H508 C534 0.950 . S
H509 C536 0.950 . S
H510 C539 0.950 . S
H511 C540 0.950 . S
H512 C542 0.950 . S
H513 C543 0.950 . S
C514 H496 0.951 . S
C514 C515 1.366 . S
C514 C516 1.388 . S
C515 C514 1.366 . S
C515 C519 1.385 . S
C516 H497 0.951 . S
C516 C514 1.388 . S
C516 C517 1.366 . S
C517 C516 1.366 . S
C517 C518 1.414 . S
C517 C520 1.499 . S
C518 H498 0.950 . S
C518 C517 1.414 . S
C518 C519 1.374 . S
C519 H499 0.950 . S
C519 C515 1.385 . S
C519 C518 1.374 . S
C520 C517 1.499 . S
C520 C521 1.373 . S
C520 C522 1.389 . S
C521 H500 0.950 . S
C521 C520 1.373 . S
C521 C537 1.377 . S
C522 C520 1.389 . S
C522 C523 1.524 . S
C522 C536 1.377 . S
C523 C522 1.524 . S
C523 C524 1.397 . S
C523 C528 1.363 . S
C524 H501 0.950 . S
C524 C523 1.397 . S
C524 C525 1.334 . S
C525 H502 0.950 . S
C525 C524 1.334 . S
C525 C526 1.287 . S
C526 C525 1.287 . S
C526 C527 1.524 . S
C526 H545 0.913 . S
C527 H503 0.950 . S
C527 C526 1.524 . S
C527 C528 1.415 . S
C528 H504 0.950 . S
C528 C523 1.363 . S
C528 C527 1.415 . S
C529 H505 0.951 . S
C529 C530 1.366 . S
C529 C531 1.388 . S
C530 C529 1.366 . S
C530 C534 1.385 . S
C531 H506 0.951 . S
C531 C529 1.388 . S
C531 C532 1.366 . S
C532 C531 1.366 . S
C532 C533 1.414 . S
C532 C535 1.499 . S
C533 H507 0.950 . S
C533 C532 1.414 . S
C533 C534 1.374 . S
C534 H508 0.950 . S
C534 C530 1.385 . S
C534 C533 1.374 . S
C535 C532 1.499 . S
C535 C536 1.373 . S
C535 C537 1.389 . S
C536 H509 0.950 . S
C536 C522 1.377 . S
C536 C535 1.373 . S
C537 C521 1.377 . S
C537 C535 1.389 . S
C537 C538 1.524 . S
C538 C537 1.524 . S
C538 C539 1.397 . S
C538 C543 1.363 . S
C539 H510 0.950 . S
C539 C538 1.397 . S
C539 C540 1.334 . S
C540 H511 0.950 . S
C540 C539 1.334 . S
C540 C541 1.287 . S
C541 C540 1.287 . S
C541 C542 1.524 . S
C541 H544 0.999 . S
C542 H512 0.950 . S
C542 C541 1.524 . S
C542 C543 1.415 . S
C543 H513 0.950 . S
C543 C538 1.363 . S
C543 C542 1.415 . S
H544 C541 0.999 . S
H545 C526 0.913 . S
H546 C564 0.951 . S
H547 C566 0.951 . S
H548 C568 0.950 . S
H549 C569 0.950 . S
H550 C571 0.950 . S
H551 C574 0.950 . S
H552 C575 0.950 . S
H553 C577 0.950 . S
H554 C578 0.950 . S
H555 C579 0.951 . S
H556 C581 0.951 . S
H557 C583 0.950 . S
H558 C584 0.950 . S
H559 C586 0.950 . S
H560 C589 0.950 . S
H561 C590 0.950 . S
H562 C592 0.956 . S
H563 C593 0.950 . S
C564 H546 0.951 . S
C564 C565 1.366 . S
C564 C566 1.388 . S
C565 C564 1.366 . S
C565 C569 1.385 . S
C566 H547 0.951 . S
C566 C564 1.388 . S
C566 C567 1.366 . S
C567 C566 1.366 . S
C567 C568 1.414 . S
C567 C570 1.499 . S
C568 H548 0.950 . S
C568 C567 1.414 . S
C568 C569 1.374 . S
C569 H549 0.950 . S
C569 C565 1.385 . S
C569 C568 1.374 . S
C570 C567 1.499 . S
C570 C571 1.373 . S
C570 C572 1.389 . S
C571 H550 0.950 . S
C571 C570 1.373 . S
C571 C587 1.377 . S
C572 C570 1.389 . S
C572 C573 1.524 . S
C572 C586 1.377 . S
C573 C572 1.524 . S
C573 C574 1.397 . S
C573 C578 1.363 . S
C574 H551 0.950 . S
C574 C573 1.397 . S
C574 C575 1.334 . S
C575 H552 0.950 . S
C575 C574 1.334 . S
C575 C576 1.287 . S
C576 C575 1.287 . S
C576 C577 1.524 . S
C576 H595 0.913 . S
C577 H553 0.950 . S
C577 C576 1.524 . S
C577 C578 1.415 . S
C578 H554 0.950 . S
C578 C573 1.363 . S
C578 C577 1.415 . S
C579 H555 0.951 . S
C579 C580 1.366 . S
C579 C581 1.388 . S
C580 C579 1.366 . S
C580 C584 1.385 . S
C581 H556 0.951 . S
C581 C579 1.388 . S
C581 C582 1.366 . S
C582 C581 1.366 . S
C582 C583 1.414 . S
C582 C585 1.499 . S
C583 H557 0.950 . S
C583 C582 1.414 . S
C583 C584 1.374 . S
C584 H558 0.950 . S
C584 C580 1.385 . S
C584 C583 1.374 . S
C585 C582 1.499 . S
C585 C586 1.373 . S
C585 C587 1.389 . S
C586 H559 0.950 . S
C586 C572 1.377 . S
C586 C585 1.373 . S
C587 C571 1.377 . S
C587 C585 1.389 . S
C587 C588 1.524 . S
C588 C587 1.524 . S
C588 C589 1.397 . S
C588 C593 1.363 . S
C589 H560 0.950 . S
C589 C588 1.397 . S
C589 C590 1.334 . S
C590 H561 0.950 . S
C590 C589 1.334 . S
C590 C591 1.287 . S
C591 C590 1.287 . S
C591 C592 1.524 . S
C591 H594 0.999 . S
C592 H562 0.956 . S
C592 C591 1.524 . S
C592 C593 1.415 . S
C593 H563 0.950 . S
C593 C588 1.363 . S
C593 C592 1.415 . S
H594 C591 0.999 . S
H595 C576 0.913 . S
H596 C614 0.951 . S
H597 C616 0.951 . S
H598 C618 0.950 . S
H599 C619 0.950 . S
H600 C621 0.950 . S
H601 C624 0.950 . S
H602 C625 0.950 1_545 S
H603 C627 0.950 . S
H604 C628 0.950 . S
H605 C629 0.951 . S
H606 C631 0.951 . S
H607 C633 0.950 . S
H608 C634 0.950 . S
H609 C636 0.950 . S
H610 C639 0.950 . S
H611 C640 0.950 . S
H612 C642 0.950 . S
H613 C643 0.950 . S
C614 H596 0.951 . S
C614 C615 1.366 . S
C614 C616 1.388 . S
C615 C614 1.366 . S
C615 C619 1.385 . S
C616 H597 0.951 . S
C616 C614 1.388 . S
C616 C617 1.366 . S
C617 C616 1.366 . S
C617 C618 1.414 . S
C617 C620 1.499 . S
C618 H598 0.950 . S
C618 C617 1.414 . S
C618 C619 1.374 . S
C619 H599 0.950 . S
C619 C615 1.385 . S
C619 C618 1.374 . S
C620 C617 1.499 . S
C620 C621 1.373 . S
C620 C622 1.389 . S
C621 H600 0.950 . S
C621 C620 1.373 . S
C621 C637 1.377 . S
C622 C620 1.389 . S
C622 C623 1.524 . S
C622 C636 1.377 . S
C623 C622 1.524 . S
C623 C624 1.397 . S
C623 C628 1.363 . S
C624 H601 0.950 . S
C624 C623 1.397 . S
C624 C625 1.334 . S
C625 H602 0.950 1_565 S
C625 C624 1.334 . S
C625 C626 1.287 1_565 S
C626 C625 1.287 1_545 S
C626 C627 1.524 . S
C626 H645 0.913 . S
C627 H603 0.950 . S
C627 C626 1.524 . S
C627 C628 1.415 1_545 S
C628 H604 0.950 . S
C628 C623 1.363 . S
C628 C627 1.415 1_565 S
C629 H605 0.951 . S
C629 C630 1.366 . S
C629 C631 1.388 . S
C630 C629 1.366 . S
C630 C634 1.385 . S
C631 H606 0.951 . S
C631 C629 1.388 . S
C631 C632 1.366 . S
C632 C631 1.366 . S
C632 C633 1.414 . S
C632 C635 1.499 . S
C633 H607 0.950 . S
C633 C632 1.414 . S
C633 C634 1.374 . S
C634 H608 0.950 . S
C634 C630 1.385 . S
C634 C633 1.374 . S
C635 C632 1.499 . S
C635 C636 1.373 . S
C635 C637 1.389 . S
C636 H609 0.950 . S
C636 C622 1.377 . S
C636 C635 1.373 . S
C637 C621 1.377 . S
C637 C635 1.389 . S
C637 C638 1.524 . S
C638 C637 1.524 . S
C638 C639 1.397 . S
C638 C643 1.363 . S
C639 H610 0.950 . S
C639 C638 1.397 . S
C639 C640 1.334 . S
C640 H611 0.950 . S
C640 C639 1.334 . S
C640 C641 1.287 . S
C641 C640 1.287 . S
C641 C642 1.524 . S
C641 H644 0.999 . S
C642 H612 0.950 . S
C642 C641 1.524 . S
C642 C643 1.415 . S
C643 H613 0.950 . S
C643 C638 1.363 . S
C643 C642 1.415 . S
H644 C641 0.999 . S
H645 C626 0.913 . S
H646 C664 0.951 . S
H647 C666 0.951 . S
H648 C668 0.950 . S
H649 C669 0.950 . S
H650 C671 0.950 . S
H651 C674 0.950 . S
H652 C675 0.950 . S
H653 C677 0.950 . S
H654 C678 0.950 . S
H655 C679 0.951 . S
H656 C681 0.951 . S
H657 C683 0.950 . S
H658 C684 0.950 . S
H659 C686 0.950 . S
H660 C689 0.950 . S
H661 C690 0.950 . S
H662 C692 0.950 . S
H663 C693 0.950 . S
C664 H646 0.951 . S
C664 C665 1.366 . S
C664 C666 1.388 . S
C665 C664 1.366 . S
C665 C669 1.385 . S
C666 H647 0.951 . S
C666 C664 1.388 . S
C666 C667 1.366 . S
C667 C666 1.366 . S
C667 C668 1.414 . S
C667 C670 1.499 . S
C668 H648 0.950 . S
C668 C667 1.414 . S
C668 C669 1.374 . S
C669 H649 0.950 . S
C669 C665 1.385 . S
C669 C668 1.374 . S
C670 C667 1.499 . S
C670 C671 1.373 . S
C670 C672 1.389 . S
C671 H650 0.950 . S
C671 C670 1.373 . S
C671 C687 1.377 . S
C672 C670 1.389 . S
C672 C673 1.524 . S
C672 C686 1.377 . S
C673 C672 1.524 . S
C673 C674 1.397 . S
C673 C678 1.363 . S
C674 H651 0.950 . S
C674 C673 1.397 . S
C674 C675 1.334 . S
C675 H652 0.950 . S
C675 C674 1.334 . S
C675 C676 1.287 . S
C676 C675 1.287 . S
C676 C677 1.524 . S
C676 H695 0.913 . S
C677 H653 0.950 . S
C677 C676 1.524 . S
C677 C678 1.415 . S
C678 H654 0.950 . S
C678 C673 1.363 . S
C678 C677 1.415 . S
C679 H655 0.951 . S
C679 C680 1.366 . S
C679 C681 1.388 . S
C680 C679 1.366 . S
C680 C684 1.385 . S
C681 H656 0.951 . S
C681 C679 1.388 . S
C681 C682 1.366 . S
C682 C681 1.366 . S
C682 C683 1.414 . S
C682 C685 1.499 . S
C683 H657 0.950 . S
C683 C682 1.414 . S
C683 C684 1.374 . S
C684 H658 0.950 . S
C684 C680 1.385 . S
C684 C683 1.374 . S
C685 C682 1.499 . S
C685 C686 1.373 . S
C685 C687 1.389 . S
C686 H659 0.950 . S
C686 C672 1.377 . S
C686 C685 1.373 . S
C687 C671 1.377 . S
C687 C685 1.389 . S
C687 C688 1.524 . S
C688 C687 1.524 . S
C688 C689 1.397 . S
C688 C693 1.363 . S
C689 H660 0.950 . S
C689 C688 1.397 . S
C689 C690 1.334 . S
C690 H661 0.950 . S
C690 C689 1.334 . S
C690 C691 1.287 . S
C691 C690 1.287 . S
C691 C692 1.524 . S
C691 H694 0.999 . S
C692 H662 0.950 . S
C692 C691 1.524 . S
C692 C693 1.415 . S
C693 H663 0.950 . S
C693 C688 1.363 . S
C693 C692 1.415 . S
H694 C691 0.999 . S
H695 C676 0.913 . S
H696 C714 0.951 . S
H697 C716 0.951 . S
H698 C718 0.950 . S
H699 C719 0.950 . S
H700 C721 0.950 . S
H701 C724 0.950 . S
H702 C725 0.950 . S
H703 C727 0.950 . S
H704 C728 0.950 . S
H705 C729 0.951 . S
H706 C731 0.951 . S
H707 C733 0.950 . S
H708 C734 0.950 . S
H709 C736 0.950 . S
H710 C739 0.950 . S
H711 C740 0.950 . S
H712 C742 0.950 . S
H713 C743 0.950 . S
C714 H696 0.951 . S
C714 C715 1.366 . S
C714 C716 1.388 . S
C715 C714 1.366 . S
C715 C719 1.385 . S
C716 H697 0.951 . S
C716 C714 1.388 . S
C716 C717 1.366 . S
C717 C716 1.366 . S
C717 C718 1.414 . S
C717 C720 1.499 . S
C718 H698 0.950 . S
C718 C717 1.414 . S
C718 C719 1.374 . S
C719 H699 0.950 . S
C719 C715 1.385 . S
C719 C718 1.374 . S
C720 C717 1.499 . S
C720 C721 1.373 . S
C720 C722 1.389 . S
C721 H700 0.950 . S
C721 C720 1.373 . S
C721 C737 1.377 . S
C722 C720 1.389 . S
C722 C723 1.524 . S
C722 C736 1.377 . S
C723 C722 1.524 . S
C723 C724 1.397 . S
C723 C728 1.363 . S
C724 H701 0.950 . S
C724 C723 1.397 . S
C724 C725 1.334 . S
C725 H702 0.950 . S
C725 C724 1.334 . S
C725 C726 1.287 . S
C726 C725 1.287 . S
C726 C727 1.524 . S
C726 H745 0.913 . S
C727 H703 0.950 . S
C727 C726 1.524 . S
C727 C728 1.415 . S
C728 H704 0.950 . S
C728 C723 1.363 . S
C728 C727 1.415 . S
C729 H705 0.951 . S
C729 C730 1.366 . S
C729 C731 1.388 . S
C730 C729 1.366 . S
C730 C734 1.385 . S
C731 H706 0.951 . S
C731 C729 1.388 . S
C731 C732 1.366 . S
C732 C731 1.366 . S
C732 C733 1.414 . S
C732 C735 1.499 . S
C733 H707 0.950 . S
C733 C732 1.414 . S
C733 C734 1.374 . S
C734 H708 0.950 . S
C734 C730 1.385 . S
C734 C733 1.374 . S
C735 C732 1.499 . S
C735 C736 1.373 . S
C735 C737 1.389 . S
C736 H709 0.950 . S
C736 C722 1.377 . S
C736 C735 1.373 . S
C737 C721 1.377 . S
C737 C735 1.389 . S
C737 C738 1.524 . S
C738 C737 1.524 . S
C738 C739 1.397 . S
C738 C743 1.363 . S
C739 H710 0.950 . S
C739 C738 1.397 . S
C739 C740 1.334 . S
C740 H711 0.950 . S
C740 C739 1.334 . S
C740 C741 1.287 . S
C741 C740 1.287 . S
C741 C742 1.524 . S
C741 H744 0.999 . S
C742 H712 0.950 . S
C742 C741 1.524 . S
C742 C743 1.415 . S
C743 H713 0.950 . S
C743 C738 1.363 . S
C743 C742 1.415 . S
H744 C741 0.999 . S
H745 C726 0.913 . S
H746 C764 0.951 . S
H747 C766 0.951 . S
H748 C768 0.950 . S
H749 C769 0.950 . S
H750 C771 0.950 . S
H751 C774 0.950 . S
H752 C775 0.950 . S
H753 C777 0.950 . S
H754 C778 0.950 . S
H755 C779 0.951 . S
H756 C781 0.951 . S
H757 C783 0.950 . S
H758 C784 0.950 . S
H759 C786 0.950 . S
H760 C789 0.950 . S
H761 C790 0.950 . S
H762 C792 0.950 . S
H763 C793 0.950 . S
C764 H746 0.951 . S
C764 C765 1.366 . S
C764 C766 1.388 . S
C765 C764 1.366 . S
C765 C769 1.385 . S
C766 H747 0.951 . S
C766 C764 1.388 . S
C766 C767 1.366 . S
C767 C766 1.366 . S
C767 C768 1.414 . S
C767 C770 1.499 . S
C768 H748 0.950 . S
C768 C767 1.414 . S
C768 C769 1.374 . S
C769 H749 0.950 . S
C769 C765 1.385 . S
C769 C768 1.374 . S
C770 C767 1.499 . S
C770 C771 1.373 . S
C770 C772 1.389 . S
C771 H750 0.950 . S
C771 C770 1.373 . S
C771 C787 1.377 . S
C772 C770 1.389 . S
C772 C773 1.524 . S
C772 C786 1.377 . S
C773 C772 1.524 . S
C773 C774 1.397 . S
C773 C778 1.363 . S
C774 H751 0.950 . S
C774 C773 1.397 . S
C774 C775 1.334 . S
C775 H752 0.950 . S
C775 C774 1.334 . S
C775 C776 1.287 . S
C776 C775 1.287 . S
C776 C777 1.524 . S
C776 H795 0.913 . S
C777 H753 0.950 . S
C777 C776 1.524 . S
C777 C778 1.415 . S
C778 H754 0.950 . S
C778 C773 1.363 . S
C778 C777 1.415 . S
C779 H755 0.951 . S
C779 C780 1.366 . S
C779 C781 1.388 . S
C780 C779 1.366 . S
C780 C784 1.385 . S
C781 H756 0.951 . S
C781 C779 1.388 . S
C781 C782 1.366 . S
C782 C781 1.366 . S
C782 C783 1.414 . S
C782 C785 1.499 . S
C783 H757 0.950 . S
C783 C782 1.414 . S
C783 C784 1.374 . S
C784 H758 0.950 . S
C784 C780 1.385 . S
C784 C783 1.374 . S
C785 C782 1.499 . S
C785 C786 1.373 . S
C785 C787 1.389 . S
C786 H759 0.950 . S
C786 C772 1.377 . S
C786 C785 1.373 . S
C787 C771 1.377 . S
C787 C785 1.389 . S
C787 C788 1.524 . S
C788 C787 1.524 . S
C788 C789 1.397 . S
C788 C793 1.363 . S
C789 H760 0.950 . S
C789 C788 1.397 . S
C789 C790 1.334 . S
C790 H761 0.950 . S
C790 C789 1.334 . S
C790 C791 1.287 . S
C791 C790 1.287 . S
C791 C792 1.524 . S
C791 H794 0.999 . S
C792 H762 0.950 . S
C792 C791 1.524 . S
C792 C793 1.415 . S
C793 H763 0.950 . S
C793 C788 1.363 . S
C793 C792 1.415 . S
H794 C791 0.999 . S
H795 C776 0.913 . S
H796 C814 0.951 . S
H797 C816 0.951 . S
H798 C818 0.950 . S
H799 C819 0.950 . S
H800 C821 0.950 . S
H801 C824 0.950 . S
H802 C825 0.950 . S
H803 C827 0.950 . S
H804 C828 0.950 . S
H805 C829 0.951 . S
H806 C831 0.951 . S
H807 C833 0.950 . S
H808 C834 0.950 . S
H809 C836 0.950 . S
H810 C839 0.950 . S
H811 C840 0.950 . S
H812 C842 0.950 . S
H813 C843 0.950 . S
C814 H796 0.951 . S
C814 C815 1.366 . S
C814 C816 1.388 . S
C815 C814 1.366 . S
C815 C819 1.385 . S
C816 H797 0.951 . S
C816 C814 1.388 . S
C816 C817 1.366 . S
C817 C816 1.366 . S
C817 C818 1.414 . S
C817 C820 1.499 . S
C818 H798 0.950 . S
C818 C817 1.414 . S
C818 C819 1.374 . S
C819 H799 0.950 . S
C819 C815 1.385 . S
C819 C818 1.374 . S
C820 C817 1.499 . S
C820 C821 1.373 . S
C820 C822 1.389 . S
C821 H800 0.950 . S
C821 C820 1.373 . S
C821 C837 1.377 . S
C822 C820 1.389 . S
C822 C823 1.524 . S
C822 C836 1.377 . S
C823 C822 1.524 . S
C823 C824 1.397 . S
C823 C828 1.363 . S
C824 H801 0.950 . S
C824 C823 1.397 . S
C824 C825 1.334 . S
C825 H802 0.950 . S
C825 C824 1.334 . S
C825 C826 1.287 . S
C826 C825 1.287 . S
C826 C827 1.524 . S
C826 H845 0.913 . S
C827 H803 0.950 . S
C827 C826 1.524 . S
C827 C828 1.415 . S
C828 H804 0.950 . S
C828 C823 1.363 . S
C828 C827 1.415 . S
C829 H805 0.951 . S
C829 C830 1.366 . S
C829 C831 1.388 . S
C830 C829 1.366 . S
C830 C834 1.385 . S
C831 H806 0.951 . S
C831 C829 1.388 . S
C831 C832 1.366 . S
C832 C831 1.366 . S
C832 C833 1.414 . S
C832 C835 1.499 . S
C833 H807 0.950 . S
C833 C832 1.414 . S
C833 C834 1.374 . S
C834 H808 0.950 . S
C834 C830 1.385 . S
C834 C833 1.374 . S
C835 C832 1.499 . S
C835 C836 1.373 . S
C835 C837 1.389 . S
C836 H809 0.950 . S
C836 C822 1.377 . S
C836 C835 1.373 . S
C837 C821 1.377 . S
C837 C835 1.389 . S
C837 C838 1.524 . S
C838 C837 1.524 . S
C838 C839 1.397 . S
C838 C843 1.363 . S
C839 H810 0.950 . S
C839 C838 1.397 . S
C839 C840 1.334 . S
C840 H811 0.950 . S
C840 C839 1.334 . S
C840 C841 1.287 . S
C841 C840 1.287 . S
C841 C842 1.524 . S
C841 H844 0.999 . S
C842 H812 0.950 . S
C842 C841 1.524 . S
C842 C843 1.415 . S
C843 H813 0.950 . S
C843 C838 1.363 . S
C843 C842 1.415 . S
H844 C841 0.999 . S
H845 C826 0.913 . S
H846 C864 0.951 . S
H847 C866 0.951 . S
H848 C868 0.950 . S
H849 C869 0.950 . S
H850 C871 0.950 . S
H851 C874 0.950 . S
H852 C875 0.950 . S
H853 C877 0.950 . S
H854 C878 0.950 . S
H855 C879 0.951 . S
H856 C881 0.951 . S
H857 C883 0.950 . S
H858 C884 0.950 . S
H859 C886 0.950 . S
H860 C889 0.950 . S
H861 C890 0.950 . S
H862 C892 0.950 . S
H863 C893 0.950 . S
C864 H846 0.951 . S
C864 C865 1.366 . S
C864 C866 1.388 . S
C865 C864 1.366 . S
C865 C869 1.385 . S
C866 H847 0.951 . S
C866 C864 1.388 . S
C866 C867 1.366 . S
C867 C866 1.366 . S
C867 C868 1.414 . S
C867 C870 1.499 . S
C868 H848 0.950 . S
C868 C867 1.414 . S
C868 C869 1.374 . S
C869 H849 0.950 . S
C869 C865 1.385 . S
C869 C868 1.374 . S
C870 C867 1.499 . S
C870 C871 1.373 . S
C870 C872 1.389 . S
C871 H850 0.950 . S
C871 C870 1.373 . S
C871 C887 1.377 . S
C872 C870 1.389 . S
C872 C873 1.524 . S
C872 C886 1.377 . S
C873 C872 1.524 . S
C873 C874 1.397 . S
C873 C878 1.363 . S
C874 H851 0.950 . S
C874 C873 1.397 . S
C874 C875 1.334 . S
C875 H852 0.950 . S
C875 C874 1.334 . S
C875 C876 1.285 . S
C876 C875 1.285 . S
C876 C877 1.554 . S
C876 H895 0.881 1_545 S
C877 H853 0.950 . S
C877 C876 1.554 . S
C877 C878 1.415 . S
C878 H854 0.950 . S
C878 C873 1.363 . S
C878 C877 1.415 . S
C879 H855 0.951 . S
C879 C880 1.366 . S
C879 C881 1.388 . S
C880 C879 1.366 . S
C880 C884 1.385 . S
C881 H856 0.951 . S
C881 C879 1.388 . S
C881 C882 1.366 . S
C882 C881 1.366 . S
C882 C883 1.414 . S
C882 C885 1.499 . S
C883 H857 0.950 . S
C883 C882 1.414 . S
C883 C884 1.374 . S
C884 H858 0.950 . S
C884 C880 1.385 . S
C884 C883 1.374 . S
C885 C882 1.499 . S
C885 C886 1.373 . S
C885 C887 1.389 . S
C886 H859 0.950 . S
C886 C872 1.377 . S
C886 C885 1.373 . S
C887 C871 1.377 . S
C887 C885 1.389 . S
C887 C888 1.524 . S
C888 C887 1.524 . S
C888 C889 1.397 . S
C888 C893 1.363 . S
C889 H860 0.950 . S
C889 C888 1.397 . S
C889 C890 1.334 . S
C890 H861 0.950 . S
C890 C889 1.334 . S
C890 C891 1.287 . S
C891 C890 1.287 . S
C891 C892 1.524 . S
C891 H894 0.999 . S
C892 H862 0.950 . S
C892 C891 1.524 . S
C892 C893 1.415 . S
C893 H863 0.950 . S
C893 C888 1.363 . S
C893 C892 1.415 . S
H894 C891 0.999 . S
H895 C876 0.881 1_565 S
H896 C914 0.951 . S
H897 C916 0.951 . S
H898 C918 0.950 . S
H899 C919 0.950 . S
H900 C921 0.950 . S
H901 C924 0.950 . S
H902 C925 0.950 . S
H903 C927 0.950 . S
H904 C928 0.950 . S
H905 C929 0.951 . S
H906 C931 0.951 . S
H907 C933 0.950 . S
H908 C934 0.950 . S
H909 C936 0.950 . S
H910 C939 0.950 . S
H911 C940 0.950 . S
H912 C942 0.950 . S
H913 C943 0.950 . S
C914 H896 0.951 . S
C914 C915 1.366 . S
C914 C916 1.388 . S
C915 C914 1.366 . S
C915 C919 1.385 . S
C916 H897 0.951 . S
C916 C914 1.388 . S
C916 C917 1.366 . S
C917 C916 1.366 . S
C917 C918 1.414 . S
C917 C920 1.499 . S
C918 H898 0.950 . S
C918 C917 1.414 . S
C918 C919 1.374 . S
C919 H899 0.950 . S
C919 C915 1.385 . S
C919 C918 1.374 . S
C920 C917 1.499 . S
C920 C921 1.373 . S
C920 C922 1.389 . S
C921 H900 0.950 . S
C921 C920 1.373 . S
C921 C937 1.377 . S
C922 C920 1.389 . S
C922 C923 1.524 . S
C922 C936 1.377 . S
C923 C922 1.524 . S
C923 C924 1.397 . S
C923 C928 1.363 . S
C924 H901 0.950 . S
C924 C923 1.397 . S
C924 C925 1.334 . S
C925 H902 0.950 . S
C925 C924 1.334 . S
C925 C926 1.287 . S
C926 C925 1.287 . S
C926 C927 1.524 . S
C926 H945 0.913 . S
C927 H903 0.950 . S
C927 C926 1.524 . S
C927 C928 1.415 . S
C928 H904 0.950 . S
C928 C923 1.363 . S
C928 C927 1.415 . S
C929 H905 0.951 . S
C929 C930 1.366 . S
C929 C931 1.388 . S
C930 C929 1.366 . S
C930 C934 1.385 . S
C931 H906 0.951 . S
C931 C929 1.388 . S
C931 C932 1.366 . S
C932 C931 1.366 . S
C932 C933 1.414 . S
C932 C935 1.499 . S
C933 H907 0.950 . S
C933 C932 1.414 . S
C933 C934 1.374 . S
C934 H908 0.950 . S
C934 C930 1.385 . S
C934 C933 1.374 . S
C935 C932 1.499 . S
C935 C936 1.373 . S
C935 C937 1.389 . S
C936 H909 0.950 . S
C936 C922 1.377 . S
C936 C935 1.373 . S
C937 C921 1.377 . S
C937 C935 1.389 . S
C937 C938 1.524 . S
C938 C937 1.524 . S
C938 C939 1.397 . S
C938 C943 1.363 . S
C939 H910 0.950 . S
C939 C938 1.397 . S
C939 C940 1.334 . S
C940 H911 0.950 . S
C940 C939 1.334 . S
C940 C941 1.287 . S
C941 C940 1.287 . S
C941 C942 1.524 . S
C941 H944 0.999 . S
C942 H912 0.950 . S
C942 C941 1.524 . S
C942 C943 1.415 . S
C943 H913 0.950 . S
C943 C938 1.363 . S
C943 C942 1.415 . S
H944 C941 0.999 . S
H945 C926 0.913 . S
H946 C964 0.951 . S
H947 C966 0.951 . S
H948 C968 0.950 . S
H949 C969 0.950 . S
H950 C971 0.950 . S
H951 C974 0.950 . S
H952 C975 0.950 1_455 S
H953 C977 0.950 . S
H954 C978 0.950 . S
H955 C979 0.951 . S
H956 C981 0.951 . S
H957 C983 0.950 . S
H958 C984 0.950 . S
H959 C986 0.950 . S
H960 C989 0.950 . S
H961 C990 0.950 . S
H962 C992 0.950 . S
H963 C993 0.950 . S
C964 H946 0.951 . S
C964 C965 1.366 . S
C964 C966 1.388 . S
C965 C964 1.366 . S
C965 C969 1.385 . S
C966 H947 0.951 . S
C966 C964 1.388 . S
C966 C967 1.366 . S
C967 C966 1.366 . S
C967 C968 1.414 . S
C967 C970 1.499 . S
C968 H948 0.950 . S
C968 C967 1.414 . S
C968 C969 1.374 . S
C969 H949 0.950 . S
C969 C965 1.385 . S
C969 C968 1.374 . S
C970 C967 1.499 . S
C970 C971 1.373 . S
C970 C972 1.389 . S
C971 H950 0.950 . S
C971 C970 1.373 . S
C971 C987 1.377 . S
C972 C970 1.389 . S
C972 C973 1.524 . S
C972 C986 1.377 . S
C973 C972 1.524 . S
C973 C974 1.397 . S
C973 C978 1.363 . S
C974 H951 0.950 . S
C974 C973 1.397 . S
C974 C975 1.334 . S
C975 H952 0.950 1_655 S
C975 C974 1.334 . S
C975 C976 1.287 1_655 S
C976 C975 1.287 1_455 S
C976 C977 1.524 . S
C976 H995 0.913 . S
C977 H953 0.950 . S
C977 C976 1.524 . S
C977 C978 1.415 1_455 S
C978 H954 0.950 . S
C978 C973 1.363 . S
C978 C977 1.415 1_655 S
C979 H955 0.951 . S
C979 C980 1.366 . S
C979 C981 1.388 . S
C980 C979 1.366 . S
C980 C984 1.385 . S
C981 H956 0.951 . S
C981 C979 1.388 . S
C981 C982 1.366 . S
C982 C981 1.366 . S
C982 C983 1.414 . S
C982 C985 1.499 . S
C983 H957 0.950 . S
C983 C982 1.414 . S
C983 C984 1.374 . S
C984 H958 0.950 . S
C984 C980 1.385 . S
C984 C983 1.374 . S
C985 C982 1.499 . S
C985 C986 1.373 . S
C985 C987 1.389 . S
C986 H959 0.950 . S
C986 C972 1.377 . S
C986 C985 1.373 . S
C987 C971 1.377 . S
C987 C985 1.389 . S
C987 C988 1.524 . S
C988 C987 1.524 . S
C988 C989 1.397 . S
C988 C993 1.363 . S
C989 H960 0.950 . S
C989 C988 1.397 . S
C989 C990 1.334 . S
C990 H961 0.950 . S
C990 C989 1.334 . S
C990 C991 1.287 . S
C991 C990 1.287 . S
C991 C992 1.524 . S
C991 H994 0.999 . S
C992 H962 0.950 . S
C992 C991 1.524 . S
C992 C993 1.415 . S
C993 H963 0.950 . S
C993 C988 1.363 . S
C993 C992 1.415 . S
H994 C991 0.999 . S
H995 C976 0.913 . S
H996 C1014 0.958 . S
H997 C1016 0.951 . S
H998 C1018 0.950 . S
H999 C1019 0.950 . S
H1000 C1021 0.950 . S
H1001 C1024 0.950 . S
H1002 C1025 0.950 . S
H1003 C1027 0.950 . S
H1004 C1028 0.950 . S
H1005 C1029 0.951 . S
H1006 C1031 0.951 . S
H1007 C1033 0.950 . S
H1008 C1034 0.950 . S
H1009 C1036 0.950 . S
H1010 C1039 0.950 . S
H1011 C1040 0.950 . S
H1012 C1042 0.950 . S
H1013 C1043 0.950 . S
C1014 H996 0.958 . S
C1014 C1015 1.366 . S
C1014 C1016 1.388 . S
C1015 C1014 1.366 . S
C1015 C1019 1.385 . S
C1016 H997 0.951 . S
C1016 C1014 1.388 . S
C1016 C1017 1.366 . S
C1017 C1016 1.366 . S
C1017 C1018 1.414 . S
C1017 C1020 1.499 . S
C1018 H998 0.950 . S
C1018 C1017 1.414 . S
C1018 C1019 1.374 . S
C1019 H999 0.950 . S
C1019 C1015 1.385 . S
C1019 C1018 1.374 . S
C1020 C1017 1.499 . S
C1020 C1021 1.373 . S
C1020 C1022 1.389 . S
C1021 H1000 0.950 . S
C1021 C1020 1.373 . S
C1021 C1037 1.377 . S
C1022 C1020 1.389 . S
C1022 C1023 1.524 . S
C1022 C1036 1.377 . S
C1023 C1022 1.524 . S
C1023 C1024 1.397 . S
C1023 C1028 1.363 . S
C1024 H1001 0.950 . S
C1024 C1023 1.397 . S
C1024 C1025 1.334 . S
C1025 H1002 0.950 . S
C1025 C1024 1.334 . S
C1025 C1026 1.287 1_655 S
C1026 C1025 1.287 1_455 S
C1026 C1027 1.524 . S
C1026 H1045 0.913 . S
C1027 H1003 0.950 . S
C1027 C1026 1.524 . S
C1027 C1028 1.415 1_455 S
C1028 H1004 0.950 . S
C1028 C1023 1.363 . S
C1028 C1027 1.415 1_655 S
C1029 H1005 0.951 . S
C1029 C1030 1.366 . S
C1029 C1031 1.388 . S
C1030 C1029 1.366 . S
C1030 C1034 1.385 . S
C1031 H1006 0.951 . S
C1031 C1029 1.388 . S
C1031 C1032 1.366 . S
C1032 C1031 1.366 . S
C1032 C1033 1.414 . S
C1032 C1035 1.499 . S
C1033 H1007 0.950 . S
C1033 C1032 1.414 . S
C1033 C1034 1.374 . S
C1034 H1008 0.950 . S
C1034 C1030 1.385 . S
C1034 C1033 1.374 . S
C1035 C1032 1.499 . S
C1035 C1036 1.373 . S
C1035 C1037 1.389 . S
C1036 H1009 0.950 . S
C1036 C1022 1.377 . S
C1036 C1035 1.373 . S
C1037 C1021 1.377 . S
C1037 C1035 1.389 . S
C1037 C1038 1.524 . S
C1038 C1037 1.524 . S
C1038 C1039 1.397 . S
C1038 C1043 1.363 . S
C1039 H1010 0.950 . S
C1039 C1038 1.397 . S
C1039 C1040 1.334 . S
C1040 H1011 0.950 . S
C1040 C1039 1.334 . S
C1040 C1041 1.287 . S
C1041 C1040 1.287 . S
C1041 C1042 1.524 . S
C1041 H1044 0.999 . S
C1042 H1012 0.950 . S
C1042 C1041 1.524 . S
C1042 C1043 1.415 . S
C1043 H1013 0.950 . S
C1043 C1038 1.363 . S
C1043 C1042 1.415 . S
H1044 C1041 0.999 . S
H1045 C1026 0.913 . S
H1046 C1064 0.951 . S
H1047 C1066 0.951 . S
H1048 C1068 0.950 . S
H1049 C1069 0.950 . S
H1050 C1071 0.950 . S
H1051 C1074 0.950 . S
H1052 C1075 0.950 . S
H1053 C1077 0.950 . S
H1054 C1078 0.950 . S
H1055 C1079 0.951 . S
H1056 C1081 0.951 . S
H1057 C1083 0.950 . S
H1058 C1084 0.950 . S
H1059 C1086 0.950 . S
H1060 C1089 0.950 . S
H1061 C1090 0.950 . S
H1062 C1092 0.950 . S
H1063 C1093 0.950 . S
C1064 H1046 0.951 . S
C1064 C1065 1.366 . S
C1064 C1066 1.388 . S
C1065 C1064 1.366 . S
C1065 C1069 1.385 . S
C1066 H1047 0.951 . S
C1066 C1064 1.388 . S
C1066 C1067 1.366 . S
C1067 C1066 1.366 . S
C1067 C1068 1.414 . S
C1067 C1070 1.499 . S
C1068 H1048 0.950 . S
C1068 C1067 1.414 . S
C1068 C1069 1.374 . S
C1069 H1049 0.950 . S
C1069 C1065 1.385 . S
C1069 C1068 1.374 . S
C1070 C1067 1.499 . S
C1070 C1071 1.373 . S
C1070 C1072 1.389 . S
C1071 H1050 0.950 . S
C1071 C1070 1.373 . S
C1071 C1087 1.377 . S
C1072 C1070 1.389 . S
C1072 C1073 1.524 . S
C1072 C1086 1.377 . S
C1073 C1072 1.524 . S
C1073 C1074 1.397 . S
C1073 C1078 1.363 . S
C1074 H1051 0.950 . S
C1074 C1073 1.397 . S
C1074 C1075 1.334 . S
C1075 H1052 0.950 . S
C1075 C1074 1.334 . S
C1075 C1076 1.287 . S
C1076 C1075 1.287 . S
C1076 C1077 1.524 . S
C1076 H1095 0.913 . S
C1077 H1053 0.950 . S
C1077 C1076 1.524 . S
C1077 C1078 1.415 . S
C1078 H1054 0.950 . S
C1078 C1073 1.363 . S
C1078 C1077 1.415 . S
C1079 H1055 0.951 . S
C1079 C1080 1.366 . S
C1079 C1081 1.388 . S
C1080 C1079 1.366 . S
C1080 C1084 1.385 . S
C1081 H1056 0.951 . S
C1081 C1079 1.388 . S
C1081 C1082 1.366 . S
C1082 C1081 1.366 . S
C1082 C1083 1.414 . S
C1082 C1085 1.499 . S
C1083 H1057 0.950 . S
C1083 C1082 1.414 . S
C1083 C1084 1.374 . S
C1084 H1058 0.950 . S
C1084 C1080 1.385 . S
C1084 C1083 1.374 . S
C1085 C1082 1.499 . S
C1085 C1086 1.373 . S
C1085 C1087 1.389 . S
C1086 H1059 0.950 . S
C1086 C1072 1.377 . S
C1086 C1085 1.373 . S
C1087 C1071 1.377 . S
C1087 C1085 1.389 . S
C1087 C1088 1.524 . S
C1088 C1087 1.524 . S
C1088 C1089 1.397 . S
C1088 C1093 1.363 . S
C1089 H1060 0.950 . S
C1089 C1088 1.397 . S
C1089 C1090 1.334 . S
C1090 H1061 0.950 . S
C1090 C1089 1.334 . S
C1090 C1091 1.287 . S
C1091 C1090 1.287 . S
C1091 C1092 1.524 . S
C1091 H1094 0.999 . S
C1092 H1062 0.950 . S
C1092 C1091 1.524 . S
C1092 C1093 1.415 . S
C1093 H1063 0.950 . S
C1093 C1088 1.363 . S
C1093 C1092 1.415 . S
H1094 C1091 0.999 . S
H1095 C1076 0.913 . S
H1096 C1114 0.951 . S
H1097 C1116 0.951 . S
H1098 C1118 0.950 . S
H1099 C1119 0.950 . S
H1100 C1121 0.950 . S
H1101 C1124 0.950 . S
H1102 C1125 0.950 . S
H1103 C1127 0.950 . S
H1104 C1128 0.950 . S
H1105 C1129 0.951 . S
H1106 C1131 0.951 . S
H1107 C1133 0.950 . S
H1108 C1134 0.950 . S
H1109 C1136 0.950 . S
H1110 C1139 0.950 . S
H1111 C1140 0.950 . S
H1112 C1142 0.950 . S
H1113 C1143 0.950 . S
C1114 H1096 0.951 . S
C1114 C1115 1.366 . S
C1114 C1116 1.388 . S
C1115 C1114 1.366 . S
C1115 C1119 1.385 . S
C1116 H1097 0.951 . S
C1116 C1114 1.388 . S
C1116 C1117 1.366 . S
C1117 C1116 1.366 . S
C1117 C1118 1.414 . S
C1117 C1120 1.499 . S
C1118 H1098 0.950 . S
C1118 C1117 1.414 . S
C1118 C1119 1.374 . S
C1119 H1099 0.950 . S
C1119 C1115 1.385 . S
C1119 C1118 1.374 . S
C1120 C1117 1.499 . S
C1120 C1121 1.373 . S
C1120 C1122 1.389 . S
C1121 H1100 0.950 . S
C1121 C1120 1.373 . S
C1121 C1137 1.377 . S
C1122 C1120 1.389 . S
C1122 C1123 1.524 . S
C1122 C1136 1.377 . S
C1123 C1122 1.524 . S
C1123 C1124 1.397 . S
C1123 C1128 1.363 . S
C1124 H1101 0.950 . S
C1124 C1123 1.397 . S
C1124 C1125 1.334 . S
C1125 H1102 0.950 . S
C1125 C1124 1.334 . S
C1125 C1126 1.287 . S
C1126 C1125 1.287 . S
C1126 C1127 1.524 . S
C1126 H1145 0.913 . S
C1127 H1103 0.950 . S
C1127 C1126 1.524 . S
C1127 C1128 1.415 . S
C1128 H1104 0.950 . S
C1128 C1123 1.363 . S
C1128 C1127 1.415 . S
C1129 H1105 0.951 . S
C1129 C1130 1.366 . S
C1129 C1131 1.388 . S
C1130 C1129 1.366 . S
C1130 C1134 1.385 . S
C1131 H1106 0.951 . S
C1131 C1129 1.388 . S
C1131 C1132 1.366 . S
C1132 C1131 1.366 . S
C1132 C1133 1.414 . S
C1132 C1135 1.499 . S
C1133 H1107 0.950 . S
C1133 C1132 1.414 . S
C1133 C1134 1.374 . S
C1134 H1108 0.950 . S
C1134 C1130 1.385 . S
C1134 C1133 1.374 . S
C1135 C1132 1.499 . S
C1135 C1136 1.373 . S
C1135 C1137 1.389 . S
C1136 H1109 0.950 . S
C1136 C1122 1.377 . S
C1136 C1135 1.373 . S
C1137 C1121 1.377 . S
C1137 C1135 1.389 . S
C1137 C1138 1.524 . S
C1138 C1137 1.524 . S
C1138 C1139 1.397 . S
C1138 C1143 1.363 . S
C1139 H1110 0.950 . S
C1139 C1138 1.397 . S
C1139 C1140 1.334 . S
C1140 H1111 0.950 . S
C1140 C1139 1.334 . S
C1140 C1141 1.287 . S
C1141 C1140 1.287 . S
C1141 C1142 1.524 . S
C1141 H1144 0.999 . S
C1142 H1112 0.950 . S
C1142 C1141 1.524 . S
C1142 C1143 1.415 . S
C1143 H1113 0.950 . S
C1143 C1138 1.363 . S
C1143 C1142 1.415 . S
H1144 C1141 0.999 . S
H1145 C1126 0.913 . S
H1146 C1164 0.951 . S
H1147 C1166 0.951 . S
H1148 C1168 0.950 . S
H1149 C1169 0.950 . S
H1150 C1171 0.950 . S
H1151 C1174 0.950 . S
H1152 C1175 0.950 . S
H1153 C1177 0.950 . S
H1154 C1178 0.950 . S
H1155 C1179 0.951 . S
H1156 C1181 0.951 . S
H1157 C1183 0.950 . S
H1158 C1184 0.950 . S
H1159 C1186 0.950 . S
H1160 C1189 0.950 . S
H1161 C1190 0.950 . S
H1162 C1192 0.950 . S
H1163 C1193 0.950 . S
C1164 H1146 0.951 . S
C1164 C1165 1.366 . S
C1164 C1166 1.388 . S
C1165 C1164 1.366 . S
C1165 C1169 1.385 . S
C1166 H1147 0.951 . S
C1166 C1164 1.388 . S
C1166 C1167 1.366 . S
C1167 C1166 1.366 . S
C1167 C1168 1.414 . S
C1167 C1170 1.499 . S
C1168 H1148 0.950 . S
C1168 C1167 1.414 . S
C1168 C1169 1.374 . S
C1169 H1149 0.950 . S
C1169 C1165 1.385 . S
C1169 C1168 1.374 . S
C1170 C1167 1.499 . S
C1170 C1171 1.373 . S
C1170 C1172 1.389 . S
C1171 H1150 0.950 . S
C1171 C1170 1.373 . S
C1171 C1187 1.377 . S
C1172 C1170 1.389 . S
C1172 C1173 1.524 . S
C1172 C1186 1.377 . S
C1173 C1172 1.524 . S
C1173 C1174 1.397 . S
C1173 C1178 1.363 . S
C1174 H1151 0.950 . S
C1174 C1173 1.397 . S
C1174 C1175 1.334 . S
C1175 H1152 0.950 . S
C1175 C1174 1.334 . S
C1175 C1176 1.287 . S
C1176 C1175 1.287 . S
C1176 C1177 1.524 . S
C1176 H1195 0.913 . S
C1177 H1153 0.950 . S
C1177 C1176 1.524 . S
C1177 C1178 1.415 . S
C1178 H1154 0.950 . S
C1178 C1173 1.363 . S
C1178 C1177 1.415 . S
C1179 H1155 0.951 . S
C1179 C1180 1.366 . S
C1179 C1181 1.388 . S
C1180 C1179 1.366 . S
C1180 C1184 1.385 . S
C1181 H1156 0.951 . S
C1181 C1179 1.388 . S
C1181 C1182 1.366 . S
C1182 C1181 1.366 . S
C1182 C1183 1.414 . S
C1182 C1185 1.499 . S
C1183 H1157 0.950 . S
C1183 C1182 1.414 . S
C1183 C1184 1.374 . S
C1184 H1158 0.950 . S
C1184 C1180 1.385 . S
C1184 C1183 1.374 . S
C1185 C1182 1.499 . S
C1185 C1186 1.373 . S
C1185 C1187 1.389 . S
C1186 H1159 0.950 . S
C1186 C1172 1.377 . S
C1186 C1185 1.373 . S
C1187 C1171 1.377 . S
C1187 C1185 1.389 . S
C1187 C1188 1.524 . S
C1188 C1187 1.524 . S
C1188 C1189 1.397 . S
C1188 C1193 1.363 . S
C1189 H1160 0.950 . S
C1189 C1188 1.397 . S
C1189 C1190 1.334 . S
C1190 H1161 0.950 . S
C1190 C1189 1.334 . S
C1190 C1191 1.287 . S
C1191 C1190 1.287 . S
C1191 C1192 1.524 . S
C1191 H1194 0.999 . S
C1192 H1162 0.950 . S
C1192 C1191 1.524 . S
C1192 C1193 1.415 . S
C1193 H1163 0.950 . S
C1193 C1188 1.363 . S
C1193 C1192 1.415 . S
H1194 C1191 0.999 . S
H1195 C1176 0.913 . S
H1196 C1214 0.951 . S
H1197 C1216 0.951 . S
H1198 C1218 0.950 . S
H1199 C1219 0.950 . S
H1200 C1221 0.950 . S
H1201 C1224 0.950 . S
H1202 C1225 0.950 . S
H1203 C1227 0.950 . S
H1204 C1228 0.950 . S
H1205 C1229 0.951 . S
H1206 C1231 0.951 . S
H1207 C1233 0.950 . S
H1208 C1234 0.950 . S
H1209 C1236 0.950 . S
H1210 C1239 0.950 . S
H1211 C1240 0.950 . S
H1212 C1242 0.950 . S
H1213 C1243 0.950 . S
C1214 H1196 0.951 . S
C1214 C1215 1.366 . S
C1214 C1216 1.388 . S
C1215 C1214 1.366 . S
C1215 C1219 1.385 . S
C1216 H1197 0.951 . S
C1216 C1214 1.388 . S
C1216 C1217 1.366 . S
C1217 C1216 1.366 . S
C1217 C1218 1.414 . S
C1217 C1220 1.499 . S
C1218 H1198 0.950 . S
C1218 C1217 1.414 . S
C1218 C1219 1.374 . S
C1219 H1199 0.950 . S
C1219 C1215 1.385 . S
C1219 C1218 1.374 . S
C1220 C1217 1.499 . S
C1220 C1221 1.373 . S
C1220 C1222 1.389 . S
C1221 H1200 0.950 . S
C1221 C1220 1.373 . S
C1221 C1237 1.377 . S
C1222 C1220 1.389 . S
C1222 C1223 1.524 . S
C1222 C1236 1.377 . S
C1223 C1222 1.524 . S
C1223 C1224 1.397 . S
C1223 C1228 1.363 . S
C1224 H1201 0.950 . S
C1224 C1223 1.397 . S
C1224 C1225 1.334 . S
C1225 H1202 0.950 . S
C1225 C1224 1.334 . S
C1225 C1226 1.287 . S
C1226 C1225 1.287 . S
C1226 C1227 1.524 . S
C1226 H1245 0.913 . S
C1227 H1203 0.950 . S
C1227 C1226 1.524 . S
C1227 C1228 1.415 . S
C1228 H1204 0.950 . S
C1228 C1223 1.363 . S
C1228 C1227 1.415 . S
C1229 H1205 0.951 . S
C1229 C1230 1.366 . S
C1229 C1231 1.388 . S
C1230 C1229 1.366 . S
C1230 C1234 1.385 . S
C1231 H1206 0.951 . S
C1231 C1229 1.388 . S
C1231 C1232 1.366 . S
C1232 C1231 1.366 . S
C1232 C1233 1.414 . S
C1232 C1235 1.499 . S
C1233 H1207 0.950 . S
C1233 C1232 1.414 . S
C1233 C1234 1.374 . S
C1234 H1208 0.950 . S
C1234 C1230 1.385 . S
C1234 C1233 1.374 . S
C1235 C1232 1.499 . S
C1235 C1236 1.373 . S
C1235 C1237 1.389 . S
C1236 H1209 0.950 . S
C1236 C1222 1.377 . S
C1236 C1235 1.373 . S
C1237 C1221 1.377 . S
C1237 C1235 1.389 . S
C1237 C1238 1.524 . S
C1238 C1237 1.524 . S
C1238 C1239 1.397 . S
C1238 C1243 1.363 . S
C1239 H1210 0.950 . S
C1239 C1238 1.397 . S
C1239 C1240 1.334 . S
C1240 H1211 0.950 . S
C1240 C1239 1.334 . S
C1240 C1241 1.287 . S
C1241 C1240 1.287 . S
C1241 C1242 1.524 . S
C1241 H1244 0.999 . S
C1242 H1212 0.950 . S
C1242 C1241 1.524 . S
C1242 C1243 1.415 . S
C1243 H1213 0.950 . S
C1243 C1238 1.363 . S
C1243 C1242 1.415 . S
H1244 C1241 0.999 . S
H1245 C1226 0.913 . S
H1246 C1264 0.951 . S
H1247 C1266 0.951 . S
H1248 C1268 0.950 . S
H1249 C1269 0.950 . S
H1250 C1271 0.950 . S
H1251 C1274 0.950 . S
H1252 C1275 0.950 . S
H1253 C1277 0.950 . S
H1254 C1278 0.950 . S
H1255 C1279 0.951 . S
H1256 C1281 0.951 . S
H1257 C1283 0.950 . S
H1258 C1284 0.950 . S
H1259 C1286 0.950 . S
H1260 C1289 0.950 . S
H1261 C1290 0.950 . S
H1262 C1292 0.950 . S
H1263 C1293 0.950 . S
C1264 H1246 0.951 . S
C1264 C1265 1.366 . S
C1264 C1266 1.388 . S
C1265 C1264 1.366 . S
C1265 C1269 1.385 . S
C1266 H1247 0.951 . S
C1266 C1264 1.388 . S
C1266 C1267 1.366 . S
C1267 C1266 1.366 . S
C1267 C1268 1.414 . S
C1267 C1270 1.499 . S
C1268 H1248 0.950 . S
C1268 C1267 1.414 . S
C1268 C1269 1.374 . S
C1269 H1249 0.950 . S
C1269 C1265 1.385 . S
C1269 C1268 1.374 . S
C1270 C1267 1.499 . S
C1270 C1271 1.373 . S
C1270 C1272 1.389 . S
C1271 H1250 0.950 . S
C1271 C1270 1.373 . S
C1271 C1287 1.377 . S
C1272 C1270 1.389 . S
C1272 C1273 1.524 . S
C1272 C1286 1.377 . S
C1273 C1272 1.524 . S
C1273 C1274 1.397 . S
C1273 C1278 1.363 . S
C1274 H1251 0.950 . S
C1274 C1273 1.397 . S
C1274 C1275 1.334 . S
C1275 H1252 0.950 . S
C1275 C1274 1.334 . S
C1275 C1276 1.287 . S
C1276 C1275 1.287 . S
C1276 C1277 1.524 . S
C1276 H1295 0.913 . S
C1277 H1253 0.950 . S
C1277 C1276 1.524 . S
C1277 C1278 1.415 . S
C1278 H1254 0.950 . S
C1278 C1273 1.363 . S
C1278 C1277 1.415 . S
C1279 H1255 0.951 . S
C1279 C1280 1.366 . S
C1279 C1281 1.388 . S
C1280 C1279 1.366 . S
C1280 C1284 1.385 . S
C1281 H1256 0.951 . S
C1281 C1279 1.388 . S
C1281 C1282 1.366 . S
C1282 C1281 1.366 . S
C1282 C1283 1.414 . S
C1282 C1285 1.499 . S
C1283 H1257 0.950 . S
C1283 C1282 1.414 . S
C1283 C1284 1.374 . S
C1284 H1258 0.950 . S
C1284 C1280 1.385 . S
C1284 C1283 1.374 . S
C1285 C1282 1.499 . S
C1285 C1286 1.373 . S
C1285 C1287 1.389 . S
C1286 H1259 0.950 . S
C1286 C1272 1.377 . S
C1286 C1285 1.373 . S
C1287 C1271 1.377 . S
C1287 C1285 1.389 . S
C1287 C1288 1.524 . S
C1288 C1287 1.524 . S
C1288 C1289 1.397 . S
C1288 C1293 1.363 . S
C1289 H1260 0.950 . S
C1289 C1288 1.397 . S
C1289 C1290 1.334 . S
C1290 H1261 0.950 . S
C1290 C1289 1.334 . S
C1290 C1291 1.287 . S
C1291 C1290 1.287 . S
C1291 C1292 1.524 . S
C1291 H1294 0.999 . S
C1292 H1262 0.950 . S
C1292 C1291 1.524 . S
C1292 C1293 1.415 . S
C1293 H1263 0.950 . S
C1293 C1288 1.363 . S
C1293 C1292 1.415 . S
H1294 C1291 0.999 . S
H1295 C1276 0.913 . S
H1296 C1314 0.951 . S
H1297 C1316 0.951 . S
H1298 C1318 0.950 . S
H1299 C1319 0.950 . S
H1300 C1321 0.950 . S
H1301 C1324 0.950 . S
H1302 C1325 0.950 . S
H1303 C1327 0.950 . S
H1304 C1328 0.950 . S
H1305 C1329 0.951 . S
H1306 C1331 0.951 . S
H1307 C1333 0.950 . S
H1308 C1334 0.950 . S
H1309 C1336 0.950 . S
H1310 C1339 0.950 . S
H1311 C1340 0.950 . S
H1312 C1342 0.950 . S
H1313 C1343 0.950 . S
C1314 H1296 0.951 . S
C1314 C1315 1.366 . S
C1314 C1316 1.388 . S
C1315 C1314 1.366 . S
C1315 C1319 1.385 . S
C1316 H1297 0.951 . S
C1316 C1314 1.388 . S
C1316 C1317 1.366 . S
C1317 C1316 1.366 . S
C1317 C1318 1.414 . S
C1317 C1320 1.499 . S
C1318 H1298 0.950 . S
C1318 C1317 1.414 . S
C1318 C1319 1.374 . S
C1319 H1299 0.950 . S
C1319 C1315 1.385 . S
C1319 C1318 1.374 . S
C1320 C1317 1.499 . S
C1320 C1321 1.373 . S
C1320 C1322 1.389 . S
C1321 H1300 0.950 . S
C1321 C1320 1.373 . S
C1321 C1337 1.377 . S
C1322 C1320 1.389 . S
C1322 C1323 1.524 . S
C1322 C1336 1.377 . S
C1323 C1322 1.524 . S
C1323 C1324 1.397 . S
C1323 C1328 1.363 . S
C1324 H1301 0.950 . S
C1324 C1323 1.397 . S
C1324 C1325 1.334 . S
C1325 H1302 0.950 . S
C1325 C1324 1.334 . S
C1325 C1326 1.287 . S
C1326 C1325 1.287 . S
C1326 C1327 1.524 . S
C1326 H1345 0.913 . S
C1327 H1303 0.950 . S
C1327 C1326 1.524 . S
C1327 C1328 1.415 . S
C1328 H1304 0.950 . S
C1328 C1323 1.363 . S
C1328 C1327 1.415 . S
C1329 H1305 0.951 . S
C1329 C1330 1.366 . S
C1329 C1331 1.388 . S
C1330 C1329 1.366 . S
C1330 C1334 1.385 . S
C1331 H1306 0.951 . S
C1331 C1329 1.388 . S
C1331 C1332 1.366 . S
C1332 C1331 1.366 . S
C1332 C1333 1.414 . S
C1332 C1335 1.499 . S
C1333 H1307 0.950 . S
C1333 C1332 1.414 . S
C1333 C1334 1.374 . S
C1334 H1308 0.950 . S
C1334 C1330 1.385 . S
C1334 C1333 1.374 . S
C1335 C1332 1.499 . S
C1335 C1336 1.373 . S
C1335 C1337 1.389 . S
C1336 H1309 0.950 . S
C1336 C1322 1.377 . S
C1336 C1335 1.373 . S
C1337 C1321 1.377 . S
C1337 C1335 1.389 . S
C1337 C1338 1.524 . S
C1338 C1337 1.524 . S
C1338 C1339 1.397 . S
C1338 C1343 1.363 . S
C1339 H1310 0.950 . S
C1339 C1338 1.397 . S
C1339 C1340 1.334 . S
C1340 H1311 0.950 . S
C1340 C1339 1.334 . S
C1340 C1341 1.287 . S
C1341 C1340 1.287 . S
C1341 C1342 1.524 . S
C1341 H1344 0.999 . S
C1342 H1312 0.950 . S
C1342 C1341 1.524 . S
C1342 C1343 1.415 . S
C1343 H1313 0.950 . S
C1343 C1338 1.363 . S
C1343 C1342 1.415 . S
H1344 C1341 0.999 . S
H1345 C1326 0.913 . S
H1346 C1364 0.951 . S
H1347 C1366 0.951 . S
H1348 C1368 0.950 . S
H1349 C1369 0.950 . S
H1350 C1371 0.950 . S
H1351 C1374 0.950 . S
H1352 C1375 0.950 . S
H1353 C1377 0.950 . S
H1354 C1378 0.950 . S
H1355 C1379 0.951 . S
H1356 C1381 0.951 . S
H1357 C1383 0.950 . S
H1358 C1384 0.950 . S
H1359 C1386 0.950 . S
H1360 C1389 0.950 . S
H1361 C1390 0.950 . S
H1362 C1392 0.950 . S
H1363 C1393 0.950 . S
C1364 H1346 0.951 . S
C1364 C1365 1.366 . S
C1364 C1366 1.388 . S
C1365 C1364 1.366 . S
C1365 C1369 1.385 . S
C1366 H1347 0.951 . S
C1366 C1364 1.388 . S
C1366 C1367 1.366 . S
C1367 C1366 1.366 . S
C1367 C1368 1.414 . S
C1367 C1370 1.499 . S
C1368 H1348 0.950 . S
C1368 C1367 1.414 . S
C1368 C1369 1.374 . S
C1369 H1349 0.950 . S
C1369 C1365 1.385 . S
C1369 C1368 1.374 . S
C1370 C1367 1.499 . S
C1370 C1371 1.373 . S
C1370 C1372 1.389 . S
C1371 H1350 0.950 . S
C1371 C1370 1.373 . S
C1371 C1387 1.377 . S
C1372 C1370 1.389 . S
C1372 C1373 1.524 . S
C1372 C1386 1.377 . S
C1373 C1372 1.524 . S
C1373 C1374 1.397 . S
C1373 C1378 1.363 . S
C1374 H1351 0.950 . S
C1374 C1373 1.397 . S
C1374 C1375 1.334 . S
C1375 H1352 0.950 . S
C1375 C1374 1.334 . S
C1375 C1376 1.287 . S
C1376 C1375 1.287 . S
C1376 C1377 1.524 . S
C1376 H1395 0.913 . S
C1377 H1353 0.950 . S
C1377 C1376 1.524 . S
C1377 C1378 1.415 . S
C1378 H1354 0.950 . S
C1378 C1373 1.363 . S
C1378 C1377 1.415 . S
C1379 H1355 0.951 . S
C1379 C1380 1.366 . S
C1379 C1381 1.388 . S
C1380 C1379 1.366 . S
C1380 C1384 1.385 . S
C1381 H1356 0.951 . S
C1381 C1379 1.388 . S
C1381 C1382 1.366 . S
C1382 C1381 1.366 . S
C1382 C1383 1.414 . S
C1382 C1385 1.499 . S
C1383 H1357 0.950 . S
C1383 C1382 1.414 . S
C1383 C1384 1.374 . S
C1384 H1358 0.950 . S
C1384 C1380 1.385 . S
C1384 C1383 1.374 . S
C1385 C1382 1.499 . S
C1385 C1386 1.373 . S
C1385 C1387 1.389 . S
C1386 H1359 0.950 . S
C1386 C1372 1.377 . S
C1386 C1385 1.373 . S
C1387 C1371 1.377 . S
C1387 C1385 1.389 . S
C1387 C1388 1.524 . S
C1388 C1387 1.524 . S
C1388 C1389 1.397 . S
C1388 C1393 1.363 . S
C1389 H1360 0.950 . S
C1389 C1388 1.397 . S
C1389 C1390 1.334 . S
C1390 H1361 0.950 . S
C1390 C1389 1.334 . S
C1390 C1391 1.287 . S
C1391 C1390 1.287 . S
C1391 C1392 1.524 . S
C1391 H1394 0.999 . S
C1392 H1362 0.950 . S
C1392 C1391 1.524 . S
C1392 C1393 1.415 . S
C1393 H1363 0.950 . S
C1393 C1388 1.363 . S
C1393 C1392 1.415 . S
H1394 C1391 0.999 . S
H1395 C1376 0.913 . S
H1396 C1414 0.951 . S
H1397 C1416 0.951 . S
H1398 C1418 0.950 . S
H1399 C1419 0.950 . S
H1400 C1421 0.950 . S
H1401 C1424 0.950 . S
H1402 C1425 0.950 . S
H1403 C1427 0.950 . S
H1404 C1428 0.950 . S
H1405 C1429 0.951 . S
H1406 C1431 0.951 . S
H1407 C1433 0.950 . S
H1408 C1434 0.950 . S
H1409 C1436 0.950 . S
H1410 C1439 0.950 . S
H1411 C1440 0.950 . S
H1412 C1442 0.950 . S
H1413 C1443 0.950 . S
C1414 H1396 0.951 . S
C1414 C1415 1.366 . S
C1414 C1416 1.388 . S
C1415 C1414 1.366 . S
C1415 C1419 1.385 . S
C1416 H1397 0.951 . S
C1416 C1414 1.388 . S
C1416 C1417 1.366 . S
C1417 C1416 1.366 . S
C1417 C1418 1.414 . S
C1417 C1420 1.499 . S
C1418 H1398 0.950 . S
C1418 C1417 1.414 . S
C1418 C1419 1.374 . S
C1419 H1399 0.950 . S
C1419 C1415 1.385 . S
C1419 C1418 1.374 . S
C1420 C1417 1.499 . S
C1420 C1421 1.373 . S
C1420 C1422 1.389 . S
C1421 H1400 0.950 . S
C1421 C1420 1.373 . S
C1421 C1437 1.377 . S
C1422 C1420 1.389 . S
C1422 C1423 1.524 . S
C1422 C1436 1.377 . S
C1423 C1422 1.524 . S
C1423 C1424 1.397 . S
C1423 C1428 1.363 . S
C1424 H1401 0.950 . S
C1424 C1423 1.397 . S
C1424 C1425 1.334 . S
C1425 H1402 0.950 . S
C1425 C1424 1.334 . S
C1425 C1426 1.287 . S
C1426 C1425 1.287 . S
C1426 C1427 1.524 . S
C1426 H1445 0.913 . S
C1427 H1403 0.950 . S
C1427 C1426 1.524 . S
C1427 C1428 1.415 . S
C1428 H1404 0.950 . S
C1428 C1423 1.363 . S
C1428 C1427 1.415 . S
C1429 H1405 0.951 . S
C1429 C1430 1.366 . S
C1429 C1431 1.388 . S
C1430 C1429 1.366 . S
C1430 C1434 1.385 . S
C1431 H1406 0.951 . S
C1431 C1429 1.388 . S
C1431 C1432 1.366 . S
C1432 C1431 1.366 . S
C1432 C1433 1.414 . S
C1432 C1435 1.499 . S
C1433 H1407 0.950 . S
C1433 C1432 1.414 . S
C1433 C1434 1.374 . S
C1434 H1408 0.950 . S
C1434 C1430 1.385 . S
C1434 C1433 1.374 . S
C1435 C1432 1.499 . S
C1435 C1436 1.373 . S
C1435 C1437 1.389 . S
C1436 H1409 0.950 . S
C1436 C1422 1.377 . S
C1436 C1435 1.373 . S
C1437 C1421 1.377 . S
C1437 C1435 1.389 . S
C1437 C1438 1.524 . S
C1438 C1437 1.524 . S
C1438 C1439 1.397 . S
C1438 C1443 1.363 . S
C1439 H1410 0.950 . S
C1439 C1438 1.397 . S
C1439 C1440 1.334 . S
C1440 H1411 0.950 . S
C1440 C1439 1.334 . S
C1440 C1441 1.287 . S
C1441 C1440 1.287 . S
C1441 C1442 1.524 . S
C1441 H1444 0.999 . S
C1442 H1412 0.950 . S
C1442 C1441 1.524 . S
C1442 C1443 1.415 . S
C1443 H1413 0.950 . S
C1443 C1438 1.363 . S
C1443 C1442 1.415 . S
H1444 C1441 0.999 . S
H1445 C1426 0.913 . S
H1446 C1464 0.951 . S
H1447 C1466 0.951 . S
H1448 C1468 0.950 . S
H1449 C1469 0.950 . S
H1450 C1471 0.950 . S
H1451 C1474 0.950 . S
H1452 C1475 0.950 . S
H1453 C1477 0.950 . S
H1454 C1478 0.950 . S
H1455 C1479 0.951 . S
H1456 C1481 0.951 . S
H1457 C1483 0.950 . S
H1458 C1484 0.950 . S
H1459 C1486 0.950 . S
H1460 C1489 0.950 . S
H1461 C1490 0.950 . S
H1462 C1492 0.950 . S
H1463 C1493 0.950 . S
C1464 H1446 0.951 . S
C1464 C1465 1.366 . S
C1464 C1466 1.388 . S
C1465 C1464 1.366 . S
C1465 C1469 1.385 . S
C1466 H1447 0.951 . S
C1466 C1464 1.388 . S
C1466 C1467 1.366 . S
C1467 C1466 1.366 . S
C1467 C1468 1.414 . S
C1467 C1470 1.499 . S
C1468 H1448 0.950 . S
C1468 C1467 1.414 . S
C1468 C1469 1.374 . S
C1469 H1449 0.950 . S
C1469 C1465 1.385 . S
C1469 C1468 1.374 . S
C1470 C1467 1.499 . S
C1470 C1471 1.373 . S
C1470 C1472 1.389 . S
C1471 H1450 0.950 . S
C1471 C1470 1.373 . S
C1471 C1487 1.377 . S
C1472 C1470 1.389 . S
C1472 C1473 1.524 . S
C1472 C1486 1.377 . S
C1473 C1472 1.524 . S
C1473 C1474 1.397 . S
C1473 C1478 1.363 . S
C1474 H1451 0.950 . S
C1474 C1473 1.397 . S
C1474 C1475 1.334 . S
C1475 H1452 0.950 . S
C1475 C1474 1.334 . S
C1475 C1476 1.287 . S
C1476 C1475 1.287 . S
C1476 C1477 1.524 . S
C1476 H1495 0.913 . S
C1477 H1453 0.950 . S
C1477 C1476 1.524 . S
C1477 C1478 1.415 . S
C1478 H1454 0.950 . S
C1478 C1473 1.363 . S
C1478 C1477 1.415 . S
C1479 H1455 0.951 . S
C1479 C1480 1.366 . S
C1479 C1481 1.388 . S
C1480 C1479 1.366 . S
C1480 C1484 1.385 . S
C1481 H1456 0.951 . S
C1481 C1479 1.388 . S
C1481 C1482 1.366 . S
C1482 C1481 1.366 . S
C1482 C1483 1.414 . S
C1482 C1485 1.499 . S
C1483 H1457 0.950 . S
C1483 C1482 1.414 . S
C1483 C1484 1.374 . S
C1484 H1458 0.950 . S
C1484 C1480 1.385 . S
C1484 C1483 1.374 . S
C1485 C1482 1.499 . S
C1485 C1486 1.373 . S
C1485 C1487 1.389 . S
C1486 H1459 0.950 . S
C1486 C1472 1.377 . S
C1486 C1485 1.373 . S
C1487 C1471 1.377 . S
C1487 C1485 1.389 . S
C1487 C1488 1.524 . S
C1488 C1487 1.524 . S
C1488 C1489 1.397 . S
C1488 C1493 1.363 . S
C1489 H1460 0.950 . S
C1489 C1488 1.397 . S
C1489 C1490 1.334 . S
C1490 H1461 0.950 . S
C1490 C1489 1.334 . S
C1490 C1491 1.287 . S
C1491 C1490 1.287 . S
C1491 C1492 1.524 . S
C1491 H1494 0.999 . S
C1492 H1462 0.950 . S
C1492 C1491 1.524 . S
C1492 C1493 1.415 . S
C1493 H1463 0.950 . S
C1493 C1488 1.363 . S
C1493 C1492 1.415 . S
H1494 C1491 0.999 . S
H1495 C1476 0.913 . S
H1496 C1514 0.951 . S
H1497 C1516 0.951 . S
H1498 C1518 0.950 . S
H1499 C1519 0.950 . S
H1500 C1521 0.950 . S
H1501 C1524 0.950 . S
H1502 C1525 0.950 . S
H1503 C1527 0.950 . S
H1504 C1528 0.950 . S
H1505 C1529 0.951 . S
H1506 C1531 0.951 . S
H1507 C1533 0.950 . S
H1508 C1534 0.950 . S
H1509 C1536 0.950 . S
H1510 C1539 0.950 . S
H1511 C1540 0.950 . S
H1512 C1542 0.950 . S
H1513 C1543 0.950 . S
C1514 H1496 0.951 . S
C1514 C1515 1.366 . S
C1514 C1516 1.388 . S
C1515 C1514 1.366 . S
C1515 C1519 1.385 . S
C1516 H1497 0.951 . S
C1516 C1514 1.388 . S
C1516 C1517 1.366 . S
C1517 C1516 1.366 . S
C1517 C1518 1.414 . S
C1517 C1520 1.499 . S
C1518 H1498 0.950 . S
C1518 C1517 1.414 . S
C1518 C1519 1.374 . S
C1519 H1499 0.950 . S
C1519 C1515 1.385 . S
C1519 C1518 1.374 . S
C1520 C1517 1.499 . S
C1520 C1521 1.373 . S
C1520 C1522 1.389 . S
C1521 H1500 0.950 . S
C1521 C1520 1.373 . S
C1521 C1537 1.377 . S
C1522 C1520 1.389 . S
C1522 C1523 1.524 . S
C1522 C1536 1.377 . S
C1523 C1522 1.524 . S
C1523 C1524 1.397 . S
C1523 C1528 1.363 . S
C1524 H1501 0.950 . S
C1524 C1523 1.397 . S
C1524 C1525 1.334 . S
C1525 H1502 0.950 . S
C1525 C1524 1.334 . S
C1525 C1526 1.287 . S
C1526 C1525 1.287 . S
C1526 C1527 1.524 . S
C1526 H1545 0.913 . S
C1527 H1503 0.950 . S
C1527 C1526 1.524 . S
C1527 C1528 1.415 . S
C1528 H1504 0.950 . S
C1528 C1523 1.363 . S
C1528 C1527 1.415 . S
C1529 H1505 0.951 . S
C1529 C1530 1.366 . S
C1529 C1531 1.388 . S
C1530 C1529 1.366 . S
C1530 C1534 1.385 . S
C1531 H1506 0.951 . S
C1531 C1529 1.388 . S
C1531 C1532 1.366 . S
C1532 C1531 1.366 . S
C1532 C1533 1.414 . S
C1532 C1535 1.499 . S
C1533 H1507 0.950 . S
C1533 C1532 1.414 . S
C1533 C1534 1.374 . S
C1534 H1508 0.950 . S
C1534 C1530 1.385 . S
C1534 C1533 1.374 . S
C1535 C1532 1.499 . S
C1535 C1536 1.373 . S
C1535 C1537 1.389 . S
C1536 H1509 0.950 . S
C1536 C1522 1.377 . S
C1536 C1535 1.373 . S
C1537 C1521 1.377 . S
C1537 C1535 1.389 . S
C1537 C1538 1.524 . S
C1538 C1537 1.524 . S
C1538 C1539 1.397 . S
C1538 C1543 1.363 . S
C1539 H1510 0.950 . S
C1539 C1538 1.397 . S
C1539 C1540 1.334 . S
C1540 H1511 0.950 . S
C1540 C1539 1.334 . S
C1540 C1541 1.287 . S
C1541 C1540 1.287 . S
C1541 C1542 1.524 . S
C1541 H1544 0.999 . S
C1542 H1512 0.950 . S
C1542 C1541 1.524 . S
C1542 C1543 1.415 . S
C1543 H1513 0.950 . S
C1543 C1538 1.363 . S
C1543 C1542 1.415 . S
H1544 C1541 0.999 . S
H1545 C1526 0.913 . S
H1546 C1564 0.951 . S
H1547 C1566 0.951 . S
H1548 C1568 0.950 . S
H1549 C1569 0.950 . S
H1550 C1571 0.950 . S
H1551 C1574 0.950 . S
H1552 C1575 0.950 . S
H1553 C1577 0.950 . S
H1554 C1578 0.950 . S
H1555 C1579 0.951 . S
H1556 C1581 0.951 . S
H1557 C1583 0.950 . S
H1558 C1584 0.950 . S
H1559 C1586 0.950 . S
H1560 C1589 0.950 . S
H1561 C1590 0.950 . S
H1562 C1592 0.950 . S
H1563 C1593 0.950 . S
C1564 H1546 0.951 . S
C1564 C1565 1.366 . S
C1564 C1566 1.388 . S
C1565 C1564 1.366 . S
C1565 C1569 1.385 . S
C1566 H1547 0.951 . S
C1566 C1564 1.388 . S
C1566 C1567 1.366 . S
C1567 C1566 1.366 . S
C1567 C1568 1.414 . S
C1567 C1570 1.499 . S
C1568 H1548 0.950 . S
C1568 C1567 1.414 . S
C1568 C1569 1.374 . S
C1569 H1549 0.950 . S
C1569 C1565 1.385 . S
C1569 C1568 1.374 . S
C1570 C1567 1.499 . S
C1570 C1571 1.373 . S
C1570 C1572 1.389 . S
C1571 H1550 0.950 . S
C1571 C1570 1.373 . S
C1571 C1587 1.377 . S
C1572 C1570 1.389 . S
C1572 C1573 1.524 . S
C1572 C1586 1.377 . S
C1573 C1572 1.524 . S
C1573 C1574 1.397 . S
C1573 C1578 1.363 . S
C1574 H1551 0.950 . S
C1574 C1573 1.397 . S
C1574 C1575 1.334 . S
C1575 H1552 0.950 . S
C1575 C1574 1.334 . S
C1575 C1576 1.287 . S
C1576 C1575 1.287 . S
C1576 C1577 1.524 . S
C1576 H1595 0.913 . S
C1577 H1553 0.950 . S
C1577 C1576 1.524 . S
C1577 C1578 1.415 . S
C1578 H1554 0.950 . S
C1578 C1573 1.363 . S
C1578 C1577 1.415 . S
C1579 H1555 0.951 . S
C1579 C1580 1.366 . S
C1579 C1581 1.388 . S
C1580 C1579 1.366 . S
C1580 C1584 1.385 . S
C1581 H1556 0.951 . S
C1581 C1579 1.388 . S
C1581 C1582 1.366 . S
C1582 C1581 1.366 . S
C1582 C1583 1.414 . S
C1582 C1585 1.499 . S
C1583 H1557 0.950 . S
C1583 C1582 1.414 . S
C1583 C1584 1.374 . S
C1584 H1558 0.950 . S
C1584 C1580 1.385 . S
C1584 C1583 1.374 . S
C1585 C1582 1.499 . S
C1585 C1586 1.373 . S
C1585 C1587 1.389 . S
C1586 H1559 0.950 . S
C1586 C1572 1.377 . S
C1586 C1585 1.373 . S
C1587 C1571 1.377 . S
C1587 C1585 1.389 . S
C1587 C1588 1.524 . S
C1588 C1587 1.524 . S
C1588 C1589 1.397 . S
C1588 C1593 1.363 . S
C1589 H1560 0.950 . S
C1589 C1588 1.397 . S
C1589 C1590 1.334 . S
C1590 H1561 0.950 . S
C1590 C1589 1.334 . S
C1590 C1591 1.287 . S
C1591 C1590 1.287 . S
C1591 C1592 1.524 . S
C1591 H1594 0.999 . S
C1592 H1562 0.950 . S
C1592 C1591 1.524 . S
C1592 C1593 1.415 . S
C1593 H1563 0.950 . S
C1593 C1588 1.363 . S
C1593 C1592 1.415 . S
H1594 C1591 0.999 . S
H1595 C1576 0.913 . S
C415 C39 1.732 . S
C430 C319 1.728 . S
C465 C91 1.754 . S
C480 C332 1.751 . S
C530 C354 1.540 . S
C515 C128 1.592 . S
C580 C367 1.514 . S
C565 C188 1.561 . S
C630 C380 1.638 . S
C615 C250 1.688 . S
C680 C393 1.639 . S
C665 C304 1.697 . S
C715 C75 1.590 . S
C730 C349 1.529 . S
C765 C144 1.717 . S
C780 C362 1.652 . S
C830 C375 1.622 . S
C815 C198 1.682 . S
C880 C388 1.464 . S
C865 C234 1.523 . S
C915 C294 1.549 . S
C930 C321 1.548 . S
C980 C334 1.583 . S
C965 C29 1.582 . S
C1030 C360 1.660 . S
C1015 C38 1.725 . S
C1065 C92 1.752 . S
C1080 C373 1.690 . S
C1130 C386 1.528 . S
C1115 C135 1.589 . S
C1165 C181 1.559 . S
C1180 C323 1.558 . S
C1215 C251 1.684 . S
C1230 C336 1.684 . S
C1265 C303 1.688 . S
C1280 C347 1.618 . S
C1315 C82 1.595 . S
C1330 C384 1.545 . S
C1380 C328 1.720 . S
C1365 C145 1.723 . S
C1415 C197 1.689 . S
C1430 C341 1.687 . S
C1465 C241 1.530 . S
C1480 C345 1.480 . S
C1515 C287 1.551 . S
C1530 C358 1.504 . S
C1565 C22 1.583 . S
C1580 C371 1.540 . S
