# Generated by pormake.
# Topology gar, (4,6)-cn, num edge types: 1
# Building blocks:
#     Node 0, Type 0, BuildingBlock: KUFVIS_clean_sbu_0, # of connection points: 4
#     Node 1, Type 0, BuildingBlock: KUFVIS_clean_sbu_0, # of connection points: 4
#     Node 2, Type 0, BuildingBlock: KUFVIS_clean_sbu_0, # of connection points: 4
#     Node 3, Type 0, BuildingBlock: KUFVIS_clean_sbu_0, # of connection points: 4
#     Node 4, Type 0, BuildingBlock: KUFVIS_clean_sbu_0, # of connection points: 4
#     Node 5, Type 0, BuildingBlock: KUFVIS_clean_sbu_0, # of connection points: 4
#     Node 6, Type 0, BuildingBlock: KUFVIS_clean_sbu_0, # of connection points: 4
#     Node 7, Type 0, BuildingBlock: KUFVIS_clean_sbu_0, # of connection points: 4
#     Node 8, Type 0, BuildingBlock: KUFVIS_clean_sbu_0, # of connection points: 4
#     Node 9, Type 0, BuildingBlock: KUFVIS_clean_sbu_0, # of connection points: 4
#     Node 10, Type 0, BuildingBlock: KUFVIS_clean_sbu_0, # of connection points: 4
#     Node 11, Type 0, BuildingBlock: KUFVIS_clean_sbu_0, # of connection points: 4
#     Node 12, Type 0, BuildingBlock: KUFVIS_clean_sbu_0, # of connection points: 4
#     Node 13, Type 0, BuildingBlock: KUFVIS_clean_sbu_0, # of connection points: 4
#     Node 14, Type 0, BuildingBlock: KUFVIS_clean_sbu_0, # of connection points: 4
#     Node 15, Type 0, BuildingBlock: KUFVIS_clean_sbu_0, # of connection points: 4
#     Node 16, Type 0, BuildingBlock: KUFVIS_clean_sbu_0, # of connection points: 4
#     Node 17, Type 0, BuildingBlock: KUFVIS_clean_sbu_0, # of connection points: 4
#     Node 18, Type 0, BuildingBlock: KUFVIS_clean_sbu_0, # of connection points: 4
#     Node 19, Type 0, BuildingBlock: KUFVIS_clean_sbu_0, # of connection points: 4
#     Node 20, Type 0, BuildingBlock: KUFVIS_clean_sbu_0, # of connection points: 4
#     Node 21, Type 0, BuildingBlock: KUFVIS_clean_sbu_0, # of connection points: 4
#     Node 22, Type 0, BuildingBlock: KUFVIS_clean_sbu_0, # of connection points: 4
#     Node 23, Type 0, BuildingBlock: KUFVIS_clean_sbu_0, # of connection points: 4
#     Node 24, Type 1, BuildingBlock: INOVEN_clean_sbu_0, # of connection points: 6
#     Node 25, Type 1, BuildingBlock: INOVEN_clean_sbu_0, # of connection points: 6
#     Node 26, Type 1, BuildingBlock: INOVEN_clean_sbu_0, # of connection points: 6
#     Node 27, Type 1, BuildingBlock: INOVEN_clean_sbu_0, # of connection points: 6
#     Node 28, Type 1, BuildingBlock: INOVEN_clean_sbu_0, # of connection points: 6
#     Node 29, Type 1, BuildingBlock: INOVEN_clean_sbu_0, # of connection points: 6
#     Node 30, Type 1, BuildingBlock: INOVEN_clean_sbu_0, # of connection points: 6
#     Node 31, Type 1, BuildingBlock: INOVEN_clean_sbu_0, # of connection points: 6
#     Node 32, Type 1, BuildingBlock: INOVEN_clean_sbu_0, # of connection points: 6
#     Node 33, Type 1, BuildingBlock: INOVEN_clean_sbu_0, # of connection points: 6
#     Node 34, Type 1, BuildingBlock: INOVEN_clean_sbu_0, # of connection points: 6
#     Node 35, Type 1, BuildingBlock: INOVEN_clean_sbu_0, # of connection points: 6
#     Node 36, Type 1, BuildingBlock: INOVEN_clean_sbu_0, # of connection points: 6
#     Node 37, Type 1, BuildingBlock: INOVEN_clean_sbu_0, # of connection points: 6
#     Node 38, Type 1, BuildingBlock: INOVEN_clean_sbu_0, # of connection points: 6
#     Node 39, Type 1, BuildingBlock: INOVEN_clean_sbu_0, # of connection points: 6
#     Edge 40, Type (0, 1), BuildingBlock: EZIPEK_clean_linker_0, # of connection points: 2
#     Edge 41, Type (0, 1), BuildingBlock: EZIPEK_clean_linker_0, # of connection points: 2
#     Edge 42, Type (0, 1), BuildingBlock: EZIPEK_clean_linker_0, # of connection points: 2
#     Edge 43, Type (0, 1), BuildingBlock: EZIPEK_clean_linker_0, # of connection points: 2
#     Edge 44, Type (0, 1), BuildingBlock: EZIPEK_clean_linker_0, # of connection points: 2
#     Edge 45, Type (0, 1), BuildingBlock: EZIPEK_clean_linker_0, # of connection points: 2
#     Edge 46, Type (0, 1), BuildingBlock: EZIPEK_clean_linker_0, # of connection points: 2
#     Edge 47, Type (0, 1), BuildingBlock: EZIPEK_clean_linker_0, # of connection points: 2
#     Edge 48, Type (0, 1), BuildingBlock: EZIPEK_clean_linker_0, # of connection points: 2
#     Edge 49, Type (0, 1), BuildingBlock: EZIPEK_clean_linker_0, # of connection points: 2
#     Edge 50, Type (0, 1), BuildingBlock: EZIPEK_clean_linker_0, # of connection points: 2
#     Edge 51, Type (0, 1), BuildingBlock: EZIPEK_clean_linker_0, # of connection points: 2
#     Edge 52, Type (0, 1), BuildingBlock: EZIPEK_clean_linker_0, # of connection points: 2
#     Edge 53, Type (0, 1), BuildingBlock: EZIPEK_clean_linker_0, # of connection points: 2
#     Edge 54, Type (0, 1), BuildingBlock: EZIPEK_clean_linker_0, # of connection points: 2
#     Edge 55, Type (0, 1), BuildingBlock: EZIPEK_clean_linker_0, # of connection points: 2
#     Edge 56, Type (0, 1), BuildingBlock: EZIPEK_clean_linker_0, # of connection points: 2
#     Edge 57, Type (0, 1), BuildingBlock: EZIPEK_clean_linker_0, # of connection points: 2
#     Edge 58, Type (0, 1), BuildingBlock: EZIPEK_clean_linker_0, # of connection points: 2
#     Edge 59, Type (0, 1), BuildingBlock: EZIPEK_clean_linker_0, # of connection points: 2
#     Edge 60, Type (0, 1), BuildingBlock: EZIPEK_clean_linker_0, # of connection points: 2
#     Edge 61, Type (0, 1), BuildingBlock: EZIPEK_clean_linker_0, # of connection points: 2
#     Edge 62, Type (0, 1), BuildingBlock: EZIPEK_clean_linker_0, # of connection points: 2
#     Edge 63, Type (0, 1), BuildingBlock: EZIPEK_clean_linker_0, # of connection points: 2
#     Edge 64, Type (0, 1), BuildingBlock: EZIPEK_clean_linker_0, # of connection points: 2
#     Edge 65, Type (0, 1), BuildingBlock: EZIPEK_clean_linker_0, # of connection points: 2
#     Edge 66, Type (0, 1), BuildingBlock: EZIPEK_clean_linker_0, # of connection points: 2
#     Edge 67, Type (0, 1), BuildingBlock: EZIPEK_clean_linker_0, # of connection points: 2
#     Edge 68, Type (0, 1), BuildingBlock: EZIPEK_clean_linker_0, # of connection points: 2
#     Edge 69, Type (0, 1), BuildingBlock: EZIPEK_clean_linker_0, # of connection points: 2
#     Edge 70, Type (0, 1), BuildingBlock: EZIPEK_clean_linker_0, # of connection points: 2
#     Edge 71, Type (0, 1), BuildingBlock: EZIPEK_clean_linker_0, # of connection points: 2
#     Edge 72, Type (0, 1), BuildingBlock: EZIPEK_clean_linker_0, # of connection points: 2
#     Edge 73, Type (0, 1), BuildingBlock: EZIPEK_clean_linker_0, # of connection points: 2
#     Edge 74, Type (0, 1), BuildingBlock: EZIPEK_clean_linker_0, # of connection points: 2
#     Edge 75, Type (0, 1), BuildingBlock: EZIPEK_clean_linker_0, # of connection points: 2
#     Edge 76, Type (0, 1), BuildingBlock: EZIPEK_clean_linker_0, # of connection points: 2
#     Edge 77, Type (0, 1), BuildingBlock: EZIPEK_clean_linker_0, # of connection points: 2
#     Edge 78, Type (0, 1), BuildingBlock: EZIPEK_clean_linker_0, # of connection points: 2
#     Edge 79, Type (0, 1), BuildingBlock: EZIPEK_clean_linker_0, # of connection points: 2
#     Edge 80, Type (0, 1), BuildingBlock: EZIPEK_clean_linker_0, # of connection points: 2
#     Edge 81, Type (0, 1), BuildingBlock: EZIPEK_clean_linker_0, # of connection points: 2
#     Edge 82, Type (0, 1), BuildingBlock: EZIPEK_clean_linker_0, # of connection points: 2
#     Edge 83, Type (0, 1), BuildingBlock: EZIPEK_clean_linker_0, # of connection points: 2
#     Edge 84, Type (0, 1), BuildingBlock: EZIPEK_clean_linker_0, # of connection points: 2
#     Edge 85, Type (0, 1), BuildingBlock: EZIPEK_clean_linker_0, # of connection points: 2
#     Edge 86, Type (0, 1), BuildingBlock: EZIPEK_clean_linker_0, # of connection points: 2
#     Edge 87, Type (0, 1), BuildingBlock: EZIPEK_clean_linker_0, # of connection points: 2
#     Edge 88, Type (0, 1), BuildingBlock: EZIPEK_clean_linker_0, # of connection points: 2
#     Edge 89, Type (0, 1), BuildingBlock: EZIPEK_clean_linker_0, # of connection points: 2
#     Edge 90, Type (0, 1), BuildingBlock: EZIPEK_clean_linker_0, # of connection points: 2
#     Edge 91, Type (0, 1), BuildingBlock: EZIPEK_clean_linker_0, # of connection points: 2
#     Edge 92, Type (0, 1), BuildingBlock: EZIPEK_clean_linker_0, # of connection points: 2
#     Edge 93, Type (0, 1), BuildingBlock: EZIPEK_clean_linker_0, # of connection points: 2
#     Edge 94, Type (0, 1), BuildingBlock: EZIPEK_clean_linker_0, # of connection points: 2
#     Edge 95, Type (0, 1), BuildingBlock: EZIPEK_clean_linker_0, # of connection points: 2
#     Edge 96, Type (0, 1), BuildingBlock: EZIPEK_clean_linker_0, # of connection points: 2
#     Edge 97, Type (0, 1), BuildingBlock: EZIPEK_clean_linker_0, # of connection points: 2
#     Edge 98, Type (0, 1), BuildingBlock: EZIPEK_clean_linker_0, # of connection points: 2
#     Edge 99, Type (0, 1), BuildingBlock: EZIPEK_clean_linker_0, # of connection points: 2
#     Edge 100, Type (0, 1), BuildingBlock: EZIPEK_clean_linker_0, # of connection points: 2
#     Edge 101, Type (0, 1), BuildingBlock: EZIPEK_clean_linker_0, # of connection points: 2
#     Edge 102, Type (0, 1), BuildingBlock: EZIPEK_clean_linker_0, # of connection points: 2
#     Edge 103, Type (0, 1), BuildingBlock: EZIPEK_clean_linker_0, # of connection points: 2
#     Edge 104, Type (0, 1), BuildingBlock: EZIPEK_clean_linker_0, # of connection points: 2
#     Edge 105, Type (0, 1), BuildingBlock: EZIPEK_clean_linker_0, # of connection points: 2
#     Edge 106, Type (0, 1), BuildingBlock: EZIPEK_clean_linker_0, # of connection points: 2
#     Edge 107, Type (0, 1), BuildingBlock: EZIPEK_clean_linker_0, # of connection points: 2
#     Edge 108, Type (0, 1), BuildingBlock: EZIPEK_clean_linker_0, # of connection points: 2
#     Edge 109, Type (0, 1), BuildingBlock: EZIPEK_clean_linker_0, # of connection points: 2
#     Edge 110, Type (0, 1), BuildingBlock: EZIPEK_clean_linker_0, # of connection points: 2
#     Edge 111, Type (0, 1), BuildingBlock: EZIPEK_clean_linker_0, # of connection points: 2
#     Edge 112, Type (0, 1), BuildingBlock: EZIPEK_clean_linker_0, # of connection points: 2
#     Edge 113, Type (0, 1), BuildingBlock: EZIPEK_clean_linker_0, # of connection points: 2
#     Edge 114, Type (0, 1), BuildingBlock: EZIPEK_clean_linker_0, # of connection points: 2
#     Edge 115, Type (0, 1), BuildingBlock: EZIPEK_clean_linker_0, # of connection points: 2
#     Edge 116, Type (0, 1), BuildingBlock: EZIPEK_clean_linker_0, # of connection points: 2
#     Edge 117, Type (0, 1), BuildingBlock: EZIPEK_clean_linker_0, # of connection points: 2
#     Edge 118, Type (0, 1), BuildingBlock: EZIPEK_clean_linker_0, # of connection points: 2
#     Edge 119, Type (0, 1), BuildingBlock: EZIPEK_clean_linker_0, # of connection points: 2
#     Edge 120, Type (0, 1), BuildingBlock: EZIPEK_clean_linker_0, # of connection points: 2
#     Edge 121, Type (0, 1), BuildingBlock: EZIPEK_clean_linker_0, # of connection points: 2
#     Edge 122, Type (0, 1), BuildingBlock: EZIPEK_clean_linker_0, # of connection points: 2
#     Edge 123, Type (0, 1), BuildingBlock: EZIPEK_clean_linker_0, # of connection points: 2
#     Edge 124, Type (0, 1), BuildingBlock: EZIPEK_clean_linker_0, # of connection points: 2
#     Edge 125, Type (0, 1), BuildingBlock: EZIPEK_clean_linker_0, # of connection points: 2
#     Edge 126, Type (0, 1), BuildingBlock: EZIPEK_clean_linker_0, # of connection points: 2
#     Edge 127, Type (0, 1), BuildingBlock: EZIPEK_clean_linker_0, # of connection points: 2
#     Edge 128, Type (0, 1), BuildingBlock: EZIPEK_clean_linker_0, # of connection points: 2
#     Edge 129, Type (0, 1), BuildingBlock: EZIPEK_clean_linker_0, # of connection points: 2
#     Edge 130, Type (0, 1), BuildingBlock: EZIPEK_clean_linker_0, # of connection points: 2
#     Edge 131, Type (0, 1), BuildingBlock: EZIPEK_clean_linker_0, # of connection points: 2
#     Edge 132, Type (0, 1), BuildingBlock: EZIPEK_clean_linker_0, # of connection points: 2
#     Edge 133, Type (0, 1), BuildingBlock: EZIPEK_clean_linker_0, # of connection points: 2
#     Edge 134, Type (0, 1), BuildingBlock: EZIPEK_clean_linker_0, # of connection points: 2
#     Edge 135, Type (0, 1), BuildingBlock: EZIPEK_clean_linker_0, # of connection points: 2
# Relax obj value: 0.233
# Max RMSD: 0.347
# Mean RMSD: 0.169
data_MOF--net-gar--node1-KUFVIS_clean_sbu_0--node2-INOVEN_clean_sbu_0--edge1-EZIPEK_clean_linker_0
_symmetry_space_group_name_H-M    P1
_symmetry_Int_Tables_number       1
_symmetry_cell_setting            triclinic
loop_
_symmetry_equiv_pos_as_xyz
'x, y, z'
_cell_length_a     47.606535
_cell_length_b     42.612736
_cell_length_c     43.791148
_cell_angle_alpha  100.16787
_cell_angle_beta   95.923593
_cell_angle_gamma 103.82512
loop_
_atom_site_label
_atom_site_type_symbol
_atom_site_fract_x
_atom_site_fract_y
_atom_site_fract_z
_atom_type_partial_charge
Mn0 Mn 0.14468 0.35658 0.39775 0.0
Mn1 Mn 0.14081 0.40319 0.34346 0.0
C2 C 0.10067 0.36312 0.37673 0.0
C3 C 0.14044 0.30965 0.41906 0.0
C4 C 0.15623 0.43195 0.41302 0.0
O5 O 0.18217 0.35565 0.37899 0.0
O6 O 0.17881 0.3907 0.34702 0.0
C7 C 0.13847 0.34991 0.28857 0.0
N8 N 0.1282 0.3751 0.30267 0.0
C9 C 0.09341 0.36877 0.25659 0.0
C10 C 0.10488 0.34417 0.24096 0.0
C11 C 0.12713 0.33425 0.25723 0.0
C12 C 0.10536 0.38316 0.28793 0.0
H13 H 0.15499 0.34165 0.30122 0.0
C14 C 0.19191 0.37116 0.35807 0.0
O15 O 0.15634 0.33829 0.43416 0.0
O16 O 0.13046 0.30712 0.38966 0.0
N17 N 0.10545 0.41666 0.33598 0.0
C18 C 0.09533 0.43914 0.35494 0.0
C19 C 0.07196 0.45035 0.34287 0.0
C20 C 0.05949 0.43886 0.3112 0.0
C21 C 0.07035 0.41597 0.29201 0.0
C22 C 0.09356 0.40548 0.30546 0.0
H23 H 0.10465 0.44815 0.37925 0.0
O24 O 0.10408 0.35709 0.40467 0.0
O25 O 0.12315 0.36638 0.36231 0.0
O26 O 0.15951 0.40512 0.41972 0.0
O27 O 0.15102 0.43447 0.38461 0.0
C28 C 0.05921 0.40334 0.25997 0.0
C29 C 0.07041 0.37938 0.24238 0.0
H30 H 0.09631 0.33221 0.21672 0.0
H31 H 0.13552 0.31458 0.24565 0.0
H32 H 0.06366 0.46789 0.35795 0.0
H33 H 0.04152 0.44765 0.30192 0.0
H34 H 0.04174 0.41154 0.24869 0.0
H35 H 0.06112 0.3692 0.21798 0.0
Mn36 Mn 0.02096 0.75135 0.66084 0.0
Mn37 Mn 0.04073 0.81735 0.72166 0.0
C38 C 0.06837 0.77105 0.68733 0.0
C39 C 1.01311 0.69613 0.63546 0.0
C40 C 0.02963 0.8234 0.65379 0.0
O41 O 0.98092 0.7519 0.67542 0.0
O42 O 0.99798 0.79776 0.71432 0.0
C43 C 0.02477 0.78229 0.77269 0.0
N44 N 0.04528 0.80196 0.75991 0.0
C45 C 0.08301 0.8048 0.80218 0.0
C46 C 0.06226 0.78467 0.81581 0.0
C47 C 0.03302 0.77337 0.80099 0.0
C48 C 0.0735 0.81294 0.77398 0.0
H49 H 1.0023 0.77331 0.76133 0.0
C50 C 0.97723 0.77369 0.69811 0.0
O51 O 1.00526 0.71747 0.62109 0.0
O52 O 0.01981 0.70515 0.66579 0.0
N53 N 0.082 0.83756 0.73124 0.0
C54 C 0.09928 0.85713 0.71527 0.0
C55 C 0.12912 0.87076 0.72719 0.0
C56 C 0.14083 0.86433 0.75549 0.0
C57 C 0.1225 0.84462 0.7718 0.0
C58 C 0.09286 0.83205 0.75897 0.0
H59 H 0.09048 0.8621 0.69345 0.0
O60 O 0.06332 0.75638 0.65823 0.0
O61 O 0.04595 0.77606 0.69953 0.0
O62 O 0.022 0.79244 0.64301 0.0
O63 O 0.03788 0.83546 0.68307 0.0
C64 C 0.13251 0.83686 0.80021 0.0
C65 C 0.11281 0.81685 0.81533 0.0
H66 H 0.06855 0.77763 0.83758 0.0
H67 H 0.0169 0.75772 0.81131 0.0
H68 H 0.1431 0.88597 0.71447 0.0
H69 H 0.16392 0.87458 0.76442 0.0
H70 H 0.15534 0.84607 0.8106 0.0
H71 H 0.12081 0.81089 0.83708 0.0
Mn72 Mn 0.64069 0.85403 0.90143 0.0
Mn73 Mn 0.64635 0.90246 0.84736 0.0
C74 C 0.59962 0.86222 0.87523 0.0
C75 C 0.63393 0.80575 0.92048 0.0
C76 C 0.65746 0.93009 0.91765 0.0
O77 O 0.68092 0.8537 0.8894 0.0
O78 O 0.68165 0.88519 0.85278 0.0
C79 C 0.64707 0.85336 0.79035 0.0
N80 N 0.63471 0.87609 0.80566 0.0
C81 C 0.60071 0.87089 0.75917 0.0
C82 C 0.6131 0.84747 0.743 0.0
C83 C 0.63633 0.83863 0.75869 0.0
C84 C 0.61225 0.88468 0.79075 0.0
H85 H 0.66511 0.84661 0.80203 0.0
C86 C 0.69182 0.86535 0.86695 0.0
O87 O 0.64689 0.83432 0.93813 0.0
O88 O 0.62756 0.80454 0.89058 0.0
N89 N 0.61306 0.91928 0.83848 0.0
C90 C 0.60338 0.94235 0.85717 0.0
C91 C 0.58037 0.95401 0.84489 0.0
C92 C 0.56756 0.942 0.81337 0.0
C93 C 0.57786 0.91836 0.79448 0.0
C94 C 0.60095 0.90772 0.80804 0.0
H95 H 0.61254 0.95122 0.88148 0.0
O96 O 0.59913 0.85402 0.90239 0.0
O97 O 0.62413 0.86575 0.86413 0.0
O98 O 0.65334 0.90191 0.92478 0.0
O99 O 0.65723 0.93328 0.88921 0.0
C100 C 0.56613 0.905 0.76269 0.0
C101 C 0.57746 0.88119 0.74508 0.0
H102 H 0.60499 0.83618 0.71852 0.0
H103 H 0.64608 0.82065 0.74633 0.0
H104 H 0.57237 0.97198 0.85978 0.0
H105 H 0.54969 0.95091 0.804 0.0
H106 H 0.54839 0.91286 0.75152 0.0
H107 H 0.5682 0.87104 0.72066 0.0
Mn108 Mn 0.51343 0.24512 0.16067 0.0
Mn109 Mn 0.45455 0.21749 0.10529 0.0
C110 C 0.50385 0.19131 0.13199 0.0
C111 C 0.56161 0.26563 0.18425 0.0
C112 C 0.45268 0.24245 0.17459 0.0
O113 O 0.50931 0.28687 0.14588 0.0
O114 O 0.47421 0.26461 0.10273 0.0
C115 C 0.46376 0.22094 0.0401 0.0
N116 N 0.45603 0.20148 0.06119 0.0
C117 C 0.43638 0.15303 1.01249 0.0
C118 C 0.44536 0.17519 0.99365 0.0
C119 C 0.45873 0.20844 1.00737 0.0
C120 C 0.44123 0.16937 0.05118 0.0
H121 H 0.47394 0.24701 0.04816 0.0
C122 C 0.49532 0.28852 0.11975 0.0
O123 O 0.54035 0.26973 0.19905 0.0
O124 O 0.5554 0.25292 0.15428 0.0
N125 N 0.43948 0.17156 0.10854 0.0
C126 C 0.43806 0.16025 0.1358 0.0
C127 C 0.43014 0.12629 0.13651 0.0
C128 C 0.4245 0.10119 0.10952 0.0
C129 C 0.42694 0.10945 0.0806 0.0
C130 C 0.43593 0.15025 0.08093 0.0
H131 H 0.44451 0.1775 0.15797 0.0
O132 O 0.51412 0.19886 0.16182 0.0
O133 O 0.49441 0.21435 0.12152 0.0
O134 O 0.47846 0.2422 0.18374 0.0
O135 O 0.4422 0.23467 0.14573 0.0
C136 C 0.42017 0.0805 0.04635 0.0
C137 C 0.42604 0.11128 0.99832 0.0
H138 H 0.44318 0.16668 0.96851 0.0
H139 H 0.46572 0.2253 0.99215 0.0
H140 H 0.4292 0.11931 0.15906 0.0
H141 H 0.41873 0.07552 0.11138 0.0
H142 H 0.41258 0.05458 0.04709 0.0
H143 H 0.42266 0.10193 0.97293 0.0
Mn144 Mn 0.14224 0.82798 0.13163 0.0
Mn145 Mn 0.08277 0.80008 0.07323 0.0
C146 C 0.12473 0.77045 0.10695 0.0
C147 C 0.19343 0.83996 0.15777 0.0
C148 C 0.07678 0.81851 0.14183 0.0
O149 O 0.14052 0.87193 0.1146 0.0
O150 O 0.0993 0.84949 0.07881 0.0
C151 C 0.1077 0.81389 0.01624 0.0
N152 N 0.0928 0.79198 0.03187 0.0
C153 C 0.07593 0.75047 0.98408 0.0
C154 C 0.09134 0.77256 0.9676 0.0
C155 C 0.10743 0.80432 0.98379 0.0
C156 C 0.0773 0.76127 0.01645 0.0
H157 H 0.11912 0.83868 0.02831 0.0
C158 C 0.12033 0.87457 0.09324 0.0
O159 O 0.17288 0.84895 0.17134 0.0
O160 O 0.18562 0.82912 0.12761 0.0
N161 N 0.06448 0.75364 0.0649 0.0
C162 C 0.0515 0.73501 0.08445 0.0
C163 C 0.03614 0.70188 0.07234 0.0
C164 C 0.03352 0.68863 0.04016 0.0
C165 C 0.04656 0.70842 0.02041 0.0
C166 C 0.06252 0.74089 0.03403 0.0
H167 H 0.05304 0.74531 0.10913 0.0
O168 O 0.13831 0.78086 0.13545 0.0
O169 O 0.12022 0.79413 0.09325 0.0
O170 O 0.10427 0.82981 0.15184 0.0
O171 O 0.06725 0.80583 0.11307 0.0
C172 C 0.04448 0.69718 0.9878 0.0
C173 C 0.05899 0.71829 0.96959 0.0
H174 H 0.09084 0.76547 0.9425 0.0
H175 H 0.11911 0.82164 0.97115 0.0
H176 H 0.02606 0.6867 0.08769 0.0
H177 H 0.02166 0.66321 0.03088 0.0
H178 H 0.03196 0.67231 0.97653 0.0
H179 H 0.05727 0.70938 0.94454 0.0
Mn180 Mn 0.53008 0.77388 0.43538 0.0
Mn181 Mn 0.53543 0.81752 0.38015 0.0
C182 C 0.48426 0.77502 0.40242 0.0
C183 C 0.53956 0.72603 0.45611 0.0
C184 C 0.54795 0.84788 0.44902 0.0
O185 O 0.57473 0.78792 0.42795 0.0
O186 O 0.56535 0.79288 0.37827 0.0
C187 C 0.52631 0.77484 0.31704 0.0
N188 N 0.51853 0.79799 0.33764 0.0
C189 C 0.48862 0.81049 0.29612 0.0
C190 C 0.49601 0.78654 0.27449 0.0
C191 C 0.51486 0.76854 0.28503 0.0
C192 C 0.50076 0.81569 0.32769 0.0
H193 H 0.54146 0.76165 0.32494 0.0
C194 C 0.58347 0.7923 0.40155 0.0
O195 O 0.54174 0.7547 0.47342 0.0
O196 O 0.53039 0.72427 0.42656 0.0
N197 N 0.50603 0.84105 0.3803 0.0
C198 C 0.49578 0.85722 0.40471 0.0
C199 C 0.47456 0.87363 0.39871 0.0
C200 C 0.4635 0.87222 0.36769 0.0
C201 C 0.47312 0.85465 0.34287 0.0
C202 C 0.49398 0.83824 0.35034 0.0
H203 H 0.50175 0.85597 0.4285 0.0
O204 O 0.48394 0.76352 0.42816 0.0
O205 O 0.51075 0.78196 0.39572 0.0
O206 O 0.53271 0.82284 0.45761 0.0
O207 O 0.55629 0.84308 0.42259 0.0
C208 C 0.46152 0.85116 0.3112 0.0
C209 C 0.46939 0.82914 0.28773 0.0
H210 H 0.48723 0.78166 0.2498 0.0
H211 H 0.52082 0.75014 0.26844 0.0
H212 H 0.46572 0.8859 0.4178 0.0
H213 H 0.44589 0.88219 0.36324 0.0
H214 H 0.44605 0.86473 0.30479 0.0
H215 H 0.4599 0.82603 0.26347 0.0
Mn216 Mn 0.64053 0.32848 0.63147 0.0
Mn217 Mn 0.58259 0.29781 0.57235 0.0
C218 C 0.62527 0.27032 0.60743 0.0
C219 C 0.69139 0.34171 0.6595 0.0
C220 C 0.57456 0.31648 0.6401 0.0
O221 O 0.63897 0.37177 0.61385 0.0
O222 O 0.59777 0.34753 0.57878 0.0
C223 C 0.60889 0.31405 0.51674 0.0
N224 N 0.59349 0.29141 0.53134 0.0
C225 C 0.57744 0.25125 0.4826 0.0
C226 C 0.59329 0.2741 0.46712 0.0
C227 C 0.60926 0.30552 0.4843 0.0
C228 C 0.5783 0.26094 0.51502 0.0
H229 H 0.62034 0.33861 0.52963 0.0
C230 C 0.61817 0.37348 0.59281 0.0
O231 O 0.6702 0.35077 0.67173 0.0
O232 O 0.68439 0.32973 0.62946 0.0
N233 N 0.56548 0.2511 0.56289 0.0
C234 C 0.55252 0.23144 0.58167 0.0
C235 C 0.53708 0.19855 0.56846 0.0
C236 C 0.53444 0.18656 0.53601 0.0
C237 C 0.54764 0.20735 0.51713 0.0
C238 C 0.56356 0.23955 0.53178 0.0
H239 H 0.55389 0.24084 0.60651 0.0
O240 O 0.63635 0.28198 0.63646 0.0
O241 O 0.62043 0.29321 0.59274 0.0
O242 O 0.60171 0.33046 0.65012 0.0
O243 O 0.56608 0.30147 0.61176 0.0
C244 C 0.54581 0.19735 0.48439 0.0
C245 C 0.56065 0.21932 0.46711 0.0
H246 H 0.5933 0.26782 0.44205 0.0
H247 H 0.62136 0.32335 0.47244 0.0
H248 H 0.52686 0.18262 0.58315 0.0
H249 H 0.52241 0.16133 0.52584 0.0
H250 H 0.5334 0.17269 0.47235 0.0
H251 H 0.55931 0.21126 0.442 0.0
Mn252 Mn 0.0306 0.27303 0.93564 0.0
Mn253 Mn 0.03355 0.32391 0.88349 0.0
C254 C 0.98498 0.27511 0.90299 0.0
C255 C 0.03924 0.22314 0.95501 0.0
C256 C 0.04548 0.34853 0.95423 0.0
O257 O 0.07441 0.28675 0.92748 0.0
O258 O 0.06843 0.30648 0.88319 0.0
C259 C 0.03081 0.28372 0.82034 0.0
N260 N 0.01931 0.30356 0.84052 0.0
C261 C 0.98468 0.30818 0.79857 0.0
C262 C 0.99585 0.28743 0.77738 0.0
C263 C 0.01904 0.27517 0.78831 0.0
C264 C 0.99741 0.31601 0.83013 0.0
H265 H 0.04896 0.27472 0.82861 0.0
C266 C 0.0841 0.29708 0.90347 0.0
O267 O 0.04264 0.25196 0.97238 0.0
O268 O 0.02966 0.22254 0.9258 0.0
N269 N 1.00077 0.34215 0.88218 0.0
C270 C 0.99138 0.36031 0.90596 0.0
C271 C 0.96707 0.37228 0.8994 0.0
C272 C 0.95313 0.36587 0.8684 0.0
C273 C 0.96363 0.34827 0.84416 0.0
C274 C 0.98748 0.33618 0.85224 0.0
H275 H 1.00167 0.36507 0.92987 0.0
O276 O 0.98458 0.26268 0.92819 0.0
O277 O 1.01164 0.28448 0.89725 0.0
O278 O 0.03483 0.3208 0.96155 0.0
O279 O 0.04936 0.35035 0.92623 0.0
C280 C 0.95062 0.34114 0.81253 0.0
C281 C 0.9613 0.32127 0.78967 0.0
H282 H 0.98678 0.28074 0.75269 0.0
H283 H 0.02791 0.25932 0.77204 0.0
H284 H 0.95874 0.38575 0.91817 0.0
H285 H 0.93354 0.37308 0.86361 0.0
H286 H 0.9322 0.35051 0.80569 0.0
H287 H 0.95119 0.31573 0.76539 0.0
Mn288 Mn 0.46534 0.05501 0.31391 0.0
Mn289 Mn 0.41286 0.03768 0.35895 0.0
C290 C 0.44361 1.00151 0.31589 0.0
C291 C 0.48101 0.05804 0.26657 0.0
C292 C 0.47694 0.07144 0.38494 0.0
O293 O 0.44982 0.09575 0.3192 0.0
O294 O 0.41024 0.07618 0.34115 0.0
C295 C 0.35926 0.0184 0.31123 0.0
N296 N 0.37618 1.01151 0.33486 0.0
C297 C 0.33994 0.96095 0.33427 0.0
C298 C 0.32229 0.96735 0.30972 0.0
C299 C 0.33206 0.99608 0.29802 0.0
C300 C 0.36712 0.98362 0.34589 0.0
H301 H 0.36659 0.0406 0.30239 0.0
C302 C 0.42494 0.09713 0.32714 0.0
O303 O 0.4981 0.074 0.29248 0.0
O304 O 0.45377 0.04563 0.26809 0.0
N305 N 0.41306 0.99938 0.37619 0.0
C306 C 0.43432 0.99387 0.39616 0.0
C307 C 0.42734 0.96803 0.41232 0.0
C308 C 0.39879 0.94715 0.40658 0.0
C309 C 0.37826 0.95087 0.38302 0.0
C310 C 0.38622 0.97799 0.36878 0.0
H311 H 0.45649 1.00869 0.39919 0.0
O312 O 0.46966 1.0088 0.30849 0.0
O313 O 0.43252 0.02565 0.32406 0.0
O314 O 0.48624 0.06717 0.35877 0.0
O315 O 0.44971 0.06365 0.38711 0.0
C316 C 0.35063 0.92825 0.37243 0.0
C317 C 0.33168 0.93296 0.34766 0.0
H318 H 0.30118 0.95044 0.29975 0.0
H319 H 0.31855 1.00115 0.27905 0.0
H320 H 0.44401 0.96384 0.4287 0.0
H321 H 0.39361 0.92679 0.41857 0.0
H322 H 0.34406 0.90671 0.38259 0.0
H323 H 0.31079 0.91498 0.33915 0.0
Mn324 Mn 0.29471 0.21836 0.51587 0.0
Mn325 Mn 0.28487 0.15248 0.45625 0.0
C326 C 0.2463 0.18181 0.49737 0.0
C327 C 0.30276 0.24113 0.57254 0.0
C328 C 0.30475 0.22415 0.44636 0.0
O329 O 0.33552 0.2088 0.51761 0.0
O330 O 0.3239 0.15975 0.48274 0.0
C331 C 0.28272 0.09598 0.48759 0.0
N332 N 0.26914 0.11175 0.46864 0.0
C333 C 0.22524 0.06702 0.45757 0.0
C334 C 0.23845 0.05091 0.47789 0.0
C335 C 0.2674 0.06537 0.4928 0.0
C336 C 0.24156 0.09761 0.45348 0.0
H337 H 0.30522 0.10635 0.49811 0.0
C338 C 0.34166 0.18228 0.50443 0.0
O339 O 0.3087 0.25936 0.55198 0.0
O340 O 0.29285 0.20998 0.56027 0.0
N341 N 0.24757 0.14361 0.43063 0.0
C342 C 0.23834 0.16167 0.41078 0.0
C343 C 0.21031 0.14983 0.3929 0.0
C344 C 0.19209 0.11952 0.39549 0.0
C345 C 0.20208 0.10129 0.41593 0.0
C346 C 0.23024 0.11432 0.43315 0.0
H347 H 0.25218 0.18495 0.40855 0.0
O348 O 0.25015 0.21248 0.51102 0.0
O349 O 0.27088 0.17502 0.49242 0.0
O350 O 0.30098 0.23789 0.47403 0.0
O351 O 0.30054 0.19275 0.43897 0.0
C352 C 0.18516 0.07074 0.41996 0.0
C353 C 0.19671 0.05365 0.44082 0.0
H354 H 0.22676 0.02717 0.48177 0.0
H355 H 0.27801 0.05275 0.50795 0.0
H356 H 0.20275 0.16409 0.37721 0.0
H357 H 0.17044 0.11052 0.38174 0.0
H358 H 0.16324 0.06015 0.40711 0.0
H359 H 0.18354 0.0301 0.44359 0.0
Mn360 Mn 0.20029 0.03916 0.77984 0.0
Mn361 Mn 0.25572 0.05874 0.84075 0.0
C362 C 0.23222 0.09859 0.79664 0.0
C363 C 0.17513 0.03337 0.72123 0.0
C364 C 0.19022 0.04117 0.85519 0.0
O365 O 0.21611 0.99128 0.77875 0.0
O366 O 0.25245 1.00971 0.8197 0.0
C367 C 0.30729 0.05437 0.80913 0.0
N368 N 0.29314 0.07253 0.82776 0.0
C369 C 0.33352 0.12106 0.83559 0.0
C370 C 0.34851 0.10278 0.81665 0.0
C371 C 0.33532 0.06931 0.80335 0.0
C372 C 0.30576 0.10476 0.84086 0.0
H373 H 0.29733 0.02867 0.79868 0.0
C374 C 0.23839 0.98548 0.79658 0.0
O375 O 0.16206 0.02444 0.74407 0.0
O376 O 0.20316 0.04135 0.731 0.0
N377 N 0.26258 0.10412 0.86153 0.0
C378 C 0.24388 0.11952 0.87573 0.0
C379 C 0.25343 0.15331 0.88956 0.0
C380 C 0.28178 0.1713 0.88768 0.0
C381 C 0.30015 0.15539 0.87157 0.0
C382 C 0.28961 0.12146 0.85875 0.0
H383 H 0.22153 0.10646 0.87577 0.0
O384 O 0.20482 0.09048 0.78479 0.0
O385 O 0.23918 0.07145 0.80158 0.0
O386 O 0.18023 0.03755 0.82509 0.0
O387 O 0.21828 0.04652 0.86163 0.0
C388 C 0.32816 0.17214 0.86691 0.0
C389 C 0.34487 0.15496 0.84902 0.0
H390 H 0.37005 0.11427 0.81193 0.0
H391 H 0.34671 0.05508 0.78859 0.0
H392 H 0.23872 0.16561 0.901 0.0
H393 H 0.28889 0.19751 0.89788 0.0
H394 H 0.33688 0.19834 0.87657 0.0
H395 H 0.36627 0.16818 0.84532 0.0
Mn396 Mn 0.36283 0.95469 0.01321 0.0
Mn397 Mn 0.37719 1.01307 0.96878 0.0
C398 C 0.40966 0.97213 1.00255 0.0
C399 C 0.36123 0.93448 0.05865 0.0
C400 C 0.34944 0.93922 0.94212 0.0
O401 O 0.32795 0.97416 0.01532 0.0
O402 O 0.33957 1.01264 0.98634 0.0
C403 C 0.38115 0.08258 1.01027 0.0
N404 N 0.39718 0.05637 0.99496 0.0
C405 C 0.46005 0.08485 0.01754 0.0
C406 C 0.45645 0.11936 0.04101 0.0
C407 C 0.40092 0.11905 0.0357 0.0
C408 C 0.43045 0.05652 0.99602 0.0
H409 H 0.35768 0.07754 1.00549 0.0
C410 C 0.32202 0.99697 1.00242 0.0
O411 O 0.34573 0.91752 0.03227 0.0
O412 O 0.3739 0.96531 0.05977 0.0
N413 N 0.41245 0.01539 0.9513 0.0
C414 C 0.41411 1.00176 0.92119 0.0
C415 C 0.44136 1.00507 0.91112 0.0
C416 C 0.46648 0.02438 0.93144 0.0
C417 C 0.46401 0.04146 0.96111 0.0
C418 C 0.43604 0.03646 0.97029 0.0
H419 H 0.39457 0.98789 0.90506 0.0
O420 O 0.40006 0.94362 1.00946 0.0
O421 O 0.39121 0.99077 1.00193 0.0
O422 O 0.34824 0.93104 0.96837 0.0
O423 O 0.35867 0.96923 0.93915 0.0
C424 C 0.48857 0.06418 0.98013 0.0
C425 C 0.48691 0.08412 1.00851 0.0
H426 H 0.47631 0.13738 0.0537 0.0
H427 H 0.38942 0.13679 0.04573 0.0
H428 H 0.44294 0.99317 0.88763 0.0
H429 H 0.48754 0.02723 0.92337 0.0
H430 H 0.50948 0.06765 0.97195 0.0
H431 H 0.5063 0.10166 0.02151 0.0
Mn432 Mn 0.36978 0.39568 0.05584 0.0
Mn433 Mn 0.37981 0.4558 0.01285 0.0
C434 C 0.41918 0.42876 0.05328 0.0
C435 C 0.35693 0.37691 0.10534 0.0
C436 C 0.36081 0.38169 0.98319 0.0
O437 O 0.32829 0.40387 0.04425 0.0
O438 O 0.34395 0.45372 0.03234 0.0
C439 C 0.38887 0.51637 0.06179 0.0
N440 N 0.39824 0.49889 0.0376 0.0
C441 C 0.43816 0.54561 0.03709 0.0
C442 C 0.42907 0.56405 0.06215 0.0
C443 C 0.40441 0.5493 0.07466 0.0
C444 C 0.42228 0.51264 0.0258 0.0
H445 H 0.36958 0.5053 0.07104 0.0
C446 C 0.32334 0.43021 0.03654 0.0
O447 O 0.35304 0.35748 0.07805 0.0
O448 O 0.36852 0.40755 0.10419 0.0
N449 N 0.41387 0.46125 0.99241 0.0
C450 C 0.41865 0.44094 0.96679 0.0
C451 C 0.44108 0.45276 0.95002 0.0
C452 C 0.45819 0.48552 0.95938 0.0
C453 C 0.45298 0.50604 0.98571 0.0
C454 C 0.43012 0.49298 1.00139 0.0
H455 H 0.40511 0.41608 0.95855 0.0
O456 O 0.41498 0.40165 0.06398 0.0
O457 O 0.39492 0.43602 0.04583 0.0
O458 O 0.3662 0.37118 1.0085 0.0
O459 O 0.3616 0.41212 0.98407 0.0
C460 C 0.46918 0.53919 0.99656 0.0
C461 C 0.462 0.55886 0.02248 0.0
H462 H 0.44068 0.58963 0.07177 0.0
H463 H 0.39715 0.56345 0.09387 0.0
H464 H 0.44489 0.43677 0.92964 0.0
H465 H 0.47533 0.49464 0.94625 0.0
H466 H 0.48714 0.54984 0.98507 0.0
H467 H 0.47462 0.58432 0.03061 0.0
Mn468 Mn 0.82475 0.17112 0.05815 0.0
Mn469 Mn 0.79411 0.10761 0.99737 0.0
C470 C 0.77471 0.15223 0.04517 0.0
C471 C 0.83851 0.19712 0.11066 0.0
C472 C 0.81453 0.17788 0.99125 0.0
O473 O 0.85872 0.1508 0.05277 0.0
O474 O 0.83703 0.11349 1.00813 0.0
C475 C 0.80343 0.05404 0.02911 0.0
N476 N 0.78504 0.06866 0.01443 0.0
C477 C 0.74284 0.03068 0.02521 0.0
C478 C 0.76134 0.01547 0.04075 0.0
C479 C 0.79178 0.02704 0.04247 0.0
C480 C 0.7557 0.0572 1.01202 0.0
H481 H 0.82678 0.06287 0.0306 0.0
C482 C 0.85912 0.1284 0.02936 0.0
O483 O 0.84823 0.21098 0.08838 0.0
O484 O 0.82429 0.16625 0.10201 0.0
N485 N 0.75294 0.0987 0.98469 0.0
C486 C 0.7383 0.11263 0.96469 0.0
C487 C 0.70763 0.10206 0.95816 0.0
C488 C 0.69246 0.0773 0.97225 0.0
C489 C 0.70827 0.06222 0.99137 0.0
C490 C 0.73876 0.07283 0.99589 0.0
H491 H 0.74987 0.13194 0.9541 0.0
O492 O 0.78685 0.18238 0.0596 0.0
O493 O 0.79213 0.13358 0.03815 0.0
O494 O 0.82992 0.18784 0.01808 0.0
O495 O 0.80067 0.14777 0.98012 0.0
C496 C 0.69508 0.03719 1.00626 0.0
C497 C 0.71217 0.021 0.02277 0.0
H498 H 0.7524 0.99485 0.05133 0.0
H499 H 0.80624 0.01534 0.05427 0.0
H500 H 0.69575 0.11344 0.94286 0.0
H501 H 0.66879 0.06977 0.96788 0.0
H502 H 0.67192 0.03071 1.00567 0.0
H503 H 0.70149 1.00129 0.03357 0.0
Mn504 Mn 0.20046 0.56988 0.22738 0.0
Mn505 Mn 0.25872 0.62005 0.27793 0.0
C506 C 0.22573 0.62114 0.22203 0.0
C507 C 0.17113 0.54042 0.18217 0.0
C508 C 0.1976 0.60427 0.29242 0.0
O509 O 0.21756 0.53662 0.24666 0.0
O510 O 0.25464 0.57359 0.28291 0.0
C511 C 0.3021 0.61123 0.23471 0.0
N512 N 0.29565 0.62395 0.26307 0.0
C513 C 0.34377 0.66142 0.27758 0.0
C514 C 0.351 0.64863 0.24863 0.0
C515 C 0.33034 0.62278 0.22745 0.0
C516 C 0.3163 0.64676 0.28466 0.0
H517 H 0.28565 0.5926 0.21779 0.0
C518 C 0.23963 0.54378 0.269 0.0
O519 O 0.16201 0.53997 0.2088 0.0
O520 O 0.19933 0.55058 0.18237 0.0
N521 N 0.28136 0.64163 0.31811 0.0
C522 C 0.27042 0.6533 0.34416 0.0
C523 C 0.28637 0.68257 0.36477 0.0
C524 C 0.31439 0.69843 0.36033 0.0
C525 C 0.32589 0.68549 0.33437 0.0
C526 C 0.30834 0.6571 0.31332 0.0
H527 H 0.24867 0.642 0.34818 0.0
O528 O 0.19791 0.61121 0.21195 0.0
O529 O 0.23701 0.6024 0.23636 0.0
O530 O 0.18577 0.58434 0.26725 0.0
O531 O 0.22417 0.6193 0.29745 0.0
C532 C 0.35297 0.70159 0.32706 0.0
C533 C 0.36226 0.68902 0.29905 0.0
H534 H 0.37218 0.65877 0.24227 0.0
H535 H 0.33578 0.61275 0.20504 0.0
H536 H 0.2765 0.69393 0.38301 0.0
H537 H 0.32632 0.72134 0.37619 0.0
H538 H 0.36659 0.72392 0.3426 0.0
H539 H 0.38322 0.70142 0.29372 0.0
Mn540 Mn 0.87115 0.89764 0.55882 0.0
Mn541 Mn 0.87688 0.95313 0.51022 0.0
C542 C 0.91941 0.93166 0.55331 0.0
C543 C 0.86086 0.88015 0.60959 0.0
C544 C 0.86065 0.87877 0.48522 0.0
O545 O 0.82928 0.90563 0.55064 0.0
O546 O 0.83985 0.94995 0.52781 0.0
C547 C 0.88181 0.01701 0.55313 0.0
N548 N 0.89319 0.99796 0.53208 0.0
C549 C 0.9336 0.04422 0.53144 0.0
C550 C 0.92248 0.06422 0.55343 0.0
C551 C 0.89646 0.05055 0.56429 0.0
C552 C 0.91805 1.01099 0.52125 0.0
H553 H 0.86161 1.00675 0.56106 0.0
C554 C 0.82233 0.92968 0.54004 0.0
O555 O 0.85615 0.86017 0.58254 0.0
O556 O 0.87215 0.91064 0.60763 0.0
N557 N 0.91158 0.95826 0.49147 0.0
C558 C 0.9189 0.9359 0.46956 0.0
C559 C 0.94438 0.94531 0.4566 0.0
C560 C 0.96162 0.97787 0.46578 0.0
C561 C 0.95309 1.00104 0.48709 0.0
C562 C 0.92763 0.98999 0.49961 0.0
H563 H 0.90562 0.91108 0.46199 0.0
O564 O 0.91641 0.90503 0.56475 0.0
O565 O 0.89431 0.93779 0.54611 0.0
O566 O 0.86633 0.87068 0.5118 0.0
O567 O 0.86034 0.90825 0.48351 0.0
C568 C 0.96921 0.03432 0.49699 0.0
C569 C 0.95944 0.05595 0.51916 0.0
H570 H 0.93366 0.09011 0.562 0.0
H571 H 0.88758 0.06589 0.58104 0.0
H572 H 0.95099 0.92741 0.44007 0.0
H573 H 0.98227 0.98408 0.45787 0.0
H574 H 0.98917 0.04348 0.48779 0.0
H575 H 0.97199 0.08151 0.52664 0.0
Mn576 Mn 0.96683 0.07061 0.2612 0.0
Mn577 Mn 0.91589 0.06176 0.31296 0.0
C578 C 0.93588 1.01292 0.26631 0.0
C579 C 0.99168 0.07341 0.20716 0.0
C580 C 0.9828 0.07749 0.3385 0.0
O581 O 0.95105 0.11928 0.26842 0.0
O582 O 0.91842 0.10711 0.30069 0.0
C583 C 0.86056 0.06076 0.27429 0.0
N584 N 0.87608 0.04615 0.29268 0.0
C585 C 0.83253 1.00433 0.29473 0.0
C586 C 0.81614 0.01903 0.27592 0.0
C587 C 0.83024 0.04727 0.26555 0.0
C588 C 0.86265 0.01893 0.30279 0.0
H589 H 0.87113 0.08273 0.26659 0.0
C590 C 0.9302 0.12788 0.28428 0.0
O591 O 1.00445 0.08383 0.23601 0.0
O592 O 0.96385 0.06356 0.2091 0.0
N593 N 0.90904 0.0203 0.32619 0.0
C594 C 0.92844 1.00603 0.3397 0.0
C595 C 0.91814 0.97715 0.35092 0.0
C596 C 0.88797 0.96232 0.34678 0.0
C597 C 0.86852 0.9761 0.33074 0.0
C598 C 0.88012 1.00533 0.32069 0.0
H599 H 0.95163 0.01596 0.34095 0.0
O600 O 0.96067 0.01836 0.2556 0.0
O601 O 0.92961 0.04146 0.27391 0.0
O602 O 0.99053 0.07711 0.31039 0.0
O603 O 0.95588 0.07631 0.34065 0.0
C604 C 0.83818 0.96146 0.32352 0.0
C605 C 0.82018 0.97562 0.3056 0.0
H606 H 0.79274 1.00877 0.26918 0.0
H607 H 0.81769 0.05878 0.25107 0.0
H608 H 0.93347 0.96594 0.362 0.0
H609 H 0.88008 0.93971 0.35493 0.0
H610 H 0.82855 0.93896 0.33112 0.0
H611 H 0.79691 0.96391 0.29988 0.0
Mn612 Mn 0.32259 0.67321 0.56243 0.0
Mn613 Mn 0.29122 0.61048 0.5011 0.0
C614 C 0.27224 0.65215 0.55382 0.0
C615 C 0.33988 0.69797 0.61375 0.0
C616 C 0.30925 0.68158 0.4953 0.0
O617 O 0.35753 0.65583 0.5514 0.0
O618 O 0.33401 0.61566 0.50968 0.0
C619 C 0.30262 0.55378 0.52598 0.0
N620 N 0.28338 0.56928 0.51414 0.0
C621 C 0.24297 0.52231 0.51157 0.0
C622 C 0.26224 0.50596 0.52405 0.0
C623 C 0.29226 0.52176 0.53117 0.0
C624 C 0.25459 0.55404 0.50651 0.0
H625 H 0.32573 0.56545 0.53096 0.0
C626 C 0.35699 0.63191 0.529 0.0
O627 O 0.34641 0.71316 0.59125 0.0
O628 O 0.3283 0.66621 0.60598 0.0
N629 N 0.24991 0.60196 0.49028 0.0
C630 C 0.23405 0.62142 0.47921 0.0
C631 C 0.20353 0.6096 0.47188 0.0
C632 C 0.18975 0.57771 0.47543 0.0
C633 C 0.20667 0.55817 0.48667 0.0
C634 C 0.23689 0.57132 0.49384 0.0
H635 H 0.24445 0.64615 0.47701 0.0
O636 O 0.28469 0.68147 0.5701 0.0
O637 O 0.28997 0.63471 0.54356 0.0
O638 O 0.32063 0.69306 0.52373 0.0
O639 O 0.29753 0.65097 0.485 0.0
C640 C 0.19461 0.52687 0.49269 0.0
C641 C 0.21262 0.50862 0.50453 0.0
H642 H 0.25423 0.48129 0.52817 0.0
H643 H 0.30741 0.50922 0.54048 0.0
H644 H 0.19072 0.62534 0.46416 0.0
H645 H 0.16619 0.56873 0.47017 0.0
H646 H 0.1715 0.51752 0.49022 0.0
H647 H 0.20284 0.48471 0.50934 0.0
Mn648 Mn 0.46463 0.56799 0.7614 0.0
Mn649 Mn 0.4157 0.56166 0.81589 0.0
C650 C 0.43322 0.51099 0.76788 0.0
C651 C 0.48968 0.57103 0.70716 0.0
C652 C 0.48242 0.57446 0.83813 0.0
O653 O 0.44999 0.61752 0.76948 0.0
O654 O 0.41838 0.60685 0.80322 0.0
C655 C 0.36098 0.55993 0.77572 0.0
N656 N 0.37606 0.54583 0.79509 0.0
C657 C 0.33334 0.50114 0.79252 0.0
C658 C 0.31736 0.51537 0.77276 0.0
C659 C 0.33128 0.5448 0.76423 0.0
C660 C 0.36293 0.51724 0.80314 0.0
H661 H 0.37144 0.58256 0.76903 0.0
C662 C 0.42995 0.62702 0.78617 0.0
O663 O 0.50231 0.58089 0.73605 0.0
O664 O 0.46184 0.56152 0.70915 0.0
N665 N 0.40856 0.52085 0.83051 0.0
C666 C 0.42662 0.51037 0.85044 0.0
C667 C 0.41585 0.48148 0.86143 0.0
C668 C 0.38648 0.46363 0.85215 0.0
C669 C 0.36813 0.47498 0.83208 0.0
C670 C 0.38003 0.5042 0.82209 0.0
H671 H 0.44903 0.52391 0.85837 0.0
O672 O 0.45721 0.51554 0.75559 0.0
O673 O 0.42798 0.54005 0.77616 0.0
O674 O 0.48884 0.57293 0.80948 0.0
O675 O 0.45643 0.57621 0.84256 0.0
C676 C 0.33841 0.45851 0.82177 0.0
C677 C 0.32105 0.47151 0.80191 0.0
H678 H 0.29443 0.50382 0.7639 0.0
H679 H 0.31911 0.55586 0.74889 0.0
H680 H 0.43018 0.47308 0.87712 0.0
H681 H 0.37826 0.44127 0.86059 0.0
H682 H 0.32868 0.43579 0.82897 0.0
H683 H 0.29823 0.45854 0.79404 0.0
Mn684 Mn 0.70101 0.07839 0.73897 0.0
Mn685 Mn 0.75951 0.11254 0.79561 0.0
C686 C 0.72902 0.13107 0.74167 0.0
C687 C 0.67366 0.05465 0.69035 0.0
C688 C 0.69751 0.09818 0.80806 0.0
O689 O 0.71263 0.03806 0.74943 0.0
O690 O 0.75409 0.06444 0.78447 0.0
C691 C 0.81386 0.10012 0.77532 0.0
N692 N 0.79795 0.12181 0.78436 0.0
C693 C 0.84206 0.16574 0.80365 0.0
C694 C 0.85874 0.14403 0.7936 0.0
C695 C 0.84453 0.11114 0.779 0.0
C696 C 0.81156 0.15363 0.79819 0.0
H697 H 0.80334 0.0744 0.76661 0.0
C698 C 0.73613 0.03855 0.76696 0.0
O699 O 0.6624 0.0531 0.71576 0.0
O700 O 0.70204 0.06532 0.69304 0.0
N701 N 0.76542 0.15907 0.80582 0.0
C702 C 0.74568 0.17718 0.8108 0.0
C703 C 0.7558 0.21167 0.81993 0.0
C704 C 0.78612 0.22641 0.82625 0.0
C705 C 0.80573 0.20703 0.82106 0.0
C706 C 0.79413 0.17352 0.80844 0.0
H707 H 0.72251 0.16535 0.80747 0.0
O708 O 0.70139 0.12257 0.73082 0.0
O709 O 0.73914 0.10934 0.75324 0.0
O710 O 0.68577 0.08876 0.77977 0.0
O711 O 0.72478 0.10653 0.81557 0.0
C712 C 0.83627 0.21947 0.82816 0.0
C713 C 0.85443 0.19859 0.81997 0.0
H714 H 0.88242 0.15225 0.79727 0.0
H715 H 0.85724 0.09397 0.77178 0.0
H716 H 0.74048 0.22656 0.82363 0.0
H717 H 0.7944 0.25247 0.83515 0.0
H718 H 0.84579 0.24479 0.84041 0.0
H719 H 0.87779 0.20776 0.82669 0.0
Mn720 Mn 0.79278 0.71634 0.01591 0.0
Mn721 Mn 0.78306 0.65311 0.95341 0.0
C722 C 0.74486 0.6782 0.99853 0.0
C723 C 0.80178 0.73845 0.07293 0.0
C724 C 0.80138 0.72565 0.94693 0.0
O725 O 0.83378 0.70758 0.01574 0.0
O726 O 0.82255 0.65986 0.97872 0.0
C727 C 0.7851 0.59105 0.97337 0.0
N728 N 0.76914 0.6097 0.96104 0.0
C729 C 0.72742 0.5625 0.94393 0.0
C730 C 0.74298 0.54334 0.95796 0.0
C731 C 0.77203 0.55764 0.97255 0.0
C732 C 0.74169 0.59565 0.94541 0.0
H733 H 0.80793 0.60127 0.98272 0.0
C734 C 0.84015 0.68173 1.00118 0.0
O735 O 0.8068 0.75693 0.05246 0.0
O736 O 0.79232 0.70722 0.06045 0.0
N737 N 0.74494 0.64576 0.93011 0.0
C738 C 0.73349 0.66716 0.91631 0.0
C739 C 0.70457 0.65678 0.90062 0.0
C740 C 0.68776 0.62447 0.89914 0.0
C741 C 0.69993 0.60299 0.91375 0.0
C742 C 0.72867 0.61498 0.92962 0.0
H743 H 0.74619 0.69205 0.91741 0.0
O744 O 0.74835 0.70874 1.01255 0.0
O745 O 0.76952 0.67251 0.99189 0.0
O746 O 0.79739 0.73814 0.97488 0.0
O747 O 0.79773 0.69465 0.93854 0.0
C748 C 0.68472 0.57012 0.91307 0.0
C749 C 0.69858 0.54976 0.92783 0.0
H750 H 0.73302 0.51748 0.95714 0.0
H751 H 0.78454 0.54276 0.98251 0.0
H752 H 0.69529 0.67361 0.88962 0.0
H753 H 0.66554 0.61644 0.88676 0.0
H754 H 0.66251 0.5601 0.90086 0.0
H755 H 0.68692 0.52429 0.92652 0.0
Mn756 Mn 0.96739 0.54876 0.81702 0.0
Mn757 Mn 0.91418 0.53408 0.86114 0.0
C758 C 0.9506 0.49637 0.82662 0.0
C759 C 0.98067 0.5456 0.76826 0.0
C760 C 0.97791 0.57198 0.88742 0.0
O761 O 0.95023 0.58779 0.81623 0.0
O762 O 0.91155 0.57053 0.83973 0.0
C763 C 0.86348 0.5108 0.80967 0.0
N764 N 0.87828 0.50677 0.8364 0.0
C765 C 0.84026 0.45877 0.83852 0.0
C766 C 0.82447 0.46258 0.81119 0.0
C767 C 0.83627 0.48851 0.79653 0.0
C768 C 0.86751 0.48132 0.8501 0.0
H769 H 0.87239 0.53086 0.7985 0.0
C770 C 0.92549 0.58963 0.82368 0.0
O771 O 0.99849 0.56507 0.79239 0.0
O772 O 0.95417 0.53273 0.77204 0.0
N773 N 0.91256 0.49809 0.8822 0.0
C774 C 0.93291 0.49349 0.90383 0.0
C775 C 0.92495 0.46883 0.92118 0.0
C776 C 0.8963 0.44819 0.91505 0.0
C777 C 0.87622 0.45184 0.891 0.0
C778 C 0.88534 0.47744 0.87516 0.0
H779 H 0.95539 0.50697 0.90599 0.0
O780 O 0.97638 0.5055 0.81912 0.0
O781 O 0.93625 0.51862 0.82959 0.0
O782 O 0.98775 0.56809 0.86149 0.0
O783 O 0.95073 0.56149 0.88957 0.0
C784 C 0.84815 0.42995 0.8809 0.0
C785 C 0.83037 0.43309 0.85435 0.0
H786 H 0.80346 0.44551 0.80104 0.0
H787 H 0.82435 0.4914 0.77525 0.0
H788 H 0.94111 0.46498 0.93838 0.0
H789 H 0.89043 0.42858 0.92779 0.0
H790 H 0.84058 0.40972 0.89248 0.0
H791 H 0.80933 0.41533 0.84603 0.0
Mn792 Mn 0.86016 0.44794 0.51058 0.0
Mn793 Mn 0.87562 0.50592 0.4673 0.0
C794 C 0.90678 0.46412 0.49913 0.0
C795 C 0.86011 0.4322 0.55788 0.0
C796 C 0.84687 0.4331 0.43959 0.0
O797 O 0.82597 0.46783 0.51404 0.0
O798 O 0.83736 0.50559 0.48404 0.0
C799 C 0.88312 0.56704 0.5154 0.0
N800 N 0.89487 0.54713 0.49557 0.0
C801 C 0.94262 0.58547 0.51069 0.0
C802 C 0.93126 0.60534 0.53252 0.0
C803 C 0.90129 0.59623 0.53466 0.0
C804 C 0.92356 0.5562 0.49269 0.0
H805 H 0.85995 0.56112 0.51597 0.0
C806 C 0.82103 0.4914 0.50206 0.0
O807 O 0.8439 0.413 0.53259 0.0
O808 O 0.87293 0.46197 0.55597 0.0
N809 N 0.91233 0.51033 0.45161 0.0
C810 C 0.91798 0.49415 0.42417 0.0
C811 C 0.9466 0.50113 0.41696 0.0
C812 C 0.96868 0.52656 0.43682 0.0
C813 C 0.96157 0.54559 0.46292 0.0
C814 C 0.93283 0.53667 0.46942 0.0
H815 H 0.90061 0.47646 0.40761 0.0
O816 O 0.89714 0.43579 0.50635 0.0
O817 O 0.88835 0.48246 0.49853 0.0
O818 O 0.84439 0.42446 0.46567 0.0
O819 O 0.85768 0.46296 0.43683 0.0
C820 C 0.98144 0.5741 0.48166 0.0
C821 C 0.97189 0.59419 0.50535 0.0
H822 H 0.94515 0.62812 0.54709 0.0
H823 H 0.89211 0.61196 0.55071 0.0
H824 H 0.95145 0.48752 0.39574 0.0
H825 H 0.99062 0.53234 0.43091 0.0
H826 H 1.00383 0.58146 0.47731 0.0
H827 H 0.9871 0.61669 0.51889 0.0
Mn828 Mn 0.69931 0.53901 0.27964 0.0
Mn829 Mn 0.755 0.55907 0.3404 0.0
C830 C 0.7313 0.59831 0.29618 0.0
C831 C 0.6739 0.53243 0.22133 0.0
C832 C 0.6895 0.54156 0.35484 0.0
O833 O 0.71505 0.49126 0.27877 0.0
O834 O 0.75164 0.51003 0.31937 0.0
C835 C 0.80666 0.55442 0.30896 0.0
N836 N 0.79245 0.57273 0.32735 0.0
C837 C 0.83295 0.62117 0.33512 0.0
C838 C 0.84796 0.60275 0.31637 0.0
C839 C 0.83475 0.56925 0.30324 0.0
C840 C 0.80514 0.60498 0.34036 0.0
H841 H 0.79672 0.52868 0.29864 0.0
C842 C 0.7375 0.48564 0.29642 0.0
O843 O 0.66086 0.52418 0.24439 0.0
O844 O 0.70198 0.54051 0.23074 0.0
N845 N 0.76191 0.60459 0.36086 0.0
C846 C 0.74308 0.62022 0.37451 0.0
C847 C 0.75263 0.65406 0.38812 0.0
C848 C 0.78109 0.67192 0.38644 0.0
C849 C 0.79953 0.65582 0.37067 0.0
C850 C 0.78898 0.62183 0.3581 0.0
H851 H 0.72062 0.60729 0.37417 0.0
O852 O 0.7039 0.59032 0.28433 0.0
O853 O 0.7382 0.57121 0.30117 0.0
O854 O 0.67947 0.53767 0.32477 0.0
O855 O 0.71758 0.54714 0.36146 0.0
C856 C 0.82759 0.67244 0.36604 0.0
C857 C 0.84433 0.6551 0.34837 0.0
H858 H 0.86954 0.61414 0.31169 0.0
H859 H 0.84618 0.55489 0.28865 0.0
H860 H 0.73783 0.66653 0.39918 0.0
H861 H 0.7882 0.69817 0.39642 0.0
H862 H 0.83631 0.69868 0.37553 0.0
H863 H 0.86576 0.66824 0.34468 0.0
Gd864 Gd 0.06726 0.036 1.01055 0.0
Gd865 Gd 0.10583 0.07031 0.04633 0.0
C866 C 0.07309 0.11353 1.01133 0.0
C867 C 1.0145 1.01339 0.98009 0.0
C868 C 0.99016 0.02769 0.98753 0.0
C869 C 0.96612 0.02457 0.96473 0.0
C870 C 0.99308 0.04852 0.01701 0.0
C871 C 0.94866 0.0633 1.00096 0.0
C872 C 0.97269 0.06633 0.02355 0.0
C873 C 0.94527 0.04213 0.97152 0.0
C874 C 0.11329 0.03834 0.97106 0.0
C875 C 0.09847 0.99173 0.04421 0.0
C876 C 0.15915 0.09106 0.07599 0.0
C877 C 0.18371 0.07734 0.06731 0.0
C878 C 0.20858 0.08069 0.08918 0.0
C879 C 0.18105 0.05813 0.03706 0.0
C880 C 0.22829 0.04755 0.04976 0.0
C881 C 0.2031 0.04357 0.02832 0.0
C882 C 0.23082 0.06591 0.08043 0.0
C883 C 0.05977 0.06938 0.08561 0.0
O884 O 0.05452 0.08424 1.00608 0.0
O885 O 0.09868 0.11575 0.02745 0.0
O886 O 0.03525 0.033 0.97022 0.0
O887 O 0.02492 0.99962 1.00135 0.0
O888 O 0.09381 1.01254 0.97483 0.0
O889 O 0.10919 0.06199 0.99235 0.0
O890 O 0.1175 0.02081 0.04941 0.0
O891 O 0.07298 0.99019 0.02866 0.0
O892 O 0.13845 0.07071 0.08521 0.0
O893 O 0.14851 0.10623 0.05611 0.0
O894 O 0.08002 0.09483 0.08246 0.0
O895 O 0.06389 0.04523 0.06482 0.0
H896 H 0.96377 1.0091 0.94167 0.0
H897 H 1.01164 0.05171 0.03481 0.0
H898 H 0.97549 0.08247 0.0463 0.0
H899 H 0.9267 0.03948 0.95385 0.0
H900 H 0.21077 0.09467 0.11289 0.0
H901 H 0.16173 0.05423 0.02011 0.0
H902 H 0.20068 0.02946 1.00461 0.0
H903 H 0.25013 0.06919 0.09732 0.0
Gd904 Gd 0.35714 0.80303 0.26159 0.0
Gd905 Gd 0.32056 0.81278 0.29917 0.0
C906 C 0.36278 0.87506 0.28893 0.0
C907 C 0.3847 0.79462 0.21429 0.0
C908 C 0.38536 0.81456 0.19029 0.0
C909 C 0.40637 0.81681 0.16997 0.0
C910 C 0.36548 0.83404 0.18973 0.0
C911 C 0.38635 0.85696 0.14809 0.0
C912 C 0.36638 0.85552 0.1694 0.0
C913 C 0.40658 0.83768 0.14845 0.0
C914 C 0.38594 0.8046 0.321 0.0
C915 C 0.31061 0.74068 0.26195 0.0
C916 C 0.28855 0.81188 0.34384 0.0
C917 C 0.28497 0.79619 0.3708 0.0
C918 C 0.25751 0.78832 0.38076 0.0
C919 C 0.30885 0.7889 0.38669 0.0
C920 C 0.27786 0.76546 0.42216 0.0
C921 C 0.30532 0.77374 0.41211 0.0
C922 C 0.25401 0.77334 0.4066 0.0
C923 C 0.29771 0.83053 0.2456 0.0
O924 O 0.36164 0.85563 0.26233 0.0
O925 O 0.35077 0.86274 0.31102 0.0
O926 O 0.39765 0.81153 0.24195 0.0
O927 O 0.35896 0.77575 0.2153 0.0
O928 O 0.39593 0.82142 0.30084 0.0
O929 O 0.3589 0.79001 0.30994 0.0
O930 O 0.29756 0.76297 0.2727 0.0
O931 O 0.33829 0.74971 0.25988 0.0
O932 O 0.28045 0.79223 0.31643 0.0
O933 O 0.31334 0.83371 0.34548 0.0
O934 O 0.29933 0.84535 0.27443 0.0
O935 O 0.31049 0.80709 0.24638 0.0
H936 H 0.4222 0.80233 0.17053 0.0
H937 H 0.3489 0.83246 0.20492 0.0
H938 H 0.35054 0.87005 0.1693 0.0
H939 H 0.42201 0.83842 0.1319 0.0
H940 H 0.23885 0.79379 0.36856 0.0
H941 H 0.33016 0.79457 0.37924 0.0
H942 H 0.32406 0.76778 0.42362 0.0
H943 H 0.23281 0.76798 0.41427 0.0
Gd944 Gd 0.61443 0.05938 0.51778 0.0
Gd945 Gd 0.5523 0.05799 0.5393 0.0
C946 C 0.56599 0.98809 0.51273 0.0
C947 C 0.66556 0.04831 0.51284 0.0
C948 C 0.68269 0.02342 0.51627 0.0
C949 C 0.69782 1.01297 0.49204 0.0
C950 C 0.68667 1.01243 0.54453 0.0
C951 C 0.72194 0.98329 0.52507 0.0
C952 C 0.70582 0.99245 0.54876 0.0
C953 C 0.71723 0.99323 0.49639 0.0
C954 C 0.57262 0.06861 0.47509 0.0
C955 C 0.60277 0.12935 0.54636 0.0
C956 C 0.50174 0.06981 0.54643 0.0
C957 C 0.48447 0.09482 0.54424 0.0
C958 C 0.47155 0.10653 0.56992 0.0
C959 C 0.47791 0.10447 0.51579 0.0
C960 C 0.44282 0.13257 0.5373 0.0
C961 C 0.45704 0.12251 0.51215 0.0
C962 C 0.4514 0.12561 0.56665 0.0
C963 C 0.59237 0.0447 0.57965 0.0
O964 O 0.59359 1.00497 0.51449 0.0
O965 O 0.54479 1.00291 0.51862 0.0
O966 O 0.6445 0.04133 0.48897 0.0
O967 O 0.65911 0.0644 0.53842 0.0
O968 O 0.60068 0.07966 0.4754 0.0
O969 O 0.56922 0.05079 0.4951 0.0
O970 O 0.57488 0.11315 0.5449 0.0
O971 O 0.62308 0.11392 0.5389 0.0
O972 O 0.52332 0.07619 0.56967 0.0
O973 O 0.50738 0.05393 0.5203 0.0
O974 O 0.56423 0.03299 0.57818 0.0
O975 O 0.59721 0.06564 0.56249 0.0
H976 H 0.69552 0.02117 0.47009 0.0
H977 H 0.67589 0.02034 0.56388 0.0
H978 H 0.7091 0.98537 0.57116 0.0
H979 H 0.72943 0.98678 0.47776 0.0
H980 H 0.47626 0.09995 0.59232 0.0
H981 H 0.48875 0.09778 0.4962 0.0
H982 H 0.45151 0.12799 0.4894 0.0
H983 H 0.44129 0.13347 0.58668 0.0
Gd984 Gd 0.30884 0.31471 0.7802 0.0
Gd985 Gd 0.35564 0.2926 0.77994 0.0
C986 C 0.34376 0.31895 0.8481 0.0
C987 C 0.26011 0.32947 0.79223 0.0
C988 C 0.23679 0.32234 0.81222 0.0
C989 C 0.2098 0.32888 0.80393 0.0
C990 C 0.24119 0.31045 0.8399 0.0
C991 C 0.19178 0.31156 0.85026 0.0
C992 C 0.21891 0.30517 0.85877 0.0
C993 C 0.18761 0.32359 0.82267 0.0
C994 C 0.35461 0.36825 0.76958 0.0
C995 C 0.3193 0.28793 0.71181 0.0
C996 C 0.40532 0.27959 0.76852 0.0
C997 C 0.42954 0.28734 0.74948 0.0
C998 C 0.44667 0.2649 0.74326 0.0
C999 C 0.4365 0.31677 0.7381 0.0
C1000 C 0.4775 0.3011 0.71525 0.0
C1001 C 0.46017 0.32351 0.72111 0.0
C1002 C 0.47031 0.27168 0.72648 0.0
C1003 C 0.31011 0.23969 0.79151 0.0
O1004 O 0.3176 0.31273 0.83178 0.0
O1005 O 0.36544 0.31589 0.8324 0.0
O1006 O 0.28606 0.34648 0.80637 0.0
O1007 O 0.26133 0.30581 0.76948 0.0
O1008 O 0.32734 0.35807 0.75658 0.0
O1009 O 0.35655 0.34785 0.78811 0.0
O1010 O 0.34561 0.29306 0.72767 0.0
O1011 O 0.29814 0.2918 0.72799 0.0
O1012 O 0.37972 0.26198 0.75377 0.0
O1013 O 0.40312 0.30283 0.79113 0.0
O1014 O 0.33749 0.24927 0.80421 0.0
O1015 O 0.30797 0.25947 0.77241 0.0
H1016 H 0.20593 0.33844 0.78299 0.0
H1017 H 0.26189 0.30556 0.84712 0.0
H1018 H 0.2229 0.29633 0.88011 0.0
H1019 H 0.16714 0.32918 0.81575 0.0
H1020 H 0.44185 0.24203 0.75164 0.0
H1021 H 0.42375 0.33457 0.74243 0.0
H1022 H 0.46504 0.3463 0.71262 0.0
H1023 H 0.48302 0.25382 0.72216 0.0
Gd1024 Gd 0.07673 0.08514 0.54216 0.0
Gd1025 Gd 0.09384 0.0265 0.51114 0.0
C1026 C 0.05748 0.06232 0.46217 0.0
C1027 C 0.07833 0.14668 0.55673 0.0
C1028 C 0.08575 0.17212 0.53753 0.0
C1029 C 0.06477 0.17453 0.51346 0.0
C1030 C 0.11459 0.19195 0.54091 0.0
C1031 C 0.10153 0.21489 0.49611 0.0
C1032 C 0.12239 0.21313 0.52036 0.0
C1033 C 0.07265 0.19557 0.49284 0.0
C1034 C 0.03172 0.03129 0.54687 0.0
C1035 C 0.11363 0.05072 0.59129 0.0
C1036 C 0.09563 0.96577 0.50029 0.0
C1037 C 0.08631 0.94261 0.52098 0.0
C1038 C 0.09962 0.91701 0.52408 0.0
C1039 C 0.06631 0.949 0.54107 0.0
C1040 C 0.07035 0.90265 0.56469 0.0
C1041 C 0.05774 0.92874 0.56192 0.0
C1042 C 0.09201 0.89742 0.5462 0.0
C1043 C 0.13813 0.07995 0.50644 0.0
O1044 O 0.06015 0.08484 0.48879 0.0
O1045 O 0.06767 0.03574 0.46517 0.0
O1046 O 0.05395 0.12357 0.54621 0.0
O1047 O 0.09976 0.13495 0.56701 0.0
O1048 O 0.0334 0.06223 0.55719 0.0
O1049 O 0.05477 0.03073 0.53407 0.0
O1050 O 0.11145 0.02853 0.56461 0.0
O1051 O 0.1021 0.07625 0.58841 0.0
O1052 O 0.11855 0.99006 0.513 0.0
O1053 O 0.07489 0.97578 0.48587 0.0
O1054 O 0.13651 0.04944 0.4945 0.0
O1055 O 0.11521 0.08043 0.51915 0.0
H1056 H 0.04235 0.15968 0.51007 0.0
H1057 H 0.13128 0.19064 0.55906 0.0
H1058 H 0.14474 0.22808 0.52329 0.0
H1059 H 0.05622 0.19689 0.47439 0.0
H1060 H 0.11618 0.91262 0.5099 0.0
H1061 H 0.05781 0.9703 0.54124 0.0
H1062 H 0.0416 0.93385 0.57646 0.0
H1063 H 0.10258 0.87794 0.54856 0.0
Gd1064 Gd 0.35845 0.82807 0.7836 0.0
Gd1065 Gd 0.30723 0.78301 0.79135 0.0
C1066 C 0.36678 0.75016 0.79108 0.0
C1067 C 0.40657 0.87199 0.78956 0.0
C1068 C 0.43552 0.86577 0.78993 0.0
C1069 C 0.45814 0.88584 0.77851 0.0
C1070 C 0.44111 0.84041 0.80428 0.0
C1071 C 0.49222 0.85934 0.80171 0.0
C1072 C 0.46916 0.83702 0.80985 0.0
C1073 C 0.48667 0.88261 0.78442 0.0
C1074 C 0.33942 0.77926 0.73272 0.0
C1075 C 0.29854 0.86055 0.78334 0.0
C1076 C 0.25519 0.74457 0.78571 0.0
C1077 C 0.22585 0.74831 0.7774 0.0
C1078 C 0.21541 0.77259 0.79545 0.0
C1079 C 0.20943 0.72973 0.74873 0.0
C1080 C 0.17383 0.76124 0.75488 0.0
C1081 C 0.18365 0.73635 0.73741 0.0
C1082 C 0.1893 0.77892 0.78421 0.0
C1083 C 0.33681 0.82342 0.8458 0.0
O1084 O 0.37984 0.78292 0.79376 0.0
O1085 O 0.33736 0.74409 0.78935 0.0
O1086 O 0.38886 0.86163 0.76266 0.0
O1087 O 0.39405 0.86469 0.81369 0.0
O1088 O 0.3664 0.79242 0.74468 0.0
O1089 O 0.32286 0.79387 0.74728 0.0
O1090 O 0.28595 0.82967 0.7878 0.0
O1091 O 0.32696 0.86487 0.7789 0.0
O1092 O 0.27007 0.76145 0.81269 0.0
O1093 O 0.27083 0.74547 0.76305 0.0
O1094 O 0.32624 0.79183 0.84326 0.0
O1095 O 0.33152 0.83044 0.81986 0.0
H1096 H 0.45412 0.9052 0.76701 0.0
H1097 H 0.42436 0.82493 0.81383 0.0
H1098 H 0.47326 0.81913 0.82337 0.0
H1099 H 0.50454 0.90005 0.77816 0.0
H1100 H 0.22776 0.78731 0.81762 0.0
H1101 H 0.2172 0.71101 0.73448 0.0
H1102 H 0.17157 0.72245 0.71479 0.0
H1103 H 0.18149 0.79794 0.79791 0.0
Gd1104 Gd 0.5989 0.05063 0.05861 0.0
Gd1105 Gd 0.58787 0.08508 0.01427 0.0
C1106 C 0.53454 0.02748 0.02292 0.0
C1107 C 0.60352 0.03126 0.1105 0.0
C1108 C 0.58146 0.02477 0.13119 0.0
C1109 C 0.55721 0.99673 0.12248 0.0
C1110 C 0.58259 0.04882 0.15787 0.0
C1111 C 0.53488 0.01858 0.16537 0.0
C1112 C 0.55929 0.04593 0.17458 0.0
C1113 C 0.53398 0.99362 0.13962 0.0
C1114 C 0.61394 1.01521 1.008 0.0
C1115 C 0.65157 0.10146 0.04446 0.0
C1116 C 0.57761 0.11466 0.96917 0.0
C1117 C 0.59288 0.11974 0.94282 0.0
C1118 C 0.58833 0.14288 0.925 0.0
C1119 C 0.6144 0.10309 0.9374 0.0
C1120 C 0.6256 0.13057 0.8949 0.0
C1121 C 0.63032 0.10805 0.91332 0.0
C1122 C 0.60494 0.14851 0.90101 0.0
C1123 C 0.57715 0.11429 0.07108 0.0
O1124 O 0.55147 0.02537 0.0475 0.0
O1125 O 0.54421 0.04766 1.00461 0.0
O1126 O 0.59761 1.011 0.0832 0.0
O1127 O 0.61356 0.06228 0.10873 0.0
O1128 O 0.61857 1.01232 0.03657 0.0
O1129 O 0.60421 0.04028 1.00632 0.0
O1130 O 0.63606 0.09215 0.01646 0.0
O1131 O 0.6386 0.09331 0.06778 0.0
O1132 O 0.59354 0.12971 0.99605 0.0
O1133 O 0.56432 0.08401 0.96888 0.0
O1134 O 0.59591 0.12853 0.05526 0.0
O1135 O 0.5693 0.08399 0.05856 0.0
H1136 H 0.55583 0.97757 0.1021 0.0
H1137 H 0.60098 0.07052 0.16511 0.0
H1138 H 0.56031 0.06501 0.19496 0.0
H1139 H 0.51553 0.97194 0.13298 0.0
H1140 H 0.57226 0.15658 0.92979 0.0
H1141 H 0.61903 0.08647 0.95206 0.0
H1142 H 0.6463 0.0941 0.90886 0.0
H1143 H 0.60141 0.16618 0.88701 0.0
Gd1144 Gd 0.34803 0.33521 0.29815 0.0
Gd1145 Gd 0.3111 0.27211 0.25739 0.0
C1146 C 0.27683 0.31837 0.29336 0.0
C1147 C 0.36591 0.39803 0.31546 0.0
C1148 C 0.34675 0.42002 0.31133 0.0
C1149 C 0.32945 0.42731 0.33449 0.0
C1150 C 0.34155 0.42878 0.28216 0.0
C1151 C 0.30198 0.45068 0.29922 0.0
C1152 C 0.31937 0.44405 0.27622 0.0
C1153 C 0.30701 0.44222 0.32834 0.0
C1154 C 0.33812 0.293 0.33943 0.0
C1155 C 0.3824 0.28772 0.26464 0.0
C1156 C 0.29063 0.20923 0.23668 0.0
C1157 C 0.30387 0.18416 0.24649 0.0
C1158 C 0.30422 0.15534 0.22527 0.0
C1159 C 0.32151 0.19275 0.27581 0.0
C1160 C 0.34115 0.14554 0.26243 0.0
C1161 C 0.34007 0.1739 0.28346 0.0
C1162 C 0.32244 0.13562 0.2335 0.0
C1163 C 0.32208 0.31625 0.21687 0.0
O1164 O 0.30219 0.34084 0.30006 0.0
O1165 O 0.2739 0.28855 0.27675 0.0
O1166 O 0.35904 0.37899 0.3353 0.0
O1167 O 0.37223 0.38222 0.28976 0.0
O1168 O 0.35674 0.32179 0.34538 0.0
O1169 O 0.32831 0.28543 0.3096 0.0
O1170 O 0.35681 0.26555 0.25939 0.0
O1171 O 0.38502 0.31805 0.27967 0.0
O1172 O 0.30732 0.22831 0.2219 0.0
O1173 O 0.27958 0.22601 0.25817 0.0
O1174 O 0.30428 0.28695 0.21007 0.0
O1175 O 0.33076 0.32176 0.24665 0.0
H1176 H 0.3328 0.4208 0.35715 0.0
H1177 H 0.3542 0.42326 0.26368 0.0
H1178 H 0.31612 0.45137 0.25391 0.0
H1179 H 0.29431 0.44827 0.34661 0.0
H1180 H 0.29118 0.14873 0.20219 0.0
H1181 H 0.32212 0.21518 0.29223 0.0
H1182 H 0.35431 0.18175 0.30576 0.0
H1183 H 0.32248 0.11335 0.21718 0.0
Gd1184 Gd 0.57325 0.58327 0.04349 0.0
Gd1185 Gd 0.58952 0.52304 1.01246 0.0
C1186 C 0.55255 0.55772 0.96319 0.0
C1187 C 0.57036 0.64397 0.05702 0.0
C1188 C 0.57849 0.66899 0.03796 0.0
C1189 C 0.57273 0.7001 0.04444 0.0
C1190 C 0.59082 0.66026 1.01116 0.0
C1191 C 0.59366 0.71358 0.99832 0.0
C1192 C 0.59895 0.68246 0.99191 0.0
C1193 C 0.58022 0.72238 0.02454 0.0
C1194 C 0.52926 0.5292 0.04885 0.0
C1195 C 0.61055 0.54874 0.0922 0.0
C1196 C 0.58721 0.46084 1.00074 0.0
C1197 C 0.57541 0.43469 0.01825 0.0
C1198 C 0.59275 0.42966 0.04416 0.0
C1199 C 0.5461 0.41576 1.01042 0.0
C1200 C 0.5512 0.38925 0.05486 0.0
C1201 C 0.53406 0.39363 0.02873 0.0
C1202 C 0.58079 0.40708 0.06219 0.0
C1203 C 0.63645 0.57577 1.01037 0.0
O1204 O 0.55521 0.58038 0.98977 0.0
O1205 O 0.56394 0.53209 0.96632 0.0
O1206 O 0.54805 0.61938 0.04329 0.0
O1207 O 0.59189 0.63384 0.06958 0.0
O1208 O 0.53089 0.55979 0.0605 0.0
O1209 O 0.55213 0.52957 0.03604 0.0
O1210 O 0.60582 0.52495 0.06612 0.0
O1211 O 0.60095 0.5755 0.08878 0.0
O1212 O 0.61077 0.48366 0.01497 0.0
O1213 O 0.56823 0.47311 0.98623 0.0
O1214 O 0.63265 0.54509 0.99682 0.0
O1215 O 0.61299 0.57738 0.02208 0.0
H1216 H 0.56245 0.70704 0.06461 0.0
H1217 H 0.59457 0.63605 1.00535 0.0
H1218 H 0.60926 0.67526 0.97182 0.0
H1219 H 0.57587 0.74642 0.0297 0.0
H1220 H 0.61552 0.44341 0.05076 0.0
H1221 H 0.53236 0.41817 0.99019 0.0
H1222 H 0.51136 0.37961 0.02233 0.0
H1223 H 0.59458 0.4036 0.08191 0.0
Gd1224 Gd 0.85513 0.32693 0.27657 0.0
Gd1225 Gd 0.80476 0.28054 0.28589 0.0
C1226 C 0.86449 0.2486 0.28521 0.0
C1227 C 0.90678 0.3649 0.28411 0.0
C1228 C 0.93487 0.35711 0.2877 0.0
C1229 C 0.95846 0.37472 0.27576 0.0
C1230 C 0.93874 0.33345 0.30526 0.0
C1231 C 0.99035 0.34978 0.30418 0.0
C1232 C 0.96638 0.32963 0.31325 0.0
C1233 C 0.98634 0.37106 0.28408 0.0
C1234 C 0.82609 0.28552 0.22276 0.0
C1235 C 0.79723 0.36055 0.28073 0.0
C1236 C 0.75244 0.2429 0.27095 0.0
C1237 C 0.72314 0.24756 0.26599 0.0
C1238 C 0.71406 0.27117 0.28652 0.0
C1239 C 0.70612 0.23211 0.23679 0.0
C1240 C 0.67167 0.26429 0.24781 0.0
C1241 C 0.68077 0.24069 0.22761 0.0
C1242 C 0.68802 0.27917 0.27757 0.0
C1243 C 0.83214 0.32089 0.3396 0.0
O1244 O 0.87651 0.2804 0.28258 0.0
O1245 O 0.83556 0.24275 0.28763 0.0
O1246 O 0.89081 0.35363 0.25638 0.0
O1247 O 0.89206 0.36062 0.30738 0.0
O1248 O 0.83596 0.31735 0.22562 0.0
O1249 O 0.83199 0.27852 0.24895 0.0
O1250 O 0.78448 0.32849 0.28212 0.0
O1251 O 0.82602 0.36611 0.27845 0.0
O1252 O 0.76667 0.24972 0.29964 0.0
O1253 O 0.76833 0.25422 0.25073 0.0
O1254 O 0.82015 0.28958 0.3378 0.0
O1255 O 0.82798 0.32856 0.31345 0.0
H1256 H 0.95565 0.39272 0.26187 0.0
H1257 H 0.92091 0.31972 0.31495 0.0
H1258 H 0.96941 0.31327 0.32895 0.0
H1259 H 1.00485 0.38682 0.27722 0.0
H1260 H 0.72732 0.28387 0.30889 0.0
H1261 H 0.71319 0.21438 0.22045 0.0
H1262 H 0.66802 0.22872 0.20477 0.0
H1263 H 0.68076 0.29701 0.29353 0.0
Gd1264 Gd 0.09661 0.54282 0.56235 0.0
Gd1265 Gd 0.08006 0.57651 0.5074 0.0
C1266 C 0.03104 0.51925 0.52444 0.0
C1267 C 0.10183 0.52629 0.61557 0.0
C1268 C 0.07982 0.51696 0.63558 0.0
C1269 C 0.05793 0.48676 0.62659 0.0
C1270 C 0.07871 0.53995 0.66221 0.0
C1271 C 0.03341 0.50394 0.66938 0.0
C1272 C 0.05554 0.53355 0.67886 0.0
C1273 C 0.03474 0.48027 0.6435 0.0
C1274 C 0.10927 0.50947 0.50816 0.0
C1275 C 0.147 0.59542 0.54436 0.0
C1276 C 0.07217 0.5984 0.45725 0.0
C1277 C 0.09025 0.60431 0.43339 0.0
C1278 C 0.07977 0.61405 0.40654 0.0
C1279 C 0.1187 0.60063 0.43799 0.0
C1280 C 0.12517 0.61263 0.38739 0.0
C1281 C 0.13603 0.6044 0.41484 0.0
C1282 C 0.0974 0.61835 0.38337 0.0
C1283 C 0.06248 0.60546 0.55981 0.0
O1284 O 0.04867 0.51971 0.54985 0.0
O1285 O 0.03922 0.53614 0.50284 0.0
O1286 O 0.099 0.50546 0.58896 0.0
O1287 O 0.10797 0.55728 0.61279 0.0
O1288 O 0.11524 0.50447 0.53604 0.0
O1289 O 0.09871 0.53437 0.51092 0.0
O1290 O 0.1299 0.59287 0.51761 0.0
O1291 O 0.13707 0.58304 0.56771 0.0
O1292 O 0.08369 0.61754 0.48468 0.0
O1293 O 0.06171 0.56721 0.45832 0.0
O1294 O 0.05989 0.61386 0.5332 0.0
O1295 O 0.07521 0.58245 0.55757 0.0
H1296 H 0.05824 0.46851 0.60608 0.0
H1297 H 0.09525 0.56331 0.66957 0.0
H1298 H 0.05469 0.55186 0.69912 0.0
H1299 H 0.01783 0.4572 0.63632 0.0
H1300 H 0.05797 0.61765 0.40331 0.0
H1301 H 0.1271 0.59383 0.45903 0.0
H1302 H 0.15736 0.59955 0.41758 0.0
H1303 H 0.08916 0.62483 0.362 0.0
Gd1304 Gd 0.81151 0.81875 0.28197 0.0
Gd1305 Gd 0.85781 0.79074 0.28014 0.0
C1306 C 0.8469 0.81984 0.3502 0.0
C1307 C 0.76121 0.82843 0.29363 0.0
C1308 C 0.74031 0.82187 0.31655 0.0
C1309 C 0.73749 0.8484 0.33922 0.0
C1310 C 0.72173 0.79026 0.31501 0.0
C1311 C 0.6962 0.81271 0.3559 0.0
C1312 C 0.69992 0.78577 0.33447 0.0
C1313 C 0.71589 0.84386 0.35875 0.0
C1314 C 0.85567 0.87348 0.27298 0.0
C1315 C 0.82006 0.78695 0.21232 0.0
C1316 C 0.90941 0.78222 0.272 0.0
C1317 C 0.93351 0.79027 0.25294 0.0
C1318 C 0.94978 0.7672 0.24531 0.0
C1319 C 0.94065 0.82 0.24212 0.0
C1320 C 0.98042 0.80356 0.21732 0.0
C1321 C 0.96387 0.82657 0.22453 0.0
C1322 C 0.97288 0.77372 0.2278 0.0
C1323 C 0.81313 0.7356 0.28722 0.0
O1324 O 0.82523 0.82715 0.33443 0.0
O1325 O 0.86411 0.80547 0.33407 0.0
O1326 O 0.78637 0.84963 0.30484 0.0
O1327 O 0.76364 0.80384 0.27237 0.0
O1328 O 0.82824 0.87116 0.27424 0.0
O1329 O 0.85903 0.84428 0.27551 0.0
O1330 O 0.84442 0.78397 0.2273 0.0
O1331 O 0.80175 0.79893 0.22873 0.0
O1332 O 0.88475 0.76206 0.25716 0.0
O1333 O 0.90537 0.80578 0.29334 0.0
O1334 O 0.84063 0.73771 0.28658 0.0
O1335 O 0.81001 0.76495 0.28527 0.0
H1336 H 0.75131 0.87308 0.34106 0.0
H1337 H 0.7233 0.7692 0.29803 0.0
H1338 H 0.68499 0.76155 0.33167 0.0
H1339 H 0.71341 0.86512 0.37484 0.0
H1340 H 0.94469 0.74399 0.25309 0.0
H1341 H 0.92838 0.83816 0.24732 0.0
H1342 H 0.96903 0.84971 0.21668 0.0
H1343 H 0.985 0.75542 0.22251 0.0
Gd1344 Gd 0.85931 0.30754 0.75963 0.0
Gd1345 Gd 0.82508 0.31303 0.79722 0.0
C1346 C 0.86446 0.37975 0.79089 0.0
C1347 C 0.89467 0.30919 0.71858 0.0
C1348 C 0.89708 0.3277 0.69386 0.0
C1349 C 0.91081 0.31877 0.6681 0.0
C1350 C 0.88316 0.35324 0.69505 0.0
C1351 C 0.89501 0.35982 0.64419 0.0
C1352 C 0.88232 0.36934 0.67047 0.0
C1353 C 0.90977 0.33493 0.64304 0.0
C1354 C 0.88203 0.28483 0.81137 0.0
C1355 C 0.81285 0.24668 0.74989 0.0
C1356 C 0.79829 0.32217 0.84588 0.0
C1357 C 0.79384 0.30748 0.87348 0.0
C1358 C 0.7661 0.28748 0.87519 0.0
C1359 C 0.81791 0.30881 0.89546 0.0
C1360 C 0.78831 0.26457 0.91503 0.0
C1361 C 0.81521 0.28717 0.91585 0.0
C1362 C 0.76335 0.26585 0.89589 0.0
C1363 C 0.7914 0.31549 0.74269 0.0
O1364 O 0.87653 0.36098 0.77309 0.0
O1365 O 0.8411 0.3673 0.8021 0.0
O1366 O 0.90144 0.32746 0.74675 0.0
O1367 O 0.87012 0.28647 0.71502 0.0
O1368 O 0.87576 0.26982 0.78236 0.0
O1369 O 0.87171 0.31011 0.81221 0.0
O1370 O 0.81667 0.2579 0.78039 0.0
O1371 O 0.82388 0.26659 0.73274 0.0
O1372 O 0.78593 0.3029 0.81907 0.0
O1373 O 0.82474 0.33866 0.84455 0.0
O1374 O 0.78424 0.29835 0.76328 0.0
O1375 O 0.81934 0.32949 0.75042 0.0
H1376 H 0.92142 0.29885 0.66702 0.0
H1377 H 0.87209 0.36007 0.71453 0.0
H1378 H 0.87077 0.38849 0.67139 0.0
H1379 H 0.91954 0.32751 0.62261 0.0
H1380 H 0.74712 0.28665 0.85883 0.0
H1381 H 0.83919 0.32515 0.89577 0.0
H1382 H 0.83446 0.28701 0.93132 0.0
H1383 H 0.7423 0.24896 0.89572 0.0
Gd1384 Gd 0.84877 0.83914 0.80279 0.0
Gd1385 Gd 0.81203 0.77601 0.75948 0.0
C1386 C 0.77733 0.82101 0.79664 0.0
C1387 C 0.86663 0.9024 0.82143 0.0
C1388 C 0.85075 0.92627 0.81317 0.0
C1389 C 0.84686 0.95157 0.83637 0.0
C1390 C 0.83526 0.92034 0.78281 0.0
C1391 C 0.81066 0.96286 0.79924 0.0
C1392 C 0.81531 0.9382 0.776 0.0
C1393 C 0.82748 0.97035 0.82922 0.0
C1394 C 0.83686 0.79464 0.84158 0.0
C1395 C 0.88393 0.79361 0.76707 0.0
C1396 C 0.79217 0.71284 0.74092 0.0
C1397 C 0.80608 0.68897 0.7522 0.0
C1398 C 0.80361 0.65766 0.7337 0.0
C1399 C 0.82616 0.70023 0.78001 0.0
C1400 C 0.84252 0.65037 0.77022 0.0
C1401 C 0.8443 0.68127 0.78876 0.0
C1402 C 0.82152 0.6381 0.74298 0.0
C1403 C 0.8242 0.82124 0.72087 0.0
O1404 O 0.80293 0.84292 0.80497 0.0
O1405 O 0.77421 0.79266 0.77713 0.0
O1406 O 0.85349 0.88313 0.83855 0.0
O1407 O 0.87667 0.8862 0.79859 0.0
O1408 O 0.85536 0.82357 0.84948 0.0
O1409 O 0.82847 0.78887 0.81161 0.0
O1410 O 0.85835 0.77158 0.75752 0.0
O1411 O 0.88631 0.82158 0.78677 0.0
O1412 O 0.80824 0.73127 0.72509 0.0
O1413 O 0.78106 0.73016 0.76186 0.0
O1414 O 0.80585 0.79218 0.71278 0.0
O1415 O 0.83224 0.82637 0.75081 0.0
H1416 H 0.85825 0.95624 0.86011 0.0
H1417 H 0.8377 0.90089 0.76459 0.0
H1418 H 0.80315 0.93255 0.75253 0.0
H1419 H 0.82513 0.99012 0.84723 0.0
H1420 H 0.7886 0.64887 0.71182 0.0
H1421 H 0.82883 0.72452 0.79425 0.0
H1422 H 0.86037 0.69107 0.80975 0.0
H1423 H 0.81973 0.61408 0.72854 0.0
Gd1424 Gd 0.5674 0.53642 0.51012 0.0
Gd1425 Gd 0.60386 0.57066 0.54637 0.0
C1426 C 0.572 0.61477 0.51131 0.0
C1427 C 0.51285 0.5137 0.48405 0.0
C1428 C 0.48818 0.52769 0.4916 0.0
C1429 C 0.46409 0.52402 0.46864 0.0
C1430 C 0.49033 0.54821 0.52113 0.0
C1431 C 0.4455 0.56236 0.50429 0.0
C1432 C 0.46937 0.56554 0.52731 0.0
C1433 C 0.44274 0.54101 0.47503 0.0
C1434 C 0.61223 0.5389 0.47007 0.0
C1435 C 0.5982 0.49187 0.54385 0.0
C1436 C 0.65857 0.5916 0.57221 0.0
C1437 C 0.68374 0.57855 0.56338 0.0
C1438 C 0.70106 0.56804 0.58547 0.0
C1439 C 0.68902 0.57359 0.53211 0.0
C1440 C 0.72846 0.54856 0.54507 0.0
C1441 C 0.7112 0.55914 0.5231 0.0
C1442 C 0.72307 0.55302 0.57638 0.0
C1443 C 0.55854 0.56849 0.58595 0.0
O1444 O 0.5598 0.58406 0.49667 0.0
O1445 O 0.59155 0.61742 0.53589 0.0
O1446 O 0.53262 0.5322 0.47196 0.0
O1447 O 0.52469 0.50166 0.50584 0.0
O1448 O 0.59244 0.51302 0.47326 0.0
O1449 O 0.60901 0.5625 0.49227 0.0
O1450 O 0.61182 0.52231 0.55826 0.0
O1451 O 0.57826 0.48925 0.51982 0.0
O1452 O 0.63885 0.57191 0.5833 0.0
O1453 O 0.64662 0.606 0.55249 0.0
O1454 O 0.57896 0.59432 0.58378 0.0
O1455 O 0.56242 0.54475 0.56436 0.0
H1456 H 0.46216 0.50867 0.44561 0.0
H1457 H 0.50889 0.55189 0.53904 0.0
H1458 H 0.47191 0.58179 0.54998 0.0
H1459 H 0.42441 0.5381 0.45698 0.0
H1460 H 0.69721 0.57088 0.60963 0.0
H1461 H 0.67563 0.58041 0.51445 0.0
H1462 H 0.71468 0.55584 0.4988 0.0
H1463 H 0.7359 0.54486 0.59378 0.0
Gd1464 Gd 0.11444 0.56012 0.01828 0.0
Gd1465 Gd 0.05084 0.55769 0.03561 0.0
C1466 C 0.06482 0.48838 1.00908 0.0
C1467 C 0.1654 0.54801 0.01677 0.0
C1468 C 0.1812 0.52201 0.02036 0.0
C1469 C 0.18029 0.49598 0.9951 0.0
C1470 C 0.20018 0.52527 0.04834 0.0
C1471 C 0.21906 0.47966 0.02469 0.0
C1472 C 0.21881 0.50439 0.05047 0.0
C1473 C 0.19886 0.47496 0.99731 0.0
C1474 C 0.07477 0.56946 0.97366 0.0
C1475 C 0.10197 0.62942 0.04641 0.0
C1476 C 0.99983 0.56894 0.04049 0.0
C1477 C 0.98275 0.59422 0.03951 0.0
C1478 C 0.96766 0.60246 0.06445 0.0
C1479 C 0.97845 0.60742 1.01263 0.0
C1480 C 0.94129 0.63216 0.03373 0.0
C1481 C 0.95769 0.62569 1.00955 0.0
C1482 C 0.94753 0.6216 0.06181 0.0
C1483 C 0.08844 0.54247 0.0769 0.0
O1484 O 0.09266 0.50569 0.01388 0.0
O1485 O 0.04329 0.5031 0.0132 0.0
O1486 O 0.1461 0.54314 0.99161 0.0
O1487 O 0.15768 0.56317 0.04201 0.0
O1488 O 0.10293 0.58185 0.97597 0.0
O1489 O 0.0704 0.55104 0.99304 0.0
O1490 O 0.07389 0.61302 0.04319 0.0
O1491 O 0.12271 0.6143 0.04012 0.0
O1492 O 0.01985 0.57307 0.06481 0.0
O1493 O 1.00732 0.55585 0.01424 0.0
O1494 O 0.06018 0.5307 0.07381 0.0
O1495 O 0.09458 0.56464 0.06124 0.0
H1496 H 0.16612 0.49264 0.97313 0.0
H1497 H 0.20163 0.545 0.06825 0.0
H1498 H 0.23415 0.50869 0.07178 0.0
H1499 H 0.19864 0.45619 0.97701 0.0
H1500 H 0.97057 0.59299 0.08562 0.0
H1501 H 0.99095 0.60343 0.99381 0.0
H1502 H 0.95388 0.63401 0.98787 0.0
H1503 H 0.93556 0.62657 0.08104 0.0
C1504 C 0.04582 0.19213 1.00118 0.0
C1505 C 0.04695 0.19373 0.96868 0.0
C1506 C 0.06304 0.14098 0.96395 0.0
C1507 C 0.06532 0.14205 0.997 0.0
N1508 N 0.06312 0.17331 0.04753 0.0
N1509 N 0.06317 0.17058 0.92122 0.0
C1510 C 0.05824 0.16924 0.01563 0.0
C1511 C 0.05718 0.16822 0.95067 0.0
N1512 N 0.03082 0.21076 0.01815 0.0
N1513 N 0.0665 0.11367 0.94472 0.0
H1514 H 0.06038 0.18978 0.91059 0.0
H1515 H 0.07385 0.15526 0.90846 0.0
H1516 H 0.07248 0.09443 0.95318 0.0
H1517 H 0.06134 0.10902 0.92036 0.0
H1518 H 0.02702 0.20877 0.04082 0.0
H1519 H 0.01863 0.22476 1.00829 0.0
H1520 H 0.06183 0.19452 0.06272 0.0
H1521 H 0.07099 0.15676 0.05873 0.0
C1522 C 0.23175 0.80828 0.17417 0.0
C1523 C 0.22237 0.83813 0.17708 0.0
C1524 C 0.26464 0.86361 0.22085 0.0
C1525 C 0.27353 0.83327 0.21925 0.0
N1526 N 0.26223 0.77543 0.19374 0.0
N1527 N 0.23443 0.89607 0.19932 0.0
C1528 C 0.25647 0.80555 0.1953 0.0
C1529 C 0.24 0.86607 0.19962 0.0
N1530 N 0.2172 0.78201 0.15064 0.0
N1531 N 0.27944 0.89066 0.24341 0.0
H1532 H 0.21745 0.8991 0.18401 0.0
H1533 H 0.24799 0.91854 0.21188 0.0
H1534 H 0.29987 0.89298 0.25586 0.0
H1535 H 0.27114 0.91077 0.25059 0.0
H1536 H 0.2253 0.76181 0.14313 0.0
H1537 H 0.19761 0.78093 0.13708 0.0
H1538 H 0.24764 0.75322 0.18201 0.0
H1539 H 0.28107 0.77177 0.20492 0.0
C1540 C 0.55198 0.89261 0.4997 0.0
C1541 C 0.55292 0.88407 0.4666 0.0
C1542 C 0.56107 0.9439 0.46511 0.0
C1543 C 0.55906 0.95194 0.49738 0.0
N1544 N 0.55476 0.93533 0.54651 0.0
N1545 N 0.56471 0.90596 0.41977 0.0
C1546 C 0.55478 0.92654 0.51492 0.0
C1547 C 0.55907 0.91085 0.44999 0.0
N1548 N 0.55004 0.86866 0.51702 0.0
N1549 N 0.56381 0.96805 0.44785 0.0
H1550 H 0.55401 0.88578 0.40212 0.0
H1551 H 0.57875 0.92416 0.41134 0.0
H1552 H 0.56905 0.99317 0.45767 0.0
H1553 H 0.55954 0.96312 0.4234 0.0
H1554 H 0.54586 0.8714 0.54002 0.0
H1555 H 0.55403 0.84592 0.50888 0.0
H1556 H 0.55385 0.91941 0.56202 0.0
H1557 H 0.55609 0.9595 0.55767 0.0
C1558 C 0.5214 0.31409 0.64734 0.0
C1559 C 0.5508 0.31682 0.6612 0.0
C1560 C 0.53225 0.31666 0.71219 0.0
C1561 C 0.5028 0.30784 0.6969 0.0
N1562 N 0.46968 0.29184 0.64809 0.0
N1563 N 0.58206 0.31458 0.70791 0.0
C1564 C 0.49752 0.30463 0.66394 0.0
C1565 C 0.55575 0.31678 0.69404 0.0
N1566 N 0.51609 0.32231 0.61892 0.0
N1567 N 0.53791 0.3252 0.74419 0.0
H1568 H 0.59933 0.31191 0.69589 0.0
H1569 H 0.58565 0.31152 0.73094 0.0
H1570 H 0.52136 0.32509 0.75809 0.0
H1571 H 0.55897 0.33545 0.7566 0.0
H1572 H 0.49539 0.323 0.60914 0.0
H1573 H 0.53263 0.33283 0.60717 0.0
H1574 H 0.4651 0.2854 0.62365 0.0
H1575 H 0.45157 0.28476 0.65926 0.0
C1576 C 0.02738 0.83205 0.59767 0.0
C1577 C 0.03392 0.84578 0.6305 0.0
C1578 C 0.06462 0.89657 0.61986 0.0
C1579 C 0.06037 0.88169 0.58747 0.0
N1580 N 0.03975 0.83384 0.54561 0.0
N1581 N 0.04536 0.89691 0.66881 0.0
C1582 C 0.04243 0.84896 0.57641 0.0
C1583 C 0.04881 0.87977 0.64063 0.0
N1584 N 1.00436 0.80481 0.58651 0.0
N1585 N 0.08457 0.92646 0.63102 0.0
H1586 H 0.03 0.8868 0.68215 0.0
H1587 H 0.05391 0.92234 0.67641 0.0
H1588 H 0.0971 0.93917 0.61665 0.0
H1589 H 0.0908 0.93692 0.65487 0.0
H1590 H 0.99702 0.79479 0.56275 0.0
H1591 H 0.98969 0.79528 0.60079 0.0
H1592 H 0.03065 0.80859 0.53728 0.0
H1593 H 0.04843 0.84586 0.52861 0.0
C1594 C 0.55497 0.88235 0.86798 0.0
C1595 C 0.57233 0.8617 0.856 0.0
C1596 C 0.53779 0.84054 0.8069 0.0
C1597 C 0.52152 0.86269 0.81825 0.0
N1598 N 0.51449 0.90614 0.85796 0.0
N1599 N 0.57977 0.81863 0.81607 0.0
C1600 C 0.53001 0.88389 0.84841 0.0
C1601 C 0.56362 0.84005 0.82595 0.0
N1602 N 0.56246 0.9006 0.89807 0.0
N1603 N 0.52778 0.81936 0.77838 0.0
H1604 H 0.59651 0.81435 0.83072 0.0
H1605 H 0.57701 0.805 0.79332 0.0
H1606 H 0.50952 0.82026 0.76351 0.0
H1607 H 0.53685 0.80048 0.76933 0.0
H1608 H 0.54863 0.91225 0.90986 0.0
H1609 H 0.58231 0.90339 0.9121 0.0
H1610 H 0.52144 0.92509 0.87779 0.0
H1611 H 0.4953 0.90739 0.84504 0.0
C1612 C 0.52903 0.17447 0.08412 0.0
C1613 C 0.51707 0.16754 0.11173 0.0
C1614 C 0.54573 0.12614 0.11319 0.0
C1615 C 0.55586 0.13177 0.08485 0.0
N1616 N 0.54721 0.15265 0.03797 0.0
N1617 N 0.50825 0.12893 0.14623 0.0
C1618 C 0.54477 0.15352 0.06888 0.0
C1619 C 0.52356 0.14079 0.12415 0.0
N1620 N 0.52607 0.20091 0.07177 0.0
N1621 N 0.55806 0.10787 0.13047 0.0
H1622 H 0.49135 0.13823 0.15416 0.0
H1623 H 0.51018 0.10769 0.15404 0.0
H1624 H 0.57432 0.09701 0.12316 0.0
H1625 H 0.55408 0.10624 0.15317 0.0
H1626 H 0.53925 0.20993 0.05597 0.0
H1627 H 0.51112 0.21423 0.07674 0.0
H1628 H 0.53727 0.16586 0.0243 0.0
H1629 H 0.55403 0.13408 0.02456 0.0
C1630 C 0.21823 0.36342 0.3095 0.0
C1631 C 0.21644 0.36164 0.34184 0.0
C1632 C 0.24804 0.32351 0.33775 0.0
C1633 C 0.25167 0.32747 0.30698 0.0
N1634 N 0.23661 0.34556 0.26091 0.0
N1635 N 0.23856 0.34824 0.38825 0.0
C1636 C 0.23538 0.34553 0.29198 0.0
C1637 C 0.2338 0.34387 0.35632 0.0
N1638 N 0.20454 0.38309 0.29564 0.0
N1639 N 0.25686 0.29891 0.34875 0.0
H1640 H 0.23162 0.36605 0.40291 0.0
H1641 H 0.25272 0.33758 0.40005 0.0
H1642 H 0.2669 0.2832 0.33541 0.0
H1643 H 0.25123 0.29203 0.36946 0.0
H1644 H 0.19745 0.37868 0.27164 0.0
H1645 H 0.20217 0.40532 0.30794 0.0
H1646 H 0.22511 0.3575 0.24745 0.0
H1647 H 0.24861 0.33209 0.24788 0.0
C1648 C 0.02788 0.05049 0.16799 0.0
C1649 C 1.00831 0.07149 0.17506 0.0
C1650 C 0.02085 0.08915 0.12275 0.0
C1651 C 0.04113 0.06886 0.11622 0.0
N1652 N 0.06678 0.03513 0.13987 0.0
N1653 N 0.98988 0.11367 0.15723 0.0
C1654 C 0.04496 0.05081 0.14093 0.0
C1655 C 1.00593 0.09127 0.1515 0.0
N1656 N 0.02971 0.02871 0.18702 0.0
N1657 N 1.0152 0.10662 0.10063 0.0
H1658 H 0.97874 0.11538 0.17651 0.0
H1659 H 0.98894 0.13186 0.14445 0.0
H1660 H 0.02567 0.10671 0.08084 0.0
H1661 H 0.99906 0.11928 0.10051 0.0
H1662 H 0.0399 1.00972 0.18222 0.0
H1663 H 0.01873 0.02795 0.20641 0.0
H1664 H 0.07401 0.02466 0.1579 0.0
H1665 H 0.07964 0.03542 0.12198 0.0
C1666 C 0.28116 0.69213 0.4484 0.0
C1667 C 0.30284 0.70503 0.4755 0.0
C1668 C 0.29603 0.76032 0.47502 0.0
C1669 C 0.27524 0.74676 0.4477 0.0
N1670 N 0.23778 0.69907 0.41966 0.0
N1671 N 0.33673 0.75358 0.50881 0.0
C1672 C 0.26408 0.71234 0.43858 0.0
C1673 C 0.31167 0.73985 0.48774 0.0
N1674 N 0.27853 0.66159 0.43045 0.0
N1675 N 0.30114 0.79315 0.48773 0.0
H1676 H 0.35152 0.7401 0.51416 0.0
H1677 H 0.34493 0.77884 0.5177 0.0
H1678 H 0.28958 0.80781 0.4778 0.0
H1679 H 0.31435 0.80485 0.5091 0.0
H1680 H 0.26241 0.65064 0.41102 0.0
H1681 H 0.29504 0.64943 0.43222 0.0
H1682 H 0.22774 0.67376 0.41406 0.0
H1683 H 0.22474 0.71375 0.41275 0.0
C1684 C 0.63599 0.07508 0.66116 0.0
C1685 C 0.654 0.05262 0.6612 0.0
C1686 C 0.63055 0.02391 0.60797 0.0
C1687 C 0.61312 0.04668 0.60778 0.0
N1688 N 0.59521 0.09024 0.6354 0.0
N1689 N 0.67203 1.00938 0.63347 0.0
C1690 C 0.61493 0.07145 0.6346 0.0
C1691 C 0.65245 0.02821 0.63417 0.0
N1692 N 0.6398 0.10095 0.68598 0.0
N1693 N 0.62474 0.99686 0.58407 0.0
H1694 H 0.68758 1.01102 0.6527 0.0
H1695 H 0.67427 0.9937 0.61331 0.0
H1696 H 0.60808 0.99233 0.56531 0.0
H1697 H 0.63444 0.97742 0.58412 0.0
H1698 H 0.63173 0.12145 0.68496 0.0
H1699 H 0.65224 0.10316 0.70745 0.0
H1700 H 0.59243 0.1054 0.65563 0.0
H1701 H 0.58 0.08938 0.61614 0.0
C1702 C 0.36828 0.33511 0.93895 0.0
C1703 C 0.35333 0.35933 0.95015 0.0
C1704 C 0.33566 0.35874 0.89488 0.0
C1705 C 0.34823 0.33275 0.88343 0.0
N1706 N 0.3705 0.29068 0.8963 0.0
N1707 N 0.31263 0.38136 0.93693 0.0
C1708 C 0.36277 0.31924 0.90601 0.0
C1709 C 0.33387 0.36706 0.92746 0.0
N1710 N 0.38854 0.32794 0.95905 0.0
N1711 N 0.32666 0.37697 0.87503 0.0
H1712 H 0.30857 0.38413 0.96009 0.0
H1713 H 0.29679 0.38583 0.92117 0.0
H1714 H 0.33005 0.37392 0.85167 0.0
H1715 H 0.31947 0.39783 0.88294 0.0
H1716 H 0.40205 0.31312 0.95152 0.0
H1717 H 0.3934 0.33855 0.98289 0.0
H1718 H 0.37814 0.2776 0.91184 0.0
H1719 H 0.36659 0.2785 0.87281 0.0
C1720 C 0.03458 0.09286 0.38048 0.0
C1721 C 1.00382 0.07572 0.37036 0.0
C1722 C 1.01251 0.04597 0.41476 0.0
C1723 C 0.04073 0.06649 0.42898 0.0
N1724 N 0.07545 0.11612 0.42443 0.0
N1725 N 0.96438 0.0498 0.39683 0.0
C1726 C 0.05077 0.09191 0.41141 0.0
C1727 C 0.99303 0.05626 0.3929 0.0
N1728 N 0.04855 0.11123 0.36138 0.0
N1729 N 1.00366 0.01559 0.4212 0.0
H1730 H 0.94974 0.06131 0.38726 0.0
H1731 H 0.95658 0.03671 0.41362 0.0
H1732 H 0.0178 1.00613 0.43452 0.0
H1733 H 0.98395 0.99905 0.40966 0.0
H1734 H 0.07111 0.12156 0.36529 0.0
H1735 H 0.03767 0.11417 0.34059 0.0
H1736 H 0.08309 0.13647 0.41459 0.0
H1737 H 0.08614 0.11735 0.44677 0.0
C1738 C 0.31624 0.70691 0.66308 0.0
C1739 C 0.33848 0.71784 0.64485 0.0
C1740 C 0.34919 0.77286 0.67832 0.0
C1741 C 0.33265 0.75978 0.70028 0.0
N1742 N 0.30518 0.71125 0.71572 0.0
N1743 N 0.381 0.76099 0.64119 0.0
C1744 C 0.31747 0.7259 0.69336 0.0
C1745 C 0.35634 0.75087 0.6541 0.0
N1746 N 0.29287 0.68016 0.65149 0.0
N1747 N 0.35872 0.80625 0.68114 0.0
H1748 H 0.38915 0.74475 0.62607 0.0
H1749 H 0.39536 0.78446 0.64885 0.0
H1750 H 0.35318 0.82284 0.69855 0.0
H1751 H 0.36915 0.8169 0.66423 0.0
H1752 H 0.27574 0.67353 0.66411 0.0
H1753 H 0.2879 0.66761 0.62822 0.0
H1754 H 0.29638 0.68577 0.71229 0.0
H1755 H 0.30644 0.72423 0.73837 0.0
C1756 C 0.69114 0.12893 0.8609 0.0
C1757 C 0.67892 0.1052 0.8324 0.0
C1758 C 0.62983 0.10934 0.84072 0.0
C1759 C 0.64216 0.13281 0.86863 0.0
N1760 N 0.68364 0.17209 0.90097 0.0
N1761 N 0.63625 0.06373 0.80337 0.0
C1762 C 0.67268 0.14537 0.87682 0.0
C1763 C 0.64805 0.09302 0.82431 0.0
N1764 N 0.71912 0.13274 0.87493 0.0
N1765 N 0.60052 0.10231 0.83042 0.0
H1766 H 0.64906 0.04861 0.79443 0.0
H1767 H 0.6139 0.05224 0.79832 0.0
H1768 H 0.5869 0.11429 0.84235 0.0
H1769 H 0.59049 0.08748 0.80866 0.0
H1770 H 0.73131 0.11607 0.86836 0.0
H1771 H 0.72841 0.14857 0.89643 0.0
H1772 H 0.70579 0.18445 0.90669 0.0
H1773 H 0.66986 0.18373 0.91308 0.0
C1774 C 0.36672 0.3736 0.16527 0.0
C1775 C 0.34768 0.36437 0.13559 0.0
C1776 C 0.31045 0.33166 0.16287 0.0
C1777 C 0.33083 0.33671 0.19097 0.0
N1778 N 0.38078 0.36062 0.21587 0.0
N1779 N 0.3008 0.33114 0.10709 0.0
C1780 C 0.35948 0.35757 0.19139 0.0
C1781 C 0.31959 0.34216 0.13478 0.0
N1782 N 0.39228 0.39762 0.1688 0.0
N1783 N 0.28138 0.31865 0.16344 0.0
H1784 H 0.30396 0.34107 0.08725 0.0
H1785 H 0.28256 0.31094 0.10346 0.0
H1786 H 0.27322 0.31377 0.18379 0.0
H1787 H 0.26492 0.31687 0.14511 0.0
H1788 H 0.40499 0.40895 0.19054 0.0
H1789 H 0.39987 0.40794 0.1504 0.0
H1790 H 0.40279 0.37195 0.21625 0.0
H1791 H 0.37692 0.34926 0.23469 0.0
C1792 C 0.29128 0.03896 1.00552 0.0
C1793 C 0.2945 1.00738 1.00895 0.0
C1794 C 0.25215 1.00075 0.0378 0.0
C1795 C 0.25254 0.03428 0.03851 0.0
N1796 N 0.27526 0.08685 0.02691 0.0
N1797 N 0.26847 0.9533 0.01479 0.0
C1798 C 0.27304 0.05383 0.02367 0.0
C1799 C 0.27229 0.98676 0.02152 0.0
N1800 N 0.30228 0.05303 0.98209 0.0
N1801 N 0.23287 0.98255 0.05319 0.0
H1802 H 0.27966 0.94196 0.99879 0.0
H1803 H 0.25171 0.93641 0.02131 0.0
H1804 H 0.21767 0.99202 0.06481 0.0
H1805 H 0.23326 0.95906 0.05653 0.0
H1806 H 0.29863 0.07495 0.9773 0.0
H1807 H 0.31048 0.04026 0.96409 0.0
H1808 H 0.29215 0.10289 0.01954 0.0
H1809 H 0.26198 0.09872 0.03955 0.0
C1810 C 0.71929 0.62071 1.01008 0.0
C1811 C 0.71741 0.65116 1.0014 0.0
C1812 C 0.66638 0.63684 0.01299 0.0
C1813 C 0.66536 0.60302 1.01146 0.0
N1814 N 0.69528 0.56446 0.01293 0.0
N1815 N 0.68487 0.68552 0.99238 0.0
C1816 C 0.69305 0.59528 1.01051 0.0
C1817 C 0.68957 0.65818 1.0019 0.0
N1818 N 0.74585 0.61725 0.02177 0.0
N1819 N 0.64812 0.6503 0.02952 0.0
H1820 H 0.70022 0.70082 0.98243 0.0
H1821 H 0.66446 0.69063 0.99151 0.0
H1822 H 0.63438 0.63658 0.04213 0.0
H1823 H 0.65038 0.67573 0.03459 0.0
H1824 H 0.74834 0.59716 0.03128 0.0
H1825 H 0.76506 0.63615 0.02588 0.0
H1826 H 0.71369 0.55629 1.00849 0.0
H1827 H 0.67915 0.54723 0.01995 0.0
C1828 C 0.77149 0.44539 0.31583 0.0
C1829 C 0.75025 0.45104 0.29185 0.0
C1830 C 0.75628 0.39399 0.26216 0.0
C1831 C 0.78027 0.39139 0.28439 0.0
N1832 N 0.81236 0.42231 0.3315 0.0
N1833 N 0.72571 0.42617 0.23912 0.0
C1834 C 0.78826 0.41968 0.31047 0.0
C1835 C 0.74372 0.42374 0.26437 0.0
N1836 N 0.7742 0.46271 0.34581 0.0
N1837 N 0.7449 0.36735 0.23811 0.0
H1838 H 0.71583 0.44548 0.23944 0.0
H1839 H 0.72226 0.41056 0.21718 0.0
H1840 H 0.75348 0.34684 0.23519 0.0
H1841 H 0.72589 0.36442 0.22267 0.0
H1842 H 0.78692 0.45869 0.36483 0.0
H1843 H 0.76003 0.47677 0.35288 0.0
H1844 H 0.82235 0.44362 0.34848 0.0
H1845 H 0.82378 0.40417 0.33028 0.0
C1846 C 0.95703 0.46247 0.48717 0.0
C1847 C 0.93885 0.47785 0.50512 0.0
C1848 C 0.98229 0.50777 0.54307 0.0
C1849 C 1.00017 0.50032 0.52032 0.0
N1850 N 1.00428 0.46915 0.47001 0.0
N1851 N 0.93532 0.51637 0.55179 0.0
C1852 C 0.98741 0.47758 0.49187 0.0
C1853 C 0.95182 0.50119 0.53342 0.0
N1854 N 0.94615 0.43204 0.46801 0.0
N1855 N 0.99382 0.51995 0.57398 0.0
H1856 H 0.91272 0.51167 0.54713 0.0
H1857 H 0.94436 0.53571 0.57101 0.0
H1858 H 0.0157 0.52402 0.58308 0.0
H1859 H 0.98094 0.52385 0.59131 0.0
H1860 H 0.95928 0.41916 0.45627 0.0
H1861 H 0.9251 0.41759 0.46755 0.0
H1862 H 0.99525 0.45541 0.44749 0.0
H1863 H 0.0271 0.47693 0.474 0.0
C1864 C 0.4131 0.12702 0.28414 0.0
C1865 C 0.40795 0.11783 0.31324 0.0
C1866 C 0.35652 0.11662 0.30183 0.0
C1867 C 0.36127 0.12674 0.27346 0.0
N1868 N 0.39231 0.13645 0.23431 0.0
N1869 N 0.37837 0.11951 0.35463 0.0
C1870 C 0.38912 0.13029 0.26349 0.0
C1871 C 0.38071 0.11767 0.32359 0.0
N1872 N 0.44102 0.13476 0.27741 0.0
N1873 N 0.32864 0.10651 0.30802 0.0
H1874 H 0.39661 0.12284 0.3715 0.0
H1875 H 0.35937 0.12164 0.36377 0.0
H1876 H 0.31045 0.1052 0.29184 0.0
H1877 H 0.32378 0.09628 0.3274 0.0
H1878 H 0.44666 0.14054 0.2564 0.0
H1879 H 0.45924 0.13925 0.2945 0.0
H1880 H 0.41157 0.13875 0.22468 0.0
H1881 H 0.37471 0.1375 0.21866 0.0
C1882 C 0.3662 0.14819 0.53405 0.0
C1883 C 0.36903 0.17426 0.51752 0.0
C1884 C 0.42201 0.17852 0.52139 0.0
C1885 C 0.41778 0.14829 0.53225 0.0
N1886 N 0.38351 0.10151 0.54376 0.0
N1887 N 0.39998 0.21464 0.49508 0.0
C1888 C 0.38927 0.1325 0.53746 0.0
C1889 C 0.39714 0.18976 0.51128 0.0
N1890 N 0.34163 0.13893 0.54737 0.0
N1891 N 0.44981 0.19698 0.52168 0.0
H1892 H 0.38246 0.22399 0.4884 0.0
H1893 H 0.41916 0.22466 0.48679 0.0
H1894 H 0.46831 0.18994 0.52968 0.0
H1895 H 0.45454 0.22061 0.5169 0.0
H1896 H 0.33949 0.12215 0.5622 0.0
H1897 H 0.32468 0.15055 0.54606 0.0
H1898 H 0.36242 0.08775 0.54458 0.0
H1899 H 0.39908 0.08806 0.54481 0.0
C1900 C 0.747 0.66523 0.3081 0.0
C1901 C 0.75287 0.63403 0.29536 0.0
C1902 C 0.7935 0.66965 0.27265 0.0
C1903 C 0.79003 0.701 0.2885 0.0
N1904 N 0.76291 0.72597 0.32433 0.0
N1905 N 0.78521 0.60965 0.26615 0.0
C1906 C 0.76643 0.69776 0.30685 0.0
C1907 C 0.77734 0.6375 0.27822 0.0
N1908 N 0.72223 0.66411 0.32146 0.0
N1909 N 0.81078 0.67009 0.2496 0.0
H1910 H 0.77302 0.58598 0.26652 0.0
H1911 H 0.80497 0.61013 0.25778 0.0
H1912 H 0.82077 0.69172 0.2427 0.0
H1913 H 0.81218 0.64895 0.23445 0.0
H1914 H 0.71408 0.68457 0.32764 0.0
H1915 H 0.7088 0.64215 0.32476 0.0
H1916 H 0.74924 0.72626 0.3414 0.0
H1917 H 0.77533 0.74929 0.32308 0.0
C1918 C 0.92891 0.44145 0.8363 0.0
C1919 C 0.93395 0.46222 0.81513 0.0
C1920 C 0.88838 0.4327 0.78136 0.0
C1921 C 0.88214 0.41279 0.80347 0.0
N1922 N 0.89652 0.39843 0.85292 0.0
N1923 N 0.92789 0.46473 0.76076 0.0
C1924 C 0.90225 0.41715 0.83111 0.0
C1925 C 0.91631 0.45451 0.78557 0.0
N1926 N 0.95011 0.4443 0.86077 0.0
N1927 N 0.86799 0.42976 0.75598 0.0
H1928 H 0.95037 0.47487 0.76261 0.0
H1929 H 0.91661 0.45815 0.7379 0.0
H1930 H 0.84713 0.41357 0.75277 0.0
H1931 H 0.87097 0.44547 0.74016 0.0
H1932 H 0.94714 0.42972 0.87752 0.0
H1933 H 0.9706 0.46117 0.86369 0.0
H1934 H 0.8773 0.37999 0.85147 0.0
H1935 H 0.8773 0.37999 0.85147 0.0
C1936 C 0.09918 0.92541 0.0967 0.0
C1937 C 0.11896 0.90794 0.08414 0.0
C1938 C 0.12588 0.94551 0.04555 0.0
C1939 C 0.10537 0.96233 0.05758 0.0
N1940 N 0.07016 0.96521 0.09291 0.0
N1941 N 0.15346 0.90388 0.04843 0.0
C1942 C 0.09154 0.95138 0.08279 0.0
C1943 C 0.13291 0.91884 0.05902 0.0
N1944 N 0.08825 0.91767 0.12289 0.0
N1945 N 0.13761 0.95408 0.02003 0.0
H1946 H 0.15925 0.88524 0.05817 0.0
H1947 H 0.16608 0.91081 0.03154 0.0
H1948 H 0.13289 0.97293 1.0098 0.0
H1949 H 0.15078 0.94183 1.0078 0.0
H1950 H 0.0762 0.93099 0.1358 0.0
H1951 H 0.09335 0.89919 0.13344 0.0
H1952 H 0.05682 0.95676 0.10871 0.0
H1953 H 0.06425 0.98415 0.08389 0.0
C1954 C 0.93524 0.29115 0.89102 0.0
C1955 C 0.95681 0.27508 0.88061 0.0
C1956 C 0.92582 0.25854 0.82706 0.0
C1957 C 0.90658 0.27924 0.83608 0.0
N1958 N 0.89337 0.31327 0.87944 0.0
N1959 N 0.9706 0.24109 0.83819 0.0
C1960 C 0.91143 0.29463 0.86894 0.0
C1961 C 0.95134 0.25828 0.84847 0.0
N1962 N 0.93727 0.30309 0.92247 0.0
N1963 N 0.91892 0.23685 0.79866 0.0
H1964 H 0.98698 0.23666 0.85324 0.0
H1965 H 0.9718 0.23287 0.81467 0.0
H1966 H 0.89927 0.2314 0.78381 0.0
H1967 H 0.93031 0.2196 0.79139 0.0
H1968 H 0.92088 0.31127 0.93282 0.0
H1969 H 0.95483 0.30304 0.93875 0.0
H1970 H 0.89786 0.32963 0.90107 0.0
H1971 H 0.87403 0.31316 0.86605 0.0
C1972 C 0.62462 0.20926 0.60989 0.0
C1973 C 0.62396 0.23441 0.59188 0.0
C1974 C 0.6138 0.19058 0.54351 0.0
C1975 C 0.61203 0.16575 0.56147 0.0
N1976 N 0.62713 0.15307 0.61077 0.0
N1977 N 0.63483 0.24805 0.54242 0.0
C1978 C 0.62062 0.17558 0.59437 0.0
C1979 C 0.62344 0.22485 0.55882 0.0
N1980 N 0.62972 0.2168 0.64193 0.0
N1981 N 0.60663 0.18145 0.5117 0.0
H1982 H 0.6454 0.27242 0.55328 0.0
H1983 H 0.63728 0.24231 0.51889 0.0
H1984 H 0.59924 0.15677 0.50022 0.0
H1985 H 0.60626 0.19818 0.4971 0.0
H1986 H 0.62324 0.19931 0.65547 0.0
H1987 H 0.64241 0.2392 0.6553 0.0
H1988 H 0.63715 0.1592 0.63409 0.0
H1989 H 0.62545 0.12867 0.60015 0.0
C1990 C 0.63623 0.78462 0.40596 0.0
C1991 C 0.61535 0.80157 0.39682 0.0
C1992 C 0.64766 0.82514 0.36142 0.0
C1993 C 0.6691 0.80961 0.37135 0.0
N1994 N 0.68697 0.78161 0.40921 0.0
N1995 N 0.60885 0.8489 0.376 0.0
C1996 C 0.66441 0.79159 0.39566 0.0
C1997 C 0.62356 0.82529 0.37782 0.0
N1998 N 0.62893 0.76085 0.42304 0.0
N1999 N 0.64942 0.83873 0.33539 0.0
H2000 H 0.61561 0.86834 0.36465 0.0
H2001 H 0.59239 0.85163 0.3892 0.0
H2002 H 0.66613 0.83843 0.32181 0.0
H2003 H 0.63253 0.84717 0.32542 0.0
H2004 H 0.64222 0.74558 0.42782 0.0
H2005 H 0.60865 0.75475 0.43053 0.0
H2006 H 0.68598 0.77143 0.42915 0.0
H2007 H 0.70758 0.78638 0.40214 0.0
C2008 C 0.1333 0.25213 0.42983 0.0
C2009 C 0.12848 0.28404 0.4369 0.0
C2010 C 0.10371 0.26941 0.48124 0.0
C2011 C 0.10979 0.23817 0.47495 0.0
N2012 N 0.12433 0.1967 0.44015 0.0
N2013 N 0.10902 0.3236 0.46932 0.0
C2014 C 0.12286 0.22864 0.44832 0.0
C2015 C 0.11343 0.2927 0.46245 0.0
N2016 N 0.14946 0.24501 0.40675 0.0
N2017 N 0.0876 0.27628 0.50454 0.0
H2018 H 0.11258 0.3404 0.45471 0.0
H2019 H 0.10268 0.33347 0.49013 0.0
H2020 H 0.08137 0.26061 0.51984 0.0
H2021 H 0.07871 0.29644 0.50784 0.0
H2022 H 0.1568 0.22373 0.40274 0.0
H2023 H 0.15733 0.26153 0.39272 0.0
H2024 H 0.12966 0.18668 0.41877 0.0
H2025 H 0.11821 0.17935 0.45397 0.0
C2026 C 0.61511 0.29267 0.20162 0.0
C2027 C 0.58984 0.26759 0.2027 0.0
C2028 C 0.61781 0.24539 0.23981 0.0
C2029 C 0.64312 0.26991 0.23807 0.0
N2030 N 0.66583 0.32076 0.22365 0.0
N2031 N 0.56554 0.22347 0.22688 0.0
C2032 C 0.64171 0.29494 0.22101 0.0
C2033 C 0.59067 0.24513 0.22319 0.0
N2034 N 0.61366 0.31385 0.18176 0.0
N2035 N 0.62017 0.22127 0.25613 0.0
H2036 H 0.54528 0.21999 0.21357 0.0
H2037 H 0.56422 0.20999 0.24457 0.0
H2038 H 0.6393 0.2221 0.27059 0.0
H2039 H 0.60379 0.19963 0.25435 0.0
H2040 H 0.63178 0.33084 0.17761 0.0
H2041 H 0.59423 0.31333 0.16803 0.0
H2042 H 0.66596 0.34137 0.21393 0.0
H2043 H 0.6854 0.32278 0.23793 0.0
C2044 C 0.65047 0.95137 0.97275 0.0
C2045 C 0.6545 0.9581 0.94277 0.0
C2046 C 0.62788 1.00118 0.95285 0.0
C2047 C 0.62224 0.99244 0.98191 0.0
N2048 N 0.61764 0.94866 1.01092 0.0
N2049 N 0.6586 1.00001 0.9119 0.0
C2050 C 0.63058 0.96453 0.98945 0.0
C2051 C 0.6466 0.98621 0.93496 0.0
N2052 N 0.66662 0.93335 0.98592 0.0
N2053 N 0.61349 0.02145 0.94091 0.0
H2054 H 0.67469 0.99171 0.90093 0.0
H2055 H 0.65565 0.02211 0.90685 0.0
H2056 H 0.59701 0.02932 0.95138 0.0
H2057 H 0.61481 0.02639 0.91856 0.0
H2058 H 0.66603 0.92982 1.00884 0.0
H2059 H 0.68335 0.92599 0.97535 0.0
H2060 H 0.62158 0.92676 0.01547 0.0
H2061 H 0.59985 0.95451 0.0204 0.0
C2062 C 0.94093 0.80392 0.7126 0.0
C2063 C 0.94805 0.77325 0.70809 0.0
C2064 C 0.91345 0.75525 0.74375 0.0
C2065 C 0.90955 0.78781 0.75134 0.0
N2066 N 0.92948 0.84573 0.74983 0.0
N2067 N 0.94177 0.71933 0.72014 0.0
C2068 C 0.92605 0.81295 0.73779 0.0
C2069 C 0.93411 0.74852 0.7235 0.0
N2070 N 0.94945 0.82508 0.6932 0.0
N2071 N 0.89822 0.73106 0.75695 0.0
H2072 H 0.95556 0.71312 0.70443 0.0
H2073 H 0.9354 0.70181 0.73361 0.0
H2074 H 0.88696 0.7362 0.77561 0.0
H2075 H 0.89662 0.70609 0.74934 0.0
H2076 H 0.94275 0.84671 0.6936 0.0
H2077 H 0.96046 0.81892 0.67452 0.0
H2078 H 0.94345 0.86442 0.74196 0.0
H2079 H 0.92269 0.85485 0.77054 0.0
C2080 C 0.17974 0.06001 0.91705 0.0
C2081 C 0.1698 0.04041 0.88479 0.0
C2082 C 0.12317 0.01766 0.90962 0.0
C2083 C 0.13213 0.04002 0.94052 0.0
N2084 N 0.16928 0.08892 0.96674 0.0
N2085 N 0.12719 1.00117 0.8535 0.0
C2086 C 0.1603 0.06297 0.94167 0.0
C2087 C 0.14009 0.01975 0.88241 0.0
N2088 N 0.20882 0.07522 0.92606 0.0
N2089 N 0.09778 0.9933 0.90548 0.0
H2090 H 0.13851 0.9988 0.8345 0.0
H2091 H 0.10489 0.98961 0.84782 0.0
H2092 H 0.08278 0.99277 0.92111 0.0
H2093 H 0.09213 0.97271 0.88709 0.0
H2094 H 0.21795 0.08606 0.94932 0.0
H2095 H 0.22468 0.07353 0.91189 0.0
H2096 H 0.1871 0.109 0.96768 0.0
H2097 H 0.15718 0.09217 0.98497 0.0
C2098 C 0.85002 0.38747 0.58719 0.0
C2099 C 0.86897 0.41763 0.58444 0.0
C2100 C 0.90876 0.40654 0.61782 0.0
C2101 C 0.89015 0.37528 0.61758 0.0
N2102 N 0.84614 0.33238 0.59622 0.0
N2103 N 0.91717 0.45696 0.59869 0.0
C2104 C 0.86183 0.36451 0.60004 0.0
C2105 C 0.89858 0.42763 0.60025 0.0
N2106 N 0.82049 0.38151 0.57876 0.0
N2107 N 0.93554 0.41673 0.63641 0.0
H2108 H 0.91018 0.47762 0.59548 0.0
H2109 H 0.93986 0.46137 0.60266 0.0
H2110 H 0.94414 0.401 0.64813 0.0
H2111 H 0.94876 0.44086 0.64115 0.0
H2112 H 0.80541 0.36097 0.58257 0.0
H2113 H 0.81104 0.39922 0.5715 0.0
H2114 H 0.82623 0.32241 0.58133 0.0
H2115 H 0.85462 0.315 0.60546 0.0
C2116 C 0.52799 0.1004 0.41362 0.0
C2117 C 0.49935 0.08095 0.41395 0.0
C2118 C 0.51895 0.05295 0.4511 0.0
C2119 C 0.54798 0.07322 0.45304 0.0
N2120 N 0.57795 0.12244 0.4395 0.0
N2121 N 0.46836 0.05371 0.44696 0.0
C2122 C 0.55197 0.09894 0.43543 0.0
C2123 C 0.49505 0.06259 0.43758 0.0
N2124 N 0.53227 0.12025 0.39229 0.0
N2125 N 0.51369 0.02291 0.45928 0.0
H2126 H 0.45114 0.06341 0.44019 0.0
H2127 H 0.46488 0.04049 0.46476 0.0
H2128 H 0.53004 1.01152 0.46414 0.0
H2129 H 0.49267 1.00717 0.45627 0.0
H2130 H 0.55285 0.1311 0.38729 0.0
H2131 H 0.51486 0.12498 0.37896 0.0
H2132 H 0.58031 0.14376 0.4304 0.0
H2133 H 0.5968 0.12261 0.45368 0.0
C2134 C 0.78451 0.73911 0.12722 0.0
C2135 C 0.80576 0.75214 0.10866 0.0
C2136 C 0.83291 0.79217 0.1575 0.0
C2137 C 0.81376 0.77628 0.17639 0.0
N2138 N 0.7736 0.73059 0.17876 0.0
N2139 N 0.85341 0.78822 0.1088 0.0
C2140 C 0.79017 0.74868 0.16104 0.0
C2141 C 0.83071 0.77809 0.12456 0.0
N2142 N 0.758 0.7188 0.11261 0.0
N2143 N 0.85293 0.82144 0.17089 0.0
H2144 H 0.85366 0.77777 0.0855 0.0
H2145 H 0.87334 0.80448 0.11974 0.0
H2146 H 0.85507 0.83247 0.19457 0.0
H2147 H 0.8653 0.83631 0.15798 0.0
H2148 H 0.74065 0.7111 0.12457 0.0
H2149 H 0.75207 0.71265 0.0883 0.0
H2150 H 0.7585 0.70794 0.16933 0.0
H2151 H 0.77673 0.73679 0.20322 0.0
C2152 C 0.13416 0.05128 0.68486 0.0
C2153 C 0.15905 0.03733 0.68762 0.0
C2154 C 0.15602 0.03539 0.62817 0.0
C2155 C 0.12947 0.04637 0.62489 0.0
N2156 N 0.09116 0.05811 0.65311 0.0
N2157 N 0.18928 1.01085 0.65721 0.0
C2158 C 0.11825 0.0525 0.65424 0.0
C2159 C 0.16859 0.02815 0.65783 0.0
N2160 N 0.12613 0.06536 0.71191 0.0
N2161 N 0.17073 0.03329 0.60307 0.0
H2162 H 0.19859 1.00489 0.6773 0.0
H2163 H 0.19497 0.99957 0.63653 0.0
H2164 H 0.16346 0.03877 0.58189 0.0
H2165 H 0.19162 0.02957 0.60425 0.0
H2166 H 0.11098 0.07943 0.71236 0.0
H2167 H 0.13686 0.06608 0.73408 0.0
H2168 H 0.07979 0.05887 0.67219 0.0
H2169 H 0.07869 0.05844 0.63222 0.0
C2170 C 0.86722 0.39507 0.40332 0.0
C2171 C 0.84239 0.4054 0.41229 0.0
C2172 C 0.81002 0.35682 0.37593 0.0
C2173 C 0.83499 0.3462 0.36805 0.0
N2174 N 0.88662 0.35149 0.37723 0.0
N2175 N 0.79022 0.39415 0.41071 0.0
C2176 C 0.86339 0.36433 0.38258 0.0
C2177 C 0.81376 0.38563 0.39964 0.0
N2178 N 0.89462 0.41469 0.41485 0.0
N2179 N 0.78287 0.34008 0.35987 0.0
H2180 H 0.79219 0.41613 0.42666 0.0
H2181 H 0.76901 0.3788 0.40543 0.0
H2182 H 0.77899 0.31791 0.34358 0.0
H2183 H 0.76437 0.3489 0.36143 0.0
H2184 H 0.91334 0.41167 0.40565 0.0
H2185 H 0.89839 0.43504 0.4331 0.0
H2186 H 0.90777 0.36179 0.38932 0.0
H2187 H 0.88426 0.32869 0.36236 0.0
C2188 C 0.51094 0.02262 0.24194 0.0
C2189 C 0.49293 0.04476 0.2389 0.0
C2190 C 0.49073 0.03229 0.18184 0.0
C2191 C 0.51251 0.0155 0.18596 0.0
N2192 N 0.53945 0.98819 0.21659 0.0
N2193 N 0.46398 0.06923 0.20626 0.0
C2194 C 0.52055 1.00773 0.21494 0.0
C2195 C 0.4818 0.04865 0.20878 0.0
N2196 N 0.51873 0.0155 0.27038 0.0
N2197 N 0.47925 0.03272 0.15206 0.0
H2198 H 0.45771 0.08229 0.2257 0.0
H2199 H 0.45675 0.07506 0.18526 0.0
H2200 H 0.48582 0.02032 0.13241 0.0
H2201 H 0.46189 0.04268 0.14667 0.0
H2202 H 0.52746 0.99585 0.27315 0.0
H2203 H 0.51625 0.02868 0.29175 0.0
H2204 H 0.54996 0.98478 0.23729 0.0
H2205 H 0.54513 0.97557 0.19646 0.0
C2206 C 0.79538 0.76734 0.91031 0.0
C2207 C 0.81134 0.74622 0.92177 0.0
C2208 C 0.84064 0.75268 0.8773 0.0
C2209 C 0.82564 0.77496 0.86675 0.0
N2210 N 0.79275 0.80885 0.87886 0.0
N2211 N 0.85382 0.72507 0.91889 0.0
C2212 C 0.80419 0.78373 0.88498 0.0
C2213 C 0.83514 0.7406 0.90576 0.0
N2214 N 0.77093 0.77094 0.92274 0.0
N2215 N 0.86057 0.74303 0.86005 0.0
H2216 H 0.85159 0.71741 0.94005 0.0
H2217 H 0.87321 0.72283 0.91086 0.0
H2218 H 0.86595 0.75224 0.84026 0.0
H2219 H 0.8701 0.72419 0.86382 0.0
H2220 H 0.75625 0.7826 0.91329 0.0
H2221 H 0.7641 0.76005 0.94116 0.0
H2222 H 0.77984 0.81939 0.89317 0.0
H2223 H 0.79803 0.8209 0.86068 0.0
C2224 C 0.90275 0.12559 1.00283 0.0
C2225 C 0.88587 0.11711 0.02645 0.0
C2226 C 0.90907 0.07272 0.03204 0.0
C2227 C 0.92675 0.08172 1.00915 0.0
N2228 N 0.94509 0.12093 0.97762 0.0
N2229 N 0.87805 0.0888 0.06907 0.0
C2230 C 0.925 0.10947 0.99594 0.0
C2231 C 0.89084 0.09278 0.04297 0.0
N2232 N 0.89708 0.14861 0.98665 0.0
N2233 N 0.90861 0.04405 0.04218 0.0
H2234 H 0.86427 0.10289 0.07749 0.0
H2235 H 0.88311 0.07366 0.08388 0.0
H2236 H 0.92113 0.02817 0.03418 0.0
H2237 H 0.89383 0.03439 0.05623 0.0
H2238 H 0.90611 0.15313 0.96668 0.0
H2239 H 0.88215 0.16224 0.99247 0.0
H2240 H 0.94682 0.14299 0.96995 0.0
H2241 H 0.96165 0.1097 0.9721 0.0
C2242 C 0.46781 0.44506 0.03121 0.0
C2243 C 0.44946 0.45197 0.05388 0.0
C2244 C 0.48821 0.50351 0.07774 0.0
C2245 C 0.50382 0.50003 0.05166 0.0
N2246 N 0.50494 0.46764 1.001 0.0
N2247 N 0.44218 0.49008 0.09807 0.0
C2248 C 0.49297 0.47048 0.02797 0.0
C2249 C 0.4597 0.48191 0.07685 0.0
N2250 N 0.46075 0.41448 1.01204 0.0
N2251 N 0.50136 0.52632 0.10451 0.0
H2252 H 0.42212 0.47439 0.09961 0.0
H2253 H 0.44661 0.51343 0.11255 0.0
H2254 H 0.52308 0.54014 0.10757 0.0
H2255 H 0.49224 0.52829 0.12517 0.0
H2256 H 0.47437 0.40666 0.99691 0.0
H2257 H 0.44216 0.39607 0.01301 0.0
H2258 H 0.49659 0.44818 0.98174 0.0
H2259 H 0.52098 0.48665 0.99625 0.0
C2260 C 0.4011 0.67288 0.81259 0.0
C2261 C 0.41682 0.66139 0.78744 0.0
C2262 C 0.40399 0.71199 0.76713 0.0
C2263 C 0.38481 0.71987 0.78992 0.0
N2264 N 0.36338 0.69888 0.83192 0.0
N2265 N 0.42873 0.67353 0.73805 0.0
C2266 C 0.38287 0.69723 0.81136 0.0
C2267 C 0.41691 0.68234 0.76424 0.0
N2268 N 0.40553 0.66287 0.84021 0.0
N2269 N 0.41041 0.7333 0.74748 0.0
H2270 H 0.43838 0.6539 0.7352 0.0
H2271 H 0.42694 0.68384 0.71832 0.0
H2272 H 0.40127 0.75323 0.74769 0.0
H2273 H 0.42641 0.73286 0.73303 0.0
H2274 H 0.39756 0.67185 0.86032 0.0
H2275 H 0.42106 0.65009 0.84476 0.0
H2276 H 0.35742 0.68107 0.84527 0.0
H2277 H 0.35147 0.71655 0.83365 0.0
C2278 C 0.22011 0.65812 0.54796 0.0
C2279 C 0.24009 0.63854 0.55297 0.0
C2280 C 0.19904 0.59253 0.55657 0.0
C2281 C 0.179 0.61078 0.54818 0.0
N2282 N 0.16993 0.66112 0.53702 0.0
N2283 N 0.24901 0.59331 0.57532 0.0
C2284 C 0.18943 0.64375 0.54466 0.0
C2285 C 0.22968 0.60754 0.56125 0.0
N2286 N 0.23021 0.69091 0.54766 0.0
N2287 N 0.18886 0.56014 0.55837 0.0
H2288 H 0.27134 0.60458 0.58143 0.0
H2289 H 0.24287 0.57207 0.58427 0.0
H2290 H 0.16691 0.54718 0.55274 0.0
H2291 H 0.20221 0.54471 0.56218 0.0
H2292 H 0.21764 0.70771 0.5519 0.0
H2293 H 0.25134 0.702 0.54446 0.0
H2294 H 0.17574 0.6832 0.52928 0.0
H2295 H 0.14749 0.65288 0.5371 0.0
C2296 C 0.7399 0.98964 0.78708 0.0
C2297 C 0.74665 1.00883 0.76469 0.0
C2298 C 0.79506 0.99909 0.76575 0.0
C2299 C 0.78951 0.98162 0.79018 0.0
N2300 N 0.75865 0.96678 0.82876 0.0
N2301 N 0.77504 0.02271 0.72472 0.0
C2302 C 0.76222 0.97807 0.80186 0.0
C2303 C 0.77235 1.01003 0.75113 0.0
N2304 N 0.71213 0.98309 0.79424 0.0
N2305 N 0.82277 1.00767 0.75854 0.0
H2306 H 0.75837 0.03122 0.71426 0.0
H2307 H 0.79239 0.0224 0.7121 0.0
H2308 H 0.84044 1.00191 0.77036 0.0
H2309 H 0.82894 0.02344 0.74335 0.0
H2310 H 0.70447 0.96656 0.80828 0.0
H2311 H 0.69596 0.99187 0.78317 0.0
H2312 H 0.73997 0.96538 0.83943 0.0
H2313 H 0.77588 0.96254 0.84243 0.0
C2314 C 0.7937 0.9686 0.56085 0.0
C2315 C 0.79325 0.93734 0.5429 0.0
C2316 C 0.7432 0.93305 0.51729 0.0
C2317 C 0.74597 0.96662 0.53167 0.0
N2318 N 0.77632 0.01782 0.56394 0.0
N2319 N 0.76682 0.88831 0.50541 0.0
C2320 C 0.77178 0.98467 0.55285 0.0
C2321 C 0.76757 0.91896 0.52171 0.0
N2322 N 0.81518 0.98277 0.58603 0.0
N2323 N 0.71714 0.9146 0.49984 0.0
H2324 H 0.78301 0.87654 0.51067 0.0
H2325 H 0.75069 0.87485 0.48671 0.0
H2326 H 0.69919 0.92425 0.49614 0.0
H2327 H 0.71256 0.88935 0.49074 0.0
H2328 H 0.81547 1.00418 0.60193 0.0
H2329 H 0.83105 0.97105 0.59265 0.0
H2330 H 0.79616 0.03294 0.57648 0.0
H2331 H 0.76137 0.03095 0.55812 0.0
C2332 C 0.4232 0.45176 0.7856 0.0
C2333 C 0.41304 0.47452 0.76915 0.0
C2334 C 0.36798 0.42561 0.74853 0.0
C2335 C 0.3758 0.40479 0.7693 0.0
N2336 N 0.41297 0.40443 0.81118 0.0
N2337 N 0.37202 0.48042 0.7361 0.0
C2338 C 0.40399 0.41991 0.78875 0.0
C2339 C 0.3842 0.46053 0.75144 0.0
N2340 N 0.45206 0.45996 0.79789 0.0
N2341 N 0.34625 0.41156 0.72356 0.0
H2342 H 0.38326 0.5045 0.73567 0.0
H2343 H 0.35002 0.47402 0.72627 0.0
H2344 H 0.33625 0.38638 0.71738 0.0
H2345 H 0.34121 0.42383 0.70603 0.0
H2346 H 0.46221 0.4439 0.80723 0.0
H2347 H 0.46639 0.48162 0.79549 0.0
H2348 H 0.43087 0.41572 0.82871 0.0
H2349 H 0.40131 0.38155 0.81415 0.0
C2350 C 0.2687 0.65893 0.20951 0.0
C2351 C 0.24331 0.6546 0.22428 0.0
C2352 C 0.2677 0.69939 0.26735 0.0
C2353 C 0.29222 0.70674 0.25163 0.0
N2354 N 0.3161 0.69384 0.20634 0.0
N2355 N 0.2154 0.67835 0.25981 0.0
C2356 C 0.29293 0.68666 0.22221 0.0
C2357 C 0.24174 0.67746 0.25072 0.0
N2358 N 0.26982 0.63567 0.18414 0.0
N2359 N 0.26937 0.71353 0.29826 0.0
H2360 H 0.19581 0.66204 0.24786 0.0
H2361 H 0.21309 0.69783 0.27663 0.0
H2362 H 0.28902 0.72809 0.31184 0.0
H2363 H 0.25211 0.70827 0.31093 0.0
H2364 H 0.28878 0.63487 0.17445 0.0
H2365 H 0.25176 0.61593 0.17387 0.0
H2366 H 0.31585 0.68251 0.18319 0.0
H2367 H 0.33573 0.71122 0.21591 0.0
C2368 C 0.52882 0.66513 0.46389 0.0
C2369 C 0.54807 0.69752 0.46988 0.0
C2370 C 0.58237 0.67778 0.50538 0.0
C2371 C 0.56355 0.64459 0.49875 0.0
N2372 N 0.51663 0.6091 0.47263 0.0
N2373 N 0.59613 0.73214 0.49199 0.0
C2374 C 0.53643 0.63914 0.4779 0.0
C2375 C 0.5754 0.70308 0.48976 0.0
N2376 N 0.50202 0.65957 0.44619 0.0
N2377 N 0.60712 0.68609 0.52706 0.0
H2378 H 0.59254 0.75093 0.48102 0.0
H2379 H 0.61789 0.73654 0.50194 0.0
H2380 H 0.61608 0.66933 0.53638 0.0
H2381 H 0.61833 0.71044 0.53731 0.0
H2382 H 0.48618 0.63716 0.44054 0.0
H2383 H 0.49476 0.67797 0.43755 0.0
H2384 H 0.50112 0.59932 0.45255 0.0
H2385 H 0.51508 0.59451 0.48933 0.0
C2386 C 0.7479 0.34967 0.67736 0.0
C2387 C 0.71789 0.33625 0.68024 0.0
C2388 C 0.73595 0.30979 0.72234 0.0
C2389 C 0.76658 0.32275 0.71988 0.0
N2390 N 0.80035 0.35749 0.69448 0.0
N2391 N 0.68445 0.29723 0.7019 0.0
C2392 C 0.77202 0.34328 0.69705 0.0
C2393 C 0.71251 0.31516 0.70204 0.0
N2394 N 0.75334 0.36807 0.65501 0.0
N2395 N 0.72806 0.29284 0.74519 0.0
H2396 H 0.66612 0.30014 0.68888 0.0
H2397 H 0.67932 0.27726 0.71293 0.0
H2398 H 0.73729 0.27459 0.75108 0.0
H2399 H 0.70917 0.29366 0.75512 0.0
H2400 H 0.77378 0.37643 0.64859 0.0
H2401 H 0.73669 0.37402 0.64164 0.0
H2402 H 0.80673 0.37577 0.68184 0.0
H2403 H 0.81807 0.35157 0.70571 0.0
C2404 C 0.03258 0.39283 0.99542 0.0
C2405 C 0.05279 0.38163 0.97714 0.0
C2406 C 0.07761 0.4392 0.97791 0.0
C2407 C 0.05903 0.45126 0.99784 0.0
N2408 N 0.02433 0.43776 0.03322 0.0
N2409 N 0.10196 0.39599 0.9659 0.0
C2410 C 0.03806 0.42757 1.00896 0.0
C2411 C 0.07781 0.40554 0.97355 0.0
N2412 N 1.00785 0.37091 0.99928 0.0
N2413 N 0.09386 0.45908 0.96131 0.0
H2414 H 0.10313 0.37165 0.96481 0.0
H2415 H 0.1215 0.41287 0.9647 0.0
H2416 H 0.09176 0.4827 0.96032 0.0
H2417 H 0.10627 0.45027 0.94516 0.0
H2418 H 0.99097 0.37825 1.00943 0.0
H2419 H 1.00355 0.34554 0.99091 0.0
H2420 H 1.01107 0.42136 0.04416 0.0
H2421 H 0.02867 0.46242 0.04459 0.0
C2422 C 0.02554 0.82195 0.1513 0.0
C2423 C 0.05376 0.81933 0.16357 0.0
C2424 C 0.0349 0.81423 0.21363 0.0
C2425 C 1.00582 0.81048 0.19912 0.0
N2426 N 0.97321 0.8044 0.15127 0.0
N2427 N 0.0827 0.80661 0.20645 0.0
C2428 C 1.00107 0.81249 0.16711 0.0
C2429 C 0.05788 0.81404 0.19489 0.0
N2430 N 0.02215 0.83503 0.12525 0.0
N2431 N 0.04078 0.81845 0.24549 0.0
H2432 H 0.09934 0.80369 0.19348 0.0
H2433 H 0.0853 0.7996 0.22797 0.0
H2434 H 0.0247 0.819 0.25991 0.0
H2435 H 0.06201 0.82482 0.25768 0.0
H2436 H 1.00249 0.83939 0.11668 0.0
H2437 H 0.03979 0.84569 0.11487 0.0
H2438 H 0.96872 0.80197 0.12703 0.0
H2439 H 0.95473 0.79696 0.16179 0.0
C2440 C 0.50562 0.34753 0.1111 0.0
C2441 C 0.51011 0.31545 0.10449 0.0
C2442 C 0.54241 0.33228 0.06655 0.0
C2443 C 0.53834 0.3645 0.07334 0.0
N2444 N 0.52168 0.40518 0.10693 0.0
N2445 N 0.54128 0.28189 0.08487 0.0
C2446 C 0.52159 0.37287 0.09714 0.0
C2447 C 0.53094 0.30913 0.08474 0.0
N2448 N 0.48596 0.35363 0.13046 0.0
N2449 N 0.55689 0.32351 0.04238 0.0
H2450 H 0.53521 0.26582 0.09978 0.0
H2451 H 0.55849 0.27757 0.07334 0.0
H2452 H 0.56645 0.33997 0.02903 0.0
H2453 H 0.55746 0.29924 0.03403 0.0
H2454 H 0.47958 0.37554 0.13417 0.0
H2455 H 0.47468 0.33577 0.1415 0.0
H2456 H 0.51251 0.41364 0.12629 0.0
H2457 H 0.53309 0.42409 0.09714 0.0
C2458 C 0.06288 0.33442 0.33035 0.0
C2459 C 0.07145 0.35795 0.35935 0.0
C2460 C 0.02732 0.37654 0.35108 0.0
C2461 C 0.01917 0.35374 0.32179 0.0
N2462 N 0.0265 0.30947 0.28374 0.0
N2463 N 0.0602 0.39683 0.40039 0.0
C2464 C 0.03628 0.3323 0.31134 0.0
C2465 C 0.053 0.37736 0.37083 0.0
N2466 N 0.07996 0.31374 0.32149 0.0
N2467 N 1.01101 0.39829 0.35937 0.0
H2468 H 0.08012 0.40061 0.41466 0.0
H2469 H 0.04589 0.40814 0.41167 0.0
H2470 H 0.99156 0.39817 0.34597 0.0
H2471 H 0.01761 0.41819 0.3784 0.0
H2472 H 0.07732 0.29894 0.29928 0.0
H2473 H 0.09717 0.31102 0.33665 0.0
H2474 H 0.03654 0.29124 0.2754 0.0
H2475 H 1.00742 0.30817 0.26897 0.0
C2476 C 1.00978 0.6366 0.60958 0.0
C2477 C 0.02543 0.67028 0.61801 0.0
C2478 C 0.06865 0.65512 0.6005 0.0
C2479 C 0.05184 0.62272 0.58702 0.0
N2480 N 1.00305 0.5873 0.57006 0.0
N2481 N 0.06562 0.71108 0.60632 0.0
C2482 C 0.02147 0.61434 0.58959 0.0
C2483 C 0.05397 0.67966 0.60976 0.0
N2484 N 0.98321 0.62617 0.61876 0.0
N2485 N 0.09828 0.6632 0.60156 0.0
H2486 H 0.05302 0.72786 0.60547 0.0
H2487 H 0.08574 0.71833 0.59866 0.0
H2488 H 0.1094 0.64555 0.59408 0.0
H2489 H 0.11157 0.68653 0.61262 0.0
H2490 H 0.97198 0.60123 0.61471 0.0
H2491 H 0.97365 0.64231 0.63222 0.0
H2492 H 0.9804 0.58223 0.56872 0.0
H2493 H 1.01037 0.57253 0.55277 0.0
C2494 C 0.73894 0.87416 0.84557 0.0
C2495 C 0.71475 0.85187 0.85251 0.0
C2496 C 0.73179 0.8064 0.82387 0.0
C2497 C 0.75259 0.82955 0.81209 0.0
N2498 N 0.76759 0.88555 0.80494 0.0
N2499 N 0.68462 0.79537 0.84168 0.0
C2500 C 0.75367 0.86345 0.82099 0.0
C2501 C 0.71006 0.81747 0.83984 0.0
N2502 N 0.74884 0.90531 0.86327 0.0
N2503 N 0.73336 0.77453 0.82168 0.0
H2504 H 0.66767 0.80221 0.85203 0.0
H2505 H 0.67933 0.77066 0.83012 0.0
H2506 H 0.74966 0.76548 0.81209 0.0
H2507 H 0.72022 0.7581 0.83272 0.0
H2508 H 0.76977 0.91953 0.86263 0.0
H2509 H 0.73846 0.91416 0.88154 0.0
H2510 H 0.76714 0.91014 0.80982 0.0
H2511 H 0.77578 0.87826 0.78439 0.0
C2512 C 0.52694 0.5492 0.66849 0.0
C2513 C 0.50655 0.56936 0.6751 0.0
C2514 C 0.51923 0.58745 0.62299 0.0
C2515 C 0.53928 0.56696 0.61608 0.0
N2516 N 0.56345 0.53092 0.63783 0.0
N2517 N 0.48172 0.60445 0.65262 0.0
C2518 C 0.54296 0.54844 0.64047 0.0
C2519 C 0.50252 0.58737 0.6504 0.0
N2520 N 0.53017 0.52892 0.68875 0.0
N2521 N 0.51661 0.60854 0.60341 0.0
H2522 H 0.47048 0.60614 0.67182 0.0
H2523 H 0.47404 0.61487 0.63478 0.0
H2524 H 0.52664 0.60853 0.58333 0.0
H2525 H 0.50617 0.62733 0.60784 0.0
H2526 H 0.54128 0.51068 0.68516 0.0
H2527 H 0.51977 0.52884 0.70857 0.0
H2528 H 0.57088 0.51977 0.65517 0.0
H2529 H 0.57459 0.52925 0.61855 0.0
C2530 C 0.8095 0.19438 0.9403 0.0
C2531 C 0.80968 0.20253 0.973 0.0
C2532 C 0.78791 0.2483 0.96643 0.0
C2533 C 0.78767 0.23924 0.93394 0.0
N2534 N 0.78626 0.19669 0.88975 0.0
N2535 N 0.80155 0.24 0.01843 0.0
C2536 C 0.79504 0.21024 0.92077 0.0
C2537 C 0.7995 0.23025 0.9866 0.0
N2538 N 0.82413 0.17231 0.92802 0.0
N2539 N 0.77585 0.2734 0.97741 0.0
H2540 H 0.80959 0.22839 0.03485 0.0
H2541 H 0.79693 0.26141 0.02953 0.0
H2542 H 0.7667 0.28609 0.96245 0.0
H2543 H 0.77251 0.28013 1.00047 0.0
H2544 H 0.8268 0.16783 0.90445 0.0
H2545 H 0.8364 0.16142 0.94204 0.0
H2546 H 0.78915 0.1741 0.87891 0.0
H2547 H 0.77172 0.20566 0.87669 0.0
C2548 C 0.13293 0.56463 0.15785 0.0
C2549 C 0.14982 0.5407 0.15506 0.0
C2550 C 0.12412 0.51624 0.10188 0.0
C2551 C 0.10855 0.54087 0.1041 0.0
N2552 N 0.09421 0.58536 0.13491 0.0
N2553 N 0.16548 0.49837 0.1225 0.0
C2554 C 0.11219 0.56453 0.13213 0.0
C2555 C 0.14677 0.5181 0.12638 0.0
N2556 N 0.13742 0.58851 0.18451 0.0
N2557 N 0.11553 0.48944 0.07762 0.0
H2558 H 0.18128 0.4976 0.14051 0.0
H2559 H 0.16681 0.48463 0.10078 0.0
H2560 H 0.09638 0.48507 0.06203 0.0
H2561 H 0.12464 0.46939 0.07562 0.0
H2562 H 0.13162 0.61066 0.18517 0.0
H2563 H 0.14741 0.58705 0.20619 0.0
H2564 H 0.09273 0.60029 0.15589 0.0
H2565 H 0.07898 0.58644 0.11647 0.0
C2566 C 0.82829 0.84651 0.43336 0.0
C2567 C 0.85552 0.85453 0.45353 0.0
C2568 C 0.87809 0.83726 0.40666 0.0
C2569 C 0.85044 0.82808 0.3865 0.0
N2570 N 0.79797 0.81208 0.38582 0.0
N2571 N 0.90408 0.84704 0.45989 0.0
C2572 C 0.82518 0.82912 0.40146 0.0
C2573 C 0.8795 0.84599 0.44033 0.0
N2574 N 0.80514 0.85582 0.44445 0.0
N2575 N 0.90345 0.84027 0.39413 0.0
H2576 H 0.90577 0.85353 0.48423 0.0
H2577 H 0.92131 0.83832 0.45211 0.0
H2578 H 0.90422 0.83633 0.37017 0.0
H2579 H 0.92406 0.85019 0.40765 0.0
H2580 H 0.78585 0.85435 0.42999 0.0
H2581 H 0.80611 0.8669 0.46785 0.0
H2582 H 0.77908 0.81005 0.39625 0.0
H2583 H 0.79474 0.79624 0.36401 0.0
C2584 C 0.51564 0.59759 0.89568 0.0
C2585 C 0.50435 0.57159 0.86826 0.0
C2586 C 0.52274 0.53529 0.90278 0.0
C2587 C 0.53647 0.56201 0.92944 0.0
N2588 N 0.55396 0.62118 0.94093 0.0
N2589 N 0.50755 0.51729 0.84576 0.0
C2590 C 0.5347 0.59378 0.92293 0.0
C2591 C 0.51117 0.54108 0.87206 0.0
N2592 N 0.50912 0.62703 0.89575 0.0
N2593 N 0.51931 0.50359 0.90651 0.0
H2594 H 0.5019 0.5218 0.82363 0.0
H2595 H 0.51401 0.49557 0.84562 0.0
H2596 H 0.52563 0.49771 0.92778 0.0
H2597 H 0.50706 0.48326 0.88951 0.0
H2598 H 0.51392 0.64588 0.91576 0.0
H2599 H 0.49727 0.63156 0.87634 0.0
H2600 H 0.55605 0.64477 0.93645 0.0
H2601 H 0.57124 0.61898 0.95615 0.0
C2602 C 0.84629 0.25291 0.14595 0.0
C2603 C 0.83679 0.21782 0.14173 0.0
C2604 C 0.81706 0.22632 0.19148 0.0
C2605 C 0.82341 0.26107 0.1927 0.0
N2606 N 0.83048 0.3023 0.16074 0.0
N2607 N 0.80558 0.1719 0.15963 0.0
C2608 C 0.83342 0.27274 0.16652 0.0
C2609 C 0.81985 0.20465 0.164 0.0
N2610 N 0.86846 0.26785 0.13175 0.0
N2611 N 0.80889 0.21316 0.21644 0.0
H2612 H 0.8107 0.15262 0.14533 0.0
H2613 H 0.78831 0.16376 0.17166 0.0
H2614 H 0.80247 0.22584 0.23563 0.0
H2615 H 0.80919 0.18913 0.2182 0.0
H2616 H 0.87606 0.29351 0.13541 0.0
H2617 H 0.88216 0.25512 0.12093 0.0
H2618 H 0.8366 0.31057 0.14074 0.0
H2619 H 0.81799 0.31562 0.17311 0.0
C2620 C 0.1632 0.57792 0.32482 0.0
C2621 C 0.18041 0.60734 0.31816 0.0
C2622 C 0.16177 0.64089 0.3584 0.0
C2623 C 0.14218 0.61156 0.36179 0.0
N2624 N 0.12078 0.55269 0.3463 0.0
N2625 N 0.19703 0.66721 0.32897 0.0
C2626 C 0.14176 0.58021 0.34429 0.0
C2627 C 0.18017 0.639 0.3352 0.0
N2628 N 0.16867 0.54807 0.31425 0.0
N2629 N 0.16316 0.67029 0.37792 0.0
H2630 H 0.21277 0.66735 0.31443 0.0
H2631 H 0.195 0.69083 0.33738 0.0
H2632 H 0.14921 0.67262 0.39457 0.0
H2633 H 0.17882 0.69225 0.37886 0.0
H2634 H 0.15862 0.52638 0.32101 0.0
H2635 H 0.18576 0.54553 0.30174 0.0
H2636 H 0.11766 0.52966 0.33166 0.0
H2637 H 0.1047 0.55337 0.36071 0.0
C2638 C 0.83693 0.88218 0.66165 0.0
C2639 C 0.85392 0.86786 0.64059 0.0
C2640 C 0.85482 0.82645 0.67519 0.0
C2641 C 0.83735 0.8403 0.69587 0.0
N2642 N 0.80753 0.87811 0.70432 0.0
N2643 N 0.88397 0.82997 0.63248 0.0
C2644 C 0.82771 0.86764 0.68803 0.0
C2645 C 0.86394 0.84082 0.64882 0.0
N2646 N 0.82944 0.91004 0.65659 0.0
N2647 N 0.8619 0.79826 0.68001 0.0
H2648 H 0.89197 0.84019 0.61415 0.0
H2649 H 0.89498 0.81318 0.63879 0.0
H2650 H 0.85766 0.78827 0.69965 0.0
H2651 H 0.87042 0.78356 0.66384 0.0
H2652 H 0.8209 0.92464 0.67284 0.0
H2653 H 0.83338 0.91986 0.63682 0.0
H2654 H 0.7964 0.89482 0.69805 0.0
H2655 H 0.80022 0.86811 0.72307 0.0
C2656 C 0.80367 0.53182 0.53975 0.0
C2657 C 0.7971 0.50553 0.51301 0.0
C2658 C 0.74483 0.50293 0.51196 0.0
C2659 C 0.75207 0.5329 0.53499 0.0
N2660 N 0.7897 0.57889 0.56693 0.0
N2661 N 0.7613 0.46654 0.47257 0.0
C2662 C 0.78188 0.54816 0.54788 0.0
C2663 C 0.76759 0.49122 0.49877 0.0
N2664 N 0.83032 0.5403 0.55835 0.0
N2665 N 0.71631 0.48486 0.50377 0.0
H2666 H 0.77741 0.45702 0.46287 0.0
H2667 H 0.74057 0.45727 0.45923 0.0
H2668 H 0.69924 0.4921 0.51364 0.0
H2669 H 0.70993 0.46122 0.48965 0.0
H2670 H 0.83517 0.5571 0.57979 0.0
H2671 H 0.84657 0.52819 0.55388 0.0
H2672 H 0.81145 0.59235 0.57429 0.0
H2673 H 0.77466 0.59228 0.57282 0.0
C2674 C 0.21777 0.13582 0.52267 0.0
C2675 C 0.21826 0.15561 0.49936 0.0
C2676 C 0.16579 0.12591 0.48058 0.0
C2677 C 0.16454 0.10871 0.50576 0.0
N2678 N 0.18901 0.10235 0.55412 0.0
N2679 N 0.1901 0.1733 0.46018 0.0
C2680 C 0.1905 0.11527 0.52774 0.0
C2681 C 0.19133 0.15198 0.47983 0.0
N2682 N 0.24344 0.13599 0.53986 0.0
N2683 N 0.14314 0.11613 0.45631 0.0
H2684 H 0.20815 0.19214 0.45866 0.0
H2685 H 0.17085 0.17348 0.44679 0.0
H2686 H 0.12505 0.09641 0.45554 0.0
H2687 H 0.14362 0.12523 0.43575 0.0
H2688 H 0.24503 0.11941 0.55438 0.0
H2689 H 0.26367 0.15058 0.53757 0.0
H2690 H 0.20606 0.1088 0.57287 0.0
H2691 H 0.1696 0.08768 0.5586 0.0
C2692 C 0.27003 0.94383 0.81744 0.0
C2693 C 0.25104 0.95082 0.79223 0.0
C2694 C 0.25946 0.8952 0.76207 0.0
C2695 C 0.28165 0.89154 0.78592 0.0
N2696 N 0.30996 0.92057 0.8357 0.0
N2697 N 0.23146 0.92897 0.73759 0.0
C2698 C 0.28735 0.91856 0.81301 0.0
C2699 C 0.24693 0.92499 0.76393 0.0
N2700 N 0.26993 0.95945 0.84742 0.0
N2701 N 0.2496 0.86948 0.73692 0.0
H2702 H 0.22196 0.94858 0.73758 0.0
H2703 H 0.23 0.91449 0.71541 0.0
H2704 H 0.25818 0.84896 0.73433 0.0
H2705 H 0.23156 0.86722 0.7203 0.0
H2706 H 0.28051 0.95397 0.86706 0.0
H2707 H 0.2555 0.97368 0.85309 0.0
H2708 H 0.31821 0.94099 0.85414 0.0
H2709 H 0.32213 0.90313 0.83441 0.0
C2710 C 0.45954 0.97091 0.98872 0.0
C2711 C 0.44195 0.98546 1.0082 0.0
C2712 C 0.48621 0.02241 0.04137 0.0
C2713 C 0.50315 1.01129 0.01899 0.0
N2714 N 0.50628 0.97694 0.97013 0.0
N2715 N 0.43983 1.0147 0.06009 0.0
C2716 C 0.48993 0.98608 0.99232 0.0
C2717 C 0.45564 1.00836 0.03654 0.0
N2718 N 0.44789 0.94096 0.96889 0.0
N2719 N 0.4989 0.04816 0.06614 0.0
H2720 H 0.41729 1.0058 0.05751 0.0
H2721 H 0.44912 0.0269 0.08296 0.0
H2722 H 0.52132 0.0585 0.07178 0.0
H2723 H 0.48708 0.0611 0.07992 0.0
H2724 H 0.46028 0.92792 0.95612 0.0
H2725 H 0.42667 0.92696 0.96841 0.0
H2726 H 0.49705 0.96194 0.9482 0.0
H2727 H 0.52896 0.98612 0.97276 0.0
C2728 C 0.90967 0.6167 0.77925 0.0
C2729 C 0.90933 0.61163 0.81071 0.0
C2730 C 0.86198 0.62437 0.81087 0.0
C2731 C 0.86303 0.6318 0.7808 0.0
N2732 N 0.88961 0.63939 0.73749 0.0
N2733 N 0.89062 0.62395 0.85933 0.0
C2734 C 0.88729 0.62902 0.76516 0.0
C2735 C 0.88717 0.61978 0.82739 0.0
N2736 N 0.93081 0.60963 0.76242 0.0
N2737 N 0.8367 0.62146 0.82359 0.0
H2738 H 0.90996 0.62314 0.87242 0.0
H2739 H 0.87591 0.6321 0.8728 0.0
H2740 H 0.81748 0.62386 0.81155 0.0
H2741 H 0.8341 0.61318 0.84442 0.0
H2742 H 0.92871 0.60674 0.73811 0.0
H2743 H 0.95076 0.60721 0.77223 0.0
H2744 H 0.90841 0.64199 0.72691 0.0
H2745 H 0.87336 0.64748 0.72587 0.0
C2746 C 0.86354 0.64393 0.02642 0.0
C2747 C 0.86716 0.67299 0.01407 0.0
C2748 C 0.92056 0.67979 0.02239 0.0
C2749 C 0.91601 0.64733 0.02858 0.0
N2750 N 0.8814 0.59629 0.03094 0.0
N2751 N 0.89956 0.71934 1.00041 0.0
C2752 C 0.88703 0.62888 0.02931 0.0
C2753 C 0.89588 0.69137 1.01233 0.0
N2754 N 0.83784 0.63121 0.03651 0.0
N2755 N 0.94835 0.69986 0.02704 0.0
H2756 H 0.8821 0.7288 0.99384 0.0
H2757 H 0.91955 0.73203 0.99544 0.0
H2758 H 0.96663 0.69236 0.03494 0.0
H2759 H 0.95304 0.72474 0.0259 0.0
H2760 H 0.83495 0.6118 0.04839 0.0
H2761 H 0.8205 0.64226 0.03576 0.0
H2762 H 0.86021 0.5811 0.02832 0.0
H2763 H 0.89749 0.58347 0.03147 0.0
C2764 C 0.2469 0.1654 0.81015 0.0
C2765 C 0.25348 0.13491 0.79661 0.0
C2766 C 0.29438 0.17294 0.77567 0.0
C2767 C 0.28915 0.20334 0.79137 0.0
N2768 N 0.26157 0.2259 0.82818 0.0
N2769 N 0.28639 0.1125 0.7667 0.0
C2770 C 0.26562 0.19848 0.80972 0.0
C2771 C 0.2782 0.13984 0.77965 0.0
N2772 N 0.22202 0.16309 0.8235 0.0
N2773 N 0.31432 0.17553 0.75536 0.0
H2774 H 0.27451 0.08861 0.7668 0.0
H2775 H 0.30586 0.11338 0.75766 0.0
H2776 H 0.32606 0.19832 0.75189 0.0
H2777 H 0.3175 0.15552 0.74002 0.0
H2778 H 0.2133 0.18304 0.83003 0.0
H2779 H 0.20905 0.14071 0.82644 0.0
H2780 H 0.24805 0.22498 0.84541 0.0
H2781 H 0.2736 0.24973 0.82787 0.0
C2782 C 0.42882 0.94495 0.32329 0.0
C2783 C 0.42465 0.9683 0.30586 0.0
C2784 C 0.38105 0.92911 0.27405 0.0
C2785 C 0.3827 0.90791 0.29532 0.0
N2786 N 0.40535 0.89945 0.34417 0.0
N2787 N 0.39563 0.98453 0.26549 0.0
C2788 C 0.40576 0.91672 0.32091 0.0
C2789 C 0.40054 0.96097 0.28127 0.0
N2790 N 0.45475 0.94974 0.34236 0.0
N2791 N 0.36093 0.91913 0.24724 0.0
H2792 H 0.40935 1.00816 0.26959 0.0
H2793 H 0.37653 0.98167 0.25016 0.0
H2794 H 0.3448 0.89687 0.2419 0.0
H2795 H 0.36144 0.93198 0.22907 0.0
H2796 H 0.45951 0.93213 0.35417 0.0
H2797 H 0.47242 0.97037 0.34474 0.0
H2798 H 0.41713 0.91069 0.36624 0.0
H2799 H 0.3931 0.87551 0.34291 0.0
C2800 C 0.63826 0.4292 0.57432 0.0
C2801 C 0.61512 0.40643 0.58368 0.0
C2802 C 0.58082 0.43749 0.56393 0.0
C2803 C 0.60411 0.46168 0.55646 0.0
N2804 N 0.65635 0.48191 0.55894 0.0
N2805 N 0.5658 0.39627 0.59514 0.0
C2806 C 0.6332 0.45801 0.56332 0.0
C2807 C 0.58683 0.41267 0.58038 0.0
N2808 N 0.66489 0.42249 0.57412 0.0
N2809 N 0.5525 0.43816 0.5559 0.0
H2810 H 0.57006 0.3806 0.60977 0.0
H2811 H 0.54557 0.40138 0.59636 0.0
H2812 H 0.54659 0.45725 0.54723 0.0
H2813 H 0.53468 0.41851 0.5561 0.0
H2814 H 0.68179 0.43559 0.56433 0.0
H2815 H 0.66942 0.40209 0.58159 0.0
H2816 H 0.678 0.48362 0.56757 0.0
H2817 H 0.65389 0.50109 0.54797 0.0
C2818 C 0.43696 0.79729 0.39573 0.0
C2819 C 0.45641 0.77944 0.38232 0.0
C2820 C 0.42558 0.77247 0.32982 0.0
C2821 C 0.40744 0.79222 0.34284 0.0
N2822 N 0.39768 0.82498 0.38885 0.0
N2823 N 0.46245 0.74197 0.3372 0.0
C2824 C 0.41341 0.80443 0.3761 0.0
C2825 C 0.44868 0.76487 0.34949 0.0
N2826 N 0.44097 0.80774 0.42757 0.0
N2827 N 0.42133 0.76156 0.298 0.0
H2828 H 0.47865 0.73532 0.35057 0.0
H2829 H 0.45635 0.72746 0.31464 0.0
H2830 H 0.40373 0.76409 0.28325 0.0
H2831 H 0.43572 0.75116 0.28593 0.0
H2832 H 0.42608 0.81703 0.43974 0.0
H2833 H 0.45877 0.80572 0.44231 0.0
H2834 H 0.40264 0.83867 0.41176 0.0
H2835 H 0.38025 0.82985 0.3757 0.0
C2836 C 0.12202 0.72475 0.05829 0.0
C2837 C 0.11965 0.73422 0.09073 0.0
C2838 C 0.11575 0.67593 0.09432 0.0
C2839 C 0.11056 0.66582 0.06123 0.0
N2840 N 0.10738 0.68132 1.01112 0.0
N2841 N 0.11034 0.71512 0.13882 0.0
C2842 C 0.11312 0.69048 0.04301 0.0
C2843 C 0.11568 0.70878 0.10859 0.0
N2844 N 0.13472 0.74789 0.04246 0.0
N2845 N 0.12144 0.65438 0.11227 0.0
H2846 H 0.10646 0.73722 0.14942 0.0
H2847 H 0.10588 0.69686 0.15196 0.0
H2848 H 0.12231 0.63053 0.10248 0.0
H2849 H 0.12867 0.66153 0.13638 0.0
H2850 H 0.13884 0.74189 0.01953 0.0
H2851 H 0.14427 0.77251 0.05326 0.0
H2852 H 0.10709 0.69809 0.99652 0.0
H2853 H 0.10096 0.6566 0.99957 0.0
C2854 C 0.12597 0.27274 0.88857 0.0
C2855 C 0.1155 0.30094 0.89824 0.0
C2856 C 0.16049 0.33594 0.88568 0.0
C2857 C 0.1679 0.30747 0.87052 0.0
N2858 N 0.15709 0.24812 0.85644 0.0
N2859 N 0.12236 0.35988 0.90324 0.0
C2860 C 0.15076 0.27565 0.87214 0.0
C2861 C 0.13287 0.33272 0.89637 0.0
N2862 N 0.11188 0.24305 0.89446 0.0
N2863 N 0.18004 0.36621 0.89007 0.0
H2864 H 0.10253 0.35902 0.91143 0.0
H2865 H 0.13222 0.38277 0.89857 0.0
H2866 H 0.20051 0.36934 0.8827 0.0
H2867 H 0.17728 0.38754 0.9038 0.0
H2868 H 0.11985 0.22218 0.89075 0.0
H2869 H 0.09354 0.24014 0.9058 0.0
H2870 H 0.14362 0.22432 0.85356 0.0
H2871 H 0.17495 0.24923 0.84436 0.0
C2872 C 0.64391 0.77265 0.95975 0.0
C2873 C 0.62395 0.77737 0.93568 0.0
C2874 C 0.58418 0.73746 0.95092 0.0
C2875 C 0.60343 0.73678 0.97762 0.0
N2876 N 0.65085 0.75654 1.00977 0.0
N2877 N 0.57367 0.76727 0.91096 0.0
C2878 C 0.63312 0.75517 0.98267 0.0
C2879 C 0.59372 0.76026 0.93159 0.0
N2880 N 0.67334 0.78433 0.96017 0.0
N2881 N 0.55682 0.71617 0.9439 0.0
H2882 H 0.57904 0.78377 0.89629 0.0
H2883 H 0.55115 0.75853 0.91005 0.0
H2884 H 0.54849 0.70037 0.9584 0.0
H2885 H 0.54323 0.71249 0.92264 0.0
H2886 H 0.68912 0.77917 0.9754 0.0
H2887 H 0.68191 0.79625 0.94299 0.0
H2888 H 0.67178 0.77245 0.01637 0.0
H2889 H 0.64378 0.74378 0.02701 0.0
C2890 C 0.12271 0.78797 0.70019 0.0
C2891 C 0.09534 0.77093 0.7068 0.0
C2892 C 0.11984 0.7498 0.74764 0.0
C2893 C 0.14693 0.76814 0.74183 0.0
N2894 N 0.1749 0.80922 0.71765 0.0
N2895 N 0.06714 0.7353 0.73672 0.0
C2896 C 0.14858 0.78863 0.71961 0.0
C2897 C 0.09365 0.75197 0.7307 0.0
N2898 N 0.12401 0.80301 0.67504 0.0
N2899 N 0.11938 0.72882 0.76807 0.0
H2900 H 0.04741 0.73139 0.72222 0.0
H2901 H 0.06435 0.7259 0.7569 0.0
H2902 H 0.13815 0.72774 0.78196 0.0
H2903 H 0.10082 0.71124 0.77039 0.0
H2904 H 0.14339 0.81212 0.66669 0.0
H2905 H 0.10554 0.80508 0.66136 0.0
H2906 H 0.17714 0.82739 0.70434 0.0
H2907 H 0.19433 0.81023 0.73167 0.0
C2908 C 0.14035 0.48502 0.43243 0.0
C2909 C 0.14964 0.45695 0.43887 0.0
C2910 C 0.12371 0.45902 0.48451 0.0
C2911 C 0.11638 0.4884 0.47983 0.0
N2912 N 0.11172 0.52411 0.44377 0.0
N2913 N 0.16063 0.42934 0.48064 0.0
C2914 C 0.12261 0.49958 0.45199 0.0
C2915 C 0.14437 0.44744 0.46772 0.0
N2916 N 0.15011 0.50045 0.4094 0.0
N2917 N 0.10999 0.44115 0.50424 0.0
H2918 H 0.17934 0.42513 0.47205 0.0
H2919 H 0.15857 0.42363 0.50264 0.0
H2920 H 0.0925 0.44692 0.51446 0.0
H2921 H 0.11322 0.41829 0.5067 0.0
H2922 H 0.16595 0.49439 0.39642 0.0
H2923 H 0.16595 0.49439 0.39642 0.0
H2924 H 0.11529 0.53241 0.42309 0.0
H2925 H 0.09743 0.53396 0.45639 0.0
C2926 C 0.41305 0.23315 0.20876 0.0
C2927 C 0.43559 0.25523 0.19861 0.0
C2928 C 0.42919 0.30085 0.23874 0.0
C2929 C 0.40682 0.27791 0.2489 0.0
N2930 N 0.39016 0.22148 0.25356 0.0
N2931 N 0.4683 0.30988 0.20706 0.0
C2932 C 0.40286 0.24381 0.23703 0.0
C2933 C 0.44468 0.28903 0.21466 0.0
N2934 N 0.40033 0.20238 0.19098 0.0
N2935 N 0.43587 0.33377 0.2518 0.0
H2936 H 0.47868 0.30304 0.18815 0.0
H2937 H 0.47853 0.33345 0.22026 0.0
H2938 H 0.43099 0.34291 0.27366 0.0
H2939 H 0.44734 0.35207 0.24144 0.0
H2940 H 0.38203 0.18662 0.19643 0.0
H2941 H 0.40527 0.1948 0.16875 0.0
H2942 H 0.38836 0.19638 0.24686 0.0
H2943 H 0.38524 0.22892 0.27596 0.0
C2944 C 0.67772 0.56222 0.41552 0.0
C2945 C 0.66891 0.54081 0.38408 0.0
C2946 C 0.62312 0.51657 0.4093 0.0
C2947 C 0.63085 0.54064 0.43934 0.0
N2948 N 0.66359 0.59434 0.46085 0.0
N2949 N 0.62776 0.49869 0.35356 0.0
C2950 C 0.65744 0.56562 0.43905 0.0
C2951 C 0.63997 0.51866 0.38208 0.0
N2952 N 0.70637 0.57908 0.42478 0.0
N2953 N 0.59895 0.49074 0.40583 0.0
H2954 H 0.63921 0.49663 0.33464 0.0
H2955 H 0.60575 0.48576 0.34807 0.0
H2956 H 0.58345 0.48983 0.42087 0.0
H2957 H 0.59472 0.46947 0.38834 0.0
H2958 H 0.71446 0.5923 0.44767 0.0
H2959 H 0.72279 0.57622 0.41163 0.0
H2960 H 0.68064 0.61477 0.46044 0.0
H2961 H 0.64959 0.59906 0.4768 0.0
C2962 C 0.34686 0.88927 0.08757 0.0
C2963 C 0.36848 0.91691 0.08358 0.0
C2964 C 0.40348 0.90534 0.12257 0.0
C2965 C 0.38265 0.87573 0.12332 0.0
N2966 N 0.33804 0.83465 0.09886 0.0
N2967 N 0.4207 0.94381 0.09025 0.0
C2968 C 0.35549 0.86608 0.10321 0.0
C2969 C 0.39781 0.9232 0.09921 0.0
N2970 N 0.31793 0.8856 0.07742 0.0
N2971 N 0.42845 0.9166 0.14406 0.0
H2972 H 0.41861 0.95414 0.07068 0.0
H2973 H 0.44247 0.94692 0.0996 0.0
H2974 H 0.43357 0.90379 0.16115 0.0
H2975 H 0.44279 0.93988 0.14632 0.0
H2976 H 0.3013 0.86696 0.08203 0.0
H2977 H 0.31041 0.90338 0.06785 0.0
H2978 H 0.31913 0.82569 0.08228 0.0
H2979 H 0.34423 0.81662 0.1093 0.0
C2980 C 0.02842 0.60349 0.91569 0.0
C2981 C 1.00031 0.5829 0.91636 0.0
C2982 C 0.02213 0.55257 0.94898 0.0
C2983 C 0.05051 0.57411 0.95141 0.0
N2984 N 0.07939 0.62451 0.93905 0.0
N2985 N 0.97178 0.55306 0.94938 0.0
C2986 C 0.05342 0.60116 0.93556 0.0
C2987 C 0.99759 0.56282 0.93857 0.0
N2988 N 0.03114 0.62477 0.89559 0.0
N2989 N 0.01832 0.52116 0.95378 0.0
H2990 H 0.95421 0.56294 0.94433 0.0
H2991 H 0.96913 0.53768 0.96553 0.0
H2992 H 0.03559 0.51012 0.9553 0.0
H2993 H 0.99758 0.50486 0.95105 0.0
H2994 H 0.05118 0.63731 0.89057 0.0
H2995 H 1.01286 0.62889 0.88322 0.0
H2996 H 0.08127 0.64663 0.93144 0.0
H2997 H 0.09892 0.62301 0.95077 0.0
C2998 C 0.33042 0.28149 0.62432 0.0
C2999 C 0.30627 0.25469 0.60814 0.0
C3000 C 0.2916 0.24851 0.66025 0.0
C3001 C 0.3139 0.27728 0.67594 0.0
N3002 N 0.3502 0.32538 0.67063 0.0
N3003 N 0.25932 0.21921 0.61189 0.0
C3004 C 0.33197 0.29498 0.65724 0.0
C3005 C 0.2856 0.24007 0.62649 0.0
N3006 N 0.35301 0.29309 0.60899 0.0
N3007 N 0.27677 0.22811 0.67742 0.0
H3008 H 0.25281 0.21422 0.58769 0.0
H3009 H 0.2425 0.21018 0.62404 0.0
H3010 H 0.28077 0.23264 0.70186 0.0
H3011 H 0.26271 0.20498 0.66727 0.0
H3012 H 0.37237 0.31023 0.62034 0.0
H3013 H 0.35399 0.28302 0.58579 0.0
H3014 H 0.36144 0.34113 0.65765 0.0
H3015 H 0.35171 0.33628 0.69422 0.0
C3016 C 0.65941 0.51758 0.15795 0.0
C3017 C 0.65761 0.53637 0.18808 0.0
C3018 C 0.62263 0.56063 0.15635 0.0
C3019 C 0.62701 0.54469 0.12571 0.0
N3020 N 0.65744 0.51263 0.10118 0.0
N3021 N 0.64013 0.58138 0.21286 0.0
C3022 C 0.64744 0.52432 0.12785 0.0
C3023 C 0.63992 0.55936 0.18607 0.0
N3024 N 0.67208 0.49204 0.15771 0.0
N3025 N 0.60045 0.57578 0.15782 0.0
H3026 H 0.65169 0.58133 0.23442 0.0
H3027 H 0.63131 0.60154 0.21306 0.0
H3028 H 0.58611 0.57561 0.13817 0.0
H3029 H 0.59395 0.58493 0.17884 0.0
H3030 H 0.67095 0.47437 0.13755 0.0
H3031 H 0.68117 0.48677 0.17832 0.0
H3032 H 0.67389 0.50032 0.10111 0.0
H3033 H 0.65237 0.51894 0.07981 0.0
C3034 C 0.31692 0.88935 0.90388 0.0
C3035 C 0.34519 0.91095 0.91503 0.0
C3036 C 0.36721 0.8694 0.8874 0.0
C3037 C 0.33907 0.84911 0.87425 0.0
N3038 N 0.28671 0.84106 0.86658 0.0
N3039 N 0.39723 0.92283 0.91488 0.0
C3040 C 0.31375 0.85934 0.88172 0.0
C3041 C 0.37026 0.90133 0.90585 0.0
N3042 N 0.29313 0.89739 0.91479 0.0
N3043 N 0.39111 0.85758 0.8829 0.0
H3044 H 0.40082 0.94435 0.93169 0.0
H3045 H 0.41567 0.91991 0.90502 0.0
H3046 H 0.38936 0.83401 0.86983 0.0
H3047 H 0.41226 0.86967 0.89425 0.0
H3048 H 0.27235 0.88108 0.91065 0.0
H3049 H 0.29453 0.92006 0.9294 0.0
H3050 H 0.26784 0.84926 0.86756 0.0
H3051 H 0.28338 0.81819 0.85162 0.0
C3052 C 0.9775 0.53021 0.71 0.0
C3053 C 0.99127 0.53039 0.74051 0.0
C3054 C 0.01747 0.49153 0.7174 0.0
C3055 C 1.00978 0.49864 0.68825 0.0
N3056 N 0.97785 0.51646 0.65366 0.0
N3057 N 0.02398 0.50937 0.77343 0.0
C3058 C 0.98767 0.51479 0.68353 0.0
C3059 C 1.01087 0.51014 0.74438 0.0
N3060 N 0.95534 0.54521 0.70649 0.0
N3061 N 0.03212 0.4678 0.71891 0.0
H3062 H 0.02025 0.52226 0.79434 0.0
H3063 H 0.04057 0.4977 0.7769 0.0
H3064 H 0.03711 0.45454 0.69868 0.0
H3065 H 0.03647 0.45901 0.73914 0.0
H3066 H 0.94284 0.54359 0.68506 0.0
H3067 H 0.94866 0.55857 0.72537 0.0
H3068 H 0.96376 0.53046 0.64778 0.0
H3069 H 0.98427 0.50299 0.63459 0.0
C3070 C 0.33496 0.23458 0.40069 0.0
C3071 C 0.31483 0.24412 0.4206 0.0
C3072 C 0.31414 0.28876 0.39019 0.0
C3073 C 0.32879 0.27474 0.36633 0.0
N3074 N 0.35637 0.23562 0.35219 0.0
N3075 N 0.28301 0.27999 0.43034 0.0
C3076 C 0.33979 0.24773 0.37251 0.0
C3077 C 0.30404 0.27129 0.41432 0.0
N3078 N 0.35141 0.21476 0.41012 0.0
N3079 N 0.31077 0.31979 0.39093 0.0
H3080 H 0.27403 0.26755 0.44692 0.0
H3081 H 0.27251 0.29759 0.425 0.0
H3082 H 0.3162 0.333 0.37354 0.0
H3083 H 0.3043 0.33319 0.41 0.0
H3084 H 0.36822 0.20873 0.39893 0.0
H3085 H 0.35084 0.20744 0.43159 0.0
H3086 H 0.3637 0.21476 0.35358 0.0
H3087 H 0.36193 0.24586 0.33298 0.0
C3088 C 0.38834 0.59628 0.54464 0.0
C3089 C 0.38323 0.61917 0.52619 0.0
C3090 C 0.42111 0.60743 0.49533 0.0
C3091 C 0.4236 0.58162 0.51125 0.0
N3092 N 0.40565 0.54765 0.54733 0.0
N3093 N 0.39269 0.64489 0.48228 0.0
C3094 C 0.40626 0.57514 0.53506 0.0
C3095 C 0.39909 0.62431 0.50106 0.0
N3096 N 0.37585 0.59457 0.57124 0.0
N3097 N 0.44043 0.61658 0.47553 0.0
H3098 H 0.37796 0.65911 0.48698 0.0
H3099 H 0.40074 0.64658 0.46123 0.0
H3100 H 0.45674 0.60479 0.47076 0.0
H3101 H 0.4418 0.63745 0.46589 0.0
H3102 H 0.38106 0.58077 0.58734 0.0
H3103 H 0.36208 0.60915 0.57863 0.0
H3104 H 0.39103 0.53958 0.56219 0.0
H3105 H 0.41774 0.53096 0.54025 0.0
C3106 C 0.95873 0.98751 0.57304 0.0
C3107 C 0.9497 0.95547 0.55307 0.0
C3108 C 0.99597 0.97069 0.52999 0.0
C3109 C 1.00531 1.00273 0.55041 0.0
N3110 N 0.99919 0.03383 0.59991 0.0
N3111 N 0.96485 0.91406 0.51875 0.0
C3112 C 0.9876 1.00887 0.57427 0.0
C3113 C 0.97022 0.94622 0.53393 0.0
N3114 N 0.93989 0.99779 0.59153 0.0
N3115 N 1.01017 0.96413 0.50511 0.0
H3116 H 0.94593 0.89618 0.51975 0.0
H3117 H 0.98014 0.90466 0.50732 0.0
H3118 H 0.02643 0.98208 0.49926 0.0
H3119 H 1.00365 0.94228 0.48818 0.0
H3120 H 0.94341 0.02223 0.60323 0.0
H3121 H 0.91974 0.98253 0.59341 0.0
H3122 H 0.98851 0.03803 0.61923 0.0
H3123 H 0.02111 0.04715 0.60417 0.0
C3124 C 0.91808 0.18359 0.26255 0.0
C3125 C 0.91643 0.16185 0.28515 0.0
C3126 C 0.88156 0.19756 0.30788 0.0
C3127 C 0.88311 0.21893 0.28522 0.0
N3128 N 0.90994 0.23301 0.24388 0.0
N3129 N 0.8966 0.15538 0.33287 0.0
C3130 C 0.90354 0.21185 0.2637 0.0
C3131 C 0.89796 0.17124 0.30841 0.0
N3132 N 0.93288 0.17658 0.23829 0.0
N3133 N 0.86597 0.20445 0.33157 0.0
H3134 H 0.91371 0.1463 0.34114 0.0
H3135 H 0.8794 0.15233 0.34583 0.0
H3136 H 0.8553 0.22321 0.3331 0.0
H3137 H 0.86468 0.19344 0.3509 0.0
H3138 H 0.93249 0.18709 0.2186 0.0
H3139 H 0.94407 0.1583 0.23684 0.0
H3140 H 0.92717 0.23402 0.23095 0.0
H3141 H 0.89921 0.2514 0.24213 0.0
C3142 C 0.73325 0.11877 0.06552 0.0
C3143 C 0.74304 0.13927 0.04446 0.0
C3144 C 0.69279 0.14139 0.02854 0.0
C3145 C 0.68299 0.12007 0.04909 0.0
N3146 N 0.69646 0.10388 0.09788 0.0
N3147 N 0.73356 0.17586 1.0108 0.0
C3148 C 0.70382 0.11314 0.0708 0.0
C3149 C 0.72323 0.15256 0.02763 0.0
N3150 N 0.75201 0.10507 0.08114 0.0
N3151 N 0.67298 0.15124 1.01013 0.0
H3152 H 0.75536 0.18252 1.00746 0.0
H3153 H 0.72089 0.18936 1.00091 0.0
H3154 H 0.6515 0.14896 0.01428 0.0
H3155 H 0.67778 0.16162 0.99084 0.0
H3156 H 0.74483 0.08648 0.09332 0.0
H3157 H 0.77433 0.11004 0.08002 0.0
H3158 H 0.71169 0.10112 0.11538 0.0
H3159 H 0.6768 0.10464 0.10587 0.0
C3160 C 0.23755 0.48364 0.27363 0.0
C3161 C 0.25299 0.51728 0.2765 0.0
C3162 C 0.29657 0.5067 0.30197 0.0
C3163 C 0.28307 0.47266 0.29486 0.0
N3164 N 0.24349 0.42812 0.26453 0.0
N3165 N 0.30131 0.5513 0.2758 0.0
C3166 C 0.2542 0.46069 0.27804 0.0
C3167 C 0.28371 0.52657 0.28623 0.0
N3168 N 0.20775 0.47345 0.26736 0.0
N3169 N 0.32297 0.5198 0.32084 0.0
H3170 H 0.29318 0.55977 0.25685 0.0
H3171 H 0.32408 0.55799 0.28126 0.0
H3172 H 0.33415 0.50573 0.33204 0.0
H3173 H 0.33224 0.54529 0.32717 0.0
H3174 H 0.1962 0.4492 0.26695 0.0
H3175 H 0.19469 0.48971 0.26581 0.0
H3176 H 0.22418 0.41929 0.24849 0.0
H3177 H 0.25552 0.41103 0.26715 0.0
C3178 C 0.27119 0.42891 0.05013 0.0
C3179 C 0.29297 0.43553 0.03035 0.0
C3180 C 0.26537 0.46966 1.00634 0.0
C3181 C 0.24314 0.46218 0.02506 0.0
N3182 N 0.2212 0.42779 0.05885 0.0
N3183 N 0.30344 0.45218 0.98158 0.0
C3184 C 0.24487 0.43952 0.04504 0.0
C3185 C 0.28758 0.45258 1.00587 0.0
N3186 N 0.276 0.41423 0.07476 0.0
N3187 N 0.26647 0.49446 0.99011 0.0
H3188 H 0.31954 0.43956 0.9795 0.0
H3189 H 0.29832 0.46126 0.9617 0.0
H3190 H 0.25127 0.50847 0.99022 0.0
H3191 H 0.28423 0.5034 0.97912 0.0
H3192 H 0.26233 0.41207 0.0918 0.0
H3193 H 0.29469 0.4063 0.07962 0.0
H3194 H 0.21978 0.40869 0.07101 0.0
H3195 H 0.20187 0.43509 0.05552 0.0
C3196 C 0.88566 0.9644 0.25297 0.0
C3197 C 0.91594 0.9762 0.26707 0.0
C3198 C 0.90876 0.91876 0.28127 0.0
C3199 C 0.87802 0.90748 0.26847 0.0
N3200 N 0.83867 0.92242 0.24012 0.0
N3201 N 0.95687 0.95907 0.28899 0.0
C3202 C 0.86725 0.93137 0.2539 0.0
C3203 C 0.92744 0.95144 0.27916 0.0
N3204 N 0.87472 0.98401 0.236 0.0
N3205 N 0.92015 0.89908 0.29765 0.0
H3206 H 0.97059 0.98259 0.29085 0.0
H3207 H 0.96801 0.94181 0.29369 0.0
H3208 H 0.90812 0.8758 0.29941 0.0
H3209 H 0.94069 0.90653 0.31139 0.0
H3210 H 0.85434 0.97692 0.22201 0.0
H3211 H 0.88699 1.00711 0.23396 0.0
H3212 H 0.82682 0.93921 0.23589 0.0
H3213 H 0.82668 0.89786 0.23265 0.0
C3214 C 0.77775 0.15622 0.72832 0.0
C3215 C 0.7491 0.15886 0.73285 0.0
C3216 C 0.76344 0.21469 0.72464 0.0
C3217 C 0.79245 0.21528 0.73508 0.0
N3218 N 0.82926 0.18562 0.73742 0.0
N3219 N 0.71351 0.1918 0.72963 0.0
C3220 C 0.80046 0.1856 0.73381 0.0
C3221 C 0.74115 0.18814 0.72862 0.0
N3222 N 0.78266 0.12627 0.71739 0.0
N3223 N 0.75748 0.23795 0.7092 0.0
H3224 H 0.69591 0.17393 0.73336 0.0
H3225 H 0.7086 0.21425 0.72885 0.0
H3226 H 0.77415 0.25556 0.70329 0.0
H3227 H 0.73646 0.23655 0.69853 0.0
H3228 H 0.76563 0.10475 0.70994 0.0
H3229 H 0.80291 0.12352 0.71216 0.0
H3230 H 0.83632 0.16438 0.73793 0.0
H3231 H 0.84601 0.20731 0.74047 0.0
loop_
_geom_bond_atom_site_label_1
_geom_bond_atom_site_label_2
_geom_bond_distance
_geom_bond_site_symmetry_2
_ccdc_geom_bond_type
Mn0 O5 2.095 . S
Mn0 O15 2.162 . S
Mn0 O16 2.297 . S
Mn0 O24 2.385 . S
Mn0 O25 2.209 . S
Mn0 O26 2.094 . S
Mn1 O6 2.121 . S
Mn1 N8 2.257 . S
Mn1 N17 2.282 . S
Mn1 O25 2.215 . S
Mn1 O27 2.117 . S
C2 O24 1.234 . S
C2 O25 1.283 . S
C3 O15 1.281 . S
C3 O16 1.236 . S
C4 O26 1.240 . S
C4 O27 1.264 . S
O5 Mn0 2.095 . S
O5 C14 1.250 . S
O6 Mn1 2.121 . S
O6 C14 1.258 . S
C7 N8 1.326 . S
C7 C11 1.460 . S
C7 H13 0.929 . S
N8 Mn1 2.257 . S
N8 C7 1.326 . S
N8 C12 1.362 . S
C9 C10 1.258 . S
C9 C12 1.431 . S
C9 C29 1.449 . S
C10 C9 1.258 . S
C10 C11 1.477 . S
C10 H30 0.931 . S
C11 C7 1.460 . S
C11 C10 1.477 . S
C11 H31 0.930 . S
C12 N8 1.362 . S
C12 C9 1.431 . S
C12 C22 1.476 . S
H13 C7 0.929 . S
C14 O5 1.250 . S
C14 O6 1.258 . S
O15 Mn0 2.162 . S
O15 C3 1.281 . S
O16 Mn0 2.297 . S
O16 C3 1.236 . S
N17 Mn1 2.282 . S
N17 C18 1.328 . S
N17 C22 1.318 . S
C18 N17 1.328 . S
C18 C19 1.457 . S
C18 H23 0.929 . S
C19 C18 1.457 . S
C19 C20 1.291 . S
C19 H32 0.931 . S
C20 C19 1.291 . S
C20 C21 1.373 . S
C20 H33 0.929 . S
C21 C20 1.373 . S
C21 C22 1.396 . S
C21 C28 1.403 . S
C22 C12 1.476 . S
C22 N17 1.318 . S
C22 C21 1.396 . S
H23 C18 0.929 . S
O24 Mn0 2.385 . S
O24 C2 1.234 . S
O25 Mn0 2.209 . S
O25 Mn1 2.215 . S
O25 C2 1.283 . S
O26 Mn0 2.094 . S
O26 C4 1.240 . S
O27 Mn1 2.117 . S
O27 C4 1.264 . S
C28 C21 1.403 . S
C28 C29 1.399 . S
C28 H34 0.929 . S
C29 C9 1.449 . S
C29 C28 1.399 . S
C29 H35 0.930 . S
H30 C10 0.931 . S
H31 C11 0.930 . S
H32 C19 0.931 . S
H33 C20 0.929 . S
H34 C28 0.929 . S
H35 C29 0.930 . S
Mn36 O41 2.099 1_455 S
Mn36 O51 2.161 1_455 S
Mn36 O52 2.296 1_455 S
Mn36 O60 2.381 . S
Mn36 O61 2.207 . S
Mn36 O62 2.094 . S
Mn37 O42 2.121 1_455 S
Mn37 N44 2.257 . S
Mn37 N53 2.282 . S
Mn37 O61 2.215 . S
Mn37 O63 2.117 . S
C38 O60 1.234 . S
C38 O61 1.283 . S
C39 O51 1.281 . S
C39 O52 1.236 . S
C40 O62 1.240 . S
C40 O63 1.264 . S
O41 Mn36 2.099 1_655 S
O41 C50 1.250 . S
O42 Mn37 2.121 1_655 S
O42 C50 1.258 . S
C43 N44 1.326 . S
C43 C47 1.460 . S
C43 H49 0.929 1_455 S
N44 Mn37 2.257 . S
N44 C43 1.326 . S
N44 C48 1.362 . S
C45 C46 1.258 . S
C45 C48 1.431 . S
C45 C65 1.449 . S
C46 C45 1.258 . S
C46 C47 1.477 . S
C46 H66 0.931 . S
C47 C43 1.460 . S
C47 C46 1.477 . S
C47 H67 0.930 . S
C48 N44 1.362 . S
C48 C45 1.431 . S
C48 C58 1.476 . S
H49 C43 0.929 1_655 S
C50 O41 1.250 . S
C50 O42 1.258 . S
O51 Mn36 2.161 1_655 S
O51 C39 1.281 . S
O52 Mn36 2.296 1_655 S
O52 C39 1.236 . S
N53 Mn37 2.282 . S
N53 C54 1.328 . S
N53 C58 1.318 . S
C54 N53 1.328 . S
C54 C55 1.457 . S
C54 H59 0.929 . S
C55 C54 1.457 . S
C55 C56 1.291 . S
C55 H68 0.931 . S
C56 C55 1.291 . S
C56 C57 1.373 . S
C56 H69 0.929 . S
C57 C56 1.373 . S
C57 C58 1.396 . S
C57 C64 1.403 . S
C58 C48 1.476 . S
C58 N53 1.318 . S
C58 C57 1.396 . S
H59 C54 0.929 . S
O60 Mn36 2.381 . S
O60 C38 1.234 . S
O61 Mn36 2.207 . S
O61 Mn37 2.215 . S
O61 C38 1.283 . S
O62 Mn36 2.094 . S
O62 C40 1.240 . S
O63 Mn37 2.117 . S
O63 C40 1.264 . S
C64 C57 1.403 . S
C64 C65 1.399 . S
C64 H70 0.929 . S
C65 C45 1.449 . S
C65 C64 1.399 . S
C65 H71 0.930 . S
H66 C46 0.931 . S
H67 C47 0.930 . S
H68 C55 0.931 . S
H69 C56 0.929 . S
H70 C64 0.929 . S
H71 C65 0.930 . S
Mn72 O77 2.095 . S
Mn72 O87 2.162 . S
Mn72 O88 2.297 . S
Mn72 O96 2.385 . S
Mn72 O97 2.209 . S
Mn72 O98 2.094 . S
Mn73 O78 2.121 . S
Mn73 N80 2.257 . S
Mn73 N89 2.282 . S
Mn73 O97 2.215 . S
Mn73 O99 2.117 . S
C74 O96 1.234 . S
C74 O97 1.283 . S
C75 O87 1.281 . S
C75 O88 1.236 . S
C76 O98 1.240 . S
C76 O99 1.264 . S
O77 Mn72 2.095 . S
O77 C86 1.250 . S
O78 Mn73 2.121 . S
O78 C86 1.258 . S
C79 N80 1.326 . S
C79 C83 1.460 . S
C79 H85 0.929 . S
N80 Mn73 2.257 . S
N80 C79 1.326 . S
N80 C84 1.362 . S
C81 C82 1.258 . S
C81 C84 1.431 . S
C81 C101 1.449 . S
C82 C81 1.258 . S
C82 C83 1.477 . S
C82 H102 0.931 . S
C83 C79 1.460 . S
C83 C82 1.477 . S
C83 H103 0.930 . S
C84 N80 1.362 . S
C84 C81 1.431 . S
C84 C94 1.476 . S
H85 C79 0.929 . S
C86 O77 1.250 . S
C86 O78 1.258 . S
O87 Mn72 2.162 . S
O87 C75 1.281 . S
O88 Mn72 2.297 . S
O88 C75 1.236 . S
N89 Mn73 2.282 . S
N89 C90 1.328 . S
N89 C94 1.318 . S
C90 N89 1.328 . S
C90 C91 1.457 . S
C90 H95 0.929 . S
C91 C90 1.457 . S
C91 C92 1.291 . S
C91 H104 0.931 . S
C92 C91 1.291 . S
C92 C93 1.373 . S
C92 H105 0.929 . S
C93 C92 1.373 . S
C93 C94 1.396 . S
C93 C100 1.403 . S
C94 C84 1.476 . S
C94 N89 1.318 . S
C94 C93 1.396 . S
H95 C90 0.929 . S
O96 Mn72 2.385 . S
O96 C74 1.234 . S
O97 Mn72 2.209 . S
O97 Mn73 2.215 . S
O97 C74 1.283 . S
O98 Mn72 2.094 . S
O98 C76 1.240 . S
O99 Mn73 2.117 . S
O99 C76 1.264 . S
C100 C93 1.403 . S
C100 C101 1.399 . S
C100 H106 0.929 . S
C101 C81 1.449 . S
C101 C100 1.399 . S
C101 H107 0.930 . S
H102 C82 0.931 . S
H103 C83 0.930 . S
H104 C91 0.931 . S
H105 C92 0.929 . S
H106 C100 0.929 . S
H107 C101 0.930 . S
Mn108 O113 2.095 . S
Mn108 O123 2.162 . S
Mn108 O124 2.297 . S
Mn108 O132 2.385 . S
Mn108 O133 2.209 . S
Mn108 O134 2.094 . S
Mn109 O114 2.121 . S
Mn109 N116 2.257 . S
Mn109 N125 2.282 . S
Mn109 O133 2.215 . S
Mn109 O135 2.117 . S
C110 O132 1.234 . S
C110 O133 1.283 . S
C111 O123 1.281 . S
C111 O124 1.236 . S
C112 O134 1.240 . S
C112 O135 1.264 . S
O113 Mn108 2.095 . S
O113 C122 1.250 . S
O114 Mn109 2.121 . S
O114 C122 1.258 . S
C115 N116 1.326 . S
C115 C119 1.460 1_554 S
C115 H121 0.929 . S
N116 Mn109 2.257 . S
N116 C115 1.326 . S
N116 C120 1.362 . S
C117 C118 1.262 . S
C117 C120 1.426 1_556 S
C117 C137 1.449 . S
C118 C117 1.262 . S
C118 C119 1.477 . S
C118 H138 0.931 . S
C119 C115 1.460 1_556 S
C119 C118 1.477 . S
C119 H139 0.930 . S
C120 N116 1.362 . S
C120 C117 1.426 1_554 S
C120 C130 1.476 . S
H121 C115 0.929 . S
C122 O113 1.250 . S
C122 O114 1.258 . S
O123 Mn108 2.162 . S
O123 C111 1.281 . S
O124 Mn108 2.297 . S
O124 C111 1.236 . S
N125 Mn109 2.282 . S
N125 C126 1.328 . S
N125 C130 1.318 . S
C126 N125 1.328 . S
C126 C127 1.457 . S
C126 H131 0.929 . S
C127 C126 1.457 . S
C127 C128 1.291 . S
C127 H140 0.931 . S
C128 C127 1.291 . S
C128 C129 1.373 . S
C128 H141 0.929 . S
C129 C128 1.373 . S
C129 C130 1.396 . S
C129 C136 1.403 . S
C130 C120 1.476 . S
C130 N125 1.318 . S
C130 C129 1.396 . S
H131 C126 0.929 . S
O132 Mn108 2.385 . S
O132 C110 1.234 . S
O133 Mn108 2.209 . S
O133 Mn109 2.215 . S
O133 C110 1.283 . S
O134 Mn108 2.094 . S
O134 C112 1.240 . S
O135 Mn109 2.117 . S
O135 C112 1.264 . S
C136 C129 1.403 . S
C136 C137 1.399 1_554 S
C136 H142 0.929 . S
C137 C117 1.449 . S
C137 C136 1.399 1_556 S
C137 H143 0.930 . S
H138 C118 0.931 . S
H139 C119 0.930 . S
H140 C127 0.931 . S
H141 C128 0.929 . S
H142 C136 0.929 . S
H143 C137 0.930 . S
Mn144 O149 2.095 . S
Mn144 O159 2.162 . S
Mn144 O160 2.297 . S
Mn144 O168 2.385 . S
Mn144 O169 2.209 . S
Mn144 O170 2.094 . S
Mn145 O150 2.121 . S
Mn145 N152 2.257 . S
Mn145 N161 2.282 . S
Mn145 O169 2.215 . S
Mn145 O171 2.117 . S
C146 O168 1.234 . S
C146 O169 1.283 . S
C147 O159 1.281 . S
C147 O160 1.236 . S
C148 O170 1.240 . S
C148 O171 1.264 . S
O149 Mn144 2.095 . S
O149 C158 1.250 . S
O150 Mn145 2.121 . S
O150 C158 1.258 . S
C151 N152 1.326 1_556 S
C151 C155 1.460 . S
C151 H157 0.929 . S
N152 Mn145 2.257 . S
N152 C151 1.326 1_554 S
N152 C156 1.362 1_554 S
C153 C154 1.258 . S
C153 C156 1.431 . S
C153 C173 1.449 . S
C154 C153 1.258 . S
C154 C155 1.477 . S
C154 H174 0.931 . S
C155 C151 1.460 . S
C155 C154 1.477 . S
C155 H175 0.930 . S
C156 N152 1.362 1_556 S
C156 C153 1.431 . S
C156 C166 1.476 1_556 S
H157 C151 0.929 . S
C158 O149 1.250 . S
C158 O150 1.258 . S
O159 Mn144 2.162 . S
O159 C147 1.281 . S
O160 Mn144 2.297 . S
O160 C147 1.236 . S
N161 Mn145 2.282 . S
N161 C162 1.328 . S
N161 C166 1.318 . S
C162 N161 1.328 . S
C162 C163 1.457 . S
C162 H167 0.929 . S
C163 C162 1.457 . S
C163 C164 1.287 . S
C163 H176 0.931 1_455 S
C164 C163 1.287 . S
C164 C165 1.386 . S
C164 H177 0.922 1_455 S
C165 C164 1.386 . S
C165 C166 1.396 . S
C165 C172 1.403 1_554 S
C166 C156 1.476 1_554 S
C166 N161 1.318 . S
C166 C165 1.396 . S
H167 C162 0.929 . S
O168 Mn144 2.385 . S
O168 C146 1.234 . S
O169 Mn144 2.209 . S
O169 Mn145 2.215 . S
O169 C146 1.283 . S
O170 Mn144 2.094 . S
O170 C148 1.240 . S
O171 Mn145 2.117 . S
O171 C148 1.264 . S
C172 C165 1.403 1_556 S
C172 C173 1.399 . S
C172 H178 0.929 1_455 S
C173 C153 1.449 . S
C173 C172 1.399 . S
C173 H179 0.930 . S
H174 C154 0.931 . S
H175 C155 0.930 . S
H176 C163 0.931 1_655 S
H177 C164 0.922 1_655 S
H178 C172 0.929 1_655 S
H179 C173 0.930 . S
Mn180 O185 2.095 . S
Mn180 O195 2.162 . S
Mn180 O196 2.297 . S
Mn180 O204 2.385 . S
Mn180 O205 2.209 . S
Mn180 O206 2.094 . S
Mn181 O186 2.121 . S
Mn181 N188 2.257 . S
Mn181 N197 2.282 . S
Mn181 O205 2.215 . S
Mn181 O207 2.117 . S
C182 O204 1.234 . S
C182 O205 1.283 . S
C183 O195 1.281 . S
C183 O196 1.236 . S
C184 O206 1.240 . S
C184 O207 1.264 . S
O185 Mn180 2.095 . S
O185 C194 1.250 . S
O186 Mn181 2.121 . S
O186 C194 1.258 . S
C187 N188 1.326 . S
C187 C191 1.460 . S
C187 H193 0.929 . S
N188 Mn181 2.257 . S
N188 C187 1.326 . S
N188 C192 1.362 . S
C189 C190 1.258 . S
C189 C192 1.431 . S
C189 C209 1.449 . S
C190 C189 1.258 . S
C190 C191 1.477 . S
C190 H210 0.931 . S
C191 C187 1.460 . S
C191 C190 1.477 . S
C191 H211 0.930 . S
C192 N188 1.362 . S
C192 C189 1.431 . S
C192 C202 1.476 . S
H193 C187 0.929 . S
C194 O185 1.250 . S
C194 O186 1.258 . S
O195 Mn180 2.162 . S
O195 C183 1.281 . S
O196 Mn180 2.297 . S
O196 C183 1.236 . S
N197 Mn181 2.282 . S
N197 C198 1.328 . S
N197 C202 1.318 . S
C198 N197 1.328 . S
C198 C199 1.457 . S
C198 H203 0.929 . S
C199 C198 1.457 . S
C199 C200 1.291 . S
C199 H212 0.931 . S
C200 C199 1.291 . S
C200 C201 1.373 . S
C200 H213 0.929 . S
C201 C200 1.373 . S
C201 C202 1.396 . S
C201 C208 1.403 . S
C202 C192 1.476 . S
C202 N197 1.318 . S
C202 C201 1.396 . S
H203 C198 0.929 . S
O204 Mn180 2.385 . S
O204 C182 1.234 . S
O205 Mn180 2.209 . S
O205 Mn181 2.215 . S
O205 C182 1.283 . S
O206 Mn180 2.094 . S
O206 C184 1.240 . S
O207 Mn181 2.117 . S
O207 C184 1.264 . S
C208 C201 1.403 . S
C208 C209 1.399 . S
C208 H214 0.929 . S
C209 C189 1.449 . S
C209 C208 1.399 . S
C209 H215 0.930 . S
H210 C190 0.931 . S
H211 C191 0.930 . S
H212 C199 0.931 . S
H213 C200 0.929 . S
H214 C208 0.929 . S
H215 C209 0.930 . S
Mn216 O221 2.095 . S
Mn216 O231 2.162 . S
Mn216 O232 2.297 . S
Mn216 O240 2.385 . S
Mn216 O241 2.209 . S
Mn216 O242 2.094 . S
Mn217 O222 2.121 . S
Mn217 N224 2.257 . S
Mn217 N233 2.282 . S
Mn217 O241 2.215 . S
Mn217 O243 2.117 . S
C218 O240 1.234 . S
C218 O241 1.283 . S
C219 O231 1.281 . S
C219 O232 1.236 . S
C220 O242 1.240 . S
C220 O243 1.264 . S
O221 Mn216 2.095 . S
O221 C230 1.250 . S
O222 Mn217 2.121 . S
O222 C230 1.258 . S
C223 N224 1.326 . S
C223 C227 1.460 . S
C223 H229 0.929 . S
N224 Mn217 2.257 . S
N224 C223 1.326 . S
N224 C228 1.362 . S
C225 C226 1.258 . S
C225 C228 1.431 . S
C225 C245 1.449 . S
C226 C225 1.258 . S
C226 C227 1.477 . S
C226 H246 0.931 . S
C227 C223 1.460 . S
C227 C226 1.477 . S
C227 H247 0.930 . S
C228 N224 1.362 . S
C228 C225 1.431 . S
C228 C238 1.476 . S
H229 C223 0.929 . S
C230 O221 1.250 . S
C230 O222 1.258 . S
O231 Mn216 2.162 . S
O231 C219 1.281 . S
O232 Mn216 2.297 . S
O232 C219 1.236 . S
N233 Mn217 2.282 . S
N233 C234 1.328 . S
N233 C238 1.318 . S
C234 N233 1.328 . S
C234 C235 1.457 . S
C234 H239 0.929 . S
C235 C234 1.457 . S
C235 C236 1.291 . S
C235 H248 0.931 . S
C236 C235 1.291 . S
C236 C237 1.373 . S
C236 H249 0.929 . S
C237 C236 1.373 . S
C237 C238 1.396 . S
C237 C244 1.403 . S
C238 C228 1.476 . S
C238 N233 1.318 . S
C238 C237 1.396 . S
H239 C234 0.929 . S
O240 Mn216 2.385 . S
O240 C218 1.234 . S
O241 Mn216 2.209 . S
O241 Mn217 2.215 . S
O241 C218 1.283 . S
O242 Mn216 2.094 . S
O242 C220 1.240 . S
O243 Mn217 2.117 . S
O243 C220 1.264 . S
C244 C237 1.403 . S
C244 C245 1.399 . S
C244 H250 0.929 . S
C245 C225 1.449 . S
C245 C244 1.399 . S
C245 H251 0.930 . S
H246 C226 0.931 . S
H247 C227 0.930 . S
H248 C235 0.931 . S
H249 C236 0.929 . S
H250 C244 0.929 . S
H251 C245 0.930 . S
Mn252 O257 2.095 . S
Mn252 O267 2.162 . S
Mn252 O268 2.297 . S
Mn252 O276 2.385 1_455 S
Mn252 O277 2.209 . S
Mn252 O278 2.094 . S
Mn253 O258 2.121 . S
Mn253 N260 2.257 . S
Mn253 N269 2.282 1_455 S
Mn253 O277 2.215 . S
Mn253 O279 2.117 . S
C254 O276 1.234 . S
C254 O277 1.283 1_655 S
C255 O267 1.281 . S
C255 O268 1.236 . S
C256 O278 1.240 . S
C256 O279 1.264 . S
O257 Mn252 2.095 . S
O257 C266 1.250 . S
O258 Mn253 2.121 . S
O258 C266 1.258 . S
C259 N260 1.326 . S
C259 C263 1.460 . S
C259 H265 0.929 . S
N260 Mn253 2.257 . S
N260 C259 1.326 . S
N260 C264 1.362 1_455 S
C261 C262 1.258 . S
C261 C264 1.431 . S
C261 C281 1.449 . S
C262 C261 1.258 . S
C262 C263 1.477 1_655 S
C262 H282 0.931 . S
C263 C259 1.460 . S
C263 C262 1.477 1_455 S
C263 H283 0.930 . S
C264 N260 1.362 1_655 S
C264 C261 1.431 . S
C264 C274 1.476 . S
H265 C259 0.929 . S
C266 O257 1.250 . S
C266 O258 1.258 . S
O267 Mn252 2.162 . S
O267 C255 1.281 . S
O268 Mn252 2.297 . S
O268 C255 1.236 . S
N269 Mn253 2.282 1_655 S
N269 C270 1.328 . S
N269 C274 1.318 . S
C270 N269 1.328 . S
C270 C271 1.457 . S
C270 H275 0.929 . S
C271 C270 1.457 . S
C271 C272 1.291 . S
C271 H284 0.931 . S
C272 C271 1.291 . S
C272 C273 1.373 . S
C272 H285 0.929 . S
C273 C272 1.373 . S
C273 C274 1.396 . S
C273 C280 1.403 . S
C274 C264 1.476 . S
C274 N269 1.318 . S
C274 C273 1.396 . S
H275 C270 0.929 . S
O276 Mn252 2.385 1_655 S
O276 C254 1.234 . S
O277 Mn252 2.209 . S
O277 Mn253 2.215 . S
O277 C254 1.283 1_455 S
O278 Mn252 2.094 . S
O278 C256 1.240 . S
O279 Mn253 2.117 . S
O279 C256 1.264 . S
C280 C273 1.403 . S
C280 C281 1.399 . S
C280 H286 0.929 . S
C281 C261 1.449 . S
C281 C280 1.399 . S
C281 H287 0.930 . S
H282 C262 0.931 . S
H283 C263 0.930 . S
H284 C271 0.931 . S
H285 C272 0.929 . S
H286 C280 0.929 . S
H287 C281 0.930 . S
Mn288 O293 2.119 . S
Mn288 O303 2.164 . S
Mn288 O304 2.300 1_545 S
Mn288 O312 2.360 1_545 S
Mn288 O313 2.198 1_545 S
Mn288 O314 2.091 . S
Mn289 O294 2.121 1_565 S
Mn289 N296 2.257 . S
Mn289 N305 2.282 . S
Mn289 O313 2.215 . S
Mn289 O315 2.117 1_565 S
C290 O312 1.234 . S
C290 O313 1.283 . S
C291 O303 1.283 1_565 S
C291 O304 1.235 . S
C292 O314 1.240 . S
C292 O315 1.264 . S
O293 Mn288 2.119 . S
O293 C302 1.250 . S
O294 Mn289 2.121 1_545 S
O294 C302 1.258 . S
C295 N296 1.326 . S
C295 C299 1.460 . S
C295 H301 0.929 . S
N296 Mn289 2.257 . S
N296 C295 1.326 . S
N296 C300 1.362 . S
C297 C298 1.258 . S
C297 C300 1.431 . S
C297 C317 1.449 . S
C298 C297 1.258 . S
C298 C299 1.477 . S
C298 H318 0.931 . S
C299 C295 1.460 . S
C299 C298 1.477 . S
C299 H319 0.930 . S
C300 N296 1.362 . S
C300 C297 1.431 . S
C300 C310 1.476 . S
H301 C295 0.929 . S
C302 O293 1.250 . S
C302 O294 1.258 . S
O303 Mn288 2.164 . S
O303 C291 1.283 1_545 S
O304 Mn288 2.300 1_565 S
O304 C291 1.235 . S
N305 Mn289 2.282 . S
N305 C306 1.328 . S
N305 C310 1.318 . S
C306 N305 1.328 . S
C306 C307 1.457 . S
C306 H311 0.929 . S
C307 C306 1.457 . S
C307 C308 1.291 . S
C307 H320 0.931 . S
C308 C307 1.291 . S
C308 C309 1.373 . S
C308 H321 0.929 . S
C309 C308 1.373 . S
C309 C310 1.396 . S
C309 C316 1.403 . S
C310 C300 1.476 . S
C310 N305 1.318 . S
C310 C309 1.396 . S
H311 C306 0.929 . S
O312 Mn288 2.360 1_565 S
O312 C290 1.234 . S
O313 Mn288 2.198 1_565 S
O313 Mn289 2.215 . S
O313 C290 1.283 . S
O314 Mn288 2.091 . S
O314 C292 1.240 . S
O315 Mn289 2.117 1_545 S
O315 C292 1.264 . S
C316 C309 1.403 . S
C316 C317 1.399 . S
C316 H322 0.929 . S
C317 C297 1.449 . S
C317 C316 1.399 . S
C317 H323 0.930 . S
H318 C298 0.931 . S
H319 C299 0.930 . S
H320 C307 0.931 . S
H321 C308 0.929 . S
H322 C316 0.929 . S
H323 C317 0.930 . S
Mn324 O329 2.095 . S
Mn324 O339 2.162 . S
Mn324 O340 2.297 . S
Mn324 O348 2.385 . S
Mn324 O349 2.209 . S
Mn324 O350 2.094 . S
Mn325 O330 2.121 . S
Mn325 N332 2.257 . S
Mn325 N341 2.282 . S
Mn325 O349 2.215 . S
Mn325 O351 2.117 . S
C326 O348 1.234 . S
C326 O349 1.283 . S
C327 O339 1.281 . S
C327 O340 1.236 . S
C328 O350 1.240 . S
C328 O351 1.264 . S
O329 Mn324 2.095 . S
O329 C338 1.250 . S
O330 Mn325 2.121 . S
O330 C338 1.258 . S
C331 N332 1.326 . S
C331 C335 1.460 . S
C331 H337 0.929 . S
N332 Mn325 2.257 . S
N332 C331 1.326 . S
N332 C336 1.362 . S
C333 C334 1.258 . S
C333 C336 1.431 . S
C333 C353 1.449 . S
C334 C333 1.258 . S
C334 C335 1.477 . S
C334 H354 0.931 . S
C335 C331 1.460 . S
C335 C334 1.477 . S
C335 H355 0.930 . S
C336 N332 1.362 . S
C336 C333 1.431 . S
C336 C346 1.476 . S
H337 C331 0.929 . S
C338 O329 1.250 . S
C338 O330 1.258 . S
O339 Mn324 2.162 . S
O339 C327 1.281 . S
O340 Mn324 2.297 . S
O340 C327 1.236 . S
N341 Mn325 2.282 . S
N341 C342 1.328 . S
N341 C346 1.318 . S
C342 N341 1.328 . S
C342 C343 1.457 . S
C342 H347 0.929 . S
C343 C342 1.457 . S
C343 C344 1.291 . S
C343 H356 0.931 . S
C344 C343 1.291 . S
C344 C345 1.373 . S
C344 H357 0.929 . S
C345 C344 1.373 . S
C345 C346 1.396 . S
C345 C352 1.403 . S
C346 C336 1.476 . S
C346 N341 1.318 . S
C346 C345 1.396 . S
H347 C342 0.929 . S
O348 Mn324 2.385 . S
O348 C326 1.234 . S
O349 Mn324 2.209 . S
O349 Mn325 2.215 . S
O349 C326 1.283 . S
O350 Mn324 2.094 . S
O350 C328 1.240 . S
O351 Mn325 2.117 . S
O351 C328 1.264 . S
C352 C345 1.403 . S
C352 C353 1.399 . S
C352 H358 0.929 . S
C353 C333 1.449 . S
C353 C352 1.399 . S
C353 H359 0.930 . S
H354 C334 0.931 . S
H355 C335 0.930 . S
H356 C343 0.931 . S
H357 C344 0.929 . S
H358 C352 0.929 . S
H359 C353 0.930 . S
Mn360 O365 2.095 1_545 S
Mn360 O375 2.162 1_545 S
Mn360 O376 2.297 . S
Mn360 O384 2.385 . S
Mn360 O385 2.209 . S
Mn360 O386 2.094 . S
Mn361 O366 2.121 1_545 S
Mn361 N368 2.257 . S
Mn361 N377 2.282 . S
Mn361 O385 2.215 . S
Mn361 O387 2.117 . S
C362 O384 1.234 . S
C362 O385 1.283 . S
C363 O375 1.281 1_545 S
C363 O376 1.236 . S
C364 O386 1.240 . S
C364 O387 1.264 . S
O365 Mn360 2.095 1_565 S
O365 C374 1.250 . S
O366 Mn361 2.121 1_565 S
O366 C374 1.258 . S
C367 N368 1.326 . S
C367 C371 1.460 . S
C367 H373 0.929 . S
N368 Mn361 2.257 . S
N368 C367 1.326 . S
N368 C372 1.362 . S
C369 C370 1.258 . S
C369 C372 1.431 . S
C369 C389 1.449 . S
C370 C369 1.258 . S
C370 C371 1.477 . S
C370 H390 0.931 . S
C371 C367 1.460 . S
C371 C370 1.477 . S
C371 H391 0.930 . S
C372 N368 1.362 . S
C372 C369 1.431 . S
C372 C382 1.476 . S
H373 C367 0.929 . S
C374 O365 1.250 . S
C374 O366 1.258 . S
O375 Mn360 2.162 1_565 S
O375 C363 1.281 1_565 S
O376 Mn360 2.297 . S
O376 C363 1.236 . S
N377 Mn361 2.282 . S
N377 C378 1.328 . S
N377 C382 1.318 . S
C378 N377 1.328 . S
C378 C379 1.457 . S
C378 H383 0.929 . S
C379 C378 1.457 . S
C379 C380 1.291 . S
C379 H392 0.931 . S
C380 C379 1.291 . S
C380 C381 1.373 . S
C380 H393 0.929 . S
C381 C380 1.373 . S
C381 C382 1.396 . S
C381 C388 1.403 . S
C382 C372 1.476 . S
C382 N377 1.318 . S
C382 C381 1.396 . S
H383 C378 0.929 . S
O384 Mn360 2.385 . S
O384 C362 1.234 . S
O385 Mn360 2.209 . S
O385 Mn361 2.215 . S
O385 C362 1.283 . S
O386 Mn360 2.094 . S
O386 C364 1.240 . S
O387 Mn361 2.117 . S
O387 C364 1.264 . S
C388 C381 1.403 . S
C388 C389 1.399 . S
C388 H394 0.929 . S
C389 C369 1.449 . S
C389 C388 1.399 . S
C389 H395 0.930 . S
H390 C370 0.931 . S
H391 C371 0.930 . S
H392 C379 0.931 . S
H393 C380 0.929 . S
H394 C388 0.929 . S
H395 C389 0.930 . S
Mn396 O401 2.095 1_554 S
Mn396 O411 2.162 . S
Mn396 O412 2.297 . S
Mn396 O420 2.385 . S
Mn396 O421 2.209 . S
Mn396 O422 2.094 1_554 S
Mn397 O402 2.121 . S
Mn397 N404 2.257 1_565 S
Mn397 N413 2.282 1_565 S
Mn397 O421 2.215 1_556 S
Mn397 O423 2.117 . S
C398 O420 1.234 . S
C398 O421 1.283 . S
C399 O411 1.281 . S
C399 O412 1.236 . S
C400 O422 1.240 . S
C400 O423 1.264 . S
O401 Mn396 2.095 1_556 S
O401 C410 1.250 . S
O402 Mn397 2.121 . S
O402 C410 1.258 . S
C403 N404 1.326 . S
C403 C407 1.460 1_556 S
C403 H409 0.935 . S
N404 Mn397 2.257 1_545 S
N404 C403 1.326 . S
N404 C408 1.362 . S
C405 C406 1.258 . S
C405 C408 1.431 . S
C405 C425 1.449 . S
C406 C405 1.258 . S
C406 C407 1.478 1_556 S
C406 H426 0.931 . S
C407 C403 1.460 1_554 S
C407 C406 1.478 1_554 S
C407 H427 0.929 . S
C408 N404 1.362 . S
C408 C405 1.431 . S
C408 C418 1.476 . S
H409 C403 0.935 . S
C410 O401 1.250 . S
C410 O402 1.258 . S
O411 Mn396 2.162 . S
O411 C399 1.281 . S
O412 Mn396 2.297 . S
O412 C399 1.236 . S
N413 Mn397 2.282 1_545 S
N413 C414 1.328 1_545 S
N413 C418 1.318 . S
C414 N413 1.328 1_565 S
C414 C415 1.457 . S
C414 H419 0.929 . S
C415 C414 1.457 . S
C415 C416 1.291 1_565 S
C415 H428 0.931 . S
C416 C415 1.291 1_545 S
C416 C417 1.373 . S
C416 H429 0.929 . S
C417 C416 1.373 . S
C417 C418 1.396 . S
C417 C424 1.403 . S
C418 C408 1.476 . S
C418 N413 1.318 . S
C418 C417 1.396 . S
H419 C414 0.929 . S
O420 Mn396 2.385 . S
O420 C398 1.234 . S
O421 Mn396 2.209 . S
O421 Mn397 2.215 1_554 S
O421 C398 1.283 . S
O422 Mn396 2.094 1_556 S
O422 C400 1.240 . S
O423 Mn397 2.117 . S
O423 C400 1.264 . S
C424 C417 1.403 . S
C424 C425 1.399 . S
C424 H430 0.929 . S
C425 C405 1.449 . S
C425 C424 1.399 . S
C425 H431 0.930 . S
H426 C406 0.931 . S
H427 C407 0.929 . S
H428 C415 0.931 . S
H429 C416 0.929 . S
H430 C424 0.929 . S
H431 C425 0.930 . S
Mn432 O437 2.095 . S
Mn432 O447 2.162 . S
Mn432 O448 2.297 . S
Mn432 O456 2.385 . S
Mn432 O457 2.209 . S
Mn432 O458 2.094 1_554 S
Mn433 O438 2.121 1_556 S
Mn433 N440 2.257 1_556 S
Mn433 N449 2.282 . S
Mn433 O457 2.215 1_556 S
Mn433 O459 2.117 . S
C434 O456 1.234 . S
C434 O457 1.283 . S
C435 O447 1.281 . S
C435 O448 1.236 . S
C436 O458 1.240 . S
C436 O459 1.264 . S
O437 Mn432 2.095 . S
O437 C446 1.250 . S
O438 Mn433 2.121 1_554 S
O438 C446 1.258 . S
C439 N440 1.326 . S
C439 C443 1.460 . S
C439 H445 0.929 . S
N440 Mn433 2.257 1_554 S
N440 C439 1.326 . S
N440 C444 1.362 1_554 S
C441 C442 1.258 . S
C441 C444 1.431 1_554 S
C441 C461 1.449 1_554 S
C442 C441 1.258 . S
C442 C443 1.477 . S
C442 H462 0.931 . S
C443 C439 1.460 . S
C443 C442 1.477 . S
C443 H463 0.930 . S
C444 N440 1.362 1_556 S
C444 C441 1.431 1_556 S
C444 C454 1.476 . S
H445 C439 0.929 . S
C446 O437 1.250 . S
C446 O438 1.258 . S
O447 Mn432 2.162 . S
O447 C435 1.281 . S
O448 Mn432 2.297 . S
O448 C435 1.236 . S
N449 Mn433 2.282 . S
N449 C450 1.328 . S
N449 C454 1.318 . S
C450 N449 1.328 . S
C450 C451 1.457 . S
C450 H455 0.929 . S
C451 C450 1.457 . S
C451 C452 1.291 . S
C451 H464 0.931 . S
C452 C451 1.291 . S
C452 C453 1.373 . S
C452 H465 0.929 . S
C453 C452 1.373 . S
C453 C454 1.396 . S
C453 C460 1.403 . S
C454 C444 1.476 . S
C454 N449 1.318 . S
C454 C453 1.396 . S
H455 C450 0.929 . S
O456 Mn432 2.385 . S
O456 C434 1.234 . S
O457 Mn432 2.209 . S
O457 Mn433 2.215 1_554 S
O457 C434 1.283 . S
O458 Mn432 2.094 1_556 S
O458 C436 1.240 . S
O459 Mn433 2.117 . S
O459 C436 1.264 . S
C460 C453 1.403 . S
C460 C461 1.399 . S
C460 H466 0.929 . S
C461 C441 1.449 1_556 S
C461 C460 1.399 . S
C461 H467 0.930 . S
H462 C442 0.931 . S
H463 C443 0.930 . S
H464 C451 0.931 . S
H465 C452 0.929 . S
H466 C460 0.929 . S
H467 C461 0.930 . S
Mn468 O473 2.095 . S
Mn468 O483 2.162 . S
Mn468 O484 2.297 . S
Mn468 O492 2.385 . S
Mn468 O493 2.209 . S
Mn468 O494 2.094 . S
Mn469 O474 2.121 1_556 S
Mn469 N476 2.257 . S
Mn469 N485 2.282 . S
Mn469 O493 2.215 1_556 S
Mn469 O495 2.117 . S
C470 O492 1.234 . S
C470 O493 1.283 . S
C471 O483 1.281 . S
C471 O484 1.236 . S
C472 O494 1.240 1_556 S
C472 O495 1.264 . S
O473 Mn468 2.095 . S
O473 C482 1.250 . S
O474 Mn469 2.121 1_554 S
O474 C482 1.258 . S
C475 N476 1.326 . S
C475 C479 1.460 1_545 S
C475 H481 0.929 1_556 S
N476 Mn469 2.257 . S
N476 C475 1.326 . S
N476 C480 1.362 . S
C477 C478 1.258 . S
C477 C480 1.431 1_565 S
C477 C497 1.449 . S
C478 C477 1.258 . S
C478 C479 1.477 . S
C478 H498 0.931 . S
C479 C475 1.460 1_565 S
C479 C478 1.477 . S
C479 H499 0.930 . S
C480 N476 1.362 . S
C480 C477 1.431 1_545 S
C480 C490 1.476 . S
H481 C475 0.929 1_554 S
C482 O473 1.250 . S
C482 O474 1.258 . S
O483 Mn468 2.162 . S
O483 C471 1.281 . S
O484 Mn468 2.297 . S
O484 C471 1.236 . S
N485 Mn469 2.282 . S
N485 C486 1.328 . S
N485 C490 1.318 . S
C486 N485 1.328 . S
C486 C487 1.457 . S
C486 H491 0.929 . S
C487 C486 1.457 . S
C487 C488 1.291 . S
C487 H500 0.931 . S
C488 C487 1.291 . S
C488 C489 1.373 . S
C488 H501 0.929 . S
C489 C488 1.373 . S
C489 C490 1.396 . S
C489 C496 1.414 . S
C490 C480 1.476 . S
C490 N485 1.318 . S
C490 C489 1.396 . S
H491 C486 0.929 . S
O492 Mn468 2.385 . S
O492 C470 1.234 . S
O493 Mn468 2.209 . S
O493 Mn469 2.215 1_554 S
O493 C470 1.283 . S
O494 Mn468 2.094 . S
O494 C472 1.240 1_554 S
O495 Mn469 2.117 . S
O495 C472 1.264 . S
C496 C489 1.414 . S
C496 C497 1.387 1_545 S
C496 H502 0.930 1_545 S
C497 C477 1.449 . S
C497 C496 1.387 1_565 S
C497 H503 0.930 . S
H498 C478 0.931 . S
H499 C479 0.930 . S
H500 C487 0.931 . S
H501 C488 0.929 . S
H502 C496 0.930 1_565 S
H503 C497 0.930 . S
Mn504 O509 2.095 . S
Mn504 O519 2.162 . S
Mn504 O520 2.297 . S
Mn504 O528 2.385 . S
Mn504 O529 2.209 . S
Mn504 O530 2.094 . S
Mn505 O510 2.121 . S
Mn505 N512 2.257 . S
Mn505 N521 2.282 . S
Mn505 O529 2.215 . S
Mn505 O531 2.117 . S
C506 O528 1.234 . S
C506 O529 1.283 . S
C507 O519 1.281 . S
C507 O520 1.236 . S
C508 O530 1.240 . S
C508 O531 1.264 . S
O509 Mn504 2.095 . S
O509 C518 1.250 . S
O510 Mn505 2.121 . S
O510 C518 1.258 . S
C511 N512 1.326 . S
C511 C515 1.460 . S
C511 H517 0.929 . S
N512 Mn505 2.257 . S
N512 C511 1.326 . S
N512 C516 1.362 . S
C513 C514 1.258 . S
C513 C516 1.431 . S
C513 C533 1.449 . S
C514 C513 1.258 . S
C514 C515 1.477 . S
C514 H534 0.931 . S
C515 C511 1.460 . S
C515 C514 1.477 . S
C515 H535 0.930 . S
C516 N512 1.362 . S
C516 C513 1.431 . S
C516 C526 1.476 . S
H517 C511 0.929 . S
C518 O509 1.250 . S
C518 O510 1.258 . S
O519 Mn504 2.162 . S
O519 C507 1.281 . S
O520 Mn504 2.297 . S
O520 C507 1.236 . S
N521 Mn505 2.282 . S
N521 C522 1.328 . S
N521 C526 1.318 . S
C522 N521 1.328 . S
C522 C523 1.457 . S
C522 H527 0.929 . S
C523 C522 1.457 . S
C523 C524 1.291 . S
C523 H536 0.931 . S
C524 C523 1.291 . S
C524 C525 1.373 . S
C524 H537 0.929 . S
C525 C524 1.373 . S
C525 C526 1.396 . S
C525 C532 1.403 . S
C526 C516 1.476 . S
C526 N521 1.318 . S
C526 C525 1.396 . S
H527 C522 0.929 . S
O528 Mn504 2.385 . S
O528 C506 1.234 . S
O529 Mn504 2.209 . S
O529 Mn505 2.215 . S
O529 C506 1.283 . S
O530 Mn504 2.094 . S
O530 C508 1.240 . S
O531 Mn505 2.117 . S
O531 C508 1.264 . S
C532 C525 1.403 . S
C532 C533 1.399 . S
C532 H538 0.929 . S
C533 C513 1.449 . S
C533 C532 1.399 . S
C533 H539 0.930 . S
H534 C514 0.931 . S
H535 C515 0.930 . S
H536 C523 0.931 . S
H537 C524 0.929 . S
H538 C532 0.929 . S
H539 C533 0.930 . S
Mn540 O545 2.095 . S
Mn540 O555 2.162 . S
Mn540 O556 2.297 . S
Mn540 O564 2.385 . S
Mn540 O565 2.209 . S
Mn540 O566 2.094 . S
Mn541 O546 2.121 . S
Mn541 N548 2.257 . S
Mn541 N557 2.282 . S
Mn541 O565 2.215 . S
Mn541 O567 2.117 . S
C542 O564 1.234 . S
C542 O565 1.283 . S
C543 O555 1.281 . S
C543 O556 1.236 . S
C544 O566 1.240 . S
C544 O567 1.264 . S
O545 Mn540 2.095 . S
O545 C554 1.250 . S
O546 Mn541 2.121 . S
O546 C554 1.258 . S
C547 N548 1.326 1_545 S
C547 C551 1.460 . S
C547 H553 0.929 1_545 S
N548 Mn541 2.257 . S
N548 C547 1.326 1_565 S
N548 C552 1.362 . S
C549 C550 1.258 . S
C549 C552 1.431 1_545 S
C549 C569 1.449 . S
C550 C549 1.258 . S
C550 C551 1.477 . S
C550 H570 0.931 . S
C551 C547 1.460 . S
C551 C550 1.477 . S
C551 H571 0.930 . S
C552 N548 1.362 . S
C552 C549 1.431 1_565 S
C552 C562 1.476 . S
H553 C547 0.929 1_565 S
C554 O545 1.250 . S
C554 O546 1.258 . S
O555 Mn540 2.162 . S
O555 C543 1.281 . S
O556 Mn540 2.297 . S
O556 C543 1.236 . S
N557 Mn541 2.282 . S
N557 C558 1.328 . S
N557 C562 1.318 . S
C558 N557 1.328 . S
C558 C559 1.457 . S
C558 H563 0.929 . S
C559 C558 1.457 . S
C559 C560 1.291 . S
C559 H572 0.931 . S
C560 C559 1.291 . S
C560 C561 1.373 . S
C560 H573 0.929 . S
C561 C560 1.373 . S
C561 C562 1.396 . S
C561 C568 1.403 1_565 S
C562 C552 1.476 . S
C562 N557 1.318 . S
C562 C561 1.396 . S
H563 C558 0.929 . S
O564 Mn540 2.385 . S
O564 C542 1.234 . S
O565 Mn540 2.209 . S
O565 Mn541 2.215 . S
O565 C542 1.283 . S
O566 Mn540 2.094 . S
O566 C544 1.240 . S
O567 Mn541 2.117 . S
O567 C544 1.264 . S
C568 C561 1.403 1_545 S
C568 C569 1.399 . S
C568 H574 0.929 . S
C569 C549 1.449 . S
C569 C568 1.399 . S
C569 H575 0.930 . S
H570 C550 0.931 . S
H571 C551 0.930 . S
H572 C559 0.931 . S
H573 C560 0.929 . S
H574 C568 0.929 . S
H575 C569 0.930 . S
Mn576 O581 2.095 . S
Mn576 O591 2.162 1_655 S
Mn576 O592 2.297 . S
Mn576 O600 2.385 . S
Mn576 O601 2.209 . S
Mn576 O602 2.094 . S
Mn577 O582 2.121 . S
Mn577 N584 2.257 . S
Mn577 N593 2.282 . S
Mn577 O601 2.215 . S
Mn577 O603 2.117 . S
C578 O600 1.234 . S
C578 O601 1.283 . S
C579 O591 1.281 1_655 S
C579 O592 1.236 . S
C580 O602 1.240 . S
C580 O603 1.264 . S
O581 Mn576 2.095 . S
O581 C590 1.250 . S
O582 Mn577 2.121 . S
O582 C590 1.258 . S
C583 N584 1.326 . S
C583 C587 1.460 . S
C583 H589 0.929 . S
N584 Mn577 2.257 . S
N584 C583 1.326 . S
N584 C588 1.362 . S
C585 C586 1.258 1_565 S
C585 C588 1.431 1_565 S
C585 C605 1.449 . S
C586 C585 1.258 1_545 S
C586 C587 1.477 . S
C586 H606 0.931 1_545 S
C587 C583 1.460 . S
C587 C586 1.477 . S
C587 H607 0.930 . S
C588 N584 1.362 . S
C588 C585 1.431 1_545 S
C588 C598 1.476 1_545 S
H589 C583 0.929 . S
C590 O581 1.250 . S
C590 O582 1.258 . S
O591 Mn576 2.162 1_455 S
O591 C579 1.281 1_455 S
O592 Mn576 2.297 . S
O592 C579 1.236 . S
N593 Mn577 2.282 . S
N593 C594 1.328 . S
N593 C598 1.318 1_545 S
C594 N593 1.328 . S
C594 C595 1.457 1_545 S
C594 H599 0.929 . S
C595 C594 1.457 1_565 S
C595 C596 1.291 . S
C595 H608 0.931 . S
C596 C595 1.291 . S
C596 C597 1.373 . S
C596 H609 0.929 . S
C597 C596 1.373 . S
C597 C598 1.396 . S
C597 C604 1.403 . S
C598 C588 1.476 1_565 S
C598 N593 1.318 1_565 S
C598 C597 1.396 . S
H599 C594 0.929 . S
O600 Mn576 2.385 . S
O600 C578 1.234 . S
O601 Mn576 2.209 . S
O601 Mn577 2.215 . S
O601 C578 1.283 . S
O602 Mn576 2.094 . S
O602 C580 1.240 . S
O603 Mn577 2.117 . S
O603 C580 1.264 . S
C604 C597 1.403 . S
C604 C605 1.399 . S
C604 H610 0.929 . S
C605 C585 1.449 . S
C605 C604 1.399 . S
C605 H611 0.930 . S
H606 C586 0.931 1_565 S
H607 C587 0.930 . S
H608 C595 0.931 . S
H609 C596 0.929 . S
H610 C604 0.929 . S
H611 C605 0.930 . S
Mn612 O617 2.095 . S
Mn612 O627 2.162 . S
Mn612 O628 2.297 . S
Mn612 O636 2.385 . S
Mn612 O637 2.209 . S
Mn612 O638 2.094 . S
Mn613 O618 2.121 . S
Mn613 N620 2.257 . S
Mn613 N629 2.282 . S
Mn613 O637 2.215 . S
Mn613 O639 2.117 . S
C614 O636 1.234 . S
C614 O637 1.283 . S
C615 O627 1.281 . S
C615 O628 1.236 . S
C616 O638 1.240 . S
C616 O639 1.264 . S
O617 Mn612 2.095 . S
O617 C626 1.250 . S
O618 Mn613 2.121 . S
O618 C626 1.258 . S
C619 N620 1.326 . S
C619 C623 1.460 . S
C619 H625 0.929 . S
N620 Mn613 2.257 . S
N620 C619 1.326 . S
N620 C624 1.362 . S
C621 C622 1.258 . S
C621 C624 1.431 . S
C621 C641 1.449 . S
C622 C621 1.258 . S
C622 C623 1.477 . S
C622 H642 0.931 . S
C623 C619 1.460 . S
C623 C622 1.477 . S
C623 H643 0.930 . S
C624 N620 1.362 . S
C624 C621 1.431 . S
C624 C634 1.476 . S
H625 C619 0.929 . S
C626 O617 1.250 . S
C626 O618 1.258 . S
O627 Mn612 2.162 . S
O627 C615 1.281 . S
O628 Mn612 2.297 . S
O628 C615 1.236 . S
N629 Mn613 2.282 . S
N629 C630 1.328 . S
N629 C634 1.318 . S
C630 N629 1.328 . S
C630 C631 1.457 . S
C630 H635 0.929 . S
C631 C630 1.457 . S
C631 C632 1.291 . S
C631 H644 0.931 . S
C632 C631 1.291 . S
C632 C633 1.373 . S
C632 H645 0.929 . S
C633 C632 1.373 . S
C633 C634 1.396 . S
C633 C640 1.403 . S
C634 C624 1.476 . S
C634 N629 1.318 . S
C634 C633 1.396 . S
H635 C630 0.929 . S
O636 Mn612 2.385 . S
O636 C614 1.234 . S
O637 Mn612 2.209 . S
O637 Mn613 2.215 . S
O637 C614 1.283 . S
O638 Mn612 2.094 . S
O638 C616 1.240 . S
O639 Mn613 2.117 . S
O639 C616 1.264 . S
C640 C633 1.403 . S
C640 C641 1.399 . S
C640 H646 0.929 . S
C641 C621 1.449 . S
C641 C640 1.399 . S
C641 H647 0.930 . S
H642 C622 0.931 . S
H643 C623 0.930 . S
H644 C631 0.931 . S
H645 C632 0.929 . S
H646 C640 0.929 . S
H647 C641 0.930 . S
Mn648 O653 2.095 . S
Mn648 O663 2.162 . S
Mn648 O664 2.297 . S
Mn648 O672 2.385 . S
Mn648 O673 2.209 . S
Mn648 O674 2.094 . S
Mn649 O654 2.121 . S
Mn649 N656 2.257 . S
Mn649 N665 2.282 . S
Mn649 O673 2.215 . S
Mn649 O675 2.117 . S
C650 O672 1.234 . S
C650 O673 1.283 . S
C651 O663 1.281 . S
C651 O664 1.236 . S
C652 O674 1.240 . S
C652 O675 1.264 . S
O653 Mn648 2.095 . S
O653 C662 1.250 . S
O654 Mn649 2.121 . S
O654 C662 1.258 . S
C655 N656 1.326 . S
C655 C659 1.460 . S
C655 H661 0.929 . S
N656 Mn649 2.257 . S
N656 C655 1.326 . S
N656 C660 1.362 . S
C657 C658 1.258 . S
C657 C660 1.431 . S
C657 C677 1.449 . S
C658 C657 1.258 . S
C658 C659 1.477 . S
C658 H678 0.931 . S
C659 C655 1.460 . S
C659 C658 1.477 . S
C659 H679 0.930 . S
C660 N656 1.362 . S
C660 C657 1.431 . S
C660 C670 1.476 . S
H661 C655 0.929 . S
C662 O653 1.250 . S
C662 O654 1.258 . S
O663 Mn648 2.162 . S
O663 C651 1.281 . S
O664 Mn648 2.297 . S
O664 C651 1.236 . S
N665 Mn649 2.282 . S
N665 C666 1.328 . S
N665 C670 1.318 . S
C666 N665 1.328 . S
C666 C667 1.457 . S
C666 H671 0.929 . S
C667 C666 1.457 . S
C667 C668 1.291 . S
C667 H680 0.931 . S
C668 C667 1.291 . S
C668 C669 1.373 . S
C668 H681 0.929 . S
C669 C668 1.373 . S
C669 C670 1.396 . S
C669 C676 1.403 . S
C670 C660 1.476 . S
C670 N665 1.318 . S
C670 C669 1.396 . S
H671 C666 0.929 . S
O672 Mn648 2.385 . S
O672 C650 1.234 . S
O673 Mn648 2.209 . S
O673 Mn649 2.215 . S
O673 C650 1.283 . S
O674 Mn648 2.094 . S
O674 C652 1.240 . S
O675 Mn649 2.117 . S
O675 C652 1.264 . S
C676 C669 1.403 . S
C676 C677 1.399 . S
C676 H682 0.929 . S
C677 C657 1.449 . S
C677 C676 1.399 . S
C677 H683 0.930 . S
H678 C658 0.931 . S
H679 C659 0.930 . S
H680 C667 0.931 . S
H681 C668 0.929 . S
H682 C676 0.929 . S
H683 C677 0.930 . S
Mn684 O689 2.095 . S
Mn684 O699 2.162 . S
Mn684 O700 2.297 . S
Mn684 O708 2.385 . S
Mn684 O709 2.209 . S
Mn684 O710 2.094 . S
Mn685 O690 2.121 . S
Mn685 N692 2.257 . S
Mn685 N701 2.282 . S
Mn685 O709 2.215 . S
Mn685 O711 2.117 . S
C686 O708 1.234 . S
C686 O709 1.283 . S
C687 O699 1.281 . S
C687 O700 1.236 . S
C688 O710 1.240 . S
C688 O711 1.264 . S
O689 Mn684 2.095 . S
O689 C698 1.250 . S
O690 Mn685 2.121 . S
O690 C698 1.258 . S
C691 N692 1.326 . S
C691 C695 1.460 . S
C691 H697 0.929 . S
N692 Mn685 2.257 . S
N692 C691 1.326 . S
N692 C696 1.362 . S
C693 C694 1.258 . S
C693 C696 1.431 . S
C693 C713 1.449 . S
C694 C693 1.258 . S
C694 C695 1.477 . S
C694 H714 0.931 . S
C695 C691 1.460 . S
C695 C694 1.477 . S
C695 H715 0.930 . S
C696 N692 1.362 . S
C696 C693 1.431 . S
C696 C706 1.476 . S
H697 C691 0.929 . S
C698 O689 1.250 . S
C698 O690 1.258 . S
O699 Mn684 2.162 . S
O699 C687 1.281 . S
O700 Mn684 2.297 . S
O700 C687 1.236 . S
N701 Mn685 2.282 . S
N701 C702 1.328 . S
N701 C706 1.318 . S
C702 N701 1.328 . S
C702 C703 1.457 . S
C702 H707 0.929 . S
C703 C702 1.457 . S
C703 C704 1.291 . S
C703 H716 0.931 . S
C704 C703 1.291 . S
C704 C705 1.373 . S
C704 H717 0.929 . S
C705 C704 1.373 . S
C705 C706 1.396 . S
C705 C712 1.403 . S
C706 C696 1.476 . S
C706 N701 1.318 . S
C706 C705 1.396 . S
H707 C702 0.929 . S
O708 Mn684 2.385 . S
O708 C686 1.234 . S
O709 Mn684 2.209 . S
O709 Mn685 2.215 . S
O709 C686 1.283 . S
O710 Mn684 2.094 . S
O710 C688 1.240 . S
O711 Mn685 2.117 . S
O711 C688 1.264 . S
C712 C705 1.403 . S
C712 C713 1.399 . S
C712 H718 0.929 . S
C713 C693 1.449 . S
C713 C712 1.399 . S
C713 H719 0.930 . S
H714 C694 0.931 . S
H715 C695 0.930 . S
H716 C703 0.931 . S
H717 C704 0.929 . S
H718 C712 0.929 . S
H719 C713 0.930 . S
Mn720 O725 2.095 . S
Mn720 O735 2.162 . S
Mn720 O736 2.297 . S
Mn720 O744 2.385 . S
Mn720 O745 2.209 1_554 S
Mn720 O746 2.094 1_554 S
Mn721 O726 2.121 . S
Mn721 N728 2.257 . S
Mn721 N737 2.282 . S
Mn721 O745 2.215 . S
Mn721 O747 2.117 . S
C722 O744 1.234 1_556 S
C722 O745 1.283 . S
C723 O735 1.281 . S
C723 O736 1.236 . S
C724 O746 1.240 . S
C724 O747 1.264 . S
O725 Mn720 2.095 . S
O725 C734 1.250 1_554 S
O726 Mn721 2.121 . S
O726 C734 1.258 . S
C727 N728 1.326 . S
C727 C731 1.460 . S
C727 H733 0.929 . S
N728 Mn721 2.257 . S
N728 C727 1.326 . S
N728 C732 1.362 . S
C729 C730 1.258 . S
C729 C732 1.431 . S
C729 C749 1.449 . S
C730 C729 1.258 . S
C730 C731 1.477 . S
C730 H750 0.931 . S
C731 C727 1.460 . S
C731 C730 1.477 . S
C731 H751 0.930 . S
C732 N728 1.362 . S
C732 C729 1.431 . S
C732 C742 1.476 . S
H733 C727 0.929 . S
C734 O725 1.250 1_556 S
C734 O726 1.258 . S
O735 Mn720 2.162 . S
O735 C723 1.281 . S
O736 Mn720 2.297 . S
O736 C723 1.236 . S
N737 Mn721 2.282 . S
N737 C738 1.328 . S
N737 C742 1.318 . S
C738 N737 1.328 . S
C738 C739 1.457 . S
C738 H743 0.929 . S
C739 C738 1.457 . S
C739 C740 1.291 . S
C739 H752 0.931 . S
C740 C739 1.291 . S
C740 C741 1.373 . S
C740 H753 0.929 . S
C741 C740 1.373 . S
C741 C742 1.396 . S
C741 C748 1.403 . S
C742 C732 1.476 . S
C742 N737 1.318 . S
C742 C741 1.396 . S
H743 C738 0.929 . S
O744 Mn720 2.385 . S
O744 C722 1.234 1_554 S
O745 Mn720 2.209 1_556 S
O745 Mn721 2.215 . S
O745 C722 1.283 . S
O746 Mn720 2.094 1_556 S
O746 C724 1.240 . S
O747 Mn721 2.117 . S
O747 C724 1.264 . S
C748 C741 1.403 . S
C748 C749 1.399 . S
C748 H754 0.929 . S
C749 C729 1.449 . S
C749 C748 1.399 . S
C749 H755 0.930 . S
H750 C730 0.931 . S
H751 C731 0.930 . S
H752 C739 0.931 . S
H753 C740 0.929 . S
H754 C748 0.929 . S
H755 C749 0.930 . S
Mn756 O761 2.095 . S
Mn756 O771 2.162 . S
Mn756 O772 2.297 . S
Mn756 O780 2.385 . S
Mn756 O781 2.209 . S
Mn756 O782 2.094 . S
Mn757 O762 2.121 . S
Mn757 N764 2.257 . S
Mn757 N773 2.282 . S
Mn757 O781 2.215 . S
Mn757 O783 2.117 . S
C758 O780 1.234 . S
C758 O781 1.283 . S
C759 O771 1.281 . S
C759 O772 1.236 . S
C760 O782 1.240 . S
C760 O783 1.264 . S
O761 Mn756 2.095 . S
O761 C770 1.250 . S
O762 Mn757 2.121 . S
O762 C770 1.258 . S
C763 N764 1.326 . S
C763 C767 1.460 . S
C763 H769 0.929 . S
N764 Mn757 2.257 . S
N764 C763 1.326 . S
N764 C768 1.362 . S
C765 C766 1.258 . S
C765 C768 1.431 . S
C765 C785 1.449 . S
C766 C765 1.258 . S
C766 C767 1.477 . S
C766 H786 0.931 . S
C767 C763 1.460 . S
C767 C766 1.477 . S
C767 H787 0.930 . S
C768 N764 1.362 . S
C768 C765 1.431 . S
C768 C778 1.476 . S
H769 C763 0.929 . S
C770 O761 1.250 . S
C770 O762 1.258 . S
O771 Mn756 2.162 . S
O771 C759 1.281 . S
O772 Mn756 2.297 . S
O772 C759 1.236 . S
N773 Mn757 2.282 . S
N773 C774 1.328 . S
N773 C778 1.318 . S
C774 N773 1.328 . S
C774 C775 1.457 . S
C774 H779 0.929 . S
C775 C774 1.457 . S
C775 C776 1.291 . S
C775 H788 0.931 . S
C776 C775 1.291 . S
C776 C777 1.373 . S
C776 H789 0.929 . S
C777 C776 1.373 . S
C777 C778 1.396 . S
C777 C784 1.403 . S
C778 C768 1.476 . S
C778 N773 1.318 . S
C778 C777 1.396 . S
H779 C774 0.929 . S
O780 Mn756 2.385 . S
O780 C758 1.234 . S
O781 Mn756 2.209 . S
O781 Mn757 2.215 . S
O781 C758 1.283 . S
O782 Mn756 2.094 . S
O782 C760 1.240 . S
O783 Mn757 2.117 . S
O783 C760 1.264 . S
C784 C777 1.403 . S
C784 C785 1.399 . S
C784 H790 0.929 . S
C785 C765 1.449 . S
C785 C784 1.399 . S
C785 H791 0.930 . S
H786 C766 0.931 . S
H787 C767 0.930 . S
H788 C775 0.931 . S
H789 C776 0.929 . S
H790 C784 0.929 . S
H791 C785 0.930 . S
Mn792 O797 2.095 . S
Mn792 O807 2.162 . S
Mn792 O808 2.297 . S
Mn792 O816 2.385 . S
Mn792 O817 2.209 . S
Mn792 O818 2.094 . S
Mn793 O798 2.121 . S
Mn793 N800 2.257 . S
Mn793 N809 2.282 . S
Mn793 O817 2.215 . S
Mn793 O819 2.117 . S
C794 O816 1.234 . S
C794 O817 1.283 . S
C795 O807 1.281 . S
C795 O808 1.236 . S
C796 O818 1.240 . S
C796 O819 1.264 . S
O797 Mn792 2.095 . S
O797 C806 1.250 . S
O798 Mn793 2.121 . S
O798 C806 1.258 . S
C799 N800 1.326 . S
C799 C803 1.460 . S
C799 H805 0.929 . S
N800 Mn793 2.257 . S
N800 C799 1.326 . S
N800 C804 1.362 . S
C801 C802 1.258 . S
C801 C804 1.431 . S
C801 C821 1.449 . S
C802 C801 1.258 . S
C802 C803 1.477 . S
C802 H822 0.931 . S
C803 C799 1.460 . S
C803 C802 1.477 . S
C803 H823 0.930 . S
C804 N800 1.362 . S
C804 C801 1.431 . S
C804 C814 1.476 . S
H805 C799 0.929 . S
C806 O797 1.250 . S
C806 O798 1.258 . S
O807 Mn792 2.162 . S
O807 C795 1.281 . S
O808 Mn792 2.297 . S
O808 C795 1.236 . S
N809 Mn793 2.282 . S
N809 C810 1.328 . S
N809 C814 1.318 . S
C810 N809 1.328 . S
C810 C811 1.457 . S
C810 H815 0.929 . S
C811 C810 1.457 . S
C811 C812 1.291 . S
C811 H824 0.931 . S
C812 C811 1.291 . S
C812 C813 1.373 . S
C812 H825 0.929 . S
C813 C812 1.373 . S
C813 C814 1.396 . S
C813 C820 1.403 . S
C814 C804 1.476 . S
C814 N809 1.318 . S
C814 C813 1.396 . S
H815 C810 0.929 . S
O816 Mn792 2.385 . S
O816 C794 1.234 . S
O817 Mn792 2.209 . S
O817 Mn793 2.215 . S
O817 C794 1.283 . S
O818 Mn792 2.094 . S
O818 C796 1.240 . S
O819 Mn793 2.117 . S
O819 C796 1.264 . S
C820 C813 1.403 . S
C820 C821 1.399 . S
C820 H826 0.929 . S
C821 C801 1.449 . S
C821 C820 1.399 . S
C821 H827 0.930 . S
H822 C802 0.931 . S
H823 C803 0.930 . S
H824 C811 0.931 . S
H825 C812 0.929 . S
H826 C820 0.929 . S
H827 C821 0.930 . S
Mn828 O833 2.095 . S
Mn828 O843 2.162 . S
Mn828 O844 2.297 . S
Mn828 O852 2.385 . S
Mn828 O853 2.209 . S
Mn828 O854 2.094 . S
Mn829 O834 2.121 . S
Mn829 N836 2.257 . S
Mn829 N845 2.282 . S
Mn829 O853 2.215 . S
Mn829 O855 2.117 . S
C830 O852 1.234 . S
C830 O853 1.283 . S
C831 O843 1.281 . S
C831 O844 1.236 . S
C832 O854 1.240 . S
C832 O855 1.264 . S
O833 Mn828 2.095 . S
O833 C842 1.250 . S
O834 Mn829 2.121 . S
O834 C842 1.258 . S
C835 N836 1.326 . S
C835 C839 1.460 . S
C835 H841 0.929 . S
N836 Mn829 2.257 . S
N836 C835 1.326 . S
N836 C840 1.362 . S
C837 C838 1.258 . S
C837 C840 1.431 . S
C837 C857 1.449 . S
C838 C837 1.258 . S
C838 C839 1.477 . S
C838 H858 0.931 . S
C839 C835 1.460 . S
C839 C838 1.477 . S
C839 H859 0.930 . S
C840 N836 1.362 . S
C840 C837 1.431 . S
C840 C850 1.476 . S
H841 C835 0.929 . S
C842 O833 1.250 . S
C842 O834 1.258 . S
O843 Mn828 2.162 . S
O843 C831 1.281 . S
O844 Mn828 2.297 . S
O844 C831 1.236 . S
N845 Mn829 2.282 . S
N845 C846 1.328 . S
N845 C850 1.318 . S
C846 N845 1.328 . S
C846 C847 1.457 . S
C846 H851 0.929 . S
C847 C846 1.457 . S
C847 C848 1.291 . S
C847 H860 0.931 . S
C848 C847 1.291 . S
C848 C849 1.373 . S
C848 H861 0.929 . S
C849 C848 1.373 . S
C849 C850 1.396 . S
C849 C856 1.403 . S
C850 C840 1.476 . S
C850 N845 1.318 . S
C850 C849 1.396 . S
H851 C846 0.929 . S
O852 Mn828 2.385 . S
O852 C830 1.234 . S
O853 Mn828 2.209 . S
O853 Mn829 2.215 . S
O853 C830 1.283 . S
O854 Mn828 2.094 . S
O854 C832 1.240 . S
O855 Mn829 2.117 . S
O855 C832 1.264 . S
C856 C849 1.403 . S
C856 C857 1.399 . S
C856 H862 0.929 . S
C857 C837 1.449 . S
C857 C856 1.399 . S
C857 H863 0.930 . S
H858 C838 0.931 . S
H859 C839 0.930 . S
H860 C847 0.931 . S
H861 C848 0.929 . S
H862 C856 0.929 . S
H863 C857 0.930 . S
Gd864 C867 2.818 1_455 S
Gd864 O884 2.377 . S
Gd864 O886 2.448 1_455 S
Gd864 O887 2.506 1_456 S
Gd864 O888 2.435 . S
Gd864 O889 2.717 . S
Gd864 O891 2.395 1_546 S
Gd864 O895 2.327 1_556 S
Gd865 C876 2.818 . S
Gd865 O885 2.395 . S
Gd865 O889 2.327 1_554 S
Gd865 O890 2.377 . S
Gd865 O892 2.448 . S
Gd865 O893 2.506 . S
Gd865 O894 2.435 . S
Gd865 O895 2.717 . S
C866 O884 1.240 1_554 S
C866 O885 1.240 . S
C867 Gd864 2.818 1_655 S
C867 C868 1.510 . S
C867 O886 1.249 . S
C867 O887 1.252 1_556 S
C868 C867 1.510 . S
C868 C869 1.404 . S
C868 C870 1.352 1_556 S
C869 C868 1.404 . S
C869 C873 1.389 . S
C869 H896 0.930 . S
C870 C868 1.352 1_554 S
C870 C872 1.374 1_554 S
C870 H897 0.931 . S
C871 C872 1.359 . S
C871 C873 1.364 . S
C872 C870 1.374 1_556 S
C872 C871 1.359 . S
C872 H898 0.931 1_556 S
C873 C869 1.389 . S
C873 C871 1.364 . S
C873 H899 0.931 . S
C874 O888 1.256 . S
C874 O889 1.257 . S
C875 O890 1.240 1_565 S
C875 O891 1.240 . S
C876 Gd865 2.818 . S
C876 C877 1.510 . S
C876 O892 1.249 . S
C876 O893 1.252 . S
C877 C876 1.510 . S
C877 C878 1.404 . S
C877 C879 1.352 . S
C878 C877 1.404 . S
C878 C882 1.389 . S
C878 H900 0.930 . S
C879 C877 1.352 . S
C879 C881 1.374 1_545 S
C879 H901 0.932 1_545 S
C880 C881 1.359 1_545 S
C880 C882 1.364 . S
C881 C879 1.374 1_565 S
C881 C880 1.359 1_565 S
C881 H902 0.931 . S
C882 C878 1.389 . S
C882 C880 1.364 . S
C882 H903 0.931 . S
C883 O894 1.256 . S
C883 O895 1.257 . S
O884 Gd864 2.377 . S
O884 C866 1.240 1_556 S
O885 Gd865 2.395 . S
O885 C866 1.240 . S
O886 Gd864 2.448 1_655 S
O886 C867 1.249 . S
O887 Gd864 2.506 1_654 S
O887 C867 1.252 1_554 S
O888 Gd864 2.435 . S
O888 C874 1.256 . S
O889 Gd864 2.717 . S
O889 Gd865 2.327 1_556 S
O889 C874 1.257 . S
O890 Gd865 2.377 . S
O890 C875 1.240 1_545 S
O891 Gd864 2.395 1_564 S
O891 C875 1.240 . S
O892 Gd865 2.448 . S
O892 C876 1.249 . S
O893 Gd865 2.506 . S
O893 C876 1.252 . S
O894 Gd865 2.435 . S
O894 C883 1.256 . S
O895 Gd864 2.327 1_554 S
O895 Gd865 2.717 . S
O895 C883 1.257 . S
H896 C869 0.930 . S
H897 C870 0.931 . S
H898 C872 0.931 1_554 S
H899 C873 0.931 . S
H900 C878 0.930 . S
H901 C879 0.932 1_565 S
H902 C881 0.931 . S
H903 C882 0.931 . S
Gd904 C907 2.818 . S
Gd904 O924 2.377 . S
Gd904 O926 2.448 . S
Gd904 O927 2.506 . S
Gd904 O928 2.435 . S
Gd904 O929 2.717 . S
Gd904 O931 2.395 . S
Gd904 O935 2.327 . S
Gd905 C916 2.818 . S
Gd905 O925 2.395 . S
Gd905 O929 2.327 . S
Gd905 O930 2.377 . S
Gd905 O932 2.448 . S
Gd905 O933 2.506 . S
Gd905 O934 2.435 . S
Gd905 O935 2.717 . S
C906 O924 1.240 . S
C906 O925 1.240 . S
C907 Gd904 2.818 . S
C907 C908 1.510 . S
C907 O926 1.249 . S
C907 O927 1.252 . S
C908 C907 1.510 . S
C908 C909 1.404 . S
C908 C910 1.352 . S
C909 C908 1.404 . S
C909 C913 1.389 . S
C909 H936 0.930 . S
C910 C908 1.352 . S
C910 C912 1.374 . S
C910 H937 0.931 . S
C911 C912 1.359 . S
C911 C913 1.364 . S
C912 C910 1.374 . S
C912 C911 1.359 . S
C912 H938 0.931 . S
C913 C909 1.389 . S
C913 C911 1.364 . S
C913 H939 0.931 . S
C914 O928 1.256 . S
C914 O929 1.257 . S
C915 O930 1.240 . S
C915 O931 1.240 . S
C916 Gd905 2.818 . S
C916 C917 1.510 . S
C916 O932 1.249 . S
C916 O933 1.252 . S
C917 C916 1.510 . S
C917 C918 1.404 . S
C917 C919 1.352 . S
C918 C917 1.404 . S
C918 C922 1.389 . S
C918 H940 0.930 . S
C919 C917 1.352 . S
C919 C921 1.374 . S
C919 H941 0.931 . S
C920 C921 1.359 . S
C920 C922 1.364 . S
C921 C919 1.374 . S
C921 C920 1.359 . S
C921 H942 0.931 . S
C922 C918 1.389 . S
C922 C920 1.364 . S
C922 H943 0.931 . S
C923 O934 1.256 . S
C923 O935 1.257 . S
O924 Gd904 2.377 . S
O924 C906 1.240 . S
O925 Gd905 2.395 . S
O925 C906 1.240 . S
O926 Gd904 2.448 . S
O926 C907 1.249 . S
O927 Gd904 2.506 . S
O927 C907 1.252 . S
O928 Gd904 2.435 . S
O928 C914 1.256 . S
O929 Gd904 2.717 . S
O929 Gd905 2.327 . S
O929 C914 1.257 . S
O930 Gd905 2.377 . S
O930 C915 1.240 . S
O931 Gd904 2.395 . S
O931 C915 1.240 . S
O932 Gd905 2.448 . S
O932 C916 1.249 . S
O933 Gd905 2.506 . S
O933 C916 1.252 . S
O934 Gd905 2.435 . S
O934 C923 1.256 . S
O935 Gd904 2.327 . S
O935 Gd905 2.717 . S
O935 C923 1.257 . S
H936 C909 0.930 . S
H937 C910 0.931 . S
H938 C912 0.931 . S
H939 C913 0.931 . S
H940 C918 0.930 . S
H941 C919 0.931 . S
H942 C921 0.931 . S
H943 C922 0.931 . S
Gd944 C947 2.818 . S
Gd944 O964 2.376 . S
Gd944 O966 2.448 . S
Gd944 O967 2.506 . S
Gd944 O968 2.435 . S
Gd944 O969 2.717 . S
Gd944 O971 2.395 . S
Gd944 O975 2.327 . S
Gd945 C956 2.818 . S
Gd945 O965 2.395 1_545 S
Gd945 O969 2.327 . S
Gd945 O970 2.377 . S
Gd945 O972 2.448 . S
Gd945 O973 2.506 . S
Gd945 O974 2.435 . S
Gd945 O975 2.717 . S
C946 O964 1.241 1_565 S
C946 O965 1.240 . S
C947 Gd944 2.818 . S
C947 C948 1.510 1_545 S
C947 O966 1.249 . S
C947 O967 1.252 . S
C948 C947 1.510 1_565 S
C948 C949 1.404 . S
C948 C950 1.352 . S
C949 C948 1.404 . S
C949 C953 1.389 . S
C949 H976 0.930 1_565 S
C950 C948 1.352 . S
C950 C952 1.374 . S
C950 H977 0.931 . S
C951 C952 1.359 . S
C951 C953 1.364 . S
C952 C950 1.374 . S
C952 C951 1.359 . S
C952 H978 0.931 . S
C953 C949 1.389 . S
C953 C951 1.364 . S
C953 H979 0.931 . S
C954 O968 1.256 . S
C954 O969 1.257 . S
C955 O970 1.240 . S
C955 O971 1.240 . S
C956 Gd945 2.818 . S
C956 C957 1.510 . S
C956 O972 1.249 . S
C956 O973 1.252 . S
C957 C956 1.510 . S
C957 C958 1.404 . S
C957 C959 1.352 . S
C958 C957 1.404 . S
C958 C962 1.389 . S
C958 H980 0.930 . S
C959 C957 1.352 . S
C959 C961 1.374 . S
C959 H981 0.931 . S
C960 C961 1.359 . S
C960 C962 1.364 . S
C961 C959 1.374 . S
C961 C960 1.359 . S
C961 H982 0.931 . S
C962 C958 1.389 . S
C962 C960 1.364 . S
C962 H983 0.931 . S
C963 O974 1.256 . S
C963 O975 1.257 . S
O964 Gd944 2.376 . S
O964 C946 1.241 1_545 S
O965 Gd945 2.395 1_565 S
O965 C946 1.240 . S
O966 Gd944 2.448 . S
O966 C947 1.249 . S
O967 Gd944 2.506 . S
O967 C947 1.252 . S
O968 Gd944 2.435 . S
O968 C954 1.256 . S
O969 Gd944 2.717 . S
O969 Gd945 2.327 . S
O969 C954 1.257 . S
O970 Gd945 2.377 . S
O970 C955 1.240 . S
O971 Gd944 2.395 . S
O971 C955 1.240 . S
O972 Gd945 2.448 . S
O972 C956 1.249 . S
O973 Gd945 2.506 . S
O973 C956 1.252 . S
O974 Gd945 2.435 . S
O974 C963 1.256 . S
O975 Gd944 2.327 . S
O975 Gd945 2.717 . S
O975 C963 1.257 . S
H976 C949 0.930 1_545 S
H977 C950 0.931 . S
H978 C952 0.931 . S
H979 C953 0.931 . S
H980 C958 0.930 . S
H981 C959 0.931 . S
H982 C961 0.931 . S
H983 C962 0.931 . S
Gd984 C987 2.818 . S
Gd984 O1004 2.377 . S
Gd984 O1006 2.448 . S
Gd984 O1007 2.506 . S
Gd984 O1008 2.435 . S
Gd984 O1009 2.717 . S
Gd984 O1011 2.395 . S
Gd984 O1015 2.327 . S
Gd985 C996 2.818 . S
Gd985 O1005 2.395 . S
Gd985 O1009 2.327 . S
Gd985 O1010 2.377 . S
Gd985 O1012 2.448 . S
Gd985 O1013 2.506 . S
Gd985 O1014 2.435 . S
Gd985 O1015 2.717 . S
C986 O1004 1.240 . S
C986 O1005 1.240 . S
C987 Gd984 2.818 . S
C987 C988 1.510 . S
C987 O1006 1.249 . S
C987 O1007 1.252 . S
C988 C987 1.510 . S
C988 C989 1.404 . S
C988 C990 1.352 . S
C989 C988 1.404 . S
C989 C993 1.389 . S
C989 H1016 0.930 . S
C990 C988 1.352 . S
C990 C992 1.374 . S
C990 H1017 0.931 . S
C991 C992 1.359 . S
C991 C993 1.364 . S
C992 C990 1.374 . S
C992 C991 1.359 . S
C992 H1018 0.931 . S
C993 C989 1.389 . S
C993 C991 1.364 . S
C993 H1019 0.931 . S
C994 O1008 1.256 . S
C994 O1009 1.257 . S
C995 O1010 1.240 . S
C995 O1011 1.240 . S
C996 Gd985 2.818 . S
C996 C997 1.510 . S
C996 O1012 1.249 . S
C996 O1013 1.252 . S
C997 C996 1.510 . S
C997 C998 1.404 . S
C997 C999 1.352 . S
C998 C997 1.404 . S
C998 C1002 1.389 . S
C998 H1020 0.930 . S
C999 C997 1.352 . S
C999 C1001 1.374 . S
C999 H1021 0.931 . S
C1000 C1001 1.359 . S
C1000 C1002 1.364 . S
C1001 C999 1.374 . S
C1001 C1000 1.359 . S
C1001 H1022 0.931 . S
C1002 C998 1.389 . S
C1002 C1000 1.364 . S
C1002 H1023 0.931 . S
C1003 O1014 1.256 . S
C1003 O1015 1.257 . S
O1004 Gd984 2.377 . S
O1004 C986 1.240 . S
O1005 Gd985 2.395 . S
O1005 C986 1.240 . S
O1006 Gd984 2.448 . S
O1006 C987 1.249 . S
O1007 Gd984 2.506 . S
O1007 C987 1.252 . S
O1008 Gd984 2.435 . S
O1008 C994 1.256 . S
O1009 Gd984 2.717 . S
O1009 Gd985 2.327 . S
O1009 C994 1.257 . S
O1010 Gd985 2.377 . S
O1010 C995 1.240 . S
O1011 Gd984 2.395 . S
O1011 C995 1.240 . S
O1012 Gd985 2.448 . S
O1012 C996 1.249 . S
O1013 Gd985 2.506 . S
O1013 C996 1.252 . S
O1014 Gd985 2.435 . S
O1014 C1003 1.256 . S
O1015 Gd984 2.327 . S
O1015 Gd985 2.717 . S
O1015 C1003 1.257 . S
H1016 C989 0.930 . S
H1017 C990 0.931 . S
H1018 C992 0.931 . S
H1019 C993 0.931 . S
H1020 C998 0.930 . S
H1021 C999 0.931 . S
H1022 C1001 0.931 . S
H1023 C1002 0.931 . S
Gd1024 C1027 2.818 . S
Gd1024 O1044 2.377 . S
Gd1024 O1046 2.448 . S
Gd1024 O1047 2.506 . S
Gd1024 O1048 2.435 . S
Gd1024 O1049 2.717 . S
Gd1024 O1051 2.395 . S
Gd1024 O1055 2.327 . S
Gd1025 C1036 2.818 . S
Gd1025 O1045 2.395 1_565 S
Gd1025 O1049 2.327 1_565 S
Gd1025 O1050 2.377 1_565 S
Gd1025 O1052 2.448 . S
Gd1025 O1053 2.506 . S
Gd1025 O1054 2.435 1_565 S
Gd1025 O1055 2.717 1_565 S
C1026 O1044 1.240 . S
C1026 O1045 1.240 . S
C1027 Gd1024 2.818 . S
C1027 C1028 1.510 . S
C1027 O1046 1.249 . S
C1027 O1047 1.252 . S
C1028 C1027 1.510 . S
C1028 C1029 1.404 . S
C1028 C1030 1.352 . S
C1029 C1028 1.404 . S
C1029 C1033 1.389 . S
C1029 H1056 0.930 . S
C1030 C1028 1.352 . S
C1030 C1032 1.374 . S
C1030 H1057 0.931 . S
C1031 C1032 1.359 . S
C1031 C1033 1.364 . S
C1032 C1030 1.374 . S
C1032 C1031 1.359 . S
C1032 H1058 0.931 . S
C1033 C1029 1.389 . S
C1033 C1031 1.364 . S
C1033 H1059 0.931 . S
C1034 O1048 1.256 . S
C1034 O1049 1.257 . S
C1035 O1050 1.240 . S
C1035 O1051 1.240 . S
C1036 Gd1025 2.818 . S
C1036 C1037 1.510 . S
C1036 O1052 1.249 . S
C1036 O1053 1.252 . S
C1037 C1036 1.510 . S
C1037 C1038 1.404 . S
C1037 C1039 1.352 . S
C1038 C1037 1.404 . S
C1038 C1042 1.389 . S
C1038 H1060 0.930 . S
C1039 C1037 1.352 . S
C1039 C1041 1.374 . S
C1039 H1061 0.931 . S
C1040 C1041 1.359 . S
C1040 C1042 1.364 . S
C1041 C1039 1.374 . S
C1041 C1040 1.359 . S
C1041 H1062 0.931 . S
C1042 C1038 1.389 . S
C1042 C1040 1.364 . S
C1042 H1063 0.931 . S
C1043 O1054 1.256 . S
C1043 O1055 1.257 . S
O1044 Gd1024 2.377 . S
O1044 C1026 1.240 . S
O1045 Gd1025 2.395 1_545 S
O1045 C1026 1.240 . S
O1046 Gd1024 2.448 . S
O1046 C1027 1.249 . S
O1047 Gd1024 2.506 . S
O1047 C1027 1.252 . S
O1048 Gd1024 2.435 . S
O1048 C1034 1.256 . S
O1049 Gd1024 2.717 . S
O1049 Gd1025 2.327 1_545 S
O1049 C1034 1.257 . S
O1050 Gd1025 2.377 1_545 S
O1050 C1035 1.240 . S
O1051 Gd1024 2.395 . S
O1051 C1035 1.240 . S
O1052 Gd1025 2.448 . S
O1052 C1036 1.249 . S
O1053 Gd1025 2.506 . S
O1053 C1036 1.252 . S
O1054 Gd1025 2.435 1_545 S
O1054 C1043 1.256 . S
O1055 Gd1024 2.327 . S
O1055 Gd1025 2.717 1_545 S
O1055 C1043 1.257 . S
H1056 C1029 0.930 . S
H1057 C1030 0.931 . S
H1058 C1032 0.931 . S
H1059 C1033 0.931 . S
H1060 C1038 0.930 . S
H1061 C1039 0.931 . S
H1062 C1041 0.931 . S
H1063 C1042 0.931 . S
Gd1064 C1067 2.818 . S
Gd1064 O1084 2.377 . S
Gd1064 O1086 2.448 . S
Gd1064 O1087 2.506 . S
Gd1064 O1088 2.435 . S
Gd1064 O1089 2.717 . S
Gd1064 O1091 2.395 . S
Gd1064 O1095 2.327 . S
Gd1065 C1076 2.818 . S
Gd1065 O1085 2.395 . S
Gd1065 O1089 2.327 . S
Gd1065 O1090 2.377 . S
Gd1065 O1092 2.448 . S
Gd1065 O1093 2.506 . S
Gd1065 O1094 2.435 . S
Gd1065 O1095 2.717 . S
C1066 O1084 1.240 . S
C1066 O1085 1.240 . S
C1067 Gd1064 2.818 . S
C1067 C1068 1.510 . S
C1067 O1086 1.249 . S
C1067 O1087 1.252 . S
C1068 C1067 1.510 . S
C1068 C1069 1.404 . S
C1068 C1070 1.352 . S
C1069 C1068 1.404 . S
C1069 C1073 1.389 . S
C1069 H1096 0.930 . S
C1070 C1068 1.352 . S
C1070 C1072 1.374 . S
C1070 H1097 0.931 . S
C1071 C1072 1.359 . S
C1071 C1073 1.364 . S
C1072 C1070 1.374 . S
C1072 C1071 1.359 . S
C1072 H1098 0.931 . S
C1073 C1069 1.389 . S
C1073 C1071 1.364 . S
C1073 H1099 0.931 . S
C1074 O1088 1.256 . S
C1074 O1089 1.257 . S
C1075 O1090 1.240 . S
C1075 O1091 1.240 . S
C1076 Gd1065 2.818 . S
C1076 C1077 1.510 . S
C1076 O1092 1.249 . S
C1076 O1093 1.252 . S
C1077 C1076 1.510 . S
C1077 C1078 1.404 . S
C1077 C1079 1.352 . S
C1078 C1077 1.404 . S
C1078 C1082 1.389 . S
C1078 H1100 0.930 . S
C1079 C1077 1.352 . S
C1079 C1081 1.374 . S
C1079 H1101 0.931 . S
C1080 C1081 1.359 . S
C1080 C1082 1.364 . S
C1081 C1079 1.374 . S
C1081 C1080 1.359 . S
C1081 H1102 0.931 . S
C1082 C1078 1.389 . S
C1082 C1080 1.364 . S
C1082 H1103 0.931 . S
C1083 O1094 1.256 . S
C1083 O1095 1.257 . S
O1084 Gd1064 2.377 . S
O1084 C1066 1.240 . S
O1085 Gd1065 2.395 . S
O1085 C1066 1.240 . S
O1086 Gd1064 2.448 . S
O1086 C1067 1.249 . S
O1087 Gd1064 2.506 . S
O1087 C1067 1.252 . S
O1088 Gd1064 2.435 . S
O1088 C1074 1.256 . S
O1089 Gd1064 2.717 . S
O1089 Gd1065 2.327 . S
O1089 C1074 1.257 . S
O1090 Gd1065 2.377 . S
O1090 C1075 1.240 . S
O1091 Gd1064 2.395 . S
O1091 C1075 1.240 . S
O1092 Gd1065 2.448 . S
O1092 C1076 1.249 . S
O1093 Gd1065 2.506 . S
O1093 C1076 1.252 . S
O1094 Gd1065 2.435 . S
O1094 C1083 1.256 . S
O1095 Gd1064 2.327 . S
O1095 Gd1065 2.717 . S
O1095 C1083 1.257 . S
H1096 C1069 0.930 . S
H1097 C1070 0.931 . S
H1098 C1072 0.931 . S
H1099 C1073 0.931 . S
H1100 C1078 0.930 . S
H1101 C1079 0.931 . S
H1102 C1081 0.931 . S
H1103 C1082 0.931 . S
Gd1104 C1107 2.818 . S
Gd1104 O1124 2.377 . S
Gd1104 O1126 2.448 . S
Gd1104 O1127 2.506 . S
Gd1104 O1128 2.435 1_545 S
Gd1104 O1129 2.717 1_554 S
Gd1104 O1131 2.395 . S
Gd1104 O1135 2.327 . S
Gd1105 C1116 2.818 . S
Gd1105 O1125 2.395 . S
Gd1105 O1129 2.327 . S
Gd1105 O1130 2.377 1_556 S
Gd1105 O1132 2.448 . S
Gd1105 O1133 2.506 . S
Gd1105 O1134 2.435 1_556 S
Gd1105 O1135 2.717 1_556 S
C1106 O1124 1.240 . S
C1106 O1125 1.240 1_554 S
C1107 Gd1104 2.818 . S
C1107 C1108 1.510 . S
C1107 O1126 1.249 . S
C1107 O1127 1.252 . S
C1108 C1107 1.510 . S
C1108 C1109 1.404 1_545 S
C1108 C1110 1.352 . S
C1109 C1108 1.404 1_565 S
C1109 C1113 1.389 . S
C1109 H1136 0.930 . S
C1110 C1108 1.352 . S
C1110 C1112 1.374 . S
C1110 H1137 0.931 . S
C1111 C1112 1.359 1_565 S
C1111 C1113 1.364 . S
C1112 C1110 1.374 . S
C1112 C1111 1.359 1_545 S
C1112 H1138 0.931 . S
C1113 C1109 1.389 . S
C1113 C1111 1.364 . S
C1113 H1139 0.931 . S
C1114 O1128 1.256 . S
C1114 O1129 1.257 1_564 S
C1115 O1130 1.240 . S
C1115 O1131 1.240 . S
C1116 Gd1105 2.818 . S
C1116 C1117 1.510 . S
C1116 O1132 1.249 . S
C1116 O1133 1.252 . S
C1117 C1116 1.510 . S
C1117 C1118 1.404 . S
C1117 C1119 1.352 . S
C1118 C1117 1.404 . S
C1118 C1122 1.389 . S
C1118 H1140 0.930 . S
C1119 C1117 1.352 . S
C1119 C1121 1.374 . S
C1119 H1141 0.931 . S
C1120 C1121 1.359 . S
C1120 C1122 1.364 . S
C1121 C1119 1.374 . S
C1121 C1120 1.359 . S
C1121 H1142 0.931 . S
C1122 C1118 1.389 . S
C1122 C1120 1.364 . S
C1122 H1143 0.931 . S
C1123 O1134 1.256 . S
C1123 O1135 1.257 . S
O1124 Gd1104 2.377 . S
O1124 C1106 1.240 . S
O1125 Gd1105 2.395 . S
O1125 C1106 1.240 1_556 S
O1126 Gd1104 2.448 . S
O1126 C1107 1.249 . S
O1127 Gd1104 2.506 . S
O1127 C1107 1.252 . S
O1128 Gd1104 2.435 1_565 S
O1128 C1114 1.256 . S
O1129 Gd1104 2.717 1_556 S
O1129 Gd1105 2.327 . S
O1129 C1114 1.257 1_546 S
O1130 Gd1105 2.377 1_554 S
O1130 C1115 1.240 . S
O1131 Gd1104 2.395 . S
O1131 C1115 1.240 . S
O1132 Gd1105 2.448 . S
O1132 C1116 1.249 . S
O1133 Gd1105 2.506 . S
O1133 C1116 1.252 . S
O1134 Gd1105 2.435 1_554 S
O1134 C1123 1.256 . S
O1135 Gd1104 2.327 . S
O1135 Gd1105 2.717 1_554 S
O1135 C1123 1.257 . S
H1136 C1109 0.930 . S
H1137 C1110 0.931 . S
H1138 C1112 0.931 . S
H1139 C1113 0.931 . S
H1140 C1118 0.930 . S
H1141 C1119 0.931 . S
H1142 C1121 0.931 . S
H1143 C1122 0.931 . S
Gd1144 C1147 2.818 . S
Gd1144 O1164 2.377 . S
Gd1144 O1166 2.448 . S
Gd1144 O1167 2.506 . S
Gd1144 O1168 2.435 . S
Gd1144 O1169 2.717 . S
Gd1144 O1171 2.395 . S
Gd1144 O1175 2.327 . S
Gd1145 C1156 2.818 . S
Gd1145 O1165 2.395 . S
Gd1145 O1169 2.327 . S
Gd1145 O1170 2.377 . S
Gd1145 O1172 2.448 . S
Gd1145 O1173 2.506 . S
Gd1145 O1174 2.435 . S
Gd1145 O1175 2.717 . S
C1146 O1164 1.240 . S
C1146 O1165 1.240 . S
C1147 Gd1144 2.818 . S
C1147 C1148 1.510 . S
C1147 O1166 1.249 . S
C1147 O1167 1.252 . S
C1148 C1147 1.510 . S
C1148 C1149 1.404 . S
C1148 C1150 1.352 . S
C1149 C1148 1.404 . S
C1149 C1153 1.389 . S
C1149 H1176 0.930 . S
C1150 C1148 1.352 . S
C1150 C1152 1.374 . S
C1150 H1177 0.931 . S
C1151 C1152 1.359 . S
C1151 C1153 1.364 . S
C1152 C1150 1.374 . S
C1152 C1151 1.359 . S
C1152 H1178 0.931 . S
C1153 C1149 1.389 . S
C1153 C1151 1.364 . S
C1153 H1179 0.931 . S
C1154 O1168 1.256 . S
C1154 O1169 1.257 . S
C1155 O1170 1.240 . S
C1155 O1171 1.240 . S
C1156 Gd1145 2.818 . S
C1156 C1157 1.510 . S
C1156 O1172 1.249 . S
C1156 O1173 1.252 . S
C1157 C1156 1.510 . S
C1157 C1158 1.404 . S
C1157 C1159 1.352 . S
C1158 C1157 1.404 . S
C1158 C1162 1.389 . S
C1158 H1180 0.930 . S
C1159 C1157 1.352 . S
C1159 C1161 1.374 . S
C1159 H1181 0.931 . S
C1160 C1161 1.359 . S
C1160 C1162 1.364 . S
C1161 C1159 1.374 . S
C1161 C1160 1.359 . S
C1161 H1182 0.931 . S
C1162 C1158 1.389 . S
C1162 C1160 1.364 . S
C1162 H1183 0.931 . S
C1163 O1174 1.256 . S
C1163 O1175 1.257 . S
O1164 Gd1144 2.377 . S
O1164 C1146 1.240 . S
O1165 Gd1145 2.395 . S
O1165 C1146 1.240 . S
O1166 Gd1144 2.448 . S
O1166 C1147 1.249 . S
O1167 Gd1144 2.506 . S
O1167 C1147 1.252 . S
O1168 Gd1144 2.435 . S
O1168 C1154 1.256 . S
O1169 Gd1144 2.717 . S
O1169 Gd1145 2.327 . S
O1169 C1154 1.257 . S
O1170 Gd1145 2.377 . S
O1170 C1155 1.240 . S
O1171 Gd1144 2.395 . S
O1171 C1155 1.240 . S
O1172 Gd1145 2.448 . S
O1172 C1156 1.249 . S
O1173 Gd1145 2.506 . S
O1173 C1156 1.252 . S
O1174 Gd1145 2.435 . S
O1174 C1163 1.256 . S
O1175 Gd1144 2.327 . S
O1175 Gd1145 2.717 . S
O1175 C1163 1.257 . S
H1176 C1149 0.930 . S
H1177 C1150 0.931 . S
H1178 C1152 0.931 . S
H1179 C1153 0.931 . S
H1180 C1158 0.930 . S
H1181 C1159 0.931 . S
H1182 C1161 0.931 . S
H1183 C1162 0.931 . S
Gd1184 C1187 2.818 . S
Gd1184 O1204 2.377 1_554 S
Gd1184 O1206 2.448 . S
Gd1184 O1207 2.506 . S
Gd1184 O1208 2.435 . S
Gd1184 O1209 2.717 . S
Gd1184 O1211 2.395 . S
Gd1184 O1215 2.327 . S
Gd1185 C1196 2.818 . S
Gd1185 O1205 2.395 1_554 S
Gd1185 O1209 2.327 . S
Gd1185 O1210 2.377 . S
Gd1185 O1212 2.448 . S
Gd1185 O1213 2.506 . S
Gd1185 O1214 2.435 . S
Gd1185 O1215 2.717 . S
C1186 O1204 1.240 . S
C1186 O1205 1.240 . S
C1187 Gd1184 2.818 . S
C1187 C1188 1.510 1_554 S
C1187 O1206 1.249 . S
C1187 O1207 1.252 . S
C1188 C1187 1.510 1_556 S
C1188 C1189 1.404 . S
C1188 C1190 1.352 . S
C1189 C1188 1.404 . S
C1189 C1193 1.389 . S
C1189 H1216 0.930 1_556 S
C1190 C1188 1.352 . S
C1190 C1192 1.374 . S
C1190 H1217 0.931 . S
C1191 C1192 1.359 . S
C1191 C1193 1.364 . S
C1192 C1190 1.374 . S
C1192 C1191 1.359 . S
C1192 H1218 0.931 . S
C1193 C1189 1.389 . S
C1193 C1191 1.364 . S
C1193 H1219 0.931 . S
C1194 O1208 1.256 . S
C1194 O1209 1.257 . S
C1195 O1210 1.240 . S
C1195 O1211 1.240 . S
C1196 Gd1185 2.818 . S
C1196 C1197 1.510 . S
C1196 O1212 1.249 . S
C1196 O1213 1.252 . S
C1197 C1196 1.510 . S
C1197 C1198 1.404 . S
C1197 C1199 1.352 . S
C1198 C1197 1.404 . S
C1198 C1202 1.389 . S
C1198 H1220 0.930 . S
C1199 C1197 1.352 . S
C1199 C1201 1.374 . S
C1199 H1221 0.931 . S
C1200 C1201 1.359 . S
C1200 C1202 1.364 . S
C1201 C1199 1.374 . S
C1201 C1200 1.359 . S
C1201 H1222 0.931 . S
C1202 C1198 1.389 . S
C1202 C1200 1.364 . S
C1202 H1223 0.931 . S
C1203 O1214 1.256 . S
C1203 O1215 1.257 . S
O1204 Gd1184 2.377 1_556 S
O1204 C1186 1.240 . S
O1205 Gd1185 2.395 1_556 S
O1205 C1186 1.240 . S
O1206 Gd1184 2.448 . S
O1206 C1187 1.249 . S
O1207 Gd1184 2.506 . S
O1207 C1187 1.252 . S
O1208 Gd1184 2.435 . S
O1208 C1194 1.256 . S
O1209 Gd1184 2.717 . S
O1209 Gd1185 2.327 . S
O1209 C1194 1.257 . S
O1210 Gd1185 2.377 . S
O1210 C1195 1.240 . S
O1211 Gd1184 2.395 . S
O1211 C1195 1.240 . S
O1212 Gd1185 2.448 . S
O1212 C1196 1.249 . S
O1213 Gd1185 2.506 . S
O1213 C1196 1.252 . S
O1214 Gd1185 2.435 . S
O1214 C1203 1.256 . S
O1215 Gd1184 2.327 . S
O1215 Gd1185 2.717 . S
O1215 C1203 1.257 . S
H1216 C1189 0.930 1_554 S
H1217 C1190 0.931 . S
H1218 C1192 0.931 . S
H1219 C1193 0.931 . S
H1220 C1198 0.930 . S
H1221 C1199 0.931 . S
H1222 C1201 0.931 . S
H1223 C1202 0.931 . S
Gd1224 C1227 2.818 . S
Gd1224 O1244 2.377 . S
Gd1224 O1246 2.448 . S
Gd1224 O1247 2.506 . S
Gd1224 O1248 2.435 . S
Gd1224 O1249 2.717 . S
Gd1224 O1251 2.395 . S
Gd1224 O1255 2.327 . S
Gd1225 C1236 2.818 . S
Gd1225 O1245 2.395 . S
Gd1225 O1249 2.327 . S
Gd1225 O1250 2.377 . S
Gd1225 O1252 2.448 . S
Gd1225 O1253 2.506 . S
Gd1225 O1254 2.435 . S
Gd1225 O1255 2.717 . S
C1226 O1244 1.240 . S
C1226 O1245 1.240 . S
C1227 Gd1224 2.818 . S
C1227 C1228 1.510 . S
C1227 O1246 1.249 . S
C1227 O1247 1.252 . S
C1228 C1227 1.510 . S
C1228 C1229 1.404 . S
C1228 C1230 1.352 . S
C1229 C1228 1.404 . S
C1229 C1233 1.389 . S
C1229 H1256 0.930 . S
C1230 C1228 1.352 . S
C1230 C1232 1.374 . S
C1230 H1257 0.931 . S
C1231 C1232 1.359 1_455 S
C1231 C1233 1.364 1_455 S
C1232 C1230 1.374 . S
C1232 C1231 1.359 1_655 S
C1232 H1258 0.931 . S
C1233 C1229 1.389 . S
C1233 C1231 1.364 1_655 S
C1233 H1259 0.931 1_655 S
C1234 O1248 1.256 . S
C1234 O1249 1.257 . S
C1235 O1250 1.240 . S
C1235 O1251 1.240 . S
C1236 Gd1225 2.818 . S
C1236 C1237 1.510 . S
C1236 O1252 1.249 . S
C1236 O1253 1.252 . S
C1237 C1236 1.510 . S
C1237 C1238 1.404 . S
C1237 C1239 1.352 . S
C1238 C1237 1.404 . S
C1238 C1242 1.389 . S
C1238 H1260 0.930 . S
C1239 C1237 1.352 . S
C1239 C1241 1.374 . S
C1239 H1261 0.931 . S
C1240 C1241 1.359 . S
C1240 C1242 1.364 . S
C1241 C1239 1.374 . S
C1241 C1240 1.359 . S
C1241 H1262 0.931 . S
C1242 C1238 1.389 . S
C1242 C1240 1.364 . S
C1242 H1263 0.931 . S
C1243 O1254 1.256 . S
C1243 O1255 1.257 . S
O1244 Gd1224 2.377 . S
O1244 C1226 1.240 . S
O1245 Gd1225 2.395 . S
O1245 C1226 1.240 . S
O1246 Gd1224 2.448 . S
O1246 C1227 1.249 . S
O1247 Gd1224 2.506 . S
O1247 C1227 1.252 . S
O1248 Gd1224 2.435 . S
O1248 C1234 1.256 . S
O1249 Gd1224 2.717 . S
O1249 Gd1225 2.327 . S
O1249 C1234 1.257 . S
O1250 Gd1225 2.377 . S
O1250 C1235 1.240 . S
O1251 Gd1224 2.395 . S
O1251 C1235 1.240 . S
O1252 Gd1225 2.448 . S
O1252 C1236 1.249 . S
O1253 Gd1225 2.506 . S
O1253 C1236 1.252 . S
O1254 Gd1225 2.435 . S
O1254 C1243 1.256 . S
O1255 Gd1224 2.327 . S
O1255 Gd1225 2.717 . S
O1255 C1243 1.257 . S
H1256 C1229 0.930 . S
H1257 C1230 0.931 . S
H1258 C1232 0.931 . S
H1259 C1233 0.931 1_455 S
H1260 C1238 0.930 . S
H1261 C1239 0.931 . S
H1262 C1241 0.931 . S
H1263 C1242 0.931 . S
Gd1264 C1267 2.818 . S
Gd1264 O1284 2.377 . S
Gd1264 O1286 2.448 . S
Gd1264 O1287 2.506 . S
Gd1264 O1288 2.435 . S
Gd1264 O1289 2.717 . S
Gd1264 O1291 2.395 . S
Gd1264 O1295 2.327 . S
Gd1265 C1276 2.818 . S
Gd1265 O1285 2.395 . S
Gd1265 O1289 2.327 . S
Gd1265 O1290 2.377 . S
Gd1265 O1292 2.448 . S
Gd1265 O1293 2.506 . S
Gd1265 O1294 2.435 . S
Gd1265 O1295 2.717 . S
C1266 O1284 1.240 . S
C1266 O1285 1.240 . S
C1267 Gd1264 2.818 . S
C1267 C1268 1.510 . S
C1267 O1286 1.249 . S
C1267 O1287 1.252 . S
C1268 C1267 1.510 . S
C1268 C1269 1.404 . S
C1268 C1270 1.352 . S
C1269 C1268 1.404 . S
C1269 C1273 1.389 . S
C1269 H1296 0.930 . S
C1270 C1268 1.352 . S
C1270 C1272 1.374 1_455 S
C1270 H1297 0.931 . S
C1271 C1272 1.359 . S
C1271 C1273 1.364 1_655 S
C1272 C1270 1.374 1_655 S
C1272 C1271 1.359 . S
C1272 H1298 0.931 . S
C1273 C1269 1.389 . S
C1273 C1271 1.364 1_455 S
C1273 H1299 0.931 . S
C1274 O1288 1.256 . S
C1274 O1289 1.257 . S
C1275 O1290 1.240 . S
C1275 O1291 1.240 . S
C1276 Gd1265 2.818 . S
C1276 C1277 1.510 . S
C1276 O1292 1.249 . S
C1276 O1293 1.252 . S
C1277 C1276 1.510 . S
C1277 C1278 1.404 . S
C1277 C1279 1.352 . S
C1278 C1277 1.404 . S
C1278 C1282 1.389 . S
C1278 H1300 0.930 . S
C1279 C1277 1.352 . S
C1279 C1281 1.374 . S
C1279 H1301 0.931 . S
C1280 C1281 1.359 . S
C1280 C1282 1.364 . S
C1281 C1279 1.374 . S
C1281 C1280 1.359 . S
C1281 H1302 0.931 . S
C1282 C1278 1.389 . S
C1282 C1280 1.364 . S
C1282 H1303 0.931 . S
C1283 O1294 1.256 . S
C1283 O1295 1.257 . S
O1284 Gd1264 2.377 . S
O1284 C1266 1.240 . S
O1285 Gd1265 2.395 . S
O1285 C1266 1.240 . S
O1286 Gd1264 2.448 . S
O1286 C1267 1.249 . S
O1287 Gd1264 2.506 . S
O1287 C1267 1.252 . S
O1288 Gd1264 2.435 . S
O1288 C1274 1.256 . S
O1289 Gd1264 2.717 . S
O1289 Gd1265 2.327 . S
O1289 C1274 1.257 . S
O1290 Gd1265 2.377 . S
O1290 C1275 1.240 . S
O1291 Gd1264 2.395 . S
O1291 C1275 1.240 . S
O1292 Gd1265 2.448 . S
O1292 C1276 1.249 . S
O1293 Gd1265 2.506 . S
O1293 C1276 1.252 . S
O1294 Gd1265 2.435 . S
O1294 C1283 1.256 . S
O1295 Gd1264 2.327 . S
O1295 Gd1265 2.717 . S
O1295 C1283 1.257 . S
H1296 C1269 0.930 . S
H1297 C1270 0.931 . S
H1298 C1272 0.931 . S
H1299 C1273 0.931 . S
H1300 C1278 0.930 . S
H1301 C1279 0.931 . S
H1302 C1281 0.931 . S
H1303 C1282 0.931 . S
Gd1304 C1307 2.818 . S
Gd1304 O1324 2.377 . S
Gd1304 O1326 2.448 . S
Gd1304 O1327 2.506 . S
Gd1304 O1328 2.435 . S
Gd1304 O1329 2.717 . S
Gd1304 O1331 2.395 . S
Gd1304 O1335 2.327 . S
Gd1305 C1316 2.818 . S
Gd1305 O1325 2.395 . S
Gd1305 O1329 2.327 . S
Gd1305 O1330 2.377 . S
Gd1305 O1332 2.448 . S
Gd1305 O1333 2.506 . S
Gd1305 O1334 2.435 . S
Gd1305 O1335 2.717 . S
C1306 O1324 1.240 . S
C1306 O1325 1.240 . S
C1307 Gd1304 2.818 . S
C1307 C1308 1.510 . S
C1307 O1326 1.249 . S
C1307 O1327 1.252 . S
C1308 C1307 1.510 . S
C1308 C1309 1.404 . S
C1308 C1310 1.352 . S
C1309 C1308 1.404 . S
C1309 C1313 1.389 . S
C1309 H1336 0.930 . S
C1310 C1308 1.352 . S
C1310 C1312 1.374 . S
C1310 H1337 0.931 . S
C1311 C1312 1.359 . S
C1311 C1313 1.364 . S
C1312 C1310 1.374 . S
C1312 C1311 1.359 . S
C1312 H1338 0.931 . S
C1313 C1309 1.389 . S
C1313 C1311 1.364 . S
C1313 H1339 0.931 . S
C1314 O1328 1.256 . S
C1314 O1329 1.257 . S
C1315 O1330 1.240 . S
C1315 O1331 1.240 . S
C1316 Gd1305 2.818 . S
C1316 C1317 1.510 . S
C1316 O1332 1.249 . S
C1316 O1333 1.252 . S
C1317 C1316 1.510 . S
C1317 C1318 1.404 . S
C1317 C1319 1.352 . S
C1318 C1317 1.404 . S
C1318 C1322 1.389 . S
C1318 H1340 0.930 . S
C1319 C1317 1.352 . S
C1319 C1321 1.374 . S
C1319 H1341 0.931 . S
C1320 C1321 1.359 . S
C1320 C1322 1.364 . S
C1321 C1319 1.374 . S
C1321 C1320 1.359 . S
C1321 H1342 0.931 . S
C1322 C1318 1.389 . S
C1322 C1320 1.364 . S
C1322 H1343 0.931 . S
C1323 O1334 1.256 . S
C1323 O1335 1.257 . S
O1324 Gd1304 2.377 . S
O1324 C1306 1.240 . S
O1325 Gd1305 2.395 . S
O1325 C1306 1.240 . S
O1326 Gd1304 2.448 . S
O1326 C1307 1.249 . S
O1327 Gd1304 2.506 . S
O1327 C1307 1.252 . S
O1328 Gd1304 2.435 . S
O1328 C1314 1.256 . S
O1329 Gd1304 2.717 . S
O1329 Gd1305 2.327 . S
O1329 C1314 1.257 . S
O1330 Gd1305 2.377 . S
O1330 C1315 1.240 . S
O1331 Gd1304 2.395 . S
O1331 C1315 1.240 . S
O1332 Gd1305 2.448 . S
O1332 C1316 1.249 . S
O1333 Gd1305 2.506 . S
O1333 C1316 1.252 . S
O1334 Gd1305 2.435 . S
O1334 C1323 1.256 . S
O1335 Gd1304 2.327 . S
O1335 Gd1305 2.717 . S
O1335 C1323 1.257 . S
H1336 C1309 0.930 . S
H1337 C1310 0.931 . S
H1338 C1312 0.931 . S
H1339 C1313 0.931 . S
H1340 C1318 0.930 . S
H1341 C1319 0.931 . S
H1342 C1321 0.931 . S
H1343 C1322 0.931 . S
Gd1344 C1347 2.818 . S
Gd1344 O1364 2.377 . S
Gd1344 O1366 2.448 . S
Gd1344 O1367 2.506 . S
Gd1344 O1368 2.435 . S
Gd1344 O1369 2.717 . S
Gd1344 O1371 2.395 . S
Gd1344 O1375 2.327 . S
Gd1345 C1356 2.818 . S
Gd1345 O1365 2.395 . S
Gd1345 O1369 2.327 . S
Gd1345 O1370 2.377 . S
Gd1345 O1372 2.448 . S
Gd1345 O1373 2.506 . S
Gd1345 O1374 2.435 . S
Gd1345 O1375 2.717 . S
C1346 O1364 1.240 . S
C1346 O1365 1.240 . S
C1347 Gd1344 2.818 . S
C1347 C1348 1.510 . S
C1347 O1366 1.249 . S
C1347 O1367 1.252 . S
C1348 C1347 1.510 . S
C1348 C1349 1.404 . S
C1348 C1350 1.352 . S
C1349 C1348 1.404 . S
C1349 C1353 1.389 . S
C1349 H1376 0.930 . S
C1350 C1348 1.352 . S
C1350 C1352 1.374 . S
C1350 H1377 0.931 . S
C1351 C1352 1.359 . S
C1351 C1353 1.364 . S
C1352 C1350 1.374 . S
C1352 C1351 1.359 . S
C1352 H1378 0.931 . S
C1353 C1349 1.389 . S
C1353 C1351 1.364 . S
C1353 H1379 0.931 . S
C1354 O1368 1.256 . S
C1354 O1369 1.257 . S
C1355 O1370 1.240 . S
C1355 O1371 1.240 . S
C1356 Gd1345 2.818 . S
C1356 C1357 1.510 . S
C1356 O1372 1.249 . S
C1356 O1373 1.252 . S
C1357 C1356 1.510 . S
C1357 C1358 1.404 . S
C1357 C1359 1.352 . S
C1358 C1357 1.404 . S
C1358 C1362 1.389 . S
C1358 H1380 0.930 . S
C1359 C1357 1.352 . S
C1359 C1361 1.374 . S
C1359 H1381 0.931 . S
C1360 C1361 1.359 . S
C1360 C1362 1.364 . S
C1361 C1359 1.374 . S
C1361 C1360 1.359 . S
C1361 H1382 0.931 . S
C1362 C1358 1.389 . S
C1362 C1360 1.364 . S
C1362 H1383 0.931 . S
C1363 O1374 1.256 . S
C1363 O1375 1.257 . S
O1364 Gd1344 2.377 . S
O1364 C1346 1.240 . S
O1365 Gd1345 2.395 . S
O1365 C1346 1.240 . S
O1366 Gd1344 2.448 . S
O1366 C1347 1.249 . S
O1367 Gd1344 2.506 . S
O1367 C1347 1.252 . S
O1368 Gd1344 2.435 . S
O1368 C1354 1.256 . S
O1369 Gd1344 2.717 . S
O1369 Gd1345 2.327 . S
O1369 C1354 1.257 . S
O1370 Gd1345 2.377 . S
O1370 C1355 1.240 . S
O1371 Gd1344 2.395 . S
O1371 C1355 1.240 . S
O1372 Gd1345 2.448 . S
O1372 C1356 1.249 . S
O1373 Gd1345 2.506 . S
O1373 C1356 1.252 . S
O1374 Gd1345 2.435 . S
O1374 C1363 1.256 . S
O1375 Gd1344 2.327 . S
O1375 Gd1345 2.717 . S
O1375 C1363 1.257 . S
H1376 C1349 0.930 . S
H1377 C1350 0.931 . S
H1378 C1352 0.931 . S
H1379 C1353 0.931 . S
H1380 C1358 0.930 . S
H1381 C1359 0.931 . S
H1382 C1361 0.931 . S
H1383 C1362 0.931 . S
Gd1384 C1387 2.818 . S
Gd1384 O1404 2.377 . S
Gd1384 O1406 2.448 . S
Gd1384 O1407 2.506 . S
Gd1384 O1408 2.435 . S
Gd1384 O1409 2.717 . S
Gd1384 O1411 2.395 . S
Gd1384 O1415 2.327 . S
Gd1385 C1396 2.818 . S
Gd1385 O1405 2.395 . S
Gd1385 O1409 2.327 . S
Gd1385 O1410 2.377 . S
Gd1385 O1412 2.448 . S
Gd1385 O1413 2.506 . S
Gd1385 O1414 2.435 . S
Gd1385 O1415 2.717 . S
C1386 O1404 1.240 . S
C1386 O1405 1.240 . S
C1387 Gd1384 2.818 . S
C1387 C1388 1.510 . S
C1387 O1406 1.249 . S
C1387 O1407 1.252 . S
C1388 C1387 1.510 . S
C1388 C1389 1.404 . S
C1388 C1390 1.352 . S
C1389 C1388 1.404 . S
C1389 C1393 1.389 . S
C1389 H1416 0.930 . S
C1390 C1388 1.352 . S
C1390 C1392 1.374 . S
C1390 H1417 0.931 . S
C1391 C1392 1.359 . S
C1391 C1393 1.364 . S
C1392 C1390 1.374 . S
C1392 C1391 1.359 . S
C1392 H1418 0.931 . S
C1393 C1389 1.389 . S
C1393 C1391 1.364 . S
C1393 H1419 0.931 . S
C1394 O1408 1.256 . S
C1394 O1409 1.257 . S
C1395 O1410 1.240 . S
C1395 O1411 1.240 . S
C1396 Gd1385 2.818 . S
C1396 C1397 1.510 . S
C1396 O1412 1.249 . S
C1396 O1413 1.252 . S
C1397 C1396 1.510 . S
C1397 C1398 1.404 . S
C1397 C1399 1.352 . S
C1398 C1397 1.404 . S
C1398 C1402 1.389 . S
C1398 H1420 0.930 . S
C1399 C1397 1.352 . S
C1399 C1401 1.374 . S
C1399 H1421 0.931 . S
C1400 C1401 1.359 . S
C1400 C1402 1.364 . S
C1401 C1399 1.374 . S
C1401 C1400 1.359 . S
C1401 H1422 0.931 . S
C1402 C1398 1.389 . S
C1402 C1400 1.364 . S
C1402 H1423 0.931 . S
C1403 O1414 1.256 . S
C1403 O1415 1.257 . S
O1404 Gd1384 2.377 . S
O1404 C1386 1.240 . S
O1405 Gd1385 2.395 . S
O1405 C1386 1.240 . S
O1406 Gd1384 2.448 . S
O1406 C1387 1.249 . S
O1407 Gd1384 2.506 . S
O1407 C1387 1.252 . S
O1408 Gd1384 2.435 . S
O1408 C1394 1.256 . S
O1409 Gd1384 2.717 . S
O1409 Gd1385 2.327 . S
O1409 C1394 1.257 . S
O1410 Gd1385 2.377 . S
O1410 C1395 1.240 . S
O1411 Gd1384 2.395 . S
O1411 C1395 1.240 . S
O1412 Gd1385 2.448 . S
O1412 C1396 1.249 . S
O1413 Gd1385 2.506 . S
O1413 C1396 1.252 . S
O1414 Gd1385 2.435 . S
O1414 C1403 1.256 . S
O1415 Gd1384 2.327 . S
O1415 Gd1385 2.717 . S
O1415 C1403 1.257 . S
H1416 C1389 0.930 . S
H1417 C1390 0.931 . S
H1418 C1392 0.931 . S
H1419 C1393 0.931 . S
H1420 C1398 0.930 . S
H1421 C1399 0.931 . S
H1422 C1401 0.931 . S
H1423 C1402 0.931 . S
Gd1424 C1427 2.818 . S
Gd1424 O1444 2.377 . S
Gd1424 O1446 2.448 . S
Gd1424 O1447 2.506 . S
Gd1424 O1448 2.435 . S
Gd1424 O1449 2.717 . S
Gd1424 O1451 2.395 . S
Gd1424 O1455 2.327 . S
Gd1425 C1436 2.818 . S
Gd1425 O1445 2.395 . S
Gd1425 O1449 2.327 . S
Gd1425 O1450 2.377 . S
Gd1425 O1452 2.448 . S
Gd1425 O1453 2.506 . S
Gd1425 O1454 2.435 . S
Gd1425 O1455 2.717 . S
C1426 O1444 1.240 . S
C1426 O1445 1.240 . S
C1427 Gd1424 2.818 . S
C1427 C1428 1.510 . S
C1427 O1446 1.249 . S
C1427 O1447 1.252 . S
C1428 C1427 1.510 . S
C1428 C1429 1.404 . S
C1428 C1430 1.352 . S
C1429 C1428 1.404 . S
C1429 C1433 1.389 . S
C1429 H1456 0.930 . S
C1430 C1428 1.352 . S
C1430 C1432 1.374 . S
C1430 H1457 0.931 . S
C1431 C1432 1.359 . S
C1431 C1433 1.364 . S
C1432 C1430 1.374 . S
C1432 C1431 1.359 . S
C1432 H1458 0.931 . S
C1433 C1429 1.389 . S
C1433 C1431 1.364 . S
C1433 H1459 0.931 . S
C1434 O1448 1.256 . S
C1434 O1449 1.257 . S
C1435 O1450 1.240 . S
C1435 O1451 1.240 . S
C1436 Gd1425 2.818 . S
C1436 C1437 1.510 . S
C1436 O1452 1.249 . S
C1436 O1453 1.252 . S
C1437 C1436 1.510 . S
C1437 C1438 1.404 . S
C1437 C1439 1.352 . S
C1438 C1437 1.404 . S
C1438 C1442 1.389 . S
C1438 H1460 0.930 . S
C1439 C1437 1.352 . S
C1439 C1441 1.374 . S
C1439 H1461 0.931 . S
C1440 C1441 1.359 . S
C1440 C1442 1.364 . S
C1441 C1439 1.374 . S
C1441 C1440 1.359 . S
C1441 H1462 0.931 . S
C1442 C1438 1.389 . S
C1442 C1440 1.364 . S
C1442 H1463 0.931 . S
C1443 O1454 1.256 . S
C1443 O1455 1.257 . S
O1444 Gd1424 2.377 . S
O1444 C1426 1.240 . S
O1445 Gd1425 2.395 . S
O1445 C1426 1.240 . S
O1446 Gd1424 2.448 . S
O1446 C1427 1.249 . S
O1447 Gd1424 2.506 . S
O1447 C1427 1.252 . S
O1448 Gd1424 2.435 . S
O1448 C1434 1.256 . S
O1449 Gd1424 2.717 . S
O1449 Gd1425 2.327 . S
O1449 C1434 1.257 . S
O1450 Gd1425 2.377 . S
O1450 C1435 1.240 . S
O1451 Gd1424 2.395 . S
O1451 C1435 1.240 . S
O1452 Gd1425 2.448 . S
O1452 C1436 1.249 . S
O1453 Gd1425 2.506 . S
O1453 C1436 1.252 . S
O1454 Gd1425 2.435 . S
O1454 C1443 1.256 . S
O1455 Gd1424 2.327 . S
O1455 Gd1425 2.717 . S
O1455 C1443 1.257 . S
H1456 C1429 0.930 . S
H1457 C1430 0.931 . S
H1458 C1432 0.931 . S
H1459 C1433 0.931 . S
H1460 C1438 0.930 . S
H1461 C1439 0.931 . S
H1462 C1441 0.931 . S
H1463 C1442 0.931 . S
Gd1464 C1467 2.818 1_554 S
Gd1464 O1484 2.377 1_554 S
Gd1464 O1486 2.448 1_554 S
Gd1464 O1487 2.506 . S
Gd1464 O1488 2.435 1_554 S
Gd1464 O1489 2.717 1_554 S
Gd1464 O1491 2.395 . S
Gd1464 O1495 2.327 . S
Gd1465 C1476 2.818 1_455 S
Gd1465 O1485 2.395 . S
Gd1465 O1489 2.327 1_554 S
Gd1465 O1490 2.377 . S
Gd1465 O1492 2.448 . S
Gd1465 O1493 2.506 1_455 S
Gd1465 O1494 2.435 . S
Gd1465 O1495 2.717 . S
C1466 O1484 1.240 1_554 S
C1466 O1485 1.240 . S
C1467 Gd1464 2.818 1_556 S
C1467 C1468 1.510 . S
C1467 O1486 1.249 . S
C1467 O1487 1.252 1_556 S
C1468 C1467 1.510 . S
C1468 C1469 1.404 . S
C1468 C1470 1.352 1_556 S
C1469 C1468 1.404 . S
C1469 C1473 1.389 . S
C1469 H1496 0.930 . S
C1470 C1468 1.352 1_554 S
C1470 C1472 1.374 . S
C1470 H1497 0.931 . S
C1471 C1472 1.359 1_556 S
C1471 C1473 1.364 . S
C1472 C1470 1.374 . S
C1472 C1471 1.359 1_554 S
C1472 H1498 0.931 . S
C1473 C1469 1.389 . S
C1473 C1471 1.364 . S
C1473 H1499 0.931 . S
C1474 O1488 1.256 . S
C1474 O1489 1.257 . S
C1475 O1490 1.240 . S
C1475 O1491 1.240 . S
C1476 Gd1465 2.818 1_655 S
C1476 C1477 1.510 . S
C1476 O1492 1.249 1_655 S
C1476 O1493 1.252 . S
C1477 C1476 1.510 . S
C1477 C1478 1.404 . S
C1477 C1479 1.352 . S
C1478 C1477 1.404 . S
C1478 C1482 1.389 . S
C1478 H1500 0.930 . S
C1479 C1477 1.352 . S
C1479 C1481 1.374 . S
C1479 H1501 0.931 . S
C1480 C1481 1.359 . S
C1480 C1482 1.364 . S
C1481 C1479 1.374 . S
C1481 C1480 1.359 . S
C1481 H1502 0.931 . S
C1482 C1478 1.389 . S
C1482 C1480 1.364 . S
C1482 H1503 0.931 . S
C1483 O1494 1.256 . S
C1483 O1495 1.257 . S
O1484 Gd1464 2.377 1_556 S
O1484 C1466 1.240 1_556 S
O1485 Gd1465 2.395 . S
O1485 C1466 1.240 . S
O1486 Gd1464 2.448 1_556 S
O1486 C1467 1.249 . S
O1487 Gd1464 2.506 . S
O1487 C1467 1.252 1_554 S
O1488 Gd1464 2.435 1_556 S
O1488 C1474 1.256 . S
O1489 Gd1464 2.717 1_556 S
O1489 Gd1465 2.327 1_556 S
O1489 C1474 1.257 . S
O1490 Gd1465 2.377 . S
O1490 C1475 1.240 . S
O1491 Gd1464 2.395 . S
O1491 C1475 1.240 . S
O1492 Gd1465 2.448 . S
O1492 C1476 1.249 1_455 S
O1493 Gd1465 2.506 1_655 S
O1493 C1476 1.252 . S
O1494 Gd1465 2.435 . S
O1494 C1483 1.256 . S
O1495 Gd1464 2.327 . S
O1495 Gd1465 2.717 . S
O1495 C1483 1.257 . S
H1496 C1469 0.930 . S
H1497 C1470 0.931 . S
H1498 C1472 0.931 . S
H1499 C1473 0.931 . S
H1500 C1478 0.930 . S
H1501 C1479 0.931 . S
H1502 C1481 0.931 . S
H1503 C1482 0.931 . S
C1504 C1505 1.363 1_554 S
C1504 C1510 1.379 . S
C1504 N1512 1.356 . S
C1505 C1504 1.363 1_556 S
C1505 C1511 1.363 . S
C1506 C1507 1.363 . S
C1506 C1511 1.379 . S
C1506 N1513 1.356 . S
C1507 C1506 1.363 . S
C1507 C1510 1.363 1_556 S
N1508 C1510 1.356 . S
N1508 H1520 0.984 . S
N1508 H1521 0.985 . S
N1509 C1511 1.356 . S
N1509 H1514 0.984 . S
N1509 H1515 0.985 . S
C1510 C1504 1.379 . S
C1510 C1507 1.363 1_554 S
C1510 N1508 1.356 . S
C1511 C1505 1.363 . S
C1511 C1506 1.379 . S
C1511 N1509 1.356 . S
N1512 C1504 1.356 . S
N1512 H1518 0.984 . S
N1512 H1519 0.982 . S
N1513 C1506 1.356 . S
N1513 H1516 0.984 . S
N1513 H1517 0.985 . S
H1514 N1509 0.984 . S
H1515 N1509 0.985 . S
H1516 N1513 0.984 . S
H1517 N1513 0.985 . S
H1518 N1512 0.984 . S
H1519 N1512 0.982 . S
H1520 N1508 0.984 . S
H1521 N1508 0.985 . S
C1522 C1523 1.363 . S
C1522 C1528 1.379 . S
C1522 N1530 1.356 . S
C1523 C1522 1.363 . S
C1523 C1529 1.363 . S
C1524 C1525 1.363 . S
C1524 C1529 1.379 . S
C1524 N1531 1.356 . S
C1525 C1524 1.363 . S
C1525 C1528 1.363 . S
N1526 C1528 1.356 . S
N1526 H1538 0.984 . S
N1526 H1539 0.985 . S
N1527 C1529 1.356 . S
N1527 H1532 0.984 . S
N1527 H1533 0.985 . S
C1528 C1522 1.379 . S
C1528 C1525 1.363 . S
C1528 N1526 1.356 . S
C1529 C1523 1.363 . S
C1529 C1524 1.379 . S
C1529 N1527 1.356 . S
N1530 C1522 1.356 . S
N1530 H1536 0.984 . S
N1530 H1537 0.984 . S
N1531 C1524 1.356 . S
N1531 H1534 0.984 . S
N1531 H1535 0.985 . S
H1532 N1527 0.984 . S
H1533 N1527 0.985 . S
H1534 N1531 0.984 . S
H1535 N1531 0.985 . S
H1536 N1530 0.984 . S
H1537 N1530 0.984 . S
H1538 N1526 0.984 . S
H1539 N1526 0.985 . S
C1540 C1541 1.363 . S
C1540 C1546 1.379 . S
C1540 N1548 1.356 . S
C1541 C1540 1.363 . S
C1541 C1547 1.363 . S
C1542 C1543 1.363 . S
C1542 C1547 1.379 . S
C1542 N1549 1.356 . S
C1543 C1542 1.363 . S
C1543 C1546 1.363 . S
N1544 C1546 1.356 . S
N1544 H1556 0.984 . S
N1544 H1557 0.985 . S
N1545 C1547 1.356 . S
N1545 H1550 0.984 . S
N1545 H1551 0.985 . S
C1546 C1540 1.379 . S
C1546 C1543 1.363 . S
C1546 N1544 1.356 . S
C1547 C1541 1.363 . S
C1547 C1542 1.379 . S
C1547 N1545 1.356 . S
N1548 C1540 1.356 . S
N1548 H1554 0.984 . S
N1548 H1555 0.984 . S
N1549 C1542 1.356 . S
N1549 H1552 0.984 . S
N1549 H1553 0.985 . S
H1550 N1545 0.984 . S
H1551 N1545 0.985 . S
H1552 N1549 0.984 . S
H1553 N1549 0.985 . S
H1554 N1548 0.984 . S
H1555 N1548 0.984 . S
H1556 N1544 0.984 . S
H1557 N1544 0.985 . S
C1558 C1559 1.363 . S
C1558 C1564 1.379 . S
C1558 N1566 1.356 . S
C1559 C1558 1.363 . S
C1559 C1565 1.363 . S
C1560 C1561 1.363 . S
C1560 C1565 1.379 . S
C1560 N1567 1.356 . S
C1561 C1560 1.363 . S
C1561 C1564 1.363 . S
N1562 C1564 1.356 . S
N1562 H1574 0.984 . S
N1562 H1575 0.985 . S
N1563 C1565 1.356 . S
N1563 H1568 0.984 . S
N1563 H1569 0.985 . S
C1564 C1558 1.379 . S
C1564 C1561 1.363 . S
C1564 N1562 1.356 . S
C1565 C1559 1.363 . S
C1565 C1560 1.379 . S
C1565 N1563 1.356 . S
N1566 C1558 1.356 . S
N1566 H1572 0.984 . S
N1566 H1573 0.984 . S
N1567 C1560 1.356 . S
N1567 H1570 0.984 . S
N1567 H1571 0.985 . S
H1568 N1563 0.984 . S
H1569 N1563 0.985 . S
H1570 N1567 0.984 . S
H1571 N1567 0.985 . S
H1572 N1566 0.984 . S
H1573 N1566 0.984 . S
H1574 N1562 0.984 . S
H1575 N1562 0.985 . S
C1576 C1577 1.363 . S
C1576 C1582 1.379 . S
C1576 N1584 1.356 . S
C1577 C1576 1.363 . S
C1577 C1583 1.363 . S
C1578 C1579 1.363 . S
C1578 C1583 1.379 . S
C1578 N1585 1.356 . S
C1579 C1578 1.363 . S
C1579 C1582 1.363 . S
N1580 C1582 1.356 . S
N1580 H1592 0.984 . S
N1580 H1593 0.985 . S
N1581 C1583 1.356 . S
N1581 H1586 0.984 . S
N1581 H1587 0.985 . S
C1582 C1576 1.379 . S
C1582 C1579 1.363 . S
C1582 N1580 1.356 . S
C1583 C1577 1.363 . S
C1583 C1578 1.379 . S
C1583 N1581 1.356 . S
N1584 C1576 1.356 . S
N1584 H1590 0.984 . S
N1584 H1591 0.984 1_455 S
N1585 C1578 1.356 . S
N1585 H1588 0.984 . S
N1585 H1589 0.985 . S
H1586 N1581 0.984 . S
H1587 N1581 0.985 . S
H1588 N1585 0.984 . S
H1589 N1585 0.985 . S
H1590 N1584 0.984 . S
H1591 N1584 0.984 1_655 S
H1592 N1580 0.984 . S
H1593 N1580 0.985 . S
C1594 C1595 1.363 . S
C1594 C1600 1.379 . S
C1594 N1602 1.356 . S
C1595 C1594 1.363 . S
C1595 C1601 1.363 . S
C1596 C1597 1.363 . S
C1596 C1601 1.379 . S
C1596 N1603 1.356 . S
C1597 C1596 1.363 . S
C1597 C1600 1.363 . S
N1598 C1600 1.356 . S
N1598 H1610 0.984 . S
N1598 H1611 0.985 . S
N1599 C1601 1.356 . S
N1599 H1604 0.984 . S
N1599 H1605 0.985 . S
C1600 C1594 1.379 . S
C1600 C1597 1.363 . S
C1600 N1598 1.356 . S
C1601 C1595 1.363 . S
C1601 C1596 1.379 . S
C1601 N1599 1.356 . S
N1602 C1594 1.356 . S
N1602 H1608 0.984 . S
N1602 H1609 0.984 . S
N1603 C1596 1.356 . S
N1603 H1606 0.984 . S
N1603 H1607 0.985 . S
H1604 N1599 0.984 . S
H1605 N1599 0.985 . S
H1606 N1603 0.984 . S
H1607 N1603 0.985 . S
H1608 N1602 0.984 . S
H1609 N1602 0.984 . S
H1610 N1598 0.984 . S
H1611 N1598 0.985 . S
C1612 C1613 1.363 . S
C1612 C1618 1.379 . S
C1612 N1620 1.356 . S
C1613 C1612 1.363 . S
C1613 C1619 1.363 . S
C1614 C1615 1.363 . S
C1614 C1619 1.379 . S
C1614 N1621 1.356 . S
C1615 C1614 1.363 . S
C1615 C1618 1.363 . S
N1616 C1618 1.356 . S
N1616 H1628 0.997 . S
N1616 H1629 0.985 . S
N1617 C1619 1.356 . S
N1617 H1622 0.984 . S
N1617 H1623 0.985 . S
C1618 C1612 1.379 . S
C1618 C1615 1.363 . S
C1618 N1616 1.356 . S
C1619 C1613 1.363 . S
C1619 C1614 1.379 . S
C1619 N1617 1.356 . S
N1620 C1612 1.356 . S
N1620 H1626 0.984 . S
N1620 H1627 0.984 . S
N1621 C1614 1.356 . S
N1621 H1624 0.984 . S
N1621 H1625 0.985 . S
H1622 N1617 0.984 . S
H1623 N1617 0.985 . S
H1624 N1621 0.984 . S
H1625 N1621 0.985 . S
H1626 N1620 0.984 . S
H1627 N1620 0.984 . S
H1628 N1616 0.997 . S
H1629 N1616 0.985 . S
C1630 C1631 1.363 . S
C1630 C1636 1.379 . S
C1630 N1638 1.356 . S
C1631 C1630 1.363 . S
C1631 C1637 1.363 . S
C1632 C1633 1.363 . S
C1632 C1637 1.379 . S
C1632 N1639 1.356 . S
C1633 C1632 1.363 . S
C1633 C1636 1.363 . S
N1634 C1636 1.356 . S
N1634 H1646 0.984 . S
N1634 H1647 0.985 . S
N1635 C1637 1.356 . S
N1635 H1640 0.984 . S
N1635 H1641 0.985 . S
C1636 C1630 1.379 . S
C1636 C1633 1.363 . S
C1636 N1634 1.356 . S
C1637 C1631 1.363 . S
C1637 C1632 1.379 . S
C1637 N1635 1.356 . S
N1638 C1630 1.356 . S
N1638 H1644 0.984 . S
N1638 H1645 0.984 . S
N1639 C1632 1.356 . S
N1639 H1642 0.984 . S
N1639 H1643 0.985 . S
H1640 N1635 0.984 . S
H1641 N1635 0.985 . S
H1642 N1639 0.984 . S
H1643 N1639 0.985 . S
H1644 N1638 0.984 . S
H1645 N1638 0.984 . S
H1646 N1634 0.984 . S
H1647 N1634 0.985 . S
C1648 C1649 1.363 . S
C1648 C1654 1.379 . S
C1648 N1656 1.356 . S
C1649 C1648 1.363 . S
C1649 C1655 1.363 . S
C1650 C1651 1.363 . S
C1650 C1655 1.379 . S
C1650 N1657 1.356 . S
C1651 C1650 1.363 . S
C1651 C1654 1.363 . S
N1652 C1654 1.356 . S
N1652 H1664 0.984 . S
N1652 H1665 0.985 . S
N1653 C1655 1.356 1_655 S
N1653 H1658 0.984 . S
N1653 H1659 0.985 . S
C1654 C1648 1.379 . S
C1654 C1651 1.363 . S
C1654 N1652 1.356 . S
C1655 C1649 1.363 . S
C1655 C1650 1.379 . S
C1655 N1653 1.356 1_455 S
N1656 C1648 1.356 . S
N1656 H1662 0.984 . S
N1656 H1663 0.984 . S
N1657 C1650 1.356 . S
N1657 H1660 0.984 . S
N1657 H1661 0.985 . S
H1658 N1653 0.984 . S
H1659 N1653 0.985 . S
H1660 N1657 0.984 . S
H1661 N1657 0.985 . S
H1662 N1656 0.984 . S
H1663 N1656 0.984 . S
H1664 N1652 0.984 . S
H1665 N1652 0.985 . S
C1666 C1667 1.363 . S
C1666 C1672 1.379 . S
C1666 N1674 1.356 . S
C1667 C1666 1.363 . S
C1667 C1673 1.363 . S
C1668 C1669 1.363 . S
C1668 C1673 1.379 . S
C1668 N1675 1.356 . S
C1669 C1668 1.363 . S
C1669 C1672 1.363 . S
N1670 C1672 1.356 . S
N1670 H1682 0.984 . S
N1670 H1683 0.985 . S
N1671 C1673 1.356 . S
N1671 H1676 0.984 . S
N1671 H1677 0.985 . S
C1672 C1666 1.379 . S
C1672 C1669 1.363 . S
C1672 N1670 1.356 . S
C1673 C1667 1.363 . S
C1673 C1668 1.379 . S
C1673 N1671 1.356 . S
N1674 C1666 1.356 . S
N1674 H1680 0.984 . S
N1674 H1681 0.984 . S
N1675 C1668 1.356 . S
N1675 H1678 0.984 . S
N1675 H1679 0.985 . S
H1676 N1671 0.984 . S
H1677 N1671 0.985 . S
H1678 N1675 0.984 . S
H1679 N1675 0.985 . S
H1680 N1674 0.984 . S
H1681 N1674 0.984 . S
H1682 N1670 0.984 . S
H1683 N1670 0.985 . S
C1684 C1685 1.363 . S
C1684 C1690 1.379 . S
C1684 N1692 1.356 . S
C1685 C1684 1.363 . S
C1685 C1691 1.363 . S
C1686 C1687 1.363 . S
C1686 C1691 1.379 . S
C1686 N1693 1.356 . S
C1687 C1686 1.363 . S
C1687 C1690 1.363 . S
N1688 C1690 1.356 . S
N1688 H1700 0.984 . S
N1688 H1701 0.985 . S
N1689 C1691 1.356 . S
N1689 H1694 0.984 . S
N1689 H1695 0.985 . S
C1690 C1684 1.379 . S
C1690 C1687 1.363 . S
C1690 N1688 1.356 . S
C1691 C1685 1.363 . S
C1691 C1686 1.379 . S
C1691 N1689 1.356 . S
N1692 C1684 1.356 . S
N1692 H1698 0.984 . S
N1692 H1699 0.984 . S
N1693 C1686 1.356 . S
N1693 H1696 0.984 . S
N1693 H1697 0.995 . S
H1694 N1689 0.984 . S
H1695 N1689 0.985 . S
H1696 N1693 0.984 . S
H1697 N1693 0.995 . S
H1698 N1692 0.984 . S
H1699 N1692 0.984 . S
H1700 N1688 0.984 . S
H1701 N1688 0.985 . S
C1702 C1703 1.363 . S
C1702 C1708 1.379 . S
C1702 N1710 1.356 . S
C1703 C1702 1.363 . S
C1703 C1709 1.363 . S
C1704 C1705 1.363 . S
C1704 C1709 1.379 . S
C1704 N1711 1.356 . S
C1705 C1704 1.363 . S
C1705 C1708 1.363 . S
N1706 C1708 1.356 . S
N1706 H1718 0.984 . S
N1706 H1719 0.985 . S
N1707 C1709 1.356 . S
N1707 H1712 0.984 . S
N1707 H1713 0.985 . S
C1708 C1702 1.379 . S
C1708 C1705 1.363 . S
C1708 N1706 1.356 . S
C1709 C1703 1.363 . S
C1709 C1704 1.379 . S
C1709 N1707 1.356 . S
N1710 C1702 1.356 . S
N1710 H1716 0.984 . S
N1710 H1717 0.984 . S
N1711 C1704 1.356 . S
N1711 H1714 0.984 . S
N1711 H1715 0.985 . S
H1712 N1707 0.984 . S
H1713 N1707 0.985 . S
H1714 N1711 0.984 . S
H1715 N1711 0.985 . S
H1716 N1710 0.984 . S
H1717 N1710 0.984 . S
H1718 N1706 0.984 . S
H1719 N1706 0.985 . S
C1720 C1721 1.363 . S
C1720 C1726 1.379 . S
C1720 N1728 1.356 . S
C1721 C1720 1.363 . S
C1721 C1727 1.363 1_455 S
C1722 C1723 1.363 . S
C1722 C1727 1.379 1_455 S
C1722 N1729 1.356 . S
C1723 C1722 1.363 . S
C1723 C1726 1.363 . S
N1724 C1726 1.356 . S
N1724 H1736 0.984 . S
N1724 H1737 0.985 . S
N1725 C1727 1.356 . S
N1725 H1730 0.984 . S
N1725 H1731 0.985 . S
C1726 C1720 1.379 . S
C1726 C1723 1.363 . S
C1726 N1724 1.356 . S
C1727 C1721 1.363 1_655 S
C1727 C1722 1.379 1_655 S
C1727 N1725 1.356 . S
N1728 C1720 1.356 . S
N1728 H1734 0.984 . S
N1728 H1735 0.984 . S
N1729 C1722 1.356 . S
N1729 H1732 0.984 . S
N1729 H1733 1.001 1_455 S
H1730 N1725 0.984 . S
H1731 N1725 0.985 . S
H1732 N1729 0.984 . S
H1733 N1729 1.001 1_655 S
H1734 N1728 0.984 . S
H1735 N1728 0.984 . S
H1736 N1724 0.984 . S
H1737 N1724 0.985 . S
C1738 C1739 1.363 . S
C1738 C1744 1.379 . S
C1738 N1746 1.356 . S
C1739 C1738 1.363 . S
C1739 C1745 1.363 . S
C1740 C1741 1.363 . S
C1740 C1745 1.379 . S
C1740 N1747 1.356 . S
C1741 C1740 1.363 . S
C1741 C1744 1.363 . S
N1742 C1744 1.356 . S
N1742 H1754 0.984 . S
N1742 H1755 0.985 . S
N1743 C1745 1.356 . S
N1743 H1748 0.984 . S
N1743 H1749 0.985 . S
C1744 C1738 1.379 . S
C1744 C1741 1.363 . S
C1744 N1742 1.356 . S
C1745 C1739 1.363 . S
C1745 C1740 1.379 . S
C1745 N1743 1.356 . S
N1746 C1738 1.356 . S
N1746 H1752 0.984 . S
N1746 H1753 0.984 . S
N1747 C1740 1.356 . S
N1747 H1750 0.984 . S
N1747 H1751 0.985 . S
H1748 N1743 0.984 . S
H1749 N1743 0.985 . S
H1750 N1747 0.984 . S
H1751 N1747 0.985 . S
H1752 N1746 0.984 . S
H1753 N1746 0.984 . S
H1754 N1742 0.984 . S
H1755 N1742 0.985 . S
C1756 C1757 1.363 . S
C1756 C1762 1.379 . S
C1756 N1764 1.356 . S
C1757 C1756 1.363 . S
C1757 C1763 1.363 . S
C1758 C1759 1.363 . S
C1758 C1763 1.379 . S
C1758 N1765 1.356 . S
C1759 C1758 1.363 . S
C1759 C1762 1.363 . S
N1760 C1762 1.356 . S
N1760 H1772 0.984 . S
N1760 H1773 0.985 . S
N1761 C1763 1.356 . S
N1761 H1766 0.984 . S
N1761 H1767 0.985 . S
C1762 C1756 1.379 . S
C1762 C1759 1.363 . S
C1762 N1760 1.356 . S
C1763 C1757 1.363 . S
C1763 C1758 1.379 . S
C1763 N1761 1.356 . S
N1764 C1756 1.356 . S
N1764 H1770 0.984 . S
N1764 H1771 0.984 . S
N1765 C1758 1.356 . S
N1765 H1768 0.984 . S
N1765 H1769 0.985 . S
H1766 N1761 0.984 . S
H1767 N1761 0.985 . S
H1768 N1765 0.984 . S
H1769 N1765 0.985 . S
H1770 N1764 0.984 . S
H1771 N1764 0.984 . S
H1772 N1760 0.984 . S
H1773 N1760 0.985 . S
C1774 C1775 1.363 . S
C1774 C1780 1.379 . S
C1774 N1782 1.356 . S
C1775 C1774 1.363 . S
C1775 C1781 1.363 . S
C1776 C1777 1.363 . S
C1776 C1781 1.379 . S
C1776 N1783 1.356 . S
C1777 C1776 1.363 . S
C1777 C1780 1.363 . S
N1778 C1780 1.356 . S
N1778 H1790 0.984 . S
N1778 H1791 0.985 . S
N1779 C1781 1.356 . S
N1779 H1784 0.984 . S
N1779 H1785 0.985 . S
C1780 C1774 1.379 . S
C1780 C1777 1.363 . S
C1780 N1778 1.356 . S
C1781 C1775 1.363 . S
C1781 C1776 1.379 . S
C1781 N1779 1.356 . S
N1782 C1774 1.356 . S
N1782 H1788 0.984 . S
N1782 H1789 0.984 . S
N1783 C1776 1.356 . S
N1783 H1786 0.984 . S
N1783 H1787 0.985 . S
H1784 N1779 0.984 . S
H1785 N1779 0.985 . S
H1786 N1783 0.984 . S
H1787 N1783 0.985 . S
H1788 N1782 0.984 . S
H1789 N1782 0.984 . S
H1790 N1778 0.984 . S
H1791 N1778 0.985 . S
C1792 C1793 1.363 1_545 S
C1792 C1798 1.379 . S
C1792 N1800 1.356 . S
C1793 C1792 1.363 1_565 S
C1793 C1799 1.363 . S
C1794 C1795 1.363 . S
C1794 C1799 1.379 . S
C1794 N1801 1.356 . S
C1795 C1794 1.363 . S
C1795 C1798 1.363 1_565 S
N1796 C1798 1.356 . S
N1796 H1808 0.984 . S
N1796 H1809 0.985 . S
N1797 C1799 1.356 . S
N1797 H1802 0.984 . S
N1797 H1803 0.985 . S
C1798 C1792 1.379 . S
C1798 C1795 1.363 1_545 S
C1798 N1796 1.356 . S
C1799 C1793 1.363 . S
C1799 C1794 1.379 . S
C1799 N1797 1.356 . S
N1800 C1792 1.356 . S
N1800 H1806 0.984 . S
N1800 H1807 0.984 1_554 S
N1801 C1794 1.356 . S
N1801 H1804 0.984 . S
N1801 H1805 0.985 . S
H1802 N1797 0.984 . S
H1803 N1797 0.985 . S
H1804 N1801 0.984 . S
H1805 N1801 0.985 . S
H1806 N1800 0.984 . S
H1807 N1800 0.984 1_556 S
H1808 N1796 0.984 . S
H1809 N1796 0.985 . S
C1810 C1811 1.363 . S
C1810 C1816 1.379 . S
C1810 N1818 1.356 . S
C1811 C1810 1.363 . S
C1811 C1817 1.362 1_556 S
C1812 C1813 1.363 . S
C1812 C1817 1.379 . S
C1812 N1819 1.356 . S
C1813 C1812 1.363 . S
C1813 C1816 1.363 1_554 S
N1814 C1816 1.356 . S
N1814 H1826 0.984 . S
N1814 H1827 0.985 . S
N1815 C1817 1.356 . S
N1815 H1820 0.984 . S
N1815 H1821 0.985 . S
C1816 C1810 1.379 . S
C1816 C1813 1.363 1_556 S
C1816 N1814 1.356 . S
C1817 C1811 1.362 1_554 S
C1817 C1812 1.379 . S
C1817 N1815 1.356 . S
N1818 C1810 1.356 . S
N1818 H1824 0.984 . S
N1818 H1825 0.984 . S
N1819 C1812 1.356 . S
N1819 H1822 0.984 . S
N1819 H1823 0.985 . S
H1820 N1815 0.984 . S
H1821 N1815 0.985 . S
H1822 N1819 0.984 . S
H1823 N1819 0.985 . S
H1824 N1818 0.984 . S
H1825 N1818 0.984 . S
H1826 N1814 0.984 . S
H1827 N1814 0.985 . S
C1828 C1829 1.363 . S
C1828 C1834 1.379 . S
C1828 N1836 1.356 . S
C1829 C1828 1.363 . S
C1829 C1835 1.363 . S
C1830 C1831 1.363 . S
C1830 C1835 1.379 . S
C1830 N1837 1.356 . S
C1831 C1830 1.363 . S
C1831 C1834 1.363 . S
N1832 C1834 1.356 . S
N1832 H1844 0.984 . S
N1832 H1845 0.985 . S
N1833 C1835 1.356 . S
N1833 H1838 0.984 . S
N1833 H1839 0.985 . S
C1834 C1828 1.379 . S
C1834 C1831 1.363 . S
C1834 N1832 1.356 . S
C1835 C1829 1.363 . S
C1835 C1830 1.379 . S
C1835 N1833 1.356 . S
N1836 C1828 1.356 . S
N1836 H1842 0.984 . S
N1836 H1843 0.984 . S
N1837 C1830 1.356 . S
N1837 H1840 0.984 . S
N1837 H1841 0.985 . S
H1838 N1833 0.984 . S
H1839 N1833 0.985 . S
H1840 N1837 0.984 . S
H1841 N1837 0.985 . S
H1842 N1836 0.984 . S
H1843 N1836 0.984 . S
H1844 N1832 0.984 . S
H1845 N1832 0.985 . S
C1846 C1847 1.363 . S
C1846 C1852 1.379 . S
C1846 N1854 1.356 . S
C1847 C1846 1.363 . S
C1847 C1853 1.363 . S
C1848 C1849 1.363 . S
C1848 C1853 1.379 . S
C1848 N1855 1.356 1_655 S
C1849 C1848 1.363 . S
C1849 C1852 1.363 . S
N1850 C1852 1.356 . S
N1850 H1862 0.984 . S
N1850 H1863 0.985 1_655 S
N1851 C1853 1.356 . S
N1851 H1856 0.984 . S
N1851 H1857 0.985 . S
C1852 C1846 1.379 . S
C1852 C1849 1.363 . S
C1852 N1850 1.356 . S
C1853 C1847 1.363 . S
C1853 C1848 1.379 . S
C1853 N1851 1.356 . S
N1854 C1846 1.356 . S
N1854 H1860 0.984 . S
N1854 H1861 0.984 . S
N1855 C1848 1.356 1_455 S
N1855 H1858 0.984 . S
N1855 H1859 0.985 . S
H1856 N1851 0.984 . S
H1857 N1851 0.985 . S
H1858 N1855 0.984 . S
H1859 N1855 0.985 . S
H1860 N1854 0.984 . S
H1861 N1854 0.984 . S
H1862 N1850 0.984 . S
H1863 N1850 0.985 1_455 S
C1864 C1865 1.363 . S
C1864 C1870 1.379 . S
C1864 N1872 1.356 . S
C1865 C1864 1.363 . S
C1865 C1871 1.363 . S
C1866 C1867 1.363 . S
C1866 C1871 1.379 . S
C1866 N1873 1.356 . S
C1867 C1866 1.363 . S
C1867 C1870 1.363 . S
N1868 C1870 1.356 . S
N1868 H1880 0.984 . S
N1868 H1881 0.985 . S
N1869 C1871 1.356 . S
N1869 H1874 0.984 . S
N1869 H1875 0.985 . S
C1870 C1864 1.379 . S
C1870 C1867 1.363 . S
C1870 N1868 1.356 . S
C1871 C1865 1.363 . S
C1871 C1866 1.379 . S
C1871 N1869 1.356 . S
N1872 C1864 1.356 . S
N1872 H1878 0.984 . S
N1872 H1879 0.984 . S
N1873 C1866 1.356 . S
N1873 H1876 0.984 . S
N1873 H1877 0.985 . S
H1874 N1869 0.984 . S
H1875 N1869 0.985 . S
H1876 N1873 0.984 . S
H1877 N1873 0.985 . S
H1878 N1872 0.984 . S
H1879 N1872 0.984 . S
H1880 N1868 0.984 . S
H1881 N1868 0.985 . S
C1882 C1883 1.363 . S
C1882 C1888 1.379 . S
C1882 N1890 1.356 . S
C1883 C1882 1.363 . S
C1883 C1889 1.363 . S
C1884 C1885 1.363 . S
C1884 C1889 1.379 . S
C1884 N1891 1.356 . S
C1885 C1884 1.363 . S
C1885 C1888 1.363 . S
N1886 C1888 1.356 . S
N1886 H1898 0.984 . S
N1886 H1899 0.985 . S
N1887 C1889 1.356 . S
N1887 H1892 0.984 . S
N1887 H1893 0.985 . S
C1888 C1882 1.379 . S
C1888 C1885 1.363 . S
C1888 N1886 1.356 . S
C1889 C1883 1.363 . S
C1889 C1884 1.379 . S
C1889 N1887 1.356 . S
N1890 C1882 1.356 . S
N1890 H1896 0.984 . S
N1890 H1897 0.984 . S
N1891 C1884 1.356 . S
N1891 H1894 0.984 . S
N1891 H1895 0.985 . S
H1892 N1887 0.984 . S
H1893 N1887 0.985 . S
H1894 N1891 0.984 . S
H1895 N1891 0.985 . S
H1896 N1890 0.984 . S
H1897 N1890 0.984 . S
H1898 N1886 0.984 . S
H1899 N1886 0.985 . S
C1900 C1901 1.363 . S
C1900 C1906 1.379 . S
C1900 N1908 1.356 . S
C1901 C1900 1.363 . S
C1901 C1907 1.363 . S
C1902 C1903 1.363 . S
C1902 C1907 1.379 . S
C1902 N1909 1.356 . S
C1903 C1902 1.363 . S
C1903 C1906 1.363 . S
N1904 C1906 1.356 . S
N1904 H1916 0.984 . S
N1904 H1917 0.985 . S
N1905 C1907 1.356 . S
N1905 H1910 0.984 . S
N1905 H1911 0.985 . S
C1906 C1900 1.379 . S
C1906 C1903 1.363 . S
C1906 N1904 1.356 . S
C1907 C1901 1.363 . S
C1907 C1902 1.379 . S
C1907 N1905 1.356 . S
N1908 C1900 1.356 . S
N1908 H1914 0.984 . S
N1908 H1915 0.984 . S
N1909 C1902 1.356 . S
N1909 H1912 0.984 . S
N1909 H1913 0.985 . S
H1910 N1905 0.984 . S
H1911 N1905 0.985 . S
H1912 N1909 0.984 . S
H1913 N1909 0.985 . S
H1914 N1908 0.984 . S
H1915 N1908 0.984 . S
H1916 N1904 0.984 . S
H1917 N1904 0.985 . S
C1918 C1919 1.363 . S
C1918 C1924 1.379 . S
C1918 N1926 1.356 . S
C1919 C1918 1.363 . S
C1919 C1925 1.363 . S
C1920 C1921 1.363 . S
C1920 C1925 1.379 . S
C1920 N1927 1.356 . S
C1921 C1920 1.363 . S
C1921 C1924 1.363 . S
N1922 C1924 1.356 . S
N1922 H1934 0.984 . S
N1922 H1935 0.985 . S
N1923 C1925 1.356 . S
N1923 H1928 0.984 . S
N1923 H1929 0.985 . S
C1924 C1918 1.379 . S
C1924 C1921 1.363 . S
C1924 N1922 1.356 . S
C1925 C1919 1.363 . S
C1925 C1920 1.379 . S
C1925 N1923 1.356 . S
N1926 C1918 1.356 . S
N1926 H1932 0.984 . S
N1926 H1933 0.984 . S
N1927 C1920 1.356 . S
N1927 H1930 0.984 . S
N1927 H1931 0.985 . S
H1928 N1923 0.984 . S
H1929 N1923 0.985 . S
H1930 N1927 0.984 . S
H1931 N1927 0.985 . S
H1932 N1926 0.984 . S
H1933 N1926 0.984 . S
H1934 N1922 0.984 . S
H1935 N1922 0.985 . S
C1936 C1937 1.363 . S
C1936 C1942 1.379 . S
C1936 N1944 1.356 . S
C1937 C1936 1.363 . S
C1937 C1943 1.363 . S
C1938 C1939 1.363 . S
C1938 C1943 1.379 . S
C1938 N1945 1.356 1_554 S
C1939 C1938 1.363 . S
C1939 C1942 1.363 . S
N1940 C1942 1.356 . S
N1940 H1952 0.984 . S
N1940 H1953 0.985 . S
N1941 C1943 1.356 . S
N1941 H1946 0.984 . S
N1941 H1947 0.985 . S
C1942 C1936 1.379 . S
C1942 C1939 1.363 . S
C1942 N1940 1.356 . S
C1943 C1937 1.363 . S
C1943 C1938 1.379 . S
C1943 N1941 1.356 . S
N1944 C1936 1.356 . S
N1944 H1950 0.984 . S
N1944 H1951 0.984 . S
N1945 C1938 1.356 1_556 S
N1945 H1948 0.984 . S
N1945 H1949 0.985 . S
H1946 N1941 0.984 . S
H1947 N1941 0.985 . S
H1948 N1945 0.984 . S
H1949 N1945 0.985 . S
H1950 N1944 0.984 . S
H1951 N1944 0.984 . S
H1952 N1940 0.984 . S
H1953 N1940 0.985 . S
C1954 C1955 1.363 . S
C1954 C1960 1.379 . S
C1954 N1962 1.356 . S
C1955 C1954 1.363 . S
C1955 C1961 1.363 . S
C1956 C1957 1.363 . S
C1956 C1961 1.379 . S
C1956 N1963 1.356 . S
C1957 C1956 1.363 . S
C1957 C1960 1.363 . S
N1958 C1960 1.356 . S
N1958 H1970 0.984 . S
N1958 H1971 0.985 . S
N1959 C1961 1.356 . S
N1959 H1964 0.984 . S
N1959 H1965 0.985 . S
C1960 C1954 1.379 . S
C1960 C1957 1.363 . S
C1960 N1958 1.356 . S
C1961 C1955 1.363 . S
C1961 C1956 1.379 . S
C1961 N1959 1.356 . S
N1962 C1954 1.356 . S
N1962 H1968 0.984 . S
N1962 H1969 0.984 . S
N1963 C1956 1.356 . S
N1963 H1966 0.984 . S
N1963 H1967 0.985 . S
H1964 N1959 0.984 . S
H1965 N1959 0.985 . S
H1966 N1963 0.984 . S
H1967 N1963 0.985 . S
H1968 N1962 0.984 . S
H1969 N1962 0.984 . S
H1970 N1958 0.984 . S
H1971 N1958 0.985 . S
C1972 C1973 1.363 . S
C1972 C1978 1.379 . S
C1972 N1980 1.356 . S
C1973 C1972 1.363 . S
C1973 C1979 1.363 . S
C1974 C1975 1.363 . S
C1974 C1979 1.379 . S
C1974 N1981 1.356 . S
C1975 C1974 1.363 . S
C1975 C1978 1.363 . S
N1976 C1978 1.356 . S
N1976 H1988 0.984 . S
N1976 H1989 0.985 . S
N1977 C1979 1.356 . S
N1977 H1982 0.984 . S
N1977 H1983 0.985 . S
C1978 C1972 1.379 . S
C1978 C1975 1.363 . S
C1978 N1976 1.356 . S
C1979 C1973 1.363 . S
C1979 C1974 1.379 . S
C1979 N1977 1.356 . S
N1980 C1972 1.356 . S
N1980 H1986 0.984 . S
N1980 H1987 0.984 . S
N1981 C1974 1.356 . S
N1981 H1984 0.984 . S
N1981 H1985 0.985 . S
H1982 N1977 0.984 . S
H1983 N1977 0.985 . S
H1984 N1981 0.984 . S
H1985 N1981 0.985 . S
H1986 N1980 0.984 . S
H1987 N1980 0.984 . S
H1988 N1976 0.984 . S
H1989 N1976 0.985 . S
C1990 C1991 1.363 . S
C1990 C1996 1.379 . S
C1990 N1998 1.356 . S
C1991 C1990 1.363 . S
C1991 C1997 1.363 . S
C1992 C1993 1.363 . S
C1992 C1997 1.379 . S
C1992 N1999 1.356 . S
C1993 C1992 1.363 . S
C1993 C1996 1.363 . S
N1994 C1996 1.356 . S
N1994 H2006 0.984 . S
N1994 H2007 0.985 . S
N1995 C1997 1.356 . S
N1995 H2000 0.984 . S
N1995 H2001 0.985 . S
C1996 C1990 1.379 . S
C1996 C1993 1.363 . S
C1996 N1994 1.356 . S
C1997 C1991 1.363 . S
C1997 C1992 1.379 . S
C1997 N1995 1.356 . S
N1998 C1990 1.356 . S
N1998 H2004 0.984 . S
N1998 H2005 0.984 . S
N1999 C1992 1.356 . S
N1999 H2002 0.984 . S
N1999 H2003 0.985 . S
H2000 N1995 0.984 . S
H2001 N1995 0.985 . S
H2002 N1999 0.984 . S
H2003 N1999 0.985 . S
H2004 N1998 0.984 . S
H2005 N1998 0.984 . S
H2006 N1994 0.984 . S
H2007 N1994 0.985 . S
C2008 C2009 1.363 . S
C2008 C2014 1.379 . S
C2008 N2016 1.356 . S
C2009 C2008 1.363 . S
C2009 C2015 1.363 . S
C2010 C2011 1.363 . S
C2010 C2015 1.379 . S
C2010 N2017 1.356 . S
C2011 C2010 1.363 . S
C2011 C2014 1.363 . S
N2012 C2014 1.356 . S
N2012 H2024 0.984 . S
N2012 H2025 0.985 . S
N2013 C2015 1.356 . S
N2013 H2018 0.984 . S
N2013 H2019 0.985 . S
C2014 C2008 1.379 . S
C2014 C2011 1.363 . S
C2014 N2012 1.356 . S
C2015 C2009 1.363 . S
C2015 C2010 1.379 . S
C2015 N2013 1.356 . S
N2016 C2008 1.356 . S
N2016 H2022 0.984 . S
N2016 H2023 0.984 . S
N2017 C2010 1.356 . S
N2017 H2020 0.984 . S
N2017 H2021 0.985 . S
H2018 N2013 0.984 . S
H2019 N2013 0.985 . S
H2020 N2017 0.984 . S
H2021 N2017 0.985 . S
H2022 N2016 0.984 . S
H2023 N2016 0.984 . S
H2024 N2012 0.984 . S
H2025 N2012 0.985 . S
C2026 C2027 1.363 . S
C2026 C2032 1.379 . S
C2026 N2034 1.356 . S
C2027 C2026 1.363 . S
C2027 C2033 1.363 . S
C2028 C2029 1.363 . S
C2028 C2033 1.379 . S
C2028 N2035 1.356 . S
C2029 C2028 1.363 . S
C2029 C2032 1.363 . S
N2030 C2032 1.356 . S
N2030 H2042 0.984 . S
N2030 H2043 0.985 . S
N2031 C2033 1.356 . S
N2031 H2036 0.984 . S
N2031 H2037 0.985 . S
C2032 C2026 1.379 . S
C2032 C2029 1.363 . S
C2032 N2030 1.356 . S
C2033 C2027 1.363 . S
C2033 C2028 1.379 . S
C2033 N2031 1.356 . S
N2034 C2026 1.356 . S
N2034 H2040 0.984 . S
N2034 H2041 0.984 . S
N2035 C2028 1.356 . S
N2035 H2038 0.984 . S
N2035 H2039 0.985 . S
H2036 N2031 0.984 . S
H2037 N2031 0.985 . S
H2038 N2035 0.984 . S
H2039 N2035 0.985 . S
H2040 N2034 0.984 . S
H2041 N2034 0.984 . S
H2042 N2030 0.984 . S
H2043 N2030 0.985 . S
C2044 C2045 1.363 . S
C2044 C2050 1.379 . S
C2044 N2052 1.356 . S
C2045 C2044 1.363 . S
C2045 C2051 1.363 . S
C2046 C2047 1.363 . S
C2046 C2051 1.379 . S
C2046 N2053 1.356 1_565 S
C2047 C2046 1.363 . S
C2047 C2050 1.363 . S
N2048 C2050 1.356 1_554 S
N2048 H2060 0.984 . S
N2048 H2061 0.985 . S
N2049 C2051 1.356 . S
N2049 H2054 0.984 . S
N2049 H2055 0.985 1_565 S
C2050 C2044 1.379 . S
C2050 C2047 1.363 . S
C2050 N2048 1.356 1_556 S
C2051 C2045 1.363 . S
C2051 C2046 1.379 . S
C2051 N2049 1.356 . S
N2052 C2044 1.356 . S
N2052 H2058 0.984 . S
N2052 H2059 0.984 . S
N2053 C2046 1.356 1_545 S
N2053 H2056 0.984 . S
N2053 H2057 0.985 . S
H2054 N2049 0.984 . S
H2055 N2049 0.985 1_545 S
H2056 N2053 0.984 . S
H2057 N2053 0.985 . S
H2058 N2052 0.984 . S
H2059 N2052 0.984 . S
H2060 N2048 0.984 . S
H2061 N2048 0.985 . S
C2062 C2063 1.363 . S
C2062 C2068 1.379 . S
C2062 N2070 1.356 . S
C2063 C2062 1.363 . S
C2063 C2069 1.363 . S
C2064 C2065 1.363 . S
C2064 C2069 1.379 . S
C2064 N2071 1.356 . S
C2065 C2064 1.363 . S
C2065 C2068 1.363 . S
N2066 C2068 1.356 . S
N2066 H2078 0.984 . S
N2066 H2079 0.985 . S
N2067 C2069 1.356 . S
N2067 H2072 0.984 . S
N2067 H2073 0.985 . S
C2068 C2062 1.379 . S
C2068 C2065 1.363 . S
C2068 N2066 1.356 . S
C2069 C2063 1.363 . S
C2069 C2064 1.379 . S
C2069 N2067 1.356 . S
N2070 C2062 1.356 . S
N2070 H2076 0.984 . S
N2070 H2077 0.984 . S
N2071 C2064 1.356 . S
N2071 H2074 0.984 . S
N2071 H2075 0.985 . S
H2072 N2067 0.984 . S
H2073 N2067 0.985 . S
H2074 N2071 0.984 . S
H2075 N2071 0.985 . S
H2076 N2070 0.984 . S
H2077 N2070 0.984 . S
H2078 N2066 0.984 . S
H2079 N2066 0.985 . S
C2080 C2081 1.363 . S
C2080 C2086 1.379 . S
C2080 N2088 1.356 . S
C2081 C2080 1.363 . S
C2081 C2087 1.363 1_545 S
C2082 C2083 1.363 1_565 S
C2082 C2087 1.379 . S
C2082 N2089 1.356 . S
C2083 C2082 1.363 1_545 S
C2083 C2086 1.363 . S
N2084 C2086 1.356 . S
N2084 H2096 0.984 . S
N2084 H2097 0.985 . S
N2085 C2087 1.356 . S
N2085 H2090 0.984 . S
N2085 H2091 0.985 . S
C2086 C2080 1.379 . S
C2086 C2083 1.363 . S
C2086 N2084 1.356 . S
C2087 C2081 1.363 1_565 S
C2087 C2082 1.379 . S
C2087 N2085 1.356 . S
N2088 C2080 1.356 . S
N2088 H2094 0.984 . S
N2088 H2095 0.984 . S
N2089 C2082 1.356 . S
N2089 H2092 0.984 . S
N2089 H2093 0.985 . S
H2090 N2085 0.984 . S
H2091 N2085 0.985 . S
H2092 N2089 0.984 . S
H2093 N2089 0.985 . S
H2094 N2088 0.984 . S
H2095 N2088 0.984 . S
H2096 N2084 0.984 . S
H2097 N2084 0.985 . S
C2098 C2099 1.363 . S
C2098 C2104 1.379 . S
C2098 N2106 1.356 . S
C2099 C2098 1.363 . S
C2099 C2105 1.363 . S
C2100 C2101 1.363 . S
C2100 C2105 1.379 . S
C2100 N2107 1.356 . S
C2101 C2100 1.363 . S
C2101 C2104 1.363 . S
N2102 C2104 1.356 . S
N2102 H2114 0.984 . S
N2102 H2115 0.985 . S
N2103 C2105 1.356 . S
N2103 H2108 0.984 . S
N2103 H2109 0.985 . S
C2104 C2098 1.379 . S
C2104 C2101 1.363 . S
C2104 N2102 1.356 . S
C2105 C2099 1.363 . S
C2105 C2100 1.379 . S
C2105 N2103 1.356 . S
N2106 C2098 1.356 . S
N2106 H2112 0.984 . S
N2106 H2113 0.984 . S
N2107 C2100 1.356 . S
N2107 H2110 0.984 . S
N2107 H2111 0.985 . S
H2108 N2103 0.984 . S
H2109 N2103 0.985 . S
H2110 N2107 0.984 . S
H2111 N2107 0.985 . S
H2112 N2106 0.984 . S
H2113 N2106 0.984 . S
H2114 N2102 0.984 . S
H2115 N2102 0.985 . S
C2116 C2117 1.363 . S
C2116 C2122 1.379 . S
C2116 N2124 1.356 . S
C2117 C2116 1.363 . S
C2117 C2123 1.363 . S
C2118 C2119 1.363 . S
C2118 C2123 1.379 . S
C2118 N2125 1.356 . S
C2119 C2118 1.363 . S
C2119 C2122 1.363 . S
N2120 C2122 1.356 . S
N2120 H2132 0.984 . S
N2120 H2133 0.985 . S
N2121 C2123 1.356 1_565 S
N2121 H2126 0.984 . S
N2121 H2127 0.985 . S
C2122 C2116 1.379 . S
C2122 C2119 1.363 . S
C2122 N2120 1.356 . S
C2123 C2117 1.363 . S
C2123 C2118 1.379 . S
C2123 N2121 1.356 1_545 S
N2124 C2116 1.356 . S
N2124 H2130 0.984 . S
N2124 H2131 0.984 . S
N2125 C2118 1.356 . S
N2125 H2128 0.984 . S
N2125 H2129 0.985 1_545 S
H2126 N2121 0.984 . S
H2127 N2121 0.985 . S
H2128 N2125 0.984 . S
H2129 N2125 0.985 1_565 S
H2130 N2124 0.984 . S
H2131 N2124 0.984 . S
H2132 N2120 0.984 . S
H2133 N2120 0.985 . S
C2134 C2135 1.363 . S
C2134 C2140 1.379 . S
C2134 N2142 1.356 . S
C2135 C2134 1.363 . S
C2135 C2141 1.363 . S
C2136 C2137 1.363 . S
C2136 C2141 1.379 . S
C2136 N2143 1.356 . S
C2137 C2136 1.363 . S
C2137 C2140 1.363 . S
N2138 C2140 1.356 . S
N2138 H2150 0.984 . S
N2138 H2151 0.985 . S
N2139 C2141 1.356 . S
N2139 H2144 0.984 . S
N2139 H2145 0.985 . S
C2140 C2134 1.379 . S
C2140 C2137 1.363 . S
C2140 N2138 1.356 . S
C2141 C2135 1.363 . S
C2141 C2136 1.379 . S
C2141 N2139 1.356 . S
N2142 C2134 1.356 . S
N2142 H2148 0.984 . S
N2142 H2149 0.984 . S
N2143 C2136 1.356 . S
N2143 H2146 0.984 . S
N2143 H2147 0.985 . S
H2144 N2139 0.984 . S
H2145 N2139 0.985 . S
H2146 N2143 0.984 . S
H2147 N2143 0.985 . S
H2148 N2142 0.984 . S
H2149 N2142 0.984 . S
H2150 N2138 0.984 . S
H2151 N2138 0.985 . S
C2152 C2153 1.363 . S
C2152 C2158 1.379 . S
C2152 N2160 1.356 . S
C2153 C2152 1.363 . S
C2153 C2159 1.363 . S
C2154 C2155 1.363 . S
C2154 C2159 1.379 . S
C2154 N2161 1.356 . S
C2155 C2154 1.363 . S
C2155 C2158 1.363 . S
N2156 C2158 1.356 . S
N2156 H2168 0.984 . S
N2156 H2169 0.985 . S
N2157 C2159 1.356 1_565 S
N2157 H2162 0.984 . S
N2157 H2163 0.985 . S
C2158 C2152 1.379 . S
C2158 C2155 1.363 . S
C2158 N2156 1.356 . S
C2159 C2153 1.363 . S
C2159 C2154 1.379 . S
C2159 N2157 1.356 1_545 S
N2160 C2152 1.356 . S
N2160 H2166 0.984 . S
N2160 H2167 0.984 . S
N2161 C2154 1.356 . S
N2161 H2164 0.984 . S
N2161 H2165 0.999 . S
H2162 N2157 0.984 . S
H2163 N2157 0.985 . S
H2164 N2161 0.984 . S
H2165 N2161 0.999 . S
H2166 N2160 0.984 . S
H2167 N2160 0.984 . S
H2168 N2156 0.984 . S
H2169 N2156 0.985 . S
C2170 C2171 1.363 . S
C2170 C2176 1.379 . S
C2170 N2178 1.356 . S
C2171 C2170 1.363 . S
C2171 C2177 1.363 . S
C2172 C2173 1.363 . S
C2172 C2177 1.379 . S
C2172 N2179 1.356 . S
C2173 C2172 1.363 . S
C2173 C2176 1.363 . S
N2174 C2176 1.356 . S
N2174 H2186 0.984 . S
N2174 H2187 0.985 . S
N2175 C2177 1.356 . S
N2175 H2180 0.984 . S
N2175 H2181 0.985 . S
C2176 C2170 1.379 . S
C2176 C2173 1.363 . S
C2176 N2174 1.356 . S
C2177 C2171 1.363 . S
C2177 C2172 1.379 . S
C2177 N2175 1.356 . S
N2178 C2170 1.356 . S
N2178 H2184 0.984 . S
N2178 H2185 0.984 . S
N2179 C2172 1.356 . S
N2179 H2182 0.984 . S
N2179 H2183 0.985 . S
H2180 N2175 0.984 . S
H2181 N2175 0.985 . S
H2182 N2179 0.984 . S
H2183 N2179 0.985 . S
H2184 N2178 0.984 . S
H2185 N2178 0.984 . S
H2186 N2174 0.984 . S
H2187 N2174 0.985 . S
C2188 C2189 1.390 . S
C2188 C2194 1.379 . S
C2188 N2196 1.356 . S
C2189 C2188 1.390 . S
C2189 C2195 1.347 1_565 S
C2190 C2191 1.363 . S
C2190 C2195 1.379 1_565 S
C2190 N2197 1.356 . S
C2191 C2190 1.363 . S
C2191 C2194 1.363 . S
N2192 C2194 1.356 . S
N2192 H2204 0.984 . S
N2192 H2205 0.985 . S
N2193 C2195 1.356 . S
N2193 H2198 0.984 . S
N2193 H2199 0.985 . S
C2194 C2188 1.379 . S
C2194 C2191 1.363 . S
C2194 N2192 1.356 . S
C2195 C2189 1.347 1_545 S
C2195 C2190 1.379 1_545 S
C2195 N2193 1.356 . S
N2196 C2188 1.356 . S
N2196 H2202 0.984 . S
N2196 H2203 0.984 . S
N2197 C2190 1.356 . S
N2197 H2200 0.984 . S
N2197 H2201 0.999 . S
H2198 N2193 0.984 . S
H2199 N2193 0.985 . S
H2200 N2197 0.984 . S
H2201 N2197 0.999 . S
H2202 N2196 0.984 . S
H2203 N2196 0.984 . S
H2204 N2192 0.984 . S
H2205 N2192 0.985 . S
C2206 C2207 1.363 . S
C2206 C2212 1.379 . S
C2206 N2214 1.356 . S
C2207 C2206 1.363 . S
C2207 C2213 1.363 . S
C2208 C2209 1.363 . S
C2208 C2213 1.379 . S
C2208 N2215 1.356 . S
C2209 C2208 1.363 . S
C2209 C2212 1.363 . S
N2210 C2212 1.356 . S
N2210 H2222 0.984 . S
N2210 H2223 0.985 . S
N2211 C2213 1.356 . S
N2211 H2216 0.984 . S
N2211 H2217 0.985 . S
C2212 C2206 1.379 . S
C2212 C2209 1.363 . S
C2212 N2210 1.356 . S
C2213 C2207 1.363 . S
C2213 C2208 1.379 . S
C2213 N2211 1.356 . S
N2214 C2206 1.356 . S
N2214 H2220 0.984 . S
N2214 H2221 0.984 . S
N2215 C2208 1.356 . S
N2215 H2218 0.984 . S
N2215 H2219 0.985 . S
H2216 N2211 0.984 . S
H2217 N2211 0.985 . S
H2218 N2215 0.984 . S
H2219 N2215 0.985 . S
H2220 N2214 0.984 . S
H2221 N2214 0.984 . S
H2222 N2210 0.984 . S
H2223 N2210 0.985 . S
C2224 C2225 1.363 1_556 S
C2224 C2230 1.379 . S
C2224 N2232 1.356 . S
C2225 C2224 1.363 1_554 S
C2225 C2231 1.363 . S
C2226 C2227 1.363 1_554 S
C2226 C2231 1.379 . S
C2226 N2233 1.356 . S
C2227 C2226 1.363 1_556 S
C2227 C2230 1.363 . S
N2228 C2230 1.356 . S
N2228 H2240 0.984 . S
N2228 H2241 0.985 . S
N2229 C2231 1.356 . S
N2229 H2234 0.984 . S
N2229 H2235 0.985 . S
C2230 C2224 1.379 . S
C2230 C2227 1.363 . S
C2230 N2228 1.356 . S
C2231 C2225 1.363 . S
C2231 C2226 1.379 . S
C2231 N2229 1.356 . S
N2232 C2224 1.356 . S
N2232 H2238 0.984 . S
N2232 H2239 0.984 1_556 S
N2233 C2226 1.356 . S
N2233 H2236 0.984 1_554 S
N2233 H2237 0.985 . S
H2234 N2229 0.984 . S
H2235 N2229 0.985 . S
H2236 N2233 0.984 1_556 S
H2237 N2233 0.985 . S
H2238 N2232 0.984 . S
H2239 N2232 0.984 1_554 S
H2240 N2228 0.984 . S
H2241 N2228 0.985 . S
C2242 C2243 1.363 . S
C2242 C2248 1.379 . S
C2242 N2250 1.356 1_554 S
C2243 C2242 1.363 . S
C2243 C2249 1.363 . S
C2244 C2245 1.363 . S
C2244 C2249 1.379 . S
C2244 N2251 1.356 . S
C2245 C2244 1.363 . S
C2245 C2248 1.363 . S
N2246 C2248 1.356 1_556 S
N2246 H2258 0.984 . S
N2246 H2259 0.985 . S
N2247 C2249 1.356 . S
N2247 H2252 0.984 . S
N2247 H2253 0.985 . S
C2248 C2242 1.379 . S
C2248 C2245 1.363 . S
C2248 N2246 1.356 1_554 S
C2249 C2243 1.363 . S
C2249 C2244 1.379 . S
C2249 N2247 1.356 . S
N2250 C2242 1.356 1_556 S
N2250 H2256 0.984 . S
N2250 H2257 0.984 1_556 S
N2251 C2244 1.356 . S
N2251 H2254 0.984 . S
N2251 H2255 0.985 . S
H2252 N2247 0.984 . S
H2253 N2247 0.985 . S
H2254 N2251 0.984 . S
H2255 N2251 0.985 . S
H2256 N2250 0.984 . S
H2257 N2250 0.984 1_554 S
H2258 N2246 0.984 . S
H2259 N2246 0.985 . S
C2260 C2261 1.363 . S
C2260 C2266 1.379 . S
C2260 N2268 1.356 . S
C2261 C2260 1.363 . S
C2261 C2267 1.363 . S
C2262 C2263 1.363 . S
C2262 C2267 1.379 . S
C2262 N2269 1.356 . S
C2263 C2262 1.363 . S
C2263 C2266 1.363 . S
N2264 C2266 1.356 . S
N2264 H2276 0.984 . S
N2264 H2277 0.985 . S
N2265 C2267 1.356 . S
N2265 H2270 0.984 . S
N2265 H2271 0.985 . S
C2266 C2260 1.379 . S
C2266 C2263 1.363 . S
C2266 N2264 1.356 . S
C2267 C2261 1.363 . S
C2267 C2262 1.379 . S
C2267 N2265 1.356 . S
N2268 C2260 1.356 . S
N2268 H2274 0.984 . S
N2268 H2275 0.984 . S
N2269 C2262 1.356 . S
N2269 H2272 0.984 . S
N2269 H2273 0.985 . S
H2270 N2265 0.984 . S
H2271 N2265 0.985 . S
H2272 N2269 0.984 . S
H2273 N2269 0.985 . S
H2274 N2268 0.984 . S
H2275 N2268 0.984 . S
H2276 N2264 0.984 . S
H2277 N2264 0.985 . S
C2278 C2279 1.363 . S
C2278 C2284 1.379 . S
C2278 N2286 1.356 . S
C2279 C2278 1.363 . S
C2279 C2285 1.363 . S
C2280 C2281 1.363 . S
C2280 C2285 1.379 . S
C2280 N2287 1.356 . S
C2281 C2280 1.363 . S
C2281 C2284 1.363 . S
N2282 C2284 1.356 . S
N2282 H2294 0.984 . S
N2282 H2295 0.985 . S
N2283 C2285 1.356 . S
N2283 H2288 0.984 . S
N2283 H2289 0.985 . S
C2284 C2278 1.379 . S
C2284 C2281 1.363 . S
C2284 N2282 1.356 . S
C2285 C2279 1.363 . S
C2285 C2280 1.379 . S
C2285 N2283 1.356 . S
N2286 C2278 1.356 . S
N2286 H2292 0.984 . S
N2286 H2293 0.984 . S
N2287 C2280 1.356 . S
N2287 H2290 0.984 . S
N2287 H2291 0.985 . S
H2288 N2283 0.984 . S
H2289 N2283 0.985 . S
H2290 N2287 0.984 . S
H2291 N2287 0.985 . S
H2292 N2286 0.984 . S
H2293 N2286 0.984 . S
H2294 N2282 0.984 . S
H2295 N2282 0.985 . S
C2296 C2297 1.363 1_565 S
C2296 C2302 1.379 . S
C2296 N2304 1.356 . S
C2297 C2296 1.363 1_545 S
C2297 C2303 1.363 . S
C2298 C2299 1.363 . S
C2298 C2303 1.379 . S
C2298 N2305 1.356 . S
C2299 C2298 1.363 . S
C2299 C2302 1.363 1_545 S
N2300 C2302 1.356 . S
N2300 H2312 0.984 . S
N2300 H2313 0.985 . S
N2301 C2303 1.356 . S
N2301 H2306 0.984 . S
N2301 H2307 0.985 . S
C2302 C2296 1.379 . S
C2302 C2299 1.363 1_565 S
C2302 N2300 1.356 . S
C2303 C2297 1.363 . S
C2303 C2298 1.379 . S
C2303 N2301 1.356 . S
N2304 C2296 1.356 . S
N2304 H2310 0.984 . S
N2304 H2311 0.984 . S
N2305 C2298 1.356 . S
N2305 H2308 0.984 . S
N2305 H2309 0.985 . S
H2306 N2301 0.984 . S
H2307 N2301 0.985 . S
H2308 N2305 0.984 . S
H2309 N2305 0.985 . S
H2310 N2304 0.984 . S
H2311 N2304 0.984 . S
H2312 N2300 0.984 . S
H2313 N2300 0.985 . S
C2314 C2315 1.363 . S
C2314 C2320 1.379 . S
C2314 N2322 1.356 . S
C2315 C2314 1.363 . S
C2315 C2321 1.363 . S
C2316 C2317 1.363 . S
C2316 C2321 1.379 . S
C2316 N2323 1.356 . S
C2317 C2316 1.363 . S
C2317 C2320 1.363 . S
N2318 C2320 1.356 . S
N2318 H2330 0.984 1_565 S
N2318 H2331 0.985 . S
N2319 C2321 1.356 . S
N2319 H2324 0.984 . S
N2319 H2325 0.985 . S
C2320 C2314 1.379 . S
C2320 C2317 1.363 . S
C2320 N2318 1.356 . S
C2321 C2315 1.363 . S
C2321 C2316 1.379 . S
C2321 N2319 1.356 . S
N2322 C2314 1.356 . S
N2322 H2328 0.984 . S
N2322 H2329 0.984 . S
N2323 C2316 1.356 . S
N2323 H2326 0.984 . S
N2323 H2327 0.985 . S
H2324 N2319 0.984 . S
H2325 N2319 0.985 . S
H2326 N2323 0.984 . S
H2327 N2323 0.985 . S
H2328 N2322 0.984 . S
H2329 N2322 0.984 . S
H2330 N2318 0.984 1_545 S
H2331 N2318 0.985 . S
C2332 C2333 1.363 . S
C2332 C2338 1.379 . S
C2332 N2340 1.356 . S
C2333 C2332 1.363 . S
C2333 C2339 1.363 . S
C2334 C2335 1.363 . S
C2334 C2339 1.379 . S
C2334 N2341 1.356 . S
C2335 C2334 1.363 . S
C2335 C2338 1.363 . S
N2336 C2338 1.356 . S
N2336 H2348 0.984 . S
N2336 H2349 0.985 . S
N2337 C2339 1.356 . S
N2337 H2342 0.984 . S
N2337 H2343 0.985 . S
C2338 C2332 1.379 . S
C2338 C2335 1.363 . S
C2338 N2336 1.356 . S
C2339 C2333 1.363 . S
C2339 C2334 1.379 . S
C2339 N2337 1.356 . S
N2340 C2332 1.356 . S
N2340 H2346 0.984 . S
N2340 H2347 0.984 . S
N2341 C2334 1.356 . S
N2341 H2344 0.984 . S
N2341 H2345 0.985 . S
H2342 N2337 0.984 . S
H2343 N2337 0.985 . S
H2344 N2341 0.984 . S
H2345 N2341 0.985 . S
H2346 N2340 0.984 . S
H2347 N2340 0.984 . S
H2348 N2336 0.984 . S
H2349 N2336 0.985 . S
C2350 C2351 1.363 . S
C2350 C2356 1.379 . S
C2350 N2358 1.356 . S
C2351 C2350 1.363 . S
C2351 C2357 1.363 . S
C2352 C2353 1.363 . S
C2352 C2357 1.379 . S
C2352 N2359 1.356 . S
C2353 C2352 1.363 . S
C2353 C2356 1.363 . S
N2354 C2356 1.356 . S
N2354 H2366 0.984 . S
N2354 H2367 0.985 . S
N2355 C2357 1.356 . S
N2355 H2360 0.984 . S
N2355 H2361 0.985 . S
C2356 C2350 1.379 . S
C2356 C2353 1.363 . S
C2356 N2354 1.356 . S
C2357 C2351 1.363 . S
C2357 C2352 1.379 . S
C2357 N2355 1.356 . S
N2358 C2350 1.356 . S
N2358 H2364 0.984 . S
N2358 H2365 0.984 . S
N2359 C2352 1.356 . S
N2359 H2362 0.984 . S
N2359 H2363 0.985 . S
H2360 N2355 0.984 . S
H2361 N2355 0.985 . S
H2362 N2359 0.984 . S
H2363 N2359 0.985 . S
H2364 N2358 0.984 . S
H2365 N2358 0.984 . S
H2366 N2354 0.984 . S
H2367 N2354 0.985 . S
C2368 C2369 1.363 . S
C2368 C2374 1.379 . S
C2368 N2376 1.356 . S
C2369 C2368 1.363 . S
C2369 C2375 1.363 . S
C2370 C2371 1.363 . S
C2370 C2375 1.379 . S
C2370 N2377 1.356 . S
C2371 C2370 1.363 . S
C2371 C2374 1.363 . S
N2372 C2374 1.356 . S
N2372 H2384 0.984 . S
N2372 H2385 0.985 . S
N2373 C2375 1.356 . S
N2373 H2378 0.984 . S
N2373 H2379 0.985 . S
C2374 C2368 1.379 . S
C2374 C2371 1.363 . S
C2374 N2372 1.356 . S
C2375 C2369 1.363 . S
C2375 C2370 1.379 . S
C2375 N2373 1.356 . S
N2376 C2368 1.356 . S
N2376 H2382 0.984 . S
N2376 H2383 0.984 . S
N2377 C2370 1.356 . S
N2377 H2380 0.984 . S
N2377 H2381 0.985 . S
H2378 N2373 0.984 . S
H2379 N2373 0.985 . S
H2380 N2377 0.984 . S
H2381 N2377 0.985 . S
H2382 N2376 0.984 . S
H2383 N2376 0.984 . S
H2384 N2372 0.984 . S
H2385 N2372 0.985 . S
C2386 C2387 1.363 . S
C2386 C2392 1.379 . S
C2386 N2394 1.356 . S
C2387 C2386 1.363 . S
C2387 C2393 1.363 . S
C2388 C2389 1.363 . S
C2388 C2393 1.379 . S
C2388 N2395 1.356 . S
C2389 C2388 1.363 . S
C2389 C2392 1.363 . S
N2390 C2392 1.356 . S
N2390 H2402 0.984 . S
N2390 H2403 0.985 . S
N2391 C2393 1.356 . S
N2391 H2396 0.984 . S
N2391 H2397 0.985 . S
C2392 C2386 1.379 . S
C2392 C2389 1.363 . S
C2392 N2390 1.356 . S
C2393 C2387 1.363 . S
C2393 C2388 1.379 . S
C2393 N2391 1.356 . S
N2394 C2386 1.356 . S
N2394 H2400 0.984 . S
N2394 H2401 0.984 . S
N2395 C2388 1.356 . S
N2395 H2398 0.984 . S
N2395 H2399 0.985 . S
H2396 N2391 0.984 . S
H2397 N2391 0.985 . S
H2398 N2395 0.984 . S
H2399 N2395 0.985 . S
H2400 N2394 0.984 . S
H2401 N2394 0.984 . S
H2402 N2390 0.984 . S
H2403 N2390 0.985 . S
C2404 C2405 1.363 1_554 S
C2404 C2410 1.379 . S
C2404 N2412 1.356 . S
C2405 C2404 1.363 1_556 S
C2405 C2411 1.363 . S
C2406 C2407 1.367 1_556 S
C2406 C2411 1.379 . S
C2406 N2413 1.356 . S
C2407 C2406 1.367 1_554 S
C2407 C2410 1.360 . S
N2408 C2410 1.356 . S
N2408 H2420 0.984 . S
N2408 H2421 0.985 . S
N2409 C2411 1.356 . S
N2409 H2414 0.984 . S
N2409 H2415 0.985 . S
C2410 C2404 1.379 . S
C2410 C2407 1.360 . S
C2410 N2408 1.356 . S
C2411 C2405 1.363 . S
C2411 C2406 1.379 . S
C2411 N2409 1.356 . S
N2412 C2404 1.356 . S
N2412 H2418 0.984 . S
N2412 H2419 0.984 1_554 S
N2413 C2406 1.356 . S
N2413 H2416 0.984 . S
N2413 H2417 0.985 . S
H2414 N2409 0.984 . S
H2415 N2409 0.985 . S
H2416 N2413 0.984 . S
H2417 N2413 0.985 . S
H2418 N2412 0.984 . S
H2419 N2412 0.984 1_556 S
H2420 N2408 0.984 . S
H2421 N2408 0.985 . S
C2422 C2423 1.363 . S
C2422 C2428 1.379 1_455 S
C2422 N2430 1.356 . S
C2423 C2422 1.363 . S
C2423 C2429 1.363 . S
C2424 C2425 1.363 1_455 S
C2424 C2429 1.379 . S
C2424 N2431 1.356 1_455 S
C2425 C2424 1.363 1_655 S
C2425 C2428 1.363 . S
N2426 C2428 1.356 . S
N2426 H2438 0.984 . S
N2426 H2439 0.985 . S
N2427 C2429 1.356 . S
N2427 H2432 0.984 . S
N2427 H2433 0.985 . S
C2428 C2422 1.379 1_655 S
C2428 C2425 1.363 . S
C2428 N2426 1.356 . S
C2429 C2423 1.363 . S
C2429 C2424 1.379 . S
C2429 N2427 1.356 . S
N2430 C2422 1.356 . S
N2430 H2436 0.984 1_455 S
N2430 H2437 0.984 . S
N2431 C2424 1.356 1_655 S
N2431 H2434 0.984 . S
N2431 H2435 0.985 1_655 S
H2432 N2427 0.984 . S
H2433 N2427 0.985 . S
H2434 N2431 0.984 . S
H2435 N2431 0.985 1_455 S
H2436 N2430 0.984 1_655 S
H2437 N2430 0.984 . S
H2438 N2426 0.984 . S
H2439 N2426 0.985 . S
C2440 C2441 1.363 . S
C2440 C2446 1.379 . S
C2440 N2448 1.356 . S
C2441 C2440 1.363 . S
C2441 C2447 1.363 . S
C2442 C2443 1.363 . S
C2442 C2447 1.379 . S
C2442 N2449 1.356 . S
C2443 C2442 1.363 . S
C2443 C2446 1.363 . S
N2444 C2446 1.356 . S
N2444 H2456 0.984 . S
N2444 H2457 0.985 . S
N2445 C2447 1.356 . S
N2445 H2450 0.984 . S
N2445 H2451 0.985 . S
C2446 C2440 1.379 . S
C2446 C2443 1.363 . S
C2446 N2444 1.356 . S
C2447 C2441 1.363 . S
C2447 C2442 1.379 . S
C2447 N2445 1.356 . S
N2448 C2440 1.356 . S
N2448 H2454 0.984 . S
N2448 H2455 0.984 . S
N2449 C2442 1.356 . S
N2449 H2452 0.984 . S
N2449 H2453 0.985 . S
H2450 N2445 0.984 . S
H2451 N2445 0.985 . S
H2452 N2449 0.984 . S
H2453 N2449 0.985 . S
H2454 N2448 0.984 . S
H2455 N2448 0.984 . S
H2456 N2444 0.984 . S
H2457 N2444 0.985 . S
C2458 C2459 1.363 . S
C2458 C2464 1.379 . S
C2458 N2466 1.356 . S
C2459 C2458 1.363 . S
C2459 C2465 1.363 . S
C2460 C2461 1.363 . S
C2460 C2465 1.379 . S
C2460 N2467 1.356 . S
C2461 C2460 1.363 . S
C2461 C2464 1.363 . S
N2462 C2464 1.356 . S
N2462 H2474 0.984 . S
N2462 H2475 0.985 . S
N2463 C2465 1.356 . S
N2463 H2468 0.984 . S
N2463 H2469 0.985 . S
C2464 C2458 1.379 . S
C2464 C2461 1.363 . S
C2464 N2462 1.356 . S
C2465 C2459 1.363 . S
C2465 C2460 1.379 . S
C2465 N2463 1.356 . S
N2466 C2458 1.356 . S
N2466 H2472 0.984 . S
N2466 H2473 0.984 . S
N2467 C2460 1.356 . S
N2467 H2470 0.984 1_455 S
N2467 H2471 0.985 . S
H2468 N2463 0.984 . S
H2469 N2463 0.985 . S
H2470 N2467 0.984 1_655 S
H2471 N2467 0.985 . S
H2472 N2466 0.984 . S
H2473 N2466 0.984 . S
H2474 N2462 0.984 . S
H2475 N2462 0.985 . S
C2476 C2477 1.363 1_655 S
C2476 C2482 1.379 1_655 S
C2476 N2484 1.356 . S
C2477 C2476 1.363 1_455 S
C2477 C2483 1.363 . S
C2478 C2479 1.363 . S
C2478 C2483 1.379 . S
C2478 N2485 1.356 . S
C2479 C2478 1.363 . S
C2479 C2482 1.363 . S
N2480 C2482 1.356 . S
N2480 H2492 0.984 . S
N2480 H2493 0.985 . S
N2481 C2483 1.356 . S
N2481 H2486 0.984 . S
N2481 H2487 0.985 . S
C2482 C2476 1.379 1_455 S
C2482 C2479 1.363 . S
C2482 N2480 1.356 . S
C2483 C2477 1.363 . S
C2483 C2478 1.379 . S
C2483 N2481 1.356 . S
N2484 C2476 1.356 . S
N2484 H2490 0.984 . S
N2484 H2491 0.984 . S
N2485 C2478 1.356 . S
N2485 H2488 0.984 . S
N2485 H2489 0.985 . S
H2486 N2481 0.984 . S
H2487 N2481 0.985 . S
H2488 N2485 0.984 . S
H2489 N2485 0.985 . S
H2490 N2484 0.984 . S
H2491 N2484 0.984 . S
H2492 N2480 0.984 . S
H2493 N2480 0.985 . S
C2494 C2495 1.363 . S
C2494 C2500 1.379 . S
C2494 N2502 1.356 . S
C2495 C2494 1.363 . S
C2495 C2501 1.363 . S
C2496 C2497 1.363 . S
C2496 C2501 1.379 . S
C2496 N2503 1.356 . S
C2497 C2496 1.363 . S
C2497 C2500 1.363 . S
N2498 C2500 1.356 . S
N2498 H2510 0.984 . S
N2498 H2511 0.985 . S
N2499 C2501 1.356 . S
N2499 H2504 0.984 . S
N2499 H2505 0.985 . S
C2500 C2494 1.379 . S
C2500 C2497 1.363 . S
C2500 N2498 1.356 . S
C2501 C2495 1.363 . S
C2501 C2496 1.379 . S
C2501 N2499 1.356 . S
N2502 C2494 1.356 . S
N2502 H2508 0.984 . S
N2502 H2509 0.984 . S
N2503 C2496 1.356 . S
N2503 H2506 0.984 . S
N2503 H2507 0.985 . S
H2504 N2499 0.984 . S
H2505 N2499 0.985 . S
H2506 N2503 0.984 . S
H2507 N2503 0.985 . S
H2508 N2502 0.984 . S
H2509 N2502 0.984 . S
H2510 N2498 0.984 . S
H2511 N2498 0.985 . S
C2512 C2513 1.363 . S
C2512 C2518 1.379 . S
C2512 N2520 1.356 . S
C2513 C2512 1.363 . S
C2513 C2519 1.363 . S
C2514 C2515 1.363 . S
C2514 C2519 1.379 . S
C2514 N2521 1.356 . S
C2515 C2514 1.363 . S
C2515 C2518 1.363 . S
N2516 C2518 1.356 . S
N2516 H2528 0.984 . S
N2516 H2529 0.985 . S
N2517 C2519 1.356 . S
N2517 H2522 0.984 . S
N2517 H2523 0.985 . S
C2518 C2512 1.379 . S
C2518 C2515 1.363 . S
C2518 N2516 1.356 . S
C2519 C2513 1.363 . S
C2519 C2514 1.379 . S
C2519 N2517 1.356 . S
N2520 C2512 1.356 . S
N2520 H2526 0.984 . S
N2520 H2527 0.984 . S
N2521 C2514 1.356 . S
N2521 H2524 0.984 . S
N2521 H2525 0.985 . S
H2522 N2517 0.984 . S
H2523 N2517 0.985 . S
H2524 N2521 0.984 . S
H2525 N2521 0.985 . S
H2526 N2520 0.984 . S
H2527 N2520 0.984 . S
H2528 N2516 0.984 . S
H2529 N2516 0.985 . S
C2530 C2531 1.363 . S
C2530 C2536 1.379 . S
C2530 N2538 1.356 . S
C2531 C2530 1.363 . S
C2531 C2537 1.363 . S
C2532 C2533 1.363 . S
C2532 C2537 1.379 . S
C2532 N2539 1.356 . S
C2533 C2532 1.363 . S
C2533 C2536 1.363 . S
N2534 C2536 1.356 . S
N2534 H2546 0.984 . S
N2534 H2547 0.985 . S
N2535 C2537 1.356 1_554 S
N2535 H2540 0.984 . S
N2535 H2541 0.985 . S
C2536 C2530 1.379 . S
C2536 C2533 1.363 . S
C2536 N2534 1.356 . S
C2537 C2531 1.363 . S
C2537 C2532 1.379 . S
C2537 N2535 1.356 1_556 S
N2538 C2530 1.356 . S
N2538 H2544 0.984 . S
N2538 H2545 0.984 . S
N2539 C2532 1.356 . S
N2539 H2542 0.984 . S
N2539 H2543 0.985 . S
H2540 N2535 0.984 . S
H2541 N2535 0.985 . S
H2542 N2539 0.984 . S
H2543 N2539 0.985 . S
H2544 N2538 0.984 . S
H2545 N2538 0.984 . S
H2546 N2534 0.984 . S
H2547 N2534 0.985 . S
C2548 C2549 1.363 . S
C2548 C2554 1.379 . S
C2548 N2556 1.356 . S
C2549 C2548 1.363 . S
C2549 C2555 1.363 . S
C2550 C2551 1.363 . S
C2550 C2555 1.379 . S
C2550 N2557 1.356 . S
C2551 C2550 1.363 . S
C2551 C2554 1.363 . S
N2552 C2554 1.356 . S
N2552 H2564 0.984 . S
N2552 H2565 0.985 . S
N2553 C2555 1.356 . S
N2553 H2558 0.984 . S
N2553 H2559 0.985 . S
C2554 C2548 1.379 . S
C2554 C2551 1.363 . S
C2554 N2552 1.356 . S
C2555 C2549 1.363 . S
C2555 C2550 1.379 . S
C2555 N2553 1.356 . S
N2556 C2548 1.356 . S
N2556 H2562 0.984 . S
N2556 H2563 0.984 . S
N2557 C2550 1.356 . S
N2557 H2560 0.984 . S
N2557 H2561 0.985 . S
H2558 N2553 0.984 . S
H2559 N2553 0.985 . S
H2560 N2557 0.984 . S
H2561 N2557 0.985 . S
H2562 N2556 0.984 . S
H2563 N2556 0.984 . S
H2564 N2552 0.984 . S
H2565 N2552 0.985 . S
C2566 C2567 1.363 . S
C2566 C2572 1.379 . S
C2566 N2574 1.356 . S
C2567 C2566 1.363 . S
C2567 C2573 1.363 . S
C2568 C2569 1.363 . S
C2568 C2573 1.379 . S
C2568 N2575 1.356 . S
C2569 C2568 1.363 . S
C2569 C2572 1.363 . S
N2570 C2572 1.356 . S
N2570 H2582 0.984 . S
N2570 H2583 0.985 . S
N2571 C2573 1.356 . S
N2571 H2576 0.984 . S
N2571 H2577 0.985 . S
C2572 C2566 1.379 . S
C2572 C2569 1.363 . S
C2572 N2570 1.356 . S
C2573 C2567 1.363 . S
C2573 C2568 1.379 . S
C2573 N2571 1.356 . S
N2574 C2566 1.356 . S
N2574 H2580 0.984 . S
N2574 H2581 0.984 . S
N2575 C2568 1.356 . S
N2575 H2578 0.984 . S
N2575 H2579 0.985 . S
H2576 N2571 0.984 . S
H2577 N2571 0.985 . S
H2578 N2575 0.984 . S
H2579 N2575 0.985 . S
H2580 N2574 0.984 . S
H2581 N2574 0.984 . S
H2582 N2570 0.984 . S
H2583 N2570 0.985 . S
C2584 C2585 1.363 . S
C2584 C2590 1.379 . S
C2584 N2592 1.356 . S
C2585 C2584 1.363 . S
C2585 C2591 1.363 . S
C2586 C2587 1.363 . S
C2586 C2591 1.379 . S
C2586 N2593 1.356 . S
C2587 C2586 1.363 . S
C2587 C2590 1.363 . S
N2588 C2590 1.356 . S
N2588 H2600 0.984 . S
N2588 H2601 0.985 . S
N2589 C2591 1.356 . S
N2589 H2594 0.984 . S
N2589 H2595 0.985 . S
C2590 C2584 1.379 . S
C2590 C2587 1.363 . S
C2590 N2588 1.356 . S
C2591 C2585 1.363 . S
C2591 C2586 1.379 . S
C2591 N2589 1.356 . S
N2592 C2584 1.356 . S
N2592 H2598 0.984 . S
N2592 H2599 0.984 . S
N2593 C2586 1.356 . S
N2593 H2596 0.984 . S
N2593 H2597 0.985 . S
H2594 N2589 0.984 . S
H2595 N2589 0.985 . S
H2596 N2593 0.984 . S
H2597 N2593 0.985 . S
H2598 N2592 0.984 . S
H2599 N2592 0.984 . S
H2600 N2588 0.984 . S
H2601 N2588 0.985 . S
C2602 C2603 1.363 . S
C2602 C2608 1.379 . S
C2602 N2610 1.356 . S
C2603 C2602 1.363 . S
C2603 C2609 1.363 . S
C2604 C2605 1.363 . S
C2604 C2609 1.379 . S
C2604 N2611 1.356 . S
C2605 C2604 1.363 . S
C2605 C2608 1.363 . S
N2606 C2608 1.356 . S
N2606 H2618 0.984 . S
N2606 H2619 0.985 . S
N2607 C2609 1.356 . S
N2607 H2612 0.984 . S
N2607 H2613 0.985 . S
C2608 C2602 1.379 . S
C2608 C2605 1.363 . S
C2608 N2606 1.356 . S
C2609 C2603 1.363 . S
C2609 C2604 1.379 . S
C2609 N2607 1.356 . S
N2610 C2602 1.356 . S
N2610 H2616 0.984 . S
N2610 H2617 0.984 . S
N2611 C2604 1.356 . S
N2611 H2614 0.984 . S
N2611 H2615 0.985 . S
H2612 N2607 0.984 . S
H2613 N2607 0.985 . S
H2614 N2611 0.984 . S
H2615 N2611 0.985 . S
H2616 N2610 0.984 . S
H2617 N2610 0.984 . S
H2618 N2606 0.984 . S
H2619 N2606 0.985 . S
C2620 C2621 1.363 . S
C2620 C2626 1.379 . S
C2620 N2628 1.356 . S
C2621 C2620 1.363 . S
C2621 C2627 1.363 . S
C2622 C2623 1.363 . S
C2622 C2627 1.379 . S
C2622 N2629 1.356 . S
C2623 C2622 1.363 . S
C2623 C2626 1.363 . S
N2624 C2626 1.356 . S
N2624 H2636 0.984 . S
N2624 H2637 0.985 . S
N2625 C2627 1.356 . S
N2625 H2630 0.984 . S
N2625 H2631 0.985 . S
C2626 C2620 1.379 . S
C2626 C2623 1.363 . S
C2626 N2624 1.356 . S
C2627 C2621 1.363 . S
C2627 C2622 1.379 . S
C2627 N2625 1.356 . S
N2628 C2620 1.356 . S
N2628 H2634 0.984 . S
N2628 H2635 0.984 . S
N2629 C2622 1.356 . S
N2629 H2632 0.984 . S
N2629 H2633 0.985 . S
H2630 N2625 0.984 . S
H2631 N2625 0.985 . S
H2632 N2629 0.984 . S
H2633 N2629 0.985 . S
H2634 N2628 0.984 . S
H2635 N2628 0.984 . S
H2636 N2624 0.984 . S
H2637 N2624 0.985 . S
C2638 C2639 1.363 . S
C2638 C2644 1.379 . S
C2638 N2646 1.356 . S
C2639 C2638 1.363 . S
C2639 C2645 1.363 . S
C2640 C2641 1.363 . S
C2640 C2645 1.379 . S
C2640 N2647 1.356 . S
C2641 C2640 1.363 . S
C2641 C2644 1.363 . S
N2642 C2644 1.356 . S
N2642 H2654 0.984 . S
N2642 H2655 0.985 . S
N2643 C2645 1.356 . S
N2643 H2648 0.984 . S
N2643 H2649 0.985 . S
C2644 C2638 1.379 . S
C2644 C2641 1.363 . S
C2644 N2642 1.356 . S
C2645 C2639 1.363 . S
C2645 C2640 1.379 . S
C2645 N2643 1.356 . S
N2646 C2638 1.356 . S
N2646 H2652 0.984 . S
N2646 H2653 0.984 . S
N2647 C2640 1.356 . S
N2647 H2650 0.984 . S
N2647 H2651 0.985 . S
H2648 N2643 0.984 . S
H2649 N2643 0.985 . S
H2650 N2647 0.984 . S
H2651 N2647 0.985 . S
H2652 N2646 0.984 . S
H2653 N2646 0.984 . S
H2654 N2642 0.984 . S
H2655 N2642 0.985 . S
C2656 C2657 1.363 . S
C2656 C2662 1.379 . S
C2656 N2664 1.356 . S
C2657 C2656 1.363 . S
C2657 C2663 1.363 . S
C2658 C2659 1.363 . S
C2658 C2663 1.379 . S
C2658 N2665 1.356 . S
C2659 C2658 1.363 . S
C2659 C2662 1.363 . S
N2660 C2662 1.356 . S
N2660 H2672 0.984 . S
N2660 H2673 0.985 . S
N2661 C2663 1.356 . S
N2661 H2666 0.984 . S
N2661 H2667 0.985 . S
C2662 C2656 1.379 . S
C2662 C2659 1.363 . S
C2662 N2660 1.356 . S
C2663 C2657 1.363 . S
C2663 C2658 1.379 . S
C2663 N2661 1.356 . S
N2664 C2656 1.356 . S
N2664 H2670 0.984 . S
N2664 H2671 0.984 . S
N2665 C2658 1.356 . S
N2665 H2668 0.984 . S
N2665 H2669 0.985 . S
H2666 N2661 0.984 . S
H2667 N2661 0.985 . S
H2668 N2665 0.984 . S
H2669 N2665 0.985 . S
H2670 N2664 0.984 . S
H2671 N2664 0.984 . S
H2672 N2660 0.984 . S
H2673 N2660 0.985 . S
C2674 C2675 1.363 . S
C2674 C2680 1.379 . S
C2674 N2682 1.356 . S
C2675 C2674 1.363 . S
C2675 C2681 1.363 . S
C2676 C2677 1.363 . S
C2676 C2681 1.379 . S
C2676 N2683 1.356 . S
C2677 C2676 1.363 . S
C2677 C2680 1.363 . S
N2678 C2680 1.356 . S
N2678 H2690 0.984 . S
N2678 H2691 0.985 . S
N2679 C2681 1.356 . S
N2679 H2684 0.984 . S
N2679 H2685 0.985 . S
C2680 C2674 1.379 . S
C2680 C2677 1.363 . S
C2680 N2678 1.356 . S
C2681 C2675 1.363 . S
C2681 C2676 1.379 . S
C2681 N2679 1.356 . S
N2682 C2674 1.356 . S
N2682 H2688 0.984 . S
N2682 H2689 0.984 . S
N2683 C2676 1.356 . S
N2683 H2686 0.984 . S
N2683 H2687 0.985 . S
H2684 N2679 0.984 . S
H2685 N2679 0.985 . S
H2686 N2683 0.984 . S
H2687 N2683 0.985 . S
H2688 N2682 0.984 . S
H2689 N2682 0.984 . S
H2690 N2678 0.984 . S
H2691 N2678 0.985 . S
C2692 C2693 1.363 . S
C2692 C2698 1.379 . S
C2692 N2700 1.356 . S
C2693 C2692 1.363 . S
C2693 C2699 1.363 . S
C2694 C2695 1.363 . S
C2694 C2699 1.379 . S
C2694 N2701 1.356 . S
C2695 C2694 1.363 . S
C2695 C2698 1.363 . S
N2696 C2698 1.356 . S
N2696 H2708 0.984 . S
N2696 H2709 0.985 . S
N2697 C2699 1.356 . S
N2697 H2702 0.984 . S
N2697 H2703 0.985 . S
C2698 C2692 1.379 . S
C2698 C2695 1.363 . S
C2698 N2696 1.356 . S
C2699 C2693 1.363 . S
C2699 C2694 1.379 . S
C2699 N2697 1.356 . S
N2700 C2692 1.356 . S
N2700 H2706 0.984 . S
N2700 H2707 0.984 . S
N2701 C2694 1.356 . S
N2701 H2704 0.984 . S
N2701 H2705 0.985 . S
H2702 N2697 0.984 . S
H2703 N2697 0.985 . S
H2704 N2701 0.984 . S
H2705 N2701 0.985 . S
H2706 N2700 0.984 . S
H2707 N2700 0.984 . S
H2708 N2696 0.984 . S
H2709 N2696 0.985 . S
C2710 C2711 1.363 1_556 S
C2710 C2716 1.379 . S
C2710 N2718 1.356 . S
C2711 C2710 1.363 1_554 S
C2711 C2717 1.363 1_565 S
C2712 C2713 1.363 . S
C2712 C2717 1.379 . S
C2712 N2719 1.356 . S
C2713 C2712 1.363 . S
C2713 C2716 1.363 1_544 S
N2714 C2716 1.356 . S
N2714 H2726 0.984 . S
N2714 H2727 0.985 . S
N2715 C2717 1.356 . S
N2715 H2720 0.984 . S
N2715 H2721 0.985 . S
C2716 C2710 1.379 . S
C2716 C2713 1.363 1_566 S
C2716 N2714 1.356 . S
C2717 C2711 1.363 1_545 S
C2717 C2712 1.379 . S
C2717 N2715 1.356 . S
N2718 C2710 1.356 . S
N2718 H2724 0.984 . S
N2718 H2725 0.984 . S
N2719 C2712 1.356 . S
N2719 H2722 0.984 . S
N2719 H2723 0.985 . S
H2720 N2715 0.984 . S
H2721 N2715 0.985 . S
H2722 N2719 0.984 . S
H2723 N2719 0.985 . S
H2724 N2718 0.984 . S
H2725 N2718 0.984 . S
H2726 N2714 0.984 . S
H2727 N2714 0.985 . S
C2728 C2729 1.363 . S
C2728 C2734 1.379 . S
C2728 N2736 1.356 . S
C2729 C2728 1.363 . S
C2729 C2735 1.363 . S
C2730 C2731 1.363 . S
C2730 C2735 1.379 . S
C2730 N2737 1.356 . S
C2731 C2730 1.363 . S
C2731 C2734 1.363 . S
N2732 C2734 1.356 . S
N2732 H2744 0.984 . S
N2732 H2745 0.985 . S
N2733 C2735 1.356 . S
N2733 H2738 0.984 . S
N2733 H2739 0.985 . S
C2734 C2728 1.379 . S
C2734 C2731 1.363 . S
C2734 N2732 1.356 . S
C2735 C2729 1.363 . S
C2735 C2730 1.379 . S
C2735 N2733 1.356 . S
N2736 C2728 1.356 . S
N2736 H2742 0.984 . S
N2736 H2743 0.984 . S
N2737 C2730 1.356 . S
N2737 H2740 0.984 . S
N2737 H2741 0.985 . S
H2738 N2733 0.984 . S
H2739 N2733 0.985 . S
H2740 N2737 0.984 . S
H2741 N2737 0.985 . S
H2742 N2736 0.984 . S
H2743 N2736 0.984 . S
H2744 N2732 0.984 . S
H2745 N2732 0.985 . S
C2746 C2747 1.363 . S
C2746 C2752 1.379 . S
C2746 N2754 1.342 1_554 S
C2747 C2746 1.363 . S
C2747 C2753 1.363 . S
C2748 C2749 1.363 . S
C2748 C2753 1.379 . S
C2748 N2755 1.356 . S
C2749 C2748 1.363 . S
C2749 C2752 1.363 . S
N2750 C2752 1.356 . S
N2750 H2762 0.984 . S
N2750 H2763 0.985 . S
N2751 C2753 1.356 . S
N2751 H2756 0.984 . S
N2751 H2757 0.985 . S
C2752 C2746 1.379 . S
C2752 C2749 1.363 . S
C2752 N2750 1.356 . S
C2753 C2747 1.363 . S
C2753 C2748 1.379 . S
C2753 N2751 1.356 . S
N2754 C2746 1.342 1_556 S
N2754 H2760 0.982 . S
N2754 H2761 1.003 . S
N2755 C2748 1.356 . S
N2755 H2758 0.984 . S
N2755 H2759 0.985 . S
H2756 N2751 0.984 . S
H2757 N2751 0.985 . S
H2758 N2755 0.984 . S
H2759 N2755 0.985 . S
H2760 N2754 0.982 . S
H2761 N2754 1.003 . S
H2762 N2750 0.984 . S
H2763 N2750 0.985 . S
C2764 C2765 1.363 . S
C2764 C2770 1.379 . S
C2764 N2772 1.356 . S
C2765 C2764 1.363 . S
C2765 C2771 1.363 . S
C2766 C2767 1.363 . S
C2766 C2771 1.379 . S
C2766 N2773 1.356 . S
C2767 C2766 1.363 . S
C2767 C2770 1.363 . S
N2768 C2770 1.356 . S
N2768 H2780 0.984 . S
N2768 H2781 0.985 . S
N2769 C2771 1.356 . S
N2769 H2774 0.984 . S
N2769 H2775 0.985 . S
C2770 C2764 1.379 . S
C2770 C2767 1.363 . S
C2770 N2768 1.356 . S
C2771 C2765 1.363 . S
C2771 C2766 1.379 . S
C2771 N2769 1.356 . S
N2772 C2764 1.356 . S
N2772 H2778 0.984 . S
N2772 H2779 0.984 . S
N2773 C2766 1.356 . S
N2773 H2776 0.984 . S
N2773 H2777 0.985 . S
H2774 N2769 0.984 . S
H2775 N2769 0.985 . S
H2776 N2773 0.984 . S
H2777 N2773 0.985 . S
H2778 N2772 0.984 . S
H2779 N2772 0.984 . S
H2780 N2768 0.984 . S
H2781 N2768 0.985 . S
C2782 C2783 1.363 . S
C2782 C2788 1.379 . S
C2782 N2790 1.356 . S
C2783 C2782 1.363 . S
C2783 C2789 1.363 . S
C2784 C2785 1.363 . S
C2784 C2789 1.379 . S
C2784 N2791 1.356 . S
C2785 C2784 1.363 . S
C2785 C2788 1.363 . S
N2786 C2788 1.356 . S
N2786 H2798 0.984 . S
N2786 H2799 0.985 . S
N2787 C2789 1.356 . S
N2787 H2792 0.984 . S
N2787 H2793 0.985 . S
C2788 C2782 1.379 . S
C2788 C2785 1.363 . S
C2788 N2786 1.356 . S
C2789 C2783 1.363 . S
C2789 C2784 1.379 . S
C2789 N2787 1.356 . S
N2790 C2782 1.356 . S
N2790 H2796 0.984 . S
N2790 H2797 0.984 . S
N2791 C2784 1.356 . S
N2791 H2794 0.984 . S
N2791 H2795 0.985 . S
H2792 N2787 0.984 . S
H2793 N2787 0.985 . S
H2794 N2791 0.984 . S
H2795 N2791 0.985 . S
H2796 N2790 0.984 . S
H2797 N2790 0.984 . S
H2798 N2786 0.984 . S
H2799 N2786 0.985 . S
C2800 C2801 1.363 . S
C2800 C2806 1.379 . S
C2800 N2808 1.356 . S
C2801 C2800 1.363 . S
C2801 C2807 1.363 . S
C2802 C2803 1.363 . S
C2802 C2807 1.379 . S
C2802 N2809 1.356 . S
C2803 C2802 1.363 . S
C2803 C2806 1.363 . S
N2804 C2806 1.356 . S
N2804 H2816 0.984 . S
N2804 H2817 0.985 . S
N2805 C2807 1.356 . S
N2805 H2810 0.984 . S
N2805 H2811 0.985 . S
C2806 C2800 1.379 . S
C2806 C2803 1.363 . S
C2806 N2804 1.356 . S
C2807 C2801 1.363 . S
C2807 C2802 1.379 . S
C2807 N2805 1.356 . S
N2808 C2800 1.356 . S
N2808 H2814 0.984 . S
N2808 H2815 0.984 . S
N2809 C2802 1.356 . S
N2809 H2812 0.984 . S
N2809 H2813 0.985 . S
H2810 N2805 0.984 . S
H2811 N2805 0.985 . S
H2812 N2809 0.984 . S
H2813 N2809 0.985 . S
H2814 N2808 0.984 . S
H2815 N2808 0.984 . S
H2816 N2804 0.984 . S
H2817 N2804 0.985 . S
C2818 C2819 1.363 . S
C2818 C2824 1.379 . S
C2818 N2826 1.356 . S
C2819 C2818 1.363 . S
C2819 C2825 1.363 . S
C2820 C2821 1.363 . S
C2820 C2825 1.379 . S
C2820 N2827 1.356 . S
C2821 C2820 1.363 . S
C2821 C2824 1.363 . S
N2822 C2824 1.356 . S
N2822 H2834 0.984 . S
N2822 H2835 0.985 . S
N2823 C2825 1.356 . S
N2823 H2828 0.984 . S
N2823 H2829 0.985 . S
C2824 C2818 1.379 . S
C2824 C2821 1.363 . S
C2824 N2822 1.356 . S
C2825 C2819 1.363 . S
C2825 C2820 1.379 . S
C2825 N2823 1.356 . S
N2826 C2818 1.356 . S
N2826 H2832 0.984 . S
N2826 H2833 0.984 . S
N2827 C2820 1.356 . S
N2827 H2830 0.984 . S
N2827 H2831 0.985 . S
H2828 N2823 0.984 . S
H2829 N2823 0.985 . S
H2830 N2827 0.984 . S
H2831 N2827 0.985 . S
H2832 N2826 0.984 . S
H2833 N2826 0.984 . S
H2834 N2822 0.984 . S
H2835 N2822 0.985 . S
C2836 C2837 1.363 . S
C2836 C2842 1.379 . S
C2836 N2844 1.356 . S
C2837 C2836 1.363 . S
C2837 C2843 1.363 . S
C2838 C2839 1.363 . S
C2838 C2843 1.379 . S
C2838 N2845 1.356 . S
C2839 C2838 1.363 . S
C2839 C2842 1.363 . S
N2840 C2842 1.356 1_556 S
N2840 H2852 0.984 . S
N2840 H2853 0.985 . S
N2841 C2843 1.356 . S
N2841 H2846 0.984 . S
N2841 H2847 0.985 . S
C2842 C2836 1.379 . S
C2842 C2839 1.363 . S
C2842 N2840 1.356 1_554 S
C2843 C2837 1.363 . S
C2843 C2838 1.379 . S
C2843 N2841 1.356 . S
N2844 C2836 1.356 . S
N2844 H2850 0.984 . S
N2844 H2851 0.984 . S
N2845 C2838 1.356 . S
N2845 H2848 0.984 . S
N2845 H2849 0.985 . S
H2846 N2841 0.984 . S
H2847 N2841 0.985 . S
H2848 N2845 0.984 . S
H2849 N2845 0.985 . S
H2850 N2844 0.984 . S
H2851 N2844 0.984 . S
H2852 N2840 0.984 . S
H2853 N2840 0.985 . S
C2854 C2855 1.363 . S
C2854 C2860 1.379 . S
C2854 N2862 1.356 . S
C2855 C2854 1.363 . S
C2855 C2861 1.363 . S
C2856 C2857 1.363 . S
C2856 C2861 1.379 . S
C2856 N2863 1.356 . S
C2857 C2856 1.363 . S
C2857 C2860 1.363 . S
N2858 C2860 1.356 . S
N2858 H2870 0.984 . S
N2858 H2871 0.985 . S
N2859 C2861 1.356 . S
N2859 H2864 0.984 . S
N2859 H2865 0.985 . S
C2860 C2854 1.379 . S
C2860 C2857 1.363 . S
C2860 N2858 1.356 . S
C2861 C2855 1.363 . S
C2861 C2856 1.379 . S
C2861 N2859 1.356 . S
N2862 C2854 1.356 . S
N2862 H2868 0.984 . S
N2862 H2869 0.984 . S
N2863 C2856 1.356 . S
N2863 H2866 0.984 . S
N2863 H2867 0.985 . S
H2864 N2859 0.984 . S
H2865 N2859 0.985 . S
H2866 N2863 0.984 . S
H2867 N2863 0.985 . S
H2868 N2862 0.984 . S
H2869 N2862 0.984 . S
H2870 N2858 0.984 . S
H2871 N2858 0.985 . S
C2872 C2873 1.363 . S
C2872 C2878 1.379 . S
C2872 N2880 1.356 . S
C2873 C2872 1.363 . S
C2873 C2879 1.363 . S
C2874 C2875 1.363 . S
C2874 C2879 1.379 . S
C2874 N2881 1.356 . S
C2875 C2874 1.363 . S
C2875 C2878 1.363 . S
N2876 C2878 1.356 . S
N2876 H2888 0.984 1_556 S
N2876 H2889 0.985 . S
N2877 C2879 1.356 . S
N2877 H2882 0.984 . S
N2877 H2883 0.985 . S
C2878 C2872 1.379 . S
C2878 C2875 1.363 . S
C2878 N2876 1.356 . S
C2879 C2873 1.363 . S
C2879 C2874 1.379 . S
C2879 N2877 1.356 . S
N2880 C2872 1.356 . S
N2880 H2886 0.984 . S
N2880 H2887 0.984 . S
N2881 C2874 1.356 . S
N2881 H2884 0.984 . S
N2881 H2885 0.985 . S
H2882 N2877 0.984 . S
H2883 N2877 0.985 . S
H2884 N2881 0.984 . S
H2885 N2881 0.985 . S
H2886 N2880 0.984 . S
H2887 N2880 0.984 . S
H2888 N2876 0.984 1_554 S
H2889 N2876 0.985 . S
C2890 C2891 1.363 . S
C2890 C2896 1.379 . S
C2890 N2898 1.356 . S
C2891 C2890 1.363 . S
C2891 C2897 1.363 . S
C2892 C2893 1.363 . S
C2892 C2897 1.379 . S
C2892 N2899 1.356 . S
C2893 C2892 1.363 . S
C2893 C2896 1.363 . S
N2894 C2896 1.356 . S
N2894 H2906 0.984 . S
N2894 H2907 0.985 . S
N2895 C2897 1.356 . S
N2895 H2900 0.984 . S
N2895 H2901 0.985 . S
C2896 C2890 1.379 . S
C2896 C2893 1.363 . S
C2896 N2894 1.356 . S
C2897 C2891 1.363 . S
C2897 C2892 1.379 . S
C2897 N2895 1.356 . S
N2898 C2890 1.356 . S
N2898 H2904 0.984 . S
N2898 H2905 0.984 . S
N2899 C2892 1.356 . S
N2899 H2902 0.984 . S
N2899 H2903 0.985 . S
H2900 N2895 0.984 . S
H2901 N2895 0.985 . S
H2902 N2899 0.984 . S
H2903 N2899 0.985 . S
H2904 N2898 0.984 . S
H2905 N2898 0.984 . S
H2906 N2894 0.984 . S
H2907 N2894 0.985 . S
C2908 C2909 1.363 . S
C2908 C2914 1.379 . S
C2908 N2916 1.356 . S
C2909 C2908 1.363 . S
C2909 C2915 1.363 . S
C2910 C2911 1.363 . S
C2910 C2915 1.379 . S
C2910 N2917 1.356 . S
C2911 C2910 1.363 . S
C2911 C2914 1.363 . S
N2912 C2914 1.356 . S
N2912 H2924 0.984 . S
N2912 H2925 0.985 . S
N2913 C2915 1.356 . S
N2913 H2918 0.984 . S
N2913 H2919 0.985 . S
C2914 C2908 1.379 . S
C2914 C2911 1.363 . S
C2914 N2912 1.356 . S
C2915 C2909 1.363 . S
C2915 C2910 1.379 . S
C2915 N2913 1.356 . S
N2916 C2908 1.356 . S
N2916 H2922 0.984 . S
N2916 H2923 0.984 . S
N2917 C2910 1.356 . S
N2917 H2920 0.984 . S
N2917 H2921 0.985 . S
H2918 N2913 0.984 . S
H2919 N2913 0.985 . S
H2920 N2917 0.984 . S
H2921 N2917 0.985 . S
H2922 N2916 0.984 . S
H2923 N2916 0.984 . S
H2924 N2912 0.984 . S
H2925 N2912 0.985 . S
C2926 C2927 1.363 . S
C2926 C2932 1.379 . S
C2926 N2934 1.356 . S
C2927 C2926 1.363 . S
C2927 C2933 1.363 . S
C2928 C2929 1.363 . S
C2928 C2933 1.379 . S
C2928 N2935 1.356 . S
C2929 C2928 1.363 . S
C2929 C2932 1.363 . S
N2930 C2932 1.356 . S
N2930 H2942 0.984 . S
N2930 H2943 0.985 . S
N2931 C2933 1.356 . S
N2931 H2936 0.984 . S
N2931 H2937 0.985 . S
C2932 C2926 1.379 . S
C2932 C2929 1.363 . S
C2932 N2930 1.356 . S
C2933 C2927 1.363 . S
C2933 C2928 1.379 . S
C2933 N2931 1.356 . S
N2934 C2926 1.356 . S
N2934 H2940 0.984 . S
N2934 H2941 0.984 . S
N2935 C2928 1.356 . S
N2935 H2938 0.984 . S
N2935 H2939 0.985 . S
H2936 N2931 0.984 . S
H2937 N2931 0.985 . S
H2938 N2935 0.984 . S
H2939 N2935 0.985 . S
H2940 N2934 0.984 . S
H2941 N2934 0.984 . S
H2942 N2930 0.984 . S
H2943 N2930 0.985 . S
C2944 C2945 1.363 . S
C2944 C2950 1.379 . S
C2944 N2952 1.356 . S
C2945 C2944 1.363 . S
C2945 C2951 1.363 . S
C2946 C2947 1.363 . S
C2946 C2951 1.379 . S
C2946 N2953 1.356 . S
C2947 C2946 1.363 . S
C2947 C2950 1.363 . S
N2948 C2950 1.356 . S
N2948 H2960 0.984 . S
N2948 H2961 0.985 . S
N2949 C2951 1.356 . S
N2949 H2954 0.984 . S
N2949 H2955 0.985 . S
C2950 C2944 1.379 . S
C2950 C2947 1.363 . S
C2950 N2948 1.356 . S
C2951 C2945 1.363 . S
C2951 C2946 1.379 . S
C2951 N2949 1.356 . S
N2952 C2944 1.356 . S
N2952 H2958 0.984 . S
N2952 H2959 0.984 . S
N2953 C2946 1.356 . S
N2953 H2956 0.984 . S
N2953 H2957 0.985 . S
H2954 N2949 0.984 . S
H2955 N2949 0.985 . S
H2956 N2953 0.984 . S
H2957 N2953 0.985 . S
H2958 N2952 0.984 . S
H2959 N2952 0.984 . S
H2960 N2948 0.984 . S
H2961 N2948 0.985 . S
C2962 C2963 1.363 . S
C2962 C2968 1.379 . S
C2962 N2970 1.356 . S
C2963 C2962 1.363 . S
C2963 C2969 1.363 . S
C2964 C2965 1.363 . S
C2964 C2969 1.379 . S
C2964 N2971 1.356 . S
C2965 C2964 1.363 . S
C2965 C2968 1.363 . S
N2966 C2968 1.356 . S
N2966 H2978 0.984 . S
N2966 H2979 0.985 . S
N2967 C2969 1.356 . S
N2967 H2972 0.984 . S
N2967 H2973 0.985 . S
C2968 C2962 1.379 . S
C2968 C2965 1.363 . S
C2968 N2966 1.356 . S
C2969 C2963 1.363 . S
C2969 C2964 1.379 . S
C2969 N2967 1.356 . S
N2970 C2962 1.356 . S
N2970 H2976 0.984 . S
N2970 H2977 0.984 . S
N2971 C2964 1.356 . S
N2971 H2974 0.984 . S
N2971 H2975 0.985 . S
H2972 N2967 0.984 . S
H2973 N2967 0.985 . S
H2974 N2971 0.984 . S
H2975 N2971 0.985 . S
H2976 N2970 0.984 . S
H2977 N2970 0.984 . S
H2978 N2966 0.984 . S
H2979 N2966 0.985 . S
C2980 C2981 1.363 1_455 S
C2980 C2986 1.379 . S
C2980 N2988 1.356 . S
C2981 C2980 1.363 1_655 S
C2981 C2987 1.363 . S
C2982 C2983 1.363 . S
C2982 C2987 1.379 1_455 S
C2982 N2989 1.356 . S
C2983 C2982 1.363 . S
C2983 C2986 1.363 . S
N2984 C2986 1.356 . S
N2984 H2996 0.984 . S
N2984 H2997 0.985 . S
N2985 C2987 1.356 . S
N2985 H2990 0.984 . S
N2985 H2991 0.985 . S
C2986 C2980 1.379 . S
C2986 C2983 1.363 . S
C2986 N2984 1.356 . S
C2987 C2981 1.363 . S
C2987 C2982 1.379 1_655 S
C2987 N2985 1.356 . S
N2988 C2980 1.356 . S
N2988 H2994 0.984 . S
N2988 H2995 0.984 1_455 S
N2989 C2982 1.356 . S
N2989 H2992 0.984 . S
N2989 H2993 0.985 1_455 S
H2990 N2985 0.984 . S
H2991 N2985 0.985 . S
H2992 N2989 0.984 . S
H2993 N2989 0.985 1_655 S
H2994 N2988 0.984 . S
H2995 N2988 0.984 1_655 S
H2996 N2984 0.984 . S
H2997 N2984 0.985 . S
C2998 C2999 1.363 . S
C2998 C3004 1.379 . S
C2998 N3006 1.356 . S
C2999 C2998 1.363 . S
C2999 C3005 1.363 . S
C3000 C3001 1.363 . S
C3000 C3005 1.379 . S
C3000 N3007 1.356 . S
C3001 C3000 1.363 . S
C3001 C3004 1.363 . S
N3002 C3004 1.356 . S
N3002 H3014 0.984 . S
N3002 H3015 0.985 . S
N3003 C3005 1.356 . S
N3003 H3008 0.984 . S
N3003 H3009 0.985 . S
C3004 C2998 1.379 . S
C3004 C3001 1.363 . S
C3004 N3002 1.356 . S
C3005 C2999 1.363 . S
C3005 C3000 1.379 . S
C3005 N3003 1.356 . S
N3006 C2998 1.356 . S
N3006 H3012 0.984 . S
N3006 H3013 0.984 . S
N3007 C3000 1.356 . S
N3007 H3010 0.984 . S
N3007 H3011 0.985 . S
H3008 N3003 0.984 . S
H3009 N3003 0.985 . S
H3010 N3007 0.984 . S
H3011 N3007 0.985 . S
H3012 N3006 0.984 . S
H3013 N3006 0.984 . S
H3014 N3002 0.984 . S
H3015 N3002 0.985 . S
C3016 C3017 1.363 . S
C3016 C3022 1.379 . S
C3016 N3024 1.356 . S
C3017 C3016 1.363 . S
C3017 C3023 1.363 . S
C3018 C3019 1.363 . S
C3018 C3023 1.379 . S
C3018 N3025 1.356 . S
C3019 C3018 1.363 . S
C3019 C3022 1.363 . S
N3020 C3022 1.356 . S
N3020 H3032 0.984 . S
N3020 H3033 0.985 . S
N3021 C3023 1.356 . S
N3021 H3026 0.984 . S
N3021 H3027 0.985 . S
C3022 C3016 1.379 . S
C3022 C3019 1.363 . S
C3022 N3020 1.356 . S
C3023 C3017 1.363 . S
C3023 C3018 1.379 . S
C3023 N3021 1.356 . S
N3024 C3016 1.356 . S
N3024 H3030 0.984 . S
N3024 H3031 0.984 . S
N3025 C3018 1.356 . S
N3025 H3028 0.984 . S
N3025 H3029 0.985 . S
H3026 N3021 0.984 . S
H3027 N3021 0.985 . S
H3028 N3025 0.984 . S
H3029 N3025 0.985 . S
H3030 N3024 0.984 . S
H3031 N3024 0.984 . S
H3032 N3020 0.984 . S
H3033 N3020 0.985 . S
C3034 C3035 1.363 . S
C3034 C3040 1.379 . S
C3034 N3042 1.356 . S
C3035 C3034 1.363 . S
C3035 C3041 1.363 . S
C3036 C3037 1.363 . S
C3036 C3041 1.379 . S
C3036 N3043 1.356 . S
C3037 C3036 1.363 . S
C3037 C3040 1.363 . S
N3038 C3040 1.356 . S
N3038 H3050 0.984 . S
N3038 H3051 0.985 . S
N3039 C3041 1.356 . S
N3039 H3044 0.984 . S
N3039 H3045 0.985 . S
C3040 C3034 1.379 . S
C3040 C3037 1.363 . S
C3040 N3038 1.356 . S
C3041 C3035 1.363 . S
C3041 C3036 1.379 . S
C3041 N3039 1.356 . S
N3042 C3034 1.356 . S
N3042 H3048 0.984 . S
N3042 H3049 0.984 . S
N3043 C3036 1.356 . S
N3043 H3046 0.984 . S
N3043 H3047 0.985 . S
H3044 N3039 0.984 . S
H3045 N3039 0.985 . S
H3046 N3043 0.984 . S
H3047 N3043 0.985 . S
H3048 N3042 0.984 . S
H3049 N3042 0.984 . S
H3050 N3038 0.984 . S
H3051 N3038 0.985 . S
C3052 C3053 1.363 . S
C3052 C3058 1.379 . S
C3052 N3060 1.356 . S
C3053 C3052 1.363 . S
C3053 C3059 1.363 . S
C3054 C3055 1.349 1_455 S
C3054 C3059 1.358 1_455 S
C3054 N3061 1.392 . S
C3055 C3054 1.349 1_655 S
C3055 C3058 1.363 . S
N3056 C3058 1.356 . S
N3056 H3068 0.984 . S
N3056 H3069 0.985 . S
N3057 C3059 1.353 1_455 S
N3057 H3062 0.966 1_455 S
N3057 H3063 1.007 . S
C3058 C3052 1.379 . S
C3058 C3055 1.363 . S
C3058 N3056 1.356 . S
C3059 C3053 1.363 . S
C3059 C3054 1.358 1_655 S
C3059 N3057 1.353 1_655 S
N3060 C3052 1.356 . S
N3060 H3066 0.984 . S
N3060 H3067 0.984 . S
N3061 C3054 1.392 . S
N3061 H3064 0.984 . S
N3061 H3065 0.985 . S
H3062 N3057 0.966 1_655 S
H3063 N3057 1.007 . S
H3064 N3061 0.984 . S
H3065 N3061 0.985 . S
H3066 N3060 0.984 . S
H3067 N3060 0.984 . S
H3068 N3056 0.984 . S
H3069 N3056 0.985 . S
C3070 C3071 1.363 . S
C3070 C3076 1.379 . S
C3070 N3078 1.356 . S
C3071 C3070 1.363 . S
C3071 C3077 1.363 . S
C3072 C3073 1.363 . S
C3072 C3077 1.379 . S
C3072 N3079 1.356 . S
C3073 C3072 1.363 . S
C3073 C3076 1.363 . S
N3074 C3076 1.356 . S
N3074 H3086 0.984 . S
N3074 H3087 0.985 . S
N3075 C3077 1.356 . S
N3075 H3080 0.984 . S
N3075 H3081 0.985 . S
C3076 C3070 1.379 . S
C3076 C3073 1.363 . S
C3076 N3074 1.356 . S
C3077 C3071 1.363 . S
C3077 C3072 1.379 . S
C3077 N3075 1.356 . S
N3078 C3070 1.356 . S
N3078 H3084 0.984 . S
N3078 H3085 0.984 . S
N3079 C3072 1.356 . S
N3079 H3082 0.984 . S
N3079 H3083 0.985 . S
H3080 N3075 0.984 . S
H3081 N3075 0.985 . S
H3082 N3079 0.984 . S
H3083 N3079 0.985 . S
H3084 N3078 0.984 . S
H3085 N3078 0.984 . S
H3086 N3074 0.984 . S
H3087 N3074 0.985 . S
C3088 C3089 1.363 . S
C3088 C3094 1.379 . S
C3088 N3096 1.356 . S
C3089 C3088 1.363 . S
C3089 C3095 1.363 . S
C3090 C3091 1.363 . S
C3090 C3095 1.379 . S
C3090 N3097 1.356 . S
C3091 C3090 1.363 . S
C3091 C3094 1.363 . S
N3092 C3094 1.356 . S
N3092 H3104 0.984 . S
N3092 H3105 0.985 . S
N3093 C3095 1.356 . S
N3093 H3098 0.984 . S
N3093 H3099 0.985 . S
C3094 C3088 1.379 . S
C3094 C3091 1.363 . S
C3094 N3092 1.356 . S
C3095 C3089 1.363 . S
C3095 C3090 1.379 . S
C3095 N3093 1.356 . S
N3096 C3088 1.356 . S
N3096 H3102 0.984 . S
N3096 H3103 0.984 . S
N3097 C3090 1.356 . S
N3097 H3100 0.984 . S
N3097 H3101 0.985 . S
H3098 N3093 0.984 . S
H3099 N3093 0.985 . S
H3100 N3097 0.984 . S
H3101 N3097 0.985 . S
H3102 N3096 0.984 . S
H3103 N3096 0.984 . S
H3104 N3092 0.984 . S
H3105 N3092 0.985 . S
C3106 C3107 1.363 . S
C3106 C3112 1.379 1_565 S
C3106 N3114 1.356 . S
C3107 C3106 1.363 . S
C3107 C3113 1.363 . S
C3108 C3109 1.363 . S
C3108 C3113 1.379 . S
C3108 N3115 1.356 . S
C3109 C3108 1.363 . S
C3109 C3112 1.363 1_565 S
N3110 C3112 1.356 . S
N3110 H3122 0.984 . S
N3110 H3123 0.985 . S
N3111 C3113 1.356 . S
N3111 H3116 0.984 . S
N3111 H3117 0.985 . S
C3112 C3106 1.379 1_545 S
C3112 C3109 1.363 1_545 S
C3112 N3110 1.356 . S
C3113 C3107 1.363 . S
C3113 C3108 1.379 . S
C3113 N3111 1.356 . S
N3114 C3106 1.356 . S
N3114 H3120 0.984 . S
N3114 H3121 0.984 . S
N3115 C3108 1.356 . S
N3115 H3118 0.984 1_655 S
N3115 H3119 0.985 . S
H3116 N3111 0.984 . S
H3117 N3111 0.985 . S
H3118 N3115 0.984 1_455 S
H3119 N3115 0.985 . S
H3120 N3114 0.984 . S
H3121 N3114 0.984 . S
H3122 N3110 0.984 . S
H3123 N3110 0.985 . S
C3124 C3125 1.363 . S
C3124 C3130 1.379 . S
C3124 N3132 1.356 . S
C3125 C3124 1.363 . S
C3125 C3131 1.363 . S
C3126 C3127 1.363 . S
C3126 C3131 1.379 . S
C3126 N3133 1.356 . S
C3127 C3126 1.363 . S
C3127 C3130 1.363 . S
N3128 C3130 1.356 . S
N3128 H3140 0.984 . S
N3128 H3141 0.985 . S
N3129 C3131 1.356 . S
N3129 H3134 0.984 . S
N3129 H3135 0.985 . S
C3130 C3124 1.379 . S
C3130 C3127 1.363 . S
C3130 N3128 1.356 . S
C3131 C3125 1.363 . S
C3131 C3126 1.379 . S
C3131 N3129 1.356 . S
N3132 C3124 1.356 . S
N3132 H3138 0.984 . S
N3132 H3139 0.984 . S
N3133 C3126 1.356 . S
N3133 H3136 0.984 . S
N3133 H3137 0.985 . S
H3134 N3129 0.984 . S
H3135 N3129 0.985 . S
H3136 N3133 0.984 . S
H3137 N3133 0.985 . S
H3138 N3132 0.984 . S
H3139 N3132 0.984 . S
H3140 N3128 0.984 . S
H3141 N3128 0.985 . S
C3142 C3143 1.363 . S
C3142 C3148 1.379 . S
C3142 N3150 1.356 . S
C3143 C3142 1.363 . S
C3143 C3149 1.364 . S
C3144 C3145 1.363 1_556 S
C3144 C3149 1.379 1_556 S
C3144 N3151 1.356 . S
C3145 C3144 1.363 1_554 S
C3145 C3148 1.363 . S
N3146 C3148 1.356 . S
N3146 H3158 0.984 . S
N3146 H3159 0.985 . S
N3147 C3149 1.356 1_556 S
N3147 H3152 0.984 . S
N3147 H3153 0.985 . S
C3148 C3142 1.379 . S
C3148 C3145 1.363 . S
C3148 N3146 1.356 . S
C3149 C3143 1.364 . S
C3149 C3144 1.379 1_554 S
C3149 N3147 1.356 1_554 S
N3150 C3142 1.356 . S
N3150 H3156 0.984 . S
N3150 H3157 0.984 . S
N3151 C3144 1.356 . S
N3151 H3154 0.984 . S
N3151 H3155 0.985 . S
H3152 N3147 0.984 . S
H3153 N3147 0.985 . S
H3154 N3151 0.984 . S
H3155 N3151 0.985 . S
H3156 N3150 0.984 . S
H3157 N3150 0.984 . S
H3158 N3146 0.984 . S
H3159 N3146 0.985 . S
C3160 C3161 1.363 . S
C3160 C3166 1.379 . S
C3160 N3168 1.356 . S
C3161 C3160 1.363 . S
C3161 C3167 1.363 . S
C3162 C3163 1.363 . S
C3162 C3167 1.379 . S
C3162 N3169 1.356 . S
C3163 C3162 1.363 . S
C3163 C3166 1.363 . S
N3164 C3166 1.356 . S
N3164 H3176 0.984 . S
N3164 H3177 0.985 . S
N3165 C3167 1.356 . S
N3165 H3170 0.984 . S
N3165 H3171 0.985 . S
C3166 C3160 1.379 . S
C3166 C3163 1.363 . S
C3166 N3164 1.356 . S
C3167 C3161 1.363 . S
C3167 C3162 1.379 . S
C3167 N3165 1.356 . S
N3168 C3160 1.356 . S
N3168 H3174 0.984 . S
N3168 H3175 0.984 . S
N3169 C3162 1.356 . S
N3169 H3172 0.984 . S
N3169 H3173 0.985 . S
H3170 N3165 0.984 . S
H3171 N3165 0.985 . S
H3172 N3169 0.984 . S
H3173 N3169 0.985 . S
H3174 N3168 0.984 . S
H3175 N3168 0.984 . S
H3176 N3164 0.984 . S
H3177 N3164 0.985 . S
C3178 C3179 1.363 . S
C3178 C3184 1.379 . S
C3178 N3186 1.356 . S
C3179 C3178 1.363 . S
C3179 C3185 1.363 1_554 S
C3180 C3181 1.363 . S
C3180 C3185 1.379 . S
C3180 N3187 1.356 . S
C3181 C3180 1.363 . S
C3181 C3184 1.363 1_556 S
N3182 C3184 1.356 . S
N3182 H3194 0.984 . S
N3182 H3195 0.985 1_554 S
N3183 C3185 1.356 . S
N3183 H3188 0.984 1_556 S
N3183 H3189 0.985 . S
C3184 C3178 1.379 . S
C3184 C3181 1.363 1_554 S
C3184 N3182 1.356 . S
C3185 C3179 1.363 1_556 S
C3185 C3180 1.379 . S
C3185 N3183 1.356 . S
N3186 C3178 1.356 . S
N3186 H3192 0.984 . S
N3186 H3193 0.984 . S
N3187 C3180 1.356 . S
N3187 H3190 0.984 . S
N3187 H3191 0.985 . S
H3188 N3183 0.984 1_554 S
H3189 N3183 0.985 . S
H3190 N3187 0.984 . S
H3191 N3187 0.985 . S
H3192 N3186 0.984 . S
H3193 N3186 0.984 . S
H3194 N3182 0.984 . S
H3195 N3182 0.985 1_556 S
C3196 C3197 1.363 . S
C3196 C3202 1.379 . S
C3196 N3204 1.356 . S
C3197 C3196 1.363 . S
C3197 C3203 1.363 . S
C3198 C3199 1.363 . S
C3198 C3203 1.379 . S
C3198 N3205 1.356 . S
C3199 C3198 1.363 . S
C3199 C3202 1.363 . S
N3200 C3202 1.356 . S
N3200 H3212 0.984 . S
N3200 H3213 0.985 . S
N3201 C3203 1.356 . S
N3201 H3206 0.984 . S
N3201 H3207 0.985 . S
C3202 C3196 1.379 . S
C3202 C3199 1.363 . S
C3202 N3200 1.356 . S
C3203 C3197 1.363 . S
C3203 C3198 1.379 . S
C3203 N3201 1.356 . S
N3204 C3196 1.356 . S
N3204 H3210 0.984 . S
N3204 H3211 0.984 1_565 S
N3205 C3198 1.356 . S
N3205 H3208 0.984 . S
N3205 H3209 0.985 . S
H3206 N3201 0.984 . S
H3207 N3201 0.985 . S
H3208 N3205 0.984 . S
H3209 N3205 0.985 . S
H3210 N3204 0.984 . S
H3211 N3204 0.984 1_545 S
H3212 N3200 0.984 . S
H3213 N3200 0.985 . S
C3214 C3215 1.363 . S
C3214 C3220 1.379 . S
C3214 N3222 1.356 . S
C3215 C3214 1.363 . S
C3215 C3221 1.363 . S
C3216 C3217 1.363 . S
C3216 C3221 1.379 . S
C3216 N3223 1.356 . S
C3217 C3216 1.363 . S
C3217 C3220 1.363 . S
N3218 C3220 1.356 . S
N3218 H3230 0.984 . S
N3218 H3231 0.985 . S
N3219 C3221 1.356 . S
N3219 H3224 0.984 . S
N3219 H3225 0.985 . S
C3220 C3214 1.379 . S
C3220 C3217 1.363 . S
C3220 N3218 1.356 . S
C3221 C3215 1.363 . S
C3221 C3216 1.379 . S
C3221 N3219 1.356 . S
N3222 C3214 1.356 . S
N3222 H3228 0.984 . S
N3222 H3229 0.984 . S
N3223 C3216 1.356 . S
N3223 H3226 0.984 . S
N3223 H3227 0.985 . S
H3224 N3219 0.984 . S
H3225 N3219 0.985 . S
H3226 N3223 0.984 . S
H3227 N3223 0.985 . S
H3228 N3222 0.984 . S
H3229 N3222 0.984 . S
H3230 N3218 0.984 . S
H3231 N3218 0.985 . S
C1505 C255 2.261 . S
C1507 C866 2.273 1_556 S
C1523 C147 2.184 . S
C1525 C923 2.232 . S
C1541 C184 1.367 . S
C1543 C946 1.361 . S
C1561 C1000 1.354 . S
C1559 C220 1.378 . S
C1577 C40 1.590 . S
C1579 C1040 1.507 . S
C1597 C1071 0.819 . S
C1595 C74 0.832 . S
C1615 C1123 1.676 . S
C1613 C110 1.580 . S
C1631 C14 2.012 . S
C1633 C1146 1.932 . S
C1651 C883 2.524 . S
C1649 C579 2.521 1_455 S
C1667 C616 0.812 . S
C1669 C920 0.797 . S
C1687 C963 1.295 . S
C1685 C687 1.281 . S
C1705 C986 1.594 . S
C1703 C436 1.568 . S
C1721 C580 2.035 1_455 S
C1723 C1026 2.062 . S
C1741 C1074 1.429 . S
C1739 C615 1.427 . S
C1759 C1120 0.710 . S
C1757 C688 0.696 . S
C1777 C1163 2.204 . S
C1775 C435 2.217 . S
C1795 C880 1.619 1_565 S
C1793 C410 1.785 1_554 S
C1811 C722 2.031 . S
C1813 C1203 2.040 . S
C1831 C1235 2.718 . S
C1829 C842 2.697 . S
C1849 C1266 0.809 1_655 S
C1847 C794 0.802 . S
C1865 C302 1.975 . S
C1867 C1160 1.783 . S
C1883 C338 1.717 . S
C1885 C960 1.605 . S
C1901 C830 2.314 . S
C1903 C1323 2.307 . S
C1921 C1346 0.740 . S
C1919 C758 0.737 . S
C1939 C875 2.284 . S
C1937 C158 2.150 . S
C1957 C1354 2.244 . S
C1955 C254 2.217 . S
C1973 C218 1.368 . S
C1975 C955 1.364 . S
C1991 C194 1.287 . S
C1993 C1311 1.337 . S
C2011 C1031 1.540 . S
C2009 C3 1.657 . S
C2027 C111 0.757 . S
C2029 C1240 0.756 . S
C2047 C1114 1.666 1_556 S
C2045 C76 1.533 . S
C2065 C1395 1.996 . S
C2063 C50 1.856 . S
C2083 C874 2.496 . S
C2081 C364 2.500 . S
C2101 C1351 0.869 . S
C2099 C795 0.921 . S
C2117 C292 1.256 . S
C2119 C954 1.253 . S
C2135 C723 1.545 . S
C2137 C1315 1.540 . S
C2153 C363 2.066 . S
C2155 C1035 2.061 . S
C2173 C1243 1.441 . S
C2171 C796 1.462 . S
C2189 C291 0.596 . S
C2191 C1111 0.639 . S
C2207 C724 2.222 . S
C2209 C1394 2.199 . S
C2225 C482 1.539 . S
C2227 C871 1.621 . S
C2243 C434 1.982 . S
C2245 C1194 2.000 . S
C2261 C662 2.640 . S
C2263 C1066 2.691 . S
C2279 C614 0.758 . S
C2281 C1275 0.759 . S
C2299 C1391 1.732 1_545 S
C2297 C698 1.588 . S
C2315 C554 1.516 . S
C2317 C951 1.608 . S
C2335 C994 2.276 . S
C2333 C650 2.272 . S
C2353 C915 0.786 . S
C2351 C506 0.801 . S
C2369 C183 2.263 . S
C2371 C1426 2.274 . S
C2389 C1363 2.230 . S
C2387 C219 2.182 . S
C2405 C256 1.367 . S
C2407 C1466 1.360 . S
C2423 C148 1.375 . S
C2425 C1320 1.351 . S
C2441 C122 1.733 . S
C2443 C1200 1.549 . S
C2461 C1231 0.791 . S
C2459 C2 0.799 . S
C2479 C1283 1.654 . S
C2477 C39 1.527 1_455 S
C2497 C1386 1.977 . S
C2495 C86 2.052 . S
C2515 C1443 2.539 . S
C2513 C651 2.534 . S
C2531 C472 0.824 . S
C2533 C1360 0.807 . S
C2551 C1483 1.279 . S
C2549 C507 1.268 . S
C2569 C1306 1.593 . S
C2567 C544 1.567 . S
C2587 C1186 2.074 . S
C2585 C652 2.044 . S
C2603 C471 1.417 . S
C2605 C1234 1.423 . S
C2623 C1280 0.673 . S
C2621 C508 0.650 . S
C2639 C543 2.224 . S
C2641 C1403 2.211 . S
C2659 C1440 1.636 . S
C2657 C806 1.805 . S
C2675 C326 1.990 . S
C2677 C1043 2.000 . S
C2695 C1075 2.691 . S
C2693 C374 2.673 . S
C2713 C1106 0.820 . S
C2711 C398 0.814 . S
C2731 C1400 1.733 . S
C2729 C770 1.914 . S
C2747 C734 1.707 1_554 S
C2749 C1480 1.595 . S
C2767 C1003 2.295 . S
C2765 C362 2.300 . S
C2785 C906 0.758 . S
C2783 C290 0.763 . S
C2801 C230 2.148 . S
C2803 C1435 2.281 . S
C2821 C914 2.250 . S
C2819 C182 2.224 . S
C2837 C146 1.363 . S
C2839 C1475 1.361 . S
C2855 C266 1.283 . S
C2857 C991 1.335 . S
C2873 C75 1.661 . S
C2875 C1191 1.546 . S
C2893 C1080 0.804 . S
C2891 C38 0.813 . S
C2909 C4 1.482 . S
C2911 C1274 1.628 . S
C2927 C112 2.029 . S
C2929 C1155 1.943 . S
C2947 C1434 2.502 . S
C2945 C832 2.505 . S
C2963 C399 0.943 . S
C2965 C911 0.884 . S
C2983 C1474 1.239 . S
C2981 C760 1.243 . S
C2999 C327 1.540 . S
C3001 C995 1.538 . S
C3017 C831 2.096 . S
C3019 C1195 2.089 . S
C3037 C1083 1.452 . S
C3035 C400 1.471 . S
C3053 C759 0.658 . S
C3055 C1271 0.688 . S
C3073 C1154 2.194 . S
C3071 C328 2.216 . S
C3091 C1431 1.632 . S
C3089 C626 1.548 . S
C3109 C1034 2.011 1_665 S
C3107 C542 1.995 . S
C3125 C590 2.608 . S
C3127 C1226 2.657 . S
C3145 C1115 0.787 . S
C3143 C470 0.782 . S
C3161 C518 1.544 . S
C3163 C1151 1.690 . S
C3179 C446 1.501 . S
C3181 C1471 1.592 . S
C3199 C1314 2.288 . S
C3197 C578 2.285 1_565 S
C3217 C1355 0.764 . S
C3215 C686 0.770 . S
