# Generated by pormake.
# Topology pth, (4,4)-cn, num edge types: 1
# Building blocks:
#     Node 0, Type 0, BuildingBlock: KUFVIS_clean_sbu_0, # of connection points: 4
#     Node 1, Type 0, BuildingBlock: KUFVIS_clean_sbu_0, # of connection points: 4
#     Node 2, Type 0, BuildingBlock: KUFVIS_clean_sbu_0, # of connection points: 4
#     Node 3, Type 1, BuildingBlock: MUDLON_clean_sbu_0, # of connection points: 4
#     Node 4, Type 1, BuildingBlock: MUDLON_clean_sbu_0, # of connection points: 4
#     Node 5, Type 1, BuildingBlock: MUDLON_clean_sbu_0, # of connection points: 4
#     Edge 6, Type (0, 1), BuildingBlock: KIFKEQ_clean_linker_1, # of connection points: 2
#     Edge 7, Type (0, 1), BuildingBlock: KIFKEQ_clean_linker_1, # of connection points: 2
#     Edge 8, Type (0, 1), BuildingBlock: KIFKEQ_clean_linker_1, # of connection points: 2
#     Edge 9, Type (0, 1), BuildingBlock: KIFKEQ_clean_linker_1, # of connection points: 2
#     Edge 10, Type (0, 1), BuildingBlock: KIFKEQ_clean_linker_1, # of connection points: 2
#     Edge 11, Type (0, 1), BuildingBlock: KIFKEQ_clean_linker_1, # of connection points: 2
#     Edge 12, Type (0, 1), BuildingBlock: KIFKEQ_clean_linker_1, # of connection points: 2
#     Edge 13, Type (0, 1), BuildingBlock: KIFKEQ_clean_linker_1, # of connection points: 2
#     Edge 14, Type (0, 1), BuildingBlock: KIFKEQ_clean_linker_1, # of connection points: 2
#     Edge 15, Type (0, 1), BuildingBlock: KIFKEQ_clean_linker_1, # of connection points: 2
#     Edge 16, Type (0, 1), BuildingBlock: KIFKEQ_clean_linker_1, # of connection points: 2
#     Edge 17, Type (0, 1), BuildingBlock: KIFKEQ_clean_linker_1, # of connection points: 2
# Relax obj value: 0.022
# Max RMSD: 0.096
# Mean RMSD: 0.069
data_MOF--net-pth--node1-KUFVIS_clean_sbu_0--node2-MUDLON_clean_sbu_0--edge1-KIFKEQ_clean_linker_1
_symmetry_space_group_name_H-M    P1
_symmetry_Int_Tables_number       1
_symmetry_cell_setting            triclinic
loop_
_symmetry_equiv_pos_as_xyz
'x, y, z'
_cell_length_a     22.335241
_cell_length_b     22.371842
_cell_length_c     61.608229
_cell_angle_alpha  90.49864
_cell_angle_beta   91.670418
_cell_angle_gamma 118.91424
loop_
_atom_site_label
_atom_site_type_symbol
_atom_site_fract_x
_atom_site_fract_y
_atom_site_fract_z
_atom_type_partial_charge
Mn0 Mn 0.09604 0.14747 0.08547 0.0
Mn1 Mn 1.01289 0.21229 0.05522 0.0
C2 C 0.02443 0.08495 0.05634 0.0
C3 C 0.10455 0.08768 0.11526 0.0
C4 C 0.16363 0.25674 0.05134 0.0
O5 O 0.1013 0.22432 0.10507 0.0
O6 O 0.04056 0.25974 0.08401 0.0
C7 C 0.88931 0.16457 0.08123 0.0
N8 N 0.91821 0.16705 0.06187 0.0
C9 C 0.80772 0.09908 0.04406 0.0
C10 C 0.77674 0.09618 0.06378 0.0
C11 C 0.81774 0.12891 0.08246 0.0
C12 C 0.87927 0.13533 0.04384 0.0
H13 H 0.92066 0.18951 0.09564 0.0
C14 C 0.07387 0.26215 0.10156 0.0
O15 O 0.15837 0.13196 0.1056 0.0
O16 O 0.04572 0.07902 0.10788 0.0
N17 N 0.98242 0.171 0.02686 0.0
C18 C 1.02037 0.17729 1.00924 0.0
C19 C 0.98712 0.14711 0.98924 0.0
C20 C 0.91529 0.11138 0.98751 0.0
C21 C 0.87732 0.10636 1.00579 0.0
C22 C 0.91327 0.13809 0.02523 0.0
H23 H 0.0756 0.20502 0.01042 0.0
O24 O 0.07173 0.07158 0.06361 0.0
O25 O 1.02019 0.13396 0.06635 0.0
O26 O 0.1663 0.2162 0.06525 0.0
O27 O 0.10941 0.26059 0.04684 0.0
C28 C 0.80523 0.07049 1.00554 0.0
C29 C 0.77047 0.06662 0.02468 0.0
H30 H 0.72156 0.0686 0.0648 0.0
H31 H 0.79422 0.12661 0.09776 0.0
H32 H 1.01679 0.15132 0.9752 0.0
H33 H 0.88986 0.08789 0.97209 0.0
H34 H 0.77607 0.04503 0.99078 0.0
H35 H 0.71507 0.03818 0.02436 0.0
Mn36 Mn 0.061 0.1271 0.42197 0.0
Mn37 Mn 0.14343 0.27854 0.44964 0.0
C38 C 0.13912 0.14309 0.45008 0.0
C39 C 0.04635 0.05059 0.39371 0.0
C40 C 0.99444 0.17525 0.45563 0.0
O41 O 0.0503 0.19289 0.40147 0.0
O42 O 0.1124 0.2921 0.42043 0.0
C43 C 0.26432 0.35008 0.42252 0.0
N44 N 0.23741 0.32691 0.44222 0.0
C45 C 0.3497 0.37457 0.45946 0.0
C46 C 0.37859 0.39926 0.43937 0.0
C47 C 0.3357 0.38678 0.42082 0.0
C48 C 0.27822 0.33845 0.46016 0.0
H49 H 0.23157 0.3406 0.40821 0.0
C50 C 0.07777 0.25797 0.40344 0.0
O51 O 0.99536 0.04641 0.40431 0.0
O52 O 0.10672 0.10097 0.39905 0.0
N53 N 0.17734 0.27283 0.47801 0.0
C54 C 0.14151 0.24192 0.49587 0.0
C55 C 0.17693 0.24784 0.51567 0.0
C56 C 0.24871 0.28579 0.51697 0.0
C57 C 0.28446 0.31745 0.49842 0.0
C58 C 0.24638 0.31016 0.47916 0.0
H59 H 0.08635 0.21268 0.49499 0.0
O60 O 0.09154 0.08195 0.44438 0.0
O61 O 0.13918 0.19284 0.43937 0.0
O62 O 0.99308 0.13051 0.44252 0.0
O63 O 0.04755 0.23322 0.45919 0.0
C64 C 0.35643 0.3548 0.49818 0.0
C65 C 0.38903 0.38323 0.47871 0.0
H66 H 0.43362 0.42734 0.43797 0.0
H67 H 0.35762 0.40541 0.40525 0.0
H68 H 0.14897 0.22307 0.5299 0.0
H69 H 0.27586 0.28979 0.53223 0.0
H70 H 0.38722 0.36098 0.51281 0.0
H71 H 0.44442 0.41089 0.47865 0.0
Mn72 Mn 0.09585 0.13266 0.75257 0.0
Mn73 Mn 0.0412 0.2264 0.78087 0.0
C74 C 0.16227 0.20218 0.7814 0.0
C75 C 0.14922 0.11524 0.72306 0.0
C76 C 0.98591 0.07423 0.78646 0.0
O77 O 1.02075 0.13165 0.7327 0.0
O78 O 0.99503 0.20227 0.75161 0.0
C79 C 0.09947 0.35027 0.75431 0.0
N80 N 0.09323 0.32058 0.77392 0.0
C81 C 0.1639 0.42964 0.79182 0.0
C82 C 0.17079 0.46146 0.77184 0.0
C83 C 0.13866 0.42155 0.75299 0.0
C84 C 0.12451 0.3584 0.79211 0.0
H85 H 0.07469 0.31979 0.7398 0.0
C86 C 0.98873 0.16557 0.73473 0.0
O87 O 0.1025 0.06464 0.73332 0.0
O88 O 0.16487 0.17649 0.72979 0.0
N89 N 0.08151 0.25455 0.80953 0.0
C90 C 0.07142 0.21584 0.82742 0.0
C91 C 0.10111 0.24791 0.84757 0.0
C92 C 0.13986 0.31944 0.8492 0.0
C93 C 0.14841 0.35827 0.83067 0.0
C94 C 0.11763 0.32349 0.81102 0.0
H95 H 0.04115 0.16088 0.82633 0.0
O96 O 0.171 0.15198 0.77452 0.0
O97 O 0.11607 0.21135 0.77094 0.0
O98 O 0.02535 0.06765 0.77331 0.0
O99 O 0.98545 0.1305 0.78972 0.0
C100 C 0.18676 0.4301 0.83087 0.0
C101 C 0.19496 0.46574 0.81144 0.0
H102 H 0.20089 0.51643 0.77076 0.0
H103 H 0.14394 0.44571 0.7375 0.0
H104 H 0.09406 0.21758 0.86182 0.0
H105 H 0.16296 0.34398 0.86475 0.0
H106 H 0.21083 0.45841 0.84585 0.0
H107 H 0.22546 0.5209 0.81175 0.0
Mg108 Mg 0.06354 0.64688 0.25294 0.0
C109 C 0.06211 0.54084 0.27878 0.0
O110 O 1.00137 0.51803 0.26922 0.0
C111 C 0.08629 0.76899 0.23088 0.0
O112 O 1.02266 0.73849 0.23695 0.0
C113 C 1.02304 0.57734 0.20792 0.0
O114 O 0.0493 0.64035 0.20127 0.0
O115 O 1.01473 0.566 0.22809 0.0
O116 O 0.10831 0.60145 0.27486 0.0
O117 O 1.00231 0.6744 0.2737 0.0
C118 C 1.01099 0.67745 0.29427 0.0
O119 O 0.04544 0.64981 0.30325 0.0
O120 O 0.12357 0.74165 0.23546 0.0
Mg121 Mg 0.55368 0.12788 0.58565 0.0
C122 C 0.5352 0.20896 0.54858 0.0
O123 O 0.58887 0.20812 0.54076 0.0
C124 C 0.64601 0.12604 0.61727 0.0
O125 O 0.60437 0.06352 0.61 0.0
C126 C 0.40974 0.05805 0.60188 0.0
O127 O 0.39617 0.07546 0.58281 0.0
O128 O 0.46882 0.06447 0.60583 0.0
O129 O 0.51818 0.18902 0.56779 0.0
O130 O 0.59548 0.08206 0.5636 0.0
C131 C 0.58179 0.06675 0.54349 0.0
O132 O 0.5272 0.06537 0.53438 0.0
O133 O 0.63782 0.17453 0.60967 0.0
Mg134 Mg 0.60479 0.63503 0.9199 0.0
C135 C 0.5061 0.52893 0.89296 0.0
O136 O 0.55307 0.51324 0.89967 0.0
C137 C 0.67891 0.73123 0.95432 0.0
O138 O 0.69165 0.68 0.95621 0.0
C139 C 0.53753 0.56582 0.95715 0.0
O140 O 0.52333 0.61523 0.95301 0.0
O141 O 0.57788 0.55764 0.94476 0.0
O142 O 0.5116 0.58567 0.89944 0.0
O143 O 0.68506 0.66809 0.89633 0.0
C144 C 0.67054 0.70079 0.88215 0.0
O145 O 0.61365 0.70389 0.88403 0.0
O146 O 0.6387 0.72939 0.93891 0.0
H147 H 0.03619 0.23194 0.14336 0.0
H148 H 0.11167 0.39599 0.09808 0.0
H149 H 1.01656 0.303 0.1694 0.0
H150 H 0.09738 0.46927 0.12442 0.0
H151 H 1.00294 0.56697 0.16388 0.0
H152 H 1.01532 0.48867 0.13909 0.0
H153 H 0.05775 0.39328 0.19387 0.0
H154 H 0.04026 0.46838 0.21848 0.0
C155 C 0.05076 0.28416 0.13935 0.0
C156 C 0.07577 0.30886 0.11886 0.0
C157 C 0.03942 0.32507 0.15422 0.0
C158 C 0.05421 0.39204 0.14904 0.0
C159 C 0.08294 0.41747 0.12886 0.0
C160 C 0.09246 0.376 0.11385 0.0
C161 C 1.01347 0.52822 0.17055 0.0
C162 C 1.02037 0.5237 0.19308 0.0
C163 C 1.02176 0.48387 0.15636 0.0
C164 C 0.03923 0.43513 0.16431 0.0
C165 C 0.04375 0.42932 0.18697 0.0
C166 C 0.03371 0.47257 0.20116 0.0
H167 H 0.86477 0.07117 0.4465 0.0
H168 H 0.98148 0.23872 0.49213 0.0
H169 H 0.76243 0.03796 0.46722 0.0
H170 H 0.87884 0.20516 0.51282 0.0
H171 H 0.7053 0.0808 0.55737 0.0
H172 H 0.80325 0.10522 0.53557 0.0
H173 H 0.68226 0.0833 0.47712 0.0
H174 H 0.58362 0.05907 0.49896 0.0
C175 C 0.86866 0.1011 0.46091 0.0
C176 C 0.93159 0.15758 0.46768 0.0
C177 C 0.80984 0.08212 0.47271 0.0
C178 C 0.81268 0.11859 0.49171 0.0
C179 C 0.8753 0.17549 0.49838 0.0
C180 C 0.934 0.19503 0.48643 0.0
C181 C 0.69897 0.08013 0.53985 0.0
C182 C 0.6365 0.06844 0.52994 0.0
C183 C 0.75545 0.09477 0.52739 0.0
C184 C 0.75081 0.0974 0.50468 0.0
C185 C 0.68737 0.08174 0.49462 0.0
C186 C 0.63081 0.06765 0.50713 0.0
H187 H 0.99354 0.95688 0.79298 0.0
H188 H 0.8753 0.05618 0.80917 0.0
H189 H 0.91934 0.85939 0.81479 0.0
H190 H 0.80144 0.95882 0.83074 0.0
H191 H 0.63844 0.74806 0.84597 0.0
H192 H 0.71604 0.83403 0.82184 0.0
H193 H 0.88832 0.83522 0.85584 0.0
H194 H 0.80985 0.74837 0.88044 0.0
C195 C 0.95156 0.95781 0.80105 0.0
C196 C 0.94006 0.01423 0.79919 0.0
C197 C 0.90952 0.90219 0.81365 0.0
C198 C 0.85454 0.90144 0.82433 0.0
C199 C 0.84305 0.95772 0.82246 0.0
C200 C 0.8855 0.0136 0.81015 0.0
C201 C 0.69279 0.76578 0.8482 0.0
C202 C 0.71812 0.74212 0.86533 0.0
C203 C 0.7372 0.81527 0.8344 0.0
C204 C 0.80815 0.84224 0.83725 0.0
C205 C 0.83369 0.81529 0.85336 0.0
C206 C 0.7889 0.76555 0.86737 0.0
H207 H 1.00198 0.99895 0.14029 0.0
H208 H 0.21901 0.08495 0.13132 0.0
H209 H 1.00939 0.93048 0.16965 0.0
H210 H 0.22651 0.01636 0.16098 0.0
H211 H 0.17406 0.8084 0.1969 0.0
H212 H 0.18605 0.89257 0.16956 0.0
H213 H 0.0587 0.94826 0.20677 0.0
H214 H 0.04609 0.8643 0.23359 0.0
C215 C 0.05139 1.00358 0.14468 0.0
C216 C 0.10988 0.0476 0.13352 0.0
C217 C 0.05578 0.96459 0.1616 0.0
C218 C 0.11873 0.9684 0.16779 0.0
C219 C 0.1773 1.01215 0.15656 0.0
C220 C 0.17299 0.05165 0.13967 0.0
C221 C 0.15044 0.84016 0.19946 0.0
C222 C 0.10861 0.82947 0.2172 0.0
C223 C 0.157 0.88809 0.1838 0.0
C224 C 0.12192 0.9259 0.18577 0.0
C225 C 0.08483 0.91871 0.20447 0.0
C226 C 0.07806 0.87097 0.21992 0.0
H227 H 0.13776 0.09214 0.49025 0.0
H228 H 0.27263 0.21336 0.4406 0.0
H229 H 0.23695 0.11342 0.5137 0.0
H230 H 0.37186 0.2368 0.46402 0.0
H231 H 0.53142 0.20657 0.50417 0.0
H232 H 0.43613 0.18952 0.48001 0.0
H233 H 0.32728 0.20348 0.53499 0.0
H234 H 0.4218 0.21818 0.55926 0.0
C235 C 0.18879 0.12349 0.48445 0.0
C236 C 0.19803 0.15317 0.46405 0.0
C237 C 0.24562 0.13628 0.49789 0.0
C238 C 0.31269 0.17805 0.49096 0.0
C239 C 0.32128 0.20445 0.46996 0.0
C240 C 0.26451 0.19173 0.45662 0.0
C241 C 0.48778 0.20736 0.51109 0.0
C242 C 0.48418 0.21337 0.53369 0.0
C243 C 0.43288 0.19743 0.4972 0.0
C244 C 0.37327 0.19386 0.50555 0.0
C245 C 0.37149 0.204 0.52804 0.0
C246 C 0.42614 0.21338 0.54194 0.0
H247 H 0.24087 0.3394 0.77837 0.0
H248 H 0.19181 0.1725 0.82144 0.0
H249 H 0.3212 0.41975 0.80601 0.0
H250 H 0.27016 0.2523 0.84941 0.0
H251 H 0.47358 0.39854 0.88283 0.0
H252 H 0.38978 0.32123 0.8561 0.0
H253 H 0.32913 0.47328 0.84133 0.0
H254 H 0.41462 0.55192 0.86824 0.0
C255 C 0.24681 0.32032 0.79394 0.0
C256 C 0.20927 0.25044 0.79816 0.0
C257 C 0.29251 0.36615 0.80977 0.0
C258 C 0.30184 0.34263 0.83001 0.0
C259 C 0.26478 0.27218 0.83395 0.0
C260 C 0.21972 0.22645 0.81804 0.0
C261 C 0.44213 0.41561 0.87403 0.0
C262 C 0.45078 0.48148 0.87767 0.0
C263 C 0.39355 0.37086 0.85877 0.0
C264 C 0.35208 0.3906 0.84667 0.0
C265 C 0.3602 0.45641 0.85039 0.0
C266 C 0.40887 0.50136 0.86586 0.0
H267 H 0.91226 0.23124 0.73283 0.0
H268 H 0.96147 0.09747 0.69533 0.0
H269 H 0.83473 0.22694 0.70355 0.0
H270 H 0.88482 0.09451 0.66587 0.0
H271 H 0.67598 0.03057 0.63307 0.0
H272 H 0.76218 0.04455 0.66033 0.0
H273 H 0.82768 0.26027 0.66593 0.0
H274 H 0.73941 0.24598 0.63852 0.0
C275 C 0.90691 0.20113 0.71831 0.0
C276 C 0.94265 0.16395 0.7166 0.0
C277 C 0.86287 0.19931 0.70142 0.0
C278 C 0.85339 0.16026 0.6824 0.0
C279 C 0.89024 0.12433 0.68046 0.0
C280 C 0.93429 0.1261 0.69735 0.0
C281 C 0.70867 0.08123 0.64 0.0
C282 C 0.70058 0.13722 0.63363 0.0
C283 C 0.75868 0.08927 0.65555 0.0
C284 C 0.80219 0.15354 0.66522 0.0
C285 C 0.79458 0.20993 0.65885 0.0
C286 C 0.7443 0.20188 0.64312 0.0
H287 H 0.03775 0.04373 0.01588 0.0
H288 H 0.88929 0.01594 0.06349 0.0
H289 H 0.94525 0.96387 0.9908 0.0
H290 H 0.79699 0.93556 0.03869 0.0
H291 H 0.68724 0.72628 0.99779 0.0
H292 H 0.76767 0.81686 0.02274 0.0
H293 H 0.83661 0.95712 0.96984 0.0
H294 H 0.75436 0.86614 0.94485 0.0
C295 C 0.98526 0.02054 0.02086 0.0
C296 C 0.96994 0.03691 0.04122 0.0
C297 C 0.93249 0.97549 1.00654 0.0
C298 C 0.86401 0.94459 0.01272 0.0
C299 C 0.84926 0.95917 0.03348 0.0
C300 C 0.90183 1.00508 0.04759 0.0
C301 C 0.71804 0.77713 0.99168 0.0
C302 C 0.71452 0.78975 0.96954 0.0
C303 C 0.7641 0.8288 1.00591 0.0
C304 C 0.80868 0.89364 0.99814 0.0
C305 C 0.80295 0.90732 0.97615 0.0
C306 C 0.75554 0.85575 0.96195 0.0
H307 H 0.1325 0.05499 0.36204 0.0
H308 H 0.9352 0.92483 0.3886 0.0
H309 H 0.11406 0.96259 0.33628 0.0
H310 H 0.91797 0.83278 0.36335 0.0
H311 H 0.98691 0.67328 0.33742 0.0
H312 H 0.99013 0.76498 0.36026 0.0
H313 H 1.01944 0.88722 0.30371 0.0
H314 H 1.01425 0.79482 0.28071 0.0
C315 C 0.08525 1.00697 0.3623 0.0
C316 C 0.03538 0.99716 0.37732 0.0
C317 C 0.07458 0.95436 0.34754 0.0
C318 C 1.01457 0.89079 0.34792 0.0
C319 C 0.96462 0.8813 0.36279 0.0
C320 C 0.97457 0.93413 0.37718 0.0
C321 C 0.99224 0.719 0.32981 0.0
C322 C 0.99979 0.72668 0.3073 0.0
C323 C 0.99433 0.77145 0.34286 0.0
C324 C 1.00568 0.83317 0.3337 0.0
C325 C 1.01108 0.84018 0.31112 0.0
C326 C 1.0073 0.78702 0.29798 0.0
H327 H 0.27428 0.20265 0.70746 0.0
H328 H 0.10267 0.99971 0.69773 0.0
H329 H 0.33398 0.1795 0.67856 0.0
H330 H 0.16183 0.97742 0.66846 0.0
H331 H 0.27488 0.02607 0.59983 0.0
H332 H 0.20856 0.03536 0.62942 0.0
H333 H 0.37894 0.08713 0.6745 0.0
H334 H 0.44471 0.07628 0.64523 0.0
C335 C 0.24913 0.15341 0.69903 0.0
C336 C 0.18394 0.10297 0.70485 0.0
C337 C 0.28341 0.14004 0.68262 0.0
C338 C 0.25249 0.07656 0.67144 0.0
C339 C 0.18665 0.0267 0.67688 0.0
C340 C 0.15301 0.0395 0.69362 0.0
C341 C 0.29755 0.03779 0.61615 0.0
C342 C 0.36506 0.05046 0.62015 0.0
C343 C 0.25968 0.04325 0.63303 0.0
C344 C 0.28917 0.06286 0.6541 0.0
C345 C 0.35544 0.07265 0.65831 0.0
C346 C 0.39274 0.06578 0.64157 0.0
H347 H 0.18962 0.37044 0.02878 0.0
H348 H 0.27856 0.24302 0.04668 0.0
H349 H 0.29048 0.44271 1.00863 0.0
H350 H 0.38012 0.31601 0.02619 0.0
H351 H 0.49219 0.42761 0.95965 0.0
H352 H 0.40731 0.34988 0.98488 0.0
H353 H 0.41609 0.52316 0.01919 0.0
H354 H 0.49973 0.59991 0.99424 0.0
C355 C 0.23072 0.35785 0.02847 0.0
C356 C 0.22606 0.30111 0.03946 0.0
C357 C 0.2887 0.3995 0.017 0.0
C358 C 0.34333 0.38522 0.01602 0.0
C359 C 0.3387 0.32809 0.02673 0.0
C360 C 0.28079 0.2867 0.03853 0.0
C361 C 0.47752 0.44884 0.97304 0.0
C362 C 0.50165 0.51954 0.97487 0.0
C363 C 0.4289 0.40452 0.9874 0.0
C364 C 0.4042 0.43065 1.00366 0.0
C365 C 0.43319 0.50163 1.00654 0.0
C366 C 0.48126 0.54551 0.9923 0.0
H367 H 0.11704 0.39424 0.40268 0.0
H368 H 0.03306 0.21234 0.36144 0.0
H369 H 0.11904 0.46133 0.37165 0.0
H370 H 0.03678 0.2801 0.33022 0.0
H371 H 0.9754 0.40771 0.28641 0.0
H372 H 0.98084 0.33938 0.31583 0.0
H373 H 0.1757 0.50702 0.33817 0.0
H374 H 0.16909 0.57694 0.30875 0.0
C375 C 0.09892 0.3684 0.38699 0.0
C376 C 0.07438 0.29757 0.38465 0.0
C377 C 0.1009 0.40721 0.36911 0.0
C378 C 0.07861 0.3764 0.34836 0.0
C379 C 0.05373 0.3055 0.34601 0.0
C380 C 0.05146 0.26653 0.36393 0.0
C381 C 1.01985 0.43014 0.29745 0.0
C382 C 0.07164 0.49812 0.29531 0.0
C383 C 1.02314 0.39053 0.3143 0.0
C384 C 0.0785 0.41758 0.32948 0.0
C385 C 0.13174 0.4849 0.32693 0.0
C386 C 0.12838 0.52481 0.30998 0.0
loop_
_geom_bond_atom_site_label_1
_geom_bond_atom_site_label_2
_geom_bond_distance
_geom_bond_site_symmetry_2
_ccdc_geom_bond_type
Mn0 O5 2.095 . S
Mn0 O15 2.162 . S
Mn0 O16 2.297 . S
Mn0 O24 2.385 . S
Mn0 O25 2.209 1_455 S
Mn0 O26 2.094 . S
Mn1 O6 2.121 . S
Mn1 N8 2.257 1_455 S
Mn1 N17 2.282 1_455 S
Mn1 O25 2.215 1_455 S
Mn1 O27 2.117 . S
C2 O24 1.234 1_655 S
C2 O25 1.283 . S
C3 O15 1.281 . S
C3 O16 1.236 . S
C4 O26 1.240 . S
C4 O27 1.264 . S
O5 Mn0 2.095 . S
O5 C14 1.250 . S
O6 Mn1 2.121 . S
O6 C14 1.258 . S
C7 N8 1.326 . S
C7 C11 1.460 . S
C7 H13 0.929 . S
N8 Mn1 2.257 1_655 S
N8 C7 1.326 . S
N8 C12 1.362 . S
C9 C10 1.258 . S
C9 C12 1.431 . S
C9 C29 1.490 . S
C10 C9 1.258 . S
C10 C11 1.477 . S
C10 H30 0.931 . S
C11 C7 1.460 . S
C11 C10 1.477 . S
C11 H31 0.930 . S
C12 N8 1.362 . S
C12 C9 1.431 . S
C12 C22 1.476 . S
H13 C7 0.929 . S
C14 O5 1.250 . S
C14 O6 1.258 . S
O15 Mn0 2.162 . S
O15 C3 1.281 . S
O16 Mn0 2.297 . S
O16 C3 1.236 . S
N17 Mn1 2.282 1_655 S
N17 C18 1.328 1_655 S
N17 C22 1.318 . S
C18 N17 1.328 1_455 S
C18 C19 1.457 1_454 S
C18 H23 0.929 . S
C19 C18 1.457 1_656 S
C19 C20 1.291 . S
C19 H32 0.931 1_655 S
C20 C19 1.291 . S
C20 C21 1.373 . S
C20 H33 0.929 . S
C21 C20 1.373 . S
C21 C22 1.396 1_556 S
C21 C28 1.403 . S
C22 C12 1.476 . S
C22 N17 1.318 . S
C22 C21 1.396 1_554 S
H23 C18 0.929 . S
O24 Mn0 2.385 . S
O24 C2 1.234 1_455 S
O25 Mn0 2.209 1_655 S
O25 Mn1 2.215 1_655 S
O25 C2 1.283 . S
O26 Mn0 2.094 . S
O26 C4 1.240 . S
O27 Mn1 2.117 . S
O27 C4 1.264 . S
C28 C21 1.403 . S
C28 C29 1.368 1_556 S
C28 H34 0.929 . S
C29 C9 1.490 . S
C29 C28 1.368 1_554 S
C29 H35 0.921 1_554 S
H30 C10 0.931 . S
H31 C11 0.930 . S
H32 C19 0.931 1_455 S
H33 C20 0.929 . S
H34 C28 0.929 . S
H35 C29 0.921 1_556 S
Mn36 O41 2.095 . S
Mn36 O51 2.162 1_445 S
Mn36 O52 2.297 . S
Mn36 O60 2.385 . S
Mn36 O61 2.209 . S
Mn36 O62 2.094 1_455 S
Mn37 O42 2.121 . S
Mn37 N44 2.257 . S
Mn37 N53 2.282 . S
Mn37 O61 2.215 . S
Mn37 O63 2.117 1_455 S
C38 O60 1.234 . S
C38 O61 1.283 . S
C39 O51 1.281 1_445 S
C39 O52 1.236 . S
C40 O62 1.240 . S
C40 O63 1.264 . S
O41 Mn36 2.095 . S
O41 C50 1.250 . S
O42 Mn37 2.121 . S
O42 C50 1.258 . S
C43 N44 1.326 . S
C43 C47 1.460 . S
C43 H49 0.929 . S
N44 Mn37 2.257 . S
N44 C43 1.326 . S
N44 C48 1.362 . S
C45 C46 1.258 . S
C45 C48 1.431 . S
C45 C65 1.449 . S
C46 C45 1.258 . S
C46 C47 1.477 . S
C46 H66 0.931 . S
C47 C43 1.460 . S
C47 C46 1.477 . S
C47 H67 0.930 . S
C48 N44 1.362 . S
C48 C45 1.431 . S
C48 C58 1.476 . S
H49 C43 0.929 . S
C50 O41 1.250 . S
C50 O42 1.258 . S
O51 Mn36 2.162 1_665 S
O51 C39 1.281 1_665 S
O52 Mn36 2.297 . S
O52 C39 1.236 . S
N53 Mn37 2.282 . S
N53 C54 1.328 . S
N53 C58 1.318 . S
C54 N53 1.328 . S
C54 C55 1.457 . S
C54 H59 0.929 . S
C55 C54 1.457 . S
C55 C56 1.291 . S
C55 H68 0.931 . S
C56 C55 1.291 . S
C56 C57 1.373 . S
C56 H69 0.929 . S
C57 C56 1.373 . S
C57 C58 1.396 . S
C57 C64 1.403 . S
C58 C48 1.476 . S
C58 N53 1.318 . S
C58 C57 1.396 . S
H59 C54 0.929 . S
O60 Mn36 2.385 . S
O60 C38 1.234 . S
O61 Mn36 2.209 . S
O61 Mn37 2.215 . S
O61 C38 1.283 . S
O62 Mn36 2.094 1_655 S
O62 C40 1.240 . S
O63 Mn37 2.117 1_655 S
O63 C40 1.264 . S
C64 C57 1.403 . S
C64 C65 1.399 . S
C64 H70 0.929 . S
C65 C45 1.449 . S
C65 C64 1.399 . S
C65 H71 0.930 . S
H66 C46 0.931 . S
H67 C47 0.930 . S
H68 C55 0.931 . S
H69 C56 0.929 . S
H70 C64 0.929 . S
H71 C65 0.930 . S
Mn72 O77 2.095 1_455 S
Mn72 O87 2.162 . S
Mn72 O88 2.297 . S
Mn72 O96 2.385 . S
Mn72 O97 2.209 . S
Mn72 O98 2.094 1_455 S
Mn73 O78 2.121 . S
Mn73 N80 2.257 1_655 S
Mn73 N89 2.282 1_655 S
Mn73 O97 2.215 1_655 S
Mn73 O99 2.117 . S
C74 O96 1.234 . S
C74 O97 1.283 . S
C75 O87 1.281 . S
C75 O88 1.236 . S
C76 O98 1.240 . S
C76 O99 1.264 . S
O77 Mn72 2.095 1_655 S
O77 C86 1.250 . S
O78 Mn73 2.121 . S
O78 C86 1.258 . S
C79 N80 1.326 . S
C79 C83 1.460 . S
C79 H85 0.929 1_455 S
N80 Mn73 2.257 1_455 S
N80 C79 1.326 . S
N80 C84 1.362 . S
C81 C82 1.258 . S
C81 C84 1.431 . S
C81 C101 1.449 . S
C82 C81 1.258 . S
C82 C83 1.477 . S
C82 H102 0.931 . S
C83 C79 1.460 . S
C83 C82 1.477 . S
C83 H103 0.930 . S
C84 N80 1.362 . S
C84 C81 1.431 . S
C84 C94 1.476 . S
H85 C79 0.929 1_655 S
C86 O77 1.250 . S
C86 O78 1.258 . S
O87 Mn72 2.162 . S
O87 C75 1.281 . S
O88 Mn72 2.297 . S
O88 C75 1.236 . S
N89 Mn73 2.282 1_455 S
N89 C90 1.328 . S
N89 C94 1.318 . S
C90 N89 1.328 . S
C90 C91 1.457 . S
C90 H95 0.929 . S
C91 C90 1.457 . S
C91 C92 1.291 . S
C91 H104 0.931 . S
C92 C91 1.291 . S
C92 C93 1.373 . S
C92 H105 0.929 . S
C93 C92 1.373 . S
C93 C94 1.396 . S
C93 C100 1.403 . S
C94 C84 1.476 . S
C94 N89 1.318 . S
C94 C93 1.396 . S
H95 C90 0.929 . S
O96 Mn72 2.385 . S
O96 C74 1.234 . S
O97 Mn72 2.209 . S
O97 Mn73 2.215 1_455 S
O97 C74 1.283 . S
O98 Mn72 2.094 1_655 S
O98 C76 1.240 . S
O99 Mn73 2.117 . S
O99 C76 1.264 . S
C100 C93 1.403 . S
C100 C101 1.399 . S
C100 H106 0.929 . S
C101 C81 1.449 . S
C101 C100 1.399 . S
C101 H107 0.930 . S
H102 C82 0.931 . S
H103 C83 0.930 . S
H104 C91 0.931 . S
H105 C92 0.929 . S
H106 C100 0.929 . S
H107 C101 0.930 . S
Mg108 O115 2.141 . S
Mg108 O116 2.048 . S
Mg108 O117 2.048 . S
Mg108 O120 2.141 . S
C109 O110 1.313 1_455 S
C109 O116 1.195 . S
O110 C109 1.313 1_655 S
C111 O112 1.245 1_455 S
C111 O120 1.289 . S
O112 C111 1.245 1_655 S
C113 O114 1.245 1_455 S
C113 O115 1.289 . S
O114 C113 1.245 1_655 S
O115 Mg108 2.141 . S
O115 C113 1.289 . S
O116 Mg108 2.048 . S
O116 C109 1.195 . S
O117 Mg108 2.048 . S
O117 C118 1.195 . S
C118 O117 1.195 . S
C118 O119 1.313 1_455 S
O119 C118 1.313 1_655 S
O120 Mg108 2.141 . S
O120 C111 1.289 . S
Mg121 O128 2.141 . S
Mg121 O129 2.048 . S
Mg121 O130 2.048 . S
Mg121 O133 2.141 . S
C122 O123 1.313 . S
C122 O129 1.195 . S
O123 C122 1.313 . S
C124 O125 1.245 . S
C124 O133 1.289 . S
O125 C124 1.245 . S
C126 O127 1.245 . S
C126 O128 1.289 . S
O127 C126 1.245 . S
O128 Mg121 2.141 . S
O128 C126 1.289 . S
O129 Mg121 2.048 . S
O129 C122 1.195 . S
O130 Mg121 2.048 . S
O130 C131 1.195 . S
C131 O130 1.195 . S
C131 O132 1.313 . S
O132 C131 1.313 . S
O133 Mg121 2.141 . S
O133 C124 1.289 . S
Mg134 O141 2.141 . S
Mg134 O142 2.048 . S
Mg134 O143 2.048 . S
Mg134 O146 2.141 . S
C135 O136 1.313 . S
C135 O142 1.195 . S
O136 C135 1.313 . S
C137 O138 1.245 . S
C137 O146 1.289 . S
O138 C137 1.245 . S
C139 O140 1.245 . S
C139 O141 1.289 . S
O140 C139 1.245 . S
O141 Mg134 2.141 . S
O141 C139 1.289 . S
O142 Mg134 2.048 . S
O142 C135 1.195 . S
O143 Mg134 2.048 . S
O143 C144 1.195 . S
C144 O143 1.195 . S
C144 O145 1.313 . S
O145 C144 1.313 . S
O146 Mg134 2.141 . S
O146 C137 1.289 . S
H147 C155 0.950 . S
H148 C160 0.950 . S
H149 C157 0.950 . S
H150 C159 0.950 . S
H151 C161 0.958 . S
H152 C163 0.950 . S
H153 C165 0.950 . S
H154 C166 0.950 . S
C155 H147 0.950 . S
C155 C156 1.386 . S
C155 C157 1.391 . S
C156 C155 1.386 . S
C156 C160 1.393 . S
C157 H149 0.950 . S
C157 C155 1.391 . S
C157 C158 1.400 . S
C158 C157 1.400 . S
C158 C159 1.398 . S
C158 C164 1.491 . S
C159 H150 0.950 . S
C159 C158 1.398 . S
C159 C160 1.391 . S
C160 H148 0.950 . S
C160 C156 1.393 . S
C160 C159 1.391 . S
C161 H151 0.958 . S
C161 C162 1.386 . S
C161 C163 1.391 . S
C162 C161 1.386 . S
C162 C166 1.393 . S
C163 H152 0.950 . S
C163 C161 1.391 . S
C163 C164 1.400 . S
C164 C158 1.491 . S
C164 C163 1.400 . S
C164 C165 1.398 . S
C165 H153 0.950 . S
C165 C164 1.398 . S
C165 C166 1.391 . S
C166 H154 0.950 . S
C166 C162 1.393 . S
C166 C165 1.391 . S
H167 C175 0.950 . S
H168 C180 0.950 . S
H169 C177 0.950 . S
H170 C179 0.950 . S
H171 C181 0.950 . S
H172 C183 0.950 . S
H173 C185 0.950 . S
H174 C186 0.950 . S
C175 H167 0.950 . S
C175 C176 1.386 . S
C175 C177 1.391 . S
C176 C175 1.386 . S
C176 C180 1.393 . S
C177 H169 0.950 . S
C177 C175 1.391 . S
C177 C178 1.400 . S
C178 C177 1.400 . S
C178 C179 1.398 . S
C178 C184 1.491 . S
C179 H170 0.950 . S
C179 C178 1.398 . S
C179 C180 1.391 . S
C180 H168 0.950 . S
C180 C176 1.393 . S
C180 C179 1.391 . S
C181 H171 0.950 . S
C181 C182 1.386 . S
C181 C183 1.391 . S
C182 C181 1.386 . S
C182 C186 1.393 . S
C183 H172 0.950 . S
C183 C181 1.391 . S
C183 C184 1.400 . S
C184 C178 1.491 . S
C184 C183 1.400 . S
C184 C185 1.398 . S
C185 H173 0.950 . S
C185 C184 1.398 . S
C185 C186 1.391 . S
C186 H174 0.950 . S
C186 C182 1.393 . S
C186 C185 1.391 . S
H187 C195 0.950 1_545 S
H188 C200 0.950 . S
H189 C197 0.950 . S
H190 C199 0.950 . S
H191 C201 0.950 . S
H192 C203 0.950 . S
H193 C205 0.950 . S
H194 C206 0.950 . S
C195 H187 0.950 1_565 S
C195 C196 1.386 . S
C195 C197 1.391 . S
C196 C195 1.386 . S
C196 C200 1.393 . S
C197 H189 0.950 . S
C197 C195 1.391 . S
C197 C198 1.400 . S
C198 C197 1.400 . S
C198 C199 1.398 . S
C198 C204 1.491 . S
C199 H190 0.950 . S
C199 C198 1.398 . S
C199 C200 1.391 . S
C200 H188 0.950 . S
C200 C196 1.393 . S
C200 C199 1.391 . S
C201 H191 0.950 . S
C201 C202 1.386 . S
C201 C203 1.391 . S
C202 C201 1.386 . S
C202 C206 1.393 . S
C203 H192 0.950 . S
C203 C201 1.391 . S
C203 C204 1.400 . S
C204 C198 1.491 . S
C204 C203 1.400 . S
C204 C205 1.398 . S
C205 H193 0.950 . S
C205 C204 1.398 . S
C205 C206 1.391 . S
C206 H194 0.950 . S
C206 C202 1.393 . S
C206 C205 1.391 . S
H207 C215 0.950 1_655 S
H208 C220 0.950 . S
H209 C217 0.950 1_655 S
H210 C219 0.950 . S
H211 C221 0.950 . S
H212 C223 0.950 . S
H213 C225 0.950 1_655 S
H214 C226 0.950 1_655 S
C215 H207 0.950 1_455 S
C215 C216 1.386 . S
C215 C217 1.391 . S
C216 C215 1.386 . S
C216 C220 1.393 . S
C217 H209 0.950 1_455 S
C217 C215 1.391 . S
C217 C218 1.400 . S
C218 C217 1.400 . S
C218 C219 1.398 . S
C218 C224 1.491 . S
C219 H210 0.950 . S
C219 C218 1.398 . S
C219 C220 1.391 . S
C220 H208 0.950 . S
C220 C216 1.393 . S
C220 C219 1.391 . S
C221 H211 0.950 . S
C221 C222 1.386 . S
C221 C223 1.391 . S
C222 C221 1.386 . S
C222 C226 1.393 . S
C223 H212 0.950 . S
C223 C221 1.391 . S
C223 C224 1.400 . S
C224 C218 1.491 . S
C224 C223 1.400 . S
C224 C225 1.398 . S
C225 H213 0.950 1_455 S
C225 C224 1.398 . S
C225 C226 1.391 . S
C226 H214 0.950 1_455 S
C226 C222 1.393 . S
C226 C225 1.391 . S
H227 C235 0.950 . S
H228 C240 0.950 . S
H229 C237 0.950 . S
H230 C239 0.950 . S
H231 C241 0.950 . S
H232 C243 0.950 . S
H233 C245 0.950 . S
H234 C246 0.950 . S
C235 H227 0.950 . S
C235 C236 1.386 . S
C235 C237 1.391 . S
C236 C235 1.386 . S
C236 C240 1.393 . S
C237 H229 0.950 . S
C237 C235 1.391 . S
C237 C238 1.400 . S
C238 C237 1.400 . S
C238 C239 1.398 . S
C238 C244 1.491 . S
C239 H230 0.950 . S
C239 C238 1.398 . S
C239 C240 1.391 . S
C240 H228 0.950 . S
C240 C236 1.393 . S
C240 C239 1.391 . S
C241 H231 0.950 . S
C241 C242 1.386 . S
C241 C243 1.391 . S
C242 C241 1.386 . S
C242 C246 1.393 . S
C243 H232 0.950 . S
C243 C241 1.391 . S
C243 C244 1.400 . S
C244 C238 1.491 . S
C244 C243 1.400 . S
C244 C245 1.398 . S
C245 H233 0.950 . S
C245 C244 1.398 . S
C245 C246 1.391 . S
C246 H234 0.950 . S
C246 C242 1.393 . S
C246 C245 1.391 . S
H247 C255 0.950 . S
H248 C260 0.950 . S
H249 C257 0.950 . S
H250 C259 0.950 . S
H251 C261 0.950 . S
H252 C263 0.950 . S
H253 C265 0.950 . S
H254 C266 0.950 . S
C255 H247 0.950 . S
C255 C256 1.386 . S
C255 C257 1.391 . S
C256 C255 1.386 . S
C256 C260 1.393 . S
C257 H249 0.950 . S
C257 C255 1.391 . S
C257 C258 1.400 . S
C258 C257 1.400 . S
C258 C259 1.398 . S
C258 C264 1.491 . S
C259 H250 0.950 . S
C259 C258 1.398 . S
C259 C260 1.391 . S
C260 H248 0.950 . S
C260 C256 1.393 . S
C260 C259 1.391 . S
C261 H251 0.950 . S
C261 C262 1.386 . S
C261 C263 1.391 . S
C262 C261 1.386 . S
C262 C266 1.393 . S
C263 H252 0.950 . S
C263 C261 1.391 . S
C263 C264 1.400 . S
C264 C258 1.491 . S
C264 C263 1.400 . S
C264 C265 1.398 . S
C265 H253 0.950 . S
C265 C264 1.398 . S
C265 C266 1.391 . S
C266 H254 0.950 . S
C266 C262 1.393 . S
C266 C265 1.391 . S
H267 C275 0.950 . S
H268 C280 0.950 . S
H269 C277 0.950 . S
H270 C279 0.950 . S
H271 C281 0.950 . S
H272 C283 0.950 . S
H273 C285 0.950 . S
H274 C286 0.950 . S
C275 H267 0.950 . S
C275 C276 1.386 . S
C275 C277 1.391 . S
C276 C275 1.386 . S
C276 C280 1.393 . S
C277 H269 0.950 . S
C277 C275 1.391 . S
C277 C278 1.400 . S
C278 C277 1.400 . S
C278 C279 1.398 . S
C278 C284 1.491 . S
C279 H270 0.950 . S
C279 C278 1.398 . S
C279 C280 1.391 . S
C280 H268 0.950 . S
C280 C276 1.393 . S
C280 C279 1.391 . S
C281 H271 0.950 . S
C281 C282 1.386 . S
C281 C283 1.391 . S
C282 C281 1.386 . S
C282 C286 1.393 . S
C283 H272 0.950 . S
C283 C281 1.391 . S
C283 C284 1.400 . S
C284 C278 1.491 . S
C284 C283 1.400 . S
C284 C285 1.398 . S
C285 H273 0.950 . S
C285 C284 1.398 . S
C285 C286 1.391 . S
C286 H274 0.950 . S
C286 C282 1.393 . S
C286 C285 1.391 . S
H287 C295 0.950 . S
H288 C300 0.950 . S
H289 C297 0.910 1_546 S
H290 C299 0.950 . S
H291 C301 0.950 . S
H292 C303 0.950 1_554 S
H293 C305 0.950 . S
H294 C306 0.950 . S
C295 H287 0.950 . S
C295 C296 1.386 . S
C295 C297 1.420 1_545 S
C296 C295 1.386 . S
C296 C300 1.393 1_545 S
C297 H289 0.910 1_564 S
C297 C295 1.420 1_565 S
C297 C298 1.411 . S
C298 C297 1.411 . S
C298 C299 1.398 . S
C298 C304 1.491 1_554 S
C299 H290 0.950 . S
C299 C298 1.398 . S
C299 C300 1.391 . S
C300 H288 0.950 . S
C300 C296 1.393 1_565 S
C300 C299 1.391 . S
C301 H291 0.950 . S
C301 C302 1.386 . S
C301 C303 1.391 . S
C302 C301 1.386 . S
C302 C306 1.393 . S
C303 H292 0.950 1_556 S
C303 C301 1.391 . S
C303 C304 1.400 . S
C304 C298 1.491 1_556 S
C304 C303 1.400 . S
C304 C305 1.398 . S
C305 H293 0.950 . S
C305 C304 1.398 . S
C305 C306 1.391 . S
C306 H294 0.950 . S
C306 C302 1.393 . S
C306 C305 1.391 . S
H307 C315 0.950 1_545 S
H308 C320 0.950 . S
H309 C317 0.950 . S
H310 C319 0.950 . S
H311 C321 0.950 . S
H312 C323 0.950 . S
H313 C325 0.950 . S
H314 C326 0.950 . S
C315 H307 0.950 1_565 S
C315 C316 1.386 . S
C315 C317 1.391 . S
C316 C315 1.386 . S
C316 C320 1.393 . S
C317 H309 0.950 . S
C317 C315 1.391 . S
C317 C318 1.400 . S
C318 C317 1.400 . S
C318 C319 1.398 . S
C318 C324 1.491 . S
C319 H310 0.950 . S
C319 C318 1.398 . S
C319 C320 1.391 . S
C320 H308 0.950 . S
C320 C316 1.393 . S
C320 C319 1.391 . S
C321 H311 0.950 . S
C321 C322 1.386 . S
C321 C323 1.391 . S
C322 C321 1.386 . S
C322 C326 1.393 . S
C323 H312 0.950 . S
C323 C321 1.391 . S
C323 C324 1.400 . S
C324 C318 1.491 . S
C324 C323 1.400 . S
C324 C325 1.398 . S
C325 H313 0.950 . S
C325 C324 1.398 . S
C325 C326 1.391 . S
C326 H314 0.950 . S
C326 C322 1.393 . S
C326 C325 1.391 . S
H327 C335 0.950 . S
H328 C340 0.950 . S
H329 C337 0.950 . S
H330 C339 0.950 . S
H331 C341 0.950 . S
H332 C343 0.950 . S
H333 C345 0.950 . S
H334 C346 0.950 . S
C335 H327 0.950 . S
C335 C336 1.386 . S
C335 C337 1.391 . S
C336 C335 1.386 . S
C336 C340 1.393 . S
C337 H329 0.950 . S
C337 C335 1.391 . S
C337 C338 1.400 . S
C338 C337 1.400 . S
C338 C339 1.398 . S
C338 C344 1.491 . S
C339 H330 0.950 . S
C339 C338 1.398 . S
C339 C340 1.391 . S
C340 H328 0.950 . S
C340 C336 1.393 . S
C340 C339 1.391 . S
C341 H331 0.950 . S
C341 C342 1.386 . S
C341 C343 1.391 . S
C342 C341 1.386 . S
C342 C346 1.393 . S
C343 H332 0.950 . S
C343 C341 1.391 . S
C343 C344 1.400 . S
C344 C338 1.491 . S
C344 C343 1.400 . S
C344 C345 1.398 . S
C345 H333 0.950 . S
C345 C344 1.398 . S
C345 C346 1.391 . S
C346 H334 0.950 . S
C346 C342 1.393 . S
C346 C345 1.391 . S
H347 C355 0.950 . S
H348 C360 0.950 . S
H349 C357 0.950 . S
H350 C359 0.950 . S
H351 C361 0.950 . S
H352 C363 0.950 . S
H353 C365 0.950 1_554 S
H354 C366 0.950 . S
C355 H347 0.950 . S
C355 C356 1.386 . S
C355 C357 1.391 . S
C356 C355 1.386 . S
C356 C360 1.393 . S
C357 H349 0.950 . S
C357 C355 1.391 . S
C357 C358 1.400 . S
C358 C357 1.400 . S
C358 C359 1.398 1_554 S
C358 C364 1.491 1_554 S
C359 H350 0.950 . S
C359 C358 1.398 1_556 S
C359 C360 1.391 1_556 S
C360 H348 0.950 . S
C360 C356 1.393 . S
C360 C359 1.391 1_554 S
C361 H351 0.950 . S
C361 C362 1.386 . S
C361 C363 1.391 . S
C362 C361 1.386 . S
C362 C366 1.393 . S
C363 H352 0.950 . S
C363 C361 1.391 . S
C363 C364 1.400 . S
C364 C358 1.491 1_556 S
C364 C363 1.400 . S
C364 C365 1.398 . S
C365 H353 0.950 1_556 S
C365 C364 1.398 . S
C365 C366 1.391 . S
C366 H354 0.950 . S
C366 C362 1.393 . S
C366 C365 1.391 . S
H367 C375 0.950 . S
H368 C380 0.950 1_655 S
H369 C377 0.950 . S
H370 C379 0.950 1_655 S
H371 C381 0.950 1_655 S
H372 C383 0.950 1_655 S
H373 C385 0.950 . S
H374 C386 0.950 . S
C375 H367 0.950 . S
C375 C376 1.386 . S
C375 C377 1.391 . S
C376 C375 1.386 . S
C376 C380 1.393 . S
C377 H369 0.950 . S
C377 C375 1.391 . S
C377 C378 1.400 . S
C378 C377 1.400 . S
C378 C379 1.398 . S
C378 C384 1.491 . S
C379 H370 0.950 1_455 S
C379 C378 1.398 . S
C379 C380 1.391 . S
C380 H368 0.950 1_455 S
C380 C376 1.393 . S
C380 C379 1.391 . S
C381 H371 0.950 1_455 S
C381 C382 1.386 . S
C381 C383 1.391 . S
C382 C381 1.386 . S
C382 C386 1.393 . S
C383 H372 0.950 1_455 S
C383 C381 1.391 . S
C383 C384 1.400 . S
C384 C378 1.491 . S
C384 C383 1.400 . S
C384 C385 1.398 . S
C385 H373 0.950 . S
C385 C384 1.398 . S
C385 C386 1.391 . S
C386 H374 0.950 . S
C386 C382 1.393 . S
C386 C385 1.391 . S
C162 C113 1.412 . S
C156 C14 1.390 . S
C176 C40 1.472 . S
C182 C131 1.482 . S
C196 C76 1.455 1_565 S
C202 C144 1.463 . S
C216 C3 1.387 1_565 S
C222 C111 1.384 . S
C242 C122 1.496 . S
C236 C38 1.474 . S
C256 C74 1.456 . S
C262 C135 1.478 . S
C282 C124 1.366 . S
C276 C86 1.358 . S
C296 C2 1.389 . S
C302 C137 1.411 . S
C322 C118 1.439 . S
C316 C39 1.449 1_565 S
C342 C126 1.391 . S
C336 C75 1.399 . S
C362 C139 1.407 . S
C356 C4 1.403 . S
C376 C50 1.466 . S
C382 C109 1.487 . S
