# Generated by pormake.
# Topology bcu-b, (8,8)-cn, num edge types: 1
# Building blocks:
#     Node 0, Type 0, BuildingBlock: TAGTUT_clean_sbu_1, # of connection points: 8
#     Node 1, Type 1, BuildingBlock: TAGTUT_clean_sbu_1, # of connection points: 8
#     Edge 2, Type (0, 1), BuildingBlock: ZUJKAS_clean_linker_0, # of connection points: 2
#     Edge 3, Type (0, 1), BuildingBlock: ZUJKAS_clean_linker_0, # of connection points: 2
#     Edge 4, Type (0, 1), BuildingBlock: ZUJKAS_clean_linker_0, # of connection points: 2
#     Edge 5, Type (0, 1), BuildingBlock: ZUJKAS_clean_linker_0, # of connection points: 2
#     Edge 6, Type (0, 1), BuildingBlock: ZUJKAS_clean_linker_0, # of connection points: 2
#     Edge 7, Type (0, 1), BuildingBlock: ZUJKAS_clean_linker_0, # of connection points: 2
#     Edge 8, Type (0, 1), BuildingBlock: ZUJKAS_clean_linker_0, # of connection points: 2
#     Edge 9, Type (0, 1), BuildingBlock: ZUJKAS_clean_linker_0, # of connection points: 2
# Relax obj value: 0.021
# Max RMSD: 0.083
# Mean RMSD: 0.083
data_MOF--net-bcu-b--node1-TAGTUT_clean_sbu_1--node2-TAGTUT_clean_sbu_1--edge1-ZUJKAS_clean_linker_0
_symmetry_space_group_name_H-M    P1
_symmetry_Int_Tables_number       1
_symmetry_cell_setting            triclinic
loop_
_symmetry_equiv_pos_as_xyz
'x, y, z'
_cell_length_a     24.885392
_cell_length_b     23.525137
_cell_length_c     27.158666
_cell_angle_alpha  90.489037
_cell_angle_beta   93.770489
_cell_angle_gamma 106.73063
loop_
_atom_site_label
_atom_site_type_symbol
_atom_site_fract_x
_atom_site_fract_y
_atom_site_fract_z
_atom_type_partial_charge
C0 C 0.87855 0.12688 0.04403 0.0
C1 C 0.92852 0.12178 0.89587 0.0
C2 C 0.90854 0.88921 0.93126 0.0
Mg3 Mg 0.99188 0.13428 -0.00114 0.0
O4 O 0.9646 0.05218 0.00695 0.0
Mg5 Mg 0.88827 0.00996 0.97565 0.0
Mg6 Mg 1.00703 -0.0025 -0.01467 0.0
O7 O 0.04907 0.94241 0.96391 0.0
Mg8 Mg 0.02061 0.86135 0.97627 0.0
Mg9 Mg 0.12556 0.98425 -0.00542 0.0
C10 C 0.10666 0.10637 0.03848 0.0
C11 C 0.09533 0.06385 0.90643 0.0
O12 O 0.85646 0.07687 0.02072 0.0
O13 O 0.93066 0.15591 0.04237 0.0
O14 O 0.89741 0.07209 0.90985 0.0
O15 O 0.97105 0.15257 0.923 0.0
O16 O 0.07882 0.14385 0.0283 0.0
O17 O 0.0848 0.0501 0.03135 0.0
C18 C 0.91793 0.92932 0.06339 0.0
O19 O 0.96817 0.9383 0.04991 0.0
O20 O 0.8824 0.95159 0.04095 0.0
O21 O 0.15571 0.91493 0.95043 0.0
O22 O 0.0805 0.83511 0.93444 0.0
O23 O 0.11629 0.92449 0.06174 0.0
C24 C 0.13231 0.86335 0.92999 0.0
O25 O 0.03965 0.8468 0.05293 0.0
O26 O 0.93521 0.85168 0.94448 0.0
C27 C 0.08372 0.87724 0.07828 0.0
O28 O 0.93012 0.94549 0.93826 0.0
O29 O 0.04567 0.05619 0.92083 0.0
O30 O 0.13083 0.04103 0.92831 0.0
C31 C 0.38932 0.63479 0.54628 0.0
C32 C 0.41309 0.60987 0.39224 0.0
C33 C 0.40556 0.38257 0.44147 0.0
Mg34 Mg 0.49139 0.63244 0.48681 0.0
O35 O 0.46478 0.55247 0.5025 0.0
Mg36 Mg 0.38499 0.5091 0.48262 0.0
Mg37 Mg 0.5015 0.49335 0.48046 0.0
O38 O 0.5382 0.43185 0.46065 0.0
Mg39 Mg 0.5103 0.35352 0.48398 0.0
Mg40 Mg 0.61828 0.47524 0.48076 0.0
C41 C 0.60817 0.60443 0.51816 0.0
C42 C 0.57823 0.54559 0.38979 0.0
O43 O 0.36319 0.58237 0.52876 0.0
O44 O 0.43971 0.66213 0.53605 0.0
O45 O 0.38375 0.5638 0.41299 0.0
O46 O 0.46 0.64187 0.41236 0.0
O47 O 0.5802 0.6415 0.50711 0.0
O48 O 0.58508 0.54797 0.51716 0.0
C49 C 0.42615 0.43818 0.5715 0.0
O50 O 0.47311 0.44422 0.55242 0.0
O51 O 0.38792 0.45804 0.55113 0.0
O52 O 0.63626 0.39709 0.43829 0.0
O53 O 0.55692 0.3199 0.43216 0.0
O54 O 0.62246 0.4266 0.55326 0.0
C55 C 0.60781 0.3449 0.42151 0.0
O56 O 0.54831 0.34733 0.5569 0.0
O57 O 0.42316 0.35844 0.47881 0.0
C58 C 0.5951 0.38101 0.57561 0.0
O59 O 0.41804 0.43947 0.44028 0.0
O60 O 0.53195 0.54306 0.40917 0.0
O61 O 0.61451 0.52266 0.40998 0.0
H62 H 0.17849 0.04262 0.07077 0.0
H63 H 0.26312 0.07862 0.12634 0.0
H64 H 0.24757 0.25634 0.11907 0.0
H65 H 0.16476 0.22154 0.06213 0.0
H66 H 0.35894 0.25528 0.13173 0.0
H67 H 0.22524 0.10912 0.26499 0.0
H68 H 0.242 0.07385 0.21162 0.0
H69 H 0.19709 0.12138 0.20455 0.0
C70 C 0.19396 0.08963 0.07977 0.0
C71 C 0.16389 0.12892 0.06299 0.0
C72 C 0.2423 0.11007 0.1117 0.0
C73 C 0.26054 0.16976 0.12789 0.0
C74 C 0.23395 0.20995 0.10729 0.0
H75 H 0.37412 0.41808 0.35148 0.0
H76 H 0.35682 0.36219 0.27313 0.0
C77 C 0.1862 0.1898 0.07498 0.0
C78 C 0.30034 0.1894 0.17172 0.0
H79 H 0.30355 0.18261 0.29714 0.0
C80 C 0.34777 0.23852 0.16789 0.0
C81 C 0.2858 0.16717 0.21886 0.0
C82 C 0.23468 0.11523 0.22563 0.0
C83 C 0.37855 0.26871 0.21019 0.0
C84 C 0.36081 0.24958 0.25719 0.0
C85 C 0.31675 0.19732 0.26094 0.0
C86 C 0.38096 0.28703 0.30243 0.0
C87 C 0.42827 0.32216 0.20416 0.0
C88 C 0.39957 0.26304 0.34506 0.0
C89 C 0.40841 0.29437 0.39013 0.0
C90 C 0.39895 0.35047 0.39336 0.0
C91 C 0.38206 0.37517 0.35022 0.0
C92 C 0.37289 0.3436 0.30524 0.0
H93 H 0.44883 0.31781 0.16979 0.0
H94 H 0.41357 0.36237 0.20128 0.0
H95 H 0.4599 0.32865 0.23608 0.0
H96 H 0.40537 0.21915 0.34376 0.0
H97 H 0.42167 0.274 0.42253 0.0
H98 H 0.91044 0.22861 0.1017 0.0
H99 H 0.85648 0.26005 0.16283 0.0
H100 H 0.71417 0.10846 0.12297 0.0
H101 H 0.76801 0.07591 0.06204 0.0
H102 H 0.7531 0.28641 0.15298 0.0
H103 H 0.7425 0.093 0.27246 0.0
H104 H 0.78967 0.11164 0.22349 0.0
H105 H 0.71617 0.07539 0.20928 0.0
C106 C 0.86755 0.20203 0.10556 0.0
C107 C 0.8438 0.14938 0.07718 0.0
C108 C 0.83679 0.22013 0.14056 0.0
C109 C 0.78179 0.18596 0.14801 0.0
C110 C 0.75702 0.13474 0.11846 0.0
H111 H 0.55779 0.24222 0.367 0.0
H112 H 0.59708 0.2008 0.29972 0.0
C113 C 0.78778 0.11649 0.08341 0.0
C114 C 0.75112 0.20381 0.18741 0.0
H115 H 0.69766 0.16258 0.29863 0.0
C116 C 0.74075 0.25926 0.18473 0.0
C117 C 0.73496 0.1681 0.22866 0.0
C118 C 0.74667 0.1089 0.2341 0.0
C119 C 0.71511 0.28032 0.22251 0.0
C120 C 0.70037 0.24536 0.26436 0.0
C121 C 0.70925 0.18921 0.26648 0.0
C122 C 0.67784 0.2677 0.30712 0.0
C123 C 0.704 0.33985 0.21738 0.0
C124 C 0.71102 0.31774 0.33446 0.0
C125 C 0.68894 0.34143 0.37291 0.0
C126 C 0.6332 0.31532 0.38492 0.0
C127 C 0.60086 0.26349 0.35878 0.0
C128 C 0.62311 0.23981 0.32024 0.0
H129 H 0.70403 0.35362 0.17834 0.0
H130 H 0.66296 0.33892 0.23168 0.0
H131 H 0.73753 0.37396 0.23915 0.0
H132 H 0.7538 0.33911 0.32546 0.0
H133 H 0.71524 0.38106 0.39242 0.0
H134 H 0.9208 0.81547 0.07945 0.0
H135 H 0.86074 0.74606 0.13461 0.0
H136 H 0.80734 0.88977 0.19435 0.0
H137 H 0.8661 0.95842 0.13915 0.0
H138 H 0.84605 0.74383 0.24076 0.0
H139 H 0.66157 0.77308 0.12867 0.0
H140 H 0.73202 0.79638 0.10828 0.0
H141 H 0.71053 0.84114 0.15261 0.0
C142 C 0.8978 0.83234 0.10572 0.0
C143 C 0.89779 0.89198 0.10527 0.0
C144 C 0.86316 0.79274 0.13676 0.0
C145 C 0.82853 0.81271 0.16743 0.0
C146 C 0.83276 0.87333 0.17012 0.0
H147 H 0.57517 0.65829 0.36979 0.0
H148 H 0.63228 0.72298 0.31015 0.0
C149 C 0.86676 0.91254 0.13902 0.0
C150 C 0.78488 0.77026 0.19401 0.0
H151 H 0.64258 0.7197 0.20254 0.0
C152 C 0.80158 0.73812 0.23223 0.0
C153 C 0.72686 0.76313 0.18267 0.0
C154 C 0.70647 0.79482 0.14054 0.0
C155 C 0.76176 0.70008 0.26042 0.0
C156 C 0.70376 0.69334 0.24936 0.0
C157 C 0.68703 0.72514 0.21089 0.0
C158 C 0.66026 0.65307 0.27759 0.0
C159 C 0.78213 0.66843 0.30261 0.0
C160 C 0.65432 0.59203 0.27649 0.0
C161 C 0.62194 0.5554 0.31019 0.0
C162 C 0.59439 0.5791 0.34506 0.0
C163 C 0.59547 0.63898 0.34279 0.0
C164 C 0.62847 0.67593 0.30916 0.0
H165 H 0.82754 0.68879 0.31337 0.0
H166 H 0.75785 0.66889 0.33542 0.0
H167 H 0.77601 0.62145 0.29125 0.0
H168 H 0.67763 0.57343 0.25171 0.0
H169 H 0.6217 0.50928 0.31138 0.0
H170 H 0.17227 0.93142 0.14362 0.0
H171 H 0.22412 0.88181 0.19911 0.0
H172 H 0.09609 0.71527 0.16888 0.0
H173 H 0.04418 0.76428 0.11228 0.0
H174 H 0.20385 0.81052 0.28134 0.0
H175 H 0.23726 0.68519 0.1172 0.0
H176 H 0.20839 0.74717 0.11209 0.0
H177 H 0.16497 0.67567 0.12868 0.0
C178 C 0.15427 0.88448 0.14959 0.0
C179 C 0.10468 0.85155 0.12256 0.0
C180 C 0.18411 0.85618 0.18132 0.0
C181 C 0.16486 0.79458 0.18673 0.0
C182 C 0.11239 0.76264 0.16403 0.0
H183 H 0.31833 0.55082 0.33539 0.0
H184 H 0.26006 0.59562 0.28177 0.0
C185 C 0.08246 0.7909 0.13213 0.0
C186 C 0.20214 0.76366 0.21261 0.0
H187 H 0.27713 0.66524 0.19402 0.0
C188 C 0.2198 0.77868 0.26233 0.0
C189 C 0.2233 0.72255 0.18746 0.0
C190 C 0.20802 0.70692 0.13331 0.0
C191 C 0.25757 0.75315 0.28782 0.0
C192 C 0.27889 0.71231 0.26259 0.0
C193 C 0.2609 0.69685 0.21303 0.0
C194 C 0.3185 0.68384 0.28785 0.0
C195 C 0.27373 0.76937 0.34176 0.0
C196 C 0.37214 0.71797 0.30647 0.0
C197 C 0.40582 0.69247 0.33697 0.0
C198 C 0.38615 0.63245 0.34946 0.0
C199 C 0.33455 0.5973 0.32696 0.0
C200 C 0.30105 0.62282 0.29638 0.0
H201 H 0.24469 0.79116 0.35813 0.0
H202 H 0.27391 0.72936 0.36311 0.0
H203 H 0.31678 0.80069 0.34573 0.0
H204 H 0.38677 0.76496 0.29933 0.0
H205 H 0.4454 0.72081 0.35343 0.0
H206 H 0.23744 0.91559 0.89858 0.0
H207 H 0.28359 0.87848 0.83379 0.0
H208 H 0.14598 0.71729 0.8195 0.0
H209 H 0.09928 0.75382 0.88376 0.0
H210 H 0.31597 0.77126 0.82413 0.0
H211 H 0.15235 0.78614 0.67963 0.0
H212 H 0.16012 0.82226 0.73968 0.0
H213 H 0.12555 0.744 0.7321 0.0
C214 C 0.21726 0.87191 0.88216 0.0
C215 C 0.16429 0.838 0.89606 0.0
C216 C 0.24368 0.85088 0.84506 0.0
C217 C 0.21752 0.79578 0.82122 0.0
C218 C 0.1662 0.76052 0.83676 0.0
H219 H 0.28617 0.58835 0.58296 0.0
H220 H 0.24594 0.63002 0.64918 0.0
C221 C 0.13975 0.78142 0.87373 0.0
C222 C 0.24293 0.77569 0.7791 0.0
H223 H 0.21909 0.73834 0.65617 0.0
C224 C 0.29508 0.7644 0.78732 0.0
C225 C 0.21547 0.76697 0.73116 0.0
C226 C 0.16051 0.78094 0.71981 0.0
C227 C 0.31983 0.74288 0.74902 0.0
C228 C 0.29203 0.73354 0.70119 0.0
C229 C 0.24018 0.74548 0.69291 0.0
C230 C 0.31553 0.71016 0.65944 0.0
C231 C 0.37467 0.72869 0.76036 0.0
C232 C 0.36721 0.74229 0.64235 0.0
C233 C 0.39038 0.71869 0.60445 0.0
C234 C 0.36209 0.66257 0.58276 0.0
C235 C 0.30922 0.63159 0.5988 0.0
C236 C 0.28615 0.65526 0.63672 0.0
H237 H 0.38361 0.72506 0.80065 0.0
H238 H 0.37427 0.68646 0.74155 0.0
H239 H 0.40955 0.76471 0.74678 0.0
H240 H 0.38994 0.78537 0.6587 0.0
H241 H 0.43099 0.744 0.59288 0.0
H242 H 0.14368 0.03254 0.82931 0.0
H243 H 0.20152 0.0998 0.77264 0.0
H244 H 0.15342 0.24609 0.83422 0.0
H245 H 0.09411 0.17806 0.8907 0.0
H246 H 0.16483 0.2479 0.72832 0.0
H247 H 0.35032 0.21331 0.83516 0.0
H248 H 0.29971 0.14604 0.81176 0.0
H249 H 0.28061 0.19139 0.85718 0.0
C250 C 0.14398 0.07871 0.82953 0.0
C251 C 0.11476 0.10047 0.86413 0.0
C252 C 0.17742 0.11709 0.79761 0.0
C253 C 0.18295 0.17799 0.80045 0.0
C254 C 0.14999 0.19917 0.83201 0.0
H255 H 0.38926 0.4771 0.65223 0.0
H256 H 0.33587 0.41467 0.71426 0.0
C257 C 0.11582 0.1604 0.86381 0.0
C258 C 0.22629 0.21946 0.77305 0.0
H259 H 0.36804 0.26636 0.76094 0.0
C260 C 0.20926 0.25238 0.73562 0.0
C261 C 0.28424 0.22501 0.78288 0.0
C262 C 0.30502 0.1925 0.82422 0.0
C263 C 0.24866 0.28962 0.70666 0.0
C264 C 0.30655 0.29468 0.71615 0.0
C265 C 0.32364 0.26217 0.75386 0.0
C266 C 0.34952 0.33373 0.68685 0.0
C267 C 0.22792 0.32222 0.66534 0.0
C268 C 0.3785 0.30942 0.65364 0.0
C269 C 0.41009 0.34537 0.61871 0.0
C270 C 0.41248 0.4056 0.61688 0.0
C271 C 0.38801 0.43068 0.65324 0.0
C272 C 0.35711 0.39506 0.68827 0.0
H273 H 0.18206 0.30321 0.65581 0.0
H274 H 0.23579 0.36942 0.67697 0.0
H275 H 0.25066 0.32095 0.6317 0.0
H276 H 0.37331 0.26209 0.65238 0.0
H277 H 0.42803 0.32511 0.59051 0.0
H278 H 0.84246 0.0682 0.82797 0.0
H279 H 0.79114 0.11724 0.77174 0.0
H280 H 0.91315 0.28603 0.80899 0.0
H281 H 0.96433 0.23736 0.86661 0.0
H282 H 0.80676 0.28907 0.82137 0.0
H283 H 0.81162 0.18788 0.6378 0.0
H284 H 0.78788 0.13272 0.6829 0.0
H285 H 0.85861 0.18166 0.68967 0.0
C286 C 0.85946 0.11554 0.82331 0.0
C287 C 0.90739 0.14883 0.85227 0.0
C288 C 0.83003 0.14357 0.79085 0.0
C289 C 0.84825 0.20538 0.78596 0.0
C290 C 0.89825 0.23827 0.8122 0.0
H291 H 0.69077 0.44408 0.6297 0.0
H292 H 0.75098 0.40378 0.68528 0.0
C293 C 0.92775 0.21025 0.84486 0.0
C294 C 0.81183 0.23586 0.7578 0.0
H295 H 0.73927 0.23548 0.64652 0.0
C296 C 0.79259 0.27792 0.78294 0.0
C297 C 0.79303 0.22111 0.70774 0.0
C298 C 0.81432 0.17881 0.67784 0.0
C299 C 0.75388 0.30425 0.7598 0.0
C300 C 0.73413 0.28833 0.71019 0.0
C301 C 0.75396 0.24704 0.68482 0.0
C302 C 0.69383 0.31485 0.68323 0.0
C303 C 0.73322 0.34768 0.78891 0.0
C304 C 0.64095 0.27863 0.66475 0.0
C305 C 0.60616 0.30158 0.63311 0.0
C306 C 0.6241 0.36103 0.61871 0.0
C307 C 0.6756 0.39809 0.63991 0.0
C308 C 0.71015 0.37515 0.67177 0.0
H309 H 0.74283 0.34543 0.82925 0.0
H310 H 0.75409 0.39344 0.7774 0.0
H311 H 0.68711 0.3392 0.78157 0.0
H312 H 0.62758 0.23195 0.67324 0.0
H313 H 0.56697 0.27166 0.61742 0.0
H314 H 0.87216 0.94996 0.85758 0.0
H315 H 0.82089 0.90377 0.78107 0.0
H316 H 0.78424 0.73195 0.84713 0.0
H317 H 0.83626 0.77767 0.92362 0.0
H318 H 0.85254 0.74558 0.76651 0.0
H319 H 0.66151 0.81814 0.722 0.0
H320 H 0.72408 0.87652 0.74109 0.0
H321 H 0.6932 0.82105 0.7841 0.0
C322 C 0.8508 0.90276 0.85673 0.0
C323 C 0.85923 0.86708 0.89605 0.0
C324 C 0.82164 0.87639 0.81282 0.0
C325 C 0.79973 0.81444 0.80841 0.0
C326 C 0.80151 0.77982 0.84987 0.0
H327 H 0.65912 0.55221 0.58878 0.0
H328 H 0.72399 0.60741 0.65517 0.0
C329 C 0.83091 0.80603 0.89358 0.0
C330 C 0.78433 0.78517 0.75925 0.0
H331 H 0.69168 0.76758 0.65862 0.0
C332 C 0.81728 0.75022 0.74284 0.0
C333 C 0.73913 0.79239 0.72841 0.0
C334 C 0.70208 0.82867 0.74478 0.0
C335 C 0.8056 0.72143 0.69635 0.0
C336 C 0.75959 0.72752 0.66594 0.0
C337 C 0.72746 0.7636 0.68193 0.0
C338 C 0.73951 0.6922 0.61977 0.0
C339 C 0.84245 0.68482 0.68025 0.0
C340 C 0.73019 0.72086 0.57639 0.0
C341 C 0.69274 0.68941 0.53848 0.0
C342 C 0.66405 0.62917 0.54391 0.0
C343 C 0.6804 0.5987 0.58374 0.0
C344 C 0.71759 0.6303 0.62185 0.0
H345 H 0.88506 0.69982 0.69966 0.0
H346 H 0.82321 0.63776 0.68939 0.0
H347 H 0.8467 0.687 0.6398 0.0
H348 H 0.74722 0.76857 0.57404 0.0
H349 H 0.68148 0.71368 0.50766 0.0
loop_
_geom_bond_atom_site_label_1
_geom_bond_atom_site_label_2
_geom_bond_distance
_geom_bond_site_symmetry_2
_ccdc_geom_bond_type
C0 O12 1.241 . S
C0 O13 1.280 . S
C1 O14 1.277 . S
C1 O15 1.245 . S
C2 O26 1.247 . S
C2 O28 1.289 . S
Mg3 O4 1.926 . S
Mg3 O13 1.984 . S
Mg3 O15 1.988 1_554 S
Mg3 O16 2.061 1_655 S
O4 Mg3 1.926 . S
O4 Mg5 1.986 1_554 S
O4 Mg6 1.917 1_655 S
Mg5 O4 1.986 1_556 S
Mg5 O12 2.042 1_556 S
Mg5 O14 2.041 . S
Mg5 O20 2.038 1_546 S
Mg5 O28 2.238 1_545 S
Mg6 O4 1.917 1_455 S
Mg6 O7 1.917 1_544 S
Mg6 O17 2.106 . S
Mg6 O19 2.079 1_445 S
Mg6 O28 2.106 1_444 S
Mg6 O29 2.079 1_554 S
O7 Mg6 1.917 1_566 S
O7 Mg8 1.926 . S
O7 Mg9 1.986 1_556 S
Mg8 O7 1.926 . S
Mg8 O22 1.984 . S
Mg8 O25 1.988 1_556 S
Mg8 O26 2.061 1_455 S
Mg9 O7 1.986 1_554 S
Mg9 O17 2.238 1_565 S
Mg9 O21 2.042 1_554 S
Mg9 O23 2.041 . S
Mg9 O30 2.038 1_564 S
C10 O16 1.247 . S
C10 O17 1.289 . S
C11 O29 1.245 . S
C11 O30 1.274 . S
O12 C0 1.241 . S
O12 Mg5 2.042 1_554 S
O13 C0 1.280 . S
O13 Mg3 1.984 . S
O14 C1 1.277 . S
O14 Mg5 2.041 . S
O15 C1 1.245 . S
O15 Mg3 1.988 1_556 S
O16 Mg3 2.061 1_455 S
O16 C10 1.247 . S
O17 Mg6 2.106 . S
O17 Mg9 2.238 1_545 S
O17 C10 1.289 . S
C18 O19 1.245 . S
C18 O20 1.274 . S
O19 Mg6 2.079 1_665 S
O19 C18 1.245 . S
O20 Mg5 2.038 1_564 S
O20 C18 1.274 . S
O21 Mg9 2.042 1_556 S
O21 C24 1.241 . S
O22 Mg8 1.984 . S
O22 C24 1.280 . S
O23 Mg9 2.041 . S
O23 C27 1.277 . S
C24 O21 1.241 . S
C24 O22 1.280 . S
O25 Mg8 1.988 1_554 S
O25 C27 1.245 . S
O26 C2 1.247 . S
O26 Mg8 2.061 1_655 S
C27 O23 1.277 . S
C27 O25 1.245 . S
O28 C2 1.289 . S
O28 Mg5 2.238 1_565 S
O28 Mg6 2.106 1_666 S
O29 Mg6 2.079 1_556 S
O29 C11 1.245 . S
O30 Mg9 2.038 1_546 S
O30 C11 1.274 . S
C31 O43 1.241 . S
C31 O44 1.280 . S
C32 O45 1.277 . S
C32 O46 1.245 . S
C33 O57 1.247 . S
C33 O59 1.289 . S
Mg34 O35 1.926 . S
Mg34 O44 1.984 . S
Mg34 O46 1.988 . S
Mg34 O47 2.061 . S
O35 Mg34 1.926 . S
O35 Mg36 1.986 . S
O35 Mg37 1.917 . S
Mg36 O35 1.986 . S
Mg36 O43 2.042 . S
Mg36 O45 2.041 . S
Mg36 O51 2.038 . S
Mg36 O59 2.238 . S
Mg37 O35 1.917 . S
Mg37 O38 1.917 . S
Mg37 O48 2.106 . S
Mg37 O50 2.079 . S
Mg37 O59 2.106 . S
Mg37 O60 2.079 . S
O38 Mg37 1.917 . S
O38 Mg39 1.926 . S
O38 Mg40 1.986 . S
Mg39 O38 1.926 . S
Mg39 O53 1.984 . S
Mg39 O56 1.988 . S
Mg39 O57 2.061 . S
Mg40 O38 1.986 . S
Mg40 O48 2.238 . S
Mg40 O52 2.042 . S
Mg40 O54 2.041 . S
Mg40 O61 2.038 . S
C41 O47 1.247 . S
C41 O48 1.289 . S
C42 O60 1.245 . S
C42 O61 1.274 . S
O43 C31 1.241 . S
O43 Mg36 2.042 . S
O44 C31 1.280 . S
O44 Mg34 1.984 . S
O45 C32 1.277 . S
O45 Mg36 2.041 . S
O46 C32 1.245 . S
O46 Mg34 1.988 . S
O47 Mg34 2.061 . S
O47 C41 1.247 . S
O48 Mg37 2.106 . S
O48 Mg40 2.238 . S
O48 C41 1.289 . S
C49 O50 1.245 . S
C49 O51 1.274 . S
O50 Mg37 2.079 . S
O50 C49 1.245 . S
O51 Mg36 2.038 . S
O51 C49 1.274 . S
O52 Mg40 2.042 . S
O52 C55 1.241 . S
O53 Mg39 1.984 . S
O53 C55 1.280 . S
O54 Mg40 2.041 . S
O54 C58 1.277 . S
C55 O52 1.241 . S
C55 O53 1.280 . S
O56 Mg39 1.988 . S
O56 C58 1.245 . S
O57 C33 1.247 . S
O57 Mg39 2.061 . S
C58 O54 1.277 . S
C58 O56 1.245 . S
O59 C33 1.289 . S
O59 Mg36 2.238 . S
O59 Mg37 2.106 . S
O60 Mg37 2.079 . S
O60 C42 1.245 . S
O61 Mg40 2.038 . S
O61 C42 1.274 . S
H62 C70 0.929 . S
H63 C72 0.930 . S
H64 C74 0.930 . S
H65 C77 0.929 . S
H66 C80 0.930 . S
H67 C82 0.960 . S
H68 C82 0.960 . S
H69 C82 0.960 . S
C70 H62 0.929 . S
C70 C71 1.377 . S
C70 C72 1.384 . S
C71 C70 1.377 . S
C71 C77 1.390 . S
C72 H63 0.930 . S
C72 C70 1.384 . S
C72 C73 1.372 . S
C73 C72 1.372 . S
C73 C74 1.400 . S
C73 C78 1.490 . S
C74 H64 0.930 . S
C74 C73 1.400 . S
C74 C77 1.386 . S
H75 C91 0.930 . S
H76 C92 0.931 . S
C77 H65 0.929 . S
C77 C71 1.390 . S
C77 C74 1.386 . S
C78 C73 1.490 . S
C78 C80 1.395 . S
C78 C81 1.403 . S
H79 C85 0.930 . S
C80 H66 0.930 . S
C80 C78 1.395 . S
C80 C83 1.403 . S
C81 C78 1.403 . S
C81 C82 1.524 . S
C81 C85 1.400 . S
C82 H67 0.960 . S
C82 H68 0.960 . S
C82 H69 0.960 . S
C82 C81 1.524 . S
C83 C80 1.403 . S
C83 C84 1.392 . S
C83 C87 1.495 . S
C84 C83 1.392 . S
C84 C85 1.385 . S
C84 C86 1.478 . S
C85 H79 0.930 . S
C85 C81 1.400 . S
C85 C84 1.385 . S
C86 C84 1.478 . S
C86 C88 1.381 . S
C86 C92 1.383 . S
C87 C83 1.495 . S
C87 H93 0.959 . S
C87 H94 0.961 . S
C87 H95 0.960 . S
C88 C86 1.381 . S
C88 C89 1.394 . S
C88 H96 0.930 . S
C89 C88 1.394 . S
C89 C90 1.383 . S
C89 H97 0.929 . S
C90 C89 1.383 . S
C90 C91 1.377 . S
C91 H75 0.930 . S
C91 C90 1.377 . S
C91 C92 1.379 . S
C92 H76 0.931 . S
C92 C86 1.383 . S
C92 C91 1.379 . S
H93 C87 0.959 . S
H94 C87 0.961 . S
H95 C87 0.960 . S
H96 C88 0.930 . S
H97 C89 0.929 . S
H98 C106 0.929 . S
H99 C108 0.930 . S
H100 C110 0.930 . S
H101 C113 0.929 . S
H102 C116 0.930 . S
H103 C118 0.960 . S
H104 C118 0.960 . S
H105 C118 0.960 . S
C106 H98 0.929 . S
C106 C107 1.377 . S
C106 C108 1.384 . S
C107 C106 1.377 . S
C107 C113 1.390 . S
C108 H99 0.930 . S
C108 C106 1.384 . S
C108 C109 1.372 . S
C109 C108 1.372 . S
C109 C110 1.400 . S
C109 C114 1.490 . S
C110 H100 0.930 . S
C110 C109 1.400 . S
C110 C113 1.386 . S
H111 C127 0.930 . S
H112 C128 0.931 . S
C113 H101 0.929 . S
C113 C107 1.390 . S
C113 C110 1.386 . S
C114 C109 1.490 . S
C114 C116 1.395 . S
C114 C117 1.403 . S
H115 C121 0.930 . S
C116 H102 0.930 . S
C116 C114 1.395 . S
C116 C119 1.403 . S
C117 C114 1.403 . S
C117 C118 1.524 . S
C117 C121 1.400 . S
C118 H103 0.960 . S
C118 H104 0.960 . S
C118 H105 0.960 . S
C118 C117 1.524 . S
C119 C116 1.403 . S
C119 C120 1.392 . S
C119 C123 1.495 . S
C120 C119 1.392 . S
C120 C121 1.385 . S
C120 C122 1.478 . S
C121 H115 0.930 . S
C121 C117 1.400 . S
C121 C120 1.385 . S
C122 C120 1.478 . S
C122 C124 1.381 . S
C122 C128 1.383 . S
C123 C119 1.495 . S
C123 H129 0.959 . S
C123 H130 0.961 . S
C123 H131 0.960 . S
C124 C122 1.381 . S
C124 C125 1.394 . S
C124 H132 0.930 . S
C125 C124 1.394 . S
C125 C126 1.383 . S
C125 H133 0.929 . S
C126 C125 1.383 . S
C126 C127 1.377 . S
C127 H111 0.930 . S
C127 C126 1.377 . S
C127 C128 1.379 . S
C128 H112 0.931 . S
C128 C122 1.383 . S
C128 C127 1.379 . S
H129 C123 0.959 . S
H130 C123 0.961 . S
H131 C123 0.960 . S
H132 C124 0.930 . S
H133 C125 0.929 . S
H134 C142 0.929 . S
H135 C144 0.930 . S
H136 C146 0.930 . S
H137 C149 0.929 . S
H138 C152 0.930 . S
H139 C154 0.960 . S
H140 C154 0.960 . S
H141 C154 0.960 . S
C142 H134 0.929 . S
C142 C143 1.377 . S
C142 C144 1.384 . S
C143 C142 1.377 . S
C143 C149 1.390 . S
C144 H135 0.930 . S
C144 C142 1.384 . S
C144 C145 1.372 . S
C145 C144 1.372 . S
C145 C146 1.400 . S
C145 C150 1.490 . S
C146 H136 0.930 . S
C146 C145 1.400 . S
C146 C149 1.386 . S
H147 C163 0.930 . S
H148 C164 0.931 . S
C149 H137 0.929 . S
C149 C143 1.390 . S
C149 C146 1.386 . S
C150 C145 1.490 . S
C150 C152 1.395 . S
C150 C153 1.403 . S
H151 C157 0.930 . S
C152 H138 0.930 . S
C152 C150 1.395 . S
C152 C155 1.403 . S
C153 C150 1.403 . S
C153 C154 1.524 . S
C153 C157 1.400 . S
C154 H139 0.960 . S
C154 H140 0.960 . S
C154 H141 0.960 . S
C154 C153 1.524 . S
C155 C152 1.403 . S
C155 C156 1.392 . S
C155 C159 1.495 . S
C156 C155 1.392 . S
C156 C157 1.385 . S
C156 C158 1.478 . S
C157 H151 0.930 . S
C157 C153 1.400 . S
C157 C156 1.385 . S
C158 C156 1.478 . S
C158 C160 1.381 . S
C158 C164 1.383 . S
C159 C155 1.495 . S
C159 H165 0.959 . S
C159 H166 0.961 . S
C159 H167 0.960 . S
C160 C158 1.381 . S
C160 C161 1.394 . S
C160 H168 0.930 . S
C161 C160 1.394 . S
C161 C162 1.383 . S
C161 H169 0.929 . S
C162 C161 1.383 . S
C162 C163 1.377 . S
C163 H147 0.930 . S
C163 C162 1.377 . S
C163 C164 1.379 . S
C164 H148 0.931 . S
C164 C158 1.383 . S
C164 C163 1.379 . S
H165 C159 0.959 . S
H166 C159 0.961 . S
H167 C159 0.960 . S
H168 C160 0.930 . S
H169 C161 0.929 . S
H170 C178 0.929 . S
H171 C180 0.930 . S
H172 C182 0.930 . S
H173 C185 0.929 . S
H174 C188 0.930 . S
H175 C190 0.960 . S
H176 C190 0.960 . S
H177 C190 0.960 . S
C178 H170 0.929 . S
C178 C179 1.377 . S
C178 C180 1.384 . S
C179 C178 1.377 . S
C179 C185 1.390 . S
C180 H171 0.930 . S
C180 C178 1.384 . S
C180 C181 1.372 . S
C181 C180 1.372 . S
C181 C182 1.400 . S
C181 C186 1.490 . S
C182 H172 0.930 . S
C182 C181 1.400 . S
C182 C185 1.386 . S
H183 C199 0.930 . S
H184 C200 0.931 . S
C185 H173 0.929 . S
C185 C179 1.390 . S
C185 C182 1.386 . S
C186 C181 1.490 . S
C186 C188 1.395 . S
C186 C189 1.403 . S
H187 C193 0.930 . S
C188 H174 0.930 . S
C188 C186 1.395 . S
C188 C191 1.403 . S
C189 C186 1.403 . S
C189 C190 1.524 . S
C189 C193 1.400 . S
C190 H175 0.960 . S
C190 H176 0.960 . S
C190 H177 0.960 . S
C190 C189 1.524 . S
C191 C188 1.403 . S
C191 C192 1.392 . S
C191 C195 1.495 . S
C192 C191 1.392 . S
C192 C193 1.385 . S
C192 C194 1.478 . S
C193 H187 0.930 . S
C193 C189 1.400 . S
C193 C192 1.385 . S
C194 C192 1.478 . S
C194 C196 1.381 . S
C194 C200 1.383 . S
C195 C191 1.495 . S
C195 H201 0.959 . S
C195 H202 0.961 . S
C195 H203 0.960 . S
C196 C194 1.381 . S
C196 C197 1.394 . S
C196 H204 0.930 . S
C197 C196 1.394 . S
C197 C198 1.383 . S
C197 H205 0.929 . S
C198 C197 1.383 . S
C198 C199 1.377 . S
C199 H183 0.930 . S
C199 C198 1.377 . S
C199 C200 1.379 . S
C200 H184 0.931 . S
C200 C194 1.383 . S
C200 C199 1.379 . S
H201 C195 0.959 . S
H202 C195 0.961 . S
H203 C195 0.960 . S
H204 C196 0.930 . S
H205 C197 0.929 . S
H206 C214 0.929 . S
H207 C216 0.930 . S
H208 C218 0.930 . S
H209 C221 0.929 . S
H210 C224 0.930 . S
H211 C226 0.960 . S
H212 C226 0.960 . S
H213 C226 0.960 . S
C214 H206 0.929 . S
C214 C215 1.377 . S
C214 C216 1.384 . S
C215 C214 1.377 . S
C215 C221 1.390 . S
C216 H207 0.930 . S
C216 C214 1.384 . S
C216 C217 1.372 . S
C217 C216 1.372 . S
C217 C218 1.400 . S
C217 C222 1.490 . S
C218 H208 0.930 . S
C218 C217 1.400 . S
C218 C221 1.386 . S
H219 C235 0.930 . S
H220 C236 0.931 . S
C221 H209 0.929 . S
C221 C215 1.390 . S
C221 C218 1.386 . S
C222 C217 1.490 . S
C222 C224 1.395 . S
C222 C225 1.403 . S
H223 C229 0.930 . S
C224 H210 0.930 . S
C224 C222 1.395 . S
C224 C227 1.403 . S
C225 C222 1.403 . S
C225 C226 1.524 . S
C225 C229 1.400 . S
C226 H211 0.960 . S
C226 H212 0.960 . S
C226 H213 0.960 . S
C226 C225 1.524 . S
C227 C224 1.403 . S
C227 C228 1.392 . S
C227 C231 1.495 . S
C228 C227 1.392 . S
C228 C229 1.385 . S
C228 C230 1.478 . S
C229 H223 0.930 . S
C229 C225 1.400 . S
C229 C228 1.385 . S
C230 C228 1.478 . S
C230 C232 1.381 . S
C230 C236 1.383 . S
C231 C227 1.495 . S
C231 H237 0.959 . S
C231 H238 0.961 . S
C231 H239 0.960 . S
C232 C230 1.381 . S
C232 C233 1.394 . S
C232 H240 0.930 . S
C233 C232 1.394 . S
C233 C234 1.383 . S
C233 H241 0.929 . S
C234 C233 1.383 . S
C234 C235 1.377 . S
C235 H219 0.930 . S
C235 C234 1.377 . S
C235 C236 1.379 . S
C236 H220 0.931 . S
C236 C230 1.383 . S
C236 C235 1.379 . S
H237 C231 0.959 . S
H238 C231 0.961 . S
H239 C231 0.960 . S
H240 C232 0.930 . S
H241 C233 0.929 . S
H242 C250 0.929 . S
H243 C252 0.930 . S
H244 C254 0.930 . S
H245 C257 0.929 . S
H246 C260 0.930 . S
H247 C262 0.960 . S
H248 C262 0.960 . S
H249 C262 0.960 . S
C250 H242 0.929 . S
C250 C251 1.377 . S
C250 C252 1.384 . S
C251 C250 1.377 . S
C251 C257 1.390 . S
C252 H243 0.930 . S
C252 C250 1.384 . S
C252 C253 1.372 . S
C253 C252 1.372 . S
C253 C254 1.400 . S
C253 C258 1.490 . S
C254 H244 0.930 . S
C254 C253 1.400 . S
C254 C257 1.386 . S
H255 C271 0.930 . S
H256 C272 0.931 . S
C257 H245 0.929 . S
C257 C251 1.390 . S
C257 C254 1.386 . S
C258 C253 1.490 . S
C258 C260 1.395 . S
C258 C261 1.403 . S
H259 C265 0.930 . S
C260 H246 0.930 . S
C260 C258 1.395 . S
C260 C263 1.403 . S
C261 C258 1.403 . S
C261 C262 1.524 . S
C261 C265 1.400 . S
C262 H247 0.960 . S
C262 H248 0.960 . S
C262 H249 0.960 . S
C262 C261 1.524 . S
C263 C260 1.403 . S
C263 C264 1.392 . S
C263 C267 1.495 . S
C264 C263 1.392 . S
C264 C265 1.385 . S
C264 C266 1.478 . S
C265 H259 0.930 . S
C265 C261 1.400 . S
C265 C264 1.385 . S
C266 C264 1.478 . S
C266 C268 1.381 . S
C266 C272 1.383 . S
C267 C263 1.495 . S
C267 H273 0.959 . S
C267 H274 0.961 . S
C267 H275 0.960 . S
C268 C266 1.381 . S
C268 C269 1.394 . S
C268 H276 0.930 . S
C269 C268 1.394 . S
C269 C270 1.383 . S
C269 H277 0.929 . S
C270 C269 1.383 . S
C270 C271 1.377 . S
C271 H255 0.930 . S
C271 C270 1.377 . S
C271 C272 1.379 . S
C272 H256 0.931 . S
C272 C266 1.383 . S
C272 C271 1.379 . S
H273 C267 0.959 . S
H274 C267 0.961 . S
H275 C267 0.960 . S
H276 C268 0.930 . S
H277 C269 0.929 . S
H278 C286 0.929 . S
H279 C288 0.930 . S
H280 C290 0.930 . S
H281 C293 0.929 . S
H282 C296 0.930 . S
H283 C298 0.960 . S
H284 C298 0.960 . S
H285 C298 0.960 . S
C286 H278 0.929 . S
C286 C287 1.377 . S
C286 C288 1.384 . S
C287 C286 1.377 . S
C287 C293 1.390 . S
C288 H279 0.930 . S
C288 C286 1.384 . S
C288 C289 1.372 . S
C289 C288 1.372 . S
C289 C290 1.400 . S
C289 C294 1.490 . S
C290 H280 0.930 . S
C290 C289 1.400 . S
C290 C293 1.386 . S
H291 C307 0.930 . S
H292 C308 0.931 . S
C293 H281 0.929 . S
C293 C287 1.390 . S
C293 C290 1.386 . S
C294 C289 1.490 . S
C294 C296 1.395 . S
C294 C297 1.403 . S
H295 C301 0.930 . S
C296 H282 0.930 . S
C296 C294 1.395 . S
C296 C299 1.403 . S
C297 C294 1.403 . S
C297 C298 1.524 . S
C297 C301 1.400 . S
C298 H283 0.960 . S
C298 H284 0.960 . S
C298 H285 0.960 . S
C298 C297 1.524 . S
C299 C296 1.403 . S
C299 C300 1.392 . S
C299 C303 1.495 . S
C300 C299 1.392 . S
C300 C301 1.385 . S
C300 C302 1.478 . S
C301 H295 0.930 . S
C301 C297 1.400 . S
C301 C300 1.385 . S
C302 C300 1.478 . S
C302 C304 1.381 . S
C302 C308 1.383 . S
C303 C299 1.495 . S
C303 H309 0.959 . S
C303 H310 0.961 . S
C303 H311 0.960 . S
C304 C302 1.381 . S
C304 C305 1.394 . S
C304 H312 0.930 . S
C305 C304 1.394 . S
C305 C306 1.383 . S
C305 H313 0.929 . S
C306 C305 1.383 . S
C306 C307 1.377 . S
C307 H291 0.930 . S
C307 C306 1.377 . S
C307 C308 1.379 . S
C308 H292 0.931 . S
C308 C302 1.383 . S
C308 C307 1.379 . S
H309 C303 0.959 . S
H310 C303 0.961 . S
H311 C303 0.960 . S
H312 C304 0.930 . S
H313 C305 0.929 . S
H314 C322 0.929 . S
H315 C324 0.930 . S
H316 C326 0.930 . S
H317 C329 0.929 . S
H318 C332 0.930 . S
H319 C334 0.960 . S
H320 C334 0.960 . S
H321 C334 0.960 . S
C322 H314 0.929 . S
C322 C323 1.377 . S
C322 C324 1.384 . S
C323 C322 1.377 . S
C323 C329 1.390 . S
C324 H315 0.930 . S
C324 C322 1.384 . S
C324 C325 1.372 . S
C325 C324 1.372 . S
C325 C326 1.400 . S
C325 C330 1.490 . S
C326 H316 0.930 . S
C326 C325 1.400 . S
C326 C329 1.386 . S
H327 C343 0.930 . S
H328 C344 0.931 . S
C329 H317 0.929 . S
C329 C323 1.390 . S
C329 C326 1.386 . S
C330 C325 1.490 . S
C330 C332 1.395 . S
C330 C333 1.403 . S
H331 C337 0.930 . S
C332 H318 0.930 . S
C332 C330 1.395 . S
C332 C335 1.403 . S
C333 C330 1.403 . S
C333 C334 1.524 . S
C333 C337 1.400 . S
C334 H319 0.960 . S
C334 H320 0.960 . S
C334 H321 0.960 . S
C334 C333 1.524 . S
C335 C332 1.403 . S
C335 C336 1.392 . S
C335 C339 1.495 . S
C336 C335 1.392 . S
C336 C337 1.385 . S
C336 C338 1.478 . S
C337 H331 0.930 . S
C337 C333 1.400 . S
C337 C336 1.385 . S
C338 C336 1.478 . S
C338 C340 1.381 . S
C338 C344 1.383 . S
C339 C335 1.495 . S
C339 H345 0.959 . S
C339 H346 0.961 . S
C339 H347 0.960 . S
C340 C338 1.381 . S
C340 C341 1.394 . S
C340 H348 0.930 . S
C341 C340 1.394 . S
C341 C342 1.383 . S
C341 H349 0.929 . S
C342 C341 1.383 . S
C342 C343 1.377 . S
C343 H327 0.930 . S
C343 C342 1.377 . S
C343 C344 1.379 . S
C344 H328 0.931 . S
C344 C338 1.383 . S
C344 C343 1.379 . S
H345 C339 0.959 . S
H346 C339 0.961 . S
H347 C339 0.960 . S
H348 C340 0.930 . S
H349 C341 0.929 . S
C71 C10 0.721 . S
C90 C33 0.708 . S
C107 C0 1.658 . S
C126 C55 1.666 . S
C143 C18 1.499 . S
C162 C42 1.472 . S
C179 C27 1.820 . S
C198 C32 1.797 . S
C215 C24 1.657 . S
C234 C31 1.646 . S
C270 C49 1.497 . S
C251 C11 1.507 . S
C287 C1 1.822 . S
C306 C58 1.837 . S
C342 C41 0.724 . S
C323 C2 0.725 . S
