# Generated by pormake.
# Topology pyr, (3,6)-cn, num edge types: 1
# Building blocks:
#     Node 0, Type 0, BuildingBlock: OLANEW_clean_sbu_2, # of connection points: 3
#     Node 1, Type 0, BuildingBlock: OLANEW_clean_sbu_2, # of connection points: 3
#     Node 2, Type 0, BuildingBlock: OLANEW_clean_sbu_2, # of connection points: 3
#     Node 3, Type 0, BuildingBlock: OLANEW_clean_sbu_2, # of connection points: 3
#     Node 4, Type 0, BuildingBlock: OLANEW_clean_sbu_2, # of connection points: 3
#     Node 5, Type 0, BuildingBlock: OLANEW_clean_sbu_2, # of connection points: 3
#     Node 6, Type 0, BuildingBlock: OLANEW_clean_sbu_2, # of connection points: 3
#     Node 7, Type 0, BuildingBlock: OLANEW_clean_sbu_2, # of connection points: 3
#     Node 8, Type 1, BuildingBlock: BETDAH_clean_sbu_0, # of connection points: 6
#     Node 9, Type 1, BuildingBlock: BETDAH_clean_sbu_0, # of connection points: 6
#     Node 10, Type 1, BuildingBlock: BETDAH_clean_sbu_0, # of connection points: 6
#     Node 11, Type 1, BuildingBlock: BETDAH_clean_sbu_0, # of connection points: 6
#     Edge 12, Type (0, 1), BuildingBlock: TEMPAE_clean_linker_10, # of connection points: 2
#     Edge 13, Type (0, 1), BuildingBlock: TEMPAE_clean_linker_10, # of connection points: 2
#     Edge 14, Type (0, 1), BuildingBlock: TEMPAE_clean_linker_10, # of connection points: 2
#     Edge 15, Type (0, 1), BuildingBlock: TEMPAE_clean_linker_10, # of connection points: 2
#     Edge 16, Type (0, 1), BuildingBlock: TEMPAE_clean_linker_10, # of connection points: 2
#     Edge 17, Type (0, 1), BuildingBlock: TEMPAE_clean_linker_10, # of connection points: 2
#     Edge 18, Type (0, 1), BuildingBlock: TEMPAE_clean_linker_10, # of connection points: 2
#     Edge 19, Type (0, 1), BuildingBlock: TEMPAE_clean_linker_10, # of connection points: 2
#     Edge 20, Type (0, 1), BuildingBlock: TEMPAE_clean_linker_10, # of connection points: 2
#     Edge 21, Type (0, 1), BuildingBlock: TEMPAE_clean_linker_10, # of connection points: 2
#     Edge 22, Type (0, 1), BuildingBlock: TEMPAE_clean_linker_10, # of connection points: 2
#     Edge 23, Type (0, 1), BuildingBlock: TEMPAE_clean_linker_10, # of connection points: 2
#     Edge 24, Type (0, 1), BuildingBlock: TEMPAE_clean_linker_10, # of connection points: 2
#     Edge 25, Type (0, 1), BuildingBlock: TEMPAE_clean_linker_10, # of connection points: 2
#     Edge 26, Type (0, 1), BuildingBlock: TEMPAE_clean_linker_10, # of connection points: 2
#     Edge 27, Type (0, 1), BuildingBlock: TEMPAE_clean_linker_10, # of connection points: 2
#     Edge 28, Type (0, 1), BuildingBlock: TEMPAE_clean_linker_10, # of connection points: 2
#     Edge 29, Type (0, 1), BuildingBlock: TEMPAE_clean_linker_10, # of connection points: 2
#     Edge 30, Type (0, 1), BuildingBlock: TEMPAE_clean_linker_10, # of connection points: 2
#     Edge 31, Type (0, 1), BuildingBlock: TEMPAE_clean_linker_10, # of connection points: 2
#     Edge 32, Type (0, 1), BuildingBlock: TEMPAE_clean_linker_10, # of connection points: 2
#     Edge 33, Type (0, 1), BuildingBlock: TEMPAE_clean_linker_10, # of connection points: 2
#     Edge 34, Type (0, 1), BuildingBlock: TEMPAE_clean_linker_10, # of connection points: 2
#     Edge 35, Type (0, 1), BuildingBlock: TEMPAE_clean_linker_10, # of connection points: 2
# Relax obj value: 0.125
# Max RMSD: 0.167
# Mean RMSD: 0.121
data_MOF--net-pyr--node1-OLANEW_clean_sbu_2--node2-BETDAH_clean_sbu_0--edge1-TEMPAE_clean_linker_10
_symmetry_space_group_name_H-M    P1
_symmetry_Int_Tables_number       1
_symmetry_cell_setting            triclinic
loop_
_symmetry_equiv_pos_as_xyz
'x, y, z'
_cell_length_a     41.006458
_cell_length_b     45.573166
_cell_length_c     40.004707
_cell_angle_alpha  96.431701
_cell_angle_beta   87.767602
_cell_angle_gamma 103.16616
loop_
_atom_site_label
_atom_site_type_symbol
_atom_site_fract_x
_atom_site_fract_y
_atom_site_fract_z
_atom_type_partial_charge
O0 O 0.37941 0.28248 0.17727 0.0
Cd1 Cd 0.36984 0.33449 0.18988 0.0
O2 O 0.351 0.268 0.22213 0.0
Cd3 Cd 0.33073 0.23936 0.26129 0.0
O4 O 0.29589 0.22667 0.30231 0.0
C5 C 0.30301 0.23398 0.33321 0.0
O6 O 0.33349 0.24867 0.34167 0.0
C7 C 0.36878 0.26203 0.19671 0.0
C8 C 0.30914 0.34981 0.17703 0.0
O9 O 0.3301 0.3457 0.15331 0.0
O10 O 0.31589 0.34517 0.20676 0.0
O11 O 0.31088 0.90324 0.65864 0.0
Cd12 Cd 0.29134 0.88812 0.60129 0.0
O13 O 0.26737 0.87081 0.67585 0.0
Cd14 Cd 0.22729 0.85496 0.71162 0.0
O15 O 0.1849 0.87324 0.70043 0.0
C16 C 0.19462 0.90038 0.69336 0.0
O17 O 0.22624 0.91404 0.69782 0.0
C18 C 0.29398 0.89091 0.68267 0.0
C19 C 0.32002 0.84027 0.5786 0.0
O20 O 0.33557 0.86771 0.57601 0.0
O21 O 0.28997 0.83535 0.5904 0.0
O22 O 0.71444 0.40693 0.86314 0.0
Cd23 Cd 0.66032 0.39788 0.83005 0.0
O24 O 0.70727 0.36765 0.89343 0.0
Cd25 Cd 0.67512 0.32331 0.90865 0.0
O26 O 0.64202 0.27942 0.92393 0.0
C27 C 0.64231 0.27158 0.95362 0.0
O28 O 0.66253 0.28967 0.97564 0.0
C29 C 0.72532 0.39269 0.88476 0.0
C30 C 0.64634 0.42781 0.77409 0.0
O31 O 0.6471 0.44063 0.80438 0.0
O32 O 0.65415 0.40193 0.7697 0.0
O33 O 0.9282 0.74333 0.37805 0.0
Cd34 Cd 0.90673 0.69053 0.35098 0.0
O35 O 0.89339 0.7327 0.42071 0.0
Cd36 Cd 0.86764 0.68587 0.40609 0.0
O37 O 0.82308 0.65338 0.42124 0.0
C38 C 0.79508 0.65976 0.41672 0.0
O39 O 0.79474 0.68362 0.4012 0.0
C40 C 0.91599 0.75148 0.40656 0.0
C41 C 0.92981 0.66558 0.28885 0.0
O42 O 0.90664 0.68044 0.29 0.0
O43 O 0.94351 0.66406 0.31671 0.0
O44 O 0.69661 0.74535 0.78108 0.0
Cd45 Cd 0.66626 0.70915 0.81776 0.0
O46 O 0.6743 0.78052 0.80793 0.0
Cd47 Cd 0.66346 0.82433 0.82749 0.0
O48 O 0.64187 0.86011 0.85452 0.0
C49 C 0.61673 0.85204 0.87373 0.0
O50 O 0.60502 0.82299 0.87609 0.0
C51 C 0.69497 0.773 0.78581 0.0
C52 C 0.71418 0.68596 0.84693 0.0
O53 O 0.69779 0.67136 0.82131 0.0
O54 O 0.70722 0.71102 0.8593 0.0
O55 O 0.71857 0.17902 0.4597 0.0
Cd56 Cd 0.74672 0.19267 0.51356 0.0
O57 O 0.76429 0.19197 0.42922 0.0
Cd58 Cd 0.78617 0.22167 0.47275 0.0
O59 O 0.76256 0.25752 0.49488 0.0
C60 C 0.74579 0.2655 0.47285 0.0
O61 O 0.74673 0.25294 0.44171 0.0
C62 C 0.73332 0.17943 0.43116 0.0
C63 C 0.79319 0.15711 0.51716 0.0
O64 O 0.76189 0.14657 0.52226 0.0
O65 O 0.80281 0.18473 0.51095 0.0
O66 O 0.41772 0.78633 0.23996 0.0
Cd67 Cd 0.40392 0.7417 0.27778 0.0
O68 O 0.37997 0.77641 0.19874 0.0
Cd69 Cd 0.34245 0.7327 0.19901 0.0
O70 O 0.29439 0.70132 0.18193 0.0
C71 C 0.29301 0.68327 0.15497 0.0
O72 O 0.32089 0.68245 0.13794 0.0
C73 C 0.40534 0.79374 0.21378 0.0
C74 C 0.43262 0.70423 0.31778 0.0
O75 O 0.44232 0.73327 0.32142 0.0
O76 O 0.41155 0.69286 0.29433 0.0
O77 O 0.16106 0.43044 0.74656 0.0
Cd78 Cd 0.18048 0.41129 0.69048 0.0
O79 O 0.14014 0.38694 0.76764 0.0
Cd80 Cd 0.14756 0.35363 0.72541 0.0
O81 O 0.13544 0.3077 0.69815 0.0
C82 C 0.11638 0.2873 0.71368 0.0
O83 O 0.10596 0.29494 0.74421 0.0
C84 C 0.14654 0.41579 0.77043 0.0
C85 C 0.24479 0.43716 0.66531 0.0
O86 O 0.22144 0.45182 0.66767 0.0
O87 O 0.23842 0.41092 0.67595 0.0
Ho88 Ho 0.01119 0.0292 0.53791 0.0
Ho89 Ho 0.99096 1.00531 0.6045 0.0
C90 C 0.02667 0.07406 0.60644 0.0
C91 C 0.02668 0.06099 0.48805 0.0
C92 C 0.05744 0.08326 0.48118 0.0
C93 C 0.0556 0.10958 0.46706 0.0
C94 C 0.08487 0.13079 0.46036 0.0
C95 C 0.1163 0.12578 0.46762 0.0
C96 C 0.11798 0.09992 0.48288 0.0
C97 C 0.08877 0.07892 0.48985 0.0
C98 C 0.05707 1.00577 0.56664 0.0
C99 C 0.97718 0.96093 0.5344 0.0
C100 C 0.97814 0.97511 0.65608 0.0
C101 C 0.94717 0.95584 0.66783 0.0
C102 C 0.94851 0.93544 0.69107 0.0
C103 C 0.91898 0.91729 0.70262 0.0
C104 C 0.88765 0.91944 0.69118 0.0
C105 C 0.88652 0.93984 0.66759 0.0
C106 C 0.91607 0.9578 0.6559 0.0
C107 C 0.94474 0.02956 0.57851 0.0
O108 O 0.01726 0.07133 0.57486 0.0
O109 O 0.02554 0.04979 0.6221 0.0
O110 O 0.02961 0.03292 0.48698 0.0
O111 O 0.00899 0.06896 0.51391 0.0
O112 O 0.05242 1.00294 0.53459 0.0
O113 O 0.03907 0.02212 0.58099 0.0
O114 O 0.98586 0.96352 0.56638 0.0
O115 O 0.97761 0.9852 0.5191 0.0
O116 O 0.97793 1.0038 0.65709 0.0
O117 O 0.9909 0.96473 0.628 0.0
O118 O 0.94915 0.02978 0.61028 0.0
O119 O 0.96232 0.01363 0.56198 0.0
H120 H 0.03158 0.11351 0.46082 0.0
H121 H 0.08301 0.1505 0.44836 0.0
H122 H 0.14194 0.09576 0.48896 0.0
H123 H 0.09073 0.05912 0.50163 0.0
H124 H 0.97237 0.93354 0.70026 0.0
H125 H 0.92072 0.90139 0.7203 0.0
H126 H 0.86281 0.94223 0.65853 0.0
H127 H 0.91464 0.97341 0.63776 0.0
Ho128 Ho 0.51767 0.04873 0.09176 0.0
Ho129 Ho 0.45277 0.02823 0.05404 0.0
C130 C 0.4527 0.07442 0.11754 0.0
C131 C 0.57335 0.08145 0.11515 0.0
C132 C 0.58634 0.09047 0.14919 0.0
C133 C 0.60857 0.11855 0.15629 0.0
C134 C 0.62045 0.12783 0.18885 0.0
C135 C 0.61022 0.10907 0.21468 0.0
C136 C 0.58756 0.08109 0.20754 0.0
C137 C 0.57559 0.07189 0.17503 0.0
C138 C 0.48121 1.00024 0.12192 0.0
C139 C 0.51672 1.00192 0.02531 0.0
C140 C 0.39987 1.00003 0.02096 0.0
C141 C 0.39172 0.98879 0.98546 0.0
C142 C 0.39531 0.95984 0.9719 0.0
C143 C 0.38593 0.94889 0.93882 0.0
C144 C 0.37262 0.9666 0.91873 0.0
C145 C 0.36966 0.99573 0.93209 0.0
C146 C 0.37897 1.00666 0.96511 0.0
C147 C 0.4937 0.08069 0.03651 0.0
O148 O 0.4856 0.08061 0.11389 0.0
O149 O 0.43393 0.05004 0.10141 0.0
O150 O 0.56926 0.05267 0.1043 0.0
O151 O 0.54813 0.09282 0.10827 0.0
O152 O 0.51005 0.01651 0.13147 0.0
O153 O 0.47209 0.01173 0.09733 0.0
O154 O 0.48462 1.00147 0.02226 0.0
O155 O 0.53538 0.01981 0.04898 0.0
O156 O 0.408 0.02941 0.02815 0.0
O157 O 0.41846 0.98621 0.03656 0.0
O158 O 0.46142 0.07593 0.03877 0.0
O159 O 0.5024 0.05699 0.04237 0.0
H160 H 0.61676 0.13325 0.13664 0.0
H161 H 0.63816 0.14939 0.19367 0.0
H162 H 0.57905 0.06639 0.22712 0.0
H163 H 0.55801 0.05031 0.17015 0.0
H164 H 0.40488 0.94543 0.98697 0.0
H165 H 0.38823 0.92624 0.92927 0.0
H166 H 0.35996 0.01007 0.91702 0.0
H167 H 0.37581 0.02902 0.97479 0.0
Ho168 Ho 0.52348 0.52002 0.51328 0.0
Ho169 Ho 0.51929 0.57076 0.56572 0.0
C170 C 0.54959 0.51934 0.58956 0.0
C171 C 0.53968 0.4751 0.47652 0.0
C172 C 0.56085 0.45448 0.4832 0.0
C173 C 0.58813 0.4643 0.50502 0.0
C174 C 0.60721 0.44415 0.51236 0.0
C175 C 0.59941 0.41388 0.49789 0.0
C176 C 0.5719 0.40413 0.47626 0.0
C177 C 0.55273 0.42427 0.46908 0.0
C178 C 0.46307 0.51615 0.54425 0.0
C179 C 0.49895 0.57485 0.48751 0.0
C180 C 0.49812 0.6109 0.60579 0.0
C181 C 0.47916 0.63344 0.60032 0.0
C182 C 0.45618 0.62797 0.57399 0.0
C183 C 0.43868 0.64976 0.56845 0.0
C184 C 0.44381 0.67725 0.58927 0.0
C185 C 0.46689 0.6827 0.61557 0.0
C186 C 0.48454 0.66091 0.62098 0.0
C187 C 0.58066 0.57504 0.53739 0.0
O188 O 0.55359 0.51162 0.55695 0.0
O189 O 0.53239 0.53983 0.60011 0.0
O190 O 0.51202 0.4725 0.49429 0.0
O191 O 0.555 0.50333 0.47464 0.0
O192 O 0.46687 0.51008 0.51209 0.0
O193 O 0.49123 0.52378 0.55796 0.0
O194 O 0.49586 0.58377 0.52006 0.0
O195 O 0.51213 0.55127 0.47767 0.0
O196 O 0.52842 0.61555 0.59295 0.0
O197 O 0.48175 0.58265 0.60042 0.0
O198 O 0.57538 0.58362 0.5688 0.0
O199 O 0.55318 0.56654 0.52216 0.0
H200 H 0.59476 0.48753 0.51639 0.0
H201 H 0.62805 0.45225 0.52935 0.0
H202 H 0.56559 0.38107 0.4643 0.0
H203 H 0.5316 0.41628 0.45242 0.0
H204 H 0.45156 0.60678 0.55785 0.0
H205 H 0.42072 0.64491 0.5483 0.0
H206 H 0.47146 0.7039 0.63173 0.0
H207 H 0.50239 0.6655 0.64123 0.0
Ho208 Ho 0.01508 0.50023 0.0383 0.0
Ho209 Ho 0.00912 0.55571 0.00836 0.0
C210 C 0.0746 0.56235 0.05065 0.0
C211 C 0.03772 0.45565 0.05586 0.0
C212 C 0.06628 0.45101 0.07472 0.0
C213 C 0.09901 0.45643 0.06112 0.0
C214 C 0.12498 0.44894 0.07767 0.0
C215 C 0.11891 0.43588 0.10822 0.0
C216 C 0.08642 0.43153 0.12236 0.0
C217 C 0.06043 0.43889 0.10575 0.0
C218 C 0.98306 0.53717 0.07852 0.0
C219 C 0.94931 0.49386 0.99574 0.0
C220 C 0.9887 0.60146 0.99157 0.0
C221 C 0.95975 0.6062 0.97423 0.0
C222 C 0.92761 0.58782 0.97818 0.0
C223 C 0.90022 0.59369 0.96262 0.0
C224 C 0.90459 0.61789 0.94274 0.0
C225 C 0.93695 0.63571 0.9382 0.0
C226 C 0.96428 0.62989 0.95386 0.0
C227 C 0.04543 0.52172 0.97048 0.0
O228 O 0.06537 0.53252 0.0511 0.0
O229 O 0.05507 0.57753 0.03795 0.0
O230 O 0.01492 0.46699 0.07315 0.0
O231 O 0.04443 0.4665 0.02681 0.0
O232 O 0.97445 0.50777 0.07612 0.0
O233 O 0.00861 0.54504 0.06033 0.0
O234 O 0.95914 0.52352 0.99451 0.0
O235 O 0.96802 0.47851 0.00955 0.0
O236 O 0.00946 0.58844 0.97304 0.0
O237 O 0.98264 0.59129 0.02104 0.0
O238 O 0.05274 0.55112 0.97436 0.0
O239 O 0.01831 0.51167 0.98592 0.0
H240 H 0.10448 0.46566 0.0372 0.0
H241 H 0.14955 0.4523 0.06578 0.0
H242 H 0.08092 0.42196 0.14608 0.0
H243 H 0.03549 0.43444 0.11683 0.0
H244 H 0.9236 0.56919 0.99359 0.0
H245 H 0.87562 0.57936 0.96617 0.0
H246 H 0.94102 0.65467 0.92328 0.0
H247 H 0.98893 0.64421 0.95047 0.0
C248 C 0.28575 0.22357 0.39229 0.0
C249 C 0.27705 0.2253 0.35913 0.0
C250 C 0.26121 0.21197 0.41583 0.0
C251 C 0.22741 0.20213 0.4058 0.0
C252 C 0.21827 0.20607 0.37313 0.0
C253 C 0.24324 0.21745 0.35014 0.0
C254 C 0.27178 0.20836 0.45057 0.0
C255 C 0.18238 0.19626 0.36163 0.0
C256 C 0.17073 0.1331 0.43688 0.0
C257 C 0.14726 0.14584 0.45621 0.0
C258 C 0.1982 0.15144 0.42201 0.0
C259 C 0.20239 0.18332 0.42688 0.0
C260 C 0.17995 0.19641 0.44818 0.0
C261 C 0.1523 0.17741 0.46237 0.0
C262 C 0.22141 0.13657 0.39922 0.0
C263 C 0.18418 0.23031 0.45462 0.0
H264 H 0.31184 0.22992 0.39944 0.0
H265 H 0.23631 0.21939 0.32474 0.0
H266 H 0.25361 0.21436 0.46995 0.0
H267 H 0.27242 0.18432 0.45199 0.0
H268 H 0.29708 0.2226 0.4567 0.0
H269 H 0.179 0.2039 0.33684 0.0
H270 H 0.17446 0.17116 0.3595 0.0
H271 H 0.16547 0.20534 0.38028 0.0
H272 H 0.16664 0.10866 0.43189 0.0
H273 H 0.13425 0.18719 0.47769 0.0
H274 H 0.24787 0.14639 0.40619 0.0
H275 H 0.21854 0.14088 0.37285 0.0
H276 H 0.21621 0.11167 0.40026 0.0
H277 H 0.21055 0.24138 0.4609 0.0
H278 H 0.16761 0.23681 0.47543 0.0
H279 H 0.17812 0.23927 0.43154 0.0
C280 C 0.32474 0.93048 0.72539 0.0
C281 C 0.30429 0.9015 0.71775 0.0
C282 C 0.33603 0.94066 0.75817 0.0
C283 C 0.32671 0.92133 0.7839 0.0
C284 C 0.30616 0.892 0.77638 0.0
C285 C 0.29529 0.88238 0.74329 0.0
C286 C 0.35795 0.97208 0.76527 0.0
C287 C 0.29595 0.87073 0.80321 0.0
C288 C 0.3799 0.93874 0.86227 0.0
C289 C 0.3608 0.95446 0.88432 0.0
C290 C 0.36895 0.9275 0.82954 0.0
C291 C 0.33816 0.93207 0.81878 0.0
C292 C 0.31864 0.94765 0.84105 0.0
C293 C 0.33019 0.95864 0.87356 0.0
C294 C 0.39049 0.91109 0.80637 0.0
C295 C 0.28564 0.95288 0.83045 0.0
H296 H 0.3319 0.94531 0.70568 0.0
H297 H 0.28052 0.85959 0.73731 0.0
H298 H 0.34574 0.9857 0.78447 0.0
H299 H 0.38218 0.97073 0.7757 0.0
H300 H 0.3631 0.98421 0.74237 0.0
H301 H 0.27949 0.84882 0.79333 0.0
H302 H 0.31855 0.8661 0.81402 0.0
H303 H 0.28254 0.88143 0.82406 0.0
H304 H 0.40371 0.9357 0.87042 0.0
H305 H 0.31507 0.97033 0.89072 0.0
H306 H 0.39802 0.92338 0.78387 0.0
H307 H 0.37601 0.88807 0.79738 0.0
H308 H 0.41346 0.90896 0.81882 0.0
H309 H 0.28965 0.9663 0.80856 0.0
H310 H 0.27328 0.96507 0.85099 0.0
H311 H 0.26841 0.93088 0.8224 0.0
C312 C 0.62361 0.42358 0.71535 0.0
C313 C 0.63476 0.44152 0.74546 0.0
C314 C 0.61014 0.4355 0.68923 0.0
C315 C 0.60841 0.46644 0.69263 0.0
C316 C 0.62046 0.48487 0.72258 0.0
C317 C 0.63299 0.47216 0.74867 0.0
C318 C 0.59681 0.41467 0.65834 0.0
C319 C 0.61999 0.5181 0.72717 0.0
C320 C 0.59807 0.50255 0.61235 0.0
C321 C 0.56451 0.50485 0.61495 0.0
C322 C 0.6128 0.49059 0.63756 0.0
C323 C 0.59317 0.47932 0.66539 0.0
C324 C 0.55888 0.48069 0.66733 0.0
C325 C 0.54527 0.49405 0.64262 0.0
C326 C 0.64963 0.49072 0.63485 0.0
C327 C 0.5364 0.46786 0.69544 0.0
H328 H 0.62446 0.39984 0.71257 0.0
H329 H 0.64147 0.48633 0.77168 0.0
H330 H 0.56987 0.41418 0.65547 0.0
H331 H 0.61006 0.42325 0.63548 0.0
H332 H 0.59963 0.39114 0.65953 0.0
H333 H 0.63239 0.52989 0.75072 0.0
H334 H 0.63277 0.52941 0.70552 0.0
H335 H 0.59377 0.52082 0.72787 0.0
H336 H 0.61312 0.5111 0.59114 0.0
H337 H 0.51924 0.49557 0.64461 0.0
H338 H 0.65325 0.46723 0.63342 0.0
H339 H 0.66261 0.5034 0.65769 0.0
H340 H 0.66172 0.50119 0.61239 0.0
H341 H 0.53764 0.44395 0.69684 0.0
H342 H 0.50987 0.4687 0.69207 0.0
H343 H 0.54504 0.48072 0.71988 0.0
C344 C 0.9619 0.63037 0.25646 0.0
C345 C 0.93889 0.649 0.25672 0.0
C346 C 0.96879 0.61278 0.22688 0.0
C347 C 0.95239 0.61378 0.19662 0.0
C348 C 0.92958 0.63294 0.19657 0.0
C349 C 0.92309 0.65023 0.22653 0.0
C350 C 0.99331 0.59275 0.22816 0.0
C351 C 0.91162 0.63483 0.16492 0.0
C352 C 0.99197 0.58725 0.11399 0.0
C353 C 0.97342 0.55732 0.10727 0.0
C354 C 0.9852 0.60592 0.14269 0.0
C355 C 0.95895 0.59461 0.16516 0.0
C356 C 0.93953 0.56466 0.15797 0.0
C357 C 0.94709 0.54636 0.12923 0.0
C358 C 0.0067 0.63755 0.14936 0.0
C359 C 0.91117 0.55171 0.18102 0.0
H360 H 0.97418 0.62908 0.27958 0.0
H361 H 0.90521 0.66444 0.22636 0.0
H362 H 0.98052 0.56871 0.22138 0.0
H363 H 0.01382 0.59857 0.20946 0.0
H364 H 0.00446 0.59489 0.25343 0.0
H365 H 0.89512 0.65119 0.16881 0.0
H366 H 0.93008 0.64175 0.14465 0.0
H367 H 0.89616 0.61219 0.156 0.0
H368 H 0.01242 0.59591 0.0972 0.0
H369 H 0.93263 0.5233 0.12418 0.0
H370 H 0.02008 0.63976 0.17341 0.0
H371 H 0.99077 0.65438 0.15204 0.0
H372 H 0.02551 0.64329 0.12899 0.0
H373 H 0.92108 0.55072 0.20619 0.0
H374 H 0.89755 0.52857 0.17122 0.0
H375 H 0.8931 0.56664 0.18449 0.0
C376 C 0.41299 0.23233 0.18925 0.0
C377 C 0.37891 0.23271 0.19048 0.0
C378 C 0.42367 0.2052 0.18067 0.0
C379 C 0.39973 0.17789 0.17182 0.0
C380 C 0.36514 0.17812 0.17366 0.0
C381 C 0.35511 0.20548 0.18353 0.0
C382 C 0.4607 0.206 0.18002 0.0
C383 C 0.33882 0.14977 0.16368 0.0
C384 C 0.4314 0.11999 0.11063 0.0
C385 C 0.43682 0.09917 0.13183 0.0
C386 C 0.4187 0.14525 0.12322 0.0
C387 C 0.41117 0.14989 0.15803 0.0
C388 C 0.41617 0.12857 0.17953 0.0
C389 C 0.42908 0.10344 0.16616 0.0
C390 C 0.41408 0.16734 0.09931 0.0
C391 C 0.40876 0.13279 0.21677 0.0
H392 H 0.43137 0.25341 0.19482 0.0
H393 H 0.32875 0.20586 0.1843 0.0
H394 H 0.46575 0.18793 0.19413 0.0
H395 H 0.46932 0.20165 0.15369 0.0
H396 H 0.47573 0.22819 0.19104 0.0
H397 H 0.31301 0.1532 0.16842 0.0
H398 H 0.34166 0.14255 0.1365 0.0
H399 H 0.34216 0.131 0.17767 0.0
H400 H 0.43773 0.11678 0.08411 0.0
H401 H 0.4336 0.08744 0.18256 0.0
H402 H 0.43089 0.18979 0.10633 0.0
H403 H 0.38799 0.17047 0.10112 0.0
H404 H 0.41961 0.15971 0.07276 0.0
H405 H 0.42551 0.15387 0.22827 0.0
H406 H 0.41228 0.11347 0.2298 0.0
H407 H 0.38264 0.1354 0.22117 0.0
C408 C 0.13815 0.90199 0.67273 0.0
C409 C 0.17247 0.91502 0.67601 0.0
C410 C 0.11765 0.91515 0.65453 0.0
C411 C 0.13202 0.94166 0.63907 0.0
C412 C 0.16661 0.95482 0.64226 0.0
C413 C 0.18636 0.94146 0.66087 0.0
C414 C 0.0807 0.90081 0.65183 0.0
C415 C 0.18281 0.98305 0.62596 0.0
C416 C 0.08933 0.96563 0.56771 0.0
C417 C 0.07584 0.98878 0.58467 0.0
C418 C 0.1068 0.94924 0.58532 0.0
C419 C 0.1109 0.9565 0.62051 0.0
C420 C 0.09675 0.97954 0.63774 0.0
C421 C 0.07931 0.99536 0.61957 0.0
C422 C 0.12138 0.9246 0.56628 0.0
C423 C 0.1007 0.98798 0.67522 0.0
H424 H 0.12732 0.88152 0.68432 0.0
H425 H 0.21292 0.95152 0.66301 0.0
H426 H 0.06589 0.91717 0.66289 0.0
H427 H 0.07368 0.89499 0.625 0.0
H428 H 0.07351 0.87996 0.66488 0.0
H429 H 0.21022 0.99 0.63023 0.0
H430 H 0.17849 0.97919 0.59845 0.0
H431 H 0.17128 1.00205 0.63608 0.0
H432 H 0.0862 0.96034 0.54076 0.0
H433 H 0.06866 0.01317 0.63274 0.0
H434 H 0.11293 0.90312 0.57794 0.0
H435 H 0.14911 0.93095 0.56763 0.0
H436 H 0.11416 0.92048 0.53939 0.0
H437 H 0.09182 0.96764 0.68879 0.0
H438 H 0.08664 1.00537 0.685 0.0
H439 H 0.12757 0.99697 0.68113 0.0
C440 C 0.78041 0.3886 0.90868 0.0
C441 C 0.75855 0.40651 0.90097 0.0
C442 C 0.81208 0.40182 0.92315 0.0
C443 C 0.8218 0.4337 0.9316 0.0
C444 C 0.7995 0.45177 0.92436 0.0
C445 C 0.76866 0.43809 0.90864 0.0
C446 C 0.83538 0.38166 0.92899 0.0
C447 C 0.80796 0.48563 0.9337 0.0
C448 C 0.88928 0.46489 0.99879 0.0
C449 C 0.91717 0.47746 0.97947 0.0
C450 C 0.85821 0.45078 0.98364 0.0
C451 C 0.85507 0.4482 0.9481 0.0
C452 C 0.88363 0.46023 0.9285 0.0
C453 C 0.91402 0.47514 0.94443 0.0
C454 C 0.82848 0.43929 1.0058 0.0
C455 C 0.88214 0.45737 0.89062 0.0
H456 H 0.77308 0.36424 0.9026 0.0
H457 H 0.75196 0.45216 0.90303 0.0
H458 H 0.85995 0.38969 0.91651 0.0
H459 H 0.84003 0.38282 0.95628 0.0
H460 H 0.82515 0.35763 0.91929 0.0
H461 H 0.78751 0.4964 0.92761 0.0
H462 H 0.81299 0.49076 0.96105 0.0
H463 H 0.83107 0.49613 0.92021 0.0
H464 H 0.89153 0.46684 0.0259 0.0
H465 H 0.93556 0.48476 0.92939 0.0
H466 H 0.81895 0.41458 0.99933 0.0
H467 H 0.80788 0.45047 1.0014 0.0
H468 H 0.8347 0.44356 0.03295 0.0
H469 H 0.87256 0.43332 0.88071 0.0
H470 H 0.90703 0.46581 0.87888 0.0
H471 H 0.86451 0.4704 0.88277 0.0
C472 C 0.7331 0.64985 0.4258 0.0
C473 C 0.76379 0.64287 0.43185 0.0
C474 C 0.70365 0.63646 0.44242 0.0
C475 C 0.70484 0.6155 0.46566 0.0
C476 C 0.73547 0.60747 0.47101 0.0
C477 C 0.76463 0.62127 0.45403 0.0
C478 C 0.67145 0.64559 0.43598 0.0
C479 C 0.73761 0.58496 0.49534 0.0
C480 C 0.63756 0.60861 0.53406 0.0
C481 C 0.61337 0.5838 0.52023 0.0
C482 C 0.6677 0.61891 0.51677 0.0
C483 C 0.67428 0.60329 0.48549 0.0
C484 C 0.65056 0.57733 0.4722 0.0
C485 C 0.62004 0.56831 0.48942 0.0
C486 C 0.69187 0.64723 0.53132 0.0
C487 C 0.65708 0.55952 0.43946 0.0
H488 H 0.73216 0.66637 0.40857 0.0
H489 H 0.78823 0.61573 0.45885 0.0
H490 H 0.65169 0.62527 0.42791 0.0
H491 H 0.66244 0.65662 0.45958 0.0
H492 H 0.67453 0.66149 0.41638 0.0
H493 H 0.76268 0.57946 0.4948 0.0
H494 H 0.73234 0.59428 0.52129 0.0
H495 H 0.71841 0.56368 0.48942 0.0
H496 H 0.63233 0.62079 0.5578 0.0
H497 H 0.60141 0.54919 0.47871 0.0
H498 H 0.69469 0.66504 0.51395 0.0
H499 H 0.71697 0.64256 0.53398 0.0
H500 H 0.68341 0.65627 0.55629 0.0
H501 H 0.65763 0.5735 0.41837 0.0
H502 H 0.63764 0.53824 0.4343 0.0
H503 H 0.68192 0.55374 0.43989 0.0
C504 C 0.26669 0.3576 0.13768 0.0
C505 C 0.27912 0.36124 0.17039 0.0
C506 C 0.23976 0.37 0.13031 0.0
C507 C 0.22528 0.38709 0.1561 0.0
C508 C 0.23756 0.39074 0.18928 0.0
C509 C 0.26412 0.37749 0.19611 0.0
C510 C 0.22707 0.36511 0.09472 0.0
C511 C 0.22322 0.40926 0.21734 0.0
C512 C 0.17912 0.44172 0.12398 0.0
C513 C 0.1458 0.42505 0.12399 0.0
C514 C 0.20508 0.43025 0.13579 0.0
C515 C 0.19762 0.40136 0.14789 0.0
C516 C 0.16388 0.38507 0.14942 0.0
C517 C 0.13844 0.39705 0.1374 0.0
C518 C 0.24064 0.4486 0.13424 0.0
C519 C 0.15477 0.35431 0.16231 0.0
H520 H 0.27811 0.34504 0.11772 0.0
H521 H 0.27385 0.38069 0.22139 0.0
H522 H 0.19982 0.35474 0.09449 0.0
H523 H 0.23065 0.38722 0.08434 0.0
H524 H 0.24012 0.35024 0.07788 0.0
H525 H 0.23492 0.40929 0.24193 0.0
H526 H 0.22711 0.43302 0.21136 0.0
H527 H 0.19581 0.40033 0.21976 0.0
H528 H 0.18501 0.46363 0.1143 0.0
H529 H 0.11289 0.3838 0.13725 0.0
H530 H 0.25542 0.4367 0.11579 0.0
H531 H 0.25267 0.4509 0.15906 0.0
H532 H 0.242 0.4716 0.12675 0.0
H533 H 0.1652 0.33786 0.14501 0.0
H534 H 0.12724 0.34568 0.16443 0.0
H535 H 0.16589 0.35528 0.18736 0.0
C536 C 0.62085 0.23593 0.99744 0.0
C537 C 0.62034 0.24271 0.96402 0.0
C538 C 0.60062 0.2093 0.00844 0.0
C539 C 0.57909 0.18837 0.98561 0.0
C540 C 0.57849 0.19485 0.95173 0.0
C541 C 0.59898 0.22188 0.94137 0.0
C542 C 0.60213 0.20369 0.04479 0.0
C543 C 0.55615 0.17319 0.9264 0.0
C544 C 0.54829 0.10765 0.01113 0.0
C545 C 0.51588 0.10801 0.0236 0.0
C546 C 0.56871 0.13323 0.99782 0.0
C547 C 0.55686 0.16018 0.99763 0.0
C548 C 0.52422 0.16062 0.01056 0.0
C549 C 0.50414 0.13457 0.02302 0.0
C550 C 0.60301 0.1314 0.98394 0.0
C551 C 0.51057 0.1888 0.01164 0.0
H552 H 0.6371 0.25163 0.01534 0.0
H553 H 0.59825 0.22666 0.91551 0.0
H554 H 0.57698 0.20174 0.05679 0.0
H555 H 0.60953 0.18195 0.04633 0.0
H556 H 0.62017 0.22207 0.05944 0.0
H557 H 0.55914 0.18089 0.90085 0.0
H558 H 0.56181 0.15041 0.92506 0.0
H559 H 0.52956 0.17072 0.93449 0.0
H560 H 0.55754 0.0872 0.01131 0.0
H561 H 0.47921 0.13511 0.03272 0.0
H562 H 0.62248 0.14825 0.99867 0.0
H563 H 0.60546 0.13707 0.95756 0.0
H564 H 0.60809 0.10854 0.98456 0.0
H565 H 0.52713 0.20785 0.02687 0.0
H566 H 0.48483 0.18557 0.02257 0.0
H567 H 0.51016 0.19551 0.98588 0.0
C568 C 0.91007 0.79111 0.45364 0.0
C569 C 0.92684 0.78281 0.42394 0.0
C570 C 0.91899 0.82029 0.47082 0.0
C571 C 0.94563 0.84201 0.45833 0.0
C572 C 0.9629 0.83393 0.42851 0.0
C573 C 0.95322 0.80445 0.41157 0.0
C574 C 0.89968 0.82789 0.50233 0.0
C575 C 0.99166 0.8564 0.41461 0.0
C576 C 0.94723 0.9249 0.48764 0.0
C577 C 0.96899 0.93061 0.51496 0.0
C578 C 0.93968 0.89629 0.46876 0.0
C579 C 0.95507 0.87311 0.47672 0.0
C580 C 0.97773 0.87909 0.50382 0.0
C581 C 0.98404 0.9076 0.52288 0.0
C582 C 0.9146 0.89064 0.4408 0.0
C583 C 0.99513 0.85527 0.51287 0.0
H584 H 0.88957 0.77476 0.46358 0.0
H585 H 0.96638 0.79836 0.38876 0.0
H586 H 0.91681 0.83456 0.52402 0.0
H587 H 0.88862 0.8475 0.4993 0.0
H588 H 0.87922 0.80858 0.50844 0.0
H589 H 1.0029 0.84655 0.39154 0.0
H590 H 0.98293 0.8765 0.40856 0.0
H591 H 0.0114 0.86449 0.43383 0.0
H592 H 0.93555 0.94264 0.48145 0.0
H593 H 1.00133 0.9121 0.54365 0.0
H594 H 0.89281 0.87236 0.44646 0.0
H595 H 0.92598 0.88285 0.4168 0.0
H596 H 0.90542 0.9112 0.43727 0.0
H597 H 0.97641 0.83597 0.52175 0.0
H598 H 0.01395 0.86423 0.53288 0.0
H599 H 0.00787 0.84628 0.49033 0.0
C600 C 0.31956 0.78521 0.56713 0.0
C601 C 0.33758 0.8154 0.57181 0.0
C602 C 0.33611 0.76133 0.56559 0.0
C603 C 0.37123 0.76802 0.56972 0.0
C604 C 0.38963 0.79844 0.57305 0.0
C605 C 0.37258 0.82179 0.57363 0.0
C606 C 0.31589 0.72905 0.56129 0.0
C607 C 0.42705 0.80638 0.57828 0.0
C608 C 0.40915 0.71351 0.61133 0.0
C609 C 0.42462 0.69996 0.58395 0.0
C610 C 0.39103 0.73527 0.60684 0.0
C611 C 0.38839 0.74354 0.57415 0.0
C612 C 0.40356 0.72959 0.5463 0.0
C613 C 0.42162 0.70793 0.55157 0.0
C614 C 0.37519 0.74975 0.63716 0.0
C615 C 0.40119 0.7379 0.51112 0.0
H616 H 0.29249 0.78025 0.56554 0.0
H617 H 0.38655 0.84512 0.57753 0.0
H618 H 0.32739 0.71535 0.54154 0.0
H619 H 0.31579 0.71867 0.5851 0.0
H620 H 0.28954 0.72766 0.55445 0.0
H621 H 0.43794 0.83101 0.57798 0.0
H622 H 0.43259 0.79963 0.60289 0.0
H623 H 0.43975 0.79373 0.55855 0.0
H624 H 0.4111 0.70697 0.63628 0.0
H625 H 0.43394 0.69761 0.53048 0.0
H626 H 0.34786 0.74631 0.6335 0.0
H627 H 0.38582 0.77456 0.64025 0.0
H628 H 0.37921 0.74037 0.66074 0.0
H629 H 0.37457 0.73534 0.50458 0.0
H630 H 0.41287 0.72369 0.49201 0.0
H631 H 0.41383 0.76201 0.5098 0.0
C632 C 0.74749 0.78715 0.75223 0.0
C633 C 0.71925 0.79554 0.76794 0.0
C634 C 0.77275 0.80831 0.73785 0.0
C635 C 0.76983 0.83873 0.73921 0.0
C636 C 0.74079 0.84717 0.75358 0.0
C637 C 0.71567 0.82538 0.76758 0.0
C638 C 0.80324 0.79834 0.72243 0.0
C639 C 0.73673 0.8794 0.75504 0.0
C640 C 0.85291 0.89549 0.73787 0.0
C641 C 0.85631 0.90038 0.70381 0.0
C642 C 0.82428 0.87627 0.74994 0.0
C643 C 0.79828 0.86181 0.72745 0.0
C644 C 0.80096 0.86748 0.69328 0.0
C645 C 0.83006 0.88661 0.68181 0.0
C646 C 0.82237 0.87067 0.78655 0.0
C647 C 0.77371 0.85243 0.66859 0.0
H648 H 0.7505 0.76411 0.75206 0.0
H649 H 0.69347 0.83185 0.77828 0.0
H650 H 0.80781 0.80497 0.69652 0.0
H651 H 0.82569 0.80984 0.73736 0.0
H652 H 0.80065 0.77346 0.72144 0.0
H653 H 0.71171 0.88187 0.76498 0.0
H654 H 0.75618 0.89452 0.77146 0.0
H655 H 0.74038 0.8873 0.72963 0.0
H656 H 0.87281 0.90654 0.75513 0.0
H657 H 0.83264 0.89007 0.65539 0.0
H658 H 0.82213 0.84653 0.7886 0.0
H659 H 0.79878 0.87517 0.79825 0.0
H660 H 0.84383 0.88503 0.80112 0.0
H661 H 0.77261 0.82775 0.66452 0.0
H662 H 0.77798 0.86173 0.64387 0.0
H663 H 0.74894 0.85528 0.67878 0.0
C664 C 0.7294 0.16906 0.3686 0.0
C665 C 0.71388 0.16722 0.40038 0.0
C666 C 0.71079 0.15913 0.33922 0.0
C667 C 0.6759 0.14709 0.34176 0.0
C668 C 0.66007 0.14493 0.37369 0.0
C669 C 0.67929 0.155 0.40266 0.0
C670 C 0.7284 0.16175 0.30544 0.0
C671 C 0.62285 0.13228 0.37721 0.0
C672 C 0.62676 0.14776 0.2639 0.0
C673 C 0.62433 0.11816 0.24862 0.0
C674 C 0.64243 0.15723 0.29498 0.0
C675 C 0.65612 0.1366 0.31082 0.0
C676 C 0.65269 0.10639 0.29605 0.0
C677 C 0.63677 0.09751 0.26506 0.0
C678 C 0.64528 0.18953 0.31031 0.0
C679 C 0.66694 0.08379 0.31232 0.0
H680 H 0.75606 0.17858 0.36662 0.0
H681 H 0.66706 0.15361 0.42713 0.0
H682 H 0.72457 0.13911 0.29078 0.0
H683 H 0.71755 0.17639 0.29076 0.0
H684 H 0.75574 0.17141 0.30783 0.0
H685 H 0.61446 0.13193 0.40393 0.0
H686 H 0.60886 0.14607 0.36472 0.0
H687 H 0.61606 0.10885 0.36448 0.0
H688 H 0.61668 0.16358 0.25135 0.0
H689 H 0.63512 0.07468 0.25309 0.0
H690 H 0.67196 0.20179 0.31064 0.0
H691 H 0.63607 0.19 0.33676 0.0
H692 H 0.63092 0.20191 0.29616 0.0
H693 H 0.69466 0.09111 0.31278 0.0
H694 H 0.66001 0.06064 0.29877 0.0
H695 H 0.65799 0.08279 0.33878 0.0
C696 C 0.4234 0.65572 0.34591 0.0
C697 C 0.44358 0.68442 0.34107 0.0
C698 C 0.43193 0.63744 0.36911 0.0
C699 C 0.46201 0.64739 0.38762 0.0
C700 C 0.48293 0.676 0.38223 0.0
C701 C 0.47328 0.69426 0.35959 0.0
C702 C 0.4082 0.60767 0.3744 0.0
C703 C 0.51563 0.68739 0.4005 0.0
C704 C 0.47063 0.61518 0.47121 0.0
C705 C 0.48863 0.59265 0.46168 0.0
C706 C 0.46153 0.63268 0.44753 0.0
C707 C 0.47109 0.62828 0.41314 0.0
C708 C 0.4893 0.60556 0.40333 0.0
C709 C 0.49757 0.58801 0.42748 0.0
C710 C 0.44169 0.65606 0.45951 0.0
C711 C 0.50049 0.60002 0.36726 0.0
H712 H 0.40023 0.64783 0.33219 0.0
H713 H 0.48922 0.71624 0.35619 0.0
H714 H 0.4212 0.5888 0.3689 0.0
H715 H 0.39983 0.60782 0.40113 0.0
H716 H 0.38577 0.60304 0.35828 0.0
H717 H 0.53007 0.70919 0.39235 0.0
H718 H 0.51078 0.69062 0.42798 0.0
H719 H 0.53126 0.67035 0.3961 0.0
H720 H 0.46347 0.6192 0.49737 0.0
H721 H 0.51162 0.57092 0.41956 0.0
H722 H 0.41955 0.65336 0.44342 0.0
H723 H 0.45743 0.6791 0.45759 0.0
H724 H 0.43297 0.65444 0.486 0.0
H725 H 0.47844 0.59348 0.35061 0.0
H726 H 0.51479 0.58189 0.36359 0.0
H727 H 0.51648 0.62118 0.35913 0.0
C728 C 0.13744 0.42319 0.83281 0.0
C729 C 0.13437 0.43208 0.80086 0.0
C730 C 0.12406 0.43715 0.86167 0.0
C731 C 0.10589 0.45964 0.85835 0.0
C732 C 0.10244 0.46844 0.82599 0.0
C733 C 0.11727 0.45497 0.79776 0.0
C734 C 0.12946 0.42789 0.89572 0.0
C735 C 0.08247 0.49163 0.82108 0.0
C736 C 0.04413 0.4762 0.92824 0.0
C737 C 0.06151 0.50413 0.94391 0.0
C738 C 0.0583 0.46133 0.90049 0.0
C739 C 0.09092 0.47435 0.88869 0.0
C740 C 0.10897 0.50199 0.90539 0.0
C741 C 0.09392 0.51666 0.93248 0.0
C742 C 0.03789 0.43224 0.88304 0.0
C743 C 0.14402 0.51639 0.89427 0.0
H744 H 0.15061 0.40545 0.83524 0.0
H745 H 0.11436 0.46151 0.773 0.0
H746 H 0.14164 0.44808 0.91264 0.0
H747 H 0.10502 0.41811 0.90743 0.0
H748 H 0.14528 0.41096 0.89419 0.0
H749 H 0.08102 0.49512 0.79418 0.0
H750 H 0.05664 0.48432 0.83117 0.0
H751 H 0.09392 0.51367 0.83527 0.0
H752 H 0.01897 0.46654 0.93683 0.0
H753 H 0.1075 0.53821 0.94463 0.0
H754 H 0.05171 0.41392 0.88246 0.0
H755 H 0.03371 0.43537 0.85655 0.0
H756 H 0.01317 0.42482 0.89554 0.0
H757 H 0.16019 0.4998 0.89314 0.0
H758 H 0.15558 0.53671 0.91139 0.0
H759 H 0.14353 0.52325 0.86859 0.0
C760 C 0.61256 0.90584 0.89042 0.0
C761 C 0.60139 0.87485 0.89396 0.0
C762 C 0.59877 0.9276 0.91021 0.0
C763 C 0.57342 0.91817 0.93429 0.0
C764 C 0.56173 0.88692 0.93767 0.0
C765 C 0.57577 0.86565 0.9174 0.0
C766 C 0.61157 0.96071 0.90563 0.0
C767 C 0.53485 0.87596 0.96319 0.0
C768 C 0.56159 0.97369 0.00951 0.0
C769 C 0.53222 0.98188 1.00117 0.0
C770 C 0.57538 0.95314 0.98783 0.0
C771 C 0.5598 0.94096 0.95678 0.0
C772 C 0.53064 0.94979 0.94781 0.0
C773 C 0.51702 0.96993 0.97027 0.0
C774 C 0.60612 0.94382 0.99859 0.0
C775 C 0.51358 0.93766 0.91471 0.0
H776 H 0.63222 0.91315 0.87227 0.0
H777 H 0.56692 0.84178 0.92031 0.0
H778 H 0.59043 0.97091 0.90038 0.0
H779 H 0.62334 0.9731 0.92917 0.0
H780 H 0.63028 0.96424 0.88478 0.0
H781 H 0.5281 0.85086 0.96226 0.0
H782 H 0.54352 0.88553 0.98889 0.0
H783 H 0.51195 0.88401 0.95881 0.0
H784 H 0.5733 0.98266 0.03347 0.0
H785 H 0.49441 0.97632 0.96359 0.0
H786 H 0.62643 0.94859 0.97949 0.0
H787 H 0.60024 0.91904 1.00042 0.0
H788 H 0.61554 0.95574 0.02328 0.0
H789 H 0.53172 0.94224 0.89359 0.0
H790 H 0.49201 0.94785 0.91088 0.0
H791 H 0.50442 0.91272 0.91363 0.0
C792 C 0.85062 0.15134 0.52856 0.0
C793 C 0.81751 0.13809 0.51924 0.0
C794 C 0.87301 0.13328 0.53396 0.0
C795 C 0.86208 0.10133 0.52919 0.0
C796 C 0.82934 0.08793 0.51763 0.0
C797 C 0.80726 0.1065 0.51318 0.0
C798 C 0.9076 0.14834 0.54683 0.0
C799 C 0.817 0.05394 0.51182 0.0
C800 C 0.9253 0.05214 0.53096 0.0
C801 C 0.92262 0.0462 0.56465 0.0
C802 C 0.90596 0.07038 0.51887 0.0
C803 C 0.88298 0.08204 0.54092 0.0
C804 C 0.87967 0.07532 0.57473 0.0
C805 C 0.89978 0.0577 0.58623 0.0
C806 C 0.91045 0.07755 0.48283 0.0
C807 C 0.85512 0.08698 0.59892 0.0
H808 H 0.85856 0.17579 0.53321 0.0
H809 H 0.78178 0.09626 0.50546 0.0
H810 H 0.90932 0.14424 0.57347 0.0
H811 H 0.92686 0.13848 0.5323 0.0
H812 H 0.91358 0.1732 0.54542 0.0
H813 H 0.79261 0.04727 0.4987 0.0
H814 H 0.83556 0.0436 0.49671 0.0
H815 H 0.81388 0.04435 0.53635 0.0
H816 H 0.94301 0.04316 0.51433 0.0
H817 H 0.89767 0.05297 0.6123 0.0
H818 H 0.91842 0.10243 0.48208 0.0
H819 H 0.88627 0.06984 0.46954 0.0
H820 H 0.92939 0.0667 0.46899 0.0
H821 H 0.86115 0.11212 0.60162 0.0
H822 H 0.85535 0.07923 0.62426 0.0
H823 H 0.82936 0.0792 0.58896 0.0
C824 C 0.25993 0.64335 0.11319 0.0
C825 C 0.26042 0.66435 0.1418 0.0
C826 C 0.22962 0.62621 0.09924 0.0
C827 C 0.19875 0.63004 0.11413 0.0
C828 C 0.19898 0.65085 0.14333 0.0
C829 C 0.22974 0.66771 0.15682 0.0
C830 C 0.23065 0.60434 0.06814 0.0
C831 C 0.16667 0.65559 0.16007 0.0
C832 C 0.12154 0.60865 0.05849 0.0
C833 C 0.10647 0.57944 0.06673 0.0
C834 C 0.15142 0.62533 0.07375 0.0
C835 C 0.16638 0.61284 0.09847 0.0
C836 C 0.15097 0.58353 0.10728 0.0
C837 C 0.12146 0.56708 0.09107 0.0
C838 C 0.16723 0.6562 0.06308 0.0
C839 C 0.16563 0.56955 0.1339 0.0
H840 H 0.28337 0.64041 0.10136 0.0
H841 H 0.22972 0.68386 0.17887 0.0
H842 H 0.21698 0.58119 0.0729 0.0
H843 H 0.2179 0.61102 0.04721 0.0
H844 H 0.25666 0.60352 0.05994 0.0
H845 H 0.17102 0.67161 0.18336 0.0
H846 H 0.15213 0.66461 0.14245 0.0
H847 H 0.15102 0.63364 0.16648 0.0
H848 H 0.1102 0.61838 0.03968 0.0
H849 H 0.1098 0.54468 0.09791 0.0
H850 H 0.19282 0.65642 0.05286 0.0
H851 H 0.16973 0.67358 0.08514 0.0
H852 H 0.15245 0.66278 0.04363 0.0
H853 H 0.19115 0.56692 0.1261 0.0
H854 H 0.15008 0.54701 0.13867 0.0
H855 H 0.16805 0.58472 0.15782 0.0
C856 C 0.29274 0.43026 0.62703 0.0
C857 C 0.27743 0.44942 0.64904 0.0
C858 C 0.32267 0.44169 0.60973 0.0
C859 C 0.33835 0.47289 0.61547 0.0
C860 C 0.32334 0.4922 0.63829 0.0
C861 C 0.29273 0.48034 0.65431 0.0
C862 C 0.3373 0.42045 0.58499 0.0
C863 C 0.33966 0.52539 0.6458 0.0
C864 C 0.43156 0.49633 0.59467 0.0
C865 C 0.43125 0.50644 0.56287 0.0
C866 C 0.40156 0.48528 0.61199 0.0
C867 C 0.37048 0.48519 0.59763 0.0
C868 C 0.37015 0.4962 0.56588 0.0
C869 C 0.40054 0.50627 0.54864 0.0
C870 C 0.40314 0.47312 0.64533 0.0
C871 C 0.33766 0.49706 0.54997 0.0
H872 H 0.28071 0.40641 0.62255 0.0
H873 H 0.28097 0.49518 0.67138 0.0
H874 H 0.33946 0.42857 0.55969 0.0
H875 H 0.36293 0.42016 0.59264 0.0
H876 H 0.32184 0.39691 0.58303 0.0
H877 H 0.32516 0.53727 0.66462 0.0
H878 H 0.36526 0.52798 0.65549 0.0
H879 H 0.34225 0.53668 0.62236 0.0
H880 H 0.4553 0.49621 0.60561 0.0
H881 H 0.40033 0.51422 0.52412 0.0
H882 H 0.39001 0.44886 0.64361 0.0
H883 H 0.39012 0.48542 0.66512 0.0
H884 H 0.42931 0.47518 0.65328 0.0
H885 H 0.32204 0.47373 0.54519 0.0
H886 H 0.34172 0.50737 0.52583 0.0
H887 H 0.32324 0.51022 0.56739 0.0
C888 C 0.74167 0.64391 0.85592 0.0
C889 C 0.7411 0.67472 0.86121 0.0
C890 C 0.76746 0.63311 0.86892 0.0
C891 C 0.79363 0.65377 0.88689 0.0
C892 C 0.79332 0.68494 0.89205 0.0
C893 C 0.76682 0.695 0.87946 0.0
C894 C 0.76667 0.59962 0.86356 0.0
C895 C 0.82117 0.70771 0.91057 0.0
C896 C 0.84627 0.62606 0.947 0.0
C897 C 0.87541 0.62532 0.92772 0.0
C898 C 0.81916 0.63472 0.93377 0.0
C899 C 0.82133 0.64286 0.90051 0.0
C900 C 0.85044 0.6416 0.8807 0.0
C901 C 0.87715 0.63282 0.89456 0.0
C902 C 0.7885 0.63582 0.95563 0.0
C903 C 0.85365 0.65012 0.84511 0.0
H904 H 0.72172 0.62818 0.84191 0.0
H905 H 0.76663 0.71889 0.88329 0.0
H906 H 0.78943 0.5958 0.84946 0.0
H907 H 0.76678 0.59063 0.8882 0.0
H908 H 0.74426 0.5865 0.84949 0.0
H909 H 0.81743 0.73121 0.91199 0.0
H910 H 0.82284 0.70184 0.93653 0.0
H911 H 0.84554 0.70703 0.8978 0.0
H912 H 0.84501 0.62065 0.9728 0.0
H913 H 0.89952 0.63192 0.87948 0.0
H914 H 0.76575 0.62209 0.94264 0.0
H915 H 0.78532 0.65948 0.96017 0.0
H916 H 0.79009 0.6273 0.98033 0.0
H917 H 0.8326 0.63613 0.8298 0.0
H918 H 0.87759 0.6471 0.83279 0.0
H919 H 0.85223 0.67415 0.84514 0.0
C920 C 0.42419 0.82561 0.16594 0.0
C921 C 0.41872 0.82395 0.20068 0.0
C922 C 0.43301 0.8537 0.15218 0.0
C923 C 0.43508 0.88125 0.1733 0.0
C924 C 0.42903 0.87969 0.2084 0.0
C925 C 0.4215 0.85125 0.22167 0.0
C926 C 0.44038 0.85384 0.11493 0.0
C927 C 0.42988 0.90813 0.23192 0.0
C928 C 0.49049 0.95514 0.14716 0.0
C929 C 0.46782 0.96933 0.13335 0.0
C930 C 0.48023 0.92662 0.15943 0.0
C931 C 0.44595 0.91161 0.15911 0.0
C932 C 0.42269 0.92572 0.14517 0.0
C933 C 0.43392 0.95413 0.13196 0.0
C934 C 0.50639 0.9125 0.1727 0.0
C935 C 0.38582 0.91102 0.1447 0.0
H936 H 0.42165 0.80471 0.14938 0.0
H937 H 0.41639 0.85032 0.24837 0.0
H938 H 0.42225 0.86404 0.10306 0.0
H939 H 0.46575 0.86799 0.11068 0.0
H940 H 0.43906 0.8307 0.10209 0.0
H941 H 0.42253 0.90319 0.25808 0.0
H942 H 0.45544 0.92291 0.23218 0.0
H943 H 0.41272 0.92111 0.2229 0.0
H944 H 0.51682 0.96632 0.14811 0.0
H945 H 0.41613 0.96475 0.12145 0.0
H946 H 0.50496 0.88956 0.15934 0.0
H947 H 0.50162 0.90983 0.19979 0.0
H948 H 0.53221 0.92629 0.16969 0.0
H949 H 0.38141 0.88952 0.12782 0.0
H950 H 0.37058 0.92586 0.13591 0.0
H951 H 0.37699 0.9053 0.17025 0.0
C952 C 0.11606 0.2467 0.66531 0.0
C953 C 0.10522 0.25562 0.69781 0.0
C954 C 0.10477 0.21684 0.65016 0.0
C955 C 0.08198 0.19548 0.66783 0.0
C956 C 0.07125 0.2043 0.70071 0.0
C957 C 0.08305 0.23414 0.71529 0.0
C958 C 0.11698 0.20819 0.61514 0.0
C959 C 0.04675 0.18232 0.72029 0.0
C960 C 0.02568 0.12853 0.61767 0.0
C961 C 0.04045 0.10466 0.62308 0.0
C962 C 0.03886 0.15814 0.6322 0.0
C963 C 0.06824 0.1642 0.65166 0.0
C964 C 0.08364 0.14017 0.65665 0.0
C965 C 0.06917 0.11051 0.64277 0.0
C966 C 0.02111 0.18287 0.62701 0.0
C967 C 0.11554 0.14586 0.67632 0.0
H968 H 0.13322 0.26307 0.65162 0.0
H969 H 0.07452 0.24071 0.7404 0.0
H970 H 0.12808 0.18812 0.61495 0.0
H971 H 0.09558 0.20179 0.59764 0.0
H972 H 0.13597 0.22693 0.60544 0.0
H973 H 0.04108 0.19265 0.74571 0.0
H974 H 0.02297 0.17417 0.70633 0.0
H975 H 0.05694 0.1622 0.72315 0.0
H976 H 0.00343 0.1239 0.60242 0.0
H977 H 0.08085 0.09205 0.64645 0.0
H978 H 0.03821 0.20097 0.61437 0.0
H979 H 0.01381 0.19337 0.65171 0.0
H980 H 0.99827 0.17427 0.6116 0.0
H981 H 0.13518 0.16317 0.66516 0.0
H982 H 0.12509 0.12497 0.67676 0.0
H983 H 0.11122 0.15497 0.7026 0.0
C984 C 0.72014 0.29889 0.5152 0.0
C985 C 0.72459 0.28752 0.48167 0.0
C986 C 0.69937 0.31937 0.52333 0.0
C987 C 0.68298 0.3287 0.49727 0.0
C988 C 0.68729 0.31715 0.46347 0.0
C989 C 0.70798 0.29671 0.45612 0.0
C990 C 0.69502 0.33111 0.55965 0.0
C991 C 0.67024 0.32658 0.43492 0.0
C992 C 0.6068 0.36254 0.50793 0.0
C993 C 0.621 0.39293 0.50358 0.0
C994 C 0.62698 0.34157 0.50853 0.0
C995 C 0.6621 0.35131 0.50462 0.0
C996 C 0.6767 0.38236 0.50269 0.0
C997 C 0.65595 0.40281 0.50211 0.0
C998 C 0.6105 0.30868 0.51103 0.0
C999 C 0.71409 0.39363 0.49862 0.0
H1000 H 0.73274 0.29169 0.53508 0.0
H1001 H 0.7112 0.28799 0.43015 0.0
H1002 H 0.70423 0.35609 0.5631 0.0
H1003 H 0.66807 0.32618 0.56681 0.0
H1004 H 0.70869 0.32093 0.57703 0.0
H1005 H 0.67592 0.31517 0.41007 0.0
H1006 H 0.6427 0.32117 0.439 0.0
H1007 H 0.67835 0.35145 0.43415 0.0
H1008 H 0.57981 0.35494 0.50981 0.0
H1009 H 0.66709 0.42624 0.49858 0.0
H1010 H 0.62411 0.29888 0.52877 0.0
H1011 H 0.61132 0.2956 0.48601 0.0
H1012 H 0.5839 0.30567 0.51943 0.0
H1013 H 0.72767 0.38443 0.51694 0.0
H1014 H 0.72176 0.41877 0.50205 0.0
H1015 H 0.72202 0.38559 0.47304 0.0
loop_
_geom_bond_atom_site_label_1
_geom_bond_atom_site_label_2
_geom_bond_distance
_geom_bond_site_symmetry_2
_ccdc_geom_bond_type
O0 Cd1 2.300 . S
O0 C7 1.275 . S
Cd1 O0 2.300 . S
Cd1 O9 2.381 . S
Cd1 O10 2.378 . S
O2 Cd3 2.385 . S
O2 C7 1.255 . S
Cd3 O2 2.385 . S
Cd3 O4 2.317 . S
O4 Cd3 2.317 . S
O4 C5 1.232 . S
C5 O4 1.232 . S
C5 O6 1.218 . S
O6 C5 1.218 . S
C7 O0 1.275 . S
C7 O2 1.255 . S
C8 O9 1.258 . S
C8 O10 1.256 . S
O9 Cd1 2.381 . S
O9 C8 1.258 . S
O10 Cd1 2.378 . S
O10 C8 1.256 . S
O11 Cd12 2.300 . S
O11 C18 1.275 . S
Cd12 O11 2.300 . S
Cd12 O20 2.381 . S
Cd12 O21 2.378 . S
O13 Cd14 2.385 . S
O13 C18 1.255 . S
Cd14 O13 2.385 . S
Cd14 O15 2.317 . S
O15 Cd14 2.317 . S
O15 C16 1.232 . S
C16 O15 1.232 . S
C16 O17 1.218 . S
O17 C16 1.218 . S
C18 O11 1.275 . S
C18 O13 1.255 . S
C19 O20 1.258 . S
C19 O21 1.256 . S
O20 Cd12 2.381 . S
O20 C19 1.258 . S
O21 Cd12 2.378 . S
O21 C19 1.256 . S
O22 Cd23 2.300 . S
O22 C29 1.275 . S
Cd23 O22 2.300 . S
Cd23 O31 2.381 . S
Cd23 O32 2.378 . S
O24 Cd25 2.385 . S
O24 C29 1.255 . S
Cd25 O24 2.385 . S
Cd25 O26 2.317 . S
O26 Cd25 2.317 . S
O26 C27 1.232 . S
C27 O26 1.232 . S
C27 O28 1.218 . S
O28 C27 1.218 . S
C29 O22 1.275 . S
C29 O24 1.255 . S
C30 O31 1.258 . S
C30 O32 1.256 . S
O31 Cd23 2.381 . S
O31 C30 1.258 . S
O32 Cd23 2.378 . S
O32 C30 1.256 . S
O33 Cd34 2.300 . S
O33 C40 1.275 . S
Cd34 O33 2.300 . S
Cd34 O42 2.381 . S
Cd34 O43 2.378 . S
O35 Cd36 2.385 . S
O35 C40 1.255 . S
Cd36 O35 2.385 . S
Cd36 O37 2.317 . S
O37 Cd36 2.317 . S
O37 C38 1.232 . S
C38 O37 1.232 . S
C38 O39 1.218 . S
O39 C38 1.218 . S
C40 O33 1.275 . S
C40 O35 1.255 . S
C41 O42 1.258 . S
C41 O43 1.256 . S
O42 Cd34 2.381 . S
O42 C41 1.258 . S
O43 Cd34 2.378 . S
O43 C41 1.256 . S
O44 Cd45 2.300 . S
O44 C51 1.275 . S
Cd45 O44 2.300 . S
Cd45 O53 2.381 . S
Cd45 O54 2.378 . S
O46 Cd47 2.385 . S
O46 C51 1.255 . S
Cd47 O46 2.385 . S
Cd47 O48 2.317 . S
O48 Cd47 2.317 . S
O48 C49 1.232 . S
C49 O48 1.232 . S
C49 O50 1.218 . S
O50 C49 1.218 . S
C51 O44 1.275 . S
C51 O46 1.255 . S
C52 O53 1.258 . S
C52 O54 1.256 . S
O53 Cd45 2.381 . S
O53 C52 1.258 . S
O54 Cd45 2.378 . S
O54 C52 1.256 . S
O55 Cd56 2.300 . S
O55 C62 1.275 . S
Cd56 O55 2.300 . S
Cd56 O64 2.381 . S
Cd56 O65 2.378 . S
O57 Cd58 2.385 . S
O57 C62 1.255 . S
Cd58 O57 2.385 . S
Cd58 O59 2.317 . S
O59 Cd58 2.317 . S
O59 C60 1.232 . S
C60 O59 1.232 . S
C60 O61 1.218 . S
O61 C60 1.218 . S
C62 O55 1.275 . S
C62 O57 1.255 . S
C63 O64 1.258 . S
C63 O65 1.256 . S
O64 Cd56 2.381 . S
O64 C63 1.258 . S
O65 Cd56 2.378 . S
O65 C63 1.256 . S
O66 Cd67 2.300 . S
O66 C73 1.275 . S
Cd67 O66 2.300 . S
Cd67 O75 2.381 . S
Cd67 O76 2.378 . S
O68 Cd69 2.385 . S
O68 C73 1.255 . S
Cd69 O68 2.385 . S
Cd69 O70 2.317 . S
O70 Cd69 2.317 . S
O70 C71 1.232 . S
C71 O70 1.232 . S
C71 O72 1.218 . S
O72 C71 1.218 . S
C73 O66 1.275 . S
C73 O68 1.255 . S
C74 O75 1.258 . S
C74 O76 1.256 . S
O75 Cd67 2.381 . S
O75 C74 1.258 . S
O76 Cd67 2.378 . S
O76 C74 1.256 . S
O77 Cd78 2.300 . S
O77 C84 1.275 . S
Cd78 O77 2.300 . S
Cd78 O86 2.381 . S
Cd78 O87 2.378 . S
O79 Cd80 2.385 . S
O79 C84 1.255 . S
Cd80 O79 2.385 . S
Cd80 O81 2.317 . S
O81 Cd80 2.317 . S
O81 C82 1.232 . S
C82 O81 1.232 . S
C82 O83 1.218 . S
O83 C82 1.218 . S
C84 O77 1.275 . S
C84 O79 1.255 . S
C85 O86 1.258 . S
C85 O87 1.256 . S
O86 Cd78 2.381 . S
O86 C85 1.258 . S
O87 Cd78 2.378 . S
O87 C85 1.256 . S
Ho88 C91 2.811 . S
Ho88 O108 2.322 . S
Ho88 O110 2.378 . S
Ho88 O111 2.524 . S
Ho88 O112 2.371 1_545 S
Ho88 O113 2.669 1_545 S
Ho88 O115 2.346 1_445 S
Ho88 O119 2.305 1_455 S
Ho89 C100 2.811 1_545 S
Ho89 O109 2.346 1_655 S
Ho89 O113 2.305 1_645 S
Ho89 O114 2.322 1_545 S
Ho89 O116 2.378 1_545 S
Ho89 O117 2.524 1_545 S
Ho89 O118 2.381 . S
Ho89 O119 2.669 . S
C90 O108 1.259 . S
C90 O109 1.268 . S
C91 Ho88 2.811 . S
C91 C92 1.488 . S
C91 O110 1.215 . S
C91 O111 1.289 . S
C92 C91 1.488 . S
C92 C93 1.348 . S
C92 C97 1.413 . S
C93 C92 1.348 . S
C93 C94 1.442 . S
C93 H120 0.930 . S
C94 C93 1.442 . S
C94 C95 1.381 . S
C94 H121 0.931 . S
C95 C94 1.381 . S
C95 C96 1.321 . S
C96 C95 1.321 . S
C96 C97 1.403 . S
C96 H122 0.934 . S
C97 C92 1.413 . S
C97 C96 1.403 . S
C97 H123 0.930 . S
C98 O112 1.279 . S
C98 O113 1.256 . S
C99 O114 1.259 . S
C99 O115 1.268 . S
C100 Ho89 2.811 1_565 S
C100 C101 1.488 . S
C100 O116 1.215 . S
C100 O117 1.289 . S
C101 C100 1.488 . S
C101 C102 1.348 . S
C101 C106 1.413 . S
C102 C101 1.348 . S
C102 C103 1.442 . S
C102 H124 0.930 . S
C103 C102 1.442 . S
C103 C104 1.381 . S
C103 H125 0.931 . S
C104 C103 1.381 . S
C104 C105 1.321 . S
C105 C104 1.321 . S
C105 C106 1.403 . S
C105 H126 0.934 . S
C106 C101 1.413 . S
C106 C105 1.403 . S
C106 H127 0.930 . S
C107 O118 1.275 . S
C107 O119 1.256 . S
O108 Ho88 2.322 . S
O108 C90 1.259 . S
O109 Ho89 2.346 1_455 S
O109 C90 1.268 . S
O110 Ho88 2.378 . S
O110 C91 1.215 . S
O111 Ho88 2.524 . S
O111 C91 1.289 . S
O112 Ho88 2.371 1_565 S
O112 C98 1.279 . S
O113 Ho88 2.669 1_565 S
O113 Ho89 2.305 1_465 S
O113 C98 1.256 . S
O114 Ho89 2.322 1_565 S
O114 C99 1.259 . S
O115 Ho88 2.346 1_665 S
O115 C99 1.268 . S
O116 Ho89 2.378 1_565 S
O116 C100 1.215 . S
O117 Ho89 2.524 1_565 S
O117 C100 1.289 . S
O118 Ho89 2.381 . S
O118 C107 1.275 . S
O119 Ho88 2.305 1_655 S
O119 Ho89 2.669 . S
O119 C107 1.256 . S
H120 C93 0.930 . S
H121 C94 0.931 . S
H122 C96 0.934 . S
H123 C97 0.930 . S
H124 C102 0.930 . S
H125 C103 0.931 . S
H126 C105 0.934 . S
H127 C106 0.930 . S
Ho128 C131 2.811 . S
Ho128 O148 2.322 . S
Ho128 O150 2.378 . S
Ho128 O151 2.524 . S
Ho128 O152 2.381 1_545 S
Ho128 O153 2.669 . S
Ho128 O155 2.346 . S
Ho128 O159 2.305 . S
Ho129 C140 2.811 1_544 S
Ho129 O149 2.346 . S
Ho129 O153 2.305 . S
Ho129 O154 2.335 . S
Ho129 O156 2.378 1_554 S
Ho129 O157 2.524 1_544 S
Ho129 O158 2.381 . S
Ho129 O159 2.669 . S
C130 O148 1.259 . S
C130 O149 1.268 . S
C131 Ho128 2.811 . S
C131 C132 1.488 . S
C131 O150 1.215 . S
C131 O151 1.289 . S
C132 C131 1.488 . S
C132 C133 1.348 . S
C132 C137 1.413 . S
C133 C132 1.348 . S
C133 C134 1.442 . S
C133 H160 0.930 . S
C134 C133 1.442 . S
C134 C135 1.381 . S
C134 H161 0.931 . S
C135 C134 1.381 . S
C135 C136 1.321 . S
C136 C135 1.321 . S
C136 C137 1.403 . S
C136 H162 0.934 . S
C137 C132 1.413 . S
C137 C136 1.403 . S
C137 H163 0.930 . S
C138 O152 1.275 . S
C138 O153 1.256 1_565 S
C139 O154 1.247 1_565 S
C139 O155 1.268 1_565 S
C140 Ho129 2.811 1_566 S
C140 C141 1.488 . S
C140 O156 1.215 1_565 S
C140 O157 1.289 . S
C141 C140 1.488 . S
C141 C142 1.348 . S
C141 C146 1.413 . S
C142 C141 1.348 . S
C142 C143 1.442 . S
C142 H164 0.930 . S
C143 C142 1.442 . S
C143 C144 1.381 . S
C143 H165 0.931 . S
C144 C143 1.381 . S
C144 C145 1.321 . S
C145 C144 1.321 . S
C145 C146 1.403 . S
C145 H166 0.934 . S
C146 C141 1.413 . S
C146 C145 1.403 . S
C146 H167 0.930 1_565 S
C147 O158 1.275 . S
C147 O159 1.256 . S
O148 Ho128 2.322 . S
O148 C130 1.259 . S
O149 Ho129 2.346 . S
O149 C130 1.268 . S
O150 Ho128 2.378 . S
O150 C131 1.215 . S
O151 Ho128 2.524 . S
O151 C131 1.289 . S
O152 Ho128 2.381 1_565 S
O152 C138 1.275 . S
O153 Ho128 2.669 . S
O153 Ho129 2.305 . S
O153 C138 1.256 1_545 S
O154 Ho129 2.335 . S
O154 C139 1.247 1_545 S
O155 Ho128 2.346 . S
O155 C139 1.268 1_545 S
O156 Ho129 2.378 1_556 S
O156 C140 1.215 1_545 S
O157 Ho129 2.524 1_566 S
O157 C140 1.289 . S
O158 Ho129 2.381 . S
O158 C147 1.275 . S
O159 Ho128 2.305 . S
O159 Ho129 2.669 . S
O159 C147 1.256 . S
H160 C133 0.930 . S
H161 C134 0.931 . S
H162 C136 0.934 . S
H163 C137 0.930 . S
H164 C142 0.930 . S
H165 C143 0.931 . S
H166 C145 0.934 . S
H167 C146 0.930 1_545 S
Ho168 C171 2.811 . S
Ho168 O188 2.322 . S
Ho168 O190 2.378 . S
Ho168 O191 2.524 . S
Ho168 O192 2.381 . S
Ho168 O193 2.669 . S
Ho168 O195 2.346 . S
Ho168 O199 2.305 . S
Ho169 C180 2.811 . S
Ho169 O189 2.346 . S
Ho169 O193 2.305 . S
Ho169 O194 2.322 . S
Ho169 O196 2.378 . S
Ho169 O197 2.524 . S
Ho169 O198 2.381 . S
Ho169 O199 2.669 . S
C170 O188 1.259 . S
C170 O189 1.268 . S
C171 Ho168 2.811 . S
C171 C172 1.488 . S
C171 O190 1.215 . S
C171 O191 1.289 . S
C172 C171 1.488 . S
C172 C173 1.348 . S
C172 C177 1.413 . S
C173 C172 1.348 . S
C173 C174 1.442 . S
C173 H200 0.930 . S
C174 C173 1.442 . S
C174 C175 1.381 . S
C174 H201 0.931 . S
C175 C174 1.381 . S
C175 C176 1.321 . S
C176 C175 1.321 . S
C176 C177 1.403 . S
C176 H202 0.934 . S
C177 C172 1.413 . S
C177 C176 1.403 . S
C177 H203 0.930 . S
C178 O192 1.275 . S
C178 O193 1.256 . S
C179 O194 1.259 . S
C179 O195 1.268 . S
C180 Ho169 2.811 . S
C180 C181 1.488 . S
C180 O196 1.215 . S
C180 O197 1.289 . S
C181 C180 1.488 . S
C181 C182 1.348 . S
C181 C186 1.413 . S
C182 C181 1.348 . S
C182 C183 1.442 . S
C182 H204 0.930 . S
C183 C182 1.442 . S
C183 C184 1.381 . S
C183 H205 0.931 . S
C184 C183 1.381 . S
C184 C185 1.321 . S
C185 C184 1.321 . S
C185 C186 1.403 . S
C185 H206 0.934 . S
C186 C181 1.413 . S
C186 C185 1.403 . S
C186 H207 0.930 . S
C187 O198 1.275 . S
C187 O199 1.256 . S
O188 Ho168 2.322 . S
O188 C170 1.259 . S
O189 Ho169 2.346 . S
O189 C170 1.268 . S
O190 Ho168 2.378 . S
O190 C171 1.215 . S
O191 Ho168 2.524 . S
O191 C171 1.289 . S
O192 Ho168 2.381 . S
O192 C178 1.275 . S
O193 Ho168 2.669 . S
O193 Ho169 2.305 . S
O193 C178 1.256 . S
O194 Ho169 2.322 . S
O194 C179 1.259 . S
O195 Ho168 2.346 . S
O195 C179 1.268 . S
O196 Ho169 2.378 . S
O196 C180 1.215 . S
O197 Ho169 2.524 . S
O197 C180 1.289 . S
O198 Ho169 2.381 . S
O198 C187 1.275 . S
O199 Ho168 2.305 . S
O199 Ho169 2.669 . S
O199 C187 1.256 . S
H200 C173 0.930 . S
H201 C174 0.931 . S
H202 C176 0.934 . S
H203 C177 0.930 . S
H204 C182 0.930 . S
H205 C183 0.931 . S
H206 C185 0.934 . S
H207 C186 0.930 . S
Ho208 C211 2.811 . S
Ho208 O228 2.322 . S
Ho208 O230 2.378 . S
Ho208 O231 2.524 . S
Ho208 O232 2.381 1_455 S
Ho208 O233 2.669 1_455 S
Ho208 O235 2.346 1_455 S
Ho208 O239 2.305 1_554 S
Ho209 C220 2.811 1_455 S
Ho209 O229 2.346 1_556 S
Ho209 O233 2.305 1_456 S
Ho209 O234 2.322 1_455 S
Ho209 O236 2.378 1_455 S
Ho209 O237 2.524 1_455 S
Ho209 O238 2.381 . S
Ho209 O239 2.669 . S
C210 O228 1.259 . S
C210 O229 1.268 . S
C211 Ho208 2.811 . S
C211 C212 1.488 . S
C211 O230 1.215 . S
C211 O231 1.289 . S
C212 C211 1.488 . S
C212 C213 1.348 . S
C212 C217 1.413 . S
C213 C212 1.348 . S
C213 C214 1.442 . S
C213 H240 0.930 . S
C214 C213 1.442 . S
C214 C215 1.381 . S
C214 H241 0.931 . S
C215 C214 1.381 . S
C215 C216 1.321 . S
C216 C215 1.321 . S
C216 C217 1.403 . S
C216 H242 0.934 . S
C217 C212 1.413 . S
C217 C216 1.403 . S
C217 H243 0.930 . S
C218 O232 1.275 . S
C218 O233 1.256 . S
C219 O234 1.259 . S
C219 O235 1.268 1_556 S
C220 Ho209 2.811 1_655 S
C220 C221 1.488 . S
C220 O236 1.215 . S
C220 O237 1.289 . S
C221 C220 1.488 . S
C221 C222 1.348 . S
C221 C226 1.413 . S
C222 C221 1.348 . S
C222 C223 1.442 . S
C222 H244 0.930 . S
C223 C222 1.442 . S
C223 C224 1.381 . S
C223 H245 0.931 . S
C224 C223 1.381 . S
C224 C225 1.321 . S
C225 C224 1.321 . S
C225 C226 1.403 . S
C225 H246 0.934 . S
C226 C221 1.413 . S
C226 C225 1.403 . S
C226 H247 0.930 . S
C227 O238 1.275 . S
C227 O239 1.256 . S
O228 Ho208 2.322 . S
O228 C210 1.259 . S
O229 Ho209 2.346 1_554 S
O229 C210 1.268 . S
O230 Ho208 2.378 . S
O230 C211 1.215 . S
O231 Ho208 2.524 . S
O231 C211 1.289 . S
O232 Ho208 2.381 1_655 S
O232 C218 1.275 . S
O233 Ho208 2.669 1_655 S
O233 Ho209 2.305 1_654 S
O233 C218 1.256 . S
O234 Ho209 2.322 1_655 S
O234 C219 1.259 . S
O235 Ho208 2.346 1_655 S
O235 C219 1.268 1_554 S
O236 Ho209 2.378 1_655 S
O236 C220 1.215 . S
O237 Ho209 2.524 1_655 S
O237 C220 1.289 . S
O238 Ho209 2.381 . S
O238 C227 1.275 . S
O239 Ho208 2.305 1_556 S
O239 Ho209 2.669 . S
O239 C227 1.256 . S
H240 C213 0.930 . S
H241 C214 0.931 . S
H242 C216 0.934 . S
H243 C217 0.930 . S
H244 C222 0.930 . S
H245 C223 0.931 . S
H246 C225 0.934 . S
H247 C226 0.930 . S
C248 C249 1.391 . S
C248 C250 1.394 . S
C248 H264 0.931 . S
C249 C248 1.391 . S
C249 C253 1.376 . S
C250 C248 1.394 . S
C250 C251 1.369 . S
C250 C254 1.531 . S
C251 C250 1.369 . S
C251 C252 1.410 . S
C251 C259 1.503 . S
C252 C251 1.410 . S
C252 C253 1.392 . S
C252 C255 1.511 . S
C253 C249 1.376 . S
C253 C252 1.392 . S
C253 H265 0.929 . S
C254 C250 1.531 . S
C254 H266 0.960 . S
C254 H267 0.962 . S
C254 H268 0.960 . S
C255 C252 1.511 . S
C255 H269 0.961 . S
C255 H270 0.961 . S
C255 H271 0.961 . S
C256 C257 1.370 . S
C256 C258 1.363 . S
C256 H272 0.931 . S
C257 C256 1.370 . S
C257 C261 1.408 . S
C258 C256 1.363 . S
C258 C259 1.370 . S
C258 C262 1.524 . S
C259 C251 1.503 . S
C259 C258 1.370 . S
C259 C260 1.403 . S
C260 C259 1.403 . S
C260 C261 1.404 . S
C260 C263 1.539 . S
C261 C257 1.408 . S
C261 C260 1.404 . S
C261 H273 0.930 . S
C262 C258 1.524 . S
C262 H274 0.956 . S
C262 H275 0.961 . S
C262 H276 0.961 . S
C263 C260 1.539 . S
C263 H277 0.958 . S
C263 H278 0.961 . S
C263 H279 0.960 . S
H264 C248 0.931 . S
H265 C253 0.929 . S
H266 C254 0.960 . S
H267 C254 0.962 . S
H268 C254 0.960 . S
H269 C255 0.961 . S
H270 C255 0.961 . S
H271 C255 0.961 . S
H272 C256 0.931 . S
H273 C261 0.930 . S
H274 C262 0.956 . S
H275 C262 0.961 . S
H276 C262 0.961 . S
H277 C263 0.958 . S
H278 C263 0.961 . S
H279 C263 0.960 . S
C280 C281 1.391 . S
C280 C282 1.394 . S
C280 H296 0.931 . S
C281 C280 1.391 . S
C281 C285 1.376 . S
C282 C280 1.394 . S
C282 C283 1.369 . S
C282 C286 1.531 . S
C283 C282 1.369 . S
C283 C284 1.410 . S
C283 C291 1.503 . S
C284 C283 1.410 . S
C284 C285 1.392 . S
C284 C287 1.511 . S
C285 C281 1.376 . S
C285 C284 1.392 . S
C285 H297 0.929 . S
C286 C282 1.531 . S
C286 H298 0.960 . S
C286 H299 0.962 . S
C286 H300 0.960 . S
C287 C284 1.511 . S
C287 H301 0.961 . S
C287 H302 0.961 . S
C287 H303 0.961 . S
C288 C289 1.370 . S
C288 C290 1.363 . S
C288 H304 0.931 . S
C289 C288 1.370 . S
C289 C293 1.408 . S
C290 C288 1.363 . S
C290 C291 1.370 . S
C290 C294 1.524 . S
C291 C283 1.503 . S
C291 C290 1.370 . S
C291 C292 1.403 . S
C292 C291 1.403 . S
C292 C293 1.404 . S
C292 C295 1.539 . S
C293 C289 1.408 . S
C293 C292 1.404 . S
C293 H305 0.930 . S
C294 C290 1.524 . S
C294 H306 0.956 . S
C294 H307 0.961 . S
C294 H308 0.961 . S
C295 C292 1.539 . S
C295 H309 0.958 . S
C295 H310 0.961 . S
C295 H311 0.960 . S
H296 C280 0.931 . S
H297 C285 0.929 . S
H298 C286 0.960 . S
H299 C286 0.962 . S
H300 C286 0.960 . S
H301 C287 0.961 . S
H302 C287 0.961 . S
H303 C287 0.961 . S
H304 C288 0.931 . S
H305 C293 0.930 . S
H306 C294 0.956 . S
H307 C294 0.961 . S
H308 C294 0.961 . S
H309 C295 0.958 . S
H310 C295 0.961 . S
H311 C295 0.960 . S
C312 C313 1.391 . S
C312 C314 1.394 . S
C312 H328 0.931 . S
C313 C312 1.391 . S
C313 C317 1.376 . S
C314 C312 1.394 . S
C314 C315 1.369 . S
C314 C318 1.531 . S
C315 C314 1.369 . S
C315 C316 1.410 . S
C315 C323 1.503 . S
C316 C315 1.410 . S
C316 C317 1.392 . S
C316 C319 1.511 . S
C317 C313 1.376 . S
C317 C316 1.392 . S
C317 H329 0.929 . S
C318 C314 1.531 . S
C318 H330 0.960 . S
C318 H331 0.962 . S
C318 H332 0.960 . S
C319 C316 1.511 . S
C319 H333 0.961 . S
C319 H334 0.961 . S
C319 H335 0.961 . S
C320 C321 1.370 . S
C320 C322 1.363 . S
C320 H336 0.931 . S
C321 C320 1.370 . S
C321 C325 1.408 . S
C322 C320 1.363 . S
C322 C323 1.370 . S
C322 C326 1.524 . S
C323 C315 1.503 . S
C323 C322 1.370 . S
C323 C324 1.403 . S
C324 C323 1.403 . S
C324 C325 1.404 . S
C324 C327 1.539 . S
C325 C321 1.408 . S
C325 C324 1.404 . S
C325 H337 0.930 . S
C326 C322 1.524 . S
C326 H338 0.956 . S
C326 H339 0.961 . S
C326 H340 0.961 . S
C327 C324 1.539 . S
C327 H341 0.958 . S
C327 H342 0.961 . S
C327 H343 0.960 . S
H328 C312 0.931 . S
H329 C317 0.929 . S
H330 C318 0.960 . S
H331 C318 0.962 . S
H332 C318 0.960 . S
H333 C319 0.961 . S
H334 C319 0.961 . S
H335 C319 0.961 . S
H336 C320 0.931 . S
H337 C325 0.930 . S
H338 C326 0.956 . S
H339 C326 0.961 . S
H340 C326 0.961 . S
H341 C327 0.958 . S
H342 C327 0.961 . S
H343 C327 0.960 . S
C344 C345 1.391 . S
C344 C346 1.394 . S
C344 H360 0.931 . S
C345 C344 1.391 . S
C345 C349 1.376 . S
C346 C344 1.394 . S
C346 C347 1.369 . S
C346 C350 1.531 . S
C347 C346 1.369 . S
C347 C348 1.410 . S
C347 C355 1.503 . S
C348 C347 1.410 . S
C348 C349 1.392 . S
C348 C351 1.511 . S
C349 C345 1.376 . S
C349 C348 1.392 . S
C349 H361 0.929 . S
C350 C346 1.531 . S
C350 H362 0.960 . S
C350 H363 0.962 . S
C350 H364 0.960 . S
C351 C348 1.511 . S
C351 H365 0.961 . S
C351 H366 0.961 . S
C351 H367 0.961 . S
C352 C353 1.370 . S
C352 C354 1.363 . S
C352 H368 0.931 1_655 S
C353 C352 1.370 . S
C353 C357 1.408 . S
C354 C352 1.363 . S
C354 C355 1.370 . S
C354 C358 1.524 . S
C355 C347 1.503 . S
C355 C354 1.370 . S
C355 C356 1.403 . S
C356 C355 1.403 . S
C356 C357 1.404 . S
C356 C359 1.539 . S
C357 C353 1.408 . S
C357 C356 1.404 . S
C357 H369 0.930 . S
C358 C354 1.524 . S
C358 H370 0.956 1_655 S
C358 H371 0.961 . S
C358 H372 0.961 1_655 S
C359 C356 1.539 . S
C359 H373 0.958 . S
C359 H374 0.961 . S
C359 H375 0.960 . S
H360 C344 0.931 . S
H361 C349 0.929 . S
H362 C350 0.960 . S
H363 C350 0.962 . S
H364 C350 0.960 . S
H365 C351 0.961 . S
H366 C351 0.961 . S
H367 C351 0.961 . S
H368 C352 0.931 1_455 S
H369 C357 0.930 . S
H370 C358 0.956 1_455 S
H371 C358 0.961 . S
H372 C358 0.961 1_455 S
H373 C359 0.958 . S
H374 C359 0.961 . S
H375 C359 0.960 . S
C376 C377 1.391 . S
C376 C378 1.394 . S
C376 H392 0.931 . S
C377 C376 1.391 . S
C377 C381 1.376 . S
C378 C376 1.394 . S
C378 C379 1.369 . S
C378 C382 1.531 . S
C379 C378 1.369 . S
C379 C380 1.410 . S
C379 C387 1.503 . S
C380 C379 1.410 . S
C380 C381 1.392 . S
C380 C383 1.511 . S
C381 C377 1.376 . S
C381 C380 1.392 . S
C381 H393 0.929 . S
C382 C378 1.531 . S
C382 H394 0.960 . S
C382 H395 0.962 . S
C382 H396 0.960 . S
C383 C380 1.511 . S
C383 H397 0.961 . S
C383 H398 0.961 . S
C383 H399 0.961 . S
C384 C385 1.370 . S
C384 C386 1.363 . S
C384 H400 0.931 . S
C385 C384 1.370 . S
C385 C389 1.408 . S
C386 C384 1.363 . S
C386 C387 1.370 . S
C386 C390 1.524 . S
C387 C379 1.503 . S
C387 C386 1.370 . S
C387 C388 1.403 . S
C388 C387 1.403 . S
C388 C389 1.404 . S
C388 C391 1.539 . S
C389 C385 1.408 . S
C389 C388 1.404 . S
C389 H401 0.930 . S
C390 C386 1.524 . S
C390 H402 0.956 . S
C390 H403 0.961 . S
C390 H404 0.961 . S
C391 C388 1.539 . S
C391 H405 0.958 . S
C391 H406 0.961 . S
C391 H407 0.960 . S
H392 C376 0.931 . S
H393 C381 0.929 . S
H394 C382 0.960 . S
H395 C382 0.962 . S
H396 C382 0.960 . S
H397 C383 0.961 . S
H398 C383 0.961 . S
H399 C383 0.961 . S
H400 C384 0.931 . S
H401 C389 0.930 . S
H402 C390 0.956 . S
H403 C390 0.961 . S
H404 C390 0.961 . S
H405 C391 0.958 . S
H406 C391 0.961 . S
H407 C391 0.960 . S
C408 C409 1.391 . S
C408 C410 1.394 . S
C408 H424 0.931 . S
C409 C408 1.391 . S
C409 C413 1.376 . S
C410 C408 1.394 . S
C410 C411 1.369 . S
C410 C414 1.531 . S
C411 C410 1.369 . S
C411 C412 1.410 . S
C411 C419 1.503 . S
C412 C411 1.410 . S
C412 C413 1.392 . S
C412 C415 1.511 . S
C413 C409 1.376 . S
C413 C412 1.392 . S
C413 H425 0.929 . S
C414 C410 1.531 . S
C414 H426 0.960 . S
C414 H427 0.962 . S
C414 H428 0.960 . S
C415 C412 1.511 . S
C415 H429 0.961 . S
C415 H430 0.961 . S
C415 H431 0.961 . S
C416 C417 1.370 . S
C416 C418 1.363 . S
C416 H432 0.931 . S
C417 C416 1.370 . S
C417 C421 1.408 . S
C418 C416 1.363 . S
C418 C419 1.370 . S
C418 C422 1.524 . S
C419 C411 1.503 . S
C419 C418 1.370 . S
C419 C420 1.403 . S
C420 C419 1.403 . S
C420 C421 1.404 . S
C420 C423 1.539 . S
C421 C417 1.408 . S
C421 C420 1.404 . S
C421 H433 0.930 1_565 S
C422 C418 1.524 . S
C422 H434 0.956 . S
C422 H435 0.961 . S
C422 H436 0.961 . S
C423 C420 1.539 . S
C423 H437 0.958 . S
C423 H438 0.961 1_565 S
C423 H439 0.960 . S
H424 C408 0.931 . S
H425 C413 0.929 . S
H426 C414 0.960 . S
H427 C414 0.962 . S
H428 C414 0.960 . S
H429 C415 0.961 . S
H430 C415 0.961 . S
H431 C415 0.961 . S
H432 C416 0.931 . S
H433 C421 0.930 1_545 S
H434 C422 0.956 . S
H435 C422 0.961 . S
H436 C422 0.961 . S
H437 C423 0.958 . S
H438 C423 0.961 1_545 S
H439 C423 0.960 . S
C440 C441 1.391 . S
C440 C442 1.394 . S
C440 H456 0.931 . S
C441 C440 1.391 . S
C441 C445 1.376 . S
C442 C440 1.394 . S
C442 C443 1.369 . S
C442 C446 1.531 . S
C443 C442 1.369 . S
C443 C444 1.410 . S
C443 C451 1.503 . S
C444 C443 1.410 . S
C444 C445 1.392 . S
C444 C447 1.511 . S
C445 C441 1.376 . S
C445 C444 1.392 . S
C445 H457 0.929 . S
C446 C442 1.531 . S
C446 H458 0.960 . S
C446 H459 0.962 . S
C446 H460 0.960 . S
C447 C444 1.511 . S
C447 H461 0.961 . S
C447 H462 0.961 . S
C447 H463 0.961 . S
C448 C449 1.370 . S
C448 C450 1.363 . S
C448 H464 0.931 1_556 S
C449 C448 1.370 . S
C449 C453 1.408 . S
C450 C448 1.363 . S
C450 C451 1.370 . S
C450 C454 1.524 . S
C451 C443 1.503 . S
C451 C450 1.370 . S
C451 C452 1.403 . S
C452 C451 1.403 . S
C452 C453 1.404 . S
C452 C455 1.539 . S
C453 C449 1.408 . S
C453 C452 1.404 . S
C453 H465 0.930 . S
C454 C450 1.524 . S
C454 H466 0.956 . S
C454 H467 0.961 . S
C454 H468 0.961 1_556 S
C455 C452 1.539 . S
C455 H469 0.958 . S
C455 H470 0.961 . S
C455 H471 0.960 . S
H456 C440 0.931 . S
H457 C445 0.929 . S
H458 C446 0.960 . S
H459 C446 0.962 . S
H460 C446 0.960 . S
H461 C447 0.961 . S
H462 C447 0.961 . S
H463 C447 0.961 . S
H464 C448 0.931 1_554 S
H465 C453 0.930 . S
H466 C454 0.956 . S
H467 C454 0.961 . S
H468 C454 0.961 1_554 S
H469 C455 0.958 . S
H470 C455 0.961 . S
H471 C455 0.960 . S
C472 C473 1.391 . S
C472 C474 1.394 . S
C472 H488 0.931 . S
C473 C472 1.391 . S
C473 C477 1.376 . S
C474 C472 1.394 . S
C474 C475 1.369 . S
C474 C478 1.531 . S
C475 C474 1.369 . S
C475 C476 1.410 . S
C475 C483 1.503 . S
C476 C475 1.410 . S
C476 C477 1.392 . S
C476 C479 1.511 . S
C477 C473 1.376 . S
C477 C476 1.392 . S
C477 H489 0.929 . S
C478 C474 1.531 . S
C478 H490 0.960 . S
C478 H491 0.962 . S
C478 H492 0.960 . S
C479 C476 1.511 . S
C479 H493 0.961 . S
C479 H494 0.961 . S
C479 H495 0.961 . S
C480 C481 1.370 . S
C480 C482 1.363 . S
C480 H496 0.931 . S
C481 C480 1.370 . S
C481 C485 1.408 . S
C482 C480 1.363 . S
C482 C483 1.370 . S
C482 C486 1.524 . S
C483 C475 1.503 . S
C483 C482 1.370 . S
C483 C484 1.403 . S
C484 C483 1.403 . S
C484 C485 1.404 . S
C484 C487 1.539 . S
C485 C481 1.408 . S
C485 C484 1.404 . S
C485 H497 0.930 . S
C486 C482 1.524 . S
C486 H498 0.956 . S
C486 H499 0.961 . S
C486 H500 0.961 . S
C487 C484 1.539 . S
C487 H501 0.958 . S
C487 H502 0.961 . S
C487 H503 0.960 . S
H488 C472 0.931 . S
H489 C477 0.929 . S
H490 C478 0.960 . S
H491 C478 0.962 . S
H492 C478 0.960 . S
H493 C479 0.961 . S
H494 C479 0.961 . S
H495 C479 0.961 . S
H496 C480 0.931 . S
H497 C485 0.930 . S
H498 C486 0.956 . S
H499 C486 0.961 . S
H500 C486 0.961 . S
H501 C487 0.958 . S
H502 C487 0.961 . S
H503 C487 0.960 . S
C504 C505 1.391 . S
C504 C506 1.394 . S
C504 H520 0.931 . S
C505 C504 1.391 . S
C505 C509 1.376 . S
C506 C504 1.394 . S
C506 C507 1.369 . S
C506 C510 1.531 . S
C507 C506 1.369 . S
C507 C508 1.410 . S
C507 C515 1.503 . S
C508 C507 1.410 . S
C508 C509 1.392 . S
C508 C511 1.511 . S
C509 C505 1.376 . S
C509 C508 1.392 . S
C509 H521 0.929 . S
C510 C506 1.531 . S
C510 H522 0.960 . S
C510 H523 0.962 . S
C510 H524 0.960 . S
C511 C508 1.511 . S
C511 H525 0.961 . S
C511 H526 0.961 . S
C511 H527 0.961 . S
C512 C513 1.370 . S
C512 C514 1.363 . S
C512 H528 0.931 . S
C513 C512 1.370 . S
C513 C517 1.408 . S
C514 C512 1.363 . S
C514 C515 1.370 . S
C514 C518 1.524 . S
C515 C507 1.503 . S
C515 C514 1.370 . S
C515 C516 1.403 . S
C516 C515 1.403 . S
C516 C517 1.404 . S
C516 C519 1.539 . S
C517 C513 1.408 . S
C517 C516 1.404 . S
C517 H529 0.930 . S
C518 C514 1.524 . S
C518 H530 0.956 . S
C518 H531 0.961 . S
C518 H532 0.961 . S
C519 C516 1.539 . S
C519 H533 0.958 . S
C519 H534 0.961 . S
C519 H535 0.960 . S
H520 C504 0.931 . S
H521 C509 0.929 . S
H522 C510 0.960 . S
H523 C510 0.962 . S
H524 C510 0.960 . S
H525 C511 0.961 . S
H526 C511 0.961 . S
H527 C511 0.961 . S
H528 C512 0.931 . S
H529 C517 0.930 . S
H530 C518 0.956 . S
H531 C518 0.961 . S
H532 C518 0.961 . S
H533 C519 0.958 . S
H534 C519 0.961 . S
H535 C519 0.960 . S
C536 C537 1.391 . S
C536 C538 1.394 . S
C536 H552 0.931 . S
C537 C536 1.391 . S
C537 C541 1.376 . S
C538 C536 1.394 . S
C538 C539 1.369 . S
C538 C542 1.531 1_556 S
C539 C538 1.369 . S
C539 C540 1.410 . S
C539 C547 1.503 . S
C540 C539 1.410 . S
C540 C541 1.392 . S
C540 C543 1.511 . S
C541 C537 1.376 . S
C541 C540 1.392 . S
C541 H553 0.929 . S
C542 C538 1.531 1_554 S
C542 H554 0.960 . S
C542 H555 0.962 . S
C542 H556 0.960 . S
C543 C540 1.511 . S
C543 H557 0.961 . S
C543 H558 0.961 . S
C543 H559 0.961 . S
C544 C545 1.370 1_556 S
C544 C546 1.363 . S
C544 H560 0.931 . S
C545 C544 1.370 1_554 S
C545 C549 1.408 . S
C546 C544 1.363 . S
C546 C547 1.370 . S
C546 C550 1.524 . S
C547 C539 1.503 . S
C547 C546 1.370 . S
C547 C548 1.403 . S
C548 C547 1.403 . S
C548 C549 1.404 1_556 S
C548 C551 1.539 . S
C549 C545 1.408 . S
C549 C548 1.404 1_554 S
C549 H561 0.930 . S
C550 C546 1.524 . S
C550 H562 0.956 . S
C550 H563 0.961 . S
C550 H564 0.961 . S
C551 C548 1.539 . S
C551 H565 0.958 1_556 S
C551 H566 0.963 . S
C551 H567 0.960 . S
H552 C536 0.931 . S
H553 C541 0.929 . S
H554 C542 0.960 . S
H555 C542 0.962 . S
H556 C542 0.960 . S
H557 C543 0.961 . S
H558 C543 0.961 . S
H559 C543 0.961 . S
H560 C544 0.931 . S
H561 C549 0.930 . S
H562 C550 0.956 . S
H563 C550 0.961 . S
H564 C550 0.961 . S
H565 C551 0.958 1_554 S
H566 C551 0.963 . S
H567 C551 0.960 . S
C568 C569 1.391 . S
C568 C570 1.394 . S
C568 H584 0.931 . S
C569 C568 1.391 . S
C569 C573 1.376 . S
C570 C568 1.394 . S
C570 C571 1.369 . S
C570 C574 1.531 . S
C571 C570 1.369 . S
C571 C572 1.410 . S
C571 C579 1.503 . S
C572 C571 1.410 . S
C572 C573 1.392 . S
C572 C575 1.511 . S
C573 C569 1.376 . S
C573 C572 1.392 . S
C573 H585 0.929 . S
C574 C570 1.531 . S
C574 H586 0.960 . S
C574 H587 0.962 . S
C574 H588 0.960 . S
C575 C572 1.511 . S
C575 H589 0.961 . S
C575 H590 0.961 . S
C575 H591 0.961 . S
C576 C577 1.370 . S
C576 C578 1.363 . S
C576 H592 0.931 . S
C577 C576 1.370 . S
C577 C581 1.408 . S
C578 C576 1.363 . S
C578 C579 1.370 . S
C578 C582 1.524 . S
C579 C571 1.503 . S
C579 C578 1.370 . S
C579 C580 1.403 . S
C580 C579 1.403 . S
C580 C581 1.404 . S
C580 C583 1.539 . S
C581 C577 1.408 . S
C581 C580 1.404 . S
C581 H593 0.930 . S
C582 C578 1.524 . S
C582 H594 0.956 . S
C582 H595 0.961 . S
C582 H596 0.961 . S
C583 C580 1.539 . S
C583 H597 0.958 . S
C583 H598 0.961 1_655 S
C583 H599 0.960 . S
H584 C568 0.931 . S
H585 C573 0.929 . S
H586 C574 0.960 . S
H587 C574 0.962 . S
H588 C574 0.960 . S
H589 C575 0.961 . S
H590 C575 0.961 . S
H591 C575 0.961 . S
H592 C576 0.931 . S
H593 C581 0.930 . S
H594 C582 0.956 . S
H595 C582 0.961 . S
H596 C582 0.961 . S
H597 C583 0.958 . S
H598 C583 0.961 1_455 S
H599 C583 0.960 . S
C600 C601 1.391 . S
C600 C602 1.394 . S
C600 H616 0.931 . S
C601 C600 1.391 . S
C601 C605 1.376 . S
C602 C600 1.394 . S
C602 C603 1.369 . S
C602 C606 1.531 . S
C603 C602 1.369 . S
C603 C604 1.410 . S
C603 C611 1.503 . S
C604 C603 1.410 . S
C604 C605 1.392 . S
C604 C607 1.511 . S
C605 C601 1.376 . S
C605 C604 1.392 . S
C605 H617 0.929 . S
C606 C602 1.531 . S
C606 H618 0.960 . S
C606 H619 0.962 . S
C606 H620 0.960 . S
C607 C604 1.511 . S
C607 H621 0.961 . S
C607 H622 0.961 . S
C607 H623 0.961 . S
C608 C609 1.370 . S
C608 C610 1.363 . S
C608 H624 0.931 . S
C609 C608 1.370 . S
C609 C613 1.408 . S
C610 C608 1.363 . S
C610 C611 1.370 . S
C610 C614 1.524 . S
C611 C603 1.503 . S
C611 C610 1.370 . S
C611 C612 1.403 . S
C612 C611 1.403 . S
C612 C613 1.404 . S
C612 C615 1.539 . S
C613 C609 1.408 . S
C613 C612 1.404 . S
C613 H625 0.930 . S
C614 C610 1.524 . S
C614 H626 0.956 . S
C614 H627 0.961 . S
C614 H628 0.961 . S
C615 C612 1.539 . S
C615 H629 0.958 . S
C615 H630 0.961 . S
C615 H631 0.960 . S
H616 C600 0.931 . S
H617 C605 0.929 . S
H618 C606 0.960 . S
H619 C606 0.962 . S
H620 C606 0.960 . S
H621 C607 0.961 . S
H622 C607 0.961 . S
H623 C607 0.961 . S
H624 C608 0.931 . S
H625 C613 0.930 . S
H626 C614 0.956 . S
H627 C614 0.961 . S
H628 C614 0.961 . S
H629 C615 0.958 . S
H630 C615 0.961 . S
H631 C615 0.960 . S
C632 C633 1.391 . S
C632 C634 1.394 . S
C632 H648 0.931 . S
C633 C632 1.391 . S
C633 C637 1.376 . S
C634 C632 1.394 . S
C634 C635 1.369 . S
C634 C638 1.531 . S
C635 C634 1.369 . S
C635 C636 1.410 . S
C635 C643 1.503 . S
C636 C635 1.410 . S
C636 C637 1.392 . S
C636 C639 1.511 . S
C637 C633 1.376 . S
C637 C636 1.392 . S
C637 H649 0.929 . S
C638 C634 1.531 . S
C638 H650 0.960 . S
C638 H651 0.962 . S
C638 H652 0.960 . S
C639 C636 1.511 . S
C639 H653 0.961 . S
C639 H654 0.961 . S
C639 H655 0.961 . S
C640 C641 1.370 . S
C640 C642 1.363 . S
C640 H656 0.931 . S
C641 C640 1.370 . S
C641 C645 1.408 . S
C642 C640 1.363 . S
C642 C643 1.370 . S
C642 C646 1.524 . S
C643 C635 1.503 . S
C643 C642 1.370 . S
C643 C644 1.403 . S
C644 C643 1.403 . S
C644 C645 1.404 . S
C644 C647 1.539 . S
C645 C641 1.408 . S
C645 C644 1.404 . S
C645 H657 0.930 . S
C646 C642 1.524 . S
C646 H658 0.956 . S
C646 H659 0.961 . S
C646 H660 0.961 . S
C647 C644 1.539 . S
C647 H661 0.958 . S
C647 H662 0.961 . S
C647 H663 0.960 . S
H648 C632 0.931 . S
H649 C637 0.929 . S
H650 C638 0.960 . S
H651 C638 0.962 . S
H652 C638 0.960 . S
H653 C639 0.961 . S
H654 C639 0.961 . S
H655 C639 0.961 . S
H656 C640 0.931 . S
H657 C645 0.930 . S
H658 C646 0.956 . S
H659 C646 0.961 . S
H660 C646 0.961 . S
H661 C647 0.958 . S
H662 C647 0.961 . S
H663 C647 0.960 . S
C664 C665 1.391 . S
C664 C666 1.394 . S
C664 H680 0.931 . S
C665 C664 1.391 . S
C665 C669 1.376 . S
C666 C664 1.394 . S
C666 C667 1.369 . S
C666 C670 1.531 . S
C667 C666 1.369 . S
C667 C668 1.410 . S
C667 C675 1.503 . S
C668 C667 1.410 . S
C668 C669 1.392 . S
C668 C671 1.511 . S
C669 C665 1.376 . S
C669 C668 1.392 . S
C669 H681 0.929 . S
C670 C666 1.531 . S
C670 H682 0.960 . S
C670 H683 0.962 . S
C670 H684 0.960 . S
C671 C668 1.511 . S
C671 H685 0.961 . S
C671 H686 0.961 . S
C671 H687 0.961 . S
C672 C673 1.370 . S
C672 C674 1.363 . S
C672 H688 0.931 . S
C673 C672 1.370 . S
C673 C677 1.408 . S
C674 C672 1.363 . S
C674 C675 1.370 . S
C674 C678 1.524 . S
C675 C667 1.503 . S
C675 C674 1.370 . S
C675 C676 1.403 . S
C676 C675 1.403 . S
C676 C677 1.404 . S
C676 C679 1.539 . S
C677 C673 1.408 . S
C677 C676 1.404 . S
C677 H689 0.930 . S
C678 C674 1.524 . S
C678 H690 0.956 . S
C678 H691 0.961 . S
C678 H692 0.961 . S
C679 C676 1.539 . S
C679 H693 0.958 . S
C679 H694 0.961 . S
C679 H695 0.960 . S
H680 C664 0.931 . S
H681 C669 0.929 . S
H682 C670 0.960 . S
H683 C670 0.962 . S
H684 C670 0.960 . S
H685 C671 0.961 . S
H686 C671 0.961 . S
H687 C671 0.961 . S
H688 C672 0.931 . S
H689 C677 0.930 . S
H690 C678 0.956 . S
H691 C678 0.961 . S
H692 C678 0.961 . S
H693 C679 0.958 . S
H694 C679 0.961 . S
H695 C679 0.960 . S
C696 C697 1.391 . S
C696 C698 1.394 . S
C696 H712 0.931 . S
C697 C696 1.391 . S
C697 C701 1.376 . S
C698 C696 1.394 . S
C698 C699 1.369 . S
C698 C702 1.531 . S
C699 C698 1.369 . S
C699 C700 1.410 . S
C699 C707 1.503 . S
C700 C699 1.410 . S
C700 C701 1.392 . S
C700 C703 1.511 . S
C701 C697 1.376 . S
C701 C700 1.392 . S
C701 H713 0.929 . S
C702 C698 1.531 . S
C702 H714 0.960 . S
C702 H715 0.962 . S
C702 H716 0.960 . S
C703 C700 1.511 . S
C703 H717 0.961 . S
C703 H718 0.961 . S
C703 H719 0.961 . S
C704 C705 1.370 . S
C704 C706 1.363 . S
C704 H720 0.931 . S
C705 C704 1.370 . S
C705 C709 1.408 . S
C706 C704 1.363 . S
C706 C707 1.370 . S
C706 C710 1.524 . S
C707 C699 1.503 . S
C707 C706 1.370 . S
C707 C708 1.403 . S
C708 C707 1.403 . S
C708 C709 1.404 . S
C708 C711 1.539 . S
C709 C705 1.408 . S
C709 C708 1.404 . S
C709 H721 0.930 . S
C710 C706 1.524 . S
C710 H722 0.956 . S
C710 H723 0.961 . S
C710 H724 0.961 . S
C711 C708 1.539 . S
C711 H725 0.958 . S
C711 H726 0.961 . S
C711 H727 0.960 . S
H712 C696 0.931 . S
H713 C701 0.929 . S
H714 C702 0.960 . S
H715 C702 0.962 . S
H716 C702 0.960 . S
H717 C703 0.961 . S
H718 C703 0.961 . S
H719 C703 0.961 . S
H720 C704 0.931 . S
H721 C709 0.930 . S
H722 C710 0.956 . S
H723 C710 0.961 . S
H724 C710 0.961 . S
H725 C711 0.958 . S
H726 C711 0.961 . S
H727 C711 0.960 . S
C728 C729 1.391 . S
C728 C730 1.394 . S
C728 H744 0.931 . S
C729 C728 1.391 . S
C729 C733 1.376 . S
C730 C728 1.394 . S
C730 C731 1.369 . S
C730 C734 1.531 . S
C731 C730 1.369 . S
C731 C732 1.410 . S
C731 C739 1.503 . S
C732 C731 1.410 . S
C732 C733 1.392 . S
C732 C735 1.511 . S
C733 C729 1.376 . S
C733 C732 1.392 . S
C733 H745 0.929 . S
C734 C730 1.531 . S
C734 H746 0.960 . S
C734 H747 0.962 . S
C734 H748 0.960 . S
C735 C732 1.511 . S
C735 H749 0.961 . S
C735 H750 0.961 . S
C735 H751 0.961 . S
C736 C737 1.370 . S
C736 C738 1.363 . S
C736 H752 0.931 . S
C737 C736 1.370 . S
C737 C741 1.408 . S
C738 C736 1.363 . S
C738 C739 1.370 . S
C738 C742 1.524 . S
C739 C731 1.503 . S
C739 C738 1.370 . S
C739 C740 1.403 . S
C740 C739 1.403 . S
C740 C741 1.404 . S
C740 C743 1.539 . S
C741 C737 1.408 . S
C741 C740 1.404 . S
C741 H753 0.930 . S
C742 C738 1.524 . S
C742 H754 0.956 . S
C742 H755 0.961 . S
C742 H756 0.961 . S
C743 C740 1.539 . S
C743 H757 0.958 . S
C743 H758 0.961 . S
C743 H759 0.960 . S
H744 C728 0.931 . S
H745 C733 0.929 . S
H746 C734 0.960 . S
H747 C734 0.962 . S
H748 C734 0.960 . S
H749 C735 0.961 . S
H750 C735 0.961 . S
H751 C735 0.961 . S
H752 C736 0.931 . S
H753 C741 0.930 . S
H754 C742 0.956 . S
H755 C742 0.961 . S
H756 C742 0.961 . S
H757 C743 0.958 . S
H758 C743 0.961 . S
H759 C743 0.960 . S
C760 C761 1.391 . S
C760 C762 1.394 . S
C760 H776 0.931 . S
C761 C760 1.391 . S
C761 C765 1.376 . S
C762 C760 1.394 . S
C762 C763 1.369 . S
C762 C766 1.531 . S
C763 C762 1.369 . S
C763 C764 1.410 . S
C763 C771 1.503 . S
C764 C763 1.410 . S
C764 C765 1.392 . S
C764 C767 1.511 . S
C765 C761 1.376 . S
C765 C764 1.392 . S
C765 H777 0.929 . S
C766 C762 1.531 . S
C766 H778 0.960 . S
C766 H779 0.962 . S
C766 H780 0.960 . S
C767 C764 1.511 . S
C767 H781 0.961 . S
C767 H782 0.961 . S
C767 H783 0.961 . S
C768 C769 1.370 . S
C768 C770 1.363 . S
C768 H784 0.931 1_556 S
C769 C768 1.370 . S
C769 C773 1.408 . S
C770 C768 1.363 . S
C770 C771 1.370 . S
C770 C774 1.524 . S
C771 C763 1.503 . S
C771 C770 1.370 . S
C771 C772 1.403 . S
C772 C771 1.403 . S
C772 C773 1.404 . S
C772 C775 1.539 . S
C773 C769 1.408 . S
C773 C772 1.404 . S
C773 H785 0.930 . S
C774 C770 1.524 . S
C774 H786 0.956 . S
C774 H787 0.961 . S
C774 H788 0.961 . S
C775 C772 1.539 . S
C775 H789 0.958 . S
C775 H790 0.961 . S
C775 H791 0.960 . S
H776 C760 0.931 . S
H777 C765 0.929 . S
H778 C766 0.960 . S
H779 C766 0.962 . S
H780 C766 0.960 . S
H781 C767 0.961 . S
H782 C767 0.961 . S
H783 C767 0.961 . S
H784 C768 0.931 1_554 S
H785 C773 0.930 . S
H786 C774 0.956 . S
H787 C774 0.961 . S
H788 C774 0.961 . S
H789 C775 0.958 . S
H790 C775 0.961 . S
H791 C775 0.960 . S
C792 C793 1.391 . S
C792 C794 1.394 . S
C792 H808 0.931 . S
C793 C792 1.391 . S
C793 C797 1.376 . S
C794 C792 1.394 . S
C794 C795 1.369 . S
C794 C798 1.531 . S
C795 C794 1.369 . S
C795 C796 1.410 . S
C795 C803 1.503 . S
C796 C795 1.410 . S
C796 C797 1.392 . S
C796 C799 1.511 . S
C797 C793 1.376 . S
C797 C796 1.392 . S
C797 H809 0.929 . S
C798 C794 1.531 . S
C798 H810 0.960 . S
C798 H811 0.962 . S
C798 H812 0.960 . S
C799 C796 1.511 . S
C799 H813 0.961 . S
C799 H814 0.961 . S
C799 H815 0.961 . S
C800 C801 1.370 . S
C800 C802 1.363 . S
C800 H816 0.931 . S
C801 C800 1.370 . S
C801 C805 1.408 . S
C802 C800 1.363 . S
C802 C803 1.370 . S
C802 C806 1.524 . S
C803 C795 1.503 . S
C803 C802 1.370 . S
C803 C804 1.403 . S
C804 C803 1.403 . S
C804 C805 1.404 . S
C804 C807 1.539 . S
C805 C801 1.408 . S
C805 C804 1.404 . S
C805 H817 0.930 . S
C806 C802 1.524 . S
C806 H818 0.956 . S
C806 H819 0.961 . S
C806 H820 0.961 . S
C807 C804 1.539 . S
C807 H821 0.958 . S
C807 H822 0.961 . S
C807 H823 0.960 . S
H808 C792 0.931 . S
H809 C797 0.929 . S
H810 C798 0.960 . S
H811 C798 0.962 . S
H812 C798 0.960 . S
H813 C799 0.961 . S
H814 C799 0.961 . S
H815 C799 0.961 . S
H816 C800 0.931 . S
H817 C805 0.930 . S
H818 C806 0.956 . S
H819 C806 0.961 . S
H820 C806 0.961 . S
H821 C807 0.958 . S
H822 C807 0.961 . S
H823 C807 0.960 . S
C824 C825 1.391 . S
C824 C826 1.394 . S
C824 H840 0.931 . S
C825 C824 1.391 . S
C825 C829 1.376 . S
C826 C824 1.394 . S
C826 C827 1.369 . S
C826 C830 1.531 . S
C827 C826 1.369 . S
C827 C828 1.410 . S
C827 C835 1.503 . S
C828 C827 1.410 . S
C828 C829 1.392 . S
C828 C831 1.511 . S
C829 C825 1.376 . S
C829 C828 1.392 . S
C829 H841 0.929 . S
C830 C826 1.531 . S
C830 H842 0.960 . S
C830 H843 0.962 . S
C830 H844 0.960 . S
C831 C828 1.511 . S
C831 H845 0.961 . S
C831 H846 0.961 . S
C831 H847 0.961 . S
C832 C833 1.370 . S
C832 C834 1.363 . S
C832 H848 0.931 . S
C833 C832 1.370 . S
C833 C837 1.408 . S
C834 C832 1.363 . S
C834 C835 1.370 . S
C834 C838 1.524 . S
C835 C827 1.503 . S
C835 C834 1.370 . S
C835 C836 1.403 . S
C836 C835 1.403 . S
C836 C837 1.404 . S
C836 C839 1.539 . S
C837 C833 1.408 . S
C837 C836 1.404 . S
C837 H849 0.930 . S
C838 C834 1.524 . S
C838 H850 0.956 . S
C838 H851 0.961 . S
C838 H852 0.961 . S
C839 C836 1.539 . S
C839 H853 0.958 . S
C839 H854 0.961 . S
C839 H855 0.960 . S
H840 C824 0.931 . S
H841 C829 0.929 . S
H842 C830 0.960 . S
H843 C830 0.962 . S
H844 C830 0.960 . S
H845 C831 0.961 . S
H846 C831 0.961 . S
H847 C831 0.961 . S
H848 C832 0.931 . S
H849 C837 0.930 . S
H850 C838 0.956 . S
H851 C838 0.961 . S
H852 C838 0.961 . S
H853 C839 0.958 . S
H854 C839 0.961 . S
H855 C839 0.960 . S
C856 C857 1.391 . S
C856 C858 1.394 . S
C856 H872 0.931 . S
C857 C856 1.391 . S
C857 C861 1.376 . S
C858 C856 1.394 . S
C858 C859 1.369 . S
C858 C862 1.531 . S
C859 C858 1.369 . S
C859 C860 1.410 . S
C859 C867 1.503 . S
C860 C859 1.410 . S
C860 C861 1.392 . S
C860 C863 1.511 . S
C861 C857 1.376 . S
C861 C860 1.392 . S
C861 H873 0.929 . S
C862 C858 1.531 . S
C862 H874 0.960 . S
C862 H875 0.962 . S
C862 H876 0.960 . S
C863 C860 1.511 . S
C863 H877 0.961 . S
C863 H878 0.961 . S
C863 H879 0.961 . S
C864 C865 1.370 . S
C864 C866 1.363 . S
C864 H880 0.931 . S
C865 C864 1.370 . S
C865 C869 1.408 . S
C866 C864 1.363 . S
C866 C867 1.370 . S
C866 C870 1.524 . S
C867 C859 1.503 . S
C867 C866 1.370 . S
C867 C868 1.403 . S
C868 C867 1.403 . S
C868 C869 1.404 . S
C868 C871 1.539 . S
C869 C865 1.408 . S
C869 C868 1.404 . S
C869 H881 0.930 . S
C870 C866 1.524 . S
C870 H882 0.956 . S
C870 H883 0.961 . S
C870 H884 0.961 . S
C871 C868 1.539 . S
C871 H885 0.958 . S
C871 H886 0.961 . S
C871 H887 0.960 . S
H872 C856 0.931 . S
H873 C861 0.929 . S
H874 C862 0.960 . S
H875 C862 0.962 . S
H876 C862 0.960 . S
H877 C863 0.961 . S
H878 C863 0.961 . S
H879 C863 0.961 . S
H880 C864 0.931 . S
H881 C869 0.930 . S
H882 C870 0.956 . S
H883 C870 0.961 . S
H884 C870 0.961 . S
H885 C871 0.958 . S
H886 C871 0.961 . S
H887 C871 0.960 . S
C888 C889 1.391 . S
C888 C890 1.394 . S
C888 H904 0.931 . S
C889 C888 1.391 . S
C889 C893 1.376 . S
C890 C888 1.394 . S
C890 C891 1.369 . S
C890 C894 1.531 . S
C891 C890 1.369 . S
C891 C892 1.410 . S
C891 C899 1.503 . S
C892 C891 1.410 . S
C892 C893 1.392 . S
C892 C895 1.511 . S
C893 C889 1.376 . S
C893 C892 1.392 . S
C893 H905 0.929 . S
C894 C890 1.531 . S
C894 H906 0.960 . S
C894 H907 0.962 . S
C894 H908 0.960 . S
C895 C892 1.511 . S
C895 H909 0.961 . S
C895 H910 0.961 . S
C895 H911 0.961 . S
C896 C897 1.370 . S
C896 C898 1.363 . S
C896 H912 0.931 . S
C897 C896 1.370 . S
C897 C901 1.408 . S
C898 C896 1.363 . S
C898 C899 1.370 . S
C898 C902 1.524 . S
C899 C891 1.503 . S
C899 C898 1.370 . S
C899 C900 1.403 . S
C900 C899 1.403 . S
C900 C901 1.404 . S
C900 C903 1.539 . S
C901 C897 1.408 . S
C901 C900 1.404 . S
C901 H913 0.930 . S
C902 C898 1.524 . S
C902 H914 0.956 . S
C902 H915 0.961 . S
C902 H916 0.961 . S
C903 C900 1.539 . S
C903 H917 0.958 . S
C903 H918 0.961 . S
C903 H919 0.960 . S
H904 C888 0.931 . S
H905 C893 0.929 . S
H906 C894 0.960 . S
H907 C894 0.962 . S
H908 C894 0.960 . S
H909 C895 0.961 . S
H910 C895 0.961 . S
H911 C895 0.961 . S
H912 C896 0.931 . S
H913 C901 0.930 . S
H914 C902 0.956 . S
H915 C902 0.961 . S
H916 C902 0.961 . S
H917 C903 0.958 . S
H918 C903 0.961 . S
H919 C903 0.960 . S
C920 C921 1.391 . S
C920 C922 1.394 . S
C920 H936 0.931 . S
C921 C920 1.391 . S
C921 C925 1.376 . S
C922 C920 1.394 . S
C922 C923 1.369 . S
C922 C926 1.531 . S
C923 C922 1.369 . S
C923 C924 1.410 . S
C923 C931 1.503 . S
C924 C923 1.410 . S
C924 C925 1.392 . S
C924 C927 1.511 . S
C925 C921 1.376 . S
C925 C924 1.392 . S
C925 H937 0.929 . S
C926 C922 1.531 . S
C926 H938 0.960 . S
C926 H939 0.962 . S
C926 H940 0.960 . S
C927 C924 1.511 . S
C927 H941 0.961 . S
C927 H942 0.961 . S
C927 H943 0.961 . S
C928 C929 1.370 . S
C928 C930 1.363 . S
C928 H944 0.931 . S
C929 C928 1.370 . S
C929 C933 1.408 . S
C930 C928 1.363 . S
C930 C931 1.370 . S
C930 C934 1.524 . S
C931 C923 1.503 . S
C931 C930 1.370 . S
C931 C932 1.403 . S
C932 C931 1.403 . S
C932 C933 1.404 . S
C932 C935 1.539 . S
C933 C929 1.408 . S
C933 C932 1.404 . S
C933 H945 0.930 . S
C934 C930 1.524 . S
C934 H946 0.956 . S
C934 H947 0.961 . S
C934 H948 0.961 . S
C935 C932 1.539 . S
C935 H949 0.958 . S
C935 H950 0.961 . S
C935 H951 0.960 . S
H936 C920 0.931 . S
H937 C925 0.929 . S
H938 C926 0.960 . S
H939 C926 0.962 . S
H940 C926 0.960 . S
H941 C927 0.961 . S
H942 C927 0.961 . S
H943 C927 0.961 . S
H944 C928 0.931 . S
H945 C933 0.930 . S
H946 C934 0.956 . S
H947 C934 0.961 . S
H948 C934 0.961 . S
H949 C935 0.958 . S
H950 C935 0.961 . S
H951 C935 0.960 . S
C952 C953 1.391 . S
C952 C954 1.394 . S
C952 H968 0.931 . S
C953 C952 1.391 . S
C953 C957 1.376 . S
C954 C952 1.394 . S
C954 C955 1.369 . S
C954 C958 1.531 . S
C955 C954 1.369 . S
C955 C956 1.410 . S
C955 C963 1.503 . S
C956 C955 1.410 . S
C956 C957 1.392 . S
C956 C959 1.511 . S
C957 C953 1.376 . S
C957 C956 1.392 . S
C957 H969 0.929 . S
C958 C954 1.531 . S
C958 H970 0.960 . S
C958 H971 0.962 . S
C958 H972 0.960 . S
C959 C956 1.511 . S
C959 H973 0.961 . S
C959 H974 0.961 . S
C959 H975 0.961 . S
C960 C961 1.370 . S
C960 C962 1.363 . S
C960 H976 0.931 . S
C961 C960 1.370 . S
C961 C965 1.408 . S
C962 C960 1.363 . S
C962 C963 1.370 . S
C962 C966 1.524 . S
C963 C955 1.503 . S
C963 C962 1.370 . S
C963 C964 1.403 . S
C964 C963 1.403 . S
C964 C965 1.404 . S
C964 C967 1.539 . S
C965 C961 1.408 . S
C965 C964 1.404 . S
C965 H977 0.930 . S
C966 C962 1.524 . S
C966 H978 0.956 . S
C966 H979 0.961 . S
C966 H980 0.975 . S
C967 C964 1.539 . S
C967 H981 0.958 . S
C967 H982 0.961 . S
C967 H983 0.960 . S
H968 C952 0.931 . S
H969 C957 0.929 . S
H970 C958 0.960 . S
H971 C958 0.962 . S
H972 C958 0.960 . S
H973 C959 0.961 . S
H974 C959 0.961 . S
H975 C959 0.961 . S
H976 C960 0.931 . S
H977 C965 0.930 . S
H978 C966 0.956 . S
H979 C966 0.961 . S
H980 C966 0.975 . S
H981 C967 0.958 . S
H982 C967 0.961 . S
H983 C967 0.960 . S
C984 C985 1.391 . S
C984 C986 1.394 . S
C984 H1000 0.931 . S
C985 C984 1.391 . S
C985 C989 1.376 . S
C986 C984 1.394 . S
C986 C987 1.369 . S
C986 C990 1.531 . S
C987 C986 1.369 . S
C987 C988 1.410 . S
C987 C995 1.503 . S
C988 C987 1.410 . S
C988 C989 1.392 . S
C988 C991 1.511 . S
C989 C985 1.376 . S
C989 C988 1.392 . S
C989 H1001 0.929 . S
C990 C986 1.531 . S
C990 H1002 0.960 . S
C990 H1003 0.962 . S
C990 H1004 0.960 . S
C991 C988 1.511 . S
C991 H1005 0.961 . S
C991 H1006 0.961 . S
C991 H1007 0.961 . S
C992 C993 1.370 . S
C992 C994 1.363 . S
C992 H1008 0.931 . S
C993 C992 1.370 . S
C993 C997 1.408 . S
C994 C992 1.363 . S
C994 C995 1.370 . S
C994 C998 1.524 . S
C995 C987 1.503 . S
C995 C994 1.370 . S
C995 C996 1.403 . S
C996 C995 1.403 . S
C996 C997 1.404 . S
C996 C999 1.539 . S
C997 C993 1.408 . S
C997 C996 1.404 . S
C997 H1009 0.930 . S
C998 C994 1.524 . S
C998 H1010 0.956 . S
C998 H1011 0.961 . S
C998 H1012 0.961 . S
C999 C996 1.539 . S
C999 H1013 0.958 . S
C999 H1014 0.961 . S
C999 H1015 0.960 . S
H1000 C984 0.931 . S
H1001 C989 0.929 . S
H1002 C990 0.960 . S
H1003 C990 0.962 . S
H1004 C990 0.960 . S
H1005 C991 0.961 . S
H1006 C991 0.961 . S
H1007 C991 0.961 . S
H1008 C992 0.931 . S
H1009 C997 0.930 . S
H1010 C998 0.956 . S
H1011 C998 0.961 . S
H1012 C998 0.961 . S
H1013 C999 0.958 . S
H1014 C999 0.961 . S
H1015 C999 0.960 . S
C249 C5 1.056 . S
C257 C95 1.252 . S
C281 C18 1.047 . S
C289 C144 1.084 . S
C321 C170 2.319 . S
C313 C30 2.360 . S
C345 C41 2.052 . S
C353 C218 2.022 . S
C385 C130 2.363 . S
C377 C7 2.171 . S
C417 C98 0.970 . S
C409 C16 0.831 . S
C449 C219 1.951 . S
C441 C29 1.883 . S
C481 C187 1.230 . S
C473 C38 1.116 . S
C505 C8 1.479 . S
C513 C215 1.607 . S
C545 C147 2.553 . S
C537 C27 2.398 . S
C569 C40 2.409 . S
C577 C99 2.451 . S
C601 C19 0.738 . S
C609 C184 0.714 . S
C641 C104 1.138 . S
C633 C51 1.065 . S
C665 C62 1.371 . S
C673 C135 1.330 . S
C697 C74 2.443 . S
C705 C179 2.415 . S
C729 C84 2.142 . S
C737 C227 2.234 . S
C761 C49 2.001 . S
C769 C139 2.607 1_556 S
C801 C107 0.957 . S
C793 C63 1.002 . S
C833 C210 1.812 . S
C825 C71 1.681 . S
C865 C178 1.357 . S
C857 C85 1.368 . S
C889 C52 1.507 . S
C897 C224 1.624 . S
C929 C138 2.639 . S
C921 C73 2.673 . S
C961 C90 1.974 . S
C953 C82 1.649 . S
C985 C60 0.743 . S
C993 C175 0.819 . S
