# Generated by pormake.
# Topology myd, (4,6)-cn, num edge types: 1
# Building blocks:
#     Node 0, Type 0, BuildingBlock: NAWXER_clean_sbu_0, # of connection points: 4
#     Node 1, Type 0, BuildingBlock: NAWXER_clean_sbu_0, # of connection points: 4
#     Node 2, Type 0, BuildingBlock: NAWXER_clean_sbu_0, # of connection points: 4
#     Node 3, Type 0, BuildingBlock: NAWXER_clean_sbu_0, # of connection points: 4
#     Node 4, Type 0, BuildingBlock: NAWXER_clean_sbu_0, # of connection points: 4
#     Node 5, Type 0, BuildingBlock: NAWXER_clean_sbu_0, # of connection points: 4
#     Node 6, Type 0, BuildingBlock: NAWXER_clean_sbu_0, # of connection points: 4
#     Node 7, Type 0, BuildingBlock: NAWXER_clean_sbu_0, # of connection points: 4
#     Node 8, Type 0, BuildingBlock: NAWXER_clean_sbu_0, # of connection points: 4
#     Node 9, Type 0, BuildingBlock: NAWXER_clean_sbu_0, # of connection points: 4
#     Node 10, Type 0, BuildingBlock: NAWXER_clean_sbu_0, # of connection points: 4
#     Node 11, Type 0, BuildingBlock: NAWXER_clean_sbu_0, # of connection points: 4
#     Node 12, Type 1, BuildingBlock: MIDCAF_clean_sbu_0, # of connection points: 6
#     Node 13, Type 1, BuildingBlock: MIDCAF_clean_sbu_0, # of connection points: 6
#     Node 14, Type 1, BuildingBlock: MIDCAF_clean_sbu_0, # of connection points: 6
#     Node 15, Type 1, BuildingBlock: MIDCAF_clean_sbu_0, # of connection points: 6
#     Node 16, Type 1, BuildingBlock: MIDCAF_clean_sbu_0, # of connection points: 6
#     Node 17, Type 1, BuildingBlock: MIDCAF_clean_sbu_0, # of connection points: 6
#     Node 18, Type 1, BuildingBlock: MIDCAF_clean_sbu_0, # of connection points: 6
#     Node 19, Type 1, BuildingBlock: MIDCAF_clean_sbu_0, # of connection points: 6
#     Edge 20, Type (0, 1), BuildingBlock: CIFDUS_clean_linker_0, # of connection points: 2
#     Edge 21, Type (0, 1), BuildingBlock: CIFDUS_clean_linker_0, # of connection points: 2
#     Edge 22, Type (0, 1), BuildingBlock: CIFDUS_clean_linker_0, # of connection points: 2
#     Edge 23, Type (0, 1), BuildingBlock: CIFDUS_clean_linker_0, # of connection points: 2
#     Edge 24, Type (0, 1), BuildingBlock: CIFDUS_clean_linker_0, # of connection points: 2
#     Edge 25, Type (0, 1), BuildingBlock: CIFDUS_clean_linker_0, # of connection points: 2
#     Edge 26, Type (0, 1), BuildingBlock: CIFDUS_clean_linker_0, # of connection points: 2
#     Edge 27, Type (0, 1), BuildingBlock: CIFDUS_clean_linker_0, # of connection points: 2
#     Edge 28, Type (0, 1), BuildingBlock: CIFDUS_clean_linker_0, # of connection points: 2
#     Edge 29, Type (0, 1), BuildingBlock: CIFDUS_clean_linker_0, # of connection points: 2
#     Edge 30, Type (0, 1), BuildingBlock: CIFDUS_clean_linker_0, # of connection points: 2
#     Edge 31, Type (0, 1), BuildingBlock: CIFDUS_clean_linker_0, # of connection points: 2
#     Edge 32, Type (0, 1), BuildingBlock: CIFDUS_clean_linker_0, # of connection points: 2
#     Edge 33, Type (0, 1), BuildingBlock: CIFDUS_clean_linker_0, # of connection points: 2
#     Edge 34, Type (0, 1), BuildingBlock: CIFDUS_clean_linker_0, # of connection points: 2
#     Edge 35, Type (0, 1), BuildingBlock: CIFDUS_clean_linker_0, # of connection points: 2
#     Edge 36, Type (0, 1), BuildingBlock: CIFDUS_clean_linker_0, # of connection points: 2
#     Edge 37, Type (0, 1), BuildingBlock: CIFDUS_clean_linker_0, # of connection points: 2
#     Edge 38, Type (0, 1), BuildingBlock: CIFDUS_clean_linker_0, # of connection points: 2
#     Edge 39, Type (0, 1), BuildingBlock: CIFDUS_clean_linker_0, # of connection points: 2
#     Edge 40, Type (0, 1), BuildingBlock: CIFDUS_clean_linker_0, # of connection points: 2
#     Edge 41, Type (0, 1), BuildingBlock: CIFDUS_clean_linker_0, # of connection points: 2
#     Edge 42, Type (0, 1), BuildingBlock: CIFDUS_clean_linker_0, # of connection points: 2
#     Edge 43, Type (0, 1), BuildingBlock: CIFDUS_clean_linker_0, # of connection points: 2
#     Edge 44, Type (0, 1), BuildingBlock: CIFDUS_clean_linker_0, # of connection points: 2
#     Edge 45, Type (0, 1), BuildingBlock: CIFDUS_clean_linker_0, # of connection points: 2
#     Edge 46, Type (0, 1), BuildingBlock: CIFDUS_clean_linker_0, # of connection points: 2
#     Edge 47, Type (0, 1), BuildingBlock: CIFDUS_clean_linker_0, # of connection points: 2
#     Edge 48, Type (0, 1), BuildingBlock: CIFDUS_clean_linker_0, # of connection points: 2
#     Edge 49, Type (0, 1), BuildingBlock: CIFDUS_clean_linker_0, # of connection points: 2
#     Edge 50, Type (0, 1), BuildingBlock: CIFDUS_clean_linker_0, # of connection points: 2
#     Edge 51, Type (0, 1), BuildingBlock: CIFDUS_clean_linker_0, # of connection points: 2
#     Edge 52, Type (0, 1), BuildingBlock: CIFDUS_clean_linker_0, # of connection points: 2
#     Edge 53, Type (0, 1), BuildingBlock: CIFDUS_clean_linker_0, # of connection points: 2
#     Edge 54, Type (0, 1), BuildingBlock: CIFDUS_clean_linker_0, # of connection points: 2
#     Edge 55, Type (0, 1), BuildingBlock: CIFDUS_clean_linker_0, # of connection points: 2
#     Edge 56, Type (0, 1), BuildingBlock: CIFDUS_clean_linker_0, # of connection points: 2
#     Edge 57, Type (0, 1), BuildingBlock: CIFDUS_clean_linker_0, # of connection points: 2
#     Edge 58, Type (0, 1), BuildingBlock: CIFDUS_clean_linker_0, # of connection points: 2
#     Edge 59, Type (0, 1), BuildingBlock: CIFDUS_clean_linker_0, # of connection points: 2
#     Edge 60, Type (0, 1), BuildingBlock: CIFDUS_clean_linker_0, # of connection points: 2
#     Edge 61, Type (0, 1), BuildingBlock: CIFDUS_clean_linker_0, # of connection points: 2
#     Edge 62, Type (0, 1), BuildingBlock: CIFDUS_clean_linker_0, # of connection points: 2
#     Edge 63, Type (0, 1), BuildingBlock: CIFDUS_clean_linker_0, # of connection points: 2
#     Edge 64, Type (0, 1), BuildingBlock: CIFDUS_clean_linker_0, # of connection points: 2
#     Edge 65, Type (0, 1), BuildingBlock: CIFDUS_clean_linker_0, # of connection points: 2
#     Edge 66, Type (0, 1), BuildingBlock: CIFDUS_clean_linker_0, # of connection points: 2
#     Edge 67, Type (0, 1), BuildingBlock: CIFDUS_clean_linker_0, # of connection points: 2
# Relax obj value: 0.163
# Max RMSD: 0.104
# Mean RMSD: 0.094
data_MOF--net-myd--node1-NAWXER_clean_sbu_0--node2-MIDCAF_clean_sbu_0--edge1-CIFDUS_clean_linker_0
_symmetry_space_group_name_H-M    P1
_symmetry_Int_Tables_number       1
_symmetry_cell_setting            triclinic
loop_
_symmetry_equiv_pos_as_xyz
'x, y, z'
_cell_length_a     39.331091
_cell_length_b     39.451707
_cell_length_c     39.358821
_cell_angle_alpha  90.034375
_cell_angle_beta   89.711632
_cell_angle_gamma 89.925356
loop_
_atom_site_label
_atom_site_type_symbol
_atom_site_fract_x
_atom_site_fract_y
_atom_site_fract_z
_atom_type_partial_charge
C0 C 0.05035 0.21923 0.2492 0.0
C1 C 0.03362 0.30698 0.33444 0.0
O2 O 0.07344 0.23556 0.26471 0.0
Zn3 Zn 0.04323 0.26242 0.29262 0.0
O4 O 0.019 0.22441 0.2565 0.0
Zn5 Zn 0.98966 0.25543 0.29018 0.0
O6 O 0.96265 0.27952 0.25854 0.0
O7 O 0.01725 0.29253 0.25503 0.0
O8 O 0.00565 0.29458 0.3236 0.0
O9 O 0.06187 0.2953 0.3239 0.0
O10 O 0.02328 0.22467 0.32568 0.0
O11 O 0.9676 0.22306 0.31955 0.0
C12 C 0.9866 0.29614 0.24457 0.0
C13 C 0.99437 0.21198 0.33363 0.0
C14 C 0.02655 0.78351 0.26679 0.0
C15 C 0.01255 0.70677 0.17072 0.0
O16 O 0.05019 0.76766 0.25121 0.0
Zn17 Zn 0.02177 0.74742 0.21689 0.0
O18 O 0.99606 0.78222 0.25565 0.0
Zn19 Zn 0.96809 0.75752 0.21655 0.0
O20 O 0.93761 0.73097 0.24545 0.0
O21 O 0.99166 0.71636 0.24936 0.0
O22 O 0.98471 0.7207 0.18047 0.0
O23 O 0.04038 0.71535 0.18456 0.0
O24 O 0.00775 0.78979 0.18688 0.0
O25 O 0.95202 0.79527 0.18903 0.0
C26 C 0.96071 0.7127 0.25885 0.0
C27 C 0.98073 0.80562 0.1782 0.0
C28 C 0.32979 0.0184 0.21488 0.0
C29 C 0.24543 0.04063 0.30453 0.0
O30 O 0.31983 0.99116 0.22981 0.0
Zn31 Zn 0.28562 0.97724 0.27087 0.0
O32 O 0.31858 0.04676 0.22539 0.0
Zn33 Zn 0.28932 0.03018 0.26181 0.0
O34 O 0.32423 0.01115 0.29963 0.0
O35 O 0.31432 0.95652 0.3057 0.0
O36 O 0.26156 0.06256 0.28715 0.0
O37 O 0.25224 0.00902 0.30099 0.0
O38 O 0.252 0.94949 0.24697 0.0
O39 O 0.24939 0.00411 0.2348 0.0
C40 C 0.33077 0.98282 0.31432 0.0
C41 C 0.23778 0.97394 0.23145 0.0
C42 C 0.7631 0.54042 0.21518 0.0
C43 C 0.66533 0.52507 0.29116 0.0
O44 O 0.75768 0.50947 0.2233 0.0
Zn45 Zn 0.72131 0.48001 0.25095 0.0
O46 O 0.74237 0.56335 0.22462 0.0
Zn47 Zn 0.71201 0.53372 0.25068 0.0
O48 O 0.74438 0.51523 0.28985 0.0
O49 O 0.7513 0.45978 0.28512 0.0
O50 O 0.67618 0.55282 0.27875 0.0
O51 O 0.67923 0.49692 0.28233 0.0
O52 O 0.70009 0.45233 0.21563 0.0
O53 O 0.68543 0.50618 0.21246 0.0
C54 C 0.75733 0.48747 0.30063 0.0
C55 C 0.68312 0.47572 0.20133 0.0
C56 C 0.19645 0.33385 0.02106 0.0
C57 C 0.2784 0.24285 0.04114 0.0
O58 O 0.21177 0.32454 0.99365 0.0
Zn59 Zn 0.25042 0.28781 0.97885 0.0
O60 O 0.2046 0.32038 0.04918 0.0
Zn61 Zn 0.2388 0.28969 0.0316 0.0
O62 O 0.28006 0.32212 0.0159 0.0
O63 O 0.28779 0.31521 0.96089 0.0
O64 O 0.26117 0.25908 0.06316 0.0
O65 O 0.2766 0.25113 0.00971 0.0
O66 O 0.22566 0.25778 0.94833 0.0
O67 O 0.20784 0.25615 1.00168 0.0
C68 C 0.29655 0.32922 0.98857 0.0
C69 C 0.20532 0.24632 0.97074 0.0
C70 C 0.21631 0.77279 0.47152 0.0
C71 C 0.29483 0.67805 0.48592 0.0
O72 O 0.23174 0.75715 0.44765 0.0
Zn73 Zn 0.25227 0.72275 0.4763 0.0
O74 O 0.21795 0.76151 0.50195 0.0
Zn75 Zn 0.24292 0.72258 0.52979 0.0
O76 O 0.26802 0.75133 0.56013 0.0
O77 O 0.28362 0.75557 0.50617 0.0
O78 O 0.28108 0.68785 0.51379 0.0
O79 O 0.28482 0.69054 0.45792 0.0
O80 O 0.20958 0.69299 0.49128 0.0
O81 O 0.20633 0.69531 0.54716 0.0
C82 C 0.2866 0.7648 0.53723 0.0
C83 C 0.19475 0.68462 0.51908 0.0
C84 C 0.7241 0.83436 0.54624 0.0
C85 C 0.80888 0.74329 0.5451 0.0
O86 O 0.7298 0.82204 0.51662 0.0
Zn87 Zn 0.76158 0.78523 0.49294 0.0
O88 O 0.74168 0.82415 0.57126 0.0
Zn89 Zn 0.76987 0.79114 0.54706 0.0
O90 O 0.80395 0.81927 0.51583 0.0
O91 O 0.79125 0.81102 0.46199 0.0
O92 O 0.80165 0.76137 0.57101 0.0
O93 O 0.79629 0.75053 0.51604 0.0
O94 O 0.7281 0.75167 0.47682 0.0
O95 O 0.73372 0.75371 0.53263 0.0
C96 C 0.81015 0.82466 0.48429 0.0
C97 C 0.72053 0.74023 0.50621 0.0
C98 C 0.54903 0.79882 0.74855 0.0
C99 C 0.52111 0.71135 0.83329 0.0
O100 O 0.517 0.79542 0.75368 0.0
Zn101 Zn 0.48307 0.76665 0.78589 0.0
O102 O 0.5701 0.78192 0.76619 0.0
Zn103 Zn 0.53595 0.7574 0.79276 0.0
O104 O 0.51219 0.72918 0.75217 0.0
O105 O 0.45742 0.7415 0.75121 0.0
O106 O 0.55032 0.72154 0.8239 0.0
O107 O 0.49465 0.72637 0.82149 0.0
O108 O 0.46118 0.80308 0.8126 0.0
O109 O 0.51531 0.79682 0.82518 0.0
C110 C 0.4827 0.72535 0.73891 0.0
C111 C 0.48687 0.81226 0.82977 0.0
C112 C 0.54689 0.21163 0.76419 0.0
C113 C 0.53894 0.3062 0.68304 0.0
O114 O 0.5168 0.2166 0.75284 0.0
Zn115 Zn 0.49052 0.25066 0.7192 0.0
O116 O 0.57115 0.23062 0.7544 0.0
Zn117 Zn 0.54403 0.25817 0.7232 0.0
O118 O 0.51349 0.28577 0.75878 0.0
O119 O 0.45937 0.27311 0.75066 0.0
O120 O 0.56538 0.29449 0.69733 0.0
O121 O 0.51012 0.29198 0.68882 0.0
O122 O 0.47233 0.2191 0.68645 0.0
O123 O 0.5284 0.22152 0.68559 0.0
C124 C 0.48211 0.28913 0.76688 0.0
C125 C 0.50056 0.20872 0.67448 0.0
C126 C 0.72161 0.47995 0.72066 0.0
C127 C 0.81984 0.47687 0.79496 0.0
O128 O 0.73572 0.50893 0.72466 0.0
Zn129 Zn 0.77857 0.53043 0.74968 0.0
O130 O 0.73434 0.45372 0.73435 0.0
Zn131 Zn 0.77107 0.47705 0.75745 0.0
O132 O 0.7453 0.51009 0.79218 0.0
O133 O 0.75727 0.56353 0.77954 0.0
O134 O 0.80027 0.45226 0.78784 0.0
O135 O 0.81433 0.50638 0.78262 0.0
O136 O 0.80734 0.54551 0.71291 0.0
O137 O 0.80493 0.48978 0.71715 0.0
C138 C 0.74206 0.54188 0.79804 0.0
C139 C 0.81679 0.51638 0.70273 0.0
C140 C 0.27383 0.97657 0.71771 0.0
C141 C 0.17711 0.9858 0.79587 0.0
O142 O 0.25796 0.95222 0.73188 0.0
Zn143 Zn 0.22288 0.97932 0.75354 0.0
O144 O 0.26219 0.0068 0.72037 0.0
Zn145 Zn 0.22108 0.03248 0.74549 0.0
O146 O 0.24713 0.06352 0.77247 0.0
O147 O 0.25422 0.00968 0.78637 0.0
O148 O 0.18579 0.0142 0.78265 0.0
O149 O 0.19139 0.9587 0.78562 0.0
O150 O 0.19181 0.99422 0.71171 0.0
O151 O 0.19361 0.04994 0.70908 0.0
C152 C 0.26148 0.04106 0.7907 0.0
C153 C 0.18283 0.02197 0.6974 0.0
C154 C 0.71563 0.17561 0.99979 0.0
C155 C 0.79884 0.26258 0.9714 0.0
O156 O 0.73042 0.18727 0.02639 0.0
Zn157 Zn 0.76986 0.22368 0.03764 0.0
O158 O 0.72465 0.18637 0.97073 0.0
Zn159 Zn 0.75815 0.21885 0.98493 0.0
O160 O 0.80058 0.18894 1.0018 0.0
O161 O 0.80777 0.19674 0.05666 0.0
O162 O 0.77999 0.2468 0.95056 0.0
O163 O 0.79716 0.25622 0.00328 0.0
O164 O 0.74603 0.25821 0.0649 0.0
O165 O 0.72859 0.25636 0.0117 0.0
C166 C 0.81741 0.18292 0.029 0.0
C167 C 0.7266 0.26917 0.04158 0.0
Zn168 Zn 0.11564 0.05029 0.0574 0.0
Zn169 Zn 0.01351 0.00787 0.00859 0.0
Zn170 Zn 0.06009 0.03661 0.04122 0.0
C171 C 0.06356 0.01633 0.96156 0.0
C172 C 0.02872 0.96464 0.06167 0.0
O173 O 0.04564 0.07838 0.07329 0.0
O174 O 0.09591 0.07484 0.09756 0.0
C175 C 0.11985 0.07991 0.99977 0.0
O176 O 0.07318 0.03528 0.98643 0.0
O177 O 0.0381 0.99721 0.9651 0.0
O178 O 0.00488 0.97038 0.04112 0.0
O179 O 0.05416 0.98516 0.06317 0.0
O180 O 0.13793 0.08026 0.02594 0.0
O181 O 0.09181 0.06268 0.99956 0.0
O182 O 0.08622 0.99848 0.07694 0.0
O183 O 0.14009 0.0078 0.06483 0.0
C184 C 0.11806 0.9907 0.0804 0.0
O185 O 0.01424 0.06806 0.05406 0.0
O186 O 0.98296 0.04834 0.01202 0.0
C187 C 0.06623 0.08728 0.09688 0.0
C188 C 0.98694 0.06929 0.03604 0.0
Zn189 Zn 0.99443 0.50581 0.99395 0.0
Zn190 Zn 0.91133 0.45056 0.06757 0.0
Zn191 Zn 0.95244 0.47512 0.03748 0.0
C192 C 0.8921 0.51241 0.07417 0.0
C193 C 0.90193 0.41742 0.01304 0.0
O194 O 1.00154 0.44819 0.04428 0.0
O195 O 0.03007 0.4699 1.00094 0.0
C196 C 0.97527 0.55146 0.04721 0.0
O197 O 0.92477 0.51284 0.07062 0.0
O198 O 0.87601 0.48643 0.06496 0.0
O199 O 0.90224 0.40758 0.04345 0.0
O200 O 0.91562 0.44607 0.00531 0.0
O201 O 0.99649 0.54792 0.02319 0.0
O202 O 0.95451 0.52744 0.0547 0.0
O203 O 0.93139 0.47122 0.98662 0.0
O204 O 0.96322 0.50334 0.95313 0.0
C205 C 0.93719 0.48502 0.95752 0.0
O206 O 0.97755 0.43817 0.07057 0.0
O207 O 0.93849 0.44745 0.10953 0.0
C208 C 0.02831 0.44893 0.02524 0.0
C209 C 0.9667 0.43457 0.10124 0.0
Zn210 Zn 0.00475 0.00467 0.50027 0.0
Zn211 Zn 0.08493 0.95281 0.4239 0.0
Zn212 Zn 0.0469 0.97307 0.46104 0.0
C213 C 0.12225 0.95058 0.47457 0.0
C214 C 0.04144 0.90311 0.42499 0.0
O215 O 0.042 0.02562 0.4441 0.0
O216 O 0.9969 0.0453 0.47148 0.0
C217 C 0.06343 0.98806 0.53784 0.0
O218 O 0.09169 0.95066 0.48655 0.0
O219 O 0.12776 0.96605 0.44706 0.0
O220 O 0.07332 0.90451 0.42733 0.0
O221 O 0.02383 0.92918 0.43422 0.0
O222 O 0.0383 0.00805 0.53823 0.0
O223 O 0.06962 0.96971 0.51155 0.0
O224 O 0.99887 0.94338 0.45768 0.0
O225 O 0.97096 0.96709 0.5004 0.0
C226 C 0.97304 0.94431 0.4779 0.0
O227 O 0.0679 0.01058 0.42251 0.0
O228 O 0.07544 0.97555 0.37981 0.0
C229 C 0.02003 0.04922 0.44949 0.0
C230 C 0.07635 0.00541 0.39114 0.0
Zn231 Zn 0.87738 0.59128 0.41275 0.0
Zn232 Zn 1.00276 0.50459 0.5097 0.0
Zn233 Zn 0.96478 0.53798 0.47179 0.0
C234 C 0.99025 0.46479 0.45243 0.0
C235 C 0.03462 0.56643 0.48475 0.0
O236 O 0.92698 0.56315 0.50499 0.0
O237 O 0.9036 0.57506 0.45671 0.0
C238 C 0.91096 0.51813 0.42389 0.0
O239 O 0.9674 0.48783 0.44845 0.0
O240 O 0.0105 0.46648 0.47718 0.0
O241 O 0.03475 0.54422 0.50798 0.0
O242 O 0.0105 0.56703 0.46289 0.0
O243 O 0.90927 0.55017 0.42857 0.0
O244 O 0.9361 0.50291 0.43779 0.0
O245 O 0.98356 0.57887 0.439 0.0
O246 O 0.92928 0.5829 0.4285 0.0
C247 C 0.95962 0.59266 0.42179 0.0
O248 O 0.94647 0.54167 0.52445 0.0
O249 O 0.97238 0.49939 0.5505 0.0
C250 C 0.90333 0.57841 0.48898 0.0
C251 C 0.95074 0.52307 0.55094 0.0
Zn252 Zn 0.46169 0.92501 0.59358 0.0
Zn253 Zn 0.51 0.99838 0.51018 0.0
Zn254 Zn 0.48132 0.95938 0.55344 0.0
C255 C 0.45327 0.96963 0.4768 0.0
C256 C 0.48777 0.03907 0.56468 0.0
O257 O 0.52057 0.92316 0.57575 0.0
O258 O 0.48551 0.88128 0.58667 0.0
C259 C 0.41405 0.91891 0.54915 0.0
O260 O 0.45209 0.95229 0.50464 0.0
O261 O 0.4758 0.99221 0.47333 0.0
O262 O 0.50716 0.04001 0.53899 0.0
O263 O 0.47363 0.01101 0.57352 0.0
O264 O 0.41364 0.92539 0.58046 0.0
O265 O 0.44009 0.92814 0.53141 0.0
O266 O 0.45632 0.98654 0.59698 0.0
O267 O 0.47228 0.95041 0.63589 0.0
C268 C 0.4559 0.97683 0.62829 0.0
O269 O 0.53584 0.94444 0.55042 0.0
O270 O 0.55438 0.97423 0.50669 0.0
C271 C 0.51552 0.89227 0.58555 0.0
C272 C 0.5597 0.95209 0.52922 0.0
Zn273 Zn 0.49783 0.50529 0.49981 0.0
Zn274 Zn 0.59963 0.60964 0.60789 0.0
Zn275 Zn 0.53106 0.54237 0.53939 0.0
C276 C 0.57446 0.5325 0.59874 0.0
C277 C 0.58915 0.58879 0.52945 0.0
O278 O 0.48141 0.56656 0.54171 0.0
O279 O 0.45829 0.5377 0.49965 0.0
C280 C 0.51572 0.46459 0.55672 0.0
O281 O 0.55576 0.51339 0.58041 0.0
O282 O 0.57588 0.5638 0.59038 0.0
O283 O 0.58367 0.58675 0.56144 0.0
O284 O 0.57083 0.56977 0.51063 0.0
O285 O 0.49659 0.46476 0.53096 0.0
O286 O 0.53347 0.49116 0.56368 0.0
O287 O 0.55701 0.54555 0.48879 0.0
O288 O 0.53001 0.50613 0.45979 0.0
C289 C 0.5535 0.52793 0.46137 0.0
O290 O 0.50233 0.58442 0.56612 0.0
O291 O 0.55333 0.59347 0.58487 0.0
C292 C 0.45661 0.56148 0.52119 0.0
C293 C 0.5221 0.60232 0.58473 0.0
Zn294 Zn 0.50217 0.49956 0.99808 0.0
Zn295 Zn 0.58489 0.43415 0.93416 0.0
Zn296 Zn 0.54467 0.4631 0.96565 0.0
C297 C 0.59298 0.40346 0.99304 0.0
C298 C 0.52534 0.42126 0.90234 0.0
O299 O 0.54721 0.51713 0.94624 0.0
O300 O 0.50098 0.54069 0.9678 0.0
C301 C 0.55604 0.47959 0.04293 0.0
O302 O 0.57874 0.43206 1.00078 0.0
O303 O 0.59442 0.39438 0.9624 0.0
O304 O 0.55569 0.42711 0.89374 0.0
O305 O 0.51531 0.42847 0.93271 0.0
O306 O 0.53196 0.50059 0.03931 0.0
O307 O 0.56367 0.45933 0.01833 0.0
O308 O 0.49302 0.43934 0.95876 0.0
O309 O 0.46319 0.46714 0.99743 0.0
C310 C 0.46521 0.44342 0.97592 0.0
O311 O 0.5741 0.4981 0.93203 0.0
O312 O 0.62146 0.46835 0.93038 0.0
C313 C 0.52659 0.54262 0.94839 0.0
C314 C 0.6059 0.49557 0.92421 0.0
Zn315 Zn 0.50138 0.01136 0.00675 0.0
Zn316 Zn 0.45164 0.11377 0.95761 0.0
Zn317 Zn 0.4684 0.05728 0.97177 0.0
C318 C 0.50891 0.11974 0.92862 0.0
C319 C 0.4148 0.05988 0.92046 0.0
O320 O 0.44742 0.05572 0.02466 0.0
O321 O 0.47056 0.01028 0.04768 0.0
C322 C 0.54835 0.06159 0.98848 0.0
O323 O 0.50833 0.09041 0.94354 0.0
O324 O 0.48365 0.13909 0.93089 0.0
O325 O 0.41565 0.09072 0.92946 0.0
O326 O 0.43673 0.0389 0.9322 0.0
O327 O 0.54578 0.03734 0.00931 0.0
O328 O 0.52244 0.07077 0.97082 0.0
O329 O 0.45858 0.00979 0.94178 0.0
O330 O 0.49449 0.97686 0.9694 0.0
C331 C 0.47418 0.98111 0.94485 0.0
O332 O 0.42854 0.08318 0.00631 0.0
O333 O 0.43606 0.13792 0.99796 0.0
C334 C 0.44992 0.03478 0.04968 0.0
C335 C 0.42068 0.11442 0.0131 0.0
H336 H 0.04756 0.17564 0.35675 0.0
H337 H 0.93827 0.18381 0.36403 0.0
H338 H 0.93682 0.13469 0.40198 0.0
H339 H 0.96664 0.08841 0.43139 0.0
H340 H 0.0757 0.08011 0.42263 0.0
H341 H 0.07723 0.13037 0.38652 0.0
C342 C 0.02338 0.16689 0.36679 0.0
C343 C 0.99305 0.18336 0.35766 0.0
C344 C 0.02272 0.13851 0.38802 0.0
C345 C 0.96195 0.17151 0.37068 0.0
C346 C 0.96112 0.14346 0.39234 0.0
C347 C 0.99072 0.09782 0.42174 0.0
C348 C 0.02099 0.08043 0.42913 0.0
C349 C 0.99134 0.12664 0.40094 0.0
C350 C 0.05204 0.09267 0.41649 0.0
C351 C 0.05294 0.12152 0.39612 0.0
H352 H 0.99882 0.36488 0.32762 0.0
H353 H 0.06448 0.3107 0.39602 0.0
H354 H 0.05536 0.35422 0.43979 0.0
H355 H 0.02676 0.40653 0.45885 0.0
H356 H 0.96892 0.46494 0.38696 0.0
H357 H 0.9759 0.42048 0.34433 0.0
C358 C 0.01135 0.36293 0.35205 0.0
C359 C 0.03213 0.3349 0.35894 0.0
C360 C 0.00655 0.38824 0.37655 0.0
C361 C 0.04859 0.3324 0.39034 0.0
C362 C 0.04315 0.35706 0.41533 0.0
C363 C 0.01549 0.40941 0.43392 0.0
C364 C 0.99509 0.43785 0.42677 0.0
C365 C 0.0218 0.38487 0.40883 0.0
C366 C 0.98201 0.4419 0.39393 0.0
C367 C 0.98689 0.41695 0.36928 0.0
H368 H 0.03882 0.83627 0.15682 0.0
H369 H 0.92947 0.84343 0.15011 0.0
H370 H 0.93502 0.89337 0.11369 0.0
H371 H 0.97088 0.93471 0.08369 0.0
H372 H 0.07997 0.92696 0.08974 0.0
H373 H 0.07462 0.8777 0.12704 0.0
C374 C 0.01611 0.84867 0.14741 0.0
C375 C 0.98372 0.83597 0.15614 0.0
C376 C 0.01949 0.87739 0.12663 0.0
C377 C 0.95468 0.85257 0.1438 0.0
C378 C 0.95784 0.88113 0.12297 0.0
C379 C 0.99352 0.92223 0.09315 0.0
C380 C 0.0259 0.93488 0.08443 0.0
C381 C 0.99011 0.8937 0.1142 0.0
C382 C 0.05489 0.91845 0.09693 0.0
C383 C 0.05176 0.89001 0.11791 0.0
H384 H 0.9567 0.67468 0.14705 0.0
H385 H 0.06595 0.67773 0.1363 0.0
H386 H 0.06365 0.63123 0.09519 0.0
H387 H 0.03067 0.58813 0.06427 0.0
H388 H 0.92187 0.58411 0.07705 0.0
H389 H 0.92383 0.63265 0.11556 0.0
C390 C 0.98005 0.66541 0.13556 0.0
C391 C 0.01147 0.6797 0.14472 0.0
C392 C 0.97857 0.63838 0.1125 0.0
C393 C 0.04145 0.66714 0.12975 0.0
C394 C 0.04014 0.64057 0.10624 0.0
C395 C 0.00739 0.59817 0.07524 0.0
C396 C 0.97615 0.58242 0.06821 0.0
C397 C 0.00887 0.62581 0.09768 0.0
C398 C 0.94621 0.59539 0.08273 0.0
C399 C 0.94734 0.62326 0.10454 0.0
H400 H 0.35602 0.07059 0.17658 0.0
H401 H 0.35646 0.9615 0.18551 0.0
H402 H 0.39339 0.95717 0.13579 0.0
H403 H 0.42506 0.98396 0.08901 0.0
H404 H 0.42701 0.09274 0.0809 0.0
H405 H 0.38934 0.09761 0.13038 0.0
C406 C 0.36424 0.04586 0.16773 0.0
C407 C 0.35328 0.01642 0.18499 0.0
C408 C 0.38564 0.04346 0.13887 0.0
C409 C 0.36435 0.98464 0.17296 0.0
C410 C 0.38551 0.98209 0.1444 0.0
C411 C 0.41727 0.00876 0.09809 0.0
C412 C 0.4279 0.03799 0.08045 0.0
C413 C 0.39623 0.01128 0.12708 0.0
C414 C 0.41783 0.06987 0.09285 0.0
C415 C 0.39674 0.07262 0.12157 0.0
H416 H 0.63039 0.51363 0.18022 0.0
H417 H 0.6858 0.42235 0.156 0.0
H418 H 0.65105 0.41457 0.10485 0.0
H419 H 0.60593 0.43561 0.06583 0.0
H420 H 0.5509 0.52662 0.09286 0.0
H421 H 0.58434 0.53238 0.14398 0.0
C422 C 0.63489 0.49192 0.16385 0.0
C423 C 0.66084 0.4688 0.17177 0.0
C424 C 0.61483 0.48759 0.13484 0.0
C425 C 0.66593 0.44055 0.1505 0.0
C426 C 0.64615 0.43618 0.12118 0.0
C427 C 0.60124 0.45657 0.08291 0.0
C428 C 0.57595 0.48069 0.07504 0.0
C429 C 0.62068 0.45981 0.11285 0.0
C430 C 0.57007 0.50757 0.09791 0.0
C431 C 0.58928 0.51103 0.1273 0.0
H432 H 0.33141 0.94526 0.37312 0.0
H433 H 0.38998 0.0177 0.31545 0.0
H434 H 0.43374 0.01788 0.35924 0.0
H435 H 0.45462 0.99924 0.41445 0.0
H436 H 0.39349 0.93277 0.47621 0.0
H437 H 0.35196 0.92787 0.4304 0.0
C438 C 0.35393 0.96082 0.37009 0.0
C439 C 0.35754 0.98128 0.34087 0.0
C440 C 0.37865 0.96169 0.39611 0.0
C441 C 0.38655 1.00177 0.33762 0.0
C442 C 0.41162 1.00186 0.36267 0.0
C443 C 0.43237 0.98341 0.41803 0.0
C444 C 0.42798 0.96535 0.44873 0.0
C445 C 0.40782 0.98218 0.39214 0.0
C446 C 0.3985 0.94562 0.45261 0.0
C447 C 0.37439 0.94332 0.42646 0.0
H448 H 0.66348 0.5634 0.34823 0.0
H449 H 0.60969 0.48465 0.29511 0.0
H450 H 0.56929 0.4797 0.34245 0.0
H451 H 0.55092 0.49599 0.39992 0.0
H452 H 0.6092 0.56956 0.45583 0.0
H453 H 0.64596 0.57852 0.40669 0.0
C454 C 0.6425 0.54563 0.34689 0.0
C455 C 0.63903 0.52485 0.31807 0.0
C456 C 0.62032 0.54189 0.37485 0.0
C457 C 0.6125 0.50114 0.31694 0.0
C458 C 0.58955 0.49821 0.34404 0.0
C459 C 0.57156 0.51411 0.40142 0.0
C460 C 0.57654 0.53282 0.43155 0.0
C461 C 0.59348 0.51814 0.37334 0.0
C462 C 0.60388 0.5557 0.43289 0.0
C463 C 0.6252 0.56059 0.40475 0.0
H464 H 0.14061 0.3391 0.0624 0.0
H465 H 0.18924 0.38473 0.97525 0.0
H466 H 0.14227 0.42489 0.96996 0.0
H467 H 0.08706 0.44605 0.98885 0.0
H468 H 0.03521 0.39783 0.07259 0.0
H469 H 0.08376 0.35988 0.08068 0.0
C470 C 0.14101 0.35808 0.04248 0.0
C471 C 0.16853 0.3591 0.01937 0.0
C472 C 0.11334 0.38057 0.03898 0.0
C473 C 0.16842 0.38341 0.99334 0.0
C474 C 0.14155 0.40638 0.99029 0.0
C475 C 0.08623 0.42736 0.00902 0.0
C476 C 0.05753 0.4254 0.03059 0.0
C477 C 0.11378 0.40501 0.01277 0.0
C478 C 0.05711 0.4006 0.05621 0.0
C479 C 0.08485 0.37867 0.06064 0.0
H480 H 0.15637 0.66856 0.46399 0.0
H481 H 0.16423 0.65235 0.57221 0.0
H482 H 0.11447 0.6156 0.57081 0.0
H483 H 0.0701 0.58694 0.53897 0.0
H484 H 0.06108 0.60257 0.43101 0.0
H485 H 0.1098 0.64134 0.43218 0.0
C486 C 0.1472 0.65696 0.48727 0.0
C487 C 0.16418 0.66294 0.51815 0.0
C488 C 0.11838 0.63601 0.48632 0.0
C489 C 0.15173 0.6481 0.54814 0.0
C490 C 0.12328 0.62708 0.54735 0.0
C491 C 0.07874 0.59884 0.51561 0.0
C492 C 0.06215 0.59183 0.48483 0.0
C493 C 0.10664 0.62071 0.51659 0.0
C494 C 0.07325 0.60784 0.45497 0.0
C495 C 0.10125 0.62974 0.45568 0.0
H496 H 0.86318 0.83978 0.52446 0.0
H497 H 0.82567 0.85546 0.42293 0.0
H498 H 0.87506 0.89149 0.41 0.0
H499 H 0.92726 0.92213 0.4297 0.0
H500 H 0.96247 0.90505 0.53185 0.0
H501 H 0.91593 0.86574 0.54225 0.0
C502 C 0.86565 0.85102 0.49942 0.0
C503 C 0.84039 0.84536 0.47491 0.0
C504 C 0.89395 0.87139 0.49224 0.0
C505 C 0.84457 0.85962 0.4424 0.0
C506 C 0.87284 0.88022 0.43501 0.0
C507 C 0.92507 0.90904 0.45382 0.0
C508 C 0.94834 0.91622 0.47996 0.0
C509 C 0.89755 0.8867 0.45994 0.0
C510 C 0.94492 0.89973 0.51138 0.0
C511 C 0.91821 0.87742 0.51742 0.0
H512 H 0.33586 0.66548 0.53939 0.0
H513 H 0.31844 0.63687 0.43506 0.0
H514 H 0.36644 0.59738 0.43748 0.0
H515 H 0.41351 0.57177 0.46896 0.0
H516 H 0.43306 0.60277 0.5722 0.0
H517 H 0.38388 0.6408 0.57051 0.0
C518 C 0.34242 0.65043 0.51723 0.0
C519 C 0.32347 0.65383 0.48714 0.0
C520 C 0.37039 0.6284 0.51862 0.0
C521 C 0.33262 0.63464 0.45848 0.0
C522 C 0.36001 0.61208 0.45988 0.0
C523 C 0.4069 0.58667 0.49121 0.0
C524 C 0.42677 0.58429 0.52079 0.0
C525 C 0.37907 0.60884 0.48979 0.0
C526 C 0.41822 0.60418 0.54916 0.0
C527 C 0.39008 0.62586 0.5482 0.0
H528 H 0.57104 0.67112 0.86132 0.0
H529 H 0.46205 0.68342 0.85677 0.0
H530 H 0.45437 0.633 0.89165 0.0
H531 H 0.47814 0.58437 0.92261 0.0
H532 H 0.58666 0.57273 0.92971 0.0
H533 H 0.595 0.62318 0.89437 0.0
C534 C 0.5456 0.6629 0.86807 0.0
C535 C 0.51719 0.68133 0.85622 0.0
C536 C 0.54124 0.63354 0.88828 0.0
C537 C 0.48446 0.67002 0.86537 0.0
C538 C 0.47998 0.64102 0.88534 0.0
C539 C 0.50364 0.59289 0.91645 0.0
C540 C 0.53182 0.57396 0.92777 0.0
C541 C 0.50813 0.62245 0.89679 0.0
C542 C 0.56461 0.58573 0.91991 0.0
C543 C 0.56933 0.61499 0.90015 0.0
H544 H 0.45096 0.87251 0.8262 0.0
H545 H 0.51885 0.81551 0.89027 0.0
H546 H 0.51906 0.86153 0.93166 0.0
H547 H 0.50192 0.9182 0.94913 0.0
H548 H 0.43915 0.97917 0.8836 0.0
H549 H 0.43463 0.93153 0.8437 0.0
C550 C 0.46547 0.87012 0.84941 0.0
C551 C 0.48468 0.84032 0.85521 0.0
C552 C 0.46639 0.89746 0.87289 0.0
C553 C 0.50386 0.83798 0.88512 0.0
C554 C 0.50401 0.86435 0.90885 0.0
C555 C 0.48701 0.92132 0.92624 0.0
C556 C 0.47017 0.95238 0.92005 0.0
C557 C 0.48567 0.89429 0.90289 0.0
C558 C 0.45148 0.95549 0.88981 0.0
C559 C 0.44923 0.92824 0.86673 0.0
H560 H 0.49098 0.32918 0.63919 0.0
H561 H 0.59105 0.35223 0.67702 0.0
H562 H 0.59266 0.40378 0.64235 0.0
H563 H 0.56513 0.4426 0.60101 0.0
H564 H 0.46609 0.41727 0.56218 0.0
H565 H 0.4646 0.36661 0.59736 0.0
C566 C 0.51322 0.3454 0.63987 0.0
C567 C 0.5408 0.33674 0.66081 0.0
C568 C 0.51412 0.37478 0.61962 0.0
C569 C 0.56947 0.35809 0.66107 0.0
C570 C 0.57037 0.38769 0.64131 0.0
C571 C 0.54326 0.42611 0.60044 0.0
C572 C 0.5158 0.43402 0.57898 0.0
C573 C 0.54276 0.39639 0.62051 0.0
C574 C 0.48772 0.41193 0.57826 0.0
C575 C 0.48677 0.38287 0.59845 0.0
H576 H 0.44963 0.16469 0.65739 0.0
H577 H 0.55494 0.18821 0.63677 0.0
H578 H 0.55972 0.13835 0.60052 0.0
H579 H 0.53513 0.08663 0.57684 0.0
H580 H 0.43021 0.0622 0.59644 0.0
H581 H 0.42411 0.11359 0.63128 0.0
C582 C 0.4735 0.15911 0.64465 0.0
C583 C 0.50191 0.18022 0.64989 0.0
C584 C 0.47627 0.12996 0.62411 0.0
C585 C 0.5327 0.17243 0.63333 0.0
C586 C 0.5355 0.14385 0.61261 0.0
C587 C 0.51088 0.09265 0.58866 0.0
C588 C 0.48335 0.07029 0.585 0.0
C589 C 0.50765 0.12222 0.60823 0.0
C590 C 0.45203 0.07849 0.60006 0.0
C591 C 0.44849 0.10803 0.61959 0.0
H592 H 0.84595 0.56607 0.66431 0.0
H593 H 0.84552 0.45772 0.68024 0.0
H594 H 0.88864 0.45055 0.63633 0.0
H595 H 0.92561 0.47464 0.59236 0.0
H596 H 0.92573 0.58243 0.57534 0.0
H597 H 0.8837 0.59033 0.62067 0.0
C598 C 0.85527 0.54092 0.65815 0.0
C599 C 0.84241 0.51254 0.67547 0.0
C600 C 0.88006 0.53685 0.63269 0.0
C601 C 0.85482 0.48007 0.6672 0.0
C602 C 0.8796 0.47587 0.64215 0.0
C603 C 0.91669 0.49985 0.59894 0.0
C604 C 0.92828 0.52793 0.58049 0.0
C605 C 0.89235 0.50404 0.62471 0.0
C606 C 0.91645 0.56046 0.58889 0.0
C607 C 0.8926 0.56496 0.61487 0.0
H608 H 0.15796 0.96638 0.66485 0.0
H609 H 0.1575 0.07584 0.66196 0.0
H610 H 0.1209 0.07466 0.61211 0.0
H611 H 0.08878 0.04268 0.56946 0.0
H612 H 0.08783 0.93363 0.57271 0.0
H613 H 0.12569 0.93434 0.62211 0.0
C614 C 0.14987 0.99001 0.65336 0.0
C615 C 0.16045 0.02117 0.66723 0.0
C616 C 0.12886 0.98916 0.6246 0.0
C617 C 0.14974 0.0515 0.6519 0.0
C618 C 0.12881 0.05087 0.62335 0.0
C619 C 0.09703 0.01911 0.58101 0.0
C620 C 0.08652 0.98807 0.56712 0.0
C621 C 0.11821 0.01989 0.60955 0.0
C622 C 0.0969 0.95768 0.58229 0.0
C623 C 0.11808 0.95817 0.61075 0.0
H624 H 0.81253 0.46133 0.86063 0.0
H625 H 0.88723 0.4869 0.78464 0.0
H626 H 0.93148 0.49012 0.82829 0.0
H627 H 0.9477 0.48939 0.88891 0.0
H628 H 0.87013 0.4722 0.96465 0.0
H629 H 0.82831 0.4616 0.92067 0.0
C630 C 0.83872 0.46674 0.85373 0.0
C631 C 0.84711 0.47308 0.81976 0.0
C632 C 0.86338 0.47027 0.87903 0.0
C633 C 0.88066 0.48134 0.81082 0.0
C634 C 0.90578 0.48346 0.83574 0.0
C635 C 0.92167 0.48321 0.89566 0.0
C636 C 0.91231 0.48013 0.93001 0.0
C637 C 0.89727 0.47868 0.87006 0.0
C638 C 0.87835 0.47282 0.93842 0.0
C639 C 0.85427 0.46728 0.91327 0.0
H640 H 0.1529 0.04006 0.83067 0.0
H641 H 0.14679 0.9309 0.82631 0.0
H642 H 0.10949 0.93091 0.87631 0.0
H643 H 0.08072 0.96197 0.92291 0.0
H644 H 0.08829 0.07078 0.92739 0.0
H645 H 0.12326 0.07096 0.87585 0.0
C646 C 0.14321 0.01622 0.84039 0.0
C647 C 0.15263 0.9855 0.82467 0.0
C648 C 0.12237 0.01639 0.86942 0.0
C649 C 0.13998 0.9549 0.83788 0.0
C650 C 0.11868 0.95489 0.86651 0.0
C651 C 0.08988 0.98567 0.91235 0.0
C652 C 0.0827 0.01633 0.92921 0.0
C653 C 0.11002 0.98546 0.88271 0.0
C654 C 0.09457 0.04688 0.91543 0.0
C655 C 0.1142 0.04697 0.88578 0.0
H656 H 0.69579 0.8736 0.498 0.0
H657 H 0.68776 0.84887 0.60442 0.0
H658 H 0.63612 0.88364 0.60915 0.0
H659 H 0.59192 0.9195 0.58189 0.0
H660 H 0.60164 0.94337 0.47529 0.0
H661 H 0.65415 0.91097 0.47194 0.0
C662 C 0.68295 0.876 0.52235 0.0
C663 C 0.69552 0.85855 0.55076 0.0
C664 C 0.65347 0.89588 0.52481 0.0
C665 C 0.67872 0.86221 0.58218 0.0
C666 C 0.64908 0.88192 0.58483 0.0
C667 C 0.60539 0.91729 0.55795 0.0
C668 C 0.59247 0.93341 0.52879 0.0
C669 C 0.63592 0.89851 0.55614 0.0
C670 C 0.61089 0.93124 0.49814 0.0
C671 C 0.64094 0.91261 0.49613 0.0
H672 H 0.67687 0.1488 0.94918 0.0
H673 H 0.68961 0.14784 0.05807 0.0
H674 H 0.64013 0.11097 0.06406 0.0
H675 H 0.59126 0.08121 0.03861 0.0
H676 H 0.57899 0.08185 0.92997 0.0
H677 H 0.62997 0.11678 0.92359 0.0
C678 C 0.66903 0.14037 0.97423 0.0
C679 C 0.68698 0.15127 0.00312 0.0
C680 C 0.64034 0.11936 0.97756 0.0
C681 C 0.67632 0.13997 0.03536 0.0
C682 C 0.64795 0.11888 0.03885 0.0
C683 C 0.60002 0.0888 0.01357 0.0
C684 C 0.58094 0.07991 0.9848 0.0
C685 C 0.62951 0.10873 0.01017 0.0
C686 C 0.59257 0.08962 0.9525 0.0
C687 C 0.62192 0.10924 0.94885 0.0
H688 H 0.3447 0.34258 0.93922 0.0
H689 H 0.31532 0.36883 0.04181 0.0
H690 H 0.36445 0.40587 0.04658 0.0
H691 H 0.41617 0.43041 0.0225 0.0
H692 H 0.44631 0.40585 0.92017 0.0
H693 H 0.39707 0.36824 0.91455 0.0
C694 C 0.34896 0.35654 0.96254 0.0
C695 C 0.32612 0.3528 0.9901 0.0
C696 C 0.37771 0.37783 0.96533 0.0
C697 C 0.3323 0.37103 0.02017 0.0
C698 C 0.3605 0.39228 0.02299 0.0
C699 C 0.41202 0.41689 0.99888 0.0
C700 C 0.43544 0.42043 0.97192 0.0
C701 C 0.38342 0.39577 0.99585 0.0
C702 C 0.42946 0.40268 0.94161 0.0
C703 C 0.40097 0.38153 0.93831 0.0
H704 H 0.86086 0.16124 0.08031 0.0
H705 H 0.84602 0.15771 0.9716 0.0
H706 H 0.898 0.12549 0.96473 0.0
H707 H 0.94712 0.09709 0.98855 0.0
H708 H 0.96202 0.09522 0.09682 0.0
H709 H 0.91156 0.13138 0.10478 0.0
C710 C 0.86899 0.15333 0.05518 0.0
C711 C 0.84908 0.16198 0.02657 0.0
C712 C 0.89936 0.13423 0.05118 0.0
C713 C 0.86031 0.15146 0.9942 0.0
C714 C 0.89029 0.13304 0.99012 0.0
C715 C 0.93959 0.10483 0.01397 0.0
C716 C 0.95902 0.09426 0.04197 0.0
C717 C 0.90993 0.12422 0.01831 0.0
C718 C 0.94852 0.10421 0.07469 0.0
C719 C 0.91921 0.12436 0.07924 0.0
H720 H 0.01184 0.20168 0.19544 0.0
H721 H 0.1078 0.18086 0.2439 0.0
H722 H 0.12009 0.13693 0.20164 0.0
H723 H 0.10326 0.10445 0.15185 0.0
H724 H 0.01031 0.12889 0.09957 0.0
H725 H 0.99651 0.17115 0.14311 0.0
C726 C 0.03545 0.18748 0.19669 0.0
C727 C 0.05886 0.19421 0.22277 0.0
C728 C 0.04253 0.16278 0.17205 0.0
C729 C 0.08954 0.17613 0.22394 0.0
C730 C 0.09645 0.15096 0.19994 0.0
C731 C 0.07987 0.1189 0.14987 0.0
C732 C 0.05713 0.1127 0.12302 0.0
C733 C 0.07305 0.14405 0.17402 0.0
C734 C 0.02734 0.13211 0.12073 0.0
C735 C 0.01981 0.15663 0.14533 0.0
H736 H 0.02913 0.34222 0.21498 0.0
H737 H 0.92797 0.29999 0.20879 0.0
H738 H 0.91525 0.33677 0.16098 0.0
H739 H 0.93131 0.38251 0.12321 0.0
H740 H 0.03017 0.42868 0.13036 0.0
H741 H 0.04599 0.38796 0.17511 0.0
C742 C 0.00437 0.34104 0.20307 0.0
C743 C 0.97941 0.3186 0.2156 0.0
C744 C 0.99703 0.36261 0.1757 0.0
C745 C 0.94746 0.31727 0.19991 0.0
C746 C 0.94021 0.33815 0.17246 0.0
C747 C 0.9565 0.38335 0.13436 0.0
C748 C 0.97972 0.40811 0.12372 0.0
C749 C 0.96461 0.36106 0.1605 0.0
C750 C 0.0122 0.40935 0.13809 0.0
C751 C 0.02099 0.38637 0.16379 0.0
H752 H 0.98384 0.8263 0.30013 0.0
H753 H 0.08258 0.77877 0.30715 0.0
H754 H 0.09163 0.80584 0.36216 0.0
H755 H 0.07382 0.8463 0.40519 0.0
H756 H 0.9784 0.89949 0.3952 0.0
H757 H 0.96454 0.86494 0.34544 0.0
C758 C 0.00737 0.82183 0.31369 0.0
C759 C 0.03279 0.80095 0.29932 0.0
C760 C 0.01253 0.83779 0.34507 0.0
C761 C 0.06295 0.79522 0.31732 0.0
C762 C 0.06795 0.81038 0.34892 0.0
C763 C 0.04962 0.85001 0.39256 0.0
C764 C 0.02738 0.87584 0.40356 0.0
C765 C 0.04316 0.83208 0.36269 0.0
C766 C 0.99593 0.87979 0.38731 0.0
C767 C 0.98834 0.86048 0.35849 0.0
H768 H 0.00643 0.67451 0.29282 0.0
H769 H 0.89975 0.70061 0.29131 0.0
H770 H 0.89063 0.66723 0.34305 0.0
H771 H 0.91342 0.63178 0.38895 0.0
H772 H 0.01975 0.60495 0.38916 0.0
H773 H 0.02891 0.63894 0.3381 0.0
C774 C 0.98103 0.67283 0.30354 0.0
C775 C 0.95373 0.69 0.28804 0.0
C776 C 0.97615 0.65415 0.3334 0.0
C777 C 0.92113 0.68749 0.30253 0.0
C778 C 0.91599 0.66862 0.33224 0.0
C779 C 0.9386 0.63327 0.37786 0.0
C780 C 0.96598 0.61595 0.39304 0.0
C781 C 0.94339 0.65208 0.34798 0.0
C782 C 0.99848 0.61856 0.37848 0.0
C783 C 1.00358 0.63762 0.349 0.0
H784 H 0.22863 0.93507 0.17475 0.0
H785 H 0.17724 0.00343 0.24315 0.0
H786 H 0.12875 0.00678 0.20478 0.0
H787 H 0.10675 0.99969 0.14702 0.0
H788 H 0.16131 0.93722 0.07558 0.0
H789 H 0.2017 0.92084 0.11975 0.0
C790 C 0.20629 0.94977 0.18157 0.0
C791 C 0.20641 0.96913 0.21155 0.0
C792 C 0.17897 0.9526 0.1586 0.0
C793 C 0.17765 0.98854 0.22004 0.0
C794 C 0.14994 0.99046 0.19809 0.0
C795 C 0.12643 0.98109 0.1417 0.0
C796 C 0.13087 0.96934 0.10829 0.0
C797 C 0.15096 0.97384 0.16661 0.0
C798 C 0.15713 0.94613 0.10132 0.0
C799 C 0.18061 0.93728 0.12644 0.0
H800 H 0.76741 0.56597 0.15127 0.0
H801 H 0.82768 0.53007 0.2349 0.0
H802 H 0.87815 0.52789 0.19845 0.0
H803 H 0.9013 0.52382 0.14059 0.0
H804 H 0.83882 0.55174 0.05568 0.0
H805 H 0.79372 0.57072 0.09432 0.0
C806 C 0.79194 0.55896 0.16162 0.0
C807 C 0.79408 0.54833 0.19558 0.0
C808 C 0.82049 0.55613 0.14001 0.0
C809 C 0.82568 0.53848 0.20877 0.0
C810 C 0.85446 0.53707 0.1879 0.0
C811 C 0.87848 0.53571 0.13075 0.0
C812 C 0.87338 0.53678 0.09551 0.0
C813 C 0.85177 0.54417 0.15311 0.0
C814 C 0.84336 0.5512 0.08281 0.0
C815 C 0.81737 0.5615 0.10492 0.0
H816 H 0.18119 0.04966 0.28375 0.0
H817 H 0.24405 0.04978 0.37289 0.0
H818 H 0.19331 0.04873 0.40932 0.0
H819 H 0.13261 0.03515 0.41492 0.0
H820 H 0.07118 0.02555 0.32522 0.0
H821 H 0.11906 0.04399 0.28982 0.0
C822 C 0.18354 0.05061 0.31117 0.0
C823 C 0.21605 0.05011 0.3258 0.0
C824 C 0.15431 0.04807 0.33175 0.0
C825 C 0.21915 0.05067 0.36125 0.0
C826 C 0.19015 0.04978 0.382 0.0
C827 C 0.12932 0.03874 0.3878 0.0
C828 C 0.09838 0.02941 0.37264 0.0
C829 C 0.15771 0.04681 0.36749 0.0
C830 C 0.09463 0.0331 0.3374 0.0
C831 C 0.12218 0.04313 0.31715 0.0
H832 H 0.81476 0.45037 0.31547 0.0
H833 H 0.74882 0.52942 0.35361 0.0
H834 H 0.78946 0.54293 0.39785 0.0
H835 H 0.84621 0.53776 0.42073 0.0
H836 H 0.9134 0.45927 0.38477 0.0
H837 H 0.86989 0.43968 0.3451 0.0
C838 C 0.80907 0.46992 0.33404 0.0
C839 C 0.77913 0.48927 0.33098 0.0
C840 C 0.83303 0.4781 0.35934 0.0
C841 C 0.77195 0.51456 0.35515 0.0
C842 C 0.79518 0.52236 0.38044 0.0
C843 C 0.85143 0.51628 0.40425 0.0
C844 C 0.88372 0.50111 0.40444 0.0
C845 C 0.82629 0.50526 0.38187 0.0
C846 C 0.88939 0.47228 0.38424 0.0
C847 C 0.86432 0.461 0.36161 0.0
H848 H 0.21532 0.18517 0.94061 0.0
H849 H 0.13829 0.24934 0.98491 0.0
H850 H 0.09864 0.20178 0.98705 0.0
H851 H 0.09149 0.14028 0.98969 0.0
H852 H 0.17159 0.07485 0.95408 0.0
H853 H 0.20379 0.12394 0.9337 0.0
C854 C 0.18939 0.18885 0.94942 0.0
C855 C 0.17957 0.22052 0.96261 0.0
C856 C 0.16735 0.16085 0.95231 0.0
C857 C 0.14624 0.22507 0.97467 0.0
C858 C 0.12365 0.19785 0.97602 0.0
C859 C 0.1151 0.13681 0.9757 0.0
C860 C 0.12911 0.10419 0.97305 0.0
C861 C 0.13458 0.16529 0.96673 0.0
C862 C 0.16018 0.09981 0.95587 0.0
C863 C 0.17886 0.12795 0.94485 0.0
H864 H 0.18243 0.81042 0.51821 0.0
H865 H 0.21502 0.81088 0.41321 0.0
H866 H 0.1932 0.86863 0.40686 0.0
H867 H 0.16376 0.91778 0.43066 0.0
H868 H 0.12857 0.91611 0.53455 0.0
H869 H 0.15405 0.86012 0.54234 0.0
C870 C 0.18469 0.82298 0.49379 0.0
C871 C 0.20017 0.8062 0.4661 0.0
C872 C 0.17241 0.85612 0.49045 0.0
C873 C 0.2029 0.82303 0.43479 0.0
C874 C 0.19075 0.85615 0.43127 0.0
C875 C 0.16233 0.90566 0.45536 0.0
C876 C 0.14443 0.92134 0.48229 0.0
C877 C 0.17557 0.8729 0.45898 0.0
C878 C 0.14232 0.90477 0.5137 0.0
C879 C 0.15657 0.8726 0.51794 0.0
H880 H 0.78998 0.6844 0.51886 0.0
H881 H 0.87037 0.73102 0.57618 0.0
H882 H 0.90595 0.6802 0.568 0.0
H883 H 0.91676 0.62681 0.5361 0.0
H884 H 0.83639 0.58309 0.47637 0.0
H885 H 0.7979 0.62857 0.49384 0.0
C886 C 0.8151 0.68312 0.53012 0.0
C887 C 0.82791 0.71129 0.54767 0.0
C888 C 0.83534 0.65451 0.52454 0.0
C889 C 0.86015 0.70946 0.56258 0.0
C890 C 0.88048 0.68058 0.55763 0.0
C891 C 0.89042 0.62661 0.52816 0.0
C892 C 0.87907 0.60155 0.50544 0.0
C893 C 0.86876 0.65349 0.53754 0.0
C894 C 0.84539 0.60211 0.49405 0.0
C895 C 0.8235 0.62812 0.5039 0.0
H896 H 0.33886 0.78832 0.49916 0.0
H897 H 0.28192 0.80785 0.59121 0.0
H898 H 0.31275 0.86097 0.59913 0.0
H899 H 0.35591 0.90098 0.58043 0.0
H900 H 0.41808 0.8783 0.49254 0.0
H901 H 0.3835 0.82809 0.48112 0.0
C902 C 0.33339 0.8041 0.5211 0.0
C903 C 0.30832 0.79416 0.5447 0.0
C904 C 0.35128 0.83443 0.52553 0.0
C905 C 0.30147 0.81474 0.57301 0.0
C906 C 0.31874 0.84528 0.57728 0.0
C907 C 0.36168 0.88537 0.55842 0.0
C908 C 0.3892 0.89374 0.537 0.0
C909 C 0.34353 0.85536 0.55362 0.0
C910 C 0.39647 0.87301 0.50886 0.0
C911 C 0.37714 0.84394 0.50274 0.0
H912 H 0.52452 0.7248 0.685 0.0
H913 H 0.43419 0.67713 0.72429 0.0
H914 H 0.43518 0.63634 0.67688 0.0
H915 H 0.46645 0.61035 0.62753 0.0
H916 H 0.55612 0.66063 0.58929 0.0
H917 H 0.55029 0.70458 0.63229 0.0
C918 C 0.50476 0.70576 0.68291 0.0
C919 C 0.47961 0.70365 0.70826 0.0
C920 C 0.5054 0.68283 0.6556 0.0
C921 C 0.45387 0.67919 0.70506 0.0
C922 C 0.45455 0.65581 0.67801 0.0
C923 C 0.48392 0.63156 0.62799 0.0
C924 C 0.51173 0.6322 0.60521 0.0
C925 C 0.48073 0.65684 0.65347 0.0
C926 C 0.53457 0.65954 0.60654 0.0
C927 C 0.53141 0.68461 0.63129 0.0
H928 H 0.55768 0.78035 0.68336 0.0
H929 H 0.56197 0.86629 0.75055 0.0
H930 H 0.56221 0.90486 0.70175 0.0
H931 H 0.54755 0.91358 0.64166 0.0
H932 H 0.53608 0.82728 0.57579 0.0
H933 H 0.55377 0.78939 0.62158 0.0
C934 C 0.56011 0.80749 0.68709 0.0
C935 C 0.56016 0.82063 0.72027 0.0
C936 C 0.55873 0.82941 0.65893 0.0
C937 C 0.56242 0.85576 0.72511 0.0
C938 C 0.56226 0.87776 0.69721 0.0
C939 C 0.55077 0.88666 0.63691 0.0
C940 C 0.54078 0.87318 0.60541 0.0
C941 C 0.55863 0.8649 0.66412 0.0
C942 C 0.54408 0.83819 0.59972 0.0
C943 C 0.55361 0.81649 0.62612 0.0
H944 H 0.48013 0.35694 0.76696 0.0
H945 H 0.46886 0.26969 0.83153 0.0
H946 H 0.47483 0.30548 0.88211 0.0
H947 H 0.49527 0.35958 0.9065 0.0
H948 H 0.50918 0.44584 0.84091 0.0
H949 H 0.48946 0.41299 0.79224 0.0
C950 C 0.47751 0.34617 0.79221 0.0
C951 C 0.47376 0.31105 0.79583 0.0
C952 C 0.48195 0.36675 0.82092 0.0
C953 C 0.47117 0.29688 0.82842 0.0
C954 C 0.475 0.31728 0.85725 0.0
C955 C 0.49252 0.3714 0.88179 0.0
C956 C 0.50332 0.40501 0.87711 0.0
C957 C 0.48208 0.35198 0.85371 0.0
C958 C 0.50059 0.42005 0.84495 0.0
C959 C 0.48961 0.40121 0.81711 0.0
H960 H 0.57487 0.2171 0.82705 0.0
H961 H 0.52774 0.14632 0.75859 0.0
H962 H 0.52119 0.10529 0.80461 0.0
H963 H 0.51695 0.09534 0.86589 0.0
H964 H 0.55615 0.16942 0.93558 0.0
H965 H 0.57897 0.20264 0.88812 0.0
C966 C 0.56438 0.19217 0.82212 0.0
C967 C 0.55183 0.18458 0.7896 0.0
C968 C 0.55909 0.16935 0.84922 0.0
C969 C 0.53757 0.15256 0.78349 0.0
C970 C 0.5337 0.12918 0.80984 0.0
C971 C 0.5321 0.11782 0.87062 0.0
C972 C 0.53535 0.12975 0.90404 0.0
C973 C 0.54275 0.13798 0.8431 0.0
C974 C 0.55393 0.15952 0.91 0.0
C975 C 0.56642 0.1788 0.88281 0.0
H976 H 0.66947 0.52299 0.72407 0.0
H977 H 0.70455 0.43357 0.67172 0.0
H978 H 0.65802 0.43913 0.63056 0.0
H979 H 0.61338 0.47547 0.60475 0.0
H980 H 0.5794 0.56471 0.65838 0.0
H981 H 0.61962 0.55339 0.70389 0.0
C982 C 0.66646 0.50436 0.70399 0.0
C983 C 0.69039 0.47827 0.70039 0.0
C984 C 0.64013 0.50797 0.68057 0.0
C985 C 0.68624 0.45391 0.67476 0.0
C986 C 0.65986 0.45726 0.65117 0.0
C987 C 0.61378 0.49143 0.62715 0.0
C988 C 0.59338 0.52066 0.62853 0.0
C989 C 0.63738 0.48495 0.65313 0.0
C990 C 0.595 0.54208 0.65694 0.0
C991 C 0.618 0.53569 0.68288 0.0
H992 H 0.31996 0.02453 0.69929 0.0
H993 H 0.30295 0.91637 0.69898 0.0
H994 H 0.35903 0.90749 0.67345 0.0
H995 H 0.4121 0.9303 0.65073 0.0
H996 H 0.43029 0.03789 0.65139 0.0
H997 H 0.37429 0.04737 0.6777 0.0
C998 C 0.32838 0.99899 0.69344 0.0
C999 C 0.30711 0.9711 0.7008 0.0
C1000 C 0.36079 0.99407 0.67912 0.0
C1001 C 0.31868 0.93822 0.69348 0.0
C1002 C 0.35078 0.93314 0.679 0.0
C1003 C 0.40401 0.95587 0.65699 0.0
C1004 C 0.42498 0.98358 0.6486 0.0
C1005 C 0.37199 0.96085 0.67184 0.0
C1006 C 0.41413 0.01644 0.65665 0.0
C1007 C 0.38227 0.0217 0.6719 0.0
H1008 H 0.67511 0.55562 0.79764 0.0
H1009 H 0.76206 0.54662 0.86301 0.0
H1010 H 0.72482 0.53869 0.91224 0.0
H1011 H 0.66899 0.51996 0.93286 0.0
H1012 H 0.58205 0.5256 0.86704 0.0
H1013 H 0.61734 0.55016 0.82194 0.0
C1014 C 0.68564 0.55372 0.823 0.0
C1015 C 0.72102 0.55191 0.82707 0.0
C1016 C 0.66403 0.54783 0.85088 0.0
C1017 C 0.73479 0.54858 0.85966 0.0
C1018 C 0.71351 0.54357 0.88767 0.0
C1019 C 0.65764 0.52789 0.90907 0.0
C1020 C 0.62329 0.52076 0.9029 0.0
C1021 C 0.67827 0.54101 0.88312 0.0
C1022 C 0.60854 0.53098 0.87217 0.0
C1023 C 0.62878 0.54468 0.84633 0.0
H1024 H 0.29671 0.99861 0.83196 0.0
H1025 H 0.2874 0.10397 0.8034 0.0
H1026 H 0.3351 0.11825 0.84009 0.0
H1027 H 0.37964 0.10088 0.87904 0.0
H1028 H 0.38798 0.99636 0.91018 0.0
H1029 H 0.34077 0.98137 0.8726 0.0
C1030 C 0.30495 0.02476 0.83387 0.0
C1031 C 0.28849 0.05023 0.81493 0.0
C1032 C 0.33249 0.03276 0.85486 0.0
C1033 C 0.29952 0.08393 0.81774 0.0
C1034 C 0.32689 0.09208 0.83858 0.0
C1035 C 0.37123 0.07474 0.87765 0.0
C1036 C 0.38774 0.04957 0.89681 0.0
C1037 C 0.34362 0.06667 0.85699 0.0
C1038 C 0.37643 0.01593 0.8948 0.0
C1039 C 0.34914 0.00751 0.87374 0.0
H1040 H 0.66932 0.71307 0.46634 0.0
H1041 H 0.72738 0.69636 0.55774 0.0
H1042 H 0.69388 0.64667 0.57098 0.0
H1043 H 0.646 0.60994 0.55947 0.0
H1044 H 0.58508 0.62569 0.47028 0.0
H1045 H 0.62186 0.67305 0.45302 0.0
C1046 C 0.67466 0.69833 0.48894 0.0
C1047 C 0.70041 0.7089 0.5113 0.0
C1048 C 0.65482 0.66949 0.49685 0.0
C1049 C 0.70721 0.68938 0.54043 0.0
C1050 C 0.68819 0.66075 0.54805 0.0
C1051 C 0.64099 0.62353 0.53604 0.0
C1052 C 0.6132 0.61423 0.51603 0.0
C1053 C 0.66159 0.65096 0.52687 0.0
C1054 C 0.60685 0.63203 0.48578 0.0
C1055 C 0.62766 0.65931 0.47611 0.0
H1056 H 0.65776 0.26997 0.0412 0.0
H1057 H 0.74517 0.33465 0.05119 0.0
H1058 H 0.70918 0.38493 0.04394 0.0
H1059 H 0.65454 0.40914 0.02379 0.0
H1060 H 0.56749 0.34391 0.01408 0.0
H1061 H 0.60103 0.29548 0.03326 0.0
C1062 C 0.66862 0.29517 0.04303 0.0
C1063 C 0.70395 0.29872 0.04687 0.0
C1064 C 0.64773 0.3239 0.03874 0.0
C1065 C 0.71794 0.33139 0.04871 0.0
C1066 C 0.69738 0.36012 0.04426 0.0
C1067 C 0.64257 0.38467 0.02763 0.0
C1068 C 0.60841 0.38019 0.01803 0.0
C1069 C 0.66242 0.35662 0.03788 0.0
C1070 C 0.59349 0.34811 0.02203 0.0
C1071 C 0.61285 0.32027 0.03246 0.0
H1072 H 0.27872 0.17666 0.02296 0.0
H1073 H 0.33382 0.25122 0.08056 0.0
H1074 H 0.38271 0.2129 0.08425 0.0
H1075 H 0.41308 0.16362 0.06031 0.0
H1076 H 0.35775 0.08836 0.0039 0.0
H1077 H 0.30512 0.12062 0.01173 0.0
C1078 C 0.30105 0.1839 0.03731 0.0
C1079 C 0.30305 0.21665 0.05123 0.0
C1080 C 0.32893 0.16162 0.03945 0.0
C1081 C 0.33188 0.22602 0.06979 0.0
C1082 C 0.35986 0.2042 0.07171 0.0
C1083 C 0.38913 0.15353 0.05123 0.0
C1084 C 0.38921 0.12392 0.03129 0.0
C1085 C 0.3592 0.17262 0.05524 0.0
C1086 C 0.3582 0.11097 0.01955 0.0
C1087 C 0.32822 0.12977 0.02349 0.0
H1088 H 0.78475 0.32841 0.96275 0.0
H1089 H 0.86598 0.25533 0.95941 0.0
H1090 H 0.90806 0.30072 0.96404 0.0
H1091 H 0.92003 0.35887 0.98318 0.0
H1092 H 0.83782 0.43034 0.99301 0.0
H1093 H 0.79791 0.38872 0.97071 0.0
C1094 C 0.81174 0.32279 0.96128 0.0
C1095 C 0.82254 0.28894 0.96034 0.0
C1096 C 0.83556 0.34888 0.96564 0.0
C1097 C 0.85738 0.28144 0.95952 0.0
C1098 C 0.88135 0.30734 0.96263 0.0
C1099 C 0.89366 0.36563 0.9788 0.0
C1100 C 0.88189 0.39771 0.98878 0.0
C1101 C 0.8706 0.34089 0.96773 0.0
C1102 C 0.84756 0.40616 0.98425 0.0
C1103 C 0.82463 0.38212 0.97209 0.0
loop_
_geom_bond_atom_site_label_1
_geom_bond_atom_site_label_2
_geom_bond_distance
_geom_bond_site_symmetry_2
_ccdc_geom_bond_type
C0 O2 1.247 . S
C0 O4 1.258 1_455 S
C1 O8 1.247 . S
C1 O9 1.258 1_655 S
O2 C0 1.247 . S
O2 Zn3 2.028 . S
Zn3 O2 2.028 . S
Zn3 O7 2.035 . S
Zn3 O9 2.035 . S
Zn3 O10 2.028 . S
O4 C0 1.258 1_655 S
O4 Zn5 2.035 . S
Zn5 O4 2.035 . S
Zn5 O6 2.028 . S
Zn5 O8 2.028 . S
Zn5 O11 2.035 . S
O6 Zn5 2.028 . S
O6 C12 1.247 . S
O7 Zn3 2.035 . S
O7 C12 1.258 1_455 S
O8 C1 1.247 . S
O8 Zn5 2.028 . S
O9 C1 1.258 1_455 S
O9 Zn3 2.035 . S
O10 Zn3 2.028 . S
O10 C13 1.247 . S
O11 Zn5 2.035 . S
O11 C13 1.258 1_655 S
C12 O6 1.247 . S
C12 O7 1.258 1_655 S
C13 O10 1.247 . S
C13 O11 1.258 1_455 S
C14 O16 1.247 . S
C14 O18 1.258 1_455 S
C15 O22 1.247 . S
C15 O23 1.258 1_655 S
O16 C14 1.247 . S
O16 Zn17 2.028 . S
Zn17 O16 2.028 . S
Zn17 O21 2.035 . S
Zn17 O23 2.035 . S
Zn17 O24 2.028 . S
O18 C14 1.258 1_655 S
O18 Zn19 2.035 . S
Zn19 O18 2.035 . S
Zn19 O20 2.028 . S
Zn19 O22 2.028 . S
Zn19 O25 2.035 . S
O20 Zn19 2.028 . S
O20 C26 1.247 . S
O21 Zn17 2.035 . S
O21 C26 1.258 1_455 S
O22 C15 1.247 . S
O22 Zn19 2.028 . S
O23 C15 1.258 1_455 S
O23 Zn17 2.035 . S
O24 Zn17 2.028 . S
O24 C27 1.247 . S
O25 Zn19 2.035 . S
O25 C27 1.258 1_655 S
C26 O20 1.247 . S
C26 O21 1.258 1_655 S
C27 O24 1.247 . S
C27 O25 1.258 1_455 S
C28 O30 1.247 1_545 S
C28 O32 1.258 . S
C29 O36 1.247 1_565 S
C29 O37 1.258 . S
O30 C28 1.247 1_565 S
O30 Zn31 2.028 . S
Zn31 O30 2.028 . S
Zn31 O35 2.035 . S
Zn31 O37 2.035 . S
Zn31 O38 2.028 . S
O32 C28 1.258 . S
O32 Zn33 2.035 . S
Zn33 O32 2.035 . S
Zn33 O34 2.028 . S
Zn33 O36 2.028 . S
Zn33 O39 2.035 . S
O34 Zn33 2.028 . S
O34 C40 1.247 1_545 S
O35 Zn31 2.035 . S
O35 C40 1.258 . S
O36 C29 1.247 1_545 S
O36 Zn33 2.028 . S
O37 C29 1.258 . S
O37 Zn31 2.035 . S
O38 Zn31 2.028 . S
O38 C41 1.247 1_565 S
O39 Zn33 2.035 . S
O39 C41 1.258 . S
C40 O34 1.247 1_565 S
C40 O35 1.258 . S
C41 O38 1.247 1_545 S
C41 O39 1.258 . S
C42 O44 1.247 . S
C42 O46 1.258 . S
C43 O50 1.247 . S
C43 O51 1.258 . S
O44 C42 1.247 . S
O44 Zn45 2.028 . S
Zn45 O44 2.028 . S
Zn45 O49 2.035 . S
Zn45 O51 2.035 . S
Zn45 O52 2.028 . S
O46 C42 1.258 . S
O46 Zn47 2.035 . S
Zn47 O46 2.035 . S
Zn47 O48 2.028 . S
Zn47 O50 2.028 . S
Zn47 O53 2.035 . S
O48 Zn47 2.028 . S
O48 C54 1.247 . S
O49 Zn45 2.035 . S
O49 C54 1.258 . S
O50 C43 1.247 . S
O50 Zn47 2.028 . S
O51 C43 1.258 . S
O51 Zn45 2.035 . S
O52 Zn45 2.028 . S
O52 C55 1.247 . S
O53 Zn47 2.035 . S
O53 C55 1.258 . S
C54 O48 1.247 . S
C54 O49 1.258 . S
C55 O52 1.247 . S
C55 O53 1.258 . S
C56 O58 1.247 1_554 S
C56 O60 1.258 . S
C57 O64 1.247 1_556 S
C57 O65 1.258 . S
O58 C56 1.247 1_556 S
O58 Zn59 2.028 . S
Zn59 O58 2.028 . S
Zn59 O63 2.035 . S
Zn59 O65 2.035 . S
Zn59 O66 2.028 . S
O60 C56 1.258 . S
O60 Zn61 2.035 . S
Zn61 O60 2.035 . S
Zn61 O62 2.028 . S
Zn61 O64 2.028 . S
Zn61 O67 2.035 . S
O62 Zn61 2.028 . S
O62 C68 1.247 1_554 S
O63 Zn59 2.035 . S
O63 C68 1.258 . S
O64 C57 1.247 1_554 S
O64 Zn61 2.028 . S
O65 C57 1.258 . S
O65 Zn59 2.035 . S
O66 Zn59 2.028 . S
O66 C69 1.247 1_556 S
O67 Zn61 2.035 . S
O67 C69 1.258 . S
C68 O62 1.247 1_556 S
C68 O63 1.258 . S
C69 O66 1.247 1_554 S
C69 O67 1.258 . S
C70 O72 1.247 . S
C70 O74 1.258 . S
C71 O78 1.247 . S
C71 O79 1.258 . S
O72 C70 1.247 . S
O72 Zn73 2.028 . S
Zn73 O72 2.028 . S
Zn73 O77 2.035 . S
Zn73 O79 2.035 . S
Zn73 O80 2.028 . S
O74 C70 1.258 . S
O74 Zn75 2.035 . S
Zn75 O74 2.035 . S
Zn75 O76 2.028 . S
Zn75 O78 2.028 . S
Zn75 O81 2.035 . S
O76 Zn75 2.028 . S
O76 C82 1.247 . S
O77 Zn73 2.035 . S
O77 C82 1.258 . S
O78 C71 1.247 . S
O78 Zn75 2.028 . S
O79 C71 1.258 . S
O79 Zn73 2.035 . S
O80 Zn73 2.028 . S
O80 C83 1.247 . S
O81 Zn75 2.035 . S
O81 C83 1.258 . S
C82 O76 1.247 . S
C82 O77 1.258 . S
C83 O80 1.247 . S
C83 O81 1.258 . S
C84 O86 1.247 . S
C84 O88 1.258 . S
C85 O92 1.247 . S
C85 O93 1.258 . S
O86 C84 1.247 . S
O86 Zn87 2.028 . S
Zn87 O86 2.028 . S
Zn87 O91 2.035 . S
Zn87 O93 2.035 . S
Zn87 O94 2.028 . S
O88 C84 1.258 . S
O88 Zn89 2.035 . S
Zn89 O88 2.035 . S
Zn89 O90 2.028 . S
Zn89 O92 2.028 . S
Zn89 O95 2.035 . S
O90 Zn89 2.028 . S
O90 C96 1.247 . S
O91 Zn87 2.035 . S
O91 C96 1.258 . S
O92 C85 1.247 . S
O92 Zn89 2.028 . S
O93 C85 1.258 . S
O93 Zn87 2.035 . S
O94 Zn87 2.028 . S
O94 C97 1.247 . S
O95 Zn89 2.035 . S
O95 C97 1.258 . S
C96 O90 1.247 . S
C96 O91 1.258 . S
C97 O94 1.247 . S
C97 O95 1.258 . S
C98 O100 1.247 . S
C98 O102 1.258 . S
C99 O106 1.247 . S
C99 O107 1.258 . S
O100 C98 1.247 . S
O100 Zn101 2.028 . S
Zn101 O100 2.028 . S
Zn101 O105 2.035 . S
Zn101 O107 2.035 . S
Zn101 O108 2.028 . S
O102 C98 1.258 . S
O102 Zn103 2.035 . S
Zn103 O102 2.035 . S
Zn103 O104 2.028 . S
Zn103 O106 2.028 . S
Zn103 O109 2.035 . S
O104 Zn103 2.028 . S
O104 C110 1.247 . S
O105 Zn101 2.035 . S
O105 C110 1.258 . S
O106 C99 1.247 . S
O106 Zn103 2.028 . S
O107 C99 1.258 . S
O107 Zn101 2.035 . S
O108 Zn101 2.028 . S
O108 C111 1.247 . S
O109 Zn103 2.035 . S
O109 C111 1.258 . S
C110 O104 1.247 . S
C110 O105 1.258 . S
C111 O108 1.247 . S
C111 O109 1.258 . S
C112 O114 1.247 . S
C112 O116 1.258 . S
C113 O120 1.247 . S
C113 O121 1.258 . S
O114 C112 1.247 . S
O114 Zn115 2.028 . S
Zn115 O114 2.028 . S
Zn115 O119 2.035 . S
Zn115 O121 2.035 . S
Zn115 O122 2.028 . S
O116 C112 1.258 . S
O116 Zn117 2.035 . S
Zn117 O116 2.035 . S
Zn117 O118 2.028 . S
Zn117 O120 2.028 . S
Zn117 O123 2.035 . S
O118 Zn117 2.028 . S
O118 C124 1.247 . S
O119 Zn115 2.035 . S
O119 C124 1.258 . S
O120 C113 1.247 . S
O120 Zn117 2.028 . S
O121 C113 1.258 . S
O121 Zn115 2.035 . S
O122 Zn115 2.028 . S
O122 C125 1.247 . S
O123 Zn117 2.035 . S
O123 C125 1.258 . S
C124 O118 1.247 . S
C124 O119 1.258 . S
C125 O122 1.247 . S
C125 O123 1.258 . S
C126 O128 1.247 . S
C126 O130 1.258 . S
C127 O134 1.247 . S
C127 O135 1.258 . S
O128 C126 1.247 . S
O128 Zn129 2.028 . S
Zn129 O128 2.028 . S
Zn129 O133 2.035 . S
Zn129 O135 2.035 . S
Zn129 O136 2.028 . S
O130 C126 1.258 . S
O130 Zn131 2.035 . S
Zn131 O130 2.035 . S
Zn131 O132 2.028 . S
Zn131 O134 2.028 . S
Zn131 O137 2.035 . S
O132 Zn131 2.028 . S
O132 C138 1.247 . S
O133 Zn129 2.035 . S
O133 C138 1.258 . S
O134 C127 1.247 . S
O134 Zn131 2.028 . S
O135 C127 1.258 . S
O135 Zn129 2.035 . S
O136 Zn129 2.028 . S
O136 C139 1.247 . S
O137 Zn131 2.035 . S
O137 C139 1.258 . S
C138 O132 1.247 . S
C138 O133 1.258 . S
C139 O136 1.247 . S
C139 O137 1.258 . S
C140 O142 1.247 . S
C140 O144 1.258 1_565 S
C141 O148 1.247 . S
C141 O149 1.258 1_545 S
O142 C140 1.247 . S
O142 Zn143 2.028 . S
Zn143 O142 2.028 . S
Zn143 O147 2.035 . S
Zn143 O149 2.035 . S
Zn143 O150 2.028 . S
O144 C140 1.258 1_545 S
O144 Zn145 2.035 . S
Zn145 O144 2.035 . S
Zn145 O146 2.028 . S
Zn145 O148 2.028 . S
Zn145 O151 2.035 . S
O146 Zn145 2.028 . S
O146 C152 1.247 . S
O147 Zn143 2.035 . S
O147 C152 1.258 1_565 S
O148 C141 1.247 . S
O148 Zn145 2.028 . S
O149 C141 1.258 1_565 S
O149 Zn143 2.035 . S
O150 Zn143 2.028 . S
O150 C153 1.247 . S
O151 Zn145 2.035 . S
O151 C153 1.258 1_545 S
C152 O146 1.247 . S
C152 O147 1.258 1_545 S
C153 O150 1.247 . S
C153 O151 1.258 1_565 S
C154 O156 1.247 1_556 S
C154 O158 1.258 . S
C155 O162 1.247 1_554 S
C155 O163 1.258 . S
O156 C154 1.247 1_554 S
O156 Zn157 2.028 . S
Zn157 O156 2.028 . S
Zn157 O161 2.035 . S
Zn157 O163 2.035 . S
Zn157 O164 2.028 . S
O158 C154 1.258 . S
O158 Zn159 2.035 . S
Zn159 O158 2.035 . S
Zn159 O160 2.028 . S
Zn159 O162 2.028 . S
Zn159 O165 2.035 . S
O160 Zn159 2.028 . S
O160 C166 1.247 1_556 S
O161 Zn157 2.035 . S
O161 C166 1.258 . S
O162 C155 1.247 1_556 S
O162 Zn159 2.028 . S
O163 C155 1.258 . S
O163 Zn157 2.035 . S
O164 Zn157 2.028 . S
O164 C167 1.247 1_554 S
O165 Zn159 2.035 . S
O165 C167 1.258 . S
C166 O160 1.247 1_554 S
C166 O161 1.258 . S
C167 O164 1.247 1_556 S
C167 O165 1.258 . S
Zn168 O174 1.920 . S
Zn168 O180 1.898 . S
Zn168 O183 1.905 . S
Zn169 O177 1.923 1_655 S
Zn169 O178 1.877 1_646 S
Zn169 O186 1.918 1_556 S
Zn170 O173 2.080 . S
Zn170 O176 2.114 . S
Zn170 O179 2.120 . S
Zn170 O181 2.120 . S
Zn170 O182 2.114 . S
Zn170 O185 2.080 . S
C171 O176 1.166 1_556 S
C171 O177 1.182 . S
C172 O178 1.167 . S
C172 O179 1.299 1_565 S
O173 Zn170 2.080 . S
O173 C187 1.305 . S
O174 Zn168 1.920 . S
O174 C187 1.234 . S
C175 O180 1.167 . S
C175 O181 1.299 . S
O176 Zn170 2.114 . S
O176 C171 1.166 1_554 S
O177 Zn169 1.923 1_455 S
O177 C171 1.182 . S
O178 Zn169 1.877 1_464 S
O178 C172 1.167 . S
O179 Zn170 2.120 . S
O179 C172 1.299 1_545 S
O180 Zn168 1.898 . S
O180 C175 1.167 . S
O181 Zn170 2.120 . S
O181 C175 1.299 . S
O182 Zn170 2.114 . S
O182 C184 1.166 . S
O183 Zn168 1.905 . S
O183 C184 1.182 . S
C184 O182 1.166 . S
C184 O183 1.182 . S
O185 Zn170 2.080 . S
O185 C188 1.305 1_455 S
O186 Zn169 1.918 1_554 S
O186 C188 1.234 . S
C187 O173 1.305 . S
C187 O174 1.234 . S
C188 O185 1.305 1_655 S
C188 O186 1.234 . S
Zn189 O195 1.916 1_556 S
Zn189 O201 1.888 1_456 S
Zn189 O204 1.915 1_455 S
Zn190 O198 1.905 . S
Zn190 O199 1.898 . S
Zn190 O207 1.920 . S
Zn191 O194 2.080 . S
Zn191 O197 2.114 . S
Zn191 O200 2.120 . S
Zn191 O202 2.120 . S
Zn191 O203 2.114 . S
Zn191 O206 2.080 . S
C192 O197 1.166 . S
C192 O198 1.182 . S
C193 O199 1.167 . S
C193 O200 1.299 . S
O194 Zn191 2.080 . S
O194 C208 1.305 1_655 S
O195 Zn189 1.916 1_554 S
O195 C208 1.234 . S
C196 O201 1.167 . S
C196 O202 1.299 . S
O197 Zn191 2.114 . S
O197 C192 1.166 . S
O198 Zn190 1.905 . S
O198 C192 1.182 . S
O199 Zn190 1.898 . S
O199 C193 1.167 . S
O200 Zn191 2.120 . S
O200 C193 1.299 . S
O201 Zn189 1.888 1_654 S
O201 C196 1.167 . S
O202 Zn191 2.120 . S
O202 C196 1.299 . S
O203 Zn191 2.114 . S
O203 C205 1.166 1_554 S
O204 Zn189 1.915 1_655 S
O204 C205 1.182 . S
C205 O203 1.166 1_556 S
C205 O204 1.182 . S
O206 Zn191 2.080 . S
O206 C209 1.305 . S
O207 Zn190 1.920 . S
O207 C209 1.234 . S
C208 O194 1.305 1_455 S
C208 O195 1.234 . S
C209 O206 1.305 . S
C209 O207 1.234 . S
Zn210 O216 1.920 1_655 S
Zn210 O222 1.898 1_645 S
Zn210 O225 1.905 1_545 S
Zn211 O219 1.905 . S
Zn211 O220 1.898 . S
Zn211 O228 1.920 . S
Zn212 O215 2.080 . S
Zn212 O218 2.114 . S
Zn212 O221 2.120 . S
Zn212 O223 2.120 . S
Zn212 O224 2.114 . S
Zn212 O227 2.080 . S
C213 O218 1.166 . S
C213 O219 1.182 . S
C214 O220 1.167 . S
C214 O221 1.299 . S
O215 Zn212 2.080 . S
O215 C229 1.305 1_565 S
O216 Zn210 1.920 1_455 S
O216 C229 1.234 . S
C217 O222 1.167 . S
C217 O223 1.299 . S
O218 Zn212 2.114 . S
O218 C213 1.166 . S
O219 Zn211 1.905 . S
O219 C213 1.182 . S
O220 Zn211 1.898 . S
O220 C214 1.167 . S
O221 Zn212 2.120 . S
O221 C214 1.299 . S
O222 Zn210 1.898 1_465 S
O222 C217 1.167 . S
O223 Zn212 2.120 . S
O223 C217 1.299 . S
O224 Zn212 2.114 . S
O224 C226 1.166 1_455 S
O225 Zn210 1.905 1_565 S
O225 C226 1.182 . S
C226 O224 1.166 1_655 S
C226 O225 1.182 . S
O227 Zn212 2.080 . S
O227 C230 1.305 . S
O228 Zn211 1.920 . S
O228 C230 1.234 . S
C229 O215 1.305 1_545 S
C229 O216 1.234 . S
C230 O227 1.305 . S
C230 O228 1.234 . S
Zn231 O237 1.920 . S
Zn231 O243 1.898 . S
Zn231 O246 1.905 . S
Zn232 O240 1.905 1_455 S
Zn232 O241 1.898 . S
Zn232 O249 1.920 1_455 S
Zn233 O236 2.080 . S
Zn233 O239 2.114 . S
Zn233 O242 2.120 . S
Zn233 O244 2.120 . S
Zn233 O245 2.114 . S
Zn233 O248 2.080 . S
C234 O239 1.166 . S
C234 O240 1.182 . S
C235 O241 1.167 . S
C235 O242 1.299 1_455 S
O236 Zn233 2.080 . S
O236 C250 1.305 . S
O237 Zn231 1.920 . S
O237 C250 1.234 . S
C238 O243 1.167 . S
C238 O244 1.299 . S
O239 Zn233 2.114 . S
O239 C234 1.166 . S
O240 Zn232 1.905 1_655 S
O240 C234 1.182 . S
O241 Zn232 1.898 . S
O241 C235 1.167 . S
O242 Zn233 2.120 . S
O242 C235 1.299 1_655 S
O243 Zn231 1.898 . S
O243 C238 1.167 . S
O244 Zn233 2.120 . S
O244 C238 1.299 . S
O245 Zn233 2.114 . S
O245 C247 1.166 . S
O246 Zn231 1.905 . S
O246 C247 1.182 . S
C247 O245 1.166 . S
C247 O246 1.182 . S
O248 Zn233 2.080 . S
O248 C251 1.305 . S
O249 Zn232 1.920 1_655 S
O249 C251 1.234 . S
C250 O236 1.305 . S
C250 O237 1.234 . S
C251 O248 1.305 . S
C251 O249 1.234 . S
Zn252 O258 1.920 . S
Zn252 O264 1.898 . S
Zn252 O267 1.905 . S
Zn253 O261 1.905 1_545 S
Zn253 O262 1.898 . S
Zn253 O270 1.920 1_545 S
Zn254 O257 2.080 . S
Zn254 O260 2.114 . S
Zn254 O263 2.120 . S
Zn254 O265 2.120 . S
Zn254 O266 2.114 . S
Zn254 O269 2.080 . S
C255 O260 1.166 . S
C255 O261 1.182 . S
C256 O262 1.167 . S
C256 O263 1.299 1_545 S
O257 Zn254 2.080 . S
O257 C271 1.305 . S
O258 Zn252 1.920 . S
O258 C271 1.234 . S
C259 O264 1.167 . S
C259 O265 1.299 . S
O260 Zn254 2.114 . S
O260 C255 1.166 . S
O261 Zn253 1.905 1_565 S
O261 C255 1.182 . S
O262 Zn253 1.898 . S
O262 C256 1.167 . S
O263 Zn254 2.120 . S
O263 C256 1.299 1_565 S
O264 Zn252 1.898 . S
O264 C259 1.167 . S
O265 Zn254 2.120 . S
O265 C259 1.299 . S
O266 Zn254 2.114 . S
O266 C268 1.166 . S
O267 Zn252 1.905 . S
O267 C268 1.182 . S
C268 O266 1.166 . S
C268 O267 1.182 . S
O269 Zn254 2.080 . S
O269 C272 1.305 . S
O270 Zn253 1.920 1_565 S
O270 C272 1.234 . S
C271 O257 1.305 . S
C271 O258 1.234 . S
C272 O269 1.305 . S
C272 O270 1.234 . S
Zn273 O279 1.920 . S
Zn273 O285 1.898 . S
Zn273 O288 1.905 . S
Zn274 O282 1.905 . S
Zn274 O283 1.898 . S
Zn274 O291 1.920 . S
Zn275 O278 2.080 . S
Zn275 O281 2.114 . S
Zn275 O284 2.120 . S
Zn275 O286 2.120 . S
Zn275 O287 2.114 . S
Zn275 O290 2.080 . S
C276 O281 1.166 . S
C276 O282 1.182 . S
C277 O283 1.167 . S
C277 O284 1.299 . S
O278 Zn275 2.080 . S
O278 C292 1.305 . S
O279 Zn273 1.920 . S
O279 C292 1.234 . S
C280 O285 1.167 . S
C280 O286 1.299 . S
O281 Zn275 2.114 . S
O281 C276 1.166 . S
O282 Zn274 1.905 . S
O282 C276 1.182 . S
O283 Zn274 1.898 . S
O283 C277 1.167 . S
O284 Zn275 2.120 . S
O284 C277 1.299 . S
O285 Zn273 1.898 . S
O285 C280 1.167 . S
O286 Zn275 2.120 . S
O286 C280 1.299 . S
O287 Zn275 2.114 . S
O287 C289 1.166 . S
O288 Zn273 1.905 . S
O288 C289 1.182 . S
C289 O287 1.166 . S
C289 O288 1.182 . S
O290 Zn275 2.080 . S
O290 C293 1.305 . S
O291 Zn274 1.920 . S
O291 C293 1.234 . S
C292 O278 1.305 . S
C292 O279 1.234 . S
C293 O290 1.305 . S
C293 O291 1.234 . S
Zn294 O300 1.920 1_554 S
Zn294 O306 1.898 . S
Zn294 O309 1.905 1_554 S
Zn295 O303 1.905 . S
Zn295 O304 1.898 . S
Zn295 O312 1.920 . S
Zn296 O299 2.080 . S
Zn296 O302 2.114 . S
Zn296 O305 2.120 . S
Zn296 O307 2.120 . S
Zn296 O308 2.114 . S
Zn296 O311 2.080 . S
C297 O302 1.166 . S
C297 O303 1.182 . S
C298 O304 1.167 . S
C298 O305 1.299 . S
O299 Zn296 2.080 . S
O299 C313 1.305 . S
O300 Zn294 1.920 1_556 S
O300 C313 1.234 . S
C301 O306 1.167 . S
C301 O307 1.299 1_554 S
O302 Zn296 2.114 . S
O302 C297 1.166 . S
O303 Zn295 1.905 . S
O303 C297 1.182 . S
O304 Zn295 1.898 . S
O304 C298 1.167 . S
O305 Zn296 2.120 . S
O305 C298 1.299 . S
O306 Zn294 1.898 . S
O306 C301 1.167 . S
O307 Zn296 2.120 . S
O307 C301 1.299 1_556 S
O308 Zn296 2.114 . S
O308 C310 1.166 . S
O309 Zn294 1.905 1_556 S
O309 C310 1.182 . S
C310 O308 1.166 . S
C310 O309 1.182 . S
O311 Zn296 2.080 . S
O311 C314 1.305 . S
O312 Zn295 1.920 . S
O312 C314 1.234 . S
C313 O299 1.305 . S
C313 O300 1.234 . S
C314 O311 1.305 . S
C314 O312 1.234 . S
Zn315 O321 1.921 1_565 S
Zn315 O327 1.901 1_564 S
Zn315 O330 1.903 1_554 S
Zn316 O324 1.905 . S
Zn316 O325 1.898 . S
Zn316 O333 1.920 . S
Zn317 O320 2.080 . S
Zn317 O323 2.114 . S
Zn317 O326 2.120 . S
Zn317 O328 2.120 . S
Zn317 O329 2.114 . S
Zn317 O332 2.080 . S
C318 O323 1.166 . S
C318 O324 1.182 . S
C319 O325 1.167 . S
C319 O326 1.299 . S
O320 Zn317 2.080 . S
O320 C334 1.305 1_556 S
O321 Zn315 1.921 1_545 S
O321 C334 1.234 . S
C322 O327 1.167 . S
C322 O328 1.299 . S
O323 Zn317 2.114 . S
O323 C318 1.166 . S
O324 Zn316 1.905 . S
O324 C318 1.182 . S
O325 Zn316 1.898 . S
O325 C319 1.167 . S
O326 Zn317 2.120 . S
O326 C319 1.299 . S
O327 Zn315 1.901 1_546 S
O327 C322 1.167 . S
O328 Zn317 2.120 . S
O328 C322 1.299 . S
O329 Zn317 2.114 . S
O329 C331 1.166 1_545 S
O330 Zn315 1.903 1_556 S
O330 C331 1.182 . S
C331 O329 1.166 1_565 S
C331 O330 1.182 . S
O332 Zn317 2.080 . S
O332 C335 1.305 . S
O333 Zn316 1.920 . S
O333 C335 1.234 . S
C334 O320 1.305 1_554 S
C334 O321 1.234 . S
C335 O332 1.305 . S
C335 O333 1.234 . S
H336 C342 0.930 . S
H337 C345 0.930 . S
H338 C346 0.930 . S
H339 C347 0.930 . S
H340 C350 0.930 . S
H341 C351 0.930 . S
C342 H336 0.930 . S
C342 C343 1.355 . S
C342 C344 1.415 . S
C343 C342 1.355 . S
C343 C345 1.419 . S
C344 C342 1.415 . S
C344 C349 1.425 . S
C344 C351 1.409 . S
C345 H337 0.930 . S
C345 C343 1.419 . S
C345 C346 1.362 . S
C346 H338 0.930 . S
C346 C345 1.362 . S
C346 C349 1.409 . S
C347 H339 0.930 . S
C347 C348 1.355 . S
C347 C349 1.415 . S
C348 C347 1.355 . S
C348 C350 1.419 . S
C349 C344 1.425 . S
C349 C346 1.409 . S
C349 C347 1.415 . S
C350 H340 0.930 . S
C350 C348 1.419 . S
C350 C351 1.362 . S
C351 H341 0.930 . S
C351 C344 1.409 . S
C351 C350 1.362 . S
H352 C358 0.930 . S
H353 C361 0.930 . S
H354 C362 0.930 . S
H355 C363 0.930 . S
H356 C366 0.930 . S
H357 C367 0.930 . S
C358 H352 0.930 . S
C358 C359 1.355 1_455 S
C358 C360 1.415 1_455 S
C359 C358 1.355 1_655 S
C359 C361 1.419 . S
C360 C358 1.415 1_655 S
C360 C365 1.425 . S
C360 C367 1.409 1_655 S
C361 H353 0.930 . S
C361 C359 1.419 . S
C361 C362 1.362 . S
C362 H354 0.930 . S
C362 C361 1.362 . S
C362 C365 1.409 . S
C363 H355 0.930 . S
C363 C364 1.355 . S
C363 C365 1.415 . S
C364 C363 1.355 . S
C364 C366 1.419 1_655 S
C365 C360 1.425 . S
C365 C362 1.409 . S
C365 C363 1.415 . S
C366 H356 0.930 . S
C366 C364 1.419 1_455 S
C366 C367 1.362 . S
C367 H357 0.930 . S
C367 C360 1.409 1_455 S
C367 C366 1.362 . S
H368 C374 0.930 . S
H369 C377 0.930 . S
H370 C378 0.930 . S
H371 C379 0.915 1_655 S
H372 C382 0.930 . S
H373 C383 0.930 . S
C374 H368 0.930 . S
C374 C375 1.355 . S
C374 C376 1.415 . S
C375 C374 1.355 . S
C375 C377 1.419 1_455 S
C376 C374 1.415 . S
C376 C381 1.425 . S
C376 C383 1.409 . S
C377 H369 0.930 . S
C377 C375 1.419 1_655 S
C377 C378 1.362 . S
C378 H370 0.930 . S
C378 C377 1.362 . S
C378 C381 1.409 1_655 S
C379 H371 0.915 1_455 S
C379 C380 1.367 . S
C379 C381 1.416 . S
C380 C379 1.367 . S
C380 C382 1.419 . S
C381 C376 1.425 . S
C381 C378 1.409 1_455 S
C381 C379 1.416 . S
C382 H372 0.930 . S
C382 C380 1.419 . S
C382 C383 1.362 . S
C383 H373 0.930 . S
C383 C376 1.409 . S
C383 C382 1.362 . S
H384 C390 0.930 . S
H385 C393 0.930 . S
H386 C394 0.930 . S
H387 C395 0.930 . S
H388 C398 0.930 . S
H389 C399 0.930 . S
C390 H384 0.930 . S
C390 C391 1.355 . S
C390 C392 1.415 . S
C391 C390 1.355 . S
C391 C393 1.419 . S
C392 C390 1.415 . S
C392 C397 1.425 . S
C392 C399 1.409 . S
C393 H385 0.930 . S
C393 C391 1.419 . S
C393 C394 1.362 . S
C394 H386 0.930 . S
C394 C393 1.362 . S
C394 C397 1.409 . S
C395 H387 0.930 . S
C395 C396 1.355 . S
C395 C397 1.415 . S
C396 C395 1.355 . S
C396 C398 1.419 . S
C397 C392 1.425 . S
C397 C394 1.409 . S
C397 C395 1.415 . S
C398 H388 0.930 . S
C398 C396 1.419 . S
C398 C399 1.362 . S
C399 H389 0.930 . S
C399 C392 1.409 . S
C399 C398 1.362 . S
H400 C406 0.930 . S
H401 C409 0.930 1_565 S
H402 C410 0.930 1_565 S
H403 C411 0.930 . S
H404 C414 0.930 . S
H405 C415 0.930 . S
C406 H400 0.930 . S
C406 C407 1.355 . S
C406 C408 1.415 . S
C407 C406 1.355 . S
C407 C409 1.419 . S
C408 C406 1.415 . S
C408 C413 1.425 . S
C408 C415 1.409 . S
C409 H401 0.930 1_545 S
C409 C407 1.419 . S
C409 C410 1.362 . S
C410 H402 0.930 1_545 S
C410 C409 1.362 . S
C410 C413 1.409 . S
C411 H403 0.930 . S
C411 C412 1.355 . S
C411 C413 1.415 . S
C412 C411 1.355 . S
C412 C414 1.419 . S
C413 C408 1.425 . S
C413 C410 1.409 . S
C413 C411 1.415 . S
C414 H404 0.930 . S
C414 C412 1.419 . S
C414 C415 1.362 . S
C415 H405 0.930 . S
C415 C408 1.409 . S
C415 C414 1.362 . S
H416 C422 0.930 . S
H417 C425 0.930 . S
H418 C426 0.930 . S
H419 C427 0.930 . S
H420 C430 0.930 . S
H421 C431 0.930 . S
C422 H416 0.930 . S
C422 C423 1.355 . S
C422 C424 1.415 . S
C423 C422 1.355 . S
C423 C425 1.419 . S
C424 C422 1.415 . S
C424 C429 1.425 . S
C424 C431 1.409 . S
C425 H417 0.930 . S
C425 C423 1.419 . S
C425 C426 1.362 . S
C426 H418 0.930 . S
C426 C425 1.362 . S
C426 C429 1.409 . S
C427 H419 0.930 . S
C427 C428 1.355 . S
C427 C429 1.415 . S
C428 C427 1.355 . S
C428 C430 1.419 . S
C429 C424 1.425 . S
C429 C426 1.409 . S
C429 C427 1.415 . S
C430 H420 0.930 . S
C430 C428 1.419 . S
C430 C431 1.362 . S
C431 H421 0.930 . S
C431 C424 1.409 . S
C431 C430 1.362 . S
H432 C438 0.930 . S
H433 C441 0.930 . S
H434 C442 0.930 . S
H435 C443 0.930 . S
H436 C446 0.930 . S
H437 C447 0.930 . S
C438 H432 0.930 . S
C438 C439 1.355 . S
C438 C440 1.415 . S
C439 C438 1.355 . S
C439 C441 1.419 1_565 S
C440 C438 1.415 . S
C440 C445 1.425 1_565 S
C440 C447 1.409 . S
C441 H433 0.930 . S
C441 C439 1.419 1_545 S
C441 C442 1.362 . S
C442 H434 0.930 . S
C442 C441 1.362 . S
C442 C445 1.409 . S
C443 H435 0.930 . S
C443 C444 1.355 1_545 S
C443 C445 1.415 . S
C444 C443 1.355 1_565 S
C444 C446 1.419 . S
C445 C440 1.425 1_545 S
C445 C442 1.409 . S
C445 C443 1.415 . S
C446 H436 0.930 . S
C446 C444 1.419 . S
C446 C447 1.362 . S
C447 H437 0.930 . S
C447 C440 1.409 . S
C447 C446 1.362 . S
H448 C454 0.930 . S
H449 C457 0.930 . S
H450 C458 0.930 . S
H451 C459 0.930 . S
H452 C462 0.930 . S
H453 C463 0.930 . S
C454 H448 0.930 . S
C454 C455 1.355 . S
C454 C456 1.415 . S
C455 C454 1.355 . S
C455 C457 1.419 . S
C456 C454 1.415 . S
C456 C461 1.425 . S
C456 C463 1.409 . S
C457 H449 0.930 . S
C457 C455 1.419 . S
C457 C458 1.362 . S
C458 H450 0.930 . S
C458 C457 1.362 . S
C458 C461 1.409 . S
C459 H451 0.930 . S
C459 C460 1.355 . S
C459 C461 1.415 . S
C460 C459 1.355 . S
C460 C462 1.419 . S
C461 C456 1.425 . S
C461 C458 1.409 . S
C461 C459 1.415 . S
C462 H452 0.930 . S
C462 C460 1.419 . S
C462 C463 1.362 . S
C463 H453 0.930 . S
C463 C456 1.409 . S
C463 C462 1.362 . S
H464 C470 0.930 . S
H465 C473 0.930 . S
H466 C474 0.930 . S
H467 C475 0.930 1_556 S
H468 C478 0.930 . S
H469 C479 0.930 . S
C470 H464 0.930 . S
C470 C471 1.355 . S
C470 C472 1.415 . S
C471 C470 1.355 . S
C471 C473 1.419 1_554 S
C472 C470 1.415 . S
C472 C477 1.425 . S
C472 C479 1.409 . S
C473 H465 0.930 . S
C473 C471 1.419 1_556 S
C473 C474 1.362 . S
C474 H466 0.930 . S
C474 C473 1.362 . S
C474 C477 1.409 1_556 S
C475 H467 0.930 1_554 S
C475 C476 1.355 . S
C475 C477 1.415 . S
C476 C475 1.355 . S
C476 C478 1.419 . S
C477 C472 1.425 . S
C477 C474 1.409 1_554 S
C477 C475 1.415 . S
C478 H468 0.930 . S
C478 C476 1.419 . S
C478 C479 1.362 . S
C479 H469 0.930 . S
C479 C472 1.409 . S
C479 C478 1.362 . S
H480 C486 0.930 . S
H481 C489 0.930 . S
H482 C490 0.930 . S
H483 C491 0.930 . S
H484 C494 0.930 . S
H485 C495 0.930 . S
C486 H480 0.930 . S
C486 C487 1.355 . S
C486 C488 1.415 . S
C487 C486 1.355 . S
C487 C489 1.419 . S
C488 C486 1.415 . S
C488 C493 1.425 . S
C488 C495 1.409 . S
C489 H481 0.930 . S
C489 C487 1.419 . S
C489 C490 1.362 . S
C490 H482 0.930 . S
C490 C489 1.362 . S
C490 C493 1.409 . S
C491 H483 0.930 . S
C491 C492 1.355 . S
C491 C493 1.415 . S
C492 C491 1.355 . S
C492 C494 1.419 . S
C493 C488 1.425 . S
C493 C490 1.409 . S
C493 C491 1.415 . S
C494 H484 0.930 . S
C494 C492 1.419 . S
C494 C495 1.362 . S
C495 H485 0.930 . S
C495 C488 1.409 . S
C495 C494 1.362 . S
H496 C502 0.930 . S
H497 C505 0.930 . S
H498 C506 0.930 . S
H499 C507 0.930 . S
H500 C510 0.930 . S
H501 C511 0.930 . S
C502 H496 0.930 . S
C502 C503 1.355 . S
C502 C504 1.415 . S
C503 C502 1.355 . S
C503 C505 1.419 . S
C504 C502 1.415 . S
C504 C509 1.425 . S
C504 C511 1.409 . S
C505 H497 0.930 . S
C505 C503 1.419 . S
C505 C506 1.362 . S
C506 H498 0.930 . S
C506 C505 1.362 . S
C506 C509 1.409 . S
C507 H499 0.930 . S
C507 C508 1.355 . S
C507 C509 1.415 . S
C508 C507 1.355 . S
C508 C510 1.419 . S
C509 C504 1.425 . S
C509 C506 1.409 . S
C509 C507 1.415 . S
C510 H500 0.930 . S
C510 C508 1.419 . S
C510 C511 1.362 . S
C511 H501 0.930 . S
C511 C504 1.409 . S
C511 C510 1.362 . S
H512 C518 0.930 . S
H513 C521 0.930 . S
H514 C522 0.930 . S
H515 C523 0.930 . S
H516 C526 0.930 . S
H517 C527 0.930 . S
C518 H512 0.930 . S
C518 C519 1.355 . S
C518 C520 1.415 . S
C519 C518 1.355 . S
C519 C521 1.419 . S
C520 C518 1.415 . S
C520 C525 1.425 . S
C520 C527 1.409 . S
C521 H513 0.930 . S
C521 C519 1.419 . S
C521 C522 1.362 . S
C522 H514 0.930 . S
C522 C521 1.362 . S
C522 C525 1.409 . S
C523 H515 0.930 . S
C523 C524 1.355 . S
C523 C525 1.415 . S
C524 C523 1.355 . S
C524 C526 1.419 . S
C525 C520 1.425 . S
C525 C522 1.409 . S
C525 C523 1.415 . S
C526 H516 0.930 . S
C526 C524 1.419 . S
C526 C527 1.362 . S
C527 H517 0.930 . S
C527 C520 1.409 . S
C527 C526 1.362 . S
H528 C534 0.930 . S
H529 C537 0.930 . S
H530 C538 0.930 . S
H531 C539 0.930 . S
H532 C542 0.930 . S
H533 C543 0.930 . S
C534 H528 0.930 . S
C534 C535 1.355 . S
C534 C536 1.415 . S
C535 C534 1.355 . S
C535 C537 1.419 . S
C536 C534 1.415 . S
C536 C541 1.425 . S
C536 C543 1.409 . S
C537 H529 0.930 . S
C537 C535 1.419 . S
C537 C538 1.362 . S
C538 H530 0.930 . S
C538 C537 1.362 . S
C538 C541 1.409 . S
C539 H531 0.930 . S
C539 C540 1.355 . S
C539 C541 1.415 . S
C540 C539 1.355 . S
C540 C542 1.419 . S
C541 C536 1.425 . S
C541 C538 1.409 . S
C541 C539 1.415 . S
C542 H532 0.930 . S
C542 C540 1.419 . S
C542 C543 1.362 . S
C543 H533 0.930 . S
C543 C536 1.409 . S
C543 C542 1.362 . S
H544 C550 0.930 . S
H545 C553 0.930 . S
H546 C554 0.930 . S
H547 C555 0.930 . S
H548 C558 0.930 . S
H549 C559 0.930 . S
C550 H544 0.930 . S
C550 C551 1.355 . S
C550 C552 1.415 . S
C551 C550 1.355 . S
C551 C553 1.419 . S
C552 C550 1.415 . S
C552 C557 1.425 . S
C552 C559 1.409 . S
C553 H545 0.930 . S
C553 C551 1.419 . S
C553 C554 1.362 . S
C554 H546 0.930 . S
C554 C553 1.362 . S
C554 C557 1.409 . S
C555 H547 0.930 . S
C555 C556 1.355 . S
C555 C557 1.415 . S
C556 C555 1.355 . S
C556 C558 1.419 . S
C557 C552 1.425 . S
C557 C554 1.409 . S
C557 C555 1.415 . S
C558 H548 0.930 . S
C558 C556 1.419 . S
C558 C559 1.362 . S
C559 H549 0.930 . S
C559 C552 1.409 . S
C559 C558 1.362 . S
H560 C566 0.930 . S
H561 C569 0.930 . S
H562 C570 0.930 . S
H563 C571 0.930 . S
H564 C574 0.930 . S
H565 C575 0.930 . S
C566 H560 0.930 . S
C566 C567 1.355 . S
C566 C568 1.415 . S
C567 C566 1.355 . S
C567 C569 1.419 . S
C568 C566 1.415 . S
C568 C573 1.425 . S
C568 C575 1.409 . S
C569 H561 0.930 . S
C569 C567 1.419 . S
C569 C570 1.362 . S
C570 H562 0.930 . S
C570 C569 1.362 . S
C570 C573 1.409 . S
C571 H563 0.930 . S
C571 C572 1.355 . S
C571 C573 1.415 . S
C572 C571 1.355 . S
C572 C574 1.419 . S
C573 C568 1.425 . S
C573 C570 1.409 . S
C573 C571 1.415 . S
C574 H564 0.930 . S
C574 C572 1.419 . S
C574 C575 1.362 . S
C575 H565 0.930 . S
C575 C568 1.409 . S
C575 C574 1.362 . S
H576 C582 0.930 . S
H577 C585 0.930 . S
H578 C586 0.930 . S
H579 C587 0.930 . S
H580 C590 0.930 . S
H581 C591 0.930 . S
C582 H576 0.930 . S
C582 C583 1.355 . S
C582 C584 1.415 . S
C583 C582 1.355 . S
C583 C585 1.419 . S
C584 C582 1.415 . S
C584 C589 1.425 . S
C584 C591 1.409 . S
C585 H577 0.930 . S
C585 C583 1.419 . S
C585 C586 1.362 . S
C586 H578 0.930 . S
C586 C585 1.362 . S
C586 C589 1.409 . S
C587 H579 0.930 . S
C587 C588 1.355 . S
C587 C589 1.415 . S
C588 C587 1.355 . S
C588 C590 1.419 . S
C589 C584 1.425 . S
C589 C586 1.409 . S
C589 C587 1.415 . S
C590 H580 0.930 . S
C590 C588 1.419 . S
C590 C591 1.362 . S
C591 H581 0.930 . S
C591 C584 1.409 . S
C591 C590 1.362 . S
H592 C598 0.930 . S
H593 C601 0.930 . S
H594 C602 0.930 . S
H595 C603 0.930 . S
H596 C606 0.930 . S
H597 C607 0.930 . S
C598 H592 0.930 . S
C598 C599 1.355 . S
C598 C600 1.415 . S
C599 C598 1.355 . S
C599 C601 1.419 . S
C600 C598 1.415 . S
C600 C605 1.425 . S
C600 C607 1.409 . S
C601 H593 0.930 . S
C601 C599 1.419 . S
C601 C602 1.362 . S
C602 H594 0.930 . S
C602 C601 1.362 . S
C602 C605 1.409 . S
C603 H595 0.930 . S
C603 C604 1.355 . S
C603 C605 1.415 . S
C604 C603 1.355 . S
C604 C606 1.419 . S
C605 C600 1.425 . S
C605 C602 1.409 . S
C605 C603 1.415 . S
C606 H596 0.930 . S
C606 C604 1.419 . S
C606 C607 1.362 . S
C607 H597 0.930 . S
C607 C600 1.409 . S
C607 C606 1.362 . S
H608 C614 0.930 . S
H609 C617 0.930 . S
H610 C618 0.930 . S
H611 C619 0.930 1_545 S
H612 C622 0.930 . S
H613 C623 0.930 . S
C614 H608 0.930 . S
C614 C615 1.355 . S
C614 C616 1.415 . S
C615 C614 1.355 . S
C615 C617 1.419 1_565 S
C616 C614 1.415 . S
C616 C621 1.425 . S
C616 C623 1.409 . S
C617 H609 0.930 . S
C617 C615 1.419 1_545 S
C617 C618 1.362 . S
C618 H610 0.930 . S
C618 C617 1.362 . S
C618 C621 1.409 1_545 S
C619 H611 0.930 1_565 S
C619 C620 1.355 . S
C619 C621 1.415 . S
C620 C619 1.355 . S
C620 C622 1.419 . S
C621 C616 1.425 . S
C621 C618 1.409 1_565 S
C621 C619 1.415 . S
C622 H612 0.930 . S
C622 C620 1.419 . S
C622 C623 1.362 . S
C623 H613 0.930 . S
C623 C616 1.409 . S
C623 C622 1.362 . S
H624 C630 0.930 . S
H625 C633 0.930 . S
H626 C634 0.930 . S
H627 C635 0.930 . S
H628 C638 0.930 . S
H629 C639 0.930 . S
C630 H624 0.930 . S
C630 C631 1.355 . S
C630 C632 1.415 . S
C631 C630 1.355 . S
C631 C633 1.419 . S
C632 C630 1.415 . S
C632 C637 1.425 . S
C632 C639 1.409 . S
C633 H625 0.930 . S
C633 C631 1.419 . S
C633 C634 1.362 . S
C634 H626 0.930 . S
C634 C633 1.362 . S
C634 C637 1.409 . S
C635 H627 0.930 . S
C635 C636 1.355 . S
C635 C637 1.415 . S
C636 C635 1.355 . S
C636 C638 1.419 . S
C637 C632 1.425 . S
C637 C634 1.409 . S
C637 C635 1.415 . S
C638 H628 0.930 . S
C638 C636 1.419 . S
C638 C639 1.362 . S
C639 H629 0.930 . S
C639 C632 1.409 . S
C639 C638 1.362 . S
H640 C646 0.931 . S
H641 C649 0.930 . S
H642 C650 0.930 . S
H643 C651 0.930 . S
H644 C654 0.930 . S
H645 C655 0.930 . S
C646 H640 0.931 . S
C646 C647 1.355 . S
C646 C648 1.415 . S
C647 C646 1.355 . S
C647 C649 1.419 . S
C648 C646 1.415 . S
C648 C653 1.425 . S
C648 C655 1.409 . S
C649 H641 0.930 . S
C649 C647 1.419 . S
C649 C650 1.362 . S
C650 H642 0.930 . S
C650 C649 1.362 . S
C650 C653 1.409 . S
C651 H643 0.930 . S
C651 C652 1.355 . S
C651 C653 1.415 . S
C652 C651 1.355 . S
C652 C654 1.419 . S
C653 C648 1.425 . S
C653 C650 1.409 . S
C653 C651 1.415 . S
C654 H644 0.930 . S
C654 C652 1.419 . S
C654 C655 1.362 . S
C655 H645 0.930 . S
C655 C648 1.409 . S
C655 C654 1.362 . S
H656 C662 0.930 . S
H657 C665 0.930 . S
H658 C666 0.930 . S
H659 C667 0.930 . S
H660 C670 0.930 . S
H661 C671 0.930 . S
C662 H656 0.930 . S
C662 C663 1.355 . S
C662 C664 1.415 . S
C663 C662 1.355 . S
C663 C665 1.419 . S
C664 C662 1.415 . S
C664 C669 1.425 . S
C664 C671 1.409 . S
C665 H657 0.930 . S
C665 C663 1.419 . S
C665 C666 1.362 . S
C666 H658 0.930 . S
C666 C665 1.362 . S
C666 C669 1.409 . S
C667 H659 0.930 . S
C667 C668 1.355 . S
C667 C669 1.415 . S
C668 C667 1.355 . S
C668 C670 1.419 . S
C669 C664 1.425 . S
C669 C666 1.409 . S
C669 C667 1.415 . S
C670 H660 0.930 . S
C670 C668 1.419 . S
C670 C671 1.362 . S
C671 H661 0.930 . S
C671 C664 1.409 . S
C671 C670 1.362 . S
H672 C678 0.930 . S
H673 C681 0.930 . S
H674 C682 0.930 . S
H675 C683 0.930 . S
H676 C686 0.930 . S
H677 C687 0.930 . S
C678 H672 0.930 . S
C678 C679 1.355 . S
C678 C680 1.415 . S
C679 C678 1.355 . S
C679 C681 1.419 . S
C680 C678 1.415 . S
C680 C685 1.425 . S
C680 C687 1.409 . S
C681 H673 0.930 . S
C681 C679 1.419 . S
C681 C682 1.362 . S
C682 H674 0.930 . S
C682 C681 1.362 . S
C682 C685 1.409 . S
C683 H675 0.930 . S
C683 C684 1.355 . S
C683 C685 1.415 . S
C684 C683 1.355 . S
C684 C686 1.419 . S
C685 C680 1.425 . S
C685 C682 1.409 . S
C685 C683 1.415 . S
C686 H676 0.930 . S
C686 C684 1.419 . S
C686 C687 1.362 . S
C687 H677 0.930 . S
C687 C680 1.409 . S
C687 C686 1.362 . S
H688 C694 0.930 . S
H689 C697 0.930 . S
H690 C698 0.930 . S
H691 C699 0.930 . S
H692 C702 0.930 . S
H693 C703 0.930 . S
C694 H688 0.930 . S
C694 C695 1.355 . S
C694 C696 1.415 . S
C695 C694 1.355 . S
C695 C697 1.419 . S
C696 C694 1.415 . S
C696 C701 1.425 . S
C696 C703 1.409 . S
C697 H689 0.930 . S
C697 C695 1.419 . S
C697 C698 1.362 . S
C698 H690 0.930 . S
C698 C697 1.362 . S
C698 C701 1.409 . S
C699 H691 0.930 . S
C699 C700 1.355 . S
C699 C701 1.415 . S
C700 C699 1.355 . S
C700 C702 1.419 . S
C701 C696 1.425 . S
C701 C698 1.409 . S
C701 C699 1.415 . S
C702 H692 0.930 . S
C702 C700 1.419 . S
C702 C703 1.362 . S
C703 H693 0.930 . S
C703 C696 1.409 . S
C703 C702 1.362 . S
H704 C710 0.930 . S
H705 C713 0.930 . S
H706 C714 0.930 . S
H707 C715 0.930 . S
H708 C718 0.930 . S
H709 C719 0.930 . S
C710 H704 0.930 . S
C710 C711 1.355 . S
C710 C712 1.415 . S
C711 C710 1.355 . S
C711 C713 1.419 . S
C712 C710 1.415 . S
C712 C717 1.425 . S
C712 C719 1.409 . S
C713 H705 0.930 . S
C713 C711 1.419 . S
C713 C714 1.362 . S
C714 H706 0.930 . S
C714 C713 1.362 . S
C714 C717 1.409 . S
C715 H707 0.930 . S
C715 C716 1.355 . S
C715 C717 1.415 . S
C716 C715 1.355 . S
C716 C718 1.419 . S
C717 C712 1.425 . S
C717 C714 1.409 . S
C717 C715 1.415 . S
C718 H708 0.930 . S
C718 C716 1.419 . S
C718 C719 1.362 . S
C719 H709 0.930 . S
C719 C712 1.409 . S
C719 C718 1.362 . S
H720 C726 0.930 . S
H721 C729 0.930 . S
H722 C730 0.930 . S
H723 C731 0.930 . S
H724 C734 0.930 . S
H725 C735 0.930 . S
C726 H720 0.930 . S
C726 C727 1.355 1_655 S
C726 C728 1.415 . S
C727 C726 1.355 1_455 S
C727 C729 1.419 . S
C728 C726 1.415 . S
C728 C733 1.425 1_655 S
C728 C735 1.409 . S
C729 H721 0.930 . S
C729 C727 1.419 . S
C729 C730 1.362 . S
C730 H722 0.930 . S
C730 C729 1.362 . S
C730 C733 1.409 . S
C731 H723 0.930 . S
C731 C732 1.355 . S
C731 C733 1.415 . S
C732 C731 1.355 . S
C732 C734 1.419 1_455 S
C733 C728 1.425 1_455 S
C733 C730 1.409 . S
C733 C731 1.415 . S
C734 H724 0.930 . S
C734 C732 1.419 1_655 S
C734 C735 1.362 . S
C735 H725 0.930 . S
C735 C728 1.409 . S
C735 C734 1.362 . S
H736 C742 0.930 . S
H737 C745 0.930 . S
H738 C746 0.930 . S
H739 C747 0.930 . S
H740 C750 0.930 . S
H741 C751 0.930 1_455 S
C742 H736 0.930 . S
C742 C743 1.355 . S
C742 C744 1.415 . S
C743 C742 1.355 . S
C743 C745 1.419 . S
C744 C742 1.415 . S
C744 C749 1.425 . S
C744 C751 1.409 . S
C745 H737 0.930 . S
C745 C743 1.419 . S
C745 C746 1.362 . S
C746 H738 0.930 . S
C746 C745 1.362 . S
C746 C749 1.409 . S
C747 H739 0.930 . S
C747 C748 1.355 . S
C747 C749 1.415 . S
C748 C747 1.355 . S
C748 C750 1.419 . S
C749 C744 1.425 . S
C749 C746 1.409 . S
C749 C747 1.415 . S
C750 H740 0.930 . S
C750 C748 1.419 . S
C750 C751 1.362 . S
C751 H741 0.930 1_655 S
C751 C744 1.409 . S
C751 C750 1.362 . S
H752 C758 0.930 . S
H753 C761 0.930 . S
H754 C762 0.930 . S
H755 C763 0.930 . S
H756 C766 0.930 . S
H757 C767 0.930 . S
C758 H752 0.930 . S
C758 C759 1.355 . S
C758 C760 1.415 . S
C759 C758 1.355 . S
C759 C761 1.419 1_455 S
C760 C758 1.415 . S
C760 C765 1.430 . S
C760 C767 1.409 . S
C761 H753 0.930 . S
C761 C759 1.419 1_655 S
C761 C762 1.362 . S
C762 H754 0.930 . S
C762 C761 1.362 . S
C762 C765 1.406 1_655 S
C763 H755 0.930 . S
C763 C764 1.355 1_655 S
C763 C765 1.414 1_655 S
C764 C763 1.355 1_455 S
C764 C766 1.419 . S
C765 C760 1.430 . S
C765 C762 1.406 1_455 S
C765 C763 1.414 1_455 S
C766 H756 0.930 . S
C766 C764 1.419 . S
C766 C767 1.362 . S
C767 H757 0.930 . S
C767 C760 1.409 . S
C767 C766 1.362 . S
H768 C774 0.930 . S
H769 C777 0.930 . S
H770 C778 0.930 . S
H771 C779 0.930 1_455 S
H772 C782 0.930 . S
H773 C783 0.930 . S
C774 H768 0.930 . S
C774 C775 1.355 . S
C774 C776 1.415 . S
C775 C774 1.355 . S
C775 C777 1.419 1_655 S
C776 C774 1.415 . S
C776 C781 1.425 . S
C776 C783 1.409 . S
C777 H769 0.930 . S
C777 C775 1.419 1_455 S
C777 C778 1.362 . S
C778 H770 0.930 . S
C778 C777 1.362 . S
C778 C781 1.409 1_455 S
C779 H771 0.930 1_655 S
C779 C780 1.355 . S
C779 C781 1.415 . S
C780 C779 1.355 . S
C780 C782 1.419 . S
C781 C776 1.425 . S
C781 C778 1.409 1_655 S
C781 C779 1.415 . S
C782 H772 0.930 . S
C782 C780 1.419 . S
C782 C783 1.362 . S
C783 H773 0.930 . S
C783 C776 1.409 . S
C783 C782 1.362 . S
H784 C790 0.930 . S
H785 C793 0.930 . S
H786 C794 0.930 . S
H787 C795 0.930 . S
H788 C798 0.930 . S
H789 C799 0.930 . S
C790 H784 0.930 . S
C790 C791 1.355 . S
C790 C792 1.415 . S
C791 C790 1.355 . S
C791 C793 1.419 . S
C792 C790 1.415 . S
C792 C797 1.425 . S
C792 C799 1.409 . S
C793 H785 0.930 . S
C793 C791 1.419 . S
C793 C794 1.362 . S
C794 H786 0.930 . S
C794 C793 1.362 . S
C794 C797 1.409 . S
C795 H787 0.930 . S
C795 C796 1.355 . S
C795 C797 1.415 . S
C796 C795 1.355 . S
C796 C798 1.419 . S
C797 C792 1.425 . S
C797 C794 1.409 . S
C797 C795 1.415 . S
C798 H788 0.930 . S
C798 C796 1.419 . S
C798 C799 1.362 . S
C799 H789 0.930 . S
C799 C792 1.409 . S
C799 C798 1.362 . S
H800 C806 0.930 . S
H801 C809 0.930 . S
H802 C810 0.930 . S
H803 C811 0.930 . S
H804 C814 0.930 . S
H805 C815 0.930 . S
C806 H800 0.930 . S
C806 C807 1.355 . S
C806 C808 1.415 . S
C807 C806 1.355 . S
C807 C809 1.419 . S
C808 C806 1.415 . S
C808 C813 1.425 . S
C808 C815 1.409 . S
C809 H801 0.930 . S
C809 C807 1.419 . S
C809 C810 1.362 . S
C810 H802 0.930 . S
C810 C809 1.362 . S
C810 C813 1.409 . S
C811 H803 0.930 . S
C811 C812 1.355 . S
C811 C813 1.415 . S
C812 C811 1.355 . S
C812 C814 1.419 . S
C813 C808 1.425 . S
C813 C810 1.409 . S
C813 C811 1.415 . S
C814 H804 0.930 . S
C814 C812 1.419 . S
C814 C815 1.362 . S
C815 H805 0.930 . S
C815 C808 1.409 . S
C815 C814 1.362 . S
H816 C822 0.930 . S
H817 C825 0.930 . S
H818 C826 0.930 . S
H819 C827 0.930 . S
H820 C830 0.930 . S
H821 C831 0.930 . S
C822 H816 0.930 . S
C822 C823 1.355 . S
C822 C824 1.415 . S
C823 C822 1.355 . S
C823 C825 1.419 . S
C824 C822 1.415 . S
C824 C829 1.425 . S
C824 C831 1.409 . S
C825 H817 0.930 . S
C825 C823 1.419 . S
C825 C826 1.362 . S
C826 H818 0.930 . S
C826 C825 1.362 . S
C826 C829 1.409 . S
C827 H819 0.930 . S
C827 C828 1.355 . S
C827 C829 1.415 . S
C828 C827 1.355 . S
C828 C830 1.419 . S
C829 C824 1.425 . S
C829 C826 1.409 . S
C829 C827 1.415 . S
C830 H820 0.930 . S
C830 C828 1.419 . S
C830 C831 1.362 . S
C831 H821 0.930 . S
C831 C824 1.409 . S
C831 C830 1.362 . S
H832 C838 0.930 . S
H833 C841 0.930 . S
H834 C842 0.930 . S
H835 C843 0.930 . S
H836 C846 0.930 . S
H837 C847 0.930 . S
C838 H832 0.930 . S
C838 C839 1.355 . S
C838 C840 1.415 . S
C839 C838 1.355 . S
C839 C841 1.419 . S
C840 C838 1.415 . S
C840 C845 1.425 . S
C840 C847 1.409 . S
C841 H833 0.930 . S
C841 C839 1.419 . S
C841 C842 1.362 . S
C842 H834 0.930 . S
C842 C841 1.362 . S
C842 C845 1.409 . S
C843 H835 0.930 . S
C843 C844 1.355 . S
C843 C845 1.415 . S
C844 C843 1.355 . S
C844 C846 1.419 . S
C845 C840 1.425 . S
C845 C842 1.409 . S
C845 C843 1.415 . S
C846 H836 0.930 . S
C846 C844 1.419 . S
C846 C847 1.362 . S
C847 H837 0.930 . S
C847 C840 1.409 . S
C847 C846 1.362 . S
H848 C854 0.930 . S
H849 C857 0.930 . S
H850 C858 0.930 . S
H851 C859 0.930 . S
H852 C862 0.930 . S
H853 C863 0.930 . S
C854 H848 0.930 . S
C854 C855 1.355 . S
C854 C856 1.415 . S
C855 C854 1.355 . S
C855 C857 1.419 . S
C856 C854 1.415 . S
C856 C861 1.425 . S
C856 C863 1.409 . S
C857 H849 0.930 . S
C857 C855 1.419 . S
C857 C858 1.362 . S
C858 H850 0.930 . S
C858 C857 1.362 . S
C858 C861 1.409 . S
C859 H851 0.930 . S
C859 C860 1.355 . S
C859 C861 1.415 . S
C860 C859 1.355 . S
C860 C862 1.419 . S
C861 C856 1.425 . S
C861 C858 1.409 . S
C861 C859 1.415 . S
C862 H852 0.930 . S
C862 C860 1.419 . S
C862 C863 1.362 . S
C863 H853 0.930 . S
C863 C856 1.409 . S
C863 C862 1.362 . S
H864 C870 0.930 . S
H865 C873 0.930 . S
H866 C874 0.930 . S
H867 C875 0.930 . S
H868 C878 0.930 . S
H869 C879 0.930 . S
C870 H864 0.930 . S
C870 C871 1.355 . S
C870 C872 1.415 . S
C871 C870 1.355 . S
C871 C873 1.419 . S
C872 C870 1.415 . S
C872 C877 1.425 . S
C872 C879 1.409 . S
C873 H865 0.930 . S
C873 C871 1.419 . S
C873 C874 1.362 . S
C874 H866 0.930 . S
C874 C873 1.362 . S
C874 C877 1.409 . S
C875 H867 0.930 . S
C875 C876 1.355 . S
C875 C877 1.415 . S
C876 C875 1.355 . S
C876 C878 1.419 . S
C877 C872 1.425 . S
C877 C874 1.409 . S
C877 C875 1.415 . S
C878 H868 0.930 . S
C878 C876 1.419 . S
C878 C879 1.362 . S
C879 H869 0.930 . S
C879 C872 1.409 . S
C879 C878 1.362 . S
H880 C886 0.930 . S
H881 C889 0.930 . S
H882 C890 0.930 . S
H883 C891 0.930 . S
H884 C894 0.930 . S
H885 C895 0.930 . S
C886 H880 0.930 . S
C886 C887 1.355 . S
C886 C888 1.415 . S
C887 C886 1.355 . S
C887 C889 1.419 . S
C888 C886 1.415 . S
C888 C893 1.425 . S
C888 C895 1.409 . S
C889 H881 0.930 . S
C889 C887 1.419 . S
C889 C890 1.362 . S
C890 H882 0.930 . S
C890 C889 1.362 . S
C890 C893 1.409 . S
C891 H883 0.930 . S
C891 C892 1.355 . S
C891 C893 1.415 . S
C892 C891 1.355 . S
C892 C894 1.419 . S
C893 C888 1.425 . S
C893 C890 1.409 . S
C893 C891 1.415 . S
C894 H884 0.930 . S
C894 C892 1.419 . S
C894 C895 1.362 . S
C895 H885 0.930 . S
C895 C888 1.409 . S
C895 C894 1.362 . S
H896 C902 0.930 . S
H897 C905 0.930 . S
H898 C906 0.930 . S
H899 C907 0.930 . S
H900 C910 0.930 . S
H901 C911 0.930 . S
C902 H896 0.930 . S
C902 C903 1.355 . S
C902 C904 1.415 . S
C903 C902 1.355 . S
C903 C905 1.419 . S
C904 C902 1.415 . S
C904 C909 1.425 . S
C904 C911 1.409 . S
C905 H897 0.930 . S
C905 C903 1.419 . S
C905 C906 1.362 . S
C906 H898 0.930 . S
C906 C905 1.362 . S
C906 C909 1.409 . S
C907 H899 0.930 . S
C907 C908 1.355 . S
C907 C909 1.415 . S
C908 C907 1.355 . S
C908 C910 1.419 . S
C909 C904 1.425 . S
C909 C906 1.409 . S
C909 C907 1.415 . S
C910 H900 0.930 . S
C910 C908 1.419 . S
C910 C911 1.362 . S
C911 H901 0.930 . S
C911 C904 1.409 . S
C911 C910 1.362 . S
H912 C918 0.930 . S
H913 C921 0.930 . S
H914 C922 0.930 . S
H915 C923 0.930 . S
H916 C926 0.930 . S
H917 C927 0.930 . S
C918 H912 0.930 . S
C918 C919 1.355 . S
C918 C920 1.415 . S
C919 C918 1.355 . S
C919 C921 1.419 . S
C920 C918 1.415 . S
C920 C925 1.425 . S
C920 C927 1.409 . S
C921 H913 0.930 . S
C921 C919 1.419 . S
C921 C922 1.362 . S
C922 H914 0.930 . S
C922 C921 1.362 . S
C922 C925 1.409 . S
C923 H915 0.930 . S
C923 C924 1.355 . S
C923 C925 1.415 . S
C924 C923 1.355 . S
C924 C926 1.419 . S
C925 C920 1.425 . S
C925 C922 1.409 . S
C925 C923 1.415 . S
C926 H916 0.930 . S
C926 C924 1.419 . S
C926 C927 1.362 . S
C927 H917 0.930 . S
C927 C920 1.409 . S
C927 C926 1.362 . S
H928 C934 0.930 . S
H929 C937 0.930 . S
H930 C938 0.930 . S
H931 C939 0.930 . S
H932 C942 0.930 . S
H933 C943 0.930 . S
C934 H928 0.930 . S
C934 C935 1.355 . S
C934 C936 1.415 . S
C935 C934 1.355 . S
C935 C937 1.419 . S
C936 C934 1.415 . S
C936 C941 1.425 . S
C936 C943 1.409 . S
C937 H929 0.930 . S
C937 C935 1.419 . S
C937 C938 1.362 . S
C938 H930 0.930 . S
C938 C937 1.362 . S
C938 C941 1.409 . S
C939 H931 0.930 . S
C939 C940 1.355 . S
C939 C941 1.415 . S
C940 C939 1.355 . S
C940 C942 1.419 . S
C941 C936 1.425 . S
C941 C938 1.409 . S
C941 C939 1.415 . S
C942 H932 0.930 . S
C942 C940 1.419 . S
C942 C943 1.362 . S
C943 H933 0.930 . S
C943 C936 1.409 . S
C943 C942 1.362 . S
H944 C950 0.930 . S
H945 C953 0.930 . S
H946 C954 0.930 . S
H947 C955 0.930 . S
H948 C958 0.930 . S
H949 C959 0.930 . S
C950 H944 0.930 . S
C950 C951 1.355 . S
C950 C952 1.415 . S
C951 C950 1.355 . S
C951 C953 1.419 . S
C952 C950 1.415 . S
C952 C957 1.425 . S
C952 C959 1.409 . S
C953 H945 0.930 . S
C953 C951 1.419 . S
C953 C954 1.362 . S
C954 H946 0.930 . S
C954 C953 1.362 . S
C954 C957 1.409 . S
C955 H947 0.930 . S
C955 C956 1.355 . S
C955 C957 1.415 . S
C956 C955 1.355 . S
C956 C958 1.419 . S
C957 C952 1.425 . S
C957 C954 1.409 . S
C957 C955 1.415 . S
C958 H948 0.930 . S
C958 C956 1.419 . S
C958 C959 1.362 . S
C959 H949 0.930 . S
C959 C952 1.409 . S
C959 C958 1.362 . S
H960 C966 0.930 . S
H961 C969 0.930 . S
H962 C970 0.930 . S
H963 C971 0.930 . S
H964 C974 0.930 . S
H965 C975 0.930 . S
C966 H960 0.930 . S
C966 C967 1.355 . S
C966 C968 1.415 . S
C967 C966 1.355 . S
C967 C969 1.419 . S
C968 C966 1.415 . S
C968 C973 1.425 . S
C968 C975 1.409 . S
C969 H961 0.930 . S
C969 C967 1.419 . S
C969 C970 1.362 . S
C970 H962 0.930 . S
C970 C969 1.362 . S
C970 C973 1.409 . S
C971 H963 0.930 . S
C971 C972 1.355 . S
C971 C973 1.415 . S
C972 C971 1.355 . S
C972 C974 1.419 . S
C973 C968 1.425 . S
C973 C970 1.409 . S
C973 C971 1.415 . S
C974 H964 0.930 . S
C974 C972 1.419 . S
C974 C975 1.362 . S
C975 H965 0.930 . S
C975 C968 1.409 . S
C975 C974 1.362 . S
H976 C982 0.930 . S
H977 C985 0.930 . S
H978 C986 0.930 . S
H979 C987 0.930 . S
H980 C990 0.930 . S
H981 C991 0.930 . S
C982 H976 0.930 . S
C982 C983 1.355 . S
C982 C984 1.415 . S
C983 C982 1.355 . S
C983 C985 1.419 . S
C984 C982 1.415 . S
C984 C989 1.425 . S
C984 C991 1.409 . S
C985 H977 0.930 . S
C985 C983 1.419 . S
C985 C986 1.362 . S
C986 H978 0.930 . S
C986 C985 1.362 . S
C986 C989 1.409 . S
C987 H979 0.930 . S
C987 C988 1.355 . S
C987 C989 1.415 . S
C988 C987 1.355 . S
C988 C990 1.419 . S
C989 C984 1.425 . S
C989 C986 1.409 . S
C989 C987 1.415 . S
C990 H980 0.930 . S
C990 C988 1.419 . S
C990 C991 1.362 . S
C991 H981 0.930 . S
C991 C984 1.409 . S
C991 C990 1.362 . S
H992 C998 0.930 . S
H993 C1001 0.930 . S
H994 C1002 0.930 . S
H995 C1003 0.930 . S
H996 C1006 0.930 . S
H997 C1007 0.930 . S
C998 H992 0.930 . S
C998 C999 1.355 . S
C998 C1000 1.415 . S
C999 C998 1.355 . S
C999 C1001 1.419 . S
C1000 C998 1.415 . S
C1000 C1005 1.425 . S
C1000 C1007 1.409 . S
C1001 H993 0.930 . S
C1001 C999 1.419 . S
C1001 C1002 1.362 . S
C1002 H994 0.930 . S
C1002 C1001 1.362 . S
C1002 C1005 1.409 . S
C1003 H995 0.930 . S
C1003 C1004 1.355 . S
C1003 C1005 1.415 . S
C1004 C1003 1.355 . S
C1004 C1006 1.419 . S
C1005 C1000 1.425 . S
C1005 C1002 1.409 . S
C1005 C1003 1.415 . S
C1006 H996 0.930 . S
C1006 C1004 1.419 . S
C1006 C1007 1.362 . S
C1007 H997 0.930 . S
C1007 C1000 1.409 . S
C1007 C1006 1.362 . S
H1008 C1014 0.930 . S
H1009 C1017 0.930 . S
H1010 C1018 0.930 . S
H1011 C1019 0.930 . S
H1012 C1022 0.930 . S
H1013 C1023 0.930 . S
C1014 H1008 0.930 . S
C1014 C1015 1.355 . S
C1014 C1016 1.415 . S
C1015 C1014 1.355 . S
C1015 C1017 1.419 . S
C1016 C1014 1.415 . S
C1016 C1021 1.425 . S
C1016 C1023 1.409 . S
C1017 H1009 0.930 . S
C1017 C1015 1.419 . S
C1017 C1018 1.362 . S
C1018 H1010 0.930 . S
C1018 C1017 1.362 . S
C1018 C1021 1.409 . S
C1019 H1011 0.930 . S
C1019 C1020 1.355 . S
C1019 C1021 1.415 . S
C1020 C1019 1.355 . S
C1020 C1022 1.419 . S
C1021 C1016 1.425 . S
C1021 C1018 1.409 . S
C1021 C1019 1.415 . S
C1022 H1012 0.930 . S
C1022 C1020 1.419 . S
C1022 C1023 1.362 . S
C1023 H1013 0.930 . S
C1023 C1016 1.409 . S
C1023 C1022 1.362 . S
H1024 C1030 0.930 . S
H1025 C1033 0.930 . S
H1026 C1034 0.930 . S
H1027 C1035 0.930 . S
H1028 C1038 0.930 . S
H1029 C1039 0.930 . S
C1030 H1024 0.930 . S
C1030 C1031 1.355 . S
C1030 C1032 1.415 . S
C1031 C1030 1.355 . S
C1031 C1033 1.419 . S
C1032 C1030 1.415 . S
C1032 C1037 1.425 . S
C1032 C1039 1.409 . S
C1033 H1025 0.930 . S
C1033 C1031 1.419 . S
C1033 C1034 1.362 . S
C1034 H1026 0.930 . S
C1034 C1033 1.362 . S
C1034 C1037 1.409 . S
C1035 H1027 0.930 . S
C1035 C1036 1.355 . S
C1035 C1037 1.415 . S
C1036 C1035 1.355 . S
C1036 C1038 1.419 . S
C1037 C1032 1.425 . S
C1037 C1034 1.409 . S
C1037 C1035 1.415 . S
C1038 H1028 0.930 . S
C1038 C1036 1.419 . S
C1038 C1039 1.362 . S
C1039 H1029 0.930 . S
C1039 C1032 1.409 . S
C1039 C1038 1.362 . S
H1040 C1046 0.930 . S
H1041 C1049 0.930 . S
H1042 C1050 0.930 . S
H1043 C1051 0.930 . S
H1044 C1054 0.930 . S
H1045 C1055 0.930 . S
C1046 H1040 0.930 . S
C1046 C1047 1.355 . S
C1046 C1048 1.415 . S
C1047 C1046 1.355 . S
C1047 C1049 1.419 . S
C1048 C1046 1.415 . S
C1048 C1053 1.425 . S
C1048 C1055 1.409 . S
C1049 H1041 0.930 . S
C1049 C1047 1.419 . S
C1049 C1050 1.362 . S
C1050 H1042 0.930 . S
C1050 C1049 1.362 . S
C1050 C1053 1.409 . S
C1051 H1043 0.930 . S
C1051 C1052 1.355 . S
C1051 C1053 1.415 . S
C1052 C1051 1.355 . S
C1052 C1054 1.419 . S
C1053 C1048 1.425 . S
C1053 C1050 1.409 . S
C1053 C1051 1.415 . S
C1054 H1044 0.930 . S
C1054 C1052 1.419 . S
C1054 C1055 1.362 . S
C1055 H1045 0.930 . S
C1055 C1048 1.409 . S
C1055 C1054 1.362 . S
H1056 C1062 0.930 1_554 S
H1057 C1065 0.930 . S
H1058 C1066 0.930 . S
H1059 C1067 0.930 . S
H1060 C1070 0.930 . S
H1061 C1071 0.930 . S
C1062 H1056 0.930 1_556 S
C1062 C1063 1.355 . S
C1062 C1064 1.415 . S
C1063 C1062 1.355 . S
C1063 C1065 1.419 . S
C1064 C1062 1.415 . S
C1064 C1069 1.425 . S
C1064 C1071 1.409 1_556 S
C1065 H1057 0.930 . S
C1065 C1063 1.419 . S
C1065 C1066 1.362 . S
C1066 H1058 0.930 . S
C1066 C1065 1.362 . S
C1066 C1069 1.409 . S
C1067 H1059 0.930 . S
C1067 C1068 1.355 . S
C1067 C1069 1.415 . S
C1068 C1067 1.355 . S
C1068 C1070 1.419 1_556 S
C1069 C1064 1.425 . S
C1069 C1066 1.409 . S
C1069 C1067 1.415 . S
C1070 H1060 0.930 . S
C1070 C1068 1.419 1_554 S
C1070 C1071 1.362 . S
C1071 H1061 0.930 . S
C1071 C1064 1.409 1_554 S
C1071 C1070 1.362 . S
H1072 C1078 0.930 . S
H1073 C1081 0.930 . S
H1074 C1082 0.930 . S
H1075 C1083 0.930 . S
H1076 C1086 0.930 . S
H1077 C1087 0.930 . S
C1078 H1072 0.930 . S
C1078 C1079 1.355 . S
C1078 C1080 1.415 . S
C1079 C1078 1.355 . S
C1079 C1081 1.419 1_556 S
C1080 C1078 1.415 . S
C1080 C1085 1.425 1_556 S
C1080 C1087 1.409 . S
C1081 H1073 0.930 . S
C1081 C1079 1.419 1_554 S
C1081 C1082 1.362 . S
C1082 H1074 0.930 . S
C1082 C1081 1.362 . S
C1082 C1085 1.409 . S
C1083 H1075 0.930 . S
C1083 C1084 1.355 1_554 S
C1083 C1085 1.415 . S
C1084 C1083 1.355 1_556 S
C1084 C1086 1.419 . S
C1085 C1080 1.425 1_554 S
C1085 C1082 1.409 . S
C1085 C1083 1.415 . S
C1086 H1076 0.930 . S
C1086 C1084 1.419 . S
C1086 C1087 1.362 . S
C1087 H1077 0.930 . S
C1087 C1080 1.409 . S
C1087 C1086 1.362 . S
H1088 C1094 0.930 . S
H1089 C1097 0.930 . S
H1090 C1098 0.930 . S
H1091 C1099 0.930 1_556 S
H1092 C1102 0.930 . S
H1093 C1103 0.930 . S
C1094 H1088 0.930 . S
C1094 C1095 1.355 . S
C1094 C1096 1.415 . S
C1095 C1094 1.355 . S
C1095 C1097 1.419 1_554 S
C1096 C1094 1.415 . S
C1096 C1101 1.425 . S
C1096 C1103 1.409 . S
C1097 H1089 0.930 . S
C1097 C1095 1.419 1_556 S
C1097 C1098 1.362 . S
C1098 H1090 0.930 . S
C1098 C1097 1.362 . S
C1098 C1101 1.409 1_556 S
C1099 H1091 0.930 1_554 S
C1099 C1100 1.355 . S
C1099 C1101 1.415 . S
C1100 C1099 1.355 . S
C1100 C1102 1.419 . S
C1101 C1096 1.425 . S
C1101 C1098 1.409 1_554 S
C1101 C1099 1.415 . S
C1102 H1092 0.930 . S
C1102 C1100 1.419 . S
C1102 C1103 1.362 . S
C1103 H1093 0.930 . S
C1103 C1096 1.409 . S
C1103 C1102 1.362 . S
C343 C13 1.607 . S
C348 C229 1.580 . S
C364 C234 1.575 . S
C359 C1 1.623 . S
C380 C172 1.556 . S
C375 C27 1.600 . S
C391 C15 1.579 . S
C396 C196 1.549 . S
C407 C28 1.589 . S
C412 C334 1.569 . S
C423 C55 1.580 . S
C428 C301 1.492 . S
C444 C255 1.570 . S
C439 C40 1.605 . S
C455 C43 1.636 . S
C460 C289 1.608 . S
C476 C208 1.558 . S
C471 C56 1.602 . S
C492 C235 1.552 . S
C487 C83 1.575 . S
C503 C96 1.604 . S
C508 C226 1.521 . S
C519 C71 1.613 . S
C524 C292 1.586 . S
C540 C313 1.564 . S
C535 C99 1.593 . S
C556 C331 1.593 . S
C551 C111 1.615 . S
C567 C113 1.611 . S
C572 C280 1.520 . S
C588 C256 1.485 . S
C583 C125 1.560 . S
C599 C139 1.588 . S
C604 C251 1.568 . S
C615 C153 1.580 . S
C620 C217 1.557 . S
C636 C205 1.594 . S
C631 C127 1.617 . S
C647 C141 1.640 . S
C652 C171 1.602 . S
C668 C272 1.529 . S
C663 C84 1.606 . S
C684 C322 1.550 . S
C679 C154 1.582 . S
C695 C68 1.615 . S
C700 C310 1.586 . S
C711 C166 1.600 . S
C716 C188 1.520 . S
C732 C187 1.196 . S
C727 C0 1.336 . S
C743 C12 1.290 . S
C748 C209 1.157 . S
C764 C214 1.061 . S
C759 C14 1.291 . S
C780 C247 1.082 . S
C775 C26 1.353 . S
C791 C41 1.329 . S
C796 C184 1.189 . S
C807 C42 1.357 . S
C812 C192 1.228 . S
C828 C230 1.086 . S
C823 C29 1.328 . S
C839 C54 1.332 . S
C844 C238 1.167 . S
C855 C69 1.336 . S
C860 C175 1.090 . S
C876 C213 1.166 . S
C871 C70 1.372 . S
C887 C85 1.332 . S
C892 C250 1.109 . S
C903 C82 1.281 . S
C908 C259 1.107 . S
C924 C293 1.059 . S
C919 C110 1.329 . S
C935 C98 1.315 . S
C940 C271 1.042 . S
C951 C124 1.303 . S
C956 C298 1.167 . S
C967 C112 1.348 . S
C972 C318 1.073 . S
C983 C126 1.355 . S
C988 C276 1.088 . S
C1004 C268 1.169 . S
C999 C140 1.333 . S
C1015 C138 1.325 . S
C1020 C314 1.071 . S
C1036 C319 1.129 . S
C1031 C152 1.283 . S
C1052 C277 1.187 . S
C1047 C97 1.334 . S
C1068 C297 1.202 . S
C1063 C167 1.335 . S
C1084 C335 1.028 . S
C1079 C57 1.295 . S
C1095 C155 1.309 . S
C1100 C193 1.027 . S
