# Generated by pormake.
# Topology myd, (4,6)-cn, num edge types: 1
# Building blocks:
#     Node 0, Type 0, BuildingBlock: NAWXER_clean_sbu_0, # of connection points: 4
#     Node 1, Type 0, BuildingBlock: NAWXER_clean_sbu_0, # of connection points: 4
#     Node 2, Type 0, BuildingBlock: NAWXER_clean_sbu_0, # of connection points: 4
#     Node 3, Type 0, BuildingBlock: NAWXER_clean_sbu_0, # of connection points: 4
#     Node 4, Type 0, BuildingBlock: NAWXER_clean_sbu_0, # of connection points: 4
#     Node 5, Type 0, BuildingBlock: NAWXER_clean_sbu_0, # of connection points: 4
#     Node 6, Type 0, BuildingBlock: NAWXER_clean_sbu_0, # of connection points: 4
#     Node 7, Type 0, BuildingBlock: NAWXER_clean_sbu_0, # of connection points: 4
#     Node 8, Type 0, BuildingBlock: NAWXER_clean_sbu_0, # of connection points: 4
#     Node 9, Type 0, BuildingBlock: NAWXER_clean_sbu_0, # of connection points: 4
#     Node 10, Type 0, BuildingBlock: NAWXER_clean_sbu_0, # of connection points: 4
#     Node 11, Type 0, BuildingBlock: NAWXER_clean_sbu_0, # of connection points: 4
#     Node 12, Type 1, BuildingBlock: LEVNOQ01_clean_sbu_1, # of connection points: 6
#     Node 13, Type 1, BuildingBlock: LEVNOQ01_clean_sbu_1, # of connection points: 6
#     Node 14, Type 1, BuildingBlock: LEVNOQ01_clean_sbu_1, # of connection points: 6
#     Node 15, Type 1, BuildingBlock: LEVNOQ01_clean_sbu_1, # of connection points: 6
#     Node 16, Type 1, BuildingBlock: LEVNOQ01_clean_sbu_1, # of connection points: 6
#     Node 17, Type 1, BuildingBlock: LEVNOQ01_clean_sbu_1, # of connection points: 6
#     Node 18, Type 1, BuildingBlock: LEVNOQ01_clean_sbu_1, # of connection points: 6
#     Node 19, Type 1, BuildingBlock: LEVNOQ01_clean_sbu_1, # of connection points: 6
#     Edge 20, Type (0, 1), BuildingBlock: ZUJKAS_clean_linker_0, # of connection points: 2
#     Edge 21, Type (0, 1), BuildingBlock: ZUJKAS_clean_linker_0, # of connection points: 2
#     Edge 22, Type (0, 1), BuildingBlock: ZUJKAS_clean_linker_0, # of connection points: 2
#     Edge 23, Type (0, 1), BuildingBlock: ZUJKAS_clean_linker_0, # of connection points: 2
#     Edge 24, Type (0, 1), BuildingBlock: ZUJKAS_clean_linker_0, # of connection points: 2
#     Edge 25, Type (0, 1), BuildingBlock: ZUJKAS_clean_linker_0, # of connection points: 2
#     Edge 26, Type (0, 1), BuildingBlock: ZUJKAS_clean_linker_0, # of connection points: 2
#     Edge 27, Type (0, 1), BuildingBlock: ZUJKAS_clean_linker_0, # of connection points: 2
#     Edge 28, Type (0, 1), BuildingBlock: ZUJKAS_clean_linker_0, # of connection points: 2
#     Edge 29, Type (0, 1), BuildingBlock: ZUJKAS_clean_linker_0, # of connection points: 2
#     Edge 30, Type (0, 1), BuildingBlock: ZUJKAS_clean_linker_0, # of connection points: 2
#     Edge 31, Type (0, 1), BuildingBlock: ZUJKAS_clean_linker_0, # of connection points: 2
#     Edge 32, Type (0, 1), BuildingBlock: ZUJKAS_clean_linker_0, # of connection points: 2
#     Edge 33, Type (0, 1), BuildingBlock: ZUJKAS_clean_linker_0, # of connection points: 2
#     Edge 34, Type (0, 1), BuildingBlock: ZUJKAS_clean_linker_0, # of connection points: 2
#     Edge 35, Type (0, 1), BuildingBlock: ZUJKAS_clean_linker_0, # of connection points: 2
#     Edge 36, Type (0, 1), BuildingBlock: ZUJKAS_clean_linker_0, # of connection points: 2
#     Edge 37, Type (0, 1), BuildingBlock: ZUJKAS_clean_linker_0, # of connection points: 2
#     Edge 38, Type (0, 1), BuildingBlock: ZUJKAS_clean_linker_0, # of connection points: 2
#     Edge 39, Type (0, 1), BuildingBlock: ZUJKAS_clean_linker_0, # of connection points: 2
#     Edge 40, Type (0, 1), BuildingBlock: ZUJKAS_clean_linker_0, # of connection points: 2
#     Edge 41, Type (0, 1), BuildingBlock: ZUJKAS_clean_linker_0, # of connection points: 2
#     Edge 42, Type (0, 1), BuildingBlock: ZUJKAS_clean_linker_0, # of connection points: 2
#     Edge 43, Type (0, 1), BuildingBlock: ZUJKAS_clean_linker_0, # of connection points: 2
#     Edge 44, Type (0, 1), BuildingBlock: ZUJKAS_clean_linker_0, # of connection points: 2
#     Edge 45, Type (0, 1), BuildingBlock: ZUJKAS_clean_linker_0, # of connection points: 2
#     Edge 46, Type (0, 1), BuildingBlock: ZUJKAS_clean_linker_0, # of connection points: 2
#     Edge 47, Type (0, 1), BuildingBlock: ZUJKAS_clean_linker_0, # of connection points: 2
#     Edge 48, Type (0, 1), BuildingBlock: ZUJKAS_clean_linker_0, # of connection points: 2
#     Edge 49, Type (0, 1), BuildingBlock: ZUJKAS_clean_linker_0, # of connection points: 2
#     Edge 50, Type (0, 1), BuildingBlock: ZUJKAS_clean_linker_0, # of connection points: 2
#     Edge 51, Type (0, 1), BuildingBlock: ZUJKAS_clean_linker_0, # of connection points: 2
#     Edge 52, Type (0, 1), BuildingBlock: ZUJKAS_clean_linker_0, # of connection points: 2
#     Edge 53, Type (0, 1), BuildingBlock: ZUJKAS_clean_linker_0, # of connection points: 2
#     Edge 54, Type (0, 1), BuildingBlock: ZUJKAS_clean_linker_0, # of connection points: 2
#     Edge 55, Type (0, 1), BuildingBlock: ZUJKAS_clean_linker_0, # of connection points: 2
#     Edge 56, Type (0, 1), BuildingBlock: ZUJKAS_clean_linker_0, # of connection points: 2
#     Edge 57, Type (0, 1), BuildingBlock: ZUJKAS_clean_linker_0, # of connection points: 2
#     Edge 58, Type (0, 1), BuildingBlock: ZUJKAS_clean_linker_0, # of connection points: 2
#     Edge 59, Type (0, 1), BuildingBlock: ZUJKAS_clean_linker_0, # of connection points: 2
#     Edge 60, Type (0, 1), BuildingBlock: ZUJKAS_clean_linker_0, # of connection points: 2
#     Edge 61, Type (0, 1), BuildingBlock: ZUJKAS_clean_linker_0, # of connection points: 2
#     Edge 62, Type (0, 1), BuildingBlock: ZUJKAS_clean_linker_0, # of connection points: 2
#     Edge 63, Type (0, 1), BuildingBlock: ZUJKAS_clean_linker_0, # of connection points: 2
#     Edge 64, Type (0, 1), BuildingBlock: ZUJKAS_clean_linker_0, # of connection points: 2
#     Edge 65, Type (0, 1), BuildingBlock: ZUJKAS_clean_linker_0, # of connection points: 2
#     Edge 66, Type (0, 1), BuildingBlock: ZUJKAS_clean_linker_0, # of connection points: 2
#     Edge 67, Type (0, 1), BuildingBlock: ZUJKAS_clean_linker_0, # of connection points: 2
# Relax obj value: 0.218
# Max RMSD: 0.190
# Mean RMSD: 0.134
data_MOF--net-myd--node1-NAWXER_clean_sbu_0--node2-LEVNOQ01_clean_sbu_1--edge1-ZUJKAS_clean_linker_0
_symmetry_space_group_name_H-M    P1
_symmetry_Int_Tables_number       1
_symmetry_cell_setting            triclinic
loop_
_symmetry_equiv_pos_as_xyz
'x, y, z'
_cell_length_a     58.557441
_cell_length_b     59.201494
_cell_length_c     58.200061
_cell_angle_alpha  90.789522
_cell_angle_beta   91.346513
_cell_angle_gamma 92.245309
loop_
_atom_site_label
_atom_site_type_symbol
_atom_site_fract_x
_atom_site_fract_y
_atom_site_fract_z
_atom_type_partial_charge
C0 C 0.04727 0.23569 0.26645 0.0
C1 C 0.03055 0.29496 0.32322 0.0
O2 O 0.06275 0.24733 0.27762 0.0
Zn3 Zn 0.04146 0.26335 0.29743 0.0
O4 O 0.02626 0.2376 0.27116 0.0
Zn5 Zn 0.00505 0.25537 0.29327 0.0
O6 O 0.98702 0.27041 0.26976 0.0
O7 O 0.02369 0.28105 0.27103 0.0
O8 O 0.01312 0.28349 0.31515 0.0
O9 O 0.05053 0.2886 0.3188 0.0
O10 O 0.02976 0.23617 0.31811 0.0
O11 O 0.99267 0.23076 0.31175 0.0
C12 C 0.00364 0.28237 0.26197 0.0
C13 C 0.01108 0.22494 0.32165 0.0
C14 C 0.03608 0.78061 0.20902 0.0
C15 C 0.01917 0.72298 0.14964 0.0
O16 O 0.05113 0.76818 0.20051 0.0
Zn17 Zn 0.02984 0.75075 0.17994 0.0
O18 O 0.01499 0.7775 0.20329 0.0
Zn19 Zn 0.99322 0.75719 0.18171 0.0
O20 O 0.97513 0.73946 0.20351 0.0
O21 O 0.01129 0.73023 0.20303 0.0
O22 O 0.0019 0.73267 0.15768 0.0
O23 O 0.0392 0.72843 0.15739 0.0
O24 O 0.01814 0.77689 0.15881 0.0
O25 O 0.98077 0.78008 0.16178 0.0
C26 C 0.99109 0.7271 0.21062 0.0
C27 C -0.00025 0.78665 0.15331 0.0
C28 C 0.32147 0.99473 0.20044 0.0
C29 C 0.26219 0.98529 0.25784 0.0
O30 O 0.31231 0.97597 0.20653 0.0
Zn31 Zn 0.29356 0.98764 0.23096 0.0
O32 O 0.31682 0.01298 0.21105 0.0
Zn33 Zn 0.29528 0.02406 0.23708 0.0
O34 O 0.31503 0.03556 0.26217 0.0
O35 O 0.31613 -0.00155 0.25839 0.0
O36 O 0.27011 0.00549 0.25523 0.0
O37 O 0.27117 0.96882 0.2475 0.0
O38 O 0.27041 0.00674 0.21144 0.0
O39 O 0.27522 0.04338 0.21934 0.0
C40 C 0.32242 0.01682 0.26902 0.0
C41 C 0.26475 0.02713 0.20839 0.0
C42 C 0.70929 0.47983 0.21282 0.0
C43 C 0.64986 0.48777 0.27102 0.0
O44 O 0.69877 0.46295 0.2218 0.0
Zn45 Zn 0.67773 0.48066 0.24059 0.0
O46 O 0.70346 0.49983 0.21781 0.0
Zn47 Zn 0.68073 0.51788 0.23759 0.0
O48 O 0.70221 0.53491 0.25808 0.0
O49 O 0.70147 0.49783 0.26279 0.0
O50 O 0.65753 0.50596 0.26188 0.0
O51 O 0.65619 0.46871 0.26349 0.0
O52 O 0.65667 0.49428 0.21512 0.0
O53 O 0.66236 0.53146 0.21382 0.0
C54 C 0.70948 0.51759 0.26835 0.0
C55 C 0.65238 0.5133 0.2062 0.0
C56 C 0.21143 0.33466 0.00923 0.0
C57 C 0.26682 0.27558 -0.0032 0.0
O58 O 0.21819 0.32838 0.98957 0.0
Zn59 Zn 0.24089 0.30707 0.00034 0.0
O60 O 0.22129 0.32751 0.02738 0.0
Zn61 Zn 0.24643 0.30526 0.03773 0.0
O62 O 0.27189 0.32464 0.05068 0.0
O63 O 0.26908 0.32709 0.01292 0.0
O64 O 0.26408 0.28183 0.01765 0.0
O65 O 0.25662 0.28575 0.98054 0.0
O66 O 0.21944 0.28364 0.01768 0.0
O67 O 0.22673 0.28381 0.0551 0.0
C68 C 0.27936 0.33252 0.03192 0.0
C69 C 0.21517 0.27602 0.03764 0.0
C70 C 0.21372 0.73556 0.50018 0.0
C71 C 0.27285 0.67945 0.50595 0.0
O72 O 0.22479 0.72778 0.48344 0.0
Zn73 Zn 0.24293 0.70685 0.50113 0.0
O74 O 0.2169 0.72783 0.5204 0.0
Zn75 Zn 0.23659 0.70343 0.53761 0.0
O76 O 0.25436 0.72228 0.55975 0.0
O77 O 0.2626 0.72887 0.52338 0.0
O78 O 0.2626 0.68324 0.5247 0.0
O79 O 0.26697 0.68957 0.48769 0.0
O80 O 0.21821 0.68174 0.50939 0.0
O81 O 0.21349 0.6811 0.54691 0.0
C82 C 0.26573 0.73316 0.54483 0.0
C83 C 0.2083 0.67337 0.52686 0.0
C84 C 0.71035 0.83368 0.50929 0.0
C85 C 0.7672 0.77669 0.49571 0.0
O86 O 0.71754 0.82805 0.48962 0.0
Zn87 Zn 0.74112 0.8079 0.50019 0.0
O88 O 0.72042 0.82684 0.52751 0.0
Zn89 Zn 0.74719 0.80553 0.53724 0.0
O90 O 0.77275 0.825 0.54991 0.0
O91 O 0.7679 0.82959 0.51263 0.0
O92 O 0.76455 0.78217 0.51677 0.0
O93 O 0.75743 0.78765 0.4798 0.0
O94 O 0.7207 0.78343 0.51761 0.0
O95 O 0.72869 0.78369 0.55501 0.0
C96 C 0.77879 0.83452 0.53141 0.0
C97 C 0.7172 0.77559 0.53764 0.0
C98 C 0.50055 0.78856 0.77059 0.0
C99 C 0.51679 0.72994 0.82669 0.0
O100 O 0.48499 0.77705 0.78074 0.0
Zn101 Zn 0.50626 0.76097 0.80089 0.0
O102 O 0.52156 0.78586 0.77575 0.0
Zn103 Zn 0.54316 0.76738 0.79705 0.0
O104 O 0.55882 0.75059 0.77262 0.0
O105 O 0.52192 0.74201 0.77502 0.0
O106 O 0.53458 0.74023 0.81895 0.0
O107 O 0.49705 0.73714 0.82194 0.0
O108 O 0.51962 0.7881 0.82162 0.0
O109 O 0.55661 0.79273 0.81584 0.0
C110 C 0.54102 0.7392 0.7654 0.0
C111 C 0.53857 0.79908 0.82548 0.0
C112 C 0.49132 0.22662 0.7042 0.0
C113 C 0.49777 0.28479 0.6452 0.0
O114 O 0.47442 0.23598 0.69456 0.0
Zn115 Zn 0.49239 0.25507 0.67388 0.0
O116 O 0.51166 0.2319 0.69809 0.0
Zn117 Zn 0.5296 0.25306 0.67507 0.0
O118 O 0.54743 0.27295 0.69652 0.0
O119 O 0.51001 0.27641 0.69808 0.0
O120 O 0.51677 0.27681 0.65184 0.0
O121 O 0.47913 0.27698 0.65339 0.0
O122 O 0.50554 0.23076 0.65155 0.0
O123 O 0.54321 0.23049 0.65577 0.0
C124 C 0.53023 0.28195 0.70539 0.0
C125 C 0.52468 0.22267 0.64628 0.0
C126 C 0.76528 0.52621 0.70729 0.0
C127 C 0.82254 0.51481 0.76811 0.0
O128 O 0.77435 0.54217 0.71978 0.0
Zn129 Zn 0.79549 0.52297 0.73661 0.0
O130 O 0.77135 0.50591 0.70992 0.0
Zn131 Zn 0.7934 0.48636 0.72955 0.0
O132 O 0.77046 0.4677 0.74583 0.0
O133 O 0.77175 0.50392 0.75584 0.0
O134 O 0.81534 0.4967 0.75756 0.0
O135 O 0.81658 0.534 0.76101 0.0
O136 O 0.81657 0.51226 0.71013 0.0
O137 O 0.81283 0.47527 0.70514 0.0
C138 C 0.76352 0.48382 0.75833 0.0
C139 C 0.82159 0.4943 0.69923 0.0
C140 C 0.21287 0.00929 0.71124 0.0
C141 C 0.15748 0.01732 0.7726 0.0
O142 O 0.20463 0.99068 0.71915 0.0
Zn143 Zn 0.18085 0.9786 0.74374 0.0
O144 O 0.2062 0.02808 0.71911 0.0
Zn145 Zn 0.18425 0.01542 0.74071 0.0
O146 O 0.20693 0.00072 0.76428 0.0
O147 O 0.20073 0.9636 0.76579 0.0
O148 O 0.1659 0.03371 0.76118 0.0
O149 O 0.1618 0.99701 0.76708 0.0
O150 O 0.15782 0.96257 0.72417 0.0
O151 O 0.16016 -0.0007 0.71806 0.0
C152 C 0.21175 0.98156 0.77259 0.0
C153 C 0.15158 0.97964 0.71288 0.0
C154 C 0.70355 0.17228 0.0347 0.0
C155 C 0.7656 0.22968 0.0377 0.0
O156 O 0.71086 0.1827 0.05284 0.0
Zn157 Zn 0.73417 0.20159 0.03821 0.0
O158 O 0.712 0.17704 0.01525 0.0
Zn159 Zn 0.73624 0.19922 0.00095 0.0
O160 O 0.758 0.17953 0.98749 0.0
O161 O 0.75802 0.17834 0.02552 0.0
O162 O 0.75937 0.22233 0.01769 0.0
O163 O 0.75526 0.22245 0.05536 0.0
O164 O 0.71427 0.22486 0.01977 0.0
O165 O 0.71738 0.21873 0.98243 0.0
C166 C 0.76596 0.17191 0.00628 0.0
C167 C 0.7091 0.22974 -0.001 0.0
O168 O 0.04359 0.09228 0.0697 0.0
Mg169 Mg 0.06013 0.0743 0.04263 0.0
O170 O 0.01772 0.06453 0.07198 0.0
Mg171 Mg 0.02795 0.05318 0.03554 0.0
O172 O 0.06553 0.04203 0.04929 0.0
O173 O 0.09249 0.07008 0.05268 0.0
O174 O 0.04007 0.04298 -0.00126 0.0
O175 O 0.02089 0.01566 0.04532 0.0
Mg176 Mg 0.98867 0.02923 0.00359 0.0
O177 O 0.99094 0.05786 0.02376 0.0
O178 O 0.01056 0.03263 0.97583 0.0
O179 O 0.99239 0.00034 0.0239 0.0
O180 O 0.9593 0.0469 0.00388 0.0
C181 C 0.04738 0.1002 0.0124 0.0
C182 C 0.02685 0.08299 0.07989 0.0
C183 C 0.08645 0.04901 0.05418 0.0
C184 C 0.03174 0.03703 0.97899 0.0
C185 C 0.00752 -0.00116 0.0397 0.0
C186 C 0.96999 0.06122 0.01759 0.0
O187 O 0.06282 0.08661 0.00851 0.0
O188 O 0.03138 0.09303 0.02514 0.0
O189 O 0.95981 0.4641 0.09364 0.0
Mg190 Mg 0.93417 0.45072 0.07032 0.0
O191 O 0.97099 0.44078 0.06797 0.0
Mg192 Mg 0.94825 0.45685 0.03721 0.0
O193 O 0.91074 0.46787 0.05265 0.0
O194 O 0.90629 0.45521 0.08859 0.0
O195 O 0.92918 0.46991 0.00288 0.0
O196 O 0.96055 0.49292 0.05006 0.0
Mg197 Mg 0.97857 0.47682 0.00736 0.0
O198 O 0.98388 0.44622 0.02197 0.0
O199 O 0.95686 0.47908 0.97955 0.0
O200 O 0.98621 0.50601 0.02627 0.0
O201 O 0.00731 0.46371 -0.00287 0.0
C202 C 0.931 0.40756 0.04392 0.0
C203 C 0.97282 0.44849 0.08841 0.0
C204 C 0.89852 0.46555 0.07101 0.0
C205 C 0.93583 0.47662 0.9832 0.0
C206 C 0.97479 0.50842 0.04413 0.0
C207 C 0.00271 0.44693 0.01035 0.0
O208 O 0.93248 0.41508 0.06438 0.0
O209 O 0.93436 0.42112 0.02748 0.0
O210 O 0.09518 0.94209 0.41993 0.0
Mg211 Mg 0.06341 0.92627 0.41899 0.0
O212 O 0.07288 0.9707 0.42254 0.0
Mg213 Mg 0.03761 0.95527 0.43764 0.0
O214 O 0.0504 0.91862 0.45032 0.0
O215 O 0.06873 0.89455 0.42751 0.0
O216 O 0.00211 0.94146 0.45231 0.0
O217 O 0.05205 0.96569 0.47358 0.0
Mg218 Mg 0.01082 0.99223 0.45901 0.0
O219 O 0.02678 0.99216 0.42796 0.0
O220 O 0.98164 0.97083 0.46081 0.0
O221 O 0.03387 0.99469 0.48753 0.0
O222 O 0.00634 0.02076 0.44121 0.0
C223 C 0.0278 0.93151 0.38549 0.0
C224 C 0.09267 0.96303 0.41921 0.0
C225 C 0.05978 0.8992 0.44687 0.0
C226 C 0.98333 0.9497 0.45862 0.0
C227 C 0.04928 0.98037 0.48934 0.0
C228 C 0.01895 0.01238 0.42561 0.0
O229 O 0.04662 0.92221 0.38756 0.0
O230 O 0.02083 0.94398 0.40164 0.0
O231 O 0.91421 0.6088 0.42964 0.0
Mg232 Mg 0.92894 0.59177 0.40319 0.0
O233 O 0.92703 0.58576 0.45642 0.0
Mg234 Mg 0.94529 0.55359 0.44058 0.0
O235 O 0.95569 0.56984 0.40575 0.0
O236 O 0.9604 0.60371 0.4195 0.0
O237 O 0.96218 0.52031 0.42575 0.0
O238 O 0.98019 0.56854 0.4552 0.0
Mg239 Mg 0.96603 0.52396 0.48034 0.0
O240 O 0.93493 0.5373 0.47472 0.0
O241 O 0.97367 0.49994 0.45527 0.0
O242 O 0.99047 0.55022 0.48655 0.0
O243 O 0.9429 0.51601 0.50501 0.0
C244 C 0.89729 0.54813 0.41192 0.0
C245 C 0.9165 0.60343 0.45046 0.0
C246 C 0.96767 0.58846 0.40629 0.0
C247 C 0.97131 0.50261 0.4338 0.0
C248 C 0.99366 0.56611 0.47247 0.0
C249 C 0.92878 0.52829 0.49391 0.0
O250 O 0.90179 0.5666 0.40184 0.0
O251 O 0.91111 0.53973 0.42627 0.0
O252 O 0.45324 0.95349 0.59636 0.0
Mg253 Mg 0.42999 0.94247 0.56951 0.0
O254 O 0.46871 0.93825 0.56697 0.0
Mg255 Mg 0.44718 0.95636 0.5373 0.0
O256 O 0.4099 0.96506 0.55362 0.0
O257 O 0.39914 0.943 0.58306 0.0
O258 O 0.42811 0.97158 0.50397 0.0
O259 O 0.45903 0.99134 0.55293 0.0
Mg260 Mg 0.47433 0.9756 0.50572 0.0
O261 O 0.4841 0.94829 0.52404 0.0
O262 O 0.45369 0.96682 0.47762 0.0
O263 O 0.47147 0.00768 0.52169 0.0
O264 O 0.50713 0.96828 0.50079 0.0
C265 C 0.4309 0.90513 0.53551 0.0
C266 C 0.469 0.94204 0.58851 0.0
C267 C 0.39488 0.95875 0.56879 0.0
C268 C 0.43328 0.9699 0.48275 0.0
C269 C 0.46602 0.00897 0.54254 0.0
C270 C 0.50371 0.95134 0.51416 0.0
O271 O 0.43118 0.90853 0.557 0.0
O272 O 0.43421 0.92176 0.52232 0.0
O273 O 0.53608 0.55439 0.5918 0.0
Mg274 Mg 0.5553 0.56755 0.56454 0.0
O275 O 0.51595 0.57225 0.5671 0.0
Mg276 Mg 0.5304 0.5532 0.53337 0.0
O277 O 0.56793 0.54296 0.54522 0.0
O278 O 0.58864 0.56421 0.5711 0.0
O279 O 0.54301 0.5372 0.49918 0.0
O280 O 0.52045 0.51839 0.54883 0.0
Mg281 Mg 0.49101 0.52615 0.50522 0.0
O282 O 0.49425 0.55837 0.51914 0.0
O283 O 0.51446 0.52035 0.4791 0.0
O284 O 0.48983 0.50211 0.53162 0.0
O285 O 0.46343 0.54554 0.49892 0.0
C286 C 0.54754 0.60488 0.53237 0.0
C287 C 0.52087 0.56837 0.58811 0.0
C288 C 0.5867 0.54716 0.55709 0.0
C289 C 0.53543 0.52623 0.48138 0.0
C290 C 0.50543 0.50226 0.54711 0.0
C291 C 0.4738 0.56134 0.51111 0.0
O292 O 0.55121 0.60116 0.55343 0.0
O293 O 0.54193 0.58838 0.51884 0.0
O294 O 0.59463 0.46631 0.93526 0.0
Mg295 Mg 0.56889 0.44118 0.9261 0.0
O296 O 0.56617 0.47813 0.91529 0.0
Mg297 Mg 0.53725 0.45822 0.9368 0.0
O298 O 0.55295 0.42258 0.95024 0.0
O299 O 0.58415 0.41211 0.93148 0.0
O300 O 0.50448 0.4403 0.95614 0.0
O301 O 0.55541 0.47175 0.96969 0.0
Mg302 Mg 0.50906 0.48174 0.95379 0.0
O303 O 0.52425 0.49437 0.9251 0.0
O304 O 0.47838 0.4644 0.94762 0.0
O305 O 0.52372 0.47753 0.98719 0.0
O306 O 0.5046 0.51489 0.95003 0.0
C307 C 0.53527 0.43868 0.88702 0.0
C308 C 0.58737 0.47968 0.92042 0.0
C309 C 0.56928 0.40855 0.94706 0.0
C310 C 0.48337 0.44545 0.95537 0.0
C311 C 0.54498 0.47497 0.98814 0.0
C312 C 0.51556 0.51344 0.93117 0.0
O313 O 0.55656 0.43903 0.89132 0.0
O314 O 0.52167 0.44299 0.90306 0.0
O315 O 0.44426 0.10814 0.95054 0.0
Mg316 Mg 0.43226 0.08262 0.92665 0.0
O317 O 0.42222 0.08194 0.96378 0.0
Mg318 Mg 0.44253 0.05308 0.94234 0.0
O319 O 0.45261 0.06878 0.90384 0.0
O320 O 0.43397 0.10079 0.89835 0.0
O321 O 0.45936 0.02009 0.92608 0.0
O322 O 0.47749 0.0691 0.95478 0.0
Mg323 Mg 0.46655 0.02213 0.98086 0.0
O324 O 0.4362 0.03724 0.97707 0.0
O325 O 0.4678 0.99752 0.95503 0.0
O326 O 0.49322 0.04733 0.98119 0.0
O327 O 0.44464 0.01738 0.00793 0.0
C328 C 0.3923 0.05125 0.92363 0.0
C329 C 0.42867 0.10266 0.96407 0.0
C330 C 0.44745 0.08587 0.89103 0.0
C331 C 0.4658 0.00097 0.93365 0.0
C332 C 0.49374 0.0648 0.9688 0.0
C333 C 0.4304 0.02947 -0.00319 0.0
O334 O 0.3969 0.0723 0.92362 0.0
O335 O 0.40786 0.03792 0.92925 0.0
H336 H 0.03939 0.215 0.35775 0.0
H337 H 0.04565 0.17753 0.3739 0.0
H338 H 0.99324 0.14828 0.3282 0.0
H339 H 0.98651 0.18571 0.31236 0.0
H340 H 0.00213 0.14171 0.38931 0.0
H341 H 0.06434 0.11727 0.32332 0.0
H342 H 0.06147 0.1463 0.3325 0.0
H343 H 0.03976 0.13271 0.31438 0.0
C344 C 0.02889 0.20063 0.35149 0.0
C345 C 0.01221 0.20332 0.33404 0.0
C346 C 0.03262 0.17926 0.36059 0.0
C347 C 0.02007 0.16018 0.35204 0.0
C348 C 0.0031 0.16285 0.33498 0.0
H349 H -0.00342 0.0216 0.3857 0.0
H350 H 0.00069 0.05749 0.36528 0.0
C351 C -0.00092 0.18426 0.32615 0.0
C352 C 0.02447 0.1374 0.36095 0.0
H353 H 0.05203 0.08883 0.34902 0.0
C354 C 0.01313 0.13019 0.38062 0.0
C355 C 0.03905 0.12256 0.34965 0.0
C356 C 0.05202 0.12997 0.32882 0.0
C357 C 0.01544 0.10822 0.38892 0.0
C358 C 0.02934 0.09306 0.37715 0.0
C359 C 0.04125 0.10045 0.35785 0.0
C360 C 0.03084 0.06933 0.38468 0.0
C361 C 0.00279 0.10111 0.41009 0.0
C362 C 0.04722 0.06366 0.40137 0.0
C363 C 0.04512 0.04299 0.4127 0.0
C364 C 0.0266 0.02781 0.40754 0.0
C365 C 0.01136 0.03272 0.3895 0.0
C366 C 0.01357 0.0533 0.37802 0.0
H367 H 0.99327 0.11514 0.4177 0.0
H368 H 0.99048 0.08689 0.40567 0.0
H369 H 0.01505 0.095 0.42323 0.0
H370 H 0.06051 0.07591 0.40692 0.0
H371 H 0.05664 0.03988 0.42706 0.0
H372 H 0.05511 0.3179 0.35834 0.0
H373 H 0.04617 0.3547 0.37575 0.0
H374 H 0.98929 0.35968 0.32787 0.0
H375 H -0.00272 0.32295 0.31156 0.0
H376 H 0.04428 0.39666 0.35983 0.0
H377 H 0.95694 0.37068 0.38555 0.0
H378 H 0.97693 0.35055 0.3756 0.0
H379 H 0.96042 0.36641 0.35535 0.0
C380 C 0.04061 0.32685 0.35178 0.0
C381 C 0.02658 0.31729 0.33399 0.0
C382 C 0.03551 0.34786 0.36166 0.0
C383 C 0.01654 0.35973 0.35364 0.0
C384 C 0.00335 0.35056 0.33512 0.0
H385 H 0.95662 0.48954 0.38979 0.0
H386 H 0.96857 0.45618 0.36788 0.0
C387 C 0.00806 0.32952 0.32571 0.0
C388 C 0.0105 0.38183 0.36413 0.0
H389 H 0.96592 0.41032 0.38604 0.0
C390 C 0.02718 0.39956 0.36568 0.0
C391 C 0.98813 0.3858 0.37178 0.0
C392 C 0.96968 0.36727 0.37221 0.0
C393 C 0.02204 0.42107 0.37431 0.0
C394 C -0.00035 0.42502 0.38164 0.0
C395 C 0.98296 0.4074 0.38001 0.0
C396 C 0.99379 0.44648 0.39332 0.0
C397 C 0.04061 0.43946 0.37544 0.0
C398 C 0.00401 0.45211 0.41473 0.0
C399 C -0.00285 0.47084 0.4272 0.0
C400 C 0.97985 0.48454 0.41863 0.0
C401 C 0.97007 0.47942 0.39678 0.0
C402 C 0.97683 0.46035 0.38433 0.0
H403 H 0.05467 0.43588 0.36359 0.0
H404 H 0.03367 0.45612 0.37115 0.0
H405 H 0.04798 0.44063 0.39319 0.0
H406 H 0.0168 0.44151 0.42222 0.0
H407 H 0.00514 0.4743 0.44392 0.0
H408 H 0.035 0.81713 0.15514 0.0
H409 H 0.03877 0.85279 0.13505 0.0
H410 H 0.97432 0.83788 0.09943 0.0
H411 H 0.96979 0.80249 0.1208 0.0
H412 H 0.04191 0.86523 0.09247 0.0
H413 H 0.96222 0.89766 0.12773 0.0
H414 H 0.97424 0.87183 0.1375 0.0
H415 H 0.95709 0.87202 0.11138 0.0
C416 C 0.02159 0.82145 0.14301 0.0
C417 C 0.00189 0.80732 0.13973 0.0
C418 C 0.02384 0.8418 0.13148 0.0
C419 C 0.0066 0.84827 0.11614 0.0
C420 C 0.98746 0.83355 0.11182 0.0
H421 H 0.9857 0.95875 0.0281 0.0
H422 H 0.98863 0.92264 0.04722 0.0
C423 C 0.98488 0.81337 0.1239 0.0
C424 C 0.00839 0.87084 0.10557 0.0
H425 H 0.97979 0.91945 0.09853 0.0
C426 C 0.02838 0.87713 0.0939 0.0
C427 C 0.99099 0.88658 0.10797 0.0
C428 C 0.97006 0.8818 0.12204 0.0
C429 C 0.03098 0.89846 0.08383 0.0
C430 C 0.01304 0.91358 0.08528 0.0
C431 C 0.99339 0.90757 0.09737 0.0
C432 C 0.01336 0.93511 0.07296 0.0
C433 C 0.05254 0.90461 0.07128 0.0
C434 C 0.02643 0.95398 0.08121 0.0
C435 C 0.02478 0.97481 0.07034 0.0
C436 C 0.00988 0.97695 0.05121 0.0
C437 C -0.00284 0.95779 0.0429 0.0
C438 C -0.00112 0.9371 0.0537 0.0
H439 H 0.06442 0.89044 0.07066 0.0
H440 H 0.04823 0.90966 0.05344 0.0
H441 H 0.0615 0.91933 0.08001 0.0
H442 H 0.0375 0.95269 0.09628 0.0
H443 H 0.03485 0.98924 0.0771 0.0
H444 H 0.97777 0.70792 0.13266 0.0
H445 H 0.96835 0.67178 0.11431 0.0
H446 H 0.0401 0.65848 0.11032 0.0
H447 H 0.04982 0.69448 0.13032 0.0
H448 H 0.97532 0.65002 0.07654 0.0
H449 H 0.0182 0.60672 0.14857 0.0
H450 H 0.01434 0.63677 0.14881 0.0
H451 H 0.03753 0.62502 0.13339 0.0
C452 C 0.99171 0.69749 0.12777 0.0
C453 C 0.01459 0.70373 0.13365 0.0
C454 C 0.98621 0.67681 0.11714 0.0
C455 C 0.00347 0.66211 0.11178 0.0
C456 C 0.02649 0.66929 0.11524 0.0
H457 H 0.009 0.54012 0.04069 0.0
H458 H 0.01232 0.57706 0.05953 0.0
C459 C 0.03205 0.68992 0.12641 0.0
C460 C -0.00295 0.63879 0.10423 0.0
H461 H 0.00512 0.58351 0.11676 0.0
C462 C 0.98169 0.63549 0.08545 0.0
C463 C 0.00473 0.61986 0.11642 0.0
C464 C 0.01939 0.62223 0.13807 0.0
C465 C 0.97481 0.6137 0.07784 0.0
C466 C 0.98383 0.59497 0.08905 0.0
C467 C -0.00164 0.59813 0.10831 0.0
C468 C 0.98142 0.57231 0.07875 0.0
C469 C 0.95852 0.61064 0.05746 0.0
C470 C 0.96306 0.55748 0.08384 0.0
C471 C 0.9611 0.53618 0.07313 0.0
C472 C 0.97746 0.52977 0.05723 0.0
C473 C -0.00395 0.54463 0.05274 0.0
C474 C -0.002 0.56571 0.06344 0.0
H475 H 0.95155 0.6269 0.05182 0.0
H476 H 0.96749 0.60293 0.04289 0.0
H477 H 0.94408 0.59888 0.06185 0.0
H478 H 0.95019 0.5625 0.09576 0.0
H479 H 0.94656 0.52504 0.07681 0.0
H480 H 0.31514 0.97003 0.1606 0.0
H481 H 0.33 0.98012 0.12277 0.0
H482 H 0.37017 0.03544 0.15396 0.0
H483 H 0.3554 0.02557 0.1916 0.0
H484 H 0.32524 0.02593 0.10209 0.0
H485 H 0.41517 0.0002 0.11327 0.0
H486 H 0.39232 0.98893 0.13057 0.0
H487 H 0.40429 0.01688 0.13632 0.0
C488 C 0.32771 0.98386 0.15945 0.0
C489 C 0.33434 0.99688 0.17904 0.0
C490 C 0.3359 0.98981 0.13783 0.0
C491 C 0.35107 0.00857 0.13563 0.0
C492 C 0.35853 0.02087 0.15533 0.0
H493 H 0.42523 0.06616 0.02367 0.0
H494 H 0.40009 0.06633 0.0567 0.0
C495 C 0.3502 0.01512 0.17682 0.0
C496 C 0.35878 0.01578 0.11275 0.0
H497 H 0.40618 0.02072 0.08004 0.0
C498 C 0.34291 0.02473 0.09717 0.0
C499 C 0.38186 0.01444 0.10658 0.0
C500 C 0.39943 0.00446 0.12244 0.0
C501 C 0.34964 0.0323 0.07545 0.0
C502 C 0.37268 0.03074 0.0693 0.0
C503 C 0.38853 0.02208 0.08499 0.0
C504 C 0.38078 0.03594 0.04605 0.0
C505 C 0.33234 0.04205 0.0592 0.0
C506 C 0.37718 0.01964 0.02848 0.0
C507 C 0.39163 0.01946 0.00971 0.0
C508 C 0.40957 0.03573 0.00829 0.0
C509 C 0.41119 0.05371 0.02426 0.0
C510 C 0.39693 0.05375 0.04318 0.0
H511 H 0.31585 0.04492 0.06763 0.0
H512 H 0.33915 0.05832 0.05234 0.0
H513 H 0.32912 0.03026 0.04438 0.0
H514 H 0.365 0.00561 0.03057 0.0
H515 H 0.39044 0.0052 -0.00219 0.0
H516 H 0.66571 0.52939 0.16528 0.0
H517 H 0.64828 0.51897 0.1276 0.0
H518 H 0.59294 0.48337 0.16099 0.0
H519 H 0.61058 0.49332 0.19868 0.0
H520 H 0.63001 0.4645 0.11587 0.0
H521 H 0.57147 0.53646 0.1102 0.0
H522 H 0.59848 0.53908 0.12585 0.0
H523 H 0.57533 0.52238 0.13724 0.0
C524 C 0.64942 0.52004 0.16451 0.0
C525 C 0.63904 0.51264 0.18468 0.0
C526 C 0.63979 0.51373 0.14309 0.0
C527 C 0.61959 0.50025 0.14176 0.0
C528 C 0.60869 0.49362 0.16188 0.0
H529 H 0.52633 0.46831 0.02979 0.0
H530 H 0.54591 0.4694 0.06725 0.0
C531 C 0.6185 0.49961 0.18326 0.0
C532 C 0.6094 0.49368 0.11926 0.0
H533 H 0.56974 0.50992 0.07991 0.0
C534 C 0.61685 0.47435 0.10786 0.0
C535 C 0.59222 0.50656 0.10923 0.0
C536 C 0.58381 0.52735 0.12111 0.0
C537 C 0.60732 0.46758 0.08636 0.0
C538 C 0.59025 0.48071 0.07625 0.0
C539 C 0.58285 0.49992 0.08782 0.0
C540 C 0.57962 0.4753 0.05359 0.0
C541 C 0.61516 0.44638 0.0748 0.0
C542 C 0.59227 0.47778 0.03355 0.0
C543 C 0.58111 0.47719 0.01206 0.0
C544 C 0.55716 0.47448 0.01049 0.0
C545 C 0.54474 0.47097 0.03055 0.0
C546 C 0.5559 0.47131 0.05191 0.0
H547 H 0.62512 0.43588 0.08679 0.0
H548 H 0.60028 0.43608 0.06775 0.0
H549 H 0.62619 0.45106 0.06023 0.0
H550 H 0.61057 0.48127 0.0346 0.0
H551 H 0.59109 0.47969 -0.00321 0.0
H552 H 0.35252 0.98489 0.28097 0.0
H553 H 0.36917 0.97848 0.31927 0.0
H554 H 0.33719 0.03765 0.34529 0.0
H555 H 0.32074 0.04443 0.30689 0.0
H556 H 0.39571 0.01871 0.35214 0.0
H557 H 0.31745 0.97221 0.38191 0.0
H558 H 0.32534 0.97172 0.35209 0.0
H559 H 0.31475 0.997 0.36446 0.0
C560 C 0.34941 0.99679 0.29475 0.0
C561 C 0.33551 0.01528 0.29092 0.0
C562 C 0.35882 0.99303 0.3166 0.0
C563 C 0.35418 0.00749 0.33503 0.0
C564 C 0.34089 0.02633 0.33119 0.0
H565 H 0.39634 0.99748 0.48087 0.0
H566 H 0.37453 0.00725 0.4458 0.0
C567 C 0.33172 0.03029 0.30924 0.0
C568 C 0.36296 0.00257 0.35837 0.0
H569 H 0.34891 0.97565 0.40799 0.0
C570 C 0.38545 0.00951 0.36446 0.0
C571 C 0.34949 0.99044 0.37424 0.0
C572 C 0.32539 0.98228 0.36802 0.0
C573 C 0.39493 0.00446 0.38606 0.0
C574 C 0.38161 0.99201 0.40185 0.0
C575 C 0.35896 0.98539 0.39591 0.0
C576 C 0.39186 0.98414 0.42365 0.0
C577 C 0.41931 0.01214 0.39176 0.0
C578 C 0.40801 0.96737 0.42283 0.0
C579 C 0.42033 0.96187 0.44257 0.0
C580 C 0.41669 0.97291 0.46364 0.0
C581 C 0.39937 0.98863 0.46488 0.0
C582 C 0.38703 0.99427 0.44489 0.0
H583 H 0.42561 0.02542 0.37991 0.0
H584 H 0.42091 0.01879 0.40969 0.0
H585 H 0.43049 0.9975 0.3903 0.0
H586 H 0.41178 0.95919 0.40665 0.0
H587 H 0.43344 0.94953 0.44115 0.0
H588 H 0.62689 0.45479 0.29609 0.0
H589 H 0.60809 0.46032 0.33311 0.0
H590 H 0.62663 0.53151 0.33169 0.0
H591 H 0.64401 0.52653 0.29493 0.0
H592 H 0.62591 0.47539 0.37402 0.0
H593 H 0.56103 0.53517 0.34544 0.0
H594 H 0.5775 0.51957 0.32529 0.0
H595 H 0.58929 0.5452 0.33876 0.0
C596 C 0.62646 0.47164 0.30351 0.0
C597 C 0.63666 0.49019 0.2923 0.0
C598 C 0.61587 0.47478 0.32468 0.0
C599 C 0.6155 0.49646 0.33494 0.0
C600 C 0.62591 0.5148 0.32383 0.0
H601 H 0.57426 0.54949 0.46825 0.0
H602 H 0.59696 0.54177 0.43415 0.0
C603 C 0.636 0.5118 0.3027 0.0
C604 C 0.60517 0.50012 0.35768 0.0
H605 H 0.56791 0.53306 0.38595 0.0
C606 C 0.61307 0.48784 0.37657 0.0
C607 C 0.58858 0.5166 0.36109 0.0
C608 C 0.57847 0.52971 0.3415 0.0
C609 C 0.60488 0.49168 0.39873 0.0
C610 C 0.58851 0.5082 0.40201 0.0
C611 C 0.58074 0.5206 0.38329 0.0
C612 C 0.57733 0.51133 0.42421 0.0
C613 C 0.61366 0.47813 0.41858 0.0
C614 C 0.55904 0.49667 0.42981 0.0
C615 C 0.54589 0.50123 0.44885 0.0
C616 C 0.55098 0.52043 0.46279 0.0
C617 C 0.57004 0.53455 0.45782 0.0
C618 C 0.58299 0.53017 0.43843 0.0
H619 H 0.62852 0.46809 0.41384 0.0
H620 H 0.61872 0.48954 0.43329 0.0
H621 H 0.59978 0.4664 0.4244 0.0
H622 H 0.55439 0.48216 0.41889 0.0
H623 H 0.53142 0.48996 0.45241 0.0
H624 H 0.18568 0.33562 0.04726 0.0
H625 H 0.14788 0.35029 0.05136 0.0
H626 H 0.15027 0.37602 0.98243 0.0
H627 H 0.18809 0.36019 0.9777 0.0
H628 H 0.13037 0.3902 0.05055 0.0
H629 H 0.09191 0.33859 0.97864 0.0
H630 H 0.12046 0.33445 0.98969 0.0
H631 H 0.11521 0.35646 0.96935 0.0
C632 C 0.17837 0.34458 0.03293 0.0
C633 C 0.18989 0.34661 0.01201 0.0
C634 C 0.15664 0.35293 0.03536 0.0
C635 C 0.14595 0.36374 0.01705 0.0
C636 C 0.1579 0.36702 -0.00345 0.0
H637 H 0.03868 0.44121 0.98311 0.0
H638 H 0.0708 0.41745 0.98927 0.0
C639 C 0.17958 0.35821 0.99391 0.0
C640 C 0.12217 0.37115 0.01939 0.0
H641 H 0.0698 0.36898 0.9924 0.0
C642 C 0.11702 0.38531 0.03803 0.0
C643 C 0.10454 0.36414 0.00352 0.0
C644 C 0.10823 0.34736 0.98435 0.0
C645 C 0.0952 0.39414 0.04006 0.0
C646 C 0.07826 0.38865 0.023 0.0
C647 C 0.08292 0.37321 0.0054 0.0
C648 C 0.05774 0.40215 0.02007 0.0
C649 C 0.09078 0.41029 0.05957 0.0
C650 C 0.03945 0.40122 0.03531 0.0
C651 C 0.02074 0.41506 0.03185 0.0
C652 C 0.02029 0.42987 0.01314 0.0
C653 C 0.03841 0.43008 -0.00227 0.0
C654 C 0.05687 0.41648 0.0012 0.0
H655 H 0.10601 0.41323 0.07113 0.0
H656 H 0.08561 0.42677 0.05266 0.0
H657 H 0.07648 0.4034 0.06989 0.0
H658 H 0.03976 0.39004 0.04988 0.0
H659 H 0.00708 0.41465 0.04409 0.0
H660 H 0.19925 0.64877 0.48784 0.0
H661 H 0.16297 0.62999 0.47647 0.0
H662 H 0.13771 0.64111 0.54457 0.0
H663 H 0.17392 0.66084 0.55595 0.0
H664 H 0.13553 0.5952 0.48933 0.0
H665 H 0.09446 0.67667 0.50462 0.0
H666 H 0.12505 0.67412 0.50547 0.0
H667 H 0.10839 0.66632 0.52994 0.0
C668 C 0.18612 0.64694 0.50057 0.0
C669 C 0.18912 0.65687 0.5226 0.0
C670 C 0.16542 0.63613 0.49402 0.0
C671 C 0.14744 0.63495 0.50943 0.0
C672 C 0.15123 0.64258 0.53223 0.0
H673 H 0.01614 0.57621 0.51263 0.0
H674 H 0.05343 0.59562 0.51787 0.0
C675 C 0.17196 0.6536 0.53879 0.0
C676 C 0.12434 0.62756 0.50098 0.0
H677 H 0.0694 0.6446 0.49655 0.0
C678 C 0.12111 0.60605 0.49072 0.0
C679 C 0.10573 0.6421 0.5021 0.0
C680 C 0.10858 0.66618 0.51088 0.0
C681 C 0.0994 0.5982 0.4828 0.0
C682 C 0.08063 0.61217 0.48543 0.0
C683 C 0.08397 0.634 0.4947 0.0
C684 C 0.05712 0.60309 0.48187 0.0
C685 C 0.09635 0.57474 0.47246 0.0
C686 C 0.04672 0.60167 0.45992 0.0
C687 C 0.02521 0.59074 0.45687 0.0
C688 C 0.01423 0.58094 0.47573 0.0
C689 C 0.02434 0.58343 0.49778 0.0
C690 C 0.04557 0.59451 0.50082 0.0
H691 H 0.11282 0.5662 0.47103 0.0
H692 H 0.08473 0.56428 0.48318 0.0
H693 H 0.08825 0.57564 0.45507 0.0
H694 H 0.05553 0.60832 0.44516 0.0
H695 H 0.01776 0.58897 0.43969 0.0
H696 H 0.78495 0.87174 0.50539 0.0
H697 H 0.82139 0.89042 0.49546 0.0
H698 H 0.85697 0.84763 0.54243 0.0
H699 H 0.82034 0.82906 0.5528 0.0
H700 H 0.86219 0.90983 0.53044 0.0
H701 H 0.87893 0.8393 0.46944 0.0
H702 H 0.85021 0.84645 0.47656 0.0
H703 H 0.86783 0.83296 0.4974 0.0
C704 C 0.80047 0.86677 0.51412 0.0
C705 C 0.79981 0.8491 0.53004 0.0
C706 C 0.82126 0.87736 0.50832 0.0
C707 C 0.84184 0.87022 0.51802 0.0
C708 C 0.84122 0.85333 0.53475 0.0
H709 H 0.98212 0.90681 0.47662 0.0
H710 H 0.94831 0.88604 0.49128 0.0
C711 C 0.82031 0.84293 0.54085 0.0
C712 C 0.86389 0.87971 0.50962 0.0
H713 H 0.90574 0.87002 0.47107 0.0
C714 C 0.87185 0.90108 0.51762 0.0
C715 C 0.87633 0.86825 0.49282 0.0
C716 C 0.86801 0.84547 0.48337 0.0
C717 C 0.89195 0.91137 0.5092 0.0
C718 C 0.90418 0.90017 0.49196 0.0
C719 C 0.89642 0.87857 0.48428 0.0
C720 C 0.9244 0.91124 0.48108 0.0
C721 C 0.89994 0.93417 0.51893 0.0
C722 C 0.92204 0.93171 0.46961 0.0
C723 C 0.94118 0.94357 0.46148 0.0
C724 C 0.96315 0.93506 0.46422 0.0
C725 C 0.96541 0.91377 0.47427 0.0
C726 C 0.94613 0.90196 0.48271 0.0
H727 H 0.89276 0.93736 0.53612 0.0
H728 H 0.91889 0.93559 0.52045 0.0
H729 H 0.89412 0.94758 0.50729 0.0
H730 H 0.90539 0.93888 0.4675 0.0
H731 H 0.93883 0.95976 0.45347 0.0
H732 H 0.2812 0.64624 0.53632 0.0
H733 H 0.31736 0.62786 0.54318 0.0
H734 H 0.34652 0.66293 0.48573 0.0
H735 H 0.31025 0.6814 0.47863 0.0
H736 H 0.34436 0.60106 0.51173 0.0
H737 H 0.38866 0.68014 0.54435 0.0
H738 H 0.3579 0.67618 0.54308 0.0
H739 H 0.3732 0.6828 0.51749 0.0
C740 C 0.2952 0.64976 0.52489 0.0
C741 C 0.29299 0.66531 0.50697 0.0
C742 C 0.31582 0.63932 0.52892 0.0
C743 C 0.33462 0.64449 0.51527 0.0
C744 C 0.33219 0.65909 0.49665 0.0
H745 H 0.45981 0.59395 0.48295 0.0
H746 H 0.42695 0.61733 0.48955 0.0
C747 C 0.31144 0.66939 0.49243 0.0
C748 C 0.3569 0.63478 0.5206 0.0
H749 H 0.41233 0.64937 0.53548 0.0
C750 C 0.35916 0.61151 0.51724 0.0
C751 C 0.37597 0.64847 0.52829 0.0
C752 C 0.37388 0.67327 0.53376 0.0
C753 C 0.38048 0.6018 0.5199 0.0
C754 C 0.39984 0.61579 0.52606 0.0
C755 C 0.39738 0.63882 0.53065 0.0
C756 C 0.42293 0.60703 0.52478 0.0
C757 C 0.38249 0.57685 0.51509 0.0
C758 C 0.43216 0.59468 0.54291 0.0
C759 C 0.45126 0.58175 0.53929 0.0
C760 C 0.46093 0.58096 0.51747 0.0
C761 C 0.45282 0.59478 0.5 0.0
C762 C 0.43402 0.60795 0.50372 0.0
H763 H 0.36566 0.56823 0.51102 0.0
H764 H 0.39388 0.57435 0.50036 0.0
H765 H 0.39033 0.56867 0.53024 0.0
H766 H 0.42359 0.59367 0.55918 0.0
H767 H 0.457 0.5707 0.55276 0.0
H768 H 0.49051 0.70923 0.85947 0.0
H769 H 0.49416 0.67075 0.87405 0.0
H770 H 0.55127 0.66117 0.82986 0.0
H771 H 0.54862 0.69978 0.81654 0.0
H772 H 0.48872 0.63252 0.85138 0.0
H773 H 0.57791 0.63623 0.88633 0.0
H774 H 0.56357 0.66129 0.87781 0.0
H775 H 0.57573 0.64324 0.85655 0.0
C776 C 0.50411 0.69901 0.85332 0.0
C777 C 0.51948 0.7076 0.8372 0.0
C778 C 0.50618 0.67703 0.86155 0.0
C779 C 0.5233 0.66311 0.85339 0.0
C780 C 0.5385 0.67171 0.83713 0.0
H781 H 0.53977 0.51936 0.8913 0.0
H782 H 0.54296 0.55401 0.86836 0.0
C783 C 0.53685 0.69382 0.82942 0.0
C784 C 0.52419 0.63919 0.86082 0.0
H785 H 0.55843 0.60047 0.88585 0.0
C786 C 0.50402 0.62559 0.85887 0.0
C787 C 0.54431 0.62982 0.87008 0.0
C788 C 0.56655 0.64345 0.873 0.0
C789 C 0.5031 0.60335 0.86683 0.0
C790 C 0.52283 0.59444 0.87711 0.0
C791 C 0.54337 0.60743 0.8779 0.0
C792 C 0.52134 0.57328 0.8903 0.0
C793 C 0.4808 0.58975 0.86481 0.0
C794 C 0.50847 0.57287 0.91025 0.0
C795 C 0.50664 0.55339 0.92324 0.0
C796 C 0.51773 0.53375 0.91667 0.0
C797 C 0.53089 0.53416 0.89672 0.0
C798 C 0.53277 0.5539 0.88365 0.0
H799 H 0.4696 0.59606 0.85082 0.0
H800 H 0.48375 0.57159 0.86151 0.0
H801 H 0.47159 0.59122 0.88118 0.0
H802 H 0.49985 0.58778 0.91586 0.0
H803 H 0.49648 0.55383 0.93854 0.0
H804 H 0.55095 0.8402 0.80867 0.0
H805 H 0.53957 0.87717 0.82337 0.0
H806 H 0.51038 0.84491 0.88239 0.0
H807 H 0.52114 0.80789 0.8674 0.0
H808 H 0.48608 0.88385 0.83953 0.0
H809 H 0.55819 0.90365 0.90155 0.0
H810 H 0.56156 0.88628 0.87615 0.0
H811 H 0.5463 0.87509 0.90007 0.0
C812 C 0.54287 0.84114 0.82519 0.0
C813 C 0.53752 0.82128 0.83727 0.0
C814 C 0.53604 0.86219 0.83337 0.0
C815 C 0.52409 0.86375 0.85392 0.0
C816 C 0.51958 0.84406 0.86648 0.0
H817 H 0.46768 0.9569 0.94501 0.0
H818 H 0.4811 0.92558 0.92248 0.0
C819 C 0.52599 0.82299 0.85809 0.0
C820 C 0.51575 0.88578 0.86213 0.0
H821 H 0.52683 0.92751 0.90237 0.0
C822 C 0.49513 0.89364 0.85301 0.0
C823 C 0.5275 0.89837 0.87979 0.0
C824 C 0.54969 0.89061 0.89001 0.0
C825 C 0.48561 0.91346 0.86171 0.0
C826 C 0.4972 0.9258 0.87972 0.0
C827 C 0.51809 0.91818 0.88837 0.0
C828 C 0.48681 0.94501 0.89187 0.0
C829 C 0.46274 0.92051 0.85249 0.0
C830 C 0.48502 0.96647 0.88197 0.0
C831 C 0.47729 0.9848 0.895 0.0
C832 C 0.47139 0.98185 0.9181 0.0
C833 C 0.47236 0.96003 0.9274 0.0
C834 C 0.48 0.94196 0.91452 0.0
H835 H 0.45512 0.90821 0.83962 0.0
H836 H 0.4507 0.92228 0.86681 0.0
H837 H 0.46476 0.93727 0.84429 0.0
H838 H 0.49029 0.9692 0.86448 0.0
H839 H 0.47676 0.00134 0.88731 0.0
H840 H 0.46441 0.31539 0.63812 0.0
H841 H 0.46948 0.35274 0.62083 0.0
H842 H 0.53851 0.33771 0.60348 0.0
H843 H 0.53349 0.30038 0.62014 0.0
H844 H 0.50322 0.38458 0.63776 0.0
H845 H 0.51436 0.3661 0.54474 0.0
H846 H 0.50208 0.3455 0.56394 0.0
H847 H 0.53244 0.35119 0.56417 0.0
C848 C 0.48039 0.31978 0.62997 0.0
C849 C 0.49857 0.305 0.6306 0.0
C850 C 0.48334 0.34116 0.62029 0.0
C851 C 0.50438 0.34793 0.61093 0.0
C852 C 0.52207 0.33272 0.61036 0.0
H853 H 0.54448 0.48507 0.565 0.0
H854 H 0.5481 0.44816 0.58332 0.0
C855 C 0.51915 0.31141 0.61999 0.0
C856 C 0.50842 0.37152 0.60359 0.0
H857 H 0.51934 0.40422 0.55699 0.0
C858 C 0.50681 0.38888 0.62011 0.0
C859 C 0.51366 0.37699 0.58068 0.0
C860 C 0.5156 0.35901 0.56228 0.0
C861 C 0.5094 0.41165 0.61408 0.0
C862 C 0.5135 0.41707 0.59102 0.0
C863 C 0.5162 0.39981 0.5747 0.0
C864 C 0.5117 0.44033 0.58282 0.0
C865 C 0.50711 0.42987 0.63213 0.0
C866 C 0.49005 0.44804 0.57699 0.0
C867 C 0.48794 0.46879 0.56632 0.0
C868 C 0.50748 0.48226 0.56162 0.0
C869 C 0.52914 0.47506 0.56864 0.0
C870 C 0.53126 0.45403 0.57898 0.0
H871 H 0.50739 0.42299 0.64979 0.0
H872 H 0.52115 0.44292 0.63076 0.0
H873 H 0.49071 0.43831 0.62922 0.0
H874 H 0.47483 0.43756 0.57987 0.0
H875 H 0.47108 0.47401 0.56114 0.0
H876 H 0.50419 0.21614 0.6045 0.0
H877 H 0.49294 0.17939 0.58669 0.0
H878 H 0.52913 0.14555 0.64073 0.0
H879 H 0.54086 0.18231 0.65828 0.0
H880 H 0.52914 0.13589 0.58007 0.0
H881 H 0.45123 0.12848 0.63317 0.0
H882 H 0.46294 0.1556 0.62435 0.0
H883 H 0.47764 0.14007 0.64592 0.0
C884 C 0.51044 0.20084 0.61201 0.0
C885 C 0.52383 0.2019 0.63235 0.0
C886 C 0.50378 0.17996 0.60205 0.0
C887 C 0.51004 0.15995 0.61264 0.0
C888 C 0.52422 0.16094 0.63241 0.0
H889 H 0.47493 0.0177 0.58836 0.0
H890 H 0.48355 0.05496 0.60647 0.0
C891 C 0.5312 0.18185 0.64216 0.0
C892 C 0.50134 0.13795 0.60333 0.0
H893 H 0.45834 0.09777 0.60833 0.0
C894 C 0.51368 0.12751 0.58618 0.0
C895 C 0.48114 0.12729 0.61147 0.0
C896 C 0.4673 0.13833 0.62972 0.0
C897 C 0.50646 0.10637 0.57699 0.0
C898 C 0.48622 0.09563 0.58502 0.0
C899 C 0.47385 0.10609 0.60227 0.0
C900 C 0.47775 0.07363 0.57529 0.0
C901 C 0.52073 0.09553 0.55894 0.0
C902 C 0.47089 0.07202 0.55209 0.0
C903 C 0.46637 0.05092 0.54173 0.0
C904 C 0.4682 0.03109 0.55449 0.0
C905 C 0.47348 0.03276 0.57815 0.0
C906 C 0.47835 0.05397 0.58848 0.0
H907 H 0.53817 0.10358 0.55834 0.0
H908 H 0.52227 0.07721 0.5622 0.0
H909 H 0.51234 0.09735 0.54181 0.0
H910 H 0.46993 0.08706 0.54178 0.0
H911 H 0.46191 0.05011 0.52355 0.0
H912 H 0.82028 0.46692 0.66063 0.0
H913 H 0.83515 0.47684 0.62277 0.0
H914 H 0.86505 0.53905 0.65142 0.0
H915 H 0.85088 0.52907 0.68908 0.0
H916 H 0.82383 0.51519 0.59768 0.0
H917 H 0.91738 0.5152 0.61555 0.0
H918 H 0.89691 0.50228 0.63453 0.0
H919 H 0.90231 0.53241 0.63526 0.0
C920 C 0.83071 0.4823 0.65898 0.0
C921 C 0.83456 0.49711 0.67787 0.0
C922 C 0.83891 0.48811 0.63731 0.0
C923 C 0.85127 0.50867 0.63429 0.0
C924 C 0.85588 0.52297 0.65335 0.0
H925 H 0.91867 0.56649 0.51664 0.0
H926 H 0.89386 0.56674 0.54998 0.0
C927 C 0.84775 0.5172 0.6749 0.0
C928 C 0.85848 0.51579 0.61112 0.0
H929 H 0.90539 0.53062 0.58021 0.0
C930 C 0.84167 0.5185 0.59382 0.0
C931 C 0.88172 0.5205 0.60622 0.0
C932 C 0.90065 0.51727 0.6238 0.0
C933 C 0.84757 0.52549 0.57166 0.0
C934 C 0.87081 0.52972 0.56671 0.0
C935 C 0.88752 0.52761 0.58416 0.0
C936 C 0.87879 0.53332 0.54303 0.0
C937 C 0.82901 0.5283 0.55366 0.0
C938 C 0.8774 0.51508 0.52734 0.0
C939 C 0.89165 0.5149 0.50843 0.0
C940 C 0.90721 0.53305 0.50487 0.0
C941 C 0.90644 0.55251 0.51882 0.0
C942 C 0.89243 0.55258 0.53797 0.0
H943 H 0.81208 0.53028 0.56151 0.0
H944 H 0.83295 0.54321 0.54286 0.0
H945 H 0.82787 0.5131 0.54227 0.0
H946 H 0.86727 0.49993 0.53108 0.0
H947 H 0.89236 0.49954 0.49817 0.0
H948 H 0.12488 0.94274 0.69732 0.0
H949 H 0.10479 0.93882 0.65964 0.0
H950 H 0.12656 0.00697 0.64325 0.0
H951 H 0.14618 0.0112 0.68027 0.0
H952 H 0.07379 0.98654 0.63484 0.0
H953 H 0.14771 0.94476 0.59593 0.0
H954 H 0.13953 0.93915 0.62511 0.0
H955 H 0.15265 0.96598 0.61824 0.0
C956 C 0.12508 0.95692 0.68577 0.0
C957 C 0.13712 0.97723 0.69179 0.0
C958 C 0.11366 0.95466 0.66435 0.0
C959 C 0.1144 0.97263 0.64885 0.0
C960 C 0.12576 0.99303 0.65513 0.0
H961 H 0.06819 0.01471 0.51601 0.0
H962 H 0.08497 0.01152 0.5549 0.0
C963 C 0.13693 0.99536 0.67637 0.0
C964 C 0.10451 0.97028 0.62546 0.0
H965 H 0.1189 0.9571 0.57056 0.0
C966 C 0.08339 0.97975 0.62078 0.0
C967 C 0.11742 0.96178 0.6073 0.0
C968 C 0.14061 0.95228 0.6117 0.0
C969 C 0.07492 0.98125 0.59816 0.0
C970 C 0.0881 0.97324 0.57994 0.0
C971 C 0.10895 0.96323 0.58467 0.0
C972 C 0.08033 0.97509 0.55582 0.0
C973 C 0.05205 0.99149 0.5938 0.0
C974 C 0.07327 0.95557 0.54332 0.0
C975 C 0.06423 0.95732 0.52108 0.0
C976 C 0.06191 0.97865 0.51123 0.0
C977 C 0.06971 0.99814 0.52344 0.0
C978 C 0.07915 0.99634 0.54556 0.0
H979 H 0.04256 0.99385 0.6099 0.0
H980 H 0.05467 0.00825 0.58576 0.0
H981 H 0.04141 0.98061 0.5817 0.0
H982 H 0.07406 0.93906 0.55106 0.0
H983 H 0.05801 0.9421 0.51202 0.0
H984 H 0.86306 0.5336 0.78607 0.0
H985 H 0.87957 0.52702 0.82469 0.0
H986 H 0.82021 0.48511 0.84065 0.0
H987 H 0.80455 0.49061 0.80207 0.0
H988 H 0.86481 0.53685 0.86631 0.0
H989 H 0.86862 0.44367 0.85926 0.0
H990 H 0.86272 0.46096 0.83473 0.0
H991 H 0.8403 0.45313 0.85411 0.0
C992 C 0.85375 0.52293 0.7979 0.0
C993 C 0.83276 0.51239 0.7912 0.0
C994 C 0.86311 0.51914 0.81987 0.0
C995 C 0.85139 0.50506 0.83541 0.0
C996 C 0.83001 0.49528 0.82879 0.0
H997 H 0.88936 0.46577 0.97731 0.0
H998 H 0.86525 0.47382 0.94317 0.0
C999 C 0.82099 0.49862 0.80681 0.0
C1000 C 0.86098 0.50115 0.85883 0.0
H1001 H 0.87508 0.45984 0.89653 0.0
C1002 C 0.86706 0.52 0.87287 0.0
C1003 C 0.86373 0.47913 0.86754 0.0
C1004 C 0.85871 0.45809 0.85304 0.0
C1005 C 0.87597 0.51748 0.89523 0.0
C1006 C 0.87899 0.49551 0.9038 0.0
C1007 C 0.87238 0.47665 0.89005 0.0
C1008 C 0.89225 0.49185 0.92534 0.0
C1009 C 0.88239 0.5384 0.90939 0.0
C1010 C 0.91521 0.49921 0.92648 0.0
C1011 C 0.92878 0.49467 0.9456 0.0
C1012 C 0.91989 0.4824 0.96417 0.0
C1013 C 0.89668 0.47529 0.96333 0.0
C1014 C 0.88296 0.47984 0.94388 0.0
H1015 H 0.87239 0.55302 0.90385 0.0
H1016 H 0.87967 0.53557 0.92796 0.0
H1017 H 0.90075 0.54294 0.90704 0.0
H1018 H 0.92288 0.50805 0.91223 0.0
H1019 H 0.94653 0.50057 0.94557 0.0
H1020 H 0.1242 0.04745 0.78286 0.0
H1021 H 0.10365 0.04987 0.81939 0.0
H1022 H 0.14432 0.9972 0.84742 0.0
H1023 H 0.16447 0.99452 0.81136 0.0
H1024 H 0.08095 0.00612 0.84305 0.0
H1025 H 0.14875 0.05434 0.8941 0.0
H1026 H 0.14666 0.05595 0.86312 0.0
H1027 H 0.15693 0.031 0.87633 0.0
C1028 C 0.12881 0.03665 0.79696 0.0
C1029 C 0.1458 0.0208 0.79439 0.0
C1030 C 0.11708 0.03792 0.81766 0.0
C1031 C 0.12266 0.02374 0.83598 0.0
C1032 C 0.13989 0.00829 0.83348 0.0
H1033 H 0.07451 0.02002 0.97773 0.0
H1034 H 0.0972 0.0138 0.94328 0.0
C1035 C 0.15129 0.00678 0.81287 0.0
C1036 C 0.11029 0.02452 0.85773 0.0
H1037 H 0.11574 0.04237 0.91361 0.0
C1038 C 0.08841 0.01417 0.85847 0.0
C1039 C 0.1206 0.03415 0.87793 0.0
C1040 C 0.14452 0.04459 0.87801 0.0
C1041 C 0.07625 0.01369 0.87893 0.0
C1042 C 0.08593 0.02469 0.89885 0.0
C1043 C 0.10822 0.03424 0.89827 0.0
C1044 C 0.07253 0.02804 0.91981 0.0
C1045 C 0.05334 0.00107 0.87907 0.0
C1046 C 0.05155 0.03859 0.91809 0.0
C1047 C 0.03857 0.04179 0.9375 0.0
C1048 C 0.04663 0.03513 0.95915 0.0
C1049 C 0.06807 0.02542 0.96117 0.0
C1050 C 0.08091 0.02177 0.94155 0.0
H1051 H 0.05238 0.98719 0.866 0.0
H1052 H 0.04989 0.99377 0.89617 0.0
H1053 H 0.03967 0.01287 0.87472 0.0
H1054 H 0.04515 0.04439 0.90168 0.0
H1055 H 0.02219 0.04954 0.9356 0.0
H1056 H 0.67767 0.82211 0.53923 0.0
H1057 H 0.63985 0.83749 0.54288 0.0
H1058 H 0.65543 0.88539 0.48967 0.0
H1059 H 0.69299 0.86896 0.48501 0.0
H1060 H 0.62511 0.87643 0.55502 0.0
H1061 H 0.59605 0.85975 0.46517 0.0
H1062 H 0.62202 0.84859 0.47681 0.0
H1063 H 0.62182 0.87708 0.46621 0.0
C1064 C 0.67301 0.83596 0.52829 0.0
C1065 C 0.68816 0.84434 0.51174 0.0
C1066 C 0.65137 0.84471 0.5304 0.0
C1067 C 0.64449 0.86228 0.51622 0.0
C1068 C 0.65999 0.87127 0.50024 0.0
H1069 H 0.54875 0.9609 0.50826 0.0
H1070 H 0.58043 0.93577 0.51242 0.0
C1071 C 0.6815 0.86207 0.49769 0.0
C1072 C 0.62122 0.87125 0.51833 0.0
H1073 H 0.57464 0.88645 0.4866 0.0
C1074 C 0.61393 0.87825 0.54009 0.0
C1075 C 0.60625 0.8731 0.49902 0.0
C1076 C 0.61184 0.86397 0.47556 0.0
C1077 C 0.59286 0.8885 0.54269 0.0
C1078 C 0.57895 0.89201 0.52306 0.0
C1079 C 0.58552 0.88383 0.5016 0.0
C1080 C 0.55959 0.90726 0.52357 0.0
C1081 C 0.58594 0.89647 0.56614 0.0
C1082 C 0.53738 0.89955 0.52892 0.0
C1083 C 0.51903 0.91402 0.52665 0.0
C1084 C 0.52276 0.93617 0.51865 0.0
C1085 C 0.5452 0.94385 0.51409 0.0
C1086 C 0.56338 0.92957 0.51658 0.0
H1087 H 0.59768 0.8908 0.57999 0.0
H1088 H 0.58586 0.91523 0.56657 0.0
H1089 H 0.56831 0.89004 0.56963 0.0
H1090 H 0.53419 0.88228 0.53425 0.0
H1091 H 0.50193 0.90769 0.53038 0.0
H1092 H 0.66255 0.18013 0.05335 0.0
H1093 H 0.62596 0.16174 0.04066 0.0
H1094 H 0.6621 0.11341 0.00068 0.0
H1095 H 0.69853 0.13183 0.0131 0.0
H1096 H 0.61548 0.15755 0.98919 0.0
H1097 H 0.61146 0.07625 0.03623 0.0
H1098 H 0.62826 0.10065 0.04678 0.0
H1099 H 0.63813 0.08411 0.0232 0.0
C1100 C 0.66263 0.16494 0.04276 0.0
C1101 C 0.6832 0.15712 0.03441 0.0
C1102 C 0.6418 0.15472 0.03522 0.0
C1103 C 0.64148 0.13638 0.01967 0.0
C1104 C 0.66208 0.1275 0.01277 0.0
H1105 H 0.53486 0.05255 0.95504 0.0
H1106 H 0.57158 0.07285 0.9623 0.0
C1107 C 0.68283 0.13785 0.02004 0.0
C1108 C 0.61974 0.12756 0.00918 0.0
H1109 H 0.5834 0.08129 0.00733 0.0
C1110 C 0.60829 0.14094 0.9932 0.0
C1111 C 0.61087 0.10576 0.01415 0.0
C1112 C 0.62267 0.09082 0.03112 0.0
C1113 C 0.58797 0.13296 0.98204 0.0
C1114 C 0.57882 0.11131 0.98745 0.0
C1115 C 0.59049 0.09791 0.00323 0.0
C1116 C 0.55677 0.10215 0.9778 0.0
C1117 C 0.57674 0.14744 0.96425 0.0
C1118 C 0.53628 0.11238 0.98322 0.0
C1119 C 0.51526 0.10087 0.9788 0.0
C1120 C 0.51473 0.07899 0.96925 0.0
C1121 C 0.53507 0.06942 0.96252 0.0
C1122 C 0.55595 0.081 0.96659 0.0
H1123 H 0.58882 0.16072 0.95782 0.0
H1124 H 0.56998 0.13697 0.94945 0.0
H1125 H 0.56219 0.15594 0.97205 0.0
H1126 H 0.53658 0.1285 0.99226 0.0
H1127 H 0.49965 0.10837 0.98422 0.0
H1128 H 0.29238 0.37681 0.04215 0.0
H1129 H 0.32878 0.39609 0.0317 0.0
H1130 H 0.35303 0.33276 0.00641 0.0
H1131 H 0.31692 0.31375 0.01656 0.0
H1132 H 0.37585 0.38817 0.04367 0.0
H1133 H 0.3575 0.37443 0.95057 0.0
H1134 H 0.3358 0.37124 0.97193 0.0
H1135 H 0.35513 0.34893 0.96683 0.0
C1136 C 0.3058 0.36703 0.03495 0.0
C1137 C 0.30216 0.34378 0.03053 0.0
C1138 C 0.32645 0.37802 0.0288 0.0
C1139 C 0.34348 0.3659 0.01792 0.0
C1140 C 0.34004 0.34252 0.01442 0.0
H1141 H 0.47758 0.39897 0.95933 0.0
H1142 H 0.44459 0.37839 0.9762 0.0
C1143 C 0.31955 0.33163 0.02049 0.0
C1144 C 0.3647 0.37743 0.00962 0.0
H1145 H 0.39554 0.38653 0.96118 0.0
C1146 C 0.38012 0.38789 0.02564 0.0
C1147 C 0.37022 0.37717 0.98604 0.0
C1148 C 0.35371 0.36755 0.96779 0.0
C1149 C 0.40116 0.39759 0.01877 0.0
C1150 C 0.40687 0.39684 -0.00472 0.0
C1151 C 0.39136 0.38659 0.97924 0.0
C1152 C 0.42773 0.40864 0.98667 0.0
C1153 C 0.41723 0.4085 0.03665 0.0
C1154 C 0.42908 0.43227 0.98701 0.0
C1155 C 0.44748 0.44386 0.9772 0.0
C1156 C 0.46513 0.43213 0.96689 0.0
C1157 C 0.46424 0.40839 0.96716 0.0
C1158 C 0.44545 0.3967 0.97674 0.0
H1159 H 0.41286 0.4032 0.05431 0.0
H1160 H 0.43517 0.40425 0.03335 0.0
H1161 H 0.41612 0.42714 0.03582 0.0
H1162 H 0.41554 0.44182 -0.00567 0.0
H1163 H 0.44776 0.46218 0.97753 0.0
H1164 H 0.77534 0.13659 0.03371 0.0
H1165 H 0.81293 0.12058 0.04062 0.0
H1166 H 0.84184 0.16409 0.98916 0.0
H1167 H 0.80419 0.17979 0.98178 0.0
H1168 H 0.84657 0.10473 -0.00313 0.0
H1169 H 0.87574 0.17007 0.06215 0.0
H1170 H 0.84596 0.16132 0.05832 0.0
H1171 H 0.85956 0.17848 0.03711 0.0
C1172 C 0.78963 0.14227 0.02349 0.0
C1173 C 0.78689 0.15904 0.00691 0.0
C1174 C 0.81104 0.13335 0.02763 0.0
C1175 C 0.83003 0.14147 0.0156 0.0
C1176 C 0.82727 0.15775 -0.0014 0.0
H1177 H 0.96604 0.10144 -0.0028 0.0
H1178 H 0.93294 0.12515 0.00113 0.0
C1179 C 0.80577 0.16641 -0.00583 0.0
C1180 C 0.85276 0.13264 0.02048 0.0
H1181 H 0.9026 0.14333 0.05115 0.0
C1182 C 0.8588 0.11307 0.00877 0.0
C1183 C 0.86846 0.14362 0.03617 0.0
C1184 C 0.86225 0.16453 0.04932 0.0
C1185 C 0.88048 0.10432 0.01203 0.0
C1186 C 0.89641 0.11556 0.02731 0.0
C1187 C 0.89027 0.13493 0.03938 0.0
C1188 C 0.91959 0.10712 0.03028 0.0
C1189 C 0.88639 0.08322 -0.00105 0.0
C1190 C 0.92359 0.09021 0.04633 0.0
C1191 C 0.94254 0.07681 0.04418 0.0
C1192 C 0.95756 0.08036 0.02606 0.0
C1193 C 0.9549 0.09885 0.01161 0.0
C1194 C 0.93598 0.11227 0.01377 0.0
H1195 H 0.87162 0.0759 0.98864 0.0
H1196 H 0.90058 0.08722 0.98717 0.0
H1197 H 0.89233 0.07026 0.01108 0.0
H1198 H 0.91093 0.08591 0.05899 0.0
H1199 H 0.94409 0.06224 0.0551 0.0
H1200 H 0.0668 0.19447 0.26569 0.0
H1201 H 0.06179 0.16622 0.23428 0.0
H1202 H 0.02923 0.21566 0.19221 0.0
H1203 H 0.03481 0.24372 0.22306 0.0
H1204 H 0.01985 0.15073 0.21625 0.0
H1205 H 0.0711 0.18864 0.14682 0.0
H1206 H 0.07429 0.19823 0.17632 0.0
H1207 H 0.05128 0.20785 0.15835 0.0
C1208 C 0.05973 0.1995 0.24926 0.0
C1209 C 0.05191 0.22141 0.24641 0.0
C1210 C 0.05646 0.1833 0.2315 0.0
C1211 C 0.04532 0.18886 0.21076 0.0
C1212 C 0.03839 0.21106 0.20772 0.0
H1213 H 0.00446 0.12181 0.08331 0.0
H1214 H 0.00332 0.14608 0.11764 0.0
C1215 C 0.04174 0.22716 0.22531 0.0
C1216 C 0.0393 0.17131 0.19286 0.0
H1217 H 0.04386 0.15953 0.13566 0.0
C1218 C 0.02527 0.1525 0.19866 0.0
C1219 C 0.04607 0.17378 0.16983 0.0
C1220 C 0.06169 0.19311 0.16249 0.0
C1221 C 0.01756 0.13632 0.18196 0.0
C1222 C 0.02436 0.13888 0.15894 0.0
C1223 C 0.0384 0.15766 0.15324 0.0
C1224 C 0.01847 0.12191 0.14043 0.0
C1225 C 0.00182 0.117 0.18901 0.0
C1226 C 0.02601 0.09971 0.14207 0.0
C1227 C 0.02621 0.08568 0.1225 0.0
C1228 C 0.01911 0.09377 0.10106 0.0
C1229 C 0.00977 0.11518 0.09978 0.0
C1230 C 0.00925 0.12906 0.11935 0.0
H1231 H 0.9925 0.12128 0.2048 0.0
H1232 H 0.98916 0.11224 0.1751 0.0
H1233 H 0.0121 0.10208 0.19276 0.0
H1234 H 0.0336 0.09391 0.15796 0.0
H1235 H 0.0339 0.06937 0.12372 0.0
H1236 H 0.03703 0.2995 0.23499 0.0
H1237 H 0.03373 0.32688 0.20434 0.0
H1238 H 0.96093 0.32767 0.21354 0.0
H1239 H 0.96404 0.29996 0.24451 0.0
H1240 H 0.00368 0.32466 0.16169 0.0
H1241 H 0.98827 0.39514 0.22292 0.0
H1242 H 0.0011 0.36932 0.23181 0.0
H1243 H 0.97092 0.36962 0.22586 0.0
C1244 C 0.02023 0.30537 0.23049 0.0
C1245 C 0.00077 0.29771 0.24234 0.0
C1246 C 0.01842 0.32094 0.21286 0.0
C1247 C -0.00284 0.32936 0.20682 0.0
C1248 C 0.97753 0.32138 0.21811 0.0
H1249 H 0.9477 0.43447 0.12372 0.0
H1250 H 0.95574 0.40486 0.15085 0.0
C1251 C 0.9793 0.30555 0.23571 0.0
C1252 C -0.00415 0.34726 0.1894 0.0
H1253 H 0.98662 0.40337 0.18352 0.0
C1254 C -8e-05 0.3419 0.16633 0.0
C1255 C 0.99139 0.36973 0.19571 0.0
C1256 C 0.98782 0.37649 0.22043 0.0
C1257 C -0.00144 0.35832 0.14913 0.0
C1258 C 0.99359 0.3808 0.15539 0.0
C1259 C 0.99034 0.38617 0.17867 0.0
C1260 C 0.98943 0.39865 0.1382 0.0
C1261 C 0.00157 0.3512 0.12443 0.0
C1262 C 0.00572 0.40518 0.12187 0.0
C1263 C 0.00089 0.422 0.10584 0.0
C1264 C 0.98014 0.43309 0.10662 0.0
C1265 C 0.96421 0.42682 0.12326 0.0
C1266 C 0.9687 0.40971 0.13867 0.0
H1267 H 0.00014 0.33253 0.12212 0.0
H1268 H 0.98866 0.35888 0.113 0.0
H1269 H 0.0188 0.35698 0.11889 0.0
H1270 H 0.02206 0.39728 0.12145 0.0
H1271 H 0.01323 0.42626 0.09285 0.0
H1272 H 0.02691 0.82326 0.1995 0.0
H1273 H 0.02297 0.85381 0.22755 0.0
H1274 H 0.05186 0.81256 0.28046 0.0
H1275 H 0.05572 0.78163 0.25219 0.0
H1276 H 0.99446 0.84234 0.26885 0.0
H1277 H 0.08155 0.88014 0.28817 0.0
H1278 H 0.07427 0.8659 0.26116 0.0
H1279 H 0.07809 0.84976 0.28669 0.0
C1280 C 0.03336 0.82109 0.21692 0.0
C1281 C 0.04186 0.80031 0.22377 0.0
C1282 C 0.03087 0.83843 0.23292 0.0
C1283 C 0.03695 0.83529 0.256 0.0
C1284 C 0.04719 0.81522 0.26262 0.0
H1285 H -0.00087 0.89519 0.38128 0.0
H1286 H -0.00464 0.87298 0.34575 0.0
C1287 C 0.04964 0.79772 0.2465 0.0
C1288 C 0.03017 0.85202 0.2733 0.0
H1289 H 0.0513 0.89335 0.30998 0.0
C1290 C 0.00681 0.85362 0.27783 0.0
C1291 C 0.04634 0.86669 0.2847 0.0
C1292 C 0.0715 0.86577 0.27997 0.0
C1293 C -0.00077 0.86943 0.29386 0.0
C1294 C 0.01547 0.88393 0.30556 0.0
C1295 C 0.0388 0.88244 0.30074 0.0
C1296 C 0.00933 0.89951 0.32435 0.0
C1297 C 0.97398 0.87047 0.29812 0.0
C1298 C 0.0169 0.9223 0.32389 0.0
C1299 C 0.01913 0.935 0.34429 0.0
C1300 C 0.01368 0.92502 0.36525 0.0
C1301 C 0.00294 0.90339 0.36519 0.0
C1302 C 0.00092 0.8906 0.34485 0.0
H1303 H 0.96357 0.86331 0.28335 0.0
H1304 H 0.96978 0.86037 0.31348 0.0
H1305 H 0.96905 0.88813 0.30139 0.0
H1306 H 0.02344 0.92948 0.30821 0.0
H1307 H 0.02785 0.95147 0.34403 0.0
H1308 H 0.01738 0.69118 0.2178 0.0
H1309 H 0.01423 0.66304 0.24771 0.0
H1310 H 0.95355 0.69368 0.27212 0.0
H1311 H 0.95636 0.72194 0.24162 0.0
H1312 H 0.01758 0.6724 0.29284 0.0
H1313 H 0.93517 0.6264 0.27244 0.0
H1314 H 0.94962 0.64431 0.25204 0.0
H1315 H 0.93299 0.65656 0.27424 0.0
C1316 C 0.00316 0.69185 0.22934 0.0
C1317 C 0.9872 0.70894 0.22748 0.0
C1318 C 0.00138 0.67567 0.24642 0.0
C1319 C 0.98364 0.67614 0.26212 0.0
C1320 C 0.96718 0.69273 0.25993 0.0
H1321 H 0.98723 0.63014 0.39996 0.0
H1322 H 0.9923 0.6492 0.36388 0.0
C1323 C 0.96884 0.70894 0.24259 0.0
C1324 C 0.9838 0.66046 0.28183 0.0
H1325 H 0.95204 0.6201 0.30948 0.0
C1326 C 0.00331 0.66081 0.29634 0.0
C1327 C 0.96542 0.64501 0.28615 0.0
C1328 C 0.94469 0.64281 0.27028 0.0
C1329 C 0.00471 0.64669 0.31542 0.0
C1330 C 0.98577 0.63219 0.32063 0.0
C1331 C 0.96653 0.63125 0.30564 0.0
C1332 C 0.98479 0.61949 0.34252 0.0
C1333 C 0.02658 0.64749 0.32972 0.0
C1334 C 0.97866 0.59627 0.34279 0.0
C1335 C 0.97498 0.58527 0.36371 0.0
C1336 C 0.97743 0.59736 0.38467 0.0
C1337 C 0.98518 0.62019 0.38423 0.0
C1338 C 0.98826 0.63119 0.36348 0.0
H1339 H 0.04153 0.6522 0.31913 0.0
H1340 H 0.02555 0.66062 0.34341 0.0
H1341 H 0.02965 0.63101 0.33788 0.0
H1342 H 0.9759 0.58685 0.32682 0.0
H1343 H 0.96898 0.56773 0.36336 0.0
H1344 H 0.26015 0.05424 0.17076 0.0
H1345 H 0.22819 0.05156 0.14226 0.0
H1346 H 0.19287 0.00282 0.1845 0.0
H1347 H 0.22434 0.00553 0.21271 0.0
H1348 H 0.21229 0.00729 0.12023 0.0
H1349 H 0.1445 0.04979 0.16811 0.0
H1350 H 0.17455 0.05454 0.17502 0.0
H1351 H 0.15985 0.029 0.18375 0.0
C1352 C 0.24517 0.04361 0.17417 0.0
C1353 C 0.24439 0.03031 0.1939 0.0
C1354 C 0.22715 0.04184 0.15786 0.0
C1355 C 0.20826 0.02699 0.16141 0.0
C1356 C 0.20718 0.01451 0.1816 0.0
H1357 H 0.08028 0.01456 0.08456 0.0
H1358 H 0.11078 -0.00049 0.10889 0.0
C1359 C 0.22509 0.01616 0.1977 0.0
C1360 C 0.18998 0.02349 0.14372 0.0
H1361 H 0.13336 0.03108 0.13355 0.0
C1362 C 0.19501 0.01251 0.12303 0.0
C1363 C 0.16739 0.02968 0.14783 0.0
C1364 C 0.16117 0.04155 0.1698 0.0
C1365 C 0.17799 0.00803 0.10601 0.0
C1366 C 0.15558 0.01518 0.10967 0.0
C1367 C 0.15046 0.02535 0.13079 0.0
C1368 C 0.13832 0.01644 0.09079 0.0
C1369 C 0.18424 0.9958 0.08428 0.0
C1370 C 0.14378 0.0296 0.0717 0.0
C1371 C 0.1265 0.03811 0.05795 0.0
C1372 C 0.1035 0.03366 0.06309 0.0
C1373 C 0.09795 0.01818 0.08031 0.0
C1374 C 0.11535 0.00965 0.09421 0.0
H1375 H 0.19758 0.98339 0.08789 0.0
H1376 H 0.16918 0.98679 0.07595 0.0
H1377 H 0.19147 0.00822 0.07203 0.0
H1378 H 0.16123 0.03542 0.06885 0.0
H1379 H 0.13112 0.04991 0.04459 0.0
H1380 H 0.72361 0.44173 0.18965 0.0
H1381 H 0.75448 0.44051 0.1615 0.0
H1382 H 0.76842 0.51203 0.17165 0.0
H1383 H 0.73844 0.51342 0.19947 0.0
H1384 H 0.75803 0.46808 0.11959 0.0
H1385 H 0.83146 0.4847 0.18039 0.0
H1386 H 0.80365 0.47493 0.18979 0.0
H1387 H 0.80886 0.50414 0.18284 0.0
C1388 C 0.73346 0.45707 0.18601 0.0
C1389 C 0.72847 0.47762 0.1968 0.0
C1390 C 0.75098 0.4564 0.1699 0.0
C1391 C 0.76385 0.47618 0.16468 0.0
C1392 C 0.75897 0.49652 0.17563 0.0
H1393 H 0.88481 0.50639 0.08584 0.0
H1394 H 0.8487 0.51189 0.10526 0.0
C1395 C 0.74163 0.49724 0.1915 0.0
C1396 C 0.78202 0.47616 0.14733 0.0
H1397 H 0.83903 0.48753 0.14073 0.0
C1398 C 0.7758 0.47212 0.12417 0.0
C1399 C 0.80505 0.48205 0.15331 0.0
C1400 C 0.81275 0.48655 0.17795 0.0
C1401 C 0.792 0.47396 0.10676 0.0
C1402 C 0.81519 0.47936 0.11275 0.0
C1403 C 0.82129 0.48356 0.13598 0.0
C1404 C 0.83384 0.47889 0.09576 0.0
C1405 C 0.78393 0.47065 0.0821 0.0
C1406 C 0.83703 0.45915 0.08275 0.0
C1407 C 0.85736 0.45635 0.07111 0.0
C1408 C 0.87501 0.47306 0.0725 0.0
C1409 C 0.87115 0.49358 0.08385 0.0
C1410 C 0.85066 0.49653 0.0953 0.0
H1411 H 0.76588 0.47546 0.07977 0.0
H1412 H 0.79466 0.48072 0.07021 0.0
H1413 H 0.78473 0.4525 0.07728 0.0
H1414 H 0.82477 0.44501 0.08328 0.0
H1415 H 0.86028 0.44006 0.06321 0.0
H1416 H 0.2522 0.95182 0.28887 0.0
H1417 H 0.22236 0.95301 0.31807 0.0
H1418 H 0.19803 0.0144 0.28879 0.0
H1419 H 0.22734 0.01324 0.25987 0.0
H1420 H 0.21965 0.99359 0.34906 0.0
H1421 H 0.13924 0.97466 0.29839 0.0
H1422 H 0.1668 0.96644 0.28859 0.0
H1423 H 0.15885 0.99534 0.28672 0.0
C1424 C 0.24001 0.96511 0.28835 0.0
C1425 C 0.24204 0.98246 0.27228 0.0
C1426 C 0.22317 0.96591 0.30506 0.0
C1427 C 0.20805 0.98381 0.30548 0.0
C1428 C 0.20936 0.00036 0.28861 0.0
H1429 H 0.09123 0.00084 0.39232 0.0
H1430 H 0.122 0.01372 0.36711 0.0
C1431 C 0.22615 -0.00033 0.27216 0.0
C1432 C 0.19212 0.9865 0.32454 0.0
H1433 H 0.13558 0.98639 0.33686 0.0
C1434 C 0.20124 0.99195 0.34649 0.0
C1435 C 0.1682 0.98527 0.32085 0.0
C1436 C 0.15759 0.97998 0.29741 0.0
C1437 C 0.18699 0.99571 0.3651 0.0
C1438 C 0.16296 0.9931 0.3618 0.0
C1439 C 0.15393 0.98849 0.33954 0.0
C1440 C 0.14707 0.99145 0.38132 0.0
C1441 C 0.19796 0.00261 0.38797 0.0
C1442 C 0.15134 0.97592 0.39873 0.0
C1443 C 0.13406 0.96905 0.41337 0.0
C1444 C 0.11191 0.97702 0.41052 0.0
C1445 C 0.10817 0.99443 0.39489 0.0
C1446 C 0.1257 0.00162 0.38035 0.0
H1447 H 0.21344 0.0137 0.3855 0.0
H1448 H 0.18607 0.01168 0.39908 0.0
H1449 H 0.20361 0.98731 0.39696 0.0
H1450 H 0.16732 0.96735 0.39969 0.0
H1451 H 0.13744 0.9557 0.4254 0.0
H1452 H 0.73499 0.4836 0.28306 0.0
H1453 H 0.76241 0.48382 0.31484 0.0
H1454 H 0.7516 0.55444 0.3278 0.0
H1455 H 0.72335 0.55443 0.29562 0.0
H1456 H 0.80237 0.51647 0.31567 0.0
H1457 H 0.74739 0.51787 0.39246 0.0
H1458 H 0.73707 0.50684 0.36484 0.0
H1459 H 0.74129 0.53674 0.36921 0.0
C1460 C 0.73821 0.49926 0.29266 0.0
C1461 C 0.727 0.51907 0.28686 0.0
C1462 C 0.75382 0.49923 0.31089 0.0
C1463 C 0.75859 0.51897 0.32375 0.0
C1464 C 0.74766 0.53895 0.31814 0.0
H1465 H 0.85795 0.56947 0.41324 0.0
H1466 H 0.82109 0.55577 0.39737 0.0
C1467 C 0.73187 0.53902 0.29967 0.0
C1468 C 0.77682 0.51877 0.34142 0.0
H1469 H 0.78752 0.51953 0.39923 0.0
C1470 C 0.79921 0.51697 0.33397 0.0
C1471 C 0.77228 0.51902 0.36511 0.0
C1472 C 0.74821 0.5201 0.37357 0.0
C1473 C 0.81756 0.51647 0.34966 0.0
C1474 C 0.81322 0.51735 0.37348 0.0
C1475 C 0.79065 0.51842 0.38097 0.0
C1476 C 0.83216 0.52202 0.39009 0.0
C1477 C 0.84152 0.51637 0.34056 0.0
C1478 C 0.85002 0.507 0.39273 0.0
C1479 C 0.87125 0.51488 0.40177 0.0
C1480 C 0.87447 0.53775 0.40807 0.0
C1481 C 0.85581 0.55187 0.40796 0.0
C1482 C 0.83472 0.544 0.39917 0.0
H1483 H 0.84183 0.51866 0.32165 0.0
H1484 H 0.85243 0.53005 0.34888 0.0
H1485 H 0.84918 0.49999 0.34451 0.0
H1486 H 0.84815 0.48988 0.38595 0.0
H1487 H 0.8855 0.50375 0.40199 0.0
H1488 H 0.18962 0.26268 0.0752 0.0
H1489 H 0.15697 0.23483 0.07469 0.0
H1490 H 0.16632 0.22237 0.00244 0.0
H1491 H 0.19848 0.24934 0.00278 0.0
H1492 H 0.11489 0.23476 0.04337 0.0
H1493 H 0.16638 0.15905 0.03201 0.0
H1494 H 0.17854 0.18563 0.04311 0.0
H1495 H 0.17371 0.18142 0.01269 0.0
C1496 C 0.18483 0.25372 0.05935 0.0
C1497 C 0.1967 0.25822 0.03908 0.0
C1498 C 0.16611 0.238 0.05903 0.0
C1499 C 0.15933 0.22646 0.03852 0.0
C1500 C 0.17134 0.23088 0.01848 0.0
H1501 H 0.07185 0.12206 0.97983 0.0
H1502 H 0.09603 0.15619 0.98657 0.0
C1503 C 0.18977 0.24642 0.01876 0.0
C1504 C 0.13978 0.2097 0.03728 0.0
H1505 H 0.12685 0.15501 0.02114 0.0
C1506 C 0.11739 0.2172 0.03891 0.0
C1507 C 0.14313 0.18688 0.03127 0.0
C1508 C 0.16674 0.17768 0.02986 0.0
C1509 C 0.09828 0.20268 0.03355 0.0
C1510 C 0.10171 0.18004 0.02668 0.0
C1511 C 0.12413 0.17243 0.026 0.0
C1512 C 0.08266 0.16359 0.0201 0.0
C1513 C 0.07469 0.21197 0.03437 0.0
C1514 C 0.06591 0.15726 0.03593 0.0
C1515 C 0.05157 0.13804 0.03175 0.0
C1516 C 0.05418 0.12453 0.01195 0.0
C1517 C 0.06934 0.1322 -0.00486 0.0
C1518 C 0.08337 0.15158 -0.00086 0.0
H1519 H 0.07526 0.23071 0.03341 0.0
H1520 H 0.06354 0.20493 0.0201 0.0
H1521 H 0.06681 0.2072 0.05086 0.0
H1522 H 0.06517 0.16597 0.05235 0.0
H1523 H 0.04029 0.13245 0.0452 0.0
H1524 H 0.18553 0.74332 0.46291 0.0
H1525 H 0.1563 0.7721 0.46014 0.0
H1526 H 0.17601 0.7972 0.52788 0.0
H1527 H 0.20483 0.7685 0.53091 0.0
H1528 H 0.12072 0.78094 0.5067 0.0
H1529 H 0.17563 0.85021 0.47063 0.0
H1530 H 0.18016 0.82095 0.46347 0.0
H1531 H 0.18709 0.83151 0.49186 0.0
C1532 C 0.18374 0.75516 0.47705 0.0
C1533 C 0.19738 0.75371 0.49712 0.0
C1534 C 0.16702 0.77144 0.47552 0.0
C1535 C 0.16404 0.78663 0.49387 0.0
C1536 C 0.178 0.78552 0.51364 0.0
H1537 H 0.08533 0.90801 0.48567 0.0
H1538 H 0.10942 0.87991 0.50364 0.0
C1539 C 0.19443 0.76914 0.5153 0.0
C1540 C 0.14621 0.80361 0.49267 0.0
H1541 H 0.13716 0.85784 0.47696 0.0
C1542 C 0.12423 0.79779 0.50024 0.0
C1543 C 0.15111 0.82567 0.48484 0.0
C1544 C 0.17474 0.83267 0.47719 0.0
C1545 C 0.10674 0.8134 0.49962 0.0
C1546 C 0.11127 0.83523 0.49071 0.0
C1547 C 0.13358 0.84119 0.48387 0.0
C1548 C 0.09281 0.85122 0.48574 0.0
C1549 C 0.08364 0.80632 0.50862 0.0
C1550 C 0.07449 0.84437 0.47092 0.0
C1551 C 0.06053 0.86035 0.46102 0.0
C1552 C 0.06472 0.88351 0.46553 0.0
C1553 C 0.08132 0.89022 0.48235 0.0
C1554 C 0.09538 0.87418 0.49229 0.0
H1555 H 0.0853 0.79376 0.52251 0.0
H1556 H 0.0745 0.821 0.51537 0.0
H1557 H 0.07312 0.79816 0.4945 0.0
H1558 H 0.07235 0.82694 0.46514 0.0
H1559 H 0.04824 0.85482 0.44769 0.0
H1560 H 0.76429 0.73734 0.51805 0.0
H1561 H 0.78976 0.70568 0.51551 0.0
H1562 H 0.82636 0.73933 0.46152 0.0
H1563 H 0.80047 0.77117 0.46376 0.0
H1564 H 0.80301 0.67907 0.47027 0.0
H1565 H 0.87197 0.7255 0.52122 0.0
H1566 H 0.84221 0.73206 0.52346 0.0
H1567 H 0.85765 0.74026 0.4985 0.0
C1568 C 0.77755 0.73781 0.50535 0.0
C1569 C 0.78048 0.7566 0.49104 0.0
C1570 C 0.79206 0.71976 0.50397 0.0
C1571 C 0.80999 0.72033 0.48852 0.0
C1572 C 0.81258 0.73871 0.47361 0.0
H1573 H 0.92448 0.64811 0.45391 0.0
H1574 H 0.89803 0.67519 0.46842 0.0
C1575 C 0.79775 0.75674 0.47474 0.0
C1576 C 0.8264 0.70198 0.48867 0.0
H1577 H 0.88025 0.68948 0.50662 0.0
C1578 C 0.8199 0.68119 0.47825 0.0
C1579 C 0.84816 0.70487 0.49949 0.0
C1580 C 0.85554 0.7268 0.51146 0.0
C1581 C 0.83514 0.66346 0.4772 0.0
C1582 C 0.85727 0.66647 0.48755 0.0
C1583 C 0.86331 0.68707 0.49884 0.0
C1584 C 0.87548 0.65006 0.48373 0.0
C1585 C 0.82775 0.64222 0.46394 0.0
C1586 C 0.8726 0.62694 0.4889 0.0
C1587 C 0.88789 0.61128 0.48047 0.0
C1588 C 0.90631 0.61872 0.46713 0.0
C1589 C 0.9105 0.64201 0.46434 0.0
C1590 C 0.89526 0.6575 0.47251 0.0
H1591 H 0.81202 0.64451 0.45331 0.0
H1592 H 0.84146 0.63684 0.45245 0.0
H1593 H 0.82407 0.62842 0.47617 0.0
H1594 H 0.85783 0.62086 0.49816 0.0
H1595 H 0.88416 0.59337 0.48258 0.0
H1596 H 0.30933 0.72589 0.55773 0.0
H1597 H 0.34162 0.75334 0.55428 0.0
H1598 H 0.29445 0.80557 0.539 0.0
H1599 H 0.2623 0.77817 0.5424 0.0
H1600 H 0.34873 0.77758 0.5114 0.0
H1601 H 0.34053 0.83498 0.58696 0.0
H1602 H 0.32791 0.80663 0.5858 0.0
H1603 H 0.31457 0.82896 0.57054 0.0
C1604 C 0.30593 0.7435 0.55481 0.0
C1605 C 0.28347 0.75026 0.55112 0.0
C1606 C 0.32431 0.75902 0.55244 0.0
C1607 C 0.32034 0.78143 0.54645 0.0
C1608 C 0.29781 0.78842 0.54397 0.0
H1609 H 0.39935 0.89648 0.50116 0.0
H1610 H 0.3743 0.8623 0.49851 0.0
C1611 C 0.27949 0.77289 0.54619 0.0
C1612 C 0.3396 0.79716 0.54109 0.0
H1613 H 0.36596 0.8471 0.55814 0.0
C1614 C 0.35267 0.79272 0.52168 0.0
C1615 C 0.34448 0.81689 0.55447 0.0
C1616 C 0.33129 0.82215 0.57572 0.0
C1617 C 0.37042 0.80779 0.51519 0.0
C1618 C 0.37512 0.82752 0.52854 0.0
C1619 C 0.36215 0.83187 0.54795 0.0
C1620 C 0.39385 0.84388 0.5235 0.0
C1621 C 0.3841 0.80274 0.49426 0.0
C1622 C 0.41369 0.84416 0.53742 0.0
C1623 C 0.42782 0.86363 0.53911 0.0
C1624 C 0.4223 0.88295 0.52679 0.0
C1625 C 0.40408 0.88167 0.51062 0.0
C1626 C 0.38973 0.86221 0.50915 0.0
H1627 H 0.37856 0.78641 0.48585 0.0
H1628 H 0.38228 0.81651 0.48166 0.0
H1629 H 0.40251 0.80223 0.49918 0.0
H1630 H 0.41698 0.83018 0.54869 0.0
H1631 H 0.44177 0.86431 0.5517 0.0
H1632 H 0.57754 0.72066 0.74295 0.0
H1633 H 0.57496 0.69311 0.71058 0.0
H1634 H 0.50142 0.69431 0.71123 0.0
H1635 H 0.50367 0.72136 0.7427 0.0
H1636 H 0.55066 0.64927 0.71012 0.0
H1637 H 0.51563 0.70522 0.64351 0.0
H1638 H 0.52996 0.71602 0.66944 0.0
H1639 H 0.50058 0.70605 0.67 0.0
C1640 C 0.5609 0.71516 0.73597 0.0
C1641 C 0.54088 0.72327 0.74546 0.0
C1642 C 0.55943 0.69945 0.71756 0.0
C1643 C 0.53796 0.692 0.70827 0.0
C1644 C 0.51814 0.70015 0.71775 0.0
H1645 H 0.48439 0.58766 0.60972 0.0
H1646 H 0.48719 0.61837 0.63918 0.0
C1647 C 0.51955 0.71556 0.73598 0.0
C1648 C 0.53562 0.67487 0.68943 0.0
H1649 H 0.51169 0.66545 0.63578 0.0
C1650 C 0.5424 0.65285 0.69377 0.0
C1651 C 0.52446 0.67952 0.66825 0.0
C1652 C 0.51741 0.70304 0.66239 0.0
C1653 C 0.53797 0.63527 0.67764 0.0
C1654 C 0.5267 0.63989 0.65654 0.0
C1655 C 0.52 0.6619 0.65212 0.0
C1656 C 0.52407 0.62248 0.63803 0.0
C1657 C 0.54517 0.61176 0.68334 0.0
C1658 C 0.54369 0.61525 0.62737 0.0
C1659 C 0.54212 0.59794 0.61099 0.0
C1660 C 0.52086 0.58749 0.60467 0.0
C1661 C 0.50094 0.59534 0.6145 0.0
C1662 C 0.50256 0.61279 0.63122 0.0
H1663 H 0.54869 0.60988 0.70204 0.0
H1664 H 0.53177 0.59894 0.6777 0.0
H1665 H 0.56102 0.60818 0.6741 0.0
H1666 H 0.56035 0.62279 0.63203 0.0
H1667 H 0.55773 0.59252 0.60334 0.0
H1668 H 0.46238 0.79068 0.74186 0.0
H1669 H 0.45842 0.81546 0.70832 0.0
H1670 H 0.52446 0.84716 0.72468 0.0
H1671 H 0.52843 0.82311 0.75779 0.0
H1672 H 0.46193 0.86507 0.70736 0.0
H1673 H 0.52918 0.82517 0.65683 0.0
H1674 H 0.51562 0.81139 0.68075 0.0
H1675 H 0.53787 0.83279 0.6858 0.0
C1676 C 0.47581 0.80319 0.73841 0.0
C1677 C 0.49574 0.80484 0.75232 0.0
C1678 C 0.47366 0.81713 0.71922 0.0
C1679 C 0.49146 0.83266 0.71381 0.0
C1680 C 0.51083 0.83489 0.72824 0.0
H1681 H 0.49607 0.95062 0.6269 0.0
H1682 H 0.50462 0.92313 0.65707 0.0
C1683 C 0.51295 0.82118 0.74726 0.0
C1684 C 0.48994 0.84725 0.69353 0.0
H1685 H 0.51697 0.86098 0.64393 0.0
C1686 C 0.47382 0.8641 0.6934 0.0
C1687 C 0.50561 0.8459 0.67544 0.0
C1688 C 0.52294 0.82772 0.67453 0.0
C1689 C 0.47326 0.88004 0.67583 0.0
C1690 C 0.48922 0.879 0.65804 0.0
C1691 C 0.50504 0.86187 0.65787 0.0
C1692 C 0.48835 0.89465 0.6386 0.0
C1693 C 0.45543 0.89774 0.67614 0.0
C1694 C 0.47758 0.88731 0.61797 0.0
C1695 C 0.47335 0.90271 0.60066 0.0
C1696 C 0.47947 0.92575 0.60389 0.0
C1697 C 0.49137 0.93291 0.62405 0.0
C1698 C 0.49609 0.91731 0.64124 0.0
H1699 H 0.44416 0.89612 0.69117 0.0
H1700 H 0.46385 0.91487 0.67664 0.0
H1701 H 0.44471 0.8963 0.66015 0.0
H1702 H 0.47131 0.86993 0.61579 0.0
H1703 H 0.46375 0.89685 0.58547 0.0
H1704 H 0.56402 0.31491 0.71419 0.0
H1705 H 0.56301 0.34527 0.74367 0.0
H1706 H 0.49948 0.31633 0.76807 0.0
H1707 H 0.50046 0.28631 0.73928 0.0
H1708 H 0.52415 0.37614 0.74873 0.0
H1709 H 0.54093 0.32524 0.82635 0.0
H1710 H 0.54842 0.31611 0.79786 0.0
H1711 H 0.51936 0.31306 0.80698 0.0
C1712 C 0.55019 0.31487 0.72623 0.0
C1713 C 0.53235 0.29836 0.72456 0.0
C1714 C 0.5495 0.33224 0.74283 0.0
C1715 C 0.53119 0.33287 0.75799 0.0
C1716 C 0.51383 0.31598 0.75666 0.0
H1717 H 0.49673 0.41284 0.87626 0.0
H1718 H 0.49067 0.38991 0.84104 0.0
C1719 C 0.51442 0.29889 0.74017 0.0
C1720 C 0.52936 0.35138 0.77493 0.0
H1721 H 0.52627 0.36153 0.83248 0.0
C1722 C 0.52482 0.37309 0.76707 0.0
C1723 C 0.5298 0.34711 0.79874 0.0
C1724 C 0.53508 0.32416 0.80805 0.0
C1725 C 0.52052 0.39072 0.78257 0.0
C1726 C 0.52105 0.38643 0.80639 0.0
C1727 C 0.52548 0.36466 0.81416 0.0
C1728 C 0.52001 0.4046 0.82391 0.0
C1729 C 0.5152 0.41366 0.77336 0.0
C1730 C 0.53777 0.42114 0.82534 0.0
C1731 C 0.54129 0.43406 0.84536 0.0
C1732 C 0.52708 0.43062 0.8642 0.0
C1733 C 0.50782 0.41584 0.86188 0.0
C1734 C 0.50441 0.40272 0.84184 0.0
H1735 H 0.50824 0.41241 0.75544 0.0
H1736 H 0.50273 0.42219 0.78427 0.0
H1737 H 0.53117 0.42439 0.77328 0.0
H1738 H 0.55021 0.42262 0.8119 0.0
H1739 H 0.55621 0.44546 0.84677 0.0
H1740 H 0.45175 0.212 0.72526 0.0
H1741 H 0.44836 0.18374 0.75574 0.0
H1742 H 0.52104 0.17481 0.75456 0.0
H1743 H 0.52467 0.20275 0.72458 0.0
H1744 H 0.46346 0.13711 0.7524 0.0
H1745 H 0.50845 0.18618 0.82335 0.0
H1746 H 0.49708 0.19954 0.79805 0.0
H1747 H 0.52306 0.18452 0.7966 0.0
C1748 C 0.46697 0.20404 0.73156 0.0
C1749 C 0.48843 0.20969 0.7225 0.0
C1750 C 0.46504 0.18797 0.74896 0.0
C1751 C 0.48454 0.17749 0.75757 0.0
C1752 C 0.50588 0.18303 0.74848 0.0
H1753 H 0.49193 0.08823 0.8768 0.0
H1754 H 0.50466 0.10653 0.84123 0.0
C1755 C 0.50783 0.19897 0.7312 0.0
C1756 C 0.48257 0.15996 0.77535 0.0
H1757 H 0.49662 0.14861 0.83112 0.0
C1758 C 0.47072 0.13957 0.76962 0.0
C1759 C 0.49273 0.16298 0.79752 0.0
C1760 C 0.50595 0.18452 0.80441 0.0
C1761 C 0.4682 0.12227 0.78567 0.0
C1762 C 0.47706 0.12578 0.80836 0.0
C1763 C 0.48981 0.14584 0.81378 0.0
C1764 C 0.47039 0.11059 0.8274 0.0
C1765 C 0.45596 0.10045 0.77806 0.0
C1766 C 0.44709 0.10616 0.83109 0.0
C1767 C 0.43998 0.09534 0.85086 0.0
C1768 C 0.45594 0.08911 0.86773 0.0
C1769 C 0.47937 0.0923 0.86369 0.0
C1770 C 0.48658 0.10304 0.84358 0.0
H1771 H 0.45926 0.09662 0.75972 0.0
H1772 H 0.46128 0.08596 0.78856 0.0
H1773 H 0.43726 0.10221 0.77958 0.0
H1774 H 0.43419 0.11248 0.81948 0.0
H1775 H 0.4218 0.09354 0.85388 0.0
H1776 H 0.72831 0.55348 0.70919 0.0
H1777 H 0.69485 0.55134 0.68253 0.0
H1778 H 0.72896 0.50371 0.63977 0.0
H1779 H 0.76193 0.50571 0.66603 0.0
H1780 H 0.69023 0.55958 0.63627 0.0
H1781 H 0.66839 0.46992 0.65277 0.0
H1782 H 0.68762 0.48692 0.67123 0.0
H1783 H 0.69793 0.47368 0.64564 0.0
C1784 C 0.72874 0.54303 0.69379 0.0
C1785 C 0.74754 0.52972 0.6896 0.0
C1786 C 0.7096 0.54155 0.67881 0.0
C1787 C 0.70921 0.5267 0.6597 0.0
C1788 C 0.72861 0.51462 0.65485 0.0
H1789 H 0.62912 0.54424 0.53918 0.0
H1790 H 0.66095 0.53139 0.56299 0.0
C1791 C 0.74754 0.51605 0.66968 0.0
C1792 C 0.68908 0.52416 0.64399 0.0
H1793 H 0.65421 0.48423 0.61654 0.0
C1794 C 0.68217 0.54317 0.6321 0.0
C1795 C 0.67816 0.50281 0.6391 0.0
C1796 C 0.68322 0.48223 0.65308 0.0
C1797 C 0.66548 0.54125 0.61452 0.0
C1798 C 0.65628 0.51951 0.60793 0.0
C1799 C 0.66212 0.50067 0.62082 0.0
C1800 C 0.63917 0.51678 0.58889 0.0
C1801 C 0.65764 0.56268 0.60352 0.0
C1802 C 0.61681 0.5093 0.59372 0.0
C1803 C 0.59877 0.51534 0.57931 0.0
C1804 C 0.60305 0.52954 0.56064 0.0
C1805 C 0.62552 0.53335 0.55356 0.0
C1806 C 0.64364 0.52638 0.56742 0.0
H1807 H 0.66163 0.57776 0.61468 0.0
H1808 H 0.66662 0.56525 0.58712 0.0
H1809 H 0.63894 0.56171 0.59981 0.0
H1810 H 0.613 0.50145 0.60997 0.0
H1811 H 0.58144 0.51226 0.58503 0.0
H1812 H 0.21881 0.9743 0.68176 0.0
H1813 H 0.24872 0.97029 0.65367 0.0
H1814 H 0.27624 0.03697 0.67168 0.0
H1815 H 0.24602 0.04125 0.69995 0.0
H1816 H 0.26009 0.0005 0.61504 0.0
H1817 H 0.33022 0.99124 0.68004 0.0
H1818 H 0.30047 0.98605 0.68645 0.0
H1819 H 0.31175 0.01451 0.6842 0.0
C1820 C 0.23114 0.98821 0.67971 0.0
C1821 C 0.23011 0.00811 0.69312 0.0
C1822 C 0.24819 0.98587 0.66361 0.0
C1823 C 0.26476 0.00324 0.66075 0.0
C1824 C 0.26364 0.02332 0.67378 0.0
H1825 H 0.39026 0.00207 0.58312 0.0
H1826 H 0.35702 0.0158 0.60332 0.0
C1827 C 0.24633 0.0258 0.68979 0.0
C1828 C 0.28329 4e-05 0.64424 0.0
H1829 H 0.34034 0.99093 0.64111 0.0
C1830 C 0.27769 -0.00138 0.62067 0.0
C1831 C 0.3061 0.99719 0.65174 0.0
C1832 C 0.31264 0.99713 0.67697 0.0
C1833 C 0.29442 0.9947 0.60432 0.0
C1834 C 0.3173 0.99198 0.61177 0.0
C1835 C 0.32287 0.99345 0.63538 0.0
C1836 C 0.33548 0.98599 0.59565 0.0
C1837 C 0.28749 0.99347 0.5792 0.0
C1838 C 0.33409 0.96509 0.58393 0.0
C1839 C 0.35297 0.95734 0.57235 0.0
C1840 C 0.3735 0.97042 0.57212 0.0
C1841 C 0.37437 0.99204 0.58236 0.0
C1842 C 0.35552 -0.00028 0.59419 0.0
H1843 H 0.27118 0.00196 0.57585 0.0
H1844 H 0.30095 0.00134 0.56843 0.0
H1845 H 0.28498 0.97547 0.57382 0.0
H1846 H 0.31903 0.954 0.58519 0.0
H1847 H 0.35216 0.94032 0.56519 0.0
H1848 H 0.76004 0.50898 0.79678 0.0
H1849 H 0.72851 0.50931 0.82316 0.0
H1850 H 0.69573 0.45243 0.78689 0.0
H1851 H 0.72757 0.45212 0.75978 0.0
H1852 H 0.67934 0.51336 0.80566 0.0
H1853 H 0.69796 0.43933 0.86024 0.0
H1854 H 0.72009 0.45431 0.84478 0.0
H1855 H 0.69946 0.43636 0.82942 0.0
C1856 C 0.74626 0.49634 0.79444 0.0
C1857 C 0.74613 0.48062 0.77606 0.0
C1858 C 0.72825 0.49662 0.80954 0.0
C1859 C 0.70977 0.4811 0.80677 0.0
C1860 C 0.70994 0.46458 0.78918 0.0
H1861 H 0.58004 0.4872 0.87484 0.0
H1862 H 0.60955 0.49079 0.84609 0.0
C1863 C 0.72813 0.46429 0.77386 0.0
C1864 C 0.6902 0.48309 0.82209 0.0
H1865 H 0.66671 0.46087 0.87019 0.0
C1866 C 0.67633 0.50179 0.81965 0.0
C1867 C 0.68679 0.46821 0.8405 0.0
C1868 C 0.70184 0.44842 0.84414 0.0
C1869 C 0.6591 0.50605 0.83534 0.0
C1870 C 0.65566 0.49112 0.85379 0.0
C1871 C 0.66947 0.47234 0.85607 0.0
C1872 C 0.63765 0.49419 0.87087 0.0
C1873 C 0.64519 0.52678 0.83248 0.0
C1874 C 0.64358 0.49571 0.89437 0.0
C1875 C 0.62675 0.4934 0.91088 0.0
C1876 C 0.60372 0.48964 0.90412 0.0
C1877 C 0.59761 0.49036 0.88062 0.0
C1878 C 0.61449 0.49237 0.8641 0.0
H1879 H 0.65342 0.53918 0.8208 0.0
H1880 H 0.62812 0.52173 0.825 0.0
H1881 H 0.64263 0.53518 0.84936 0.0
H1882 H 0.66137 0.49723 0.89992 0.0
H1883 H 0.63191 0.49291 0.92886 0.0
H1884 H 0.21061 0.96175 0.81489 0.0
H1885 H 0.23724 0.971 0.8475 0.0
H1886 H 0.27883 0.01242 0.80317 0.0
H1887 H 0.25253 0.00336 0.77094 0.0
H1888 H 0.28869 0.96738 0.85061 0.0
H1889 H 0.25949 0.0552 0.85707 0.0
H1890 H 0.24256 0.03263 0.84295 0.0
H1891 H 0.266 0.04624 0.82844 0.0
C1892 C 0.22589 0.97216 0.81207 0.0
C1893 C 0.2298 0.98166 0.79048 0.0
C1894 C 0.24084 0.97768 0.83068 0.0
C1895 C 0.25964 0.99275 0.82772 0.0
C1896 C 0.26417 0.0011 0.80583 0.0
H1897 H 0.37349 0.06459 0.88389 0.0
H1898 H 0.33908 0.04902 0.86416 0.0
C1899 C 0.24933 0.99569 0.78742 0.0
C1900 C 0.27479 0.00023 0.8472 0.0
H1901 H 0.29574 0.04811 0.87475 0.0
C1902 C 0.29002 0.9849 0.85637 0.0
C1903 C 0.27637 0.02314 0.85445 0.0
C1904 C 0.2601 0.04024 0.84537 0.0
C1905 C 0.30805 0.99221 0.87135 0.0
C1906 C 0.3103 0.01537 0.87784 0.0
C1907 C 0.29406 0.03038 0.86976 0.0
C1908 C 0.33069 0.02494 0.89069 0.0
C1909 C 0.3254 0.97537 0.87864 0.0
C1910 C 0.33743 0.0167 0.91227 0.0
C1911 C 0.35757 0.02518 0.92327 0.0
C1912 C 0.37063 0.04258 0.91319 0.0
C1913 C 0.36346 0.05134 0.89208 0.0
C1914 C 0.34382 0.04245 0.88083 0.0
H1915 H 0.32393 0.95959 0.86806 0.0
H1916 H 0.34307 0.98269 0.87733 0.0
H1917 H 0.32261 0.97075 0.89679 0.0
H1918 H 0.32724 0.00365 0.92052 0.0
H1919 H 0.36283 0.01835 0.93964 0.0
H1920 H 0.68578 0.76749 0.5716 0.0
H1921 H 0.65262 0.74034 0.56887 0.0
H1922 H 0.67571 0.71638 0.50339 0.0
H1923 H 0.70856 0.7427 0.50621 0.0
H1924 H 0.61828 0.73839 0.53181 0.0
H1925 H 0.66357 0.65817 0.53847 0.0
H1926 H 0.67665 0.68506 0.5475 0.0
H1927 H 0.67544 0.67696 0.51757 0.0
C1928 C 0.68402 0.75591 0.55704 0.0
C1929 C 0.69974 0.75706 0.53919 0.0
C1930 C 0.66501 0.74066 0.55533 0.0
C1931 C 0.66181 0.72629 0.53595 0.0
C1932 C 0.67797 0.72704 0.51862 0.0
H1933 H 0.5699 0.61588 0.49312 0.0
H1934 H 0.59436 0.65007 0.48907 0.0
C1935 C 0.69673 0.74214 0.52027 0.0
C1936 C 0.64134 0.71093 0.53293 0.0
H1937 H 0.62548 0.6555 0.52358 0.0
C1938 C 0.61974 0.72023 0.53022 0.0
C1939 C 0.64338 0.68731 0.53047 0.0
C1940 C 0.66598 0.67625 0.53386 0.0
C1941 C 0.60015 0.70648 0.52478 0.0
C1942 C 0.60225 0.68284 0.52227 0.0
C1943 C 0.62388 0.67366 0.52503 0.0
C1944 C 0.58226 0.66673 0.51957 0.0
C1945 C 0.57752 0.71744 0.52141 0.0
C1946 C 0.56615 0.66551 0.53699 0.0
C1947 C 0.55212 0.64613 0.53918 0.0
C1948 C 0.55411 0.62758 0.52412 0.0
C1949 C 0.56796 0.62997 0.50489 0.0
C1950 C 0.58208 0.64944 0.5027 0.0
H1951 H 0.57993 0.73512 0.5155 0.0
H1952 H 0.56628 0.70786 0.50877 0.0
H1953 H 0.56872 0.71798 0.53808 0.0
H1954 H 0.56609 0.6784 0.55038 0.0
H1955 H 0.54149 0.64468 0.55414 0.0
H1956 H 0.71171 0.2706 0.02014 0.0
H1957 H 0.68483 0.30117 0.0166 0.0
H1958 H 0.64471 0.26141 0.96658 0.0
H1959 H 0.67204 0.23089 0.96962 0.0
H1960 H 0.66904 0.32179 0.96914 0.0
H1961 H 0.60255 0.28332 0.02491 0.0
H1962 H 0.63243 0.27701 0.02775 0.0
H1963 H 0.6155 0.26519 0.00417 0.0
C1964 C 0.69725 0.26851 0.00823 0.0
C1965 C 0.69392 0.24857 -0.00499 0.0
C1966 C 0.68193 0.2859 0.00631 0.0
C1967 C 0.66274 0.28336 0.99156 0.0
C1968 C 0.65943 0.26353 0.97814 0.0
H1969 H 0.55711 0.36434 0.9402 0.0
H1970 H 0.57843 0.33304 0.95606 0.0
C1971 C 0.67507 0.24628 0.97971 0.0
C1972 C 0.64641 0.30169 0.98986 0.0
H1973 H 0.59313 0.31677 0.00544 0.0
C1974 C 0.6525 0.32081 0.97715 0.0
C1975 C 0.62503 0.30034 0.00064 0.0
C1976 C 0.61837 0.28046 0.01529 0.0
C1977 C 0.63735 0.33837 0.97421 0.0
C1978 C 0.61567 0.3368 0.98448 0.0
C1979 C 0.60976 0.31787 -0.00237 0.0
C1980 C 0.59858 0.35412 0.98016 0.0
C1981 C 0.64436 0.35824 0.95962 0.0
C1982 C 0.60187 0.37598 0.98957 0.0
C1983 C 0.58934 0.39373 0.98086 0.0
C1984 C 0.57349 0.38982 0.9626 0.0
C1985 C 0.56875 0.36761 0.95471 0.0
C1986 C 0.58109 0.3498 0.9636 0.0
H1987 H 0.6604 0.35537 0.95036 0.0
H1988 H 0.63063 0.36173 0.94682 0.0
H1989 H 0.64711 0.37351 0.97076 0.0
H1990 H 0.61537 0.37962 0.00229 0.0
H1991 H 0.59378 0.41084 0.9867 0.0
H1992 H 0.28465 0.26047 0.95597 0.0
H1993 H 0.31086 0.22924 0.95118 0.0
H1994 H 0.30865 0.21639 0.02384 0.0
H1995 H 0.28277 0.24697 0.02878 0.0
H1996 H 0.35481 0.22666 0.97592 0.0
H1997 H 0.29637 0.15317 0.99402 0.0
H1998 H 0.28606 0.18035 0.98578 0.0
H1999 H 0.2964 0.17606 0.01462 0.0
C2000 C 0.28957 0.25079 0.97082 0.0
C2001 C 0.28163 0.25626 0.99271 0.0
C2002 C 0.30452 0.233 0.96809 0.0
C2003 C 0.31137 0.22031 0.98714 0.0
C2004 C 0.30323 0.22563 0.00886 0.0
H2005 H 0.40549 0.10848 0.00461 0.0
H2006 H 0.37708 0.13736 0.01229 0.0
C2007 C 0.28853 0.24333 0.01162 0.0
C2008 C 0.32828 0.20248 0.98491 0.0
H2009 H 0.33592 0.14602 0.99194 0.0
C2010 C 0.35066 0.209 0.97923 0.0
C2011 C 0.32293 0.17959 0.98996 0.0
C2012 C 0.2991 0.17176 -0.00371 0.0
C2013 C 0.36791 0.19326 0.9784 0.0
C2014 C 0.36247 0.17015 0.98257 0.0
C2015 C 0.34012 0.16368 0.98871 0.0
C2016 C 0.37931 0.15242 0.97863 0.0
C2017 C 0.39193 0.20171 0.97344 0.0
C2018 C 0.38953 0.15099 0.95717 0.0
C2019 C 0.40604 0.13527 0.95315 0.0
C2020 C 0.41233 0.12 0.97022 0.0
C2021 C 0.40135 0.12049 0.99142 0.0
C2022 C 0.38506 0.13682 -0.0043 0.0
H2023 H 0.39482 0.21967 0.9789 0.0
H2024 H 0.40488 0.19148 0.98227 0.0
H2025 H 0.39461 0.20072 0.95464 0.0
H2026 H 0.38466 0.16206 0.94338 0.0
H2027 H 0.41348 0.13466 0.93628 0.0
H2028 H 0.78368 0.25359 0.07558 0.0
H2029 H 0.81653 0.28105 0.07582 0.0
H2030 H 0.82495 0.26879 0.00339 0.0
H2031 H 0.79283 0.24187 0.0028 0.0
H2032 H 0.86592 0.27179 0.05362 0.0
H2033 H 0.81449 0.3398 0.01557 0.0
H2034 H 0.8017 0.31723 0.03214 0.0
H2035 H 0.81065 0.31176 0.0034 0.0
C2036 C 0.79262 0.25677 0.0598 0.0
C2037 C 0.78545 0.24578 0.03917 0.0
C2038 C 0.81132 0.27232 0.05997 0.0
C2039 C 0.82285 0.27687 0.03954 0.0
C2040 C 0.81608 0.26553 0.01922 0.0
H2041 H 0.91624 0.38722 0.00324 0.0
H2042 H 0.89384 0.35145 -0.00075 0.0
C2043 C 0.7976 0.25019 0.019 0.0
C2044 C 0.84159 0.294 0.03874 0.0
H2045 H 0.85424 0.34681 0.01918 0.0
C2046 C 0.86346 0.28829 0.04629 0.0
C2047 C 0.83825 0.31504 0.02835 0.0
C2048 C 0.81501 0.3215 0.01945 0.0
C2049 C 0.88226 0.30341 0.04397 0.0
C2050 C 0.8788 0.32492 0.03444 0.0
C2051 C 0.85692 0.33029 0.02638 0.0
C2052 C 0.8967 0.3432 0.03533 0.0
C2053 C 0.90562 0.29606 0.0515 0.0
C2054 C 0.90641 0.34988 0.05669 0.0
C2055 C 0.91936 0.36998 0.05892 0.0
C2056 C 0.92242 0.3841 0.03992 0.0
C2057 C 0.91412 0.37668 0.01816 0.0
C2058 C 0.90129 0.35631 0.01589 0.0
H2059 H 0.90698 0.2775 0.04926 0.0
H2060 H 0.91939 0.30471 0.04173 0.0
H2061 H 0.90839 0.3001 0.07006 0.0
H2062 H 0.90265 0.34043 0.07203 0.0
H2063 H 0.92564 0.37515 0.07592 0.0
loop_
_geom_bond_atom_site_label_1
_geom_bond_atom_site_label_2
_geom_bond_distance
_geom_bond_site_symmetry_2
_ccdc_geom_bond_type
C0 O2 1.247 . S
C0 O4 1.258 . S
C1 O8 1.247 . S
C1 O9 1.258 . S
O2 C0 1.247 . S
O2 Zn3 2.028 . S
Zn3 O2 2.028 . S
Zn3 O7 2.035 . S
Zn3 O9 2.035 . S
Zn3 O10 2.028 . S
O4 C0 1.258 . S
O4 Zn5 2.035 . S
Zn5 O4 2.035 . S
Zn5 O6 2.028 . S
Zn5 O8 2.028 . S
Zn5 O11 2.035 . S
O6 Zn5 2.028 . S
O6 C12 1.247 . S
O7 Zn3 2.035 . S
O7 C12 1.258 . S
O8 C1 1.247 . S
O8 Zn5 2.028 . S
O9 C1 1.258 . S
O9 Zn3 2.035 . S
O10 Zn3 2.028 . S
O10 C13 1.247 . S
O11 Zn5 2.035 . S
O11 C13 1.258 . S
C12 O6 1.247 . S
C12 O7 1.258 . S
C13 O10 1.247 . S
C13 O11 1.258 . S
C14 O16 1.247 . S
C14 O18 1.258 . S
C15 O22 1.247 1_455 S
C15 O23 1.258 . S
O16 C14 1.247 . S
O16 Zn17 2.028 . S
Zn17 O16 2.028 . S
Zn17 O21 2.035 . S
Zn17 O23 2.035 . S
Zn17 O24 2.028 . S
O18 C14 1.258 . S
O18 Zn19 2.035 1_455 S
Zn19 O18 2.035 1_655 S
Zn19 O20 2.028 . S
Zn19 O22 2.028 . S
Zn19 O25 2.035 1_655 S
O20 Zn19 2.028 . S
O20 C26 1.247 1_655 S
O21 Zn17 2.035 . S
O21 C26 1.258 . S
O22 C15 1.247 1_655 S
O22 Zn19 2.028 . S
O23 C15 1.258 . S
O23 Zn17 2.035 . S
O24 Zn17 2.028 . S
O24 C27 1.247 . S
O25 Zn19 2.035 1_455 S
O25 C27 1.258 . S
C26 O20 1.247 1_455 S
C26 O21 1.258 . S
C27 O24 1.247 . S
C27 O25 1.258 . S
C28 O30 1.247 1_545 S
C28 O32 1.258 . S
C29 O36 1.255 . S
C29 O37 1.252 1_545 S
O30 C28 1.247 1_565 S
O30 Zn31 2.028 . S
Zn31 O30 2.028 . S
Zn31 O35 2.035 . S
Zn31 O37 2.035 . S
Zn31 O38 2.028 . S
O32 C28 1.258 . S
O32 Zn33 2.035 . S
Zn33 O32 2.035 . S
Zn33 O34 2.028 . S
Zn33 O36 2.028 . S
Zn33 O39 2.035 . S
O34 Zn33 2.028 . S
O34 C40 1.253 . S
O35 Zn31 2.035 . S
O35 C40 1.253 1_565 S
O36 C29 1.255 . S
O36 Zn33 2.028 . S
O37 C29 1.252 1_565 S
O37 Zn31 2.035 . S
O38 Zn31 2.028 . S
O38 C41 1.247 1_565 S
O39 Zn33 2.035 . S
O39 C41 1.258 . S
C40 O34 1.253 . S
C40 O35 1.253 1_545 S
C41 O38 1.247 1_545 S
C41 O39 1.258 . S
C42 O44 1.247 . S
C42 O46 1.258 . S
C43 O50 1.247 . S
C43 O51 1.258 . S
O44 C42 1.247 . S
O44 Zn45 2.028 . S
Zn45 O44 2.028 . S
Zn45 O49 2.035 . S
Zn45 O51 2.035 . S
Zn45 O52 2.028 . S
O46 C42 1.258 . S
O46 Zn47 2.035 . S
Zn47 O46 2.035 . S
Zn47 O48 2.028 . S
Zn47 O50 2.028 . S
Zn47 O53 2.035 . S
O48 Zn47 2.028 . S
O48 C54 1.247 . S
O49 Zn45 2.035 . S
O49 C54 1.258 . S
O50 C43 1.247 . S
O50 Zn47 2.028 . S
O51 C43 1.258 . S
O51 Zn45 2.035 . S
O52 Zn45 2.028 . S
O52 C55 1.247 . S
O53 Zn47 2.035 . S
O53 C55 1.258 . S
C54 O48 1.247 . S
C54 O49 1.258 . S
C55 O52 1.247 . S
C55 O53 1.258 . S
C56 O58 1.247 . S
C56 O60 1.258 . S
C57 O64 1.247 . S
C57 O65 1.258 . S
O58 C56 1.247 . S
O58 Zn59 2.037 . S
Zn59 O58 2.037 . S
Zn59 O63 2.035 . S
Zn59 O65 2.036 . S
Zn59 O66 2.038 . S
O60 C56 1.258 . S
O60 Zn61 2.035 . S
Zn61 O60 2.035 . S
Zn61 O62 2.028 . S
Zn61 O64 2.028 . S
Zn61 O67 2.035 . S
O62 Zn61 2.028 . S
O62 C68 1.247 . S
O63 Zn59 2.035 . S
O63 C68 1.258 . S
O64 C57 1.247 . S
O64 Zn61 2.028 . S
O65 C57 1.258 . S
O65 Zn59 2.036 . S
O66 Zn59 2.038 . S
O66 C69 1.247 . S
O67 Zn61 2.035 . S
O67 C69 1.258 . S
C68 O62 1.247 . S
C68 O63 1.258 . S
C69 O66 1.247 . S
C69 O67 1.258 . S
C70 O72 1.247 . S
C70 O74 1.258 . S
C71 O78 1.247 . S
C71 O79 1.258 . S
O72 C70 1.247 . S
O72 Zn73 2.028 . S
Zn73 O72 2.028 . S
Zn73 O77 2.035 . S
Zn73 O79 2.035 . S
Zn73 O80 2.028 . S
O74 C70 1.258 . S
O74 Zn75 2.035 . S
Zn75 O74 2.035 . S
Zn75 O76 2.028 . S
Zn75 O78 2.028 . S
Zn75 O81 2.035 . S
O76 Zn75 2.028 . S
O76 C82 1.247 . S
O77 Zn73 2.035 . S
O77 C82 1.258 . S
O78 C71 1.247 . S
O78 Zn75 2.028 . S
O79 C71 1.258 . S
O79 Zn73 2.035 . S
O80 Zn73 2.028 . S
O80 C83 1.247 . S
O81 Zn75 2.035 . S
O81 C83 1.258 . S
C82 O76 1.247 . S
C82 O77 1.258 . S
C83 O80 1.247 . S
C83 O81 1.258 . S
C84 O86 1.247 . S
C84 O88 1.258 . S
C85 O92 1.247 . S
C85 O93 1.258 . S
O86 C84 1.247 . S
O86 Zn87 2.028 . S
Zn87 O86 2.028 . S
Zn87 O91 2.035 . S
Zn87 O93 2.035 . S
Zn87 O94 2.028 . S
O88 C84 1.258 . S
O88 Zn89 2.035 . S
Zn89 O88 2.035 . S
Zn89 O90 2.028 . S
Zn89 O92 2.028 . S
Zn89 O95 2.035 . S
O90 Zn89 2.028 . S
O90 C96 1.247 . S
O91 Zn87 2.035 . S
O91 C96 1.258 . S
O92 C85 1.247 . S
O92 Zn89 2.028 . S
O93 C85 1.258 . S
O93 Zn87 2.035 . S
O94 Zn87 2.028 . S
O94 C97 1.247 . S
O95 Zn89 2.035 . S
O95 C97 1.258 . S
C96 O90 1.247 . S
C96 O91 1.258 . S
C97 O94 1.247 . S
C97 O95 1.258 . S
C98 O100 1.247 . S
C98 O102 1.258 . S
C99 O106 1.247 . S
C99 O107 1.258 . S
O100 C98 1.247 . S
O100 Zn101 2.028 . S
Zn101 O100 2.028 . S
Zn101 O105 2.035 . S
Zn101 O107 2.035 . S
Zn101 O108 2.028 . S
O102 C98 1.258 . S
O102 Zn103 2.035 . S
Zn103 O102 2.035 . S
Zn103 O104 2.028 . S
Zn103 O106 2.028 . S
Zn103 O109 2.035 . S
O104 Zn103 2.028 . S
O104 C110 1.247 . S
O105 Zn101 2.035 . S
O105 C110 1.258 . S
O106 C99 1.247 . S
O106 Zn103 2.028 . S
O107 C99 1.258 . S
O107 Zn101 2.035 . S
O108 Zn101 2.028 . S
O108 C111 1.247 . S
O109 Zn103 2.035 . S
O109 C111 1.258 . S
C110 O104 1.247 . S
C110 O105 1.258 . S
C111 O108 1.247 . S
C111 O109 1.258 . S
C112 O114 1.247 . S
C112 O116 1.258 . S
C113 O120 1.247 . S
C113 O121 1.258 . S
O114 C112 1.247 . S
O114 Zn115 2.028 . S
Zn115 O114 2.028 . S
Zn115 O119 2.035 . S
Zn115 O121 2.035 . S
Zn115 O122 2.028 . S
O116 C112 1.258 . S
O116 Zn117 2.035 . S
Zn117 O116 2.035 . S
Zn117 O118 2.028 . S
Zn117 O120 2.028 . S
Zn117 O123 2.035 . S
O118 Zn117 2.028 . S
O118 C124 1.247 . S
O119 Zn115 2.035 . S
O119 C124 1.258 . S
O120 C113 1.247 . S
O120 Zn117 2.028 . S
O121 C113 1.258 . S
O121 Zn115 2.035 . S
O122 Zn115 2.028 . S
O122 C125 1.247 . S
O123 Zn117 2.035 . S
O123 C125 1.258 . S
C124 O118 1.247 . S
C124 O119 1.258 . S
C125 O122 1.247 . S
C125 O123 1.258 . S
C126 O128 1.247 . S
C126 O130 1.258 . S
C127 O134 1.247 . S
C127 O135 1.258 . S
O128 C126 1.247 . S
O128 Zn129 2.028 . S
Zn129 O128 2.028 . S
Zn129 O133 2.035 . S
Zn129 O135 2.035 . S
Zn129 O136 2.028 . S
O130 C126 1.258 . S
O130 Zn131 2.035 . S
Zn131 O130 2.035 . S
Zn131 O132 2.028 . S
Zn131 O134 2.028 . S
Zn131 O137 2.035 . S
O132 Zn131 2.028 . S
O132 C138 1.247 . S
O133 Zn129 2.035 . S
O133 C138 1.258 . S
O134 C127 1.247 . S
O134 Zn131 2.028 . S
O135 C127 1.258 . S
O135 Zn129 2.035 . S
O136 Zn129 2.028 . S
O136 C139 1.247 . S
O137 Zn131 2.035 . S
O137 C139 1.258 . S
C138 O132 1.247 . S
C138 O133 1.258 . S
C139 O136 1.247 . S
C139 O137 1.258 . S
C140 O142 1.247 . S
C140 O144 1.258 1_565 S
C141 O148 1.247 . S
C141 O149 1.258 1_545 S
O142 C140 1.247 . S
O142 Zn143 2.028 . S
Zn143 O142 2.028 . S
Zn143 O147 2.035 . S
Zn143 O149 2.035 . S
Zn143 O150 2.028 . S
O144 C140 1.258 1_545 S
O144 Zn145 2.035 . S
Zn145 O144 2.035 . S
Zn145 O146 2.028 . S
Zn145 O148 2.028 . S
Zn145 O151 2.035 . S
O146 Zn145 2.028 . S
O146 C152 1.247 . S
O147 Zn143 2.035 . S
O147 C152 1.258 1_565 S
O148 C141 1.247 . S
O148 Zn145 2.028 . S
O149 C141 1.258 1_565 S
O149 Zn143 2.035 . S
O150 Zn143 2.028 . S
O150 C153 1.247 . S
O151 Zn145 2.035 . S
O151 C153 1.258 1_545 S
C152 O146 1.247 . S
C152 O147 1.258 1_545 S
C153 O150 1.247 . S
C153 O151 1.258 1_565 S
C154 O156 1.247 . S
C154 O158 1.258 . S
C155 O162 1.247 . S
C155 O163 1.258 . S
O156 C154 1.247 . S
O156 Zn157 2.028 . S
Zn157 O156 2.028 . S
Zn157 O161 2.035 . S
Zn157 O163 2.035 . S
Zn157 O164 2.028 . S
O158 C154 1.258 . S
O158 Zn159 2.035 . S
Zn159 O158 2.035 . S
Zn159 O160 2.028 . S
Zn159 O162 2.028 . S
Zn159 O165 2.035 . S
O160 Zn159 2.028 . S
O160 C166 1.247 . S
O161 Zn157 2.035 . S
O161 C166 1.258 . S
O162 C155 1.247 . S
O162 Zn159 2.028 . S
O163 C155 1.258 . S
O163 Zn157 2.035 . S
O164 Zn157 2.028 . S
O164 C167 1.247 . S
O165 Zn159 2.035 . S
O165 C167 1.258 . S
C166 O160 1.247 . S
C166 O161 1.258 . S
C167 O164 1.247 . S
C167 O165 1.258 . S
O168 Mg169 1.990 . S
O168 C182 1.253 . S
Mg169 O168 1.990 . S
Mg169 O172 2.180 . S
Mg169 O173 2.117 . S
Mg169 O187 2.030 . S
O170 Mg171 2.072 . S
O170 C182 1.260 . S
Mg171 O170 2.072 . S
Mg171 O172 2.099 . S
Mg171 O174 2.079 . S
Mg171 O175 2.072 . S
Mg171 O177 2.099 . S
Mg171 O188 2.079 . S
O172 Mg169 2.180 . S
O172 Mg171 2.099 . S
O172 C183 1.279 . S
O173 Mg169 2.117 . S
O173 C183 1.250 . S
O174 Mg171 2.079 . S
O174 C184 1.264 1_554 S
O175 Mg171 2.072 . S
O175 C185 1.260 . S
Mg176 O177 2.180 1_655 S
Mg176 O178 2.030 1_654 S
Mg176 O179 1.990 1_655 S
Mg176 O180 2.117 . S
O177 Mg171 2.099 . S
O177 Mg176 2.180 1_455 S
O177 C186 1.279 1_455 S
O178 Mg176 2.030 1_456 S
O178 C184 1.248 . S
O179 Mg176 1.990 1_455 S
O179 C185 1.253 . S
O180 Mg176 2.117 . S
O180 C186 1.250 . S
C181 O187 1.248 . S
C181 O188 1.264 . S
C182 O168 1.253 . S
C182 O170 1.260 . S
C183 O172 1.279 . S
C183 O173 1.250 . S
C184 O174 1.264 1_556 S
C184 O178 1.248 . S
C185 O175 1.260 . S
C185 O179 1.253 . S
C186 O177 1.279 1_655 S
C186 O180 1.250 . S
O187 Mg169 2.030 . S
O187 C181 1.248 . S
O188 Mg171 2.079 . S
O188 C181 1.264 . S
O189 Mg190 1.990 . S
O189 C203 1.253 . S
Mg190 O189 1.990 . S
Mg190 O193 2.180 . S
Mg190 O194 2.117 . S
Mg190 O208 2.030 . S
O191 Mg192 2.072 . S
O191 C203 1.260 . S
Mg192 O191 2.072 . S
Mg192 O193 2.099 . S
Mg192 O195 2.079 . S
Mg192 O196 2.072 . S
Mg192 O198 2.099 . S
Mg192 O209 2.079 . S
O193 Mg190 2.180 . S
O193 Mg192 2.099 . S
O193 C204 1.279 . S
O194 Mg190 2.117 . S
O194 C204 1.250 . S
O195 Mg192 2.079 . S
O195 C205 1.264 . S
O196 Mg192 2.072 . S
O196 C206 1.260 . S
Mg197 O198 2.180 . S
Mg197 O199 2.022 1_554 S
Mg197 O200 1.990 . S
Mg197 O201 2.117 1_655 S
O198 Mg192 2.099 . S
O198 Mg197 2.180 . S
O198 C207 1.274 1_655 S
O199 Mg197 2.022 1_556 S
O199 C205 1.244 1_556 S
O200 Mg197 1.990 . S
O200 C206 1.253 . S
O201 Mg197 2.117 1_455 S
O201 C207 1.254 . S
C202 O208 1.248 . S
C202 O209 1.264 . S
C203 O189 1.253 . S
C203 O191 1.260 . S
C204 O193 1.279 . S
C204 O194 1.250 . S
C205 O195 1.264 . S
C205 O199 1.244 1_554 S
C206 O196 1.260 . S
C206 O200 1.253 . S
C207 O198 1.274 1_455 S
C207 O201 1.254 . S
O208 Mg190 2.030 . S
O208 C202 1.248 . S
O209 Mg192 2.079 . S
O209 C202 1.264 . S
O210 Mg211 1.990 . S
O210 C224 1.253 . S
Mg211 O210 1.990 . S
Mg211 O214 2.180 . S
Mg211 O215 2.117 . S
Mg211 O229 2.030 . S
O212 Mg213 2.072 . S
O212 C224 1.260 . S
Mg213 O212 2.072 . S
Mg213 O214 2.099 . S
Mg213 O216 2.079 . S
Mg213 O217 2.072 . S
Mg213 O219 2.099 . S
Mg213 O230 2.079 . S
O214 Mg211 2.180 . S
O214 Mg213 2.099 . S
O214 C225 1.279 . S
O215 Mg211 2.117 . S
O215 C225 1.250 . S
O216 Mg213 2.079 . S
O216 C226 1.264 . S
O217 Mg213 2.072 . S
O217 C227 1.260 . S
Mg218 O219 2.180 . S
Mg218 O220 2.030 . S
Mg218 O221 1.990 . S
Mg218 O222 2.117 1_565 S
O219 Mg213 2.099 . S
O219 Mg218 2.180 . S
O219 C228 1.279 1_565 S
O220 Mg218 2.030 . S
O220 C226 1.248 . S
O221 Mg218 1.990 . S
O221 C227 1.253 . S
O222 Mg218 2.117 1_545 S
O222 C228 1.250 . S
C223 O229 1.248 . S
C223 O230 1.264 . S
C224 O210 1.253 . S
C224 O212 1.260 . S
C225 O214 1.279 . S
C225 O215 1.250 . S
C226 O216 1.264 . S
C226 O220 1.248 . S
C227 O217 1.260 . S
C227 O221 1.253 . S
C228 O219 1.279 1_545 S
C228 O222 1.250 . S
O229 Mg211 2.030 . S
O229 C223 1.248 . S
O230 Mg213 2.079 . S
O230 C223 1.264 . S
O231 Mg232 1.990 . S
O231 C245 1.253 . S
Mg232 O231 1.990 . S
Mg232 O235 2.180 . S
Mg232 O236 2.117 . S
Mg232 O250 2.030 . S
O233 Mg234 2.072 . S
O233 C245 1.260 . S
Mg234 O233 2.072 . S
Mg234 O235 2.099 . S
Mg234 O237 2.079 . S
Mg234 O238 2.072 . S
Mg234 O240 2.099 . S
Mg234 O251 2.079 . S
O235 Mg232 2.180 . S
O235 Mg234 2.099 . S
O235 C246 1.279 . S
O236 Mg232 2.117 . S
O236 C246 1.250 . S
O237 Mg234 2.079 . S
O237 C247 1.264 . S
O238 Mg234 2.072 . S
O238 C248 1.260 . S
Mg239 O240 2.180 . S
Mg239 O241 2.030 . S
Mg239 O242 1.990 . S
Mg239 O243 2.117 . S
O240 Mg234 2.099 . S
O240 Mg239 2.180 . S
O240 C249 1.279 . S
O241 Mg239 2.030 . S
O241 C247 1.248 . S
O242 Mg239 1.990 . S
O242 C248 1.253 . S
O243 Mg239 2.117 . S
O243 C249 1.250 . S
C244 O250 1.248 . S
C244 O251 1.264 . S
C245 O231 1.253 . S
C245 O233 1.260 . S
C246 O235 1.279 . S
C246 O236 1.250 . S
C247 O237 1.264 . S
C247 O241 1.248 . S
C248 O238 1.260 . S
C248 O242 1.253 . S
C249 O240 1.279 . S
C249 O243 1.250 . S
O250 Mg232 2.030 . S
O250 C244 1.248 . S
O251 Mg234 2.079 . S
O251 C244 1.264 . S
O252 Mg253 1.990 . S
O252 C266 1.253 . S
Mg253 O252 1.990 . S
Mg253 O256 2.180 . S
Mg253 O257 2.117 . S
Mg253 O271 2.030 . S
O254 Mg255 2.072 . S
O254 C266 1.260 . S
Mg255 O254 2.072 . S
Mg255 O256 2.099 . S
Mg255 O258 2.079 . S
Mg255 O259 2.072 . S
Mg255 O261 2.099 . S
Mg255 O272 2.079 . S
O256 Mg253 2.180 . S
O256 Mg255 2.099 . S
O256 C267 1.279 . S
O257 Mg253 2.117 . S
O257 C267 1.250 . S
O258 Mg255 2.079 . S
O258 C268 1.264 . S
O259 Mg255 2.072 . S
O259 C269 1.260 1_565 S
Mg260 O261 2.180 . S
Mg260 O262 2.030 . S
Mg260 O263 1.990 1_565 S
Mg260 O264 2.117 . S
O261 Mg255 2.099 . S
O261 Mg260 2.180 . S
O261 C270 1.279 . S
O262 Mg260 2.030 . S
O262 C268 1.248 . S
O263 Mg260 1.990 1_545 S
O263 C269 1.253 . S
O264 Mg260 2.117 . S
O264 C270 1.250 . S
C265 O271 1.248 . S
C265 O272 1.264 . S
C266 O252 1.253 . S
C266 O254 1.260 . S
C267 O256 1.279 . S
C267 O257 1.250 . S
C268 O258 1.264 . S
C268 O262 1.248 . S
C269 O259 1.260 1_545 S
C269 O263 1.253 . S
C270 O261 1.279 . S
C270 O264 1.250 . S
O271 Mg253 2.030 . S
O271 C265 1.248 . S
O272 Mg255 2.079 . S
O272 C265 1.264 . S
O273 Mg274 1.990 . S
O273 C287 1.253 . S
Mg274 O273 1.990 . S
Mg274 O277 2.180 . S
Mg274 O278 2.117 . S
Mg274 O292 2.030 . S
O275 Mg276 2.072 . S
O275 C287 1.260 . S
Mg276 O275 2.072 . S
Mg276 O277 2.099 . S
Mg276 O279 2.079 . S
Mg276 O280 2.072 . S
Mg276 O282 2.099 . S
Mg276 O293 2.079 . S
O277 Mg274 2.180 . S
O277 Mg276 2.099 . S
O277 C288 1.279 . S
O278 Mg274 2.117 . S
O278 C288 1.250 . S
O279 Mg276 2.079 . S
O279 C289 1.264 . S
O280 Mg276 2.072 . S
O280 C290 1.260 . S
Mg281 O282 2.180 . S
Mg281 O283 2.030 . S
Mg281 O284 1.990 . S
Mg281 O285 2.117 . S
O282 Mg276 2.099 . S
O282 Mg281 2.180 . S
O282 C291 1.279 . S
O283 Mg281 2.030 . S
O283 C289 1.248 . S
O284 Mg281 1.990 . S
O284 C290 1.253 . S
O285 Mg281 2.117 . S
O285 C291 1.250 . S
C286 O292 1.248 . S
C286 O293 1.264 . S
C287 O273 1.253 . S
C287 O275 1.260 . S
C288 O277 1.279 . S
C288 O278 1.250 . S
C289 O279 1.264 . S
C289 O283 1.248 . S
C290 O280 1.260 . S
C290 O284 1.253 . S
C291 O282 1.279 . S
C291 O285 1.250 . S
O292 Mg274 2.030 . S
O292 C286 1.248 . S
O293 Mg276 2.079 . S
O293 C286 1.264 . S
O294 Mg295 1.990 . S
O294 C308 1.253 . S
Mg295 O294 1.990 . S
Mg295 O298 2.180 . S
Mg295 O299 2.117 . S
Mg295 O313 2.030 . S
O296 Mg297 2.072 . S
O296 C308 1.260 . S
Mg297 O296 2.072 . S
Mg297 O298 2.099 . S
Mg297 O300 2.079 . S
Mg297 O301 2.072 . S
Mg297 O303 2.099 . S
Mg297 O314 2.079 . S
O298 Mg295 2.180 . S
O298 Mg297 2.099 . S
O298 C309 1.279 . S
O299 Mg295 2.117 . S
O299 C309 1.250 . S
O300 Mg297 2.079 . S
O300 C310 1.264 . S
O301 Mg297 2.072 . S
O301 C311 1.260 . S
Mg302 O303 2.180 . S
Mg302 O304 2.030 . S
Mg302 O305 1.990 . S
Mg302 O306 2.117 . S
O303 Mg297 2.099 . S
O303 Mg302 2.180 . S
O303 C312 1.279 . S
O304 Mg302 2.030 . S
O304 C310 1.248 . S
O305 Mg302 1.990 . S
O305 C311 1.253 . S
O306 Mg302 2.117 . S
O306 C312 1.250 . S
C307 O313 1.248 . S
C307 O314 1.264 . S
C308 O294 1.253 . S
C308 O296 1.260 . S
C309 O298 1.279 . S
C309 O299 1.250 . S
C310 O300 1.264 . S
C310 O304 1.248 . S
C311 O301 1.260 . S
C311 O305 1.253 . S
C312 O303 1.279 . S
C312 O306 1.250 . S
O313 Mg295 2.030 . S
O313 C307 1.248 . S
O314 Mg297 2.079 . S
O314 C307 1.264 . S
O315 Mg316 1.990 . S
O315 C329 1.253 . S
Mg316 O315 1.990 . S
Mg316 O319 2.180 . S
Mg316 O320 2.117 . S
Mg316 O334 2.030 . S
O317 Mg318 2.072 . S
O317 C329 1.260 . S
Mg318 O317 2.072 . S
Mg318 O319 2.099 . S
Mg318 O321 2.079 . S
Mg318 O322 2.072 . S
Mg318 O324 2.099 . S
Mg318 O335 2.079 . S
O319 Mg316 2.180 . S
O319 Mg318 2.099 . S
O319 C330 1.279 . S
O320 Mg316 2.117 . S
O320 C330 1.250 . S
O321 Mg318 2.079 . S
O321 C331 1.264 . S
O322 Mg318 2.072 . S
O322 C332 1.260 . S
Mg323 O324 2.180 . S
Mg323 O325 2.030 . S
Mg323 O326 1.990 . S
Mg323 O327 2.117 1_556 S
O324 Mg318 2.099 . S
O324 Mg323 2.180 . S
O324 C333 1.279 . S
O325 Mg323 2.030 . S
O325 C331 1.248 . S
O326 Mg323 1.990 . S
O326 C332 1.253 . S
O327 Mg323 2.117 1_554 S
O327 C333 1.250 1_554 S
C328 O334 1.248 . S
C328 O335 1.264 . S
C329 O315 1.253 . S
C329 O317 1.260 . S
C330 O319 1.279 . S
C330 O320 1.250 . S
C331 O321 1.264 . S
C331 O325 1.248 . S
C332 O322 1.260 . S
C332 O326 1.253 . S
C333 O324 1.279 . S
C333 O327 1.250 1_556 S
O334 Mg316 2.030 . S
O334 C328 1.248 . S
O335 Mg318 2.079 . S
O335 C328 1.264 . S
H336 C344 0.929 . S
H337 C346 0.930 . S
H338 C348 0.930 . S
H339 C351 0.929 . S
H340 C354 0.930 . S
H341 C356 0.960 . S
H342 C356 0.960 . S
H343 C356 0.960 . S
C344 H336 0.929 . S
C344 C345 1.377 . S
C344 C346 1.384 . S
C345 C344 1.377 . S
C345 C351 1.390 . S
C346 H337 0.930 . S
C346 C344 1.384 . S
C346 C347 1.372 . S
C347 C346 1.372 . S
C347 C348 1.400 . S
C347 C352 1.490 . S
C348 H338 0.930 . S
C348 C347 1.400 . S
C348 C351 1.386 . S
H349 C365 0.930 . S
H350 C366 0.931 . S
C351 H339 0.929 . S
C351 C345 1.390 . S
C351 C348 1.386 . S
C352 C347 1.490 . S
C352 C354 1.395 . S
C352 C355 1.403 . S
H353 C359 0.930 . S
C354 H340 0.930 . S
C354 C352 1.395 . S
C354 C357 1.403 . S
C355 C352 1.403 . S
C355 C356 1.524 . S
C355 C359 1.400 . S
C356 H341 0.960 . S
C356 H342 0.960 . S
C356 H343 0.960 . S
C356 C355 1.524 . S
C357 C354 1.403 . S
C357 C358 1.392 . S
C357 C361 1.495 . S
C358 C357 1.392 . S
C358 C359 1.385 . S
C358 C360 1.478 . S
C359 H353 0.930 . S
C359 C355 1.400 . S
C359 C358 1.385 . S
C360 C358 1.478 . S
C360 C362 1.381 . S
C360 C366 1.383 . S
C361 C357 1.495 . S
C361 H367 0.959 1_455 S
C361 H368 0.961 1_455 S
C361 H369 0.960 . S
C362 C360 1.381 . S
C362 C363 1.394 . S
C362 H370 0.930 . S
C363 C362 1.394 . S
C363 C364 1.383 . S
C363 H371 0.929 . S
C364 C363 1.383 . S
C364 C365 1.377 . S
C365 H349 0.930 . S
C365 C364 1.377 . S
C365 C366 1.379 . S
C366 H350 0.931 . S
C366 C360 1.383 . S
C366 C365 1.379 . S
H367 C361 0.959 1_655 S
H368 C361 0.961 1_655 S
H369 C361 0.960 . S
H370 C362 0.930 . S
H371 C363 0.929 . S
H372 C380 0.929 . S
H373 C382 0.930 . S
H374 C384 0.930 1_655 S
H375 C387 0.929 1_655 S
H376 C390 0.930 . S
H377 C392 0.960 . S
H378 C392 0.960 . S
H379 C392 0.960 . S
C380 H372 0.929 . S
C380 C381 1.377 . S
C380 C382 1.384 . S
C381 C380 1.377 . S
C381 C387 1.390 . S
C382 H373 0.930 . S
C382 C380 1.384 . S
C382 C383 1.372 . S
C383 C382 1.372 . S
C383 C384 1.400 . S
C383 C388 1.490 . S
C384 H374 0.930 1_455 S
C384 C383 1.400 . S
C384 C387 1.386 . S
H385 C401 0.930 . S
H386 C402 0.931 . S
C387 H375 0.929 1_455 S
C387 C381 1.390 . S
C387 C384 1.386 . S
C388 C383 1.490 . S
C388 C390 1.395 . S
C388 C391 1.403 1_455 S
H389 C395 0.930 . S
C390 H376 0.930 . S
C390 C388 1.395 . S
C390 C393 1.403 . S
C391 C388 1.403 1_655 S
C391 C392 1.524 . S
C391 C395 1.400 . S
C392 H377 0.960 . S
C392 H378 0.960 . S
C392 H379 0.960 . S
C392 C391 1.524 . S
C393 C390 1.403 . S
C393 C394 1.392 . S
C393 C397 1.495 . S
C394 C393 1.392 . S
C394 C395 1.385 1_455 S
C394 C396 1.478 1_455 S
C395 H389 0.930 . S
C395 C391 1.400 . S
C395 C394 1.385 1_655 S
C396 C394 1.478 1_655 S
C396 C398 1.381 1_655 S
C396 C402 1.383 . S
C397 C393 1.495 . S
C397 H403 0.959 . S
C397 H404 0.961 . S
C397 H405 0.960 . S
C398 C396 1.381 1_455 S
C398 C399 1.380 1_455 S
C398 H406 0.930 . S
C399 C398 1.380 1_655 S
C399 C400 1.412 . S
C399 H407 0.916 1_655 S
C400 C399 1.412 . S
C400 C401 1.377 . S
C401 H385 0.930 . S
C401 C400 1.377 . S
C401 C402 1.379 . S
C402 H386 0.931 . S
C402 C396 1.383 . S
C402 C401 1.379 . S
H403 C397 0.959 . S
H404 C397 0.961 . S
H405 C397 0.960 . S
H406 C398 0.930 . S
H407 C399 0.916 1_455 S
H408 C416 0.929 . S
H409 C418 0.930 . S
H410 C420 0.930 1_655 S
H411 C423 0.911 1_655 S
H412 C426 0.930 . S
H413 C428 0.960 . S
H414 C428 0.960 . S
H415 C428 0.960 . S
C416 H408 0.929 . S
C416 C417 1.377 . S
C416 C418 1.384 . S
C417 C416 1.377 . S
C417 C423 1.390 . S
C418 H409 0.930 . S
C418 C416 1.384 . S
C418 C419 1.372 . S
C419 C418 1.372 . S
C419 C420 1.400 . S
C419 C424 1.490 . S
C420 H410 0.930 1_455 S
C420 C419 1.400 . S
C420 C423 1.386 . S
H421 C437 0.930 . S
H422 C438 0.931 . S
C423 H411 0.911 1_455 S
C423 C417 1.390 . S
C423 C420 1.386 . S
C424 C419 1.490 . S
C424 C426 1.395 . S
C424 C427 1.403 . S
H425 C431 0.930 1_655 S
C426 H412 0.930 . S
C426 C424 1.395 . S
C426 C429 1.403 . S
C427 C424 1.403 . S
C427 C428 1.524 1_455 S
C427 C431 1.400 . S
C428 H413 0.960 . S
C428 H414 0.960 . S
C428 H415 0.960 . S
C428 C427 1.524 1_655 S
C429 C426 1.403 . S
C429 C430 1.392 . S
C429 C433 1.495 . S
C430 C429 1.392 . S
C430 C431 1.385 . S
C430 C432 1.478 . S
C431 H425 0.930 1_455 S
C431 C427 1.400 . S
C431 C430 1.385 . S
C432 C430 1.478 . S
C432 C434 1.381 . S
C432 C438 1.383 . S
C433 C429 1.495 . S
C433 H439 0.959 . S
C433 H440 0.961 . S
C433 H441 0.960 . S
C434 C432 1.381 . S
C434 C435 1.394 . S
C434 H442 0.930 . S
C435 C434 1.394 . S
C435 C436 1.383 . S
C435 H443 0.929 . S
C436 C435 1.383 . S
C436 C437 1.377 . S
C437 H421 0.930 . S
C437 C436 1.377 . S
C437 C438 1.379 . S
C438 H422 0.931 . S
C438 C432 1.383 . S
C438 C437 1.379 . S
H439 C433 0.959 . S
H440 C433 0.961 . S
H441 C433 0.960 . S
H442 C434 0.930 . S
H443 C435 0.929 . S
H444 C452 0.929 . S
H445 C454 0.930 . S
H446 C456 0.930 . S
H447 C459 0.929 . S
H448 C462 0.930 . S
H449 C464 0.960 . S
H450 C464 0.960 . S
H451 C464 0.960 . S
C452 H444 0.929 . S
C452 C453 1.377 1_655 S
C452 C454 1.384 . S
C453 C452 1.377 1_455 S
C453 C459 1.390 . S
C454 H445 0.930 . S
C454 C452 1.384 . S
C454 C455 1.372 . S
C455 C454 1.372 . S
C455 C456 1.400 1_655 S
C455 C460 1.490 . S
C456 H446 0.930 . S
C456 C455 1.400 1_455 S
C456 C459 1.386 . S
H457 C473 0.930 1_455 S
H458 C474 0.931 1_455 S
C459 H447 0.929 . S
C459 C453 1.390 . S
C459 C456 1.386 . S
C460 C455 1.490 . S
C460 C462 1.395 . S
C460 C463 1.403 1_655 S
H461 C467 0.911 1_455 S
C462 H448 0.930 . S
C462 C460 1.395 . S
C462 C465 1.403 . S
C463 C460 1.403 1_455 S
C463 C464 1.524 . S
C463 C467 1.394 1_455 S
C464 H449 0.960 . S
C464 H450 0.960 . S
C464 H451 0.960 . S
C464 C463 1.524 . S
C465 C462 1.403 . S
C465 C466 1.392 . S
C465 C469 1.495 . S
C466 C465 1.392 . S
C466 C467 1.411 . S
C466 C468 1.478 . S
C467 H461 0.911 1_655 S
C467 C463 1.394 1_655 S
C467 C466 1.411 . S
C468 C466 1.478 . S
C468 C470 1.381 . S
C468 C474 1.383 . S
C469 C465 1.495 . S
C469 H475 0.959 . S
C469 H476 0.961 . S
C469 H477 0.960 . S
C470 C468 1.381 . S
C470 C471 1.394 . S
C470 H478 0.930 . S
C471 C470 1.394 . S
C471 C472 1.383 . S
C471 H479 0.929 . S
C472 C471 1.383 . S
C472 C473 1.377 . S
C473 H457 0.930 1_655 S
C473 C472 1.377 . S
C473 C474 1.379 . S
C474 H458 0.931 1_655 S
C474 C468 1.383 . S
C474 C473 1.379 . S
H475 C469 0.959 . S
H476 C469 0.961 . S
H477 C469 0.960 . S
H478 C470 0.930 . S
H479 C471 0.929 . S
H480 C488 0.929 1_565 S
H481 C490 0.948 . S
H482 C492 0.930 . S
H483 C495 0.929 . S
H484 C498 0.930 . S
H485 C500 0.960 . S
H486 C500 0.960 1_565 S
H487 C500 0.960 . S
C488 H480 0.929 1_545 S
C488 C489 1.377 . S
C488 C490 1.384 . S
C489 C488 1.377 . S
C489 C495 1.390 . S
C490 H481 0.948 . S
C490 C488 1.384 . S
C490 C491 1.372 . S
C491 C490 1.372 . S
C491 C492 1.400 . S
C491 C496 1.490 . S
C492 H482 0.930 . S
C492 C491 1.400 . S
C492 C495 1.386 . S
H493 C509 0.930 . S
H494 C510 0.931 . S
C495 H483 0.929 . S
C495 C489 1.390 . S
C495 C492 1.386 . S
C496 C491 1.490 . S
C496 C498 1.395 . S
C496 C499 1.403 . S
H497 C503 0.930 . S
C498 H484 0.930 . S
C498 C496 1.395 . S
C498 C501 1.403 . S
C499 C496 1.403 . S
C499 C500 1.524 . S
C499 C503 1.400 . S
C500 H485 0.960 . S
C500 H486 0.960 1_545 S
C500 H487 0.960 . S
C500 C499 1.524 . S
C501 C498 1.403 . S
C501 C502 1.392 . S
C501 C505 1.495 . S
C502 C501 1.392 . S
C502 C503 1.385 . S
C502 C504 1.478 . S
C503 H497 0.930 . S
C503 C499 1.400 . S
C503 C502 1.385 . S
C504 C502 1.478 . S
C504 C506 1.381 . S
C504 C510 1.383 . S
C505 C501 1.495 . S
C505 H511 0.959 . S
C505 H512 0.961 . S
C505 H513 0.960 . S
C506 C504 1.381 . S
C506 C507 1.394 . S
C506 H514 0.930 . S
C507 C506 1.394 . S
C507 C508 1.383 . S
C507 H515 0.926 . S
C508 C507 1.383 . S
C508 C509 1.377 . S
C509 H493 0.930 . S
C509 C508 1.377 . S
C509 C510 1.379 . S
C510 H494 0.931 . S
C510 C504 1.383 . S
C510 C509 1.379 . S
H511 C505 0.959 . S
H512 C505 0.961 . S
H513 C505 0.960 . S
H514 C506 0.930 . S
H515 C507 0.926 . S
H516 C524 0.929 . S
H517 C526 0.930 . S
H518 C528 0.930 . S
H519 C531 0.929 . S
H520 C534 0.930 . S
H521 C536 0.960 . S
H522 C536 0.960 . S
H523 C536 0.960 . S
C524 H516 0.929 . S
C524 C525 1.377 . S
C524 C526 1.384 . S
C525 C524 1.377 . S
C525 C531 1.390 . S
C526 H517 0.930 . S
C526 C524 1.384 . S
C526 C527 1.372 . S
C527 C526 1.372 . S
C527 C528 1.400 . S
C527 C532 1.490 . S
C528 H518 0.930 . S
C528 C527 1.400 . S
C528 C531 1.386 . S
H529 C545 0.930 . S
H530 C546 0.931 . S
C531 H519 0.929 . S
C531 C525 1.390 . S
C531 C528 1.386 . S
C532 C527 1.490 . S
C532 C534 1.395 . S
C532 C535 1.403 . S
H533 C539 0.930 . S
C534 H520 0.930 . S
C534 C532 1.395 . S
C534 C537 1.403 . S
C535 C532 1.403 . S
C535 C536 1.524 . S
C535 C539 1.400 . S
C536 H521 0.960 . S
C536 H522 0.960 . S
C536 H523 0.960 . S
C536 C535 1.524 . S
C537 C534 1.403 . S
C537 C538 1.392 . S
C537 C541 1.495 . S
C538 C537 1.392 . S
C538 C539 1.385 . S
C538 C540 1.478 . S
C539 H533 0.930 . S
C539 C535 1.400 . S
C539 C538 1.385 . S
C540 C538 1.478 . S
C540 C542 1.381 . S
C540 C546 1.383 . S
C541 C537 1.495 . S
C541 H547 0.959 . S
C541 H548 0.961 . S
C541 H549 0.960 . S
C542 C540 1.381 . S
C542 C543 1.394 . S
C542 H550 0.930 . S
C543 C542 1.394 . S
C543 C544 1.383 . S
C543 H551 0.929 . S
C544 C543 1.383 . S
C544 C545 1.377 . S
C545 H529 0.930 . S
C545 C544 1.377 . S
C545 C546 1.379 . S
C546 H530 0.931 . S
C546 C540 1.383 . S
C546 C545 1.379 . S
H547 C541 0.959 . S
H548 C541 0.961 . S
H549 C541 0.960 . S
H550 C542 0.930 . S
H551 C543 0.929 . S
H552 C560 0.929 . S
H553 C562 0.930 . S
H554 C564 0.930 . S
H555 C567 0.929 . S
H556 C570 0.930 . S
H557 C572 0.960 . S
H558 C572 0.960 . S
H559 C572 0.960 . S
C560 H552 0.929 . S
C560 C561 1.377 . S
C560 C562 1.384 . S
C561 C560 1.377 . S
C561 C567 1.390 1_565 S
C562 H553 0.930 . S
C562 C560 1.384 . S
C562 C563 1.372 . S
C563 C562 1.372 . S
C563 C564 1.400 1_565 S
C563 C568 1.490 . S
C564 H554 0.930 . S
C564 C563 1.400 1_545 S
C564 C567 1.386 . S
H565 C581 0.957 . S
H566 C582 0.931 . S
C567 H555 0.929 . S
C567 C561 1.390 1_545 S
C567 C564 1.386 . S
C568 C563 1.490 . S
C568 C570 1.395 1_565 S
C568 C571 1.403 . S
H569 C575 0.930 . S
C570 H556 0.930 . S
C570 C568 1.395 1_545 S
C570 C573 1.403 . S
C571 C568 1.403 . S
C571 C572 1.524 . S
C571 C575 1.400 . S
C572 H557 0.960 . S
C572 H558 0.960 . S
C572 H559 0.960 . S
C572 C571 1.524 . S
C573 C570 1.403 . S
C573 C574 1.392 1_545 S
C573 C577 1.495 . S
C574 C573 1.392 1_565 S
C574 C575 1.385 . S
C574 C576 1.478 . S
C575 H569 0.930 . S
C575 C571 1.400 . S
C575 C574 1.385 . S
C576 C574 1.478 . S
C576 C578 1.381 . S
C576 C582 1.383 1_565 S
C577 C573 1.495 . S
C577 H583 0.959 . S
C577 H584 0.961 . S
C577 H585 0.958 . S
C578 C576 1.381 . S
C578 C579 1.394 . S
C578 H586 0.930 . S
C579 C578 1.394 . S
C579 C580 1.383 . S
C579 H587 0.929 . S
C580 C579 1.383 . S
C580 C581 1.345 1_565 S
C581 H565 0.957 . S
C581 C580 1.345 1_545 S
C581 C582 1.386 . S
C582 H566 0.931 . S
C582 C576 1.383 1_545 S
C582 C581 1.386 . S
H583 C577 0.959 . S
H584 C577 0.961 . S
H585 C577 0.958 . S
H586 C578 0.930 . S
H587 C579 0.929 . S
H588 C596 0.929 . S
H589 C598 0.930 . S
H590 C600 0.930 . S
H591 C603 0.929 . S
H592 C606 0.930 . S
H593 C608 0.960 . S
H594 C608 0.960 . S
H595 C608 0.960 . S
C596 H588 0.929 . S
C596 C597 1.377 . S
C596 C598 1.384 . S
C597 C596 1.377 . S
C597 C603 1.390 . S
C598 H589 0.930 . S
C598 C596 1.384 . S
C598 C599 1.372 . S
C599 C598 1.372 . S
C599 C600 1.400 . S
C599 C604 1.490 . S
C600 H590 0.930 . S
C600 C599 1.400 . S
C600 C603 1.386 . S
H601 C617 0.930 . S
H602 C618 0.931 . S
C603 H591 0.929 . S
C603 C597 1.390 . S
C603 C600 1.386 . S
C604 C599 1.490 . S
C604 C606 1.395 . S
C604 C607 1.403 . S
H605 C611 0.930 . S
C606 H592 0.930 . S
C606 C604 1.395 . S
C606 C609 1.403 . S
C607 C604 1.403 . S
C607 C608 1.524 . S
C607 C611 1.400 . S
C608 H593 0.960 . S
C608 H594 0.960 . S
C608 H595 0.960 . S
C608 C607 1.524 . S
C609 C606 1.403 . S
C609 C610 1.392 . S
C609 C613 1.495 . S
C610 C609 1.392 . S
C610 C611 1.385 . S
C610 C612 1.478 . S
C611 H605 0.930 . S
C611 C607 1.400 . S
C611 C610 1.385 . S
C612 C610 1.478 . S
C612 C614 1.381 . S
C612 C618 1.383 . S
C613 C609 1.495 . S
C613 H619 0.959 . S
C613 H620 0.961 . S
C613 H621 0.960 . S
C614 C612 1.381 . S
C614 C615 1.394 . S
C614 H622 0.930 . S
C615 C614 1.394 . S
C615 C616 1.383 . S
C615 H623 0.929 . S
C616 C615 1.383 . S
C616 C617 1.377 . S
C617 H601 0.930 . S
C617 C616 1.377 . S
C617 C618 1.379 . S
C618 H602 0.931 . S
C618 C612 1.383 . S
C618 C617 1.379 . S
H619 C613 0.959 . S
H620 C613 0.961 . S
H621 C613 0.960 . S
H622 C614 0.930 . S
H623 C615 0.929 . S
H624 C632 0.929 . S
H625 C634 0.930 . S
H626 C636 0.930 . S
H627 C639 0.929 . S
H628 C642 0.930 . S
H629 C644 0.960 . S
H630 C644 0.960 . S
H631 C644 0.960 . S
C632 H624 0.929 . S
C632 C633 1.377 . S
C632 C634 1.384 . S
C633 C632 1.377 . S
C633 C639 1.390 . S
C634 H625 0.930 . S
C634 C632 1.384 . S
C634 C635 1.372 . S
C635 C634 1.372 . S
C635 C636 1.400 . S
C635 C640 1.490 . S
C636 H626 0.930 . S
C636 C635 1.400 . S
C636 C639 1.386 . S
H637 C653 0.930 . S
H638 C654 0.931 . S
C639 H627 0.929 . S
C639 C633 1.390 . S
C639 C636 1.386 . S
C640 C635 1.490 . S
C640 C642 1.395 . S
C640 C643 1.403 . S
H641 C647 0.930 . S
C642 H628 0.930 . S
C642 C640 1.395 . S
C642 C645 1.403 . S
C643 C640 1.403 . S
C643 C644 1.524 1_554 S
C643 C647 1.400 . S
C644 H629 0.960 . S
C644 H630 0.960 . S
C644 H631 0.960 . S
C644 C643 1.524 1_556 S
C645 C642 1.403 . S
C645 C646 1.392 . S
C645 C649 1.495 . S
C646 C645 1.392 . S
C646 C647 1.385 . S
C646 C648 1.478 . S
C647 H641 0.930 . S
C647 C643 1.400 . S
C647 C646 1.385 . S
C648 C646 1.478 . S
C648 C650 1.381 . S
C648 C654 1.383 . S
C649 C645 1.495 . S
C649 H655 0.959 . S
C649 H656 0.961 . S
C649 H657 0.960 . S
C650 C648 1.381 . S
C650 C651 1.394 . S
C650 H658 0.930 . S
C651 C650 1.394 . S
C651 C652 1.383 . S
C651 H659 0.929 . S
C652 C651 1.383 . S
C652 C653 1.377 . S
C653 H637 0.930 . S
C653 C652 1.377 . S
C653 C654 1.379 . S
C654 H638 0.931 . S
C654 C648 1.383 . S
C654 C653 1.379 . S
H655 C649 0.959 . S
H656 C649 0.961 . S
H657 C649 0.960 . S
H658 C650 0.930 . S
H659 C651 0.929 . S
H660 C668 0.929 . S
H661 C670 0.930 . S
H662 C672 0.930 . S
H663 C675 0.929 . S
H664 C678 0.930 . S
H665 C680 0.960 . S
H666 C680 0.960 . S
H667 C680 0.960 . S
C668 H660 0.929 . S
C668 C669 1.377 . S
C668 C670 1.384 . S
C669 C668 1.377 . S
C669 C675 1.390 . S
C670 H661 0.930 . S
C670 C668 1.384 . S
C670 C671 1.372 . S
C671 C670 1.372 . S
C671 C672 1.400 . S
C671 C676 1.490 . S
C672 H662 0.930 . S
C672 C671 1.400 . S
C672 C675 1.386 . S
H673 C689 0.930 . S
H674 C690 0.931 . S
C675 H663 0.929 . S
C675 C669 1.390 . S
C675 C672 1.386 . S
C676 C671 1.490 . S
C676 C678 1.395 . S
C676 C679 1.403 . S
H677 C683 0.930 . S
C678 H664 0.930 . S
C678 C676 1.395 . S
C678 C681 1.403 . S
C679 C676 1.403 . S
C679 C680 1.524 . S
C679 C683 1.400 . S
C680 H665 0.960 . S
C680 H666 0.960 . S
C680 H667 0.960 . S
C680 C679 1.524 . S
C681 C678 1.403 . S
C681 C682 1.392 . S
C681 C685 1.495 . S
C682 C681 1.392 . S
C682 C683 1.385 . S
C682 C684 1.478 . S
C683 H677 0.930 . S
C683 C679 1.400 . S
C683 C682 1.385 . S
C684 C682 1.478 . S
C684 C686 1.381 . S
C684 C690 1.383 . S
C685 C681 1.495 . S
C685 H691 0.959 . S
C685 H692 0.961 . S
C685 H693 0.960 . S
C686 C684 1.381 . S
C686 C687 1.394 . S
C686 H694 0.930 . S
C687 C686 1.394 . S
C687 C688 1.383 . S
C687 H695 0.929 . S
C688 C687 1.383 . S
C688 C689 1.377 . S
C689 H673 0.930 . S
C689 C688 1.377 . S
C689 C690 1.379 . S
C690 H674 0.931 . S
C690 C684 1.383 . S
C690 C689 1.379 . S
H691 C685 0.959 . S
H692 C685 0.961 . S
H693 C685 0.960 . S
H694 C686 0.930 . S
H695 C687 0.929 . S
H696 C704 0.929 . S
H697 C706 0.930 . S
H698 C708 0.930 . S
H699 C711 0.929 . S
H700 C714 0.930 . S
H701 C716 0.960 . S
H702 C716 0.960 . S
H703 C716 0.960 . S
C704 H696 0.929 . S
C704 C705 1.377 . S
C704 C706 1.384 . S
C705 C704 1.377 . S
C705 C711 1.390 . S
C706 H697 0.930 . S
C706 C704 1.384 . S
C706 C707 1.372 . S
C707 C706 1.372 . S
C707 C708 1.400 . S
C707 C712 1.490 . S
C708 H698 0.930 . S
C708 C707 1.400 . S
C708 C711 1.386 . S
H709 C725 0.930 . S
H710 C726 0.931 . S
C711 H699 0.929 . S
C711 C705 1.390 . S
C711 C708 1.386 . S
C712 C707 1.490 . S
C712 C714 1.395 . S
C712 C715 1.403 . S
H713 C719 0.930 . S
C714 H700 0.930 . S
C714 C712 1.395 . S
C714 C717 1.403 . S
C715 C712 1.403 . S
C715 C716 1.524 . S
C715 C719 1.400 . S
C716 H701 0.960 . S
C716 H702 0.960 . S
C716 H703 0.960 . S
C716 C715 1.524 . S
C717 C714 1.403 . S
C717 C718 1.392 . S
C717 C721 1.495 . S
C718 C717 1.392 . S
C718 C719 1.385 . S
C718 C720 1.478 . S
C719 H713 0.930 . S
C719 C715 1.400 . S
C719 C718 1.385 . S
C720 C718 1.478 . S
C720 C722 1.381 . S
C720 C726 1.383 . S
C721 C717 1.495 . S
C721 H727 0.959 . S
C721 H728 0.961 . S
C721 H729 0.960 . S
C722 C720 1.381 . S
C722 C723 1.394 . S
C722 H730 0.930 . S
C723 C722 1.394 . S
C723 C724 1.383 . S
C723 H731 0.929 . S
C724 C723 1.383 . S
C724 C725 1.377 . S
C725 H709 0.930 . S
C725 C724 1.377 . S
C725 C726 1.379 . S
C726 H710 0.931 . S
C726 C720 1.383 . S
C726 C725 1.379 . S
H727 C721 0.959 . S
H728 C721 0.961 . S
H729 C721 0.960 . S
H730 C722 0.930 . S
H731 C723 0.929 . S
H732 C740 0.929 . S
H733 C742 0.930 . S
H734 C744 0.930 . S
H735 C747 0.929 . S
H736 C750 0.930 . S
H737 C752 0.960 . S
H738 C752 0.960 . S
H739 C752 0.960 . S
C740 H732 0.929 . S
C740 C741 1.377 . S
C740 C742 1.384 . S
C741 C740 1.377 . S
C741 C747 1.390 . S
C742 H733 0.930 . S
C742 C740 1.384 . S
C742 C743 1.372 . S
C743 C742 1.372 . S
C743 C744 1.400 . S
C743 C748 1.490 . S
C744 H734 0.930 . S
C744 C743 1.400 . S
C744 C747 1.386 . S
H745 C761 0.930 . S
H746 C762 0.931 . S
C747 H735 0.929 . S
C747 C741 1.390 . S
C747 C744 1.386 . S
C748 C743 1.490 . S
C748 C750 1.395 . S
C748 C751 1.403 . S
H749 C755 0.930 . S
C750 H736 0.930 . S
C750 C748 1.395 . S
C750 C753 1.403 . S
C751 C748 1.403 . S
C751 C752 1.524 . S
C751 C755 1.400 . S
C752 H737 0.960 . S
C752 H738 0.960 . S
C752 H739 0.960 . S
C752 C751 1.524 . S
C753 C750 1.403 . S
C753 C754 1.392 . S
C753 C757 1.495 . S
C754 C753 1.392 . S
C754 C755 1.385 . S
C754 C756 1.478 . S
C755 H749 0.930 . S
C755 C751 1.400 . S
C755 C754 1.385 . S
C756 C754 1.478 . S
C756 C758 1.381 . S
C756 C762 1.383 . S
C757 C753 1.495 . S
C757 H763 0.959 . S
C757 H764 0.961 . S
C757 H765 0.960 . S
C758 C756 1.381 . S
C758 C759 1.394 . S
C758 H766 0.930 . S
C759 C758 1.394 . S
C759 C760 1.383 . S
C759 H767 0.929 . S
C760 C759 1.383 . S
C760 C761 1.377 . S
C761 H745 0.930 . S
C761 C760 1.377 . S
C761 C762 1.379 . S
C762 H746 0.931 . S
C762 C756 1.383 . S
C762 C761 1.379 . S
H763 C757 0.959 . S
H764 C757 0.961 . S
H765 C757 0.960 . S
H766 C758 0.930 . S
H767 C759 0.929 . S
H768 C776 0.929 . S
H769 C778 0.930 . S
H770 C780 0.930 . S
H771 C783 0.929 . S
H772 C786 0.930 . S
H773 C788 0.960 . S
H774 C788 0.960 . S
H775 C788 0.960 . S
C776 H768 0.929 . S
C776 C777 1.377 . S
C776 C778 1.384 . S
C777 C776 1.377 . S
C777 C783 1.390 . S
C778 H769 0.930 . S
C778 C776 1.384 . S
C778 C779 1.372 . S
C779 C778 1.372 . S
C779 C780 1.400 . S
C779 C784 1.490 . S
C780 H770 0.930 . S
C780 C779 1.400 . S
C780 C783 1.386 . S
H781 C797 0.930 . S
H782 C798 0.931 . S
C783 H771 0.929 . S
C783 C777 1.390 . S
C783 C780 1.386 . S
C784 C779 1.490 . S
C784 C786 1.395 . S
C784 C787 1.403 . S
H785 C791 0.930 . S
C786 H772 0.930 . S
C786 C784 1.395 . S
C786 C789 1.403 . S
C787 C784 1.403 . S
C787 C788 1.524 . S
C787 C791 1.400 . S
C788 H773 0.960 . S
C788 H774 0.960 . S
C788 H775 0.960 . S
C788 C787 1.524 . S
C789 C786 1.403 . S
C789 C790 1.392 . S
C789 C793 1.495 . S
C790 C789 1.392 . S
C790 C791 1.385 . S
C790 C792 1.478 . S
C791 H785 0.930 . S
C791 C787 1.400 . S
C791 C790 1.385 . S
C792 C790 1.478 . S
C792 C794 1.381 . S
C792 C798 1.383 . S
C793 C789 1.495 . S
C793 H799 0.959 . S
C793 H800 0.961 . S
C793 H801 0.960 . S
C794 C792 1.381 . S
C794 C795 1.394 . S
C794 H802 0.930 . S
C795 C794 1.394 . S
C795 C796 1.383 . S
C795 H803 0.929 . S
C796 C795 1.383 . S
C796 C797 1.377 . S
C797 H781 0.930 . S
C797 C796 1.377 . S
C797 C798 1.379 . S
C798 H782 0.931 . S
C798 C792 1.383 . S
C798 C797 1.379 . S
H799 C793 0.959 . S
H800 C793 0.961 . S
H801 C793 0.960 . S
H802 C794 0.930 . S
H803 C795 0.929 . S
H804 C812 0.929 . S
H805 C814 0.930 . S
H806 C816 0.930 . S
H807 C819 0.929 . S
H808 C822 0.930 . S
H809 C824 0.960 . S
H810 C824 0.960 . S
H811 C824 0.960 . S
C812 H804 0.929 . S
C812 C813 1.377 . S
C812 C814 1.384 . S
C813 C812 1.377 . S
C813 C819 1.390 . S
C814 H805 0.930 . S
C814 C812 1.384 . S
C814 C815 1.372 . S
C815 C814 1.372 . S
C815 C816 1.400 . S
C815 C820 1.490 . S
C816 H806 0.930 . S
C816 C815 1.400 . S
C816 C819 1.386 . S
H817 C833 0.930 . S
H818 C834 0.931 . S
C819 H807 0.929 . S
C819 C813 1.390 . S
C819 C816 1.386 . S
C820 C815 1.490 . S
C820 C822 1.395 . S
C820 C823 1.403 . S
H821 C827 0.930 . S
C822 H808 0.930 . S
C822 C820 1.395 . S
C822 C825 1.403 . S
C823 C820 1.403 . S
C823 C824 1.524 . S
C823 C827 1.400 . S
C824 H809 0.960 . S
C824 H810 0.960 . S
C824 H811 0.960 . S
C824 C823 1.524 . S
C825 C822 1.403 . S
C825 C826 1.392 . S
C825 C829 1.495 . S
C826 C825 1.392 . S
C826 C827 1.385 . S
C826 C828 1.478 . S
C827 H821 0.930 . S
C827 C823 1.400 . S
C827 C826 1.385 . S
C828 C826 1.478 . S
C828 C830 1.381 . S
C828 C834 1.383 . S
C829 C825 1.495 . S
C829 H835 0.959 . S
C829 H836 0.961 . S
C829 H837 0.960 . S
C830 C828 1.381 . S
C830 C831 1.394 . S
C830 H838 0.930 . S
C831 C830 1.394 . S
C831 C832 1.383 . S
C831 H839 0.929 1_565 S
C832 C831 1.383 . S
C832 C833 1.377 . S
C833 H817 0.930 . S
C833 C832 1.377 . S
C833 C834 1.379 . S
C834 H818 0.931 . S
C834 C828 1.383 . S
C834 C833 1.379 . S
H835 C829 0.959 . S
H836 C829 0.961 . S
H837 C829 0.960 . S
H838 C830 0.930 . S
H839 C831 0.929 1_545 S
H840 C848 0.929 . S
H841 C850 0.930 . S
H842 C852 0.930 . S
H843 C855 0.929 . S
H844 C858 0.930 . S
H845 C860 0.960 . S
H846 C860 0.960 . S
H847 C860 0.960 . S
C848 H840 0.929 . S
C848 C849 1.377 . S
C848 C850 1.384 . S
C849 C848 1.377 . S
C849 C855 1.390 . S
C850 H841 0.930 . S
C850 C848 1.384 . S
C850 C851 1.372 . S
C851 C850 1.372 . S
C851 C852 1.400 . S
C851 C856 1.490 . S
C852 H842 0.930 . S
C852 C851 1.400 . S
C852 C855 1.386 . S
H853 C869 0.930 . S
H854 C870 0.931 . S
C855 H843 0.929 . S
C855 C849 1.390 . S
C855 C852 1.386 . S
C856 C851 1.490 . S
C856 C858 1.395 . S
C856 C859 1.403 . S
H857 C863 0.930 . S
C858 H844 0.930 . S
C858 C856 1.395 . S
C858 C861 1.403 . S
C859 C856 1.403 . S
C859 C860 1.524 . S
C859 C863 1.400 . S
C860 H845 0.960 . S
C860 H846 0.960 . S
C860 H847 0.960 . S
C860 C859 1.524 . S
C861 C858 1.403 . S
C861 C862 1.392 . S
C861 C865 1.495 . S
C862 C861 1.392 . S
C862 C863 1.385 . S
C862 C864 1.478 . S
C863 H857 0.930 . S
C863 C859 1.400 . S
C863 C862 1.385 . S
C864 C862 1.478 . S
C864 C866 1.381 . S
C864 C870 1.383 . S
C865 C861 1.495 . S
C865 H871 0.959 . S
C865 H872 0.961 . S
C865 H873 0.960 . S
C866 C864 1.381 . S
C866 C867 1.394 . S
C866 H874 0.930 . S
C867 C866 1.394 . S
C867 C868 1.383 . S
C867 H875 0.929 . S
C868 C867 1.383 . S
C868 C869 1.377 . S
C869 H853 0.930 . S
C869 C868 1.377 . S
C869 C870 1.379 . S
C870 H854 0.931 . S
C870 C864 1.383 . S
C870 C869 1.379 . S
H871 C865 0.959 . S
H872 C865 0.961 . S
H873 C865 0.960 . S
H874 C866 0.930 . S
H875 C867 0.929 . S
H876 C884 0.929 . S
H877 C886 0.930 . S
H878 C888 0.930 . S
H879 C891 0.929 . S
H880 C894 0.930 . S
H881 C896 0.960 . S
H882 C896 0.960 . S
H883 C896 0.960 . S
C884 H876 0.929 . S
C884 C885 1.377 . S
C884 C886 1.384 . S
C885 C884 1.377 . S
C885 C891 1.390 . S
C886 H877 0.930 . S
C886 C884 1.384 . S
C886 C887 1.372 . S
C887 C886 1.372 . S
C887 C888 1.400 . S
C887 C892 1.490 . S
C888 H878 0.930 . S
C888 C887 1.400 . S
C888 C891 1.386 . S
H889 C905 0.930 . S
H890 C906 0.931 . S
C891 H879 0.929 . S
C891 C885 1.390 . S
C891 C888 1.386 . S
C892 C887 1.490 . S
C892 C894 1.395 . S
C892 C895 1.403 . S
H893 C899 0.930 . S
C894 H880 0.930 . S
C894 C892 1.395 . S
C894 C897 1.403 . S
C895 C892 1.403 . S
C895 C896 1.524 . S
C895 C899 1.400 . S
C896 H881 0.960 . S
C896 H882 0.960 . S
C896 H883 0.960 . S
C896 C895 1.524 . S
C897 C894 1.403 . S
C897 C898 1.392 . S
C897 C901 1.495 . S
C898 C897 1.392 . S
C898 C899 1.385 . S
C898 C900 1.478 . S
C899 H893 0.930 . S
C899 C895 1.400 . S
C899 C898 1.385 . S
C900 C898 1.478 . S
C900 C902 1.381 . S
C900 C906 1.383 . S
C901 C897 1.495 . S
C901 H907 0.959 . S
C901 H908 0.961 . S
C901 H909 0.960 . S
C902 C900 1.381 . S
C902 C903 1.394 . S
C902 H910 0.930 . S
C903 C902 1.394 . S
C903 C904 1.383 . S
C903 H911 0.929 . S
C904 C903 1.383 . S
C904 C905 1.377 . S
C905 H889 0.930 . S
C905 C904 1.377 . S
C905 C906 1.379 . S
C906 H890 0.931 . S
C906 C900 1.383 . S
C906 C905 1.379 . S
H907 C901 0.959 . S
H908 C901 0.961 . S
H909 C901 0.960 . S
H910 C902 0.930 . S
H911 C903 0.929 . S
H912 C920 0.929 . S
H913 C922 0.930 . S
H914 C924 0.930 . S
H915 C927 0.929 . S
H916 C930 0.930 . S
H917 C932 0.960 . S
H918 C932 0.960 . S
H919 C932 0.960 . S
C920 H912 0.929 . S
C920 C921 1.377 . S
C920 C922 1.384 . S
C921 C920 1.377 . S
C921 C927 1.390 . S
C922 H913 0.930 . S
C922 C920 1.384 . S
C922 C923 1.372 . S
C923 C922 1.372 . S
C923 C924 1.400 . S
C923 C928 1.490 . S
C924 H914 0.930 . S
C924 C923 1.400 . S
C924 C927 1.386 . S
H925 C941 0.930 . S
H926 C942 0.931 . S
C927 H915 0.929 . S
C927 C921 1.390 . S
C927 C924 1.386 . S
C928 C923 1.490 . S
C928 C930 1.395 . S
C928 C931 1.403 . S
H929 C935 0.930 . S
C930 H916 0.930 . S
C930 C928 1.395 . S
C930 C933 1.403 . S
C931 C928 1.403 . S
C931 C932 1.524 . S
C931 C935 1.400 . S
C932 H917 0.960 . S
C932 H918 0.960 . S
C932 H919 0.960 . S
C932 C931 1.524 . S
C933 C930 1.403 . S
C933 C934 1.392 . S
C933 C937 1.495 . S
C934 C933 1.392 . S
C934 C935 1.385 . S
C934 C936 1.478 . S
C935 H929 0.930 . S
C935 C931 1.400 . S
C935 C934 1.385 . S
C936 C934 1.478 . S
C936 C938 1.381 . S
C936 C942 1.383 . S
C937 C933 1.495 . S
C937 H943 0.959 . S
C937 H944 0.961 . S
C937 H945 0.960 . S
C938 C936 1.381 . S
C938 C939 1.394 . S
C938 H946 0.930 . S
C939 C938 1.394 . S
C939 C940 1.383 . S
C939 H947 0.929 . S
C940 C939 1.383 . S
C940 C941 1.377 . S
C941 H925 0.930 . S
C941 C940 1.377 . S
C941 C942 1.379 . S
C942 H926 0.931 . S
C942 C936 1.383 . S
C942 C941 1.379 . S
H943 C937 0.959 . S
H944 C937 0.961 . S
H945 C937 0.960 . S
H946 C938 0.930 . S
H947 C939 0.929 . S
H948 C956 0.929 . S
H949 C958 0.930 . S
H950 C960 0.921 1_545 S
H951 C963 0.929 . S
H952 C966 0.930 . S
H953 C968 0.960 . S
H954 C968 0.960 . S
H955 C968 0.960 . S
C956 H948 0.929 . S
C956 C957 1.377 . S
C956 C958 1.384 . S
C957 C956 1.377 . S
C957 C963 1.390 1_565 S
C958 H949 0.930 . S
C958 C956 1.384 . S
C958 C959 1.372 . S
C959 C958 1.372 . S
C959 C960 1.410 . S
C959 C964 1.490 . S
C960 H950 0.921 1_565 S
C960 C959 1.410 . S
C960 C963 1.385 1_565 S
H961 C977 0.930 1_545 S
H962 C978 0.931 1_545 S
C963 H951 0.929 . S
C963 C957 1.390 1_545 S
C963 C960 1.385 1_545 S
C964 C959 1.490 . S
C964 C966 1.395 . S
C964 C967 1.403 . S
H965 C971 0.930 . S
C966 H952 0.930 . S
C966 C964 1.395 . S
C966 C969 1.403 . S
C967 C964 1.403 . S
C967 C968 1.524 . S
C967 C971 1.400 . S
C968 H953 0.960 . S
C968 H954 0.960 . S
C968 H955 0.960 . S
C968 C967 1.524 . S
C969 C966 1.403 . S
C969 C970 1.392 . S
C969 C973 1.480 1_565 S
C970 C969 1.392 . S
C970 C971 1.385 . S
C970 C972 1.478 . S
C971 H965 0.930 . S
C971 C967 1.400 . S
C971 C970 1.385 . S
C972 C970 1.478 . S
C972 C974 1.381 . S
C972 C978 1.383 . S
C973 C969 1.480 1_545 S
C973 H979 0.972 . S
C973 H980 0.994 . S
C973 H981 0.932 1_545 S
C974 C972 1.381 . S
C974 C975 1.394 . S
C974 H982 0.930 . S
C975 C974 1.394 . S
C975 C976 1.383 . S
C975 H983 0.929 . S
C976 C975 1.383 . S
C976 C977 1.377 . S
C977 H961 0.930 1_565 S
C977 C976 1.377 . S
C977 C978 1.379 . S
C978 H962 0.931 1_565 S
C978 C972 1.383 . S
C978 C977 1.379 . S
H979 C973 0.972 . S
H980 C973 0.994 . S
H981 C973 0.932 1_565 S
H982 C974 0.930 . S
H983 C975 0.929 . S
H984 C992 0.929 . S
H985 C994 0.930 . S
H986 C996 0.930 . S
H987 C999 0.929 . S
H988 C1002 0.930 . S
H989 C1004 0.960 . S
H990 C1004 0.960 . S
H991 C1004 0.960 . S
C992 H984 0.929 . S
C992 C993 1.377 . S
C992 C994 1.384 . S
C993 C992 1.377 . S
C993 C999 1.390 . S
C994 H985 0.930 . S
C994 C992 1.384 . S
C994 C995 1.372 . S
C995 C994 1.372 . S
C995 C996 1.400 . S
C995 C1000 1.490 . S
C996 H986 0.930 . S
C996 C995 1.400 . S
C996 C999 1.386 . S
H997 C1013 0.930 . S
H998 C1014 0.931 . S
C999 H987 0.929 . S
C999 C993 1.390 . S
C999 C996 1.386 . S
C1000 C995 1.490 . S
C1000 C1002 1.395 . S
C1000 C1003 1.403 . S
H1001 C1007 0.930 . S
C1002 H988 0.930 . S
C1002 C1000 1.395 . S
C1002 C1005 1.403 . S
C1003 C1000 1.403 . S
C1003 C1004 1.524 . S
C1003 C1007 1.400 . S
C1004 H989 0.960 . S
C1004 H990 0.960 . S
C1004 H991 0.960 . S
C1004 C1003 1.524 . S
C1005 C1002 1.403 . S
C1005 C1006 1.392 . S
C1005 C1009 1.495 . S
C1006 C1005 1.392 . S
C1006 C1007 1.385 . S
C1006 C1008 1.478 . S
C1007 H1001 0.930 . S
C1007 C1003 1.400 . S
C1007 C1006 1.385 . S
C1008 C1006 1.478 . S
C1008 C1010 1.381 . S
C1008 C1014 1.383 . S
C1009 C1005 1.495 . S
C1009 H1015 0.959 . S
C1009 H1016 0.961 . S
C1009 H1017 0.960 . S
C1010 C1008 1.381 . S
C1010 C1011 1.394 . S
C1010 H1018 0.930 . S
C1011 C1010 1.394 . S
C1011 C1012 1.383 . S
C1011 H1019 0.929 . S
C1012 C1011 1.383 . S
C1012 C1013 1.377 . S
C1013 H997 0.930 . S
C1013 C1012 1.377 . S
C1013 C1014 1.379 . S
C1014 H998 0.931 . S
C1014 C1008 1.383 . S
C1014 C1013 1.379 . S
H1015 C1009 0.959 . S
H1016 C1009 0.961 . S
H1017 C1009 0.960 . S
H1018 C1010 0.930 . S
H1019 C1011 0.929 . S
H1020 C1028 0.929 . S
H1021 C1030 0.930 . S
H1022 C1032 0.930 1_565 S
H1023 C1035 0.927 . S
H1024 C1038 0.927 1_565 S
H1025 C1040 0.960 . S
H1026 C1040 0.960 . S
H1027 C1040 0.960 . S
C1028 H1020 0.929 . S
C1028 C1029 1.377 . S
C1028 C1030 1.384 . S
C1029 C1028 1.377 . S
C1029 C1035 1.392 1_545 S
C1030 H1021 0.930 . S
C1030 C1028 1.384 . S
C1030 C1031 1.372 . S
C1031 C1030 1.372 . S
C1031 C1032 1.400 . S
C1031 C1036 1.490 . S
C1032 H1022 0.930 1_545 S
C1032 C1031 1.400 . S
C1032 C1035 1.386 1_545 S
H1033 C1049 0.948 . S
H1034 C1050 0.931 1_565 S
C1035 H1023 0.927 . S
C1035 C1029 1.392 1_565 S
C1035 C1032 1.386 1_565 S
C1036 C1031 1.490 . S
C1036 C1038 1.395 . S
C1036 C1039 1.403 . S
H1037 C1043 0.930 . S
C1038 H1024 0.927 1_545 S
C1038 C1036 1.395 . S
C1038 C1041 1.403 . S
C1039 C1036 1.403 . S
C1039 C1040 1.524 . S
C1039 C1043 1.400 . S
C1040 H1025 0.960 . S
C1040 H1026 0.960 . S
C1040 H1027 0.960 . S
C1040 C1039 1.524 . S
C1041 C1038 1.403 . S
C1041 C1042 1.392 . S
C1041 C1045 1.495 1_545 S
C1042 C1041 1.392 . S
C1042 C1043 1.385 . S
C1042 C1044 1.478 . S
C1043 H1037 0.930 . S
C1043 C1039 1.400 . S
C1043 C1042 1.385 . S
C1044 C1042 1.478 . S
C1044 C1046 1.381 . S
C1044 C1050 1.383 . S
C1045 C1041 1.495 1_565 S
C1045 H1051 0.959 . S
C1045 H1052 0.961 . S
C1045 H1053 0.960 1_565 S
C1046 C1044 1.381 . S
C1046 C1047 1.394 . S
C1046 H1054 0.930 . S
C1047 C1046 1.394 . S
C1047 C1048 1.383 . S
C1047 H1055 0.929 . S
C1048 C1047 1.383 . S
C1048 C1049 1.377 . S
C1049 H1033 0.948 . S
C1049 C1048 1.377 . S
C1049 C1050 1.379 . S
C1050 H1034 0.931 1_545 S
C1050 C1044 1.383 . S
C1050 C1049 1.379 . S
H1051 C1045 0.959 . S
H1052 C1045 0.961 . S
H1053 C1045 0.960 1_545 S
H1054 C1046 0.930 . S
H1055 C1047 0.929 . S
H1056 C1064 0.929 . S
H1057 C1066 0.930 . S
H1058 C1068 0.930 . S
H1059 C1071 0.929 . S
H1060 C1074 0.930 . S
H1061 C1076 0.960 . S
H1062 C1076 0.960 . S
H1063 C1076 0.960 . S
C1064 H1056 0.929 . S
C1064 C1065 1.377 . S
C1064 C1066 1.384 . S
C1065 C1064 1.377 . S
C1065 C1071 1.390 . S
C1066 H1057 0.930 . S
C1066 C1064 1.384 . S
C1066 C1067 1.372 . S
C1067 C1066 1.372 . S
C1067 C1068 1.400 . S
C1067 C1072 1.490 . S
C1068 H1058 0.930 . S
C1068 C1067 1.400 . S
C1068 C1071 1.386 . S
H1069 C1085 0.930 . S
H1070 C1086 0.931 . S
C1071 H1059 0.929 . S
C1071 C1065 1.390 . S
C1071 C1068 1.386 . S
C1072 C1067 1.490 . S
C1072 C1074 1.395 . S
C1072 C1075 1.403 . S
H1073 C1079 0.930 . S
C1074 H1060 0.930 . S
C1074 C1072 1.395 . S
C1074 C1077 1.403 . S
C1075 C1072 1.403 . S
C1075 C1076 1.524 . S
C1075 C1079 1.400 . S
C1076 H1061 0.960 . S
C1076 H1062 0.960 . S
C1076 H1063 0.960 . S
C1076 C1075 1.524 . S
C1077 C1074 1.403 . S
C1077 C1078 1.392 . S
C1077 C1081 1.495 . S
C1078 C1077 1.392 . S
C1078 C1079 1.385 . S
C1078 C1080 1.478 . S
C1079 H1073 0.930 . S
C1079 C1075 1.400 . S
C1079 C1078 1.385 . S
C1080 C1078 1.478 . S
C1080 C1082 1.381 . S
C1080 C1086 1.383 . S
C1081 C1077 1.495 . S
C1081 H1087 0.959 . S
C1081 H1088 0.961 . S
C1081 H1089 0.960 . S
C1082 C1080 1.381 . S
C1082 C1083 1.394 . S
C1082 H1090 0.930 . S
C1083 C1082 1.394 . S
C1083 C1084 1.383 . S
C1083 H1091 0.929 . S
C1084 C1083 1.383 . S
C1084 C1085 1.377 . S
C1085 H1069 0.930 . S
C1085 C1084 1.377 . S
C1085 C1086 1.379 . S
C1086 H1070 0.931 . S
C1086 C1080 1.383 . S
C1086 C1085 1.379 . S
H1087 C1081 0.959 . S
H1088 C1081 0.961 . S
H1089 C1081 0.960 . S
H1090 C1082 0.930 . S
H1091 C1083 0.929 . S
H1092 C1100 0.929 . S
H1093 C1102 0.930 . S
H1094 C1104 0.930 1_556 S
H1095 C1107 0.929 . S
H1096 C1110 0.930 . S
H1097 C1112 0.960 . S
H1098 C1112 0.960 . S
H1099 C1112 0.960 . S
C1100 H1092 0.929 . S
C1100 C1101 1.377 . S
C1100 C1102 1.384 . S
C1101 C1100 1.377 . S
C1101 C1107 1.390 . S
C1102 H1093 0.930 . S
C1102 C1100 1.384 . S
C1102 C1103 1.372 . S
C1103 C1102 1.372 . S
C1103 C1104 1.400 . S
C1103 C1108 1.493 . S
C1104 H1094 0.930 1_554 S
C1104 C1103 1.400 . S
C1104 C1107 1.386 . S
H1105 C1121 0.930 . S
H1106 C1122 0.931 . S
C1107 H1095 0.929 . S
C1107 C1101 1.390 . S
C1107 C1104 1.386 . S
C1108 C1103 1.493 . S
C1108 C1110 1.384 1_554 S
C1108 C1111 1.410 . S
H1109 C1115 0.930 . S
C1110 H1096 0.930 . S
C1110 C1108 1.384 1_556 S
C1110 C1113 1.403 . S
C1111 C1108 1.410 . S
C1111 C1112 1.524 . S
C1111 C1115 1.400 . S
C1112 H1097 0.960 . S
C1112 H1098 0.960 . S
C1112 H1099 0.960 . S
C1112 C1111 1.524 . S
C1113 C1110 1.403 . S
C1113 C1114 1.392 . S
C1113 C1117 1.495 . S
C1114 C1113 1.392 . S
C1114 C1115 1.385 1_556 S
C1114 C1116 1.478 . S
C1115 H1109 0.930 . S
C1115 C1111 1.400 . S
C1115 C1114 1.385 1_554 S
C1116 C1114 1.478 . S
C1116 C1118 1.381 . S
C1116 C1122 1.383 . S
C1117 C1113 1.495 . S
C1117 H1123 0.959 . S
C1117 H1124 0.961 . S
C1117 H1125 0.960 . S
C1118 C1116 1.381 . S
C1118 C1119 1.394 . S
C1118 H1126 0.930 . S
C1119 C1118 1.394 . S
C1119 C1120 1.383 . S
C1119 H1127 0.929 . S
C1120 C1119 1.383 . S
C1120 C1121 1.377 . S
C1121 H1105 0.930 . S
C1121 C1120 1.377 . S
C1121 C1122 1.379 . S
C1122 H1106 0.931 . S
C1122 C1116 1.383 . S
C1122 C1121 1.379 . S
H1123 C1117 0.959 . S
H1124 C1117 0.961 . S
H1125 C1117 0.960 . S
H1126 C1118 0.930 . S
H1127 C1119 0.929 . S
H1128 C1136 0.929 . S
H1129 C1138 0.930 . S
H1130 C1140 0.917 1_556 S
H1131 C1143 0.929 . S
H1132 C1146 0.930 . S
H1133 C1148 0.960 . S
H1134 C1148 0.960 . S
H1135 C1148 0.960 . S
C1136 H1128 0.929 . S
C1136 C1137 1.377 . S
C1136 C1138 1.384 . S
C1137 C1136 1.377 . S
C1137 C1143 1.390 . S
C1138 H1129 0.930 . S
C1138 C1136 1.384 . S
C1138 C1139 1.372 . S
C1139 C1138 1.372 . S
C1139 C1140 1.406 . S
C1139 C1144 1.490 . S
C1140 H1130 0.917 1_554 S
C1140 C1139 1.406 . S
C1140 C1143 1.393 . S
H1141 C1157 0.930 . S
H1142 C1158 0.931 . S
C1143 H1131 0.929 . S
C1143 C1137 1.390 . S
C1143 C1140 1.393 . S
C1144 C1139 1.490 . S
C1144 C1146 1.395 . S
C1144 C1147 1.403 1_554 S
H1145 C1151 0.930 . S
C1146 H1132 0.930 . S
C1146 C1144 1.395 . S
C1146 C1149 1.403 . S
C1147 C1144 1.403 1_556 S
C1147 C1148 1.524 . S
C1147 C1151 1.400 . S
C1148 H1133 0.960 . S
C1148 H1134 0.960 . S
C1148 H1135 0.960 . S
C1148 C1147 1.524 . S
C1149 C1146 1.403 . S
C1149 C1150 1.392 1_554 S
C1149 C1153 1.495 . S
C1150 C1149 1.392 1_556 S
C1150 C1151 1.385 . S
C1150 C1152 1.478 . S
C1151 H1145 0.930 . S
C1151 C1147 1.400 . S
C1151 C1150 1.385 . S
C1152 C1150 1.478 . S
C1152 C1154 1.381 . S
C1152 C1158 1.383 . S
C1153 C1149 1.495 . S
C1153 H1159 0.959 . S
C1153 H1160 0.961 . S
C1153 H1161 0.960 . S
C1154 C1152 1.381 . S
C1154 C1155 1.394 . S
C1154 H1162 0.920 1_556 S
C1155 C1154 1.394 . S
C1155 C1156 1.383 . S
C1155 H1163 0.929 . S
C1156 C1155 1.383 . S
C1156 C1157 1.377 . S
C1157 H1141 0.930 . S
C1157 C1156 1.377 . S
C1157 C1158 1.379 . S
C1158 H1142 0.931 . S
C1158 C1152 1.383 . S
C1158 C1157 1.379 . S
H1159 C1153 0.959 . S
H1160 C1153 0.961 . S
H1161 C1153 0.960 . S
H1162 C1154 0.920 1_554 S
H1163 C1155 0.929 . S
H1164 C1172 0.929 . S
H1165 C1174 0.930 . S
H1166 C1176 0.930 . S
H1167 C1179 0.929 . S
H1168 C1182 0.930 . S
H1169 C1184 0.960 . S
H1170 C1184 0.960 . S
H1171 C1184 0.960 . S
C1172 H1164 0.929 . S
C1172 C1173 1.377 . S
C1172 C1174 1.384 . S
C1173 C1172 1.377 . S
C1173 C1179 1.390 . S
C1174 H1165 0.930 . S
C1174 C1172 1.384 . S
C1174 C1175 1.372 . S
C1175 C1174 1.372 . S
C1175 C1176 1.400 . S
C1175 C1180 1.490 . S
C1176 H1166 0.930 . S
C1176 C1175 1.400 . S
C1176 C1179 1.386 . S
H1177 C1193 0.930 . S
H1178 C1194 0.931 . S
C1179 H1167 0.929 . S
C1179 C1173 1.390 . S
C1179 C1176 1.386 . S
C1180 C1175 1.490 . S
C1180 C1182 1.395 . S
C1180 C1183 1.403 . S
H1181 C1187 0.930 . S
C1182 H1168 0.930 . S
C1182 C1180 1.395 . S
C1182 C1185 1.403 . S
C1183 C1180 1.403 . S
C1183 C1184 1.524 . S
C1183 C1187 1.400 . S
C1184 H1169 0.960 . S
C1184 H1170 0.960 . S
C1184 H1171 0.960 . S
C1184 C1183 1.524 . S
C1185 C1182 1.403 . S
C1185 C1186 1.392 . S
C1185 C1189 1.495 1_554 S
C1186 C1185 1.392 . S
C1186 C1187 1.385 . S
C1186 C1188 1.478 . S
C1187 H1181 0.930 . S
C1187 C1183 1.400 . S
C1187 C1186 1.385 . S
C1188 C1186 1.478 . S
C1188 C1190 1.381 . S
C1188 C1194 1.383 . S
C1189 C1185 1.495 1_556 S
C1189 H1195 0.959 . S
C1189 H1196 0.961 . S
C1189 H1197 0.960 1_556 S
C1190 C1188 1.381 . S
C1190 C1191 1.394 . S
C1190 H1198 0.930 . S
C1191 C1190 1.394 . S
C1191 C1192 1.383 . S
C1191 H1199 0.929 . S
C1192 C1191 1.383 . S
C1192 C1193 1.377 . S
C1193 H1177 0.930 . S
C1193 C1192 1.377 . S
C1193 C1194 1.379 . S
C1194 H1178 0.931 . S
C1194 C1188 1.383 . S
C1194 C1193 1.379 . S
H1195 C1189 0.959 . S
H1196 C1189 0.961 . S
H1197 C1189 0.960 1_554 S
H1198 C1190 0.930 . S
H1199 C1191 0.929 . S
H1200 C1208 0.929 . S
H1201 C1210 0.930 . S
H1202 C1212 0.930 . S
H1203 C1215 0.929 . S
H1204 C1218 0.930 . S
H1205 C1220 0.960 . S
H1206 C1220 0.960 . S
H1207 C1220 0.960 . S
C1208 H1200 0.929 . S
C1208 C1209 1.377 . S
C1208 C1210 1.384 . S
C1209 C1208 1.377 . S
C1209 C1215 1.390 . S
C1210 H1201 0.930 . S
C1210 C1208 1.384 . S
C1210 C1211 1.372 . S
C1211 C1210 1.372 . S
C1211 C1212 1.400 . S
C1211 C1216 1.490 . S
C1212 H1202 0.930 . S
C1212 C1211 1.400 . S
C1212 C1215 1.386 . S
H1213 C1229 0.930 . S
H1214 C1230 0.931 . S
C1215 H1203 0.929 . S
C1215 C1209 1.390 . S
C1215 C1212 1.386 . S
C1216 C1211 1.490 . S
C1216 C1218 1.395 . S
C1216 C1219 1.403 . S
H1217 C1223 0.930 . S
C1218 H1204 0.930 . S
C1218 C1216 1.395 . S
C1218 C1221 1.403 . S
C1219 C1216 1.403 . S
C1219 C1220 1.524 . S
C1219 C1223 1.400 . S
C1220 H1205 0.960 . S
C1220 H1206 0.960 . S
C1220 H1207 0.960 . S
C1220 C1219 1.524 . S
C1221 C1218 1.403 . S
C1221 C1222 1.392 . S
C1221 C1225 1.495 . S
C1222 C1221 1.392 . S
C1222 C1223 1.385 . S
C1222 C1224 1.478 . S
C1223 H1217 0.930 . S
C1223 C1219 1.400 . S
C1223 C1222 1.385 . S
C1224 C1222 1.478 . S
C1224 C1226 1.381 . S
C1224 C1230 1.383 . S
C1225 C1221 1.495 . S
C1225 H1231 0.959 . S
C1225 H1232 0.961 1_455 S
C1225 H1233 0.960 . S
C1226 C1224 1.381 . S
C1226 C1227 1.394 . S
C1226 H1234 0.930 . S
C1227 C1226 1.394 . S
C1227 C1228 1.383 . S
C1227 H1235 0.929 . S
C1228 C1227 1.383 . S
C1228 C1229 1.377 . S
C1229 H1213 0.930 . S
C1229 C1228 1.377 . S
C1229 C1230 1.379 . S
C1230 H1214 0.931 . S
C1230 C1224 1.383 . S
C1230 C1229 1.379 . S
H1231 C1225 0.959 . S
H1232 C1225 0.961 1_655 S
H1233 C1225 0.960 . S
H1234 C1226 0.930 . S
H1235 C1227 0.929 . S
H1236 C1244 0.929 . S
H1237 C1246 0.930 . S
H1238 C1248 0.930 . S
H1239 C1251 0.929 1_655 S
H1240 C1254 0.930 . S
H1241 C1256 0.960 . S
H1242 C1256 0.960 1_455 S
H1243 C1256 0.960 . S
C1244 H1236 0.929 . S
C1244 C1245 1.377 . S
C1244 C1246 1.384 . S
C1245 C1244 1.377 . S
C1245 C1251 1.390 . S
C1246 H1237 0.930 . S
C1246 C1244 1.384 . S
C1246 C1247 1.372 . S
C1247 C1246 1.372 . S
C1247 C1248 1.400 1_455 S
C1247 C1252 1.490 . S
C1248 H1238 0.930 . S
C1248 C1247 1.400 1_655 S
C1248 C1251 1.386 1_655 S
H1249 C1265 0.930 . S
H1250 C1266 0.931 . S
C1251 H1239 0.929 1_455 S
C1251 C1245 1.390 . S
C1251 C1248 1.386 1_455 S
C1252 C1247 1.490 . S
C1252 C1254 1.395 . S
C1252 C1255 1.403 1_455 S
H1253 C1259 0.930 . S
C1254 H1240 0.930 . S
C1254 C1252 1.395 . S
C1254 C1257 1.403 . S
C1255 C1252 1.403 1_655 S
C1255 C1256 1.524 . S
C1255 C1259 1.400 . S
C1256 H1241 0.960 . S
C1256 H1242 0.960 1_655 S
C1256 H1243 0.960 . S
C1256 C1255 1.524 . S
C1257 C1254 1.403 . S
C1257 C1258 1.392 1_455 S
C1257 C1261 1.495 . S
C1258 C1257 1.392 1_655 S
C1258 C1259 1.385 . S
C1258 C1260 1.478 . S
C1259 H1253 0.930 . S
C1259 C1255 1.400 . S
C1259 C1258 1.385 . S
C1260 C1258 1.478 . S
C1260 C1262 1.381 1_655 S
C1260 C1266 1.383 . S
C1261 C1257 1.495 . S
C1261 H1267 0.959 . S
C1261 H1268 0.961 1_455 S
C1261 H1269 0.960 . S
C1262 C1260 1.381 1_455 S
C1262 C1263 1.394 1_455 S
C1262 H1270 0.930 . S
C1263 C1262 1.394 1_655 S
C1263 C1264 1.383 . S
C1263 H1271 0.929 1_655 S
C1264 C1263 1.383 . S
C1264 C1265 1.377 . S
C1265 H1249 0.930 . S
C1265 C1264 1.377 . S
C1265 C1266 1.379 . S
C1266 H1250 0.931 . S
C1266 C1260 1.383 . S
C1266 C1265 1.379 . S
H1267 C1261 0.959 . S
H1268 C1261 0.961 1_655 S
H1269 C1261 0.960 . S
H1270 C1262 0.930 . S
H1271 C1263 0.929 1_455 S
H1272 C1280 0.929 . S
H1273 C1282 0.930 . S
H1274 C1284 0.930 . S
H1275 C1287 0.929 . S
H1276 C1290 0.930 1_655 S
H1277 C1292 0.960 . S
H1278 C1292 0.960 . S
H1279 C1292 0.960 . S
C1280 H1272 0.929 . S
C1280 C1281 1.377 . S
C1280 C1282 1.384 . S
C1281 C1280 1.377 . S
C1281 C1287 1.390 . S
C1282 H1273 0.930 . S
C1282 C1280 1.384 . S
C1282 C1283 1.372 . S
C1283 C1282 1.372 . S
C1283 C1284 1.400 . S
C1283 C1288 1.490 . S
C1284 H1274 0.930 . S
C1284 C1283 1.400 . S
C1284 C1287 1.386 . S
H1285 C1301 0.930 . S
H1286 C1302 0.931 . S
C1287 H1275 0.929 . S
C1287 C1281 1.390 . S
C1287 C1284 1.386 . S
C1288 C1283 1.490 . S
C1288 C1290 1.395 . S
C1288 C1291 1.403 . S
H1289 C1295 0.930 . S
C1290 H1276 0.930 1_455 S
C1290 C1288 1.395 . S
C1290 C1293 1.403 . S
C1291 C1288 1.403 . S
C1291 C1292 1.524 . S
C1291 C1295 1.400 . S
C1292 H1277 0.960 . S
C1292 H1278 0.960 . S
C1292 H1279 0.960 . S
C1292 C1291 1.524 . S
C1293 C1290 1.403 . S
C1293 C1294 1.392 . S
C1293 C1297 1.495 1_455 S
C1294 C1293 1.392 . S
C1294 C1295 1.385 . S
C1294 C1296 1.478 . S
C1295 H1289 0.930 . S
C1295 C1291 1.400 . S
C1295 C1294 1.385 . S
C1296 C1294 1.478 . S
C1296 C1298 1.381 . S
C1296 C1302 1.383 . S
C1297 C1293 1.495 1_655 S
C1297 H1303 0.959 . S
C1297 H1304 0.961 . S
C1297 H1305 0.960 . S
C1298 C1296 1.381 . S
C1298 C1299 1.394 . S
C1298 H1306 0.930 . S
C1299 C1298 1.394 . S
C1299 C1300 1.383 . S
C1299 H1307 0.929 . S
C1300 C1299 1.383 . S
C1300 C1301 1.377 . S
C1301 H1285 0.930 . S
C1301 C1300 1.377 . S
C1301 C1302 1.379 . S
C1302 H1286 0.931 . S
C1302 C1296 1.383 . S
C1302 C1301 1.379 . S
H1303 C1297 0.959 . S
H1304 C1297 0.961 . S
H1305 C1297 0.960 . S
H1306 C1298 0.930 . S
H1307 C1299 0.929 . S
H1308 C1316 0.929 . S
H1309 C1318 0.930 . S
H1310 C1320 0.930 . S
H1311 C1323 0.929 . S
H1312 C1326 0.930 . S
H1313 C1328 0.960 . S
H1314 C1328 0.960 . S
H1315 C1328 0.960 . S
C1316 H1308 0.929 . S
C1316 C1317 1.377 . S
C1316 C1318 1.384 . S
C1317 C1316 1.377 . S
C1317 C1323 1.390 1_455 S
C1318 H1309 0.930 . S
C1318 C1316 1.384 . S
C1318 C1319 1.372 1_455 S
C1319 C1318 1.372 1_655 S
C1319 C1320 1.400 . S
C1319 C1324 1.490 . S
C1320 H1310 0.930 . S
C1320 C1319 1.400 . S
C1320 C1323 1.386 . S
H1321 C1337 0.930 . S
H1322 C1338 0.931 . S
C1323 H1311 0.929 . S
C1323 C1317 1.390 1_655 S
C1323 C1320 1.386 . S
C1324 C1319 1.490 . S
C1324 C1326 1.395 1_655 S
C1324 C1327 1.403 . S
H1325 C1331 0.930 . S
C1326 H1312 0.930 . S
C1326 C1324 1.395 1_455 S
C1326 C1329 1.403 . S
C1327 C1324 1.403 . S
C1327 C1328 1.524 . S
C1327 C1331 1.400 . S
C1328 H1313 0.960 . S
C1328 H1314 0.960 . S
C1328 H1315 0.960 . S
C1328 C1327 1.524 . S
C1329 C1326 1.403 . S
C1329 C1330 1.392 1_455 S
C1329 C1333 1.495 . S
C1330 C1329 1.392 1_655 S
C1330 C1331 1.385 . S
C1330 C1332 1.478 . S
C1331 H1325 0.930 . S
C1331 C1327 1.400 . S
C1331 C1330 1.385 . S
C1332 C1330 1.478 . S
C1332 C1334 1.381 . S
C1332 C1338 1.383 . S
C1333 C1329 1.495 . S
C1333 H1339 0.959 . S
C1333 H1340 0.961 . S
C1333 H1341 0.960 . S
C1334 C1332 1.381 . S
C1334 C1335 1.394 . S
C1334 H1342 0.930 1_655 S
C1335 C1334 1.394 . S
C1335 C1336 1.383 . S
C1335 H1343 0.929 . S
C1336 C1335 1.383 . S
C1336 C1337 1.377 . S
C1337 H1321 0.930 . S
C1337 C1336 1.377 . S
C1337 C1338 1.379 . S
C1338 H1322 0.931 . S
C1338 C1332 1.383 . S
C1338 C1337 1.379 . S
H1339 C1333 0.959 . S
H1340 C1333 0.961 . S
H1341 C1333 0.960 . S
H1342 C1334 0.930 1_455 S
H1343 C1335 0.929 . S
H1344 C1352 0.929 . S
H1345 C1354 0.930 . S
H1346 C1356 0.911 1_565 S
H1347 C1359 0.929 1_565 S
H1348 C1362 0.930 . S
H1349 C1364 0.960 . S
H1350 C1364 0.960 . S
H1351 C1364 0.960 . S
C1352 H1344 0.929 . S
C1352 C1353 1.377 . S
C1352 C1354 1.384 . S
C1353 C1352 1.377 . S
C1353 C1359 1.390 . S
C1354 H1345 0.930 . S
C1354 C1352 1.384 . S
C1354 C1355 1.372 . S
C1355 C1354 1.372 . S
C1355 C1356 1.400 . S
C1355 C1360 1.490 . S
C1356 H1346 0.911 1_545 S
C1356 C1355 1.400 . S
C1356 C1359 1.386 . S
H1357 C1373 0.930 . S
H1358 C1374 0.931 . S
C1359 H1347 0.929 1_545 S
C1359 C1353 1.390 . S
C1359 C1356 1.386 . S
C1360 C1355 1.490 . S
C1360 C1362 1.395 . S
C1360 C1363 1.403 . S
H1361 C1367 0.930 . S
C1362 H1348 0.930 . S
C1362 C1360 1.395 . S
C1362 C1365 1.403 . S
C1363 C1360 1.403 . S
C1363 C1364 1.524 . S
C1363 C1367 1.400 . S
C1364 H1349 0.960 . S
C1364 H1350 0.960 . S
C1364 H1351 0.960 . S
C1364 C1363 1.524 . S
C1365 C1362 1.403 . S
C1365 C1366 1.392 . S
C1365 C1369 1.495 . S
C1366 C1365 1.392 . S
C1366 C1367 1.385 . S
C1366 C1368 1.478 . S
C1367 H1361 0.930 . S
C1367 C1363 1.400 . S
C1367 C1366 1.385 . S
C1368 C1366 1.478 . S
C1368 C1370 1.381 . S
C1368 C1374 1.383 . S
C1369 C1365 1.495 . S
C1369 H1375 0.959 . S
C1369 H1376 0.961 1_545 S
C1369 H1377 0.960 . S
C1370 C1368 1.381 . S
C1370 C1371 1.394 . S
C1370 H1378 0.930 . S
C1371 C1370 1.394 . S
C1371 C1372 1.383 . S
C1371 H1379 0.929 . S
C1372 C1371 1.383 . S
C1372 C1373 1.377 . S
C1373 H1357 0.930 . S
C1373 C1372 1.377 . S
C1373 C1374 1.379 . S
C1374 H1358 0.931 . S
C1374 C1368 1.383 . S
C1374 C1373 1.379 . S
H1375 C1369 0.959 . S
H1376 C1369 0.961 1_565 S
H1377 C1369 0.960 . S
H1378 C1370 0.930 . S
H1379 C1371 0.929 . S
H1380 C1388 0.929 . S
H1381 C1390 0.930 . S
H1382 C1392 0.930 . S
H1383 C1395 0.929 . S
H1384 C1398 0.930 . S
H1385 C1400 0.960 . S
H1386 C1400 0.960 . S
H1387 C1400 0.960 . S
C1388 H1380 0.929 . S
C1388 C1389 1.377 . S
C1388 C1390 1.384 . S
C1389 C1388 1.377 . S
C1389 C1395 1.390 . S
C1390 H1381 0.930 . S
C1390 C1388 1.384 . S
C1390 C1391 1.372 . S
C1391 C1390 1.372 . S
C1391 C1392 1.400 . S
C1391 C1396 1.490 . S
C1392 H1382 0.930 . S
C1392 C1391 1.400 . S
C1392 C1395 1.386 . S
H1393 C1409 0.930 . S
H1394 C1410 0.931 . S
C1395 H1383 0.929 . S
C1395 C1389 1.390 . S
C1395 C1392 1.386 . S
C1396 C1391 1.490 . S
C1396 C1398 1.395 . S
C1396 C1399 1.403 . S
H1397 C1403 0.930 . S
C1398 H1384 0.930 . S
C1398 C1396 1.395 . S
C1398 C1401 1.403 . S
C1399 C1396 1.403 . S
C1399 C1400 1.524 . S
C1399 C1403 1.400 . S
C1400 H1385 0.960 . S
C1400 H1386 0.960 . S
C1400 H1387 0.960 . S
C1400 C1399 1.524 . S
C1401 C1398 1.403 . S
C1401 C1402 1.392 . S
C1401 C1405 1.495 . S
C1402 C1401 1.392 . S
C1402 C1403 1.385 . S
C1402 C1404 1.478 . S
C1403 H1397 0.930 . S
C1403 C1399 1.400 . S
C1403 C1402 1.385 . S
C1404 C1402 1.478 . S
C1404 C1406 1.381 . S
C1404 C1410 1.383 . S
C1405 C1401 1.495 . S
C1405 H1411 0.959 . S
C1405 H1412 0.961 . S
C1405 H1413 0.960 . S
C1406 C1404 1.381 . S
C1406 C1407 1.394 . S
C1406 H1414 0.930 . S
C1407 C1406 1.394 . S
C1407 C1408 1.383 . S
C1407 H1415 0.929 . S
C1408 C1407 1.383 . S
C1408 C1409 1.377 . S
C1409 H1393 0.930 . S
C1409 C1408 1.377 . S
C1409 C1410 1.379 . S
C1410 H1394 0.931 . S
C1410 C1404 1.383 . S
C1410 C1409 1.379 . S
H1411 C1405 0.959 . S
H1412 C1405 0.961 . S
H1413 C1405 0.960 . S
H1414 C1406 0.930 . S
H1415 C1407 0.929 . S
H1416 C1424 0.929 . S
H1417 C1426 0.930 . S
H1418 C1428 0.930 . S
H1419 C1431 0.929 . S
H1420 C1434 0.930 . S
H1421 C1436 0.960 . S
H1422 C1436 0.960 . S
H1423 C1436 0.960 1_545 S
C1424 H1416 0.929 . S
C1424 C1425 1.377 . S
C1424 C1426 1.384 . S
C1425 C1424 1.377 . S
C1425 C1431 1.390 1_565 S
C1426 H1417 0.930 . S
C1426 C1424 1.384 . S
C1426 C1427 1.372 . S
C1427 C1426 1.372 . S
C1427 C1428 1.400 1_565 S
C1427 C1432 1.490 . S
C1428 H1418 0.930 . S
C1428 C1427 1.400 1_545 S
C1428 C1431 1.386 . S
H1429 C1445 0.930 1_545 S
H1430 C1446 0.894 1_545 S
C1431 H1419 0.929 . S
C1431 C1425 1.390 1_545 S
C1431 C1428 1.386 . S
C1432 C1427 1.490 . S
C1432 C1434 1.395 . S
C1432 C1435 1.403 . S
H1433 C1439 0.930 . S
C1434 H1420 0.930 . S
C1434 C1432 1.395 . S
C1434 C1437 1.403 . S
C1435 C1432 1.403 . S
C1435 C1436 1.524 . S
C1435 C1439 1.400 . S
C1436 H1421 0.960 . S
C1436 H1422 0.960 . S
C1436 H1423 0.960 1_565 S
C1436 C1435 1.524 . S
C1437 C1434 1.403 . S
C1437 C1438 1.392 . S
C1437 C1441 1.495 . S
C1438 C1437 1.392 . S
C1438 C1439 1.385 . S
C1438 C1440 1.478 . S
C1439 H1433 0.930 . S
C1439 C1435 1.400 . S
C1439 C1438 1.385 . S
C1440 C1438 1.478 . S
C1440 C1442 1.381 . S
C1440 C1446 1.416 . S
C1441 C1437 1.495 . S
C1441 H1447 0.959 . S
C1441 H1448 0.961 . S
C1441 H1449 0.960 . S
C1442 C1440 1.381 . S
C1442 C1443 1.394 . S
C1442 H1450 0.930 . S
C1443 C1442 1.394 . S
C1443 C1444 1.383 . S
C1443 H1451 0.929 . S
C1444 C1443 1.383 . S
C1444 C1445 1.377 . S
C1445 H1429 0.930 1_565 S
C1445 C1444 1.377 . S
C1445 C1446 1.383 . S
C1446 H1430 0.894 1_565 S
C1446 C1440 1.416 . S
C1446 C1445 1.383 . S
H1447 C1441 0.959 . S
H1448 C1441 0.961 . S
H1449 C1441 0.960 . S
H1450 C1442 0.930 . S
H1451 C1443 0.929 . S
H1452 C1460 0.929 . S
H1453 C1462 0.930 . S
H1454 C1464 0.930 . S
H1455 C1467 0.929 . S
H1456 C1470 0.930 . S
H1457 C1472 0.960 . S
H1458 C1472 0.960 . S
H1459 C1472 0.960 . S
C1460 H1452 0.929 . S
C1460 C1461 1.377 . S
C1460 C1462 1.384 . S
C1461 C1460 1.377 . S
C1461 C1467 1.390 . S
C1462 H1453 0.930 . S
C1462 C1460 1.384 . S
C1462 C1463 1.372 . S
C1463 C1462 1.372 . S
C1463 C1464 1.400 . S
C1463 C1468 1.490 . S
C1464 H1454 0.930 . S
C1464 C1463 1.400 . S
C1464 C1467 1.386 . S
H1465 C1481 0.930 . S
H1466 C1482 0.931 . S
C1467 H1455 0.929 . S
C1467 C1461 1.390 . S
C1467 C1464 1.386 . S
C1468 C1463 1.490 . S
C1468 C1470 1.395 . S
C1468 C1471 1.403 . S
H1469 C1475 0.930 . S
C1470 H1456 0.930 . S
C1470 C1468 1.395 . S
C1470 C1473 1.403 . S
C1471 C1468 1.403 . S
C1471 C1472 1.524 . S
C1471 C1475 1.400 . S
C1472 H1457 0.960 . S
C1472 H1458 0.960 . S
C1472 H1459 0.960 . S
C1472 C1471 1.524 . S
C1473 C1470 1.403 . S
C1473 C1474 1.392 . S
C1473 C1477 1.495 . S
C1474 C1473 1.392 . S
C1474 C1475 1.385 . S
C1474 C1476 1.478 . S
C1475 H1469 0.930 . S
C1475 C1471 1.400 . S
C1475 C1474 1.385 . S
C1476 C1474 1.478 . S
C1476 C1478 1.381 . S
C1476 C1482 1.383 . S
C1477 C1473 1.495 . S
C1477 H1483 0.959 . S
C1477 H1484 0.961 . S
C1477 H1485 0.960 . S
C1478 C1476 1.381 . S
C1478 C1479 1.394 . S
C1478 H1486 0.930 . S
C1479 C1478 1.394 . S
C1479 C1480 1.383 . S
C1479 H1487 0.929 . S
C1480 C1479 1.383 . S
C1480 C1481 1.377 . S
C1481 H1465 0.930 . S
C1481 C1480 1.377 . S
C1481 C1482 1.379 . S
C1482 H1466 0.931 . S
C1482 C1476 1.383 . S
C1482 C1481 1.379 . S
H1483 C1477 0.959 . S
H1484 C1477 0.961 . S
H1485 C1477 0.960 . S
H1486 C1478 0.930 . S
H1487 C1479 0.929 . S
H1488 C1496 0.929 . S
H1489 C1498 0.930 . S
H1490 C1500 0.958 . S
H1491 C1503 0.960 . S
H1492 C1506 0.930 . S
H1493 C1508 0.960 . S
H1494 C1508 0.960 . S
H1495 C1508 0.960 . S
C1496 H1488 0.929 . S
C1496 C1497 1.377 . S
C1496 C1498 1.384 . S
C1497 C1496 1.377 . S
C1497 C1503 1.390 . S
C1498 H1489 0.930 . S
C1498 C1496 1.384 . S
C1498 C1499 1.372 . S
C1499 C1498 1.372 . S
C1499 C1500 1.400 . S
C1499 C1504 1.490 . S
C1500 H1490 0.958 . S
C1500 C1499 1.400 . S
C1500 C1503 1.386 . S
H1501 C1517 0.930 1_556 S
H1502 C1518 0.931 1_556 S
C1503 H1491 0.960 . S
C1503 C1497 1.390 . S
C1503 C1500 1.386 . S
C1504 C1499 1.490 . S
C1504 C1506 1.395 . S
C1504 C1507 1.403 . S
H1505 C1511 0.930 . S
C1506 H1492 0.930 . S
C1506 C1504 1.395 . S
C1506 C1509 1.403 . S
C1507 C1504 1.403 . S
C1507 C1508 1.524 . S
C1507 C1511 1.400 . S
C1508 H1493 0.960 . S
C1508 H1494 0.960 . S
C1508 H1495 0.960 . S
C1508 C1507 1.524 . S
C1509 C1506 1.403 . S
C1509 C1510 1.392 . S
C1509 C1513 1.495 . S
C1510 C1509 1.392 . S
C1510 C1511 1.385 . S
C1510 C1512 1.478 . S
C1511 H1505 0.930 . S
C1511 C1507 1.400 . S
C1511 C1510 1.385 . S
C1512 C1510 1.478 . S
C1512 C1514 1.381 . S
C1512 C1518 1.383 . S
C1513 C1509 1.495 . S
C1513 H1519 0.959 . S
C1513 H1520 0.961 . S
C1513 H1521 0.960 . S
C1514 C1512 1.381 . S
C1514 C1515 1.394 . S
C1514 H1522 0.930 . S
C1515 C1514 1.394 . S
C1515 C1516 1.383 . S
C1515 H1523 0.929 . S
C1516 C1515 1.383 . S
C1516 C1517 1.377 . S
C1517 H1501 0.930 1_554 S
C1517 C1516 1.377 . S
C1517 C1518 1.379 . S
C1518 H1502 0.931 1_554 S
C1518 C1512 1.383 . S
C1518 C1517 1.379 . S
H1519 C1513 0.959 . S
H1520 C1513 0.961 . S
H1521 C1513 0.960 . S
H1522 C1514 0.930 . S
H1523 C1515 0.929 . S
H1524 C1532 0.929 . S
H1525 C1534 0.930 . S
H1526 C1536 0.930 . S
H1527 C1539 0.929 . S
H1528 C1542 0.930 . S
H1529 C1544 0.960 . S
H1530 C1544 0.960 . S
H1531 C1544 0.960 . S
C1532 H1524 0.929 . S
C1532 C1533 1.377 . S
C1532 C1534 1.384 . S
C1533 C1532 1.377 . S
C1533 C1539 1.390 . S
C1534 H1525 0.930 . S
C1534 C1532 1.384 . S
C1534 C1535 1.372 . S
C1535 C1534 1.372 . S
C1535 C1536 1.400 . S
C1535 C1540 1.490 . S
C1536 H1526 0.930 . S
C1536 C1535 1.400 . S
C1536 C1539 1.386 . S
H1537 C1553 0.930 . S
H1538 C1554 0.931 . S
C1539 H1527 0.929 . S
C1539 C1533 1.390 . S
C1539 C1536 1.386 . S
C1540 C1535 1.490 . S
C1540 C1542 1.395 . S
C1540 C1543 1.403 . S
H1541 C1547 0.930 . S
C1542 H1528 0.930 . S
C1542 C1540 1.395 . S
C1542 C1545 1.403 . S
C1543 C1540 1.403 . S
C1543 C1544 1.524 . S
C1543 C1547 1.400 . S
C1544 H1529 0.960 . S
C1544 H1530 0.960 . S
C1544 H1531 0.960 . S
C1544 C1543 1.524 . S
C1545 C1542 1.403 . S
C1545 C1546 1.392 . S
C1545 C1549 1.495 . S
C1546 C1545 1.392 . S
C1546 C1547 1.385 . S
C1546 C1548 1.478 . S
C1547 H1541 0.930 . S
C1547 C1543 1.400 . S
C1547 C1546 1.385 . S
C1548 C1546 1.478 . S
C1548 C1550 1.381 . S
C1548 C1554 1.383 . S
C1549 C1545 1.495 . S
C1549 H1555 0.959 . S
C1549 H1556 0.961 . S
C1549 H1557 0.960 . S
C1550 C1548 1.381 . S
C1550 C1551 1.394 . S
C1550 H1558 0.930 . S
C1551 C1550 1.394 . S
C1551 C1552 1.383 . S
C1551 H1559 0.929 . S
C1552 C1551 1.383 . S
C1552 C1553 1.377 . S
C1553 H1537 0.930 . S
C1553 C1552 1.377 . S
C1553 C1554 1.379 . S
C1554 H1538 0.931 . S
C1554 C1548 1.383 . S
C1554 C1553 1.379 . S
H1555 C1549 0.959 . S
H1556 C1549 0.961 . S
H1557 C1549 0.960 . S
H1558 C1550 0.930 . S
H1559 C1551 0.929 . S
H1560 C1568 0.929 . S
H1561 C1570 0.930 . S
H1562 C1572 0.930 . S
H1563 C1575 0.929 . S
H1564 C1578 0.930 . S
H1565 C1580 0.960 . S
H1566 C1580 0.960 . S
H1567 C1580 0.960 . S
C1568 H1560 0.929 . S
C1568 C1569 1.377 . S
C1568 C1570 1.384 . S
C1569 C1568 1.377 . S
C1569 C1575 1.390 . S
C1570 H1561 0.930 . S
C1570 C1568 1.384 . S
C1570 C1571 1.372 . S
C1571 C1570 1.372 . S
C1571 C1572 1.400 . S
C1571 C1576 1.490 . S
C1572 H1562 0.930 . S
C1572 C1571 1.400 . S
C1572 C1575 1.386 . S
H1573 C1589 0.930 . S
H1574 C1590 0.931 . S
C1575 H1563 0.929 . S
C1575 C1569 1.390 . S
C1575 C1572 1.386 . S
C1576 C1571 1.490 . S
C1576 C1578 1.395 . S
C1576 C1579 1.403 . S
H1577 C1583 0.930 . S
C1578 H1564 0.930 . S
C1578 C1576 1.395 . S
C1578 C1581 1.403 . S
C1579 C1576 1.403 . S
C1579 C1580 1.524 . S
C1579 C1583 1.400 . S
C1580 H1565 0.960 . S
C1580 H1566 0.960 . S
C1580 H1567 0.960 . S
C1580 C1579 1.524 . S
C1581 C1578 1.403 . S
C1581 C1582 1.392 . S
C1581 C1585 1.495 . S
C1582 C1581 1.392 . S
C1582 C1583 1.385 . S
C1582 C1584 1.478 . S
C1583 H1577 0.930 . S
C1583 C1579 1.400 . S
C1583 C1582 1.385 . S
C1584 C1582 1.478 . S
C1584 C1586 1.381 . S
C1584 C1590 1.383 . S
C1585 C1581 1.495 . S
C1585 H1591 0.959 . S
C1585 H1592 0.961 . S
C1585 H1593 0.960 . S
C1586 C1584 1.381 . S
C1586 C1587 1.394 . S
C1586 H1594 0.930 . S
C1587 C1586 1.394 . S
C1587 C1588 1.383 . S
C1587 H1595 0.929 . S
C1588 C1587 1.383 . S
C1588 C1589 1.377 . S
C1589 H1573 0.930 . S
C1589 C1588 1.377 . S
C1589 C1590 1.379 . S
C1590 H1574 0.931 . S
C1590 C1584 1.383 . S
C1590 C1589 1.379 . S
H1591 C1585 0.959 . S
H1592 C1585 0.961 . S
H1593 C1585 0.960 . S
H1594 C1586 0.930 . S
H1595 C1587 0.929 . S
H1596 C1604 0.929 . S
H1597 C1606 0.930 . S
H1598 C1608 0.930 . S
H1599 C1611 0.929 . S
H1600 C1614 0.930 . S
H1601 C1616 0.960 . S
H1602 C1616 0.960 . S
H1603 C1616 0.960 . S
C1604 H1596 0.929 . S
C1604 C1605 1.377 . S
C1604 C1606 1.384 . S
C1605 C1604 1.377 . S
C1605 C1611 1.390 . S
C1606 H1597 0.930 . S
C1606 C1604 1.384 . S
C1606 C1607 1.372 . S
C1607 C1606 1.372 . S
C1607 C1608 1.400 . S
C1607 C1612 1.490 . S
C1608 H1598 0.930 . S
C1608 C1607 1.400 . S
C1608 C1611 1.386 . S
H1609 C1625 0.930 . S
H1610 C1626 0.931 . S
C1611 H1599 0.929 . S
C1611 C1605 1.390 . S
C1611 C1608 1.386 . S
C1612 C1607 1.490 . S
C1612 C1614 1.395 . S
C1612 C1615 1.403 . S
H1613 C1619 0.930 . S
C1614 H1600 0.930 . S
C1614 C1612 1.395 . S
C1614 C1617 1.403 . S
C1615 C1612 1.403 . S
C1615 C1616 1.524 . S
C1615 C1619 1.400 . S
C1616 H1601 0.960 . S
C1616 H1602 0.960 . S
C1616 H1603 0.960 . S
C1616 C1615 1.524 . S
C1617 C1614 1.403 . S
C1617 C1618 1.392 . S
C1617 C1621 1.495 . S
C1618 C1617 1.392 . S
C1618 C1619 1.385 . S
C1618 C1620 1.478 . S
C1619 H1613 0.930 . S
C1619 C1615 1.400 . S
C1619 C1618 1.385 . S
C1620 C1618 1.478 . S
C1620 C1622 1.381 . S
C1620 C1626 1.383 . S
C1621 C1617 1.495 . S
C1621 H1627 0.959 . S
C1621 H1628 0.961 . S
C1621 H1629 0.960 . S
C1622 C1620 1.381 . S
C1622 C1623 1.394 . S
C1622 H1630 0.930 . S
C1623 C1622 1.394 . S
C1623 C1624 1.383 . S
C1623 H1631 0.929 . S
C1624 C1623 1.383 . S
C1624 C1625 1.377 . S
C1625 H1609 0.930 . S
C1625 C1624 1.377 . S
C1625 C1626 1.379 . S
C1626 H1610 0.931 . S
C1626 C1620 1.383 . S
C1626 C1625 1.379 . S
H1627 C1621 0.959 . S
H1628 C1621 0.961 . S
H1629 C1621 0.960 . S
H1630 C1622 0.930 . S
H1631 C1623 0.929 . S
H1632 C1640 0.929 . S
H1633 C1642 0.930 . S
H1634 C1644 0.930 . S
H1635 C1647 0.929 . S
H1636 C1650 0.930 . S
H1637 C1652 0.960 . S
H1638 C1652 0.960 . S
H1639 C1652 0.960 . S
C1640 H1632 0.929 . S
C1640 C1641 1.377 . S
C1640 C1642 1.384 . S
C1641 C1640 1.377 . S
C1641 C1647 1.390 . S
C1642 H1633 0.930 . S
C1642 C1640 1.384 . S
C1642 C1643 1.372 . S
C1643 C1642 1.372 . S
C1643 C1644 1.400 . S
C1643 C1648 1.490 . S
C1644 H1634 0.930 . S
C1644 C1643 1.400 . S
C1644 C1647 1.386 . S
H1645 C1661 0.930 . S
H1646 C1662 0.931 . S
C1647 H1635 0.929 . S
C1647 C1641 1.390 . S
C1647 C1644 1.386 . S
C1648 C1643 1.490 . S
C1648 C1650 1.395 . S
C1648 C1651 1.403 . S
H1649 C1655 0.930 . S
C1650 H1636 0.930 . S
C1650 C1648 1.395 . S
C1650 C1653 1.403 . S
C1651 C1648 1.403 . S
C1651 C1652 1.524 . S
C1651 C1655 1.400 . S
C1652 H1637 0.960 . S
C1652 H1638 0.960 . S
C1652 H1639 0.960 . S
C1652 C1651 1.524 . S
C1653 C1650 1.403 . S
C1653 C1654 1.392 . S
C1653 C1657 1.495 . S
C1654 C1653 1.392 . S
C1654 C1655 1.385 . S
C1654 C1656 1.478 . S
C1655 H1649 0.930 . S
C1655 C1651 1.400 . S
C1655 C1654 1.385 . S
C1656 C1654 1.478 . S
C1656 C1658 1.381 . S
C1656 C1662 1.383 . S
C1657 C1653 1.495 . S
C1657 H1663 0.959 . S
C1657 H1664 0.961 . S
C1657 H1665 0.960 . S
C1658 C1656 1.381 . S
C1658 C1659 1.394 . S
C1658 H1666 0.930 . S
C1659 C1658 1.394 . S
C1659 C1660 1.383 . S
C1659 H1667 0.929 . S
C1660 C1659 1.383 . S
C1660 C1661 1.377 . S
C1661 H1645 0.930 . S
C1661 C1660 1.377 . S
C1661 C1662 1.379 . S
C1662 H1646 0.931 . S
C1662 C1656 1.383 . S
C1662 C1661 1.379 . S
H1663 C1657 0.959 . S
H1664 C1657 0.961 . S
H1665 C1657 0.960 . S
H1666 C1658 0.930 . S
H1667 C1659 0.929 . S
H1668 C1676 0.929 . S
H1669 C1678 0.930 . S
H1670 C1680 0.930 . S
H1671 C1683 0.929 . S
H1672 C1686 0.930 . S
H1673 C1688 0.960 . S
H1674 C1688 0.960 . S
H1675 C1688 0.960 . S
C1676 H1668 0.929 . S
C1676 C1677 1.377 . S
C1676 C1678 1.384 . S
C1677 C1676 1.377 . S
C1677 C1683 1.390 . S
C1678 H1669 0.930 . S
C1678 C1676 1.384 . S
C1678 C1679 1.372 . S
C1679 C1678 1.372 . S
C1679 C1680 1.400 . S
C1679 C1684 1.490 . S
C1680 H1670 0.930 . S
C1680 C1679 1.400 . S
C1680 C1683 1.386 . S
H1681 C1697 0.930 . S
H1682 C1698 0.931 . S
C1683 H1671 0.929 . S
C1683 C1677 1.390 . S
C1683 C1680 1.386 . S
C1684 C1679 1.490 . S
C1684 C1686 1.395 . S
C1684 C1687 1.403 . S
H1685 C1691 0.930 . S
C1686 H1672 0.930 . S
C1686 C1684 1.395 . S
C1686 C1689 1.403 . S
C1687 C1684 1.403 . S
C1687 C1688 1.524 . S
C1687 C1691 1.400 . S
C1688 H1673 0.960 . S
C1688 H1674 0.960 . S
C1688 H1675 0.960 . S
C1688 C1687 1.524 . S
C1689 C1686 1.403 . S
C1689 C1690 1.392 . S
C1689 C1693 1.495 . S
C1690 C1689 1.392 . S
C1690 C1691 1.385 . S
C1690 C1692 1.478 . S
C1691 H1685 0.930 . S
C1691 C1687 1.400 . S
C1691 C1690 1.385 . S
C1692 C1690 1.478 . S
C1692 C1694 1.381 . S
C1692 C1698 1.383 . S
C1693 C1689 1.495 . S
C1693 H1699 0.959 . S
C1693 H1700 0.961 . S
C1693 H1701 0.960 . S
C1694 C1692 1.381 . S
C1694 C1695 1.394 . S
C1694 H1702 0.930 . S
C1695 C1694 1.394 . S
C1695 C1696 1.383 . S
C1695 H1703 0.929 . S
C1696 C1695 1.383 . S
C1696 C1697 1.377 . S
C1697 H1681 0.930 . S
C1697 C1696 1.377 . S
C1697 C1698 1.379 . S
C1698 H1682 0.931 . S
C1698 C1692 1.383 . S
C1698 C1697 1.379 . S
H1699 C1693 0.959 . S
H1700 C1693 0.961 . S
H1701 C1693 0.960 . S
H1702 C1694 0.930 . S
H1703 C1695 0.929 . S
H1704 C1712 0.929 . S
H1705 C1714 0.930 . S
H1706 C1716 0.930 . S
H1707 C1719 0.929 . S
H1708 C1722 0.930 . S
H1709 C1724 0.960 . S
H1710 C1724 0.960 . S
H1711 C1724 0.960 . S
C1712 H1704 0.929 . S
C1712 C1713 1.377 . S
C1712 C1714 1.384 . S
C1713 C1712 1.377 . S
C1713 C1719 1.390 . S
C1714 H1705 0.930 . S
C1714 C1712 1.384 . S
C1714 C1715 1.372 . S
C1715 C1714 1.372 . S
C1715 C1716 1.400 . S
C1715 C1720 1.490 . S
C1716 H1706 0.930 . S
C1716 C1715 1.400 . S
C1716 C1719 1.386 . S
H1717 C1733 0.930 . S
H1718 C1734 0.931 . S
C1719 H1707 0.929 . S
C1719 C1713 1.390 . S
C1719 C1716 1.386 . S
C1720 C1715 1.490 . S
C1720 C1722 1.395 . S
C1720 C1723 1.403 . S
H1721 C1727 0.930 . S
C1722 H1708 0.930 . S
C1722 C1720 1.395 . S
C1722 C1725 1.403 . S
C1723 C1720 1.403 . S
C1723 C1724 1.524 . S
C1723 C1727 1.400 . S
C1724 H1709 0.960 . S
C1724 H1710 0.960 . S
C1724 H1711 0.960 . S
C1724 C1723 1.524 . S
C1725 C1722 1.403 . S
C1725 C1726 1.392 . S
C1725 C1729 1.495 . S
C1726 C1725 1.392 . S
C1726 C1727 1.385 . S
C1726 C1728 1.478 . S
C1727 H1721 0.930 . S
C1727 C1723 1.400 . S
C1727 C1726 1.385 . S
C1728 C1726 1.478 . S
C1728 C1730 1.381 . S
C1728 C1734 1.383 . S
C1729 C1725 1.495 . S
C1729 H1735 0.959 . S
C1729 H1736 0.961 . S
C1729 H1737 0.960 . S
C1730 C1728 1.381 . S
C1730 C1731 1.394 . S
C1730 H1738 0.930 . S
C1731 C1730 1.394 . S
C1731 C1732 1.383 . S
C1731 H1739 0.929 . S
C1732 C1731 1.383 . S
C1732 C1733 1.377 . S
C1733 H1717 0.930 . S
C1733 C1732 1.377 . S
C1733 C1734 1.379 . S
C1734 H1718 0.931 . S
C1734 C1728 1.383 . S
C1734 C1733 1.379 . S
H1735 C1729 0.959 . S
H1736 C1729 0.961 . S
H1737 C1729 0.960 . S
H1738 C1730 0.930 . S
H1739 C1731 0.929 . S
H1740 C1748 0.929 . S
H1741 C1750 0.930 . S
H1742 C1752 0.930 . S
H1743 C1755 0.929 . S
H1744 C1758 0.930 . S
H1745 C1760 0.960 . S
H1746 C1760 0.960 . S
H1747 C1760 0.960 . S
C1748 H1740 0.929 . S
C1748 C1749 1.377 . S
C1748 C1750 1.384 . S
C1749 C1748 1.377 . S
C1749 C1755 1.390 . S
C1750 H1741 0.930 . S
C1750 C1748 1.384 . S
C1750 C1751 1.372 . S
C1751 C1750 1.372 . S
C1751 C1752 1.400 . S
C1751 C1756 1.490 . S
C1752 H1742 0.930 . S
C1752 C1751 1.400 . S
C1752 C1755 1.386 . S
H1753 C1769 0.930 . S
H1754 C1770 0.931 . S
C1755 H1743 0.929 . S
C1755 C1749 1.390 . S
C1755 C1752 1.386 . S
C1756 C1751 1.490 . S
C1756 C1758 1.395 . S
C1756 C1759 1.403 . S
H1757 C1763 0.930 . S
C1758 H1744 0.930 . S
C1758 C1756 1.395 . S
C1758 C1761 1.403 . S
C1759 C1756 1.403 . S
C1759 C1760 1.524 . S
C1759 C1763 1.400 . S
C1760 H1745 0.960 . S
C1760 H1746 0.960 . S
C1760 H1747 0.960 . S
C1760 C1759 1.524 . S
C1761 C1758 1.403 . S
C1761 C1762 1.392 . S
C1761 C1765 1.495 . S
C1762 C1761 1.392 . S
C1762 C1763 1.385 . S
C1762 C1764 1.478 . S
C1763 H1757 0.930 . S
C1763 C1759 1.400 . S
C1763 C1762 1.385 . S
C1764 C1762 1.478 . S
C1764 C1766 1.381 . S
C1764 C1770 1.383 . S
C1765 C1761 1.495 . S
C1765 H1771 0.959 . S
C1765 H1772 0.961 . S
C1765 H1773 0.960 . S
C1766 C1764 1.381 . S
C1766 C1767 1.394 . S
C1766 H1774 0.930 . S
C1767 C1766 1.394 . S
C1767 C1768 1.383 . S
C1767 H1775 0.929 . S
C1768 C1767 1.383 . S
C1768 C1769 1.377 . S
C1769 H1753 0.930 . S
C1769 C1768 1.377 . S
C1769 C1770 1.379 . S
C1770 H1754 0.931 . S
C1770 C1764 1.383 . S
C1770 C1769 1.379 . S
H1771 C1765 0.959 . S
H1772 C1765 0.961 . S
H1773 C1765 0.960 . S
H1774 C1766 0.930 . S
H1775 C1767 0.929 . S
H1776 C1784 0.929 . S
H1777 C1786 0.930 . S
H1778 C1788 0.930 . S
H1779 C1791 0.929 . S
H1780 C1794 0.930 . S
H1781 C1796 0.960 . S
H1782 C1796 0.960 . S
H1783 C1796 0.960 . S
C1784 H1776 0.929 . S
C1784 C1785 1.377 . S
C1784 C1786 1.384 . S
C1785 C1784 1.377 . S
C1785 C1791 1.390 . S
C1786 H1777 0.930 . S
C1786 C1784 1.384 . S
C1786 C1787 1.372 . S
C1787 C1786 1.372 . S
C1787 C1788 1.400 . S
C1787 C1792 1.490 . S
C1788 H1778 0.930 . S
C1788 C1787 1.400 . S
C1788 C1791 1.386 . S
H1789 C1805 0.930 . S
H1790 C1806 0.931 . S
C1791 H1779 0.929 . S
C1791 C1785 1.390 . S
C1791 C1788 1.386 . S
C1792 C1787 1.490 . S
C1792 C1794 1.395 . S
C1792 C1795 1.403 . S
H1793 C1799 0.930 . S
C1794 H1780 0.930 . S
C1794 C1792 1.395 . S
C1794 C1797 1.403 . S
C1795 C1792 1.403 . S
C1795 C1796 1.524 . S
C1795 C1799 1.400 . S
C1796 H1781 0.960 . S
C1796 H1782 0.960 . S
C1796 H1783 0.960 . S
C1796 C1795 1.524 . S
C1797 C1794 1.403 . S
C1797 C1798 1.392 . S
C1797 C1801 1.495 . S
C1798 C1797 1.392 . S
C1798 C1799 1.385 . S
C1798 C1800 1.478 . S
C1799 H1793 0.930 . S
C1799 C1795 1.400 . S
C1799 C1798 1.385 . S
C1800 C1798 1.478 . S
C1800 C1802 1.381 . S
C1800 C1806 1.383 . S
C1801 C1797 1.495 . S
C1801 H1807 0.959 . S
C1801 H1808 0.961 . S
C1801 H1809 0.960 . S
C1802 C1800 1.381 . S
C1802 C1803 1.394 . S
C1802 H1810 0.930 . S
C1803 C1802 1.394 . S
C1803 C1804 1.383 . S
C1803 H1811 0.929 . S
C1804 C1803 1.383 . S
C1804 C1805 1.377 . S
C1805 H1789 0.930 . S
C1805 C1804 1.377 . S
C1805 C1806 1.379 . S
C1806 H1790 0.931 . S
C1806 C1800 1.383 . S
C1806 C1805 1.379 . S
H1807 C1801 0.959 . S
H1808 C1801 0.961 . S
H1809 C1801 0.960 . S
H1810 C1802 0.930 . S
H1811 C1803 0.929 . S
H1812 C1820 0.929 . S
H1813 C1822 0.930 . S
H1814 C1824 0.930 . S
H1815 C1827 0.929 . S
H1816 C1830 0.930 . S
H1817 C1832 0.960 . S
H1818 C1832 0.960 . S
H1819 C1832 0.960 . S
C1820 H1812 0.929 . S
C1820 C1821 1.377 . S
C1820 C1822 1.384 . S
C1821 C1820 1.377 . S
C1821 C1827 1.390 1_565 S
C1822 H1813 0.930 . S
C1822 C1820 1.384 . S
C1822 C1823 1.372 . S
C1823 C1822 1.372 . S
C1823 C1824 1.400 1_565 S
C1823 C1828 1.490 . S
C1824 H1814 0.930 . S
C1824 C1823 1.400 1_545 S
C1824 C1827 1.386 . S
H1825 C1841 0.930 1_545 S
H1826 C1842 0.931 . S
C1827 H1815 0.929 . S
C1827 C1821 1.390 1_545 S
C1827 C1824 1.386 . S
C1828 C1823 1.490 . S
C1828 C1830 1.395 . S
C1828 C1831 1.403 . S
H1829 C1835 0.930 . S
C1830 H1816 0.930 . S
C1830 C1828 1.395 . S
C1830 C1833 1.403 . S
C1831 C1828 1.403 . S
C1831 C1832 1.524 . S
C1831 C1835 1.400 . S
C1832 H1817 0.960 . S
C1832 H1818 0.960 . S
C1832 H1819 0.960 . S
C1832 C1831 1.524 . S
C1833 C1830 1.403 . S
C1833 C1834 1.392 . S
C1833 C1837 1.495 . S
C1834 C1833 1.392 . S
C1834 C1835 1.385 . S
C1834 C1836 1.478 . S
C1835 H1829 0.930 . S
C1835 C1831 1.400 . S
C1835 C1834 1.385 . S
C1836 C1834 1.478 . S
C1836 C1838 1.381 . S
C1836 C1842 1.383 1_565 S
C1837 C1833 1.495 . S
C1837 H1843 0.959 . S
C1837 H1844 0.961 . S
C1837 H1845 0.960 . S
C1838 C1836 1.381 . S
C1838 C1839 1.394 . S
C1838 H1846 0.930 . S
C1839 C1838 1.394 . S
C1839 C1840 1.383 . S
C1839 H1847 0.929 . S
C1840 C1839 1.383 . S
C1840 C1841 1.377 . S
C1841 H1825 0.930 1_565 S
C1841 C1840 1.377 . S
C1841 C1842 1.379 1_565 S
C1842 H1826 0.931 . S
C1842 C1836 1.383 1_545 S
C1842 C1841 1.379 1_545 S
H1843 C1837 0.959 . S
H1844 C1837 0.961 . S
H1845 C1837 0.960 . S
H1846 C1838 0.930 . S
H1847 C1839 0.929 . S
H1848 C1856 0.929 . S
H1849 C1858 0.930 . S
H1850 C1860 0.930 . S
H1851 C1863 0.929 . S
H1852 C1866 0.930 . S
H1853 C1868 0.960 . S
H1854 C1868 0.960 . S
H1855 C1868 0.960 . S
C1856 H1848 0.929 . S
C1856 C1857 1.377 . S
C1856 C1858 1.384 . S
C1857 C1856 1.377 . S
C1857 C1863 1.390 . S
C1858 H1849 0.930 . S
C1858 C1856 1.384 . S
C1858 C1859 1.372 . S
C1859 C1858 1.372 . S
C1859 C1860 1.400 . S
C1859 C1864 1.490 . S
C1860 H1850 0.930 . S
C1860 C1859 1.400 . S
C1860 C1863 1.386 . S
H1861 C1877 0.930 . S
H1862 C1878 0.931 . S
C1863 H1851 0.929 . S
C1863 C1857 1.390 . S
C1863 C1860 1.386 . S
C1864 C1859 1.490 . S
C1864 C1866 1.395 . S
C1864 C1867 1.403 . S
H1865 C1871 0.930 . S
C1866 H1852 0.930 . S
C1866 C1864 1.395 . S
C1866 C1869 1.403 . S
C1867 C1864 1.403 . S
C1867 C1868 1.524 . S
C1867 C1871 1.400 . S
C1868 H1853 0.960 . S
C1868 H1854 0.960 . S
C1868 H1855 0.960 . S
C1868 C1867 1.524 . S
C1869 C1866 1.403 . S
C1869 C1870 1.392 . S
C1869 C1873 1.495 . S
C1870 C1869 1.392 . S
C1870 C1871 1.385 . S
C1870 C1872 1.478 . S
C1871 H1865 0.930 . S
C1871 C1867 1.400 . S
C1871 C1870 1.385 . S
C1872 C1870 1.478 . S
C1872 C1874 1.381 . S
C1872 C1878 1.383 . S
C1873 C1869 1.495 . S
C1873 H1879 0.959 . S
C1873 H1880 0.961 . S
C1873 H1881 0.960 . S
C1874 C1872 1.381 . S
C1874 C1875 1.394 . S
C1874 H1882 0.930 . S
C1875 C1874 1.394 . S
C1875 C1876 1.383 . S
C1875 H1883 0.929 . S
C1876 C1875 1.383 . S
C1876 C1877 1.377 . S
C1877 H1861 0.930 . S
C1877 C1876 1.377 . S
C1877 C1878 1.379 . S
C1878 H1862 0.931 . S
C1878 C1872 1.383 . S
C1878 C1877 1.379 . S
H1879 C1873 0.959 . S
H1880 C1873 0.961 . S
H1881 C1873 0.960 . S
H1882 C1874 0.930 . S
H1883 C1875 0.929 . S
H1884 C1892 0.930 . S
H1885 C1894 0.930 1_565 S
H1886 C1896 0.930 . S
H1887 C1899 0.929 . S
H1888 C1902 0.893 1_565 S
H1889 C1904 0.960 . S
H1890 C1904 0.960 . S
H1891 C1904 0.960 . S
C1892 H1884 0.930 . S
C1892 C1893 1.377 1_565 S
C1892 C1894 1.384 1_565 S
C1893 C1892 1.377 1_545 S
C1893 C1899 1.390 . S
C1894 H1885 0.930 1_545 S
C1894 C1892 1.384 1_545 S
C1894 C1895 1.372 . S
C1895 C1894 1.372 . S
C1895 C1896 1.400 . S
C1895 C1900 1.490 . S
C1896 H1886 0.930 . S
C1896 C1895 1.400 . S
C1896 C1899 1.386 . S
H1897 C1913 0.930 . S
H1898 C1914 0.931 . S
C1899 H1887 0.929 . S
C1899 C1893 1.390 . S
C1899 C1896 1.386 . S
C1900 C1895 1.490 . S
C1900 C1902 1.430 . S
C1900 C1903 1.403 . S
H1901 C1907 0.930 . S
C1902 H1888 0.893 1_545 S
C1902 C1900 1.430 . S
C1902 C1905 1.405 . S
C1903 C1900 1.403 . S
C1903 C1904 1.524 . S
C1903 C1907 1.400 . S
C1904 H1889 0.960 . S
C1904 H1890 0.960 . S
C1904 H1891 0.960 . S
C1904 C1903 1.524 . S
C1905 C1902 1.405 . S
C1905 C1906 1.392 . S
C1905 C1909 1.495 1_545 S
C1906 C1905 1.392 . S
C1906 C1907 1.385 . S
C1906 C1908 1.478 . S
C1907 H1901 0.930 . S
C1907 C1903 1.400 . S
C1907 C1906 1.385 . S
C1908 C1906 1.478 . S
C1908 C1910 1.381 . S
C1908 C1914 1.383 . S
C1909 C1905 1.495 1_565 S
C1909 H1915 0.959 . S
C1909 H1916 0.961 . S
C1909 H1917 0.960 . S
C1910 C1908 1.381 . S
C1910 C1911 1.394 . S
C1910 H1918 0.930 . S
C1911 C1910 1.394 . S
C1911 C1912 1.383 . S
C1911 H1919 0.929 . S
C1912 C1911 1.383 . S
C1912 C1913 1.377 . S
C1913 H1897 0.930 . S
C1913 C1912 1.377 . S
C1913 C1914 1.379 . S
C1914 H1898 0.931 . S
C1914 C1908 1.383 . S
C1914 C1913 1.379 . S
H1915 C1909 0.959 . S
H1916 C1909 0.961 . S
H1917 C1909 0.960 . S
H1918 C1910 0.930 . S
H1919 C1911 0.929 . S
H1920 C1928 0.929 . S
H1921 C1930 0.930 . S
H1922 C1932 0.930 . S
H1923 C1935 0.929 . S
H1924 C1938 0.930 . S
H1925 C1940 0.960 . S
H1926 C1940 0.960 . S
H1927 C1940 0.960 . S
C1928 H1920 0.929 . S
C1928 C1929 1.377 . S
C1928 C1930 1.384 . S
C1929 C1928 1.377 . S
C1929 C1935 1.390 . S
C1930 H1921 0.930 . S
C1930 C1928 1.384 . S
C1930 C1931 1.372 . S
C1931 C1930 1.372 . S
C1931 C1932 1.400 . S
C1931 C1936 1.490 . S
C1932 H1922 0.930 . S
C1932 C1931 1.400 . S
C1932 C1935 1.386 . S
H1933 C1949 0.930 . S
H1934 C1950 0.931 . S
C1935 H1923 0.929 . S
C1935 C1929 1.390 . S
C1935 C1932 1.386 . S
C1936 C1931 1.490 . S
C1936 C1938 1.395 . S
C1936 C1939 1.403 . S
H1937 C1943 0.930 . S
C1938 H1924 0.930 . S
C1938 C1936 1.395 . S
C1938 C1941 1.403 . S
C1939 C1936 1.403 . S
C1939 C1940 1.524 . S
C1939 C1943 1.400 . S
C1940 H1925 0.960 . S
C1940 H1926 0.960 . S
C1940 H1927 0.960 . S
C1940 C1939 1.524 . S
C1941 C1938 1.403 . S
C1941 C1942 1.392 . S
C1941 C1945 1.495 . S
C1942 C1941 1.392 . S
C1942 C1943 1.385 . S
C1942 C1944 1.478 . S
C1943 H1937 0.930 . S
C1943 C1939 1.400 . S
C1943 C1942 1.385 . S
C1944 C1942 1.478 . S
C1944 C1946 1.381 . S
C1944 C1950 1.383 . S
C1945 C1941 1.495 . S
C1945 H1951 0.959 . S
C1945 H1952 0.961 . S
C1945 H1953 0.960 . S
C1946 C1944 1.381 . S
C1946 C1947 1.394 . S
C1946 H1954 0.930 . S
C1947 C1946 1.394 . S
C1947 C1948 1.383 . S
C1947 H1955 0.929 . S
C1948 C1947 1.383 . S
C1948 C1949 1.377 . S
C1949 H1933 0.930 . S
C1949 C1948 1.377 . S
C1949 C1950 1.379 . S
C1950 H1934 0.931 . S
C1950 C1944 1.383 . S
C1950 C1949 1.379 . S
H1951 C1945 0.959 . S
H1952 C1945 0.961 . S
H1953 C1945 0.960 . S
H1954 C1946 0.930 . S
H1955 C1947 0.929 . S
H1956 C1964 0.929 . S
H1957 C1966 0.930 . S
H1958 C1968 0.914 1_556 S
H1959 C1971 0.929 . S
H1960 C1974 0.930 . S
H1961 C1976 0.960 . S
H1962 C1976 0.960 . S
H1963 C1976 0.960 . S
C1964 H1956 0.929 . S
C1964 C1965 1.377 . S
C1964 C1966 1.384 . S
C1965 C1964 1.377 . S
C1965 C1971 1.390 . S
C1966 H1957 0.930 . S
C1966 C1964 1.384 . S
C1966 C1967 1.372 . S
C1967 C1966 1.372 . S
C1967 C1968 1.409 . S
C1967 C1972 1.491 . S
C1968 H1958 0.914 1_554 S
C1968 C1967 1.409 . S
C1968 C1971 1.395 . S
H1969 C1985 0.930 . S
H1970 C1986 0.931 . S
C1971 H1959 0.929 . S
C1971 C1965 1.390 . S
C1971 C1968 1.395 . S
C1972 C1967 1.491 . S
C1972 C1974 1.392 1_554 S
C1972 C1975 1.404 . S
H1973 C1979 0.930 . S
C1974 H1960 0.930 . S
C1974 C1972 1.392 1_556 S
C1974 C1977 1.403 . S
C1975 C1972 1.404 . S
C1975 C1976 1.524 . S
C1975 C1979 1.400 . S
C1976 H1961 0.960 . S
C1976 H1962 0.960 . S
C1976 H1963 0.960 . S
C1976 C1975 1.524 . S
C1977 C1974 1.403 . S
C1977 C1978 1.392 . S
C1977 C1981 1.495 . S
C1978 C1977 1.392 . S
C1978 C1979 1.385 1_556 S
C1978 C1980 1.478 . S
C1979 H1973 0.930 . S
C1979 C1975 1.400 . S
C1979 C1978 1.385 1_554 S
C1980 C1978 1.478 . S
C1980 C1982 1.381 . S
C1980 C1986 1.383 . S
C1981 C1977 1.495 . S
C1981 H1987 0.959 . S
C1981 H1988 0.961 . S
C1981 H1989 0.960 . S
C1982 C1980 1.381 . S
C1982 C1983 1.394 . S
C1982 H1990 0.930 . S
C1983 C1982 1.394 . S
C1983 C1984 1.383 . S
C1983 H1991 0.929 . S
C1984 C1983 1.383 . S
C1984 C1985 1.377 . S
C1985 H1969 0.930 . S
C1985 C1984 1.377 . S
C1985 C1986 1.379 . S
C1986 H1970 0.931 . S
C1986 C1980 1.383 . S
C1986 C1985 1.379 . S
H1987 C1981 0.959 . S
H1988 C1981 0.961 . S
H1989 C1981 0.960 . S
H1990 C1982 0.930 . S
H1991 C1983 0.929 . S
H1992 C2000 0.929 . S
H1993 C2002 0.930 . S
H1994 C2004 0.930 . S
H1995 C2007 0.929 . S
H1996 C2010 0.930 . S
H1997 C2012 0.960 . S
H1998 C2012 0.960 1_556 S
H1999 C2012 0.960 . S
C2000 H1992 0.929 . S
C2000 C2001 1.377 1_556 S
C2000 C2002 1.384 . S
C2001 C2000 1.377 1_554 S
C2001 C2007 1.390 . S
C2002 H1993 0.930 . S
C2002 C2000 1.384 . S
C2002 C2003 1.372 1_556 S
C2003 C2002 1.372 1_554 S
C2003 C2004 1.400 . S
C2003 C2008 1.490 1_554 S
C2004 H1994 0.930 . S
C2004 C2003 1.400 . S
C2004 C2007 1.386 . S
H2005 C2021 0.930 1_554 S
H2006 C2022 0.931 1_554 S
C2007 H1995 0.929 . S
C2007 C2001 1.390 . S
C2007 C2004 1.386 . S
C2008 C2003 1.490 1_556 S
C2008 C2010 1.395 . S
C2008 C2011 1.403 . S
H2009 C2015 0.930 . S
C2010 H1996 0.930 . S
C2010 C2008 1.395 . S
C2010 C2013 1.403 . S
C2011 C2008 1.403 . S
C2011 C2012 1.524 1_556 S
C2011 C2015 1.400 . S
C2012 H1997 0.960 . S
C2012 H1998 0.960 1_554 S
C2012 H1999 0.960 . S
C2012 C2011 1.524 1_554 S
C2013 C2010 1.403 . S
C2013 C2014 1.392 . S
C2013 C2017 1.495 . S
C2014 C2013 1.392 . S
C2014 C2015 1.385 . S
C2014 C2016 1.478 . S
C2015 H2009 0.930 . S
C2015 C2011 1.400 . S
C2015 C2014 1.385 . S
C2016 C2014 1.478 . S
C2016 C2018 1.381 . S
C2016 C2022 1.383 . S
C2017 C2013 1.495 . S
C2017 H2023 0.959 . S
C2017 H2024 0.961 . S
C2017 H2025 0.960 . S
C2018 C2016 1.381 . S
C2018 C2019 1.394 . S
C2018 H2026 0.930 . S
C2019 C2018 1.394 . S
C2019 C2020 1.383 . S
C2019 H2027 0.929 . S
C2020 C2019 1.383 . S
C2020 C2021 1.377 . S
C2021 H2005 0.930 1_556 S
C2021 C2020 1.377 . S
C2021 C2022 1.379 . S
C2022 H2006 0.931 1_556 S
C2022 C2016 1.383 . S
C2022 C2021 1.379 . S
H2023 C2017 0.959 . S
H2024 C2017 0.961 . S
H2025 C2017 0.960 . S
H2026 C2018 0.930 . S
H2027 C2019 0.929 . S
H2028 C2036 0.929 . S
H2029 C2038 0.930 . S
H2030 C2040 0.930 . S
H2031 C2043 0.929 . S
H2032 C2046 0.930 . S
H2033 C2048 0.960 . S
H2034 C2048 0.960 . S
H2035 C2048 0.960 . S
C2036 H2028 0.929 . S
C2036 C2037 1.377 . S
C2036 C2038 1.384 . S
C2037 C2036 1.377 . S
C2037 C2043 1.390 . S
C2038 H2029 0.930 . S
C2038 C2036 1.384 . S
C2038 C2039 1.372 . S
C2039 C2038 1.372 . S
C2039 C2040 1.400 . S
C2039 C2044 1.490 . S
C2040 H2030 0.930 . S
C2040 C2039 1.400 . S
C2040 C2043 1.386 . S
H2041 C2057 0.930 . S
H2042 C2058 0.931 . S
C2043 H2031 0.929 . S
C2043 C2037 1.390 . S
C2043 C2040 1.386 . S
C2044 C2039 1.490 . S
C2044 C2046 1.395 . S
C2044 C2047 1.403 . S
H2045 C2051 0.930 . S
C2046 H2032 0.930 . S
C2046 C2044 1.395 . S
C2046 C2049 1.403 . S
C2047 C2044 1.403 . S
C2047 C2048 1.524 . S
C2047 C2051 1.400 . S
C2048 H2033 0.960 . S
C2048 H2034 0.960 . S
C2048 H2035 0.960 . S
C2048 C2047 1.524 . S
C2049 C2046 1.403 . S
C2049 C2050 1.392 . S
C2049 C2053 1.495 . S
C2050 C2049 1.392 . S
C2050 C2051 1.385 . S
C2050 C2052 1.478 . S
C2051 H2045 0.930 . S
C2051 C2047 1.400 . S
C2051 C2050 1.385 . S
C2052 C2050 1.478 . S
C2052 C2054 1.381 . S
C2052 C2058 1.383 . S
C2053 C2049 1.495 . S
C2053 H2059 0.959 . S
C2053 H2060 0.961 . S
C2053 H2061 0.960 . S
C2054 C2052 1.381 . S
C2054 C2055 1.394 . S
C2054 H2062 0.930 . S
C2055 C2054 1.394 . S
C2055 C2056 1.383 . S
C2055 H2063 0.929 . S
C2056 C2055 1.383 . S
C2056 C2057 1.377 . S
C2057 H2041 0.930 . S
C2057 C2056 1.377 . S
C2057 C2058 1.379 . S
C2058 H2042 0.931 . S
C2058 C2052 1.383 . S
C2058 C2057 1.379 . S
H2059 C2053 0.959 . S
H2060 C2053 0.961 . S
H2061 C2053 0.960 . S
H2062 C2054 0.930 . S
H2063 C2055 0.929 . S
C345 C13 1.919 . S
C364 C228 1.712 . S
C400 C247 1.780 . S
C381 C1 1.809 . S
C436 C185 1.518 1_565 S
C417 C27 1.503 . S
C453 C15 1.432 . S
C472 C206 1.431 . S
C489 C28 1.443 . S
C508 C333 1.350 1_554 S
C525 C55 1.306 . S
C544 C311 1.322 1_554 S
C580 C268 1.672 . S
C561 C40 1.727 1_565 S
C597 C43 1.401 . S
C616 C289 1.395 . S
C652 C207 1.405 . S
C633 C56 1.530 . S
C688 C248 1.392 1_455 S
C669 C83 1.407 . S
C705 C96 1.690 . S
C724 C226 1.646 1_655 S
C741 C71 1.496 . S
C760 C291 1.324 . S
C796 C312 1.739 . S
C777 C99 1.920 . S
C832 C331 1.771 1_565 S
C813 C111 1.807 . S
C849 C113 1.505 . S
C868 C290 1.522 . S
C904 C269 1.414 . S
C885 C125 1.436 . S
C921 C139 1.444 . S
C940 C249 1.351 . S
C957 C153 1.310 . S
C976 C227 1.297 . S
C1012 C205 1.692 1_556 S
C993 C127 1.729 . S
C1029 C141 1.400 . S
C1048 C184 1.361 . S
C1084 C270 1.417 . S
C1065 C84 1.530 . S
C1120 C332 1.412 . S
C1101 C154 1.409 . S
C1137 C68 1.692 . S
C1156 C310 1.661 . S
C1173 C166 1.496 . S
C1192 C186 1.330 . S
C1228 C182 1.086 . S
C1209 C0 1.137 . S
C1245 C12 1.112 . S
C1264 C203 1.085 . S
C1300 C223 1.163 . S
C1281 C14 1.231 . S
C1336 C246 1.513 . S
C1317 C26 1.825 . S
C1353 C41 1.001 . S
C1372 C183 0.899 . S
C1389 C42 1.770 . S
C1408 C204 1.387 . S
C1444 C224 1.049 . S
C1425 C29 1.103 1_565 S
C1461 C54 0.969 . S
C1480 C244 0.894 . S
C1497 C69 0.894 . S
C1516 C181 0.885 . S
C1552 C225 1.469 . S
C1533 C70 1.774 . S
C1569 C85 1.574 . S
C1588 C245 1.500 . S
C1605 C82 0.943 . S
C1624 C265 0.950 . S
C1660 C287 1.036 . S
C1641 C110 1.133 . S
C1677 C98 1.104 . S
C1696 C266 1.041 . S
C1713 C124 1.228 . S
C1732 C307 1.166 . S
C1749 C112 1.820 . S
C1768 C330 1.462 . S
C1785 C126 0.996 . S
C1804 C288 0.770 . S
C1840 C267 1.402 . S
C1821 C140 1.771 . S
C1857 C138 1.108 . S
C1876 C308 1.090 . S
C1912 C328 0.961 . S
C1893 C152 0.971 . S
C1948 C286 0.895 . S
C1929 C97 0.895 . S
C1984 C309 1.388 . S
C1965 C167 1.775 . S
C2020 C329 1.499 . S
C2001 C57 1.572 . S
C2037 C155 0.936 . S
C2056 C202 0.901 . S
