# Generated by pormake.
# Topology zzz, (3,6)-cn, num edge types: 1
# Building blocks:
#     Node 0, Type 0, BuildingBlock: OLANEW_clean_sbu_2, # of connection points: 3
#     Node 1, Type 0, BuildingBlock: OLANEW_clean_sbu_2, # of connection points: 3
#     Node 2, Type 0, BuildingBlock: OLANEW_clean_sbu_2, # of connection points: 3
#     Node 3, Type 0, BuildingBlock: OLANEW_clean_sbu_2, # of connection points: 3
#     Node 4, Type 0, BuildingBlock: OLANEW_clean_sbu_2, # of connection points: 3
#     Node 5, Type 0, BuildingBlock: OLANEW_clean_sbu_2, # of connection points: 3
#     Node 6, Type 0, BuildingBlock: OLANEW_clean_sbu_2, # of connection points: 3
#     Node 7, Type 0, BuildingBlock: OLANEW_clean_sbu_2, # of connection points: 3
#     Node 8, Type 1, BuildingBlock: GEDQOX_clean_sbu_0, # of connection points: 6
#     Node 9, Type 1, BuildingBlock: GEDQOX_clean_sbu_0, # of connection points: 6
#     Node 10, Type 1, BuildingBlock: GEDQOX_clean_sbu_0, # of connection points: 6
#     Node 11, Type 1, BuildingBlock: GEDQOX_clean_sbu_0, # of connection points: 6
#     Edge 12, Type (0, 1), BuildingBlock: XIVTED_clean_linker_0, # of connection points: 2
#     Edge 13, Type (0, 1), BuildingBlock: XIVTED_clean_linker_0, # of connection points: 2
#     Edge 14, Type (0, 1), BuildingBlock: XIVTED_clean_linker_0, # of connection points: 2
#     Edge 15, Type (0, 1), BuildingBlock: XIVTED_clean_linker_0, # of connection points: 2
#     Edge 16, Type (0, 1), BuildingBlock: XIVTED_clean_linker_0, # of connection points: 2
#     Edge 17, Type (0, 1), BuildingBlock: XIVTED_clean_linker_0, # of connection points: 2
#     Edge 18, Type (0, 1), BuildingBlock: XIVTED_clean_linker_0, # of connection points: 2
#     Edge 19, Type (0, 1), BuildingBlock: XIVTED_clean_linker_0, # of connection points: 2
#     Edge 20, Type (0, 1), BuildingBlock: XIVTED_clean_linker_0, # of connection points: 2
#     Edge 21, Type (0, 1), BuildingBlock: XIVTED_clean_linker_0, # of connection points: 2
#     Edge 22, Type (0, 1), BuildingBlock: XIVTED_clean_linker_0, # of connection points: 2
#     Edge 23, Type (0, 1), BuildingBlock: XIVTED_clean_linker_0, # of connection points: 2
#     Edge 24, Type (0, 1), BuildingBlock: XIVTED_clean_linker_0, # of connection points: 2
#     Edge 25, Type (0, 1), BuildingBlock: XIVTED_clean_linker_0, # of connection points: 2
#     Edge 26, Type (0, 1), BuildingBlock: XIVTED_clean_linker_0, # of connection points: 2
#     Edge 27, Type (0, 1), BuildingBlock: XIVTED_clean_linker_0, # of connection points: 2
#     Edge 28, Type (0, 1), BuildingBlock: XIVTED_clean_linker_0, # of connection points: 2
#     Edge 29, Type (0, 1), BuildingBlock: XIVTED_clean_linker_0, # of connection points: 2
#     Edge 30, Type (0, 1), BuildingBlock: XIVTED_clean_linker_0, # of connection points: 2
#     Edge 31, Type (0, 1), BuildingBlock: XIVTED_clean_linker_0, # of connection points: 2
#     Edge 32, Type (0, 1), BuildingBlock: XIVTED_clean_linker_0, # of connection points: 2
#     Edge 33, Type (0, 1), BuildingBlock: XIVTED_clean_linker_0, # of connection points: 2
#     Edge 34, Type (0, 1), BuildingBlock: XIVTED_clean_linker_0, # of connection points: 2
#     Edge 35, Type (0, 1), BuildingBlock: XIVTED_clean_linker_0, # of connection points: 2
# Relax obj value: 0.145
# Max RMSD: 0.230
# Mean RMSD: 0.100
data_MOF--net-zzz--node1-OLANEW_clean_sbu_2--node2-GEDQOX_clean_sbu_0--edge1-XIVTED_clean_linker_0
_symmetry_space_group_name_H-M    P1
_symmetry_Int_Tables_number       1
_symmetry_cell_setting            triclinic
loop_
_symmetry_equiv_pos_as_xyz
'x, y, z'
_cell_length_a     58.13771
_cell_length_b     56.655517
_cell_length_c     19.157106
_cell_angle_alpha  81.242473
_cell_angle_beta   90.00819
_cell_angle_gamma 101.57469
loop_
_atom_site_label
_atom_site_type_symbol
_atom_site_fract_x
_atom_site_fract_y
_atom_site_fract_z
_atom_type_partial_charge
O0 O 0.79245 0.4972 0.815 0.0
Cd1 Cd 0.76451 0.52456 0.79898 0.0
O2 O 0.80039 0.51088 0.91475 0.0
Cd3 Cd 0.82198 0.51924 0.00452 0.0
O4 O 0.84339 0.52477 0.09615 0.0
C5 C 0.86554 0.53187 0.08897 0.0
O6 O 0.8754 0.53595 0.0254 0.0
C7 C 0.80504 0.49825 0.8691 0.0
C8 C 0.71702 0.50695 0.83417 0.0
O9 O 0.72523 0.50687 0.77208 0.0
O10 O 0.73152 0.51421 0.88067 0.0
O11 O 0.94264 0.77241 0.91075 0.0
Cd12 Cd 0.91851 0.73129 0.92839 0.0
O13 O 0.94157 0.77415 0.02434 0.0
Cd14 Cd 0.94656 0.79406 0.11433 0.0
O15 O 0.95359 0.8192 0.19114 0.0
C16 C 0.94008 0.83401 0.19563 0.0
O17 O 0.92196 0.83356 0.15451 0.0
C18 C 0.94815 0.78424 0.96163 0.0
C19 C 0.94405 0.69445 0.93349 0.0
O20 O 0.93836 0.70527 0.87425 0.0
O21 O 0.93797 0.70132 0.99026 0.0
O22 O 0.74374 0.98678 0.77146 0.0
Cd23 Cd 0.77244 0.9603 0.78724 0.0
O24 O 0.73285 0.97626 0.88311 0.0
Cd25 Cd 0.71036 0.97201 0.97795 0.0
O26 O 0.69089 0.9689 0.07777 0.0
C27 C 0.67987 0.94837 0.1094 0.0
O28 O 0.68 0.9287 0.08101 0.0
C29 C 0.73015 0.98788 0.82233 0.0
C30 C 0.81799 0.9812 0.81994 0.0
O31 O 0.81157 0.9824 0.75568 0.0
O32 O 0.80263 0.97081 0.86888 0.0
O33 O 0.63878 0.79505 0.16331 0.0
Cd34 Cd 0.65495 0.83497 0.1947 0.0
O35 O 0.62395 0.78477 0.27123 0.0
Cd36 Cd 0.60579 0.75883 0.35965 0.0
O37 O 0.59013 0.7272 0.43619 0.0
C38 C 0.59152 0.70633 0.42198 0.0
O39 O 0.60207 0.70493 0.36255 0.0
C40 C 0.62627 0.7794 0.20984 0.0
C41 C 0.62499 0.86589 0.14464 0.0
O42 O 0.6425 0.8639 0.10686 0.0
O43 O 0.622 0.85371 0.2072 0.0
O44 O 0.25642 0.60367 0.84267 0.0
Cd45 Cd 0.29781 0.62372 0.82433 0.0
O46 O 0.25472 0.59297 0.73686 0.0
Cd47 Cd 0.23512 0.57479 0.6553 0.0
O48 O 0.21033 0.55598 0.58591 0.0
C49 C 0.21495 0.55811 0.52014 0.0
O50 O 0.23504 0.57166 0.49404 0.0
C51 C 0.24457 0.59401 0.79484 0.0
C52 C 0.33014 0.59347 0.82347 0.0
O53 O 0.32392 0.59956 0.88128 0.0
O54 O 0.32053 0.6011 0.76647 0.0
O55 O 0.09993 0.26053 0.76433 0.0
Cd56 Cd 0.12173 0.30259 0.75363 0.0
O57 O 0.11936 0.25613 0.6703 0.0
Cd58 Cd 0.12548 0.23315 0.59277 0.0
O59 O 0.12255 0.20612 0.52127 0.0
C60 C 0.10284 0.19171 0.51892 0.0
O61 O 0.0853 0.19356 0.55963 0.0
C62 C 0.10459 0.2471 0.72107 0.0
C63 C 0.0946 0.33747 0.7622 0.0
O64 O 0.10154 0.32579 0.81823 0.0
O65 O 0.10002 0.3322 0.70237 0.0
O66 O 0.31275 0.04411 0.84597 0.0
Cd67 Cd 0.28382 0.07012 0.8473 0.0
O68 O 0.32442 0.06248 0.73905 0.0
Cd69 Cd 0.34562 0.07012 0.64001 0.0
O70 O 0.37154 0.07519 0.55314 0.0
C71 C 0.38322 0.05862 0.55053 0.0
O72 O 0.37901 0.03909 0.599 0.0
C73 C 0.32688 0.04716 0.79321 0.0
C74 C 0.23687 0.04943 0.82845 0.0
O75 O 0.2456 0.04774 0.89004 0.0
O76 O 0.25056 0.06014 0.77563 0.0
O77 O 0.38677 0.22378 0.57683 0.0
Cd78 Cd 0.36856 0.18313 0.5551 0.0
O79 O 0.39296 0.23868 0.46412 0.0
Cd80 Cd 0.40822 0.26694 0.3757 0.0
O81 O 0.42314 0.2983 0.29593 0.0
C82 C 0.41625 0.31823 0.29591 0.0
O83 O 0.4002 0.31923 0.34301 0.0
C84 C 0.39484 0.24155 0.52866 0.0
C85 C 0.40086 0.15304 0.58467 0.0
O86 O 0.39821 0.16286 0.52114 0.0
O87 O 0.38793 0.15706 0.63391 0.0
Nd88 Nd 0.01569 0.01755 0.77237 0.0
Nd89 Nd 0.03637 0.01453 0.91949 0.0
C90 C 0.98934 0.01231 0.66095 0.0
C91 C 0.98345 0.99364 0.61495 0.0
C92 C 0.99067 0.97132 0.63128 0.0
C93 C 0.98529 0.95368 0.58693 0.0
C94 C 0.97274 0.95814 0.52509 0.0
C95 C 0.96556 0.98061 0.50911 0.0
C96 C 0.97086 0.99819 0.55377 0.0
C97 C 0.06283 0.01717 0.77417 0.0
C98 C 0.01459 0.96377 0.86902 0.0
C99 C 0.06233 0.02001 0.03174 0.0
C100 C 0.06684 0.03789 0.08072 0.0
C101 C 0.08555 0.03787 0.12682 0.0
C102 C 0.08971 0.0546 0.17439 0.0
C103 C 0.07513 0.07154 0.17675 0.0
C104 C 0.05651 0.07159 0.12981 0.0
C105 C 0.05246 0.05495 0.08206 0.0
C106 C 0.98929 0.0157 0.91636 0.0
C107 C 0.038 0.06811 0.82106 0.0
O108 O 0.9811 0.006 0.72613 0.0
O109 O 0.01117 0.02414 0.65665 0.0
O110 O 0.05314 0.02953 0.72414 0.0
O111 O 0.0476 0.00423 0.81837 0.0
O112 O 0.00457 0.9769 0.81965 0.0
O113 O 0.031 0.97415 0.90867 0.0
O114 O 0.07047 0.02778 0.96692 0.0
O115 O 0.04107 0.00677 0.03477 0.0
O116 O 0.99855 0.00311 0.96685 0.0
O117 O 0.00491 0.02826 0.87312 0.0
O118 O 0.04836 0.055 0.86966 0.0
O119 O 0.02087 0.05777 0.78376 0.0
H120 H 0.00052 0.96758 0.67825 0.0
H121 H 0.99081 0.93648 0.60144 0.0
H122 H 0.95619 0.98481 0.46146 0.0
H123 H 0.96529 0.01542 0.54026 0.0
H124 H 0.09683 0.02482 0.12635 0.0
H125 H 0.10406 0.05396 0.21023 0.0
H126 H 0.04519 0.08463 0.12959 0.0
H127 H 0.03803 0.05533 0.04633 0.0
Nd128 Nd 0.52224 0.99282 0.74951 0.0
Nd129 Nd 0.5247 0.02636 0.86155 0.0
C130 C 0.52719 0.96115 0.66537 0.0
C131 C 0.54589 0.95297 0.63005 0.0
C132 C 0.53987 0.93828 0.57767 0.0
C133 C 0.55725 0.93427 0.53318 0.0
C134 C 0.58098 0.94501 0.54013 0.0
C135 C 0.58706 0.95856 0.59564 0.0
C136 C 0.56962 0.96252 0.64027 0.0
C137 C 0.50371 0.03313 0.70741 0.0
C138 C 0.57328 0.02704 0.77458 0.0
C139 C 0.52691 0.0602 0.94392 0.0
C140 C 0.51424 0.0615 0.00911 0.0
C141 C 0.51716 0.08346 0.03635 0.0
C142 C 0.50471 0.08472 0.09782 0.0
C143 C 0.48923 0.06396 0.13303 0.0
C144 C 0.48643 0.04198 0.10524 0.0
C145 C 0.49878 0.04079 0.04379 0.0
C146 C 0.52686 0.97873 0.91308 0.0
C147 C 0.47471 0.9922 0.83685 0.0
O148 O 0.5245 0.95517 0.73421 0.0
O149 O 0.52542 0.98366 0.64281 0.0
O150 O 0.49548 0.01178 0.69106 0.0
O151 O 0.52222 0.03341 0.7427 0.0
O152 O 0.56124 0.01077 0.73889 0.0
O153 O 0.56322 0.03666 0.822 0.0
O154 O 0.5143 0.05965 0.88744 0.0
O155 O 0.54075 0.04448 0.94958 0.0
O156 O 0.51527 0.99157 0.94482 0.0
O157 O 0.53683 0.99136 0.85769 0.0
O158 O 0.48529 0.01327 0.85396 0.0
O159 O 0.4862 0.97828 0.80675 0.0
H160 H 0.5216 0.93099 0.56864 0.0
H161 H 0.55189 0.92399 0.49061 0.0
H162 H 0.6052 0.9668 0.60306 0.0
H163 H 0.57455 0.97392 0.68053 0.0
H164 H 0.529 0.09963 0.01003 0.0
H165 H 0.50738 0.10185 0.11815 0.0
H166 H 0.47436 0.02578 0.1303 0.0
H167 H 0.49615 0.02372 0.02304 0.0
Nd168 Nd 0.50731 0.52594 0.92233 0.0
Nd169 Nd 0.51006 0.49747 0.80224 0.0
C170 C 0.5006 0.55693 0.00682 0.0
C171 C 0.51388 0.5797 0.02675 0.0
C172 C 0.50189 0.59572 0.05316 0.0
C173 C 0.51433 0.61722 0.07365 0.0
C174 C 0.53905 0.62304 0.06828 0.0
C175 C 0.55096 0.60697 0.04093 0.0
C176 C 0.53848 0.58554 0.02011 0.0
C177 C 0.54871 0.50978 0.9132 0.0
C178 C 0.52831 0.5551 0.7667 0.0
C179 C 0.51755 0.46716 0.71659 0.0
C180 C 0.50573 0.44346 0.69935 0.0
C181 C 0.4904 0.42672 0.74849 0.0
C182 C 0.47843 0.40471 0.7299 0.0
C183 C 0.48144 0.39924 0.6617 0.0
C184 C 0.4969 0.41606 0.61285 0.0
C185 C 0.50896 0.43798 0.63162 0.0
C186 C 0.46932 0.51475 0.80859 0.0
C187 C 0.48767 0.46834 0.95646 0.0
O188 O 0.49337 0.55816 0.94195 0.0
O189 O 0.50893 0.53732 0.02784 0.0
O190 O 0.53873 0.51107 0.97255 0.0
O191 O 0.53788 0.51851 0.86215 0.0
O192 O 0.51676 0.55617 0.82518 0.0
O193 O 0.53201 0.53414 0.7521 0.0
O194 O 0.52642 0.46726 0.77942 0.0
O195 O 0.50677 0.48516 0.69777 0.0
O196 O 0.47968 0.51337 0.74993 0.0
O197 O 0.4794 0.50552 0.86081 0.0
O198 O 0.49941 0.46706 0.89853 0.0
O199 O 0.48458 0.4895 0.97129 0.0
H200 H 0.48288 0.59156 0.05811 0.0
H201 H 0.50456 0.62937 0.0932 0.0
H202 H 0.56996 0.61071 0.03673 0.0
H203 H 0.54804 0.5734 -0.00052 0.0
H204 H 0.48747 0.4308 0.80083 0.0
H205 H 0.46644 0.39223 0.76837 0.0
H206 H 0.49976 0.41222 0.56021 0.0
H207 H 0.52066 0.45078 0.59301 0.0
Nd208 Nd 0.01993 0.53155 0.79863 0.0
Nd209 Nd 0.0229 0.50042 0.94094 0.0
C210 C 0.00892 0.56143 0.6896 0.0
C211 C 0.99318 0.55937 0.63012 0.0
C212 C 0.99539 0.57866 0.57381 0.0
C213 C 0.98131 0.57639 0.51511 0.0
C214 C 0.96476 0.55476 0.51198 0.0
C215 C 0.96244 0.53556 0.56917 0.0
C216 C 0.97661 0.53782 0.62766 0.0
C217 C 0.03213 0.48782 0.7893 0.0
C218 C 0.97224 0.49365 0.8724 0.0
C219 C 0.03658 0.47353 0.05227 0.0
C220 C 0.05615 0.47935 0.09943 0.0
C221 C 0.06018 0.4622 0.15655 0.0
C222 C 0.07857 0.46835 0.20201 0.0
C223 C 0.09326 0.49169 0.19051 0.0
C224 C 0.08913 0.5087 0.13283 0.0
C225 C 0.0707 0.50262 0.08803 0.0
C226 C 0.01068 0.54429 0.94845 0.0
C227 C 0.07032 0.53793 0.86537 0.0
O228 O 0.99885 0.55826 0.75238 0.0
O229 O 0.02657 0.55039 0.68842 0.0
O230 O 0.04003 0.50776 0.74617 0.0
O231 O 0.01685 0.49075 0.8321 0.0
O232 O 0.98138 0.51333 0.82709 0.0
O233 O 0.98521 0.4826 0.91801 0.0
O234 O 0.04257 0.47234 0.98729 0.0
O235 O 0.01996 0.48584 0.05538 0.0
O236 O 0.00222 0.52441 0.99111 0.0
O237 O 0.02619 0.54104 0.90712 0.0
O238 O 0.06165 0.51725 0.90708 0.0
O239 O 0.05654 0.54996 0.82617 0.0
H240 H 0.00817 0.59539 0.57494 0.0
H241 H 0.98331 0.59159 0.47229 0.0
H242 H 0.95008 0.51857 0.56797 0.0
H243 H 0.97491 0.52265 0.67051 0.0
H244 H 0.04905 0.44417 0.1662 0.0
H245 H 0.0814 0.45483 0.24582 0.0
H246 H 0.09981 0.52695 0.12319 0.0
H247 H 0.06763 0.51624 0.04487 0.0
H248 H 0.20343 0.02412 0.92824 0.0
H249 H 0.09675 0.0418 0.67746 0.0
H250 H 0.21227 0.05527 0.70745 0.0
H251 H 0.08706 0.99674 0.88227 0.0
H252 H 0.13921 0.04679 0.68824 0.0
H253 H 0.16096 0.01354 0.91346 0.0
C254 C 0.19648 0.02854 0.87652 0.0
C255 C 0.21145 0.04073 0.81907 0.0
C256 C 0.12786 0.03567 0.73072 0.0
C257 C 0.16284 0.02888 0.80201 0.0
C258 C 0.1036 0.03284 0.72462 0.0
C259 C 0.08842 0.01893 0.77922 0.0
C260 C 0.13707 0.02472 0.79228 0.0
C261 C 0.09821 0.0077 0.8391 0.0
C262 C 0.17223 0.02248 0.86813 0.0
C263 C 0.20143 0.04595 0.75328 0.0
N264 N 0.12197 0.011 0.84435 0.0
N265 N 0.17778 0.04019 0.74673 0.0
H266 H 0.41991 0.14067 0.71225 0.0
H267 H 0.47541 0.03741 0.59661 0.0
H268 H 0.42187 0.13048 0.49376 0.0
H269 H 0.50697 0.07626 0.7608 0.0
H270 H 0.45294 0.0691 0.5628 0.0
H271 H 0.44864 0.11441 0.73798 0.0
C272 C 0.42639 0.13292 0.66973 0.0
C273 C 0.41842 0.13761 0.60081 0.0
C274 C 0.46488 0.07078 0.60594 0.0
C275 C 0.45103 0.10763 0.63004 0.0
C276 C 0.47772 0.05273 0.62538 0.0
C277 C 0.49285 0.0541 0.68235 0.0
C278 C 0.46662 0.09 0.64496 0.0
C279 C 0.49526 0.0744 0.71737 0.0
C280 C 0.4429 0.11816 0.68438 0.0
C281 C 0.42751 0.12728 0.5476 0.0
N282 N 0.48187 0.09142 0.69902 0.0
N283 N 0.44311 0.11249 0.56352 0.0
H284 H 0.34862 0.57955 0.70853 0.0
H285 H 0.44598 0.52015 0.92734 0.0
H286 H 0.35437 0.57504 0.93464 0.0
H287 H 0.44376 0.53148 0.69984 0.0
H288 H 0.41064 0.53734 0.93247 0.0
H289 H 0.38144 0.55873 0.70574 0.0
C290 C 0.35667 0.57403 0.75771 0.0
C291 C 0.34878 0.57916 0.82189 0.0
C292 C 0.41784 0.53599 0.88145 0.0
C293 C 0.38653 0.5554 0.81902 0.0
C294 C 0.43797 0.52617 0.87853 0.0
C295 C 0.44775 0.52444 0.81306 0.0
C296 C 0.40742 0.54405 0.8184 0.0
C297 C 0.43677 0.53252 0.75139 0.0
C298 C 0.37547 0.56219 0.75605 0.0
C299 C 0.35991 0.57153 0.88394 0.0
N300 N 0.41721 0.54199 0.75557 0.0
N301 N 0.37827 0.56012 0.88091 0.0
H302 H 0.07519 0.34927 0.87952 0.0
H303 H 0.05716 0.47753 0.68242 0.0
H304 H 0.08541 0.37132 0.65402 0.0
H305 H 0.02223 0.445 0.88285 0.0
H306 H 0.06967 0.4394 0.67437 0.0
H307 H 0.05736 0.38467 0.88541 0.0
C308 C 0.07352 0.36143 0.8312 0.0
C309 C 0.08192 0.35742 0.76619 0.0
C310 C 0.05914 0.4405 0.71993 0.0
C311 C 0.06184 0.39798 0.7728 0.0
C312 C 0.05206 0.46228 0.7247 0.0
C313 C 0.03873 0.46438 0.78352 0.0
C314 C 0.05319 0.42075 0.77499 0.0
C315 C 0.03257 0.44408 0.83672 0.0
C316 C 0.0633 0.38157 0.83464 0.0
C317 C 0.07923 0.37371 0.70527 0.0
N318 N 0.04006 0.4231 0.83156 0.0
N319 N 0.06967 0.39341 0.7102 0.0
H320 H 0.85367 0.00819 0.73048 0.0
H321 H 0.9537 0.98851 0.00431 0.0
H322 H 0.83885 0.9742 0.9475 0.0
H323 H 0.96702 0.03819 0.80775 0.0
H324 H 0.91152 0.9829 0.98434 0.0
H325 H 0.89522 0.01935 0.75708 0.0
C326 C 0.85911 0.00326 0.78388 0.0
C327 C 0.84276 0.99013 0.83677 0.0
C328 C 0.92364 0.99517 0.94579 0.0
C329 C 0.89034 0.00263 0.86737 0.0
C330 C 0.9477 0.99835 0.95715 0.0
C331 C 0.96381 0.01366 0.90728 0.0
C332 C 0.91565 0.0072 0.88371 0.0
C333 C 0.95515 0.02605 0.84719 0.0
C334 C 0.88284 0.00966 0.79904 0.0
C335 C 0.85083 0.98429 0.90506 0.0
N336 N 0.93165 0.02236 0.8367 0.0
N337 N 0.87407 0.99036 0.91821 0.0
H338 H 0.58569 0.87357 0.20978 0.0
H339 H 0.52075 0.95854 0.05308 0.0
H340 H 0.62649 0.8932 0.01382 0.0
H341 H 0.55474 0.95263 0.85819 0.0
H342 H 0.54243 0.92972 0.11655 0.0
H343 H 0.55777 0.89774 0.15883 0.0
C344 C 0.58887 0.88316 0.1562 0.0
C345 C 0.60848 0.88138 0.11604 0.0
C346 C 0.54478 0.93412 0.05977 0.0
C347 C 0.57675 0.90949 0.05735 0.0
C348 C 0.53234 0.95065 0.02349 0.0
C349 C 0.53606 0.95802 0.95042 0.0
C350 C 0.56095 0.92489 0.02235 0.0
C351 C 0.55142 0.94748 0.91463 0.0
C352 C 0.57294 0.89712 0.1271 0.0
C353 C 0.61166 0.89405 0.04682 0.0
N354 N 0.56346 0.93168 0.95105 0.0
N355 N 0.59595 0.90749 0.01975 0.0
H356 H 0.68164 0.49562 0.74316 0.0
H357 H 0.57963 0.50133 0.01741 0.0
H358 H 0.69391 0.50547 0.9601 0.0
H359 H 0.57137 0.50605 0.79226 0.0
H360 H 0.61999 0.49577 0.00183 0.0
H361 H 0.63961 0.49191 0.7653 0.0
C362 C 0.67549 0.49667 0.79575 0.0
C363 C 0.69138 0.50112 0.84967 0.0
C364 C 0.60927 0.49784 0.95594 0.0
C365 C 0.64323 0.49706 0.87521 0.0
C366 C 0.58626 0.50097 0.96482 0.0
C367 C 0.57231 0.5044 0.90592 0.0
C368 C 0.61826 0.49798 0.88772 0.0
C369 C 0.58166 0.50369 0.83898 0.0
C370 C 0.65147 0.49465 0.80825 0.0
C371 C 0.68233 0.50223 0.91681 0.0
N372 N 0.60408 0.50068 0.83166 0.0
N373 N 0.65887 0.50042 0.92753 0.0
H374 H 0.96633 0.68074 0.82488 0.0
H375 H 0.98189 0.55484 0.04578 0.0
H376 H 0.94974 0.66135 0.0485 0.0
H377 H 0.02184 0.58631 0.85253 0.0
H378 H 0.96756 0.59261 0.04404 0.0
H379 H 0.98462 0.64517 0.82996 0.0
C380 C 0.96664 0.66908 0.87509 0.0
C381 C 0.95644 0.67396 0.93635 0.0
C382 C 0.97959 0.59134 0.00226 0.0
C383 C 0.97707 0.6332 0.94227 0.0
C384 C 0.98772 0.56978 0.0031 0.0
C385 C 0.003 0.5675 0.94908 0.0
C386 C 0.98651 0.61064 0.94637 0.0
C387 C 0.01002 0.58737 0.89505 0.0
C388 C 0.97713 0.64885 0.87794 0.0
C389 C 0.9574 0.65829 2e-05 0.0
N390 N 0.00153 0.60809 0.89467 0.0
N391 N 0.96732 0.63847 0.00117 0.0
H392 H 0.12686 0.20975 0.71577 0.0
H393 H 0.01414 0.10319 0.76333 0.0
H394 H 0.05865 0.22511 0.75367 0.0
H395 H 0.08128 0.09354 0.84589 0.0
H396 H 0.02963 0.14744 0.73735 0.0
H397 H 0.10982 0.16605 0.73917 0.0
C398 C 0.1082 0.20386 0.72801 0.0
C399 C 0.09402 0.2209 0.73205 0.0
C400 C 0.04083 0.13553 0.76141 0.0
C401 C 0.07454 0.17116 0.75934 0.0
C402 C 0.03209 0.11038 0.776 0.0
C403 C 0.04646 0.09476 0.80698 0.0
C404 C 0.06423 0.14488 0.77626 0.0
C405 C 0.06956 0.10496 0.82248 0.0
C406 C 0.09858 0.179 0.74201 0.0
C407 C 0.07008 0.21241 0.74989 0.0
N408 N 0.07781 0.12936 0.80628 0.0
N409 N 0.06097 0.18802 0.76241 0.0
H410 H 0.37046 0.06151 0.7275 0.0
H411 H 0.44464 0.9908 0.94684 0.0
H412 H 0.32874 0.00329 0.87395 0.0
H413 H 0.44723 0.98659 0.72439 0.0
H414 H 0.40447 0.99829 0.9351 0.0
H415 H 0.4024 0.03932 0.73572 0.0
C416 C 0.36753 0.04361 0.7589 0.0
C417 C 0.3463 0.03364 0.79679 0.0
C418 C 0.41357 0.99478 0.88961 0.0
C419 C 0.38358 0.00909 0.81061 0.0
C420 C 0.43632 0.99037 0.8963 0.0
C421 C 0.44897 0.98771 0.83666 0.0
C422 C 0.40403 0.99753 0.8224 0.0
C423 C 0.43781 0.9881 0.77175 0.0
C424 C 0.38598 0.03117 0.76453 0.0
C425 C 0.34463 0.01138 0.84254 0.0
N426 N 0.4162 0.99377 0.76577 0.0
N427 N 0.36318 -7e-05 0.84896 0.0
H428 H 0.42151 0.24778 0.64349 0.0
H429 H 0.45887 0.39268 0.53852 0.0
H430 H 0.39533 0.28803 0.4622 0.0
H431 H 0.47418 0.35335 0.73846 0.0
H432 H 0.43751 0.35437 0.50571 0.0
H433 H 0.44244 0.28619 0.6765 0.0
C434 C 0.42029 0.26476 0.61036 0.0
C435 C 0.40726 0.26478 0.54878 0.0
C436 C 0.4455 0.35413 0.55681 0.0
C437 C 0.43108 0.30877 0.58621 0.0
C438 C 0.45782 0.37595 0.57538 0.0
C439 C 0.46834 0.37617 0.6413 0.0
C440 C 0.44382 0.33234 0.60433 0.0
C441 C 0.46615 0.35404 0.68741 0.0
C442 C 0.43225 0.28666 0.62918 0.0
C443 C 0.40608 0.28722 0.50812 0.0
N444 N 0.4542 0.333 0.66794 0.0
N445 N 0.41792 0.30836 0.52737 0.0
H446 H 0.21063 0.59996 0.69982 0.0
H447 H 0.10395 0.52309 0.95228 0.0
H448 H 0.22042 0.56938 0.91532 0.0
H449 H 0.09528 0.57343 0.76561 0.0
H450 H 0.14662 0.53678 0.93693 0.0
H451 H 0.16818 0.58663 0.71901 0.0
C452 C 0.20382 0.58999 0.75082 0.0
C453 C 0.219 0.58519 0.80558 0.0
C454 C 0.13533 0.5449 0.89968 0.0
C455 C 0.17044 0.57048 0.82863 0.0
C456 C 0.11099 0.53711 0.90834 0.0
C457 C 0.09601 0.54714 0.86012 0.0
C458 C 0.14473 0.56255 0.8418 0.0
C459 C 0.10612 0.56524 0.8042 0.0
C460 C 0.17958 0.58271 0.76208 0.0
C461 C 0.20924 0.57318 0.8716 0.0
N462 N 0.12984 0.57222 0.79628 0.0
N463 N 0.18552 0.56606 0.88124 0.0
H464 H 0.98104 0.8096 0.04068 0.0
H465 H 0.98495 0.93647 0.78772 0.0
H466 H 0.94368 0.81738 0.84675 0.0
H467 H 0.02648 0.92978 0.97394 0.0
H468 H 0.97073 0.89258 0.80772 0.0
H469 H 0.99869 0.8532 0.01702 0.0
C470 C 0.97631 0.82055 0.99363 0.0
C471 C 0.96033 0.81006 0.94666 0.0
C472 C 0.98304 0.90062 0.84413 0.0
C473 C 0.98096 0.85969 0.91811 0.0
C474 C 0.9912 0.92578 0.83276 0.0
C475 C 0.00693 0.93691 0.87935 0.0
C476 C 0.99046 0.88635 0.9029 0.0
C477 C 0.01438 0.92198 0.93667 0.0
C478 C 0.98663 0.84536 0.97969 0.0
C479 C 0.95577 0.8248 0.88467 0.0
N480 N 0.00596 0.89745 0.94709 0.0
N481 N 0.96588 0.84888 0.87249 0.0
H482 H 0.7075 0.99459 0.69898 0.0
H483 H 0.60498 0.04452 0.86978 0.0
H484 H 0.70777 0.0104 0.91224 0.0
H485 H 0.60067 0.01754 0.67026 0.0
H486 H 0.64616 0.04079 0.87561 0.0
H487 H 0.67209 0.01127 0.67826 0.0
C488 C 0.70018 0.00171 0.74143 0.0
C489 C 0.71017 0.00034 0.80825 0.0
C490 C 0.6363 0.0361 0.82998 0.0
C491 C 0.66956 0.01952 0.78481 0.0
C492 C 0.61283 0.03845 0.82622 0.0
C493 C 0.59923 0.03102 0.76986 0.0
C494 C 0.64624 0.02637 0.77684 0.0
C495 C 0.61037 0.02316 0.71519 0.0
C496 C 0.67991 0.01118 0.72958 0.0
C497 C 0.70006 0.01007 0.86098 0.0
N498 N 0.63311 0.02077 0.72048 0.0
N499 N 0.68017 0.01905 0.84836 0.0
H500 H 0.6414 0.7537 0.11585 0.0
H501 H 0.52964 0.64362 0.1832 0.0
H502 H 0.58359 0.7517 0.25909 0.0
H503 H 0.57884 0.65409 0.00688 0.0
H504 H 0.5513 0.6811 0.21952 0.0
H505 H 0.62079 0.71507 0.08261 0.0
C506 C 0.6245 0.74497 0.14095 0.0
C507 C 0.61451 0.75554 0.19192 0.0
C508 C 0.55734 0.6752 0.17285 0.0
C509 C 0.59076 0.71154 0.15381 0.0
C510 C 0.5449 0.65385 0.15178 0.0
C511 C 0.55231 0.64568 0.09155 0.0
C512 C 0.57745 0.6885 0.1337 0.0
C513 C 0.57258 0.65948 0.05406 0.0
C514 C 0.61275 0.72297 0.12192 0.0
C515 C 0.59244 0.74367 0.22206 0.0
N516 N 0.58442 0.6802 0.07572 0.0
N517 N 0.58133 0.72229 0.20265 0.0
H518 H 0.82769 0.48058 0.98656 0.0
H519 H 0.94479 0.4941 0.75825 0.0
H520 H 0.83187 0.49281 0.75879 0.0
H521 H 0.94143 0.47422 0.98489 0.0
H522 H 0.90213 0.48764 0.75793 0.0
H523 H 0.86762 0.47265 0.98836 0.0
C524 C 0.83701 0.48165 0.93697 0.0
C525 C 0.82684 0.48841 0.87244 0.0
C526 C 0.91056 0.48427 0.80782 0.0
C527 C 0.87218 0.47861 0.87397 0.0
C528 C 0.93496 0.48795 0.80796 0.0
C529 C 0.94659 0.48487 0.87174 0.0
C530 C 0.89761 0.47798 0.87218 0.0
C531 C 0.93305 0.47673 0.93459 0.0
C532 C 0.85969 0.47678 0.93801 0.0
C533 C 0.83915 0.48806 0.80979 0.0
N534 N 0.90923 0.47401 0.93343 0.0
N535 N 0.86128 0.48368 0.81213 0.0
H536 H 0.13565 0.18138 0.43138 0.0
H537 H 0.04237 0.08457 0.25786 0.0
H538 H 0.06219 0.16062 0.49447 0.0
H539 H 0.11703 0.09808 0.21348 0.0
H540 H 0.04923 0.11345 0.34188 0.0
H541 H 0.12918 0.15183 0.34902 0.0
C542 C 0.11817 0.1706 0.42802 0.0
C543 C 0.09942 0.17354 0.46985 0.0
C544 C 0.06413 0.11009 0.31389 0.0
C545 C 0.09189 0.13973 0.37546 0.0
C546 C 0.06021 0.09371 0.26554 0.0
C547 C 0.07915 0.08894 0.22839 0.0
C548 C 0.08717 0.12195 0.32505 0.0
C549 C 0.10193 0.10103 0.2414 0.0
C550 C 0.1145 0.15371 0.38101 0.0
C551 C 0.07716 0.15901 0.46329 0.0
N552 N 0.1053 0.11704 0.28843 0.0
N553 N 0.07401 0.14282 0.41687 0.0
H554 H 0.41182 0.02699 0.53301 0.0
H555 H 0.46693 0.10018 0.16007 0.0
H556 H 0.3948 0.0951 0.43665 0.0
H557 H 0.48074 0.03037 0.25389 0.0
H558 H 0.44303 0.10049 0.26498 0.0
H559 H 0.43954 0.02971 0.43524 0.0
C560 C 0.41391 0.04255 0.49128 0.0
C561 C 0.40079 0.06074 0.49277 0.0
C562 C 0.45137 0.08516 0.26272 0.0
C563 C 0.43258 0.06396 0.38026 0.0
C564 C 0.46513 0.08503 0.203 0.0
C565 C 0.47573 0.06513 0.1979 0.0
C566 C 0.44822 0.06527 0.31787 0.0
C567 C 0.47258 0.0459 0.25493 0.0
C568 C 0.42979 0.04411 0.43542 0.0
C569 C 0.40446 0.08059 0.43752 0.0
N570 N 0.45907 0.04641 0.31231 0.0
N571 N 0.41993 0.08162 0.38333 0.0
H572 H 0.40785 0.36423 0.28954 0.0
H573 H 0.4918 0.42131 0.94878 0.0
H574 H 0.44768 0.3223 0.18537 0.0
H575 H 0.45927 0.46378 0.07349 0.0
H576 H 0.4742 0.38437 0.03004 0.0
H577 H 0.42488 0.40042 0.20585 0.0
C578 C 0.42015 0.3626 0.24896 0.0
C579 C 0.42636 0.34017 0.24457 0.0
C580 C 0.47094 0.4018 0.03953 0.0
C581 C 0.44598 0.38167 0.14827 0.0
C582 C 0.48095 0.42289 0.99312 0.0
C583 C 0.47705 0.44571 0.00436 0.0
C584 C 0.45684 0.40353 0.09735 0.0
C585 C 0.46283 0.44662 0.06271 0.0
C586 C 0.42992 0.38332 0.2012 0.0
C587 C 0.44243 0.33922 0.19082 0.0
N588 N 0.45325 0.42587 0.10687 0.0
N589 N 0.45168 0.35968 0.1447 0.0
H590 H 0.17186 0.52851 0.55654 0.0
H591 H 0.13801 0.51726 0.15619 0.0
H592 H 0.21853 0.56033 0.37662 0.0
H593 H 0.09221 0.48242 0.33553 0.0
H594 H 0.16829 0.53174 0.23675 0.0
H595 H 0.14304 0.51012 0.47728 0.0
C596 C 0.1761 0.53157 0.50041 0.0
C597 C 0.19763 0.5461 0.4732 0.0
C598 C 0.15168 0.52081 0.25861 0.0
C599 C 0.16467 0.52509 0.3821 0.0
C600 C 0.13434 0.51261 0.2126 0.0
C601 C 0.11246 0.49875 0.23914 0.0
C602 C 0.14714 0.51526 0.33191 0.0
C603 C 0.10886 0.49292 0.31275 0.0
C604 C 0.15963 0.52103 0.45518 0.0
C605 C 0.20215 0.54935 0.40001 0.0
N606 N 0.12595 0.50136 0.35655 0.0
N607 N 0.18579 0.53903 0.35706 0.0
H608 H 0.97772 0.8422 0.28119 0.0
H609 H 0.93239 0.94557 0.45287 0.0
H610 H 0.91345 0.8664 0.22396 0.0
H611 H 0.0009 0.92824 0.48773 0.0
H612 H 0.92428 0.91532 0.37314 0.0
H613 H 0.98552 0.87208 0.36216 0.0
C614 C 0.96521 0.85376 0.28572 0.0
C615 C 0.9449 0.85179 0.24563 0.0
C616 C 0.94108 0.91814 0.39826 0.0
C617 C 0.95373 0.88606 0.33835 0.0
C618 C 0.94579 0.93551 0.44355 0.0
C619 C 0.96739 0.93954 0.47714 0.0
C620 C 0.95806 0.90457 0.38649 0.0
C621 C 0.98388 0.92557 0.46391 0.0
C622 C 0.96971 0.87086 0.3319 0.0
C623 C 0.92935 0.86729 0.25369 0.0
N624 N 0.97887 0.90874 0.41967 0.0
N625 N 0.93408 0.88374 0.29915 0.0
H626 H 0.65316 0.90783 0.18882 0.0
H627 H 0.61636 0.98203 0.47992 0.0
H628 H 0.67736 0.98517 0.18499 0.0
H629 H 0.58577 0.90641 0.47341 0.0
H630 H 0.64225 0.98206 0.37988 0.0
H631 H 0.63106 0.90579 0.29898 0.0
C632 C 0.65382 0.92437 0.2111 0.0
C633 C 0.66694 0.94673 0.17716 0.0
C634 C 0.63 0.96539 0.40059 0.0
C635 C 0.642 0.94451 0.30388 0.0
C636 C 0.61535 0.96528 0.45833 0.0
C637 C 0.59875 0.9442 0.48513 0.0
C638 C 0.6281 0.94429 0.36909 0.0
C639 C 0.59805 0.92318 0.45389 0.0
C640 C 0.64127 0.92319 0.27415 0.0
C641 C 0.66739 0.96755 0.20897 0.0
N642 N 0.61241 0.92379 0.39731 0.0
N643 N 0.65508 0.96593 0.2704 0.0
H644 H 0.59209 0.65917 0.40786 0.0
H645 H 0.52573 0.60207 0.78 0.0
H646 H 0.56894 0.70252 0.55019 0.0
H647 H 0.55203 0.55974 0.64049 0.0
H648 H 0.5408 0.63905 0.6961 0.0
H649 H 0.57669 0.62247 0.49185 0.0
C650 C 0.58375 0.66098 0.45677 0.0
C651 C 0.58186 0.68397 0.47206 0.0
C652 C 0.54329 0.62166 0.68394 0.0
C653 C 0.56416 0.64196 0.56865 0.0
C654 C 0.53469 0.60053 0.73184 0.0
C655 C 0.53763 0.57774 0.71732 0.0
C656 C 0.55485 0.61999 0.62103 0.0
C657 C 0.54937 0.57689 0.65403 0.0
C658 C 0.57496 0.64 0.50479 0.0
C659 C 0.57082 0.68517 0.53625 0.0
N660 N 0.55752 0.59768 0.60826 0.0
N661 N 0.5624 0.66446 0.58223 0.0
H662 H 0.85094 0.52245 0.22801 0.0
H663 H 0.9787 0.56857 0.37258 0.0
H664 H 0.91298 0.54947 0.09269 0.0
H665 H 0.91789 0.53472 0.50745 0.0
H666 H 0.95463 0.56352 0.2692 0.0
H667 H 0.87497 0.5284 0.33075 0.0
C668 C 0.86962 0.52966 0.21984 0.0
C669 C 0.87996 0.53546 0.15156 0.0
C670 C 0.94654 0.5572 0.3214 0.0
C671 C 0.90759 0.54234 0.26919 0.0
C672 C 0.96024 0.56022 0.38045 0.0
C673 C 0.95028 0.55207 0.44879 0.0
C674 C 0.92267 0.54603 0.33066 0.0
C675 C 0.92635 0.54103 0.45578 0.0
C676 C 0.88334 0.53302 0.27861 0.0
C677 C 0.90426 0.54472 0.14432 0.0
N678 N 0.91336 0.53838 0.39747 0.0
N679 N 0.91725 0.5479 0.20243 0.0
loop_
_geom_bond_atom_site_label_1
_geom_bond_atom_site_label_2
_geom_bond_distance
_geom_bond_site_symmetry_2
_ccdc_geom_bond_type
O0 Cd1 2.300 . S
O0 C7 1.275 . S
Cd1 O0 2.300 . S
Cd1 O9 2.381 . S
Cd1 O10 2.378 . S
O2 Cd3 2.385 1_556 S
O2 C7 1.255 . S
Cd3 O2 2.385 1_554 S
Cd3 O4 2.317 . S
O4 Cd3 2.317 . S
O4 C5 1.232 . S
C5 O4 1.232 . S
C5 O6 1.218 . S
O6 C5 1.218 . S
C7 O0 1.275 . S
C7 O2 1.255 . S
C8 O9 1.258 . S
C8 O10 1.256 . S
O9 Cd1 2.381 . S
O9 C8 1.258 . S
O10 Cd1 2.378 . S
O10 C8 1.256 . S
O11 Cd12 2.300 1_556 S
O11 C18 1.275 . S
Cd12 O11 2.300 1_554 S
Cd12 O20 2.381 1_554 S
Cd12 O21 2.378 . S
O13 Cd14 2.385 1_655 S
O13 C18 1.255 1_554 S
Cd14 O13 2.385 1_455 S
Cd14 O15 2.317 1_455 S
O15 Cd14 2.317 1_655 S
O15 C16 1.232 . S
C16 O15 1.232 . S
C16 O17 1.218 . S
O17 C16 1.218 . S
C18 O11 1.275 . S
C18 O13 1.255 1_556 S
C19 O20 1.258 . S
C19 O21 1.256 1_556 S
O20 Cd12 2.381 1_556 S
O20 C19 1.258 . S
O21 Cd12 2.378 . S
O21 C19 1.256 1_554 S
O22 Cd23 2.300 . S
O22 C29 1.275 . S
Cd23 O22 2.300 . S
Cd23 O31 2.381 . S
Cd23 O32 2.378 . S
O24 Cd25 2.385 1_566 S
O24 C29 1.255 . S
Cd25 O24 2.385 1_544 S
Cd25 O26 2.317 1_545 S
O26 Cd25 2.317 1_565 S
O26 C27 1.232 . S
C27 O26 1.232 . S
C27 O28 1.218 . S
O28 C27 1.218 . S
C29 O22 1.275 . S
C29 O24 1.255 . S
C30 O31 1.258 . S
C30 O32 1.256 . S
O31 Cd23 2.381 . S
O31 C30 1.258 . S
O32 Cd23 2.378 . S
O32 C30 1.256 . S
O33 Cd34 2.300 . S
O33 C40 1.275 . S
Cd34 O33 2.300 . S
Cd34 O42 2.381 . S
Cd34 O43 2.378 . S
O35 Cd36 2.385 . S
O35 C40 1.255 . S
Cd36 O35 2.385 . S
Cd36 O37 2.317 . S
O37 Cd36 2.317 . S
O37 C38 1.232 . S
C38 O37 1.232 . S
C38 O39 1.218 . S
O39 C38 1.218 . S
C40 O33 1.275 . S
C40 O35 1.255 . S
C41 O42 1.258 . S
C41 O43 1.256 . S
O42 Cd34 2.381 . S
O42 C41 1.258 . S
O43 Cd34 2.378 . S
O43 C41 1.256 . S
O44 Cd45 2.300 . S
O44 C51 1.275 . S
Cd45 O44 2.300 . S
Cd45 O53 2.381 . S
Cd45 O54 2.378 . S
O46 Cd47 2.385 . S
O46 C51 1.255 . S
Cd47 O46 2.385 . S
Cd47 O48 2.317 . S
O48 Cd47 2.317 . S
O48 C49 1.232 . S
C49 O48 1.232 . S
C49 O50 1.218 . S
O50 C49 1.218 . S
C51 O44 1.275 . S
C51 O46 1.255 . S
C52 O53 1.258 . S
C52 O54 1.256 . S
O53 Cd45 2.381 . S
O53 C52 1.258 . S
O54 Cd45 2.378 . S
O54 C52 1.256 . S
O55 Cd56 2.300 . S
O55 C62 1.275 . S
Cd56 O55 2.300 . S
Cd56 O64 2.381 . S
Cd56 O65 2.378 . S
O57 Cd58 2.385 . S
O57 C62 1.255 . S
Cd58 O57 2.385 . S
Cd58 O59 2.317 . S
O59 Cd58 2.317 . S
O59 C60 1.232 . S
C60 O59 1.232 . S
C60 O61 1.218 . S
O61 C60 1.218 . S
C62 O55 1.275 . S
C62 O57 1.255 . S
C63 O64 1.258 . S
C63 O65 1.256 . S
O64 Cd56 2.381 . S
O64 C63 1.258 . S
O65 Cd56 2.378 . S
O65 C63 1.256 . S
O66 Cd67 2.300 . S
O66 C73 1.275 . S
Cd67 O66 2.300 . S
Cd67 O75 2.381 . S
Cd67 O76 2.378 . S
O68 Cd69 2.385 . S
O68 C73 1.255 . S
Cd69 O68 2.385 . S
Cd69 O70 2.317 . S
O70 Cd69 2.317 . S
O70 C71 1.232 . S
C71 O70 1.232 . S
C71 O72 1.218 . S
O72 C71 1.218 . S
C73 O66 1.275 . S
C73 O68 1.255 . S
C74 O75 1.258 . S
C74 O76 1.256 . S
O75 Cd67 2.381 . S
O75 C74 1.258 . S
O76 Cd67 2.378 . S
O76 C74 1.256 . S
O77 Cd78 2.300 . S
O77 C84 1.275 . S
Cd78 O77 2.300 . S
Cd78 O86 2.381 . S
Cd78 O87 2.378 . S
O79 Cd80 2.385 . S
O79 C84 1.255 . S
Cd80 O79 2.385 . S
Cd80 O81 2.317 . S
O81 Cd80 2.317 . S
O81 C82 1.232 . S
C82 O81 1.232 . S
C82 O83 1.218 . S
O83 C82 1.218 . S
C84 O77 1.275 . S
C84 O79 1.255 . S
C85 O86 1.258 . S
C85 O87 1.256 . S
O86 Cd78 2.381 . S
O86 C85 1.258 . S
O87 Cd78 2.378 . S
O87 C85 1.256 . S
Nd88 C90 2.836 1_545 S
Nd88 O108 2.500 1_445 S
Nd88 O109 2.492 1_545 S
Nd88 O110 2.487 . S
Nd88 O111 2.682 . S
Nd88 O112 2.410 1_545 S
Nd88 O117 2.414 1_455 S
Nd88 O119 2.424 . S
Nd89 C99 2.836 1_556 S
Nd89 O111 2.414 . S
Nd89 O113 2.424 1_545 S
Nd89 O114 2.500 . S
Nd89 O115 2.492 1_556 S
Nd89 O116 2.487 1_455 S
Nd89 O117 2.682 1_455 S
Nd89 O118 2.410 . S
C90 Nd88 2.836 1_565 S
C90 C91 1.494 1_455 S
C90 O108 1.258 1_455 S
C90 O109 1.239 . S
C91 C90 1.494 1_655 S
C91 C92 1.392 . S
C91 C96 1.385 1_655 S
C92 C91 1.392 . S
C92 C93 1.392 . S
C92 H120 0.930 . S
C93 C92 1.392 . S
C93 C94 1.398 . S
C93 H121 0.929 . S
C94 C93 1.398 . S
C94 C95 1.352 1_655 S
C95 C94 1.352 1_455 S
C95 C96 1.384 . S
C95 H122 0.930 . S
C96 C91 1.385 1_455 S
C96 C95 1.384 . S
C96 H123 0.929 . S
C97 O110 1.241 . S
C97 O111 1.273 . S
C98 O112 1.251 . S
C98 O113 1.268 . S
C99 Nd89 2.836 1_554 S
C99 C100 1.498 . S
C99 O114 1.258 1_554 S
C99 O115 1.239 . S
C100 C99 1.498 . S
C100 C101 1.366 . S
C100 C105 1.407 . S
C101 C100 1.366 . S
C101 C102 1.392 . S
C101 H124 0.930 . S
C102 C101 1.392 . S
C102 C103 1.398 . S
C102 H125 0.929 . S
C103 C102 1.398 . S
C103 C104 1.352 . S
C104 C103 1.352 . S
C104 C105 1.384 . S
C104 H126 0.930 . S
C105 C100 1.407 . S
C105 C104 1.384 . S
C105 H127 0.929 . S
C106 O116 1.241 . S
C106 O117 1.273 . S
C107 O118 1.251 . S
C107 O119 1.268 . S
O108 Nd88 2.500 1_665 S
O108 C90 1.258 1_655 S
O109 Nd88 2.492 1_565 S
O109 C90 1.239 . S
O110 Nd88 2.487 . S
O110 C97 1.241 . S
O111 Nd88 2.682 . S
O111 Nd89 2.414 . S
O111 C97 1.273 . S
O112 Nd88 2.410 1_565 S
O112 C98 1.251 . S
O113 Nd89 2.424 1_565 S
O113 C98 1.268 . S
O114 Nd89 2.500 . S
O114 C99 1.258 1_556 S
O115 Nd89 2.492 1_554 S
O115 C99 1.239 . S
O116 Nd89 2.487 1_655 S
O116 C106 1.241 . S
O117 Nd88 2.414 1_655 S
O117 Nd89 2.682 1_655 S
O117 C106 1.273 . S
O118 Nd89 2.410 . S
O118 C107 1.251 . S
O119 Nd88 2.424 . S
O119 C107 1.268 . S
H120 C92 0.930 . S
H121 C93 0.929 . S
H122 C95 0.930 . S
H123 C96 0.929 . S
H124 C101 0.930 . S
H125 C102 0.929 . S
H126 C104 0.930 . S
H127 C105 0.929 . S
Nd128 C130 2.836 1_545 S
Nd128 O148 2.500 1_545 S
Nd128 O149 2.492 . S
Nd128 O150 2.487 . S
Nd128 O151 2.682 . S
Nd128 O152 2.410 . S
Nd128 O157 2.414 1_545 S
Nd128 O159 2.424 . S
Nd129 C139 2.836 1_556 S
Nd129 O151 2.414 . S
Nd129 O153 2.424 . S
Nd129 O154 2.500 . S
Nd129 O155 2.492 1_556 S
Nd129 O156 2.487 1_545 S
Nd129 O157 2.682 1_545 S
Nd129 O158 2.410 . S
C130 Nd128 2.836 1_565 S
C130 C131 1.498 . S
C130 O148 1.258 . S
C130 O149 1.239 1_565 S
C131 C130 1.498 . S
C131 C132 1.366 . S
C131 C136 1.407 . S
C132 C131 1.366 . S
C132 C133 1.392 . S
C132 H160 0.930 . S
C133 C132 1.392 . S
C133 C134 1.398 . S
C133 H161 0.929 . S
C134 C133 1.398 . S
C134 C135 1.352 . S
C135 C134 1.352 . S
C135 C136 1.384 . S
C135 H162 0.930 . S
C136 C131 1.407 . S
C136 C135 1.384 . S
C136 H163 0.929 1_565 S
C137 O150 1.241 . S
C137 O151 1.273 . S
C138 O152 1.251 . S
C138 O153 1.268 . S
C139 Nd129 2.836 1_554 S
C139 C140 1.498 . S
C139 O154 1.258 1_554 S
C139 O155 1.239 . S
C140 C139 1.498 . S
C140 C141 1.366 . S
C140 C145 1.407 . S
C141 C140 1.366 . S
C141 C142 1.392 . S
C141 H164 0.930 1_554 S
C142 C141 1.392 . S
C142 C143 1.398 . S
C142 H165 0.929 . S
C143 C142 1.398 . S
C143 C144 1.352 . S
C144 C143 1.352 . S
C144 C145 1.384 . S
C144 H166 0.930 . S
C145 C140 1.407 . S
C145 C144 1.384 . S
C145 H167 0.929 . S
C146 O156 1.241 . S
C146 O157 1.273 . S
C147 O158 1.251 . S
C147 O159 1.268 . S
O148 Nd128 2.500 1_565 S
O148 C130 1.258 . S
O149 Nd128 2.492 . S
O149 C130 1.239 1_545 S
O150 Nd128 2.487 . S
O150 C137 1.241 . S
O151 Nd128 2.682 . S
O151 Nd129 2.414 . S
O151 C137 1.273 . S
O152 Nd128 2.410 . S
O152 C138 1.251 . S
O153 Nd129 2.424 . S
O153 C138 1.268 . S
O154 Nd129 2.500 . S
O154 C139 1.258 1_556 S
O155 Nd129 2.492 1_554 S
O155 C139 1.239 . S
O156 Nd129 2.487 1_565 S
O156 C146 1.241 . S
O157 Nd128 2.414 1_565 S
O157 Nd129 2.682 1_565 S
O157 C146 1.273 . S
O158 Nd129 2.410 . S
O158 C147 1.251 . S
O159 Nd128 2.424 . S
O159 C147 1.268 . S
H160 C132 0.930 . S
H161 C133 0.929 . S
H162 C135 0.930 . S
H163 C136 0.929 1_545 S
H164 C141 0.930 1_556 S
H165 C142 0.929 . S
H166 C144 0.930 . S
H167 C145 0.929 . S
Nd168 C170 2.836 . S
Nd168 O188 2.500 . S
Nd168 O189 2.492 . S
Nd168 O190 2.487 . S
Nd168 O191 2.682 . S
Nd168 O192 2.410 . S
Nd168 O197 2.414 . S
Nd168 O199 2.424 . S
Nd169 C179 2.836 . S
Nd169 O191 2.414 . S
Nd169 O193 2.424 . S
Nd169 O194 2.500 . S
Nd169 O195 2.492 . S
Nd169 O196 2.487 . S
Nd169 O197 2.682 . S
Nd169 O198 2.410 . S
C170 Nd168 2.836 . S
C170 C171 1.498 . S
C170 O188 1.258 . S
C170 O189 1.239 . S
C171 C170 1.498 . S
C171 C172 1.366 . S
C171 C176 1.407 1_556 S
C172 C171 1.366 . S
C172 C173 1.392 . S
C172 H200 0.930 . S
C173 C172 1.392 . S
C173 C174 1.398 1_556 S
C173 H201 0.929 . S
C174 C173 1.398 1_554 S
C174 C175 1.352 . S
C175 C174 1.352 . S
C175 C176 1.384 . S
C175 H202 0.930 . S
C176 C171 1.407 1_554 S
C176 C175 1.384 . S
C176 H203 0.929 . S
C177 O190 1.241 . S
C177 O191 1.273 . S
C178 O192 1.251 . S
C178 O193 1.268 . S
C179 Nd169 2.836 . S
C179 C180 1.498 . S
C179 O194 1.258 . S
C179 O195 1.239 . S
C180 C179 1.498 . S
C180 C181 1.366 . S
C180 C185 1.407 . S
C181 C180 1.366 . S
C181 C182 1.392 . S
C181 H204 0.930 . S
C182 C181 1.392 . S
C182 C183 1.398 . S
C182 H205 0.929 . S
C183 C182 1.398 . S
C183 C184 1.352 . S
C184 C183 1.352 . S
C184 C185 1.384 . S
C184 H206 0.930 . S
C185 C180 1.407 . S
C185 C184 1.384 . S
C185 H207 0.929 . S
C186 O196 1.241 . S
C186 O197 1.273 . S
C187 O198 1.251 . S
C187 O199 1.268 . S
O188 Nd168 2.500 . S
O188 C170 1.258 . S
O189 Nd168 2.492 . S
O189 C170 1.239 . S
O190 Nd168 2.487 . S
O190 C177 1.241 . S
O191 Nd168 2.682 . S
O191 Nd169 2.414 . S
O191 C177 1.273 . S
O192 Nd168 2.410 . S
O192 C178 1.251 . S
O193 Nd169 2.424 . S
O193 C178 1.268 . S
O194 Nd169 2.500 . S
O194 C179 1.258 . S
O195 Nd169 2.492 . S
O195 C179 1.239 . S
O196 Nd169 2.487 . S
O196 C186 1.241 . S
O197 Nd168 2.414 . S
O197 Nd169 2.682 . S
O197 C186 1.273 . S
O198 Nd169 2.410 . S
O198 C187 1.251 . S
O199 Nd168 2.424 . S
O199 C187 1.268 . S
H200 C172 0.930 . S
H201 C173 0.929 . S
H202 C175 0.930 . S
H203 C176 0.929 . S
H204 C181 0.930 . S
H205 C182 0.929 . S
H206 C184 0.930 . S
H207 C185 0.929 . S
Nd208 C210 2.836 1_455 S
Nd208 O228 2.500 1_455 S
Nd208 O229 2.492 1_455 S
Nd208 O230 2.487 . S
Nd208 O231 2.682 . S
Nd208 O232 2.410 1_455 S
Nd208 O237 2.414 . S
Nd208 O239 2.424 . S
Nd209 C219 2.836 1_556 S
Nd209 O231 2.414 . S
Nd209 O233 2.424 1_455 S
Nd209 O234 2.497 1_556 S
Nd209 O235 2.492 1_556 S
Nd209 O236 2.487 . S
Nd209 O237 2.682 . S
Nd209 O238 2.410 . S
C210 Nd208 2.836 1_655 S
C210 C211 1.498 . S
C210 O228 1.258 . S
C210 O229 1.239 . S
C211 C210 1.498 . S
C211 C212 1.366 . S
C211 C216 1.407 . S
C212 C211 1.366 . S
C212 C213 1.392 . S
C212 H240 0.930 . S
C213 C212 1.392 . S
C213 C214 1.398 . S
C213 H241 0.929 . S
C214 C213 1.398 . S
C214 C215 1.352 . S
C215 C214 1.352 . S
C215 C216 1.384 . S
C215 H242 0.930 . S
C216 C211 1.407 . S
C216 C215 1.384 . S
C216 H243 0.929 . S
C217 O230 1.241 . S
C217 O231 1.273 . S
C218 O232 1.251 . S
C218 O233 1.268 . S
C219 Nd209 2.836 1_554 S
C219 C220 1.498 . S
C219 O234 1.265 . S
C219 O235 1.239 . S
C220 C219 1.498 . S
C220 C221 1.366 . S
C220 C225 1.407 . S
C221 C220 1.366 . S
C221 C222 1.392 . S
C221 H244 0.930 . S
C222 C221 1.392 . S
C222 C223 1.398 . S
C222 H245 0.929 . S
C223 C222 1.398 . S
C223 C224 1.352 . S
C224 C223 1.352 . S
C224 C225 1.384 . S
C224 H246 0.930 . S
C225 C220 1.407 . S
C225 C224 1.384 . S
C225 H247 0.929 . S
C226 O236 1.241 . S
C226 O237 1.273 . S
C227 O238 1.251 . S
C227 O239 1.268 . S
O228 Nd208 2.500 1_655 S
O228 C210 1.258 . S
O229 Nd208 2.492 1_655 S
O229 C210 1.239 . S
O230 Nd208 2.487 . S
O230 C217 1.241 . S
O231 Nd208 2.682 . S
O231 Nd209 2.414 . S
O231 C217 1.273 . S
O232 Nd208 2.410 1_655 S
O232 C218 1.251 . S
O233 Nd209 2.424 1_655 S
O233 C218 1.268 . S
O234 Nd209 2.497 1_554 S
O234 C219 1.265 . S
O235 Nd209 2.492 1_554 S
O235 C219 1.239 . S
O236 Nd209 2.487 . S
O236 C226 1.241 . S
O237 Nd208 2.414 . S
O237 Nd209 2.682 . S
O237 C226 1.273 . S
O238 Nd209 2.410 . S
O238 C227 1.251 . S
O239 Nd208 2.424 . S
O239 C227 1.268 . S
H240 C212 0.930 . S
H241 C213 0.929 . S
H242 C215 0.930 . S
H243 C216 0.929 . S
H244 C221 0.930 . S
H245 C222 0.929 . S
H246 C224 0.930 . S
H247 C225 0.929 . S
H248 C254 0.930 . S
H249 C258 0.930 . S
H250 C263 0.929 . S
H251 C261 0.929 . S
H252 C256 0.929 . S
H253 C262 0.929 . S
C254 H248 0.930 . S
C254 C255 1.367 . S
C254 C262 1.378 . S
C255 C254 1.367 . S
C255 C263 1.433 . S
C256 H252 0.929 . S
C256 C258 1.378 . S
C256 C260 1.350 . S
C257 C260 1.463 . S
C257 C262 1.350 . S
C257 N265 1.427 . S
C258 H249 0.930 . S
C258 C256 1.378 . S
C258 C259 1.367 . S
C259 C258 1.367 . S
C259 C261 1.433 . S
C260 C256 1.350 . S
C260 C257 1.463 . S
C260 N264 1.427 . S
C261 H251 0.929 . S
C261 C259 1.433 . S
C261 N264 1.384 . S
C262 H253 0.929 . S
C262 C254 1.378 . S
C262 C257 1.350 . S
C263 H250 0.929 . S
C263 C255 1.433 . S
C263 N265 1.384 . S
N264 C260 1.427 . S
N264 C261 1.384 . S
N265 C257 1.427 . S
N265 C263 1.384 . S
H266 C272 0.930 . S
H267 C276 0.930 . S
H268 C281 0.929 . S
H269 C279 0.929 . S
H270 C274 0.929 . S
H271 C280 0.929 . S
C272 H266 0.930 . S
C272 C273 1.367 . S
C272 C280 1.378 . S
C273 C272 1.367 . S
C273 C281 1.433 . S
C274 H270 0.929 . S
C274 C276 1.378 . S
C274 C278 1.350 . S
C275 C278 1.463 . S
C275 C280 1.350 . S
C275 N283 1.427 . S
C276 H267 0.930 . S
C276 C274 1.378 . S
C276 C277 1.367 . S
C277 C276 1.367 . S
C277 C279 1.433 . S
C278 C274 1.350 . S
C278 C275 1.463 . S
C278 N282 1.427 . S
C279 H269 0.929 . S
C279 C277 1.433 . S
C279 N282 1.384 . S
C280 H271 0.929 . S
C280 C272 1.378 . S
C280 C275 1.350 . S
C281 H268 0.929 . S
C281 C273 1.433 . S
C281 N283 1.384 . S
N282 C278 1.427 . S
N282 C279 1.384 . S
N283 C275 1.427 . S
N283 C281 1.384 . S
H284 C290 0.930 . S
H285 C294 0.930 . S
H286 C299 0.929 . S
H287 C297 0.929 . S
H288 C292 0.929 . S
H289 C298 0.929 . S
C290 H284 0.930 . S
C290 C291 1.367 . S
C290 C298 1.378 . S
C291 C290 1.367 . S
C291 C299 1.433 . S
C292 H288 0.929 . S
C292 C294 1.378 . S
C292 C296 1.350 . S
C293 C296 1.463 . S
C293 C298 1.350 . S
C293 N301 1.427 . S
C294 H285 0.930 . S
C294 C292 1.378 . S
C294 C295 1.367 . S
C295 C294 1.367 . S
C295 C297 1.433 . S
C296 C292 1.350 . S
C296 C293 1.463 . S
C296 N300 1.427 . S
C297 H287 0.929 . S
C297 C295 1.433 . S
C297 N300 1.384 . S
C298 H289 0.929 . S
C298 C290 1.378 . S
C298 C293 1.350 . S
C299 H286 0.929 . S
C299 C291 1.433 . S
C299 N301 1.384 . S
N300 C296 1.427 . S
N300 C297 1.384 . S
N301 C293 1.427 . S
N301 C299 1.384 . S
H302 C308 0.930 . S
H303 C312 0.930 . S
H304 C317 0.929 . S
H305 C315 0.929 . S
H306 C310 0.929 . S
H307 C316 0.929 . S
C308 H302 0.930 . S
C308 C309 1.367 . S
C308 C316 1.378 . S
C309 C308 1.367 . S
C309 C317 1.433 . S
C310 H306 0.929 . S
C310 C312 1.378 . S
C310 C314 1.350 . S
C311 C314 1.463 . S
C311 C316 1.350 . S
C311 N319 1.427 . S
C312 H303 0.930 . S
C312 C310 1.378 . S
C312 C313 1.367 . S
C313 C312 1.367 . S
C313 C315 1.433 . S
C314 C310 1.350 . S
C314 C311 1.463 . S
C314 N318 1.427 . S
C315 H305 0.929 . S
C315 C313 1.433 . S
C315 N318 1.384 . S
C316 H307 0.929 . S
C316 C308 1.378 . S
C316 C311 1.350 . S
C317 H304 0.929 . S
C317 C309 1.433 . S
C317 N319 1.384 . S
N318 C314 1.427 . S
N318 C315 1.384 . S
N319 C311 1.427 . S
N319 C317 1.384 . S
H320 C326 0.930 . S
H321 C330 0.930 . S
H322 C335 0.929 1_554 S
H323 C333 0.929 . S
H324 C328 0.929 . S
H325 C334 0.929 . S
C326 H320 0.930 . S
C326 C327 1.367 . S
C326 C334 1.378 . S
C327 C326 1.367 . S
C327 C335 1.433 . S
C328 H324 0.929 . S
C328 C330 1.378 . S
C328 C332 1.350 . S
C329 C332 1.463 . S
C329 C334 1.350 . S
C329 N337 1.427 . S
C330 H321 0.930 . S
C330 C328 1.378 . S
C330 C331 1.367 1_565 S
C331 C330 1.367 1_545 S
C331 C333 1.433 . S
C332 C328 1.350 . S
C332 C329 1.463 . S
C332 N336 1.427 1_565 S
C333 H323 0.929 . S
C333 C331 1.433 . S
C333 N336 1.384 . S
C334 H325 0.929 . S
C334 C326 1.378 . S
C334 C329 1.350 . S
C335 H322 0.929 1_556 S
C335 C327 1.433 . S
C335 N337 1.384 . S
N336 C332 1.427 1_545 S
N336 C333 1.384 . S
N337 C329 1.427 . S
N337 C335 1.384 . S
H338 C344 0.930 . S
H339 C348 0.930 . S
H340 C353 0.929 . S
H341 C351 0.929 . S
H342 C346 0.929 . S
H343 C352 0.929 . S
C344 H338 0.930 . S
C344 C345 1.367 . S
C344 C352 1.378 . S
C345 C344 1.367 . S
C345 C353 1.433 . S
C346 H342 0.929 . S
C346 C348 1.378 . S
C346 C350 1.350 . S
C347 C350 1.463 . S
C347 C352 1.350 . S
C347 N355 1.427 . S
C348 H339 0.930 . S
C348 C346 1.378 . S
C348 C349 1.367 1_554 S
C349 C348 1.367 1_556 S
C349 C351 1.433 . S
C350 C346 1.350 . S
C350 C347 1.463 . S
C350 N354 1.427 . S
C351 H341 0.929 . S
C351 C349 1.433 . S
C351 N354 1.384 1_556 S
C352 H343 0.929 . S
C352 C344 1.378 . S
C352 C347 1.350 . S
C353 H340 0.929 . S
C353 C345 1.433 . S
C353 N355 1.384 . S
N354 C350 1.427 . S
N354 C351 1.384 1_554 S
N355 C347 1.427 . S
N355 C353 1.384 . S
H356 C362 0.930 . S
H357 C366 0.930 . S
H358 C371 0.929 1_554 S
H359 C369 0.929 . S
H360 C364 0.929 . S
H361 C370 0.929 . S
C362 H356 0.930 . S
C362 C363 1.367 . S
C362 C370 1.378 . S
C363 C362 1.367 . S
C363 C371 1.433 . S
C364 H360 0.929 . S
C364 C366 1.378 . S
C364 C368 1.350 . S
C365 C368 1.463 . S
C365 C370 1.350 . S
C365 N373 1.427 . S
C366 H357 0.930 . S
C366 C364 1.378 . S
C366 C367 1.367 . S
C367 C366 1.367 . S
C367 C369 1.433 . S
C368 C364 1.350 . S
C368 C365 1.463 . S
C368 N372 1.427 . S
C369 H359 0.929 . S
C369 C367 1.433 . S
C369 N372 1.384 . S
C370 H361 0.929 . S
C370 C362 1.378 . S
C370 C365 1.350 . S
C371 H358 0.929 1_556 S
C371 C363 1.433 . S
C371 N373 1.384 . S
N372 C368 1.427 . S
N372 C369 1.384 . S
N373 C365 1.427 . S
N373 C371 1.384 . S
H374 C380 0.930 . S
H375 C384 0.930 . S
H376 C389 0.929 . S
H377 C387 0.929 . S
H378 C382 0.929 1_554 S
H379 C388 0.929 . S
C380 H374 0.930 . S
C380 C381 1.367 . S
C380 C388 1.378 . S
C381 C380 1.367 . S
C381 C389 1.433 1_556 S
C382 H378 0.929 1_556 S
C382 C384 1.378 . S
C382 C386 1.350 . S
C383 C386 1.463 . S
C383 C388 1.350 . S
C383 N391 1.432 . S
C384 H375 0.930 . S
C384 C382 1.378 . S
C384 C385 1.367 1_655 S
C385 C384 1.367 1_455 S
C385 C387 1.433 . S
C386 C382 1.350 . S
C386 C383 1.463 . S
C386 N390 1.442 . S
C387 H377 0.929 . S
C387 C385 1.433 . S
C387 N390 1.366 1_455 S
C388 H379 0.929 . S
C388 C380 1.378 . S
C388 C383 1.350 . S
C389 H376 0.929 . S
C389 C381 1.433 1_554 S
C389 N391 1.382 1_554 S
N390 C386 1.442 . S
N390 C387 1.366 1_655 S
N391 C383 1.432 . S
N391 C389 1.382 1_556 S
H392 C398 0.930 . S
H393 C402 0.930 . S
H394 C407 0.929 . S
H395 C405 0.929 . S
H396 C400 0.929 . S
H397 C406 0.929 . S
C398 H392 0.930 . S
C398 C399 1.367 . S
C398 C406 1.378 . S
C399 C398 1.367 . S
C399 C407 1.433 . S
C400 H396 0.929 . S
C400 C402 1.378 . S
C400 C404 1.350 . S
C401 C404 1.463 . S
C401 C406 1.350 . S
C401 N409 1.427 . S
C402 H393 0.930 . S
C402 C400 1.378 . S
C402 C403 1.367 . S
C403 C402 1.367 . S
C403 C405 1.433 . S
C404 C400 1.350 . S
C404 C401 1.463 . S
C404 N408 1.427 . S
C405 H395 0.929 . S
C405 C403 1.433 . S
C405 N408 1.384 . S
C406 H397 0.929 . S
C406 C398 1.378 . S
C406 C401 1.350 . S
C407 H394 0.929 . S
C407 C399 1.433 . S
C407 N409 1.384 . S
N408 C404 1.427 . S
N408 C405 1.384 . S
N409 C401 1.427 . S
N409 C407 1.384 . S
H410 C416 0.930 . S
H411 C420 0.902 1_565 S
H412 C425 0.929 . S
H413 C423 0.929 . S
H414 C418 0.929 1_565 S
H415 C424 0.929 . S
C416 H410 0.930 . S
C416 C417 1.367 . S
C416 C424 1.378 . S
C417 C416 1.367 . S
C417 C425 1.433 . S
C418 H414 0.929 1_545 S
C418 C420 1.393 . S
C418 C422 1.350 . S
C419 C422 1.463 . S
C419 C424 1.350 . S
C419 N427 1.427 . S
C420 H411 0.902 1_545 S
C420 C418 1.393 . S
C420 C421 1.381 . S
C421 C420 1.381 . S
C421 C423 1.433 . S
C422 C418 1.350 . S
C422 C419 1.463 . S
C422 N426 1.427 . S
C423 H413 0.929 . S
C423 C421 1.433 . S
C423 N426 1.384 . S
C424 H415 0.929 . S
C424 C416 1.378 . S
C424 C419 1.350 . S
C425 H412 0.929 . S
C425 C417 1.433 . S
C425 N427 1.384 . S
N426 C422 1.427 . S
N426 C423 1.384 . S
N427 C419 1.427 . S
N427 C425 1.384 . S
H428 C434 0.930 . S
H429 C438 0.930 . S
H430 C443 0.929 . S
H431 C441 0.929 . S
H432 C436 0.929 . S
H433 C442 0.929 . S
C434 H428 0.930 . S
C434 C435 1.367 . S
C434 C442 1.378 . S
C435 C434 1.367 . S
C435 C443 1.433 . S
C436 H432 0.929 . S
C436 C438 1.378 . S
C436 C440 1.350 . S
C437 C440 1.463 . S
C437 C442 1.350 . S
C437 N445 1.427 . S
C438 H429 0.930 . S
C438 C436 1.378 . S
C438 C439 1.367 . S
C439 C438 1.367 . S
C439 C441 1.433 . S
C440 C436 1.350 . S
C440 C437 1.463 . S
C440 N444 1.427 . S
C441 H431 0.929 . S
C441 C439 1.433 . S
C441 N444 1.384 . S
C442 H433 0.929 . S
C442 C434 1.378 . S
C442 C437 1.350 . S
C443 H430 0.929 . S
C443 C435 1.433 . S
C443 N445 1.384 . S
N444 C440 1.427 . S
N444 C441 1.384 . S
N445 C437 1.427 . S
N445 C443 1.384 . S
H446 C452 0.930 . S
H447 C456 0.930 . S
H448 C461 0.929 . S
H449 C459 0.929 . S
H450 C454 0.929 . S
H451 C460 0.929 . S
C452 H446 0.930 . S
C452 C453 1.367 . S
C452 C460 1.378 . S
C453 C452 1.367 . S
C453 C461 1.433 . S
C454 H450 0.929 . S
C454 C456 1.378 . S
C454 C458 1.350 . S
C455 C458 1.463 . S
C455 C460 1.350 . S
C455 N463 1.427 . S
C456 H447 0.930 . S
C456 C454 1.378 . S
C456 C457 1.367 . S
C457 C456 1.367 . S
C457 C459 1.433 . S
C458 C454 1.350 . S
C458 C455 1.463 . S
C458 N462 1.427 . S
C459 H449 0.929 . S
C459 C457 1.433 . S
C459 N462 1.384 . S
C460 H451 0.929 . S
C460 C452 1.378 . S
C460 C455 1.350 . S
C461 H448 0.929 . S
C461 C453 1.433 . S
C461 N463 1.384 . S
N462 C458 1.427 . S
N462 C459 1.384 . S
N463 C455 1.427 . S
N463 C461 1.384 . S
H464 C470 0.930 . S
H465 C474 0.930 . S
H466 C479 0.929 . S
H467 C477 0.929 . S
H468 C472 0.929 . S
H469 C478 0.929 1_455 S
C470 H464 0.930 . S
C470 C471 1.367 . S
C470 C478 1.378 . S
C471 C470 1.367 . S
C471 C479 1.433 . S
C472 H468 0.929 . S
C472 C474 1.378 . S
C472 C476 1.350 . S
C473 C476 1.463 . S
C473 C478 1.350 . S
C473 N481 1.427 . S
C474 H465 0.930 . S
C474 C472 1.378 . S
C474 C475 1.367 1_655 S
C475 C474 1.367 1_455 S
C475 C477 1.433 . S
C476 C472 1.350 . S
C476 C473 1.463 . S
C476 N480 1.427 1_655 S
C477 H467 0.929 . S
C477 C475 1.433 . S
C477 N480 1.384 . S
C478 H469 0.929 1_655 S
C478 C470 1.378 . S
C478 C473 1.350 . S
C479 H466 0.929 . S
C479 C471 1.433 . S
C479 N481 1.384 . S
N480 C476 1.427 1_455 S
N480 C477 1.384 . S
N481 C473 1.427 . S
N481 C479 1.384 . S
H482 C488 0.930 . S
H483 C492 0.930 . S
H484 C497 0.929 1_554 S
H485 C495 0.929 . S
H486 C490 0.929 . S
H487 C496 0.940 . S
C488 H482 0.930 . S
C488 C489 1.367 . S
C488 C496 1.378 . S
C489 C488 1.367 . S
C489 C497 1.433 . S
C490 H486 0.929 . S
C490 C492 1.378 1_565 S
C490 C494 1.348 . S
C491 C494 1.468 . S
C491 C496 1.350 . S
C491 N499 1.427 . S
C492 H483 0.930 . S
C492 C490 1.378 1_545 S
C492 C493 1.367 . S
C493 C492 1.367 . S
C493 C495 1.433 . S
C494 C490 1.348 . S
C494 C491 1.468 . S
C494 N498 1.424 1_565 S
C495 H485 0.929 . S
C495 C493 1.433 . S
C495 N498 1.384 . S
C496 H487 0.940 . S
C496 C488 1.378 . S
C496 C491 1.350 . S
C497 H484 0.929 1_556 S
C497 C489 1.433 . S
C497 N499 1.384 . S
N498 C494 1.424 1_545 S
N498 C495 1.384 . S
N499 C491 1.427 . S
N499 C497 1.384 . S
H500 C506 0.930 . S
H501 C510 0.930 . S
H502 C515 0.929 . S
H503 C513 0.929 . S
H504 C508 0.929 . S
H505 C514 0.929 . S
C506 H500 0.930 . S
C506 C507 1.367 . S
C506 C514 1.378 . S
C507 C506 1.367 . S
C507 C515 1.433 . S
C508 H504 0.929 . S
C508 C510 1.378 . S
C508 C512 1.350 . S
C509 C512 1.463 . S
C509 C514 1.350 . S
C509 N517 1.427 . S
C510 H501 0.930 . S
C510 C508 1.378 . S
C510 C511 1.367 . S
C511 C510 1.367 . S
C511 C513 1.433 . S
C512 C508 1.350 . S
C512 C509 1.463 . S
C512 N516 1.427 . S
C513 H503 0.929 . S
C513 C511 1.433 . S
C513 N516 1.384 . S
C514 H505 0.929 . S
C514 C506 1.378 . S
C514 C509 1.350 . S
C515 H502 0.929 . S
C515 C507 1.433 . S
C515 N517 1.384 . S
N516 C512 1.427 . S
N516 C513 1.384 . S
N517 C509 1.427 . S
N517 C515 1.384 . S
H518 C524 0.930 . S
H519 C528 0.930 . S
H520 C533 0.929 . S
H521 C531 0.929 . S
H522 C526 0.929 . S
H523 C532 0.929 . S
C524 H518 0.930 . S
C524 C525 1.367 . S
C524 C532 1.378 . S
C525 C524 1.367 . S
C525 C533 1.433 . S
C526 H522 0.929 . S
C526 C528 1.378 . S
C526 C530 1.350 . S
C527 C530 1.463 . S
C527 C532 1.350 . S
C527 N535 1.427 . S
C528 H519 0.930 . S
C528 C526 1.378 . S
C528 C529 1.367 . S
C529 C528 1.367 . S
C529 C531 1.433 . S
C530 C526 1.350 . S
C530 C527 1.463 . S
C530 N534 1.427 . S
C531 H521 0.929 . S
C531 C529 1.433 . S
C531 N534 1.384 . S
C532 H523 0.929 . S
C532 C524 1.378 . S
C532 C527 1.350 . S
C533 H520 0.929 . S
C533 C525 1.433 . S
C533 N535 1.384 . S
N534 C530 1.427 . S
N534 C531 1.384 . S
N535 C527 1.427 . S
N535 C533 1.384 . S
H536 C542 0.930 . S
H537 C546 0.930 . S
H538 C551 0.929 . S
H539 C549 0.929 . S
H540 C544 0.929 . S
H541 C550 0.929 . S
C542 H536 0.930 . S
C542 C543 1.367 . S
C542 C550 1.378 . S
C543 C542 1.367 . S
C543 C551 1.433 . S
C544 H540 0.929 . S
C544 C546 1.378 . S
C544 C548 1.350 . S
C545 C548 1.463 . S
C545 C550 1.350 . S
C545 N553 1.427 . S
C546 H537 0.930 . S
C546 C544 1.378 . S
C546 C547 1.367 . S
C547 C546 1.367 . S
C547 C549 1.433 . S
C548 C544 1.350 . S
C548 C545 1.463 . S
C548 N552 1.427 . S
C549 H539 0.929 . S
C549 C547 1.433 . S
C549 N552 1.384 . S
C550 H541 0.929 . S
C550 C542 1.378 . S
C550 C545 1.350 . S
C551 H538 0.929 . S
C551 C543 1.433 . S
C551 N553 1.384 . S
N552 C548 1.427 . S
N552 C549 1.384 . S
N553 C545 1.427 . S
N553 C551 1.384 . S
H554 C560 0.930 . S
H555 C564 0.930 . S
H556 C569 0.929 . S
H557 C567 0.929 . S
H558 C562 0.929 . S
H559 C568 0.929 . S
C560 H554 0.930 . S
C560 C561 1.367 . S
C560 C568 1.378 . S
C561 C560 1.367 . S
C561 C569 1.433 . S
C562 H558 0.929 . S
C562 C564 1.378 . S
C562 C566 1.350 . S
C563 C566 1.463 . S
C563 C568 1.350 . S
C563 N571 1.427 . S
C564 H555 0.930 . S
C564 C562 1.378 . S
C564 C565 1.367 . S
C565 C564 1.367 . S
C565 C567 1.433 . S
C566 C562 1.350 . S
C566 C563 1.463 . S
C566 N570 1.427 . S
C567 H557 0.929 . S
C567 C565 1.433 . S
C567 N570 1.384 . S
C568 H559 0.929 . S
C568 C560 1.378 . S
C568 C563 1.350 . S
C569 H556 0.929 . S
C569 C561 1.433 . S
C569 N571 1.384 . S
N570 C566 1.427 . S
N570 C567 1.384 . S
N571 C563 1.427 . S
N571 C569 1.384 . S
H572 C578 0.930 . S
H573 C582 0.930 . S
H574 C587 0.929 . S
H575 C585 0.929 . S
H576 C580 0.929 . S
H577 C586 0.929 . S
C578 H572 0.930 . S
C578 C579 1.367 . S
C578 C586 1.378 . S
C579 C578 1.367 . S
C579 C587 1.433 . S
C580 H576 0.929 . S
C580 C582 1.378 . S
C580 C584 1.350 1_556 S
C581 C584 1.463 . S
C581 C586 1.350 . S
C581 N589 1.427 . S
C582 H573 0.930 . S
C582 C580 1.378 . S
C582 C583 1.367 . S
C583 C582 1.367 . S
C583 C585 1.433 1_556 S
C584 C580 1.350 1_554 S
C584 C581 1.463 . S
C584 N588 1.427 . S
C585 H575 0.929 . S
C585 C583 1.433 1_554 S
C585 N588 1.384 . S
C586 H577 0.929 . S
C586 C578 1.378 . S
C586 C581 1.350 . S
C587 H574 0.929 . S
C587 C579 1.433 . S
C587 N589 1.384 . S
N588 C584 1.427 . S
N588 C585 1.384 . S
N589 C581 1.427 . S
N589 C587 1.384 . S
H590 C596 0.930 . S
H591 C600 0.930 . S
H592 C605 0.929 . S
H593 C603 0.929 . S
H594 C598 0.929 . S
H595 C604 0.929 . S
C596 H590 0.930 . S
C596 C597 1.367 . S
C596 C604 1.378 . S
C597 C596 1.367 . S
C597 C605 1.433 . S
C598 H594 0.929 . S
C598 C600 1.378 . S
C598 C602 1.350 . S
C599 C602 1.463 . S
C599 C604 1.350 . S
C599 N607 1.427 . S
C600 H591 0.930 . S
C600 C598 1.378 . S
C600 C601 1.367 . S
C601 C600 1.367 . S
C601 C603 1.433 . S
C602 C598 1.350 . S
C602 C599 1.463 . S
C602 N606 1.427 . S
C603 H593 0.929 . S
C603 C601 1.433 . S
C603 N606 1.384 . S
C604 H595 0.929 . S
C604 C596 1.378 . S
C604 C599 1.350 . S
C605 H592 0.929 . S
C605 C597 1.433 . S
C605 N607 1.384 . S
N606 C602 1.427 . S
N606 C603 1.384 . S
N607 C599 1.427 . S
N607 C605 1.384 . S
H608 C614 0.930 . S
H609 C618 0.930 . S
H610 C623 0.929 . S
H611 C621 0.929 . S
H612 C616 0.929 . S
H613 C622 0.929 . S
C614 H608 0.930 . S
C614 C615 1.367 . S
C614 C622 1.378 . S
C615 C614 1.367 . S
C615 C623 1.433 . S
C616 H612 0.929 . S
C616 C618 1.378 . S
C616 C620 1.350 . S
C617 C620 1.463 . S
C617 C622 1.350 . S
C617 N625 1.427 . S
C618 H609 0.930 . S
C618 C616 1.378 . S
C618 C619 1.367 . S
C619 C618 1.367 . S
C619 C621 1.433 . S
C620 C616 1.350 . S
C620 C617 1.463 . S
C620 N624 1.427 . S
C621 H611 0.929 . S
C621 C619 1.433 . S
C621 N624 1.384 . S
C622 H613 0.929 . S
C622 C614 1.378 . S
C622 C617 1.350 . S
C623 H610 0.929 . S
C623 C615 1.433 . S
C623 N625 1.384 . S
N624 C620 1.427 . S
N624 C621 1.384 . S
N625 C617 1.427 . S
N625 C623 1.384 . S
H626 C632 0.930 . S
H627 C636 0.930 . S
H628 C641 0.929 . S
H629 C639 0.929 . S
H630 C634 0.929 . S
H631 C640 0.929 . S
C632 H626 0.930 . S
C632 C633 1.367 . S
C632 C640 1.378 . S
C633 C632 1.367 . S
C633 C641 1.433 . S
C634 H630 0.929 . S
C634 C636 1.378 . S
C634 C638 1.350 . S
C635 C638 1.463 . S
C635 C640 1.350 . S
C635 N643 1.427 . S
C636 H627 0.930 . S
C636 C634 1.378 . S
C636 C637 1.367 . S
C637 C636 1.367 . S
C637 C639 1.433 . S
C638 C634 1.350 . S
C638 C635 1.463 . S
C638 N642 1.427 . S
C639 H629 0.929 . S
C639 C637 1.433 . S
C639 N642 1.384 . S
C640 H631 0.929 . S
C640 C632 1.378 . S
C640 C635 1.350 . S
C641 H628 0.929 . S
C641 C633 1.433 . S
C641 N643 1.384 . S
N642 C638 1.427 . S
N642 C639 1.384 . S
N643 C635 1.427 . S
N643 C641 1.384 . S
H644 C650 0.930 . S
H645 C654 0.930 . S
H646 C659 0.929 . S
H647 C657 0.929 . S
H648 C652 0.929 . S
H649 C658 0.929 . S
C650 H644 0.930 . S
C650 C651 1.367 . S
C650 C658 1.378 . S
C651 C650 1.367 . S
C651 C659 1.433 . S
C652 H648 0.929 . S
C652 C654 1.378 . S
C652 C656 1.350 . S
C653 C656 1.463 . S
C653 C658 1.350 . S
C653 N661 1.427 . S
C654 H645 0.930 . S
C654 C652 1.378 . S
C654 C655 1.367 . S
C655 C654 1.367 . S
C655 C657 1.433 . S
C656 C652 1.350 . S
C656 C653 1.463 . S
C656 N660 1.427 . S
C657 H647 0.929 . S
C657 C655 1.433 . S
C657 N660 1.384 . S
C658 H649 0.929 . S
C658 C650 1.378 . S
C658 C653 1.350 . S
C659 H646 0.929 . S
C659 C651 1.433 . S
C659 N661 1.384 . S
N660 C656 1.427 . S
N660 C657 1.384 . S
N661 C653 1.427 . S
N661 C659 1.384 . S
H662 C668 0.930 . S
H663 C672 0.930 . S
H664 C677 0.929 . S
H665 C675 0.929 . S
H666 C670 0.929 . S
H667 C676 0.929 . S
C668 H662 0.930 . S
C668 C669 1.367 . S
C668 C676 1.378 . S
C669 C668 1.367 . S
C669 C677 1.433 . S
C670 H666 0.929 . S
C670 C672 1.378 . S
C670 C674 1.350 . S
C671 C674 1.463 . S
C671 C676 1.350 . S
C671 N679 1.427 . S
C672 H663 0.930 . S
C672 C670 1.378 . S
C672 C673 1.367 . S
C673 C672 1.367 . S
C673 C675 1.433 . S
C674 C670 1.350 . S
C674 C671 1.463 . S
C674 N678 1.427 . S
C675 H665 0.929 . S
C675 C673 1.433 . S
C675 N678 1.384 . S
C676 H667 0.929 . S
C676 C668 1.378 . S
C676 C671 1.350 . S
C677 H664 0.929 . S
C677 C669 1.433 . S
C677 N679 1.384 . S
N678 C674 1.427 . S
N678 C675 1.384 . S
N679 C671 1.427 . S
N679 C677 1.384 . S
C255 C74 1.538 . S
C259 C97 1.492 . S
C277 C137 1.288 . S
C273 C85 1.369 . S
C295 C186 1.351 . S
C291 C52 1.348 . S
C313 C217 1.787 . S
C309 C63 1.876 . S
C331 C106 1.492 . S
C327 C30 1.493 . S
C345 C41 1.326 . S
C349 C146 1.285 . S
C363 C8 1.377 . S
C367 C177 1.338 . S
C381 C19 1.804 . S
C385 C226 1.788 . S
C403 C107 1.150 . S
C399 C62 1.142 . S
C421 C147 1.368 . S
C417 C73 1.360 . S
C439 C183 0.880 . S
C435 C84 0.885 . S
C453 C51 1.233 . S
C457 C227 1.280 . S
C471 C18 1.055 . S
C475 C98 1.149 . S
C493 C138 1.364 . S
C489 C29 1.282 . S
C511 C174 0.884 . S
C507 C40 0.877 . S
C525 C7 1.252 . S
C529 C218 1.280 . S
C543 C60 1.506 . S
C547 C103 1.693 . S
C561 C71 1.268 . S
C565 C143 1.465 . S
C583 C187 2.001 . S
C579 C82 1.661 . S
C601 C223 1.406 . S
C597 C49 1.129 . S
C615 C16 1.363 . S
C619 C94 1.694 . S
C637 C134 1.457 . S
C633 C27 1.293 . S
C655 C178 2.003 . S
C651 C38 1.537 . S
C669 C5 1.293 . S
C673 C214 1.415 . S
