# Generated by pormake.
# Topology ocu, (6,8)-cn, num edge types: 1
# Building blocks:
#     Node 0, Type 0, BuildingBlock: JUFBIX_clean_sbu_0, # of connection points: 6
#     Node 1, Type 0, BuildingBlock: JUFBIX_clean_sbu_0, # of connection points: 6
#     Node 2, Type 0, BuildingBlock: JUFBIX_clean_sbu_0, # of connection points: 6
#     Node 3, Type 0, BuildingBlock: JUFBIX_clean_sbu_0, # of connection points: 6
#     Node 4, Type 0, BuildingBlock: JUFBIX_clean_sbu_0, # of connection points: 6
#     Node 5, Type 0, BuildingBlock: JUFBIX_clean_sbu_0, # of connection points: 6
#     Node 6, Type 0, BuildingBlock: JUFBIX_clean_sbu_0, # of connection points: 6
#     Node 7, Type 0, BuildingBlock: JUFBIX_clean_sbu_0, # of connection points: 6
#     Node 8, Type 1, BuildingBlock: TAGTUT_clean_sbu_1, # of connection points: 8
#     Node 9, Type 1, BuildingBlock: TAGTUT_clean_sbu_1, # of connection points: 8
#     Node 10, Type 1, BuildingBlock: TAGTUT_clean_sbu_1, # of connection points: 8
#     Node 11, Type 1, BuildingBlock: TAGTUT_clean_sbu_1, # of connection points: 8
#     Node 12, Type 1, BuildingBlock: TAGTUT_clean_sbu_1, # of connection points: 8
#     Node 13, Type 1, BuildingBlock: TAGTUT_clean_sbu_1, # of connection points: 8
#     Edge 14, Type (0, 1), BuildingBlock: XUDNAN_clean_linker_2, # of connection points: 2
#     Edge 15, Type (0, 1), BuildingBlock: XUDNAN_clean_linker_2, # of connection points: 2
#     Edge 16, Type (0, 1), BuildingBlock: XUDNAN_clean_linker_2, # of connection points: 2
#     Edge 17, Type (0, 1), BuildingBlock: XUDNAN_clean_linker_2, # of connection points: 2
#     Edge 18, Type (0, 1), BuildingBlock: XUDNAN_clean_linker_2, # of connection points: 2
#     Edge 19, Type (0, 1), BuildingBlock: XUDNAN_clean_linker_2, # of connection points: 2
#     Edge 20, Type (0, 1), BuildingBlock: XUDNAN_clean_linker_2, # of connection points: 2
#     Edge 21, Type (0, 1), BuildingBlock: XUDNAN_clean_linker_2, # of connection points: 2
#     Edge 22, Type (0, 1), BuildingBlock: XUDNAN_clean_linker_2, # of connection points: 2
#     Edge 23, Type (0, 1), BuildingBlock: XUDNAN_clean_linker_2, # of connection points: 2
#     Edge 24, Type (0, 1), BuildingBlock: XUDNAN_clean_linker_2, # of connection points: 2
#     Edge 25, Type (0, 1), BuildingBlock: XUDNAN_clean_linker_2, # of connection points: 2
#     Edge 26, Type (0, 1), BuildingBlock: XUDNAN_clean_linker_2, # of connection points: 2
#     Edge 27, Type (0, 1), BuildingBlock: XUDNAN_clean_linker_2, # of connection points: 2
#     Edge 28, Type (0, 1), BuildingBlock: XUDNAN_clean_linker_2, # of connection points: 2
#     Edge 29, Type (0, 1), BuildingBlock: XUDNAN_clean_linker_2, # of connection points: 2
#     Edge 30, Type (0, 1), BuildingBlock: XUDNAN_clean_linker_2, # of connection points: 2
#     Edge 31, Type (0, 1), BuildingBlock: XUDNAN_clean_linker_2, # of connection points: 2
#     Edge 32, Type (0, 1), BuildingBlock: XUDNAN_clean_linker_2, # of connection points: 2
#     Edge 33, Type (0, 1), BuildingBlock: XUDNAN_clean_linker_2, # of connection points: 2
#     Edge 34, Type (0, 1), BuildingBlock: XUDNAN_clean_linker_2, # of connection points: 2
#     Edge 35, Type (0, 1), BuildingBlock: XUDNAN_clean_linker_2, # of connection points: 2
#     Edge 36, Type (0, 1), BuildingBlock: XUDNAN_clean_linker_2, # of connection points: 2
#     Edge 37, Type (0, 1), BuildingBlock: XUDNAN_clean_linker_2, # of connection points: 2
#     Edge 38, Type (0, 1), BuildingBlock: XUDNAN_clean_linker_2, # of connection points: 2
#     Edge 39, Type (0, 1), BuildingBlock: XUDNAN_clean_linker_2, # of connection points: 2
#     Edge 40, Type (0, 1), BuildingBlock: XUDNAN_clean_linker_2, # of connection points: 2
#     Edge 41, Type (0, 1), BuildingBlock: XUDNAN_clean_linker_2, # of connection points: 2
#     Edge 42, Type (0, 1), BuildingBlock: XUDNAN_clean_linker_2, # of connection points: 2
#     Edge 43, Type (0, 1), BuildingBlock: XUDNAN_clean_linker_2, # of connection points: 2
#     Edge 44, Type (0, 1), BuildingBlock: XUDNAN_clean_linker_2, # of connection points: 2
#     Edge 45, Type (0, 1), BuildingBlock: XUDNAN_clean_linker_2, # of connection points: 2
#     Edge 46, Type (0, 1), BuildingBlock: XUDNAN_clean_linker_2, # of connection points: 2
#     Edge 47, Type (0, 1), BuildingBlock: XUDNAN_clean_linker_2, # of connection points: 2
#     Edge 48, Type (0, 1), BuildingBlock: XUDNAN_clean_linker_2, # of connection points: 2
#     Edge 49, Type (0, 1), BuildingBlock: XUDNAN_clean_linker_2, # of connection points: 2
#     Edge 50, Type (0, 1), BuildingBlock: XUDNAN_clean_linker_2, # of connection points: 2
#     Edge 51, Type (0, 1), BuildingBlock: XUDNAN_clean_linker_2, # of connection points: 2
#     Edge 52, Type (0, 1), BuildingBlock: XUDNAN_clean_linker_2, # of connection points: 2
#     Edge 53, Type (0, 1), BuildingBlock: XUDNAN_clean_linker_2, # of connection points: 2
#     Edge 54, Type (0, 1), BuildingBlock: XUDNAN_clean_linker_2, # of connection points: 2
#     Edge 55, Type (0, 1), BuildingBlock: XUDNAN_clean_linker_2, # of connection points: 2
#     Edge 56, Type (0, 1), BuildingBlock: XUDNAN_clean_linker_2, # of connection points: 2
#     Edge 57, Type (0, 1), BuildingBlock: XUDNAN_clean_linker_2, # of connection points: 2
#     Edge 58, Type (0, 1), BuildingBlock: XUDNAN_clean_linker_2, # of connection points: 2
#     Edge 59, Type (0, 1), BuildingBlock: XUDNAN_clean_linker_2, # of connection points: 2
#     Edge 60, Type (0, 1), BuildingBlock: XUDNAN_clean_linker_2, # of connection points: 2
#     Edge 61, Type (0, 1), BuildingBlock: XUDNAN_clean_linker_2, # of connection points: 2
# Relax obj value: 0.186
# Max RMSD: 0.312
# Mean RMSD: 0.181
data_MOF--net-ocu--node1-JUFBIX_clean_sbu_0--node2-TAGTUT_clean_sbu_1--edge1-XUDNAN_clean_linker_2
_symmetry_space_group_name_H-M    P1
_symmetry_Int_Tables_number       1
_symmetry_cell_setting            triclinic
loop_
_symmetry_equiv_pos_as_xyz
'x, y, z'
_cell_length_a     37.47901
_cell_length_b     36.254837
_cell_length_c     39.55105
_cell_angle_alpha  93.024144
_cell_angle_beta   94.735725
_cell_angle_gamma 100.27692
loop_
_atom_site_label
_atom_site_type_symbol
_atom_site_fract_x
_atom_site_fract_y
_atom_site_fract_z
_atom_type_partial_charge
Co0 Co 0.24392 0.22731 0.24832 0.0
C1 C 0.23124 0.27466 0.30231 0.0
Co2 Co 0.28237 0.28109 0.25547 0.0
C3 C 0.17462 0.17852 0.24975 0.0
C4 C 0.21217 0.15082 0.22506 0.0
N5 N 0.20879 0.18408 0.24019 0.0
N6 N 0.15676 0.14299 0.24194 0.0
C7 C 0.18029 0.12554 0.22613 0.0
H8 H 0.16378 0.19945 0.2642 0.0
H9 H 0.2367 0.14475 0.21516 0.0
C10 C 0.29521 0.23424 0.2013 0.0
N11 N 0.31747 0.32372 0.26419 0.0
C12 C 0.33185 0.34687 0.24143 0.0
C13 C 0.33781 0.33548 0.2939 0.0
N14 N 0.36068 0.37214 0.25556 0.0
C15 C 0.36485 0.36509 0.28852 0.0
C16 C 0.30387 0.22071 0.29103 0.0
O17 O 0.26756 0.21274 0.21028 0.0
O18 O 0.30635 0.26593 0.21763 0.0
O19 O 0.31151 0.25512 0.28469 0.0
O20 O 0.27386 0.20129 0.27764 0.0
O21 O 0.25848 0.29641 0.29293 0.0
H22 H 0.33434 0.32217 0.31756 0.0
H23 H 0.32291 0.34367 0.21451 0.0
O24 O 0.22081 0.24253 0.28666 0.0
O25 O 0.21413 0.2534 0.21923 0.0
O26 O 0.25289 0.30675 0.22577 0.0
C27 C 0.22257 0.28778 0.21259 0.0
H28 H 0.17556 0.09608 0.21756 0.0
H29 H 0.3865 0.37946 0.30694 0.0
Co30 Co 0.78866 0.27715 0.24387 0.0
C31 C 0.77758 0.31838 0.30252 0.0
Co32 Co 0.73577 0.25907 0.26356 0.0
C33 C 0.85263 0.32669 0.22923 0.0
C34 C 0.85929 0.26931 0.22538 0.0
N35 N 0.83472 0.2914 0.23105 0.0
N36 N 0.88762 0.32777 0.22289 0.0
C37 C 0.89186 0.2916 0.22028 0.0
H38 H 0.83991 0.35106 0.23224 0.0
H39 H 0.85404 0.239 0.2256 0.0
C40 C 0.74688 0.21798 0.20474 0.0
N41 N 0.68963 0.24464 0.27605 0.0
C42 C 0.6714 0.20911 0.27454 0.0
C43 C 0.66473 0.26619 0.28226 0.0
N44 N 0.63587 0.20732 0.27888 0.0
C45 C 0.63157 0.24323 0.28421 0.0
C46 C 0.7364 0.31457 0.21613 0.0
O47 O 0.77768 0.23964 0.20687 0.0
O48 O 0.72485 0.222 0.22668 0.0
O49 O 0.71747 0.29389 0.23541 0.0
O50 O 0.76994 0.31256 0.21543 0.0
O51 O 0.74697 0.29635 0.30074 0.0
H52 H 0.67003 0.29659 0.28395 0.0
H53 H 0.68417 0.18501 0.27009 0.0
O54 O 0.79951 0.31459 0.28038 0.0
O55 O 0.80703 0.24225 0.27254 0.0
O56 O 0.75414 0.22352 0.29168 0.0
C57 C 0.78766 0.22137 0.29146 0.0
H58 H 0.91665 0.28183 0.21515 0.0
H59 H 0.6063 0.25232 0.28874 0.0
Co60 Co 0.78427 0.74275 0.25946 0.0
C61 C 0.82498 0.81348 0.28299 0.0
Co62 Co 0.77338 0.79016 0.23119 0.0
C63 C 0.83656 0.70187 0.28191 0.0
C64 C 0.78381 0.67259 0.29111 0.0
N65 N 0.80125 0.70466 0.27977 0.0
N66 N 0.84231 0.66925 0.29376 0.0
C67 C 0.80917 0.65067 0.29994 0.0
H68 H 0.85755 0.72319 0.27385 0.0
H69 H 0.75466 0.66534 0.29213 0.0
C70 C 0.73169 0.7196 0.20836 0.0
N71 N 0.75569 0.82803 0.21094 0.0
C72 C 0.71986 0.82832 0.20863 0.0
C73 C 0.77126 0.86156 0.20085 0.0
N74 N 0.71187 0.86057 0.19796 0.0
C75 C 0.74414 0.88177 0.19266 0.0
C76 C 0.82191 0.75845 0.19987 0.0
O77 O 0.74914 0.70754 0.23286 0.0
O78 O 0.73732 0.75452 0.20418 0.0
O79 O 0.80582 0.7863 0.19684 0.0
O80 O 0.81667 0.7387 0.22513 0.0
O81 O 0.8086 0.82529 0.25762 0.0
H82 H 0.80028 0.87112 0.20064 0.0
H83 H 0.70008 0.80563 0.2164 0.0
O84 O 0.81986 0.77843 0.28689 0.0
O85 O 0.75151 0.74634 0.29354 0.0
O86 O 0.74136 0.79452 0.26593 0.0
C87 C 0.73581 0.77446 0.29091 0.0
H88 H 0.8036 0.62353 0.31048 0.0
H89 H 0.74797 0.90974 0.18365 0.0
Co90 Co 0.25049 0.77404 0.245 0.0
C91 C 0.29231 0.80209 0.30532 0.0
Co92 Co 0.29144 0.74095 0.26171 0.0
C93 C 0.19814 0.81873 0.25634 0.0
C94 C 0.19449 0.80218 0.20338 0.0
N95 N 0.21405 0.8003 0.23335 0.0
N96 N 0.16969 0.83209 0.24231 0.0
C97 C 0.16655 0.82142 0.20899 0.0
H98 H 0.20559 0.82026 0.28348 0.0
H99 H 0.19912 0.78902 0.17935 0.0
C100 C 0.24982 0.71202 0.2017 0.0
N101 N 0.3273 0.71386 0.27309 0.0
C102 C 0.34973 0.70457 0.25066 0.0
C103 C 0.33047 0.69104 0.29864 0.0
N104 N 0.36566 0.67588 0.26009 0.0
C105 C 0.35365 0.66705 0.29032 0.0
C106 C 0.22555 0.71603 0.29061 0.0
O107 O 0.23424 0.7398 0.20698 0.0
O108 O 0.27549 0.70692 0.22283 0.0
O109 O 0.25765 0.70928 0.28892 0.0
O110 O 0.21696 0.7426 0.27335 0.0
O111 O 0.30703 0.77367 0.30037 0.0
H112 H 0.31398 0.68899 0.31989 0.0
H113 H 0.34997 0.71457 0.22533 0.0
O114 O 0.26778 0.80868 0.28364 0.0
O115 O 0.28311 0.80504 0.21692 0.0
O116 O 0.32515 0.77386 0.23404 0.0
C117 C 0.31571 0.79954 0.21599 0.0
H118 H 0.1452 0.8262 0.1905 0.0
H119 H 0.35812 0.64261 0.3035 0.0
Co120 Co 0.29892 0.78007 0.73434 0.0
C121 C 0.27417 0.81045 0.79363 0.0
Co122 Co 0.24521 0.75351 0.74733 0.0
C123 C 0.36738 0.80644 0.70673 0.0
C124 C 0.37173 0.80564 0.76087 0.0
N125 N 0.34734 0.79999 0.73312 0.0
N126 N 0.40341 0.81555 0.71693 0.0
C127 C 0.4061 0.81514 0.75104 0.0
H128 H 0.35554 0.80446 0.68067 0.0
H129 H 0.36505 0.80173 0.78669 0.0
C130 C 0.26995 0.72265 0.68848 0.0
N131 N 0.19731 0.73251 0.74972 0.0
C132 C 0.18269 0.7114 0.77369 0.0
C133 C 0.16983 0.73108 0.72498 0.0
N134 N 0.1474 0.69646 0.7647 0.0
C135 C 0.13896 0.70905 0.73427 0.0
C136 C 0.24866 0.81622 0.70454 0.0
O137 O 0.29858 0.74757 0.69449 0.0
O138 O 0.24452 0.72168 0.7078 0.0
O139 O 0.22887 0.79153 0.72001 0.0
O140 O 0.28297 0.8173 0.70706 0.0
O141 O 0.24587 0.78509 0.78773 0.0
H142 H 0.17251 0.74341 0.70081 0.0
H143 H 0.198 0.70589 0.79671 0.0
O144 O 0.29898 0.81223 0.77357 0.0
O145 O 0.31491 0.74322 0.76086 0.0
O146 O 0.2624 0.7152 0.77473 0.0
C147 C 0.29678 0.71735 0.77598 0.0
H148 H 0.43104 0.82089 0.76778 0.0
H149 H 0.11313 0.70094 0.71899 0.0
Co150 Co 0.25075 0.22031 0.76381 0.0
C151 C 0.30286 0.2744 0.80174 0.0
Co152 Co 0.27335 0.26954 0.73654 0.0
C153 C 0.25007 0.14697 0.7875 0.0
C154 C 0.21987 0.17856 0.81756 0.0
N155 N 0.23586 0.17859 0.78822 0.0
N156 N 0.24716 0.12936 0.81649 0.0
C157 C 0.22678 0.14837 0.83493 0.0
H158 H 0.26801 0.14037 0.76903 0.0
H159 H 0.20889 0.20174 0.82824 0.0
C160 C 0.22203 0.21465 0.69842 0.0
N161 N 0.28743 0.31125 0.7121 0.0
C162 C 0.26375 0.33277 0.70103 0.0
C163 C 0.31515 0.31854 0.6922 0.0
N164 N 0.27425 0.35161 0.6742 0.0
C165 C 0.30662 0.34275 0.66829 0.0
C166 C 0.31129 0.21271 0.72626 0.0
O167 O 0.2206 0.19792 0.72578 0.0
O168 O 0.24106 0.24735 0.69838 0.0
O169 O 0.31 0.24598 0.71868 0.0
O170 O 0.28939 0.1977 0.74667 0.0
O171 O 0.30518 0.29096 0.77424 0.0
H172 H 0.33768 0.30364 0.69191 0.0
H173 H 0.23616 0.32966 0.70811 0.0
O174 O 0.28173 0.2429 0.80203 0.0
O175 O 0.21262 0.24364 0.78031 0.0
O176 O 0.23659 0.2929 0.75521 0.0
C177 C 0.21326 0.27774 0.77419 0.0
H178 H 0.22289 0.14481 0.86147 0.0
H179 H 0.32069 0.34938 0.64593 0.0
Co180 Co 0.74627 0.28174 0.74499 0.0
C181 C 0.78769 0.30313 0.80655 0.0
Co182 Co 0.78368 0.24329 0.75985 0.0
C183 C 0.68086 0.31155 0.74923 0.0
C184 C 0.71949 0.34828 0.72417 0.0
N185 N 0.71283 0.31339 0.73552 0.0
N186 N 0.66842 0.34412 0.74887 0.0
C187 C 0.69245 0.36731 0.73268 0.0
H188 H 0.66924 0.2889 0.76385 0.0
H189 H 0.74438 0.36097 0.71413 0.0
C190 C 0.74223 0.22198 0.69811 0.0
N191 N 0.81735 0.21227 0.77017 0.0
C192 C 0.85086 0.21556 0.75933 0.0
C193 C 0.81162 0.17825 0.78327 0.0
N194 N 0.86554 0.18467 0.76349 0.0
C195 C 0.84103 0.16112 0.77887 0.0
C196 C 0.71684 0.22107 0.78703 0.0
O197 O 0.72927 0.25143 0.70464 0.0
O198 O 0.76584 0.21247 0.71925 0.0
O199 O 0.74813 0.21246 0.78547 0.0
O200 O 0.71054 0.24926 0.77094 0.0
O201 O 0.80076 0.2738 0.80009 0.0
H202 H 0.78644 0.1649 0.79241 0.0
H203 H 0.86276 0.238 0.74461 0.0
O204 O 0.76397 0.31236 0.78548 0.0
O205 O 0.78204 0.31269 0.71949 0.0
O206 O 0.81932 0.27539 0.73368 0.0
C207 C 0.81321 0.30375 0.71773 0.0
H208 H 0.69277 0.39704 0.73073 0.0
H209 H 0.84246 0.13214 0.78314 0.0
Co210 Co 0.75233 0.74452 0.74852 0.0
C211 C 0.74557 0.79509 0.8026 0.0
Co212 Co 0.79514 0.79491 0.75425 0.0
C213 C 0.69732 0.68529 0.76531 0.0
C214 C 0.69326 0.69224 0.71188 0.0
N215 N 0.71397 0.70469 0.74123 0.0
N216 N 0.66681 0.66154 0.75237 0.0
C217 C 0.66397 0.66574 0.71873 0.0
H218 H 0.7064 0.69001 0.79215 0.0
H219 H 0.69831 0.70289 0.68735 0.0
C220 C 0.80267 0.74524 0.70042 0.0
N221 N 0.83355 0.83501 0.76127 0.0
C222 C 0.85329 0.85166 0.7375 0.0
C223 C 0.8505 0.85119 0.79125 0.0
N224 N 0.88213 0.87715 0.75136 0.0
C225 C 0.88033 0.87737 0.7852 0.0
C226 C 0.81181 0.73238 0.78944 0.0
O227 O 0.7744 0.72539 0.7103 0.0
O228 O 0.81528 0.77705 0.71579 0.0
O229 O 0.82289 0.76608 0.78215 0.0
O230 O 0.77963 0.71632 0.77823 0.0
O231 O 0.77488 0.81259 0.79275 0.0
H232 H 0.84249 0.8435 0.81596 0.0
H233 H 0.84694 0.8448 0.71045 0.0
O234 O 0.73037 0.764 0.78687 0.0
O235 O 0.72552 0.77262 0.71938 0.0
O236 O 0.76721 0.82368 0.72579 0.0
C237 C 0.73585 0.80673 0.71312 0.0
H238 H 0.64211 0.65121 0.70061 0.0
H239 H 0.8999 0.89414 0.80416 0.0
C240 C 0.94858 0.11788 0.5496 0.0
C241 C 0.93729 0.08709 0.441 0.0
C242 C 0.94963 0.94726 0.4847 0.0
Mg243 Mg 1.00274 0.1079 0.49622 0.0
O244 O 0.99263 0.05986 0.51259 0.0
Mg245 Mg 0.94121 0.03276 0.50922 0.0
Mg246 Mg 1.017 0.0186 0.49752 0.0
O247 O 0.04113 0.97694 0.48303 0.0
Mg248 Mg 0.0305 0.93003 0.50169 0.0
Mg249 Mg 0.0926 1.00327 0.48653 0.0
C250 C 0.08419 0.08981 0.50852 0.0
C251 C 0.04726 0.03791 0.42561 0.0
O252 O 0.93077 0.08471 0.54029 0.0
O253 O 0.97754 0.13243 0.53644 0.0
O254 O 0.9255 0.05994 0.45907 0.0
O255 O 0.96824 0.10839 0.44912 0.0
O256 O 0.06258 0.11299 0.50159 0.0
O257 O 0.07229 0.05478 0.51181 0.0
C258 C 0.98686 0.99781 0.56915 0.0
O259 O 1.01363 0.99844 0.55108 0.0
O260 O 0.95751 1.0085 0.55855 0.0
O261 O 0.10229 0.95001 0.45654 0.0
O262 O 0.05523 0.90331 0.46266 0.0
O263 O 0.10844 0.977 0.53747 0.0
C264 C 0.08397 0.91669 0.44865 0.0
O265 O 0.06499 0.93004 0.54907 0.0
O266 O 0.97073 0.92439 0.49405 0.0
C267 C 0.09648 0.95063 0.55633 0.0
O268 O 0.96181 0.98243 0.48262 0.0
O269 O 0.02067 0.03879 0.44375 0.0
O270 O 0.07603 0.02635 0.43676 0.0
C271 C 0.42574 0.10723 0.03856 0.0
C272 C 0.45775 0.08532 0.93768 0.0
C273 C 0.44495 0.94617 0.95655 0.0
Mg274 Mg 0.4981 0.09792 0.00771 0.0
O275 O 0.48123 0.04761 0.01718 0.0
Mg276 Mg 0.43066 0.02437 0.99586 0.0
Mg277 Mg 0.50929 0.01122 0.99699 0.0
O278 O 0.53759 0.97533 0.97574 0.0
Mg279 Mg 0.52205 0.92289 0.97658 0.0
Mg280 Mg 0.58702 0.99799 -0.00029 0.0
C281 C 0.57349 0.07665 0.0355 0.0
C282 C 0.56952 0.05628 0.94333 0.0
O283 O 0.41058 0.07347 0.02731 0.0
O284 O 0.45875 0.12129 0.03402 0.0
O285 O 0.43665 0.05955 0.95069 0.0
O286 O 0.48608 0.10452 0.95439 0.0
O287 O 0.55448 0.1021 0.02895 0.0
O288 O 0.56043 0.04146 0.0288 0.0
C289 C 0.45024 0.967 0.05261 0.0
O290 O 0.48264 0.97097 0.04167 0.0
O291 O 0.4269 0.98558 0.03997 0.0
O292 O 0.6095 0.95205 0.96855 0.0
O293 O 0.56475 0.90377 0.94937 0.0
O294 O 0.57678 0.95967 0.04254 0.0
C295 C 0.59827 0.92026 0.95151 0.0
O296 O 0.52988 0.91237 0.02918 0.0
O297 O 0.46485 0.92066 0.95766 0.0
C298 C 0.55463 0.9312 0.05054 0.0
O299 O 0.45752 0.98079 0.96623 0.0
O300 O 0.53644 0.0517 0.95277 0.0
O301 O 0.59267 0.03817 0.95708 0.0
C302 C 0.94668 0.61824 0.04135 0.0
C303 C 0.95566 0.58972 0.93782 0.0
C304 C 0.94873 0.44369 0.97352 0.0
Mg305 Mg 1.01107 0.6004 0.00208 0.0
O306 O 0.99403 0.5522 0.01498 0.0
Mg307 Mg 0.94132 0.53096 0.00254 0.0
Mg308 Mg 0.01781 0.5094 0.99958 0.0
O309 O 0.0424 0.46755 0.98326 0.0
Mg310 Mg 0.02733 0.41601 0.98544 0.0
Mg311 Mg 0.09508 0.48981 0.99446 0.0
C312 C 0.08796 0.57435 0.02467 0.0
C313 C 0.06035 0.53609 0.93552 0.0
O314 O 0.92885 0.58484 0.03242 0.0
O315 O 0.97913 0.62968 0.03345 0.0
O316 O 0.93603 0.56339 0.95223 0.0
O317 O 0.98771 0.60475 0.95086 0.0
O318 O 0.06903 0.59971 0.01694 0.0
O319 O 0.07378 0.53917 0.02327 0.0
C320 C 0.9755 0.48802 0.06502 0.0
O321 O 1.0036 0.48497 0.04947 0.0
O322 O 0.94949 0.50308 0.05217 0.0
O323 O 0.10876 0.44214 0.95833 0.0
O324 O 0.05957 0.3963 0.94679 0.0
O325 O 0.10036 0.45175 0.04156 0.0
C326 C 0.0923 0.41136 0.942 0.0
O327 O 0.05207 0.40481 0.0343 0.0
O328 O 0.96858 0.41807 0.97614 0.0
C329 C 0.08188 0.42121 0.0511 0.0
O330 O 0.9622 0.47909 0.97657 0.0
O331 O 0.03108 0.53448 0.9502 0.0
O332 O 0.08752 0.52281 0.9482 0.0
C333 C 0.41422 0.59261 0.03773 0.0
C334 C 0.43184 0.57645 0.931 0.0
C335 C 0.4446 0.43371 0.97955 0.0
Mg336 Mg 0.4832 0.59593 0.9985 0.0
O337 O 0.47293 0.54533 0.00708 0.0
Mg338 Mg 0.42359 0.51474 0.99354 0.0
Mg339 Mg 0.50446 0.5083 0.99794 0.0
O340 O 0.53579 0.47064 0.98966 0.0
Mg341 Mg 0.5255 0.42381 0.00835 0.0
Mg342 Mg 0.58528 0.5009 0.00209 0.0
C343 C 0.56407 0.58327 0.02583 0.0
C344 C 0.55063 0.53586 0.93564 0.0
O345 O 0.40056 0.56078 0.02186 0.0
O346 O 0.44588 0.61079 0.0331 0.0
O347 O 0.41681 0.54595 0.94323 0.0
O348 O 0.45951 0.5984 0.94674 0.0
O349 O 0.54181 0.60526 0.01714 0.0
O350 O 0.55451 0.54735 0.02311 0.0
C351 C 0.45889 0.48129 0.06063 0.0
O352 O 0.49019 0.48572 0.04914 0.0
O353 O 0.43107 0.48894 0.04347 0.0
O354 O 0.60444 0.45063 0.97379 0.0
O355 O 0.55913 0.40078 0.97538 0.0
O356 O 0.5946 0.47372 0.05309 0.0
C357 C 0.58926 0.41631 0.96483 0.0
O358 O 0.55224 0.42392 0.05949 0.0
O359 O 0.46669 0.41414 0.99341 0.0
C360 C 0.58179 0.44633 0.07029 0.0
O361 O 0.45442 0.4684 0.97341 0.0
O362 O 0.51899 0.5319 0.94649 0.0
O363 O 0.57735 0.52612 0.95271 0.0
C364 C 0.94768 0.61157 0.55693 0.0
C365 C 0.98402 0.59428 0.45649 0.0
C366 C 0.95455 0.45085 0.46916 0.0
Mg367 Mg 0.01988 0.59872 0.52822 0.0
O368 O 0.99985 0.54802 0.53173 0.0
Mg369 Mg 0.94852 0.53054 0.50919 0.0
Mg370 Mg 0.02431 0.51007 0.50827 0.0
O371 O 0.0483 0.47203 0.48517 0.0
Mg372 Mg 0.02765 0.42169 0.49034 0.0
Mg373 Mg 0.1003 0.48958 0.50564 0.0
C374 C 0.09404 0.56947 0.54682 0.0
C375 C 0.08457 0.55243 0.45277 0.0
O376 O 0.93128 0.57958 0.54258 0.0
O377 O 0.98175 0.62378 0.55527 0.0
O378 O 0.95943 0.5688 0.46586 0.0
O379 O 1.01186 0.6095 0.4762 0.0
O380 O 0.07588 0.59638 0.54544 0.0
O381 O 0.07899 0.53494 0.53876 0.0
C382 C 0.96332 0.46786 0.56267 0.0
O383 O 0.99556 0.46975 0.55167 0.0
O384 O 0.9418 0.48907 0.55111 0.0
O385 O 0.11516 0.44043 0.4704 0.0
O386 O 0.06361 0.39698 0.46069 0.0
O387 O 0.09255 0.44927 0.54755 0.0
C388 C 0.09733 0.40854 0.45688 0.0
O389 O 0.04022 0.40824 0.54146 0.0
O390 O 0.97152 0.42321 0.47233 0.0
C391 C 0.07031 0.42264 0.55839 0.0
O392 O 0.97038 0.48501 0.47758 0.0
O393 O 0.05248 0.55014 0.46414 0.0
O394 O 0.10644 0.53163 0.46422 0.0
C395 C 0.44366 0.09318 0.55872 0.0
C396 C 0.4538 0.09316 0.44956 0.0
C397 C 0.45935 0.94139 0.46803 0.0
Mg398 Mg 0.5092 0.09868 0.51424 0.0
O399 O 0.49858 0.04648 0.51326 0.0
Mg400 Mg 0.44696 0.01996 0.50189 0.0
Mg401 Mg 0.52638 1.00965 0.4928 0.0
O402 O 0.5528 0.97071 0.47396 0.0
Mg403 Mg 0.5389 0.92191 0.48732 0.0
Mg404 Mg 0.60445 0.99515 0.48815 0.0
C405 C 0.59106 0.07873 0.52297 0.0
C406 C 0.56537 0.03808 0.42808 0.0
O407 O 0.42984 0.06209 0.54152 0.0
O408 O 0.47503 0.11199 0.55385 0.0
O409 O 0.43744 0.06104 0.45794 0.0
O410 O 0.48306 0.11065 0.46651 0.0
O411 O 0.56884 0.10218 0.52301 0.0
O412 O 0.58034 0.04311 0.51639 0.0
C413 C 0.48833 0.97142 0.55423 0.0
O414 O 0.51732 0.97964 0.53955 0.0
O415 O 0.45854 0.98195 0.54432 0.0
O416 O 0.6209 0.94362 0.45722 0.0
O417 O 0.57334 0.89562 0.45657 0.0
O418 O 0.61155 0.96249 0.5381 0.0
C419 C 0.60523 0.90935 0.44849 0.0
O420 O 0.56123 0.91923 0.5389 0.0
O421 O 0.47996 0.91726 0.4746 0.0
C422 C 0.59246 0.93581 0.55252 0.0
O423 O 0.47153 0.97691 0.46897 0.0
O424 O 0.53754 0.03854 0.44476 0.0
O425 O 0.59298 0.02419 0.43927 0.0
H426 H 0.14301 0.07254 0.26228 0.0
H427 H 0.09931 0.17508 0.25722 0.0
H428 H 0.05371 0.15093 0.29617 0.0
H429 H 0.05509 1.00584 0.27712 0.0
H430 H 0.07995 0.98179 0.30702 0.0
H431 H 0.10116 1.00091 0.27085 0.0
H432 H 0.1545 0.03779 0.31062 0.0
H433 H 0.13445 0.0217 0.34802 0.0
H434 H 0.14617 0.07125 0.34308 0.0
H435 H 0.0238 0.12273 0.34574 0.0
H436 H 1.01417 0.09412 0.40059 0.0
H437 H 0.07846 0.01097 0.37313 0.0
C438 C 0.12252 0.08901 0.26766 0.0
C439 C 0.12458 0.12555 0.25658 0.0
C440 C 0.0982 0.14695 0.26551 0.0
C441 C 0.07203 0.13332 0.28741 0.0
C442 C 0.07236 0.09806 0.29981 0.0
C443 C 0.0967 0.07596 0.28976 0.0
C444 C 0.09693 0.04293 0.31142 0.0
C445 C 0.08242 1.00566 0.29034 0.0
C446 C 0.13525 0.04348 0.3293 0.0
C447 C 0.07062 0.051 0.33648 0.0
C448 C 0.05581 0.08225 0.32899 0.0
C449 C 0.03442 0.09762 0.35129 0.0
C450 C 0.02908 0.08128 0.38238 0.0
C451 C 0.04575 0.05054 0.39089 0.0
C452 C 0.06539 0.03446 0.36706 0.0
H453 H 0.85958 0.22709 0.31544 0.0
H454 H 0.7535 0.1559 0.31546 0.0
H455 H 0.78154 0.11101 0.34914 0.0
H456 H 0.91362 0.15352 0.31073 0.0
H457 H 0.95068 0.17879 0.33964 0.0
H458 H 0.92282 0.20418 0.31378 0.0
H459 H 0.90822 0.24024 0.36771 0.0
H460 H 0.93635 0.21531 0.39367 0.0
H461 H 0.88955 0.21422 0.40177 0.0
H462 H 0.82142 0.07365 0.38273 0.0
H463 H 0.86773 0.05081 0.41978 0.0
H464 H 0.94783 0.14803 0.40088 0.0
C465 C 0.84228 0.2019 0.32233 0.0
C466 C 0.8043 0.19484 0.31252 0.0
C467 C 0.78258 0.16192 0.32263 0.0
C468 C 0.79834 0.13614 0.34159 0.0
C469 C 0.83588 0.14384 0.35067 0.0
C470 C 0.85749 0.17622 0.34181 0.0
C471 C 0.89667 0.17913 0.35679 0.0
C472 C 0.92247 0.17889 0.32854 0.0
C473 C 0.90837 0.2143 0.38145 0.0
C474 C 0.89377 0.14334 0.37554 0.0
C475 C 0.85856 0.12313 0.37121 0.0
C476 C 0.84903 0.08934 0.38633 0.0
C477 C 0.87572 0.07649 0.40731 0.0
C478 C 0.91169 0.0975 0.41353 0.0
C479 C 0.92081 0.13102 0.39664 0.0
H480 H 0.86261 0.79798 0.34107 0.0
H481 H 0.82294 0.88849 0.29085 0.0
H482 H 0.83904 0.92931 0.34377 0.0
H483 H 0.83252 0.8176 0.42388 0.0
H484 H 0.87245 0.80652 0.44676 0.0
H485 H 0.85617 0.78348 0.40544 0.0
H486 H 0.9191 0.80585 0.38299 0.0
H487 H 0.93579 0.82735 0.42457 0.0
H488 H 0.93928 0.85506 0.38806 0.0
H489 H 0.86081 0.96069 0.40138 0.0
H490 H 0.89939 0.98455 0.45406 0.0
H491 H 0.92301 0.87294 0.46722 0.0
C492 C 0.85765 0.82652 0.34106 0.0
C493 C 0.8416 0.84005 0.31183 0.0
C494 C 0.83556 0.87759 0.31286 0.0
C495 C 0.84397 0.90078 0.34297 0.0
C496 C 0.85831 0.88598 0.37175 0.0
C497 C 0.86583 0.85001 0.37082 0.0
C498 C 0.88408 0.84183 0.40438 0.0
C499 C 0.85984 0.8105 0.42109 0.0
C500 C 0.92179 0.83199 0.39972 0.0
C501 C 0.88696 0.8794 0.42397 0.0
C502 C 0.87099 0.90414 0.40505 0.0
C503 C 0.87323 0.94153 0.41653 0.0
C504 C 0.89506 0.9548 0.4467 0.0
C505 C 0.91495 0.93085 0.46442 0.0
C506 C 0.90824 0.89205 0.45436 0.0
H507 H 0.18848 0.89215 0.28554 0.0
H508 H 0.09844 0.80486 0.24587 0.0
H509 H 0.06495 0.81767 0.29548 0.0
H510 H 0.18942 0.8686 0.36673 0.0
H511 H 0.20128 0.91542 0.38697 0.0
H512 H 0.21461 0.90597 0.34521 0.0
H513 H 0.18181 0.95723 0.32108 0.0
H514 H 0.16917 0.96815 0.36292 0.0
H515 H 0.13465 0.95616 0.32756 0.0
H516 H 0.04731 0.83234 0.35418 0.0
H517 H 0.04058 0.85622 0.41238 0.0
H518 H 0.14419 0.93273 0.41365 0.0
C519 C 0.16083 0.87738 0.28652 0.0
C520 C 0.14546 0.8482 0.26197 0.0
C521 C 0.10992 0.82807 0.26419 0.0
C522 C 0.09113 0.83478 0.29247 0.0
C523 C 0.10845 0.86184 0.31779 0.0
C524 C 0.14215 0.88349 0.31459 0.0
C525 C 0.15655 0.90828 0.34642 0.0
C526 C 0.19258 0.89898 0.36224 0.0
C527 C 0.16079 0.94995 0.33908 0.0
C528 C 0.12596 0.89682 0.36838 0.0
C529 C 0.09857 0.86989 0.35156 0.0
C530 C 0.06826 0.85393 0.36737 0.0
C531 C 0.06498 0.86733 0.40064 0.0
C532 C 0.09183 0.89652 0.41757 0.0
C533 C 0.12314 0.91053 0.40143 0.0
H534 H 0.17656 0.80969 0.67983 0.0
H535 H 0.28158 0.88354 0.68243 0.0
H536 H 0.25286 0.92831 0.64924 0.0
H537 H 0.14698 0.82397 0.59385 0.0
H538 H 0.09993 0.82162 0.60159 0.0
H539 H 0.1284 0.79681 0.6273 0.0
H540 H 0.11254 0.83117 0.68157 0.0
H541 H 0.08429 0.8564 0.65598 0.0
H542 H 0.12071 0.88181 0.68548 0.0
H543 H 0.21239 0.9651 0.61516 0.0
H544 H 0.16573 0.98759 0.57818 0.0
H545 H 0.08698 0.88865 0.59545 0.0
C546 C 0.19354 0.83541 0.67367 0.0
C547 C 0.23146 0.84313 0.6841 0.0
C548 C 0.25259 0.8769 0.67489 0.0
C549 C 0.23642 0.90263 0.65614 0.0
C550 C 0.199 0.8942 0.6464 0.0
C551 C 0.1779 0.86117 0.65454 0.0
C552 C 0.13872 0.85774 0.63923 0.0
C553 C 0.12788 0.82298 0.61399 0.0
C554 C 0.11252 0.85672 0.66724 0.0
C555 C 0.14104 0.89394 0.62107 0.0
C556 C 0.17597 0.91477 0.62593 0.0
C557 C 0.18499 0.94894 0.61123 0.0
C558 C 0.1581 0.96159 0.59027 0.0
C559 C 0.12234 0.94012 0.58368 0.0
C560 C 0.11376 0.90612 0.60005 0.0
H561 H 0.1922 0.23794 0.63944 0.0
H562 H 0.22733 0.14243 0.68455 0.0
H563 H 0.21257 0.1055 0.62965 0.0
H564 H 0.1153 0.1888 0.59693 0.0
H565 H 0.11637 0.21534 0.5596 0.0
H566 H 0.13896 0.23689 0.59929 0.0
H567 H 0.19949 0.25269 0.57044 0.0
H568 H 0.1762 0.23049 0.53083 0.0
H569 H 0.21662 0.21553 0.54877 0.0
H570 H 0.18658 0.07602 0.57456 0.0
H571 H 0.13756 0.05143 0.53001 0.0
H572 H 0.11559 0.164 0.51944 0.0
C573 C 0.19713 0.20939 0.63736 0.0
C574 C 0.21043 0.19275 0.66599 0.0
C575 C 0.21642 0.15535 0.66287 0.0
C576 C 0.20899 0.13448 0.63162 0.0
C577 C 0.1955 0.15136 0.60373 0.0
C578 C 0.18897 0.18778 0.60639 0.0
C579 C 0.16767 0.19658 0.57459 0.0
C580 C 0.1325 0.21013 0.58313 0.0
C581 C 0.1914 0.22554 0.555 0.0
C582 C 0.16001 0.15825 0.55536 0.0
C583 C 0.17843 0.13337 0.57161 0.0
C584 C 0.17238 0.09527 0.56128 0.0
C585 C 0.14435 0.08149 0.53584 0.0
C586 C 0.12209 0.10565 0.52193 0.0
C587 C 0.13215 0.14486 0.52965 0.0
H588 H 0.85593 0.12196 0.72192 0.0
H589 H 0.92993 0.22646 0.75252 0.0
H590 H 0.96108 0.22041 0.70028 0.0
H591 H 0.92193 0.07401 0.67576 0.0
H592 H 0.88586 0.05295 0.6439 0.0
H593 H 0.8759 0.06159 0.68709 0.0
H594 H 0.82716 0.09922 0.66477 0.0
H595 H 0.83816 0.09244 0.62178 0.0
H596 H 0.84054 0.13932 0.64053 0.0
H597 H 0.97662 0.20837 0.6406 0.0
H598 H 0.98272 0.18559 0.58181 0.0
H599 H 0.89579 0.09051 0.59017 0.0
C600 C 0.88008 0.14231 0.71864 0.0
C601 C 0.89104 0.17438 0.74135 0.0
C602 C 0.92174 0.20142 0.73552 0.0
C603 C 0.93924 0.19837 0.70583 0.0
C604 C 0.92577 0.16791 0.68254 0.0
C605 C 0.89749 0.13982 0.68902 0.0
C606 C 0.88569 0.11204 0.65859 0.0
C607 C 0.89279 0.07284 0.66683 0.0
C608 C 0.84552 0.11072 0.64568 0.0
C609 C 0.91097 0.12954 0.63367 0.0
C610 C 0.93401 0.16159 0.64791 0.0
C611 C 0.95913 0.18294 0.62933 0.0
C612 C 0.96205 0.17003 0.5958 0.0
C613 C 0.9398 0.13619 0.5813 0.0
C614 C 0.91321 0.11651 0.60031 0.0
H615 H 0.90744 0.85406 0.69348 0.0
H616 H 0.91839 0.94807 0.76823 0.0
H617 H 0.95988 0.98698 0.73312 0.0
H618 H 1.00281 0.87779 0.66479 0.0
H619 H 0.98585 0.86267 0.62138 0.0
H620 H 0.96425 0.83997 0.65584 0.0
H621 H 0.90214 0.85422 0.63173 0.0
H622 H 0.92336 0.87675 0.59731 0.0
H623 H 0.89813 0.90204 0.62434 0.0
H624 H 0.98784 0.01862 0.68521 0.0
H625 H 1.00063 0.04032 0.62846 0.0
H626 H 0.97332 0.92568 0.58514 0.0
C627 C 0.91927 0.8826 0.70275 0.0
C628 C 0.90973 0.89827 0.73338 0.0
C629 C 0.92573 0.93558 0.74494 0.0
C630 C 0.94936 0.95775 0.72522 0.0
C631 C 0.95724 0.94182 0.69446 0.0
C632 C 0.94302 0.90488 0.68351 0.0
C633 C 0.95177 0.89575 0.6477 0.0
C634 C 0.97772 0.86737 0.64743 0.0
C635 C 0.91678 0.88139 0.62389 0.0
C636 C 0.97073 0.93408 0.63921 0.0
C637 C 0.97448 0.96009 0.66683 0.0
C638 C 0.98641 0.99836 0.66382 0.0
C639 C 0.99364 1.01046 0.63162 0.0
C640 C 0.989 0.98431 0.60317 0.0
C641 C 0.97849 0.94571 0.60708 0.0
H642 H 0.29095 0.16258 0.17235 0.0
H643 H 0.34467 0.27826 0.16665 0.0
H644 H 0.37972 0.25812 0.12119 0.0
H645 H 0.36916 0.12225 0.16225 0.0
H646 H 0.34531 0.08095 0.13711 0.0
H647 H 0.32188 0.10457 0.16706 0.0
H648 H 0.27278 0.11151 0.11897 0.0
H649 H 0.29609 0.08791 0.08882 0.0
H650 H 0.28642 0.13388 0.08125 0.0
H651 H 0.41101 0.22591 0.07901 0.0
H652 H 0.43917 0.1834 0.0438 0.0
H653 H 0.36672 0.08728 0.07649 0.0
C654 C 0.30968 0.18374 0.16114 0.0
C655 C 0.31487 0.22211 0.17289 0.0
C656 C 0.34016 0.24879 0.15804 0.0
C657 C 0.3601 0.23762 0.13211 0.0
C658 C 0.35459 0.19963 0.12134 0.0
C659 C 0.33013 0.173 0.13537 0.0
C660 C 0.33124 0.1337 0.12051 0.0
C661 C 0.34258 0.10892 0.14839 0.0
C662 C 0.29444 0.11569 0.10124 0.0
C663 C 0.36055 0.14241 0.09627 0.0
C664 C 0.37326 0.18071 0.09705 0.0
C665 C 0.40118 0.1959 0.07805 0.0
C666 C 0.41708 0.17139 0.05818 0.0
C667 C 0.40526 0.13189 0.05735 0.0
C668 C 0.37608 0.11729 0.07625 0.0
H669 H 0.94553 0.32964 0.18583 0.0
H670 H 0.88698 0.40037 0.24346 0.0
H671 H 0.91813 0.45568 0.2176 0.0
H672 H 0.03207 0.40963 0.18551 0.0
H673 H 0.03977 0.39463 0.14321 0.0
H674 H 0.02368 0.36021 0.17245 0.0
H675 H 0.9678 0.33112 0.13203 0.0
H676 H 0.98308 0.36254 0.10068 0.0
H677 H 0.93812 0.36076 0.11436 0.0
H678 H 0.93588 0.49588 0.17255 0.0
H679 H 0.94654 0.52059 0.11678 0.0
H680 H 0.99891 0.42716 0.09021 0.0
C681 C 0.94072 0.35695 0.19443 0.0
C682 C 0.91305 0.36049 0.21587 0.0
C683 C 0.90723 0.39675 0.22622 0.0
C684 C 0.92528 0.42851 0.21207 0.0
C685 C 0.95001 0.42367 0.18856 0.0
C686 C 0.95896 0.38899 0.1808 0.0
C687 C 0.9823 0.39044 0.15124 0.0
C688 C 0.02178 0.38855 0.16386 0.0
C689 C 0.96684 0.35942 0.12294 0.0
C690 C 0.97967 0.42918 0.14009 0.0
C691 C 0.96234 0.44852 0.16289 0.0
C692 C 0.95087 0.48186 0.15525 0.0
C693 C 0.9565 0.49536 0.12333 0.0
C694 C 0.97351 0.47557 0.09954 0.0
C695 C 0.98651 0.44298 0.10847 0.0
H696 H 0.69343 0.92916 0.19424 0.0
H697 H 0.64828 0.81003 0.18849 0.0
H698 H 0.5889 0.82256 0.16936 0.0
H699 H 0.59663 0.96187 0.20521 0.0
H700 H 0.61048 1.00004 0.17894 0.0
H701 H 0.64343 0.9857 0.20895 0.0
H702 H 0.684 0.97731 0.16037 0.0
H703 H 0.65146 0.99121 0.13058 0.0
H704 H 0.66527 0.94648 0.12337 0.0
H705 H 0.54647 0.84072 0.1292 0.0
H706 H 0.52679 0.86362 0.07473 0.0
H707 H 0.59331 0.9728 0.10436 0.0
C708 C 0.67059 0.90606 0.19008 0.0
C709 C 0.67581 0.86882 0.19267 0.0
C710 C 0.64537 0.83905 0.18725 0.0
C711 C 0.61104 0.84592 0.17649 0.0
C712 C 0.60729 0.88266 0.17113 0.0
C713 C 0.63609 0.91262 0.1787 0.0
C714 C 0.62773 0.94771 0.16322 0.0
C715 C 0.61903 0.97545 0.19072 0.0
C716 C 0.65893 0.96665 0.14316 0.0
C717 C 0.59374 0.93076 0.14037 0.0
C718 C 0.5809 0.89387 0.14705 0.0
C719 C 0.55525 0.86992 0.12449 0.0
C720 C 0.54452 0.88294 0.09335 0.0
C721 C 0.55922 0.91969 0.08537 0.0
C722 C 0.58193 0.94448 0.11006 0.0
H723 H 0.21538 0.72738 0.14259 0.0
H724 H 0.25722 0.63828 0.19265 0.0
H725 H 0.23012 0.5934 0.14402 0.0
H726 H 0.13301 0.67894 0.11443 0.0
H727 H 0.12909 0.69969 0.07417 0.0
H728 H 0.15799 0.7253 0.10919 0.0
H729 H 0.21267 0.73254 0.07236 0.0
H730 H 0.18377 0.70656 0.03711 0.0
H731 H 0.22504 0.69135 0.05244 0.0
H732 H 0.18748 0.55663 0.09638 0.0
H733 H 0.13443 0.53217 0.05505 0.0
H734 H 0.12473 0.64642 0.03403 0.0
C735 C 0.21957 0.6986 0.14291 0.0
C736 C 0.23798 0.68608 0.17133 0.0
C737 C 0.24312 0.64833 0.17098 0.0
C738 C 0.22802 0.62275 0.1434 0.0
C739 C 0.20889 0.63576 0.1161 0.0
C740 C 0.20531 0.67305 0.11545 0.0
C741 C 0.18045 0.67948 0.08518 0.0
C742 C 0.14825 0.69682 0.09643 0.0
C743 C 0.20176 0.70393 0.06029 0.0
C744 C 0.16824 0.63953 0.07029 0.0
C745 C 0.18546 0.61469 0.08792 0.0
C746 C 0.17461 0.57587 0.08174 0.0
C747 C 0.1444 0.56219 0.05815 0.0
C748 C 0.1253 0.58737 0.0413 0.0
C749 C 0.13886 0.62636 0.04618 0.0
H750 H 0.30938 0.88251 0.79924 0.0
H751 H 0.25751 0.79419 0.85791 0.0
H752 H 0.28655 0.83017 0.91098 0.0
H753 H 0.38987 0.89584 0.8391 0.0
H754 H 0.40189 0.94625 0.83871 0.0
H755 H 0.36857 0.92047 0.807 0.0
H756 H 0.32187 0.96111 0.82378 0.0
H757 H 0.35503 0.98731 0.85593 0.0
H758 H 0.31124 0.96486 0.86732 0.0
H759 H 0.33461 0.86459 0.95395 0.0
H760 H 0.39347 0.89701 0.98347 0.0
H761 H 0.41241 0.96581 0.89841 0.0
C762 C 0.30268 0.87181 0.82344 0.0
C763 C 0.28108 0.83588 0.82472 0.0
C764 C 0.27341 0.82203 0.85654 0.0
C765 C 0.28992 0.8423 0.88677 0.0
C766 C 0.31311 0.87671 0.8846 0.0
C767 C 0.31862 0.89192 0.85368 0.0
C768 C 0.34874 0.92628 0.85748 0.0
C769 C 0.37903 0.92189 0.83423 0.0
C770 C 0.33328 0.962 0.85072 0.0
C771 C 0.36182 0.92589 0.89467 0.0
C772 C 0.34034 0.89767 0.91013 0.0
C773 C 0.35066 0.88774 0.94263 0.0
C774 C 0.38412 0.90618 0.9592 0.0
C775 C 0.4066 0.93442 0.94339 0.0
C776 C 0.39473 0.94535 0.91139 0.0
H777 H 0.1655 0.2583 0.82344 0.0
H778 H 0.21282 0.35208 0.76756 0.0
H779 H 0.18563 0.39495 0.80335 0.0
H780 H 0.07932 0.29312 0.83576 0.0
H781 H 0.07678 0.27643 0.87778 0.0
H782 H 0.0979 0.25216 0.84627 0.0
H783 H 0.15656 0.25979 0.88739 0.0
H784 H 0.13583 0.28447 0.91886 0.0
H785 H 0.17855 0.3061 0.90451 0.0
H786 H 0.16026 0.42912 0.84891 0.0
H787 H 0.13076 0.45183 0.89731 0.0
H788 H 0.09481 0.33692 0.92254 0.0
C789 C 0.16939 0.28769 0.81822 0.0
C790 C 0.19142 0.30163 0.79249 0.0
C791 C 0.19612 0.34046 0.7869 0.0
C792 C 0.18083 0.36521 0.80723 0.0
C793 C 0.16031 0.35086 0.83293 0.0
C794 C 0.15382 0.31295 0.83814 0.0
C795 C 0.13102 0.30534 0.86803 0.0
C796 C 0.09405 0.28027 0.85625 0.0
C797 C 0.15173 0.28789 0.89637 0.0
C798 C 0.12648 0.34497 0.87916 0.0
C799 C 0.14397 0.3707 0.85859 0.0
C800 C 0.14593 0.40921 0.86483 0.0
C801 C 0.1293 0.42186 0.89256 0.0
C802 C 0.11033 0.39621 0.91361 0.0
C803 C 0.10873 0.35715 0.90663 0.0
H804 H 0.72311 0.16277 0.83005 0.0
H805 H 0.64533 0.22947 0.79207 0.0
H806 H 0.59912 0.19529 0.82597 0.0
H807 H 0.65895 0.07497 0.83147 0.0
H808 H 0.6805 0.06165 0.87023 0.0
H809 H 0.70706 0.09101 0.84256 0.0
H810 H 0.72872 0.14114 0.8925 0.0
H811 H 0.70225 0.11189 0.9203 0.0
H812 H 0.69544 0.1594 0.91564 0.0
H813 H 0.55953 0.15145 0.86593 0.0
H814 H 0.53409 0.10616 0.90671 0.0
H815 H 0.6379 0.06914 0.91925 0.0
C816 C 0.69633 0.1702 0.82864 0.0
C817 C 0.68839 0.19921 0.80776 0.0
C818 C 0.6527 0.20765 0.80741 0.0
C819 C 0.626 0.18817 0.82677 0.0
C820 C 0.63474 0.15986 0.847 0.0
C821 C 0.66927 0.15105 0.84805 0.0
C822 C 0.67214 0.11996 0.87221 0.0
C823 C 0.68014 0.08482 0.85297 0.0
C824 C 0.70138 0.13394 0.90192 0.0
C825 C 0.63406 0.11252 0.88457 0.0
C826 C 0.61266 0.13565 0.86976 0.0
C827 C 0.57641 0.13342 0.87756 0.0
C828 C 0.56197 0.1074 0.90096 0.0
C829 C 0.58346 0.08352 0.9169 0.0
C830 C 0.62012 0.08655 0.90801 0.0
H831 H 0.79771 0.66954 0.8282 0.0
H832 H 0.88554 0.74878 0.79288 0.0
H833 H 0.93044 0.7165 0.82187 0.0
H834 H 0.84309 0.66529 0.9114 0.0
H835 H 0.82604 0.616 0.91472 0.0
H836 H 0.8001 0.64325 0.88897 0.0
H837 H 0.79931 0.59632 0.83721 0.0
H838 H 0.82561 0.56911 0.86273 0.0
H839 H 0.84174 0.58658 0.82387 0.0
H840 H 0.96658 0.6774 0.85524 0.0
H841 H 0.99199 0.63823 0.89635 0.0
H842 H 0.88257 0.5841 0.91354 0.0
C843 C 0.82639 0.67985 0.8264 0.0
C844 C 0.83791 0.71183 0.80799 0.0
C845 C 0.8758 0.7246 0.80678 0.0
C846 C 0.90166 0.70623 0.82302 0.0
C847 C 0.88959 0.67503 0.84091 0.0
C848 C 0.85292 0.66207 0.84316 0.0
C849 C 0.84786 0.62941 0.86622 0.0
C850 C 0.82811 0.63907 0.89716 0.0
C851 C 0.82741 0.59321 0.84631 0.0
C852 C 0.88734 0.62649 0.87674 0.0
C853 C 0.91079 0.65279 0.86127 0.0
C854 C 0.94847 0.65662 0.86744 0.0
C855 C 0.9627 0.63398 0.89084 0.0
C856 C 0.93955 0.6076 0.90824 0.0
C857 C 0.90121 0.60338 0.90037 0.0
H858 H 0.23457 0.35511 0.18003 0.0
H859 H 0.15071 0.2597 0.1953 0.0
H860 H 0.10612 0.28625 0.15957 0.0
H861 H 0.17568 0.42607 0.17883 0.0
H862 H 0.19729 0.45096 0.1455 0.0
H863 H 0.22305 0.42596 0.17384 0.0
H864 H 0.24051 0.38822 0.12242 0.0
H865 H 0.21496 0.41316 0.09391 0.0
H866 H 0.2051 0.36253 0.09202 0.0
H867 H 0.07046 0.32111 0.12144 0.0
H868 H 0.0462 0.36048 0.0801 0.0
H869 H 0.15164 0.43464 0.08657 0.0
C870 C 0.20675 0.33999 0.17602 0.0
C871 C 0.19631 0.30516 0.19075 0.0
C872 C 0.15965 0.28622 0.18443 0.0
C873 C 0.13394 0.30121 0.16421 0.0
C874 C 0.145 0.33529 0.15005 0.0
C875 C 0.18052 0.35448 0.15539 0.0
C876 C 0.18512 0.38983 0.13559 0.0
C877 C 0.19593 0.42531 0.1599 0.0
C878 C 0.21308 0.38833 0.10943 0.0
C879 C 0.14674 0.38715 0.11813 0.0
C880 C 0.12417 0.35553 0.12729 0.0
C881 C 0.08787 0.346 0.11415 0.0
C882 C 0.07429 0.36878 0.09056 0.0
C883 C 0.09664 0.40117 0.07994 0.0
C884 C 0.13345 0.41061 0.09442 0.0
H885 H 0.17065 0.64212 0.79911 0.0
H886 H 0.07466 0.68786 0.76866 0.0
H887 H 0.03806 0.64268 0.80299 0.0
H888 H 0.12372 0.54277 0.80548 0.0
H889 H 0.1538 0.53779 0.84226 0.0
H890 H 0.17009 0.56792 0.80984 0.0
H891 H 0.18981 0.62355 0.85535 0.0
H892 H 0.17355 0.59385 0.8878 0.0
H893 H 0.15665 0.63682 0.88188 0.0
H894 H 1.01491 0.59939 0.84676 0.0
H895 H 1.00723 0.5633 0.8977 0.0
H896 H 0.11989 0.54877 0.90007 0.0
C897 C 0.14182 0.64225 0.79932 0.0
C898 C 0.12531 0.66843 0.78173 0.0
C899 C 0.0875 0.66767 0.78203 0.0
C900 C 0.06663 0.64211 0.80125 0.0
C901 C 0.08412 0.61737 0.81931 0.0
C902 C 0.12086 0.6171 0.81822 0.0
C903 C 0.13437 0.59127 0.84289 0.0
C904 C 0.14617 0.55796 0.82398 0.0
C905 C 0.16539 0.61267 0.86849 0.0
C906 C 0.10002 0.5788 0.85963 0.0
C907 C 0.07105 0.59322 0.84513 0.0
C908 C 0.03727 0.58766 0.85815 0.0
C909 C 0.0333 0.56755 0.88727 0.0
C910 C 0.06321 0.55402 0.9032 0.0
C911 C 0.09654 0.55885 0.88854 0.0
H912 H 0.29513 0.16289 0.86755 0.0
H913 H 0.27022 0.06649 0.79464 0.0
H914 H 0.33147 0.05142 0.81005 0.0
H915 H 0.38827 0.19056 0.85064 0.0
H916 H 0.40403 0.20573 0.89432 0.0
H917 H 0.35825 0.20828 0.87814 0.0
H918 H 0.3313 0.16748 0.92516 0.0
H919 H 0.37693 0.16688 0.94263 0.0
H920 H 0.34558 0.12325 0.93169 0.0
H921 H 0.3936 0.04578 0.83635 0.0
H922 H 0.44608 0.0436 0.87773 0.0
H923 H 0.43279 0.14848 0.92782 0.0
C924 C 0.30215 0.13789 0.85563 0.0
C925 C 0.27775 0.11494 0.83081 0.0
C926 C 0.28838 0.08354 0.81449 0.0
C927 C 0.32322 0.07539 0.82256 0.0
C928 C 0.34718 0.09972 0.84618 0.0
C929 C 0.33685 0.13009 0.86268 0.0
C930 C 0.36691 0.15143 0.88775 0.0
C931 C 0.38014 0.19136 0.87704 0.0
C932 C 0.35446 0.15226 0.92393 0.0
C933 C 0.39549 0.12732 0.8841 0.0
C934 C 0.38391 0.09798 0.8595 0.0
C935 C 0.40338 0.06903 0.85505 0.0
C936 C 0.43355 0.06833 0.87822 0.0
C937 C 0.44377 0.0965 0.90512 0.0
C938 C 0.42638 0.12772 0.90643 0.0
H939 H 0.81375 0.37836 0.81722 0.0
H940 H 0.78737 0.27598 0.86873 0.0
H941 H 0.81118 0.31046 0.92373 0.0
H942 H 0.89675 0.40507 0.85705 0.0
H943 H 0.89782 0.45507 0.86017 0.0
H944 H 0.86844 0.426 0.82739 0.0
H945 H 0.8132 0.4516 0.84833 0.0
H946 H 0.84265 0.48048 0.88168 0.0
H947 H 0.80345 0.44791 0.89202 0.0
H948 H 0.8484 0.35012 0.96933 0.0
H949 H 0.90338 0.38857 6e-05 0.0
H950 H 0.90923 0.46647 0.92065 0.0
C951 C 0.81184 0.36384 0.84042 0.0
C952 C 0.79847 0.32488 0.83922 0.0
C953 C 0.79743 0.30598 0.8695 0.0
C954 C 0.81044 0.32546 0.90081 0.0
C955 C 0.82468 0.36377 0.90133 0.0
C956 C 0.8257 0.38283 0.87187 0.0
C957 C 0.84914 0.42164 0.87827 0.0
C958 C 0.87985 0.42722 0.85434 0.0
C959 C 0.82571 0.45222 0.87488 0.0
C960 C 0.86379 0.42003 0.915 0.0
C961 C 0.84779 0.38712 0.92824 0.0
C962 C 0.86039 0.37645 0.95972 0.0
C963 C 0.8916 0.39846 0.97708 0.0
C964 C 0.90991 0.4306 0.96282 0.0
C965 C 0.89471 0.44275 0.9325 0.0
H966 H 0.67307 0.78504 0.81625 0.0
H967 H 0.78123 0.84566 0.85246 0.0
H968 H 0.75518 0.88097 0.89602 0.0
H969 H 0.62877 0.86277 0.82449 0.0
H970 H 0.58748 0.83725 0.83861 0.0
H971 H 0.61441 0.81338 0.81227 0.0
H972 H 0.61893 0.76484 0.85741 0.0
H973 H 0.59175 0.78841 0.88382 0.0
H974 H 0.63591 0.78099 0.90062 0.0
H975 H 0.71824 0.91336 0.93237 0.0
H976 H 0.67223 0.94036 0.96105 0.0
H977 H 0.5864 0.86014 0.90251 0.0
C978 C 0.69125 0.80511 0.83392 0.0
C979 C 0.72929 0.81238 0.83106 0.0
C980 C 0.75209 0.83952 0.85414 0.0
C981 C 0.73754 0.85973 0.87905 0.0
C982 C 0.70001 0.85267 0.8807 0.0
C983 C 0.67706 0.82594 0.85898 0.0
C984 C 0.63748 0.82572 0.86527 0.0
C985 C 0.61576 0.83536 0.83325 0.0
C986 C 0.61999 0.78773 0.87752 0.0
C987 C 0.64193 0.85692 0.89346 0.0
C988 C 0.67833 0.8718 0.90194 0.0
C989 C 0.68964 0.90173 0.92619 0.0
C990 C 0.66315 0.91701 0.94228 0.0
C991 C 0.6255 0.90249 0.93422 0.0
C992 C 0.61488 0.87176 0.90953 0.0
H993 H 0.83129 0.68694 0.18548 0.0
H994 H 0.85918 0.80004 0.15293 0.0
H995 H 0.8939 0.7763 0.10822 0.0
H996 H 0.91494 0.65653 0.1724 0.0
H997 H 0.89323 0.60959 0.15684 0.0
H998 H 0.87169 0.63595 0.18638 0.0
H999 H 0.81358 0.6265 0.14421 0.0
H1000 H 0.83495 0.60016 0.11449 0.0
H1001 H 0.81706 0.64069 0.10143 0.0
H1002 H 0.92816 0.73984 0.06911 0.0
H1003 H 0.95503 0.69379 0.0359 0.0
H1004 H 0.90002 0.60382 0.09134 0.0
C1005 C 0.84493 0.70688 0.16913 0.0
C1006 C 0.84306 0.74552 0.17298 0.0
C1007 C 0.86051 0.77043 0.15055 0.0
C1008 C 0.88026 0.75715 0.12515 0.0
C1009 C 0.88158 0.71881 0.12218 0.0
C1010 C 0.86395 0.69401 0.14335 0.0
C1011 C 0.86836 0.65399 0.13434 0.0
C1012 C 0.88824 0.63809 0.16427 0.0
C1013 C 0.83128 0.62886 0.12294 0.0
C1014 C 0.89175 0.66001 0.10496 0.0
C1015 C 0.89937 0.69765 0.09854 0.0
C1016 C 0.92198 0.71032 0.0737 0.0
C1017 C 0.93719 0.68396 0.05503 0.0
C1018 C 0.92931 0.6452 0.06082 0.0
C1019 C 0.90601 0.63315 0.08596 0.0
H1020 H 0.3037 0.8541 0.17026 0.0
H1021 H 0.38841 0.7968 0.2104 0.0
H1022 H 0.43168 0.83261 0.1747 0.0
H1023 H 0.33008 0.85617 0.08391 0.0
H1024 H 0.31932 0.90194 0.07743 0.0
H1025 H 0.29531 0.8723 0.10654 0.0
H1026 H 0.31387 0.92518 0.15456 0.0
H1027 H 0.33796 0.95496 0.12559 0.0
H1028 H 0.36135 0.94526 0.16487 0.0
H1029 H 0.46749 0.87723 0.13326 0.0
H1030 H 0.48902 0.92253 0.09101 0.0
H1031 H 0.38136 0.94948 0.07644 0.0
C1032 C 0.33138 0.84906 0.17174 0.0
C1033 C 0.34217 0.82224 0.19386 0.0
C1034 C 0.37891 0.81692 0.19422 0.0
C1035 C 0.40392 0.83734 0.17382 0.0
C1036 C 0.39242 0.86346 0.15248 0.0
C1037 C 0.35682 0.8692 0.15127 0.0
C1038 C 0.35107 0.89847 0.12582 0.0
C1039 C 0.32223 0.88119 0.0967 0.0
C1040 C 0.34043 0.93301 0.14378 0.0
C1041 C 0.3888 0.90842 0.11291 0.0
C1042 C 0.41242 0.88805 0.12864 0.0
C1043 C 0.4488 0.89294 0.12084 0.0
C1044 C 0.46106 0.91877 0.09655 0.0
C1045 C 0.43753 0.93982 0.07958 0.0
C1046 C 0.4007 0.93421 0.08844 0.0
H1047 H 0.71708 0.23142 0.14337 0.0
H1048 H 0.74561 0.14273 0.20319 0.0
H1049 H 0.71258 0.09505 0.15887 0.0
H1050 H 0.62976 0.19019 0.12264 0.0
H1051 H 0.62519 0.20587 0.08027 0.0
H1052 H 0.65835 0.23256 0.11176 0.0
H1053 H 0.70946 0.22762 0.07238 0.0
H1054 H 0.67631 0.20099 0.04049 0.0
H1055 H 0.71549 0.18209 0.05579 0.0
H1056 H 0.66837 0.05757 0.11289 0.0
H1057 H 0.61463 0.03387 0.07192 0.0
H1058 H 0.61377 0.14756 0.04312 0.0
C1059 C 0.71779 0.20197 0.14613 0.0
C1060 C 0.73478 0.19044 0.17578 0.0
C1061 C 0.73361 0.15181 0.17992 0.0
C1062 C 0.71493 0.12466 0.15492 0.0
C1063 C 0.69748 0.1368 0.12613 0.0
C1064 C 0.6989 0.17465 0.1216 0.0
C1065 C 0.67346 0.18046 0.09141 0.0
C1066 C 0.64502 0.2036 0.10219 0.0
C1067 C 0.69498 0.19887 0.06335 0.0
C1068 C 0.65618 0.14012 0.08062 0.0
C1069 C 0.67098 0.11524 0.10033 0.0
C1070 C 0.65705 0.07671 0.09687 0.0
C1071 C 0.62655 0.06347 0.07345 0.0
C1072 C 0.60998 0.08883 0.05427 0.0
C1073 C 0.62593 0.12739 0.05721 0.0
H1074 H 0.68463 0.62713 0.80772 0.0
H1075 H 0.59273 0.64548 0.74118 0.0
H1076 H 0.55036 0.6125 0.7797 0.0
H1077 H 0.64516 0.53557 0.83319 0.0
H1078 H 0.66677 0.54596 0.87596 0.0
H1079 H 0.68808 0.56766 0.84105 0.0
H1080 H 0.6902 0.63324 0.87171 0.0
H1081 H 0.66835 0.6116 0.90635 0.0
H1082 H 0.64857 0.64619 0.88394 0.0
H1083 H 0.51869 0.58122 0.83008 0.0
H1084 H 0.50225 0.55249 0.88388 0.0
H1085 H 0.61713 0.55797 0.91447 0.0
C1086 C 0.65558 0.62391 0.80108 0.0
C1087 C 0.64183 0.63879 0.77175 0.0
C1088 C 0.60367 0.63381 0.76355 0.0
C1089 C 0.57951 0.61539 0.78534 0.0
C1090 C 0.5942 0.60204 0.81486 0.0
C1091 C 0.63147 0.60592 0.82235 0.0
C1092 C 0.64115 0.591 0.85592 0.0
C1093 C 0.66147 0.55806 0.85122 0.0
C1094 C 0.66336 0.62238 0.88094 0.0
C1095 C 0.60357 0.57809 0.86648 0.0
C1096 C 0.57654 0.58454 0.84284 0.0
C1097 C 0.53973 0.57575 0.84856 0.0
C1098 C 0.53061 0.5597 0.87915 0.0
C1099 C 0.55831 0.55285 0.9033 0.0
C1100 C 0.59505 0.56233 0.89655 0.0
H1101 H 0.28025 0.67136 0.83034 0.0
H1102 H 0.36101 0.70218 0.7591 0.0
H1103 H 0.40098 0.6647 0.78764 0.0
H1104 H 0.34285 0.67586 0.90296 0.0
H1105 H 0.31907 0.63563 0.92197 0.0
H1106 H 0.29418 0.66191 0.89421 0.0
H1107 H 0.26787 0.60126 0.85631 0.0
H1108 H 0.2927 0.57472 0.88398 0.0
H1109 H 0.29845 0.57354 0.83917 0.0
H1110 H 0.43646 0.63174 0.82726 0.0
H1111 H 0.46348 0.60096 0.87473 0.0
H1112 H 0.36073 0.58582 0.91969 0.0
C1113 C 0.30596 0.66945 0.82037 0.0
C1114 C 0.31729 0.69009 0.79238 0.0
C1115 C 0.35153 0.68712 0.78056 0.0
C1116 C 0.3746 0.66567 0.79654 0.0
C1117 C 0.36333 0.64662 0.82445 0.0
C1118 C 0.32973 0.64776 0.8362 0.0
C1119 C 0.32567 0.62573 0.86791 0.0
C1120 C 0.32012 0.65131 0.89857 0.0
C1121 C 0.2943 0.5918 0.86145 0.0
C1122 C 0.36249 0.61318 0.87236 0.0
C1123 C 0.38367 0.62564 0.84685 0.0
C1124 C 0.41985 0.62087 0.8469 0.0
C1125 C 0.43502 0.60325 0.87389 0.0
C1126 C 0.41395 0.58978 0.90019 0.0
C1127 C 0.37703 0.59446 0.89914 0.0
H1128 H 0.33445 0.34826 0.81257 0.0
H1129 H 0.30723 0.24548 0.86407 0.0
H1130 H 0.32908 0.28056 0.91923 0.0
H1131 H 0.4157 0.38403 0.86105 0.0
H1132 H 0.40979 0.4323 0.86083 0.0
H1133 H 0.38842 0.39919 0.82662 0.0
H1134 H 0.32599 0.41664 0.83795 0.0
H1135 H 0.34731 0.44894 0.87309 0.0
H1136 H 0.31003 0.41186 0.87954 0.0
H1137 H 0.35939 0.32459 0.96715 0.0
H1138 H 0.40402 0.37196 0.00289 0.0
H1139 H 0.40815 0.44699 0.92098 0.0
C1140 C 0.33309 0.3331 0.83544 0.0
C1141 C 0.31944 0.29418 0.83412 0.0
C1142 C 0.31787 0.27534 0.86457 0.0
C1143 C 0.32965 0.2951 0.89602 0.0
C1144 C 0.34219 0.33369 0.8965 0.0
C1145 C 0.34423 0.35243 0.86699 0.0
C1146 C 0.36194 0.3932 0.87405 0.0
C1147 C 0.39598 0.4027 0.85452 0.0
C1148 C 0.33468 0.41919 0.86566 0.0
C1149 C 0.37164 0.39395 0.91197 0.0
C1150 C 0.35905 0.3596 0.92459 0.0
C1151 C 0.36873 0.35185 0.95785 0.0
C1152 C 0.39398 0.37892 0.97799 0.0
C1153 C 0.4092 0.41299 0.96456 0.0
C1154 C 0.39609 0.42156 0.93207 0.0
H1155 H 0.68319 0.40631 0.79244 0.0
H1156 H 0.60536 0.30354 0.7643 0.0
H1157 H 0.57929 0.30913 0.8193 0.0
H1158 H 0.70213 0.39004 0.87616 0.0
H1159 H 0.70518 0.43754 0.89367 0.0
H1160 H 0.71512 0.429 0.8505 0.0
H1161 H 0.66657 0.46669 0.82832 0.0
H1162 H 0.65723 0.47644 0.87151 0.0
H1163 H 0.62072 0.45492 0.84028 0.0
H1164 H 0.56867 0.32027 0.87974 0.0
H1165 H 0.56135 0.34539 0.93706 0.0
H1166 H 0.64443 0.44305 0.92546 0.0
C1167 C 0.65949 0.38606 0.79713 0.0
C1168 C 0.64603 0.35453 0.77414 0.0
C1169 C 0.61569 0.32797 0.78161 0.0
C1170 C 0.60112 0.33067 0.81288 0.0
C1171 C 0.61689 0.36051 0.83604 0.0
C1172 C 0.64448 0.3885 0.82817 0.0
C1173 C 0.65693 0.41715 0.858 0.0
C1174 C 0.69722 0.41848 0.87029 0.0
C1175 C 0.64992 0.4561 0.84896 0.0
C1176 C 0.63216 0.40068 0.8839 0.0
C1177 C 0.60986 0.36763 0.87082 0.0
C1178 C 0.58539 0.34656 0.89006 0.0
C1179 C 0.58174 0.36099 0.92279 0.0
C1180 C 0.60189 0.3966 0.93569 0.0
C1181 C 0.62856 0.41584 0.91644 0.0
H1182 H 0.66576 0.30388 0.18811 0.0
H1183 H 0.76734 0.38412 0.19745 0.0
H1184 H 0.7365 0.42913 0.16641 0.0
H1185 H 0.63836 0.32332 0.10243 0.0
H1186 H 0.59056 0.3163 0.10859 0.0
H1187 H 0.6203 0.29183 0.13319 0.0
H1188 H 0.59961 0.31915 0.1886 0.0
H1189 H 0.57021 0.34421 0.16416 0.0
H1190 H 0.60423 0.36933 0.19609 0.0
H1191 H 0.69386 0.46587 0.13554 0.0
H1192 H 0.64674 0.48761 0.09872 0.0
H1193 H 0.57343 0.3816 0.10573 0.0
C1194 C 0.68148 0.33101 0.18368 0.0
C1195 C 0.71893 0.3407 0.19544 0.0
C1196 C 0.73871 0.37613 0.18863 0.0
C1197 C 0.7213 0.40195 0.17128 0.0
C1198 C 0.68421 0.3917 0.16043 0.0
C1199 C 0.66473 0.35673 0.16575 0.0
C1200 C 0.62588 0.35156 0.14929 0.0
C1201 C 0.61834 0.31883 0.12174 0.0
C1202 C 0.59836 0.34572 0.17615 0.0
C1203 C 0.62643 0.38913 0.13386 0.0
C1204 C 0.66016 0.41209 0.14117 0.0
C1205 C 0.66746 0.44801 0.12953 0.0
C1206 C 0.64027 0.4602 0.1087 0.0
C1207 C 0.60611 0.43642 0.09902 0.0
C1208 C 0.59894 0.40075 0.11275 0.0
H1209 H 0.68103 0.73477 0.16 0.0
H1210 H 0.73377 0.64524 0.19664 0.0
H1211 H 0.70281 0.60298 0.14792 0.0
H1212 H 0.59526 0.6766 0.1335 0.0
H1213 H 0.58658 0.70259 0.09704 0.0
H1214 H 0.61469 0.72585 0.13379 0.0
H1215 H 0.66642 0.74718 0.09549 0.0
H1216 H 0.63872 0.7231 0.05872 0.0
H1217 H 0.6832 0.71248 0.06997 0.0
H1218 H 0.66596 0.57051 0.09603 0.0
H1219 H 0.61776 0.54656 0.05021 0.0
H1220 H 0.58834 0.65703 0.04789 0.0
C1221 C 0.68593 0.70622 0.15781 0.0
C1222 C 0.70969 0.69318 0.18198 0.0
C1223 C 0.71535 0.65563 0.17849 0.0
C1224 C 0.69832 0.63161 0.15069 0.0
C1225 C 0.67572 0.64563 0.12684 0.0
C1226 C 0.66896 0.6818 0.13043 0.0
C1227 C 0.64144 0.68905 0.10261 0.0
C1228 C 0.60748 0.69908 0.11764 0.0
C1229 C 0.65848 0.71978 0.08038 0.0
C1230 C 0.63317 0.65097 0.0832 0.0
C1231 C 0.65385 0.62662 0.09716 0.0
C1232 C 0.64968 0.58932 0.08477 0.0
C1233 C 0.62222 0.57599 0.05861 0.0
C1234 C 0.59897 0.59975 0.04557 0.0
C1235 C 0.60575 0.63814 0.05704 0.0
H1236 H 0.41896 0.69531 0.22012 0.0
H1237 H 0.33477 0.60397 0.24197 0.0
H1238 H 0.33661 0.57305 0.18508 0.0
H1239 H 0.38625 0.70424 0.13977 0.0
H1240 H 0.429 0.71408 0.12123 0.0
H1241 H 0.42724 0.72559 0.1658 0.0
H1242 H 0.47575 0.68521 0.18218 0.0
H1243 H 0.47925 0.67523 0.1376 0.0
H1244 H 0.46941 0.6372 0.16496 0.0
H1245 H 0.33872 0.55976 0.1226 0.0
H1246 H 0.35417 0.5534 0.0636 0.0
H1247 H 0.43744 0.65417 0.08266 0.0
C1248 C 0.40261 0.66771 0.21351 0.0
C1249 C 0.37721 0.65158 0.23531 0.0
C1250 C 0.35504 0.61612 0.22578 0.0
C1251 C 0.35543 0.59882 0.19333 0.0
C1252 C 0.37856 0.61726 0.17125 0.0
C1253 C 0.40278 0.65018 0.18133 0.0
C1254 C 0.42338 0.6654 0.15223 0.0
C1255 C 0.41601 0.70464 0.14432 0.0
C1256 C 0.46438 0.66576 0.15968 0.0
C1257 C 0.4064 0.63632 0.12401 0.0
C1258 C 0.3803 0.60911 0.13539 0.0
C1259 C 0.35991 0.58021 0.11362 0.0
C1260 C 0.36852 0.57727 0.07994 0.0
C1261 C 0.39746 0.60301 0.06851 0.0
C1262 C 0.41535 0.63389 0.09053 0.0
H1263 H 0.34127 0.41832 0.21012 0.0
H1264 H 0.43381 0.37879 0.25823 0.0
H1265 H 0.47301 0.40983 0.21648 0.0
H1266 H 0.35655 0.40001 0.12986 0.0
H1267 H 0.3427 0.44067 0.11224 0.0
H1268 H 0.32433 0.42321 0.15001 0.0
H1269 H 0.34684 0.48829 0.18258 0.0
H1270 H 0.3647 0.50622 0.14456 0.0
H1271 H 0.39404 0.51035 0.18352 0.0
H1272 H 0.49833 0.43492 0.16288 0.0
H1273 H 0.50858 0.45625 0.10535 0.0
H1274 H 0.39845 0.479 0.09418 0.0
C1275 C 0.37013 0.41766 0.21252 0.0
C1276 C 0.38488 0.39674 0.23716 0.0
C1277 C 0.42247 0.39545 0.23965 0.0
C1278 C 0.44476 0.41282 0.21604 0.0
C1279 C 0.42893 0.43186 0.19081 0.0
C1280 C 0.39258 0.43511 0.1895 0.0
C1281 C 0.38094 0.45354 0.15822 0.0
C1282 C 0.3493 0.42781 0.13631 0.0
C1283 C 0.37107 0.49188 0.16783 0.0
C1284 C 0.41572 0.45808 0.14101 0.0
C1285 C 0.44338 0.44609 0.16024 0.0
C1286 C 0.4771 0.44515 0.14793 0.0
C1287 C 0.48259 0.457 0.11518 0.0
C1288 C 0.45427 0.46904 0.0952 0.0
C1289 C 0.42071 0.46989 0.10866 0.0
H1290 H 0.79884 0.67201 0.6739 0.0
H1291 H 0.85341 0.78705 0.66609 0.0
H1292 H 0.89331 0.76497 0.62635 0.0
H1293 H 0.87749 0.63154 0.6742 0.0
H1294 H 0.85671 0.58922 0.64884 0.0
H1295 H 0.8294 0.61371 0.67419 0.0
H1296 H 0.78617 0.61856 0.62073 0.0
H1297 H 0.81319 0.59377 0.59521 0.0
H1298 H 0.80469 0.63917 0.58397 0.0
H1299 H 0.93123 0.73129 0.5926 0.0
H1300 H 0.96347 0.68763 0.56324 0.0
H1301 H 0.8849 0.59307 0.59019 0.0
C1302 C 0.81858 0.69254 0.66313 0.0
C1303 C 0.82282 0.73133 0.67308 0.0
C1304 C 0.84953 0.75724 0.65893 0.0
C1305 C 0.87238 0.74498 0.63625 0.0
C1306 C 0.86823 0.70663 0.62768 0.0
C1307 C 0.84185 0.6807 0.64029 0.0
C1308 C 0.84473 0.64092 0.62797 0.0
C1309 C 0.85255 0.61748 0.6581 0.0
C1310 C 0.81013 0.62199 0.60564 0.0
C1311 C 0.87726 0.64869 0.6071 0.0
C1312 C 0.8902 0.68688 0.6074 0.0
C1313 C 0.9211 0.70134 0.59177 0.0
C1314 C 0.93937 0.67622 0.57531 0.0
C1315 C 0.92673 0.63688 0.57428 0.0
C1316 C 0.89496 0.62298 0.59017 0.0
H1317 H 0.40206 0.80228 0.64896 0.0
H1318 H 0.47018 0.85762 0.73769 0.0
H1319 H 0.51089 0.89305 0.70088 0.0
H1320 H 0.47752 0.81439 0.58471 0.0
H1321 H 0.44415 0.82416 0.55257 0.0
H1322 H 0.43087 0.79045 0.58328 0.0
H1323 H 0.38087 0.82745 0.59924 0.0
H1324 H 0.39458 0.86168 0.56965 0.0
H1325 H 0.39373 0.87642 0.6138 0.0
H1326 H 0.53177 0.93631 0.65848 0.0
H1327 H 0.53248 0.98096 0.61311 0.0
H1328 H 0.44615 0.9036 0.55338 0.0
C1329 C 0.42619 0.82093 0.66059 0.0
C1330 C 0.43231 0.82777 0.69614 0.0
C1331 C 0.46466 0.85174 0.7105 0.0
C1332 C 0.4882 0.87202 0.68969 0.0
C1333 C 0.47905 0.86786 0.65471 0.0
C1334 C 0.4491 0.84221 0.64011 0.0
C1335 C 0.43992 0.8491 0.60333 0.0
C1336 C 0.44866 0.81766 0.57957 0.0
C1337 C 0.39995 0.85399 0.59616 0.0
C1338 C 0.46618 0.8853 0.60101 0.0
C1339 C 0.48986 0.89461 0.63017 0.0
C1340 C 0.514 0.9289 0.63523 0.0
C1341 C 0.51387 0.95422 0.60978 0.0
C1342 C 0.48866 0.94547 0.58074 0.0
C1343 C 0.46516 0.91058 0.57591 0.0
H1344 H 0.24626 0.41474 0.67284 0.0
H1345 H 0.23918 0.30397 0.6236 0.0
H1346 H 0.17734 0.30618 0.5975 0.0
H1347 H 0.15527 0.40603 0.69159 0.0
H1348 H 0.14991 0.45283 0.68171 0.0
H1349 H 0.19423 0.44372 0.696 0.0
H1350 H 0.22125 0.47005 0.64186 0.0
H1351 H 0.17762 0.48136 0.62873 0.0
H1352 H 0.19858 0.45264 0.60063 0.0
H1353 H 0.11512 0.31789 0.58141 0.0
H1354 H 0.06496 0.3473 0.55803 0.0
H1355 H 0.11346 0.45195 0.61529 0.0
C1356 C 0.23222 0.39188 0.65522 0.0
C1357 C 0.24733 0.35954 0.64949 0.0
C1358 C 0.22811 0.32938 0.62723 0.0
C1359 C 0.19277 0.32999 0.61316 0.0
C1360 C 0.17758 0.36127 0.62122 0.0
C1361 C 0.19723 0.3924 0.64037 0.0
C1362 C 0.17532 0.42344 0.64325 0.0
C1363 C 0.16828 0.43199 0.68035 0.0
C1364 C 0.1943 0.45895 0.62767 0.0
C1365 C 0.14052 0.40503 0.62222 0.0
C1366 C 0.1419 0.36861 0.61093 0.0
C1367 C 0.11367 0.34641 0.58992 0.0
C1368 C 0.08489 0.36313 0.57728 0.0
C1369 C 0.08565 0.40184 0.58489 0.0
C1370 C 0.11217 0.42215 0.60961 0.0
H1371 H 0.71834 0.14627 0.68503 0.0
H1372 H 0.74197 0.25129 0.6369 0.0
H1373 H 0.72025 0.21827 0.58086 0.0
H1374 H 0.73407 0.08122 0.60981 0.0
H1375 H 0.69566 0.0463 0.618 0.0
H1376 H 0.72255 0.07531 0.65278 0.0
H1377 H 0.66453 0.09675 0.672 0.0
H1378 H 0.6377 0.06743 0.63778 0.0
H1379 H 0.63608 0.11687 0.64183 0.0
H1380 H 0.68603 0.17861 0.53335 0.0
H1381 H 0.63444 0.13771 0.49962 0.0
H1382 H 0.63008 0.05706 0.57666 0.0
C1383 C 0.72002 0.1618 0.66238 0.0
C1384 C 0.7321 0.20106 0.66488 0.0
C1385 C 0.73286 0.2211 0.63521 0.0
C1386 C 0.72103 0.20249 0.6033 0.0
C1387 C 0.70826 0.16382 0.60151 0.0
C1388 C 0.70739 0.14363 0.63028 0.0
C1389 C 0.68597 0.10405 0.62226 0.0
C1390 C 0.71106 0.075 0.62592 0.0
C1391 C 0.65419 0.09584 0.64477 0.0
C1392 C 0.67258 0.10618 0.58523 0.0
C1393 C 0.68718 0.14041 0.57344 0.0
C1394 C 0.67521 0.15131 0.54183 0.0
C1395 C 0.646 0.12787 0.52272 0.0
C1396 C 0.62909 0.09403 0.53532 0.0
C1397 C 0.64374 0.08207 0.56599 0.0
H1398 H 0.80104 0.30492 0.36614 0.0
H1399 H 0.78527 0.39415 0.30138 0.0
H1400 H 0.81898 0.4413 0.3457 0.0
H1401 H 0.80354 0.35956 0.45216 0.0
H1402 H 0.83956 0.33726 0.46966 0.0
H1403 H 0.80555 0.31202 0.43774 0.0
H1404 H 0.85641 0.29941 0.40047 0.0
H1405 H 0.89039 0.32457 0.43204 0.0
H1406 H 0.88894 0.33856 0.38895 0.0
H1407 H 0.86336 0.47705 0.39191 0.0
H1408 H 0.91822 0.49727 0.43242 0.0
H1409 H 0.90735 0.38418 0.46582 0.0
C1410 C 0.80309 0.33456 0.36229 0.0
C1411 C 0.78958 0.34633 0.33121 0.0
C1412 C 0.79454 0.385 0.32568 0.0
C1413 C 0.81359 0.41186 0.35071 0.0
C1414 C 0.82776 0.39942 0.3809 0.0
C1415 C 0.82267 0.36156 0.38677 0.0
C1416 C 0.84603 0.35475 0.41807 0.0
C1417 C 0.82224 0.34003 0.44607 0.0
C1418 C 0.87196 0.32777 0.40933 0.0
C1419 C 0.86654 0.39427 0.42781 0.0
C1420 C 0.85484 0.41988 0.40682 0.0
C1421 C 0.8723 0.45745 0.40895 0.0
C1422 C 0.90338 0.46875 0.4321 0.0
C1423 C 0.91703 0.4423 0.45221 0.0
C1424 C 0.89736 0.40509 0.45094 0.0
H1425 H 0.72538 0.84572 0.30563 0.0
H1426 H 0.69925 0.7322 0.33766 0.0
H1427 H 0.66414 0.75489 0.38247 0.0
H1428 H 0.73827 0.89165 0.39034 0.0
H1429 H 0.71957 0.93171 0.37728 0.0
H1430 H 0.74194 0.90624 0.34771 0.0
H1431 H 0.68423 0.89584 0.30497 0.0
H1432 H 0.66168 0.92131 0.33434 0.0
H1433 H 0.64106 0.87417 0.31841 0.0
H1434 H 0.62918 0.78986 0.42143 0.0
H1435 H 0.6002 0.8343 0.45417 0.0
H1436 H 0.65304 0.9261 0.39936 0.0
C1437 C 0.71208 0.8255 0.32192 0.0
C1438 C 0.71454 0.787 0.31788 0.0
C1439 C 0.69748 0.76169 0.3402 0.0
C1440 C 0.67754 0.77438 0.36567 0.0
C1441 C 0.6756 0.81256 0.36885 0.0
C1442 C 0.6928 0.83779 0.3478 0.0
C1443 C 0.68736 0.87748 0.35691 0.0
C1444 C 0.72396 0.90329 0.36877 0.0
C1445 C 0.66739 0.89311 0.32687 0.0
C1446 C 0.66365 0.87067 0.38604 0.0
C1447 C 0.65708 0.83297 0.39237 0.0
C1448 C 0.63449 0.81943 0.41691 0.0
C1449 C 0.61806 0.84492 0.43531 0.0
C1450 C 0.62454 0.88372 0.4295 0.0
C1451 C 0.64803 0.89674 0.40474 0.0
H1452 H 0.23687 0.66489 0.34019 0.0
H1453 H 0.15197 0.71633 0.29158 0.0
H1454 H 0.10726 0.68124 0.32634 0.0
H1455 H 0.18159 0.57309 0.3478 0.0
H1456 H 0.20294 0.56677 0.38909 0.0
H1457 H 0.22814 0.59547 0.36007 0.0
H1458 H 0.24174 0.65117 0.40569 0.0
H1459 H 0.21657 0.62261 0.43483 0.0
H1460 H 0.20452 0.66696 0.42468 0.0
H1461 H 0.06978 0.63742 0.36708 0.0
H1462 H 0.04645 0.59312 0.40949 0.0
H1463 H 0.15538 0.57269 0.43412 0.0
C1464 C 0.20886 0.66875 0.33667 0.0
C1465 C 0.19844 0.69372 0.31243 0.0
C1466 C 0.16124 0.69769 0.30948 0.0
C1467 C 0.13538 0.67766 0.32931 0.0
C1468 C 0.14651 0.65342 0.35282 0.0
C1469 C 0.18257 0.64914 0.3567 0.0
C1470 C 0.18767 0.62195 0.38429 0.0
C1471 C 0.20087 0.58726 0.36942 0.0
C1472 C 0.21421 0.64186 0.41414 0.0
C1473 C 0.14905 0.61133 0.39512 0.0
C1474 C 0.12555 0.62968 0.37663 0.0
C1475 C 0.08838 0.62353 0.38188 0.0
C1476 C 0.07513 0.5985 0.40645 0.0
C1477 C 0.09852 0.57967 0.4263 0.0
C1478 C 0.13618 0.58648 0.41998 0.0
H1479 H 0.29584 0.15118 0.32076 0.0
H1480 H 0.37394 0.2532 0.31075 0.0
H1481 H 0.42013 0.22917 0.34633 0.0
H1482 H 0.32432 0.14138 0.4087 0.0
H1483 H 0.31863 0.09086 0.40486 0.0
H1484 H 0.29129 0.11456 0.37682 0.0
H1485 H 0.31346 0.08202 0.32477 0.0
H1486 H 0.34099 0.05833 0.35272 0.0
H1487 H 0.36164 0.08668 0.32093 0.0
H1488 H 0.45772 0.19686 0.38411 0.0
H1489 H 0.48479 0.15839 0.42434 0.0
H1490 H 0.38472 0.07527 0.41269 0.0
C1491 C 0.32274 0.16827 0.32591 0.0
C1492 C 0.331 0.20427 0.31269 0.0
C1493 C 0.36656 0.22573 0.32041 0.0
C1494 C 0.39323 0.21224 0.34059 0.0
C1495 C 0.38432 0.17704 0.35328 0.0
C1496 C 0.35003 0.15521 0.34649 0.0
C1497 C 0.34789 0.11894 0.36489 0.0
C1498 C 0.31881 0.11629 0.39033 0.0
C1499 C 0.34056 0.08445 0.33929 0.0
C1500 C 0.38617 0.12425 0.38321 0.0
C1501 C 0.40654 0.15797 0.37573 0.0
C1502 C 0.44211 0.17029 0.39005 0.0
C1503 C 0.45733 0.14797 0.41297 0.0
C1504 C 0.43733 0.11328 0.42174 0.0
C1505 C 0.40116 0.10118 0.40623 0.0
H1506 H 0.74973 0.86875 0.67347 0.0
H1507 H 0.66233 0.78848 0.70821 0.0
H1508 H 0.61716 0.81763 0.67597 0.0
H1509 H 0.70148 0.94961 0.67194 0.0
H1510 H 0.7191 0.96585 0.63325 0.0
H1511 H 0.74546 0.94137 0.66155 0.0
H1512 H 0.74939 0.89275 0.61231 0.0
H1513 H 0.72332 0.91723 0.58386 0.0
H1514 H 0.70806 0.86794 0.58879 0.0
H1515 H 0.58096 0.85221 0.63829 0.0
H1516 H 0.55589 0.88712 0.59343 0.0
H1517 H 0.66484 0.946 0.58028 0.0
C1518 C 0.72107 0.85772 0.67458 0.0
C1519 C 0.70971 0.82626 0.69362 0.0
C1520 C 0.6719 0.81234 0.69385 0.0
C1521 C 0.64589 0.8289 0.67575 0.0
C1522 C 0.65779 0.85947 0.65708 0.0
C1523 C 0.69441 0.87372 0.65602 0.0
C1524 C 0.69937 0.90515 0.63166 0.0
C1525 C 0.71743 0.94273 0.65075 0.0
C1526 C 0.72133 0.89516 0.60242 0.0
C1527 C 0.65992 0.90568 0.61891 0.0
C1528 C 0.63653 0.87939 0.63446 0.0
C1529 C 0.599 0.87313 0.62617 0.0
C1530 C 0.58493 0.89339 0.60065 0.0
C1531 C 0.60809 0.91994 0.58343 0.0
C1532 C 0.64618 0.92659 0.59331 0.0
H1533 H 0.57639 0.20006 0.31392 0.0
H1534 H 0.63703 0.13781 0.2504 0.0
H1535 H 0.60844 0.07912 0.27266 0.0
H1536 H 0.58637 0.16774 0.38116 0.0
H1537 H 0.54204 0.16013 0.39687 0.0
H1538 H 0.55211 0.19375 0.36601 0.0
H1539 H 0.49701 0.16075 0.32695 0.0
H1540 H 0.48575 0.12382 0.35529 0.0
H1541 H 0.49306 0.11219 0.31209 0.0
H1542 H 0.59819 0.03722 0.3176 0.0
H1543 H 0.59491 0.01109 0.37368 0.0
H1544 H 0.53461 0.09589 0.40618 0.0
C1545 C 0.5818 0.17384 0.30314 0.0
C1546 C 0.60992 0.17354 0.28162 0.0
C1547 C 0.61656 0.13879 0.26801 0.0
C1548 C 0.59996 0.10515 0.2801 0.0
C1549 C 0.57562 0.10668 0.30466 0.0
C1550 C 0.56483 0.13991 0.31469 0.0
C1551 C 0.54296 0.13497 0.3452 0.0
C1552 C 0.55677 0.16595 0.37397 0.0
C1553 C 0.50231 0.13289 0.33423 0.0
C1554 C 0.54999 0.09696 0.35485 0.0
C1555 C 0.56726 0.08026 0.33019 0.0
C1556 C 0.58309 0.04895 0.33632 0.0
C1557 C 0.58176 0.03475 0.36844 0.0
C1558 C 0.56459 0.05178 0.39392 0.0
C1559 C 0.54732 0.08223 0.38665 0.0
H1560 H 0.85549 0.59927 0.30165 0.0
H1561 H 0.90829 0.71597 0.30347 0.0
H1562 H 0.96416 0.70058 0.32968 0.0
H1563 H 0.87439 0.58691 0.37598 0.0
H1564 H 0.88509 0.54035 0.3745 0.0
H1565 H 0.85704 0.55358 0.34031 0.0
H1566 H 0.90088 0.53741 0.29705 0.0
H1567 H 0.92901 0.52292 0.33127 0.0
H1568 H 0.9487 0.55753 0.30376 0.0
H1569 H 1.00094 0.68193 0.37527 0.0
H1570 H 1.01593 0.65989 0.43154 0.0
H1571 H 0.94268 0.55417 0.40333 0.0
C1572 C 0.87936 0.62113 0.30642 0.0
C1573 C 0.87715 0.65872 0.30108 0.0
C1574 C 0.90895 0.68677 0.30712 0.0
C1575 C 0.94123 0.67822 0.32193 0.0
C1576 C 0.94148 0.64153 0.33045 0.0
C1577 C 0.91162 0.61294 0.3219 0.0
C1578 C 0.91522 0.57843 0.34081 0.0
C1579 C 0.88094 0.56411 0.35899 0.0
C1580 C 0.924 0.54724 0.31679 0.0
C1581 C 0.94782 0.59458 0.36558 0.0
C1582 C 0.96399 0.63015 0.35788 0.0
C1583 C 0.98957 0.65358 0.38086 0.0
C1584 C 0.99757 0.64111 0.41297 0.0
C1585 C 0.97992 0.60561 0.42162 0.0
C1586 C 0.95634 0.5815 0.3971 0.0
H1587 H 0.31887 0.87738 0.31454 0.0
H1588 H 0.28902 0.77686 0.36779 0.0
H1589 H 0.31511 0.81136 0.42208 0.0
H1590 H 0.40177 0.90083 0.35121 0.0
H1591 H 0.40572 0.95122 0.35483 0.0
H1592 H 0.37384 0.92374 0.32291 0.0
H1593 H 0.32154 0.95245 0.34636 0.0
H1594 H 0.35353 0.98014 0.37861 0.0
H1595 H 0.31381 0.94962 0.3906 0.0
H1596 H 0.35746 0.84844 0.46539 0.0
H1597 H 0.41484 0.88458 0.49393 0.0
H1598 H 0.41932 0.96328 0.41512 0.0
C1599 C 0.31642 0.8635 0.33804 0.0
C1600 C 0.30172 0.82491 0.3375 0.0
C1601 C 0.30003 0.80664 0.36811 0.0
C1602 C 0.31444 0.82612 0.39903 0.0
C1603 C 0.33058 0.86383 0.39883 0.0
C1604 C 0.33147 0.88257 0.36916 0.0
C1605 C 0.35678 0.92042 0.3747 0.0
C1606 C 0.38626 0.92421 0.34945 0.0
C1607 C 0.33511 0.95256 0.37244 0.0
C1608 C 0.37275 0.91819 0.41089 0.0
C1609 C 0.35606 0.88601 0.42477 0.0
C1610 C 0.36991 0.87438 0.45542 0.0
C1611 C 0.40258 0.89497 0.47144 0.0
C1612 C 0.42088 0.92685 0.45684 0.0
C1613 C 0.40491 0.93969 0.42722 0.0
H1614 H 0.23911 0.34564 0.33394 0.0
H1615 H 0.1754 0.23284 0.3315 0.0
H1616 H 0.1371 0.25477 0.37318 0.0
H1617 H 0.23487 0.37047 0.42499 0.0
H1618 H 0.23077 0.41833 0.41806 0.0
H1619 H 0.25528 0.39335 0.39007 0.0
H1620 H 0.21393 0.40719 0.33831 0.0
H1621 H 0.18918 0.43202 0.3661 0.0
H1622 H 0.1652 0.39342 0.33767 0.0
H1623 H 0.10322 0.28893 0.4114 0.0
H1624 H 0.07563 0.3331 0.44522 0.0
H1625 H 0.16064 0.42494 0.4241 0.0
C1626 C 0.2175 0.32541 0.34264 0.0
C1627 C 0.2104 0.2874 0.32955 0.0
C1628 C 0.18149 0.262 0.3412 0.0
C1629 C 0.15959 0.27419 0.36491 0.0
C1630 C 0.16692 0.31188 0.37684 0.0
C1631 C 0.19523 0.33716 0.36631 0.0
C1632 C 0.19596 0.37651 0.38202 0.0
C1633 C 0.23133 0.39048 0.40516 0.0
C1634 C 0.19075 0.40389 0.35437 0.0
C1635 C 0.16323 0.36945 0.40257 0.0
C1636 C 0.14712 0.33187 0.39921 0.0
C1637 C 0.11573 0.31835 0.41445 0.0
C1638 C 0.10016 0.34385 0.43349 0.0
C1639 C 0.11587 0.38264 0.43734 0.0
C1640 C 0.14815 0.39548 0.42191 0.0
H1641 H 0.3615 0.23558 0.68041 0.0
H1642 H 0.31132 0.13745 0.72921 0.0
H1643 H 0.34105 0.09735 0.69288 0.0
H1644 H 0.35326 0.19325 0.59737 0.0
H1645 H 0.39679 0.21672 0.5861 0.0
H1646 H 0.37376 0.23873 0.6175 0.0
H1647 H 0.43026 0.24461 0.6611 0.0
H1648 H 0.45369 0.22299 0.62971 0.0
H1649 H 0.44888 0.20332 0.67036 0.0
H1650 H 0.37014 0.06678 0.64717 0.0
H1651 H 0.40312 0.04828 0.59949 0.0
H1652 H 0.43882 0.16566 0.58181 0.0
C1653 C 0.35738 0.20576 0.68397 0.0
C1654 C 0.33394 0.18983 0.7079 0.0
C1655 C 0.32912 0.15057 0.71138 0.0
C1656 C 0.34585 0.12742 0.69068 0.0
C1657 C 0.36789 0.14383 0.66681 0.0
C1658 C 0.37434 0.18217 0.66374 0.0
C1659 C 0.39892 0.19237 0.63558 0.0
C1660 C 0.37951 0.21139 0.60748 0.0
C1661 C 0.43509 0.2173 0.65006 0.0
C1662 C 0.40463 0.15369 0.62291 0.0
C1663 C 0.38617 0.12615 0.6412 0.0
C1664 C 0.38521 0.08812 0.63305 0.0
C1665 C 0.40385 0.07788 0.60575 0.0
C1666 C 0.42376 0.10547 0.58705 0.0
C1667 C 0.42427 0.14396 0.59595 0.0
H1668 H 0.80882 0.36473 0.67721 0.0
H1669 H 0.88309 0.29183 0.70978 0.0
H1670 H 0.92939 0.32494 0.67546 0.0
H1671 H 0.83384 0.37013 0.59079 0.0
H1672 H 0.82977 0.41874 0.58838 0.0
H1673 H 0.80281 0.38963 0.61594 0.0
H1674 H 0.82849 0.43699 0.6671 0.0
H1675 H 0.85553 0.46622 0.63967 0.0
H1676 H 0.87709 0.44994 0.67702 0.0
H1677 H 0.96931 0.36781 0.63539 0.0
H1678 H 0.99584 0.41351 0.59542 0.0
H1679 H 0.8958 0.45822 0.58876 0.0
C1680 C 0.83485 0.35571 0.67733 0.0
C1681 C 0.84175 0.32522 0.69682 0.0
C1682 C 0.8765 0.31481 0.69557 0.0
C1683 C 0.90326 0.33365 0.67592 0.0
C1684 C 0.89556 0.3634 0.65708 0.0
C1685 C 0.86203 0.3743 0.65769 0.0
C1686 C 0.86032 0.40688 0.63494 0.0
C1687 C 0.82988 0.39567 0.60579 0.0
C1688 C 0.85504 0.44209 0.65594 0.0
C1689 C 0.89789 0.41267 0.62143 0.0
C1690 C 0.918 0.38739 0.63445 0.0
C1691 C 0.9535 0.38761 0.62523 0.0
C1692 C 0.96856 0.41388 0.60233 0.0
C1693 C 0.94849 0.44012 0.58837 0.0
C1694 C 0.91252 0.43903 0.59857 0.0
H1695 H 0.24572 0.72969 0.62354 0.0
H1696 H 0.27762 0.65044 0.69247 0.0
H1697 H 0.24636 0.59769 0.65256 0.0
H1698 H 0.1622 0.6895 0.60841 0.0
H1699 H 0.15445 0.69749 0.56401 0.0
H1700 H 0.18996 0.728 0.5903 0.0
H1701 H 0.23751 0.71399 0.54983 0.0
H1702 H 0.20187 0.6836 0.52283 0.0
H1703 H 0.2415 0.66604 0.53909 0.0
H1704 H 0.19768 0.55539 0.61479 0.0
H1705 H 0.13793 0.529 0.58314 0.0
H1706 H 0.13763 0.63526 0.53805 0.0
C1707 C 0.24826 0.70121 0.6288 0.0
C1708 C 0.26507 0.69387 0.6602 0.0
C1709 C 0.26598 0.65638 0.6678 0.0
C1710 C 0.24813 0.62628 0.6453 0.0
C1711 C 0.22961 0.63422 0.61527 0.0
C1712 C 0.23024 0.67094 0.60663 0.0
C1713 C 0.20277 0.67248 0.5767 0.0
C1714 C 0.17577 0.69834 0.58542 0.0
C1715 C 0.22208 0.68475 0.54525 0.0
C1716 C 0.18436 0.63161 0.57195 0.0
C1717 C 0.20086 0.6096 0.59356 0.0
C1718 C 0.18524 0.57206 0.59697 0.0
C1719 C 0.1513 0.5572 0.5789 0.0
C1720 C 0.13327 0.58017 0.55827 0.0
C1721 C 0.151 0.61705 0.55355 0.0
loop_
_geom_bond_atom_site_label_1
_geom_bond_atom_site_label_2
_geom_bond_distance
_geom_bond_site_symmetry_2
_ccdc_geom_bond_type
Co0 N5 2.057 . S
Co0 O17 2.021 . S
Co0 O20 2.062 . S
Co0 O24 2.117 . S
Co0 O25 2.020 . S
C1 O21 1.259 . S
C1 O24 1.258 . S
Co2 N11 2.057 . S
Co2 O18 2.117 . S
Co2 O19 2.020 . S
Co2 O21 2.021 . S
Co2 O26 2.062 . S
C3 N5 1.316 . S
C3 N6 1.347 . S
C3 H8 0.931 . S
C4 N5 1.375 . S
C4 C7 1.350 . S
C4 H9 0.930 . S
N5 Co0 2.057 . S
N5 C3 1.316 . S
N5 C4 1.375 . S
N6 C3 1.347 . S
N6 C7 1.373 . S
C7 C4 1.350 . S
C7 N6 1.373 . S
C7 H28 0.931 . S
H8 C3 0.931 . S
H9 C4 0.930 . S
C10 O17 1.259 . S
C10 O18 1.258 . S
N11 Co2 2.057 . S
N11 C12 1.316 . S
N11 C13 1.375 . S
C12 N11 1.316 . S
C12 N14 1.347 . S
C12 H23 0.931 . S
C13 N11 1.375 . S
C13 C15 1.350 . S
C13 H22 0.930 . S
N14 C12 1.347 . S
N14 C15 1.373 . S
C15 C13 1.350 . S
C15 N14 1.373 . S
C15 H29 0.931 . S
C16 O19 1.256 . S
C16 O20 1.255 . S
O17 Co0 2.021 . S
O17 C10 1.259 . S
O18 Co2 2.117 . S
O18 C10 1.258 . S
O19 Co2 2.020 . S
O19 C16 1.256 . S
O20 Co0 2.062 . S
O20 C16 1.255 . S
O21 C1 1.259 . S
O21 Co2 2.021 . S
H22 C13 0.930 . S
H23 C12 0.931 . S
O24 Co0 2.117 . S
O24 C1 1.258 . S
O25 Co0 2.020 . S
O25 C27 1.256 . S
O26 Co2 2.062 . S
O26 C27 1.255 . S
C27 O25 1.256 . S
C27 O26 1.255 . S
H28 C7 0.931 . S
H29 C15 0.931 . S
Co30 N35 2.057 . S
Co30 O47 2.021 . S
Co30 O50 2.062 . S
Co30 O54 2.117 . S
Co30 O55 2.020 . S
C31 O51 1.259 . S
C31 O54 1.258 . S
Co32 N41 2.057 . S
Co32 O48 2.117 . S
Co32 O49 2.020 . S
Co32 O51 2.021 . S
Co32 O56 2.062 . S
C33 N35 1.316 . S
C33 N36 1.347 . S
C33 H38 0.931 . S
C34 N35 1.375 . S
C34 C37 1.350 . S
C34 H39 0.930 . S
N35 Co30 2.057 . S
N35 C33 1.316 . S
N35 C34 1.375 . S
N36 C33 1.347 . S
N36 C37 1.373 . S
C37 C34 1.350 . S
C37 N36 1.373 . S
C37 H58 0.931 . S
H38 C33 0.931 . S
H39 C34 0.930 . S
C40 O47 1.259 . S
C40 O48 1.258 . S
N41 Co32 2.057 . S
N41 C42 1.316 . S
N41 C43 1.375 . S
C42 N41 1.316 . S
C42 N44 1.347 . S
C42 H53 0.931 . S
C43 N41 1.375 . S
C43 C45 1.350 . S
C43 H52 0.930 . S
N44 C42 1.347 . S
N44 C45 1.373 . S
C45 C43 1.350 . S
C45 N44 1.373 . S
C45 H59 0.931 . S
C46 O49 1.256 . S
C46 O50 1.255 . S
O47 Co30 2.021 . S
O47 C40 1.259 . S
O48 Co32 2.117 . S
O48 C40 1.258 . S
O49 Co32 2.020 . S
O49 C46 1.256 . S
O50 Co30 2.062 . S
O50 C46 1.255 . S
O51 C31 1.259 . S
O51 Co32 2.021 . S
H52 C43 0.930 . S
H53 C42 0.931 . S
O54 Co30 2.117 . S
O54 C31 1.258 . S
O55 Co30 2.020 . S
O55 C57 1.256 . S
O56 Co32 2.062 . S
O56 C57 1.255 . S
C57 O55 1.256 . S
C57 O56 1.255 . S
H58 C37 0.931 . S
H59 C45 0.931 . S
Co60 N65 2.057 . S
Co60 O77 2.021 . S
Co60 O80 2.062 . S
Co60 O84 2.117 . S
Co60 O85 2.020 . S
C61 O81 1.259 . S
C61 O84 1.258 . S
Co62 N71 2.057 . S
Co62 O78 2.117 . S
Co62 O79 2.020 . S
Co62 O81 2.021 . S
Co62 O86 2.062 . S
C63 N65 1.316 . S
C63 N66 1.347 . S
C63 H68 0.931 . S
C64 N65 1.375 . S
C64 C67 1.350 . S
C64 H69 0.930 . S
N65 Co60 2.057 . S
N65 C63 1.316 . S
N65 C64 1.375 . S
N66 C63 1.347 . S
N66 C67 1.373 . S
C67 C64 1.350 . S
C67 N66 1.373 . S
C67 H88 0.931 . S
H68 C63 0.931 . S
H69 C64 0.930 . S
C70 O77 1.259 . S
C70 O78 1.258 . S
N71 Co62 2.057 . S
N71 C72 1.316 . S
N71 C73 1.375 . S
C72 N71 1.316 . S
C72 N74 1.347 . S
C72 H83 0.931 . S
C73 N71 1.375 . S
C73 C75 1.350 . S
C73 H82 0.930 . S
N74 C72 1.347 . S
N74 C75 1.373 . S
C75 C73 1.350 . S
C75 N74 1.373 . S
C75 H89 0.931 . S
C76 O79 1.256 . S
C76 O80 1.255 . S
O77 Co60 2.021 . S
O77 C70 1.259 . S
O78 Co62 2.117 . S
O78 C70 1.258 . S
O79 Co62 2.020 . S
O79 C76 1.256 . S
O80 Co60 2.062 . S
O80 C76 1.255 . S
O81 C61 1.259 . S
O81 Co62 2.021 . S
H82 C73 0.930 . S
H83 C72 0.931 . S
O84 Co60 2.117 . S
O84 C61 1.258 . S
O85 Co60 2.020 . S
O85 C87 1.256 . S
O86 Co62 2.062 . S
O86 C87 1.255 . S
C87 O85 1.256 . S
C87 O86 1.255 . S
H88 C67 0.931 . S
H89 C75 0.931 . S
Co90 N95 2.057 . S
Co90 O107 2.021 . S
Co90 O110 2.062 . S
Co90 O114 2.117 . S
Co90 O115 2.020 . S
C91 O111 1.259 . S
C91 O114 1.258 . S
Co92 N101 2.057 . S
Co92 O108 2.117 . S
Co92 O109 2.020 . S
Co92 O111 2.021 . S
Co92 O116 2.062 . S
C93 N95 1.316 . S
C93 N96 1.347 . S
C93 H98 0.931 . S
C94 N95 1.375 . S
C94 C97 1.350 . S
C94 H99 0.930 . S
N95 Co90 2.057 . S
N95 C93 1.316 . S
N95 C94 1.375 . S
N96 C93 1.347 . S
N96 C97 1.373 . S
C97 C94 1.350 . S
C97 N96 1.373 . S
C97 H118 0.931 . S
H98 C93 0.931 . S
H99 C94 0.930 . S
C100 O107 1.259 . S
C100 O108 1.258 . S
N101 Co92 2.057 . S
N101 C102 1.316 . S
N101 C103 1.375 . S
C102 N101 1.316 . S
C102 N104 1.347 . S
C102 H113 0.931 . S
C103 N101 1.375 . S
C103 C105 1.350 . S
C103 H112 0.930 . S
N104 C102 1.347 . S
N104 C105 1.373 . S
C105 C103 1.350 . S
C105 N104 1.373 . S
C105 H119 0.931 . S
C106 O109 1.256 . S
C106 O110 1.255 . S
O107 Co90 2.021 . S
O107 C100 1.259 . S
O108 Co92 2.117 . S
O108 C100 1.258 . S
O109 Co92 2.020 . S
O109 C106 1.256 . S
O110 Co90 2.062 . S
O110 C106 1.255 . S
O111 C91 1.259 . S
O111 Co92 2.021 . S
H112 C103 0.930 . S
H113 C102 0.931 . S
O114 Co90 2.117 . S
O114 C91 1.258 . S
O115 Co90 2.020 . S
O115 C117 1.256 . S
O116 Co92 2.062 . S
O116 C117 1.255 . S
C117 O115 1.256 . S
C117 O116 1.255 . S
H118 C97 0.931 . S
H119 C105 0.931 . S
Co120 N125 2.057 . S
Co120 O137 2.021 . S
Co120 O140 2.062 . S
Co120 O144 2.117 . S
Co120 O145 2.020 . S
C121 O141 1.259 . S
C121 O144 1.258 . S
Co122 N131 2.057 . S
Co122 O138 2.117 . S
Co122 O139 2.020 . S
Co122 O141 2.021 . S
Co122 O146 2.062 . S
C123 N125 1.316 . S
C123 N126 1.347 . S
C123 H128 0.931 . S
C124 N125 1.375 . S
C124 C127 1.350 . S
C124 H129 0.930 . S
N125 Co120 2.057 . S
N125 C123 1.316 . S
N125 C124 1.375 . S
N126 C123 1.347 . S
N126 C127 1.373 . S
C127 C124 1.350 . S
C127 N126 1.373 . S
C127 H148 0.931 . S
H128 C123 0.931 . S
H129 C124 0.930 . S
C130 O137 1.259 . S
C130 O138 1.258 . S
N131 Co122 2.057 . S
N131 C132 1.316 . S
N131 C133 1.375 . S
C132 N131 1.316 . S
C132 N134 1.347 . S
C132 H143 0.931 . S
C133 N131 1.375 . S
C133 C135 1.350 . S
C133 H142 0.930 . S
N134 C132 1.347 . S
N134 C135 1.373 . S
C135 C133 1.350 . S
C135 N134 1.373 . S
C135 H149 0.931 . S
C136 O139 1.256 . S
C136 O140 1.255 . S
O137 Co120 2.021 . S
O137 C130 1.259 . S
O138 Co122 2.117 . S
O138 C130 1.258 . S
O139 Co122 2.020 . S
O139 C136 1.256 . S
O140 Co120 2.062 . S
O140 C136 1.255 . S
O141 C121 1.259 . S
O141 Co122 2.021 . S
H142 C133 0.930 . S
H143 C132 0.931 . S
O144 Co120 2.117 . S
O144 C121 1.258 . S
O145 Co120 2.020 . S
O145 C147 1.256 . S
O146 Co122 2.062 . S
O146 C147 1.255 . S
C147 O145 1.256 . S
C147 O146 1.255 . S
H148 C127 0.931 . S
H149 C135 0.931 . S
Co150 N155 2.057 . S
Co150 O167 2.021 . S
Co150 O170 2.062 . S
Co150 O174 2.117 . S
Co150 O175 2.020 . S
C151 O171 1.259 . S
C151 O174 1.258 . S
Co152 N161 2.057 . S
Co152 O168 2.117 . S
Co152 O169 2.020 . S
Co152 O171 2.021 . S
Co152 O176 2.062 . S
C153 N155 1.316 . S
C153 N156 1.347 . S
C153 H158 0.931 . S
C154 N155 1.375 . S
C154 C157 1.350 . S
C154 H159 0.930 . S
N155 Co150 2.057 . S
N155 C153 1.316 . S
N155 C154 1.375 . S
N156 C153 1.347 . S
N156 C157 1.373 . S
C157 C154 1.350 . S
C157 N156 1.373 . S
C157 H178 0.931 . S
H158 C153 0.931 . S
H159 C154 0.930 . S
C160 O167 1.259 . S
C160 O168 1.258 . S
N161 Co152 2.057 . S
N161 C162 1.316 . S
N161 C163 1.375 . S
C162 N161 1.316 . S
C162 N164 1.347 . S
C162 H173 0.931 . S
C163 N161 1.375 . S
C163 C165 1.350 . S
C163 H172 0.930 . S
N164 C162 1.347 . S
N164 C165 1.373 . S
C165 C163 1.350 . S
C165 N164 1.373 . S
C165 H179 0.931 . S
C166 O169 1.256 . S
C166 O170 1.255 . S
O167 Co150 2.021 . S
O167 C160 1.259 . S
O168 Co152 2.117 . S
O168 C160 1.258 . S
O169 Co152 2.020 . S
O169 C166 1.256 . S
O170 Co150 2.062 . S
O170 C166 1.255 . S
O171 C151 1.259 . S
O171 Co152 2.021 . S
H172 C163 0.930 . S
H173 C162 0.931 . S
O174 Co150 2.117 . S
O174 C151 1.258 . S
O175 Co150 2.020 . S
O175 C177 1.256 . S
O176 Co152 2.062 . S
O176 C177 1.255 . S
C177 O175 1.256 . S
C177 O176 1.255 . S
H178 C157 0.931 . S
H179 C165 0.931 . S
Co180 N185 2.057 . S
Co180 O197 2.021 . S
Co180 O200 2.062 . S
Co180 O204 2.117 . S
Co180 O205 2.020 . S
C181 O201 1.259 . S
C181 O204 1.258 . S
Co182 N191 2.057 . S
Co182 O198 2.117 . S
Co182 O199 2.020 . S
Co182 O201 2.021 . S
Co182 O206 2.062 . S
C183 N185 1.316 . S
C183 N186 1.347 . S
C183 H188 0.931 . S
C184 N185 1.375 . S
C184 C187 1.350 . S
C184 H189 0.930 . S
N185 Co180 2.057 . S
N185 C183 1.316 . S
N185 C184 1.375 . S
N186 C183 1.347 . S
N186 C187 1.373 . S
C187 C184 1.350 . S
C187 N186 1.373 . S
C187 H208 0.931 . S
H188 C183 0.931 . S
H189 C184 0.930 . S
C190 O197 1.259 . S
C190 O198 1.258 . S
N191 Co182 2.057 . S
N191 C192 1.316 . S
N191 C193 1.375 . S
C192 N191 1.316 . S
C192 N194 1.347 . S
C192 H203 0.931 . S
C193 N191 1.375 . S
C193 C195 1.350 . S
C193 H202 0.930 . S
N194 C192 1.347 . S
N194 C195 1.373 . S
C195 C193 1.350 . S
C195 N194 1.373 . S
C195 H209 0.931 . S
C196 O199 1.256 . S
C196 O200 1.255 . S
O197 Co180 2.021 . S
O197 C190 1.259 . S
O198 Co182 2.117 . S
O198 C190 1.258 . S
O199 Co182 2.020 . S
O199 C196 1.256 . S
O200 Co180 2.062 . S
O200 C196 1.255 . S
O201 C181 1.259 . S
O201 Co182 2.021 . S
H202 C193 0.930 . S
H203 C192 0.931 . S
O204 Co180 2.117 . S
O204 C181 1.258 . S
O205 Co180 2.020 . S
O205 C207 1.256 . S
O206 Co182 2.062 . S
O206 C207 1.255 . S
C207 O205 1.256 . S
C207 O206 1.255 . S
H208 C187 0.931 . S
H209 C195 0.931 . S
Co210 N215 2.057 . S
Co210 O227 2.021 . S
Co210 O230 2.062 . S
Co210 O234 2.117 . S
Co210 O235 2.020 . S
C211 O231 1.259 . S
C211 O234 1.258 . S
Co212 N221 2.057 . S
Co212 O228 2.117 . S
Co212 O229 2.020 . S
Co212 O231 2.021 . S
Co212 O236 2.062 . S
C213 N215 1.316 . S
C213 N216 1.347 . S
C213 H218 0.931 . S
C214 N215 1.375 . S
C214 C217 1.350 . S
C214 H219 0.930 . S
N215 Co210 2.057 . S
N215 C213 1.316 . S
N215 C214 1.375 . S
N216 C213 1.347 . S
N216 C217 1.373 . S
C217 C214 1.350 . S
C217 N216 1.373 . S
C217 H238 0.931 . S
H218 C213 0.931 . S
H219 C214 0.930 . S
C220 O227 1.259 . S
C220 O228 1.258 . S
N221 Co212 2.057 . S
N221 C222 1.316 . S
N221 C223 1.375 . S
C222 N221 1.316 . S
C222 N224 1.347 . S
C222 H233 0.931 . S
C223 N221 1.375 . S
C223 C225 1.350 . S
C223 H232 0.930 . S
N224 C222 1.347 . S
N224 C225 1.373 . S
C225 C223 1.350 . S
C225 N224 1.373 . S
C225 H239 0.931 . S
C226 O229 1.256 . S
C226 O230 1.255 . S
O227 Co210 2.021 . S
O227 C220 1.259 . S
O228 Co212 2.117 . S
O228 C220 1.258 . S
O229 Co212 2.020 . S
O229 C226 1.256 . S
O230 Co210 2.062 . S
O230 C226 1.255 . S
O231 C211 1.259 . S
O231 Co212 2.021 . S
H232 C223 0.930 . S
H233 C222 0.931 . S
O234 Co210 2.117 . S
O234 C211 1.258 . S
O235 Co210 2.020 . S
O235 C237 1.256 . S
O236 Co212 2.062 . S
O236 C237 1.255 . S
C237 O235 1.256 . S
C237 O236 1.255 . S
H238 C217 0.931 . S
H239 C225 0.931 . S
C240 O252 1.241 . S
C240 O253 1.280 . S
C241 O254 1.277 . S
C241 O255 1.245 . S
C242 O266 1.247 . S
C242 O268 1.289 . S
Mg243 O244 1.926 . S
Mg243 O253 1.984 . S
Mg243 O255 1.988 . S
Mg243 O256 2.061 1_655 S
O244 Mg243 1.926 . S
O244 Mg245 1.986 . S
O244 Mg246 1.917 1_655 S
Mg245 O244 1.986 . S
Mg245 O252 2.042 . S
Mg245 O254 2.041 . S
Mg245 O260 2.038 1_545 S
Mg245 O268 2.238 1_545 S
Mg246 O244 1.917 1_455 S
Mg246 O247 1.917 1_545 S
Mg246 O257 2.106 . S
Mg246 O259 2.079 1_445 S
Mg246 O268 2.106 1_445 S
Mg246 O269 2.079 . S
O247 Mg246 1.917 1_565 S
O247 Mg248 1.926 . S
O247 Mg249 1.986 . S
Mg248 O247 1.926 . S
Mg248 O262 1.984 . S
Mg248 O265 1.988 . S
Mg248 O266 2.061 1_455 S
Mg249 O247 1.986 . S
Mg249 O257 2.238 1_565 S
Mg249 O261 2.042 . S
Mg249 O263 2.041 . S
Mg249 O270 2.038 1_565 S
C250 O256 1.247 . S
C250 O257 1.289 . S
C251 O269 1.245 . S
C251 O270 1.274 . S
O252 C240 1.241 . S
O252 Mg245 2.042 . S
O253 C240 1.280 . S
O253 Mg243 1.984 . S
O254 C241 1.277 . S
O254 Mg245 2.041 . S
O255 C241 1.245 . S
O255 Mg243 1.988 . S
O256 Mg243 2.061 1_455 S
O256 C250 1.247 . S
O257 Mg246 2.106 . S
O257 Mg249 2.238 1_545 S
O257 C250 1.289 . S
C258 O259 1.245 . S
C258 O260 1.274 . S
O259 Mg246 2.079 1_665 S
O259 C258 1.245 . S
O260 Mg245 2.038 1_565 S
O260 C258 1.274 . S
O261 Mg249 2.042 . S
O261 C264 1.241 . S
O262 Mg248 1.984 . S
O262 C264 1.280 . S
O263 Mg249 2.041 . S
O263 C267 1.277 . S
C264 O261 1.241 . S
C264 O262 1.280 . S
O265 Mg248 1.988 . S
O265 C267 1.245 . S
O266 C242 1.247 . S
O266 Mg248 2.061 1_655 S
C267 O263 1.277 . S
C267 O265 1.245 . S
O268 C242 1.289 . S
O268 Mg245 2.238 1_565 S
O268 Mg246 2.106 1_665 S
O269 Mg246 2.079 . S
O269 C251 1.245 . S
O270 Mg249 2.038 1_545 S
O270 C251 1.274 . S
C271 O283 1.241 . S
C271 O284 1.280 . S
C272 O285 1.277 . S
C272 O286 1.245 . S
C273 O297 1.247 . S
C273 O299 1.289 . S
Mg274 O275 1.926 . S
Mg274 O284 1.984 . S
Mg274 O286 1.988 1_554 S
Mg274 O287 2.061 . S
O275 Mg274 1.926 . S
O275 Mg276 1.986 1_554 S
O275 Mg277 1.917 . S
Mg276 O275 1.986 1_556 S
Mg276 O283 2.042 1_556 S
Mg276 O285 2.041 . S
Mg276 O291 2.038 1_546 S
Mg276 O299 2.238 1_545 S
Mg277 O275 1.917 . S
Mg277 O278 1.917 1_544 S
Mg277 O288 2.106 . S
Mg277 O290 2.079 1_545 S
Mg277 O299 2.106 1_544 S
Mg277 O300 2.079 1_554 S
O278 Mg277 1.917 1_566 S
O278 Mg279 1.926 . S
O278 Mg280 1.986 1_556 S
Mg279 O278 1.926 . S
Mg279 O293 1.984 . S
Mg279 O296 1.988 1_556 S
Mg279 O297 2.061 . S
Mg280 O278 1.986 1_554 S
Mg280 O288 2.238 1_565 S
Mg280 O292 2.042 1_554 S
Mg280 O294 2.041 . S
Mg280 O301 2.038 1_564 S
C281 O287 1.247 . S
C281 O288 1.289 . S
C282 O300 1.245 . S
C282 O301 1.274 . S
O283 C271 1.241 . S
O283 Mg276 2.042 1_554 S
O284 C271 1.280 . S
O284 Mg274 1.984 . S
O285 C272 1.277 . S
O285 Mg276 2.041 . S
O286 C272 1.245 . S
O286 Mg274 1.988 1_556 S
O287 Mg274 2.061 . S
O287 C281 1.247 . S
O288 Mg277 2.106 . S
O288 Mg280 2.238 1_545 S
O288 C281 1.289 . S
C289 O290 1.245 . S
C289 O291 1.274 . S
O290 Mg277 2.079 1_565 S
O290 C289 1.245 . S
O291 Mg276 2.038 1_564 S
O291 C289 1.274 . S
O292 Mg280 2.042 1_556 S
O292 C295 1.241 . S
O293 Mg279 1.984 . S
O293 C295 1.280 . S
O294 Mg280 2.041 . S
O294 C298 1.277 . S
C295 O292 1.241 . S
C295 O293 1.280 . S
O296 Mg279 1.988 1_554 S
O296 C298 1.245 . S
O297 C273 1.247 . S
O297 Mg279 2.061 . S
C298 O294 1.277 . S
C298 O296 1.245 . S
O299 C273 1.289 . S
O299 Mg276 2.238 1_565 S
O299 Mg277 2.106 1_566 S
O300 Mg277 2.079 1_556 S
O300 C282 1.245 . S
O301 Mg280 2.038 1_546 S
O301 C282 1.274 . S
C302 O314 1.241 . S
C302 O315 1.280 . S
C303 O316 1.277 . S
C303 O317 1.245 . S
C304 O328 1.247 . S
C304 O330 1.289 . S
Mg305 O306 1.926 . S
Mg305 O315 1.984 . S
Mg305 O317 1.988 1_554 S
Mg305 O318 2.061 1_655 S
O306 Mg305 1.926 . S
O306 Mg307 1.986 1_554 S
O306 Mg308 1.917 1_655 S
Mg307 O306 1.986 1_556 S
Mg307 O314 2.042 1_556 S
Mg307 O316 2.041 . S
Mg307 O322 2.038 1_556 S
Mg307 O330 2.238 . S
Mg308 O306 1.917 1_455 S
Mg308 O309 1.917 1_554 S
Mg308 O319 2.106 . S
Mg308 O321 2.079 1_455 S
Mg308 O330 2.106 1_454 S
Mg308 O331 2.079 1_554 S
O309 Mg308 1.917 1_556 S
O309 Mg310 1.926 . S
O309 Mg311 1.986 1_556 S
Mg310 O309 1.926 . S
Mg310 O324 1.984 . S
Mg310 O327 1.988 1_556 S
Mg310 O328 2.061 1_455 S
Mg311 O309 1.986 1_554 S
Mg311 O319 2.238 . S
Mg311 O323 2.042 1_554 S
Mg311 O325 2.041 . S
Mg311 O332 2.038 1_554 S
C312 O318 1.247 . S
C312 O319 1.289 . S
C313 O331 1.245 . S
C313 O332 1.274 . S
O314 C302 1.241 . S
O314 Mg307 2.042 1_554 S
O315 C302 1.280 . S
O315 Mg305 1.984 . S
O316 C303 1.277 . S
O316 Mg307 2.041 . S
O317 C303 1.245 . S
O317 Mg305 1.988 1_556 S
O318 Mg305 2.061 1_455 S
O318 C312 1.247 . S
O319 Mg308 2.106 . S
O319 Mg311 2.238 . S
O319 C312 1.289 . S
C320 O321 1.245 . S
C320 O322 1.274 . S
O321 Mg308 2.079 1_655 S
O321 C320 1.245 . S
O322 Mg307 2.038 1_554 S
O322 C320 1.274 . S
O323 Mg311 2.042 1_556 S
O323 C326 1.241 . S
O324 Mg310 1.984 . S
O324 C326 1.280 . S
O325 Mg311 2.041 . S
O325 C329 1.277 . S
C326 O323 1.241 . S
C326 O324 1.280 . S
O327 Mg310 1.988 1_554 S
O327 C329 1.245 . S
O328 C304 1.247 . S
O328 Mg310 2.061 1_655 S
C329 O325 1.277 . S
C329 O327 1.245 . S
O330 C304 1.289 . S
O330 Mg307 2.238 . S
O330 Mg308 2.106 1_656 S
O331 Mg308 2.079 1_556 S
O331 C313 1.245 . S
O332 Mg311 2.038 1_556 S
O332 C313 1.274 . S
C333 O345 1.241 . S
C333 O346 1.280 . S
C334 O347 1.277 . S
C334 O348 1.245 . S
C335 O359 1.247 . S
C335 O361 1.289 . S
Mg336 O337 1.926 . S
Mg336 O346 1.984 . S
Mg336 O348 1.988 1_554 S
Mg336 O349 2.061 . S
O337 Mg336 1.926 . S
O337 Mg338 1.986 1_554 S
O337 Mg339 1.917 . S
Mg338 O337 1.986 1_556 S
Mg338 O345 2.042 1_556 S
Mg338 O347 2.041 . S
Mg338 O353 2.038 1_556 S
Mg338 O361 2.238 . S
Mg339 O337 1.917 . S
Mg339 O340 1.917 1_554 S
Mg339 O350 2.106 . S
Mg339 O352 2.079 . S
Mg339 O361 2.106 1_554 S
Mg339 O362 2.079 1_554 S
O340 Mg339 1.917 1_556 S
O340 Mg341 1.926 . S
O340 Mg342 1.986 1_556 S
Mg341 O340 1.926 . S
Mg341 O355 1.984 . S
Mg341 O358 1.988 1_556 S
Mg341 O359 2.061 . S
Mg342 O340 1.986 1_554 S
Mg342 O350 2.238 . S
Mg342 O354 2.042 1_554 S
Mg342 O356 2.041 . S
Mg342 O363 2.038 1_554 S
C343 O349 1.247 . S
C343 O350 1.289 . S
C344 O362 1.245 . S
C344 O363 1.274 . S
O345 C333 1.241 . S
O345 Mg338 2.042 1_554 S
O346 C333 1.280 . S
O346 Mg336 1.984 . S
O347 C334 1.277 . S
O347 Mg338 2.041 . S
O348 C334 1.245 . S
O348 Mg336 1.988 1_556 S
O349 Mg336 2.061 . S
O349 C343 1.247 . S
O350 Mg339 2.106 . S
O350 Mg342 2.238 . S
O350 C343 1.289 . S
C351 O352 1.245 . S
C351 O353 1.274 . S
O352 Mg339 2.079 . S
O352 C351 1.245 . S
O353 Mg338 2.038 1_554 S
O353 C351 1.274 . S
O354 Mg342 2.042 1_556 S
O354 C357 1.241 . S
O355 Mg341 1.984 . S
O355 C357 1.280 . S
O356 Mg342 2.041 . S
O356 C360 1.277 . S
C357 O354 1.241 . S
C357 O355 1.280 . S
O358 Mg341 1.988 1_554 S
O358 C360 1.245 . S
O359 C335 1.247 . S
O359 Mg341 2.061 . S
C360 O356 1.277 . S
C360 O358 1.245 . S
O361 C335 1.289 . S
O361 Mg338 2.238 . S
O361 Mg339 2.106 1_556 S
O362 Mg339 2.079 1_556 S
O362 C344 1.245 . S
O363 Mg342 2.038 1_556 S
O363 C344 1.274 . S
C364 O376 1.241 . S
C364 O377 1.280 . S
C365 O378 1.277 . S
C365 O379 1.245 . S
C366 O390 1.247 . S
C366 O392 1.289 . S
Mg367 O368 1.926 . S
Mg367 O377 1.984 . S
Mg367 O379 1.988 . S
Mg367 O380 2.061 1_655 S
O368 Mg367 1.926 . S
O368 Mg369 1.986 . S
O368 Mg370 1.917 1_655 S
Mg369 O368 1.986 . S
Mg369 O376 2.042 . S
Mg369 O378 2.041 . S
Mg369 O384 2.038 . S
Mg369 O392 2.238 . S
Mg370 O368 1.917 1_455 S
Mg370 O371 1.917 . S
Mg370 O381 2.106 . S
Mg370 O383 2.079 1_455 S
Mg370 O392 2.106 1_455 S
Mg370 O393 2.079 . S
O371 Mg370 1.917 . S
O371 Mg372 1.926 . S
O371 Mg373 1.986 . S
Mg372 O371 1.926 . S
Mg372 O386 1.984 . S
Mg372 O389 1.988 . S
Mg372 O390 2.061 1_455 S
Mg373 O371 1.986 . S
Mg373 O381 2.238 . S
Mg373 O385 2.042 . S
Mg373 O387 2.041 . S
Mg373 O394 2.038 . S
C374 O380 1.247 . S
C374 O381 1.289 . S
C375 O393 1.245 . S
C375 O394 1.274 . S
O376 C364 1.241 . S
O376 Mg369 2.042 . S
O377 C364 1.280 . S
O377 Mg367 1.984 . S
O378 C365 1.277 . S
O378 Mg369 2.041 . S
O379 C365 1.245 . S
O379 Mg367 1.988 . S
O380 Mg367 2.061 1_455 S
O380 C374 1.247 . S
O381 Mg370 2.106 . S
O381 Mg373 2.238 . S
O381 C374 1.289 . S
C382 O383 1.245 . S
C382 O384 1.274 . S
O383 Mg370 2.079 1_655 S
O383 C382 1.245 . S
O384 Mg369 2.038 . S
O384 C382 1.274 . S
O385 Mg373 2.042 . S
O385 C388 1.241 . S
O386 Mg372 1.984 . S
O386 C388 1.280 . S
O387 Mg373 2.041 . S
O387 C391 1.277 . S
C388 O385 1.241 . S
C388 O386 1.280 . S
O389 Mg372 1.988 . S
O389 C391 1.245 . S
O390 C366 1.247 . S
O390 Mg372 2.061 1_655 S
C391 O387 1.277 . S
C391 O389 1.245 . S
O392 C366 1.289 . S
O392 Mg369 2.238 . S
O392 Mg370 2.106 1_655 S
O393 Mg370 2.079 . S
O393 C375 1.245 . S
O394 Mg373 2.038 . S
O394 C375 1.274 . S
C395 O407 1.241 . S
C395 O408 1.280 . S
C396 O409 1.277 . S
C396 O410 1.245 . S
C397 O421 1.247 . S
C397 O423 1.289 . S
Mg398 O399 1.926 . S
Mg398 O408 1.984 . S
Mg398 O410 1.988 . S
Mg398 O411 2.061 . S
O399 Mg398 1.926 . S
O399 Mg400 1.986 . S
O399 Mg401 1.917 . S
Mg400 O399 1.986 . S
Mg400 O407 2.042 . S
Mg400 O409 2.041 . S
Mg400 O415 2.038 1_545 S
Mg400 O423 2.238 1_545 S
Mg401 O399 1.917 . S
Mg401 O402 1.917 1_545 S
Mg401 O412 2.106 . S
Mg401 O414 2.079 1_545 S
Mg401 O423 2.106 1_545 S
Mg401 O424 2.079 . S
O402 Mg401 1.917 1_565 S
O402 Mg403 1.926 . S
O402 Mg404 1.986 . S
Mg403 O402 1.926 . S
Mg403 O417 1.984 . S
Mg403 O420 1.988 . S
Mg403 O421 2.061 . S
Mg404 O402 1.986 . S
Mg404 O412 2.238 1_565 S
Mg404 O416 2.042 . S
Mg404 O418 2.041 . S
Mg404 O425 2.038 1_565 S
C405 O411 1.247 . S
C405 O412 1.289 . S
C406 O424 1.245 . S
C406 O425 1.274 . S
O407 C395 1.241 . S
O407 Mg400 2.042 . S
O408 C395 1.280 . S
O408 Mg398 1.984 . S
O409 C396 1.277 . S
O409 Mg400 2.041 . S
O410 C396 1.245 . S
O410 Mg398 1.988 . S
O411 Mg398 2.061 . S
O411 C405 1.247 . S
O412 Mg401 2.106 . S
O412 Mg404 2.238 1_545 S
O412 C405 1.289 . S
C413 O414 1.245 . S
C413 O415 1.274 . S
O414 Mg401 2.079 1_565 S
O414 C413 1.245 . S
O415 Mg400 2.038 1_565 S
O415 C413 1.274 . S
O416 Mg404 2.042 . S
O416 C419 1.241 . S
O417 Mg403 1.984 . S
O417 C419 1.280 . S
O418 Mg404 2.041 . S
O418 C422 1.277 . S
C419 O416 1.241 . S
C419 O417 1.280 . S
O420 Mg403 1.988 . S
O420 C422 1.245 . S
O421 C397 1.247 . S
O421 Mg403 2.061 . S
C422 O418 1.277 . S
C422 O420 1.245 . S
O423 C397 1.289 . S
O423 Mg400 2.238 1_565 S
O423 Mg401 2.106 1_565 S
O424 Mg401 2.079 . S
O424 C406 1.245 . S
O425 Mg404 2.038 1_545 S
O425 C406 1.274 . S
H426 C438 0.930 . S
H427 C440 0.930 . S
H428 C441 0.930 . S
H429 C445 0.959 . S
H430 C445 0.959 . S
H431 C445 0.961 . S
H432 C446 0.960 . S
H433 C446 0.961 1_565 S
H434 C446 0.959 . S
H435 C449 0.929 . S
H436 C450 0.931 . S
H437 C452 0.930 . S
C438 H426 0.930 . S
C438 C439 1.399 . S
C438 C443 1.399 . S
C439 C438 1.399 . S
C439 C440 1.376 . S
C440 H427 0.930 . S
C440 C439 1.376 . S
C440 C441 1.388 . S
C441 H428 0.930 . S
C441 C440 1.388 . S
C441 C442 1.390 . S
C442 C441 1.390 . S
C442 C443 1.394 . S
C442 C448 1.465 . S
C443 C438 1.399 . S
C443 C442 1.394 . S
C443 C444 1.516 . S
C444 C443 1.516 . S
C444 C445 1.502 . S
C444 C446 1.561 . S
C444 C447 1.526 . S
C445 H429 0.959 . S
C445 H430 0.959 . S
C445 H431 0.961 . S
C445 C444 1.502 . S
C446 H432 0.960 . S
C446 H433 0.961 1_545 S
C446 H434 0.959 . S
C446 C444 1.561 . S
C447 C444 1.526 . S
C447 C448 1.396 . S
C447 C452 1.390 . S
C448 C442 1.465 . S
C448 C447 1.396 . S
C448 C449 1.399 . S
C449 H435 0.929 . S
C449 C448 1.399 . S
C449 C450 1.385 . S
C450 H436 0.931 . S
C450 C449 1.385 . S
C450 C451 1.389 . S
C451 C450 1.389 . S
C451 C452 1.387 . S
C452 H437 0.930 . S
C452 C447 1.390 . S
C452 C451 1.387 . S
H453 C465 0.930 . S
H454 C467 0.930 . S
H455 C468 0.930 . S
H456 C472 0.959 . S
H457 C472 0.959 . S
H458 C472 0.961 . S
H459 C473 0.960 . S
H460 C473 0.961 . S
H461 C473 0.959 . S
H462 C476 0.929 . S
H463 C477 0.931 . S
H464 C479 0.930 . S
C465 H453 0.930 . S
C465 C466 1.399 . S
C465 C470 1.399 . S
C466 C465 1.399 . S
C466 C467 1.376 . S
C467 H454 0.930 . S
C467 C466 1.376 . S
C467 C468 1.388 . S
C468 H455 0.930 . S
C468 C467 1.388 . S
C468 C469 1.390 . S
C469 C468 1.390 . S
C469 C470 1.394 . S
C469 C475 1.465 . S
C470 C465 1.399 . S
C470 C469 1.394 . S
C470 C471 1.516 . S
C471 C470 1.516 . S
C471 C472 1.502 . S
C471 C473 1.561 . S
C471 C474 1.526 . S
C472 H456 0.959 . S
C472 H457 0.959 . S
C472 H458 0.961 . S
C472 C471 1.502 . S
C473 H459 0.960 . S
C473 H460 0.961 . S
C473 H461 0.959 . S
C473 C471 1.561 . S
C474 C471 1.526 . S
C474 C475 1.396 . S
C474 C479 1.390 . S
C475 C469 1.465 . S
C475 C474 1.396 . S
C475 C476 1.399 . S
C476 H462 0.929 . S
C476 C475 1.399 . S
C476 C477 1.385 . S
C477 H463 0.931 . S
C477 C476 1.385 . S
C477 C478 1.389 . S
C478 C477 1.389 . S
C478 C479 1.387 . S
C479 H464 0.930 . S
C479 C474 1.390 . S
C479 C478 1.387 . S
H480 C492 0.930 . S
H481 C494 0.930 . S
H482 C495 0.930 . S
H483 C499 0.959 . S
H484 C499 0.959 . S
H485 C499 0.961 . S
H486 C500 0.960 . S
H487 C500 0.961 . S
H488 C500 0.959 . S
H489 C503 0.929 . S
H490 C504 0.931 . S
H491 C506 0.930 . S
C492 H480 0.930 . S
C492 C493 1.399 . S
C492 C497 1.399 . S
C493 C492 1.399 . S
C493 C494 1.376 . S
C494 H481 0.930 . S
C494 C493 1.376 . S
C494 C495 1.388 . S
C495 H482 0.930 . S
C495 C494 1.388 . S
C495 C496 1.390 . S
C496 C495 1.390 . S
C496 C497 1.394 . S
C496 C502 1.465 . S
C497 C492 1.399 . S
C497 C496 1.394 . S
C497 C498 1.516 . S
C498 C497 1.516 . S
C498 C499 1.502 . S
C498 C500 1.561 . S
C498 C501 1.526 . S
C499 H483 0.959 . S
C499 H484 0.959 . S
C499 H485 0.961 . S
C499 C498 1.502 . S
C500 H486 0.960 . S
C500 H487 0.961 . S
C500 H488 0.959 . S
C500 C498 1.561 . S
C501 C498 1.526 . S
C501 C502 1.396 . S
C501 C506 1.390 . S
C502 C496 1.465 . S
C502 C501 1.396 . S
C502 C503 1.399 . S
C503 H489 0.929 . S
C503 C502 1.399 . S
C503 C504 1.385 . S
C504 H490 0.931 . S
C504 C503 1.385 . S
C504 C505 1.389 . S
C505 C504 1.389 . S
C505 C506 1.387 . S
C506 H491 0.930 . S
C506 C501 1.390 . S
C506 C505 1.387 . S
H507 C519 0.930 . S
H508 C521 0.930 . S
H509 C522 0.930 . S
H510 C526 0.959 . S
H511 C526 0.959 . S
H512 C526 0.961 . S
H513 C527 0.960 . S
H514 C527 0.961 . S
H515 C527 0.959 . S
H516 C530 0.929 . S
H517 C531 0.931 . S
H518 C533 0.930 . S
C519 H507 0.930 . S
C519 C520 1.399 . S
C519 C524 1.399 . S
C520 C519 1.399 . S
C520 C521 1.376 . S
C521 H508 0.930 . S
C521 C520 1.376 . S
C521 C522 1.388 . S
C522 H509 0.930 . S
C522 C521 1.388 . S
C522 C523 1.390 . S
C523 C522 1.390 . S
C523 C524 1.394 . S
C523 C529 1.465 . S
C524 C519 1.399 . S
C524 C523 1.394 . S
C524 C525 1.516 . S
C525 C524 1.516 . S
C525 C526 1.502 . S
C525 C527 1.561 . S
C525 C528 1.526 . S
C526 H510 0.959 . S
C526 H511 0.959 . S
C526 H512 0.961 . S
C526 C525 1.502 . S
C527 H513 0.960 . S
C527 H514 0.961 . S
C527 H515 0.959 . S
C527 C525 1.561 . S
C528 C525 1.526 . S
C528 C529 1.396 . S
C528 C533 1.390 . S
C529 C523 1.465 . S
C529 C528 1.396 . S
C529 C530 1.399 . S
C530 H516 0.929 . S
C530 C529 1.399 . S
C530 C531 1.385 . S
C531 H517 0.931 . S
C531 C530 1.385 . S
C531 C532 1.389 . S
C532 C531 1.389 . S
C532 C533 1.387 . S
C533 H518 0.930 . S
C533 C528 1.390 . S
C533 C532 1.387 . S
H534 C546 0.930 . S
H535 C548 0.930 . S
H536 C549 0.930 . S
H537 C553 0.959 . S
H538 C553 0.959 . S
H539 C553 0.961 . S
H540 C554 0.960 . S
H541 C554 0.961 . S
H542 C554 0.959 . S
H543 C557 0.929 . S
H544 C558 0.931 . S
H545 C560 0.930 . S
C546 H534 0.930 . S
C546 C547 1.399 . S
C546 C551 1.399 . S
C547 C546 1.399 . S
C547 C548 1.376 . S
C548 H535 0.930 . S
C548 C547 1.376 . S
C548 C549 1.388 . S
C549 H536 0.930 . S
C549 C548 1.388 . S
C549 C550 1.390 . S
C550 C549 1.390 . S
C550 C551 1.394 . S
C550 C556 1.465 . S
C551 C546 1.399 . S
C551 C550 1.394 . S
C551 C552 1.516 . S
C552 C551 1.516 . S
C552 C553 1.502 . S
C552 C554 1.561 . S
C552 C555 1.526 . S
C553 H537 0.959 . S
C553 H538 0.959 . S
C553 H539 0.961 . S
C553 C552 1.502 . S
C554 H540 0.960 . S
C554 H541 0.961 . S
C554 H542 0.959 . S
C554 C552 1.561 . S
C555 C552 1.526 . S
C555 C556 1.396 . S
C555 C560 1.390 . S
C556 C550 1.465 . S
C556 C555 1.396 . S
C556 C557 1.399 . S
C557 H543 0.929 . S
C557 C556 1.399 . S
C557 C558 1.385 . S
C558 H544 0.931 . S
C558 C557 1.385 . S
C558 C559 1.389 . S
C559 C558 1.389 . S
C559 C560 1.387 . S
C560 H545 0.930 . S
C560 C555 1.390 . S
C560 C559 1.387 . S
H561 C573 0.930 . S
H562 C575 0.930 . S
H563 C576 0.930 . S
H564 C580 0.959 . S
H565 C580 0.959 . S
H566 C580 0.961 . S
H567 C581 0.960 . S
H568 C581 0.961 . S
H569 C581 0.959 . S
H570 C584 0.929 . S
H571 C585 0.931 . S
H572 C587 0.930 . S
C573 H561 0.930 . S
C573 C574 1.399 . S
C573 C578 1.399 . S
C574 C573 1.399 . S
C574 C575 1.376 . S
C575 H562 0.930 . S
C575 C574 1.376 . S
C575 C576 1.388 . S
C576 H563 0.930 . S
C576 C575 1.388 . S
C576 C577 1.390 . S
C577 C576 1.390 . S
C577 C578 1.394 . S
C577 C583 1.465 . S
C578 C573 1.399 . S
C578 C577 1.394 . S
C578 C579 1.516 . S
C579 C578 1.516 . S
C579 C580 1.502 . S
C579 C581 1.561 . S
C579 C582 1.526 . S
C580 H564 0.959 . S
C580 H565 0.959 . S
C580 H566 0.961 . S
C580 C579 1.502 . S
C581 H567 0.960 . S
C581 H568 0.961 . S
C581 H569 0.959 . S
C581 C579 1.561 . S
C582 C579 1.526 . S
C582 C583 1.396 . S
C582 C587 1.390 . S
C583 C577 1.465 . S
C583 C582 1.396 . S
C583 C584 1.399 . S
C584 H570 0.929 . S
C584 C583 1.399 . S
C584 C585 1.385 . S
C585 H571 0.931 . S
C585 C584 1.385 . S
C585 C586 1.389 . S
C586 C585 1.389 . S
C586 C587 1.387 . S
C587 H572 0.930 . S
C587 C582 1.390 . S
C587 C586 1.387 . S
H588 C600 0.930 . S
H589 C602 0.930 . S
H590 C603 0.930 . S
H591 C607 0.959 . S
H592 C607 0.959 . S
H593 C607 0.961 . S
H594 C608 0.960 . S
H595 C608 0.961 . S
H596 C608 0.959 . S
H597 C611 0.929 . S
H598 C612 0.931 . S
H599 C614 0.930 . S
C600 H588 0.930 . S
C600 C601 1.399 . S
C600 C605 1.399 . S
C601 C600 1.399 . S
C601 C602 1.376 . S
C602 H589 0.930 . S
C602 C601 1.376 . S
C602 C603 1.388 . S
C603 H590 0.930 . S
C603 C602 1.388 . S
C603 C604 1.390 . S
C604 C603 1.390 . S
C604 C605 1.394 . S
C604 C610 1.465 . S
C605 C600 1.399 . S
C605 C604 1.394 . S
C605 C606 1.516 . S
C606 C605 1.516 . S
C606 C607 1.502 . S
C606 C608 1.561 . S
C606 C609 1.526 . S
C607 H591 0.959 . S
C607 H592 0.959 . S
C607 H593 0.961 . S
C607 C606 1.502 . S
C608 H594 0.960 . S
C608 H595 0.961 . S
C608 H596 0.959 . S
C608 C606 1.561 . S
C609 C606 1.526 . S
C609 C610 1.396 . S
C609 C614 1.390 . S
C610 C604 1.465 . S
C610 C609 1.396 . S
C610 C611 1.399 . S
C611 H597 0.929 . S
C611 C610 1.399 . S
C611 C612 1.385 . S
C612 H598 0.931 . S
C612 C611 1.385 . S
C612 C613 1.389 . S
C613 C612 1.389 . S
C613 C614 1.387 . S
C614 H599 0.930 . S
C614 C609 1.390 . S
C614 C613 1.387 . S
H615 C627 0.930 . S
H616 C629 0.930 . S
H617 C630 0.930 . S
H618 C634 0.959 . S
H619 C634 0.959 . S
H620 C634 0.961 . S
H621 C635 0.960 . S
H622 C635 0.961 . S
H623 C635 0.959 . S
H624 C638 0.929 . S
H625 C639 0.931 1_545 S
H626 C641 0.930 . S
C627 H615 0.930 . S
C627 C628 1.399 . S
C627 C632 1.399 . S
C628 C627 1.399 . S
C628 C629 1.376 . S
C629 H616 0.930 . S
C629 C628 1.376 . S
C629 C630 1.388 . S
C630 H617 0.930 . S
C630 C629 1.388 . S
C630 C631 1.390 . S
C631 C630 1.390 . S
C631 C632 1.394 . S
C631 C637 1.465 . S
C632 C627 1.399 . S
C632 C631 1.394 . S
C632 C633 1.516 . S
C633 C632 1.516 . S
C633 C634 1.502 . S
C633 C635 1.561 . S
C633 C636 1.526 . S
C634 H618 0.959 . S
C634 H619 0.959 . S
C634 H620 0.961 . S
C634 C633 1.502 . S
C635 H621 0.960 . S
C635 H622 0.961 . S
C635 H623 0.959 . S
C635 C633 1.561 . S
C636 C633 1.526 . S
C636 C637 1.396 . S
C636 C641 1.390 . S
C637 C631 1.465 . S
C637 C636 1.396 . S
C637 C638 1.399 . S
C638 H624 0.929 . S
C638 C637 1.399 . S
C638 C639 1.385 . S
C639 H625 0.931 1_565 S
C639 C638 1.385 . S
C639 C640 1.389 . S
C640 C639 1.389 . S
C640 C641 1.387 . S
C641 H626 0.930 . S
C641 C636 1.390 . S
C641 C640 1.387 . S
H642 C654 0.930 . S
H643 C656 0.930 . S
H644 C657 0.930 . S
H645 C661 0.959 . S
H646 C661 0.959 . S
H647 C661 0.961 . S
H648 C662 0.960 . S
H649 C662 0.961 . S
H650 C662 0.959 . S
H651 C665 0.929 . S
H652 C666 0.931 . S
H653 C668 0.930 . S
C654 H642 0.930 . S
C654 C655 1.399 . S
C654 C659 1.399 . S
C655 C654 1.399 . S
C655 C656 1.376 . S
C656 H643 0.930 . S
C656 C655 1.376 . S
C656 C657 1.388 . S
C657 H644 0.930 . S
C657 C656 1.388 . S
C657 C658 1.390 . S
C658 C657 1.390 . S
C658 C659 1.394 . S
C658 C664 1.465 . S
C659 C654 1.399 . S
C659 C658 1.394 . S
C659 C660 1.516 . S
C660 C659 1.516 . S
C660 C661 1.502 . S
C660 C662 1.561 . S
C660 C663 1.526 . S
C661 H645 0.959 . S
C661 H646 0.959 . S
C661 H647 0.961 . S
C661 C660 1.502 . S
C662 H648 0.960 . S
C662 H649 0.961 . S
C662 H650 0.959 . S
C662 C660 1.561 . S
C663 C660 1.526 . S
C663 C664 1.396 . S
C663 C668 1.390 . S
C664 C658 1.465 . S
C664 C663 1.396 . S
C664 C665 1.399 . S
C665 H651 0.929 . S
C665 C664 1.399 . S
C665 C666 1.385 . S
C666 H652 0.931 . S
C666 C665 1.385 . S
C666 C667 1.389 . S
C667 C666 1.389 . S
C667 C668 1.387 . S
C668 H653 0.930 . S
C668 C663 1.390 . S
C668 C667 1.387 . S
H669 C681 0.930 . S
H670 C683 0.930 . S
H671 C684 0.930 . S
H672 C688 0.959 . S
H673 C688 0.959 . S
H674 C688 0.961 . S
H675 C689 0.960 . S
H676 C689 0.961 . S
H677 C689 0.959 . S
H678 C692 0.929 . S
H679 C693 0.931 . S
H680 C695 0.930 . S
C681 H669 0.930 . S
C681 C682 1.399 . S
C681 C686 1.399 . S
C682 C681 1.399 . S
C682 C683 1.376 . S
C683 H670 0.930 . S
C683 C682 1.376 . S
C683 C684 1.388 . S
C684 H671 0.930 . S
C684 C683 1.388 . S
C684 C685 1.390 . S
C685 C684 1.390 . S
C685 C686 1.394 . S
C685 C691 1.465 . S
C686 C681 1.399 . S
C686 C685 1.394 . S
C686 C687 1.516 . S
C687 C686 1.516 . S
C687 C688 1.502 . S
C687 C689 1.561 . S
C687 C690 1.526 . S
C688 H672 0.959 . S
C688 H673 0.959 . S
C688 H674 0.961 . S
C688 C687 1.502 . S
C689 H675 0.960 . S
C689 H676 0.961 . S
C689 H677 0.959 . S
C689 C687 1.561 . S
C690 C687 1.526 . S
C690 C691 1.396 . S
C690 C695 1.390 . S
C691 C685 1.465 . S
C691 C690 1.396 . S
C691 C692 1.399 . S
C692 H678 0.929 . S
C692 C691 1.399 . S
C692 C693 1.385 . S
C693 H679 0.931 . S
C693 C692 1.385 . S
C693 C694 1.389 . S
C694 C693 1.389 . S
C694 C695 1.387 . S
C695 H680 0.930 . S
C695 C690 1.390 . S
C695 C694 1.387 . S
H696 C708 0.930 . S
H697 C710 0.930 . S
H698 C711 0.930 . S
H699 C715 0.959 . S
H700 C715 0.959 . S
H701 C715 0.961 . S
H702 C716 0.960 . S
H703 C716 0.961 . S
H704 C716 0.959 . S
H705 C719 0.929 . S
H706 C720 0.931 . S
H707 C722 0.930 . S
C708 H696 0.930 . S
C708 C709 1.399 . S
C708 C713 1.399 . S
C709 C708 1.399 . S
C709 C710 1.376 . S
C710 H697 0.930 . S
C710 C709 1.376 . S
C710 C711 1.388 . S
C711 H698 0.930 . S
C711 C710 1.388 . S
C711 C712 1.390 . S
C712 C711 1.390 . S
C712 C713 1.394 . S
C712 C718 1.465 . S
C713 C708 1.399 . S
C713 C712 1.394 . S
C713 C714 1.516 . S
C714 C713 1.516 . S
C714 C715 1.502 . S
C714 C716 1.561 . S
C714 C717 1.526 . S
C715 H699 0.959 . S
C715 H700 0.959 . S
C715 H701 0.961 . S
C715 C714 1.502 . S
C716 H702 0.960 . S
C716 H703 0.961 . S
C716 H704 0.959 . S
C716 C714 1.561 . S
C717 C714 1.526 . S
C717 C718 1.396 . S
C717 C722 1.390 . S
C718 C712 1.465 . S
C718 C717 1.396 . S
C718 C719 1.399 . S
C719 H705 0.929 . S
C719 C718 1.399 . S
C719 C720 1.385 . S
C720 H706 0.931 . S
C720 C719 1.385 . S
C720 C721 1.389 . S
C721 C720 1.389 . S
C721 C722 1.387 . S
C722 H707 0.930 . S
C722 C717 1.390 . S
C722 C721 1.387 . S
H723 C735 0.930 . S
H724 C737 0.930 . S
H725 C738 0.930 . S
H726 C742 0.959 . S
H727 C742 0.959 . S
H728 C742 0.961 . S
H729 C743 0.960 . S
H730 C743 0.961 . S
H731 C743 0.959 . S
H732 C746 0.929 . S
H733 C747 0.931 . S
H734 C749 0.930 . S
C735 H723 0.930 . S
C735 C736 1.399 . S
C735 C740 1.399 . S
C736 C735 1.399 . S
C736 C737 1.376 . S
C737 H724 0.930 . S
C737 C736 1.376 . S
C737 C738 1.388 . S
C738 H725 0.930 . S
C738 C737 1.388 . S
C738 C739 1.390 . S
C739 C738 1.390 . S
C739 C740 1.394 . S
C739 C745 1.465 . S
C740 C735 1.399 . S
C740 C739 1.394 . S
C740 C741 1.516 . S
C741 C740 1.516 . S
C741 C742 1.502 . S
C741 C743 1.561 . S
C741 C744 1.526 . S
C742 H726 0.959 . S
C742 H727 0.959 . S
C742 H728 0.961 . S
C742 C741 1.502 . S
C743 H729 0.960 . S
C743 H730 0.961 . S
C743 H731 0.959 . S
C743 C741 1.561 . S
C744 C741 1.526 . S
C744 C745 1.396 . S
C744 C749 1.390 . S
C745 C739 1.465 . S
C745 C744 1.396 . S
C745 C746 1.399 . S
C746 H732 0.929 . S
C746 C745 1.399 . S
C746 C747 1.385 . S
C747 H733 0.931 . S
C747 C746 1.385 . S
C747 C748 1.389 . S
C748 C747 1.389 . S
C748 C749 1.387 . S
C749 H734 0.930 . S
C749 C744 1.390 . S
C749 C748 1.387 . S
H750 C762 0.930 . S
H751 C764 0.930 . S
H752 C765 0.930 . S
H753 C769 0.959 . S
H754 C769 0.959 . S
H755 C769 0.961 . S
H756 C770 0.960 . S
H757 C770 0.961 . S
H758 C770 0.959 . S
H759 C773 0.929 . S
H760 C774 0.931 . S
H761 C776 0.930 . S
C762 H750 0.930 . S
C762 C763 1.399 . S
C762 C767 1.399 . S
C763 C762 1.399 . S
C763 C764 1.376 . S
C764 H751 0.930 . S
C764 C763 1.376 . S
C764 C765 1.388 . S
C765 H752 0.930 . S
C765 C764 1.388 . S
C765 C766 1.390 . S
C766 C765 1.390 . S
C766 C767 1.394 . S
C766 C772 1.465 . S
C767 C762 1.399 . S
C767 C766 1.394 . S
C767 C768 1.516 . S
C768 C767 1.516 . S
C768 C769 1.502 . S
C768 C770 1.561 . S
C768 C771 1.526 . S
C769 H753 0.959 . S
C769 H754 0.959 . S
C769 H755 0.961 . S
C769 C768 1.502 . S
C770 H756 0.960 . S
C770 H757 0.961 . S
C770 H758 0.959 . S
C770 C768 1.561 . S
C771 C768 1.526 . S
C771 C772 1.396 . S
C771 C776 1.390 . S
C772 C766 1.465 . S
C772 C771 1.396 . S
C772 C773 1.399 . S
C773 H759 0.929 . S
C773 C772 1.399 . S
C773 C774 1.385 . S
C774 H760 0.931 . S
C774 C773 1.385 . S
C774 C775 1.389 . S
C775 C774 1.389 . S
C775 C776 1.387 . S
C776 H761 0.930 . S
C776 C771 1.390 . S
C776 C775 1.387 . S
H777 C789 0.930 . S
H778 C791 0.930 . S
H779 C792 0.930 . S
H780 C796 0.959 . S
H781 C796 0.959 . S
H782 C796 0.961 . S
H783 C797 0.960 . S
H784 C797 0.961 . S
H785 C797 0.959 . S
H786 C800 0.929 . S
H787 C801 0.931 . S
H788 C803 0.930 . S
C789 H777 0.930 . S
C789 C790 1.399 . S
C789 C794 1.399 . S
C790 C789 1.399 . S
C790 C791 1.376 . S
C791 H778 0.930 . S
C791 C790 1.376 . S
C791 C792 1.388 . S
C792 H779 0.930 . S
C792 C791 1.388 . S
C792 C793 1.390 . S
C793 C792 1.390 . S
C793 C794 1.394 . S
C793 C799 1.465 . S
C794 C789 1.399 . S
C794 C793 1.394 . S
C794 C795 1.516 . S
C795 C794 1.516 . S
C795 C796 1.502 . S
C795 C797 1.561 . S
C795 C798 1.526 . S
C796 H780 0.959 . S
C796 H781 0.959 . S
C796 H782 0.961 . S
C796 C795 1.502 . S
C797 H783 0.960 . S
C797 H784 0.961 . S
C797 H785 0.959 . S
C797 C795 1.561 . S
C798 C795 1.526 . S
C798 C799 1.396 . S
C798 C803 1.390 . S
C799 C793 1.465 . S
C799 C798 1.396 . S
C799 C800 1.399 . S
C800 H786 0.929 . S
C800 C799 1.399 . S
C800 C801 1.385 . S
C801 H787 0.931 . S
C801 C800 1.385 . S
C801 C802 1.389 . S
C802 C801 1.389 . S
C802 C803 1.387 . S
C803 H788 0.930 . S
C803 C798 1.390 . S
C803 C802 1.387 . S
H804 C816 0.930 . S
H805 C818 0.930 . S
H806 C819 0.930 . S
H807 C823 0.959 . S
H808 C823 0.959 . S
H809 C823 0.961 . S
H810 C824 0.960 . S
H811 C824 0.961 . S
H812 C824 0.959 . S
H813 C827 0.929 . S
H814 C828 0.931 . S
H815 C830 0.930 . S
C816 H804 0.930 . S
C816 C817 1.399 . S
C816 C821 1.399 . S
C817 C816 1.399 . S
C817 C818 1.376 . S
C818 H805 0.930 . S
C818 C817 1.376 . S
C818 C819 1.388 . S
C819 H806 0.930 . S
C819 C818 1.388 . S
C819 C820 1.390 . S
C820 C819 1.390 . S
C820 C821 1.394 . S
C820 C826 1.465 . S
C821 C816 1.399 . S
C821 C820 1.394 . S
C821 C822 1.516 . S
C822 C821 1.516 . S
C822 C823 1.502 . S
C822 C824 1.561 . S
C822 C825 1.526 . S
C823 H807 0.959 . S
C823 H808 0.959 . S
C823 H809 0.961 . S
C823 C822 1.502 . S
C824 H810 0.960 . S
C824 H811 0.961 . S
C824 H812 0.959 . S
C824 C822 1.561 . S
C825 C822 1.526 . S
C825 C826 1.396 . S
C825 C830 1.390 . S
C826 C820 1.465 . S
C826 C825 1.396 . S
C826 C827 1.399 . S
C827 H813 0.929 . S
C827 C826 1.399 . S
C827 C828 1.385 . S
C828 H814 0.931 . S
C828 C827 1.385 . S
C828 C829 1.389 . S
C829 C828 1.389 . S
C829 C830 1.387 . S
C830 H815 0.930 . S
C830 C825 1.390 . S
C830 C829 1.387 . S
H831 C843 0.930 . S
H832 C845 0.930 . S
H833 C846 0.930 . S
H834 C850 0.959 . S
H835 C850 0.959 . S
H836 C850 0.961 . S
H837 C851 0.960 . S
H838 C851 0.961 . S
H839 C851 0.959 . S
H840 C854 0.929 . S
H841 C855 0.931 . S
H842 C857 0.930 . S
C843 H831 0.930 . S
C843 C844 1.399 . S
C843 C848 1.399 . S
C844 C843 1.399 . S
C844 C845 1.376 . S
C845 H832 0.930 . S
C845 C844 1.376 . S
C845 C846 1.388 . S
C846 H833 0.930 . S
C846 C845 1.388 . S
C846 C847 1.390 . S
C847 C846 1.390 . S
C847 C848 1.394 . S
C847 C853 1.465 . S
C848 C843 1.399 . S
C848 C847 1.394 . S
C848 C849 1.516 . S
C849 C848 1.516 . S
C849 C850 1.502 . S
C849 C851 1.561 . S
C849 C852 1.526 . S
C850 H834 0.959 . S
C850 H835 0.959 . S
C850 H836 0.961 . S
C850 C849 1.502 . S
C851 H837 0.960 . S
C851 H838 0.961 . S
C851 H839 0.959 . S
C851 C849 1.561 . S
C852 C849 1.526 . S
C852 C853 1.396 . S
C852 C857 1.390 . S
C853 C847 1.465 . S
C853 C852 1.396 . S
C853 C854 1.399 . S
C854 H840 0.929 . S
C854 C853 1.399 . S
C854 C855 1.385 . S
C855 H841 0.931 . S
C855 C854 1.385 . S
C855 C856 1.389 . S
C856 C855 1.389 . S
C856 C857 1.387 . S
C857 H842 0.930 . S
C857 C852 1.390 . S
C857 C856 1.387 . S
H858 C870 0.930 . S
H859 C872 0.930 . S
H860 C873 0.930 . S
H861 C877 0.959 . S
H862 C877 0.959 . S
H863 C877 0.961 . S
H864 C878 0.960 . S
H865 C878 0.961 . S
H866 C878 0.959 . S
H867 C881 0.929 . S
H868 C882 0.931 . S
H869 C884 0.930 . S
C870 H858 0.930 . S
C870 C871 1.399 . S
C870 C875 1.399 . S
C871 C870 1.399 . S
C871 C872 1.376 . S
C872 H859 0.930 . S
C872 C871 1.376 . S
C872 C873 1.388 . S
C873 H860 0.930 . S
C873 C872 1.388 . S
C873 C874 1.390 . S
C874 C873 1.390 . S
C874 C875 1.394 . S
C874 C880 1.465 . S
C875 C870 1.399 . S
C875 C874 1.394 . S
C875 C876 1.516 . S
C876 C875 1.516 . S
C876 C877 1.502 . S
C876 C878 1.561 . S
C876 C879 1.526 . S
C877 H861 0.959 . S
C877 H862 0.959 . S
C877 H863 0.961 . S
C877 C876 1.502 . S
C878 H864 0.960 . S
C878 H865 0.961 . S
C878 H866 0.959 . S
C878 C876 1.561 . S
C879 C876 1.526 . S
C879 C880 1.396 . S
C879 C884 1.390 . S
C880 C874 1.465 . S
C880 C879 1.396 . S
C880 C881 1.399 . S
C881 H867 0.929 . S
C881 C880 1.399 . S
C881 C882 1.385 . S
C882 H868 0.931 . S
C882 C881 1.385 . S
C882 C883 1.389 . S
C883 C882 1.389 . S
C883 C884 1.387 . S
C884 H869 0.930 . S
C884 C879 1.390 . S
C884 C883 1.387 . S
H885 C897 0.930 . S
H886 C899 0.930 . S
H887 C900 0.930 . S
H888 C904 0.959 . S
H889 C904 0.959 . S
H890 C904 0.961 . S
H891 C905 0.960 . S
H892 C905 0.961 . S
H893 C905 0.959 . S
H894 C908 0.929 . S
H895 C909 0.931 . S
H896 C911 0.930 . S
C897 H885 0.930 . S
C897 C898 1.399 . S
C897 C902 1.399 . S
C898 C897 1.399 . S
C898 C899 1.376 . S
C899 H886 0.930 . S
C899 C898 1.376 . S
C899 C900 1.388 . S
C900 H887 0.930 . S
C900 C899 1.388 . S
C900 C901 1.390 . S
C901 C900 1.390 . S
C901 C902 1.394 . S
C901 C907 1.465 . S
C902 C897 1.399 . S
C902 C901 1.394 . S
C902 C903 1.516 . S
C903 C902 1.516 . S
C903 C904 1.502 . S
C903 C905 1.561 . S
C903 C906 1.526 . S
C904 H888 0.959 . S
C904 H889 0.959 . S
C904 H890 0.961 . S
C904 C903 1.502 . S
C905 H891 0.960 . S
C905 H892 0.961 . S
C905 H893 0.959 . S
C905 C903 1.561 . S
C906 C903 1.526 . S
C906 C907 1.396 . S
C906 C911 1.390 . S
C907 C901 1.465 . S
C907 C906 1.396 . S
C907 C908 1.399 . S
C908 H894 0.929 . S
C908 C907 1.399 . S
C908 C909 1.385 . S
C909 H895 0.931 . S
C909 C908 1.385 . S
C909 C910 1.389 . S
C910 C909 1.389 . S
C910 C911 1.387 . S
C911 H896 0.930 . S
C911 C906 1.390 . S
C911 C910 1.387 . S
H912 C924 0.930 . S
H913 C926 0.930 . S
H914 C927 0.930 . S
H915 C931 0.959 . S
H916 C931 0.959 . S
H917 C931 0.961 . S
H918 C932 0.960 . S
H919 C932 0.961 . S
H920 C932 0.959 . S
H921 C935 0.929 . S
H922 C936 0.931 . S
H923 C938 0.930 . S
C924 H912 0.930 . S
C924 C925 1.399 . S
C924 C929 1.399 . S
C925 C924 1.399 . S
C925 C926 1.376 . S
C926 H913 0.930 . S
C926 C925 1.376 . S
C926 C927 1.388 . S
C927 H914 0.930 . S
C927 C926 1.388 . S
C927 C928 1.390 . S
C928 C927 1.390 . S
C928 C929 1.394 . S
C928 C934 1.465 . S
C929 C924 1.399 . S
C929 C928 1.394 . S
C929 C930 1.516 . S
C930 C929 1.516 . S
C930 C931 1.502 . S
C930 C932 1.561 . S
C930 C933 1.526 . S
C931 H915 0.959 . S
C931 H916 0.959 . S
C931 H917 0.961 . S
C931 C930 1.502 . S
C932 H918 0.960 . S
C932 H919 0.961 . S
C932 H920 0.959 . S
C932 C930 1.561 . S
C933 C930 1.526 . S
C933 C934 1.396 . S
C933 C938 1.390 . S
C934 C928 1.465 . S
C934 C933 1.396 . S
C934 C935 1.399 . S
C935 H921 0.929 . S
C935 C934 1.399 . S
C935 C936 1.385 . S
C936 H922 0.931 . S
C936 C935 1.385 . S
C936 C937 1.389 . S
C937 C936 1.389 . S
C937 C938 1.387 . S
C938 H923 0.930 . S
C938 C933 1.390 . S
C938 C937 1.387 . S
H939 C951 0.930 . S
H940 C953 0.930 . S
H941 C954 0.930 . S
H942 C958 0.959 . S
H943 C958 0.959 . S
H944 C958 0.961 . S
H945 C959 0.960 . S
H946 C959 0.961 . S
H947 C959 0.959 . S
H948 C962 0.929 . S
H949 C963 0.931 . S
H950 C965 0.930 . S
C951 H939 0.930 . S
C951 C952 1.399 . S
C951 C956 1.399 . S
C952 C951 1.399 . S
C952 C953 1.376 . S
C953 H940 0.930 . S
C953 C952 1.376 . S
C953 C954 1.388 . S
C954 H941 0.930 . S
C954 C953 1.388 . S
C954 C955 1.390 . S
C955 C954 1.390 . S
C955 C956 1.394 . S
C955 C961 1.465 . S
C956 C951 1.399 . S
C956 C955 1.394 . S
C956 C957 1.516 . S
C957 C956 1.516 . S
C957 C958 1.502 . S
C957 C959 1.561 . S
C957 C960 1.526 . S
C958 H942 0.959 . S
C958 H943 0.959 . S
C958 H944 0.961 . S
C958 C957 1.502 . S
C959 H945 0.960 . S
C959 H946 0.961 . S
C959 H947 0.959 . S
C959 C957 1.561 . S
C960 C957 1.526 . S
C960 C961 1.396 . S
C960 C965 1.390 . S
C961 C955 1.465 . S
C961 C960 1.396 . S
C961 C962 1.399 . S
C962 H948 0.929 . S
C962 C961 1.399 . S
C962 C963 1.385 . S
C963 H949 0.931 . S
C963 C962 1.385 . S
C963 C964 1.389 . S
C964 C963 1.389 . S
C964 C965 1.387 . S
C965 H950 0.930 . S
C965 C960 1.390 . S
C965 C964 1.387 . S
H966 C978 0.930 . S
H967 C980 0.930 . S
H968 C981 0.930 . S
H969 C985 0.959 . S
H970 C985 0.959 . S
H971 C985 0.961 . S
H972 C986 0.960 . S
H973 C986 0.961 . S
H974 C986 0.959 . S
H975 C989 0.929 . S
H976 C990 0.931 . S
H977 C992 0.930 . S
C978 H966 0.930 . S
C978 C979 1.399 . S
C978 C983 1.399 . S
C979 C978 1.399 . S
C979 C980 1.376 . S
C980 H967 0.930 . S
C980 C979 1.376 . S
C980 C981 1.388 . S
C981 H968 0.930 . S
C981 C980 1.388 . S
C981 C982 1.390 . S
C982 C981 1.390 . S
C982 C983 1.394 . S
C982 C988 1.465 . S
C983 C978 1.399 . S
C983 C982 1.394 . S
C983 C984 1.516 . S
C984 C983 1.516 . S
C984 C985 1.502 . S
C984 C986 1.561 . S
C984 C987 1.526 . S
C985 H969 0.959 . S
C985 H970 0.959 . S
C985 H971 0.961 . S
C985 C984 1.502 . S
C986 H972 0.960 . S
C986 H973 0.961 . S
C986 H974 0.959 . S
C986 C984 1.561 . S
C987 C984 1.526 . S
C987 C988 1.396 . S
C987 C992 1.390 . S
C988 C982 1.465 . S
C988 C987 1.396 . S
C988 C989 1.399 . S
C989 H975 0.929 . S
C989 C988 1.399 . S
C989 C990 1.385 . S
C990 H976 0.931 . S
C990 C989 1.385 . S
C990 C991 1.389 . S
C991 C990 1.389 . S
C991 C992 1.387 . S
C992 H977 0.930 . S
C992 C987 1.390 . S
C992 C991 1.387 . S
H993 C1005 0.930 . S
H994 C1007 0.930 . S
H995 C1008 0.930 . S
H996 C1012 0.959 . S
H997 C1012 0.959 . S
H998 C1012 0.961 . S
H999 C1013 0.960 . S
H1000 C1013 0.961 . S
H1001 C1013 0.959 . S
H1002 C1016 0.929 . S
H1003 C1017 0.931 . S
H1004 C1019 0.930 . S
C1005 H993 0.930 . S
C1005 C1006 1.399 . S
C1005 C1010 1.399 . S
C1006 C1005 1.399 . S
C1006 C1007 1.376 . S
C1007 H994 0.930 . S
C1007 C1006 1.376 . S
C1007 C1008 1.388 . S
C1008 H995 0.930 . S
C1008 C1007 1.388 . S
C1008 C1009 1.390 . S
C1009 C1008 1.390 . S
C1009 C1010 1.394 . S
C1009 C1015 1.465 . S
C1010 C1005 1.399 . S
C1010 C1009 1.394 . S
C1010 C1011 1.516 . S
C1011 C1010 1.516 . S
C1011 C1012 1.502 . S
C1011 C1013 1.561 . S
C1011 C1014 1.526 . S
C1012 H996 0.959 . S
C1012 H997 0.959 . S
C1012 H998 0.961 . S
C1012 C1011 1.502 . S
C1013 H999 0.960 . S
C1013 H1000 0.961 . S
C1013 H1001 0.959 . S
C1013 C1011 1.561 . S
C1014 C1011 1.526 . S
C1014 C1015 1.396 . S
C1014 C1019 1.390 . S
C1015 C1009 1.465 . S
C1015 C1014 1.396 . S
C1015 C1016 1.399 . S
C1016 H1002 0.929 . S
C1016 C1015 1.399 . S
C1016 C1017 1.385 . S
C1017 H1003 0.931 . S
C1017 C1016 1.385 . S
C1017 C1018 1.389 . S
C1018 C1017 1.389 . S
C1018 C1019 1.387 . S
C1019 H1004 0.930 . S
C1019 C1014 1.390 . S
C1019 C1018 1.387 . S
H1020 C1032 0.930 . S
H1021 C1034 0.930 . S
H1022 C1035 0.930 . S
H1023 C1039 0.959 . S
H1024 C1039 0.959 . S
H1025 C1039 0.961 . S
H1026 C1040 0.960 . S
H1027 C1040 0.961 . S
H1028 C1040 0.959 . S
H1029 C1043 0.929 . S
H1030 C1044 0.931 . S
H1031 C1046 0.930 . S
C1032 H1020 0.930 . S
C1032 C1033 1.399 . S
C1032 C1037 1.399 . S
C1033 C1032 1.399 . S
C1033 C1034 1.376 . S
C1034 H1021 0.930 . S
C1034 C1033 1.376 . S
C1034 C1035 1.388 . S
C1035 H1022 0.930 . S
C1035 C1034 1.388 . S
C1035 C1036 1.390 . S
C1036 C1035 1.390 . S
C1036 C1037 1.394 . S
C1036 C1042 1.465 . S
C1037 C1032 1.399 . S
C1037 C1036 1.394 . S
C1037 C1038 1.516 . S
C1038 C1037 1.516 . S
C1038 C1039 1.502 . S
C1038 C1040 1.561 . S
C1038 C1041 1.526 . S
C1039 H1023 0.959 . S
C1039 H1024 0.959 . S
C1039 H1025 0.961 . S
C1039 C1038 1.502 . S
C1040 H1026 0.960 . S
C1040 H1027 0.961 . S
C1040 H1028 0.959 . S
C1040 C1038 1.561 . S
C1041 C1038 1.526 . S
C1041 C1042 1.396 . S
C1041 C1046 1.390 . S
C1042 C1036 1.465 . S
C1042 C1041 1.396 . S
C1042 C1043 1.399 . S
C1043 H1029 0.929 . S
C1043 C1042 1.399 . S
C1043 C1044 1.385 . S
C1044 H1030 0.931 . S
C1044 C1043 1.385 . S
C1044 C1045 1.389 . S
C1045 C1044 1.389 . S
C1045 C1046 1.387 . S
C1046 H1031 0.930 . S
C1046 C1041 1.390 . S
C1046 C1045 1.387 . S
H1047 C1059 0.930 . S
H1048 C1061 0.930 . S
H1049 C1062 0.930 . S
H1050 C1066 0.959 . S
H1051 C1066 0.959 . S
H1052 C1066 0.961 . S
H1053 C1067 0.960 . S
H1054 C1067 0.961 . S
H1055 C1067 0.959 . S
H1056 C1070 0.929 . S
H1057 C1071 0.931 . S
H1058 C1073 0.930 . S
C1059 H1047 0.930 . S
C1059 C1060 1.399 . S
C1059 C1064 1.399 . S
C1060 C1059 1.399 . S
C1060 C1061 1.376 . S
C1061 H1048 0.930 . S
C1061 C1060 1.376 . S
C1061 C1062 1.388 . S
C1062 H1049 0.930 . S
C1062 C1061 1.388 . S
C1062 C1063 1.390 . S
C1063 C1062 1.390 . S
C1063 C1064 1.394 . S
C1063 C1069 1.465 . S
C1064 C1059 1.399 . S
C1064 C1063 1.394 . S
C1064 C1065 1.516 . S
C1065 C1064 1.516 . S
C1065 C1066 1.502 . S
C1065 C1067 1.561 . S
C1065 C1068 1.526 . S
C1066 H1050 0.959 . S
C1066 H1051 0.959 . S
C1066 H1052 0.961 . S
C1066 C1065 1.502 . S
C1067 H1053 0.960 . S
C1067 H1054 0.961 . S
C1067 H1055 0.959 . S
C1067 C1065 1.561 . S
C1068 C1065 1.526 . S
C1068 C1069 1.396 . S
C1068 C1073 1.390 . S
C1069 C1063 1.465 . S
C1069 C1068 1.396 . S
C1069 C1070 1.399 . S
C1070 H1056 0.929 . S
C1070 C1069 1.399 . S
C1070 C1071 1.385 . S
C1071 H1057 0.931 . S
C1071 C1070 1.385 . S
C1071 C1072 1.389 . S
C1072 C1071 1.389 . S
C1072 C1073 1.387 . S
C1073 H1058 0.930 . S
C1073 C1068 1.390 . S
C1073 C1072 1.387 . S
H1074 C1086 0.930 . S
H1075 C1088 0.930 . S
H1076 C1089 0.930 . S
H1077 C1093 0.959 . S
H1078 C1093 0.959 . S
H1079 C1093 0.961 . S
H1080 C1094 0.960 . S
H1081 C1094 0.961 . S
H1082 C1094 0.959 . S
H1083 C1097 0.929 . S
H1084 C1098 0.931 . S
H1085 C1100 0.930 . S
C1086 H1074 0.930 . S
C1086 C1087 1.399 . S
C1086 C1091 1.399 . S
C1087 C1086 1.399 . S
C1087 C1088 1.376 . S
C1088 H1075 0.930 . S
C1088 C1087 1.376 . S
C1088 C1089 1.388 . S
C1089 H1076 0.930 . S
C1089 C1088 1.388 . S
C1089 C1090 1.390 . S
C1090 C1089 1.390 . S
C1090 C1091 1.394 . S
C1090 C1096 1.465 . S
C1091 C1086 1.399 . S
C1091 C1090 1.394 . S
C1091 C1092 1.516 . S
C1092 C1091 1.516 . S
C1092 C1093 1.502 . S
C1092 C1094 1.561 . S
C1092 C1095 1.526 . S
C1093 H1077 0.959 . S
C1093 H1078 0.959 . S
C1093 H1079 0.961 . S
C1093 C1092 1.502 . S
C1094 H1080 0.960 . S
C1094 H1081 0.961 . S
C1094 H1082 0.959 . S
C1094 C1092 1.561 . S
C1095 C1092 1.526 . S
C1095 C1096 1.396 . S
C1095 C1100 1.390 . S
C1096 C1090 1.465 . S
C1096 C1095 1.396 . S
C1096 C1097 1.399 . S
C1097 H1083 0.929 . S
C1097 C1096 1.399 . S
C1097 C1098 1.385 . S
C1098 H1084 0.931 . S
C1098 C1097 1.385 . S
C1098 C1099 1.389 . S
C1099 C1098 1.389 . S
C1099 C1100 1.387 . S
C1100 H1085 0.930 . S
C1100 C1095 1.390 . S
C1100 C1099 1.387 . S
H1101 C1113 0.930 . S
H1102 C1115 0.930 . S
H1103 C1116 0.930 . S
H1104 C1120 0.959 . S
H1105 C1120 0.959 . S
H1106 C1120 0.961 . S
H1107 C1121 0.960 . S
H1108 C1121 0.961 . S
H1109 C1121 0.959 . S
H1110 C1124 0.929 . S
H1111 C1125 0.931 . S
H1112 C1127 0.930 . S
C1113 H1101 0.930 . S
C1113 C1114 1.399 . S
C1113 C1118 1.399 . S
C1114 C1113 1.399 . S
C1114 C1115 1.376 . S
C1115 H1102 0.930 . S
C1115 C1114 1.376 . S
C1115 C1116 1.388 . S
C1116 H1103 0.930 . S
C1116 C1115 1.388 . S
C1116 C1117 1.390 . S
C1117 C1116 1.390 . S
C1117 C1118 1.394 . S
C1117 C1123 1.465 . S
C1118 C1113 1.399 . S
C1118 C1117 1.394 . S
C1118 C1119 1.516 . S
C1119 C1118 1.516 . S
C1119 C1120 1.502 . S
C1119 C1121 1.561 . S
C1119 C1122 1.526 . S
C1120 H1104 0.959 . S
C1120 H1105 0.959 . S
C1120 H1106 0.961 . S
C1120 C1119 1.502 . S
C1121 H1107 0.960 . S
C1121 H1108 0.961 . S
C1121 H1109 0.959 . S
C1121 C1119 1.561 . S
C1122 C1119 1.526 . S
C1122 C1123 1.396 . S
C1122 C1127 1.390 . S
C1123 C1117 1.465 . S
C1123 C1122 1.396 . S
C1123 C1124 1.399 . S
C1124 H1110 0.929 . S
C1124 C1123 1.399 . S
C1124 C1125 1.385 . S
C1125 H1111 0.931 . S
C1125 C1124 1.385 . S
C1125 C1126 1.389 . S
C1126 C1125 1.389 . S
C1126 C1127 1.387 . S
C1127 H1112 0.930 . S
C1127 C1122 1.390 . S
C1127 C1126 1.387 . S
H1128 C1140 0.930 . S
H1129 C1142 0.930 . S
H1130 C1143 0.930 . S
H1131 C1147 0.959 . S
H1132 C1147 0.959 . S
H1133 C1147 0.961 . S
H1134 C1148 0.960 . S
H1135 C1148 0.961 . S
H1136 C1148 0.959 . S
H1137 C1151 0.929 . S
H1138 C1152 0.931 . S
H1139 C1154 0.930 . S
C1140 H1128 0.930 . S
C1140 C1141 1.399 . S
C1140 C1145 1.399 . S
C1141 C1140 1.399 . S
C1141 C1142 1.376 . S
C1142 H1129 0.930 . S
C1142 C1141 1.376 . S
C1142 C1143 1.388 . S
C1143 H1130 0.930 . S
C1143 C1142 1.388 . S
C1143 C1144 1.390 . S
C1144 C1143 1.390 . S
C1144 C1145 1.394 . S
C1144 C1150 1.465 . S
C1145 C1140 1.399 . S
C1145 C1144 1.394 . S
C1145 C1146 1.516 . S
C1146 C1145 1.516 . S
C1146 C1147 1.502 . S
C1146 C1148 1.561 . S
C1146 C1149 1.526 . S
C1147 H1131 0.959 . S
C1147 H1132 0.959 . S
C1147 H1133 0.961 . S
C1147 C1146 1.502 . S
C1148 H1134 0.960 . S
C1148 H1135 0.961 . S
C1148 H1136 0.959 . S
C1148 C1146 1.561 . S
C1149 C1146 1.526 . S
C1149 C1150 1.396 . S
C1149 C1154 1.390 . S
C1150 C1144 1.465 . S
C1150 C1149 1.396 . S
C1150 C1151 1.399 . S
C1151 H1137 0.929 . S
C1151 C1150 1.399 . S
C1151 C1152 1.385 . S
C1152 H1138 0.931 . S
C1152 C1151 1.385 . S
C1152 C1153 1.389 . S
C1153 C1152 1.389 . S
C1153 C1154 1.387 . S
C1154 H1139 0.930 . S
C1154 C1149 1.390 . S
C1154 C1153 1.387 . S
H1155 C1167 0.930 . S
H1156 C1169 0.930 . S
H1157 C1170 0.930 . S
H1158 C1174 0.959 . S
H1159 C1174 0.959 . S
H1160 C1174 0.961 . S
H1161 C1175 0.960 . S
H1162 C1175 0.961 . S
H1163 C1175 0.959 . S
H1164 C1178 0.929 . S
H1165 C1179 0.931 . S
H1166 C1181 0.930 . S
C1167 H1155 0.930 . S
C1167 C1168 1.399 . S
C1167 C1172 1.399 . S
C1168 C1167 1.399 . S
C1168 C1169 1.376 . S
C1169 H1156 0.930 . S
C1169 C1168 1.376 . S
C1169 C1170 1.388 . S
C1170 H1157 0.930 . S
C1170 C1169 1.388 . S
C1170 C1171 1.390 . S
C1171 C1170 1.390 . S
C1171 C1172 1.394 . S
C1171 C1177 1.465 . S
C1172 C1167 1.399 . S
C1172 C1171 1.394 . S
C1172 C1173 1.516 . S
C1173 C1172 1.516 . S
C1173 C1174 1.502 . S
C1173 C1175 1.561 . S
C1173 C1176 1.526 . S
C1174 H1158 0.959 . S
C1174 H1159 0.959 . S
C1174 H1160 0.961 . S
C1174 C1173 1.502 . S
C1175 H1161 0.960 . S
C1175 H1162 0.961 . S
C1175 H1163 0.959 . S
C1175 C1173 1.561 . S
C1176 C1173 1.526 . S
C1176 C1177 1.396 . S
C1176 C1181 1.390 . S
C1177 C1171 1.465 . S
C1177 C1176 1.396 . S
C1177 C1178 1.399 . S
C1178 H1164 0.929 . S
C1178 C1177 1.399 . S
C1178 C1179 1.385 . S
C1179 H1165 0.931 . S
C1179 C1178 1.385 . S
C1179 C1180 1.389 . S
C1180 C1179 1.389 . S
C1180 C1181 1.387 . S
C1181 H1166 0.930 . S
C1181 C1176 1.390 . S
C1181 C1180 1.387 . S
H1182 C1194 0.930 . S
H1183 C1196 0.930 . S
H1184 C1197 0.930 . S
H1185 C1201 0.959 . S
H1186 C1201 0.959 . S
H1187 C1201 0.961 . S
H1188 C1202 0.960 . S
H1189 C1202 0.961 . S
H1190 C1202 0.959 . S
H1191 C1205 0.929 . S
H1192 C1206 0.931 . S
H1193 C1208 0.930 . S
C1194 H1182 0.930 . S
C1194 C1195 1.399 . S
C1194 C1199 1.399 . S
C1195 C1194 1.399 . S
C1195 C1196 1.376 . S
C1196 H1183 0.930 . S
C1196 C1195 1.376 . S
C1196 C1197 1.388 . S
C1197 H1184 0.930 . S
C1197 C1196 1.388 . S
C1197 C1198 1.390 . S
C1198 C1197 1.390 . S
C1198 C1199 1.394 . S
C1198 C1204 1.465 . S
C1199 C1194 1.399 . S
C1199 C1198 1.394 . S
C1199 C1200 1.516 . S
C1200 C1199 1.516 . S
C1200 C1201 1.502 . S
C1200 C1202 1.561 . S
C1200 C1203 1.526 . S
C1201 H1185 0.959 . S
C1201 H1186 0.959 . S
C1201 H1187 0.961 . S
C1201 C1200 1.502 . S
C1202 H1188 0.960 . S
C1202 H1189 0.961 . S
C1202 H1190 0.959 . S
C1202 C1200 1.561 . S
C1203 C1200 1.526 . S
C1203 C1204 1.396 . S
C1203 C1208 1.390 . S
C1204 C1198 1.465 . S
C1204 C1203 1.396 . S
C1204 C1205 1.399 . S
C1205 H1191 0.929 . S
C1205 C1204 1.399 . S
C1205 C1206 1.385 . S
C1206 H1192 0.931 . S
C1206 C1205 1.385 . S
C1206 C1207 1.389 . S
C1207 C1206 1.389 . S
C1207 C1208 1.387 . S
C1208 H1193 0.930 . S
C1208 C1203 1.390 . S
C1208 C1207 1.387 . S
H1209 C1221 0.930 . S
H1210 C1223 0.930 . S
H1211 C1224 0.930 . S
H1212 C1228 0.959 . S
H1213 C1228 0.959 . S
H1214 C1228 0.961 . S
H1215 C1229 0.960 . S
H1216 C1229 0.961 . S
H1217 C1229 0.959 . S
H1218 C1232 0.929 . S
H1219 C1233 0.931 . S
H1220 C1235 0.930 . S
C1221 H1209 0.930 . S
C1221 C1222 1.399 . S
C1221 C1226 1.399 . S
C1222 C1221 1.399 . S
C1222 C1223 1.376 . S
C1223 H1210 0.930 . S
C1223 C1222 1.376 . S
C1223 C1224 1.388 . S
C1224 H1211 0.930 . S
C1224 C1223 1.388 . S
C1224 C1225 1.390 . S
C1225 C1224 1.390 . S
C1225 C1226 1.394 . S
C1225 C1231 1.465 . S
C1226 C1221 1.399 . S
C1226 C1225 1.394 . S
C1226 C1227 1.516 . S
C1227 C1226 1.516 . S
C1227 C1228 1.502 . S
C1227 C1229 1.561 . S
C1227 C1230 1.526 . S
C1228 H1212 0.959 . S
C1228 H1213 0.959 . S
C1228 H1214 0.961 . S
C1228 C1227 1.502 . S
C1229 H1215 0.960 . S
C1229 H1216 0.961 . S
C1229 H1217 0.959 . S
C1229 C1227 1.561 . S
C1230 C1227 1.526 . S
C1230 C1231 1.396 . S
C1230 C1235 1.390 . S
C1231 C1225 1.465 . S
C1231 C1230 1.396 . S
C1231 C1232 1.399 . S
C1232 H1218 0.929 . S
C1232 C1231 1.399 . S
C1232 C1233 1.385 . S
C1233 H1219 0.931 . S
C1233 C1232 1.385 . S
C1233 C1234 1.389 . S
C1234 C1233 1.389 . S
C1234 C1235 1.387 . S
C1235 H1220 0.930 . S
C1235 C1230 1.390 . S
C1235 C1234 1.387 . S
H1236 C1248 0.930 . S
H1237 C1250 0.930 . S
H1238 C1251 0.930 . S
H1239 C1255 0.959 . S
H1240 C1255 0.959 . S
H1241 C1255 0.961 . S
H1242 C1256 0.960 . S
H1243 C1256 0.961 . S
H1244 C1256 0.959 . S
H1245 C1259 0.929 . S
H1246 C1260 0.931 . S
H1247 C1262 0.930 . S
C1248 H1236 0.930 . S
C1248 C1249 1.399 . S
C1248 C1253 1.399 . S
C1249 C1248 1.399 . S
C1249 C1250 1.376 . S
C1250 H1237 0.930 . S
C1250 C1249 1.376 . S
C1250 C1251 1.388 . S
C1251 H1238 0.930 . S
C1251 C1250 1.388 . S
C1251 C1252 1.390 . S
C1252 C1251 1.390 . S
C1252 C1253 1.394 . S
C1252 C1258 1.465 . S
C1253 C1248 1.399 . S
C1253 C1252 1.394 . S
C1253 C1254 1.516 . S
C1254 C1253 1.516 . S
C1254 C1255 1.502 . S
C1254 C1256 1.561 . S
C1254 C1257 1.526 . S
C1255 H1239 0.959 . S
C1255 H1240 0.959 . S
C1255 H1241 0.961 . S
C1255 C1254 1.502 . S
C1256 H1242 0.960 . S
C1256 H1243 0.961 . S
C1256 H1244 0.959 . S
C1256 C1254 1.561 . S
C1257 C1254 1.526 . S
C1257 C1258 1.396 . S
C1257 C1262 1.390 . S
C1258 C1252 1.465 . S
C1258 C1257 1.396 . S
C1258 C1259 1.399 . S
C1259 H1245 0.929 . S
C1259 C1258 1.399 . S
C1259 C1260 1.385 . S
C1260 H1246 0.931 . S
C1260 C1259 1.385 . S
C1260 C1261 1.389 . S
C1261 C1260 1.389 . S
C1261 C1262 1.387 . S
C1262 H1247 0.930 . S
C1262 C1257 1.390 . S
C1262 C1261 1.387 . S
H1263 C1275 0.930 . S
H1264 C1277 0.930 . S
H1265 C1278 0.930 . S
H1266 C1282 0.959 . S
H1267 C1282 0.959 . S
H1268 C1282 0.961 . S
H1269 C1283 0.960 . S
H1270 C1283 0.961 . S
H1271 C1283 0.959 . S
H1272 C1286 0.929 . S
H1273 C1287 0.931 . S
H1274 C1289 0.930 . S
C1275 H1263 0.930 . S
C1275 C1276 1.399 . S
C1275 C1280 1.399 . S
C1276 C1275 1.399 . S
C1276 C1277 1.376 . S
C1277 H1264 0.930 . S
C1277 C1276 1.376 . S
C1277 C1278 1.388 . S
C1278 H1265 0.930 . S
C1278 C1277 1.388 . S
C1278 C1279 1.390 . S
C1279 C1278 1.390 . S
C1279 C1280 1.394 . S
C1279 C1285 1.465 . S
C1280 C1275 1.399 . S
C1280 C1279 1.394 . S
C1280 C1281 1.516 . S
C1281 C1280 1.516 . S
C1281 C1282 1.502 . S
C1281 C1283 1.561 . S
C1281 C1284 1.526 . S
C1282 H1266 0.959 . S
C1282 H1267 0.959 . S
C1282 H1268 0.961 . S
C1282 C1281 1.502 . S
C1283 H1269 0.960 . S
C1283 H1270 0.961 . S
C1283 H1271 0.959 . S
C1283 C1281 1.561 . S
C1284 C1281 1.526 . S
C1284 C1285 1.396 . S
C1284 C1289 1.390 . S
C1285 C1279 1.465 . S
C1285 C1284 1.396 . S
C1285 C1286 1.399 . S
C1286 H1272 0.929 . S
C1286 C1285 1.399 . S
C1286 C1287 1.385 . S
C1287 H1273 0.931 . S
C1287 C1286 1.385 . S
C1287 C1288 1.389 . S
C1288 C1287 1.389 . S
C1288 C1289 1.387 . S
C1289 H1274 0.930 . S
C1289 C1284 1.390 . S
C1289 C1288 1.387 . S
H1290 C1302 0.930 . S
H1291 C1304 0.930 . S
H1292 C1305 0.930 . S
H1293 C1309 0.959 . S
H1294 C1309 0.959 . S
H1295 C1309 0.961 . S
H1296 C1310 0.960 . S
H1297 C1310 0.961 . S
H1298 C1310 0.959 . S
H1299 C1313 0.929 . S
H1300 C1314 0.931 . S
H1301 C1316 0.930 . S
C1302 H1290 0.930 . S
C1302 C1303 1.399 . S
C1302 C1307 1.399 . S
C1303 C1302 1.399 . S
C1303 C1304 1.376 . S
C1304 H1291 0.930 . S
C1304 C1303 1.376 . S
C1304 C1305 1.388 . S
C1305 H1292 0.930 . S
C1305 C1304 1.388 . S
C1305 C1306 1.390 . S
C1306 C1305 1.390 . S
C1306 C1307 1.394 . S
C1306 C1312 1.465 . S
C1307 C1302 1.399 . S
C1307 C1306 1.394 . S
C1307 C1308 1.516 . S
C1308 C1307 1.516 . S
C1308 C1309 1.502 . S
C1308 C1310 1.561 . S
C1308 C1311 1.526 . S
C1309 H1293 0.959 . S
C1309 H1294 0.959 . S
C1309 H1295 0.961 . S
C1309 C1308 1.502 . S
C1310 H1296 0.960 . S
C1310 H1297 0.961 . S
C1310 H1298 0.959 . S
C1310 C1308 1.561 . S
C1311 C1308 1.526 . S
C1311 C1312 1.396 . S
C1311 C1316 1.390 . S
C1312 C1306 1.465 . S
C1312 C1311 1.396 . S
C1312 C1313 1.399 . S
C1313 H1299 0.929 . S
C1313 C1312 1.399 . S
C1313 C1314 1.385 . S
C1314 H1300 0.931 . S
C1314 C1313 1.385 . S
C1314 C1315 1.389 . S
C1315 C1314 1.389 . S
C1315 C1316 1.387 . S
C1316 H1301 0.930 . S
C1316 C1311 1.390 . S
C1316 C1315 1.387 . S
H1317 C1329 0.930 . S
H1318 C1331 0.930 . S
H1319 C1332 0.930 . S
H1320 C1336 0.959 . S
H1321 C1336 0.959 . S
H1322 C1336 0.961 . S
H1323 C1337 0.960 . S
H1324 C1337 0.961 . S
H1325 C1337 0.959 . S
H1326 C1340 0.929 . S
H1327 C1341 0.931 . S
H1328 C1343 0.930 . S
C1329 H1317 0.930 . S
C1329 C1330 1.399 . S
C1329 C1334 1.399 . S
C1330 C1329 1.399 . S
C1330 C1331 1.376 . S
C1331 H1318 0.930 . S
C1331 C1330 1.376 . S
C1331 C1332 1.388 . S
C1332 H1319 0.930 . S
C1332 C1331 1.388 . S
C1332 C1333 1.390 . S
C1333 C1332 1.390 . S
C1333 C1334 1.394 . S
C1333 C1339 1.465 . S
C1334 C1329 1.399 . S
C1334 C1333 1.394 . S
C1334 C1335 1.516 . S
C1335 C1334 1.516 . S
C1335 C1336 1.502 . S
C1335 C1337 1.561 . S
C1335 C1338 1.526 . S
C1336 H1320 0.959 . S
C1336 H1321 0.959 . S
C1336 H1322 0.961 . S
C1336 C1335 1.502 . S
C1337 H1323 0.960 . S
C1337 H1324 0.961 . S
C1337 H1325 0.959 . S
C1337 C1335 1.561 . S
C1338 C1335 1.526 . S
C1338 C1339 1.396 . S
C1338 C1343 1.390 . S
C1339 C1333 1.465 . S
C1339 C1338 1.396 . S
C1339 C1340 1.399 . S
C1340 H1326 0.929 . S
C1340 C1339 1.399 . S
C1340 C1341 1.385 . S
C1341 H1327 0.931 . S
C1341 C1340 1.385 . S
C1341 C1342 1.389 . S
C1342 C1341 1.389 . S
C1342 C1343 1.387 . S
C1343 H1328 0.930 . S
C1343 C1338 1.390 . S
C1343 C1342 1.387 . S
H1344 C1356 0.930 . S
H1345 C1358 0.930 . S
H1346 C1359 0.930 . S
H1347 C1363 0.959 . S
H1348 C1363 0.959 . S
H1349 C1363 0.961 . S
H1350 C1364 0.960 . S
H1351 C1364 0.961 . S
H1352 C1364 0.959 . S
H1353 C1367 0.929 . S
H1354 C1368 0.931 . S
H1355 C1370 0.930 . S
C1356 H1344 0.930 . S
C1356 C1357 1.399 . S
C1356 C1361 1.399 . S
C1357 C1356 1.399 . S
C1357 C1358 1.376 . S
C1358 H1345 0.930 . S
C1358 C1357 1.376 . S
C1358 C1359 1.388 . S
C1359 H1346 0.930 . S
C1359 C1358 1.388 . S
C1359 C1360 1.390 . S
C1360 C1359 1.390 . S
C1360 C1361 1.394 . S
C1360 C1366 1.465 . S
C1361 C1356 1.399 . S
C1361 C1360 1.394 . S
C1361 C1362 1.516 . S
C1362 C1361 1.516 . S
C1362 C1363 1.502 . S
C1362 C1364 1.561 . S
C1362 C1365 1.526 . S
C1363 H1347 0.959 . S
C1363 H1348 0.959 . S
C1363 H1349 0.961 . S
C1363 C1362 1.502 . S
C1364 H1350 0.960 . S
C1364 H1351 0.961 . S
C1364 H1352 0.959 . S
C1364 C1362 1.561 . S
C1365 C1362 1.526 . S
C1365 C1366 1.396 . S
C1365 C1370 1.390 . S
C1366 C1360 1.465 . S
C1366 C1365 1.396 . S
C1366 C1367 1.399 . S
C1367 H1353 0.929 . S
C1367 C1366 1.399 . S
C1367 C1368 1.385 . S
C1368 H1354 0.931 . S
C1368 C1367 1.385 . S
C1368 C1369 1.389 . S
C1369 C1368 1.389 . S
C1369 C1370 1.387 . S
C1370 H1355 0.930 . S
C1370 C1365 1.390 . S
C1370 C1369 1.387 . S
H1371 C1383 0.930 . S
H1372 C1385 0.930 . S
H1373 C1386 0.930 . S
H1374 C1390 0.959 . S
H1375 C1390 0.959 . S
H1376 C1390 0.961 . S
H1377 C1391 0.960 . S
H1378 C1391 0.961 . S
H1379 C1391 0.959 . S
H1380 C1394 0.929 . S
H1381 C1395 0.931 . S
H1382 C1397 0.930 . S
C1383 H1371 0.930 . S
C1383 C1384 1.399 . S
C1383 C1388 1.399 . S
C1384 C1383 1.399 . S
C1384 C1385 1.376 . S
C1385 H1372 0.930 . S
C1385 C1384 1.376 . S
C1385 C1386 1.388 . S
C1386 H1373 0.930 . S
C1386 C1385 1.388 . S
C1386 C1387 1.390 . S
C1387 C1386 1.390 . S
C1387 C1388 1.394 . S
C1387 C1393 1.465 . S
C1388 C1383 1.399 . S
C1388 C1387 1.394 . S
C1388 C1389 1.516 . S
C1389 C1388 1.516 . S
C1389 C1390 1.502 . S
C1389 C1391 1.561 . S
C1389 C1392 1.526 . S
C1390 H1374 0.959 . S
C1390 H1375 0.959 . S
C1390 H1376 0.961 . S
C1390 C1389 1.502 . S
C1391 H1377 0.960 . S
C1391 H1378 0.961 . S
C1391 H1379 0.959 . S
C1391 C1389 1.561 . S
C1392 C1389 1.526 . S
C1392 C1393 1.396 . S
C1392 C1397 1.390 . S
C1393 C1387 1.465 . S
C1393 C1392 1.396 . S
C1393 C1394 1.399 . S
C1394 H1380 0.929 . S
C1394 C1393 1.399 . S
C1394 C1395 1.385 . S
C1395 H1381 0.931 . S
C1395 C1394 1.385 . S
C1395 C1396 1.389 . S
C1396 C1395 1.389 . S
C1396 C1397 1.387 . S
C1397 H1382 0.930 . S
C1397 C1392 1.390 . S
C1397 C1396 1.387 . S
H1398 C1410 0.930 . S
H1399 C1412 0.930 . S
H1400 C1413 0.930 . S
H1401 C1417 0.959 . S
H1402 C1417 0.959 . S
H1403 C1417 0.961 . S
H1404 C1418 0.960 . S
H1405 C1418 0.961 . S
H1406 C1418 0.959 . S
H1407 C1421 0.929 . S
H1408 C1422 0.931 . S
H1409 C1424 0.930 . S
C1410 H1398 0.930 . S
C1410 C1411 1.399 . S
C1410 C1415 1.399 . S
C1411 C1410 1.399 . S
C1411 C1412 1.376 . S
C1412 H1399 0.930 . S
C1412 C1411 1.376 . S
C1412 C1413 1.388 . S
C1413 H1400 0.930 . S
C1413 C1412 1.388 . S
C1413 C1414 1.390 . S
C1414 C1413 1.390 . S
C1414 C1415 1.394 . S
C1414 C1420 1.465 . S
C1415 C1410 1.399 . S
C1415 C1414 1.394 . S
C1415 C1416 1.516 . S
C1416 C1415 1.516 . S
C1416 C1417 1.502 . S
C1416 C1418 1.561 . S
C1416 C1419 1.526 . S
C1417 H1401 0.959 . S
C1417 H1402 0.959 . S
C1417 H1403 0.961 . S
C1417 C1416 1.502 . S
C1418 H1404 0.960 . S
C1418 H1405 0.961 . S
C1418 H1406 0.959 . S
C1418 C1416 1.561 . S
C1419 C1416 1.526 . S
C1419 C1420 1.396 . S
C1419 C1424 1.390 . S
C1420 C1414 1.465 . S
C1420 C1419 1.396 . S
C1420 C1421 1.399 . S
C1421 H1407 0.929 . S
C1421 C1420 1.399 . S
C1421 C1422 1.385 . S
C1422 H1408 0.931 . S
C1422 C1421 1.385 . S
C1422 C1423 1.389 . S
C1423 C1422 1.389 . S
C1423 C1424 1.387 . S
C1424 H1409 0.930 . S
C1424 C1419 1.390 . S
C1424 C1423 1.387 . S
H1425 C1437 0.930 . S
H1426 C1439 0.930 . S
H1427 C1440 0.930 . S
H1428 C1444 0.959 . S
H1429 C1444 0.959 . S
H1430 C1444 0.961 . S
H1431 C1445 0.960 . S
H1432 C1445 0.961 . S
H1433 C1445 0.959 . S
H1434 C1448 0.929 . S
H1435 C1449 0.931 . S
H1436 C1451 0.930 . S
C1437 H1425 0.930 . S
C1437 C1438 1.399 . S
C1437 C1442 1.399 . S
C1438 C1437 1.399 . S
C1438 C1439 1.376 . S
C1439 H1426 0.930 . S
C1439 C1438 1.376 . S
C1439 C1440 1.388 . S
C1440 H1427 0.930 . S
C1440 C1439 1.388 . S
C1440 C1441 1.390 . S
C1441 C1440 1.390 . S
C1441 C1442 1.394 . S
C1441 C1447 1.465 . S
C1442 C1437 1.399 . S
C1442 C1441 1.394 . S
C1442 C1443 1.516 . S
C1443 C1442 1.516 . S
C1443 C1444 1.502 . S
C1443 C1445 1.561 . S
C1443 C1446 1.526 . S
C1444 H1428 0.959 . S
C1444 H1429 0.959 . S
C1444 H1430 0.961 . S
C1444 C1443 1.502 . S
C1445 H1431 0.960 . S
C1445 H1432 0.961 . S
C1445 H1433 0.959 . S
C1445 C1443 1.561 . S
C1446 C1443 1.526 . S
C1446 C1447 1.396 . S
C1446 C1451 1.390 . S
C1447 C1441 1.465 . S
C1447 C1446 1.396 . S
C1447 C1448 1.399 . S
C1448 H1434 0.929 . S
C1448 C1447 1.399 . S
C1448 C1449 1.385 . S
C1449 H1435 0.931 . S
C1449 C1448 1.385 . S
C1449 C1450 1.389 . S
C1450 C1449 1.389 . S
C1450 C1451 1.387 . S
C1451 H1436 0.930 . S
C1451 C1446 1.390 . S
C1451 C1450 1.387 . S
H1452 C1464 0.930 . S
H1453 C1466 0.930 . S
H1454 C1467 0.930 . S
H1455 C1471 0.959 . S
H1456 C1471 0.959 . S
H1457 C1471 0.961 . S
H1458 C1472 0.960 . S
H1459 C1472 0.961 . S
H1460 C1472 0.959 . S
H1461 C1475 0.929 . S
H1462 C1476 0.931 . S
H1463 C1478 0.930 . S
C1464 H1452 0.930 . S
C1464 C1465 1.399 . S
C1464 C1469 1.399 . S
C1465 C1464 1.399 . S
C1465 C1466 1.376 . S
C1466 H1453 0.930 . S
C1466 C1465 1.376 . S
C1466 C1467 1.388 . S
C1467 H1454 0.930 . S
C1467 C1466 1.388 . S
C1467 C1468 1.390 . S
C1468 C1467 1.390 . S
C1468 C1469 1.394 . S
C1468 C1474 1.465 . S
C1469 C1464 1.399 . S
C1469 C1468 1.394 . S
C1469 C1470 1.516 . S
C1470 C1469 1.516 . S
C1470 C1471 1.502 . S
C1470 C1472 1.561 . S
C1470 C1473 1.526 . S
C1471 H1455 0.959 . S
C1471 H1456 0.959 . S
C1471 H1457 0.961 . S
C1471 C1470 1.502 . S
C1472 H1458 0.960 . S
C1472 H1459 0.961 . S
C1472 H1460 0.959 . S
C1472 C1470 1.561 . S
C1473 C1470 1.526 . S
C1473 C1474 1.396 . S
C1473 C1478 1.390 . S
C1474 C1468 1.465 . S
C1474 C1473 1.396 . S
C1474 C1475 1.399 . S
C1475 H1461 0.929 . S
C1475 C1474 1.399 . S
C1475 C1476 1.385 . S
C1476 H1462 0.931 . S
C1476 C1475 1.385 . S
C1476 C1477 1.389 . S
C1477 C1476 1.389 . S
C1477 C1478 1.387 . S
C1478 H1463 0.930 . S
C1478 C1473 1.390 . S
C1478 C1477 1.387 . S
H1479 C1491 0.930 . S
H1480 C1493 0.930 . S
H1481 C1494 0.930 . S
H1482 C1498 0.959 . S
H1483 C1498 0.959 . S
H1484 C1498 0.961 . S
H1485 C1499 0.960 . S
H1486 C1499 0.961 . S
H1487 C1499 0.959 . S
H1488 C1502 0.929 . S
H1489 C1503 0.931 . S
H1490 C1505 0.930 . S
C1491 H1479 0.930 . S
C1491 C1492 1.399 . S
C1491 C1496 1.399 . S
C1492 C1491 1.399 . S
C1492 C1493 1.376 . S
C1493 H1480 0.930 . S
C1493 C1492 1.376 . S
C1493 C1494 1.388 . S
C1494 H1481 0.930 . S
C1494 C1493 1.388 . S
C1494 C1495 1.390 . S
C1495 C1494 1.390 . S
C1495 C1496 1.394 . S
C1495 C1501 1.465 . S
C1496 C1491 1.399 . S
C1496 C1495 1.394 . S
C1496 C1497 1.516 . S
C1497 C1496 1.516 . S
C1497 C1498 1.502 . S
C1497 C1499 1.561 . S
C1497 C1500 1.526 . S
C1498 H1482 0.959 . S
C1498 H1483 0.959 . S
C1498 H1484 0.961 . S
C1498 C1497 1.502 . S
C1499 H1485 0.960 . S
C1499 H1486 0.961 . S
C1499 H1487 0.959 . S
C1499 C1497 1.561 . S
C1500 C1497 1.526 . S
C1500 C1501 1.396 . S
C1500 C1505 1.390 . S
C1501 C1495 1.465 . S
C1501 C1500 1.396 . S
C1501 C1502 1.399 . S
C1502 H1488 0.929 . S
C1502 C1501 1.399 . S
C1502 C1503 1.385 . S
C1503 H1489 0.931 . S
C1503 C1502 1.385 . S
C1503 C1504 1.389 . S
C1504 C1503 1.389 . S
C1504 C1505 1.387 . S
C1505 H1490 0.930 . S
C1505 C1500 1.390 . S
C1505 C1504 1.387 . S
H1506 C1518 0.930 . S
H1507 C1520 0.930 . S
H1508 C1521 0.930 . S
H1509 C1525 0.959 . S
H1510 C1525 0.959 . S
H1511 C1525 0.961 . S
H1512 C1526 0.960 . S
H1513 C1526 0.961 . S
H1514 C1526 0.959 . S
H1515 C1529 0.929 . S
H1516 C1530 0.931 . S
H1517 C1532 0.930 . S
C1518 H1506 0.930 . S
C1518 C1519 1.399 . S
C1518 C1523 1.399 . S
C1519 C1518 1.399 . S
C1519 C1520 1.376 . S
C1520 H1507 0.930 . S
C1520 C1519 1.376 . S
C1520 C1521 1.388 . S
C1521 H1508 0.930 . S
C1521 C1520 1.388 . S
C1521 C1522 1.390 . S
C1522 C1521 1.390 . S
C1522 C1523 1.394 . S
C1522 C1528 1.465 . S
C1523 C1518 1.399 . S
C1523 C1522 1.394 . S
C1523 C1524 1.516 . S
C1524 C1523 1.516 . S
C1524 C1525 1.502 . S
C1524 C1526 1.561 . S
C1524 C1527 1.526 . S
C1525 H1509 0.959 . S
C1525 H1510 0.959 . S
C1525 H1511 0.961 . S
C1525 C1524 1.502 . S
C1526 H1512 0.960 . S
C1526 H1513 0.961 . S
C1526 H1514 0.959 . S
C1526 C1524 1.561 . S
C1527 C1524 1.526 . S
C1527 C1528 1.396 . S
C1527 C1532 1.390 . S
C1528 C1522 1.465 . S
C1528 C1527 1.396 . S
C1528 C1529 1.399 . S
C1529 H1515 0.929 . S
C1529 C1528 1.399 . S
C1529 C1530 1.385 . S
C1530 H1516 0.931 . S
C1530 C1529 1.385 . S
C1530 C1531 1.389 . S
C1531 C1530 1.389 . S
C1531 C1532 1.387 . S
C1532 H1517 0.930 . S
C1532 C1527 1.390 . S
C1532 C1531 1.387 . S
H1533 C1545 0.930 . S
H1534 C1547 0.930 . S
H1535 C1548 0.930 . S
H1536 C1552 0.959 . S
H1537 C1552 0.959 . S
H1538 C1552 0.961 . S
H1539 C1553 0.960 . S
H1540 C1553 0.961 . S
H1541 C1553 0.959 . S
H1542 C1556 0.929 . S
H1543 C1557 0.931 . S
H1544 C1559 0.930 . S
C1545 H1533 0.930 . S
C1545 C1546 1.399 . S
C1545 C1550 1.399 . S
C1546 C1545 1.399 . S
C1546 C1547 1.376 . S
C1547 H1534 0.930 . S
C1547 C1546 1.376 . S
C1547 C1548 1.388 . S
C1548 H1535 0.930 . S
C1548 C1547 1.388 . S
C1548 C1549 1.390 . S
C1549 C1548 1.390 . S
C1549 C1550 1.394 . S
C1549 C1555 1.465 . S
C1550 C1545 1.399 . S
C1550 C1549 1.394 . S
C1550 C1551 1.516 . S
C1551 C1550 1.516 . S
C1551 C1552 1.502 . S
C1551 C1553 1.561 . S
C1551 C1554 1.526 . S
C1552 H1536 0.959 . S
C1552 H1537 0.959 . S
C1552 H1538 0.961 . S
C1552 C1551 1.502 . S
C1553 H1539 0.960 . S
C1553 H1540 0.961 . S
C1553 H1541 0.959 . S
C1553 C1551 1.561 . S
C1554 C1551 1.526 . S
C1554 C1555 1.396 . S
C1554 C1559 1.390 . S
C1555 C1549 1.465 . S
C1555 C1554 1.396 . S
C1555 C1556 1.399 . S
C1556 H1542 0.929 . S
C1556 C1555 1.399 . S
C1556 C1557 1.385 . S
C1557 H1543 0.931 . S
C1557 C1556 1.385 . S
C1557 C1558 1.389 . S
C1558 C1557 1.389 . S
C1558 C1559 1.387 . S
C1559 H1544 0.930 . S
C1559 C1554 1.390 . S
C1559 C1558 1.387 . S
H1560 C1572 0.930 . S
H1561 C1574 0.930 . S
H1562 C1575 0.930 . S
H1563 C1579 0.959 . S
H1564 C1579 0.959 . S
H1565 C1579 0.961 . S
H1566 C1580 0.960 . S
H1567 C1580 0.961 . S
H1568 C1580 0.959 . S
H1569 C1583 0.929 . S
H1570 C1584 0.931 . S
H1571 C1586 0.930 . S
C1572 H1560 0.930 . S
C1572 C1573 1.399 . S
C1572 C1577 1.399 . S
C1573 C1572 1.399 . S
C1573 C1574 1.376 . S
C1574 H1561 0.930 . S
C1574 C1573 1.376 . S
C1574 C1575 1.388 . S
C1575 H1562 0.930 . S
C1575 C1574 1.388 . S
C1575 C1576 1.390 . S
C1576 C1575 1.390 . S
C1576 C1577 1.394 . S
C1576 C1582 1.465 . S
C1577 C1572 1.399 . S
C1577 C1576 1.394 . S
C1577 C1578 1.516 . S
C1578 C1577 1.516 . S
C1578 C1579 1.502 . S
C1578 C1580 1.561 . S
C1578 C1581 1.526 . S
C1579 H1563 0.959 . S
C1579 H1564 0.959 . S
C1579 H1565 0.961 . S
C1579 C1578 1.502 . S
C1580 H1566 0.960 . S
C1580 H1567 0.961 . S
C1580 H1568 0.959 . S
C1580 C1578 1.561 . S
C1581 C1578 1.526 . S
C1581 C1582 1.396 . S
C1581 C1586 1.390 . S
C1582 C1576 1.465 . S
C1582 C1581 1.396 . S
C1582 C1583 1.399 . S
C1583 H1569 0.929 . S
C1583 C1582 1.399 . S
C1583 C1584 1.385 . S
C1584 H1570 0.931 . S
C1584 C1583 1.385 . S
C1584 C1585 1.389 . S
C1585 C1584 1.389 . S
C1585 C1586 1.387 . S
C1586 H1571 0.930 . S
C1586 C1581 1.390 . S
C1586 C1585 1.387 . S
H1587 C1599 0.930 . S
H1588 C1601 0.930 . S
H1589 C1602 0.930 . S
H1590 C1606 0.959 . S
H1591 C1606 0.959 . S
H1592 C1606 0.961 . S
H1593 C1607 0.960 . S
H1594 C1607 0.961 . S
H1595 C1607 0.959 . S
H1596 C1610 0.929 . S
H1597 C1611 0.931 . S
H1598 C1613 0.930 . S
C1599 H1587 0.930 . S
C1599 C1600 1.399 . S
C1599 C1604 1.399 . S
C1600 C1599 1.399 . S
C1600 C1601 1.376 . S
C1601 H1588 0.930 . S
C1601 C1600 1.376 . S
C1601 C1602 1.388 . S
C1602 H1589 0.930 . S
C1602 C1601 1.388 . S
C1602 C1603 1.390 . S
C1603 C1602 1.390 . S
C1603 C1604 1.394 . S
C1603 C1609 1.465 . S
C1604 C1599 1.399 . S
C1604 C1603 1.394 . S
C1604 C1605 1.516 . S
C1605 C1604 1.516 . S
C1605 C1606 1.502 . S
C1605 C1607 1.561 . S
C1605 C1608 1.526 . S
C1606 H1590 0.959 . S
C1606 H1591 0.959 . S
C1606 H1592 0.961 . S
C1606 C1605 1.502 . S
C1607 H1593 0.960 . S
C1607 H1594 0.961 . S
C1607 H1595 0.959 . S
C1607 C1605 1.561 . S
C1608 C1605 1.526 . S
C1608 C1609 1.396 . S
C1608 C1613 1.390 . S
C1609 C1603 1.465 . S
C1609 C1608 1.396 . S
C1609 C1610 1.399 . S
C1610 H1596 0.929 . S
C1610 C1609 1.399 . S
C1610 C1611 1.385 . S
C1611 H1597 0.931 . S
C1611 C1610 1.385 . S
C1611 C1612 1.389 . S
C1612 C1611 1.389 . S
C1612 C1613 1.387 . S
C1613 H1598 0.930 . S
C1613 C1608 1.390 . S
C1613 C1612 1.387 . S
H1614 C1626 0.930 . S
H1615 C1628 0.930 . S
H1616 C1629 0.930 . S
H1617 C1633 0.959 . S
H1618 C1633 0.959 . S
H1619 C1633 0.961 . S
H1620 C1634 0.960 . S
H1621 C1634 0.961 . S
H1622 C1634 0.959 . S
H1623 C1637 0.929 . S
H1624 C1638 0.931 . S
H1625 C1640 0.930 . S
C1626 H1614 0.930 . S
C1626 C1627 1.399 . S
C1626 C1631 1.399 . S
C1627 C1626 1.399 . S
C1627 C1628 1.376 . S
C1628 H1615 0.930 . S
C1628 C1627 1.376 . S
C1628 C1629 1.388 . S
C1629 H1616 0.930 . S
C1629 C1628 1.388 . S
C1629 C1630 1.390 . S
C1630 C1629 1.390 . S
C1630 C1631 1.394 . S
C1630 C1636 1.465 . S
C1631 C1626 1.399 . S
C1631 C1630 1.394 . S
C1631 C1632 1.516 . S
C1632 C1631 1.516 . S
C1632 C1633 1.502 . S
C1632 C1634 1.561 . S
C1632 C1635 1.526 . S
C1633 H1617 0.959 . S
C1633 H1618 0.959 . S
C1633 H1619 0.961 . S
C1633 C1632 1.502 . S
C1634 H1620 0.960 . S
C1634 H1621 0.961 . S
C1634 H1622 0.959 . S
C1634 C1632 1.561 . S
C1635 C1632 1.526 . S
C1635 C1636 1.396 . S
C1635 C1640 1.390 . S
C1636 C1630 1.465 . S
C1636 C1635 1.396 . S
C1636 C1637 1.399 . S
C1637 H1623 0.929 . S
C1637 C1636 1.399 . S
C1637 C1638 1.385 . S
C1638 H1624 0.931 . S
C1638 C1637 1.385 . S
C1638 C1639 1.389 . S
C1639 C1638 1.389 . S
C1639 C1640 1.387 . S
C1640 H1625 0.930 . S
C1640 C1635 1.390 . S
C1640 C1639 1.387 . S
H1641 C1653 0.930 . S
H1642 C1655 0.930 . S
H1643 C1656 0.930 . S
H1644 C1660 0.959 . S
H1645 C1660 0.959 . S
H1646 C1660 0.961 . S
H1647 C1661 0.960 . S
H1648 C1661 0.961 . S
H1649 C1661 0.959 . S
H1650 C1664 0.929 . S
H1651 C1665 0.931 . S
H1652 C1667 0.930 . S
C1653 H1641 0.930 . S
C1653 C1654 1.399 . S
C1653 C1658 1.399 . S
C1654 C1653 1.399 . S
C1654 C1655 1.376 . S
C1655 H1642 0.930 . S
C1655 C1654 1.376 . S
C1655 C1656 1.388 . S
C1656 H1643 0.930 . S
C1656 C1655 1.388 . S
C1656 C1657 1.390 . S
C1657 C1656 1.390 . S
C1657 C1658 1.394 . S
C1657 C1663 1.465 . S
C1658 C1653 1.399 . S
C1658 C1657 1.394 . S
C1658 C1659 1.516 . S
C1659 C1658 1.516 . S
C1659 C1660 1.502 . S
C1659 C1661 1.561 . S
C1659 C1662 1.526 . S
C1660 H1644 0.959 . S
C1660 H1645 0.959 . S
C1660 H1646 0.961 . S
C1660 C1659 1.502 . S
C1661 H1647 0.960 . S
C1661 H1648 0.961 . S
C1661 H1649 0.959 . S
C1661 C1659 1.561 . S
C1662 C1659 1.526 . S
C1662 C1663 1.396 . S
C1662 C1667 1.390 . S
C1663 C1657 1.465 . S
C1663 C1662 1.396 . S
C1663 C1664 1.399 . S
C1664 H1650 0.929 . S
C1664 C1663 1.399 . S
C1664 C1665 1.385 . S
C1665 H1651 0.931 . S
C1665 C1664 1.385 . S
C1665 C1666 1.389 . S
C1666 C1665 1.389 . S
C1666 C1667 1.387 . S
C1667 H1652 0.930 . S
C1667 C1662 1.390 . S
C1667 C1666 1.387 . S
H1668 C1680 0.930 . S
H1669 C1682 0.930 . S
H1670 C1683 0.930 . S
H1671 C1687 0.959 . S
H1672 C1687 0.959 . S
H1673 C1687 0.961 . S
H1674 C1688 0.960 . S
H1675 C1688 0.961 . S
H1676 C1688 0.959 . S
H1677 C1691 0.929 . S
H1678 C1692 0.931 . S
H1679 C1694 0.930 . S
C1680 H1668 0.930 . S
C1680 C1681 1.399 . S
C1680 C1685 1.399 . S
C1681 C1680 1.399 . S
C1681 C1682 1.376 . S
C1682 H1669 0.930 . S
C1682 C1681 1.376 . S
C1682 C1683 1.388 . S
C1683 H1670 0.930 . S
C1683 C1682 1.388 . S
C1683 C1684 1.390 . S
C1684 C1683 1.390 . S
C1684 C1685 1.394 . S
C1684 C1690 1.465 . S
C1685 C1680 1.399 . S
C1685 C1684 1.394 . S
C1685 C1686 1.516 . S
C1686 C1685 1.516 . S
C1686 C1687 1.502 . S
C1686 C1688 1.561 . S
C1686 C1689 1.526 . S
C1687 H1671 0.959 . S
C1687 H1672 0.959 . S
C1687 H1673 0.961 . S
C1687 C1686 1.502 . S
C1688 H1674 0.960 . S
C1688 H1675 0.961 . S
C1688 H1676 0.959 . S
C1688 C1686 1.561 . S
C1689 C1686 1.526 . S
C1689 C1690 1.396 . S
C1689 C1694 1.390 . S
C1690 C1684 1.465 . S
C1690 C1689 1.396 . S
C1690 C1691 1.399 . S
C1691 H1677 0.929 . S
C1691 C1690 1.399 . S
C1691 C1692 1.385 . S
C1692 H1678 0.931 . S
C1692 C1691 1.385 . S
C1692 C1693 1.389 . S
C1693 C1692 1.389 . S
C1693 C1694 1.387 . S
C1694 H1679 0.930 . S
C1694 C1689 1.390 . S
C1694 C1693 1.387 . S
H1695 C1707 0.930 . S
H1696 C1709 0.930 . S
H1697 C1710 0.930 . S
H1698 C1714 0.959 . S
H1699 C1714 0.959 . S
H1700 C1714 0.961 . S
H1701 C1715 0.960 . S
H1702 C1715 0.961 . S
H1703 C1715 0.959 . S
H1704 C1718 0.929 . S
H1705 C1719 0.931 . S
H1706 C1721 0.930 . S
C1707 H1695 0.930 . S
C1707 C1708 1.399 . S
C1707 C1712 1.399 . S
C1708 C1707 1.399 . S
C1708 C1709 1.376 . S
C1709 H1696 0.930 . S
C1709 C1708 1.376 . S
C1709 C1710 1.388 . S
C1710 H1697 0.930 . S
C1710 C1709 1.388 . S
C1710 C1711 1.390 . S
C1711 C1710 1.390 . S
C1711 C1712 1.394 . S
C1711 C1717 1.465 . S
C1712 C1707 1.399 . S
C1712 C1711 1.394 . S
C1712 C1713 1.516 . S
C1713 C1712 1.516 . S
C1713 C1714 1.502 . S
C1713 C1715 1.561 . S
C1713 C1716 1.526 . S
C1714 H1698 0.959 . S
C1714 H1699 0.959 . S
C1714 H1700 0.961 . S
C1714 C1713 1.502 . S
C1715 H1701 0.960 . S
C1715 H1702 0.961 . S
C1715 H1703 0.959 . S
C1715 C1713 1.561 . S
C1716 C1713 1.526 . S
C1716 C1717 1.396 . S
C1716 C1721 1.390 . S
C1717 C1711 1.465 . S
C1717 C1716 1.396 . S
C1717 C1718 1.399 . S
C1718 H1704 0.929 . S
C1718 C1717 1.399 . S
C1718 C1719 1.385 . S
C1719 H1705 0.931 . S
C1719 C1718 1.385 . S
C1719 C1720 1.389 . S
C1720 C1719 1.389 . S
C1720 C1721 1.387 . S
C1721 H1706 0.930 . S
C1721 C1716 1.390 . S
C1721 C1720 1.387 . S
C451 C251 0.948 . S
C439 N6 0.899 . S
C478 C241 2.006 . S
C466 C57 2.009 . S
C505 C242 1.030 . S
C493 C61 1.020 . S
C520 N96 0.798 . S
C532 C264 0.626 . S
C547 C136 2.043 . S
C559 C267 2.035 . S
C586 C250 1.042 . S
C574 C160 1.019 . S
C601 N194 0.799 . S
C613 C240 0.666 . S
C628 N224 1.009 . S
C640 C258 0.955 . S
C667 C271 1.929 . S
C655 C10 1.933 . S
C682 N36 0.814 . S
C694 C320 0.909 . S
C721 C298 0.667 . S
C709 N74 0.822 . S
C748 C312 1.034 . S
C736 C100 0.987 . S
C763 C121 1.018 . S
C775 C273 0.958 . S
C802 C326 1.865 . S
C790 C177 1.894 . S
C817 C196 2.246 . S
C829 C282 2.178 . S
C844 C226 2.037 . S
C856 C303 2.002 . S
C871 C27 2.036 . S
C883 C329 1.974 . S
C898 N134 0.943 . S
C910 C313 0.842 . S
C937 C272 0.798 . S
C925 N156 0.826 . S
C964 C304 0.940 . S
C952 C181 1.000 . S
C979 C211 1.942 . S
C991 C295 1.880 . S
C1006 C76 1.911 . S
C1018 C302 1.833 . S
C1045 C289 2.144 . S
C1033 C117 2.264 . S
C1060 C40 1.017 . S
C1072 C281 1.025 . S
C1087 N216 0.987 . S
C1099 C344 0.992 . S
C1114 C147 2.043 . S
C1126 C334 2.039 . S
C1153 C335 0.941 . S
C1141 C151 0.992 . S
C1180 C357 0.615 . S
C1168 N186 0.790 . S
C1195 C46 2.043 . S
C1207 C360 2.036 . S
C1234 C343 1.039 . S
C1222 C70 1.014 . S
C1249 N104 0.768 . S
C1261 C333 0.698 . S
C1276 N14 0.987 . S
C1288 C351 1.015 . S
C1303 C220 1.952 . S
C1315 C364 1.879 . S
C1342 C413 0.903 . S
C1330 N126 0.822 . S
C1357 N164 0.804 . S
C1369 C391 0.663 . S
C1384 C190 1.021 . S
C1396 C405 0.912 . S
C1423 C366 0.961 . S
C1411 C31 0.983 . S
C1438 C87 1.898 . S
C1450 C419 1.889 . S
C1477 C375 2.200 . S
C1465 C106 2.236 . S
C1504 C396 1.979 . S
C1492 C16 2.046 . S
C1531 C422 2.019 . S
C1519 C237 2.036 . S
C1546 N44 0.783 . S
C1558 C406 0.922 . S
C1573 N66 0.655 . S
C1585 C365 0.777 . S
C1612 C397 0.905 . S
C1600 C91 1.014 . S
C1627 C1 1.944 . S
C1639 C388 1.931 . S
C1654 C166 1.889 . S
C1666 C395 1.857 . S
C1693 C382 2.142 . S
C1681 C207 2.259 . S
C1720 C374 1.024 . S
C1708 C130 1.017 . S
