# Generated by pormake.
# Topology gar, (4,6)-cn, num edge types: 1
# Building blocks:
#     Node 0, Type 0, BuildingBlock: QUQFOY_clean_sbu_1, # of connection points: 4
#     Node 1, Type 0, BuildingBlock: QUQFOY_clean_sbu_1, # of connection points: 4
#     Node 2, Type 0, BuildingBlock: QUQFOY_clean_sbu_1, # of connection points: 4
#     Node 3, Type 0, BuildingBlock: QUQFOY_clean_sbu_1, # of connection points: 4
#     Node 4, Type 0, BuildingBlock: QUQFOY_clean_sbu_1, # of connection points: 4
#     Node 5, Type 0, BuildingBlock: QUQFOY_clean_sbu_1, # of connection points: 4
#     Node 6, Type 0, BuildingBlock: QUQFOY_clean_sbu_1, # of connection points: 4
#     Node 7, Type 0, BuildingBlock: QUQFOY_clean_sbu_1, # of connection points: 4
#     Node 8, Type 0, BuildingBlock: QUQFOY_clean_sbu_1, # of connection points: 4
#     Node 9, Type 0, BuildingBlock: QUQFOY_clean_sbu_1, # of connection points: 4
#     Node 10, Type 0, BuildingBlock: QUQFOY_clean_sbu_1, # of connection points: 4
#     Node 11, Type 0, BuildingBlock: QUQFOY_clean_sbu_1, # of connection points: 4
#     Node 12, Type 0, BuildingBlock: QUQFOY_clean_sbu_1, # of connection points: 4
#     Node 13, Type 0, BuildingBlock: QUQFOY_clean_sbu_1, # of connection points: 4
#     Node 14, Type 0, BuildingBlock: QUQFOY_clean_sbu_1, # of connection points: 4
#     Node 15, Type 0, BuildingBlock: QUQFOY_clean_sbu_1, # of connection points: 4
#     Node 16, Type 0, BuildingBlock: QUQFOY_clean_sbu_1, # of connection points: 4
#     Node 17, Type 0, BuildingBlock: QUQFOY_clean_sbu_1, # of connection points: 4
#     Node 18, Type 0, BuildingBlock: QUQFOY_clean_sbu_1, # of connection points: 4
#     Node 19, Type 0, BuildingBlock: QUQFOY_clean_sbu_1, # of connection points: 4
#     Node 20, Type 0, BuildingBlock: QUQFOY_clean_sbu_1, # of connection points: 4
#     Node 21, Type 0, BuildingBlock: QUQFOY_clean_sbu_1, # of connection points: 4
#     Node 22, Type 0, BuildingBlock: QUQFOY_clean_sbu_1, # of connection points: 4
#     Node 23, Type 0, BuildingBlock: QUQFOY_clean_sbu_1, # of connection points: 4
#     Node 24, Type 1, BuildingBlock: CUKXOW_clean_sbu_0, # of connection points: 6
#     Node 25, Type 1, BuildingBlock: CUKXOW_clean_sbu_0, # of connection points: 6
#     Node 26, Type 1, BuildingBlock: CUKXOW_clean_sbu_0, # of connection points: 6
#     Node 27, Type 1, BuildingBlock: CUKXOW_clean_sbu_0, # of connection points: 6
#     Node 28, Type 1, BuildingBlock: CUKXOW_clean_sbu_0, # of connection points: 6
#     Node 29, Type 1, BuildingBlock: CUKXOW_clean_sbu_0, # of connection points: 6
#     Node 30, Type 1, BuildingBlock: CUKXOW_clean_sbu_0, # of connection points: 6
#     Node 31, Type 1, BuildingBlock: CUKXOW_clean_sbu_0, # of connection points: 6
#     Node 32, Type 1, BuildingBlock: CUKXOW_clean_sbu_0, # of connection points: 6
#     Node 33, Type 1, BuildingBlock: CUKXOW_clean_sbu_0, # of connection points: 6
#     Node 34, Type 1, BuildingBlock: CUKXOW_clean_sbu_0, # of connection points: 6
#     Node 35, Type 1, BuildingBlock: CUKXOW_clean_sbu_0, # of connection points: 6
#     Node 36, Type 1, BuildingBlock: CUKXOW_clean_sbu_0, # of connection points: 6
#     Node 37, Type 1, BuildingBlock: CUKXOW_clean_sbu_0, # of connection points: 6
#     Node 38, Type 1, BuildingBlock: CUKXOW_clean_sbu_0, # of connection points: 6
#     Node 39, Type 1, BuildingBlock: CUKXOW_clean_sbu_0, # of connection points: 6
#     Edge 40, Type (0, 1), BuildingBlock: KIFKEQ_clean_linker_1, # of connection points: 2
#     Edge 41, Type (0, 1), BuildingBlock: KIFKEQ_clean_linker_1, # of connection points: 2
#     Edge 42, Type (0, 1), BuildingBlock: KIFKEQ_clean_linker_1, # of connection points: 2
#     Edge 43, Type (0, 1), BuildingBlock: KIFKEQ_clean_linker_1, # of connection points: 2
#     Edge 44, Type (0, 1), BuildingBlock: KIFKEQ_clean_linker_1, # of connection points: 2
#     Edge 45, Type (0, 1), BuildingBlock: KIFKEQ_clean_linker_1, # of connection points: 2
#     Edge 46, Type (0, 1), BuildingBlock: KIFKEQ_clean_linker_1, # of connection points: 2
#     Edge 47, Type (0, 1), BuildingBlock: KIFKEQ_clean_linker_1, # of connection points: 2
#     Edge 48, Type (0, 1), BuildingBlock: KIFKEQ_clean_linker_1, # of connection points: 2
#     Edge 49, Type (0, 1), BuildingBlock: KIFKEQ_clean_linker_1, # of connection points: 2
#     Edge 50, Type (0, 1), BuildingBlock: KIFKEQ_clean_linker_1, # of connection points: 2
#     Edge 51, Type (0, 1), BuildingBlock: KIFKEQ_clean_linker_1, # of connection points: 2
#     Edge 52, Type (0, 1), BuildingBlock: KIFKEQ_clean_linker_1, # of connection points: 2
#     Edge 53, Type (0, 1), BuildingBlock: KIFKEQ_clean_linker_1, # of connection points: 2
#     Edge 54, Type (0, 1), BuildingBlock: KIFKEQ_clean_linker_1, # of connection points: 2
#     Edge 55, Type (0, 1), BuildingBlock: KIFKEQ_clean_linker_1, # of connection points: 2
#     Edge 56, Type (0, 1), BuildingBlock: KIFKEQ_clean_linker_1, # of connection points: 2
#     Edge 57, Type (0, 1), BuildingBlock: KIFKEQ_clean_linker_1, # of connection points: 2
#     Edge 58, Type (0, 1), BuildingBlock: KIFKEQ_clean_linker_1, # of connection points: 2
#     Edge 59, Type (0, 1), BuildingBlock: KIFKEQ_clean_linker_1, # of connection points: 2
#     Edge 60, Type (0, 1), BuildingBlock: KIFKEQ_clean_linker_1, # of connection points: 2
#     Edge 61, Type (0, 1), BuildingBlock: KIFKEQ_clean_linker_1, # of connection points: 2
#     Edge 62, Type (0, 1), BuildingBlock: KIFKEQ_clean_linker_1, # of connection points: 2
#     Edge 63, Type (0, 1), BuildingBlock: KIFKEQ_clean_linker_1, # of connection points: 2
#     Edge 64, Type (0, 1), BuildingBlock: KIFKEQ_clean_linker_1, # of connection points: 2
#     Edge 65, Type (0, 1), BuildingBlock: KIFKEQ_clean_linker_1, # of connection points: 2
#     Edge 66, Type (0, 1), BuildingBlock: KIFKEQ_clean_linker_1, # of connection points: 2
#     Edge 67, Type (0, 1), BuildingBlock: KIFKEQ_clean_linker_1, # of connection points: 2
#     Edge 68, Type (0, 1), BuildingBlock: KIFKEQ_clean_linker_1, # of connection points: 2
#     Edge 69, Type (0, 1), BuildingBlock: KIFKEQ_clean_linker_1, # of connection points: 2
#     Edge 70, Type (0, 1), BuildingBlock: KIFKEQ_clean_linker_1, # of connection points: 2
#     Edge 71, Type (0, 1), BuildingBlock: KIFKEQ_clean_linker_1, # of connection points: 2
#     Edge 72, Type (0, 1), BuildingBlock: KIFKEQ_clean_linker_1, # of connection points: 2
#     Edge 73, Type (0, 1), BuildingBlock: KIFKEQ_clean_linker_1, # of connection points: 2
#     Edge 74, Type (0, 1), BuildingBlock: KIFKEQ_clean_linker_1, # of connection points: 2
#     Edge 75, Type (0, 1), BuildingBlock: KIFKEQ_clean_linker_1, # of connection points: 2
#     Edge 76, Type (0, 1), BuildingBlock: KIFKEQ_clean_linker_1, # of connection points: 2
#     Edge 77, Type (0, 1), BuildingBlock: KIFKEQ_clean_linker_1, # of connection points: 2
#     Edge 78, Type (0, 1), BuildingBlock: KIFKEQ_clean_linker_1, # of connection points: 2
#     Edge 79, Type (0, 1), BuildingBlock: KIFKEQ_clean_linker_1, # of connection points: 2
#     Edge 80, Type (0, 1), BuildingBlock: KIFKEQ_clean_linker_1, # of connection points: 2
#     Edge 81, Type (0, 1), BuildingBlock: KIFKEQ_clean_linker_1, # of connection points: 2
#     Edge 82, Type (0, 1), BuildingBlock: KIFKEQ_clean_linker_1, # of connection points: 2
#     Edge 83, Type (0, 1), BuildingBlock: KIFKEQ_clean_linker_1, # of connection points: 2
#     Edge 84, Type (0, 1), BuildingBlock: KIFKEQ_clean_linker_1, # of connection points: 2
#     Edge 85, Type (0, 1), BuildingBlock: KIFKEQ_clean_linker_1, # of connection points: 2
#     Edge 86, Type (0, 1), BuildingBlock: KIFKEQ_clean_linker_1, # of connection points: 2
#     Edge 87, Type (0, 1), BuildingBlock: KIFKEQ_clean_linker_1, # of connection points: 2
#     Edge 88, Type (0, 1), BuildingBlock: KIFKEQ_clean_linker_1, # of connection points: 2
#     Edge 89, Type (0, 1), BuildingBlock: KIFKEQ_clean_linker_1, # of connection points: 2
#     Edge 90, Type (0, 1), BuildingBlock: KIFKEQ_clean_linker_1, # of connection points: 2
#     Edge 91, Type (0, 1), BuildingBlock: KIFKEQ_clean_linker_1, # of connection points: 2
#     Edge 92, Type (0, 1), BuildingBlock: KIFKEQ_clean_linker_1, # of connection points: 2
#     Edge 93, Type (0, 1), BuildingBlock: KIFKEQ_clean_linker_1, # of connection points: 2
#     Edge 94, Type (0, 1), BuildingBlock: KIFKEQ_clean_linker_1, # of connection points: 2
#     Edge 95, Type (0, 1), BuildingBlock: KIFKEQ_clean_linker_1, # of connection points: 2
#     Edge 96, Type (0, 1), BuildingBlock: KIFKEQ_clean_linker_1, # of connection points: 2
#     Edge 97, Type (0, 1), BuildingBlock: KIFKEQ_clean_linker_1, # of connection points: 2
#     Edge 98, Type (0, 1), BuildingBlock: KIFKEQ_clean_linker_1, # of connection points: 2
#     Edge 99, Type (0, 1), BuildingBlock: KIFKEQ_clean_linker_1, # of connection points: 2
#     Edge 100, Type (0, 1), BuildingBlock: KIFKEQ_clean_linker_1, # of connection points: 2
#     Edge 101, Type (0, 1), BuildingBlock: KIFKEQ_clean_linker_1, # of connection points: 2
#     Edge 102, Type (0, 1), BuildingBlock: KIFKEQ_clean_linker_1, # of connection points: 2
#     Edge 103, Type (0, 1), BuildingBlock: KIFKEQ_clean_linker_1, # of connection points: 2
#     Edge 104, Type (0, 1), BuildingBlock: KIFKEQ_clean_linker_1, # of connection points: 2
#     Edge 105, Type (0, 1), BuildingBlock: KIFKEQ_clean_linker_1, # of connection points: 2
#     Edge 106, Type (0, 1), BuildingBlock: KIFKEQ_clean_linker_1, # of connection points: 2
#     Edge 107, Type (0, 1), BuildingBlock: KIFKEQ_clean_linker_1, # of connection points: 2
#     Edge 108, Type (0, 1), BuildingBlock: KIFKEQ_clean_linker_1, # of connection points: 2
#     Edge 109, Type (0, 1), BuildingBlock: KIFKEQ_clean_linker_1, # of connection points: 2
#     Edge 110, Type (0, 1), BuildingBlock: KIFKEQ_clean_linker_1, # of connection points: 2
#     Edge 111, Type (0, 1), BuildingBlock: KIFKEQ_clean_linker_1, # of connection points: 2
#     Edge 112, Type (0, 1), BuildingBlock: KIFKEQ_clean_linker_1, # of connection points: 2
#     Edge 113, Type (0, 1), BuildingBlock: KIFKEQ_clean_linker_1, # of connection points: 2
#     Edge 114, Type (0, 1), BuildingBlock: KIFKEQ_clean_linker_1, # of connection points: 2
#     Edge 115, Type (0, 1), BuildingBlock: KIFKEQ_clean_linker_1, # of connection points: 2
#     Edge 116, Type (0, 1), BuildingBlock: KIFKEQ_clean_linker_1, # of connection points: 2
#     Edge 117, Type (0, 1), BuildingBlock: KIFKEQ_clean_linker_1, # of connection points: 2
#     Edge 118, Type (0, 1), BuildingBlock: KIFKEQ_clean_linker_1, # of connection points: 2
#     Edge 119, Type (0, 1), BuildingBlock: KIFKEQ_clean_linker_1, # of connection points: 2
#     Edge 120, Type (0, 1), BuildingBlock: KIFKEQ_clean_linker_1, # of connection points: 2
#     Edge 121, Type (0, 1), BuildingBlock: KIFKEQ_clean_linker_1, # of connection points: 2
#     Edge 122, Type (0, 1), BuildingBlock: KIFKEQ_clean_linker_1, # of connection points: 2
#     Edge 123, Type (0, 1), BuildingBlock: KIFKEQ_clean_linker_1, # of connection points: 2
#     Edge 124, Type (0, 1), BuildingBlock: KIFKEQ_clean_linker_1, # of connection points: 2
#     Edge 125, Type (0, 1), BuildingBlock: KIFKEQ_clean_linker_1, # of connection points: 2
#     Edge 126, Type (0, 1), BuildingBlock: KIFKEQ_clean_linker_1, # of connection points: 2
#     Edge 127, Type (0, 1), BuildingBlock: KIFKEQ_clean_linker_1, # of connection points: 2
#     Edge 128, Type (0, 1), BuildingBlock: KIFKEQ_clean_linker_1, # of connection points: 2
#     Edge 129, Type (0, 1), BuildingBlock: KIFKEQ_clean_linker_1, # of connection points: 2
#     Edge 130, Type (0, 1), BuildingBlock: KIFKEQ_clean_linker_1, # of connection points: 2
#     Edge 131, Type (0, 1), BuildingBlock: KIFKEQ_clean_linker_1, # of connection points: 2
#     Edge 132, Type (0, 1), BuildingBlock: KIFKEQ_clean_linker_1, # of connection points: 2
#     Edge 133, Type (0, 1), BuildingBlock: KIFKEQ_clean_linker_1, # of connection points: 2
#     Edge 134, Type (0, 1), BuildingBlock: KIFKEQ_clean_linker_1, # of connection points: 2
#     Edge 135, Type (0, 1), BuildingBlock: KIFKEQ_clean_linker_1, # of connection points: 2
# Relax obj value: 0.115
# Max RMSD: 0.227
# Mean RMSD: 0.160
data_MOF--net-gar--node1-QUQFOY_clean_sbu_1--node2-CUKXOW_clean_sbu_0--edge1-KIFKEQ_clean_linker_1
_symmetry_space_group_name_H-M    P1
_symmetry_Int_Tables_number       1
_symmetry_cell_setting            triclinic
loop_
_symmetry_equiv_pos_as_xyz
'x, y, z'
_cell_length_a     57.118613
_cell_length_b     55.668021
_cell_length_c     55.831818
_cell_angle_alpha  94.341596
_cell_angle_beta   95.740728
_cell_angle_gamma 101.90408
loop_
_atom_site_label
_atom_site_type_symbol
_atom_site_fract_x
_atom_site_fract_y
_atom_site_fract_z
_atom_type_partial_charge
O0 O 0.03571 0.23405 0.44346 0.0
Cd1 Cd 0.03329 0.25769 0.41737 0.0
Cd2 Cd 0.01268 0.28089 0.45375 0.0
O3 O 0.01667 0.25039 0.47076 0.0
O4 O 0.05088 0.24453 0.39248 0.0
O5 O 0.06245 0.2824 0.41087 0.0
C6 C 0.06586 0.26553 0.39522 0.0
C7 C 0.02307 0.31872 0.47686 0.0
C8 C 0.02735 0.23379 0.46366 0.0
C9 C 0.98411 0.26758 0.40462 0.0
O10 O 0.98575 0.27817 0.42584 0.0
O11 O 1.00068 0.2574 0.3981 0.0
O12 O 1.0039 0.30273 0.47941 0.0
O13 O 0.03681 0.31298 0.46131 0.0
O14 O 0.98928 0.75273 0.60251 0.0
Cd15 Cd 0.99653 0.77819 0.63232 0.0
Cd16 Cd 0.02469 0.80487 0.60567 0.0
O17 O 0.01786 0.77256 0.58318 0.0
O18 O 0.97116 0.76703 0.65312 0.0
O19 O 0.97676 0.80347 0.63864 0.0
C20 C 0.96525 0.78806 0.65182 0.0
C21 C 0.01894 0.83982 0.58806 0.0
C22 C 1.00159 0.7536 0.58476 0.0
C23 C 0.04781 0.79563 0.65297 0.0
O24 O 0.04991 0.8089 0.63547 0.0
O25 O 0.02816 0.78054 0.65431 0.0
O26 O 0.03757 0.83069 0.58515 0.0
O27 O 1.00348 0.8291 0.60138 0.0
O28 O 0.59187 0.78073 0.92998 0.0
Cd29 Cd 0.5688 0.78349 0.95549 0.0
Cd30 Cd 0.53525 0.7882 0.91827 0.0
O31 O 0.56332 0.78119 0.90059 0.0
O32 O 0.57487 0.76334 0.98205 0.0
O33 O 0.54186 0.75436 0.95544 0.0
C34 C 0.55433 0.74894 0.97411 0.0
C35 C 0.49852 0.77482 0.89426 0.0
C36 C 0.58455 0.77908 0.90758 0.0
C37 C 0.54971 0.82867 0.96038 0.0
O38 O 0.53718 0.82016 0.9403 0.0
O39 O 0.56458 0.81709 0.96993 0.0
O40 O 0.51427 0.79344 0.88968 0.0
O41 O 0.50338 0.7636 0.91293 0.0
O42 O 0.4982 0.26005 0.0869 0.0
Cd43 Cd 0.50384 0.28664 0.11593 0.0
Cd44 Cd 0.53445 0.31022 0.08769 0.0
O45 O 0.52801 0.27692 0.06724 0.0
O46 O 0.48092 0.27054 0.13724 0.0
O47 O 0.47886 0.30621 0.12328 0.0
C48 C 0.47063 0.28899 0.13642 0.0
C49 C 0.52499 0.3438 0.07025 0.0
C50 C 0.51098 0.25898 0.06966 0.0
C51 C 0.55609 0.30562 0.13668 0.0
O52 O 0.55974 0.31562 0.11734 0.0
O53 O 0.53547 0.29278 0.13901 0.0
O54 O 0.54432 0.33626 0.06638 0.0
O55 O 0.51089 0.33208 0.08427 0.0
O56 O 0.99027 0.72035 0.16282 0.0
Cd57 Cd 0.9919 0.75053 0.18788 0.0
Cd58 Cd 0.01175 0.77645 0.15112 0.0
O59 O 1.00363 0.74138 0.13313 0.0
O60 O 0.96767 0.74049 0.21102 0.0
O61 O 0.96557 0.77004 0.18715 0.0
C62 C 0.95656 0.75701 0.20357 0.0
C63 C 0.00754 0.8091 0.12773 0.0
C64 C 0.99591 0.72089 0.14133 0.0
C65 C 0.04341 0.77801 0.19898 0.0
O66 O 0.04105 0.78433 0.1776 0.0
O67 O 0.02562 0.76487 0.2073 0.0
O68 O 0.02441 0.7972 0.12565 0.0
O69 O 0.99256 0.80229 0.14303 0.0
O70 O 0.57853 0.80039 0.37275 0.0
Cd71 Cd 0.55211 0.79891 0.39583 0.0
Cd72 Cd 0.5283 0.81492 0.35419 0.0
O73 O 0.55854 0.80768 0.33905 0.0
O74 O 0.56381 0.78225 0.42376 0.0
O75 O 0.53092 0.76568 0.39888 0.0
C76 C 0.54575 0.76402 0.41742 0.0
C77 C 0.48891 0.80166 0.33393 0.0
C78 C 0.57747 0.80313 0.35026 0.0
C79 C 0.53808 0.84847 0.40123 0.0
O80 O 0.53217 0.84605 0.37845 0.0
O81 O 0.54526 0.83129 0.41164 0.0
O82 O 0.50424 0.81946 0.32705 0.0
O83 O 0.49631 0.79038 0.35165 0.0
O84 O 0.49126 0.22084 0.65963 0.0
Cd85 Cd 0.49319 0.25099 0.68499 0.0
Cd86 Cd 0.51364 0.27672 0.64826 0.0
O87 O 0.50573 0.24162 0.63021 0.0
O88 O 0.46861 0.24111 0.70797 0.0
O89 O 0.46741 0.27128 0.68471 0.0
C90 C 0.45803 0.25816 0.70089 0.0
C91 C 0.50931 0.30966 0.62526 0.0
C92 C 0.49747 0.22121 0.63833 0.0
C93 C 0.545 0.27779 0.69626 0.0
O94 O 0.54273 0.28442 0.67499 0.0
O95 O 0.5271 0.26464 0.70444 0.0
O96 O 0.5264 0.29807 0.62321 0.0
O97 O 0.49413 0.30234 0.64023 0.0
O98 O 0.03237 0.24625 0.88322 0.0
Cd99 Cd 0.03217 0.26971 0.856 0.0
Cd100 Cd 0.01885 0.30053 0.8953 0.0
O101 O 0.02509 0.27089 0.91327 0.0
O102 O 0.04969 0.25659 0.83019 0.0
O103 O 0.06423 0.29212 0.8523 0.0
C104 C 0.06701 0.27572 0.83577 0.0
C105 C 0.02718 0.33926 0.91805 0.0
C106 C 0.02962 0.25049 0.90538 0.0
C107 C 0.98379 0.28468 0.84881 0.0
O108 O 0.98881 0.29543 0.87018 0.0
O109 O 0.99872 0.27377 0.83938 0.0
O110 O 0.01016 0.32156 0.92218 0.0
O111 O 0.04014 0.33498 0.90122 0.0
O112 O 0.41565 0.08729 0.21292 0.0
Cd113 Cd 0.3903 0.08687 0.2373 0.0
Cd114 Cd 0.42767 0.06932 0.26724 0.0
O115 O 0.44412 0.07513 0.23584 0.0
O116 O 0.36574 0.10468 0.22335 0.0
O117 O 0.38741 0.11696 0.25877 0.0
C118 C 0.37064 0.11992 0.24265 0.0
C119 C 0.45036 0.07606 0.30578 0.0
C120 C 0.43617 0.08155 0.21567 0.0
C121 C 0.37733 0.03637 0.25489 0.0
O122 O 0.39875 0.0399 0.26531 0.0
O123 O 0.37047 0.05266 0.24282 0.0
O124 O 0.45272 0.05908 0.2898 0.0
O125 O 0.43607 0.0903 0.29956 0.0
O126 O 0.28359 0.16538 0.53196 0.0
Cd127 Cd 0.27797 0.13768 0.50422 0.0
Cd128 Cd 0.26471 0.1743 0.47901 0.0
O129 O 0.27101 0.19402 0.51235 0.0
O130 O 0.28917 0.11202 0.52231 0.0
O131 O 0.30626 0.12703 0.49122 0.0
C132 C 0.3058 0.11263 0.50833 0.0
C133 C 0.2842 0.19437 0.44938 0.0
C134 C 0.27922 0.1868 0.53181 0.0
C135 C 0.2271 0.1284 0.47849 0.0
O136 O 0.23194 0.14972 0.47109 0.0
O137 O 0.24307 0.12053 0.49127 0.0
O138 O 0.26564 0.2007 0.45715 0.0
O139 O 0.29129 0.17567 0.45762 0.0
O140 O 0.15502 0.9917 0.75412 0.0
Cd141 Cd 0.18182 0.9986 0.78284 0.0
Cd142 Cd 0.14357 0.01414 0.80673 0.0
O143 O 0.12532 1.00063 0.77306 0.0
O144 O 0.20682 0.98224 0.77026 0.0
O145 O 0.18848 0.97059 0.80175 0.0
C146 C 0.20352 0.96722 0.78667 0.0
C147 C 0.11933 0.00938 0.83863 0.0
C148 C 0.13315 0.99335 0.7539 0.0
C149 C 0.18933 0.05237 0.80144 0.0
O150 O 0.16845 0.0473 0.80837 0.0
O151 O 0.19839 0.03542 0.79189 0.0
O152 O 0.11672 0.02424 0.82252 0.0
O153 O 0.13614 0.9972 0.83706 0.0
O154 O 0.21931 0.88892 0.08009 0.0
Cd155 Cd 0.2196 0.91527 0.05493 0.0
Cd156 Cd 0.23491 0.87344 0.02645 0.0
O157 O 0.22894 0.85786 0.0586 0.0
O158 O 0.20345 0.94129 0.06927 0.0
O159 O 0.18923 0.91942 0.03444 0.0
C160 C 0.18729 0.93647 0.05071 0.0
C161 C 0.23036 0.84911 0.98867 0.0
C162 C 0.22386 0.86735 0.07845 0.0
C163 C 0.26943 0.92427 0.03806 0.0
O164 O 0.26465 0.90175 0.02957 0.0
O165 O 0.25376 0.93372 0.04788 0.0
O166 O 0.24609 0.84734 0.00624 0.0
O167 O 0.21599 0.86365 0.99284 0.0
O168 O 0.23584 0.41073 0.09559 0.0
Cd169 Cd 0.24946 0.43748 0.07431 0.0
Cd170 Cd 0.25797 0.39879 0.04473 0.0
O171 O 0.24194 0.38009 0.07128 0.0
O172 O 0.23285 0.46515 0.07747 0.0
O173 O 0.23017 0.44087 0.0434 0.0
C174 C 0.22446 0.45947 0.05494 0.0
C175 C 0.25315 0.3759 0.00724 0.0
C176 C 0.23424 0.38782 0.09033 0.0
C177 C 0.29955 0.44219 0.0652 0.0
O178 O 0.29136 0.42235 0.05149 0.0
O179 O 0.28578 0.45165 0.07768 0.0
O180 O 0.26714 0.37172 0.02521 0.0
O181 O 0.24114 0.39289 0.01061 0.0
O182 O 0.81793 0.18518 0.05889 0.0
Cd183 Cd 0.81536 0.15648 0.03186 0.0
Cd184 Cd 0.79144 0.19136 0.00494 0.0
O185 O 0.79905 0.21041 0.03956 0.0
O186 O 0.83575 0.13446 0.04659 0.0
O187 O 0.84262 0.15057 0.01251 0.0
C188 C 0.84844 0.13682 0.02875 0.0
C189 C 0.79153 0.2132 0.96991 0.0
C190 C 0.80945 0.20467 0.05897 0.0
C191 C 0.76288 0.13944 0.01087 0.0
O192 O 0.76448 0.15981 1.0016 0.0
O193 O 0.78082 0.13466 0.02362 0.0
O194 O 0.77539 0.21308 0.98444 0.0
O195 O 0.80845 0.20175 0.97568 0.0
O196 O 0.11654 0.48484 0.23527 0.0
Cd197 Cd 0.14328 0.48722 0.26383 0.0
Cd198 Cd 0.10724 0.51095 0.28756 0.0
O199 O 0.0892 0.50091 0.25258 0.0
O200 O 0.16757 0.47103 0.2492 0.0
O201 O 0.14999 0.45733 0.28028 0.0
C202 C 0.16528 0.4554 0.26509 0.0
C203 C 0.0859 0.50974 0.32179 0.0
C204 C 0.09644 0.49151 0.23386 0.0
C205 C 0.15787 0.54103 0.28461 0.0
O206 O 0.137 0.53985 0.29116 0.0
O207 O 0.16356 0.52237 0.27407 0.0
O208 O 0.08347 0.52476 0.30576 0.0
O209 O 0.09968 0.49448 0.31802 0.0
O210 O 0.74529 0.91697 0.60062 0.0
Cd211 Cd 0.75686 0.9467 0.58138 0.0
Cd212 Cd 0.76883 0.91369 0.55008 0.0
O213 O 0.75227 0.89028 0.57255 0.0
O214 O 0.7368 0.97163 0.58454 0.0
O215 O 0.73759 0.94911 0.55017 0.0
C216 C 0.72939 0.966 0.56177 0.0
C217 C 0.76394 0.89636 0.51024 0.0
C218 C 0.74464 0.89482 0.59257 0.0
C219 C 0.80861 0.95454 0.57595 0.0
O220 O 0.80248 0.93473 0.56189 0.0
O221 O 0.79287 0.96369 0.58575 0.0
O222 O 0.77674 0.88869 0.52705 0.0
O223 O 0.75394 0.91444 0.51586 0.0
O224 O 0.88513 0.06966 0.20224 0.0
Cd225 Cd 0.85859 0.06547 0.22541 0.0
Cd226 Cd 0.89507 0.05679 0.25796 0.0
O227 O 0.91427 0.06434 0.22894 0.0
O228 O 0.83481 0.0852 0.21428 0.0
O229 O 0.85677 0.09323 0.25011 0.0
C230 C 0.84071 0.0987 0.2347 0.0
C231 C 0.91704 0.06835 0.29632 0.0
C232 C 0.90702 0.06856 0.20772 0.0
C233 C 0.8497 0.01603 0.24416 0.0
O234 O 0.87037 0.02369 0.25617 0.0
O235 O 0.841 0.02983 0.23013 0.0
O236 O 0.92121 0.05116 0.28172 0.0
O237 O 0.9004 0.07961 0.28912 0.0
O238 O 0.31861 0.68456 0.55995 0.0
Cd239 Cd 0.31587 0.65774 0.5312 0.0
Cd240 Cd 0.29327 0.69542 0.50686 0.0
O241 O 0.30185 0.7124 0.54242 0.0
O242 O 0.33352 0.6327 0.54413 0.0
O243 O 0.34436 0.653 0.51331 0.0
C244 C 0.3478 0.63665 0.52773 0.0
C245 C 0.29396 0.71871 0.47283 0.0
C246 C 0.31139 0.70478 0.56129 0.0
C247 C 0.26339 0.64338 0.50937 0.0
O248 O 0.26533 0.66472 0.50211 0.0
O249 O 0.28119 0.63718 0.52098 0.0
O250 O 0.27826 0.71893 0.48781 0.0
O251 O 0.31031 0.70631 0.47777 0.0
O252 O 0.38168 0.56124 0.69477 0.0
Cd253 Cd 0.35477 0.55596 0.71747 0.0
Cd254 Cd 0.39132 0.54922 0.75102 0.0
O255 O 0.41066 0.55672 0.72215 0.0
O256 O 0.3298 0.57501 0.70795 0.0
O257 O 0.35352 0.58329 0.74275 0.0
C258 C 0.33636 0.58838 0.72841 0.0
C259 C 0.413 0.56078 0.78958 0.0
C260 C 0.40364 0.56067 0.70077 0.0
C261 C 0.34737 0.5069 0.73668 0.0
O262 O 0.36749 0.51571 0.74934 0.0
O263 O 0.33836 0.51988 0.722 0.0
O264 O 0.41696 0.54332 0.77518 0.0
O265 O 0.3969 0.5725 0.78191 0.0
O266 O 0.60667 0.98124 0.73739 0.0
Cd267 Cd 0.63514 0.98582 0.76464 0.0
Cd268 Cd 0.60248 0.01184 0.78922 0.0
O269 O 0.58316 1.00258 0.7548 0.0
O270 O 0.65677 0.96553 0.75085 0.0
O271 O 0.64229 0.9591 0.78548 0.0
C272 C 0.65553 0.95327 0.76949 0.0
C273 C 0.58226 0.01089 0.82417 0.0
C274 C 0.5879 0.99031 0.73635 0.0
C275 C 0.65283 0.03994 0.78286 0.0
O276 O 0.63319 0.03948 0.7919 0.0
O277 O 0.65664 0.02095 0.77106 0.0
O278 O 0.5801 0.0265 0.80866 0.0
O279 O 0.59527 0.99507 0.81957 0.0
O280 O 0.78262 0.65873 0.04176 0.0
Cd281 Cd 0.77606 0.63282 0.01242 0.0
Cd282 Cd 0.76547 0.67394 0.98897 0.0
O283 O 0.77627 0.69071 0.02323 0.0
O284 O 0.78652 0.60524 0.02782 0.0
O285 O 0.8038 0.62276 0.99791 0.0
C286 C 0.80311 0.6069 0.01369 0.0
C287 C 0.77685 0.70087 0.96021 0.0
C288 C 0.78213 0.68141 0.04233 0.0
C289 C 0.7258 0.62834 0.98775 0.0
O290 O 0.73202 0.65035 0.98236 0.0
O291 O 0.74093 0.61802 0.99886 0.0
O292 O 0.76001 0.7033 0.97324 0.0
O293 O 0.78681 0.68225 0.96268 0.0
O294 O 0.9157 0.58195 0.71177 0.0
Cd295 Cd 0.89331 0.58487 0.7387 0.0
Cd296 Cd 0.93327 0.56909 0.76543 0.0
O297 O 0.94858 0.57704 0.73384 0.0
O298 O 0.86668 0.59978 0.72426 0.0
O299 O 0.89213 0.61809 0.75584 0.0
C300 C 0.87353 0.61814 0.74067 0.0
C301 C 0.95622 0.57604 0.80393 0.0
C302 C 0.93757 0.57972 0.71352 0.0
C303 C 0.88351 0.53488 0.75724 0.0
O304 O 0.9061 0.53786 0.76293 0.0
O305 O 0.87458 0.55216 0.74911 0.0
O306 O 0.95903 0.55958 0.78762 0.0
O307 O 0.94141 0.58985 0.79792 0.0
O308 O 0.72476 0.3911 0.57928 0.0
Cd309 Cd 0.72298 0.41636 0.5535 0.0
Cd310 Cd 0.73689 0.37367 0.52569 0.0
O311 O 0.72859 0.35751 0.5572 0.0
O312 O 0.70817 0.44296 0.56874 0.0
O313 O 0.69146 0.42012 0.53506 0.0
C314 C 0.69082 0.43773 0.55128 0.0
C315 C 0.73199 0.35045 0.48727 0.0
C316 C 0.7264 0.3685 0.5775 0.0
C317 C 0.77203 0.4243 0.53609 0.0
O318 O 0.76762 0.40126 0.52962 0.0
O319 O 0.756 0.43446 0.54423 0.0
O320 O 0.74711 0.34733 0.50485 0.0
O321 O 0.71833 0.36564 0.49182 0.0
O322 O 0.65429 0.50146 0.24729 0.0
Cd323 Cd 0.68153 0.50775 0.27568 0.0
Cd324 Cd 0.64385 0.52255 0.30132 0.0
O325 O 0.62533 0.51017 0.26756 0.0
O326 O 0.70635 0.49111 0.26303 0.0
O327 O 0.68766 0.47941 0.29431 0.0
C328 C 0.70278 0.47598 0.27932 0.0
C329 C 0.61911 0.51656 0.33271 0.0
C330 C 0.63252 0.5032 0.24791 0.0
C331 C 0.68971 0.561 0.29675 0.0
O332 O 0.66908 0.55565 0.3042 0.0
O333 O 0.69827 0.54442 0.28582 0.0
O334 O 0.61711 0.53239 0.31745 0.0
O335 O 0.63574 0.50422 0.33071 0.0
Tb336 Tb 0.02541 0.06354 0.02118 0.0
C337 C 0.02626 0.02154 0.98114 0.0
Tb338 Tb 0.01026 0.00977 0.03268 0.0
O339 O 0.06217 0.05824 0.01848 0.0
O340 O 0.04096 0.03866 0.04164 0.0
O341 O 0.02275 0.04421 0.98548 0.0
C342 C 0.00973 0.9643 0.04533 0.0
O343 O 0.02411 0.00539 0.99761 0.0
C344 C 0.9744 0.0316 0.02162 0.0
C345 C 0.00793 0.05231 0.07229 0.0
O346 O 0.99292 0.97045 0.03116 0.0
O347 O 0.02681 0.98361 0.05194 0.0
O348 O 0.97321 0.01339 0.035 0.0
O349 O 0.99432 0.03476 0.01281 0.0
O350 O 0.00988 0.02902 0.06806 0.0
O351 O 0.01224 0.06877 0.05631 0.0
C352 C 0.02787 0.10937 0.00827 0.0
O353 O 0.04583 0.10111 0.01809 0.0
O354 O 0.0086 0.09205 0.00637 0.0
C355 C 0.06079 0.04098 0.03296 0.0
Tb356 Tb 0.27181 0.8192 0.27562 0.0
C357 C 0.31213 0.78868 0.27828 0.0
Tb358 Tb 0.25613 0.76323 0.27151 0.0
O359 O 0.28905 0.8197 0.3126 0.0
O360 O 0.25896 0.79225 0.29905 0.0
O361 O 0.3065 0.80964 0.2724 0.0
C362 C 0.24486 0.71607 0.28044 0.0
O363 O 0.29538 0.7689 0.28109 0.0
C364 C 0.25254 0.78316 0.23035 0.0
C365 C 0.21579 0.79393 0.26906 0.0
O366 O 0.25692 0.72419 0.26307 0.0
O367 O 0.23947 0.73446 0.29268 0.0
O368 O 0.23905 0.76241 0.23437 0.0
O369 O 0.26874 0.79017 0.24804 0.0
O370 O 0.22129 0.77266 0.27393 0.0
O371 O 0.23256 0.81399 0.26721 0.0
C372 C 0.28194 0.86687 0.26825 0.0
O373 O 0.27515 0.85818 0.28797 0.0
O374 O 0.28281 0.8487 0.25264 0.0
C375 C 0.27515 0.79924 0.31675 0.0
Tb376 Tb 0.54396 0.03665 0.51896 0.0
C377 C 0.52625 0.01767 0.56723 0.0
Tb378 Tb 0.49107 0.03103 0.52457 0.0
O379 O 0.55287 0.06771 0.54731 0.0
O380 O 0.52041 0.06096 0.5247 0.0
O381 O 0.54304 0.01871 0.55228 0.0
C382 C 0.44774 0.0363 0.53492 0.0
O383 O 0.50496 0.02306 0.56078 0.0
C384 C 0.50233 0.99361 0.50038 0.0
C385 C 0.50899 0.05016 0.47672 0.0
O386 O 0.45197 0.01853 0.52079 0.0
O387 O 0.46806 0.05081 0.54381 0.0
O388 O 0.48179 0.99996 0.49648 0.0
O389 O 0.51449 0.00664 0.51865 0.0
O390 O 0.49306 0.05101 0.49236 0.0
O391 O 0.52943 0.04289 0.4825 0.0
C392 C 0.58665 0.0301 0.50738 0.0
O393 O 0.58261 0.05038 0.5175 0.0
O394 O 0.56655 0.01385 0.50335 0.0
C395 C 0.53233 0.07403 0.54303 0.0
Tb396 Tb 0.26968 0.28828 0.79527 0.0
C397 C 0.27789 0.32925 0.75968 0.0
Tb398 Tb 0.26135 0.2716 0.74179 0.0
O399 O 0.3087 0.30014 0.7937 0.0
O400 O 0.28804 0.27074 0.77042 0.0
O401 O 0.2749 0.32438 0.78216 0.0
C402 C 0.26874 0.26245 0.69606 0.0
O403 O 0.27485 0.31158 0.74152 0.0
C404 C 0.22222 0.27388 0.76186 0.0
C405 C 0.2528 0.23097 0.77752 0.0
O406 O 0.28476 0.26479 0.71468 0.0
O407 O 0.24835 0.26501 0.70313 0.0
O408 O 0.22277 0.25839 0.74339 0.0
O409 O 0.24253 0.28853 0.76667 0.0
O410 O 0.25848 0.23569 0.75559 0.0
O411 O 0.25333 0.24888 0.7949 0.0
C412 C 0.26209 0.30038 0.84041 0.0
O413 O 0.27806 0.2881 0.8345 0.0
O414 O 0.25063 0.30571 0.82104 0.0
C415 C 0.30869 0.28458 0.7751 0.0
Tb416 Tb 1.00511 0.04231 0.50682 0.0
C417 C 0.97541 0.02922 0.54941 0.0
Tb418 Tb 0.03282 0.03718 0.55593 0.0
O419 O 0.9887 0.00277 0.50368 0.0
O420 O 0.02319 0.01657 0.52187 0.0
O421 O 0.97583 0.03999 0.52898 0.0
C422 C 0.04949 0.02144 0.59686 0.0
O423 O 0.99489 0.0238 0.56099 0.0
C424 C 0.03129 0.08202 0.54683 0.0
C425 C 0.06262 0.05208 0.51351 0.0
O426 O 0.04102 0.04123 0.59529 0.0
O427 O 0.0488 0.01056 0.57533 0.0
O428 O 0.04899 0.07668 0.5604 0.0
O429 O 0.01496 0.063 0.54094 0.0
O430 O 0.06246 0.04151 0.53407 0.0
O431 O 0.04283 0.05651 0.50159 0.0
C432 C 0.98808 0.05423 0.46406 0.0
O433 O 0.99615 0.03456 0.46779 0.0
O434 O 0.98949 0.06746 0.48458 0.0
C435 C 0.00682 0.99751 0.51657 0.0
Tb436 Tb 0.29618 0.77841 0.78615 0.0
C437 C 0.25736 0.78453 0.82094 0.0
Tb438 Tb 0.24398 0.77387 0.76365 0.0
O439 O 0.29917 0.81723 0.7992 0.0
O440 O 0.27612 0.80125 0.76835 0.0
O441 O 0.27841 0.7784 0.81895 0.0
C442 C 0.20197 0.78362 0.74736 0.0
O443 O 0.24217 0.78602 0.80171 0.0
C444 C 0.25722 0.73157 0.76561 0.0
C445 C 0.28289 0.76801 0.72873 0.0
O446 O 0.20468 0.76724 0.76218 0.0
O447 O 0.22278 0.79427 0.74169 0.0
O448 O 0.23922 0.73474 0.75096 0.0
O449 O 0.26429 0.75063 0.78046 0.0
O450 O 0.26156 0.77358 0.73069 0.0
O451 O 0.29822 0.76673 0.74798 0.0
C452 C 0.3389 0.77112 0.8036 0.0
O453 O 0.33549 0.78677 0.78819 0.0
O454 O 0.31833 0.7597 0.80924 0.0
C455 C 0.28232 0.82032 0.7831 0.0
Tb456 Tb 0.48703 0.02795 0.02018 0.0
C457 C 0.52142 0.98989 0.02722 0.0
Tb458 Tb 0.54362 0.04771 0.02915 0.0
O459 O 0.48721 0.03345 0.98152 0.0
O460 O 0.51747 0.027 1.00138 0.0
O461 O 0.49896 0.99351 0.02509 0.0
C462 C 0.58952 0.0618 0.02116 0.0
O463 O 0.54085 0.00797 0.02774 0.0
C464 C 0.5228 0.05302 0.0693 0.0
C465 C 0.5089 0.08432 0.02245 0.0
O466 O 0.58182 0.04699 0.03696 0.0
O467 O 0.57136 0.06874 0.0099 0.0
O468 O 0.54587 0.05982 0.06841 0.0
O469 O 0.51387 0.04383 0.04837 0.0
O470 O 0.5299 0.07942 0.01777 0.0
O471 O 0.49104 0.06738 0.02846 0.0
C472 C 0.44105 0.0097 0.02623 0.0
O473 O 0.44819 0.02365 0.00959 0.0
O474 O 0.45979 0.00583 0.03926 0.0
C475 C 0.50983 0.03289 0.98125 0.0
Tb476 Tb 0.24704 0.28243 0.27969 0.0
C477 C 0.29575 0.2866 0.31167 0.0
Tb478 Tb 0.29364 0.29428 0.25589 0.0
O479 O 0.2537 0.2459 0.28682 0.0
O480 O 0.26603 0.26291 0.25721 0.0
O481 O 0.2734 0.28987 0.31135 0.0
C482 C 0.33352 0.29338 0.23528 0.0
O483 O 0.30659 0.28529 0.29177 0.0
C484 C 0.27358 0.33199 0.26517 0.0
C485 C 0.24456 0.28988 0.22406 0.0
O486 O 0.33053 0.31143 0.25 0.0
O487 O 0.31429 0.27594 0.23254 0.0
O488 O 0.287 0.33037 0.24792 0.0
O489 O 0.27415 0.31411 0.27766 0.0
O490 O 0.26699 0.28674 0.22419 0.0
O491 O 0.23404 0.2914 0.24409 0.0
C492 C 0.20658 0.28364 0.29905 0.0
O493 O 0.209 0.26708 0.28234 0.0
O494 O 0.22688 0.29937 0.30481 0.0
C495 C 0.26661 0.24466 0.26906 0.0
Tb496 Tb 0.49947 0.5489 1.00265 0.0
C497 C 0.46526 0.53071 0.04076 0.0
Tb498 Tb 0.52234 0.54218 0.05365 0.0
O499 O 0.48569 0.50877 0.99545 0.0
O500 O 0.51707 0.52342 0.01869 0.0
O501 O 0.46734 0.54213 0.0208 0.0
C502 C 0.53773 0.52518 0.09441 0.0
O503 O 0.48405 0.52667 0.05472 0.0
C504 C 0.52104 0.58753 0.04571 0.0
C505 C 0.55633 0.56106 0.01554 0.0
O506 O 0.53857 0.51554 0.0727 0.0
O507 O 0.52814 0.54432 0.09315 0.0
O508 O 0.53708 0.58172 0.06108 0.0
O509 O 0.50552 0.56841 0.03748 0.0
O510 O 0.55421 0.54865 0.03489 0.0
O511 O 0.53751 0.5663 1.0026 0.0
C512 C 0.48643 0.56398 0.96006 0.0
O513 O 0.50163 0.54994 0.96394 0.0
O514 O 0.47835 0.56956 0.98022 0.0
C515 C 0.50228 0.50386 0.01077 0.0
Tb516 Tb 0.7954 0.28705 0.28075 0.0
C517 C 0.75773 0.29143 0.31718 0.0
Tb518 Tb 0.74327 0.28231 0.25971 0.0
O519 O 0.7975 0.32546 0.29421 0.0
O520 O 0.77526 0.30965 0.26261 0.0
O521 O 0.77905 0.28622 0.31442 0.0
C522 C 0.70087 0.29231 0.24504 0.0
O523 O 0.74182 0.29254 0.29837 0.0
C524 C 0.75669 0.24028 0.26252 0.0
C525 C 0.78096 0.27624 0.22345 0.0
O526 O 0.70386 0.27184 0.25334 0.0
O527 O 0.72166 0.30694 0.24498 0.0
O528 O 0.73964 0.24364 0.24671 0.0
O529 O 0.76344 0.25939 0.27738 0.0
O530 O 0.75948 0.28128 0.22585 0.0
O531 O 0.79695 0.27598 0.24243 0.0
C532 C 0.83924 0.28048 0.29527 0.0
O533 O 0.83454 0.30048 0.28732 0.0
O534 O 0.81934 0.26435 0.29503 0.0
C535 C 0.78126 0.32868 0.27751 0.0
Tb536 Tb 0.98752 0.53158 0.51517 0.0
C537 C 0.02118 0.49304 0.52428 0.0
Tb538 Tb 0.04427 0.55039 0.52541 0.0
O539 O 0.98888 0.53674 0.4766 0.0
O540 O 0.01842 0.52968 0.49736 0.0
O541 O 0.99894 0.49722 0.5217 0.0
C542 C 0.09006 0.56478 0.51743 0.0
O543 O 0.04095 0.51058 0.52427 0.0
C544 C 0.02241 0.55483 0.56491 0.0
C545 C 0.01006 0.58808 0.51764 0.0
O546 O 0.08254 0.55014 0.53344 0.0
O547 O 0.0718 0.57138 0.50599 0.0
O548 O 0.04574 0.56015 0.56511 0.0
O549 O 0.014 0.54785 0.54337 0.0
O550 O 0.03164 0.58321 0.51526 0.0
O551 O 0.99118 0.57108 0.52155 0.0
C552 C 0.94169 0.51321 0.52137 0.0
O553 O 0.94879 0.52366 0.50254 0.0
O554 O 0.96038 0.51302 0.53655 0.0
C555 C 0.01143 0.53554 0.47697 0.0
Tb556 Tb 0.77327 0.79782 0.30115 0.0
C557 C 0.77569 0.83903 0.26412 0.0
Tb558 Tb 0.76273 0.7826 0.24505 0.0
O559 O 0.80658 0.78376 0.3027 0.0
O560 O 0.79315 0.79641 0.27118 0.0
O561 O 0.77209 0.83297 0.28631 0.0
C562 C 0.77264 0.76753 0.20198 0.0
O563 O 0.77543 0.82237 0.24564 0.0
C564 C 0.72305 0.78657 0.26464 0.0
C565 C 0.75544 0.74149 0.28212 0.0
O566 O 0.75855 0.78272 0.20575 0.0
O567 O 0.78064 0.76059 0.2223 0.0
O568 O 0.723 0.7798 0.24176 0.0
O569 O 0.74449 0.78999 0.27395 0.0
O570 O 0.75928 0.7469 0.25984 0.0
O571 O 0.75732 0.75861 0.30058 0.0
C572 C 0.77109 0.81655 0.34576 0.0
O573 O 0.75629 0.79727 0.33444 0.0
O574 O 0.78751 0.82496 0.3322 0.0
C575 C 0.80893 0.78567 0.27993 0.0
Tb576 Tb 0.77366 0.31665 0.77417 0.0
C577 C 0.81369 0.28514 0.77854 0.0
Tb578 Tb 0.75786 0.25982 0.76855 0.0
O579 O 0.78865 0.31692 0.81194 0.0
O580 O 0.76015 0.2887 0.79623 0.0
O581 O 0.80853 0.30654 0.77343 0.0
C582 C 0.74513 0.21276 0.77738 0.0
O583 O 0.7967 0.26505 0.77966 0.0
C584 C 0.75617 0.2806 0.72772 0.0
C585 C 0.71766 0.29105 0.76488 0.0
O586 O 0.75852 0.22063 0.76085 0.0
O587 O 0.73927 0.23134 0.78884 0.0
O588 O 0.74408 0.2586 0.73009 0.0
O589 O 0.77082 0.2879 0.74658 0.0
O590 O 0.72291 0.26951 0.7692 0.0
O591 O 0.73455 0.31139 0.76425 0.0
C592 C 0.78692 0.36387 0.76598 0.0
O593 O 0.77467 0.356 0.78333 0.0
O594 O 0.79128 0.34517 0.75327 0.0
C595 C 0.77531 0.29567 0.81478 0.0
Tb596 Tb 0.7416 0.77294 0.77144 0.0
C597 C 0.78092 0.7912 0.8172 0.0
Tb598 Tb 0.79156 0.80185 0.76541 0.0
O599 O 0.74813 0.7399 0.75155 0.0
O600 O 0.7764 0.76527 0.77198 0.0
O601 O 0.75776 0.7858 0.80854 0.0
C602 C 0.83555 0.81351 0.75169 0.0
O603 O 0.79828 0.796 0.80313 0.0
C604 C 0.76135 0.82889 0.77858 0.0
C605 C 0.75107 0.78564 0.71996 0.0
O606 O 0.81853 0.82533 0.74708 0.0
O607 O 0.82784 0.79548 0.76422 0.0
O608 O 0.78464 0.83564 0.78405 0.0
O609 O 0.75688 0.80926 0.76467 0.0
O610 O 0.77448 0.7904 0.72799 0.0
O611 O 0.73418 0.78016 0.73445 0.0
C612 C 0.69861 0.75998 0.78694 0.0
O613 O 0.7158 0.74802 0.78956 0.0
O614 O 0.70546 0.77874 0.77498 0.0
C615 C 0.77137 0.74611 0.7573 0.0
Tb616 Tb 0.52958 0.5643 0.51965 0.0
C617 C 0.52634 0.52274 0.47527 0.0
Tb618 Tb 0.50803 0.50761 0.52531 0.0
O619 O 0.56391 0.56181 0.54065 0.0
O620 O 0.54149 0.53092 0.52174 0.0
O621 O 0.53036 0.54655 0.48348 0.0
C622 C 0.50824 0.46387 0.54154 0.0
O623 O 0.51887 0.50433 0.48866 0.0
C624 C 0.47395 0.53298 0.51615 0.0
C625 C 0.50817 0.54974 0.56751 0.0
O626 O 0.49392 0.46758 0.52314 0.0
O627 O 0.52241 0.48466 0.55045 0.0
O628 O 0.46936 0.50939 0.51853 0.0
O629 O 0.4965 0.53954 0.51804 0.0
O630 O 0.50971 0.52648 0.56169 0.0
O631 O 0.51293 0.56739 0.55281 0.0
C632 C 0.53309 0.60802 0.50178 0.0
O633 O 0.5485 0.60285 0.51836 0.0
O634 O 0.51601 0.58867 0.49543 0.0
C635 C 0.56025 0.53787 0.53642 0.0
Tb636 Tb 0.04615 0.54065 0.01955 0.0
C637 C 0.02839 0.52086 0.06734 0.0
Tb638 Tb 0.99305 0.5338 0.02469 0.0
O639 O 0.05462 0.57166 0.04782 0.0
O640 O 0.02199 0.56425 0.02521 0.0
O641 O 0.04507 0.52165 0.05229 0.0
C642 C 0.94927 0.53714 0.03514 0.0
O643 O 0.00728 0.52671 0.06115 0.0
C644 C 0.0059 0.49702 1.00105 0.0
C645 C 0.01078 0.55396 0.97705 0.0
O646 O 0.96911 0.5528 0.04335 0.0
O647 O 0.95421 0.51938 0.02155 0.0
O648 O 0.98514 0.50271 0.99643 0.0
O649 O 0.01727 0.5103 0.01945 0.0
O650 O 0.99414 0.55316 0.99215 0.0
O651 O 0.03192 0.54826 0.98341 0.0
C652 C 0.08813 0.53369 0.00658 0.0
O653 O 0.08508 0.55318 0.01914 0.0
O654 O 0.0675 0.51846 1.00107 0.0
C655 C 0.03376 0.57738 0.04361 0.0
H656 H 0.05087 0.2108 0.90018 0.0
H657 H 0.01131 0.24662 0.94864 0.0
H658 H 0.05193 0.17858 0.92757 0.0
H659 H 0.01205 0.21418 0.97568 0.0
H660 H 0.9911 0.13112 0.99391 0.0
H661 H 0.99286 0.16684 0.9706 0.0
H662 H 0.06983 0.17501 0.97236 0.0
H663 H 0.06815 0.13955 0.99621 0.0
C664 C 0.04245 0.21183 0.91666 0.0
C665 C 0.03098 0.23126 0.92219 0.0
C666 C 0.0432 0.19348 0.9324 0.0
C667 C 0.03208 0.19392 0.95374 0.0
C668 C 0.02069 0.21337 0.95931 0.0
C669 C 0.02035 0.23196 0.94385 0.0
C670 C 0.00845 0.14085 0.9897 0.0
C671 C 0.0295 0.13268 0.99692 0.0
C672 C 0.00945 0.16126 0.97637 0.0
C673 C 0.03147 0.17359 0.96958 0.0
C674 C 0.05262 0.16573 0.97724 0.0
C675 C 0.05167 0.1456 0.99102 0.0
H676 H 0.05761 0.76361 0.24329 0.0
H677 H 0.0846 0.80652 0.18668 0.0
H678 H 0.09858 0.77024 0.26386 0.0
H679 H 0.12535 0.81257 0.20681 0.0
H680 H 0.19624 0.83219 0.25395 0.0
H681 H 0.15403 0.83136 0.24071 0.0
H682 H 0.13454 0.75583 0.25742 0.0
H683 H 0.17647 0.75683 0.27121 0.0
C684 C 0.07219 0.77467 0.23535 0.0
C685 C 0.06773 0.78437 0.21321 0.0
C686 C 0.09574 0.77833 0.24706 0.0
C687 C 0.1154 0.7918 0.23695 0.0
C688 C 0.11074 0.80235 0.21535 0.0
C689 C 0.08727 0.7987 0.20367 0.0
C690 C 0.18292 0.81553 0.25518 0.0
C691 C 0.18988 0.79455 0.26358 0.0
C692 C 0.15868 0.81499 0.2474 0.0
C693 C 0.14079 0.79346 0.24779 0.0
C694 C 0.14768 0.77284 0.25709 0.0
C695 C 0.17187 0.77338 0.26487 0.0
H696 H 0.52605 0.8901 0.38508 0.0
H697 H 0.54424 0.85807 0.45068 0.0
H698 H 0.51955 0.92603 0.40902 0.0
H699 H 0.53709 0.89375 0.47465 0.0
H700 H 0.5398 0.97082 0.5115 0.0
H701 H 0.55086 0.93722 0.4873 0.0
H702 H 0.49046 0.93603 0.43365 0.0
H703 H 0.4802 0.97011 0.4573 0.0
C704 C 0.5287 0.89071 0.40461 0.0
C705 C 0.53555 0.87106 0.4159 0.0
C706 C 0.52483 0.91129 0.41838 0.0
C707 C 0.52756 0.91278 0.44383 0.0
C708 C 0.53503 0.89342 0.45512 0.0
C709 C 0.53901 0.87284 0.44134 0.0
C710 C 0.52918 0.96357 0.49435 0.0
C711 C 0.50934 0.97327 0.48613 0.0
C712 C 0.53532 0.94413 0.48059 0.0
C713 C 0.52164 0.9339 0.45839 0.0
C714 C 0.50173 0.94367 0.45036 0.0
C715 C 0.49568 0.96309 0.46404 0.0
H716 H 0.42857 0.22738 0.72656 0.0
H717 H 0.4372 0.29842 0.69845 0.0
H718 H 0.39242 0.23406 0.74365 0.0
H719 H 0.40109 0.30524 0.71591 0.0
H720 H 0.35189 0.31731 0.77676 0.0
H721 H 0.38765 0.31139 0.75805 0.0
H722 H 0.35005 0.23804 0.72877 0.0
H723 H 0.31435 0.24406 0.74731 0.0
C724 C 0.42279 0.24446 0.72403 0.0
C725 C 0.43586 0.26235 0.7111 0.0
C726 C 0.40196 0.24823 0.73374 0.0
C727 C 0.39381 0.27019 0.73117 0.0
C728 C 0.40695 0.28818 0.71837 0.0
C729 C 0.42758 0.28422 0.70826 0.0
C730 C 0.35128 0.29996 0.76627 0.0
C731 C 0.33029 0.28117 0.7635 0.0
C732 C 0.3717 0.29662 0.75543 0.0
C733 C 0.37177 0.27421 0.74193 0.0
C734 C 0.35071 0.25544 0.7392 0.0
C735 C 0.3302 0.25894 0.74971 0.0
H736 H 0.98412 0.86647 0.59338 0.0
H737 H 0.04636 0.86306 0.55615 0.0
H738 H 0.98019 0.90415 0.57494 0.0
H739 H 0.0421 0.90013 0.53744 0.0
H740 H 0.96904 0.95919 0.51912 0.0
H741 H 0.97075 0.91989 0.53555 0.0
H742 H 0.04815 0.94352 0.55117 0.0
H743 H 0.04641 0.98209 0.53399 0.0
C744 C 0.99682 0.87365 0.58115 0.0
C745 C 0.01568 0.86197 0.57638 0.0
C746 C 0.99449 0.8951 0.57049 0.0
C747 C 0.01095 0.90516 0.55489 0.0
C748 C 0.02941 0.89308 0.54973 0.0
C749 C 0.03178 0.87177 0.5604 0.0
C750 C 0.98636 0.95575 0.5259 0.0
C751 C 0.00759 0.97357 0.52553 0.0
C752 C 0.98733 0.93344 0.53548 0.0
C753 C 0.00958 0.92865 0.54464 0.0
C754 C 0.03077 0.94652 0.54399 0.0
C755 C 0.02978 0.9687 0.5344 0.0
H756 H 0.49059 0.77941 0.84651 0.0
H757 H 0.4545 0.75437 0.90727 0.0
H758 H 0.45193 0.77373 0.82182 0.0
H759 H 0.41554 0.7499 0.88301 0.0
H760 H 0.34776 0.73462 0.83053 0.0
H761 H 0.38668 0.73022 0.85004 0.0
H762 H 0.42139 0.79624 0.82048 0.0
H763 H 0.38273 0.79981 0.80025 0.0
C764 C 0.47429 0.77251 0.85449 0.0
C765 C 0.47538 0.7676 0.8788 0.0
C766 C 0.45215 0.76942 0.84043 0.0
C767 C 0.43059 0.76191 0.85056 0.0
C768 C 0.43177 0.75558 0.87455 0.0
C769 C 0.45405 0.75821 0.88851 0.0
C770 C 0.36384 0.74796 0.82806 0.0
C771 C 0.3624 0.76761 0.81404 0.0
C772 C 0.38608 0.74554 0.8393 0.0
C773 C 0.40719 0.76288 0.83691 0.0
C774 C 0.40562 0.78223 0.82237 0.0
C775 C 0.38346 0.78445 0.81091 0.0
H776 H 0.54543 0.2408 0.04868 0.0
H777 H 0.4696 0.22421 0.05685 0.0
H778 H 0.54242 0.19866 0.0318 0.0
H779 H 0.46602 0.18236 0.03835 0.0
H780 H 0.47874 0.10494 0.04778 0.0
H781 H 0.47683 0.14797 0.05296 0.0
H782 H 0.52983 0.16487 1.003 0.0
H783 H 0.53267 0.12162 0.99898 0.0
C784 C 0.52792 0.22831 0.04602 0.0
C785 C 0.50783 0.23554 0.05443 0.0
C786 C 0.52611 0.20411 0.0362 0.0
C787 C 0.50405 0.18682 0.03413 0.0
C788 C 0.48348 0.19489 0.04042 0.0
C789 C 0.48543 0.21892 0.05082 0.0
C790 C 0.48976 0.11778 0.03765 0.0
C791 C 0.50602 0.11002 0.02317 0.0
C792 C 0.48852 0.14254 0.04042 0.0
C793 C 0.50319 0.16009 0.02841 0.0
C794 C 0.5186 0.15201 0.0129 0.0
C795 C 0.52018 0.12723 0.01051 0.0
H796 H 0.08227 0.23096 0.36884 0.0
H797 H 0.09514 0.30954 0.38854 0.0
H798 H 0.11538 0.23715 0.34444 0.0
H799 H 0.12795 0.31596 0.36315 0.0
H800 H 0.20252 0.31251 0.33913 0.0
H801 H 0.16782 0.30956 0.36169 0.0
H802 H 0.12681 0.25229 0.30796 0.0
H803 H 0.16198 0.25457 0.28609 0.0
C804 C 0.09207 0.24963 0.36776 0.0
C805 C 0.08615 0.26978 0.3806 0.0
C806 C 0.11094 0.25321 0.35356 0.0
C807 C 0.12419 0.27708 0.35159 0.0
C808 C 0.11824 0.2973 0.36445 0.0
C809 C 0.09945 0.29367 0.37893 0.0
C810 C 0.186 0.29943 0.33212 0.0
C811 C 0.18489 0.28354 0.3111 0.0
C812 C 0.16606 0.29785 0.34493 0.0
C813 C 0.14459 0.28051 0.33679 0.0
C814 C 0.14325 0.26544 0.31506 0.0
C815 C 0.16329 0.26683 0.30243 0.0
H816 H 0.8983 0.0766 0.15996 0.0
H817 H 0.95426 0.06496 0.21309 0.0
H818 H 0.92528 0.07598 0.12873 0.0
H819 H 0.98117 0.0646 0.18196 0.0
H820 H 1.00563 0.02871 0.11345 0.0
H821 H 0.98288 0.03581 0.14697 0.0
H822 H 0.963 0.09788 0.11458 0.0
H823 H 0.98567 0.09067 0.08086 0.0
C824 C 0.91642 0.07423 0.16507 0.0
C825 C 0.92398 0.07064 0.18905 0.0
C826 C 0.93194 0.07401 0.14717 0.0
C827 C 0.95535 0.07009 0.15282 0.0
C828 C 0.96315 0.06732 0.17693 0.0
C829 C 0.94771 0.06764 0.19481 0.0
C830 C 0.99679 0.04416 0.11367 0.0
C831 C 0.99759 0.05917 0.09451 0.0
C832 C 0.98378 0.04828 0.13294 0.0
C833 C 0.97102 0.06736 0.13342 0.0
C834 C 0.97245 0.08289 0.11465 0.0
C835 C 0.9857 0.07893 0.09547 0.0
H836 H 0.25698 0.73869 0.45439 0.0
H837 H 0.32652 0.72634 0.43947 0.0
H838 H 0.25263 0.75708 0.41636 0.0
H839 H 0.32217 0.74497 0.40132 0.0
H840 H 0.3152 0.80584 0.34932 0.0
H841 H 0.32033 0.78618 0.38666 0.0
H842 H 0.24701 0.74434 0.37182 0.0
H843 H 0.24192 0.76414 0.33444 0.0
C844 C 0.27145 0.74001 0.44307 0.0
C845 C 0.29217 0.73107 0.45011 0.0
C846 C 0.26882 0.75039 0.42112 0.0
C847 C 0.28697 0.75242 0.40566 0.0
C848 C 0.30789 0.74382 0.41284 0.0
C849 C 0.31038 0.73311 0.4347 0.0
C850 C 0.3002 0.79238 0.35401 0.0
C851 C 0.27815 0.78651 0.33894 0.0
C852 C 0.30319 0.78099 0.37534 0.0
C853 C 0.28409 0.76369 0.38233 0.0
C854 C 0.26205 0.75773 0.36712 0.0
C855 C 0.25916 0.7689 0.3456 0.0
H856 H 0.5546 0.01773 0.72337 0.0
H857 H 0.58878 0.96123 0.69477 0.0
H858 H 0.53701 0.02172 0.68258 0.0
H859 H 0.57063 0.96464 0.65419 0.0
H860 H 0.49882 0.01536 0.60543 0.0
H861 H 0.50986 0.00516 0.64638 0.0
H862 H 0.57812 0.9941 0.6259 0.0
H863 H 0.56697 0.00355 0.5853 0.0
C864 C 0.55788 0.00569 0.70849 0.0
C865 C 0.57338 0.98935 0.71241 0.0
C866 C 0.54772 0.00796 0.68502 0.0
C867 C 0.5527 0.99384 0.66489 0.0
C868 C 0.56688 0.97633 0.6691 0.0
C869 C 0.57716 0.9742 0.69247 0.0
C870 C 0.51606 0.01047 0.60963 0.0
C871 C 0.53194 0.01028 0.59193 0.0
C872 C 0.52247 0.00477 0.63319 0.0
C873 C 0.54488 0.99865 0.63958 0.0
C874 C 0.56052 0.99818 0.62169 0.0
C875 C 0.55415 0.00385 0.5983 0.0
H876 H 0.2867 0.35258 0.9915 0.0
H877 H 0.21751 0.36879 0.96916 0.0
H878 H 0.28707 0.33249 0.95159 0.0
H879 H 0.21698 0.34714 0.92934 0.0
H880 H 0.2385 0.33574 0.8534 0.0
H881 H 0.2346 0.35211 0.894 0.0
H882 H 0.27203 0.29881 0.92355 0.0
H883 H 0.27728 0.28368 0.88266 0.0
C884 C 0.2713 0.35139 0.97811 0.0
C885 C 0.25212 0.36233 0.98334 0.0
C886 C 0.27139 0.33963 0.95521 0.0
C887 C 0.25204 0.33806 0.93708 0.0
C888 C 0.23244 0.34839 0.94264 0.0
C889 C 0.23262 0.36067 0.96548 0.0
C890 C 0.24582 0.32752 0.86863 0.0
C891 C 0.2584 0.30867 0.86505 0.0
C892 C 0.24338 0.33673 0.89195 0.0
C893 C 0.25305 0.3269 0.91223 0.0
C894 C 0.26484 0.30727 0.90846 0.0
C895 C 0.26774 0.29844 0.88507 0.0
H896 H 0.90225 0.08711 0.33773 0.0
H897 H 0.96136 0.06066 0.31042 0.0
H898 H 0.92102 0.08735 0.37927 0.0
H899 H 0.98042 0.06169 0.35151 0.0
H900 H 0.98459 0.02632 0.42176 0.0
H901 H 0.9692 0.03439 0.38182 0.0
H902 H 0.95539 0.10337 0.41164 0.0
H903 H 0.97062 0.09487 0.45224 0.0
C904 C 0.91955 0.08203 0.34061 0.0
C905 C 0.93017 0.07346 0.32094 0.0
C906 C 0.93032 0.0822 0.36435 0.0
C907 C 0.95194 0.07399 0.36868 0.0
C908 C 0.96343 0.06744 0.34883 0.0
C909 C 0.95258 0.06697 0.32527 0.0
C910 C 0.97836 0.04327 0.41985 0.0
C911 C 0.97883 0.05999 0.44005 0.0
C912 C 0.9697 0.04802 0.39689 0.0
C913 C 0.96137 0.06971 0.39345 0.0
C914 C 0.96167 0.08649 0.41372 0.0
C915 C 0.97042 0.08168 0.43688 0.0
H916 H 0.32842 0.69269 0.60547 0.0
H917 H 0.29382 0.74623 0.57275 0.0
H918 H 0.32314 0.70993 0.64536 0.0
H919 H 0.28911 0.76398 0.61286 0.0
H920 H 0.32452 0.75533 0.71642 0.0
H921 H 0.33413 0.74334 0.67626 0.0
H922 H 0.26516 0.75384 0.64485 0.0
H923 H 0.25585 0.76646 0.68486 0.0
C924 C 0.3201 0.70848 0.60674 0.0
C925 C 0.31147 0.71792 0.58569 0.0
C926 C 0.31713 0.71848 0.62977 0.0
C927 C 0.30549 0.73831 0.63254 0.0
C928 C 0.29775 0.74844 0.61153 0.0
C929 C 0.30069 0.73839 0.58846 0.0
C930 C 0.31147 0.75531 0.70095 0.0
C931 C 0.28937 0.76189 0.70404 0.0
C932 C 0.31693 0.74825 0.67784 0.0
C933 C 0.30044 0.74748 0.6571 0.0
C934 C 0.27853 0.75452 0.66021 0.0
C935 C 0.27309 0.76162 0.68329 0.0
H936 H 0.60028 1.00228 0.86912 0.0
H937 H 0.53943 0.0231 0.83076 0.0
H938 H 0.58421 0.0089 0.90723 0.0
H939 H 0.52195 0.02758 0.86833 0.0
H940 H 0.50345 0.05534 0.94017 0.0
H941 H 0.52147 0.05037 0.9029 0.0
H942 H 0.55859 0.99762 0.93418 0.0
H943 H 0.54219 0.00464 0.97195 0.0
C944 C 0.5831 0.0077 0.86884 0.0
C945 C 0.57111 0.01218 0.84699 0.0
C946 C 0.57369 0.01142 0.89077 0.0
C947 C 0.55159 0.01899 0.89138 0.0
C948 C 0.5393 0.02256 0.86915 0.0
C949 C 0.54913 0.01964 0.84738 0.0
C950 C 0.51572 0.04294 0.93901 0.0
C951 C 0.52149 0.03048 0.95892 0.0
C952 C 0.52589 0.03973 0.91747 0.0
C953 C 0.5415 0.02326 0.91492 0.0
C954 C 0.54718 0.01085 0.93514 0.0
C955 C 0.53761 0.01471 0.95692 0.0
H956 H 0.22605 0.39752 0.13714 0.0
H957 H 0.22211 0.33766 0.08181 0.0
H958 H 0.21923 0.36802 0.16703 0.0
H959 H 0.21469 0.30811 0.11164 0.0
H960 H 0.25584 0.2813 0.17844 0.0
H961 H 0.24416 0.30124 0.14341 0.0
H962 H 0.19483 0.33278 0.1833 0.0
H963 H 0.20683 0.31299 0.21865 0.0
C964 C 0.22304 0.37803 0.13122 0.0
C965 C 0.22524 0.36995 0.10728 0.0
C966 C 0.2189 0.36107 0.14832 0.0
C967 C 0.21675 0.33575 0.14172 0.0
C968 C 0.21672 0.32755 0.11731 0.0
C969 C 0.221 0.34449 0.10026 0.0
C970 C 0.24199 0.29189 0.17954 0.0
C971 C 0.23261 0.29597 0.2014 0.0
C972 C 0.23513 0.3032 0.15937 0.0
C973 C 0.2188 0.31888 0.16072 0.0
C974 C 0.20769 0.32105 0.18188 0.0
C975 C 0.21446 0.30957 0.20205 0.0
H976 H 0.17458 0.96772 0.08503 0.0
H977 H 0.15514 0.93697 0.01065 0.0
H978 H 0.14323 0.99156 0.08079 0.0
H979 H 0.12378 0.96096 0.00638 0.0
H980 H 0.06942 0.01366 0.07061 0.0
H981 H 0.09867 0.98709 0.07477 0.0
H982 H 0.12099 0.00487 0.00543 0.0
H983 H 0.09171 0.03117 1.00132 0.0
C984 C 0.16357 0.96595 0.06776 0.0
C985 C 0.16751 0.95038 0.04817 0.0
C986 C 0.14545 0.97955 0.06538 0.0
C987 C 0.13089 0.97829 0.04324 0.0
C988 C 0.13474 0.96261 0.02366 0.0
C989 C 0.15268 0.94873 0.02613 0.0
C990 C 0.08043 0.01167 0.05619 0.0
C991 C 0.07817 0.02445 0.03561 0.0
C992 C 0.09735 0.99661 0.05864 0.0
C993 C 0.11229 0.99376 0.04044 0.0
C994 C 0.10971 0.00636 0.01972 0.0
C995 C 0.09304 0.02163 0.01744 0.0
H996 H 0.6868 0.64827 0.9757 0.0
H997 H 0.70665 0.57997 0.99224 0.0
H998 H 0.64483 0.62995 0.9789 0.0
H999 H 0.66458 0.56149 0.9948 0.0
H1000 H 0.59917 0.55461 0.03745 0.0
H1001 H 0.63906 0.56852 0.02555 0.0
H1002 H 0.60835 0.59923 0.96415 0.0
H1003 H 0.56827 0.58577 0.97637 0.0
C1004 C 0.68213 0.62913 0.97933 0.0
C1005 C 0.7001 0.61572 0.98417 0.0
C1006 C 0.65804 0.61861 0.98111 0.0
C1007 C 0.65147 0.59443 0.98759 0.0
C1008 C 0.66919 0.58037 0.99039 0.0
C1009 C 0.69327 0.59092 0.98877 0.0
C1010 C 0.60084 0.56425 0.02136 0.0
C1011 C 0.58052 0.56917 0.00795 0.0
C1012 C 0.62373 0.57201 0.01438 0.0
C1013 C 0.62685 0.58481 0.99378 0.0
C1014 C 0.60652 0.58954 0.98019 0.0
C1015 C 0.58357 0.58179 0.9872 0.0
H1016 H 0.70148 0.44205 0.31271 0.0
H1017 H 0.73137 0.46176 0.24702 0.0
H1018 H 0.72018 0.40625 0.3123 0.0
H1019 H 0.75005 0.42617 0.24669 0.0
H1020 H 0.75728 0.34528 0.2395 0.0
H1021 H 0.73792 0.38066 0.24042 0.0
H1022 H 0.76074 0.39632 0.31715 0.0
H1023 H 0.77964 0.3607 0.31621 0.0
C1024 C 0.71213 0.43884 0.29827 0.0
C1025 C 0.71493 0.45482 0.27993 0.0
C1026 C 0.7229 0.41836 0.29806 0.0
C1027 C 0.73653 0.41327 0.27939 0.0
C1028 C 0.73941 0.42934 0.26115 0.0
C1029 C 0.72883 0.44988 0.26147 0.0
C1030 C 0.75793 0.35619 0.25656 0.0
C1031 C 0.76976 0.35017 0.2778 0.0
C1032 C 0.74706 0.37657 0.25708 0.0
C1033 C 0.74777 0.39135 0.27888 0.0
C1034 C 0.75962 0.38521 0.30012 0.0
C1035 C 0.77062 0.36494 0.29955 0.0
H1036 H 0.8131 0.40716 0.53435 0.0
H1037 H 0.7866 0.47449 0.53465 0.0
H1038 H 0.85367 0.43045 0.53192 0.0
H1039 H 0.82757 0.49786 0.53179 0.0
H1040 H 0.90055 0.51804 0.49442 0.0
H1041 H 0.85889 0.49835 0.49917 0.0
H1042 H 0.88467 0.46407 0.56038 0.0
H1043 H 0.92614 0.484 0.55591 0.0
C1044 C 0.81591 0.42695 0.53382 0.0
C1045 C 0.79658 0.43897 0.53467 0.0
C1046 C 0.8392 0.44028 0.53258 0.0
C1047 C 0.84375 0.46593 0.53175 0.0
C1048 C 0.82449 0.47806 0.53236 0.0
C1049 C 0.80112 0.46472 0.53408 0.0
C1050 C 0.89723 0.50646 0.50899 0.0
C1051 C 0.91651 0.50239 0.52471 0.0
C1052 C 0.87344 0.49534 0.51178 0.0
C1053 C 0.86862 0.47966 0.53008 0.0
C1054 C 0.88792 0.47597 0.54603 0.0
C1055 C 0.91161 0.48738 0.54349 0.0
H1056 H 0.33523 0.13064 0.21127 0.0
H1057 H 0.37399 0.15317 0.28255 0.0
H1058 H 0.31051 0.16072 0.21784 0.0
H1059 H 0.34944 0.18375 0.289 0.0
H1060 H 0.28244 0.21556 0.30158 0.0
H1061 H 0.30842 0.18629 0.29537 0.0
H1062 H 0.31171 0.20423 0.22164 0.0
H1063 H 0.28505 0.2327 0.22774 0.0
C1064 C 0.33865 0.14218 0.2283 0.0
C1065 C 0.35665 0.13944 0.24638 0.0
C1066 C 0.32451 0.15958 0.23203 0.0
C1067 C 0.3279 0.17475 0.25397 0.0
C1068 C 0.34609 0.17219 0.27199 0.0
C1069 C 0.36031 0.15478 0.26822 0.0
C1070 C 0.28865 0.21309 0.28403 0.0
C1071 C 0.28192 0.22656 0.26519 0.0
C1072 C 0.30375 0.19653 0.28052 0.0
C1073 C 0.3123 0.19288 0.258 0.0
C1074 C 0.30536 0.20634 0.23915 0.0
C1075 C 0.29031 0.2229 0.2427 0.0
H1076 H 0.31791 0.09368 0.55007 0.0
H1077 H 0.3358 0.09933 0.477 0.0
H1078 H 0.3504 0.07199 0.5588 0.0
H1079 H 0.36798 0.07704 0.4857 0.0
H1080 H 0.40675 0.01523 0.50562 0.0
H1081 H 0.37014 0.03144 0.4998 0.0
H1082 H 0.39893 0.08831 0.55836 0.0
H1083 H 0.43593 0.07253 0.56382 0.0
C1084 C 0.32857 0.08999 0.53579 0.0
C1085 C 0.3244 0.09819 0.51284 0.0
C1086 C 0.34714 0.07767 0.54084 0.0
C1087 C 0.36147 0.07287 0.52288 0.0
C1088 C 0.35693 0.08042 0.49974 0.0
C1089 C 0.33867 0.09323 0.49482 0.0
C1090 C 0.40503 0.03085 0.51761 0.0
C1091 C 0.4241 0.04274 0.53512 0.0
C1092 C 0.38421 0.04017 0.51415 0.0
C1093 C 0.38198 0.06116 0.52851 0.0
C1094 C 0.40033 0.07204 0.54714 0.0
C1095 C 0.42139 0.06301 0.55028 0.0
H1096 H 0.67694 0.60122 0.31893 0.0
H1097 H 0.73156 0.58064 0.27835 0.0
H1098 H 0.69478 0.64461 0.31711 0.0
H1099 H 0.74964 0.62414 0.2769 0.0
H1100 H 0.75214 0.70094 0.24991 0.0
H1101 H 0.73874 0.6577 0.25601 0.0
H1102 H 0.7293 0.67838 0.32997 0.0
H1103 H 0.74236 0.72184 0.32379 0.0
C1104 C 0.693 0.60591 0.30997 0.0
C1105 C 0.70267 0.58732 0.29863 0.0
C1106 C 0.70331 0.63087 0.30902 0.0
C1107 C 0.72353 0.63795 0.29666 0.0
C1108 C 0.73382 0.61937 0.28621 0.0
C1109 C 0.72355 0.59439 0.28722 0.0
C1110 C 0.74732 0.69636 0.26754 0.0
C1111 C 0.74826 0.71501 0.28631 0.0
C1112 C 0.7398 0.67146 0.2711 0.0
C1113 C 0.73295 0.66447 0.2935 0.0
C1114 C 0.7342 0.68309 0.31241 0.0
C1115 C 0.74181 0.70804 0.30888 0.0
H1116 H 0.83422 0.52337 0.75621 0.0
H1117 H 0.89709 0.49131 0.76259 0.0
H1118 H 0.80843 0.48251 0.75784 0.0
H1119 H 0.87137 0.45081 0.76388 0.0
H1120 H 0.81724 0.38049 0.73373 0.0
H1121 H 0.83907 0.42267 0.73169 0.0
H1122 H 0.80259 0.4482 0.78944 0.0
H1123 H 0.78079 0.40562 0.79175 0.0
C1124 C 0.84252 0.50768 0.758 0.0
C1125 C 0.8677 0.51058 0.75919 0.0
C1126 C 0.82778 0.48438 0.75902 0.0
C1127 C 0.83795 0.46357 0.76077 0.0
C1128 C 0.86308 0.46654 0.76225 0.0
C1129 C 0.87779 0.48977 0.76163 0.0
C1130 C 0.81364 0.39511 0.74582 0.0
C1131 C 0.79748 0.38981 0.76303 0.0
C1132 C 0.82621 0.41921 0.7447 0.0
C1133 C 0.82267 0.43858 0.76057 0.0
C1134 C 0.80559 0.43354 0.777 0.0
C1135 C 0.79318 0.40926 0.77834 0.0
H1136 H 0.9729 0.83689 0.12537 0.0
H1137 H 0.03935 0.82936 0.09782 0.0
H1138 H 0.97255 0.87329 0.10332 0.0
H1139 H 0.03892 0.86546 0.07594 0.0
H1140 H 0.04619 0.94903 0.07033 0.0
H1141 H 0.04446 0.91041 0.08871 0.0
H1142 H 0.96931 0.88644 0.06046 0.0
H1143 H 0.97112 0.92529 0.04191 0.0
C1144 C 0.98731 0.84287 0.11451 0.0
C1145 C 0.00622 0.83031 0.11348 0.0
C1146 C 0.98704 0.86361 0.10178 0.0
C1147 C 1.00579 0.8723 0.08801 0.0
C1148 C 0.02438 0.8594 0.08662 0.0
C1149 C 0.02455 0.83863 0.09912 0.0
C1150 C 0.02936 0.93541 0.06785 0.0
C1151 C 0.0088 0.94007 0.05468 0.0
C1152 C 0.02838 0.91327 0.07831 0.0
C1153 C 0.00674 0.89539 0.07605 0.0
C1154 C 0.98618 0.89996 0.06265 0.0
C1155 C 0.98726 0.92206 0.0519 0.0
H1156 H 0.95868 0.25326 0.80975 0.0
H1157 H 0.95468 0.31651 0.85773 0.0
H1158 H 0.91807 0.2527 0.79003 0.0
H1159 H 0.91461 0.316 0.83813 0.0
H1160 H 0.85296 0.32364 0.78424 0.0
H1161 H 0.89458 0.32324 0.79834 0.0
H1162 H 0.87498 0.24457 0.8018 0.0
H1163 H 0.83306 0.24485 0.78764 0.0
C1164 C 0.94929 0.26716 0.81592 0.0
C1165 C 0.95997 0.2849 0.83535 0.0
C1166 C 0.92599 0.26674 0.80474 0.0
C1167 C 0.91311 0.28435 0.81247 0.0
C1168 C 0.92408 0.30234 0.83152 0.0
C1169 C 0.94706 0.30253 0.84287 0.0
C1170 C 0.85744 0.30615 0.78772 0.0
C1171 C 0.83948 0.28429 0.78489 0.0
C1172 C 0.88136 0.30596 0.79592 0.0
C1173 C 0.88811 0.2839 0.80136 0.0
C1174 C 0.87041 0.26185 0.79763 0.0
C1175 C 0.84635 0.26205 0.78961 0.0
H1176 H 0.49632 0.17548 0.6539 0.0
H1177 H 0.49971 0.214 0.5896 0.0
H1178 H 0.50248 0.13859 0.63082 0.0
H1179 H 0.50553 0.17701 0.56655 0.0
H1180 H 0.55105 0.09592 0.58803 0.0
H1181 H 0.53913 0.12979 0.61091 0.0
H1182 H 0.48442 0.13167 0.55228 0.0
H1183 H 0.49617 0.09747 0.5295 0.0
C1184 C 0.49789 0.17596 0.63477 0.0
C1185 C 0.49758 0.19777 0.62365 0.0
C1186 C 0.5016 0.15487 0.62159 0.0
C1187 C 0.50463 0.15494 0.5969 0.0
C1188 C 0.50313 0.17633 0.58551 0.0
C1189 C 0.49985 0.19755 0.59876 0.0
C1190 C 0.5364 0.10349 0.5801 0.0
C1191 C 0.52458 0.09413 0.55698 0.0
C1192 C 0.52946 0.12276 0.59326 0.0
C1193 C 0.51081 0.13338 0.58342 0.0
C1194 C 0.49891 0.12393 0.56029 0.0
C1195 C 0.50559 0.10434 0.5473 0.0
H1196 H 0.58256 0.80712 0.30204 0.0
H1197 H 0.62066 0.79418 0.36902 0.0
H1198 H 0.61761 0.80373 0.28126 0.0
H1199 H 0.65534 0.79038 0.34824 0.0
H1200 H 0.72241 0.81022 0.3092 0.0
H1201 H 0.68739 0.81446 0.32962 0.0
H1202 H 0.64041 0.77419 0.26768 0.0
H1203 H 0.67562 0.77005 0.24743 0.0
C1204 C 0.59834 0.80349 0.31235 0.0
C1205 C 0.59868 0.80097 0.33727 0.0
C1206 C 0.61843 0.8014 0.30039 0.0
C1207 C 0.63943 0.79681 0.31303 0.0
C1208 C 0.63971 0.79429 0.33793 0.0
C1209 C 0.61966 0.79632 0.34985 0.0
C1210 C 0.70463 0.80191 0.30019 0.0
C1211 C 0.70179 0.78935 0.27698 0.0
C1212 C 0.68448 0.80442 0.31181 0.0
C1213 C 0.66094 0.79453 0.30041 0.0
C1214 C 0.65818 0.78226 0.27697 0.0
C1215 C 0.67837 0.77975 0.2654 0.0
H1216 H 1.00179 0.21961 0.50087 0.0
H1217 H 0.05776 0.20225 0.46019 0.0
H1218 H 1.00362 0.18419 0.52378 0.0
H1219 H 0.0596 0.16704 0.48323 0.0
H1220 H 0.06997 0.11928 0.54534 0.0
H1221 H 0.07018 0.15822 0.52754 0.0
H1222 H 0.99286 0.13719 0.51003 0.0
H1223 H 0.99267 0.09832 0.52775 0.0
C1224 C 0.01464 0.20842 0.49701 0.0
C1225 C 0.02953 0.21356 0.47865 0.0
C1226 C 0.01561 0.18817 0.51004 0.0
C1227 C 0.03173 0.17302 0.50517 0.0
C1228 C 0.04717 0.17862 0.4874 0.0
C1229 C 0.04598 0.19864 0.47414 0.0
C1230 C 0.05305 0.12318 0.5379 0.0
C1231 C 0.03131 0.10595 0.53769 0.0
C1232 C 0.05318 0.14531 0.52769 0.0
C1233 C 0.03154 0.15057 0.51752 0.0
C1234 C 0.00973 0.13359 0.51799 0.0
C1235 C 0.00964 0.11136 0.52791 0.0
H1236 H 0.60338 0.32771 0.13622 0.0
H1237 H 0.55421 0.28809 0.18104 0.0
H1238 H 0.63704 0.32713 0.1663 0.0
H1239 H 0.58793 0.28806 0.21144 0.0
H1240 H 0.6573 0.26032 0.23669 0.0
H1241 H 0.62092 0.26668 0.21353 0.0
H1242 H 0.65655 0.3419 0.20672 0.0
H1243 H 0.69311 0.33521 0.22932 0.0
C1244 C 0.5997 0.31924 0.15267 0.0
C1245 C 0.57616 0.3077 0.1561 0.0
C1246 C 0.61899 0.31907 0.17002 0.0
C1247 C 0.61514 0.30745 0.19122 0.0
C1248 C 0.59148 0.29684 0.19513 0.0
C1249 C 0.57218 0.29695 0.17774 0.0
C1250 C 0.65715 0.2783 0.23055 0.0
C1251 C 0.67797 0.29718 0.23445 0.0
C1252 C 0.63631 0.28202 0.21742 0.0
C1253 C 0.63595 0.30474 0.20809 0.0
C1254 C 0.65643 0.32406 0.21329 0.0
C1255 C 0.67729 0.32028 0.2263 0.0
H1256 H 0.5173 0.85596 0.94611 0.0
H1257 H 0.5729 0.85286 1.00366 0.0
H1258 H 0.50976 0.89281 0.96723 0.0
H1259 H 0.56504 0.88986 0.02501 0.0
H1260 H 0.56403 0.97464 0.03164 0.0
H1261 H 0.57046 0.93409 0.01865 0.0
H1262 H 0.49352 0.90642 1.00399 0.0
H1263 H 0.48695 0.94715 0.01656 0.0
C1264 C 0.5279 0.8631 0.96331 0.0
C1265 C 0.5458 0.85151 0.97313 0.0
C1266 C 0.52335 0.88408 0.97556 0.0
C1267 C 0.5366 0.89404 0.99791 0.0
C1268 C 0.55457 0.88256 0.00778 0.0
C1269 C 0.55907 0.86143 0.99554 0.0
C1270 C 0.54842 0.95984 0.0261 0.0
C1271 C 0.52497 0.96429 0.02467 0.0
C1272 C 0.55215 0.93654 0.01877 0.0
C1273 C 0.53251 0.91723 0.00989 0.0
C1274 C 0.50901 0.92115 0.0103 0.0
C1275 C 0.50526 0.94445 0.01767 0.0
H1276 H 0.93547 0.75742 0.67662 0.0
H1277 H 0.9529 0.83296 0.65934 0.0
H1278 H 0.90647 0.76767 0.7023 0.0
H1279 H 0.92392 0.84343 0.68574 0.0
H1280 H 0.84723 0.83893 0.71309 0.0
H1281 H 0.88017 0.83542 0.68906 0.0
H1282 H 0.907 0.79072 0.74087 0.0
H1283 H 0.87374 0.79357 0.76426 0.0
C1284 C 0.93314 0.77627 0.67834 0.0
C1285 C 0.94656 0.79441 0.66604 0.0
C1286 C 0.91666 0.78221 0.69328 0.0
C1287 C 0.91325 0.80649 0.69645 0.0
C1288 C 0.9262 0.82458 0.68368 0.0
C1289 C 0.94275 0.81859 0.66858 0.0
C1290 C 0.86054 0.82886 0.71955 0.0
C1291 C 0.8579 0.81625 0.74029 0.0
C1292 C 0.87938 0.82686 0.70583 0.0
C1293 C 0.89584 0.81233 0.7128 0.0
C1294 C 0.8942 0.80148 0.73468 0.0
C1295 C 0.87531 0.80327 0.74819 0.0
H1296 H 0.07558 0.02127 0.83837 0.0
H1297 H 0.12691 0.99158 0.88274 0.0
H1298 H 0.05011 0.01995 0.87074 0.0
H1299 H 0.10186 0.9913 0.91587 0.0
H1300 H 0.04478 0.98124 0.9678 0.0
H1301 H 0.06518 0.97479 0.93212 0.0
H1302 H 0.05087 0.0428 0.90776 0.0
H1303 H 0.02989 0.04864 0.94251 0.0
C1304 C 0.08147 0.0145 0.85513 0.0
C1305 C 0.10341 0.00681 0.8581 0.0
C1306 C 0.06689 0.01385 0.8738 0.0
C1307 C 0.07403 0.00592 0.89618 0.0
C1308 C 0.09562 0.99735 0.89886 0.0
C1309 C 0.1101 0.99765 0.87994 0.0
C1310 C 0.04552 0.99448 0.9545 0.0
C1311 C 0.03559 0.01543 0.95805 0.0
C1312 C 0.05749 0.99095 0.93418 0.0
C1313 C 0.05981 0.00829 0.91698 0.0
C1314 C 0.04917 0.02877 0.92027 0.0
C1315 C 0.03718 0.03223 0.94041 0.0
H1316 H 0.74503 0.38913 0.62306 0.0
H1317 H 0.71362 0.3189 0.58254 0.0
H1318 H 0.75323 0.36859 0.65872 0.0
H1319 H 0.71984 0.29811 0.61873 0.0
H1320 H 0.75217 0.26282 0.68054 0.0
H1321 H 0.74495 0.28383 0.64473 0.0
H1322 H 0.74218 0.34917 0.69073 0.0
H1323 H 0.75129 0.32846 0.72608 0.0
C1324 C 0.73928 0.36924 0.62196 0.0
C1325 C 0.7286 0.3557 0.5999 0.0
C1326 C 0.74388 0.3573 0.64261 0.0
C1327 C 0.73736 0.33137 0.64214 0.0
C1328 C 0.72589 0.31795 0.62009 0.0
C1329 C 0.72194 0.3299 0.59923 0.0
C1330 C 0.75038 0.28184 0.68284 0.0
C1331 C 0.75288 0.29416 0.70613 0.0
C1332 C 0.74585 0.29391 0.66224 0.0
C1333 C 0.74278 0.3185 0.6643 0.0
C1334 C 0.74502 0.33061 0.68788 0.0
C1335 C 0.75029 0.3187 0.70841 0.0
H1336 H 0.43311 0.08934 0.34747 0.0
H1337 H 0.49332 0.0647 0.32089 0.0
H1338 H 0.44858 0.08476 0.38863 0.0
H1339 H 0.51017 0.06205 0.36214 0.0
H1340 H 0.52001 0.03034 0.43426 0.0
H1341 H 0.50739 0.03886 0.39348 0.0
H1342 H 0.47406 0.09593 0.42297 0.0
H1343 H 0.48511 0.08569 0.46358 0.0
C1344 C 0.45011 0.08367 0.35056 0.0
C1345 C 0.46196 0.07733 0.33096 0.0
C1346 C 0.45916 0.0811 0.3743 0.0
C1347 C 0.48073 0.07275 0.37918 0.0
C1348 C 0.49319 0.06775 0.35943 0.0
C1349 C 0.48372 0.0696 0.33566 0.0
C1350 C 0.51013 0.04482 0.43193 0.0
C1351 C 0.5035 0.0573 0.45208 0.0
C1352 C 0.50296 0.04992 0.40844 0.0
C1353 C 0.4895 0.06819 0.40444 0.0
C1354 C 0.48375 0.08129 0.4249 0.0
C1355 C 0.49032 0.07563 0.44834 0.0
H1356 H 0.78971 0.66659 0.08738 0.0
H1357 H 0.78459 0.73096 0.05004 0.0
H1358 H 0.79147 0.69066 0.1259 0.0
H1359 H 0.78697 0.75521 0.08874 0.0
H1360 H 0.75175 0.77391 0.15766 0.0
H1361 H 0.75882 0.75568 0.11861 0.0
H1362 H 0.81439 0.72414 0.15438 0.0
H1363 H 0.80674 0.74179 0.19341 0.0
C1364 C 0.78944 0.68599 0.08741 0.0
C1365 C 0.78665 0.69678 0.06567 0.0
C1366 C 0.79061 0.69984 0.10951 0.0
C1367 C 0.78917 0.72478 0.1103 0.0
C1368 C 0.78772 0.73592 0.08862 0.0
C1369 C 0.78645 0.72204 0.0665 0.0
C1370 C 0.76561 0.76329 0.15704 0.0
C1371 C 0.77844 0.75885 0.17837 0.0
C1372 C 0.76982 0.75303 0.13473 0.0
C1373 C 0.78706 0.73834 0.13349 0.0
C1374 C 0.80071 0.73501 0.15485 0.0
C1375 C 0.79637 0.74512 0.17712 0.0
H1376 H 0.08582 0.99638 0.74633 0.0
H1377 H 0.14505 0.98287 0.70854 0.0
H1378 H 0.0626 0.99854 0.70782 0.0
H1379 H 0.12194 0.98549 0.67012 0.0
H1380 H 0.06927 0.98125 0.60245 0.0
H1381 H 0.08637 0.9687 0.64034 0.0
H1382 H 0.06777 0.0305 0.67995 0.0
H1383 H 0.05055 0.04272 0.64232 0.0
C1384 C 0.09376 0.99345 0.72982 0.0
C1385 C 0.11746 0.98985 0.73057 0.0
C1386 C 0.08048 0.99483 0.70776 0.0
C1387 C 0.0906 0.99263 0.68598 0.0
C1388 C 0.11359 0.9872 0.68658 0.0
C1389 C 0.12689 0.9858 0.70865 0.0
C1390 C 0.06872 0.99197 0.61934 0.0
C1391 C 0.05877 0.01302 0.61955 0.0
C1392 C 0.07852 0.98483 0.64097 0.0
C1393 C 0.07836 0.99856 0.66314 0.0
C1394 C 0.06782 0.01927 0.66325 0.0
C1395 C 0.05815 0.02642 0.64169 0.0
H1396 H 0.71038 0.36091 0.44418 0.0
H1397 H 0.75439 0.31347 0.47392 0.0
H1398 H 0.71526 0.34524 0.40333 0.0
H1399 H 0.75859 0.29714 0.43328 0.0
H1400 H 0.78732 0.29648 0.35991 0.0
H1401 H 0.77917 0.30897 0.40032 0.0
H1402 H 0.7068 0.31233 0.37205 0.0
H1403 H 0.7153 0.30058 0.33133 0.0
C1404 C 0.72069 0.34676 0.44202 0.0
C1405 C 0.73207 0.33858 0.46241 0.0
C1406 C 0.72347 0.33768 0.41852 0.0
C1407 C 0.73759 0.32002 0.41475 0.0
C1408 C 0.74808 0.31113 0.43526 0.0
C1409 C 0.74547 0.32035 0.45868 0.0
C1410 C 0.76958 0.29968 0.36224 0.0
C1411 C 0.75199 0.29743 0.34219 0.0
C1412 C 0.76482 0.30676 0.38559 0.0
C1413 C 0.74224 0.31167 0.38974 0.0
C1414 C 0.72451 0.30907 0.36969 0.0
C1415 C 0.72934 0.30212 0.34627 0.0
H1416 H 0.42417 0.09154 0.16906 0.0
H1417 H 0.47926 0.06737 0.21391 0.0
H1418 H 0.44498 0.08534 0.13374 0.0
H1419 H 0.4997 0.06066 0.1786 0.0
H1420 H 0.54281 0.07219 0.11461 0.0
H1421 H 0.52258 0.0809 0.14965 0.0
H1422 H 0.45352 0.05286 0.10706 0.0
H1423 H 0.474 0.04488 0.07176 0.0
C1424 C 0.4408 0.08507 0.17147 0.0
C1425 C 0.45 0.08003 0.19447 0.0
C1426 C 0.45263 0.08126 0.15111 0.0
C1427 C 0.47401 0.07234 0.15316 0.0
C1428 C 0.48346 0.06782 0.17626 0.0
C1429 C 0.47165 0.07163 0.19659 0.0
C1430 C 0.5233 0.06784 0.11274 0.0
C1431 C 0.50999 0.0576 0.09048 0.0
C1432 C 0.51166 0.07273 0.1329 0.0
C1433 C 0.48634 0.06751 0.13137 0.0
C1434 C 0.47302 0.05737 0.10895 0.0
C1435 C 0.48473 0.0525 0.08874 0.0
H1436 H 0.76964 0.7475 0.96154 0.0
H1437 H 0.80081 0.69561 0.92067 0.0
H1438 H 0.77741 0.77649 0.93135 0.0
H1439 H 0.80781 0.72433 0.88982 0.0
H1440 H 0.82249 0.78094 0.83852 0.0
H1441 H 0.82754 0.76396 0.87736 0.0
H1442 H 0.75725 0.775 0.89148 0.0
H1443 H 0.75253 0.79232 0.85325 0.0
C1444 C 0.77828 0.74235 0.94611 0.0
C1445 C 0.78417 0.71911 0.94312 0.0
C1446 C 0.78276 0.75899 0.92884 0.0
C1447 C 0.7929 0.7526 0.90802 0.0
C1448 C 0.80017 0.72993 0.90577 0.0
C1449 C 0.79596 0.71336 0.92329 0.0
C1450 C 0.80855 0.78055 0.85037 0.0
C1451 C 0.78698 0.78764 0.84277 0.0
C1452 C 0.81132 0.77058 0.87246 0.0
C1453 C 0.79266 0.76776 0.88731 0.0
C1454 C 0.77208 0.77701 0.8806 0.0
C1455 C 0.76929 0.78685 0.85858 0.0
H1456 H 0.86874 0.12363 0.98832 0.0
H1457 H 0.874 0.12043 0.06554 0.0
H1458 H 0.89957 0.09916 0.98577 0.0
H1459 H 0.90569 0.09753 0.06344 0.0
H1460 H 0.94104 0.03348 0.05234 0.0
H1461 H 0.91182 0.05924 0.05321 0.0
H1462 H 0.93921 0.09416 0.99203 0.0
H1463 H 0.96733 0.06638 0.99007 0.0
C1464 C 0.87677 0.11803 1.00481 0.0
C1465 C 0.86867 0.12376 0.0271 0.0
C1466 C 0.89462 0.10405 1.00341 0.0
C1467 C 0.90516 0.09579 0.02433 0.0
C1468 C 0.89765 0.10261 0.04671 0.0
C1469 C 0.87952 0.11604 0.04801 0.0
C1470 C 0.94083 0.04658 0.03897 0.0
C1471 C 0.95697 0.0482 0.02145 0.0
C1472 C 0.92416 0.06176 0.03967 0.0
C1473 C 0.92315 0.07944 0.02302 0.0
C1474 C 0.93921 0.08088 0.00522 0.0
C1475 C 0.95575 0.06528 1.00432 0.0
H1476 H 0.33009 0.43211 0.03343 0.0
H1477 H 0.32598 0.48172 0.09563 0.0
H1478 H 0.3702 0.45558 0.02964 0.0
H1479 H 0.3667 0.50506 0.09186 0.0
H1480 H 0.45241 0.51496 0.08385 0.0
H1481 H 0.41221 0.49445 0.09222 0.0
H1482 H 0.38317 0.50276 0.0197 0.0
H1483 H 0.42298 0.52344 0.01129 0.0
C1484 C 0.33783 0.44784 0.0465 0.0
C1485 C 0.32478 0.45516 0.06476 0.0
C1486 C 0.36074 0.4613 0.04421 0.0
C1487 C 0.37125 0.48216 0.06031 0.0
C1488 C 0.3588 0.489 0.07924 0.0
C1489 C 0.33558 0.4757 0.08134 0.0
C1490 C 0.43738 0.51268 0.06981 0.0
C1491 C 0.44086 0.52066 0.04686 0.0
C1492 C 0.41445 0.50108 0.07467 0.0
C1493 C 0.39484 0.49697 0.05652 0.0
C1494 C 0.39816 0.50564 0.03389 0.0
C1495 C 0.42092 0.51754 0.02915 0.0
H1496 H 0.29935 0.6026 0.70229 0.0
H1497 H 0.34651 0.62078 0.76954 0.0
H1498 H 0.28017 0.63657 0.71264 0.0
H1499 H 0.32698 0.65462 0.78013 0.0
H1500 H 0.23534 0.68482 0.74768 0.0
H1501 H 0.25391 0.64961 0.73995 0.0
H1502 H 0.3236 0.695 0.7678 0.0
H1503 H 0.30482 0.72992 0.77507 0.0
C1504 C 0.30556 0.61376 0.71937 0.0
C1505 C 0.32451 0.60894 0.73506 0.0
C1506 C 0.29441 0.63317 0.72539 0.0
C1507 C 0.30192 0.64833 0.74728 0.0
C1508 C 0.32087 0.64348 0.76302 0.0
C1509 C 0.332 0.624 0.757 0.0
C1510 C 0.25458 0.68713 0.75244 0.0
C1511 C 0.26856 0.71 0.76284 0.0
C1512 C 0.26527 0.66701 0.74787 0.0
C1513 C 0.29029 0.66936 0.75336 0.0
C1514 C 0.30422 0.69227 0.76389 0.0
C1515 C 0.29345 0.71233 0.76843 0.0
H1516 H 0.24558 0.61004 0.53985 0.0
H1517 H 0.22643 0.64018 0.47353 0.0
H1518 H 0.20385 0.58907 0.53999 0.0
H1519 H 0.18489 0.61783 0.47253 0.0
H1520 H 0.10917 0.6046 0.49497 0.0
H1521 H 0.15134 0.62064 0.49088 0.0
H1522 H 0.17028 0.5592 0.52564 0.0
H1523 H 0.1281 0.54433 0.53115 0.0
C1524 C 0.23253 0.61151 0.52485 0.0
C1525 C 0.23922 0.62688 0.50677 0.0
C1526 C 0.20849 0.59939 0.52485 0.0
C1527 C 0.19062 0.60191 0.50644 0.0
C1528 C 0.19781 0.616 0.48746 0.0
C1529 C 0.22173 0.6286 0.48782 0.0
C1530 C 0.12241 0.59455 0.50165 0.0
C1531 C 0.11547 0.57338 0.51352 0.0
C1532 C 0.14666 0.60358 0.49911 0.0
C1533 C 0.16455 0.5913 0.50789 0.0
C1534 C 0.15729 0.56956 0.51909 0.0
C1535 C 0.13306 0.56088 0.52212 0.0
H1536 H 0.66988 0.93433 0.81126 0.0
H1537 H 0.67281 0.92796 0.73412 0.0
H1538 H 0.69479 0.90342 0.81556 0.0
H1539 H 0.6971 0.89691 0.73838 0.0
H1540 H 0.71738 0.82354 0.75259 0.0
H1541 H 0.69069 0.85255 0.75197 0.0
H1542 H 0.73975 0.9012 0.80735 0.0
H1543 H 0.76688 0.87214 0.80774 0.0
C1544 C 0.67562 0.92617 0.79523 0.0
C1545 C 0.66935 0.93358 0.77235 0.0
C1546 C 0.68998 0.90862 0.79772 0.0
C1547 C 0.69784 0.89774 0.7773 0.0
C1548 C 0.69117 0.90484 0.75442 0.0
C1549 C 0.67731 0.92269 0.752 0.0
C1550 C 0.7224 0.84026 0.76487 0.0
C1551 C 0.7443 0.84561 0.78018 0.0
C1552 C 0.70713 0.85693 0.76441 0.0
C1553 C 0.71317 0.87919 0.77952 0.0
C1554 C 0.73459 0.88412 0.79558 0.0
C1555 C 0.75014 0.86757 0.79575 0.0
H1556 H 0.70788 0.95649 0.51492 0.0
H1557 H 0.71078 0.00339 0.58096 0.0
H1558 H 0.67652 0.97517 0.49585 0.0
H1559 H 0.67937 0.02164 0.56214 0.0
H1560 H 0.59646 0.98617 0.49215 0.0
H1561 H 0.63424 0.97309 0.50116 0.0
H1562 H 0.66856 0.0473 0.53125 0.0
H1563 H 0.63046 0.06022 0.52266 0.0
C1564 C 0.70197 0.9709 0.5253 0.0
C1565 C 0.71164 0.9783 0.54952 0.0
C1566 C 0.68401 0.98157 0.51438 0.0
C1567 C 0.67547 0.99991 0.52745 0.0
C1568 C 0.6858 0.00787 0.5514 0.0
C1569 C 0.70365 0.99719 0.5623 0.0
C1570 C 0.61226 0.99983 0.50006 0.0
C1571 C 0.61053 0.02411 0.50704 0.0
C1572 C 0.63395 0.99236 0.50516 0.0
C1573 C 0.6543 0.00907 0.51731 0.0
C1574 C 0.65305 0.0339 0.52231 0.0
C1575 C 0.63132 0.04135 0.51723 0.0
H1576 H 0.35773 0.47848 0.77208 0.0
H1577 H 0.3091 0.47696 0.70721 0.0
H1578 H 0.33903 0.43602 0.77633 0.0
H1579 H 0.29014 0.43396 0.71165 0.0
H1580 H 0.28675 0.34833 0.71652 0.0
H1581 H 0.30136 0.39166 0.71009 0.0
H1582 H 0.29987 0.41278 0.78583 0.0
H1583 H 0.28557 0.36989 0.79237 0.0
C1584 C 0.34294 0.46912 0.75873 0.0
C1585 C 0.33491 0.4812 0.7393 0.0
C1586 C 0.33213 0.44476 0.76127 0.0
C1587 C 0.31302 0.43165 0.74441 0.0
C1588 C 0.30491 0.44359 0.72488 0.0
C1589 C 0.31565 0.46822 0.72243 0.0
C1590 C 0.28938 0.36224 0.73176 0.0
C1591 C 0.2852 0.35552 0.75502 0.0
C1592 C 0.29761 0.38707 0.72803 0.0
C1593 C 0.30197 0.4056 0.7475 0.0
C1594 C 0.29705 0.3989 0.77053 0.0
C1595 C 0.28877 0.37424 0.77424 0.0
H1596 H 0.18916 0.55886 0.25338 0.0
H1597 H 0.16474 0.57754 0.32159 0.0
H1598 H 0.21273 0.60063 0.25437 0.0
H1599 H 0.18991 0.61885 0.3239 0.0
H1600 H 0.20794 0.69782 0.30508 0.0
H1601 H 0.1898 0.65505 0.30808 0.0
H1602 H 0.2443 0.63253 0.2683 0.0
H1603 H 0.26118 0.67576 0.26374 0.0
C1604 C 0.18945 0.5718 0.26896 0.0
C1605 C 0.17498 0.56512 0.28729 0.0
C1606 C 0.20312 0.59582 0.26966 0.0
C1607 C 0.20315 0.61356 0.28908 0.0
C1608 C 0.18981 0.60616 0.3082 0.0
C1609 C 0.17555 0.58237 0.30709 0.0
C1610 C 0.2161 0.68369 0.2971 0.0
C1611 C 0.23583 0.69001 0.28405 0.0
C1612 C 0.20584 0.65902 0.29902 0.0
C1613 C 0.21545 0.63995 0.28848 0.0
C1614 C 0.23594 0.64649 0.27622 0.0
C1615 C 0.24582 0.67127 0.27375 0.0
H1616 H 0.5676 0.75931 0.46205 0.0
H1617 H 0.51734 0.7183 0.40285 0.0
H1618 H 0.56388 0.72254 0.48358 0.0
H1619 H 0.51445 0.68113 0.42374 0.0
H1620 H 0.49743 0.62266 0.47482 0.0
H1621 H 0.49953 0.66081 0.45575 0.0
H1622 H 0.57475 0.68436 0.48439 0.0
H1623 H 0.57206 0.64655 0.50449 0.0
C1624 C 0.55581 0.74236 0.45358 0.0
C1625 C 0.54273 0.74173 0.43074 0.0
C1626 C 0.55382 0.72117 0.46585 0.0
C1627 C 0.53895 0.69865 0.45547 0.0
C1628 C 0.52577 0.69813 0.43262 0.0
C1629 C 0.5275 0.71945 0.4205 0.0
C1630 C 0.51436 0.63611 0.47713 0.0
C1631 C 0.5346 0.63168 0.49108 0.0
C1632 C 0.51566 0.65794 0.46602 0.0
C1633 C 0.53737 0.67578 0.46824 0.0
C1634 C 0.55759 0.67133 0.48248 0.0
C1635 C 0.55616 0.6496 0.49393 0.0
H1636 H 0.55948 0.26142 0.73952 0.0
H1637 H 0.58605 0.30732 0.68483 0.0
H1638 H 0.60056 0.26725 0.75961 0.0
H1639 H 0.62692 0.31261 0.70446 0.0
H1640 H 0.6782 0.2536 0.76515 0.0
H1641 H 0.63633 0.25318 0.75182 0.0
H1642 H 0.65606 0.32976 0.73851 0.0
H1643 H 0.69827 0.33002 0.7513 0.0
C1644 C 0.57399 0.27299 0.73193 0.0
C1645 C 0.56937 0.28374 0.71043 0.0
C1646 C 0.59761 0.27618 0.74334 0.0
C1647 C 0.61721 0.29024 0.73359 0.0
C1648 C 0.61238 0.30187 0.71271 0.0
C1649 C 0.58884 0.29868 0.70132 0.0
C1650 C 0.67369 0.27048 0.75962 0.0
C1651 C 0.69178 0.29182 0.75919 0.0
C1652 C 0.64952 0.27028 0.75212 0.0
C1653 C 0.64267 0.2914 0.74397 0.0
C1654 C 0.66066 0.31302 0.74433 0.0
C1655 C 0.6849 0.31323 0.75183 0.0
H1656 H 0.0424 0.3843 0.90172 0.0
H1657 H 0.01826 0.34966 0.96412 0.0
H1658 H 0.04109 0.42476 0.92182 0.0
H1659 H 0.01774 0.39004 0.98439 0.0
H1660 H 0.03912 0.47177 0.01843 0.0
H1661 H 0.04908 0.43484 0.99865 0.0
H1662 H 1.00019 0.43875 0.93567 0.0
H1663 H 0.98969 0.47517 0.95565 0.0
C1664 C 0.03746 0.38542 0.91994 0.0
C1665 C 0.03037 0.3639 0.93137 0.0
C1666 C 0.03661 0.40849 0.93135 0.0
C1667 C 0.02933 0.41041 0.95461 0.0
C1668 C 0.02358 0.38904 0.96653 0.0
C1669 C 0.02381 0.36597 0.95491 0.0
C1670 C 0.0307 0.46483 1.00028 0.0
C1671 C 0.01351 0.47612 0.98858 0.0
C1672 C 0.0364 0.44378 0.98901 0.0
C1673 C 0.02546 0.43411 0.96565 0.0
C1674 C 0.00902 0.44603 0.9536 0.0
C1675 C 1.00291 0.4667 0.96507 0.0
H1676 H 0.93254 0.79453 0.19733 0.0
H1677 H 0.92995 0.72797 0.23283 0.0
H1678 H 0.8968 0.80118 0.21519 0.0
H1679 H 0.89378 0.73396 0.24987 0.0
H1680 H 0.84498 0.76453 0.29811 0.0
H1681 H 0.88013 0.75783 0.2794 0.0
H1682 H 0.85482 0.78837 0.21528 0.0
H1683 H 0.82037 0.79632 0.23476 0.0
C1684 C 0.92422 0.78119 0.20877 0.0
C1685 C 0.93427 0.7608 0.21373 0.0
C1686 C 0.90356 0.7849 0.21893 0.0
C1687 C 0.89222 0.76819 0.23417 0.0
C1688 C 0.90213 0.74757 0.23872 0.0
C1689 C 0.92288 0.74402 0.22877 0.0
C1690 C 0.84693 0.76978 0.28 0.0
C1691 C 0.82974 0.78073 0.26785 0.0
C1692 C 0.86705 0.76576 0.26912 0.0
C1693 C 0.8705 0.77239 0.24564 0.0
C1694 C 0.85311 0.78326 0.23345 0.0
C1695 C 0.83311 0.78753 0.24449 0.0
H1696 H 0.55144 0.37151 0.04031 0.0
H1697 H 0.48652 0.36543 0.07525 0.0
H1698 H 0.54436 0.40896 0.02395 0.0
H1699 H 0.4796 0.40331 0.05892 0.0
H1700 H 0.46685 0.46196 0.00647 0.0
H1701 H 0.47075 0.42155 0.01932 0.0
H1702 H 0.54624 0.45098 0.04337 0.0
H1703 H 0.54241 0.49081 0.0302 0.0
C1704 C 0.53559 0.3781 0.04443 0.0
C1705 C 0.51965 0.36565 0.05927 0.0
C1706 C 0.53159 0.39959 0.0351 0.0
C1707 C 0.51156 0.40912 0.04036 0.0
C1708 C 0.49511 0.39625 0.05449 0.0
C1709 C 0.49916 0.3747 0.06393 0.0
C1710 C 0.48424 0.45957 0.01436 0.0
C1711 C 0.50431 0.47936 0.01754 0.0
C1712 C 0.48643 0.43662 0.02184 0.0
C1713 C 0.5088 0.43317 0.03225 0.0
C1714 C 0.52885 0.45302 0.03514 0.0
C1715 C 0.52661 0.47586 0.02783 0.0
H1716 H 0.95296 0.29835 0.40748 0.0
H1717 H 0.96882 0.23897 0.36166 0.0
H1718 H 0.91986 0.30121 0.37748 0.0
H1719 H 0.93534 0.24177 0.33171 0.0
H1720 H 0.85153 0.23824 0.30785 0.0
H1721 H 0.8884 0.23454 0.3323 0.0
H1722 H 0.91619 0.31289 0.333 0.0
H1723 H 0.87943 0.31657 0.30831 0.0
C1724 C 0.9493 0.28582 0.39107 0.0
C1725 C 0.96343 0.2684 0.38692 0.0
C1726 C 0.93053 0.28765 0.37383 0.0
C1727 C 0.92533 0.27187 0.35228 0.0
C1728 C 0.93914 0.25416 0.34822 0.0
C1729 C 0.95821 0.25258 0.36532 0.0
C1730 C 0.86577 0.25455 0.31284 0.0
C1731 C 0.86273 0.27771 0.30646 0.0
C1732 C 0.88681 0.25242 0.32671 0.0
C1733 C 0.90488 0.27349 0.33464 0.0
C1734 C 0.90232 0.29645 0.32723 0.0
C1735 C 0.88143 0.29852 0.31306 0.0
H1736 H 0.0276 0.74726 0.54702 0.0
H1737 H 0.9695 0.70972 0.58361 0.0
H1738 H 0.02756 0.70859 0.52332 0.0
H1739 H 0.96986 0.6712 0.56045 0.0
H1740 H 0.04572 0.62994 0.52491 0.0
H1741 H 0.0409 0.67186 0.53462 0.0
H1742 H 0.96349 0.64666 0.52205 0.0
H1743 H 0.96829 0.60461 0.51299 0.0
C1744 C 0.01455 0.73088 0.54972 0.0
C1745 C 0.9988 0.73148 0.56746 0.0
C1746 C 0.01462 0.70872 0.53622 0.0
C1747 C 0.99891 0.68678 0.54017 0.0
C1748 C 0.98206 0.68778 0.55674 0.0
C1749 C 0.98197 0.70989 0.5702 0.0
C1750 C 0.02769 0.63342 0.52368 0.0
C1751 C 0.00739 0.61392 0.51868 0.0
C1752 C 0.02491 0.6575 0.52912 0.0
C1753 C 1.00178 0.66252 0.52946 0.0
C1754 C 0.98153 0.64328 0.52246 0.0
C1755 C 0.9843 0.61921 0.51722 0.0
H1756 H 0.63093 0.77224 0.91454 0.0
H1757 H 0.5731 0.77358 0.8587 0.0
H1758 H 0.65611 0.76362 0.8834 0.0
H1759 H 0.598 0.76457 0.8279 0.0
H1760 H 0.66288 0.78524 0.78397 0.0
H1761 H 0.6339 0.78745 0.81276 0.0
H1762 H 0.65947 0.73147 0.85106 0.0
H1763 H 0.68876 0.72948 0.82224 0.0
C1764 C 0.62357 0.77062 0.8957 0.0
C1765 C 0.60012 0.77384 0.88912 0.0
C1766 C 0.63788 0.76543 0.87789 0.0
C1767 C 0.62897 0.76341 0.85324 0.0
C1768 C 0.60542 0.76628 0.84673 0.0
C1769 C 0.59118 0.77144 0.86445 0.0
C1770 C 0.66189 0.77299 0.79819 0.0
C1771 C 0.67801 0.75724 0.80098 0.0
C1772 C 0.64532 0.77425 0.81468 0.0
C1773 C 0.64463 0.75981 0.8343 0.0
C1774 C 0.65989 0.74306 0.83631 0.0
C1775 C 0.67642 0.74171 0.81969 0.0
H1776 H 0.39642 0.57091 0.65351 0.0
H1777 H 0.45036 0.55551 0.70668 0.0
H1778 H 0.42427 0.57116 0.62296 0.0
H1779 H 0.47805 0.55585 0.67621 0.0
H1780 H 0.50308 0.52263 0.6063 0.0
H1781 H 0.4794 0.52812 0.63951 0.0
H1782 H 0.46363 0.59405 0.61169 0.0
H1783 H 0.48726 0.58858 0.57839 0.0
C1784 C 0.41426 0.56785 0.65877 0.0
C1785 C 0.42105 0.56304 0.68255 0.0
C1786 C 0.43026 0.56812 0.64129 0.0
C1787 C 0.45333 0.5634 0.64716 0.0
C1788 C 0.46032 0.55926 0.67106 0.0
C1789 C 0.44444 0.55919 0.68855 0.0
C1790 C 0.49493 0.53854 0.60748 0.0
C1791 C 0.49714 0.55517 0.58969 0.0
C1792 C 0.48139 0.54172 0.62655 0.0
C1793 C 0.46951 0.56145 0.62814 0.0
C1794 C 0.47237 0.57854 0.61081 0.0
C1795 C 0.48615 0.57553 0.59188 0.0
H1796 H 0.82498 0.2218 0.93755 0.0
H1797 H 0.75396 0.23149 0.95006 0.0
H1798 H 0.82119 0.24053 0.8994 0.0
H1799 H 0.75019 0.25003 0.91206 0.0
H1800 H 0.74193 0.25925 0.83065 0.0
H1801 H 0.7463 0.23849 0.86753 0.0
H1802 H 0.81888 0.28162 0.88521 0.0
H1803 H 0.8145 0.30214 0.84833 0.0
C1804 C 0.8086 0.22796 0.93222 0.0
C1805 C 0.78983 0.22519 0.94698 0.0
C1806 C 0.80644 0.23874 0.91037 0.0
C1807 C 0.78533 0.2467 0.90256 0.0
C1808 C 0.76657 0.24384 0.91731 0.0
C1809 C 0.76884 0.23337 0.93925 0.0
C1810 C 0.75889 0.26402 0.84227 0.0
C1811 C 0.77789 0.28224 0.83656 0.0
C1812 C 0.76134 0.25232 0.86353 0.0
C1813 C 0.78296 0.2584 0.87941 0.0
C1814 C 0.80208 0.27631 0.87335 0.0
C1815 C 0.79951 0.28819 0.85229 0.0
H1816 H 0.05059 0.4993 0.22232 0.0
H1817 H 0.11212 0.48381 0.18997 0.0
H1818 H 0.03088 0.503 0.18226 0.0
H1819 H 0.09338 0.48889 0.15054 0.0
H1820 H 0.05269 0.48536 0.07844 0.0
H1821 H 0.0653 0.47426 0.1182 0.0
H1822 H 0.03067 0.52841 0.15111 0.0
H1823 H 0.01665 0.53811 0.11088 0.0
C1824 C 0.05986 0.49652 0.20668 0.0
C1825 C 0.08294 0.49113 0.20948 0.0
C1826 C 0.04866 0.49892 0.18364 0.0
C1827 C 0.06039 0.49634 0.16281 0.0
C1828 C 0.08329 0.49047 0.16577 0.0
C1829 C 0.09423 0.48768 0.18862 0.0
C1830 C 0.04751 0.49463 0.0942 0.0
C1831 C 0.03379 0.51268 0.09157 0.0
C1832 C 0.05496 0.48846 0.11714 0.0
C1833 C 0.04959 0.50074 0.13826 0.0
C1834 C 0.03508 0.51828 0.13548 0.0
C1835 C 0.02707 0.52398 0.11239 0.0
H1836 H 0.76742 0.84973 0.4968 0.0
H1837 H 0.75464 0.91636 0.46795 0.0
H1838 H 0.76655 0.83056 0.45595 0.0
H1839 H 0.75418 0.89711 0.42676 0.0
H1840 H 0.79457 0.86189 0.36666 0.0
H1841 H 0.78924 0.88184 0.40576 0.0
H1842 H 0.73576 0.81775 0.41672 0.0
H1843 H 0.74082 0.79791 0.37749 0.0
C1844 C 0.76425 0.86019 0.48167 0.0
C1845 C 0.76123 0.88454 0.48542 0.0
C1846 C 0.76362 0.84918 0.45834 0.0
C1847 C 0.76035 0.86244 0.43838 0.0
C1848 C 0.75681 0.88663 0.44201 0.0
C1849 C 0.75697 0.89754 0.46544 0.0
C1850 C 0.78168 0.85213 0.37745 0.0
C1851 C 0.76826 0.82834 0.36934 0.0
C1852 C 0.77846 0.86362 0.3996 0.0
C1853 C 0.76204 0.85129 0.41403 0.0
C1854 C 0.74853 0.82754 0.40583 0.0
C1855 C 0.75149 0.81622 0.38352 0.0
H1856 H 0.44562 0.53687 0.80972 0.0
H1857 H 0.40935 0.59604 0.82565 0.0
H1858 H 0.46468 0.54223 0.8509 0.0
H1859 H 0.42939 0.60211 0.86728 0.0
H1860 H 0.50963 0.5634 0.92024 0.0
H1861 H 0.49422 0.56807 0.87902 0.0
H1862 H 0.4285 0.58184 0.90405 0.0
H1863 H 0.44471 0.57842 0.94564 0.0
C1864 C 0.442 0.55136 0.82195 0.0
C1865 C 0.42591 0.566 0.81437 0.0
C1866 C 0.45317 0.5546 0.84564 0.0
C1867 C 0.4488 0.57277 0.86248 0.0
C1868 C 0.43303 0.58783 0.85483 0.0
C1869 C 0.42167 0.58446 0.83097 0.0
C1870 C 0.49207 0.56787 0.91695 0.0
C1871 C 0.47819 0.57024 0.93596 0.0
C1872 C 0.48314 0.57039 0.89332 0.0
C1873 C 0.45985 0.57475 0.88807 0.0
C1874 C 0.44653 0.57857 0.90739 0.0
C1875 C 0.45572 0.57649 0.93119 0.0
H1876 H 0.82817 0.19678 0.1042 0.0
H1877 H 0.78904 0.24475 0.06769 0.0
H1878 H 0.82245 0.21605 0.1431 0.0
H1879 H 0.7838 0.26451 0.10677 0.0
H1880 H 0.75222 0.27032 0.17985 0.0
H1881 H 0.76112 0.25564 0.14021 0.0
H1882 H 0.83246 0.25186 0.17129 0.0
H1883 H 0.82337 0.26594 0.21095 0.0
C1884 C 0.81873 0.21178 0.1044 0.0
C1885 C 0.80904 0.21908 0.08262 0.0
C1886 C 0.81549 0.22295 0.12684 0.0
C1887 C 0.80249 0.24183 0.12828 0.0
C1888 C 0.79355 0.24977 0.10649 0.0
C1889 C 0.79679 0.23858 0.084 0.0
C1890 C 0.76989 0.26658 0.17824 0.0
C1891 C 0.787 0.2693 0.19878 0.0
C1892 C 0.77507 0.25824 0.15538 0.0
C1893 C 0.79753 0.25239 0.15236 0.0
C1894 C 0.81483 0.25573 0.17284 0.0
C1895 C 0.80965 0.26401 0.19566 0.0
H1896 H 0.0426 0.5214 0.32731 0.0
H1897 H 0.10357 0.50237 0.3673 0.0
H1898 H 0.02474 0.5268 0.36451 0.0
H1899 H 0.08705 0.50986 0.40499 0.0
H1900 H 0.04418 0.50727 0.46922 0.0
H1901 H 0.0611 0.49923 0.43194 0.0
H1902 H 0.02412 0.55086 0.39834 0.0
H1903 H 1.00566 0.55689 0.43513 0.0
C1904 C 0.05224 0.51849 0.3442 0.0
C1905 C 0.07438 0.51129 0.34438 0.0
C1906 C 0.04217 0.52196 0.36574 0.0
C1907 C 0.05439 0.5192 0.3883 0.0
C1908 C 0.07661 0.5118 0.38827 0.0
C1909 C 0.08627 0.50755 0.36658 0.0
C1910 C 0.03976 0.51688 0.4538 0.0
C1911 C 0.02354 0.53264 0.45501 0.0
C1912 C 0.04961 0.51242 0.4323 0.0
C1913 C 0.04409 0.52418 0.41157 0.0
C1914 C 0.02842 0.54069 0.41333 0.0
C1915 C 0.018 0.54451 0.4346 0.0
H1916 H 0.72864 0.89624 0.63733 0.0
H1917 H 0.74507 0.84648 0.58119 0.0
H1918 H 0.72422 0.86312 0.664 0.0
H1919 H 0.74097 0.81378 0.60798 0.0
H1920 H 0.708 0.79569 0.70332 0.0
H1921 H 0.70029 0.81817 0.66864 0.0
H1922 H 0.77002 0.81392 0.64731 0.0
H1923 H 0.77806 0.79177 0.68224 0.0
C1924 C 0.73079 0.87818 0.6305 0.0
C1925 C 0.73759 0.87415 0.60731 0.0
C1926 C 0.72814 0.85921 0.6457 0.0
C1927 C 0.73246 0.83604 0.63798 0.0
C1928 C 0.73772 0.83155 0.61432 0.0
C1929 C 0.74006 0.85035 0.59905 0.0
C1930 C 0.72141 0.79878 0.69083 0.0
C1931 C 0.74382 0.79223 0.69566 0.0
C1932 C 0.71699 0.81181 0.67109 0.0
C1933 C 0.73467 0.81797 0.6556 0.0
C1934 C 0.75607 0.8093 0.65903 0.0
C1935 C 0.76068 0.79665 0.67901 0.0
H1936 H 0.65462 0.43525 0.51422 0.0
H1937 H 0.68242 0.47231 0.58516 0.0
H1938 H 0.62337 0.45921 0.51153 0.0
H1939 H 0.6507 0.49566 0.58294 0.0
H1940 H 0.60576 0.55208 0.56117 0.0
H1941 H 0.63695 0.52793 0.56499 0.0
H1942 H 0.58735 0.46502 0.52528 0.0
H1943 H 0.55685 0.48955 0.52052 0.0
C1944 C 0.65394 0.44835 0.52937 0.0
C1945 C 0.67114 0.45179 0.54989 0.0
C1946 C 0.63585 0.46206 0.52792 0.0
C1947 C 0.63425 0.47954 0.54703 0.0
C1948 C 0.6514 0.48278 0.56764 0.0
C1949 C 0.66958 0.46919 0.569 0.0
C1950 C 0.60153 0.53304 0.55341 0.0
C1951 C 0.57872 0.52275 0.5407 0.0
C1952 C 0.6194 0.51907 0.55568 0.0
C1953 C 0.61493 0.49435 0.54538 0.0
C1954 C 0.59184 0.48402 0.5331 0.0
C1955 C 0.57412 0.49804 0.53067 0.0
H1956 H 0.21188 0.07964 0.48402 0.0
H1957 H 0.18568 0.14441 0.46646 0.0
H1958 H 0.17096 0.05806 0.48772 0.0
H1959 H 0.14481 0.12306 0.47085 0.0
H1960 H 0.07098 0.07495 0.47243 0.0
H1961 H 0.10977 0.09012 0.45806 0.0
H1962 H 0.14566 0.06298 0.51887 0.0
H1963 H 0.10708 0.04735 0.53288 0.0
C1964 C 0.19732 0.08913 0.48054 0.0
C1965 C 0.20205 0.11385 0.47531 0.0
C1966 C 0.17389 0.07682 0.48283 0.0
C1967 C 0.1547 0.08902 0.48014 0.0
C1968 C 0.15916 0.11309 0.47299 0.0
C1969 C 0.18262 0.12536 0.4705 0.0
C1970 C 0.08714 0.07198 0.48259 0.0
C1971 C 0.08591 0.06001 0.50389 0.0
C1972 C 0.10937 0.08076 0.47437 0.0
C1973 C 0.13082 0.07774 0.48726 0.0
C1974 C 0.12948 0.06524 0.50822 0.0
C1975 C 0.10731 0.05645 0.51641 0.0
H1976 H 0.20351 0.93398 0.82065 0.0
H1977 H 0.23102 0.95251 0.75355 0.0
H1978 H 0.22224 0.89817 0.81997 0.0
H1979 H 0.24963 0.91688 0.75291 0.0
H1980 H 0.25604 0.83577 0.74603 0.0
H1981 H 0.23659 0.87106 0.74753 0.0
H1982 H 0.2634 0.88857 0.8233 0.0
H1983 H 0.2825 0.85307 0.82179 0.0
C1984 C 0.21364 0.93051 0.80585 0.0
C1985 C 0.21577 0.94615 0.78718 0.0
C1986 C 0.22441 0.91004 0.80548 0.0
C1987 C 0.23731 0.9046 0.7863 0.0
C1988 C 0.23955 0.92035 0.76776 0.0
C1989 C 0.22902 0.9409 0.76825 0.0
C1990 C 0.25751 0.84703 0.76302 0.0
C1991 C 0.27062 0.84165 0.7838 0.0
C1992 C 0.2466 0.86737 0.76385 0.0
C1993 C 0.24846 0.88265 0.78555 0.0
C1994 C 0.26144 0.87706 0.80638 0.0
C1995 C 0.27254 0.85687 0.80547 0.0
H1996 H 0.30924 0.90625 0.03164 0.0
H1997 H 0.28599 0.97496 0.04279 0.0
H1998 H 0.35016 0.92878 0.0303 0.0
H1999 H 0.32753 0.99773 0.04112 0.0
H2000 H 0.40038 0.02084 1.00378 0.0
H2001 H 0.35835 1.00231 0.00827 0.0
H2002 H 0.38278 0.95699 0.06069 0.0
H2003 H 0.42463 0.97563 0.05641 0.0
C2004 C 0.31281 0.92623 0.03375 0.0
C2005 C 0.29424 0.9388 0.0373 0.0
C2006 C 0.33637 0.93912 0.03313 0.0
C2007 C 0.34207 0.96498 0.03574 0.0
C2008 C 0.32358 0.97775 0.03903 0.0
C2009 C 0.29988 0.96475 0.04007 0.0
C2010 C 0.3967 0.00706 0.01639 0.0
C2011 C 0.41571 0.99949 0.02961 0.0
C2012 C 0.3727 0.99661 0.01907 0.0
C2013 C 0.36732 0.97817 0.03476 0.0
C2014 C 0.3864 0.97105 0.04834 0.0
C2015 C 0.41033 0.9817 0.0459 0.0
H2016 H 0.82643 0.61491 0.72447 0.0
H2017 H 0.88937 0.6661 0.76077 0.0
H2018 H 0.8029 0.64629 0.7281 0.0
H2019 H 0.86636 0.69844 0.76292 0.0
H2020 H 0.81297 0.74452 0.78525 0.0
H2021 H 0.83811 0.71442 0.78103 0.0
H2022 H 0.79314 0.68082 0.71505 0.0
H2023 H 0.76712 0.70986 0.72061 0.0
C2024 C 0.83535 0.63311 0.73289 0.0
C2025 C 0.85976 0.638 0.74234 0.0
C2026 C 0.82187 0.65134 0.7348 0.0
C2027 C 0.83252 0.67532 0.74565 0.0
C2028 C 0.85718 0.68024 0.75482 0.0
C2029 C 0.87053 0.66173 0.75345 0.0
C2030 C 0.80858 0.73069 0.76982 0.0
C2031 C 0.78798 0.72936 0.75336 0.0
C2032 C 0.82312 0.71343 0.76725 0.0
C2033 C 0.81778 0.69471 0.74778 0.0
C2034 C 0.79763 0.69426 0.73075 0.0
C2035 C 0.78276 0.71111 0.73372 0.0
H2036 H 0.83326 0.59618 0.98132 0.0
H2037 H 0.81523 0.58514 0.05364 0.0
H2038 H 0.86641 0.5748 0.9885 0.0
H2039 H 0.84872 0.56444 0.06088 0.0
H2040 H 0.93583 0.57172 0.06469 0.0
H2041 H 0.89742 0.58499 0.06022 0.0
H2042 H 0.87059 0.52819 1.00119 0.0
H2043 H 0.90863 0.51439 0.00607 0.0
C2044 C 0.83625 0.589 0.99861 0.0
C2045 C 0.82174 0.59229 0.01691 0.0
C2046 C 0.85507 0.57673 1.00266 0.0
C2047 C 0.85991 0.56808 0.02522 0.0
C2048 C 0.8452 0.57098 0.04337 0.0
C2049 C 0.82607 0.58274 0.03915 0.0
C2050 C 0.92145 0.56166 0.05125 0.0
C2051 C 0.92508 0.5421 0.03572 0.0
C2052 C 0.89959 0.56924 0.04869 0.0
C2053 C 0.88133 0.55764 0.03025 0.0
C2054 C 0.88455 0.53739 0.01544 0.0
C2055 C 0.9062 0.52946 0.01835 0.0
H2056 H 0.17547 0.09326 0.82064 0.0
H2057 H 0.23137 0.07123 0.78301 0.0
H2058 H 0.19255 0.13629 0.81631 0.0
H2059 H 0.24873 0.11444 0.77909 0.0
H2060 H 0.25053 0.1891 0.7474 0.0
H2061 H 0.2376 0.14636 0.75568 0.0
H2062 H 0.22635 0.17076 0.8281 0.0
H2063 H 0.23887 0.21357 0.81972 0.0
C2064 C 0.19167 0.09758 0.81182 0.0
C2065 C 0.20192 0.07867 0.80204 0.0
C2066 C 0.20154 0.12234 0.80941 0.0
C2067 C 0.22191 0.12887 0.79715 0.0
C2068 C 0.23278 0.11004 0.78828 0.0
C2069 C 0.22294 0.08526 0.79073 0.0
C2070 C 0.24539 0.1854 0.76514 0.0
C2071 C 0.24567 0.20486 0.78284 0.0
C2072 C 0.23814 0.16083 0.76995 0.0
C2073 C 0.23095 0.15505 0.79259 0.0
C2074 C 0.23152 0.17451 0.81039 0.0
C2075 C 0.2388 0.1991 0.80559 0.0
H2076 H 0.33558 0.01517 0.22556 0.0
H2077 H 0.38076 0.00442 0.28896 0.0
H2078 H 0.30876 0.97521 0.22836 0.0
H2079 H 0.35393 0.96487 0.29182 0.0
H2080 H 0.29008 0.90557 0.30297 0.0
H2081 H 0.31033 0.94821 0.29965 0.0
H2082 H 0.31439 0.92994 0.22385 0.0
H2083 H 0.2943 0.88719 0.22721 0.0
C2084 C 0.33965 0.00442 0.24019 0.0
C2085 C 0.36034 0.01287 0.25697 0.0
C2086 C 0.32436 0.98157 0.24173 0.0
C2087 C 0.32925 0.96706 0.26036 0.0
C2088 C 0.34959 0.97581 0.27744 0.0
C2089 C 0.36505 0.99837 0.27567 0.0
C2090 C 0.29494 0.91078 0.28552 0.0
C2091 C 0.29084 0.89314 0.26539 0.0
C2092 C 0.30659 0.93511 0.28365 0.0
C2093 C 0.31405 0.94227 0.26154 0.0
C2094 C 0.3087 0.92492 0.24107 0.0
C2095 C 0.29732 0.90049 0.24301 0.0
H2096 H 0.54349 0.33393 0.59987 0.0
H2097 H 0.47213 0.33399 0.61922 0.0
H2098 H 0.54251 0.3702 0.57829 0.0
H2099 H 0.47113 0.37039 0.59724 0.0
H2100 H 0.47295 0.42157 0.53365 0.0
H2101 H 0.47209 0.38325 0.55307 0.0
H2102 H 0.54214 0.41488 0.59215 0.0
H2103 H 0.54285 0.45303 0.5731 0.0
C2104 C 0.5275 0.34157 0.59939 0.0
C2105 C 0.50791 0.3311 0.61136 0.0
C2106 C 0.52701 0.36241 0.58708 0.0
C2107 C 0.50679 0.37315 0.58614 0.0
C2108 C 0.4869 0.36238 0.59756 0.0
C2109 C 0.48752 0.34165 0.61023 0.0
C2110 C 0.48817 0.42018 0.54629 0.0
C2111 C 0.50797 0.44018 0.55188 0.0
C2112 C 0.48761 0.39839 0.55751 0.0
C2113 C 0.50705 0.39611 0.57411 0.0
C2114 C 0.52699 0.41603 0.57931 0.0
C2115 C 0.52736 0.43788 0.56845 0.0
H2116 H 0.4499 0.77237 0.35002 0.0
H2117 H 0.46975 0.81819 0.29314 0.0
H2118 H 0.40739 0.7674 0.3348 0.0
H2119 H 0.42747 0.81261 0.27744 0.0
H2120 H 0.35122 0.82606 0.27644 0.0
H2121 H 0.3934 0.82675 0.28817 0.0
H2122 H 0.37477 0.75075 0.30373 0.0
H2123 H 0.33219 0.7503 0.2926 0.0
C2124 C 0.44523 0.78099 0.33399 0.0
C2125 C 0.46328 0.79584 0.32294 0.0
C2126 C 0.4208 0.77808 0.32517 0.0
C2127 C 0.4138 0.78983 0.30499 0.0
C2128 C 0.43201 0.80374 0.29334 0.0
C2129 C 0.45635 0.80679 0.30225 0.0
C2130 C 0.35601 0.80937 0.28215 0.0
C2131 C 0.33813 0.78812 0.28352 0.0
C2132 C 0.38038 0.80972 0.28878 0.0
C2133 C 0.38773 0.78879 0.29689 0.0
C2134 C 0.36987 0.76734 0.29786 0.0
C2135 C 0.34541 0.76701 0.29128 0.0
H2136 H 0.99644 0.67536 0.15666 0.0
H2137 H 0.99654 0.71396 0.09239 0.0
H2138 H 1.00301 0.63899 0.13303 0.0
H2139 H 1.00285 0.67754 0.06883 0.0
H2140 H 0.05224 0.59885 0.08876 0.0
H2141 H 0.03928 0.63153 0.11237 0.0
H2142 H 0.98345 0.63231 0.05446 0.0
H2143 H 0.99635 0.59939 0.0309 0.0
C2144 C 0.99735 0.67594 0.13742 0.0
C2145 C 0.99606 0.69763 0.12645 0.0
C2146 C 1.0013 0.65516 0.12394 0.0
C2147 C 1.00361 0.65547 0.09911 0.0
C2148 C 1.00103 0.67669 0.08789 0.0
C2149 C 0.99749 0.69758 0.10143 0.0
C2150 C 0.03714 0.60594 0.08114 0.0
C2151 C 0.02536 0.59668 0.05799 0.0
C2152 C 0.02959 0.6245 0.09472 0.0
C2153 C 0.01031 0.63447 0.08529 0.0
C2154 C 0.99841 0.62506 0.06215 0.0
C2155 C 1.00575 0.60621 0.04871 0.0
H2156 H 0.11189 0.30391 0.8526 0.0
H2157 H 0.07358 0.25218 0.79313 0.0
H2158 H 0.14971 0.30398 0.83568 0.0
H2159 H 0.11088 0.2532 0.77542 0.0
H2160 H 0.18254 0.23745 0.76124 0.0
H2161 H 0.14583 0.23889 0.77933 0.0
H2162 H 0.17501 0.31526 0.80623 0.0
H2163 H 0.21235 0.31315 0.78897 0.0
C2164 C 0.11149 0.29289 0.83566 0.0
C2165 C 0.08971 0.27792 0.82431 0.0
C2166 C 0.13323 0.29297 0.82584 0.0
C2167 C 0.13371 0.27834 0.8042 0.0
C2168 C 0.11163 0.26415 0.79246 0.0
C2169 C 0.09006 0.26374 0.80249 0.0
C2170 C 0.18111 0.25452 0.77111 0.0
C2171 C 0.2003 0.27517 0.77367 0.0
C2172 C 0.15989 0.25548 0.78134 0.0
C2173 C 0.15698 0.27733 0.79408 0.0
C2174 C 0.17645 0.29798 0.79684 0.0
C2175 C 0.1979 0.29685 0.78688 0.0
H2176 H 0.52207 0.7071 0.95447 0.0
H2177 H 0.56769 0.7401 0.02 0.0
H2178 H 0.51209 0.66817 0.97248 0.0
H2179 H 0.55688 0.7018 0.03845 0.0
H2180 H 0.56125 0.62358 0.05082 0.0
H2181 H 0.56699 0.66296 0.03394 0.0
H2182 H 0.49242 0.64555 1.00238 0.0
H2183 H 0.48705 0.60541 0.01876 0.0
C2184 C 0.52956 0.70614 0.97289 0.0
C2185 C 0.54591 0.72642 0.98576 0.0
C2186 C 0.52376 0.6839 0.98326 0.0
C2187 C 0.53398 0.68174 0.00679 0.0
C2188 C 0.54924 0.70258 0.02005 0.0
C2189 C 0.55533 0.72459 0.00955 0.0
C2190 C 0.54605 0.62825 0.0404 0.0
C2191 C 0.52371 0.6116 0.03607 0.0
C2192 C 0.54926 0.6509 0.03084 0.0
C2193 C 0.53008 0.65759 0.01703 0.0
C2194 C 0.50761 0.64088 0.01277 0.0
C2195 C 0.50449 0.61799 0.02217 0.0
H2196 H 0.05606 0.75998 0.68144 0.0
H2197 H 0.08682 0.8336 0.66498 0.0
H2198 H 0.09276 0.75949 0.70727 0.0
H2199 H 0.12313 0.83381 0.69196 0.0
H2200 H 0.19458 0.8106 0.71018 0.0
H2201 H 0.15633 0.81573 0.69051 0.0
H2202 H 0.11907 0.77366 0.74274 0.0
H2203 H 0.15759 0.76742 0.76156 0.0
C2204 C 0.0705 0.77629 0.68382 0.0
C2205 C 0.06877 0.79669 0.67097 0.0
C2206 C 0.09152 0.77611 0.69879 0.0
C2207 C 0.11109 0.79652 0.70156 0.0
C2208 C 0.1087 0.8175 0.68977 0.0
C2209 C 0.08786 0.81748 0.67442 0.0
C2210 C 0.17819 0.80259 0.71752 0.0
C2211 C 0.17889 0.78841 0.73716 0.0
C2212 C 0.15623 0.80573 0.7064 0.0
C2213 C 0.1345 0.79509 0.71498 0.0
C2214 C 0.13539 0.78172 0.73536 0.0
C2215 C 0.1574 0.77825 0.74623 0.0
H2216 H 1.0016 0.33327 0.51514 0.0
H2217 H 0.05492 0.36014 0.46825 0.0
H2218 H 1.00419 0.3753 0.53257 0.0
H2219 H 0.05705 0.40229 0.48525 0.0
H2220 H 0.06299 0.47607 0.52584 0.0
H2221 H 0.06698 0.43335 0.52 0.0
H2222 H 0.98965 0.40894 0.51566 0.0
H2223 H 0.98563 0.45142 0.522 0.0
C2224 C 0.01411 0.34814 0.50878 0.0
C2225 C 0.0278 0.3435 0.49007 0.0
C2226 C 0.01552 0.37221 0.51871 0.0
C2227 C 0.03052 0.39213 0.51002 0.0
C2228 C 0.04543 0.38732 0.49246 0.0
C2229 C 0.04413 0.36319 0.48262 0.0
C2230 C 0.04685 0.46158 0.52404 0.0
C2231 C 0.02393 0.46721 0.52407 0.0
C2232 C 0.04917 0.43711 0.52059 0.0
C2233 C 0.02865 0.41779 0.51718 0.0
C2234 C 0.00587 0.42337 0.5185 0.0
C2235 C 1.00354 0.4478 0.52195 0.0
H2236 H 0.44646 0.32654 0.14173 0.0
H2237 H 0.44961 0.25442 0.16392 0.0
H2238 H 0.41363 0.32828 0.16646 0.0
H2239 H 0.41736 0.25637 0.18868 0.0
H2240 H 0.34103 0.25553 0.20595 0.0
H2241 H 0.37416 0.25531 0.18175 0.0
H2242 H 0.40619 0.3306 0.21012 0.0
H2243 H 0.37262 0.33088 0.23424 0.0
C2244 C 0.44015 0.3111 0.15184 0.0
C2245 C 0.45051 0.2903 0.15077 0.0
C2246 C 0.42153 0.31218 0.16612 0.0
C2247 C 0.41292 0.29242 0.17943 0.0
C2248 C 0.42338 0.27172 0.17837 0.0
C2249 C 0.44194 0.27067 0.16421 0.0
C2250 C 0.35521 0.27199 0.2071 0.0
C2251 C 0.35439 0.2932 0.22195 0.0
C2252 C 0.3742 0.27185 0.19331 0.0
C2253 C 0.39276 0.29294 0.19407 0.0
C2254 C 0.39199 0.31418 0.20902 0.0
C2255 C 0.37295 0.31428 0.22295 0.0
H2256 H 0.62426 0.49425 0.3747 0.0
H2257 H 0.57639 0.53057 0.33327 0.0
H2258 H 0.59823 0.49203 0.40714 0.0
H2259 H 0.55005 0.52752 0.36494 0.0
H2260 H 0.53974 0.48068 0.45752 0.0
H2261 H 0.55964 0.47545 0.42114 0.0
H2262 H 0.55224 0.54809 0.40384 0.0
H2263 H 0.53194 0.5529 0.43933 0.0
C2264 C 0.60801 0.5014 0.37237 0.0
C2265 C 0.60261 0.51298 0.35163 0.0
C2266 C 0.59298 0.49997 0.39087 0.0
C2267 C 0.57214 0.50987 0.38884 0.0
C2268 C 0.56622 0.52025 0.36746 0.0
C2269 C 0.58132 0.52195 0.34922 0.0
C2270 C 0.54181 0.4952 0.44553 0.0
C2271 C 0.53428 0.51722 0.45135 0.0
C2272 C 0.5535 0.49235 0.42486 0.0
C2273 C 0.55772 0.51139 0.40956 0.0
C2274 C 0.54909 0.53286 0.41491 0.0
C2275 C 0.53752 0.5357 0.43544 0.0
H2276 H 0.25133 0.83354 0.08747 0.0
H2277 H 0.20237 0.87203 0.12016 0.0
H2278 H 0.25847 0.81485 0.12505 0.0
H2279 H 0.20896 0.85246 0.15758 0.0
H2280 H 0.20966 0.78135 0.20358 0.0
H2281 H 0.20183 0.80237 0.1675 0.0
H2282 H 0.27741 0.83623 0.17245 0.0
H2283 H 0.28515 0.81584 0.20916 0.0
C2284 C 0.24177 0.83773 0.10252 0.0
C2285 C 0.22613 0.85423 0.10067 0.0
C2286 C 0.24607 0.82717 0.12412 0.0
C2287 C 0.2344 0.83231 0.14427 0.0
C2288 C 0.21823 0.84822 0.14232 0.0
C2289 C 0.21442 0.85936 0.12088 0.0
C2290 C 0.22459 0.79342 0.19706 0.0
C2291 C 0.24805 0.79689 0.20913 0.0
C2292 C 0.22007 0.80552 0.17649 0.0
C2293 C 0.23901 0.82085 0.16711 0.0
C2294 C 0.26248 0.82444 0.17925 0.0
C2295 C 0.26691 0.81286 0.20026 0.0
H2296 H 0.95084 0.60543 0.84399 0.0
H2297 H 0.98775 0.54886 0.82123 0.0
H2298 H 0.96634 0.60345 0.88605 0.0
H2299 H 1.00271 0.54644 0.86311 0.0
H2300 H 0.0392 0.55702 0.93993 0.0
H2301 H 0.02879 0.56602 0.89858 0.0
H2302 H 0.95913 0.57534 0.91641 0.0
H2303 H 0.9697 0.56696 0.95774 0.0
C2304 C 0.96248 0.59278 0.8479 0.0
C2305 C 0.96796 0.57726 0.82917 0.0
C2306 C 0.97122 0.59147 0.87207 0.0
C2307 C 0.98567 0.57463 0.87814 0.0
C2308 C 0.99189 0.55984 0.85925 0.0
C2309 C 0.98317 0.56114 0.83514 0.0
C2310 C 0.02176 0.56126 0.93512 0.0
C2311 C 1.0053 0.56116 0.95227 0.0
C2312 C 0.01572 0.56628 0.91131 0.0
C2313 C 0.99304 0.57134 0.90399 0.0
C2314 C 0.97687 0.57188 0.92135 0.0
C2315 C 0.98291 0.56688 0.94512 0.0
H2316 H 0.301 0.17938 0.57547 0.0
H2317 H 0.26386 0.22975 0.54016 0.0
H2318 H 0.30114 0.20216 0.61438 0.0
H2319 H 0.26426 0.25276 0.57928 0.0
H2320 H 0.23636 0.25575 0.65571 0.0
H2321 H 0.24237 0.24179 0.61468 0.0
H2322 H 0.31663 0.24201 0.63919 0.0
H2323 H 0.31048 0.25564 0.68026 0.0
C2324 C 0.2932 0.19555 0.57597 0.0
C2325 C 0.28215 0.20259 0.55479 0.0
C2326 C 0.29345 0.20872 0.59825 0.0
C2327 C 0.28259 0.22914 0.59983 0.0
C2328 C 0.27253 0.23691 0.57855 0.0
C2329 C 0.27241 0.22381 0.55619 0.0
C2330 C 0.25401 0.25308 0.6522 0.0
C2331 C 0.27288 0.25644 0.67104 0.0
C2332 C 0.25752 0.24531 0.62873 0.0
C2333 C 0.27995 0.24074 0.62382 0.0
C2334 C 0.2991 0.24514 0.64256 0.0
C2335 C 0.29559 0.25296 0.66599 0.0
H2336 H 0.64292 0.4952 0.2015 0.0
H2337 H 0.58445 0.50334 0.24283 0.0
H2338 H 0.61722 0.49629 0.16423 0.0
H2339 H 0.55866 0.50392 0.20552 0.0
H2340 H 0.53794 0.54518 0.14028 0.0
H2341 H 0.55847 0.5349 0.17723 0.0
H2342 H 0.58145 0.47673 0.13621 0.0
H2343 H 0.5611 0.48741 0.09905 0.0
C2344 C 0.62444 0.49667 0.20263 0.0
C2345 C 0.61588 0.49957 0.22519 0.0
C2346 C 0.60966 0.49718 0.18122 0.0
C2347 C 0.58599 0.50053 0.18194 0.0
C2348 C 0.57697 0.50182 0.2044 0.0
C2349 C 0.59174 0.50136 0.22578 0.0
C2350 C 0.54713 0.53001 0.13922 0.0
C2351 C 0.54809 0.51718 0.11687 0.0
C2352 C 0.55876 0.52398 0.1604 0.0
C2353 C 0.57162 0.50498 0.15967 0.0
C2354 C 0.57191 0.49162 0.13733 0.0
C2355 C 0.5602 0.49764 0.11611 0.0
H2356 H 0.20891 0.85826 0.94495 0.0
H2357 H 0.25262 0.81165 0.97683 0.0
H2358 H 0.21402 0.84133 0.90461 0.0
H2359 H 0.25695 0.79397 0.93674 0.0
H2360 H 0.28635 0.79056 0.86408 0.0
H2361 H 0.27782 0.80446 0.90388 0.0
H2362 H 0.20596 0.80795 0.87402 0.0
H2363 H 0.2149 0.79485 0.83384 0.0
C2364 C 0.21918 0.84401 0.94336 0.0
C2365 C 0.23046 0.83645 0.96418 0.0
C2366 C 0.2221 0.8342 0.92017 0.0
C2367 C 0.2362 0.81639 0.91716 0.0
C2368 C 0.2465 0.80808 0.93811 0.0
C2369 C 0.24381 0.81807 0.96122 0.0
C2370 C 0.26864 0.79409 0.86594 0.0
C2371 C 0.25133 0.79147 0.8456 0.0
C2372 C 0.26365 0.80198 0.88894 0.0
C2373 C 0.24109 0.8073 0.89248 0.0
C2374 C 0.22364 0.80438 0.87214 0.0
C2375 C 0.22871 0.79665 0.84903 0.0
H2376 H 0.9167 0.56208 0.66775 0.0
H2377 H 0.98575 0.59274 0.70902 0.0
H2378 H 0.93638 0.55497 0.63208 0.0
H2379 H 1.0056 0.58759 0.67298 0.0
H2380 H 0.03901 0.55521 0.61217 0.0
H2381 H 0.01836 0.56106 0.64744 0.0
H2382 H 0.95562 0.5685 0.60059 0.0
H2383 H 0.97594 0.56056 0.56541 0.0
C2384 C 0.93613 0.56785 0.66903 0.0
C2385 C 0.94966 0.57796 0.69125 0.0
C2386 C 0.94753 0.56388 0.64844 0.0
C2387 C 0.97283 0.57049 0.64925 0.0
C2388 C 0.98622 0.58146 0.67145 0.0
C2389 C 0.97483 0.58476 0.6922 0.0
C2390 C 0.02068 0.55782 0.6095 0.0
C2391 C 0.00905 0.55731 0.58606 0.0
C2392 C 0.00884 0.56156 0.6298 0.0
C2393 C 0.98518 0.56566 0.62731 0.0
C2394 C 0.97358 0.56503 0.60361 0.0
C2395 C 0.98526 0.5606 0.58328 0.0
H2396 H 0.30316 0.24309 0.45563 0.0
H2397 H 0.2938 0.17879 0.40462 0.0
H2398 H 0.31766 0.26951 0.42499 0.0
H2399 H 0.30669 0.20519 0.37319 0.0
H2400 H 0.28845 0.30175 0.35693 0.0
H2401 H 0.29474 0.28105 0.39273 0.0
H2402 H 0.33358 0.23462 0.35414 0.0
H2403 H 0.32651 0.25523 0.31775 0.0
C2404 C 0.30461 0.23467 0.43784 0.0
C2405 C 0.29718 0.20909 0.43222 0.0
C2406 C 0.31277 0.24975 0.42025 0.0
C2407 C 0.31278 0.23961 0.3964 0.0
C2408 C 0.3071 0.21371 0.39136 0.0
C2409 C 0.29954 0.19853 0.40926 0.0
C2410 C 0.29904 0.28769 0.3563 0.0
C2411 C 0.30671 0.2799 0.33453 0.0
C2412 C 0.30281 0.27581 0.37694 0.0
C2413 C 0.31441 0.25582 0.37632 0.0
C2414 C 0.32422 0.24965 0.35513 0.0
C2415 C 0.32046 0.26168 0.33437 0.0
H2416 H 0.35341 0.59586 0.54999 0.0
H2417 H 0.38567 0.64483 0.50023 0.0
H2418 H 0.38401 0.57157 0.54596 0.0
H2419 H 0.41658 0.62044 0.49635 0.0
H2420 H 0.48187 0.58379 0.52071 0.0
H2421 H 0.45186 0.60936 0.5222 0.0
H2422 H 0.39525 0.54362 0.51376 0.0
H2423 H 0.42523 0.51818 0.51166 0.0
C2424 C 0.36707 0.60152 0.53821 0.0
C2425 C 0.36699 0.62233 0.5254 0.0
C2426 C 0.38457 0.58746 0.5358 0.0
C2427 C 0.40271 0.59394 0.52073 0.0
C2428 C 0.40293 0.61499 0.50818 0.0
C2429 C 0.38515 0.62891 0.51033 0.0
C2430 C 0.46304 0.57482 0.51849 0.0
C2431 C 0.45598 0.54893 0.5156 0.0
C2432 C 0.4458 0.58948 0.51952 0.0
C2433 C 0.42111 0.57857 0.51814 0.0
C2434 C 0.4141 0.55266 0.51509 0.0
C2435 C 0.43129 0.53807 0.51376 0.0
H2436 H 0.84731 0.93391 0.57281 0.0
H2437 H 0.82737 0.00402 0.58645 0.0
H2438 H 0.88894 0.95505 0.57203 0.0
H2439 H 0.86935 0.02533 0.58548 0.0
H2440 H 0.93346 0.04382 0.53652 0.0
H2441 H 0.89405 0.02822 0.54936 0.0
H2442 H 0.92531 0.9827 0.59707 0.0
H2443 H 0.96477 0.99818 0.58426 0.0
C2444 C 0.85195 0.95386 0.57607 0.0
C2445 C 0.83414 0.96738 0.57948 0.0
C2446 C 0.87581 0.96594 0.5758 0.0
C2447 C 0.88229 0.9918 0.57862 0.0
C2448 C 0.86472 0.00535 0.58317 0.0
C2449 C 0.84081 0.99319 0.58384 0.0
C2450 C 0.93201 0.03074 0.54999 0.0
C2451 C 0.95216 0.02199 0.55914 0.0
C2452 C 0.90949 0.02202 0.55752 0.0
C2453 C 0.90669 0.00425 0.57415 0.0
C2454 C 0.92702 0.99634 0.58413 0.0
C2455 C 0.94958 0.00522 0.57679 0.0
H2456 H 0.82341 0.12668 0.20241 0.0
H2457 H 0.83264 0.11865 0.27877 0.0
H2458 H 0.80435 0.16111 0.21017 0.0
H2459 H 0.81176 0.15204 0.2867 0.0
H2460 H 0.78869 0.22588 0.29585 0.0
H2461 H 0.81083 0.19321 0.28954 0.0
H2462 H 0.7697 0.17131 0.21904 0.0
H2463 H 0.75003 0.20555 0.22448 0.0
C2464 C 0.82103 0.13214 0.2209 0.0
C2465 C 0.82939 0.11989 0.23995 0.0
C2466 C 0.80983 0.15181 0.22542 0.0
C2467 C 0.80591 0.15938 0.2491 0.0
C2468 C 0.81457 0.14715 0.26824 0.0
C2469 C 0.82643 0.12784 0.26372 0.0
C2470 C 0.78514 0.21456 0.27873 0.0
C2471 C 0.76847 0.21899 0.26028 0.0
C2472 C 0.79738 0.19536 0.27526 0.0
C2473 C 0.79259 0.17961 0.25349 0.0
C2474 C 0.7748 0.18342 0.23566 0.0
C2475 C 0.76314 0.20293 0.23892 0.0
H2476 H 0.74526 0.10839 0.04356 0.0
H2477 H 0.72591 0.13346 0.97455 0.0
H2478 H 0.70354 0.08755 0.04449 0.0
H2479 H 0.68443 0.11138 0.97456 0.0
H2480 H 0.60877 0.1004 0.99708 0.0
H2481 H 0.65099 0.11601 0.99278 0.0
H2482 H 0.66994 0.05671 0.03112 0.0
H2483 H 0.62767 0.04216 0.0366 0.0
C2484 C 0.7322 0.10876 0.0282 0.0
C2485 C 0.73883 0.1227 0.00907 0.0
C2486 C 0.70817 0.09675 0.02867 0.0
C2487 C 0.69026 0.098 0.00977 0.0
C2488 C 0.6974 0.11058 0.98985 0.0
C2489 C 0.72129 0.12302 0.98965 0.0
C2490 C 0.622 0.0907 1.0045 0.0
C2491 C 0.61501 0.07019 0.01729 0.0
C2492 C 0.64628 0.09948 1.00185 0.0
C2493 C 0.66418 0.08767 0.01153 0.0
C2494 C 0.65691 0.06666 0.02379 0.0
C2495 C 0.63264 0.05816 0.02681 0.0
H2496 H 0.16107 0.41506 0.2915 0.0
H2497 H 0.20369 0.45302 0.24061 0.0
H2498 H 0.18589 0.38401 0.29179 0.0
H2499 H 0.22889 0.42298 0.24162 0.0
H2500 H 0.25685 0.35473 0.22804 0.0
H2501 H 0.22928 0.38257 0.22815 0.0
H2502 H 0.22439 0.3756 0.30421 0.0
H2503 H 0.25143 0.34663 0.30361 0.0
C2504 C 0.17578 0.41685 0.28048 0.0
C2505 C 0.18023 0.43644 0.26587 0.0
C2506 C 0.19014 0.39912 0.28074 0.0
C2507 C 0.20938 0.40069 0.26655 0.0
C2508 C 0.21392 0.42059 0.25231 0.0
C2509 C 0.1995 0.43804 0.25186 0.0
C2510 C 0.24988 0.35913 0.2448 0.0
C2511 C 0.2564 0.34862 0.26586 0.0
C2512 C 0.23411 0.37526 0.24494 0.0
C2513 C 0.22478 0.38186 0.26631 0.0
C2514 C 0.23099 0.37091 0.28735 0.0
C2515 C 0.24656 0.35436 0.28708 0.0
H2516 H 0.2029 0.45219 0.00806 0.0
H2517 H 0.20962 0.49901 0.07487 0.0
H2518 H 0.17375 0.474 0.98972 0.0
H2519 H 0.18027 0.5202 0.05691 0.0
H2520 H 0.13292 0.56191 0.02148 0.0
H2521 H 0.17022 0.54704 0.02771 0.0
H2522 H 0.13255 0.47468 0.99515 0.0
H2523 H 0.09569 0.4898 0.98824 0.0
C2524 C 0.19831 0.46724 0.01875 0.0
C2525 C 0.20832 0.47369 0.043 0.0
C2526 C 0.18162 0.47971 0.00826 0.0
C2527 C 0.17466 0.49884 0.02183 0.0
C2528 C 0.1855 0.50588 0.04575 0.0
C2529 C 0.20215 0.49349 0.05618 0.0
C2530 C 0.1329 0.54307 0.01498 0.0
C2531 C 0.11145 0.52687 1.00475 0.0
C2532 C 0.15417 0.53449 0.01869 0.0
C2533 C 0.15423 0.50953 0.01243 0.0
C2534 C 0.13321 0.49401 1.00012 0.0
C2535 C 0.11202 0.50264 0.99626 0.0
H2536 H 0.85879 0.98655 0.27912 0.0
H2537 H 0.80982 0.98823 0.21535 0.0
H2538 H 0.83792 0.94471 0.28333 0.0
H2539 H 0.78876 0.94593 0.21968 0.0
H2540 H 0.78298 0.85981 0.22162 0.0
H2541 H 0.79814 0.90326 0.21654 0.0
H2542 H 0.79838 0.922 0.29302 0.0
H2543 H 0.78339 0.87873 0.29824 0.0
C2544 C 0.84348 0.97804 0.26601 0.0
C2545 C 0.83603 0.99079 0.24685 0.0
C2546 C 0.83139 0.95405 0.26856 0.0
C2547 C 0.81161 0.94201 0.25192 0.0
C2548 C 0.80402 0.95471 0.23274 0.0
C2549 C 0.816 0.97894 0.23033 0.0
C2550 C 0.78597 0.87321 0.23733 0.0
C2551 C 0.78217 0.86564 0.26039 0.0
C2552 C 0.79455 0.89814 0.23436 0.0
C2553 C 0.79968 0.91604 0.25441 0.0
C2554 C 0.79493 0.9086 0.27727 0.0
C2555 C 0.78621 0.88376 0.28022 0.0
H2556 H 0.66328 0.07617 0.82026 0.0
H2557 H 0.68248 0.0568 0.74967 0.0
H2558 H 0.68975 0.1167 0.82184 0.0
H2559 H 0.70757 0.09792 0.75021 0.0
H2560 H 0.75948 0.17156 0.75958 0.0
H2561 H 0.7412 0.12855 0.76387 0.0
H2562 H 0.68929 0.15313 0.80591 0.0
H2563 H 0.7086 0.19558 0.80291 0.0
C2564 C 0.67321 0.08067 0.80507 0.0
C2565 C 0.67074 0.06347 0.78479 0.0
C2566 C 0.68825 0.104 0.80581 0.0
C2567 C 0.70055 0.11101 0.78593 0.0
C2568 C 0.69871 0.09331 0.76602 0.0
C2569 C 0.68419 0.06971 0.7656 0.0
C2570 C 0.74439 0.16757 0.77002 0.0
C2571 C 0.73542 0.18679 0.7809 0.0
C2572 C 0.73374 0.14294 0.77234 0.0
C2573 C 0.7136 0.1371 0.78521 0.0
C2574 C 0.70504 0.15661 0.79636 0.0
C2575 C 0.71598 0.18109 0.79445 0.0
loop_
_geom_bond_atom_site_label_1
_geom_bond_atom_site_label_2
_geom_bond_distance
_geom_bond_site_symmetry_2
_ccdc_geom_bond_type
O0 Cd1 2.223 . S
O0 C8 1.315 . S
Cd1 O0 2.223 . S
Cd1 O4 2.297 . S
Cd1 O5 2.439 . S
Cd1 O11 2.240 1_455 S
Cd2 O3 2.240 . S
Cd2 O10 2.223 1_455 S
Cd2 O12 2.299 1_455 S
Cd2 O13 2.439 . S
O3 Cd2 2.240 . S
O3 C8 1.279 . S
O4 Cd1 2.297 . S
O4 C6 1.247 . S
O5 Cd1 2.439 . S
O5 C6 1.208 . S
C6 O4 1.247 . S
C6 O5 1.208 . S
C7 O12 1.250 1_455 S
C7 O13 1.208 . S
C8 O0 1.315 . S
C8 O3 1.279 . S
C9 O10 1.315 . S
C9 O11 1.279 . S
O10 Cd2 2.223 1_655 S
O10 C9 1.315 . S
O11 Cd1 2.240 1_655 S
O11 C9 1.279 . S
O12 Cd2 2.299 1_655 S
O12 C7 1.250 1_655 S
O13 Cd2 2.439 . S
O13 C7 1.208 . S
O14 Cd15 2.227 . S
O14 C22 1.316 . S
Cd15 O14 2.227 . S
Cd15 O18 2.297 . S
Cd15 O19 2.439 . S
Cd15 O25 2.240 1_655 S
Cd16 O17 2.240 1_455 S
Cd16 O24 2.223 . S
Cd16 O26 2.297 . S
Cd16 O27 2.426 1_455 S
O17 Cd16 2.240 1_655 S
O17 C22 1.279 . S
O18 Cd15 2.297 . S
O18 C20 1.247 . S
O19 Cd15 2.439 . S
O19 C20 1.208 . S
C20 O18 1.247 . S
C20 O19 1.208 . S
C21 O26 1.247 . S
C21 O27 1.193 1_455 S
C22 O14 1.316 . S
C22 O17 1.279 . S
C23 O24 1.315 . S
C23 O25 1.279 . S
O24 Cd16 2.223 . S
O24 C23 1.315 . S
O25 Cd15 2.240 1_455 S
O25 C23 1.279 . S
O26 Cd16 2.297 . S
O26 C21 1.247 . S
O27 Cd16 2.426 1_655 S
O27 C21 1.193 1_655 S
O28 Cd29 2.223 . S
O28 C36 1.315 . S
Cd29 O28 2.223 . S
Cd29 O32 2.297 . S
Cd29 O33 2.439 . S
Cd29 O39 2.240 . S
Cd30 O31 2.240 . S
Cd30 O38 2.223 . S
Cd30 O40 2.297 . S
Cd30 O41 2.439 . S
O31 Cd30 2.240 . S
O31 C36 1.279 . S
O32 Cd29 2.297 . S
O32 C34 1.247 . S
O33 Cd29 2.439 . S
O33 C34 1.208 . S
C34 O32 1.247 . S
C34 O33 1.208 . S
C35 O40 1.247 . S
C35 O41 1.208 . S
C36 O28 1.315 . S
C36 O31 1.279 . S
C37 O38 1.315 . S
C37 O39 1.279 . S
O38 Cd30 2.223 . S
O38 C37 1.315 . S
O39 Cd29 2.240 . S
O39 C37 1.279 . S
O40 Cd30 2.297 . S
O40 C35 1.247 . S
O41 Cd30 2.439 . S
O41 C35 1.208 . S
O42 Cd43 2.223 . S
O42 C50 1.315 . S
Cd43 O42 2.223 . S
Cd43 O46 2.297 . S
Cd43 O47 2.439 . S
Cd43 O53 2.240 . S
Cd44 O45 2.240 . S
Cd44 O52 2.223 . S
Cd44 O54 2.297 . S
Cd44 O55 2.439 . S
O45 Cd44 2.240 . S
O45 C50 1.279 . S
O46 Cd43 2.297 . S
O46 C48 1.247 . S
O47 Cd43 2.439 . S
O47 C48 1.208 . S
C48 O46 1.247 . S
C48 O47 1.208 . S
C49 O54 1.247 . S
C49 O55 1.208 . S
C50 O42 1.315 . S
C50 O45 1.279 . S
C51 O52 1.315 . S
C51 O53 1.279 . S
O52 Cd44 2.223 . S
O52 C51 1.315 . S
O53 Cd43 2.240 . S
O53 C51 1.279 . S
O54 Cd44 2.297 . S
O54 C49 1.247 . S
O55 Cd44 2.439 . S
O55 C49 1.208 . S
O56 Cd57 2.223 . S
O56 C64 1.315 . S
Cd57 O56 2.223 . S
Cd57 O60 2.297 1_455 S
Cd57 O61 2.439 1_455 S
Cd57 O67 2.240 . S
Cd58 O59 2.240 1_455 S
Cd58 O66 2.223 . S
Cd58 O68 2.297 . S
Cd58 O69 2.439 . S
O59 Cd58 2.240 1_655 S
O59 C64 1.279 1_655 S
O60 Cd57 2.297 1_655 S
O60 C62 1.247 . S
O61 Cd57 2.439 1_655 S
O61 C62 1.208 . S
C62 O60 1.247 . S
C62 O61 1.208 . S
C63 O68 1.247 . S
C63 O69 1.208 . S
C64 O56 1.315 . S
C64 O59 1.279 1_455 S
C65 O66 1.315 . S
C65 O67 1.279 . S
O66 Cd58 2.223 . S
O66 C65 1.315 . S
O67 Cd57 2.240 . S
O67 C65 1.279 . S
O68 Cd58 2.297 . S
O68 C63 1.247 . S
O69 Cd58 2.439 . S
O69 C63 1.208 . S
O70 Cd71 2.223 . S
O70 C78 1.315 . S
Cd71 O70 2.223 . S
Cd71 O74 2.297 . S
Cd71 O75 2.439 . S
Cd71 O81 2.240 . S
Cd72 O73 2.240 . S
Cd72 O80 2.223 . S
Cd72 O82 2.297 . S
Cd72 O83 2.439 . S
O73 Cd72 2.240 . S
O73 C78 1.279 . S
O74 Cd71 2.297 . S
O74 C76 1.247 . S
O75 Cd71 2.439 . S
O75 C76 1.208 . S
C76 O74 1.247 . S
C76 O75 1.208 . S
C77 O82 1.247 . S
C77 O83 1.208 . S
C78 O70 1.315 . S
C78 O73 1.279 . S
C79 O80 1.315 . S
C79 O81 1.279 . S
O80 Cd72 2.223 . S
O80 C79 1.315 . S
O81 Cd71 2.240 . S
O81 C79 1.279 . S
O82 Cd72 2.297 . S
O82 C77 1.247 . S
O83 Cd72 2.439 . S
O83 C77 1.208 . S
O84 Cd85 2.223 . S
O84 C92 1.315 . S
Cd85 O84 2.223 . S
Cd85 O88 2.297 . S
Cd85 O89 2.439 . S
Cd85 O95 2.240 . S
Cd86 O87 2.240 . S
Cd86 O94 2.223 . S
Cd86 O96 2.297 . S
Cd86 O97 2.439 . S
O87 Cd86 2.240 . S
O87 C92 1.279 . S
O88 Cd85 2.297 . S
O88 C90 1.247 . S
O89 Cd85 2.439 . S
O89 C90 1.208 . S
C90 O88 1.247 . S
C90 O89 1.208 . S
C91 O96 1.247 . S
C91 O97 1.208 . S
C92 O84 1.315 . S
C92 O87 1.279 . S
C93 O94 1.315 . S
C93 O95 1.279 . S
O94 Cd86 2.223 . S
O94 C93 1.315 . S
O95 Cd85 2.240 . S
O95 C93 1.279 . S
O96 Cd86 2.297 . S
O96 C91 1.247 . S
O97 Cd86 2.439 . S
O97 C91 1.208 . S
O98 Cd99 2.223 . S
O98 C106 1.315 . S
Cd99 O98 2.223 . S
Cd99 O102 2.297 . S
Cd99 O103 2.439 . S
Cd99 O109 2.240 1_455 S
Cd100 O101 2.240 . S
Cd100 O108 2.223 1_455 S
Cd100 O110 2.297 1_455 S
Cd100 O111 2.439 . S
O101 Cd100 2.240 . S
O101 C106 1.279 . S
O102 Cd99 2.297 . S
O102 C104 1.247 . S
O103 Cd99 2.439 . S
O103 C104 1.208 . S
C104 O102 1.247 . S
C104 O103 1.208 . S
C105 O110 1.247 1_455 S
C105 O111 1.208 . S
C106 O98 1.315 . S
C106 O101 1.279 . S
C107 O108 1.315 . S
C107 O109 1.279 . S
O108 Cd100 2.223 1_655 S
O108 C107 1.315 . S
O109 Cd99 2.240 1_655 S
O109 C107 1.279 . S
O110 Cd100 2.297 1_655 S
O110 C105 1.247 1_655 S
O111 Cd100 2.439 . S
O111 C105 1.208 . S
O112 Cd113 2.223 . S
O112 C120 1.315 . S
Cd113 O112 2.223 . S
Cd113 O116 2.297 . S
Cd113 O117 2.439 . S
Cd113 O123 2.240 . S
Cd114 O115 2.240 . S
Cd114 O122 2.223 . S
Cd114 O124 2.297 . S
Cd114 O125 2.439 . S
O115 Cd114 2.240 . S
O115 C120 1.279 . S
O116 Cd113 2.297 . S
O116 C118 1.247 . S
O117 Cd113 2.439 . S
O117 C118 1.208 . S
C118 O116 1.247 . S
C118 O117 1.208 . S
C119 O124 1.247 . S
C119 O125 1.208 . S
C120 O112 1.315 . S
C120 O115 1.279 . S
C121 O122 1.315 . S
C121 O123 1.279 . S
O122 Cd114 2.223 . S
O122 C121 1.315 . S
O123 Cd113 2.240 . S
O123 C121 1.279 . S
O124 Cd114 2.297 . S
O124 C119 1.247 . S
O125 Cd114 2.439 . S
O125 C119 1.208 . S
O126 Cd127 2.223 . S
O126 C134 1.315 . S
Cd127 O126 2.223 . S
Cd127 O130 2.297 . S
Cd127 O131 2.439 . S
Cd127 O137 2.240 . S
Cd128 O129 2.240 . S
Cd128 O136 2.223 . S
Cd128 O138 2.297 . S
Cd128 O139 2.439 . S
O129 Cd128 2.240 . S
O129 C134 1.279 . S
O130 Cd127 2.297 . S
O130 C132 1.247 . S
O131 Cd127 2.439 . S
O131 C132 1.208 . S
C132 O130 1.247 . S
C132 O131 1.208 . S
C133 O138 1.247 . S
C133 O139 1.208 . S
C134 O126 1.315 . S
C134 O129 1.279 . S
C135 O136 1.315 . S
C135 O137 1.279 . S
O136 Cd128 2.223 . S
O136 C135 1.315 . S
O137 Cd127 2.240 . S
O137 C135 1.279 . S
O138 Cd128 2.297 . S
O138 C133 1.247 . S
O139 Cd128 2.439 . S
O139 C133 1.208 . S
O140 Cd141 2.223 1_545 S
O140 C148 1.316 1_545 S
Cd141 O140 2.223 1_565 S
Cd141 O144 2.297 . S
Cd141 O145 2.439 . S
Cd141 O151 2.240 1_565 S
Cd142 O143 2.240 1_545 S
Cd142 O150 2.223 . S
Cd142 O152 2.297 . S
Cd142 O153 2.439 1_545 S
O143 Cd142 2.240 1_565 S
O143 C148 1.298 . S
O144 Cd141 2.297 . S
O144 C146 1.247 . S
O145 Cd141 2.439 . S
O145 C146 1.208 . S
C146 O144 1.247 . S
C146 O145 1.208 . S
C147 O152 1.247 . S
C147 O153 1.208 1_545 S
C148 O140 1.316 1_565 S
C148 O143 1.298 . S
C149 O150 1.315 . S
C149 O151 1.279 . S
O150 Cd142 2.223 . S
O150 C149 1.315 . S
O151 Cd141 2.240 1_545 S
O151 C149 1.279 . S
O152 Cd142 2.297 . S
O152 C147 1.247 . S
O153 Cd142 2.439 1_565 S
O153 C147 1.208 1_565 S
O154 Cd155 2.223 . S
O154 C162 1.315 . S
Cd155 O154 2.223 . S
Cd155 O158 2.297 . S
Cd155 O159 2.439 . S
Cd155 O165 2.240 . S
Cd156 O157 2.240 . S
Cd156 O164 2.223 . S
Cd156 O166 2.297 1_554 S
Cd156 O167 2.439 1_554 S
O157 Cd156 2.240 . S
O157 C162 1.279 . S
O158 Cd155 2.297 . S
O158 C160 1.247 . S
O159 Cd155 2.439 . S
O159 C160 1.208 . S
C160 O158 1.247 . S
C160 O159 1.208 . S
C161 O166 1.247 . S
C161 O167 1.208 . S
C162 O154 1.315 . S
C162 O157 1.279 . S
C163 O164 1.315 . S
C163 O165 1.279 . S
O164 Cd156 2.223 . S
O164 C163 1.315 . S
O165 Cd155 2.240 . S
O165 C163 1.279 . S
O166 Cd156 2.297 1_556 S
O166 C161 1.247 . S
O167 Cd156 2.439 1_556 S
O167 C161 1.208 . S
O168 Cd169 2.223 . S
O168 C176 1.315 . S
Cd169 O168 2.223 . S
Cd169 O172 2.297 . S
Cd169 O173 2.439 . S
Cd169 O179 2.240 . S
Cd170 O171 2.240 . S
Cd170 O178 2.223 . S
Cd170 O180 2.297 1_554 S
Cd170 O181 2.439 1_554 S
O171 Cd170 2.240 . S
O171 C176 1.279 . S
O172 Cd169 2.297 . S
O172 C174 1.247 . S
O173 Cd169 2.439 . S
O173 C174 1.208 . S
C174 O172 1.247 . S
C174 O173 1.208 . S
C175 O180 1.247 . S
C175 O181 1.208 . S
C176 O168 1.315 . S
C176 O171 1.279 . S
C177 O178 1.315 . S
C177 O179 1.279 . S
O178 Cd170 2.223 . S
O178 C177 1.315 . S
O179 Cd169 2.240 . S
O179 C177 1.279 . S
O180 Cd170 2.297 1_556 S
O180 C175 1.247 . S
O181 Cd170 2.439 1_556 S
O181 C175 1.208 . S
O182 Cd183 2.223 . S
O182 C190 1.315 . S
Cd183 O182 2.223 . S
Cd183 O186 2.297 . S
Cd183 O187 2.439 1_554 S
Cd183 O193 2.240 1_554 S
Cd184 O185 2.240 1_556 S
Cd184 O192 2.223 1_556 S
Cd184 O194 2.297 . S
Cd184 O195 2.439 . S
O185 Cd184 2.240 1_554 S
O185 C190 1.279 . S
O186 Cd183 2.297 . S
O186 C188 1.247 . S
O187 Cd183 2.439 1_556 S
O187 C188 1.208 1_556 S
C188 O186 1.247 . S
C188 O187 1.208 1_554 S
C189 O194 1.247 . S
C189 O195 1.208 . S
C190 O182 1.315 . S
C190 O185 1.279 . S
C191 O192 1.315 1_556 S
C191 O193 1.279 . S
O192 Cd184 2.223 1_554 S
O192 C191 1.315 1_554 S
O193 Cd183 2.240 1_556 S
O193 C191 1.279 . S
O194 Cd184 2.297 . S
O194 C189 1.247 . S
O195 Cd184 2.439 . S
O195 C189 1.208 . S
O196 Cd197 2.223 . S
O196 C204 1.315 . S
Cd197 O196 2.223 . S
Cd197 O200 2.297 . S
Cd197 O201 2.439 . S
Cd197 O207 2.240 . S
Cd198 O199 2.240 . S
Cd198 O206 2.223 . S
Cd198 O208 2.297 . S
Cd198 O209 2.439 . S
O199 Cd198 2.240 . S
O199 C204 1.279 . S
O200 Cd197 2.297 . S
O200 C202 1.247 . S
O201 Cd197 2.439 . S
O201 C202 1.208 . S
C202 O200 1.247 . S
C202 O201 1.208 . S
C203 O208 1.247 . S
C203 O209 1.208 . S
C204 O196 1.315 . S
C204 O199 1.279 . S
C205 O206 1.315 . S
C205 O207 1.279 . S
O206 Cd198 2.223 . S
O206 C205 1.315 . S
O207 Cd197 2.240 . S
O207 C205 1.279 . S
O208 Cd198 2.297 . S
O208 C203 1.247 . S
O209 Cd198 2.439 . S
O209 C203 1.208 . S
O210 Cd211 2.223 . S
O210 C218 1.315 . S
Cd211 O210 2.223 . S
Cd211 O214 2.297 . S
Cd211 O215 2.439 . S
Cd211 O221 2.240 . S
Cd212 O213 2.240 . S
Cd212 O220 2.223 . S
Cd212 O222 2.297 . S
Cd212 O223 2.439 . S
O213 Cd212 2.240 . S
O213 C218 1.279 . S
O214 Cd211 2.297 . S
O214 C216 1.247 . S
O215 Cd211 2.439 . S
O215 C216 1.208 . S
C216 O214 1.247 . S
C216 O215 1.208 . S
C217 O222 1.247 . S
C217 O223 1.208 . S
C218 O210 1.315 . S
C218 O213 1.279 . S
C219 O220 1.315 . S
C219 O221 1.279 . S
O220 Cd212 2.223 . S
O220 C219 1.315 . S
O221 Cd211 2.240 . S
O221 C219 1.279 . S
O222 Cd212 2.297 . S
O222 C217 1.247 . S
O223 Cd212 2.439 . S
O223 C217 1.208 . S
O224 Cd225 2.223 . S
O224 C232 1.315 . S
Cd225 O224 2.223 . S
Cd225 O228 2.297 . S
Cd225 O229 2.439 . S
Cd225 O235 2.240 . S
Cd226 O227 2.240 . S
Cd226 O234 2.223 . S
Cd226 O236 2.297 . S
Cd226 O237 2.439 . S
O227 Cd226 2.240 . S
O227 C232 1.279 . S
O228 Cd225 2.297 . S
O228 C230 1.247 . S
O229 Cd225 2.439 . S
O229 C230 1.208 . S
C230 O228 1.247 . S
C230 O229 1.208 . S
C231 O236 1.247 . S
C231 O237 1.208 . S
C232 O224 1.315 . S
C232 O227 1.279 . S
C233 O234 1.315 . S
C233 O235 1.279 . S
O234 Cd226 2.223 . S
O234 C233 1.315 . S
O235 Cd225 2.240 . S
O235 C233 1.279 . S
O236 Cd226 2.297 . S
O236 C231 1.247 . S
O237 Cd226 2.439 . S
O237 C231 1.208 . S
O238 Cd239 2.223 . S
O238 C246 1.315 . S
Cd239 O238 2.223 . S
Cd239 O242 2.297 . S
Cd239 O243 2.439 . S
Cd239 O249 2.240 . S
Cd240 O241 2.240 . S
Cd240 O248 2.223 . S
Cd240 O250 2.297 . S
Cd240 O251 2.439 . S
O241 Cd240 2.240 . S
O241 C246 1.279 . S
O242 Cd239 2.297 . S
O242 C244 1.247 . S
O243 Cd239 2.439 . S
O243 C244 1.208 . S
C244 O242 1.247 . S
C244 O243 1.208 . S
C245 O250 1.247 . S
C245 O251 1.208 . S
C246 O238 1.315 . S
C246 O241 1.279 . S
C247 O248 1.315 . S
C247 O249 1.279 . S
O248 Cd240 2.223 . S
O248 C247 1.315 . S
O249 Cd239 2.240 . S
O249 C247 1.279 . S
O250 Cd240 2.297 . S
O250 C245 1.247 . S
O251 Cd240 2.439 . S
O251 C245 1.208 . S
O252 Cd253 2.223 . S
O252 C260 1.315 . S
Cd253 O252 2.223 . S
Cd253 O256 2.297 . S
Cd253 O257 2.439 . S
Cd253 O263 2.240 . S
Cd254 O255 2.240 . S
Cd254 O262 2.223 . S
Cd254 O264 2.297 . S
Cd254 O265 2.439 . S
O255 Cd254 2.240 . S
O255 C260 1.279 . S
O256 Cd253 2.297 . S
O256 C258 1.247 . S
O257 Cd253 2.439 . S
O257 C258 1.208 . S
C258 O256 1.247 . S
C258 O257 1.208 . S
C259 O264 1.247 . S
C259 O265 1.208 . S
C260 O252 1.315 . S
C260 O255 1.279 . S
C261 O262 1.315 . S
C261 O263 1.279 . S
O262 Cd254 2.223 . S
O262 C261 1.315 . S
O263 Cd253 2.240 . S
O263 C261 1.279 . S
O264 Cd254 2.297 . S
O264 C259 1.247 . S
O265 Cd254 2.439 . S
O265 C259 1.208 . S
O266 Cd267 2.223 . S
O266 C274 1.315 . S
Cd267 O266 2.223 . S
Cd267 O270 2.297 1_545 S
Cd267 O271 2.439 1_545 S
Cd267 O277 2.240 . S
Cd268 O269 2.240 . S
Cd268 O276 2.223 . S
Cd268 O278 2.297 . S
Cd268 O279 2.439 . S
O269 Cd268 2.240 . S
O269 C274 1.279 . S
O270 Cd267 2.297 1_565 S
O270 C272 1.247 . S
O271 Cd267 2.439 1_565 S
O271 C272 1.208 . S
C272 O270 1.247 . S
C272 O271 1.208 . S
C273 O278 1.247 . S
C273 O279 1.208 . S
C274 O266 1.315 . S
C274 O269 1.279 . S
C275 O276 1.315 . S
C275 O277 1.279 . S
O276 Cd268 2.223 . S
O276 C275 1.315 . S
O277 Cd267 2.240 . S
O277 C275 1.279 . S
O278 Cd268 2.297 . S
O278 C273 1.247 . S
O279 Cd268 2.439 . S
O279 C273 1.208 . S
O280 Cd281 2.223 . S
O280 C288 1.315 . S
Cd281 O280 2.223 . S
Cd281 O284 2.297 . S
Cd281 O285 2.439 . S
Cd281 O291 2.260 . S
Cd282 O283 2.240 . S
Cd282 O290 2.223 . S
Cd282 O292 2.297 1_554 S
Cd282 O293 2.439 1_554 S
O283 Cd282 2.240 . S
O283 C288 1.279 . S
O284 Cd281 2.297 . S
O284 C286 1.247 . S
O285 Cd281 2.439 . S
O285 C286 1.208 . S
C286 O284 1.247 . S
C286 O285 1.208 . S
C287 O292 1.247 . S
C287 O293 1.208 . S
C288 O280 1.315 . S
C288 O283 1.279 . S
C289 O290 1.315 . S
C289 O291 1.295 . S
O290 Cd282 2.223 . S
O290 C289 1.315 . S
O291 Cd281 2.260 . S
O291 C289 1.295 . S
O292 Cd282 2.297 1_556 S
O292 C287 1.247 . S
O293 Cd282 2.439 1_556 S
O293 C287 1.208 . S
O294 Cd295 2.223 . S
O294 C302 1.315 . S
Cd295 O294 2.223 . S
Cd295 O298 2.297 . S
Cd295 O299 2.439 . S
Cd295 O305 2.240 . S
Cd296 O297 2.240 . S
Cd296 O304 2.223 . S
Cd296 O306 2.297 . S
Cd296 O307 2.439 . S
O297 Cd296 2.240 . S
O297 C302 1.279 . S
O298 Cd295 2.297 . S
O298 C300 1.247 . S
O299 Cd295 2.439 . S
O299 C300 1.208 . S
C300 O298 1.247 . S
C300 O299 1.208 . S
C301 O306 1.247 . S
C301 O307 1.208 . S
C302 O294 1.315 . S
C302 O297 1.279 . S
C303 O304 1.315 . S
C303 O305 1.279 . S
O304 Cd296 2.223 . S
O304 C303 1.315 . S
O305 Cd295 2.240 . S
O305 C303 1.279 . S
O306 Cd296 2.297 . S
O306 C301 1.247 . S
O307 Cd296 2.439 . S
O307 C301 1.208 . S
O308 Cd309 2.223 . S
O308 C316 1.315 . S
Cd309 O308 2.223 . S
Cd309 O312 2.297 . S
Cd309 O313 2.439 . S
Cd309 O319 2.240 . S
Cd310 O311 2.240 . S
Cd310 O318 2.223 . S
Cd310 O320 2.297 . S
Cd310 O321 2.439 . S
O311 Cd310 2.240 . S
O311 C316 1.279 . S
O312 Cd309 2.297 . S
O312 C314 1.247 . S
O313 Cd309 2.439 . S
O313 C314 1.208 . S
C314 O312 1.247 . S
C314 O313 1.208 . S
C315 O320 1.247 . S
C315 O321 1.208 . S
C316 O308 1.315 . S
C316 O311 1.279 . S
C317 O318 1.315 . S
C317 O319 1.279 . S
O318 Cd310 2.223 . S
O318 C317 1.315 . S
O319 Cd309 2.240 . S
O319 C317 1.279 . S
O320 Cd310 2.297 . S
O320 C315 1.247 . S
O321 Cd310 2.439 . S
O321 C315 1.208 . S
O322 Cd323 2.223 . S
O322 C330 1.315 . S
Cd323 O322 2.223 . S
Cd323 O326 2.297 . S
Cd323 O327 2.439 . S
Cd323 O333 2.240 . S
Cd324 O325 2.240 . S
Cd324 O332 2.223 . S
Cd324 O334 2.297 . S
Cd324 O335 2.439 . S
O325 Cd324 2.240 . S
O325 C330 1.279 . S
O326 Cd323 2.297 . S
O326 C328 1.247 . S
O327 Cd323 2.439 . S
O327 C328 1.208 . S
C328 O326 1.247 . S
C328 O327 1.208 . S
C329 O334 1.247 . S
C329 O335 1.208 . S
C330 O322 1.315 . S
C330 O325 1.279 . S
C331 O332 1.315 . S
C331 O333 1.279 . S
O332 Cd324 2.223 . S
O332 C331 1.315 . S
O333 Cd323 2.240 . S
O333 C331 1.279 . S
O334 Cd324 2.297 . S
O334 C329 1.247 . S
O335 Cd324 2.439 . S
O335 C329 1.208 . S
Tb336 O339 2.453 . S
Tb336 O340 2.596 . S
Tb336 O341 2.374 1_554 S
Tb336 O349 2.343 1_455 S
Tb336 O351 2.353 . S
Tb336 O353 2.427 . S
Tb336 O354 2.513 1_554 S
C337 O341 1.251 . S
C337 O343 1.263 . S
Tb338 O340 2.343 1_655 S
Tb338 O343 2.353 1_654 S
Tb338 O346 2.427 1_645 S
Tb338 O347 2.513 1_645 S
Tb338 O348 2.453 . S
Tb338 O349 2.596 . S
Tb338 O350 2.374 . S
O339 Tb336 2.453 . S
O339 C355 1.245 . S
O340 Tb336 2.596 . S
O340 Tb338 2.343 1_455 S
O340 C355 1.259 . S
O341 Tb336 2.374 1_556 S
O341 C337 1.251 . S
C342 O346 1.275 . S
C342 O347 1.246 . S
O343 C337 1.263 . S
O343 Tb338 2.353 1_456 S
C344 O348 1.245 . S
C344 O349 1.259 . S
C345 O350 1.250 1_455 S
C345 O351 1.263 . S
O346 Tb338 2.427 1_465 S
O346 C342 1.275 . S
O347 Tb338 2.513 1_465 S
O347 C342 1.246 . S
O348 Tb338 2.453 . S
O348 C344 1.245 . S
O349 Tb336 2.343 1_655 S
O349 Tb338 2.596 . S
O349 C344 1.259 . S
O350 Tb338 2.374 . S
O350 C345 1.250 1_655 S
O351 Tb336 2.353 . S
O351 C345 1.263 . S
C352 O353 1.275 . S
C352 O354 1.246 1_554 S
O353 Tb336 2.427 . S
O353 C352 1.275 . S
O354 Tb336 2.513 1_556 S
O354 C352 1.246 1_556 S
C355 O339 1.245 . S
C355 O340 1.259 . S
Tb356 O359 2.453 . S
Tb356 O360 2.596 . S
Tb356 O361 2.374 . S
Tb356 O369 2.343 . S
Tb356 O371 2.353 . S
Tb356 O373 2.427 . S
Tb356 O374 2.513 . S
C357 O361 1.251 . S
C357 O363 1.263 . S
Tb358 O360 2.343 . S
Tb358 O363 2.353 . S
Tb358 O366 2.427 . S
Tb358 O367 2.513 . S
Tb358 O368 2.453 . S
Tb358 O369 2.596 . S
Tb358 O370 2.374 . S
O359 Tb356 2.453 . S
O359 C375 1.245 . S
O360 Tb356 2.596 . S
O360 Tb358 2.343 . S
O360 C375 1.259 . S
O361 Tb356 2.374 . S
O361 C357 1.251 . S
C362 O366 1.275 . S
C362 O367 1.246 . S
O363 C357 1.263 . S
O363 Tb358 2.353 . S
C364 O368 1.245 . S
C364 O369 1.259 . S
C365 O370 1.250 . S
C365 O371 1.263 . S
O366 Tb358 2.427 . S
O366 C362 1.275 . S
O367 Tb358 2.513 . S
O367 C362 1.246 . S
O368 Tb358 2.453 . S
O368 C364 1.245 . S
O369 Tb356 2.343 . S
O369 Tb358 2.596 . S
O369 C364 1.259 . S
O370 Tb358 2.374 . S
O370 C365 1.250 . S
O371 Tb356 2.353 . S
O371 C365 1.263 . S
C372 O373 1.275 . S
C372 O374 1.246 . S
O373 Tb356 2.427 . S
O373 C372 1.275 . S
O374 Tb356 2.513 . S
O374 C372 1.246 . S
C375 O359 1.245 . S
C375 O360 1.259 . S
Tb376 O379 2.453 . S
Tb376 O380 2.596 . S
Tb376 O381 2.374 . S
Tb376 O389 2.343 . S
Tb376 O391 2.353 . S
Tb376 O393 2.427 . S
Tb376 O394 2.513 . S
C377 O381 1.251 . S
C377 O383 1.263 . S
Tb378 O380 2.343 . S
Tb378 O383 2.353 . S
Tb378 O386 2.427 . S
Tb378 O387 2.513 . S
Tb378 O388 2.453 1_545 S
Tb378 O389 2.596 . S
Tb378 O390 2.374 . S
O379 Tb376 2.453 . S
O379 C395 1.245 . S
O380 Tb376 2.596 . S
O380 Tb378 2.343 . S
O380 C395 1.259 . S
O381 Tb376 2.374 . S
O381 C377 1.251 . S
C382 O386 1.275 . S
C382 O387 1.246 . S
O383 C377 1.263 . S
O383 Tb378 2.353 . S
C384 O388 1.245 . S
C384 O389 1.259 1_565 S
C385 O390 1.250 . S
C385 O391 1.263 . S
O386 Tb378 2.427 . S
O386 C382 1.275 . S
O387 Tb378 2.513 . S
O387 C382 1.246 . S
O388 Tb378 2.453 1_565 S
O388 C384 1.245 . S
O389 Tb376 2.343 . S
O389 Tb378 2.596 . S
O389 C384 1.259 1_545 S
O390 Tb378 2.374 . S
O390 C385 1.250 . S
O391 Tb376 2.353 . S
O391 C385 1.263 . S
C392 O393 1.275 . S
C392 O394 1.246 . S
O393 Tb376 2.427 . S
O393 C392 1.275 . S
O394 Tb376 2.513 . S
O394 C392 1.246 . S
C395 O379 1.245 . S
C395 O380 1.259 . S
Tb396 O399 2.453 . S
Tb396 O400 2.596 . S
Tb396 O401 2.374 . S
Tb396 O409 2.343 . S
Tb396 O411 2.353 . S
Tb396 O413 2.427 . S
Tb396 O414 2.513 . S
C397 O401 1.251 . S
C397 O403 1.263 . S
Tb398 O400 2.343 . S
Tb398 O403 2.353 . S
Tb398 O406 2.427 . S
Tb398 O407 2.513 . S
Tb398 O408 2.453 . S
Tb398 O409 2.596 . S
Tb398 O410 2.374 . S
O399 Tb396 2.453 . S
O399 C415 1.245 . S
O400 Tb396 2.596 . S
O400 Tb398 2.343 . S
O400 C415 1.259 . S
O401 Tb396 2.374 . S
O401 C397 1.251 . S
C402 O406 1.275 . S
C402 O407 1.246 . S
O403 C397 1.263 . S
O403 Tb398 2.353 . S
C404 O408 1.245 . S
C404 O409 1.259 . S
C405 O410 1.250 . S
C405 O411 1.263 . S
O406 Tb398 2.427 . S
O406 C402 1.275 . S
O407 Tb398 2.513 . S
O407 C402 1.246 . S
O408 Tb398 2.453 . S
O408 C404 1.245 . S
O409 Tb396 2.343 . S
O409 Tb398 2.596 . S
O409 C404 1.259 . S
O410 Tb398 2.374 . S
O410 C405 1.250 . S
O411 Tb396 2.353 . S
O411 C405 1.263 . S
C412 O413 1.275 . S
C412 O414 1.246 . S
O413 Tb396 2.427 . S
O413 C412 1.275 . S
O414 Tb396 2.513 . S
O414 C412 1.246 . S
C415 O399 1.245 . S
C415 O400 1.259 . S
Tb416 O419 2.453 1_545 S
Tb416 O420 2.596 . S
Tb416 O421 2.374 1_455 S
Tb416 O429 2.343 . S
Tb416 O431 2.353 . S
Tb416 O433 2.427 . S
Tb416 O434 2.513 1_455 S
C417 O421 1.251 . S
C417 O423 1.263 . S
Tb418 O420 2.343 . S
Tb418 O423 2.353 1_455 S
Tb418 O426 2.427 . S
Tb418 O427 2.513 . S
Tb418 O428 2.453 . S
Tb418 O429 2.596 . S
Tb418 O430 2.374 . S
O419 Tb416 2.453 1_565 S
O419 C435 1.245 . S
O420 Tb416 2.596 . S
O420 Tb418 2.343 . S
O420 C435 1.259 1_545 S
O421 Tb416 2.374 1_655 S
O421 C417 1.251 . S
C422 O426 1.275 . S
C422 O427 1.246 . S
O423 C417 1.263 . S
O423 Tb418 2.353 1_655 S
C424 O428 1.245 . S
C424 O429 1.259 . S
C425 O430 1.250 . S
C425 O431 1.263 . S
O426 Tb418 2.427 . S
O426 C422 1.275 . S
O427 Tb418 2.513 . S
O427 C422 1.246 . S
O428 Tb418 2.453 . S
O428 C424 1.245 . S
O429 Tb416 2.343 . S
O429 Tb418 2.596 . S
O429 C424 1.259 . S
O430 Tb418 2.374 . S
O430 C425 1.250 . S
O431 Tb416 2.353 . S
O431 C425 1.263 . S
C432 O433 1.275 1_655 S
C432 O434 1.246 . S
O433 Tb416 2.427 . S
O433 C432 1.275 1_455 S
O434 Tb416 2.513 1_655 S
O434 C432 1.246 . S
C435 O419 1.245 . S
C435 O420 1.259 1_565 S
Tb436 O439 2.453 . S
Tb436 O440 2.596 . S
Tb436 O441 2.374 . S
Tb436 O449 2.343 . S
Tb436 O451 2.353 . S
Tb436 O453 2.427 . S
Tb436 O454 2.513 . S
C437 O441 1.251 . S
C437 O443 1.263 . S
Tb438 O440 2.343 . S
Tb438 O443 2.353 . S
Tb438 O446 2.427 . S
Tb438 O447 2.513 . S
Tb438 O448 2.453 . S
Tb438 O449 2.596 . S
Tb438 O450 2.374 . S
O439 Tb436 2.453 . S
O439 C455 1.245 . S
O440 Tb436 2.596 . S
O440 Tb438 2.343 . S
O440 C455 1.259 . S
O441 Tb436 2.374 . S
O441 C437 1.251 . S
C442 O446 1.275 . S
C442 O447 1.246 . S
O443 C437 1.263 . S
O443 Tb438 2.353 . S
C444 O448 1.245 . S
C444 O449 1.259 . S
C445 O450 1.250 . S
C445 O451 1.263 . S
O446 Tb438 2.427 . S
O446 C442 1.275 . S
O447 Tb438 2.513 . S
O447 C442 1.246 . S
O448 Tb438 2.453 . S
O448 C444 1.245 . S
O449 Tb436 2.343 . S
O449 Tb438 2.596 . S
O449 C444 1.259 . S
O450 Tb438 2.374 . S
O450 C445 1.250 . S
O451 Tb436 2.353 . S
O451 C445 1.263 . S
C452 O453 1.275 . S
C452 O454 1.246 . S
O453 Tb436 2.427 . S
O453 C452 1.275 . S
O454 Tb436 2.513 . S
O454 C452 1.246 . S
C455 O439 1.245 . S
C455 O440 1.259 . S
Tb456 O459 2.453 1_554 S
Tb456 O460 2.596 . S
Tb456 O461 2.374 1_545 S
Tb456 O469 2.343 . S
Tb456 O471 2.353 . S
Tb456 O473 2.427 . S
Tb456 O474 2.513 1_545 S
C457 O461 1.251 . S
C457 O463 1.263 . S
Tb458 O460 2.343 . S
Tb458 O463 2.353 1_545 S
Tb458 O466 2.427 . S
Tb458 O467 2.513 . S
Tb458 O468 2.453 . S
Tb458 O469 2.596 . S
Tb458 O470 2.374 . S
O459 Tb456 2.453 1_556 S
O459 C475 1.245 . S
O460 Tb456 2.596 . S
O460 Tb458 2.343 . S
O460 C475 1.259 1_554 S
O461 Tb456 2.374 1_565 S
O461 C457 1.251 . S
C462 O466 1.275 . S
C462 O467 1.246 . S
O463 C457 1.263 . S
O463 Tb458 2.353 1_565 S
C464 O468 1.245 . S
C464 O469 1.259 . S
C465 O470 1.250 . S
C465 O471 1.263 . S
O466 Tb458 2.427 . S
O466 C462 1.275 . S
O467 Tb458 2.513 . S
O467 C462 1.246 . S
O468 Tb458 2.453 . S
O468 C464 1.245 . S
O469 Tb456 2.343 . S
O469 Tb458 2.596 . S
O469 C464 1.259 . S
O470 Tb458 2.374 . S
O470 C465 1.250 . S
O471 Tb456 2.353 . S
O471 C465 1.263 . S
C472 O473 1.275 . S
C472 O474 1.246 1_545 S
O473 Tb456 2.427 . S
O473 C472 1.275 . S
O474 Tb456 2.513 1_565 S
O474 C472 1.246 1_565 S
C475 O459 1.245 . S
C475 O460 1.259 1_556 S
Tb476 O479 2.453 . S
Tb476 O480 2.596 . S
Tb476 O481 2.374 . S
Tb476 O489 2.343 . S
Tb476 O491 2.353 . S
Tb476 O493 2.427 . S
Tb476 O494 2.513 . S
C477 O481 1.251 . S
C477 O483 1.263 . S
Tb478 O480 2.343 . S
Tb478 O483 2.353 . S
Tb478 O486 2.427 . S
Tb478 O487 2.513 . S
Tb478 O488 2.453 . S
Tb478 O489 2.596 . S
Tb478 O490 2.374 . S
O479 Tb476 2.453 . S
O479 C495 1.245 . S
O480 Tb476 2.596 . S
O480 Tb478 2.343 . S
O480 C495 1.259 . S
O481 Tb476 2.374 . S
O481 C477 1.251 . S
C482 O486 1.275 . S
C482 O487 1.246 . S
O483 C477 1.263 . S
O483 Tb478 2.353 . S
C484 O488 1.245 . S
C484 O489 1.259 . S
C485 O490 1.250 . S
C485 O491 1.263 . S
O486 Tb478 2.427 . S
O486 C482 1.275 . S
O487 Tb478 2.513 . S
O487 C482 1.246 . S
O488 Tb478 2.453 . S
O488 C484 1.245 . S
O489 Tb476 2.343 . S
O489 Tb478 2.596 . S
O489 C484 1.259 . S
O490 Tb478 2.374 . S
O490 C485 1.250 . S
O491 Tb476 2.353 . S
O491 C485 1.263 . S
C492 O493 1.275 . S
C492 O494 1.246 . S
O493 Tb476 2.427 . S
O493 C492 1.275 . S
O494 Tb476 2.513 . S
O494 C492 1.246 . S
C495 O479 1.245 . S
C495 O480 1.259 . S
Tb496 O499 2.453 1_556 S
Tb496 O500 2.596 1_556 S
Tb496 O501 2.374 1_556 S
Tb496 O509 2.343 1_556 S
Tb496 O511 2.353 1_556 S
Tb496 O513 2.427 . S
Tb496 O514 2.513 . S
C497 O501 1.251 . S
C497 O503 1.263 . S
Tb498 O500 2.343 . S
Tb498 O503 2.353 . S
Tb498 O506 2.427 . S
Tb498 O507 2.513 . S
Tb498 O508 2.453 . S
Tb498 O509 2.596 . S
Tb498 O510 2.374 . S
O499 Tb496 2.453 1_554 S
O499 C515 1.245 . S
O500 Tb496 2.596 1_554 S
O500 Tb498 2.343 . S
O500 C515 1.259 . S
O501 Tb496 2.374 1_554 S
O501 C497 1.251 . S
C502 O506 1.275 . S
C502 O507 1.246 . S
O503 C497 1.263 . S
O503 Tb498 2.353 . S
C504 O508 1.245 . S
C504 O509 1.259 . S
C505 O510 1.250 . S
C505 O511 1.263 . S
O506 Tb498 2.427 . S
O506 C502 1.275 . S
O507 Tb498 2.513 . S
O507 C502 1.246 . S
O508 Tb498 2.453 . S
O508 C504 1.245 . S
O509 Tb496 2.343 1_554 S
O509 Tb498 2.596 . S
O509 C504 1.259 . S
O510 Tb498 2.374 . S
O510 C505 1.250 . S
O511 Tb496 2.353 1_554 S
O511 C505 1.263 . S
C512 O513 1.275 . S
C512 O514 1.246 . S
O513 Tb496 2.427 . S
O513 C512 1.275 . S
O514 Tb496 2.513 . S
O514 C512 1.246 . S
C515 O499 1.245 . S
C515 O500 1.259 . S
Tb516 O519 2.453 . S
Tb516 O520 2.596 . S
Tb516 O521 2.374 . S
Tb516 O529 2.343 . S
Tb516 O531 2.353 . S
Tb516 O533 2.427 . S
Tb516 O534 2.513 . S
C517 O521 1.251 . S
C517 O523 1.263 . S
Tb518 O520 2.343 . S
Tb518 O523 2.353 . S
Tb518 O526 2.427 . S
Tb518 O527 2.513 . S
Tb518 O528 2.453 . S
Tb518 O529 2.596 . S
Tb518 O530 2.374 . S
O519 Tb516 2.453 . S
O519 C535 1.245 . S
O520 Tb516 2.596 . S
O520 Tb518 2.343 . S
O520 C535 1.259 . S
O521 Tb516 2.374 . S
O521 C517 1.251 . S
C522 O526 1.275 . S
C522 O527 1.246 . S
O523 C517 1.263 . S
O523 Tb518 2.353 . S
C524 O528 1.245 . S
C524 O529 1.259 . S
C525 O530 1.250 . S
C525 O531 1.263 . S
O526 Tb518 2.427 . S
O526 C522 1.275 . S
O527 Tb518 2.513 . S
O527 C522 1.246 . S
O528 Tb518 2.453 . S
O528 C524 1.245 . S
O529 Tb516 2.343 . S
O529 Tb518 2.596 . S
O529 C524 1.259 . S
O530 Tb518 2.374 . S
O530 C525 1.250 . S
O531 Tb516 2.353 . S
O531 C525 1.263 . S
C532 O533 1.275 . S
C532 O534 1.246 . S
O533 Tb516 2.427 . S
O533 C532 1.275 . S
O534 Tb516 2.513 . S
O534 C532 1.246 . S
C535 O519 1.245 . S
C535 O520 1.259 . S
Tb536 O539 2.476 . S
Tb536 O540 2.596 1_655 S
Tb536 O541 2.374 . S
Tb536 O549 2.343 . S
Tb536 O551 2.353 . S
Tb536 O553 2.427 . S
Tb536 O554 2.513 . S
C537 O541 1.251 1_455 S
C537 O543 1.263 . S
Tb538 O540 2.343 . S
Tb538 O543 2.353 . S
Tb538 O546 2.427 . S
Tb538 O547 2.513 . S
Tb538 O548 2.453 . S
Tb538 O549 2.596 1_455 S
Tb538 O550 2.374 . S
O539 Tb536 2.476 . S
O539 C555 1.209 1_655 S
O540 Tb536 2.596 1_455 S
O540 Tb538 2.343 . S
O540 C555 1.259 . S
O541 Tb536 2.374 . S
O541 C537 1.251 1_655 S
C542 O546 1.275 . S
C542 O547 1.246 . S
O543 C537 1.263 . S
O543 Tb538 2.353 . S
C544 O548 1.245 1_655 S
C544 O549 1.259 . S
C545 O550 1.250 . S
C545 O551 1.263 1_455 S
O546 Tb538 2.427 . S
O546 C542 1.275 . S
O547 Tb538 2.513 . S
O547 C542 1.246 . S
O548 Tb538 2.453 . S
O548 C544 1.245 1_455 S
O549 Tb536 2.343 . S
O549 Tb538 2.596 1_655 S
O549 C544 1.259 . S
O550 Tb538 2.374 . S
O550 C545 1.250 . S
O551 Tb536 2.353 . S
O551 C545 1.263 1_655 S
C552 O553 1.275 . S
C552 O554 1.246 . S
O553 Tb536 2.427 . S
O553 C552 1.275 . S
O554 Tb536 2.513 . S
O554 C552 1.246 . S
C555 O539 1.209 1_455 S
C555 O540 1.259 . S
Tb556 O559 2.453 . S
Tb556 O560 2.596 . S
Tb556 O561 2.374 . S
Tb556 O569 2.343 . S
Tb556 O571 2.353 . S
Tb556 O573 2.427 . S
Tb556 O574 2.513 . S
C557 O561 1.251 . S
C557 O563 1.263 . S
Tb558 O560 2.343 . S
Tb558 O563 2.353 . S
Tb558 O566 2.427 . S
Tb558 O567 2.513 . S
Tb558 O568 2.453 . S
Tb558 O569 2.596 . S
Tb558 O570 2.374 . S
O559 Tb556 2.453 . S
O559 C575 1.245 . S
O560 Tb556 2.596 . S
O560 Tb558 2.343 . S
O560 C575 1.259 . S
O561 Tb556 2.374 . S
O561 C557 1.251 . S
C562 O566 1.275 . S
C562 O567 1.246 . S
O563 C557 1.263 . S
O563 Tb558 2.353 . S
C564 O568 1.245 . S
C564 O569 1.259 . S
C565 O570 1.250 . S
C565 O571 1.263 . S
O566 Tb558 2.427 . S
O566 C562 1.275 . S
O567 Tb558 2.513 . S
O567 C562 1.246 . S
O568 Tb558 2.453 . S
O568 C564 1.245 . S
O569 Tb556 2.343 . S
O569 Tb558 2.596 . S
O569 C564 1.259 . S
O570 Tb558 2.374 . S
O570 C565 1.250 . S
O571 Tb556 2.353 . S
O571 C565 1.263 . S
C572 O573 1.275 . S
C572 O574 1.246 . S
O573 Tb556 2.427 . S
O573 C572 1.275 . S
O574 Tb556 2.513 . S
O574 C572 1.246 . S
C575 O559 1.245 . S
C575 O560 1.259 . S
Tb576 O579 2.453 . S
Tb576 O580 2.596 . S
Tb576 O581 2.374 . S
Tb576 O589 2.343 . S
Tb576 O591 2.353 . S
Tb576 O593 2.427 . S
Tb576 O594 2.513 . S
C577 O581 1.251 . S
C577 O583 1.263 . S
Tb578 O580 2.343 . S
Tb578 O583 2.353 . S
Tb578 O586 2.427 . S
Tb578 O587 2.513 . S
Tb578 O588 2.453 . S
Tb578 O589 2.596 . S
Tb578 O590 2.374 . S
O579 Tb576 2.453 . S
O579 C595 1.245 . S
O580 Tb576 2.596 . S
O580 Tb578 2.343 . S
O580 C595 1.259 . S
O581 Tb576 2.374 . S
O581 C577 1.251 . S
C582 O586 1.275 . S
C582 O587 1.246 . S
O583 C577 1.263 . S
O583 Tb578 2.353 . S
C584 O588 1.245 . S
C584 O589 1.259 . S
C585 O590 1.250 . S
C585 O591 1.263 . S
O586 Tb578 2.427 . S
O586 C582 1.275 . S
O587 Tb578 2.513 . S
O587 C582 1.246 . S
O588 Tb578 2.453 . S
O588 C584 1.245 . S
O589 Tb576 2.343 . S
O589 Tb578 2.596 . S
O589 C584 1.259 . S
O590 Tb578 2.374 . S
O590 C585 1.250 . S
O591 Tb576 2.353 . S
O591 C585 1.263 . S
C592 O593 1.275 . S
C592 O594 1.246 . S
O593 Tb576 2.427 . S
O593 C592 1.275 . S
O594 Tb576 2.513 . S
O594 C592 1.246 . S
C595 O579 1.245 . S
C595 O580 1.259 . S
Tb596 O599 2.453 . S
Tb596 O600 2.596 . S
Tb596 O601 2.374 . S
Tb596 O609 2.343 . S
Tb596 O611 2.353 . S
Tb596 O613 2.427 . S
Tb596 O614 2.513 . S
C597 O601 1.251 . S
C597 O603 1.263 . S
Tb598 O600 2.343 . S
Tb598 O603 2.353 . S
Tb598 O606 2.427 . S
Tb598 O607 2.513 . S
Tb598 O608 2.453 . S
Tb598 O609 2.596 . S
Tb598 O610 2.374 . S
O599 Tb596 2.453 . S
O599 C615 1.245 . S
O600 Tb596 2.596 . S
O600 Tb598 2.343 . S
O600 C615 1.259 . S
O601 Tb596 2.374 . S
O601 C597 1.251 . S
C602 O606 1.275 . S
C602 O607 1.246 . S
O603 C597 1.263 . S
O603 Tb598 2.353 . S
C604 O608 1.245 . S
C604 O609 1.259 . S
C605 O610 1.250 . S
C605 O611 1.263 . S
O606 Tb598 2.427 . S
O606 C602 1.275 . S
O607 Tb598 2.513 . S
O607 C602 1.246 . S
O608 Tb598 2.453 . S
O608 C604 1.245 . S
O609 Tb596 2.343 . S
O609 Tb598 2.596 . S
O609 C604 1.259 . S
O610 Tb598 2.374 . S
O610 C605 1.250 . S
O611 Tb596 2.353 . S
O611 C605 1.263 . S
C612 O613 1.275 . S
C612 O614 1.246 . S
O613 Tb596 2.427 . S
O613 C612 1.275 . S
O614 Tb596 2.513 . S
O614 C612 1.246 . S
C615 O599 1.245 . S
C615 O600 1.259 . S
Tb616 O619 2.453 . S
Tb616 O620 2.596 . S
Tb616 O621 2.374 . S
Tb616 O629 2.343 . S
Tb616 O631 2.353 . S
Tb616 O633 2.427 . S
Tb616 O634 2.513 . S
C617 O621 1.251 . S
C617 O623 1.263 . S
Tb618 O620 2.343 . S
Tb618 O623 2.353 . S
Tb618 O626 2.427 . S
Tb618 O627 2.513 . S
Tb618 O628 2.453 . S
Tb618 O629 2.596 . S
Tb618 O630 2.374 . S
O619 Tb616 2.453 . S
O619 C635 1.245 . S
O620 Tb616 2.596 . S
O620 Tb618 2.343 . S
O620 C635 1.259 . S
O621 Tb616 2.374 . S
O621 C617 1.251 . S
C622 O626 1.275 . S
C622 O627 1.246 . S
O623 C617 1.263 . S
O623 Tb618 2.353 . S
C624 O628 1.245 . S
C624 O629 1.259 . S
C625 O630 1.250 . S
C625 O631 1.263 . S
O626 Tb618 2.427 . S
O626 C622 1.275 . S
O627 Tb618 2.513 . S
O627 C622 1.246 . S
O628 Tb618 2.453 . S
O628 C624 1.245 . S
O629 Tb616 2.343 . S
O629 Tb618 2.596 . S
O629 C624 1.259 . S
O630 Tb618 2.374 . S
O630 C625 1.250 . S
O631 Tb616 2.353 . S
O631 C625 1.263 . S
C632 O633 1.275 . S
C632 O634 1.246 . S
O633 Tb616 2.427 . S
O633 C632 1.275 . S
O634 Tb616 2.513 . S
O634 C632 1.246 . S
C635 O619 1.245 . S
C635 O620 1.259 . S
Tb636 O639 2.453 . S
Tb636 O640 2.596 . S
Tb636 O641 2.374 . S
Tb636 O649 2.343 . S
Tb636 O651 2.353 1_554 S
Tb636 O653 2.427 . S
Tb636 O654 2.513 . S
C637 O641 1.251 . S
C637 O643 1.262 1_455 S
Tb638 O640 2.343 1_655 S
Tb638 O643 2.354 . S
Tb638 O646 2.427 . S
Tb638 O647 2.513 . S
Tb638 O648 2.453 . S
Tb638 O649 2.596 1_655 S
Tb638 O650 2.374 1_554 S
O639 Tb636 2.453 . S
O639 C655 1.245 . S
O640 Tb636 2.596 . S
O640 Tb638 2.343 1_455 S
O640 C655 1.259 . S
O641 Tb636 2.374 . S
O641 C637 1.251 . S
C642 O646 1.275 . S
C642 O647 1.246 . S
O643 C637 1.262 1_655 S
O643 Tb638 2.354 . S
C644 O648 1.245 1_455 S
C644 O649 1.259 . S
C645 O650 1.250 1_455 S
C645 O651 1.263 . S
O646 Tb638 2.427 . S
O646 C642 1.275 . S
O647 Tb638 2.513 . S
O647 C642 1.246 . S
O648 Tb638 2.453 . S
O648 C644 1.245 1_655 S
O649 Tb636 2.343 . S
O649 Tb638 2.596 1_455 S
O649 C644 1.259 . S
O650 Tb638 2.374 1_556 S
O650 C645 1.250 1_655 S
O651 Tb636 2.353 1_556 S
O651 C645 1.263 . S
C652 O653 1.275 . S
C652 O654 1.246 . S
O653 Tb636 2.427 . S
O653 C652 1.275 . S
O654 Tb636 2.513 . S
O654 C652 1.246 . S
C655 O639 1.245 . S
C655 O640 1.259 . S
H656 C664 0.950 . S
H657 C669 0.950 . S
H658 C666 0.950 . S
H659 C668 0.950 . S
H660 C670 0.950 . S
H661 C672 0.950 . S
H662 C674 0.950 . S
H663 C675 0.950 . S
C664 H656 0.950 . S
C664 C665 1.386 . S
C664 C666 1.391 . S
C665 C664 1.386 . S
C665 C669 1.393 1_455 S
C666 H658 0.950 . S
C666 C664 1.391 . S
C666 C667 1.400 . S
C667 C666 1.400 . S
C667 C668 1.398 1_455 S
C667 C673 1.491 . S
C668 H659 0.950 . S
C668 C667 1.398 1_655 S
C668 C669 1.391 . S
C669 H657 0.950 . S
C669 C665 1.393 1_655 S
C669 C668 1.391 . S
C670 H660 0.950 . S
C670 C671 1.386 1_655 S
C670 C672 1.391 . S
C671 C670 1.386 1_455 S
C671 C675 1.393 . S
C672 H661 0.950 . S
C672 C670 1.391 . S
C672 C673 1.400 1_655 S
C673 C667 1.491 . S
C673 C672 1.400 1_455 S
C673 C674 1.398 . S
C674 H662 0.950 . S
C674 C673 1.398 . S
C674 C675 1.391 . S
C675 H663 0.950 . S
C675 C671 1.393 . S
C675 C674 1.391 . S
H676 C684 0.950 . S
H677 C689 0.950 . S
H678 C686 0.950 . S
H679 C688 0.950 . S
H680 C690 0.950 . S
H681 C692 0.950 . S
H682 C694 0.950 . S
H683 C695 0.950 . S
C684 H676 0.950 . S
C684 C685 1.386 . S
C684 C686 1.391 . S
C685 C684 1.386 . S
C685 C689 1.393 . S
C686 H678 0.950 . S
C686 C684 1.391 . S
C686 C687 1.400 . S
C687 C686 1.400 . S
C687 C688 1.398 . S
C687 C693 1.491 . S
C688 H679 0.950 . S
C688 C687 1.398 . S
C688 C689 1.391 . S
C689 H677 0.950 . S
C689 C685 1.393 . S
C689 C688 1.391 . S
C690 H680 0.950 . S
C690 C691 1.386 . S
C690 C692 1.391 . S
C691 C690 1.386 . S
C691 C695 1.393 . S
C692 H681 0.950 . S
C692 C690 1.391 . S
C692 C693 1.400 . S
C693 C687 1.491 . S
C693 C692 1.400 . S
C693 C694 1.398 . S
C694 H682 0.950 . S
C694 C693 1.398 . S
C694 C695 1.391 . S
C695 H683 0.950 . S
C695 C691 1.393 . S
C695 C694 1.391 . S
H696 C704 0.950 . S
H697 C709 0.950 . S
H698 C706 0.950 . S
H699 C708 0.950 . S
H700 C710 0.950 . S
H701 C712 0.950 . S
H702 C714 0.950 . S
H703 C715 0.950 . S
C704 H696 0.950 . S
C704 C705 1.386 . S
C704 C706 1.391 . S
C705 C704 1.386 . S
C705 C709 1.393 . S
C706 H698 0.950 . S
C706 C704 1.391 . S
C706 C707 1.400 . S
C707 C706 1.400 . S
C707 C708 1.398 . S
C707 C713 1.491 . S
C708 H699 0.950 . S
C708 C707 1.398 . S
C708 C709 1.391 . S
C709 H697 0.950 . S
C709 C705 1.393 . S
C709 C708 1.391 . S
C710 H700 0.950 . S
C710 C711 1.386 . S
C710 C712 1.391 . S
C711 C710 1.386 . S
C711 C715 1.393 . S
C712 H701 0.950 . S
C712 C710 1.391 . S
C712 C713 1.400 . S
C713 C707 1.491 . S
C713 C712 1.400 . S
C713 C714 1.398 . S
C714 H702 0.950 . S
C714 C713 1.398 . S
C714 C715 1.391 . S
C715 H703 0.950 . S
C715 C711 1.393 . S
C715 C714 1.391 . S
H716 C724 0.950 . S
H717 C729 0.950 . S
H718 C726 0.950 . S
H719 C728 0.950 . S
H720 C730 0.950 . S
H721 C732 0.950 . S
H722 C734 0.950 . S
H723 C735 0.950 . S
C724 H716 0.950 . S
C724 C725 1.386 . S
C724 C726 1.391 . S
C725 C724 1.386 . S
C725 C729 1.393 . S
C726 H718 0.950 . S
C726 C724 1.391 . S
C726 C727 1.400 . S
C727 C726 1.400 . S
C727 C728 1.398 . S
C727 C733 1.491 . S
C728 H719 0.950 . S
C728 C727 1.398 . S
C728 C729 1.391 . S
C729 H717 0.950 . S
C729 C725 1.393 . S
C729 C728 1.391 . S
C730 H720 0.950 . S
C730 C731 1.386 . S
C730 C732 1.391 . S
C731 C730 1.386 . S
C731 C735 1.393 . S
C732 H721 0.950 . S
C732 C730 1.391 . S
C732 C733 1.400 . S
C733 C727 1.491 . S
C733 C732 1.400 . S
C733 C734 1.398 . S
C734 H722 0.950 . S
C734 C733 1.398 . S
C734 C735 1.391 . S
C735 H723 0.950 . S
C735 C731 1.393 . S
C735 C734 1.391 . S
H736 C744 0.950 . S
H737 C749 0.950 . S
H738 C746 0.950 . S
H739 C748 0.950 . S
H740 C750 0.950 . S
H741 C752 0.950 . S
H742 C754 0.950 . S
H743 C755 0.950 . S
C744 H736 0.950 . S
C744 C745 1.386 . S
C744 C746 1.391 . S
C745 C744 1.386 . S
C745 C749 1.393 . S
C746 H738 0.950 . S
C746 C744 1.391 . S
C746 C747 1.400 . S
C747 C746 1.400 . S
C747 C748 1.398 . S
C747 C753 1.491 . S
C748 H739 0.950 . S
C748 C747 1.398 . S
C748 C749 1.391 . S
C749 H737 0.950 . S
C749 C745 1.393 . S
C749 C748 1.391 . S
C750 H740 0.950 . S
C750 C751 1.386 . S
C750 C752 1.391 . S
C751 C750 1.386 . S
C751 C755 1.393 . S
C752 H741 0.950 . S
C752 C750 1.391 . S
C752 C753 1.400 . S
C753 C747 1.491 . S
C753 C752 1.400 . S
C753 C754 1.398 . S
C754 H742 0.950 . S
C754 C753 1.398 . S
C754 C755 1.391 . S
C755 H743 0.950 . S
C755 C751 1.393 . S
C755 C754 1.391 . S
H756 C764 0.950 . S
H757 C769 0.950 . S
H758 C766 0.950 . S
H759 C768 0.950 . S
H760 C770 0.950 . S
H761 C772 0.950 . S
H762 C774 0.950 . S
H763 C775 0.950 . S
C764 H756 0.950 . S
C764 C765 1.386 . S
C764 C766 1.391 . S
C765 C764 1.386 . S
C765 C769 1.393 . S
C766 H758 0.950 . S
C766 C764 1.391 . S
C766 C767 1.400 . S
C767 C766 1.400 . S
C767 C768 1.398 . S
C767 C773 1.491 . S
C768 H759 0.950 . S
C768 C767 1.398 . S
C768 C769 1.391 . S
C769 H757 0.950 . S
C769 C765 1.393 . S
C769 C768 1.391 . S
C770 H760 0.950 . S
C770 C771 1.386 . S
C770 C772 1.391 . S
C771 C770 1.386 . S
C771 C775 1.393 . S
C772 H761 0.950 . S
C772 C770 1.391 . S
C772 C773 1.400 . S
C773 C767 1.491 . S
C773 C772 1.400 . S
C773 C774 1.398 . S
C774 H762 0.950 . S
C774 C773 1.398 . S
C774 C775 1.391 . S
C775 H763 0.950 . S
C775 C771 1.393 . S
C775 C774 1.391 . S
H776 C784 0.950 . S
H777 C789 0.950 . S
H778 C786 0.950 . S
H779 C788 0.950 . S
H780 C790 0.950 . S
H781 C792 0.950 . S
H782 C794 0.950 . S
H783 C795 0.950 . S
C784 H776 0.950 . S
C784 C785 1.386 . S
C784 C786 1.391 . S
C785 C784 1.386 . S
C785 C789 1.393 . S
C786 H778 0.950 . S
C786 C784 1.391 . S
C786 C787 1.400 . S
C787 C786 1.400 . S
C787 C788 1.398 . S
C787 C793 1.491 . S
C788 H779 0.950 . S
C788 C787 1.398 . S
C788 C789 1.391 . S
C789 H777 0.950 . S
C789 C785 1.393 . S
C789 C788 1.391 . S
C790 H780 0.950 . S
C790 C791 1.386 . S
C790 C792 1.391 . S
C791 C790 1.386 . S
C791 C795 1.393 . S
C792 H781 0.950 . S
C792 C790 1.391 . S
C792 C793 1.400 . S
C793 C787 1.491 . S
C793 C792 1.400 . S
C793 C794 1.398 . S
C794 H782 0.950 . S
C794 C793 1.398 . S
C794 C795 1.391 . S
C795 H783 0.950 . S
C795 C791 1.393 . S
C795 C794 1.391 . S
H796 C804 0.950 . S
H797 C809 0.950 . S
H798 C806 0.950 . S
H799 C808 0.950 . S
H800 C810 0.950 . S
H801 C812 0.950 . S
H802 C814 0.950 . S
H803 C815 0.950 . S
C804 H796 0.950 . S
C804 C805 1.386 . S
C804 C806 1.391 . S
C805 C804 1.386 . S
C805 C809 1.393 . S
C806 H798 0.950 . S
C806 C804 1.391 . S
C806 C807 1.400 . S
C807 C806 1.400 . S
C807 C808 1.398 . S
C807 C813 1.491 . S
C808 H799 0.950 . S
C808 C807 1.398 . S
C808 C809 1.391 . S
C809 H797 0.950 . S
C809 C805 1.393 . S
C809 C808 1.391 . S
C810 H800 0.950 . S
C810 C811 1.386 . S
C810 C812 1.391 . S
C811 C810 1.386 . S
C811 C815 1.393 . S
C812 H801 0.950 . S
C812 C810 1.391 . S
C812 C813 1.400 . S
C813 C807 1.491 . S
C813 C812 1.400 . S
C813 C814 1.398 . S
C814 H802 0.950 . S
C814 C813 1.398 . S
C814 C815 1.391 . S
C815 H803 0.950 . S
C815 C811 1.393 . S
C815 C814 1.391 . S
H816 C824 0.950 . S
H817 C829 0.950 . S
H818 C826 0.950 . S
H819 C828 0.950 . S
H820 C830 0.950 1_455 S
H821 C832 0.950 . S
H822 C834 0.950 . S
H823 C835 0.950 . S
C824 H816 0.950 . S
C824 C825 1.386 . S
C824 C826 1.391 . S
C825 C824 1.386 . S
C825 C829 1.393 . S
C826 H818 0.950 . S
C826 C824 1.391 . S
C826 C827 1.400 . S
C827 C826 1.400 . S
C827 C828 1.398 . S
C827 C833 1.491 . S
C828 H819 0.950 . S
C828 C827 1.398 . S
C828 C829 1.391 . S
C829 H817 0.950 . S
C829 C825 1.393 . S
C829 C828 1.391 . S
C830 H820 0.950 1_655 S
C830 C831 1.386 . S
C830 C832 1.391 . S
C831 C830 1.386 . S
C831 C835 1.393 . S
C832 H821 0.950 . S
C832 C830 1.391 . S
C832 C833 1.400 . S
C833 C827 1.491 . S
C833 C832 1.400 . S
C833 C834 1.398 . S
C834 H822 0.950 . S
C834 C833 1.398 . S
C834 C835 1.391 . S
C835 H823 0.950 . S
C835 C831 1.393 . S
C835 C834 1.391 . S
H836 C844 0.950 . S
H837 C849 0.950 . S
H838 C846 0.950 . S
H839 C848 0.950 . S
H840 C850 0.950 . S
H841 C852 0.950 . S
H842 C854 0.950 . S
H843 C855 0.950 . S
C844 H836 0.950 . S
C844 C845 1.386 . S
C844 C846 1.391 . S
C845 C844 1.386 . S
C845 C849 1.393 . S
C846 H838 0.950 . S
C846 C844 1.391 . S
C846 C847 1.400 . S
C847 C846 1.400 . S
C847 C848 1.398 . S
C847 C853 1.491 . S
C848 H839 0.950 . S
C848 C847 1.398 . S
C848 C849 1.391 . S
C849 H837 0.950 . S
C849 C845 1.393 . S
C849 C848 1.391 . S
C850 H840 0.950 . S
C850 C851 1.386 . S
C850 C852 1.391 . S
C851 C850 1.386 . S
C851 C855 1.393 . S
C852 H841 0.950 . S
C852 C850 1.391 . S
C852 C853 1.400 . S
C853 C847 1.491 . S
C853 C852 1.400 . S
C853 C854 1.398 . S
C854 H842 0.950 . S
C854 C853 1.398 . S
C854 C855 1.391 . S
C855 H843 0.950 . S
C855 C851 1.393 . S
C855 C854 1.391 . S
H856 C864 0.950 . S
H857 C869 0.950 . S
H858 C866 0.950 . S
H859 C868 0.938 1_565 S
H860 C870 0.950 1_565 S
H861 C872 0.950 1_565 S
H862 C874 0.950 . S
H863 C875 0.950 . S
C864 H856 0.950 . S
C864 C865 1.386 . S
C864 C866 1.391 . S
C865 C864 1.386 . S
C865 C869 1.393 1_545 S
C866 H858 0.950 . S
C866 C864 1.391 . S
C866 C867 1.400 . S
C867 C866 1.400 . S
C867 C868 1.416 . S
C867 C873 1.491 . S
C868 H859 0.938 1_545 S
C868 C867 1.416 . S
C868 C869 1.386 1_545 S
C869 H857 0.950 . S
C869 C865 1.393 1_565 S
C869 C868 1.386 1_565 S
C870 H860 0.950 1_545 S
C870 C871 1.386 . S
C870 C872 1.391 . S
C871 C870 1.386 . S
C871 C875 1.393 . S
C872 H861 0.950 1_545 S
C872 C870 1.391 . S
C872 C873 1.400 . S
C873 C867 1.491 . S
C873 C872 1.400 . S
C873 C874 1.398 . S
C874 H862 0.950 . S
C874 C873 1.398 . S
C874 C875 1.391 . S
C875 H863 0.950 . S
C875 C871 1.393 . S
C875 C874 1.391 . S
H876 C884 0.950 . S
H877 C889 0.950 . S
H878 C886 0.950 . S
H879 C888 0.950 . S
H880 C890 0.950 . S
H881 C892 0.950 . S
H882 C894 0.950 . S
H883 C895 0.950 . S
C884 H876 0.950 . S
C884 C885 1.386 . S
C884 C886 1.391 . S
C885 C884 1.386 . S
C885 C889 1.393 . S
C886 H878 0.950 . S
C886 C884 1.391 . S
C886 C887 1.400 . S
C887 C886 1.400 . S
C887 C888 1.398 . S
C887 C893 1.491 . S
C888 H879 0.950 . S
C888 C887 1.398 . S
C888 C889 1.391 . S
C889 H877 0.950 . S
C889 C885 1.393 . S
C889 C888 1.391 . S
C890 H880 0.950 . S
C890 C891 1.386 . S
C890 C892 1.391 . S
C891 C890 1.386 . S
C891 C895 1.393 . S
C892 H881 0.950 . S
C892 C890 1.391 . S
C892 C893 1.400 . S
C893 C887 1.491 . S
C893 C892 1.400 . S
C893 C894 1.398 . S
C894 H882 0.950 . S
C894 C893 1.398 . S
C894 C895 1.391 . S
C895 H883 0.950 . S
C895 C891 1.393 . S
C895 C894 1.391 . S
H896 C904 0.950 . S
H897 C909 0.950 . S
H898 C906 0.950 . S
H899 C908 0.950 . S
H900 C910 0.950 . S
H901 C912 0.950 1_455 S
H902 C914 0.950 . S
H903 C915 0.950 . S
C904 H896 0.950 . S
C904 C905 1.386 . S
C904 C906 1.391 . S
C905 C904 1.386 . S
C905 C909 1.393 . S
C906 H898 0.950 . S
C906 C904 1.391 . S
C906 C907 1.400 . S
C907 C906 1.400 . S
C907 C908 1.398 . S
C907 C913 1.491 . S
C908 H899 0.950 . S
C908 C907 1.398 . S
C908 C909 1.391 . S
C909 H897 0.950 . S
C909 C905 1.393 . S
C909 C908 1.391 . S
C910 H900 0.950 . S
C910 C911 1.386 1_455 S
C910 C912 1.391 1_455 S
C911 C910 1.386 1_655 S
C911 C915 1.393 . S
C912 H901 0.950 1_655 S
C912 C910 1.391 1_655 S
C912 C913 1.400 . S
C913 C907 1.491 . S
C913 C912 1.400 . S
C913 C914 1.398 . S
C914 H902 0.950 . S
C914 C913 1.398 . S
C914 C915 1.391 . S
C915 H903 0.950 . S
C915 C911 1.393 . S
C915 C914 1.391 . S
H916 C924 0.950 . S
H917 C929 0.950 . S
H918 C926 0.950 . S
H919 C928 0.950 . S
H920 C930 0.950 . S
H921 C932 0.950 . S
H922 C934 0.950 . S
H923 C935 0.950 . S
C924 H916 0.950 . S
C924 C925 1.386 . S
C924 C926 1.391 . S
C925 C924 1.386 . S
C925 C929 1.393 . S
C926 H918 0.950 . S
C926 C924 1.391 . S
C926 C927 1.400 . S
C927 C926 1.400 . S
C927 C928 1.398 . S
C927 C933 1.491 . S
C928 H919 0.950 . S
C928 C927 1.398 . S
C928 C929 1.391 . S
C929 H917 0.950 . S
C929 C925 1.393 . S
C929 C928 1.391 . S
C930 H920 0.950 . S
C930 C931 1.386 . S
C930 C932 1.391 . S
C931 C930 1.386 . S
C931 C935 1.393 . S
C932 H921 0.950 . S
C932 C930 1.391 . S
C932 C933 1.400 . S
C933 C927 1.491 . S
C933 C932 1.400 . S
C933 C934 1.398 . S
C934 H922 0.950 . S
C934 C933 1.398 . S
C934 C935 1.391 . S
C935 H923 0.950 . S
C935 C931 1.393 . S
C935 C934 1.391 . S
H936 C944 0.950 . S
H937 C949 0.950 . S
H938 C946 0.950 . S
H939 C948 0.950 . S
H940 C950 0.950 . S
H941 C952 0.950 . S
H942 C954 0.950 . S
H943 C955 0.950 . S
C944 H936 0.950 . S
C944 C945 1.386 . S
C944 C946 1.391 . S
C945 C944 1.386 . S
C945 C949 1.393 . S
C946 H938 0.950 . S
C946 C944 1.391 . S
C946 C947 1.400 . S
C947 C946 1.400 . S
C947 C948 1.398 . S
C947 C953 1.491 . S
C948 H939 0.950 . S
C948 C947 1.398 . S
C948 C949 1.391 . S
C949 H937 0.950 . S
C949 C945 1.393 . S
C949 C948 1.391 . S
C950 H940 0.950 . S
C950 C951 1.386 . S
C950 C952 1.391 . S
C951 C950 1.386 . S
C951 C955 1.393 . S
C952 H941 0.950 . S
C952 C950 1.391 . S
C952 C953 1.400 . S
C953 C947 1.491 . S
C953 C952 1.400 . S
C953 C954 1.398 . S
C954 H942 0.950 . S
C954 C953 1.398 . S
C954 C955 1.391 . S
C955 H943 0.950 . S
C955 C951 1.393 . S
C955 C954 1.391 . S
H956 C964 0.950 . S
H957 C969 0.950 . S
H958 C966 0.950 . S
H959 C968 0.950 . S
H960 C970 0.950 . S
H961 C972 0.950 . S
H962 C974 0.950 . S
H963 C975 0.950 . S
C964 H956 0.950 . S
C964 C965 1.386 . S
C964 C966 1.391 . S
C965 C964 1.386 . S
C965 C969 1.393 . S
C966 H958 0.950 . S
C966 C964 1.391 . S
C966 C967 1.400 . S
C967 C966 1.400 . S
C967 C968 1.398 . S
C967 C973 1.491 . S
C968 H959 0.950 . S
C968 C967 1.398 . S
C968 C969 1.391 . S
C969 H957 0.950 . S
C969 C965 1.393 . S
C969 C968 1.391 . S
C970 H960 0.950 . S
C970 C971 1.386 . S
C970 C972 1.391 . S
C971 C970 1.386 . S
C971 C975 1.393 . S
C972 H961 0.950 . S
C972 C970 1.391 . S
C972 C973 1.400 . S
C973 C967 1.491 . S
C973 C972 1.400 . S
C973 C974 1.398 . S
C974 H962 0.950 . S
C974 C973 1.398 . S
C974 C975 1.391 . S
C975 H963 0.950 . S
C975 C971 1.393 . S
C975 C974 1.391 . S
H976 C984 0.950 . S
H977 C989 0.950 . S
H978 C986 0.950 . S
H979 C988 0.950 . S
H980 C990 0.950 . S
H981 C992 0.950 . S
H982 C994 0.950 . S
H983 C995 0.950 . S
C984 H976 0.950 . S
C984 C985 1.386 . S
C984 C986 1.391 . S
C985 C984 1.386 . S
C985 C989 1.393 . S
C986 H978 0.950 . S
C986 C984 1.391 . S
C986 C987 1.400 . S
C987 C986 1.400 . S
C987 C988 1.398 . S
C987 C993 1.491 . S
C988 H979 0.950 . S
C988 C987 1.398 . S
C988 C989 1.391 . S
C989 H977 0.950 . S
C989 C985 1.393 . S
C989 C988 1.391 . S
C990 H980 0.950 . S
C990 C991 1.386 1_565 S
C990 C992 1.391 . S
C991 C990 1.386 1_545 S
C991 C995 1.393 . S
C992 H981 0.950 . S
C992 C990 1.391 . S
C992 C993 1.400 . S
C993 C987 1.491 . S
C993 C992 1.400 . S
C993 C994 1.398 1_565 S
C994 H982 0.950 . S
C994 C993 1.398 1_545 S
C994 C995 1.391 . S
C995 H983 0.950 . S
C995 C991 1.393 . S
C995 C994 1.391 . S
H996 C1004 0.950 . S
H997 C1009 0.950 . S
H998 C1006 0.950 . S
H999 C1008 0.950 . S
H1000 C1010 0.950 . S
H1001 C1012 0.950 . S
H1002 C1014 0.938 1_556 S
H1003 C1015 0.934 1_556 S
C1004 H996 0.950 . S
C1004 C1005 1.386 1_556 S
C1004 C1006 1.391 . S
C1005 C1004 1.386 1_554 S
C1005 C1009 1.393 . S
C1006 H998 0.950 . S
C1006 C1004 1.391 . S
C1006 C1007 1.400 1_556 S
C1007 C1006 1.400 1_554 S
C1007 C1008 1.398 . S
C1007 C1013 1.491 . S
C1008 H999 0.950 . S
C1008 C1007 1.398 . S
C1008 C1009 1.391 . S
C1009 H997 0.950 . S
C1009 C1005 1.393 . S
C1009 C1008 1.391 . S
C1010 H1000 0.950 . S
C1010 C1011 1.386 . S
C1010 C1012 1.391 . S
C1011 C1010 1.386 . S
C1011 C1015 1.416 . S
C1012 H1001 0.950 . S
C1012 C1010 1.391 . S
C1012 C1013 1.400 . S
C1013 C1007 1.491 . S
C1013 C1012 1.400 . S
C1013 C1014 1.407 . S
C1014 H1002 0.938 1_554 S
C1014 C1013 1.407 . S
C1014 C1015 1.388 . S
C1015 H1003 0.934 1_554 S
C1015 C1011 1.416 . S
C1015 C1014 1.388 . S
H1016 C1024 0.950 . S
H1017 C1029 0.950 . S
H1018 C1026 0.950 . S
H1019 C1028 0.950 . S
H1020 C1030 0.950 . S
H1021 C1032 0.950 . S
H1022 C1034 0.950 . S
H1023 C1035 0.950 . S
C1024 H1016 0.950 . S
C1024 C1025 1.386 . S
C1024 C1026 1.391 . S
C1025 C1024 1.386 . S
C1025 C1029 1.393 . S
C1026 H1018 0.950 . S
C1026 C1024 1.391 . S
C1026 C1027 1.400 . S
C1027 C1026 1.400 . S
C1027 C1028 1.398 . S
C1027 C1033 1.491 . S
C1028 H1019 0.950 . S
C1028 C1027 1.398 . S
C1028 C1029 1.391 . S
C1029 H1017 0.950 . S
C1029 C1025 1.393 . S
C1029 C1028 1.391 . S
C1030 H1020 0.950 . S
C1030 C1031 1.386 . S
C1030 C1032 1.391 . S
C1031 C1030 1.386 . S
C1031 C1035 1.393 . S
C1032 H1021 0.950 . S
C1032 C1030 1.391 . S
C1032 C1033 1.400 . S
C1033 C1027 1.491 . S
C1033 C1032 1.400 . S
C1033 C1034 1.398 . S
C1034 H1022 0.950 . S
C1034 C1033 1.398 . S
C1034 C1035 1.391 . S
C1035 H1023 0.950 . S
C1035 C1031 1.393 . S
C1035 C1034 1.391 . S
H1036 C1044 0.950 . S
H1037 C1049 0.950 . S
H1038 C1046 0.950 . S
H1039 C1048 0.950 . S
H1040 C1050 0.950 . S
H1041 C1052 0.950 . S
H1042 C1054 0.950 . S
H1043 C1055 0.950 . S
C1044 H1036 0.950 . S
C1044 C1045 1.386 . S
C1044 C1046 1.391 . S
C1045 C1044 1.386 . S
C1045 C1049 1.393 . S
C1046 H1038 0.950 . S
C1046 C1044 1.391 . S
C1046 C1047 1.400 . S
C1047 C1046 1.400 . S
C1047 C1048 1.398 . S
C1047 C1053 1.491 . S
C1048 H1039 0.950 . S
C1048 C1047 1.398 . S
C1048 C1049 1.391 . S
C1049 H1037 0.950 . S
C1049 C1045 1.393 . S
C1049 C1048 1.391 . S
C1050 H1040 0.950 . S
C1050 C1051 1.386 . S
C1050 C1052 1.391 . S
C1051 C1050 1.386 . S
C1051 C1055 1.393 . S
C1052 H1041 0.950 . S
C1052 C1050 1.391 . S
C1052 C1053 1.400 . S
C1053 C1047 1.491 . S
C1053 C1052 1.400 . S
C1053 C1054 1.398 . S
C1054 H1042 0.950 . S
C1054 C1053 1.398 . S
C1054 C1055 1.391 . S
C1055 H1043 0.950 . S
C1055 C1051 1.393 . S
C1055 C1054 1.391 . S
H1056 C1064 0.950 . S
H1057 C1069 0.950 . S
H1058 C1066 0.950 . S
H1059 C1068 0.950 . S
H1060 C1070 0.950 . S
H1061 C1072 0.950 . S
H1062 C1074 0.950 . S
H1063 C1075 0.950 . S
C1064 H1056 0.950 . S
C1064 C1065 1.386 . S
C1064 C1066 1.391 . S
C1065 C1064 1.386 . S
C1065 C1069 1.393 . S
C1066 H1058 0.950 . S
C1066 C1064 1.391 . S
C1066 C1067 1.400 . S
C1067 C1066 1.400 . S
C1067 C1068 1.398 . S
C1067 C1073 1.491 . S
C1068 H1059 0.950 . S
C1068 C1067 1.398 . S
C1068 C1069 1.391 . S
C1069 H1057 0.950 . S
C1069 C1065 1.393 . S
C1069 C1068 1.391 . S
C1070 H1060 0.950 . S
C1070 C1071 1.386 . S
C1070 C1072 1.391 . S
C1071 C1070 1.386 . S
C1071 C1075 1.393 . S
C1072 H1061 0.950 . S
C1072 C1070 1.391 . S
C1072 C1073 1.400 . S
C1073 C1067 1.491 . S
C1073 C1072 1.400 . S
C1073 C1074 1.398 . S
C1074 H1062 0.950 . S
C1074 C1073 1.398 . S
C1074 C1075 1.391 . S
C1075 H1063 0.950 . S
C1075 C1071 1.393 . S
C1075 C1074 1.391 . S
H1076 C1084 0.950 . S
H1077 C1089 0.950 . S
H1078 C1086 0.950 . S
H1079 C1088 0.950 . S
H1080 C1090 0.950 . S
H1081 C1092 0.950 . S
H1082 C1094 0.950 . S
H1083 C1095 0.950 . S
C1084 H1076 0.950 . S
C1084 C1085 1.386 . S
C1084 C1086 1.391 . S
C1085 C1084 1.386 . S
C1085 C1089 1.393 . S
C1086 H1078 0.950 . S
C1086 C1084 1.391 . S
C1086 C1087 1.400 . S
C1087 C1086 1.400 . S
C1087 C1088 1.398 . S
C1087 C1093 1.491 . S
C1088 H1079 0.950 . S
C1088 C1087 1.398 . S
C1088 C1089 1.391 . S
C1089 H1077 0.950 . S
C1089 C1085 1.393 . S
C1089 C1088 1.391 . S
C1090 H1080 0.950 . S
C1090 C1091 1.386 . S
C1090 C1092 1.391 . S
C1091 C1090 1.386 . S
C1091 C1095 1.393 . S
C1092 H1081 0.950 . S
C1092 C1090 1.391 . S
C1092 C1093 1.400 . S
C1093 C1087 1.491 . S
C1093 C1092 1.400 . S
C1093 C1094 1.398 . S
C1094 H1082 0.950 . S
C1094 C1093 1.398 . S
C1094 C1095 1.391 . S
C1095 H1083 0.950 . S
C1095 C1091 1.393 . S
C1095 C1094 1.391 . S
H1096 C1104 0.950 . S
H1097 C1109 0.950 . S
H1098 C1106 0.950 . S
H1099 C1108 0.950 . S
H1100 C1110 0.950 . S
H1101 C1112 0.950 . S
H1102 C1114 0.950 . S
H1103 C1115 0.950 . S
C1104 H1096 0.950 . S
C1104 C1105 1.386 . S
C1104 C1106 1.391 . S
C1105 C1104 1.386 . S
C1105 C1109 1.393 . S
C1106 H1098 0.950 . S
C1106 C1104 1.391 . S
C1106 C1107 1.400 . S
C1107 C1106 1.400 . S
C1107 C1108 1.398 . S
C1107 C1113 1.491 . S
C1108 H1099 0.950 . S
C1108 C1107 1.398 . S
C1108 C1109 1.391 . S
C1109 H1097 0.950 . S
C1109 C1105 1.393 . S
C1109 C1108 1.391 . S
C1110 H1100 0.950 . S
C1110 C1111 1.386 . S
C1110 C1112 1.391 . S
C1111 C1110 1.386 . S
C1111 C1115 1.393 . S
C1112 H1101 0.950 . S
C1112 C1110 1.391 . S
C1112 C1113 1.400 . S
C1113 C1107 1.491 . S
C1113 C1112 1.400 . S
C1113 C1114 1.398 . S
C1114 H1102 0.950 . S
C1114 C1113 1.398 . S
C1114 C1115 1.391 . S
C1115 H1103 0.950 . S
C1115 C1111 1.393 . S
C1115 C1114 1.391 . S
H1116 C1124 0.950 . S
H1117 C1129 0.950 . S
H1118 C1126 0.950 . S
H1119 C1128 0.950 . S
H1120 C1130 0.950 . S
H1121 C1132 0.950 . S
H1122 C1134 0.950 . S
H1123 C1135 0.950 . S
C1124 H1116 0.950 . S
C1124 C1125 1.386 . S
C1124 C1126 1.391 . S
C1125 C1124 1.386 . S
C1125 C1129 1.393 . S
C1126 H1118 0.950 . S
C1126 C1124 1.391 . S
C1126 C1127 1.400 . S
C1127 C1126 1.400 . S
C1127 C1128 1.398 . S
C1127 C1133 1.491 . S
C1128 H1119 0.950 . S
C1128 C1127 1.398 . S
C1128 C1129 1.391 . S
C1129 H1117 0.950 . S
C1129 C1125 1.393 . S
C1129 C1128 1.391 . S
C1130 H1120 0.950 . S
C1130 C1131 1.386 . S
C1130 C1132 1.391 . S
C1131 C1130 1.386 . S
C1131 C1135 1.393 . S
C1132 H1121 0.950 . S
C1132 C1130 1.391 . S
C1132 C1133 1.400 . S
C1133 C1127 1.491 . S
C1133 C1132 1.400 . S
C1133 C1134 1.398 . S
C1134 H1122 0.950 . S
C1134 C1133 1.398 . S
C1134 C1135 1.391 . S
C1135 H1123 0.950 . S
C1135 C1131 1.393 . S
C1135 C1134 1.391 . S
H1136 C1144 0.950 . S
H1137 C1149 0.950 . S
H1138 C1146 0.950 . S
H1139 C1148 0.950 . S
H1140 C1150 0.950 . S
H1141 C1152 0.950 . S
H1142 C1154 0.950 . S
H1143 C1155 0.950 . S
C1144 H1136 0.950 . S
C1144 C1145 1.386 1_655 S
C1144 C1146 1.391 . S
C1145 C1144 1.386 1_455 S
C1145 C1149 1.393 . S
C1146 H1138 0.950 . S
C1146 C1144 1.391 . S
C1146 C1147 1.400 1_655 S
C1147 C1146 1.400 1_455 S
C1147 C1148 1.398 . S
C1147 C1153 1.491 . S
C1148 H1139 0.950 . S
C1148 C1147 1.398 . S
C1148 C1149 1.391 . S
C1149 H1137 0.950 . S
C1149 C1145 1.393 . S
C1149 C1148 1.391 . S
C1150 H1140 0.950 . S
C1150 C1151 1.386 . S
C1150 C1152 1.391 . S
C1151 C1150 1.386 . S
C1151 C1155 1.393 1_455 S
C1152 H1141 0.950 . S
C1152 C1150 1.391 . S
C1152 C1153 1.400 . S
C1153 C1147 1.491 . S
C1153 C1152 1.400 . S
C1153 C1154 1.398 1_455 S
C1154 H1142 0.950 . S
C1154 C1153 1.398 1_655 S
C1154 C1155 1.391 . S
C1155 H1143 0.950 . S
C1155 C1151 1.393 1_655 S
C1155 C1154 1.391 . S
H1156 C1164 0.950 . S
H1157 C1169 0.950 . S
H1158 C1166 0.950 . S
H1159 C1168 0.950 . S
H1160 C1170 0.950 . S
H1161 C1172 0.950 . S
H1162 C1174 0.950 . S
H1163 C1175 0.950 . S
C1164 H1156 0.950 . S
C1164 C1165 1.386 . S
C1164 C1166 1.391 . S
C1165 C1164 1.386 . S
C1165 C1169 1.393 . S
C1166 H1158 0.950 . S
C1166 C1164 1.391 . S
C1166 C1167 1.400 . S
C1167 C1166 1.400 . S
C1167 C1168 1.398 . S
C1167 C1173 1.491 . S
C1168 H1159 0.950 . S
C1168 C1167 1.398 . S
C1168 C1169 1.391 . S
C1169 H1157 0.950 . S
C1169 C1165 1.393 . S
C1169 C1168 1.391 . S
C1170 H1160 0.950 . S
C1170 C1171 1.386 . S
C1170 C1172 1.391 . S
C1171 C1170 1.386 . S
C1171 C1175 1.393 . S
C1172 H1161 0.950 . S
C1172 C1170 1.391 . S
C1172 C1173 1.400 . S
C1173 C1167 1.491 . S
C1173 C1172 1.400 . S
C1173 C1174 1.398 . S
C1174 H1162 0.950 . S
C1174 C1173 1.398 . S
C1174 C1175 1.391 . S
C1175 H1163 0.950 . S
C1175 C1171 1.393 . S
C1175 C1174 1.391 . S
H1176 C1184 0.950 . S
H1177 C1189 0.950 . S
H1178 C1186 0.950 . S
H1179 C1188 0.950 . S
H1180 C1190 0.950 . S
H1181 C1192 0.950 . S
H1182 C1194 0.950 . S
H1183 C1195 0.950 . S
C1184 H1176 0.950 . S
C1184 C1185 1.386 . S
C1184 C1186 1.391 . S
C1185 C1184 1.386 . S
C1185 C1189 1.393 . S
C1186 H1178 0.950 . S
C1186 C1184 1.391 . S
C1186 C1187 1.400 . S
C1187 C1186 1.400 . S
C1187 C1188 1.398 . S
C1187 C1193 1.491 . S
C1188 H1179 0.950 . S
C1188 C1187 1.398 . S
C1188 C1189 1.391 . S
C1189 H1177 0.950 . S
C1189 C1185 1.393 . S
C1189 C1188 1.391 . S
C1190 H1180 0.950 . S
C1190 C1191 1.386 . S
C1190 C1192 1.391 . S
C1191 C1190 1.386 . S
C1191 C1195 1.393 . S
C1192 H1181 0.950 . S
C1192 C1190 1.391 . S
C1192 C1193 1.400 . S
C1193 C1187 1.491 . S
C1193 C1192 1.400 . S
C1193 C1194 1.398 . S
C1194 H1182 0.950 . S
C1194 C1193 1.398 . S
C1194 C1195 1.391 . S
C1195 H1183 0.950 . S
C1195 C1191 1.393 . S
C1195 C1194 1.391 . S
H1196 C1204 0.950 . S
H1197 C1209 0.950 . S
H1198 C1206 0.950 . S
H1199 C1208 0.950 . S
H1200 C1210 0.950 . S
H1201 C1212 0.950 . S
H1202 C1214 0.950 . S
H1203 C1215 0.950 . S
C1204 H1196 0.950 . S
C1204 C1205 1.386 . S
C1204 C1206 1.391 . S
C1205 C1204 1.386 . S
C1205 C1209 1.393 . S
C1206 H1198 0.950 . S
C1206 C1204 1.391 . S
C1206 C1207 1.400 . S
C1207 C1206 1.400 . S
C1207 C1208 1.398 . S
C1207 C1213 1.491 . S
C1208 H1199 0.950 . S
C1208 C1207 1.398 . S
C1208 C1209 1.391 . S
C1209 H1197 0.950 . S
C1209 C1205 1.393 . S
C1209 C1208 1.391 . S
C1210 H1200 0.950 . S
C1210 C1211 1.386 . S
C1210 C1212 1.391 . S
C1211 C1210 1.386 . S
C1211 C1215 1.393 . S
C1212 H1201 0.950 . S
C1212 C1210 1.391 . S
C1212 C1213 1.400 . S
C1213 C1207 1.491 . S
C1213 C1212 1.400 . S
C1213 C1214 1.398 . S
C1214 H1202 0.950 . S
C1214 C1213 1.398 . S
C1214 C1215 1.391 . S
C1215 H1203 0.950 . S
C1215 C1211 1.393 . S
C1215 C1214 1.391 . S
H1216 C1224 0.950 . S
H1217 C1229 0.950 . S
H1218 C1226 0.950 . S
H1219 C1228 0.950 . S
H1220 C1230 0.950 . S
H1221 C1232 0.950 . S
H1222 C1234 0.950 . S
H1223 C1235 0.950 . S
C1224 H1216 0.950 . S
C1224 C1225 1.386 1_655 S
C1224 C1226 1.391 . S
C1225 C1224 1.386 1_455 S
C1225 C1229 1.393 . S
C1226 H1218 0.950 . S
C1226 C1224 1.391 . S
C1226 C1227 1.400 1_655 S
C1227 C1226 1.400 1_455 S
C1227 C1228 1.398 . S
C1227 C1233 1.491 . S
C1228 H1219 0.950 . S
C1228 C1227 1.398 . S
C1228 C1229 1.391 . S
C1229 H1217 0.950 . S
C1229 C1225 1.393 . S
C1229 C1228 1.391 . S
C1230 H1220 0.950 . S
C1230 C1231 1.386 . S
C1230 C1232 1.391 . S
C1231 C1230 1.386 . S
C1231 C1235 1.393 1_455 S
C1232 H1221 0.950 . S
C1232 C1230 1.391 . S
C1232 C1233 1.400 . S
C1233 C1227 1.491 . S
C1233 C1232 1.400 . S
C1233 C1234 1.398 1_455 S
C1234 H1222 0.950 . S
C1234 C1233 1.398 1_655 S
C1234 C1235 1.391 . S
C1235 H1223 0.950 . S
C1235 C1231 1.393 1_655 S
C1235 C1234 1.391 . S
H1236 C1244 0.950 . S
H1237 C1249 0.950 . S
H1238 C1246 0.950 . S
H1239 C1248 0.950 . S
H1240 C1250 0.950 . S
H1241 C1252 0.950 . S
H1242 C1254 0.950 . S
H1243 C1255 0.950 . S
C1244 H1236 0.950 . S
C1244 C1245 1.386 . S
C1244 C1246 1.391 . S
C1245 C1244 1.386 . S
C1245 C1249 1.393 . S
C1246 H1238 0.950 . S
C1246 C1244 1.391 . S
C1246 C1247 1.400 . S
C1247 C1246 1.400 . S
C1247 C1248 1.398 . S
C1247 C1253 1.491 . S
C1248 H1239 0.950 . S
C1248 C1247 1.398 . S
C1248 C1249 1.391 . S
C1249 H1237 0.950 . S
C1249 C1245 1.393 . S
C1249 C1248 1.391 . S
C1250 H1240 0.950 . S
C1250 C1251 1.386 . S
C1250 C1252 1.391 . S
C1251 C1250 1.386 . S
C1251 C1255 1.393 . S
C1252 H1241 0.950 . S
C1252 C1250 1.391 . S
C1252 C1253 1.400 . S
C1253 C1247 1.491 . S
C1253 C1252 1.400 . S
C1253 C1254 1.398 . S
C1254 H1242 0.950 . S
C1254 C1253 1.398 . S
C1254 C1255 1.391 . S
C1255 H1243 0.950 . S
C1255 C1251 1.393 . S
C1255 C1254 1.391 . S
H1256 C1264 0.950 . S
H1257 C1269 0.950 . S
H1258 C1266 0.950 . S
H1259 C1268 0.950 . S
H1260 C1270 0.950 . S
H1261 C1272 0.950 . S
H1262 C1274 0.950 . S
H1263 C1275 0.950 . S
C1264 H1256 0.950 . S
C1264 C1265 1.386 . S
C1264 C1266 1.391 . S
C1265 C1264 1.386 . S
C1265 C1269 1.393 . S
C1266 H1258 0.950 . S
C1266 C1264 1.391 . S
C1266 C1267 1.400 . S
C1267 C1266 1.400 . S
C1267 C1268 1.398 . S
C1267 C1273 1.491 . S
C1268 H1259 0.950 . S
C1268 C1267 1.398 . S
C1268 C1269 1.391 . S
C1269 H1257 0.950 . S
C1269 C1265 1.393 . S
C1269 C1268 1.391 . S
C1270 H1260 0.950 . S
C1270 C1271 1.386 1_554 S
C1270 C1272 1.391 1_554 S
C1271 C1270 1.386 1_556 S
C1271 C1275 1.393 . S
C1272 H1261 0.950 . S
C1272 C1270 1.391 1_556 S
C1272 C1273 1.400 . S
C1273 C1267 1.491 . S
C1273 C1272 1.400 . S
C1273 C1274 1.398 . S
C1274 H1262 0.950 . S
C1274 C1273 1.398 . S
C1274 C1275 1.391 . S
C1275 H1263 0.950 . S
C1275 C1271 1.393 . S
C1275 C1274 1.391 . S
H1276 C1284 0.950 . S
H1277 C1289 0.950 . S
H1278 C1286 0.950 . S
H1279 C1288 0.950 . S
H1280 C1290 0.950 . S
H1281 C1292 0.950 . S
H1282 C1294 0.950 . S
H1283 C1295 0.950 . S
C1284 H1276 0.950 . S
C1284 C1285 1.386 . S
C1284 C1286 1.391 . S
C1285 C1284 1.386 . S
C1285 C1289 1.393 . S
C1286 H1278 0.950 . S
C1286 C1284 1.391 . S
C1286 C1287 1.400 . S
C1287 C1286 1.400 . S
C1287 C1288 1.398 . S
C1287 C1293 1.491 . S
C1288 H1279 0.950 . S
C1288 C1287 1.398 . S
C1288 C1289 1.391 . S
C1289 H1277 0.950 . S
C1289 C1285 1.393 . S
C1289 C1288 1.391 . S
C1290 H1280 0.950 . S
C1290 C1291 1.386 . S
C1290 C1292 1.391 . S
C1291 C1290 1.386 . S
C1291 C1295 1.393 . S
C1292 H1281 0.950 . S
C1292 C1290 1.391 . S
C1292 C1293 1.400 . S
C1293 C1287 1.491 . S
C1293 C1292 1.400 . S
C1293 C1294 1.398 . S
C1294 H1282 0.950 . S
C1294 C1293 1.398 . S
C1294 C1295 1.391 . S
C1295 H1283 0.950 . S
C1295 C1291 1.393 . S
C1295 C1294 1.391 . S
H1296 C1304 0.950 . S
H1297 C1309 0.950 . S
H1298 C1306 0.950 . S
H1299 C1308 0.950 . S
H1300 C1310 0.950 . S
H1301 C1312 0.950 . S
H1302 C1314 0.950 . S
H1303 C1315 0.950 . S
C1304 H1296 0.950 . S
C1304 C1305 1.386 . S
C1304 C1306 1.391 . S
C1305 C1304 1.386 . S
C1305 C1309 1.393 . S
C1306 H1298 0.950 . S
C1306 C1304 1.391 . S
C1306 C1307 1.400 . S
C1307 C1306 1.400 . S
C1307 C1308 1.398 . S
C1307 C1313 1.491 . S
C1308 H1299 0.950 . S
C1308 C1307 1.398 . S
C1308 C1309 1.391 . S
C1309 H1297 0.950 . S
C1309 C1305 1.393 . S
C1309 C1308 1.391 . S
C1310 H1300 0.950 . S
C1310 C1311 1.386 . S
C1310 C1312 1.391 . S
C1311 C1310 1.386 . S
C1311 C1315 1.393 . S
C1312 H1301 0.950 . S
C1312 C1310 1.391 . S
C1312 C1313 1.400 . S
C1313 C1307 1.491 . S
C1313 C1312 1.400 . S
C1313 C1314 1.398 . S
C1314 H1302 0.950 . S
C1314 C1313 1.398 . S
C1314 C1315 1.391 . S
C1315 H1303 0.950 . S
C1315 C1311 1.393 . S
C1315 C1314 1.391 . S
H1316 C1324 0.950 . S
H1317 C1329 0.950 . S
H1318 C1326 0.950 . S
H1319 C1328 0.950 . S
H1320 C1330 0.950 . S
H1321 C1332 0.950 . S
H1322 C1334 0.950 . S
H1323 C1335 0.950 . S
C1324 H1316 0.950 . S
C1324 C1325 1.386 . S
C1324 C1326 1.391 . S
C1325 C1324 1.386 . S
C1325 C1329 1.393 . S
C1326 H1318 0.950 . S
C1326 C1324 1.391 . S
C1326 C1327 1.400 . S
C1327 C1326 1.400 . S
C1327 C1328 1.398 . S
C1327 C1333 1.491 . S
C1328 H1319 0.950 . S
C1328 C1327 1.398 . S
C1328 C1329 1.391 . S
C1329 H1317 0.950 . S
C1329 C1325 1.393 . S
C1329 C1328 1.391 . S
C1330 H1320 0.950 . S
C1330 C1331 1.386 . S
C1330 C1332 1.391 . S
C1331 C1330 1.386 . S
C1331 C1335 1.393 . S
C1332 H1321 0.950 . S
C1332 C1330 1.391 . S
C1332 C1333 1.400 . S
C1333 C1327 1.491 . S
C1333 C1332 1.400 . S
C1333 C1334 1.398 . S
C1334 H1322 0.950 . S
C1334 C1333 1.398 . S
C1334 C1335 1.391 . S
C1335 H1323 0.950 . S
C1335 C1331 1.393 . S
C1335 C1334 1.391 . S
H1336 C1344 0.950 . S
H1337 C1349 0.950 . S
H1338 C1346 0.950 . S
H1339 C1348 0.950 . S
H1340 C1350 0.950 . S
H1341 C1352 0.950 . S
H1342 C1354 0.950 . S
H1343 C1355 0.950 . S
C1344 H1336 0.950 . S
C1344 C1345 1.386 . S
C1344 C1346 1.391 . S
C1345 C1344 1.386 . S
C1345 C1349 1.393 . S
C1346 H1338 0.950 . S
C1346 C1344 1.391 . S
C1346 C1347 1.400 . S
C1347 C1346 1.400 . S
C1347 C1348 1.398 . S
C1347 C1353 1.491 . S
C1348 H1339 0.950 . S
C1348 C1347 1.398 . S
C1348 C1349 1.391 . S
C1349 H1337 0.950 . S
C1349 C1345 1.393 . S
C1349 C1348 1.391 . S
C1350 H1340 0.950 . S
C1350 C1351 1.386 . S
C1350 C1352 1.391 . S
C1351 C1350 1.386 . S
C1351 C1355 1.393 . S
C1352 H1341 0.950 . S
C1352 C1350 1.391 . S
C1352 C1353 1.400 . S
C1353 C1347 1.491 . S
C1353 C1352 1.400 . S
C1353 C1354 1.398 . S
C1354 H1342 0.950 . S
C1354 C1353 1.398 . S
C1354 C1355 1.391 . S
C1355 H1343 0.950 . S
C1355 C1351 1.393 . S
C1355 C1354 1.391 . S
H1356 C1364 0.950 . S
H1357 C1369 0.950 . S
H1358 C1366 0.950 . S
H1359 C1368 0.950 . S
H1360 C1370 0.950 . S
H1361 C1372 0.950 . S
H1362 C1374 0.950 . S
H1363 C1375 0.950 . S
C1364 H1356 0.950 . S
C1364 C1365 1.386 . S
C1364 C1366 1.391 . S
C1365 C1364 1.386 . S
C1365 C1369 1.393 . S
C1366 H1358 0.950 . S
C1366 C1364 1.391 . S
C1366 C1367 1.400 . S
C1367 C1366 1.400 . S
C1367 C1368 1.398 . S
C1367 C1373 1.491 . S
C1368 H1359 0.950 . S
C1368 C1367 1.398 . S
C1368 C1369 1.391 . S
C1369 H1357 0.950 . S
C1369 C1365 1.393 . S
C1369 C1368 1.391 . S
C1370 H1360 0.950 . S
C1370 C1371 1.386 . S
C1370 C1372 1.391 . S
C1371 C1370 1.386 . S
C1371 C1375 1.393 . S
C1372 H1361 0.950 . S
C1372 C1370 1.391 . S
C1372 C1373 1.400 . S
C1373 C1367 1.491 . S
C1373 C1372 1.400 . S
C1373 C1374 1.398 . S
C1374 H1362 0.950 . S
C1374 C1373 1.398 . S
C1374 C1375 1.391 . S
C1375 H1363 0.950 . S
C1375 C1371 1.393 . S
C1375 C1374 1.391 . S
H1376 C1384 0.950 . S
H1377 C1389 0.950 . S
H1378 C1386 0.950 . S
H1379 C1388 0.950 . S
H1380 C1390 0.950 . S
H1381 C1392 0.950 . S
H1382 C1394 0.950 1_565 S
H1383 C1395 0.950 . S
C1384 H1376 0.950 . S
C1384 C1385 1.386 1_565 S
C1384 C1386 1.391 . S
C1385 C1384 1.386 1_545 S
C1385 C1389 1.393 . S
C1386 H1378 0.950 . S
C1386 C1384 1.391 . S
C1386 C1387 1.400 1_565 S
C1387 C1386 1.400 1_545 S
C1387 C1388 1.398 . S
C1387 C1393 1.491 . S
C1388 H1379 0.950 . S
C1388 C1387 1.398 . S
C1388 C1389 1.391 . S
C1389 H1377 0.950 . S
C1389 C1385 1.393 . S
C1389 C1388 1.391 . S
C1390 H1380 0.950 . S
C1390 C1391 1.386 . S
C1390 C1392 1.391 . S
C1391 C1390 1.386 . S
C1391 C1395 1.393 . S
C1392 H1381 0.950 . S
C1392 C1390 1.391 . S
C1392 C1393 1.400 . S
C1393 C1387 1.491 . S
C1393 C1392 1.400 . S
C1393 C1394 1.398 . S
C1394 H1382 0.950 1_545 S
C1394 C1393 1.398 . S
C1394 C1395 1.391 . S
C1395 H1383 0.950 . S
C1395 C1391 1.393 . S
C1395 C1394 1.391 . S
H1396 C1404 0.950 . S
H1397 C1409 0.950 . S
H1398 C1406 0.950 . S
H1399 C1408 0.950 . S
H1400 C1410 0.950 . S
H1401 C1412 0.950 . S
H1402 C1414 0.950 . S
H1403 C1415 0.950 . S
C1404 H1396 0.950 . S
C1404 C1405 1.386 . S
C1404 C1406 1.391 . S
C1405 C1404 1.386 . S
C1405 C1409 1.393 . S
C1406 H1398 0.950 . S
C1406 C1404 1.391 . S
C1406 C1407 1.400 . S
C1407 C1406 1.400 . S
C1407 C1408 1.398 . S
C1407 C1413 1.491 . S
C1408 H1399 0.950 . S
C1408 C1407 1.398 . S
C1408 C1409 1.391 . S
C1409 H1397 0.950 . S
C1409 C1405 1.393 . S
C1409 C1408 1.391 . S
C1410 H1400 0.950 . S
C1410 C1411 1.386 . S
C1410 C1412 1.391 . S
C1411 C1410 1.386 . S
C1411 C1415 1.393 . S
C1412 H1401 0.950 . S
C1412 C1410 1.391 . S
C1412 C1413 1.400 . S
C1413 C1407 1.491 . S
C1413 C1412 1.400 . S
C1413 C1414 1.398 . S
C1414 H1402 0.950 . S
C1414 C1413 1.398 . S
C1414 C1415 1.391 . S
C1415 H1403 0.950 . S
C1415 C1411 1.393 . S
C1415 C1414 1.391 . S
H1416 C1424 0.950 . S
H1417 C1429 0.950 . S
H1418 C1426 0.950 . S
H1419 C1428 0.950 . S
H1420 C1430 0.950 1_565 S
H1421 C1432 0.950 . S
H1422 C1434 0.950 . S
H1423 C1435 0.950 . S
C1424 H1416 0.950 . S
C1424 C1425 1.386 . S
C1424 C1426 1.391 . S
C1425 C1424 1.386 . S
C1425 C1429 1.393 . S
C1426 H1418 0.950 . S
C1426 C1424 1.391 . S
C1426 C1427 1.400 . S
C1427 C1426 1.400 . S
C1427 C1428 1.398 . S
C1427 C1433 1.491 . S
C1428 H1419 0.950 . S
C1428 C1427 1.398 . S
C1428 C1429 1.391 . S
C1429 H1417 0.950 . S
C1429 C1425 1.393 . S
C1429 C1428 1.391 . S
C1430 H1420 0.950 1_545 S
C1430 C1431 1.386 . S
C1430 C1432 1.391 . S
C1431 C1430 1.386 . S
C1431 C1435 1.393 . S
C1432 H1421 0.950 . S
C1432 C1430 1.391 . S
C1432 C1433 1.400 . S
C1433 C1427 1.491 . S
C1433 C1432 1.400 . S
C1433 C1434 1.398 . S
C1434 H1422 0.950 . S
C1434 C1433 1.398 . S
C1434 C1435 1.391 . S
C1435 H1423 0.950 . S
C1435 C1431 1.393 . S
C1435 C1434 1.391 . S
H1436 C1444 0.950 . S
H1437 C1449 0.950 . S
H1438 C1446 0.950 . S
H1439 C1448 0.950 . S
H1440 C1450 0.950 . S
H1441 C1452 0.950 . S
H1442 C1454 0.950 . S
H1443 C1455 0.950 . S
C1444 H1436 0.950 . S
C1444 C1445 1.386 . S
C1444 C1446 1.391 . S
C1445 C1444 1.386 . S
C1445 C1449 1.393 . S
C1446 H1438 0.950 . S
C1446 C1444 1.391 . S
C1446 C1447 1.400 . S
C1447 C1446 1.400 . S
C1447 C1448 1.398 . S
C1447 C1453 1.491 . S
C1448 H1439 0.950 . S
C1448 C1447 1.398 . S
C1448 C1449 1.391 . S
C1449 H1437 0.950 . S
C1449 C1445 1.393 . S
C1449 C1448 1.391 . S
C1450 H1440 0.950 . S
C1450 C1451 1.386 . S
C1450 C1452 1.391 . S
C1451 C1450 1.386 . S
C1451 C1455 1.393 . S
C1452 H1441 0.950 . S
C1452 C1450 1.391 . S
C1452 C1453 1.400 . S
C1453 C1447 1.491 . S
C1453 C1452 1.400 . S
C1453 C1454 1.398 . S
C1454 H1442 0.950 . S
C1454 C1453 1.398 . S
C1454 C1455 1.391 . S
C1455 H1443 0.950 . S
C1455 C1451 1.393 . S
C1455 C1454 1.391 . S
H1456 C1464 0.950 . S
H1457 C1469 0.950 . S
H1458 C1466 0.950 . S
H1459 C1468 0.950 . S
H1460 C1470 0.950 . S
H1461 C1472 0.950 . S
H1462 C1474 0.950 . S
H1463 C1475 0.950 . S
C1464 H1456 0.950 . S
C1464 C1465 1.386 . S
C1464 C1466 1.391 . S
C1465 C1464 1.386 . S
C1465 C1469 1.393 . S
C1466 H1458 0.950 . S
C1466 C1464 1.391 . S
C1466 C1467 1.400 . S
C1467 C1466 1.400 . S
C1467 C1468 1.398 . S
C1467 C1473 1.491 . S
C1468 H1459 0.950 . S
C1468 C1467 1.398 . S
C1468 C1469 1.391 . S
C1469 H1457 0.950 . S
C1469 C1465 1.393 . S
C1469 C1468 1.391 . S
C1470 H1460 0.950 . S
C1470 C1471 1.386 . S
C1470 C1472 1.391 . S
C1471 C1470 1.386 . S
C1471 C1475 1.393 . S
C1472 H1461 0.950 . S
C1472 C1470 1.391 . S
C1472 C1473 1.400 . S
C1473 C1467 1.491 . S
C1473 C1472 1.400 . S
C1473 C1474 1.398 . S
C1474 H1462 0.950 . S
C1474 C1473 1.398 . S
C1474 C1475 1.391 . S
C1475 H1463 0.950 . S
C1475 C1471 1.393 . S
C1475 C1474 1.391 . S
H1476 C1484 0.950 . S
H1477 C1489 0.950 . S
H1478 C1486 0.950 . S
H1479 C1488 0.950 . S
H1480 C1490 0.950 . S
H1481 C1492 0.950 . S
H1482 C1494 0.950 . S
H1483 C1495 0.950 . S
C1484 H1476 0.950 . S
C1484 C1485 1.386 . S
C1484 C1486 1.391 . S
C1485 C1484 1.386 . S
C1485 C1489 1.393 . S
C1486 H1478 0.950 . S
C1486 C1484 1.391 . S
C1486 C1487 1.400 . S
C1487 C1486 1.400 . S
C1487 C1488 1.398 . S
C1487 C1493 1.491 . S
C1488 H1479 0.950 . S
C1488 C1487 1.398 . S
C1488 C1489 1.391 . S
C1489 H1477 0.950 . S
C1489 C1485 1.393 . S
C1489 C1488 1.391 . S
C1490 H1480 0.950 . S
C1490 C1491 1.386 . S
C1490 C1492 1.391 . S
C1491 C1490 1.386 . S
C1491 C1495 1.393 . S
C1492 H1481 0.950 . S
C1492 C1490 1.391 . S
C1492 C1493 1.400 . S
C1493 C1487 1.491 . S
C1493 C1492 1.400 . S
C1493 C1494 1.398 . S
C1494 H1482 0.950 . S
C1494 C1493 1.398 . S
C1494 C1495 1.391 . S
C1495 H1483 0.950 . S
C1495 C1491 1.393 . S
C1495 C1494 1.391 . S
H1496 C1504 0.950 . S
H1497 C1509 0.950 . S
H1498 C1506 0.950 . S
H1499 C1508 0.950 . S
H1500 C1510 0.950 . S
H1501 C1512 0.950 . S
H1502 C1514 0.950 . S
H1503 C1515 0.950 . S
C1504 H1496 0.950 . S
C1504 C1505 1.386 . S
C1504 C1506 1.391 . S
C1505 C1504 1.386 . S
C1505 C1509 1.393 . S
C1506 H1498 0.950 . S
C1506 C1504 1.391 . S
C1506 C1507 1.400 . S
C1507 C1506 1.400 . S
C1507 C1508 1.398 . S
C1507 C1513 1.491 . S
C1508 H1499 0.950 . S
C1508 C1507 1.398 . S
C1508 C1509 1.391 . S
C1509 H1497 0.950 . S
C1509 C1505 1.393 . S
C1509 C1508 1.391 . S
C1510 H1500 0.950 . S
C1510 C1511 1.386 . S
C1510 C1512 1.391 . S
C1511 C1510 1.386 . S
C1511 C1515 1.393 . S
C1512 H1501 0.950 . S
C1512 C1510 1.391 . S
C1512 C1513 1.400 . S
C1513 C1507 1.491 . S
C1513 C1512 1.400 . S
C1513 C1514 1.398 . S
C1514 H1502 0.950 . S
C1514 C1513 1.398 . S
C1514 C1515 1.391 . S
C1515 H1503 0.950 . S
C1515 C1511 1.393 . S
C1515 C1514 1.391 . S
H1516 C1524 0.950 . S
H1517 C1529 0.950 . S
H1518 C1526 0.950 . S
H1519 C1528 0.950 . S
H1520 C1530 0.950 . S
H1521 C1532 0.950 . S
H1522 C1534 0.950 . S
H1523 C1535 0.950 . S
C1524 H1516 0.950 . S
C1524 C1525 1.386 . S
C1524 C1526 1.391 . S
C1525 C1524 1.386 . S
C1525 C1529 1.393 . S
C1526 H1518 0.950 . S
C1526 C1524 1.391 . S
C1526 C1527 1.400 . S
C1527 C1526 1.400 . S
C1527 C1528 1.398 . S
C1527 C1533 1.491 . S
C1528 H1519 0.950 . S
C1528 C1527 1.398 . S
C1528 C1529 1.391 . S
C1529 H1517 0.950 . S
C1529 C1525 1.393 . S
C1529 C1528 1.391 . S
C1530 H1520 0.950 . S
C1530 C1531 1.386 . S
C1530 C1532 1.391 . S
C1531 C1530 1.386 . S
C1531 C1535 1.393 . S
C1532 H1521 0.950 . S
C1532 C1530 1.391 . S
C1532 C1533 1.400 . S
C1533 C1527 1.491 . S
C1533 C1532 1.400 . S
C1533 C1534 1.398 . S
C1534 H1522 0.950 . S
C1534 C1533 1.398 . S
C1534 C1535 1.391 . S
C1535 H1523 0.950 . S
C1535 C1531 1.393 . S
C1535 C1534 1.391 . S
H1536 C1544 0.950 . S
H1537 C1549 0.950 . S
H1538 C1546 0.950 . S
H1539 C1548 0.950 . S
H1540 C1550 0.950 . S
H1541 C1552 0.950 . S
H1542 C1554 0.950 . S
H1543 C1555 0.950 . S
C1544 H1536 0.950 . S
C1544 C1545 1.386 . S
C1544 C1546 1.391 . S
C1545 C1544 1.386 . S
C1545 C1549 1.393 . S
C1546 H1538 0.950 . S
C1546 C1544 1.391 . S
C1546 C1547 1.400 . S
C1547 C1546 1.400 . S
C1547 C1548 1.398 . S
C1547 C1553 1.491 . S
C1548 H1539 0.950 . S
C1548 C1547 1.398 . S
C1548 C1549 1.391 . S
C1549 H1537 0.950 . S
C1549 C1545 1.393 . S
C1549 C1548 1.391 . S
C1550 H1540 0.950 . S
C1550 C1551 1.386 . S
C1550 C1552 1.391 . S
C1551 C1550 1.386 . S
C1551 C1555 1.393 . S
C1552 H1541 0.950 . S
C1552 C1550 1.391 . S
C1552 C1553 1.400 . S
C1553 C1547 1.491 . S
C1553 C1552 1.400 . S
C1553 C1554 1.398 . S
C1554 H1542 0.950 . S
C1554 C1553 1.398 . S
C1554 C1555 1.391 . S
C1555 H1543 0.950 . S
C1555 C1551 1.393 . S
C1555 C1554 1.391 . S
H1556 C1564 0.950 . S
H1557 C1569 0.950 . S
H1558 C1566 0.950 . S
H1559 C1568 0.950 . S
H1560 C1570 0.950 . S
H1561 C1572 0.950 . S
H1562 C1574 0.950 . S
H1563 C1575 0.967 . S
C1564 H1556 0.950 . S
C1564 C1565 1.386 . S
C1564 C1566 1.391 . S
C1565 C1564 1.386 . S
C1565 C1569 1.393 . S
C1566 H1558 0.950 . S
C1566 C1564 1.391 . S
C1566 C1567 1.400 . S
C1567 C1566 1.400 . S
C1567 C1568 1.398 . S
C1567 C1573 1.491 . S
C1568 H1559 0.950 . S
C1568 C1567 1.398 . S
C1568 C1569 1.391 . S
C1569 H1557 0.950 . S
C1569 C1565 1.393 . S
C1569 C1568 1.391 . S
C1570 H1560 0.950 . S
C1570 C1571 1.386 . S
C1570 C1572 1.391 . S
C1571 C1570 1.386 . S
C1571 C1575 1.393 1_565 S
C1572 H1561 0.950 . S
C1572 C1570 1.391 . S
C1572 C1573 1.400 . S
C1573 C1567 1.491 . S
C1573 C1572 1.400 . S
C1573 C1574 1.398 . S
C1574 H1562 0.950 . S
C1574 C1573 1.398 . S
C1574 C1575 1.373 1_565 S
C1575 H1563 0.967 . S
C1575 C1571 1.393 1_545 S
C1575 C1574 1.373 1_545 S
H1576 C1584 0.950 . S
H1577 C1589 0.950 . S
H1578 C1586 0.950 . S
H1579 C1588 0.950 . S
H1580 C1590 0.950 . S
H1581 C1592 0.950 . S
H1582 C1594 0.950 . S
H1583 C1595 0.950 . S
C1584 H1576 0.950 . S
C1584 C1585 1.386 . S
C1584 C1586 1.391 . S
C1585 C1584 1.386 . S
C1585 C1589 1.393 . S
C1586 H1578 0.950 . S
C1586 C1584 1.391 . S
C1586 C1587 1.400 . S
C1587 C1586 1.400 . S
C1587 C1588 1.398 . S
C1587 C1593 1.491 . S
C1588 H1579 0.950 . S
C1588 C1587 1.398 . S
C1588 C1589 1.391 . S
C1589 H1577 0.950 . S
C1589 C1585 1.393 . S
C1589 C1588 1.391 . S
C1590 H1580 0.950 . S
C1590 C1591 1.386 . S
C1590 C1592 1.391 . S
C1591 C1590 1.386 . S
C1591 C1595 1.393 . S
C1592 H1581 0.950 . S
C1592 C1590 1.391 . S
C1592 C1593 1.400 . S
C1593 C1587 1.491 . S
C1593 C1592 1.400 . S
C1593 C1594 1.398 . S
C1594 H1582 0.950 . S
C1594 C1593 1.398 . S
C1594 C1595 1.391 . S
C1595 H1583 0.950 . S
C1595 C1591 1.393 . S
C1595 C1594 1.391 . S
H1596 C1604 0.950 . S
H1597 C1609 0.950 . S
H1598 C1606 0.950 . S
H1599 C1608 0.950 . S
H1600 C1610 0.950 . S
H1601 C1612 0.950 . S
H1602 C1614 0.950 . S
H1603 C1615 0.950 . S
C1604 H1596 0.950 . S
C1604 C1605 1.386 . S
C1604 C1606 1.391 . S
C1605 C1604 1.386 . S
C1605 C1609 1.393 . S
C1606 H1598 0.950 . S
C1606 C1604 1.391 . S
C1606 C1607 1.400 . S
C1607 C1606 1.400 . S
C1607 C1608 1.398 . S
C1607 C1613 1.491 . S
C1608 H1599 0.950 . S
C1608 C1607 1.398 . S
C1608 C1609 1.391 . S
C1609 H1597 0.950 . S
C1609 C1605 1.393 . S
C1609 C1608 1.391 . S
C1610 H1600 0.950 . S
C1610 C1611 1.386 . S
C1610 C1612 1.391 . S
C1611 C1610 1.386 . S
C1611 C1615 1.393 . S
C1612 H1601 0.950 . S
C1612 C1610 1.391 . S
C1612 C1613 1.400 . S
C1613 C1607 1.491 . S
C1613 C1612 1.400 . S
C1613 C1614 1.398 . S
C1614 H1602 0.950 . S
C1614 C1613 1.398 . S
C1614 C1615 1.391 . S
C1615 H1603 0.950 . S
C1615 C1611 1.393 . S
C1615 C1614 1.391 . S
H1616 C1624 0.950 . S
H1617 C1629 0.950 . S
H1618 C1626 0.950 . S
H1619 C1628 0.950 . S
H1620 C1630 0.950 . S
H1621 C1632 0.950 . S
H1622 C1634 0.950 . S
H1623 C1635 0.950 . S
C1624 H1616 0.950 . S
C1624 C1625 1.386 . S
C1624 C1626 1.391 . S
C1625 C1624 1.386 . S
C1625 C1629 1.393 . S
C1626 H1618 0.950 . S
C1626 C1624 1.391 . S
C1626 C1627 1.400 . S
C1627 C1626 1.400 . S
C1627 C1628 1.398 . S
C1627 C1633 1.491 . S
C1628 H1619 0.950 . S
C1628 C1627 1.398 . S
C1628 C1629 1.391 . S
C1629 H1617 0.950 . S
C1629 C1625 1.393 . S
C1629 C1628 1.391 . S
C1630 H1620 0.950 . S
C1630 C1631 1.386 . S
C1630 C1632 1.391 . S
C1631 C1630 1.386 . S
C1631 C1635 1.393 . S
C1632 H1621 0.950 . S
C1632 C1630 1.391 . S
C1632 C1633 1.400 . S
C1633 C1627 1.491 . S
C1633 C1632 1.400 . S
C1633 C1634 1.398 . S
C1634 H1622 0.950 . S
C1634 C1633 1.398 . S
C1634 C1635 1.391 . S
C1635 H1623 0.950 . S
C1635 C1631 1.393 . S
C1635 C1634 1.391 . S
H1636 C1644 0.950 . S
H1637 C1649 0.950 . S
H1638 C1646 0.950 . S
H1639 C1648 0.950 . S
H1640 C1650 0.950 . S
H1641 C1652 0.950 . S
H1642 C1654 0.950 . S
H1643 C1655 0.950 . S
C1644 H1636 0.950 . S
C1644 C1645 1.386 . S
C1644 C1646 1.391 . S
C1645 C1644 1.386 . S
C1645 C1649 1.393 . S
C1646 H1638 0.950 . S
C1646 C1644 1.391 . S
C1646 C1647 1.400 . S
C1647 C1646 1.400 . S
C1647 C1648 1.398 . S
C1647 C1653 1.491 . S
C1648 H1639 0.950 . S
C1648 C1647 1.398 . S
C1648 C1649 1.391 . S
C1649 H1637 0.950 . S
C1649 C1645 1.393 . S
C1649 C1648 1.391 . S
C1650 H1640 0.950 . S
C1650 C1651 1.386 . S
C1650 C1652 1.391 . S
C1651 C1650 1.386 . S
C1651 C1655 1.393 . S
C1652 H1641 0.950 . S
C1652 C1650 1.391 . S
C1652 C1653 1.400 . S
C1653 C1647 1.491 . S
C1653 C1652 1.400 . S
C1653 C1654 1.398 . S
C1654 H1642 0.950 . S
C1654 C1653 1.398 . S
C1654 C1655 1.391 . S
C1655 H1643 0.950 . S
C1655 C1651 1.393 . S
C1655 C1654 1.391 . S
H1656 C1664 0.950 1_655 S
H1657 C1669 0.950 . S
H1658 C1666 0.950 1_655 S
H1659 C1668 0.950 . S
H1660 C1670 0.950 . S
H1661 C1672 0.950 1_554 S
H1662 C1674 0.950 1_655 S
H1663 C1675 0.938 1_655 S
C1664 H1656 0.950 1_455 S
C1664 C1665 1.386 . S
C1664 C1666 1.391 . S
C1665 C1664 1.386 . S
C1665 C1669 1.393 . S
C1666 H1658 0.950 1_455 S
C1666 C1664 1.391 . S
C1666 C1667 1.400 . S
C1667 C1666 1.400 . S
C1667 C1668 1.398 . S
C1667 C1673 1.491 . S
C1668 H1659 0.950 . S
C1668 C1667 1.398 . S
C1668 C1669 1.391 . S
C1669 H1657 0.950 . S
C1669 C1665 1.393 . S
C1669 C1668 1.391 . S
C1670 H1660 0.950 . S
C1670 C1671 1.386 . S
C1670 C1672 1.391 1_554 S
C1671 C1670 1.386 . S
C1671 C1675 1.399 1_554 S
C1672 H1661 0.950 1_556 S
C1672 C1670 1.391 1_556 S
C1672 C1673 1.400 . S
C1673 C1667 1.491 . S
C1673 C1672 1.400 . S
C1673 C1674 1.398 . S
C1674 H1662 0.950 1_455 S
C1674 C1673 1.398 . S
C1674 C1675 1.397 . S
C1675 H1663 0.938 1_455 S
C1675 C1671 1.399 1_556 S
C1675 C1674 1.397 . S
H1676 C1684 0.950 . S
H1677 C1689 0.950 . S
H1678 C1686 0.950 . S
H1679 C1688 0.950 . S
H1680 C1690 0.950 . S
H1681 C1692 0.950 . S
H1682 C1694 0.950 . S
H1683 C1695 0.950 . S
C1684 H1676 0.950 . S
C1684 C1685 1.386 . S
C1684 C1686 1.391 . S
C1685 C1684 1.386 . S
C1685 C1689 1.393 . S
C1686 H1678 0.950 . S
C1686 C1684 1.391 . S
C1686 C1687 1.400 . S
C1687 C1686 1.400 . S
C1687 C1688 1.398 . S
C1687 C1693 1.491 . S
C1688 H1679 0.950 . S
C1688 C1687 1.398 . S
C1688 C1689 1.391 . S
C1689 H1677 0.950 . S
C1689 C1685 1.393 . S
C1689 C1688 1.391 . S
C1690 H1680 0.950 . S
C1690 C1691 1.386 . S
C1690 C1692 1.391 . S
C1691 C1690 1.386 . S
C1691 C1695 1.393 . S
C1692 H1681 0.950 . S
C1692 C1690 1.391 . S
C1692 C1693 1.400 . S
C1693 C1687 1.491 . S
C1693 C1692 1.400 . S
C1693 C1694 1.398 . S
C1694 H1682 0.950 . S
C1694 C1693 1.398 . S
C1694 C1695 1.391 . S
C1695 H1683 0.950 . S
C1695 C1691 1.393 . S
C1695 C1694 1.391 . S
H1696 C1704 0.950 . S
H1697 C1709 0.950 . S
H1698 C1706 0.950 . S
H1699 C1708 0.950 . S
H1700 C1710 0.950 . S
H1701 C1712 0.950 . S
H1702 C1714 0.950 . S
H1703 C1715 0.950 . S
C1704 H1696 0.950 . S
C1704 C1705 1.386 . S
C1704 C1706 1.391 . S
C1705 C1704 1.386 . S
C1705 C1709 1.393 . S
C1706 H1698 0.950 . S
C1706 C1704 1.391 . S
C1706 C1707 1.400 . S
C1707 C1706 1.400 . S
C1707 C1708 1.398 . S
C1707 C1713 1.491 . S
C1708 H1699 0.950 . S
C1708 C1707 1.398 . S
C1708 C1709 1.391 . S
C1709 H1697 0.950 . S
C1709 C1705 1.393 . S
C1709 C1708 1.391 . S
C1710 H1700 0.950 . S
C1710 C1711 1.386 . S
C1710 C1712 1.391 . S
C1711 C1710 1.386 . S
C1711 C1715 1.393 . S
C1712 H1701 0.950 . S
C1712 C1710 1.391 . S
C1712 C1713 1.400 . S
C1713 C1707 1.491 . S
C1713 C1712 1.400 . S
C1713 C1714 1.398 . S
C1714 H1702 0.950 . S
C1714 C1713 1.398 . S
C1714 C1715 1.391 . S
C1715 H1703 0.950 . S
C1715 C1711 1.393 . S
C1715 C1714 1.391 . S
H1716 C1724 0.950 . S
H1717 C1729 0.950 . S
H1718 C1726 0.950 . S
H1719 C1728 0.950 . S
H1720 C1730 0.950 . S
H1721 C1732 0.950 . S
H1722 C1734 0.950 . S
H1723 C1735 0.950 . S
C1724 H1716 0.950 . S
C1724 C1725 1.386 . S
C1724 C1726 1.391 . S
C1725 C1724 1.386 . S
C1725 C1729 1.393 . S
C1726 H1718 0.950 . S
C1726 C1724 1.391 . S
C1726 C1727 1.400 . S
C1727 C1726 1.400 . S
C1727 C1728 1.398 . S
C1727 C1733 1.491 . S
C1728 H1719 0.950 . S
C1728 C1727 1.398 . S
C1728 C1729 1.391 . S
C1729 H1717 0.950 . S
C1729 C1725 1.393 . S
C1729 C1728 1.391 . S
C1730 H1720 0.950 . S
C1730 C1731 1.386 . S
C1730 C1732 1.391 . S
C1731 C1730 1.386 . S
C1731 C1735 1.393 . S
C1732 H1721 0.950 . S
C1732 C1730 1.391 . S
C1732 C1733 1.400 . S
C1733 C1727 1.491 . S
C1733 C1732 1.400 . S
C1733 C1734 1.398 . S
C1734 H1722 0.950 . S
C1734 C1733 1.398 . S
C1734 C1735 1.391 . S
C1735 H1723 0.950 . S
C1735 C1731 1.393 . S
C1735 C1734 1.391 . S
H1736 C1744 0.950 . S
H1737 C1749 0.950 . S
H1738 C1746 0.950 . S
H1739 C1748 0.950 . S
H1740 C1750 0.950 . S
H1741 C1752 0.950 . S
H1742 C1754 0.950 . S
H1743 C1755 0.950 . S
C1744 H1736 0.950 . S
C1744 C1745 1.386 . S
C1744 C1746 1.391 . S
C1745 C1744 1.386 . S
C1745 C1749 1.393 1_655 S
C1746 H1738 0.950 . S
C1746 C1744 1.391 . S
C1746 C1747 1.400 . S
C1747 C1746 1.400 . S
C1747 C1748 1.398 1_655 S
C1747 C1753 1.491 . S
C1748 H1739 0.950 . S
C1748 C1747 1.398 1_455 S
C1748 C1749 1.391 . S
C1749 H1737 0.950 . S
C1749 C1745 1.393 1_455 S
C1749 C1748 1.391 . S
C1750 H1740 0.950 . S
C1750 C1751 1.367 1_455 S
C1750 C1752 1.391 . S
C1751 C1750 1.367 1_655 S
C1751 C1755 1.422 . S
C1752 H1741 0.950 . S
C1752 C1750 1.391 . S
C1752 C1753 1.400 1_455 S
C1753 C1747 1.491 . S
C1753 C1752 1.400 1_655 S
C1753 C1754 1.398 . S
C1754 H1742 0.950 . S
C1754 C1753 1.398 . S
C1754 C1755 1.391 . S
C1755 H1743 0.950 . S
C1755 C1751 1.422 . S
C1755 C1754 1.391 . S
H1756 C1764 0.950 . S
H1757 C1769 0.950 . S
H1758 C1766 0.950 . S
H1759 C1768 0.950 . S
H1760 C1770 0.950 . S
H1761 C1772 0.950 . S
H1762 C1774 0.950 . S
H1763 C1775 0.950 . S
C1764 H1756 0.950 . S
C1764 C1765 1.386 . S
C1764 C1766 1.391 . S
C1765 C1764 1.386 . S
C1765 C1769 1.393 . S
C1766 H1758 0.950 . S
C1766 C1764 1.391 . S
C1766 C1767 1.400 . S
C1767 C1766 1.400 . S
C1767 C1768 1.398 . S
C1767 C1773 1.491 . S
C1768 H1759 0.950 . S
C1768 C1767 1.398 . S
C1768 C1769 1.391 . S
C1769 H1757 0.950 . S
C1769 C1765 1.393 . S
C1769 C1768 1.391 . S
C1770 H1760 0.950 . S
C1770 C1771 1.386 . S
C1770 C1772 1.391 . S
C1771 C1770 1.386 . S
C1771 C1775 1.393 . S
C1772 H1761 0.950 . S
C1772 C1770 1.391 . S
C1772 C1773 1.400 . S
C1773 C1767 1.491 . S
C1773 C1772 1.400 . S
C1773 C1774 1.398 . S
C1774 H1762 0.950 . S
C1774 C1773 1.398 . S
C1774 C1775 1.391 . S
C1775 H1763 0.950 . S
C1775 C1771 1.393 . S
C1775 C1774 1.391 . S
H1776 C1784 0.950 . S
H1777 C1789 0.950 . S
H1778 C1786 0.950 . S
H1779 C1788 0.950 . S
H1780 C1790 0.950 . S
H1781 C1792 0.950 . S
H1782 C1794 0.950 . S
H1783 C1795 0.950 . S
C1784 H1776 0.950 . S
C1784 C1785 1.386 . S
C1784 C1786 1.391 . S
C1785 C1784 1.386 . S
C1785 C1789 1.393 . S
C1786 H1778 0.950 . S
C1786 C1784 1.391 . S
C1786 C1787 1.400 . S
C1787 C1786 1.400 . S
C1787 C1788 1.398 . S
C1787 C1793 1.491 . S
C1788 H1779 0.950 . S
C1788 C1787 1.398 . S
C1788 C1789 1.391 . S
C1789 H1777 0.950 . S
C1789 C1785 1.393 . S
C1789 C1788 1.391 . S
C1790 H1780 0.950 . S
C1790 C1791 1.386 . S
C1790 C1792 1.391 . S
C1791 C1790 1.386 . S
C1791 C1795 1.393 . S
C1792 H1781 0.950 . S
C1792 C1790 1.391 . S
C1792 C1793 1.400 . S
C1793 C1787 1.491 . S
C1793 C1792 1.400 . S
C1793 C1794 1.398 . S
C1794 H1782 0.950 . S
C1794 C1793 1.398 . S
C1794 C1795 1.391 . S
C1795 H1783 0.950 . S
C1795 C1791 1.393 . S
C1795 C1794 1.391 . S
H1796 C1804 0.950 . S
H1797 C1809 0.950 . S
H1798 C1806 0.950 . S
H1799 C1808 0.950 . S
H1800 C1810 0.950 . S
H1801 C1812 0.950 . S
H1802 C1814 0.950 . S
H1803 C1815 0.950 . S
C1804 H1796 0.950 . S
C1804 C1805 1.386 . S
C1804 C1806 1.391 . S
C1805 C1804 1.386 . S
C1805 C1809 1.393 . S
C1806 H1798 0.950 . S
C1806 C1804 1.391 . S
C1806 C1807 1.400 . S
C1807 C1806 1.400 . S
C1807 C1808 1.398 . S
C1807 C1813 1.491 . S
C1808 H1799 0.950 . S
C1808 C1807 1.398 . S
C1808 C1809 1.391 . S
C1809 H1797 0.950 . S
C1809 C1805 1.393 . S
C1809 C1808 1.391 . S
C1810 H1800 0.950 . S
C1810 C1811 1.386 . S
C1810 C1812 1.391 . S
C1811 C1810 1.386 . S
C1811 C1815 1.393 . S
C1812 H1801 0.950 . S
C1812 C1810 1.391 . S
C1812 C1813 1.400 . S
C1813 C1807 1.491 . S
C1813 C1812 1.400 . S
C1813 C1814 1.398 . S
C1814 H1802 0.950 . S
C1814 C1813 1.398 . S
C1814 C1815 1.391 . S
C1815 H1803 0.950 . S
C1815 C1811 1.393 . S
C1815 C1814 1.391 . S
H1816 C1824 0.950 . S
H1817 C1829 0.950 . S
H1818 C1826 0.950 . S
H1819 C1828 0.950 . S
H1820 C1830 0.950 . S
H1821 C1832 0.950 . S
H1822 C1834 0.950 . S
H1823 C1835 0.950 . S
C1824 H1816 0.950 . S
C1824 C1825 1.386 . S
C1824 C1826 1.391 . S
C1825 C1824 1.386 . S
C1825 C1829 1.393 . S
C1826 H1818 0.950 . S
C1826 C1824 1.391 . S
C1826 C1827 1.400 . S
C1827 C1826 1.400 . S
C1827 C1828 1.398 . S
C1827 C1833 1.491 . S
C1828 H1819 0.950 . S
C1828 C1827 1.398 . S
C1828 C1829 1.391 . S
C1829 H1817 0.950 . S
C1829 C1825 1.393 . S
C1829 C1828 1.391 . S
C1830 H1820 0.950 . S
C1830 C1831 1.386 . S
C1830 C1832 1.391 . S
C1831 C1830 1.386 . S
C1831 C1835 1.393 . S
C1832 H1821 0.950 . S
C1832 C1830 1.391 . S
C1832 C1833 1.400 . S
C1833 C1827 1.491 . S
C1833 C1832 1.400 . S
C1833 C1834 1.398 . S
C1834 H1822 0.950 . S
C1834 C1833 1.398 . S
C1834 C1835 1.391 . S
C1835 H1823 0.950 . S
C1835 C1831 1.393 . S
C1835 C1834 1.391 . S
H1836 C1844 0.950 . S
H1837 C1849 0.950 . S
H1838 C1846 0.950 . S
H1839 C1848 0.950 . S
H1840 C1850 0.950 . S
H1841 C1852 0.950 . S
H1842 C1854 0.950 . S
H1843 C1855 0.950 . S
C1844 H1836 0.950 . S
C1844 C1845 1.386 . S
C1844 C1846 1.391 . S
C1845 C1844 1.386 . S
C1845 C1849 1.393 . S
C1846 H1838 0.950 . S
C1846 C1844 1.391 . S
C1846 C1847 1.400 . S
C1847 C1846 1.400 . S
C1847 C1848 1.398 . S
C1847 C1853 1.491 . S
C1848 H1839 0.950 . S
C1848 C1847 1.398 . S
C1848 C1849 1.391 . S
C1849 H1837 0.950 . S
C1849 C1845 1.393 . S
C1849 C1848 1.391 . S
C1850 H1840 0.950 . S
C1850 C1851 1.386 . S
C1850 C1852 1.391 . S
C1851 C1850 1.386 . S
C1851 C1855 1.393 . S
C1852 H1841 0.950 . S
C1852 C1850 1.391 . S
C1852 C1853 1.400 . S
C1853 C1847 1.491 . S
C1853 C1852 1.400 . S
C1853 C1854 1.398 . S
C1854 H1842 0.950 . S
C1854 C1853 1.398 . S
C1854 C1855 1.391 . S
C1855 H1843 0.950 . S
C1855 C1851 1.393 . S
C1855 C1854 1.391 . S
H1856 C1864 0.950 . S
H1857 C1869 0.950 . S
H1858 C1866 0.950 . S
H1859 C1868 0.950 . S
H1860 C1870 0.950 . S
H1861 C1872 0.950 . S
H1862 C1874 0.950 . S
H1863 C1875 0.950 . S
C1864 H1856 0.950 . S
C1864 C1865 1.386 . S
C1864 C1866 1.391 . S
C1865 C1864 1.386 . S
C1865 C1869 1.393 . S
C1866 H1858 0.950 . S
C1866 C1864 1.391 . S
C1866 C1867 1.400 . S
C1867 C1866 1.400 . S
C1867 C1868 1.398 . S
C1867 C1873 1.491 . S
C1868 H1859 0.950 . S
C1868 C1867 1.398 . S
C1868 C1869 1.391 . S
C1869 H1857 0.950 . S
C1869 C1865 1.393 . S
C1869 C1868 1.391 . S
C1870 H1860 0.950 . S
C1870 C1871 1.386 . S
C1870 C1872 1.391 . S
C1871 C1870 1.386 . S
C1871 C1875 1.393 . S
C1872 H1861 0.950 . S
C1872 C1870 1.391 . S
C1872 C1873 1.400 . S
C1873 C1867 1.491 . S
C1873 C1872 1.400 . S
C1873 C1874 1.398 . S
C1874 H1862 0.950 . S
C1874 C1873 1.398 . S
C1874 C1875 1.391 . S
C1875 H1863 0.950 . S
C1875 C1871 1.393 . S
C1875 C1874 1.391 . S
H1876 C1884 0.950 . S
H1877 C1889 0.950 . S
H1878 C1886 0.950 . S
H1879 C1888 0.950 . S
H1880 C1890 0.950 . S
H1881 C1892 0.950 . S
H1882 C1894 0.950 . S
H1883 C1895 0.950 . S
C1884 H1876 0.950 . S
C1884 C1885 1.386 . S
C1884 C1886 1.391 . S
C1885 C1884 1.386 . S
C1885 C1889 1.393 . S
C1886 H1878 0.950 . S
C1886 C1884 1.391 . S
C1886 C1887 1.400 . S
C1887 C1886 1.400 . S
C1887 C1888 1.398 . S
C1887 C1893 1.491 . S
C1888 H1879 0.950 . S
C1888 C1887 1.398 . S
C1888 C1889 1.391 . S
C1889 H1877 0.950 . S
C1889 C1885 1.393 . S
C1889 C1888 1.391 . S
C1890 H1880 0.950 . S
C1890 C1891 1.386 . S
C1890 C1892 1.391 . S
C1891 C1890 1.386 . S
C1891 C1895 1.393 . S
C1892 H1881 0.950 . S
C1892 C1890 1.391 . S
C1892 C1893 1.400 . S
C1893 C1887 1.491 . S
C1893 C1892 1.400 . S
C1893 C1894 1.398 . S
C1894 H1882 0.950 . S
C1894 C1893 1.398 . S
C1894 C1895 1.391 . S
C1895 H1883 0.950 . S
C1895 C1891 1.393 . S
C1895 C1894 1.391 . S
H1896 C1904 0.950 . S
H1897 C1909 0.950 . S
H1898 C1906 0.950 . S
H1899 C1908 0.950 . S
H1900 C1910 0.950 . S
H1901 C1912 0.950 . S
H1902 C1914 0.950 . S
H1903 C1915 0.950 . S
C1904 H1896 0.950 . S
C1904 C1905 1.386 . S
C1904 C1906 1.391 . S
C1905 C1904 1.386 . S
C1905 C1909 1.393 . S
C1906 H1898 0.950 . S
C1906 C1904 1.391 . S
C1906 C1907 1.400 . S
C1907 C1906 1.400 . S
C1907 C1908 1.398 . S
C1907 C1913 1.491 . S
C1908 H1899 0.950 . S
C1908 C1907 1.398 . S
C1908 C1909 1.391 . S
C1909 H1897 0.950 . S
C1909 C1905 1.393 . S
C1909 C1908 1.391 . S
C1910 H1900 0.950 . S
C1910 C1911 1.386 . S
C1910 C1912 1.391 . S
C1911 C1910 1.386 . S
C1911 C1915 1.393 . S
C1912 H1901 0.950 . S
C1912 C1910 1.391 . S
C1912 C1913 1.400 . S
C1913 C1907 1.491 . S
C1913 C1912 1.400 . S
C1913 C1914 1.398 . S
C1914 H1902 0.950 . S
C1914 C1913 1.398 . S
C1914 C1915 1.391 . S
C1915 H1903 0.950 . S
C1915 C1911 1.393 . S
C1915 C1914 1.391 . S
H1916 C1924 0.950 . S
H1917 C1929 0.950 . S
H1918 C1926 0.950 . S
H1919 C1928 0.950 . S
H1920 C1930 0.950 . S
H1921 C1932 0.950 . S
H1922 C1934 0.950 . S
H1923 C1935 0.950 . S
C1924 H1916 0.950 . S
C1924 C1925 1.386 . S
C1924 C1926 1.391 . S
C1925 C1924 1.386 . S
C1925 C1929 1.393 . S
C1926 H1918 0.950 . S
C1926 C1924 1.391 . S
C1926 C1927 1.400 . S
C1927 C1926 1.400 . S
C1927 C1928 1.398 . S
C1927 C1933 1.491 . S
C1928 H1919 0.950 . S
C1928 C1927 1.398 . S
C1928 C1929 1.391 . S
C1929 H1917 0.950 . S
C1929 C1925 1.393 . S
C1929 C1928 1.391 . S
C1930 H1920 0.950 . S
C1930 C1931 1.386 . S
C1930 C1932 1.391 . S
C1931 C1930 1.386 . S
C1931 C1935 1.393 . S
C1932 H1921 0.950 . S
C1932 C1930 1.391 . S
C1932 C1933 1.400 . S
C1933 C1927 1.491 . S
C1933 C1932 1.400 . S
C1933 C1934 1.398 . S
C1934 H1922 0.950 . S
C1934 C1933 1.398 . S
C1934 C1935 1.391 . S
C1935 H1923 0.950 . S
C1935 C1931 1.393 . S
C1935 C1934 1.391 . S
H1936 C1944 0.950 . S
H1937 C1949 0.950 . S
H1938 C1946 0.950 . S
H1939 C1948 0.950 . S
H1940 C1950 0.950 . S
H1941 C1952 0.950 . S
H1942 C1954 0.950 . S
H1943 C1955 0.950 . S
C1944 H1936 0.950 . S
C1944 C1945 1.386 . S
C1944 C1946 1.391 . S
C1945 C1944 1.386 . S
C1945 C1949 1.393 . S
C1946 H1938 0.950 . S
C1946 C1944 1.391 . S
C1946 C1947 1.400 . S
C1947 C1946 1.400 . S
C1947 C1948 1.398 . S
C1947 C1953 1.491 . S
C1948 H1939 0.950 . S
C1948 C1947 1.398 . S
C1948 C1949 1.391 . S
C1949 H1937 0.950 . S
C1949 C1945 1.393 . S
C1949 C1948 1.391 . S
C1950 H1940 0.950 . S
C1950 C1951 1.386 . S
C1950 C1952 1.391 . S
C1951 C1950 1.386 . S
C1951 C1955 1.393 . S
C1952 H1941 0.950 . S
C1952 C1950 1.391 . S
C1952 C1953 1.400 . S
C1953 C1947 1.491 . S
C1953 C1952 1.400 . S
C1953 C1954 1.398 . S
C1954 H1942 0.950 . S
C1954 C1953 1.398 . S
C1954 C1955 1.391 . S
C1955 H1943 0.950 . S
C1955 C1951 1.393 . S
C1955 C1954 1.391 . S
H1956 C1964 0.950 . S
H1957 C1969 0.950 . S
H1958 C1966 0.950 . S
H1959 C1968 0.950 . S
H1960 C1970 0.950 . S
H1961 C1972 0.950 . S
H1962 C1974 0.950 . S
H1963 C1975 0.950 . S
C1964 H1956 0.950 . S
C1964 C1965 1.386 . S
C1964 C1966 1.391 . S
C1965 C1964 1.386 . S
C1965 C1969 1.393 . S
C1966 H1958 0.950 . S
C1966 C1964 1.391 . S
C1966 C1967 1.400 . S
C1967 C1966 1.400 . S
C1967 C1968 1.398 . S
C1967 C1973 1.491 . S
C1968 H1959 0.950 . S
C1968 C1967 1.398 . S
C1968 C1969 1.391 . S
C1969 H1957 0.950 . S
C1969 C1965 1.393 . S
C1969 C1968 1.391 . S
C1970 H1960 0.950 . S
C1970 C1971 1.386 . S
C1970 C1972 1.391 . S
C1971 C1970 1.386 . S
C1971 C1975 1.393 . S
C1972 H1961 0.950 . S
C1972 C1970 1.391 . S
C1972 C1973 1.400 . S
C1973 C1967 1.491 . S
C1973 C1972 1.400 . S
C1973 C1974 1.398 . S
C1974 H1962 0.950 . S
C1974 C1973 1.398 . S
C1974 C1975 1.391 . S
C1975 H1963 0.950 . S
C1975 C1971 1.393 . S
C1975 C1974 1.391 . S
H1976 C1984 0.950 . S
H1977 C1989 0.950 . S
H1978 C1986 0.950 . S
H1979 C1988 0.950 . S
H1980 C1990 0.950 . S
H1981 C1992 0.950 . S
H1982 C1994 0.950 . S
H1983 C1995 0.950 . S
C1984 H1976 0.950 . S
C1984 C1985 1.386 . S
C1984 C1986 1.391 . S
C1985 C1984 1.386 . S
C1985 C1989 1.393 . S
C1986 H1978 0.950 . S
C1986 C1984 1.391 . S
C1986 C1987 1.400 . S
C1987 C1986 1.400 . S
C1987 C1988 1.398 . S
C1987 C1993 1.491 . S
C1988 H1979 0.950 . S
C1988 C1987 1.398 . S
C1988 C1989 1.391 . S
C1989 H1977 0.950 . S
C1989 C1985 1.393 . S
C1989 C1988 1.391 . S
C1990 H1980 0.950 . S
C1990 C1991 1.386 . S
C1990 C1992 1.391 . S
C1991 C1990 1.386 . S
C1991 C1995 1.393 . S
C1992 H1981 0.950 . S
C1992 C1990 1.391 . S
C1992 C1993 1.400 . S
C1993 C1987 1.491 . S
C1993 C1992 1.400 . S
C1993 C1994 1.398 . S
C1994 H1982 0.950 . S
C1994 C1993 1.398 . S
C1994 C1995 1.391 . S
C1995 H1983 0.950 . S
C1995 C1991 1.393 . S
C1995 C1994 1.391 . S
H1996 C2004 0.950 . S
H1997 C2009 0.950 . S
H1998 C2006 0.950 . S
H1999 C2008 0.950 . S
H2000 C2010 0.950 . S
H2001 C2012 0.950 1_545 S
H2002 C2014 0.950 . S
H2003 C2015 0.950 . S
C2004 H1996 0.950 . S
C2004 C2005 1.386 . S
C2004 C2006 1.391 . S
C2005 C2004 1.386 . S
C2005 C2009 1.393 . S
C2006 H1998 0.950 . S
C2006 C2004 1.391 . S
C2006 C2007 1.400 . S
C2007 C2006 1.400 . S
C2007 C2008 1.398 . S
C2007 C2013 1.491 . S
C2008 H1999 0.950 . S
C2008 C2007 1.398 . S
C2008 C2009 1.391 . S
C2009 H1997 0.950 . S
C2009 C2005 1.393 . S
C2009 C2008 1.391 . S
C2010 H2000 0.950 . S
C2010 C2011 1.379 1_545 S
C2010 C2012 1.391 1_545 S
C2011 C2010 1.379 1_565 S
C2011 C2015 1.404 . S
C2012 H2001 0.950 1_565 S
C2012 C2010 1.391 1_565 S
C2012 C2013 1.400 . S
C2013 C2007 1.491 . S
C2013 C2012 1.400 . S
C2013 C2014 1.398 . S
C2014 H2002 0.950 . S
C2014 C2013 1.398 . S
C2014 C2015 1.391 . S
C2015 H2003 0.950 . S
C2015 C2011 1.404 . S
C2015 C2014 1.391 . S
H2016 C2024 0.950 . S
H2017 C2029 0.950 . S
H2018 C2026 0.950 . S
H2019 C2028 0.950 . S
H2020 C2030 0.950 . S
H2021 C2032 0.950 . S
H2022 C2034 0.950 . S
H2023 C2035 0.950 . S
C2024 H2016 0.950 . S
C2024 C2025 1.386 . S
C2024 C2026 1.391 . S
C2025 C2024 1.386 . S
C2025 C2029 1.393 . S
C2026 H2018 0.950 . S
C2026 C2024 1.391 . S
C2026 C2027 1.400 . S
C2027 C2026 1.400 . S
C2027 C2028 1.398 . S
C2027 C2033 1.491 . S
C2028 H2019 0.950 . S
C2028 C2027 1.398 . S
C2028 C2029 1.391 . S
C2029 H2017 0.950 . S
C2029 C2025 1.393 . S
C2029 C2028 1.391 . S
C2030 H2020 0.950 . S
C2030 C2031 1.386 . S
C2030 C2032 1.391 . S
C2031 C2030 1.386 . S
C2031 C2035 1.393 . S
C2032 H2021 0.950 . S
C2032 C2030 1.391 . S
C2032 C2033 1.400 . S
C2033 C2027 1.491 . S
C2033 C2032 1.400 . S
C2033 C2034 1.398 . S
C2034 H2022 0.950 . S
C2034 C2033 1.398 . S
C2034 C2035 1.391 . S
C2035 H2023 0.950 . S
C2035 C2031 1.393 . S
C2035 C2034 1.391 . S
H2036 C2044 0.950 1_556 S
H2037 C2049 0.950 . S
H2038 C2046 0.950 . S
H2039 C2048 0.950 . S
H2040 C2050 0.950 . S
H2041 C2052 0.950 . S
H2042 C2054 0.950 . S
H2043 C2055 0.950 . S
C2044 H2036 0.950 1_554 S
C2044 C2045 1.386 . S
C2044 C2046 1.391 . S
C2045 C2044 1.386 . S
C2045 C2049 1.393 . S
C2046 H2038 0.950 . S
C2046 C2044 1.391 . S
C2046 C2047 1.400 . S
C2047 C2046 1.400 . S
C2047 C2048 1.398 . S
C2047 C2053 1.491 . S
C2048 H2039 0.950 . S
C2048 C2047 1.398 . S
C2048 C2049 1.391 . S
C2049 H2037 0.950 . S
C2049 C2045 1.393 . S
C2049 C2048 1.391 . S
C2050 H2040 0.950 . S
C2050 C2051 1.386 . S
C2050 C2052 1.391 . S
C2051 C2050 1.386 . S
C2051 C2055 1.393 . S
C2052 H2041 0.950 . S
C2052 C2050 1.391 . S
C2052 C2053 1.400 . S
C2053 C2047 1.491 . S
C2053 C2052 1.400 . S
C2053 C2054 1.398 . S
C2054 H2042 0.950 . S
C2054 C2053 1.398 . S
C2054 C2055 1.391 . S
C2055 H2043 0.950 . S
C2055 C2051 1.393 . S
C2055 C2054 1.391 . S
H2056 C2064 0.950 . S
H2057 C2069 0.950 . S
H2058 C2066 0.950 . S
H2059 C2068 0.950 . S
H2060 C2070 0.950 . S
H2061 C2072 0.950 . S
H2062 C2074 0.950 . S
H2063 C2075 0.950 . S
C2064 H2056 0.950 . S
C2064 C2065 1.386 . S
C2064 C2066 1.391 . S
C2065 C2064 1.386 . S
C2065 C2069 1.393 . S
C2066 H2058 0.950 . S
C2066 C2064 1.391 . S
C2066 C2067 1.400 . S
C2067 C2066 1.400 . S
C2067 C2068 1.398 . S
C2067 C2073 1.491 . S
C2068 H2059 0.950 . S
C2068 C2067 1.398 . S
C2068 C2069 1.391 . S
C2069 H2057 0.950 . S
C2069 C2065 1.393 . S
C2069 C2068 1.391 . S
C2070 H2060 0.950 . S
C2070 C2071 1.386 . S
C2070 C2072 1.391 . S
C2071 C2070 1.386 . S
C2071 C2075 1.393 . S
C2072 H2061 0.950 . S
C2072 C2070 1.391 . S
C2072 C2073 1.400 . S
C2073 C2067 1.491 . S
C2073 C2072 1.400 . S
C2073 C2074 1.398 . S
C2074 H2062 0.950 . S
C2074 C2073 1.398 . S
C2074 C2075 1.391 . S
C2075 H2063 0.950 . S
C2075 C2071 1.393 . S
C2075 C2074 1.391 . S
H2076 C2084 0.950 . S
H2077 C2089 0.950 . S
H2078 C2086 0.950 . S
H2079 C2088 0.950 . S
H2080 C2090 0.950 . S
H2081 C2092 0.950 . S
H2082 C2094 0.950 . S
H2083 C2095 0.950 . S
C2084 H2076 0.950 . S
C2084 C2085 1.386 . S
C2084 C2086 1.391 . S
C2085 C2084 1.386 . S
C2085 C2089 1.393 . S
C2086 H2078 0.950 . S
C2086 C2084 1.391 . S
C2086 C2087 1.400 . S
C2087 C2086 1.400 . S
C2087 C2088 1.398 . S
C2087 C2093 1.491 . S
C2088 H2079 0.950 . S
C2088 C2087 1.398 . S
C2088 C2089 1.391 . S
C2089 H2077 0.950 . S
C2089 C2085 1.393 . S
C2089 C2088 1.391 . S
C2090 H2080 0.950 . S
C2090 C2091 1.386 . S
C2090 C2092 1.391 . S
C2091 C2090 1.386 . S
C2091 C2095 1.393 . S
C2092 H2081 0.950 . S
C2092 C2090 1.391 . S
C2092 C2093 1.400 . S
C2093 C2087 1.491 . S
C2093 C2092 1.400 . S
C2093 C2094 1.398 . S
C2094 H2082 0.950 . S
C2094 C2093 1.398 . S
C2094 C2095 1.391 . S
C2095 H2083 0.950 . S
C2095 C2091 1.393 . S
C2095 C2094 1.391 . S
H2096 C2104 0.950 . S
H2097 C2109 0.950 . S
H2098 C2106 0.950 . S
H2099 C2108 0.950 . S
H2100 C2110 0.950 . S
H2101 C2112 0.950 . S
H2102 C2114 0.950 . S
H2103 C2115 0.950 . S
C2104 H2096 0.950 . S
C2104 C2105 1.386 . S
C2104 C2106 1.391 . S
C2105 C2104 1.386 . S
C2105 C2109 1.393 . S
C2106 H2098 0.950 . S
C2106 C2104 1.391 . S
C2106 C2107 1.400 . S
C2107 C2106 1.400 . S
C2107 C2108 1.398 . S
C2107 C2113 1.491 . S
C2108 H2099 0.950 . S
C2108 C2107 1.398 . S
C2108 C2109 1.391 . S
C2109 H2097 0.950 . S
C2109 C2105 1.393 . S
C2109 C2108 1.391 . S
C2110 H2100 0.950 . S
C2110 C2111 1.386 . S
C2110 C2112 1.391 . S
C2111 C2110 1.386 . S
C2111 C2115 1.393 . S
C2112 H2101 0.950 . S
C2112 C2110 1.391 . S
C2112 C2113 1.400 . S
C2113 C2107 1.491 . S
C2113 C2112 1.400 . S
C2113 C2114 1.398 . S
C2114 H2102 0.950 . S
C2114 C2113 1.398 . S
C2114 C2115 1.391 . S
C2115 H2103 0.950 . S
C2115 C2111 1.393 . S
C2115 C2114 1.391 . S
H2116 C2124 0.950 . S
H2117 C2129 0.950 . S
H2118 C2126 0.950 . S
H2119 C2128 0.950 . S
H2120 C2130 0.950 . S
H2121 C2132 0.950 . S
H2122 C2134 0.950 . S
H2123 C2135 0.950 . S
C2124 H2116 0.950 . S
C2124 C2125 1.386 . S
C2124 C2126 1.391 . S
C2125 C2124 1.386 . S
C2125 C2129 1.393 . S
C2126 H2118 0.950 . S
C2126 C2124 1.391 . S
C2126 C2127 1.400 . S
C2127 C2126 1.400 . S
C2127 C2128 1.398 . S
C2127 C2133 1.491 . S
C2128 H2119 0.950 . S
C2128 C2127 1.398 . S
C2128 C2129 1.391 . S
C2129 H2117 0.950 . S
C2129 C2125 1.393 . S
C2129 C2128 1.391 . S
C2130 H2120 0.950 . S
C2130 C2131 1.386 . S
C2130 C2132 1.391 . S
C2131 C2130 1.386 . S
C2131 C2135 1.393 . S
C2132 H2121 0.950 . S
C2132 C2130 1.391 . S
C2132 C2133 1.400 . S
C2133 C2127 1.491 . S
C2133 C2132 1.400 . S
C2133 C2134 1.398 . S
C2134 H2122 0.950 . S
C2134 C2133 1.398 . S
C2134 C2135 1.391 . S
C2135 H2123 0.950 . S
C2135 C2131 1.393 . S
C2135 C2134 1.391 . S
H2136 C2144 0.950 . S
H2137 C2149 0.950 . S
H2138 C2146 0.950 . S
H2139 C2148 0.950 . S
H2140 C2150 0.950 . S
H2141 C2152 0.950 . S
H2142 C2154 0.950 . S
H2143 C2155 0.950 . S
C2144 H2136 0.950 . S
C2144 C2145 1.386 1_655 S
C2144 C2146 1.391 . S
C2145 C2144 1.386 1_455 S
C2145 C2149 1.393 . S
C2146 H2138 0.950 . S
C2146 C2144 1.391 . S
C2146 C2147 1.400 1_655 S
C2147 C2146 1.400 1_455 S
C2147 C2148 1.398 . S
C2147 C2153 1.491 . S
C2148 H2139 0.950 . S
C2148 C2147 1.398 . S
C2148 C2149 1.391 . S
C2149 H2137 0.950 . S
C2149 C2145 1.393 . S
C2149 C2148 1.391 . S
C2150 H2140 0.950 . S
C2150 C2151 1.386 . S
C2150 C2152 1.391 . S
C2151 C2150 1.386 . S
C2151 C2155 1.393 1_455 S
C2152 H2141 0.950 . S
C2152 C2150 1.391 . S
C2152 C2153 1.400 . S
C2153 C2147 1.491 . S
C2153 C2152 1.400 . S
C2153 C2154 1.398 1_455 S
C2154 H2142 0.950 . S
C2154 C2153 1.398 1_655 S
C2154 C2155 1.391 . S
C2155 H2143 0.950 . S
C2155 C2151 1.393 1_655 S
C2155 C2154 1.391 . S
H2156 C2164 0.950 . S
H2157 C2169 0.950 . S
H2158 C2166 0.950 . S
H2159 C2168 0.950 . S
H2160 C2170 0.950 . S
H2161 C2172 0.950 . S
H2162 C2174 0.950 . S
H2163 C2175 0.950 . S
C2164 H2156 0.950 . S
C2164 C2165 1.386 . S
C2164 C2166 1.391 . S
C2165 C2164 1.386 . S
C2165 C2169 1.393 . S
C2166 H2158 0.950 . S
C2166 C2164 1.391 . S
C2166 C2167 1.400 . S
C2167 C2166 1.400 . S
C2167 C2168 1.398 . S
C2167 C2173 1.491 . S
C2168 H2159 0.950 . S
C2168 C2167 1.398 . S
C2168 C2169 1.391 . S
C2169 H2157 0.950 . S
C2169 C2165 1.393 . S
C2169 C2168 1.391 . S
C2170 H2160 0.950 . S
C2170 C2171 1.386 . S
C2170 C2172 1.391 . S
C2171 C2170 1.386 . S
C2171 C2175 1.393 . S
C2172 H2161 0.950 . S
C2172 C2170 1.391 . S
C2172 C2173 1.400 . S
C2173 C2167 1.491 . S
C2173 C2172 1.400 . S
C2173 C2174 1.398 . S
C2174 H2162 0.950 . S
C2174 C2173 1.398 . S
C2174 C2175 1.391 . S
C2175 H2163 0.950 . S
C2175 C2171 1.393 . S
C2175 C2174 1.391 . S
H2176 C2184 0.950 . S
H2177 C2189 0.950 . S
H2178 C2186 0.950 . S
H2179 C2188 0.950 . S
H2180 C2190 0.950 . S
H2181 C2192 0.968 . S
H2182 C2194 0.950 . S
H2183 C2195 0.950 . S
C2184 H2176 0.950 . S
C2184 C2185 1.386 . S
C2184 C2186 1.391 . S
C2185 C2184 1.386 . S
C2185 C2189 1.393 . S
C2186 H2178 0.950 . S
C2186 C2184 1.391 . S
C2186 C2187 1.400 . S
C2187 C2186 1.400 . S
C2187 C2188 1.398 . S
C2187 C2193 1.491 . S
C2188 H2179 0.950 . S
C2188 C2187 1.398 . S
C2188 C2189 1.391 . S
C2189 H2177 0.950 . S
C2189 C2185 1.393 . S
C2189 C2188 1.391 . S
C2190 H2180 0.950 . S
C2190 C2191 1.386 1_554 S
C2190 C2192 1.391 1_554 S
C2191 C2190 1.386 1_556 S
C2191 C2195 1.393 . S
C2192 H2181 0.968 . S
C2192 C2190 1.391 1_556 S
C2192 C2193 1.400 . S
C2193 C2187 1.491 . S
C2193 C2192 1.400 . S
C2193 C2194 1.398 . S
C2194 H2182 0.950 . S
C2194 C2193 1.398 . S
C2194 C2195 1.391 . S
C2195 H2183 0.950 . S
C2195 C2191 1.393 . S
C2195 C2194 1.391 . S
H2196 C2204 0.950 . S
H2197 C2209 0.950 . S
H2198 C2206 0.950 . S
H2199 C2208 0.950 . S
H2200 C2210 0.950 . S
H2201 C2212 0.950 . S
H2202 C2214 0.950 . S
H2203 C2215 0.950 . S
C2204 H2196 0.950 . S
C2204 C2205 1.386 . S
C2204 C2206 1.391 . S
C2205 C2204 1.386 . S
C2205 C2209 1.393 . S
C2206 H2198 0.950 . S
C2206 C2204 1.391 . S
C2206 C2207 1.400 . S
C2207 C2206 1.400 . S
C2207 C2208 1.398 . S
C2207 C2213 1.491 . S
C2208 H2199 0.950 . S
C2208 C2207 1.398 . S
C2208 C2209 1.391 . S
C2209 H2197 0.950 . S
C2209 C2205 1.393 . S
C2209 C2208 1.391 . S
C2210 H2200 0.950 . S
C2210 C2211 1.386 . S
C2210 C2212 1.391 . S
C2211 C2210 1.386 . S
C2211 C2215 1.393 . S
C2212 H2201 0.950 . S
C2212 C2210 1.391 . S
C2212 C2213 1.400 . S
C2213 C2207 1.491 . S
C2213 C2212 1.400 . S
C2213 C2214 1.398 . S
C2214 H2202 0.950 . S
C2214 C2213 1.398 . S
C2214 C2215 1.391 . S
C2215 H2203 0.950 . S
C2215 C2211 1.393 . S
C2215 C2214 1.391 . S
H2216 C2224 0.950 1_655 S
H2217 C2229 0.950 . S
H2218 C2226 0.950 1_655 S
H2219 C2228 0.950 . S
H2220 C2230 0.950 . S
H2221 C2232 0.950 . S
H2222 C2234 0.950 1_655 S
H2223 C2235 0.950 1_655 S
C2224 H2216 0.950 1_455 S
C2224 C2225 1.386 . S
C2224 C2226 1.391 . S
C2225 C2224 1.386 . S
C2225 C2229 1.393 . S
C2226 H2218 0.950 1_455 S
C2226 C2224 1.391 . S
C2226 C2227 1.400 . S
C2227 C2226 1.400 . S
C2227 C2228 1.398 . S
C2227 C2233 1.491 . S
C2228 H2219 0.950 . S
C2228 C2227 1.398 . S
C2228 C2229 1.391 . S
C2229 H2217 0.950 . S
C2229 C2225 1.393 . S
C2229 C2228 1.391 . S
C2230 H2220 0.950 . S
C2230 C2231 1.386 . S
C2230 C2232 1.391 . S
C2231 C2230 1.386 . S
C2231 C2235 1.393 . S
C2232 H2221 0.950 . S
C2232 C2230 1.391 . S
C2232 C2233 1.400 . S
C2233 C2227 1.491 . S
C2233 C2232 1.400 . S
C2233 C2234 1.398 . S
C2234 H2222 0.950 1_455 S
C2234 C2233 1.398 . S
C2234 C2235 1.391 . S
C2235 H2223 0.950 1_455 S
C2235 C2231 1.393 . S
C2235 C2234 1.391 . S
H2236 C2244 0.950 . S
H2237 C2249 0.950 . S
H2238 C2246 0.950 . S
H2239 C2248 0.950 . S
H2240 C2250 0.950 . S
H2241 C2252 0.950 . S
H2242 C2254 0.950 . S
H2243 C2255 0.950 . S
C2244 H2236 0.950 . S
C2244 C2245 1.386 . S
C2244 C2246 1.391 . S
C2245 C2244 1.386 . S
C2245 C2249 1.393 . S
C2246 H2238 0.950 . S
C2246 C2244 1.391 . S
C2246 C2247 1.400 . S
C2247 C2246 1.400 . S
C2247 C2248 1.398 . S
C2247 C2253 1.491 . S
C2248 H2239 0.950 . S
C2248 C2247 1.398 . S
C2248 C2249 1.391 . S
C2249 H2237 0.950 . S
C2249 C2245 1.393 . S
C2249 C2248 1.391 . S
C2250 H2240 0.950 . S
C2250 C2251 1.386 . S
C2250 C2252 1.391 . S
C2251 C2250 1.386 . S
C2251 C2255 1.393 . S
C2252 H2241 0.950 . S
C2252 C2250 1.391 . S
C2252 C2253 1.400 . S
C2253 C2247 1.491 . S
C2253 C2252 1.400 . S
C2253 C2254 1.398 . S
C2254 H2242 0.950 . S
C2254 C2253 1.398 . S
C2254 C2255 1.391 . S
C2255 H2243 0.950 . S
C2255 C2251 1.393 . S
C2255 C2254 1.391 . S
H2256 C2264 0.950 . S
H2257 C2269 0.950 . S
H2258 C2266 0.950 . S
H2259 C2268 0.950 . S
H2260 C2270 0.950 . S
H2261 C2272 0.950 . S
H2262 C2274 0.950 . S
H2263 C2275 0.950 . S
C2264 H2256 0.950 . S
C2264 C2265 1.386 . S
C2264 C2266 1.391 . S
C2265 C2264 1.386 . S
C2265 C2269 1.393 . S
C2266 H2258 0.950 . S
C2266 C2264 1.391 . S
C2266 C2267 1.400 . S
C2267 C2266 1.400 . S
C2267 C2268 1.398 . S
C2267 C2273 1.491 . S
C2268 H2259 0.950 . S
C2268 C2267 1.398 . S
C2268 C2269 1.391 . S
C2269 H2257 0.950 . S
C2269 C2265 1.393 . S
C2269 C2268 1.391 . S
C2270 H2260 0.950 . S
C2270 C2271 1.386 . S
C2270 C2272 1.391 . S
C2271 C2270 1.386 . S
C2271 C2275 1.393 . S
C2272 H2261 0.950 . S
C2272 C2270 1.391 . S
C2272 C2273 1.400 . S
C2273 C2267 1.491 . S
C2273 C2272 1.400 . S
C2273 C2274 1.398 . S
C2274 H2262 0.950 . S
C2274 C2273 1.398 . S
C2274 C2275 1.391 . S
C2275 H2263 0.950 . S
C2275 C2271 1.393 . S
C2275 C2274 1.391 . S
H2276 C2284 0.950 . S
H2277 C2289 0.950 . S
H2278 C2286 0.950 . S
H2279 C2288 0.950 . S
H2280 C2290 0.950 . S
H2281 C2292 0.950 . S
H2282 C2294 0.950 . S
H2283 C2295 0.950 . S
C2284 H2276 0.950 . S
C2284 C2285 1.386 . S
C2284 C2286 1.391 . S
C2285 C2284 1.386 . S
C2285 C2289 1.393 . S
C2286 H2278 0.950 . S
C2286 C2284 1.391 . S
C2286 C2287 1.400 . S
C2287 C2286 1.400 . S
C2287 C2288 1.398 . S
C2287 C2293 1.491 . S
C2288 H2279 0.950 . S
C2288 C2287 1.398 . S
C2288 C2289 1.391 . S
C2289 H2277 0.950 . S
C2289 C2285 1.393 . S
C2289 C2288 1.391 . S
C2290 H2280 0.950 . S
C2290 C2291 1.386 . S
C2290 C2292 1.391 . S
C2291 C2290 1.386 . S
C2291 C2295 1.393 . S
C2292 H2281 0.950 . S
C2292 C2290 1.391 . S
C2292 C2293 1.400 . S
C2293 C2287 1.491 . S
C2293 C2292 1.400 . S
C2293 C2294 1.398 . S
C2294 H2282 0.950 . S
C2294 C2293 1.398 . S
C2294 C2295 1.391 . S
C2295 H2283 0.950 . S
C2295 C2291 1.393 . S
C2295 C2294 1.391 . S
H2296 C2304 0.950 . S
H2297 C2309 0.950 . S
H2298 C2306 0.950 . S
H2299 C2308 0.950 . S
H2300 C2310 0.950 . S
H2301 C2312 0.950 . S
H2302 C2314 0.950 . S
H2303 C2315 0.950 1_455 S
C2304 H2296 0.950 . S
C2304 C2305 1.386 . S
C2304 C2306 1.391 . S
C2305 C2304 1.386 . S
C2305 C2309 1.393 . S
C2306 H2298 0.950 . S
C2306 C2304 1.391 . S
C2306 C2307 1.400 . S
C2307 C2306 1.400 . S
C2307 C2308 1.398 . S
C2307 C2313 1.491 . S
C2308 H2299 0.950 . S
C2308 C2307 1.398 . S
C2308 C2309 1.391 . S
C2309 H2297 0.950 . S
C2309 C2305 1.393 . S
C2309 C2308 1.391 . S
C2310 H2300 0.950 . S
C2310 C2311 1.386 . S
C2310 C2312 1.391 . S
C2311 C2310 1.386 . S
C2311 C2315 1.393 . S
C2312 H2301 0.950 . S
C2312 C2310 1.391 . S
C2312 C2313 1.400 . S
C2313 C2307 1.491 . S
C2313 C2312 1.400 . S
C2313 C2314 1.398 . S
C2314 H2302 0.950 . S
C2314 C2313 1.398 . S
C2314 C2315 1.391 . S
C2315 H2303 0.950 1_655 S
C2315 C2311 1.393 . S
C2315 C2314 1.391 . S
H2316 C2324 0.950 . S
H2317 C2329 0.950 . S
H2318 C2326 0.950 . S
H2319 C2328 0.950 . S
H2320 C2330 0.950 . S
H2321 C2332 0.950 . S
H2322 C2334 0.950 . S
H2323 C2335 0.950 . S
C2324 H2316 0.950 . S
C2324 C2325 1.386 . S
C2324 C2326 1.391 . S
C2325 C2324 1.386 . S
C2325 C2329 1.393 . S
C2326 H2318 0.950 . S
C2326 C2324 1.391 . S
C2326 C2327 1.400 . S
C2327 C2326 1.400 . S
C2327 C2328 1.398 . S
C2327 C2333 1.491 . S
C2328 H2319 0.950 . S
C2328 C2327 1.398 . S
C2328 C2329 1.391 . S
C2329 H2317 0.950 . S
C2329 C2325 1.393 . S
C2329 C2328 1.391 . S
C2330 H2320 0.950 . S
C2330 C2331 1.386 . S
C2330 C2332 1.391 . S
C2331 C2330 1.386 . S
C2331 C2335 1.393 . S
C2332 H2321 0.950 . S
C2332 C2330 1.391 . S
C2332 C2333 1.400 . S
C2333 C2327 1.491 . S
C2333 C2332 1.400 . S
C2333 C2334 1.398 . S
C2334 H2322 0.950 . S
C2334 C2333 1.398 . S
C2334 C2335 1.391 . S
C2335 H2323 0.950 . S
C2335 C2331 1.393 . S
C2335 C2334 1.391 . S
H2336 C2344 0.950 . S
H2337 C2349 0.950 . S
H2338 C2346 0.950 . S
H2339 C2348 0.950 . S
H2340 C2350 0.950 . S
H2341 C2352 0.950 . S
H2342 C2354 0.950 . S
H2343 C2355 0.950 . S
C2344 H2336 0.950 . S
C2344 C2345 1.386 . S
C2344 C2346 1.391 . S
C2345 C2344 1.386 . S
C2345 C2349 1.393 . S
C2346 H2338 0.950 . S
C2346 C2344 1.391 . S
C2346 C2347 1.400 . S
C2347 C2346 1.400 . S
C2347 C2348 1.398 . S
C2347 C2353 1.491 . S
C2348 H2339 0.950 . S
C2348 C2347 1.398 . S
C2348 C2349 1.391 . S
C2349 H2337 0.950 . S
C2349 C2345 1.393 . S
C2349 C2348 1.391 . S
C2350 H2340 0.950 . S
C2350 C2351 1.386 . S
C2350 C2352 1.391 . S
C2351 C2350 1.386 . S
C2351 C2355 1.393 . S
C2352 H2341 0.950 . S
C2352 C2350 1.391 . S
C2352 C2353 1.400 . S
C2353 C2347 1.491 . S
C2353 C2352 1.400 . S
C2353 C2354 1.398 . S
C2354 H2342 0.950 . S
C2354 C2353 1.398 . S
C2354 C2355 1.391 . S
C2355 H2343 0.950 . S
C2355 C2351 1.393 . S
C2355 C2354 1.391 . S
H2356 C2364 0.950 . S
H2357 C2369 0.950 . S
H2358 C2366 0.950 . S
H2359 C2368 0.950 . S
H2360 C2370 0.950 . S
H2361 C2372 0.950 . S
H2362 C2374 0.950 . S
H2363 C2375 0.950 . S
C2364 H2356 0.950 . S
C2364 C2365 1.386 . S
C2364 C2366 1.391 . S
C2365 C2364 1.386 . S
C2365 C2369 1.393 . S
C2366 H2358 0.950 . S
C2366 C2364 1.391 . S
C2366 C2367 1.400 . S
C2367 C2366 1.400 . S
C2367 C2368 1.398 . S
C2367 C2373 1.491 . S
C2368 H2359 0.950 . S
C2368 C2367 1.398 . S
C2368 C2369 1.391 . S
C2369 H2357 0.950 . S
C2369 C2365 1.393 . S
C2369 C2368 1.391 . S
C2370 H2360 0.950 . S
C2370 C2371 1.386 . S
C2370 C2372 1.391 . S
C2371 C2370 1.386 . S
C2371 C2375 1.393 . S
C2372 H2361 0.950 . S
C2372 C2370 1.391 . S
C2372 C2373 1.400 . S
C2373 C2367 1.491 . S
C2373 C2372 1.400 . S
C2373 C2374 1.398 . S
C2374 H2362 0.950 . S
C2374 C2373 1.398 . S
C2374 C2375 1.391 . S
C2375 H2363 0.950 . S
C2375 C2371 1.393 . S
C2375 C2374 1.391 . S
H2376 C2384 0.950 . S
H2377 C2389 0.950 . S
H2378 C2386 0.950 . S
H2379 C2388 0.950 . S
H2380 C2390 0.950 1_455 S
H2381 C2392 0.950 . S
H2382 C2394 0.950 . S
H2383 C2395 0.950 . S
C2384 H2376 0.950 . S
C2384 C2385 1.386 . S
C2384 C2386 1.391 . S
C2385 C2384 1.386 . S
C2385 C2389 1.393 . S
C2386 H2378 0.950 . S
C2386 C2384 1.391 . S
C2386 C2387 1.400 . S
C2387 C2386 1.400 . S
C2387 C2388 1.398 . S
C2387 C2393 1.491 . S
C2388 H2379 0.950 . S
C2388 C2387 1.398 . S
C2388 C2389 1.391 . S
C2389 H2377 0.950 . S
C2389 C2385 1.393 . S
C2389 C2388 1.391 . S
C2390 H2380 0.950 1_655 S
C2390 C2391 1.386 . S
C2390 C2392 1.391 . S
C2391 C2390 1.386 . S
C2391 C2395 1.393 . S
C2392 H2381 0.950 . S
C2392 C2390 1.391 . S
C2392 C2393 1.400 . S
C2393 C2387 1.491 . S
C2393 C2392 1.400 . S
C2393 C2394 1.398 . S
C2394 H2382 0.950 . S
C2394 C2393 1.398 . S
C2394 C2395 1.391 . S
C2395 H2383 0.950 . S
C2395 C2391 1.393 . S
C2395 C2394 1.391 . S
H2396 C2404 0.950 . S
H2397 C2409 0.950 . S
H2398 C2406 0.950 . S
H2399 C2408 0.950 . S
H2400 C2410 0.950 . S
H2401 C2412 0.950 . S
H2402 C2414 0.950 . S
H2403 C2415 0.950 . S
C2404 H2396 0.950 . S
C2404 C2405 1.386 . S
C2404 C2406 1.391 . S
C2405 C2404 1.386 . S
C2405 C2409 1.393 . S
C2406 H2398 0.950 . S
C2406 C2404 1.391 . S
C2406 C2407 1.400 . S
C2407 C2406 1.400 . S
C2407 C2408 1.398 . S
C2407 C2413 1.491 . S
C2408 H2399 0.950 . S
C2408 C2407 1.398 . S
C2408 C2409 1.391 . S
C2409 H2397 0.950 . S
C2409 C2405 1.393 . S
C2409 C2408 1.391 . S
C2410 H2400 0.950 . S
C2410 C2411 1.386 . S
C2410 C2412 1.391 . S
C2411 C2410 1.386 . S
C2411 C2415 1.393 . S
C2412 H2401 0.950 . S
C2412 C2410 1.391 . S
C2412 C2413 1.400 . S
C2413 C2407 1.491 . S
C2413 C2412 1.400 . S
C2413 C2414 1.398 . S
C2414 H2402 0.950 . S
C2414 C2413 1.398 . S
C2414 C2415 1.391 . S
C2415 H2403 0.950 . S
C2415 C2411 1.393 . S
C2415 C2414 1.391 . S
H2416 C2424 0.950 . S
H2417 C2429 0.950 . S
H2418 C2426 0.950 . S
H2419 C2428 0.950 . S
H2420 C2430 0.950 . S
H2421 C2432 0.950 . S
H2422 C2434 0.950 . S
H2423 C2435 0.950 . S
C2424 H2416 0.950 . S
C2424 C2425 1.386 . S
C2424 C2426 1.391 . S
C2425 C2424 1.386 . S
C2425 C2429 1.393 . S
C2426 H2418 0.950 . S
C2426 C2424 1.391 . S
C2426 C2427 1.400 . S
C2427 C2426 1.400 . S
C2427 C2428 1.398 . S
C2427 C2433 1.491 . S
C2428 H2419 0.950 . S
C2428 C2427 1.398 . S
C2428 C2429 1.391 . S
C2429 H2417 0.950 . S
C2429 C2425 1.393 . S
C2429 C2428 1.391 . S
C2430 H2420 0.950 . S
C2430 C2431 1.386 . S
C2430 C2432 1.391 . S
C2431 C2430 1.386 . S
C2431 C2435 1.393 . S
C2432 H2421 0.950 . S
C2432 C2430 1.391 . S
C2432 C2433 1.400 . S
C2433 C2427 1.491 . S
C2433 C2432 1.400 . S
C2433 C2434 1.398 . S
C2434 H2422 0.950 . S
C2434 C2433 1.398 . S
C2434 C2435 1.391 . S
C2435 H2423 0.950 . S
C2435 C2431 1.393 . S
C2435 C2434 1.391 . S
H2436 C2444 0.950 . S
H2437 C2449 0.950 . S
H2438 C2446 0.950 . S
H2439 C2448 0.950 . S
H2440 C2450 0.950 . S
H2441 C2452 0.950 . S
H2442 C2454 0.950 . S
H2443 C2455 0.950 . S
C2444 H2436 0.950 . S
C2444 C2445 1.386 . S
C2444 C2446 1.391 . S
C2445 C2444 1.386 . S
C2445 C2449 1.393 . S
C2446 H2438 0.950 . S
C2446 C2444 1.391 . S
C2446 C2447 1.400 . S
C2447 C2446 1.400 . S
C2447 C2448 1.398 . S
C2447 C2453 1.491 . S
C2448 H2439 0.950 . S
C2448 C2447 1.398 . S
C2448 C2449 1.391 . S
C2449 H2437 0.950 . S
C2449 C2445 1.393 . S
C2449 C2448 1.391 . S
C2450 H2440 0.950 . S
C2450 C2451 1.386 1_545 S
C2450 C2452 1.391 1_545 S
C2451 C2450 1.386 1_565 S
C2451 C2455 1.393 . S
C2452 H2441 0.950 . S
C2452 C2450 1.391 1_565 S
C2452 C2453 1.400 . S
C2453 C2447 1.491 . S
C2453 C2452 1.400 . S
C2453 C2454 1.398 . S
C2454 H2442 0.950 . S
C2454 C2453 1.398 . S
C2454 C2455 1.391 . S
C2455 H2443 0.950 . S
C2455 C2451 1.393 . S
C2455 C2454 1.391 . S
H2456 C2464 0.950 . S
H2457 C2469 0.950 . S
H2458 C2466 0.950 . S
H2459 C2468 0.950 . S
H2460 C2470 0.950 . S
H2461 C2472 0.950 . S
H2462 C2474 0.950 . S
H2463 C2475 0.950 . S
C2464 H2456 0.950 . S
C2464 C2465 1.386 . S
C2464 C2466 1.391 . S
C2465 C2464 1.386 . S
C2465 C2469 1.393 . S
C2466 H2458 0.950 . S
C2466 C2464 1.391 . S
C2466 C2467 1.400 . S
C2467 C2466 1.400 . S
C2467 C2468 1.398 . S
C2467 C2473 1.491 . S
C2468 H2459 0.950 . S
C2468 C2467 1.398 . S
C2468 C2469 1.391 . S
C2469 H2457 0.950 . S
C2469 C2465 1.393 . S
C2469 C2468 1.391 . S
C2470 H2460 0.950 . S
C2470 C2471 1.386 . S
C2470 C2472 1.391 . S
C2471 C2470 1.386 . S
C2471 C2475 1.393 . S
C2472 H2461 0.950 . S
C2472 C2470 1.391 . S
C2472 C2473 1.400 . S
C2473 C2467 1.491 . S
C2473 C2472 1.400 . S
C2473 C2474 1.398 . S
C2474 H2462 0.950 . S
C2474 C2473 1.398 . S
C2474 C2475 1.391 . S
C2475 H2463 0.950 . S
C2475 C2471 1.393 . S
C2475 C2474 1.391 . S
H2476 C2484 0.950 . S
H2477 C2489 0.950 . S
H2478 C2486 0.950 . S
H2479 C2488 0.950 . S
H2480 C2490 0.950 . S
H2481 C2492 0.950 . S
H2482 C2494 0.950 . S
H2483 C2495 0.950 . S
C2484 H2476 0.950 . S
C2484 C2485 1.386 . S
C2484 C2486 1.391 . S
C2485 C2484 1.386 . S
C2485 C2489 1.393 1_554 S
C2486 H2478 0.950 . S
C2486 C2484 1.391 . S
C2486 C2487 1.400 . S
C2487 C2486 1.400 . S
C2487 C2488 1.398 1_554 S
C2487 C2493 1.491 . S
C2488 H2479 0.950 . S
C2488 C2487 1.398 1_556 S
C2488 C2489 1.391 . S
C2489 H2477 0.950 . S
C2489 C2485 1.393 1_556 S
C2489 C2488 1.391 . S
C2490 H2480 0.950 . S
C2490 C2491 1.386 1_556 S
C2490 C2492 1.391 . S
C2491 C2490 1.386 1_554 S
C2491 C2495 1.393 . S
C2492 H2481 0.950 . S
C2492 C2490 1.391 . S
C2492 C2493 1.400 1_556 S
C2493 C2487 1.491 . S
C2493 C2492 1.400 1_554 S
C2493 C2494 1.398 . S
C2494 H2482 0.950 . S
C2494 C2493 1.398 . S
C2494 C2495 1.391 . S
C2495 H2483 0.950 . S
C2495 C2491 1.393 . S
C2495 C2494 1.391 . S
H2496 C2504 0.950 . S
H2497 C2509 0.950 . S
H2498 C2506 0.950 . S
H2499 C2508 0.950 . S
H2500 C2510 0.950 . S
H2501 C2512 0.950 . S
H2502 C2514 0.950 . S
H2503 C2515 0.950 . S
C2504 H2496 0.950 . S
C2504 C2505 1.386 . S
C2504 C2506 1.391 . S
C2505 C2504 1.386 . S
C2505 C2509 1.393 . S
C2506 H2498 0.950 . S
C2506 C2504 1.391 . S
C2506 C2507 1.400 . S
C2507 C2506 1.400 . S
C2507 C2508 1.398 . S
C2507 C2513 1.491 . S
C2508 H2499 0.950 . S
C2508 C2507 1.398 . S
C2508 C2509 1.391 . S
C2509 H2497 0.950 . S
C2509 C2505 1.393 . S
C2509 C2508 1.391 . S
C2510 H2500 0.950 . S
C2510 C2511 1.386 . S
C2510 C2512 1.391 . S
C2511 C2510 1.386 . S
C2511 C2515 1.393 . S
C2512 H2501 0.950 . S
C2512 C2510 1.391 . S
C2512 C2513 1.400 . S
C2513 C2507 1.491 . S
C2513 C2512 1.400 . S
C2513 C2514 1.398 . S
C2514 H2502 0.950 . S
C2514 C2513 1.398 . S
C2514 C2515 1.391 . S
C2515 H2503 0.950 . S
C2515 C2511 1.393 . S
C2515 C2514 1.391 . S
H2516 C2524 0.967 . S
H2517 C2529 0.950 . S
H2518 C2526 0.950 1_556 S
H2519 C2528 0.950 . S
H2520 C2530 0.950 . S
H2521 C2532 0.950 . S
H2522 C2534 0.950 1_556 S
H2523 C2535 0.950 . S
C2524 H2516 0.967 . S
C2524 C2525 1.386 . S
C2524 C2526 1.391 . S
C2525 C2524 1.386 . S
C2525 C2529 1.393 . S
C2526 H2518 0.950 1_554 S
C2526 C2524 1.391 . S
C2526 C2527 1.400 . S
C2527 C2526 1.400 . S
C2527 C2528 1.398 . S
C2527 C2533 1.491 . S
C2528 H2519 0.950 . S
C2528 C2527 1.398 . S
C2528 C2529 1.391 . S
C2529 H2517 0.950 . S
C2529 C2525 1.393 . S
C2529 C2528 1.391 . S
C2530 H2520 0.950 . S
C2530 C2531 1.386 . S
C2530 C2532 1.391 . S
C2531 C2530 1.386 . S
C2531 C2535 1.393 1_554 S
C2532 H2521 0.950 . S
C2532 C2530 1.391 . S
C2532 C2533 1.400 . S
C2533 C2527 1.491 . S
C2533 C2532 1.400 . S
C2533 C2534 1.398 . S
C2534 H2522 0.950 1_554 S
C2534 C2533 1.398 . S
C2534 C2535 1.391 1_554 S
C2535 H2523 0.950 . S
C2535 C2531 1.393 1_556 S
C2535 C2534 1.391 1_556 S
H2536 C2544 0.950 . S
H2537 C2549 0.950 . S
H2538 C2546 0.950 . S
H2539 C2548 0.950 . S
H2540 C2550 0.950 . S
H2541 C2552 0.950 . S
H2542 C2554 0.950 . S
H2543 C2555 0.950 . S
C2544 H2536 0.950 . S
C2544 C2545 1.386 . S
C2544 C2546 1.391 . S
C2545 C2544 1.386 . S
C2545 C2549 1.393 . S
C2546 H2538 0.950 . S
C2546 C2544 1.391 . S
C2546 C2547 1.400 . S
C2547 C2546 1.400 . S
C2547 C2548 1.398 . S
C2547 C2553 1.491 . S
C2548 H2539 0.950 . S
C2548 C2547 1.398 . S
C2548 C2549 1.391 . S
C2549 H2537 0.950 . S
C2549 C2545 1.393 . S
C2549 C2548 1.391 . S
C2550 H2540 0.950 . S
C2550 C2551 1.386 . S
C2550 C2552 1.391 . S
C2551 C2550 1.386 . S
C2551 C2555 1.393 . S
C2552 H2541 0.950 . S
C2552 C2550 1.391 . S
C2552 C2553 1.400 . S
C2553 C2547 1.491 . S
C2553 C2552 1.400 . S
C2553 C2554 1.398 . S
C2554 H2542 0.950 . S
C2554 C2553 1.398 . S
C2554 C2555 1.391 . S
C2555 H2543 0.950 . S
C2555 C2551 1.393 . S
C2555 C2554 1.391 . S
H2556 C2564 0.950 . S
H2557 C2569 0.950 . S
H2558 C2566 0.950 . S
H2559 C2568 0.950 . S
H2560 C2570 0.950 . S
H2561 C2572 0.950 . S
H2562 C2574 0.950 . S
H2563 C2575 0.950 . S
C2564 H2556 0.950 . S
C2564 C2565 1.386 . S
C2564 C2566 1.391 . S
C2565 C2564 1.386 . S
C2565 C2569 1.393 . S
C2566 H2558 0.950 . S
C2566 C2564 1.391 . S
C2566 C2567 1.400 . S
C2567 C2566 1.400 . S
C2567 C2568 1.398 . S
C2567 C2573 1.491 . S
C2568 H2559 0.950 . S
C2568 C2567 1.398 . S
C2568 C2569 1.391 . S
C2569 H2557 0.950 . S
C2569 C2565 1.393 . S
C2569 C2568 1.391 . S
C2570 H2560 0.950 . S
C2570 C2571 1.386 . S
C2570 C2572 1.391 . S
C2571 C2570 1.386 . S
C2571 C2575 1.393 . S
C2572 H2561 0.950 . S
C2572 C2570 1.391 . S
C2572 C2573 1.400 . S
C2573 C2567 1.491 . S
C2573 C2572 1.400 . S
C2573 C2574 1.398 . S
C2574 H2562 0.950 . S
C2574 C2573 1.398 . S
C2574 C2575 1.391 . S
C2575 H2563 0.950 . S
C2575 C2571 1.393 . S
C2575 C2574 1.391 . S
C665 C106 1.584 . S
C671 C352 1.527 1_556 S
C685 C65 1.287 . S
C691 C365 1.285 . S
C705 C79 1.695 . S
C711 C384 1.719 . S
C731 C415 1.691 . S
C725 C90 1.693 . S
C745 C21 1.481 . S
C751 C435 1.503 . S
C771 C452 0.877 . S
C765 C35 0.889 . S
C791 C465 1.528 . S
C785 C50 1.533 . S
C805 C6 1.016 . S
C811 C492 1.024 . S
C831 C345 1.403 1_655 S
C825 C232 1.438 . S
C845 C245 1.429 . S
C851 C375 1.478 . S
C871 C377 1.714 . S
C865 C274 1.750 . S
C891 C412 0.849 . S
C885 C175 0.842 . S
C905 C231 0.940 . S
C911 C432 0.973 . S
C931 C445 1.737 . S
C925 C246 1.741 . S
C951 C475 1.154 . S
C945 C273 1.144 . S
C971 C485 1.325 . S
C965 C176 1.361 . S
C991 C355 1.643 . S
C985 C160 1.608 . S
C1005 C289 1.802 . S
C1011 C505 1.789 . S
C1031 C535 1.630 . S
C1025 C328 1.587 . S
C1051 C552 1.311 . S
C1045 C317 1.332 . S
C1065 C118 1.856 . S
C1071 C495 1.951 . S
C1085 C132 1.186 . S
C1091 C382 1.219 . S
C1105 C331 1.927 . S
C1111 C565 1.914 . S
C1131 C592 1.135 . S
C1125 C303 1.182 . S
C1151 C342 1.179 . S
C1145 C63 1.177 . S
C1171 C577 1.620 . S
C1165 C107 1.605 . S
C1185 C92 1.467 . S
C1191 C395 1.450 . S
C1205 C78 2.281 . S
C1211 C564 2.268 . S
C1231 C424 2.030 . S
C1225 C8 2.049 . S
C1245 C51 0.979 . S
C1251 C522 0.953 . S
C1271 C457 1.826 1_556 S
C1265 C37 1.785 . S
C1291 C602 0.954 . S
C1285 C20 0.942 . S
C1311 C337 1.216 . S
C1305 C147 1.205 . S
C1331 C584 1.623 . S
C1325 C316 1.654 . S
C1345 C119 1.676 . S
C1351 C385 1.667 . S
C1365 C288 0.959 . S
C1371 C562 0.953 . S
C1385 C148 1.235 1_545 S
C1391 C422 1.244 . S
C1411 C517 1.739 . S
C1405 C315 1.697 . S
C1425 C120 1.480 . S
C1431 C464 1.456 . S
C1445 C287 1.179 . S
C1451 C597 1.202 . S
C1465 C188 1.471 . S
C1471 C344 1.491 . S
C1485 C177 2.041 . S
C1491 C497 2.064 . S
C1505 C258 1.699 . S
C1511 C444 1.768 . S
C1525 C247 1.380 . S
C1531 C542 1.377 . S
C1551 C604 1.790 . S
C1545 C272 1.766 . S
C1565 C216 1.119 . S
C1571 C392 1.099 1_565 S
C1591 C397 2.127 . S
C1585 C261 2.096 . S
C1611 C362 1.168 . S
C1605 C205 1.178 . S
C1625 C76 1.225 . S
C1631 C632 1.227 . S
C1651 C585 1.346 . S
C1645 C93 1.351 . S
C1665 C105 1.290 . S
C1671 C644 1.361 . S
C1685 C62 1.724 . S
C1691 C575 1.706 . S
C1705 C49 1.450 . S
C1711 C515 1.480 . S
C1731 C532 1.214 . S
C1725 C9 1.216 . S
C1751 C545 1.468 1_655 S
C1745 C22 1.486 . S
C1771 C612 1.332 . S
C1765 C36 1.368 . S
C1791 C625 1.339 . S
C1785 C260 1.373 . S
C1805 C189 1.311 . S
C1811 C595 1.300 . S
C1831 C637 1.631 . S
C1825 C204 1.685 . S
C1851 C572 0.720 . S
C1845 C217 0.737 . S
C1871 C512 1.126 . S
C1865 C259 1.088 . S
C1885 C190 1.819 . S
C1891 C525 1.808 . S
C1911 C555 1.324 . S
C1905 C203 1.296 . S
C1925 C218 1.443 . S
C1931 C605 1.411 . S
C1951 C635 1.584 . S
C1945 C314 1.538 . S
C1965 C135 1.854 . S
C1971 C425 1.847 . S
C1991 C455 1.582 . S
C1985 C146 1.525 . S
C2011 C472 1.362 1_565 S
C2005 C163 1.368 . S
C2031 C615 2.007 . S
C2025 C300 1.944 . S
C2045 C286 1.184 . S
C2051 C642 1.194 . S
C2071 C405 1.848 . S
C2065 C149 1.856 . S
C2091 C372 1.110 . S
C2085 C121 1.147 1_565 S
C2105 C91 1.105 . S
C2111 C622 1.122 . S
C2131 C357 1.264 . S
C2125 C77 1.265 . S
C2145 C64 1.433 . S
C2151 C655 1.416 . S
C2165 C104 1.897 . S
C2171 C404 1.901 . S
C2185 C34 1.665 . S
C2191 C504 1.692 1_556 S
C2211 C442 0.945 . S
C2205 C23 0.930 . S
C2225 C7 1.350 . S
C2231 C537 1.414 . S
C2245 C48 0.937 . S
C2251 C482 0.940 . S
C2271 C617 1.223 . S
C2265 C329 1.179 . S
C2285 C162 1.645 . S
C2291 C364 1.610 . S
C2311 C645 1.650 1_655 S
C2305 C301 1.657 . S
C2325 C134 0.987 . S
C2331 C402 0.983 . S
C2345 C330 1.256 . S
C2351 C502 1.249 . S
C2371 C437 1.721 . S
C2365 C161 1.683 . S
C2385 C302 1.470 . S
C2391 C544 1.446 . S
C2411 C477 1.178 . S
C2405 C133 1.197 . S
C2431 C624 1.742 . S
C2425 C244 1.737 . S
C2451 C417 2.042 1_565 S
C2445 C219 2.014 . S
C2465 C230 1.481 . S
C2471 C524 1.541 . S
C2491 C462 1.345 . S
C2485 C191 1.357 1_554 S
C2505 C202 2.004 . S
C2511 C484 2.037 . S
C2525 C174 1.302 . S
C2531 C652 1.304 . S
C2551 C557 2.121 . S
C2545 C233 2.085 1_565 S
C2571 C582 1.121 . S
C2565 C275 1.167 . S
