# Generated by pormake.
# Topology pyr, (3,6)-cn, num edge types: 1
# Building blocks:
#     Node 0, Type 0, BuildingBlock: WUSLED_clean_sbu_0, # of connection points: 3
#     Node 1, Type 0, BuildingBlock: WUSLED_clean_sbu_0, # of connection points: 3
#     Node 2, Type 0, BuildingBlock: WUSLED_clean_sbu_0, # of connection points: 3
#     Node 3, Type 0, BuildingBlock: WUSLED_clean_sbu_0, # of connection points: 3
#     Node 4, Type 0, BuildingBlock: WUSLED_clean_sbu_0, # of connection points: 3
#     Node 5, Type 0, BuildingBlock: WUSLED_clean_sbu_0, # of connection points: 3
#     Node 6, Type 0, BuildingBlock: WUSLED_clean_sbu_0, # of connection points: 3
#     Node 7, Type 0, BuildingBlock: WUSLED_clean_sbu_0, # of connection points: 3
#     Node 8, Type 1, BuildingBlock: LEVNOQ01_clean_sbu_1, # of connection points: 6
#     Node 9, Type 1, BuildingBlock: LEVNOQ01_clean_sbu_1, # of connection points: 6
#     Node 10, Type 1, BuildingBlock: LEVNOQ01_clean_sbu_1, # of connection points: 6
#     Node 11, Type 1, BuildingBlock: LEVNOQ01_clean_sbu_1, # of connection points: 6
#     Edge 12, Type (0, 1), BuildingBlock: XIVTED_clean_linker_0, # of connection points: 2
#     Edge 13, Type (0, 1), BuildingBlock: XIVTED_clean_linker_0, # of connection points: 2
#     Edge 14, Type (0, 1), BuildingBlock: XIVTED_clean_linker_0, # of connection points: 2
#     Edge 15, Type (0, 1), BuildingBlock: XIVTED_clean_linker_0, # of connection points: 2
#     Edge 16, Type (0, 1), BuildingBlock: XIVTED_clean_linker_0, # of connection points: 2
#     Edge 17, Type (0, 1), BuildingBlock: XIVTED_clean_linker_0, # of connection points: 2
#     Edge 18, Type (0, 1), BuildingBlock: XIVTED_clean_linker_0, # of connection points: 2
#     Edge 19, Type (0, 1), BuildingBlock: XIVTED_clean_linker_0, # of connection points: 2
#     Edge 20, Type (0, 1), BuildingBlock: XIVTED_clean_linker_0, # of connection points: 2
#     Edge 21, Type (0, 1), BuildingBlock: XIVTED_clean_linker_0, # of connection points: 2
#     Edge 22, Type (0, 1), BuildingBlock: XIVTED_clean_linker_0, # of connection points: 2
#     Edge 23, Type (0, 1), BuildingBlock: XIVTED_clean_linker_0, # of connection points: 2
#     Edge 24, Type (0, 1), BuildingBlock: XIVTED_clean_linker_0, # of connection points: 2
#     Edge 25, Type (0, 1), BuildingBlock: XIVTED_clean_linker_0, # of connection points: 2
#     Edge 26, Type (0, 1), BuildingBlock: XIVTED_clean_linker_0, # of connection points: 2
#     Edge 27, Type (0, 1), BuildingBlock: XIVTED_clean_linker_0, # of connection points: 2
#     Edge 28, Type (0, 1), BuildingBlock: XIVTED_clean_linker_0, # of connection points: 2
#     Edge 29, Type (0, 1), BuildingBlock: XIVTED_clean_linker_0, # of connection points: 2
#     Edge 30, Type (0, 1), BuildingBlock: XIVTED_clean_linker_0, # of connection points: 2
#     Edge 31, Type (0, 1), BuildingBlock: XIVTED_clean_linker_0, # of connection points: 2
#     Edge 32, Type (0, 1), BuildingBlock: XIVTED_clean_linker_0, # of connection points: 2
#     Edge 33, Type (0, 1), BuildingBlock: XIVTED_clean_linker_0, # of connection points: 2
#     Edge 34, Type (0, 1), BuildingBlock: XIVTED_clean_linker_0, # of connection points: 2
#     Edge 35, Type (0, 1), BuildingBlock: XIVTED_clean_linker_0, # of connection points: 2
# Relax obj value: 0.034
# Max RMSD: 0.109
# Mean RMSD: 0.044
data_MOF--net-pry--node1-WUSLED_clean_sbu_0--node2-LEVNOQ01_clean_sbu_1--edge1-XIVTED_clean_linker_0
_symmetry_space_group_name_H-M    P1
_symmetry_Int_Tables_number       1
_symmetry_cell_setting            triclinic
loop_
_symmetry_equiv_pos_as_xyz
'x, y, z'
_cell_length_a     48.661482
_cell_length_b     46.933085
_cell_length_c     46.365815
_cell_angle_alpha  91.518938
_cell_angle_beta   91.522931
_cell_angle_gamma 93.970671
loop_
_atom_site_label
_atom_site_type_symbol
_atom_site_fract_x
_atom_site_fract_y
_atom_site_fract_z
_atom_type_partial_charge
C0 C 0.15199 0.23742 0.11317 0.0
C1 C 0.12991 0.24646 0.12912 0.0
C2 C 0.12083 0.28225 0.09323 0.0
C3 C 0.11448 0.26864 0.11925 0.0
C4 C 0.14313 0.2731 0.0775 0.0
C5 C 0.15848 0.25096 0.08738 0.0
U6 U 0.17155 0.17976 0.16675 0.0
O7 O 0.18203 0.13551 0.15727 0.0
O8 O 0.21251 0.16603 0.1789 0.0
C9 C 0.20754 0.14031 0.16716 0.0
C10 C 0.16827 0.21373 0.12261 0.0
C11 C 0.22934 0.12935 0.14906 0.0
C12 C 0.2679 0.13663 0.11698 0.0
C13 C 0.24635 0.14748 0.13247 0.0
C14 C 0.25544 0.0893 0.13396 0.0
C15 C 0.2729 0.10739 0.11766 0.0
C16 C 0.23396 0.10017 0.14946 0.0
C17 C 0.13303 0.17141 0.23826 0.0
C18 C 0.14486 0.13962 0.27665 0.0
C19 C 0.10335 0.16504 0.27938 0.0
C20 C 0.10934 0.1777 0.25306 0.0
C21 C 0.12096 0.14574 0.29157 0.0
C22 C 0.15082 0.15232 0.25025 0.0
C23 C 0.13857 0.185 0.21043 0.0
O24 O 0.18517 0.21927 0.14495 0.0
O25 O 0.15484 0.18851 0.12352 0.0
O26 O 0.13185 0.16923 0.18713 0.0
O27 O 0.16245 0.19965 0.20866 0.0
H28 H 0.12459 0.23633 0.14914 0.0
H29 H 0.09773 0.2753 0.13217 0.0
H30 H 0.14846 0.28269 0.05723 0.0
H31 H 0.17538 0.24423 0.07468 0.0
H32 H 0.28105 0.15135 0.10502 0.0
H33 H 0.24326 0.17009 0.13181 0.0
H34 H 0.25826 0.06664 0.13469 0.0
H35 H 0.22108 0.08577 0.16208 0.0
H36 H 0.15909 0.12514 0.28543 0.0
H37 H 0.08454 0.16993 0.28983 0.0
H38 H 0.0953 0.19232 0.24413 0.0
H39 H 0.16925 0.1472 0.23917 0.0
C40 C 0.29105 0.88128 0.59384 0.0
C41 C 0.28781 0.90842 0.60614 0.0
C42 C 0.24254 0.90923 0.58245 0.0
C43 C 0.26386 0.92233 0.60038 0.0
C44 C 0.24601 0.88204 0.57008 0.0
C45 C 0.27007 0.86822 0.57574 0.0
U46 U 0.35297 0.86857 0.64255 0.0
O47 O 0.37033 0.82848 0.65494 0.0
O48 O 0.39553 0.86041 0.6316 0.0
C49 C 0.39336 0.83431 0.64134 0.0
C50 C 0.31586 0.86613 0.60027 0.0
C51 C 0.40282 0.81157 0.62195 0.0
C52 C 0.39864 0.76287 0.60193 0.0
C53 C 0.38809 0.78478 0.61846 0.0
C54 C 0.43841 0.79432 0.59136 0.0
C55 C 0.42416 0.76722 0.58855 0.0
C56 C 0.42793 0.81616 0.60797 0.0
C57 C 0.36495 0.91272 0.71322 0.0
C58 C 0.38874 0.89927 0.75707 0.0
C59 C 0.38312 0.94919 0.74831 0.0
C60 C 0.36921 0.94151 0.72214 0.0
C61 C 0.39298 0.92815 0.76623 0.0
C62 C 0.37502 0.89165 0.73081 0.0
C63 C 0.34946 0.90513 0.68596 0.0
O64 O 0.33941 0.88159 0.59956 0.0
O65 O 0.3142 0.84948 0.62259 0.0
O66 O 0.3361 0.87977 0.6845 0.0
O67 O 0.36218 0.91166 0.66211 0.0
H68 H 0.30377 0.91883 0.62027 0.0
H69 H 0.26213 0.94341 0.60993 0.0
H70 H 0.2299 0.87113 0.55653 0.0
H71 H 0.27216 0.84718 0.56622 0.0
H72 H 0.38727 0.74219 0.6006 0.0
H73 H 0.36873 0.78042 0.62902 0.0
H74 H 0.45791 0.79859 0.58105 0.0
H75 H 0.43977 0.83654 0.61034 0.0
H76 H 0.3956 0.8824 0.77041 0.0
H77 H 0.38635 0.97163 0.75435 0.0
H78 H 0.36167 0.95812 0.70885 0.0
H79 H 0.37206 0.86925 0.72444 0.0
C80 C 0.64732 0.33089 0.74076 0.0
C81 C 0.65183 0.36071 0.74332 0.0
C82 C 0.63227 0.36568 0.69482 0.0
C83 C 0.64427 0.37792 0.72066 0.0
C84 C 0.62824 0.3357 0.69225 0.0
C85 C 0.63567 0.31851 0.71502 0.0
U86 U 0.69074 0.3168 0.80796 0.0
O87 O 0.67923 0.2985 0.84938 0.0
O88 O 0.70797 0.27695 0.82194 0.0
C89 C 0.69284 0.27559 0.845 0.0
C90 C 0.65458 0.31249 0.76471 0.0
C91 C 0.67755 0.24786 0.84976 0.0
C92 C 0.63447 0.21908 0.85472 0.0
C93 C 0.64864 0.24483 0.84775 0.0
C94 C 0.67789 0.19849 0.86454 0.0
C95 C 0.64887 0.19564 0.86361 0.0
C96 C 0.69203 0.22436 0.85778 0.0
C97 C 0.74658 0.37568 0.83273 0.0
C98 C 0.7722 0.37874 0.87864 0.0
C99 C 0.78383 0.41228 0.84131 0.0
C100 C 0.76308 0.39901 0.82326 0.0
C101 C 0.78852 0.40255 0.86935 0.0
C102 C 0.75134 0.36542 0.86047 0.0
C103 C 0.72422 0.36313 0.81339 0.0
O104 O 0.67896 0.30217 0.76348 0.0
O105 O 0.6489 0.32188 0.7907 0.0
O106 O 0.69951 0.361 0.82423 0.0
O107 O 0.7298 0.34053 0.79786 0.0
H108 H 0.66093 0.37073 0.76297 0.0
H109 H 0.64731 0.40089 0.72371 0.0
H110 H 0.61946 0.32545 0.67259 0.0
H111 H 0.63222 0.29551 0.71256 0.0
H112 H 0.61217 0.21799 0.85414 0.0
H113 H 0.6369 0.26257 0.8415 0.0
H114 H 0.68973 0.18085 0.87079 0.0
H115 H 0.71435 0.22617 0.85934 0.0
H116 H 0.77516 0.37079 0.90013 0.0
H117 H 0.79633 0.43013 0.83316 0.0
H118 H 0.75978 0.40714 0.80187 0.0
H119 H 0.73877 0.34737 0.86813 0.0
C120 C 0.79363 0.61633 0.38757 0.0
C121 C 0.77851 0.63765 0.40017 0.0
C122 C 0.74428 0.60155 0.41583 0.0
C123 C 0.75396 0.63032 0.41397 0.0
C124 C 0.76004 0.58019 0.40438 0.0
C125 C 0.78444 0.58755 0.39021 0.0
U126 U 0.86198 0.6593 0.37803 0.0
O127 O 0.9005 0.64795 0.35833 0.0
O128 O 0.87727 0.68194 0.33996 0.0
C129 C 0.89744 0.66502 0.33658 0.0
C130 C 0.81821 0.62382 0.37063 0.0
C131 C 0.89933 0.65212 0.30731 0.0
C132 C 0.89716 0.61066 0.27448 0.0
C133 C 0.89522 0.62246 0.3023 0.0
C134 C 0.9067 0.65796 0.25599 0.0
C135 C 0.90292 0.62821 0.2509 0.0
C136 C 0.905 0.66974 0.2839 0.0
C137 C 0.88778 0.71105 0.44025 0.0
C138 C 0.9262 0.74657 0.43717 0.0
C139 C 0.90226 0.74118 0.48208 0.0
C140 C 0.88485 0.71921 0.46924 0.0
C141 C 0.92294 0.75538 0.46611 0.0
C142 C 0.90877 0.72457 0.42436 0.0
C143 C 0.86821 0.68908 0.42684 0.0
O144 O 0.81998 0.64976 0.36051 0.0
O145 O 0.84178 0.61594 0.38117 0.0
O146 O 0.87748 0.66364 0.42308 0.0
O147 O 0.85382 0.69717 0.40448 0.0
H148 H 0.78528 0.66004 0.39881 0.0
H149 H 0.7423 0.64717 0.42285 0.0
H150 H 0.7529 0.55786 0.40533 0.0
H151 H 0.79581 0.57079 0.38071 0.0
H152 H 0.89463 0.58765 0.27164 0.0
H153 H 0.89066 0.6083 0.31988 0.0
H154 H 0.9108 0.67222 0.2384 0.0
H155 H 0.90805 0.69269 0.28721 0.0
H156 H 0.94161 0.7573 0.42409 0.0
H157 H 0.89938 0.74719 0.50445 0.0
H158 H 0.8688 0.70886 0.48184 0.0
H159 H 0.91128 0.71852 0.40192 0.0
C160 C 0.86059 0.79717 0.9177 0.0
C161 C 0.88708 0.80235 0.9305 0.0
C162 C 0.88958 0.75162 0.94022 0.0
C163 C 0.90138 0.77991 0.94153 0.0
C164 C 0.86317 0.74643 0.92719 0.0
C165 C 0.84885 0.7689 0.9162 0.0
U166 U 0.83974 0.85628 0.86543 0.0
O167 O 0.79855 0.87014 0.85452 0.0
O168 O 0.82938 0.90033 0.8761 0.0
C169 C 0.80376 0.89572 0.86651 0.0
C170 C 0.84411 0.82116 0.9085 0.0
C171 C 0.78222 0.90664 0.88495 0.0
C172 C 0.74451 0.89945 0.91811 0.0
C173 C 0.76592 0.88863 0.90236 0.0
C174 C 0.75571 0.94648 0.89971 0.0
C175 C 0.73894 0.92851 0.91681 0.0
C176 C 0.77705 0.93565 0.88398 0.0
C177 C 0.8769 0.86711 0.79322 0.0
C178 C 0.88551 0.86362 0.74168 0.0
C179 C 0.8878 0.90998 0.76601 0.0
C180 C 0.88112 0.89698 0.79203 0.0
C181 C 0.89029 0.89349 0.74045 0.0
C182 C 0.87897 0.85063 0.76775 0.0
C183 C 0.87182 0.85257 0.82082 0.0
O184 O 0.85693 0.84676 0.90821 0.0
O185 O 0.82669 0.8161 0.88647 0.0
O186 O 0.84812 0.83756 0.82261 0.0
O187 O 0.8791 0.86718 0.84473 0.0
H188 H 0.89666 0.82386 0.93256 0.0
H189 H 0.92144 0.78493 0.95177 0.0
H190 H 0.85349 0.72496 0.92539 0.0
H191 H 0.82835 0.76416 0.90687 0.0
H192 H 0.73189 0.88484 0.93074 0.0
H193 H 0.76945 0.86614 0.90344 0.0
H194 H 0.75243 0.96901 0.89849 0.0
H195 H 0.78938 0.94995 0.87072 0.0
H196 H 0.88679 0.85018 0.72249 0.0
H197 H 0.8917 0.93298 0.76617 0.0
H198 H 0.87974 0.91032 0.81129 0.0
H199 H 0.87583 0.82755 0.76807 0.0
C200 C 0.61101 0.14623 0.32529 0.0
C201 C 0.63279 0.13866 0.30799 0.0
C202 C 0.60005 0.11774 0.27135 0.0
C203 C 0.62735 0.1247 0.2812 0.0
C204 C 0.57835 0.12447 0.2892 0.0
C205 C 0.5838 0.13867 0.31587 0.0
U206 U 0.65387 0.16412 0.39443 0.0
O207 O 0.66653 0.20578 0.41544 0.0
O208 O 0.64117 0.17384 0.43857 0.0
C209 C 0.65193 0.20033 0.43834 0.0
C210 C 0.61621 0.16258 0.35274 0.0
C211 C 0.63382 0.22278 0.44709 0.0
C212 C 0.58855 0.24146 0.44981 0.0
C213 C 0.6052 0.21957 0.44191 0.0
C214 C 0.6289 0.27013 0.46803 0.0
C215 C 0.6002 0.26717 0.46275 0.0
C216 C 0.64549 0.24813 0.46033 0.0
C217 C 0.71816 0.1215 0.40834 0.0
C218 C 0.76684 0.12966 0.42204 0.0
C219 C 0.74179 0.08539 0.43404 0.0
C220 C 0.71784 0.09479 0.42132 0.0
C221 C 0.76675 0.10237 0.43387 0.0
C222 C 0.74281 0.13911 0.40931 0.0
C223 C 0.69355 0.12909 0.39151 0.0
O224 O 0.61321 0.14792 0.37635 0.0
O225 O 0.63811 0.1807 0.35383 0.0
O226 O 0.69472 0.15418 0.37943 0.0
O227 O 0.66949 0.12212 0.4026 0.0
H228 H 0.654 0.14396 0.31496 0.0
H229 H 0.6445 0.11952 0.26808 0.0
H230 H 0.55711 0.11966 0.28211 0.0
H231 H 0.56672 0.14425 0.32892 0.0
H232 H 0.56653 0.23821 0.44574 0.0
H233 H 0.5957 0.20021 0.43161 0.0
H234 H 0.63872 0.28974 0.47744 0.0
H235 H 0.66755 0.25109 0.46437 0.0
H236 H 0.78578 0.14314 0.42131 0.0
H237 H 0.74092 0.06443 0.44334 0.0
H238 H 0.69923 0.08069 0.42078 0.0
H239 H 0.74385 0.15976 0.39936 0.0
C240 C 0.26006 0.65977 0.20313 0.0
C241 C 0.23916 0.67556 0.19141 0.0
C242 C 0.21794 0.63259 0.16683 0.0
C243 C 0.21827 0.66208 0.17344 0.0
C244 C 0.23949 0.61717 0.17788 0.0
C245 C 0.26022 0.63061 0.19587 0.0
U246 U 0.31408 0.71938 0.23001 0.0
O247 O 0.32418 0.7354 0.27432 0.0
O248 O 0.35538 0.71497 0.24927 0.0
C249 C 0.34865 0.72513 0.2746 0.0
C250 C 0.28129 0.67265 0.2238 0.0
C251 C 0.3551 0.70731 0.29927 0.0
C252 C 0.3427 0.66864 0.33141 0.0
C253 C 0.33578 0.6863 0.30884 0.0
C254 C 0.38827 0.69288 0.33523 0.0
C255 C 0.36917 0.67145 0.3447 0.0
C256 C 0.38128 0.71062 0.31277 0.0
C257 C 0.3278 0.78645 0.18531 0.0
C258 C 0.36247 0.82469 0.19855 0.0
C259 C 0.33909 0.82407 0.15174 0.0
C260 C 0.32368 0.79906 0.15865 0.0
C261 C 0.35899 0.83704 0.17141 0.0
C262 C 0.34705 0.79956 0.20541 0.0
C263 C 0.31289 0.75891 0.19097 0.0
O264 O 0.30663 0.67463 0.2146 0.0
O265 O 0.27497 0.69531 0.23887 0.0
O266 O 0.29711 0.75832 0.21356 0.0
O267 O 0.3275 0.73649 0.18861 0.0
H268 H 0.23863 0.69816 0.19656 0.0
H269 H 0.20193 0.67458 0.1655 0.0
H270 H 0.24024 0.59459 0.1728 0.0
H271 H 0.27624 0.61806 0.20452 0.0
H272 H 0.32731 0.65267 0.3383 0.0
H273 H 0.31546 0.68331 0.29863 0.0
H274 H 0.40898 0.69541 0.3445 0.0
H275 H 0.39652 0.7266 0.30556 0.0
H276 H 0.37737 0.83421 0.21436 0.0
H277 H 0.33613 0.83254 0.13047 0.0
H278 H 0.309 0.78912 0.14282 0.0
H279 H 0.35051 0.79008 0.22613 0.0
C280 C 0.09374 0.32052 0.64056 0.0
C281 C 0.10918 0.30056 0.62624 0.0
C282 C 0.06784 0.28006 0.60043 0.0
C283 C 0.09636 0.28047 0.6066 0.0
C284 C 0.05269 0.30098 0.61387 0.0
C285 C 0.06551 0.32089 0.63383 0.0
U286 U 0.15358 0.37172 0.66617 0.0
O287 O 0.15553 0.41257 0.69074 0.0
O288 O 0.17614 0.37624 0.70801 0.0
C289 C 0.16923 0.40251 0.71262 0.0
C290 C 0.10676 0.34056 0.66282 0.0
C291 C 0.15903 0.40893 0.74149 0.0
C292 C 0.12197 0.41101 0.77548 0.0
C293 C 0.13129 0.40319 0.74823 0.0
C294 C 0.1682 0.42953 0.78966 0.0
C295 C 0.14027 0.42471 0.79637 0.0
C296 C 0.17745 0.42174 0.76249 0.0
C297 C 0.21285 0.3852 0.61488 0.0
C298 C 0.25698 0.40905 0.62989 0.0
C299 C 0.24542 0.40132 0.57899 0.0
C300 C 0.21996 0.38803 0.58597 0.0
C301 C 0.26429 0.41196 0.60086 0.0
C302 C 0.23144 0.39589 0.63682 0.0
C303 C 0.18587 0.37145 0.62173 0.0
O304 O 0.12912 0.33223 0.6757 0.0
O305 O 0.10887 0.36763 0.65602 0.0
O306 O 0.16598 0.38882 0.62436 0.0
O307 O 0.18604 0.3523 0.64191 0.0
H308 H 0.13109 0.29998 0.63074 0.0
H309 H 0.10875 0.26455 0.59717 0.0
H310 H 0.03083 0.30175 0.60933 0.0
H311 H 0.05328 0.33633 0.64436 0.0
H312 H 0.10029 0.40723 0.77982 0.0
H313 H 0.11678 0.39321 0.73226 0.0
H314 H 0.18293 0.43961 0.80535 0.0
H315 H 0.19899 0.42613 0.75772 0.0
H316 H 0.27111 0.41663 0.6473 0.0
H317 H 0.25013 0.40359 0.55644 0.0
H318 H 0.20573 0.38008 0.56876 0.0
H319 H 0.22623 0.39399 0.6593 0.0
O320 O 0.98859 0.0225 0.59314 0.0
Mg321 Mg 0.02204 0.04262 0.57314 0.0
O322 O 0.98258 0.99507 0.55387 0.0
Mg323 Mg 0.00844 0.01738 0.51588 0.0
O324 O 0.0136 0.06423 0.53628 0.0
O325 O 0.02412 0.08507 0.57989 0.0
O326 O 0.03425 0.03971 0.47782 0.0
O327 O 0.96585 0.03115 0.49772 0.0
Mg328 Mg 0.99611 0.99044 0.45761 0.0
O329 O 1.0031 0.97079 0.49568 0.0
O330 O 0.02998 0.0113 0.4391 0.0
O331 O 0.95779 0.00851 0.45561 0.0
O332 O 0.99536 0.9476 0.45289 0.0
C333 C 0.06689 0.00778 0.55568 0.0
C334 C 0.97671 1.001 0.58004 0.0
C335 C 0.01766 0.08709 0.5529 0.0
C336 C 0.04094 0.03338 0.45199 0.0
C337 C 0.95034 0.0252 0.47539 0.0
C338 C 0.99982 0.94702 0.48041 0.0
O339 O 0.06014 0.02434 0.57584 0.0
O340 O 0.051 1.00298 0.53347 0.0
O341 O 0.46036 0.07786 0.02186 0.0
Mg342 Mg 0.50327 0.08078 0.01994 0.0
O343 O 0.46097 0.03169 0.02949 0.0
Mg344 Mg 0.50552 0.01642 0.01757 0.0
O345 O 0.51982 0.05536 0.98943 0.0
O346 O 0.51875 0.10297 0.98656 0.0
O347 O 0.55065 1.00226 1.00526 0.0
O348 O 0.48504 0.99689 0.97418 0.0
Mg349 Mg 0.51158 0.95594 0.01552 0.0
O350 O 0.4905 0.97731 0.04614 0.0
O351 O 0.55432 0.95818 0.01875 0.0
O352 O 0.49271 0.95113 0.97405 0.0
O353 O 0.49508 0.92986 0.04503 0.0
C354 C 0.5327 0.06099 0.07193 0.0
C355 C 0.44796 0.0545 0.02845 0.0
C356 C 0.52608 0.07897 0.97615 0.0
C357 C 0.56531 0.98098 1.0092 0.0
C358 C 0.48303 0.97217 0.96176 0.0
C359 C 0.48568 0.95215 0.05707 0.0
O360 O 0.52678 0.08321 0.05883 0.0
O361 O 0.52599 0.0361 0.06099 0.0
O362 O 0.51252 0.57906 0.56377 0.0
Mg363 Mg 0.50528 0.53666 0.57555 0.0
O364 O 0.49463 0.56477 0.52129 0.0
Mg365 Mg 0.50262 0.51581 0.51306 0.0
O366 O 0.52849 0.50805 0.55519 0.0
O367 O 0.53491 0.5217 0.60171 0.0
O368 O 0.51042 0.46719 0.50378 0.0
O369 O 0.5442 0.53107 0.49224 0.0
Mg370 Mg 0.50141 0.4986 0.44771 0.0
O371 O 0.47628 0.52261 0.47131 0.0
O372 O 0.5003 0.45538 0.45809 0.0
O373 O 0.54032 0.5213 0.44512 0.0
O374 O 0.46898 0.51203 0.42428 0.0
C375 C 0.45071 0.50484 0.55867 0.0
C376 C 0.50184 0.58479 0.53972 0.0
C377 C 0.54137 0.50605 0.57996 0.0
C378 C 0.50742 0.44841 0.48322 0.0
C379 C 0.554 0.53202 0.46695 0.0
C380 C 0.46226 0.52551 0.44738 0.0
O381 O 0.46388 0.51932 0.57877 0.0
O382 O 0.46149 0.50087 0.53419 0.0
O383 O 0.99164 0.4501 0.05248 0.0
Mg384 Mg 1.00039 0.49293 0.06645 0.0
O385 O 0.02294 0.47093 0.02638 0.0
Mg386 Mg 1.00305 0.51646 0.01937 0.0
O387 O 0.97417 0.52427 0.06002 0.0
O388 O 0.97645 0.499 0.10044 0.0
O389 O 0.98325 0.56228 0.01241 0.0
O390 O 0.96508 0.49245 0.996 0.0
Mg391 Mg 1.00433 0.53882 0.97221 0.0
O392 O 0.03234 0.50908 0.97871 0.0
O393 O 0.01376 0.58186 0.98457 0.0
O394 O 0.96268 0.52354 0.96167 0.0
O395 O 0.02689 0.53244 0.93739 0.0
C396 C 0.05287 0.53013 0.06543 0.0
C397 C 0.01252 0.44809 0.03735 0.0
C398 C 0.96606 0.51892 0.08603 0.0
C399 C 0.99364 0.58468 1.00056 0.0
C400 C 0.95232 0.50185 0.97428 0.0
C401 C 0.03932 0.5142 0.95227 0.0
O402 O 0.04186 0.50846 0.07763 0.0
O403 O 0.04093 0.53989 0.04334 0.0
H404 H 0.0971 0.16808 0.33989 0.0
H405 H 0.07834 0.01652 0.41422 0.0
H406 H 0.12822 0.09031 0.30629 0.0
H407 H 0.04595 0.09238 0.45039 0.0
H408 H 0.10199 0.0453 0.37833 0.0
H409 H 0.08244 0.14277 0.38302 0.0
C410 C 0.10094 0.14573 0.34152 0.0
C411 C 0.1138 0.13134 0.3191 0.0
C412 C 0.09008 0.05588 0.39427 0.0
C413 C 0.09729 0.10229 0.36882 0.0
C414 C 0.07668 0.03943 0.41494 0.0
C415 C 0.06008 0.05206 0.43527 0.0
C416 C 0.0866 0.0853 0.39345 0.0
C417 C 0.05868 0.08183 0.43519 0.0
C418 C 0.09271 0.13135 0.36632 0.0
C419 C 0.11866 0.1025 0.32292 0.0
N420 N 0.0714 0.09743 0.41425 0.0
N421 N 0.11026 0.08898 0.34708 0.0
H422 H 0.43683 0.90349 0.79152 0.0
H423 H 0.4512 0.00812 0.93111 0.0
H424 H 0.38248 0.97122 0.80532 0.0
H425 H 0.48533 0.92571 0.92564 0.0
H426 H 0.42983 0.99883 0.88278 0.0
H427 H 0.45894 0.91528 0.83846 0.0
C428 C 0.42939 0.92075 0.80442 0.0
C429 C 0.40747 0.93613 0.79438 0.0
C430 C 0.44202 0.98285 0.89227 0.0
C431 C 0.43325 0.95017 0.84824 0.0
C432 C 0.45425 0.98816 0.91978 0.0
C433 C 0.46999 0.96762 0.93255 0.0
C434 C 0.4459 0.95703 0.87734 0.0
C435 C 0.47325 0.94212 0.91684 0.0
C436 C 0.44217 0.92759 0.83122 0.0
C437 C 0.39941 0.95887 0.81193 0.0
N438 N 0.46141 0.93763 0.89013 0.0
N439 N 0.41226 0.96518 0.838 0.0
H440 H 0.65757 0.41611 0.67669 0.0
H441 H 0.53323 0.44883 0.56878 0.0
H442 H 0.58632 0.35766 0.65867 0.0
H443 H 0.59187 0.51315 0.60621 0.0
H444 H 0.55947 0.41173 0.59086 0.0
H445 H 0.63996 0.44845 0.64134 0.0
C446 C 0.63827 0.40997 0.6653 0.0
C447 C 0.62323 0.38421 0.67116 0.0
C448 C 0.567 0.43392 0.5936 0.0
C449 C 0.6032 0.42108 0.63009 0.0
C450 C 0.55232 0.455 0.58057 0.0
C451 C 0.56073 0.48393 0.58536 0.0
C452 C 0.59015 0.442 0.61156 0.0
C453 C 0.58492 0.491 0.60185 0.0
C454 C 0.62834 0.42839 0.64493 0.0
C455 C 0.59874 0.37716 0.65494 0.0
N456 N 0.59866 0.47022 0.61455 0.0
N457 N 0.58938 0.39559 0.63537 0.0
H458 H 0.8735 0.58147 0.22555 0.0
H459 H 0.96606 0.57722 0.08553 0.0
H460 H 0.93876 0.64547 0.20859 0.0
H461 H 0.92572 0.50276 0.12267 0.0
H462 H 0.94502 0.6074 0.12186 0.0
H463 H 0.88224 0.55742 0.1797 0.0
C464 C 0.88961 0.59058 0.21223 0.0
C465 C 0.90578 0.6153 0.22142 0.0
C466 C 0.94027 0.5845 0.12154 0.0
C467 C 0.91536 0.58812 0.16838 0.0
C468 C 0.95198 0.56734 0.10065 0.0
C469 C 0.94766 0.53751 0.1013 0.0
C470 C 0.92389 0.57163 0.14279 0.0
C471 C 0.92962 0.5257 0.12159 0.0
C472 C 0.8944 0.57693 0.18591 0.0
C473 C 0.9257 0.62653 0.20256 0.0
N474 N 0.91858 0.54275 0.14167 0.0
N475 N 0.9301 0.61272 0.17708 0.0
H476 H 0.29236 0.12248 0.06458 0.0
H477 H 0.41996 0.02252 0.06902 0.0
H478 H 0.30729 0.06597 0.13439 0.0
H479 H 0.41012 0.08952 1.00851 0.0
H480 H 0.375 0.03213 0.08907 0.0
H481 H 0.33212 0.10538 0.04021 0.0
C482 C 0.30399 0.10652 0.07489 0.0
C483 C 0.29643 0.09595 0.10183 0.0
C484 C 0.38256 0.04442 0.07113 0.0
C485 C 0.34212 0.07581 0.07361 0.0
C486 C 0.40807 0.03872 0.0595 0.0
C487 C 0.41886 0.05532 0.03714 0.0
C488 C 0.36774 0.06669 0.06011 0.0
C489 C 0.40271 0.07633 0.02588 0.0
C490 C 0.32665 0.09658 0.06081 0.0
C491 C 0.31209 0.07468 0.1136 0.0
N492 N 0.37818 0.08149 0.03755 0.0
N493 N 0.33422 0.06546 0.09954 0.0
H494 H 0.21095 0.91022 0.53224 0.0
H495 H 0.10355 0.01204 0.60136 0.0
H496 H 0.21468 0.94097 0.62096 0.0
H497 H 0.09015 0.97133 0.51705 0.0
H498 H 0.14603 0.9883 0.60713 0.0
H499 H 0.16816 0.93398 0.5248 0.0
C500 C 0.20277 0.92183 0.55019 0.0
C501 C 0.2166 0.92363 0.57727 0.0
C502 C 0.13386 0.98449 0.58734 0.0
C503 C 0.16782 0.95118 0.56874 0.0
C504 C 0.10953 0.99813 0.58396 0.0
C505 C 0.09312 0.99368 0.55866 0.0
C506 C 0.14212 0.96621 0.56525 0.0
C507 C 0.10212 0.97537 0.53693 0.0
C508 C 0.17841 0.9355 0.54586 0.0
C509 C 0.20514 0.93936 0.59957 0.0
N510 N 0.12604 0.96229 0.54072 0.0
N511 N 0.18152 0.9525 0.59478 0.0
H512 H 0.80131 0.46013 0.87586 0.0
H513 H 0.92987 0.44785 0.98543 0.0
H514 H 0.82527 0.37932 0.90693 0.0
H515 H 0.91512 0.52266 0.93672 0.0
H516 H 0.88803 0.42353 0.96289 0.0
H517 H 0.83925 0.48441 0.90418 0.0
C518 C 0.81459 0.44743 0.88859 0.0
C519 C 0.8103 0.41753 0.88856 0.0
C520 C 0.89394 0.44532 0.95731 0.0
C521 C 0.85381 0.44541 0.92151 0.0
C522 C 0.91773 0.45925 0.97024 0.0
C523 C 0.92613 0.48728 0.9628 0.0
C524 C 0.87832 0.45968 0.9371 0.0
C525 C 0.90962 0.50098 0.94294 0.0
C526 C 0.83622 0.46136 0.90489 0.0
C527 C 0.82776 0.40238 0.90626 0.0
N528 N 0.8866 0.48707 0.93081 0.0
N529 N 0.84887 0.41647 0.92188 0.0
H530 H 0.73 0.56103 0.45548 0.0
H531 H 0.57101 0.56142 0.42037 0.0
H532 H 0.69602 0.62465 0.40222 0.0
H533 H 0.59982 0.53344 0.50301 0.0
H534 H 0.61757 0.58115 0.41098 0.0
H535 H 0.68329 0.54682 0.47132 0.0
C536 C 0.71273 0.5721 0.44732 0.0
C537 C 0.71678 0.59401 0.42753 0.0
C538 C 0.61368 0.57093 0.43129 0.0
C539 C 0.66365 0.57771 0.44514 0.0
C540 C 0.58718 0.55957 0.4366 0.0
C541 C 0.58167 0.54576 0.46247 0.0
C542 C 0.63502 0.56784 0.45165 0.0
C543 C 0.60329 0.54405 0.48285 0.0
C544 C 0.68621 0.56412 0.45646 0.0
C545 C 0.69379 0.60779 0.41766 0.0
N546 N 0.62923 0.5546 0.47682 0.0
N547 N 0.66818 0.59916 0.42627 0.0
H548 H 0.06476 0.28649 0.09529 0.0
H549 H 0.06617 0.44019 0.02286 0.0
H550 H 0.13876 0.3315 0.06603 0.0
H551 H 0.99362 0.39576 0.05603 0.0
H552 H 0.09244 0.39882 0.03394 0.0
H553 H 0.03803 0.32497 0.07778 0.0
C554 C 0.07547 0.3045 0.08533 0.0
C555 C 0.10419 0.30565 0.08236 0.0
C556 C 0.0707 0.39803 0.0385 0.0
C557 C 0.07343 0.34992 0.06171 0.0
C558 C 0.05562 0.42157 0.03194 0.0
C559 C 0.02763 0.4216 0.03866 0.0
C560 C 0.0577 0.3743 0.05183 0.0
C561 C 0.01517 0.39686 0.05062 0.0
C562 C 0.06011 0.32644 0.07508 0.0
C563 C 0.11668 0.32942 0.06862 0.0
N564 N 0.03028 0.37441 0.05699 0.0
N565 N 0.10129 0.35059 0.05895 0.0
H566 H 0.66307 0.16109 0.90795 0.0
H567 H 0.51224 0.09578 0.92272 0.0
H568 H 0.59951 0.16963 0.84257 0.0
H569 H 0.58014 0.06822 0.97374 0.0
H570 H 0.54474 0.11644 0.88847 0.0
H571 H 0.63496 0.12196 0.92815 0.0
C572 C 0.64348 0.15445 0.8974 0.0
C573 C 0.63357 0.1692 0.8737 0.0
C574 C 0.55263 0.10509 0.9066 0.0
C575 C 0.60086 0.12451 0.89733 0.0
C576 C 0.53402 0.093 0.92595 0.0
C577 C 0.5436 0.08014 0.95085 0.0
C578 C 0.58107 0.10516 0.91277 0.0
C579 C 0.572 0.07768 0.95454 0.0
C580 C 0.62734 0.13206 0.90909 0.0
C581 C 0.60776 0.15958 0.86135 0.0
N582 N 0.58983 0.09075 0.93609 0.0
N583 N 0.59216 0.13822 0.87357 0.0
H584 H 0.97812 0.76963 0.45977 0.0
H585 H 0.96602 0.92758 0.52271 0.0
H586 H 0.90637 0.79846 0.50145 0.0
H587 H 0.02893 0.90224 0.46567 0.0
H588 H 0.95165 0.87696 0.52909 0.0
H589 H 1.00362 0.81447 0.47479 0.0
C590 C 0.96779 0.78526 0.4723 0.0
C591 C 0.93987 0.78047 0.47881 0.0
C592 C 0.96919 0.88246 0.51593 0.0
C593 C 0.96904 0.83183 0.4963 0.0
C594 C 0.97762 0.9113 0.51265 0.0
C595 C 0.99855 0.91886 0.49355 0.0
C596 C 0.9819 0.86135 0.49997 0.0
C597 C 0.01262 0.89711 0.48052 0.0
C598 C 0.98242 0.81079 0.48105 0.0
C599 C 0.92781 0.8012 0.49584 0.0
N600 N 1.00377 0.86934 0.48358 0.0
N601 N 0.94233 0.82615 0.50359 0.0
H602 H 0.39883 0.7241 0.55353 0.0
H603 H 0.5312 0.63372 0.55701 0.0
H604 H 0.47838 0.75489 0.58971 0.0
H605 H 0.45429 0.60269 0.51533 0.0
H606 H 0.51383 0.68102 0.5621 0.0
H607 H 0.41968 0.68205 0.53365 0.0
C608 C 0.42069 0.72216 0.55714 0.0
C609 C 0.43678 0.74305 0.57358 0.0
C610 C 0.50084 0.6641 0.55132 0.0
C611 C 0.46082 0.69506 0.55065 0.0
C612 C 0.51085 0.63712 0.54827 0.0
C613 C 0.49413 0.61433 0.53578 0.0
C614 C 0.47361 0.66824 0.54242 0.0
C615 C 0.46791 0.61981 0.52486 0.0
C616 C 0.43262 0.69824 0.5456 0.0
C617 C 0.46511 0.73959 0.57704 0.0
N618 N 0.45821 0.64613 0.52894 0.0
N619 N 0.4761 0.71598 0.56596 0.0
H620 H 0.87568 0.94501 0.71985 0.0
H621 H 0.9706 0.94209 0.58078 0.0
H622 H 0.92356 0.87385 0.69785 0.0
H623 H 0.93997 0.01819 0.61847 0.0
H624 H 0.94573 0.91357 0.61706 0.0
H625 H 0.89196 0.96899 0.67686 0.0
C626 C 0.88963 0.93436 0.70607 0.0
C627 C 0.89847 0.90742 0.71294 0.0
C628 C 0.94412 0.93647 0.61702 0.0
C629 C 0.91692 0.93478 0.66301 0.0
C630 C 0.95804 0.95266 0.59613 0.0
C631 C 0.95736 0.98252 0.5967 0.0
C632 C 0.92924 0.95029 0.63827 0.0
C633 C 0.94113 0.99522 0.61736 0.0
C634 C 0.89878 0.94804 0.68133 0.0
C635 C 0.91599 0.8945 0.69353 0.0
N636 N 0.92789 0.97913 0.63732 0.0
N637 N 0.92476 0.90835 0.66961 0.0
H638 H 0.62415 0.13358 0.22115 0.0
H639 H 0.52933 0.02537 0.11815 0.0
H640 H 0.56228 0.07375 0.25429 0.0
H641 H 0.56791 0.10534 0.0909 0.0
H642 H 0.54892 0.03575 0.16715 0.0
H643 H 0.61152 0.11595 0.1722 0.0
C644 C 0.60819 0.11642 0.21817 0.0
C645 C 0.59414 0.10524 0.24185 0.0
C646 C 0.55326 0.05081 0.15029 0.0
C647 C 0.57945 0.08507 0.18578 0.0
C648 C 0.54226 0.04483 0.12236 0.0
C649 C 0.54684 0.06466 0.10056 0.0
C650 C 0.56932 0.07649 0.15614 0.0
C651 C 0.56362 0.08963 0.10716 0.0
C652 C 0.60086 0.1065 0.1902 0.0
C653 C 0.57338 0.08322 0.2366 0.0
N654 N 0.57421 0.09483 0.13431 0.0
N655 N 0.56659 0.07388 0.2091 0.0
H656 H 0.40277 0.68207 0.39334 0.0
H657 H 0.4124 0.51619 0.42052 0.0
H658 H 0.35468 0.61398 0.34697 0.0
H659 H 0.46478 0.58168 0.46525 0.0
H660 H 0.38416 0.55276 0.4016 0.0
H661 H 0.41984 0.64696 0.42632 0.0
C662 C 0.39564 0.65981 0.39014 0.0
C663 C 0.37744 0.65104 0.367 0.0
C664 C 0.40142 0.55925 0.41608 0.0
C665 C 0.39667 0.61076 0.40504 0.0
C666 C 0.41735 0.53831 0.42713 0.0
C667 C 0.44082 0.54599 0.44451 0.0
C668 C 0.40938 0.58823 0.42186 0.0
C669 C 0.4466 0.57493 0.4522 0.0
C670 C 0.40526 0.63981 0.40915 0.0
C671 C 0.36849 0.62195 0.36448 0.0
N672 N 0.43131 0.59513 0.44031 0.0
N673 N 0.37838 0.60293 0.38302 0.0
H674 H 0.15494 0.47583 0.8241 0.0
H675 H 0.04535 0.45646 0.94923 0.0
H676 H 0.10212 0.39886 0.83214 0.0
H677 H 0.08083 0.53741 0.92128 0.0
H678 H 0.0742 0.43196 0.91479 0.0
H679 H 0.13598 0.4953 0.8679 0.0
C680 C 0.13964 0.46279 0.8353 0.0
C681 C 0.13004 0.43567 0.82426 0.0
C682 C 0.07603 0.45507 0.9167 0.0
C683 C 0.1079 0.45815 0.87447 0.0
C684 C 0.05986 0.46897 0.93652 0.0
C685 C 0.06082 0.49891 0.93793 0.0
C686 C 0.0934 0.47136 0.89865 0.0
C687 C 0.07952 0.51427 0.92072 0.0
C688 C 0.12869 0.47403 0.86027 0.0
C689 C 0.10983 0.42003 0.83962 0.0
N690 N 0.09494 0.50035 0.90172 0.0
N691 N 0.0993 0.43155 0.86388 0.0
H692 H 0.72112 0.91484 0.9709 0.0
H693 H 0.59065 0.0108 0.96541 0.0
H694 H 0.70321 0.96839 0.89948 0.0
H695 H 0.60538 0.94924 0.03048 0.0
H696 H 0.63519 1.00135 0.94438 0.0
H697 H 0.6817 0.93209 0.9958 0.0
C698 C 0.7089 0.93018 0.96036 0.0
C699 C 0.71553 0.93991 0.93284 0.0
C700 C 0.6288 0.99023 0.96351 0.0
C701 C 0.67023 0.9602 0.96161 0.0
C702 C 0.60352 0.99585 0.97568 0.0
C703 C 0.5942 0.98067 0.99965 0.0
C704 C 0.64486 0.96943 0.97553 0.0
C705 C 0.61161 0.96128 1.01187 0.0
C706 C 0.68644 0.94021 0.97473 0.0
C707 C 0.69913 0.96037 0.92072 0.0
N708 N 0.63587 0.9561 0.9996 0.0
N709 N 0.6772 0.96968 0.93507 0.0
H710 H 0.78289 0.04874 0.42318 0.0
H711 H 0.93042 0.07154 0.5041 0.0
H712 H 0.8105 0.12894 0.46575 0.0
H713 H 0.9078 0.00548 0.43955 0.0
H714 H 0.88487 0.09051 0.49664 0.0
H715 H 0.82664 0.0298 0.43616 0.0
C716 C 0.79803 0.06229 0.43563 0.0
C717 C 0.79293 0.09048 0.44344 0.0
C718 C 0.89001 0.07185 0.48421 0.0
C719 C 0.84357 0.06896 0.45798 0.0
C720 C 0.9159 0.06098 0.48851 0.0
C721 C 0.92299 0.03699 0.4723 0.0
C722 C 0.87108 0.05829 0.46395 0.0
C723 C 0.9034 0.02416 0.45237 0.0
C724 C 0.82317 0.05153 0.44281 0.0
C725 C 0.81367 0.10717 0.45908 0.0
N726 N 0.87844 0.0349 0.44884 0.0
N727 N 0.83814 0.09616 0.46586 0.0
H728 H 0.18978 0.6511 0.11909 0.0
H729 H 0.08553 0.51114 0.10853 0.0
H730 H 0.19257 0.57979 0.17578 0.0
H731 H 0.07938 0.58157 0.05121 0.0
H732 H 0.12638 0.53558 0.13145 0.0
H733 H 0.15066 0.62595 0.09254 0.0
C734 C 0.18221 0.6302 0.12599 0.0
C735 C 0.19463 0.61756 0.14972 0.0
C736 C 0.11623 0.54575 0.11381 0.0
C737 C 0.15 0.58859 0.11927 0.0
C738 C 0.09282 0.53175 0.10064 0.0
C739 C 0.07883 0.54436 0.07796 0.0
C740 C 0.12588 0.57273 0.10443 0.0
C741 C 0.08948 0.57106 0.06864 0.0
C742 C 0.15997 0.6158 0.11071 0.0
C743 C 0.18408 0.59027 0.15739 0.0
N744 N 0.1123 0.58445 0.08203 0.0
N745 N 0.16243 0.57682 0.1423 0.0
H746 H 0.29845 0.39741 0.55731 0.0
H747 H 0.4187 0.51508 0.60489 0.0
H748 H 0.29217 0.45879 0.62746 0.0
H749 H 0.4187 0.46575 0.52494 0.0
H750 H 0.37309 0.49319 0.6144 0.0
H751 H 0.34309 0.42082 0.54584 0.0
C752 C 0.30631 0.41592 0.57019 0.0
C753 C 0.29144 0.42607 0.59346 0.0
C754 C 0.38299 0.4872 0.59472 0.0
C755 C 0.34283 0.45271 0.58065 0.0
C756 C 0.40911 0.49966 0.58928 0.0
C757 C 0.42264 0.49221 0.56409 0.0
C758 C 0.37028 0.46691 0.57497 0.0
C759 C 0.40906 0.47216 0.54463 0.0
C760 C 0.33189 0.42919 0.56369 0.0
C761 C 0.30301 0.44986 0.60965 0.0
N762 N 0.38368 0.46009 0.55055 0.0
N763 N 0.328 0.46229 0.60299 0.0
H764 H 0.86873 0.70453 0.96927 0.0
H765 H 0.01508 0.63705 0.98517 0.0
H766 H 0.94518 0.74398 0.93946 0.0
H767 H 0.93936 0.59359 1.01183 0.0
H768 H 0.99 0.67859 0.97349 0.0
H769 H 0.89405 0.66555 0.9885 0.0
C770 C 0.8908 0.70503 0.96663 0.0
C771 C 0.90472 0.72774 0.95252 0.0
C772 C 0.97881 0.66015 0.98217 0.0
C773 C 0.93397 0.68316 0.97505 0.0
C774 C 0.99319 0.63641 0.98904 0.0
C775 C 0.97933 0.61165 0.99938 0.0
C776 C 0.95015 0.65929 0.98539 0.0
C777 C 0.95093 0.61221 1.00399 0.0
C778 C 0.90527 0.68282 0.97787 0.0
C779 C 0.93346 0.72729 0.95039 0.0
N780 N 0.93721 0.6355 0.99664 0.0
N781 N 0.94701 0.70542 0.9614 0.0
H782 H 0.41425 0.84789 0.18379 0.0
H783 H 0.43325 0.9679 0.06589 0.0
H784 H 0.34611 0.88273 0.13849 0.0
H785 H 0.49905 0.92397 0.10474 0.0
H786 H 0.40139 0.94625 0.10085 0.0
H787 H 0.44538 0.88456 0.16375 0.0
C788 C 0.40567 0.86356 0.17009 0.0
C789 C 0.37745 0.86183 0.16256 0.0
C790 C 0.42297 0.94198 0.10221 0.0
C791 C 0.41335 0.90376 0.13884 0.0
C792 C 0.44116 0.95461 0.08252 0.0
C793 C 0.46869 0.94759 0.08255 0.0
C794 C 0.43257 0.92235 0.12192 0.0
C795 C 0.4779 0.92982 0.10406 0.0
C796 C 0.42357 0.88446 0.15844 0.0
C797 C 0.36779 0.88273 0.14436 0.0
N798 N 0.45986 0.91757 0.12263 0.0
N799 N 0.38573 0.90257 0.13282 0.0
H800 H 0.01631 0.25339 0.60665 0.0
H801 H 0.05362 0.11686 0.51899 0.0
H802 H 0.08719 0.25212 0.55259 0.0
H803 H 0.97887 0.1233 0.56557 0.0
H804 H 0.06072 0.16915 0.52055 0.0
H805 H 0.99707 0.20982 0.58235 0.0
C806 C 0.02765 0.24441 0.58925 0.0
C807 C 0.05382 0.25635 0.58223 0.0
C808 C 0.04222 0.15923 0.52952 0.0
C809 C 0.03205 0.20546 0.55472 0.0
C810 C 0.038 0.1294 0.52823 0.0
C811 C 0.01563 0.11598 0.54215 0.0
C812 C 0.0241 0.17543 0.54522 0.0
C813 C 0.99632 0.13301 0.55451 0.0
C814 C 0.01665 0.21925 0.57542 0.0
C815 C 0.06742 0.24326 0.55953 0.0
N816 N 1.00127 0.16183 0.55629 0.0
N817 N 0.05666 0.21824 0.54701 0.0
H818 H 0.55556 0.28405 0.43179 0.0
H819 H 0.54486 0.42928 0.52231 0.0
H820 H 0.60496 0.30556 0.50908 0.0
H821 H 0.48961 0.40072 0.45155 0.0
H822 H 0.56433 0.38248 0.52133 0.0
H823 H 0.52885 0.32496 0.44153 0.0
C824 C 0.56061 0.29709 0.45107 0.0
C825 C 0.58272 0.29124 0.46955 0.0
C826 C 0.54759 0.38628 0.50638 0.0
C827 C 0.55235 0.33885 0.48056 0.0
C828 C 0.53623 0.4129 0.5072 0.0
C829 C 0.51555 0.4189 0.48706 0.0
C830 C 0.53829 0.36569 0.48508 0.0
C831 C 0.50567 0.3971 0.46737 0.0
C832 C 0.54538 0.32065 0.45654 0.0
C833 C 0.58846 0.30946 0.49389 0.0
N834 N 0.51731 0.37164 0.46668 0.0
N835 N 0.57354 0.33254 0.49855 0.0
loop_
_geom_bond_atom_site_label_1
_geom_bond_atom_site_label_2
_geom_bond_distance
_geom_bond_site_symmetry_2
_ccdc_geom_bond_type
C0 C1 1.264 . S
C0 C5 1.479 . S
C0 C10 1.465 . S
C1 C0 1.264 . S
C1 C3 1.339 . S
C1 H28 0.931 . S
C2 C3 1.395 . S
C2 C4 1.320 . S
C3 C1 1.339 . S
C3 C2 1.395 . S
C3 H29 0.929 . S
C4 C2 1.320 . S
C4 C5 1.405 . S
C4 H30 0.930 . S
C5 C0 1.479 . S
C5 C4 1.405 . S
C5 H31 0.931 . S
U6 O7 2.454 . S
U6 O8 2.458 . S
U6 C9 2.984 . S
U6 C10 2.847 . S
U6 C23 2.882 . S
U6 O24 2.441 . S
U6 O25 2.420 . S
U6 O26 2.455 . S
U6 O27 2.449 . S
O7 U6 2.454 . S
O7 C9 1.353 . S
O8 U6 2.458 . S
O8 C9 1.286 . S
C9 U6 2.984 . S
C9 O7 1.353 . S
C9 O8 1.286 . S
C9 C11 1.363 . S
C10 C0 1.465 . S
C10 U6 2.847 . S
C10 O24 1.249 . S
C10 O25 1.202 . S
C11 C9 1.363 . S
C11 C13 1.408 . S
C11 C16 1.342 . S
C12 C13 1.310 . S
C12 C15 1.461 . S
C12 H32 0.932 . S
C13 C11 1.408 . S
C13 C12 1.310 . S
C13 H33 0.930 . S
C14 C15 1.474 . S
C14 C16 1.285 . S
C14 H34 0.929 . S
C15 C12 1.461 . S
C15 C14 1.474 . S
C16 C11 1.342 . S
C16 C14 1.285 . S
C16 H35 0.930 . S
C17 C20 1.424 . S
C17 C22 1.245 . S
C17 C23 1.428 . S
C18 C21 1.260 . S
C18 C22 1.477 . S
C18 H36 0.932 . S
C19 C20 1.384 . S
C19 C21 1.479 . S
C19 H37 0.929 . S
C20 C17 1.424 . S
C20 C19 1.384 . S
C20 H38 0.928 . S
C21 C18 1.260 . S
C21 C19 1.479 . S
C22 C17 1.245 . S
C22 C18 1.477 . S
C22 H39 0.932 . S
C23 U6 2.882 . S
C23 C17 1.428 . S
C23 O26 1.301 . S
C23 O27 1.282 . S
O24 U6 2.441 . S
O24 C10 1.249 . S
O25 U6 2.420 . S
O25 C10 1.202 . S
O26 U6 2.455 . S
O26 C23 1.301 . S
O27 U6 2.449 . S
O27 C23 1.282 . S
H28 C1 0.931 . S
H29 C3 0.929 . S
H30 C4 0.930 . S
H31 C5 0.931 . S
H32 C12 0.932 . S
H33 C13 0.930 . S
H34 C14 0.929 . S
H35 C16 0.930 . S
H36 C18 0.932 . S
H37 C19 0.929 . S
H38 C20 0.928 . S
H39 C22 0.932 . S
C40 C41 1.264 . S
C40 C45 1.479 . S
C40 C50 1.465 . S
C41 C40 1.264 . S
C41 C43 1.339 . S
C41 H68 0.931 . S
C42 C43 1.395 . S
C42 C44 1.320 . S
C43 C41 1.339 . S
C43 C42 1.395 . S
C43 H69 0.929 . S
C44 C42 1.320 . S
C44 C45 1.405 . S
C44 H70 0.930 . S
C45 C40 1.479 . S
C45 C44 1.405 . S
C45 H71 0.931 . S
U46 O47 2.454 . S
U46 O48 2.458 . S
U46 C49 2.984 . S
U46 C50 2.847 . S
U46 C63 2.882 . S
U46 O64 2.441 . S
U46 O65 2.420 . S
U46 O66 2.455 . S
U46 O67 2.449 . S
O47 U46 2.454 . S
O47 C49 1.353 . S
O48 U46 2.458 . S
O48 C49 1.286 . S
C49 U46 2.984 . S
C49 O47 1.353 . S
C49 O48 1.286 . S
C49 C51 1.363 . S
C50 C40 1.465 . S
C50 U46 2.847 . S
C50 O64 1.249 . S
C50 O65 1.202 . S
C51 C49 1.363 . S
C51 C53 1.408 . S
C51 C56 1.342 . S
C52 C53 1.310 . S
C52 C55 1.461 . S
C52 H72 0.932 . S
C53 C51 1.408 . S
C53 C52 1.310 . S
C53 H73 0.930 . S
C54 C55 1.474 . S
C54 C56 1.285 . S
C54 H74 0.929 . S
C55 C52 1.461 . S
C55 C54 1.474 . S
C56 C51 1.342 . S
C56 C54 1.285 . S
C56 H75 0.930 . S
C57 C60 1.424 . S
C57 C62 1.245 . S
C57 C63 1.428 . S
C58 C61 1.260 . S
C58 C62 1.477 . S
C58 H76 0.932 . S
C59 C60 1.384 . S
C59 C61 1.479 . S
C59 H77 0.929 . S
C60 C57 1.424 . S
C60 C59 1.384 . S
C60 H78 0.928 . S
C61 C58 1.260 . S
C61 C59 1.479 . S
C62 C57 1.245 . S
C62 C58 1.477 . S
C62 H79 0.932 . S
C63 U46 2.882 . S
C63 C57 1.428 . S
C63 O66 1.301 . S
C63 O67 1.282 . S
O64 U46 2.441 . S
O64 C50 1.249 . S
O65 U46 2.420 . S
O65 C50 1.202 . S
O66 U46 2.455 . S
O66 C63 1.301 . S
O67 U46 2.449 . S
O67 C63 1.282 . S
H68 C41 0.931 . S
H69 C43 0.929 . S
H70 C44 0.930 . S
H71 C45 0.931 . S
H72 C52 0.932 . S
H73 C53 0.930 . S
H74 C54 0.929 . S
H75 C56 0.930 . S
H76 C58 0.932 . S
H77 C59 0.929 . S
H78 C60 0.928 . S
H79 C62 0.932 . S
C80 C81 1.264 . S
C80 C85 1.479 . S
C80 C90 1.465 . S
C81 C80 1.264 . S
C81 C83 1.339 . S
C81 H108 0.931 . S
C82 C83 1.395 . S
C82 C84 1.320 . S
C83 C81 1.339 . S
C83 C82 1.395 . S
C83 H109 0.929 . S
C84 C82 1.320 . S
C84 C85 1.405 . S
C84 H110 0.930 . S
C85 C80 1.479 . S
C85 C84 1.405 . S
C85 H111 0.931 . S
U86 O87 2.454 . S
U86 O88 2.458 . S
U86 C89 2.984 . S
U86 C90 2.847 . S
U86 C103 2.882 . S
U86 O104 2.441 . S
U86 O105 2.420 . S
U86 O106 2.455 . S
U86 O107 2.449 . S
O87 U86 2.454 . S
O87 C89 1.353 . S
O88 U86 2.458 . S
O88 C89 1.286 . S
C89 U86 2.984 . S
C89 O87 1.353 . S
C89 O88 1.286 . S
C89 C91 1.363 . S
C90 C80 1.465 . S
C90 U86 2.847 . S
C90 O104 1.249 . S
C90 O105 1.202 . S
C91 C89 1.363 . S
C91 C93 1.408 . S
C91 C96 1.342 . S
C92 C93 1.310 . S
C92 C95 1.461 . S
C92 H112 0.932 . S
C93 C91 1.408 . S
C93 C92 1.310 . S
C93 H113 0.930 . S
C94 C95 1.474 . S
C94 C96 1.285 . S
C94 H114 0.929 . S
C95 C92 1.461 . S
C95 C94 1.474 . S
C96 C91 1.342 . S
C96 C94 1.285 . S
C96 H115 0.930 . S
C97 C100 1.424 . S
C97 C102 1.245 . S
C97 C103 1.428 . S
C98 C101 1.260 . S
C98 C102 1.477 . S
C98 H116 0.932 . S
C99 C100 1.384 . S
C99 C101 1.479 . S
C99 H117 0.929 . S
C100 C97 1.424 . S
C100 C99 1.384 . S
C100 H118 0.928 . S
C101 C98 1.260 . S
C101 C99 1.479 . S
C102 C97 1.245 . S
C102 C98 1.477 . S
C102 H119 0.932 . S
C103 U86 2.882 . S
C103 C97 1.428 . S
C103 O106 1.301 . S
C103 O107 1.282 . S
O104 U86 2.441 . S
O104 C90 1.249 . S
O105 U86 2.420 . S
O105 C90 1.202 . S
O106 U86 2.455 . S
O106 C103 1.301 . S
O107 U86 2.449 . S
O107 C103 1.282 . S
H108 C81 0.931 . S
H109 C83 0.929 . S
H110 C84 0.930 . S
H111 C85 0.931 . S
H112 C92 0.932 . S
H113 C93 0.930 . S
H114 C94 0.929 . S
H115 C96 0.930 . S
H116 C98 0.932 . S
H117 C99 0.929 . S
H118 C100 0.928 . S
H119 C102 0.932 . S
C120 C121 1.264 . S
C120 C125 1.479 . S
C120 C130 1.465 . S
C121 C120 1.264 . S
C121 C123 1.339 . S
C121 H148 0.931 . S
C122 C123 1.395 . S
C122 C124 1.320 . S
C123 C121 1.339 . S
C123 C122 1.395 . S
C123 H149 0.929 . S
C124 C122 1.320 . S
C124 C125 1.405 . S
C124 H150 0.930 . S
C125 C120 1.479 . S
C125 C124 1.405 . S
C125 H151 0.931 . S
U126 O127 2.454 . S
U126 O128 2.458 . S
U126 C129 2.984 . S
U126 C130 2.847 . S
U126 C143 2.882 . S
U126 O144 2.441 . S
U126 O145 2.420 . S
U126 O146 2.455 . S
U126 O147 2.449 . S
O127 U126 2.454 . S
O127 C129 1.353 . S
O128 U126 2.458 . S
O128 C129 1.286 . S
C129 U126 2.984 . S
C129 O127 1.353 . S
C129 O128 1.286 . S
C129 C131 1.363 . S
C130 C120 1.465 . S
C130 U126 2.847 . S
C130 O144 1.249 . S
C130 O145 1.202 . S
C131 C129 1.363 . S
C131 C133 1.408 . S
C131 C136 1.342 . S
C132 C133 1.310 . S
C132 C135 1.461 . S
C132 H152 0.932 . S
C133 C131 1.408 . S
C133 C132 1.310 . S
C133 H153 0.930 . S
C134 C135 1.474 . S
C134 C136 1.285 . S
C134 H154 0.929 . S
C135 C132 1.461 . S
C135 C134 1.474 . S
C136 C131 1.342 . S
C136 C134 1.285 . S
C136 H155 0.930 . S
C137 C140 1.424 . S
C137 C142 1.245 . S
C137 C143 1.428 . S
C138 C141 1.260 . S
C138 C142 1.477 . S
C138 H156 0.932 . S
C139 C140 1.384 . S
C139 C141 1.479 . S
C139 H157 0.929 . S
C140 C137 1.424 . S
C140 C139 1.384 . S
C140 H158 0.928 . S
C141 C138 1.260 . S
C141 C139 1.479 . S
C142 C137 1.245 . S
C142 C138 1.477 . S
C142 H159 0.932 . S
C143 U126 2.882 . S
C143 C137 1.428 . S
C143 O146 1.301 . S
C143 O147 1.282 . S
O144 U126 2.441 . S
O144 C130 1.249 . S
O145 U126 2.420 . S
O145 C130 1.202 . S
O146 U126 2.455 . S
O146 C143 1.301 . S
O147 U126 2.449 . S
O147 C143 1.282 . S
H148 C121 0.931 . S
H149 C123 0.929 . S
H150 C124 0.930 . S
H151 C125 0.931 . S
H152 C132 0.932 . S
H153 C133 0.930 . S
H154 C134 0.929 . S
H155 C136 0.930 . S
H156 C138 0.932 . S
H157 C139 0.929 . S
H158 C140 0.928 . S
H159 C142 0.932 . S
C160 C161 1.264 . S
C160 C165 1.479 . S
C160 C170 1.465 . S
C161 C160 1.264 . S
C161 C163 1.339 . S
C161 H188 0.931 . S
C162 C163 1.395 . S
C162 C164 1.320 . S
C163 C161 1.339 . S
C163 C162 1.395 . S
C163 H189 0.929 . S
C164 C162 1.320 . S
C164 C165 1.405 . S
C164 H190 0.930 . S
C165 C160 1.479 . S
C165 C164 1.405 . S
C165 H191 0.931 . S
U166 O167 2.454 . S
U166 O168 2.458 . S
U166 C169 2.984 . S
U166 C170 2.847 . S
U166 C183 2.882 . S
U166 O184 2.441 . S
U166 O185 2.420 . S
U166 O186 2.455 . S
U166 O187 2.449 . S
O167 U166 2.454 . S
O167 C169 1.353 . S
O168 U166 2.458 . S
O168 C169 1.286 . S
C169 U166 2.984 . S
C169 O167 1.353 . S
C169 O168 1.286 . S
C169 C171 1.363 . S
C170 C160 1.465 . S
C170 U166 2.847 . S
C170 O184 1.249 . S
C170 O185 1.202 . S
C171 C169 1.363 . S
C171 C173 1.408 . S
C171 C176 1.342 . S
C172 C173 1.310 . S
C172 C175 1.461 . S
C172 H192 0.932 . S
C173 C171 1.408 . S
C173 C172 1.310 . S
C173 H193 0.930 . S
C174 C175 1.474 . S
C174 C176 1.285 . S
C174 H194 0.929 . S
C175 C172 1.461 . S
C175 C174 1.474 . S
C176 C171 1.342 . S
C176 C174 1.285 . S
C176 H195 0.930 . S
C177 C180 1.424 . S
C177 C182 1.245 . S
C177 C183 1.428 . S
C178 C181 1.260 . S
C178 C182 1.477 . S
C178 H196 0.932 . S
C179 C180 1.384 . S
C179 C181 1.479 . S
C179 H197 0.929 . S
C180 C177 1.424 . S
C180 C179 1.384 . S
C180 H198 0.928 . S
C181 C178 1.260 . S
C181 C179 1.479 . S
C182 C177 1.245 . S
C182 C178 1.477 . S
C182 H199 0.932 . S
C183 U166 2.882 . S
C183 C177 1.428 . S
C183 O186 1.301 . S
C183 O187 1.282 . S
O184 U166 2.441 . S
O184 C170 1.249 . S
O185 U166 2.420 . S
O185 C170 1.202 . S
O186 U166 2.455 . S
O186 C183 1.301 . S
O187 U166 2.449 . S
O187 C183 1.282 . S
H188 C161 0.931 . S
H189 C163 0.929 . S
H190 C164 0.930 . S
H191 C165 0.931 . S
H192 C172 0.932 . S
H193 C173 0.930 . S
H194 C174 0.929 . S
H195 C176 0.930 . S
H196 C178 0.932 . S
H197 C179 0.929 . S
H198 C180 0.928 . S
H199 C182 0.932 . S
C200 C201 1.264 . S
C200 C205 1.479 . S
C200 C210 1.465 . S
C201 C200 1.264 . S
C201 C203 1.339 . S
C201 H228 0.931 . S
C202 C203 1.395 . S
C202 C204 1.320 . S
C203 C201 1.339 . S
C203 C202 1.395 . S
C203 H229 0.929 . S
C204 C202 1.320 . S
C204 C205 1.405 . S
C204 H230 0.930 . S
C205 C200 1.479 . S
C205 C204 1.405 . S
C205 H231 0.931 . S
U206 O207 2.454 . S
U206 O208 2.458 . S
U206 C209 2.984 . S
U206 C210 2.847 . S
U206 C223 2.882 . S
U206 O224 2.441 . S
U206 O225 2.420 . S
U206 O226 2.455 . S
U206 O227 2.449 . S
O207 U206 2.454 . S
O207 C209 1.353 . S
O208 U206 2.458 . S
O208 C209 1.286 . S
C209 U206 2.984 . S
C209 O207 1.353 . S
C209 O208 1.286 . S
C209 C211 1.363 . S
C210 C200 1.465 . S
C210 U206 2.847 . S
C210 O224 1.249 . S
C210 O225 1.202 . S
C211 C209 1.363 . S
C211 C213 1.408 . S
C211 C216 1.342 . S
C212 C213 1.310 . S
C212 C215 1.461 . S
C212 H232 0.932 . S
C213 C211 1.408 . S
C213 C212 1.310 . S
C213 H233 0.930 . S
C214 C215 1.474 . S
C214 C216 1.285 . S
C214 H234 0.929 . S
C215 C212 1.461 . S
C215 C214 1.474 . S
C216 C211 1.342 . S
C216 C214 1.285 . S
C216 H235 0.930 . S
C217 C220 1.424 . S
C217 C222 1.245 . S
C217 C223 1.428 . S
C218 C221 1.260 . S
C218 C222 1.477 . S
C218 H236 0.932 . S
C219 C220 1.384 . S
C219 C221 1.479 . S
C219 H237 0.929 . S
C220 C217 1.424 . S
C220 C219 1.384 . S
C220 H238 0.928 . S
C221 C218 1.260 . S
C221 C219 1.479 . S
C222 C217 1.245 . S
C222 C218 1.477 . S
C222 H239 0.932 . S
C223 U206 2.882 . S
C223 C217 1.428 . S
C223 O226 1.301 . S
C223 O227 1.282 . S
O224 U206 2.441 . S
O224 C210 1.249 . S
O225 U206 2.420 . S
O225 C210 1.202 . S
O226 U206 2.455 . S
O226 C223 1.301 . S
O227 U206 2.449 . S
O227 C223 1.282 . S
H228 C201 0.931 . S
H229 C203 0.929 . S
H230 C204 0.930 . S
H231 C205 0.931 . S
H232 C212 0.932 . S
H233 C213 0.930 . S
H234 C214 0.929 . S
H235 C216 0.930 . S
H236 C218 0.932 . S
H237 C219 0.929 . S
H238 C220 0.928 . S
H239 C222 0.932 . S
C240 C241 1.264 . S
C240 C245 1.479 . S
C240 C250 1.465 . S
C241 C240 1.264 . S
C241 C243 1.339 . S
C241 H268 0.931 . S
C242 C243 1.395 . S
C242 C244 1.320 . S
C243 C241 1.339 . S
C243 C242 1.395 . S
C243 H269 0.929 . S
C244 C242 1.320 . S
C244 C245 1.405 . S
C244 H270 0.930 . S
C245 C240 1.479 . S
C245 C244 1.405 . S
C245 H271 0.931 . S
U246 O247 2.454 . S
U246 O248 2.458 . S
U246 C249 2.984 . S
U246 C250 2.847 . S
U246 C263 2.882 . S
U246 O264 2.441 . S
U246 O265 2.420 . S
U246 O266 2.455 . S
U246 O267 2.449 . S
O247 U246 2.454 . S
O247 C249 1.353 . S
O248 U246 2.458 . S
O248 C249 1.286 . S
C249 U246 2.984 . S
C249 O247 1.353 . S
C249 O248 1.286 . S
C249 C251 1.363 . S
C250 C240 1.465 . S
C250 U246 2.847 . S
C250 O264 1.249 . S
C250 O265 1.202 . S
C251 C249 1.363 . S
C251 C253 1.408 . S
C251 C256 1.342 . S
C252 C253 1.310 . S
C252 C255 1.461 . S
C252 H272 0.932 . S
C253 C251 1.408 . S
C253 C252 1.310 . S
C253 H273 0.930 . S
C254 C255 1.474 . S
C254 C256 1.285 . S
C254 H274 0.929 . S
C255 C252 1.461 . S
C255 C254 1.474 . S
C256 C251 1.342 . S
C256 C254 1.285 . S
C256 H275 0.930 . S
C257 C260 1.424 . S
C257 C262 1.245 . S
C257 C263 1.428 . S
C258 C261 1.260 . S
C258 C262 1.477 . S
C258 H276 0.932 . S
C259 C260 1.384 . S
C259 C261 1.479 . S
C259 H277 0.929 . S
C260 C257 1.424 . S
C260 C259 1.384 . S
C260 H278 0.928 . S
C261 C258 1.260 . S
C261 C259 1.479 . S
C262 C257 1.245 . S
C262 C258 1.477 . S
C262 H279 0.932 . S
C263 U246 2.882 . S
C263 C257 1.428 . S
C263 O266 1.301 . S
C263 O267 1.282 . S
O264 U246 2.441 . S
O264 C250 1.249 . S
O265 U246 2.420 . S
O265 C250 1.202 . S
O266 U246 2.455 . S
O266 C263 1.301 . S
O267 U246 2.449 . S
O267 C263 1.282 . S
H268 C241 0.931 . S
H269 C243 0.929 . S
H270 C244 0.930 . S
H271 C245 0.931 . S
H272 C252 0.932 . S
H273 C253 0.930 . S
H274 C254 0.929 . S
H275 C256 0.930 . S
H276 C258 0.932 . S
H277 C259 0.929 . S
H278 C260 0.928 . S
H279 C262 0.932 . S
C280 C281 1.264 . S
C280 C285 1.479 . S
C280 C290 1.465 . S
C281 C280 1.264 . S
C281 C283 1.339 . S
C281 H308 0.931 . S
C282 C283 1.395 . S
C282 C284 1.320 . S
C283 C281 1.339 . S
C283 C282 1.395 . S
C283 H309 0.929 . S
C284 C282 1.320 . S
C284 C285 1.405 . S
C284 H310 0.930 . S
C285 C280 1.479 . S
C285 C284 1.405 . S
C285 H311 0.931 . S
U286 O287 2.454 . S
U286 O288 2.458 . S
U286 C289 2.984 . S
U286 C290 2.847 . S
U286 C303 2.882 . S
U286 O304 2.441 . S
U286 O305 2.420 . S
U286 O306 2.455 . S
U286 O307 2.449 . S
O287 U286 2.454 . S
O287 C289 1.353 . S
O288 U286 2.458 . S
O288 C289 1.286 . S
C289 U286 2.984 . S
C289 O287 1.353 . S
C289 O288 1.286 . S
C289 C291 1.363 . S
C290 C280 1.465 . S
C290 U286 2.847 . S
C290 O304 1.249 . S
C290 O305 1.202 . S
C291 C289 1.363 . S
C291 C293 1.408 . S
C291 C296 1.342 . S
C292 C293 1.310 . S
C292 C295 1.461 . S
C292 H312 0.932 . S
C293 C291 1.408 . S
C293 C292 1.310 . S
C293 H313 0.930 . S
C294 C295 1.474 . S
C294 C296 1.285 . S
C294 H314 0.929 . S
C295 C292 1.461 . S
C295 C294 1.474 . S
C296 C291 1.342 . S
C296 C294 1.285 . S
C296 H315 0.930 . S
C297 C300 1.424 . S
C297 C302 1.245 . S
C297 C303 1.428 . S
C298 C301 1.260 . S
C298 C302 1.477 . S
C298 H316 0.932 . S
C299 C300 1.384 . S
C299 C301 1.479 . S
C299 H317 0.929 . S
C300 C297 1.424 . S
C300 C299 1.384 . S
C300 H318 0.928 . S
C301 C298 1.260 . S
C301 C299 1.479 . S
C302 C297 1.245 . S
C302 C298 1.477 . S
C302 H319 0.932 . S
C303 U286 2.882 . S
C303 C297 1.428 . S
C303 O306 1.301 . S
C303 O307 1.282 . S
O304 U286 2.441 . S
O304 C290 1.249 . S
O305 U286 2.420 . S
O305 C290 1.202 . S
O306 U286 2.455 . S
O306 C303 1.301 . S
O307 U286 2.449 . S
O307 C303 1.282 . S
H308 C281 0.931 . S
H309 C283 0.929 . S
H310 C284 0.930 . S
H311 C285 0.931 . S
H312 C292 0.932 . S
H313 C293 0.930 . S
H314 C294 0.929 . S
H315 C296 0.930 . S
H316 C298 0.932 . S
H317 C299 0.929 . S
H318 C300 0.928 . S
H319 C302 0.932 . S
O320 Mg321 1.990 . S
O320 C334 1.253 1_445 S
Mg321 O320 1.990 . S
Mg321 O324 2.180 . S
Mg321 O325 2.117 . S
Mg321 O339 2.030 1_545 S
O322 Mg323 2.072 1_665 S
O322 C334 1.260 . S
Mg323 O322 2.072 1_445 S
Mg323 O324 2.099 . S
Mg323 O326 2.079 . S
Mg323 O327 2.072 1_455 S
Mg323 O329 2.099 1_445 S
Mg323 O340 2.079 1_545 S
O324 Mg321 2.180 . S
O324 Mg323 2.099 . S
O324 C335 1.279 . S
O325 Mg321 2.117 . S
O325 C335 1.250 . S
O326 Mg323 2.079 . S
O326 C336 1.264 . S
O327 Mg323 2.072 1_655 S
O327 C337 1.260 . S
Mg328 O329 2.180 . S
Mg328 O330 2.030 1_565 S
Mg328 O331 1.990 1_565 S
Mg328 O332 2.117 . S
O329 Mg323 2.099 1_665 S
O329 Mg328 2.180 . S
O329 C338 1.279 . S
O330 Mg328 2.030 1_545 S
O330 C336 1.248 1_655 S
O331 Mg328 1.990 1_545 S
O331 C337 1.253 . S
O332 Mg328 2.117 . S
O332 C338 1.250 . S
C333 O339 1.248 . S
C333 O340 1.264 . S
C334 O320 1.253 1_665 S
C334 O322 1.260 . S
C335 O324 1.279 . S
C335 O325 1.250 . S
C336 O326 1.264 . S
C336 O330 1.248 1_455 S
C337 O327 1.260 . S
C337 O331 1.253 . S
C338 O329 1.279 . S
C338 O332 1.250 . S
O339 Mg321 2.030 1_565 S
O339 C333 1.248 . S
O340 Mg323 2.079 1_565 S
O340 C333 1.264 . S
O341 Mg342 1.990 . S
O341 C355 1.253 . S
Mg342 O341 1.990 . S
Mg342 O345 2.180 . S
Mg342 O346 2.117 1_554 S
Mg342 O360 2.030 . S
O343 Mg344 2.072 . S
O343 C355 1.260 . S
Mg344 O343 2.072 . S
Mg344 O345 2.099 . S
Mg344 O347 2.079 1_554 S
Mg344 O348 2.072 1_554 S
Mg344 O350 2.099 1_545 S
Mg344 O361 2.079 . S
O345 Mg342 2.180 . S
O345 Mg344 2.099 . S
O345 C356 1.279 1_554 S
O346 Mg342 2.117 1_556 S
O346 C356 1.250 . S
O347 Mg344 2.079 1_556 S
O347 C357 1.264 1_545 S
O348 Mg344 2.072 1_556 S
O348 C358 1.260 1_545 S
Mg349 O350 2.180 1_556 S
Mg349 O351 2.030 . S
Mg349 O352 1.990 . S
Mg349 O353 2.117 1_556 S
O350 Mg344 2.099 1_565 S
O350 Mg349 2.180 1_554 S
O350 C359 1.279 . S
O351 Mg349 2.030 . S
O351 C357 1.248 . S
O352 Mg349 1.990 . S
O352 C358 1.253 . S
O353 Mg349 2.117 1_554 S
O353 C359 1.250 . S
C354 O360 1.248 . S
C354 O361 1.264 . S
C355 O341 1.253 . S
C355 O343 1.260 . S
C356 O345 1.279 1_556 S
C356 O346 1.250 . S
C357 O347 1.264 1_565 S
C357 O351 1.248 . S
C358 O348 1.260 1_565 S
C358 O352 1.253 . S
C359 O350 1.279 . S
C359 O353 1.250 . S
O360 Mg342 2.030 . S
O360 C354 1.248 . S
O361 Mg344 2.079 . S
O361 C354 1.264 . S
O362 Mg363 1.990 . S
O362 C376 1.253 . S
Mg363 O362 1.990 . S
Mg363 O366 2.180 . S
Mg363 O367 2.117 . S
Mg363 O381 2.030 . S
O364 Mg365 2.072 . S
O364 C376 1.260 . S
Mg365 O364 2.072 . S
Mg365 O366 2.099 . S
Mg365 O368 2.079 . S
Mg365 O369 2.072 . S
Mg365 O371 2.099 . S
Mg365 O382 2.079 . S
O366 Mg363 2.180 . S
O366 Mg365 2.099 . S
O366 C377 1.279 . S
O367 Mg363 2.117 . S
O367 C377 1.250 . S
O368 Mg365 2.079 . S
O368 C378 1.264 . S
O369 Mg365 2.072 . S
O369 C379 1.260 . S
Mg370 O371 2.180 . S
Mg370 O372 2.030 . S
Mg370 O373 1.990 . S
Mg370 O374 2.117 . S
O371 Mg365 2.099 . S
O371 Mg370 2.180 . S
O371 C380 1.279 . S
O372 Mg370 2.030 . S
O372 C378 1.248 . S
O373 Mg370 1.990 . S
O373 C379 1.253 . S
O374 Mg370 2.117 . S
O374 C380 1.250 . S
C375 O381 1.248 . S
C375 O382 1.264 . S
C376 O362 1.253 . S
C376 O364 1.260 . S
C377 O366 1.279 . S
C377 O367 1.250 . S
C378 O368 1.264 . S
C378 O372 1.248 . S
C379 O369 1.260 . S
C379 O373 1.253 . S
C380 O371 1.279 . S
C380 O374 1.250 . S
O381 Mg363 2.030 . S
O381 C375 1.248 . S
O382 Mg365 2.079 . S
O382 C375 1.264 . S
O383 Mg384 1.990 . S
O383 C397 1.253 . S
Mg384 O383 1.990 . S
Mg384 O387 2.180 1_455 S
Mg384 O388 2.117 1_455 S
Mg384 O402 2.030 . S
O385 Mg386 2.072 . S
O385 C397 1.260 . S
Mg386 O385 2.072 . S
Mg386 O387 2.099 1_455 S
Mg386 O389 2.079 1_454 S
Mg386 O390 2.072 1_455 S
Mg386 O392 2.099 1_554 S
Mg386 O403 2.079 . S
O387 Mg384 2.180 1_655 S
O387 Mg386 2.099 1_655 S
O387 C398 1.279 . S
O388 Mg384 2.117 1_655 S
O388 C398 1.250 . S
O389 Mg386 2.079 1_656 S
O389 C399 1.264 . S
O390 Mg386 2.072 1_655 S
O390 C400 1.260 1_554 S
Mg391 O392 2.180 1_655 S
Mg391 O393 2.030 . S
Mg391 O394 1.990 . S
Mg391 O395 2.117 . S
O392 Mg386 2.099 1_556 S
O392 Mg391 2.180 1_455 S
O392 C401 1.279 . S
O393 Mg391 2.030 . S
O393 C399 1.248 . S
O394 Mg391 1.990 . S
O394 C400 1.253 . S
O395 Mg391 2.117 . S
O395 C401 1.250 1_655 S
C396 O402 1.248 . S
C396 O403 1.264 . S
C397 O383 1.253 . S
C397 O385 1.260 . S
C398 O387 1.279 . S
C398 O388 1.250 . S
C399 O389 1.264 . S
C399 O393 1.248 . S
C400 O390 1.260 1_556 S
C400 O394 1.253 . S
C401 O392 1.279 . S
C401 O395 1.250 1_455 S
O402 Mg384 2.030 . S
O402 C396 1.248 . S
O403 Mg386 2.079 . S
O403 C396 1.264 . S
H404 C410 0.930 . S
H405 C414 0.930 . S
H406 C419 0.929 . S
H407 C417 0.929 . S
H408 C412 0.929 . S
H409 C418 0.929 . S
C410 H404 0.930 . S
C410 C411 1.367 . S
C410 C418 1.378 . S
C411 C410 1.367 . S
C411 C419 1.433 . S
C412 H408 0.929 . S
C412 C414 1.378 . S
C412 C416 1.350 . S
C413 C416 1.463 . S
C413 C418 1.350 . S
C413 N421 1.427 . S
C414 H405 0.930 . S
C414 C412 1.378 . S
C414 C415 1.367 . S
C415 C414 1.367 . S
C415 C417 1.433 . S
C416 C412 1.350 . S
C416 C413 1.463 . S
C416 N420 1.427 . S
C417 H407 0.929 . S
C417 C415 1.433 . S
C417 N420 1.384 . S
C418 H409 0.929 . S
C418 C410 1.378 . S
C418 C413 1.350 . S
C419 H406 0.929 . S
C419 C411 1.433 . S
C419 N421 1.384 . S
N420 C416 1.427 . S
N420 C417 1.384 . S
N421 C413 1.427 . S
N421 C419 1.384 . S
H422 C428 0.930 . S
H423 C432 0.930 1_545 S
H424 C437 0.929 . S
H425 C435 0.929 . S
H426 C430 0.929 . S
H427 C436 0.929 . S
C428 H422 0.930 . S
C428 C429 1.367 . S
C428 C436 1.378 . S
C429 C428 1.367 . S
C429 C437 1.433 . S
C430 H426 0.929 . S
C430 C432 1.378 . S
C430 C434 1.350 . S
C431 C434 1.463 . S
C431 C436 1.350 . S
C431 N439 1.427 . S
C432 H423 0.930 1_565 S
C432 C430 1.378 . S
C432 C433 1.367 . S
C433 C432 1.367 . S
C433 C435 1.433 . S
C434 C430 1.350 . S
C434 C431 1.463 . S
C434 N438 1.427 . S
C435 H425 0.929 . S
C435 C433 1.433 . S
C435 N438 1.384 . S
C436 H427 0.929 . S
C436 C428 1.378 . S
C436 C431 1.350 . S
C437 H424 0.929 . S
C437 C429 1.433 . S
C437 N439 1.384 . S
N438 C434 1.427 . S
N438 C435 1.384 . S
N439 C431 1.427 . S
N439 C437 1.384 . S
H440 C446 0.930 . S
H441 C450 0.930 . S
H442 C455 0.929 . S
H443 C453 0.929 . S
H444 C448 0.929 . S
H445 C454 0.929 . S
C446 H440 0.930 . S
C446 C447 1.367 . S
C446 C454 1.378 . S
C447 C446 1.367 . S
C447 C455 1.433 . S
C448 H444 0.929 . S
C448 C450 1.378 . S
C448 C452 1.350 . S
C449 C452 1.463 . S
C449 C454 1.350 . S
C449 N457 1.427 . S
C450 H441 0.930 . S
C450 C448 1.378 . S
C450 C451 1.367 . S
C451 C450 1.367 . S
C451 C453 1.433 . S
C452 C448 1.350 . S
C452 C449 1.463 . S
C452 N456 1.427 . S
C453 H443 0.929 . S
C453 C451 1.433 . S
C453 N456 1.384 . S
C454 H445 0.929 . S
C454 C446 1.378 . S
C454 C449 1.350 . S
C455 H442 0.929 . S
C455 C447 1.433 . S
C455 N457 1.384 . S
N456 C452 1.427 . S
N456 C453 1.384 . S
N457 C449 1.427 . S
N457 C455 1.384 . S
H458 C464 0.930 . S
H459 C468 0.930 . S
H460 C473 0.929 . S
H461 C471 0.929 . S
H462 C466 0.929 . S
H463 C472 0.929 . S
C464 H458 0.930 . S
C464 C465 1.367 . S
C464 C472 1.378 . S
C465 C464 1.367 . S
C465 C473 1.433 . S
C466 H462 0.929 . S
C466 C468 1.378 . S
C466 C470 1.350 . S
C467 C470 1.463 . S
C467 C472 1.350 . S
C467 N475 1.427 . S
C468 H459 0.930 . S
C468 C466 1.378 . S
C468 C469 1.367 . S
C469 C468 1.367 . S
C469 C471 1.433 . S
C470 C466 1.350 . S
C470 C467 1.463 . S
C470 N474 1.427 . S
C471 H461 0.929 . S
C471 C469 1.433 . S
C471 N474 1.384 . S
C472 H463 0.929 . S
C472 C464 1.378 . S
C472 C467 1.350 . S
C473 H460 0.929 . S
C473 C465 1.433 . S
C473 N475 1.384 . S
N474 C470 1.427 . S
N474 C471 1.384 . S
N475 C467 1.427 . S
N475 C473 1.384 . S
H476 C482 0.930 . S
H477 C486 0.930 . S
H478 C491 0.929 . S
H479 C489 0.894 1_556 S
H480 C484 0.929 . S
H481 C490 0.929 . S
C482 H476 0.930 . S
C482 C483 1.367 . S
C482 C490 1.378 . S
C483 C482 1.367 . S
C483 C491 1.433 . S
C484 H480 0.929 . S
C484 C486 1.378 . S
C484 C488 1.350 . S
C485 C488 1.463 . S
C485 C490 1.350 . S
C485 N493 1.427 . S
C486 H477 0.930 . S
C486 C484 1.378 . S
C486 C487 1.367 . S
C487 C486 1.367 . S
C487 C489 1.433 . S
C488 C484 1.350 . S
C488 C485 1.463 . S
C488 N492 1.427 . S
C489 H479 0.894 1_554 S
C489 C487 1.433 . S
C489 N492 1.384 . S
C490 H481 0.929 . S
C490 C482 1.378 . S
C490 C485 1.350 . S
C491 H478 0.929 . S
C491 C483 1.433 . S
C491 N493 1.384 . S
N492 C488 1.427 . S
N492 C489 1.384 . S
N493 C485 1.427 . S
N493 C491 1.384 . S
H494 C500 0.930 . S
H495 C504 0.930 . S
H496 C509 0.929 . S
H497 C507 0.929 . S
H498 C502 0.929 . S
H499 C508 0.929 . S
C500 H494 0.930 . S
C500 C501 1.367 . S
C500 C508 1.378 . S
C501 C500 1.367 . S
C501 C509 1.433 . S
C502 H498 0.929 . S
C502 C504 1.378 . S
C502 C506 1.350 . S
C503 C506 1.463 . S
C503 C508 1.350 . S
C503 N511 1.427 . S
C504 H495 0.930 . S
C504 C502 1.378 . S
C504 C505 1.367 . S
C505 C504 1.367 . S
C505 C507 1.433 . S
C506 C502 1.350 . S
C506 C503 1.463 . S
C506 N510 1.427 . S
C507 H497 0.929 . S
C507 C505 1.433 . S
C507 N510 1.384 . S
C508 H499 0.929 . S
C508 C500 1.378 . S
C508 C503 1.350 . S
C509 H496 0.929 . S
C509 C501 1.433 . S
C509 N511 1.384 . S
N510 C506 1.427 . S
N510 C507 1.384 . S
N511 C503 1.427 . S
N511 C509 1.384 . S
H512 C518 0.930 . S
H513 C522 0.930 . S
H514 C527 0.929 . S
H515 C525 0.929 1_554 S
H516 C520 0.929 . S
H517 C526 0.929 . S
C518 H512 0.930 . S
C518 C519 1.367 . S
C518 C526 1.378 . S
C519 C518 1.367 . S
C519 C527 1.433 . S
C520 H516 0.929 . S
C520 C522 1.378 . S
C520 C524 1.350 . S
C521 C524 1.463 . S
C521 C526 1.350 . S
C521 N529 1.427 . S
C522 H513 0.930 . S
C522 C520 1.378 . S
C522 C523 1.367 . S
C523 C522 1.367 . S
C523 C525 1.433 . S
C524 C520 1.350 . S
C524 C521 1.463 . S
C524 N528 1.427 . S
C525 H515 0.929 1_556 S
C525 C523 1.433 . S
C525 N528 1.384 . S
C526 H517 0.929 . S
C526 C518 1.378 . S
C526 C521 1.350 . S
C527 H514 0.929 . S
C527 C519 1.433 . S
C527 N529 1.384 . S
N528 C524 1.427 . S
N528 C525 1.384 . S
N529 C521 1.427 . S
N529 C527 1.384 . S
H530 C536 0.930 . S
H531 C540 0.930 . S
H532 C545 0.929 . S
H533 C543 0.929 . S
H534 C538 0.929 . S
H535 C544 0.929 . S
C536 H530 0.930 . S
C536 C537 1.367 . S
C536 C544 1.378 . S
C537 C536 1.367 . S
C537 C545 1.433 . S
C538 H534 0.929 . S
C538 C540 1.378 . S
C538 C542 1.350 . S
C539 C542 1.463 . S
C539 C544 1.350 . S
C539 N547 1.427 . S
C540 H531 0.930 . S
C540 C538 1.378 . S
C540 C541 1.367 . S
C541 C540 1.367 . S
C541 C543 1.433 . S
C542 C538 1.350 . S
C542 C539 1.463 . S
C542 N546 1.427 . S
C543 H533 0.929 . S
C543 C541 1.433 . S
C543 N546 1.384 . S
C544 H535 0.929 . S
C544 C536 1.378 . S
C544 C539 1.350 . S
C545 H532 0.929 . S
C545 C537 1.433 . S
C545 N547 1.384 . S
N546 C542 1.427 . S
N546 C543 1.384 . S
N547 C539 1.427 . S
N547 C545 1.384 . S
H548 C554 0.930 . S
H549 C558 0.930 . S
H550 C563 0.929 . S
H551 C561 0.929 . S
H552 C556 0.929 . S
H553 C562 0.929 . S
C554 H548 0.930 . S
C554 C555 1.367 . S
C554 C562 1.378 . S
C555 C554 1.367 . S
C555 C563 1.433 . S
C556 H552 0.929 . S
C556 C558 1.378 . S
C556 C560 1.350 . S
C557 C560 1.463 . S
C557 C562 1.350 . S
C557 N565 1.427 . S
C558 H549 0.930 . S
C558 C556 1.378 . S
C558 C559 1.367 . S
C559 C558 1.367 . S
C559 C561 1.433 . S
C560 C556 1.350 . S
C560 C557 1.463 . S
C560 N564 1.427 . S
C561 H551 0.929 . S
C561 C559 1.433 . S
C561 N564 1.384 . S
C562 H553 0.929 . S
C562 C554 1.378 . S
C562 C557 1.350 . S
C563 H550 0.929 . S
C563 C555 1.433 . S
C563 N565 1.384 . S
N564 C560 1.427 . S
N564 C561 1.384 . S
N565 C557 1.427 . S
N565 C563 1.384 . S
H566 C572 0.930 . S
H567 C576 0.930 . S
H568 C581 0.929 . S
H569 C579 0.929 1_554 S
H570 C574 0.929 . S
H571 C580 0.929 . S
C572 H566 0.930 . S
C572 C573 1.367 . S
C572 C580 1.378 . S
C573 C572 1.367 . S
C573 C581 1.433 . S
C574 H570 0.929 . S
C574 C576 1.378 . S
C574 C578 1.350 . S
C575 C578 1.463 . S
C575 C580 1.350 . S
C575 N583 1.427 . S
C576 H567 0.930 . S
C576 C574 1.378 . S
C576 C577 1.367 . S
C577 C576 1.367 . S
C577 C579 1.433 . S
C578 C574 1.350 . S
C578 C575 1.463 . S
C578 N582 1.427 . S
C579 H569 0.929 1_556 S
C579 C577 1.433 . S
C579 N582 1.384 . S
C580 H571 0.929 . S
C580 C572 1.378 . S
C580 C575 1.350 . S
C581 H568 0.929 . S
C581 C573 1.433 . S
C581 N583 1.384 . S
N582 C578 1.427 . S
N582 C579 1.384 . S
N583 C575 1.427 . S
N583 C581 1.384 . S
H584 C590 0.930 . S
H585 C594 0.930 . S
H586 C599 0.929 . S
H587 C597 0.929 1_455 S
H588 C592 0.929 . S
H589 C598 0.929 . S
C590 H584 0.930 . S
C590 C591 1.367 . S
C590 C598 1.378 . S
C591 C590 1.367 . S
C591 C599 1.433 . S
C592 H588 0.929 . S
C592 C594 1.378 . S
C592 C596 1.350 . S
C593 C596 1.463 . S
C593 C598 1.350 . S
C593 N601 1.427 . S
C594 H585 0.930 . S
C594 C592 1.378 . S
C594 C595 1.367 . S
C595 C594 1.367 . S
C595 C597 1.433 . S
C596 C592 1.350 . S
C596 C593 1.463 . S
C596 N600 1.427 . S
C597 H587 0.929 1_655 S
C597 C595 1.433 . S
C597 N600 1.384 . S
C598 H589 0.929 . S
C598 C590 1.378 . S
C598 C593 1.350 . S
C599 H586 0.929 . S
C599 C591 1.433 . S
C599 N601 1.384 . S
N600 C596 1.427 . S
N600 C597 1.384 . S
N601 C593 1.427 . S
N601 C599 1.384 . S
H602 C608 0.930 . S
H603 C612 0.930 . S
H604 C617 0.929 . S
H605 C615 0.929 . S
H606 C610 0.929 . S
H607 C616 0.929 . S
C608 H602 0.930 . S
C608 C609 1.367 . S
C608 C616 1.378 . S
C609 C608 1.367 . S
C609 C617 1.433 . S
C610 H606 0.929 . S
C610 C612 1.378 . S
C610 C614 1.350 . S
C611 C614 1.463 . S
C611 C616 1.350 . S
C611 N619 1.427 . S
C612 H603 0.930 . S
C612 C610 1.378 . S
C612 C613 1.367 . S
C613 C612 1.367 . S
C613 C615 1.433 . S
C614 C610 1.350 . S
C614 C611 1.463 . S
C614 N618 1.427 . S
C615 H605 0.929 . S
C615 C613 1.433 . S
C615 N618 1.384 . S
C616 H607 0.929 . S
C616 C608 1.378 . S
C616 C611 1.350 . S
C617 H604 0.929 . S
C617 C609 1.433 . S
C617 N619 1.384 . S
N618 C614 1.427 . S
N618 C615 1.384 . S
N619 C611 1.427 . S
N619 C617 1.384 . S
H620 C626 0.930 . S
H621 C630 0.930 . S
H622 C635 0.929 . S
H623 C633 0.929 1_455 S
H624 C628 0.929 . S
H625 C634 0.929 . S
C626 H620 0.930 . S
C626 C627 1.367 . S
C626 C634 1.378 . S
C627 C626 1.367 . S
C627 C635 1.433 . S
C628 H624 0.929 . S
C628 C630 1.378 . S
C628 C632 1.350 . S
C629 C632 1.463 . S
C629 C634 1.350 . S
C629 N637 1.427 . S
C630 H621 0.930 . S
C630 C628 1.378 . S
C630 C631 1.367 . S
C631 C630 1.367 . S
C631 C633 1.433 . S
C632 C628 1.350 . S
C632 C629 1.463 . S
C632 N636 1.427 . S
C633 H623 0.929 1_655 S
C633 C631 1.433 . S
C633 N636 1.384 . S
C634 H625 0.929 . S
C634 C626 1.378 . S
C634 C629 1.350 . S
C635 H622 0.929 . S
C635 C627 1.433 . S
C635 N637 1.384 . S
N636 C632 1.427 . S
N636 C633 1.384 . S
N637 C629 1.427 . S
N637 C635 1.384 . S
H638 C644 0.930 . S
H639 C648 0.930 . S
H640 C653 0.929 . S
H641 C651 0.929 . S
H642 C646 0.929 . S
H643 C652 0.929 . S
C644 H638 0.930 . S
C644 C645 1.367 . S
C644 C652 1.378 . S
C645 C644 1.367 . S
C645 C653 1.433 . S
C646 H642 0.929 . S
C646 C648 1.378 . S
C646 C650 1.350 . S
C647 C650 1.463 . S
C647 C652 1.350 . S
C647 N655 1.427 . S
C648 H639 0.930 . S
C648 C646 1.378 . S
C648 C649 1.367 . S
C649 C648 1.367 . S
C649 C651 1.433 . S
C650 C646 1.350 . S
C650 C647 1.463 . S
C650 N654 1.427 . S
C651 H641 0.929 . S
C651 C649 1.433 . S
C651 N654 1.384 . S
C652 H643 0.929 . S
C652 C644 1.378 . S
C652 C647 1.350 . S
C653 H640 0.929 . S
C653 C645 1.433 . S
C653 N655 1.384 . S
N654 C650 1.427 . S
N654 C651 1.384 . S
N655 C647 1.427 . S
N655 C653 1.384 . S
H656 C662 0.930 . S
H657 C666 0.930 . S
H658 C671 0.929 . S
H659 C669 0.929 . S
H660 C664 0.929 . S
H661 C670 0.929 . S
C662 H656 0.930 . S
C662 C663 1.367 . S
C662 C670 1.378 . S
C663 C662 1.367 . S
C663 C671 1.433 . S
C664 H660 0.929 . S
C664 C666 1.378 . S
C664 C668 1.350 . S
C665 C668 1.463 . S
C665 C670 1.350 . S
C665 N673 1.427 . S
C666 H657 0.930 . S
C666 C664 1.378 . S
C666 C667 1.367 . S
C667 C666 1.367 . S
C667 C669 1.433 . S
C668 C664 1.350 . S
C668 C665 1.463 . S
C668 N672 1.427 . S
C669 H659 0.929 . S
C669 C667 1.433 . S
C669 N672 1.384 . S
C670 H661 0.929 . S
C670 C662 1.378 . S
C670 C665 1.350 . S
C671 H658 0.929 . S
C671 C663 1.433 . S
C671 N673 1.384 . S
N672 C668 1.427 . S
N672 C669 1.384 . S
N673 C665 1.427 . S
N673 C671 1.384 . S
H674 C680 0.930 . S
H675 C684 0.930 . S
H676 C689 0.929 . S
H677 C687 0.929 . S
H678 C682 0.929 . S
H679 C688 0.929 . S
C680 H674 0.930 . S
C680 C681 1.367 . S
C680 C688 1.378 . S
C681 C680 1.367 . S
C681 C689 1.433 . S
C682 H678 0.929 . S
C682 C684 1.378 . S
C682 C686 1.350 . S
C683 C686 1.463 . S
C683 C688 1.350 . S
C683 N691 1.427 . S
C684 H675 0.930 . S
C684 C682 1.378 . S
C684 C685 1.367 . S
C685 C684 1.367 . S
C685 C687 1.433 . S
C686 C682 1.350 . S
C686 C683 1.463 . S
C686 N690 1.427 . S
C687 H677 0.929 . S
C687 C685 1.433 . S
C687 N690 1.384 . S
C688 H679 0.929 . S
C688 C680 1.378 . S
C688 C683 1.350 . S
C689 H676 0.929 . S
C689 C681 1.433 . S
C689 N691 1.384 . S
N690 C686 1.427 . S
N690 C687 1.384 . S
N691 C683 1.427 . S
N691 C689 1.384 . S
H692 C698 0.930 . S
H693 C702 0.930 . S
H694 C707 0.929 . S
H695 C705 0.929 1_554 S
H696 C700 0.929 . S
H697 C706 0.929 . S
C698 H692 0.930 . S
C698 C699 1.367 . S
C698 C706 1.378 . S
C699 C698 1.367 . S
C699 C707 1.433 . S
C700 H696 0.929 . S
C700 C702 1.378 . S
C700 C704 1.350 . S
C701 C704 1.463 . S
C701 C706 1.350 . S
C701 N709 1.427 . S
C702 H693 0.930 . S
C702 C700 1.378 . S
C702 C703 1.367 . S
C703 C702 1.367 . S
C703 C705 1.433 . S
C704 C700 1.350 . S
C704 C701 1.463 . S
C704 N708 1.427 . S
C705 H695 0.929 1_556 S
C705 C703 1.433 . S
C705 N708 1.384 . S
C706 H697 0.929 . S
C706 C698 1.378 . S
C706 C701 1.350 . S
C707 H694 0.929 . S
C707 C699 1.433 . S
C707 N709 1.384 . S
N708 C704 1.427 . S
N708 C705 1.384 . S
N709 C701 1.427 . S
N709 C707 1.384 . S
H710 C716 0.930 . S
H711 C720 0.930 . S
H712 C725 0.929 . S
H713 C723 0.929 . S
H714 C718 0.929 . S
H715 C724 0.929 . S
C716 H710 0.930 . S
C716 C717 1.367 . S
C716 C724 1.378 . S
C717 C716 1.367 . S
C717 C725 1.433 . S
C718 H714 0.929 . S
C718 C720 1.378 . S
C718 C722 1.350 . S
C719 C722 1.463 . S
C719 C724 1.350 . S
C719 N727 1.427 . S
C720 H711 0.930 . S
C720 C718 1.378 . S
C720 C721 1.367 . S
C721 C720 1.367 . S
C721 C723 1.433 . S
C722 C718 1.350 . S
C722 C719 1.463 . S
C722 N726 1.427 . S
C723 H713 0.929 . S
C723 C721 1.433 . S
C723 N726 1.384 . S
C724 H715 0.929 . S
C724 C716 1.378 . S
C724 C719 1.350 . S
C725 H712 0.929 . S
C725 C717 1.433 . S
C725 N727 1.384 . S
N726 C722 1.427 . S
N726 C723 1.384 . S
N727 C719 1.427 . S
N727 C725 1.384 . S
H728 C734 0.930 . S
H729 C738 0.930 . S
H730 C743 0.929 . S
H731 C741 0.929 1_556 S
H732 C736 0.929 . S
H733 C742 0.929 . S
C734 H728 0.930 . S
C734 C735 1.367 . S
C734 C742 1.378 . S
C735 C734 1.367 . S
C735 C743 1.433 . S
C736 H732 0.929 . S
C736 C738 1.378 . S
C736 C740 1.350 . S
C737 C740 1.463 . S
C737 C742 1.350 . S
C737 N745 1.427 . S
C738 H729 0.930 . S
C738 C736 1.378 . S
C738 C739 1.367 . S
C739 C738 1.367 . S
C739 C741 1.433 . S
C740 C736 1.350 . S
C740 C737 1.463 . S
C740 N744 1.427 . S
C741 H731 0.929 1_554 S
C741 C739 1.433 . S
C741 N744 1.384 . S
C742 H733 0.929 . S
C742 C734 1.378 . S
C742 C737 1.350 . S
C743 H730 0.929 . S
C743 C735 1.433 . S
C743 N745 1.384 . S
N744 C740 1.427 . S
N744 C741 1.384 . S
N745 C737 1.427 . S
N745 C743 1.384 . S
H746 C752 0.930 . S
H747 C756 0.930 . S
H748 C761 0.929 . S
H749 C759 0.929 . S
H750 C754 0.929 . S
H751 C760 0.929 . S
C752 H746 0.930 . S
C752 C753 1.367 . S
C752 C760 1.378 . S
C753 C752 1.367 . S
C753 C761 1.433 . S
C754 H750 0.929 . S
C754 C756 1.378 . S
C754 C758 1.350 . S
C755 C758 1.463 . S
C755 C760 1.350 . S
C755 N763 1.427 . S
C756 H747 0.930 . S
C756 C754 1.378 . S
C756 C757 1.367 . S
C757 C756 1.367 . S
C757 C759 1.433 . S
C758 C754 1.350 . S
C758 C755 1.463 . S
C758 N762 1.427 . S
C759 H749 0.929 . S
C759 C757 1.433 . S
C759 N762 1.384 . S
C760 H751 0.929 . S
C760 C752 1.378 . S
C760 C755 1.350 . S
C761 H748 0.929 . S
C761 C753 1.433 . S
C761 N763 1.384 . S
N762 C758 1.427 . S
N762 C759 1.384 . S
N763 C755 1.427 . S
N763 C761 1.384 . S
H764 C770 0.930 . S
H765 C774 0.930 . S
H766 C779 0.929 . S
H767 C777 0.929 1_554 S
H768 C772 0.929 . S
H769 C778 0.929 . S
C770 H764 0.930 . S
C770 C771 1.367 . S
C770 C778 1.378 . S
C771 C770 1.367 . S
C771 C779 1.433 . S
C772 H768 0.929 . S
C772 C774 1.378 . S
C772 C776 1.350 . S
C773 C776 1.463 . S
C773 C778 1.350 . S
C773 N781 1.427 . S
C774 H765 0.930 . S
C774 C772 1.378 . S
C774 C775 1.367 . S
C775 C774 1.367 . S
C775 C777 1.433 . S
C776 C772 1.350 . S
C776 C773 1.463 . S
C776 N780 1.427 . S
C777 H767 0.929 1_556 S
C777 C775 1.433 . S
C777 N780 1.384 . S
C778 H769 0.929 . S
C778 C770 1.378 . S
C778 C773 1.350 . S
C779 H766 0.929 . S
C779 C771 1.433 . S
C779 N781 1.384 . S
N780 C776 1.427 . S
N780 C777 1.384 . S
N781 C773 1.427 . S
N781 C779 1.384 . S
H782 C788 0.930 . S
H783 C792 0.930 . S
H784 C797 0.929 . S
H785 C795 0.929 . S
H786 C790 0.929 . S
H787 C796 0.929 . S
C788 H782 0.930 . S
C788 C789 1.367 . S
C788 C796 1.378 . S
C789 C788 1.367 . S
C789 C797 1.433 . S
C790 H786 0.929 . S
C790 C792 1.378 . S
C790 C794 1.350 . S
C791 C794 1.463 . S
C791 C796 1.350 . S
C791 N799 1.427 . S
C792 H783 0.930 . S
C792 C790 1.378 . S
C792 C793 1.367 . S
C793 C792 1.367 . S
C793 C795 1.433 . S
C794 C790 1.350 . S
C794 C791 1.463 . S
C794 N798 1.427 . S
C795 H785 0.929 . S
C795 C793 1.433 . S
C795 N798 1.384 . S
C796 H787 0.929 . S
C796 C788 1.378 . S
C796 C791 1.350 . S
C797 H784 0.929 . S
C797 C789 1.433 . S
C797 N799 1.384 . S
N798 C794 1.427 . S
N798 C795 1.384 . S
N799 C791 1.427 . S
N799 C797 1.384 . S
H800 C806 0.930 . S
H801 C810 0.930 . S
H802 C815 0.929 . S
H803 C813 0.929 . S
H804 C808 0.929 . S
H805 C814 0.929 . S
C806 H800 0.930 . S
C806 C807 1.367 . S
C806 C814 1.378 . S
C807 C806 1.367 . S
C807 C815 1.433 . S
C808 H804 0.929 . S
C808 C810 1.378 . S
C808 C812 1.350 . S
C809 C812 1.463 . S
C809 C814 1.350 . S
C809 N817 1.427 . S
C810 H801 0.930 . S
C810 C808 1.378 . S
C810 C811 1.367 . S
C811 C810 1.367 . S
C811 C813 1.433 . S
C812 C808 1.350 . S
C812 C809 1.463 . S
C812 N816 1.427 . S
C813 H803 0.929 . S
C813 C811 1.433 . S
C813 N816 1.384 . S
C814 H805 0.929 . S
C814 C806 1.378 . S
C814 C809 1.350 . S
C815 H802 0.929 . S
C815 C807 1.433 . S
C815 N817 1.384 . S
N816 C812 1.427 . S
N816 C813 1.384 . S
N817 C809 1.427 . S
N817 C815 1.384 . S
H818 C824 0.930 . S
H819 C828 0.930 . S
H820 C833 0.929 . S
H821 C831 0.929 . S
H822 C826 0.929 . S
H823 C832 0.929 . S
C824 H818 0.930 . S
C824 C825 1.367 . S
C824 C832 1.378 . S
C825 C824 1.367 . S
C825 C833 1.433 . S
C826 H822 0.929 . S
C826 C828 1.378 . S
C826 C830 1.350 . S
C827 C830 1.463 . S
C827 C832 1.350 . S
C827 N835 1.427 . S
C828 H819 0.930 . S
C828 C826 1.378 . S
C828 C829 1.367 . S
C829 C828 1.367 . S
C829 C831 1.433 . S
C830 C826 1.350 . S
C830 C827 1.463 . S
C830 N834 1.427 . S
C831 H821 0.929 . S
C831 C829 1.433 . S
C831 N834 1.384 . S
C832 H823 0.929 . S
C832 C824 1.378 . S
C832 C827 1.350 . S
C833 H820 0.929 . S
C833 C825 1.433 . S
C833 N835 1.384 . S
N834 C830 1.427 . S
N834 C831 1.384 . S
N835 C827 1.427 . S
N835 C833 1.384 . S
C411 C21 1.671 . S
C415 C336 1.609 . S
C429 C61 1.503 . S
C433 C358 1.499 . S
C451 C377 1.146 . S
C447 C82 1.419 . S
C465 C135 1.896 . S
C469 C398 1.525 . S
C487 C355 1.807 . S
C483 C15 1.856 . S
C505 C333 1.725 . S
C501 C42 1.731 . S
C523 C400 1.300 . S
C519 C101 1.373 . S
C541 C379 1.457 . S
C537 C122 1.518 . S
C555 C2 1.821 . S
C559 C397 1.764 . S
C577 C356 1.291 . S
C573 C95 1.589 . S
C591 C141 1.772 . S
C595 C338 1.600 . S
C609 C55 1.541 . S
C613 C376 1.529 . S
C631 C334 1.628 . S
C627 C181 1.665 . S
C645 C202 1.298 . S
C649 C354 1.307 . S
C663 C255 1.487 . S
C667 C380 1.230 . S
C681 C295 1.785 . S
C685 C401 1.441 . S
C699 C175 1.775 . S
C703 C357 1.748 . S
C721 C337 1.809 . S
C717 C221 1.820 . S
C739 C396 1.131 . S
C735 C242 1.172 . S
C757 C375 1.595 . S
C753 C301 1.659 . S
C771 C162 1.538 . S
C775 C399 1.539 . S
C793 C359 1.253 . S
C789 C261 1.478 . S
C811 C335 1.402 . S
C807 C282 1.539 . S
C825 C215 1.503 . S
C829 C378 1.507 . S
