# Generated by pormake.
# Topology ssa, (4,4)-cn, num edge types: 1
# Building blocks:
#     Node 0, Type 0, BuildingBlock: ESEHIV_clean_sbu_0, # of connection points: 4
#     Node 1, Type 0, BuildingBlock: ESEHIV_clean_sbu_0, # of connection points: 4
#     Node 2, Type 0, BuildingBlock: ESEHIV_clean_sbu_0, # of connection points: 4
#     Node 3, Type 0, BuildingBlock: ESEHIV_clean_sbu_0, # of connection points: 4
#     Node 4, Type 0, BuildingBlock: ESEHIV_clean_sbu_0, # of connection points: 4
#     Node 5, Type 0, BuildingBlock: ESEHIV_clean_sbu_0, # of connection points: 4
#     Node 6, Type 1, BuildingBlock: ESEHIV_clean_sbu_0, # of connection points: 4
#     Node 7, Type 1, BuildingBlock: ESEHIV_clean_sbu_0, # of connection points: 4
#     Node 8, Type 1, BuildingBlock: ESEHIV_clean_sbu_0, # of connection points: 4
#     Node 9, Type 1, BuildingBlock: ESEHIV_clean_sbu_0, # of connection points: 4
#     Node 10, Type 1, BuildingBlock: ESEHIV_clean_sbu_0, # of connection points: 4
#     Node 11, Type 1, BuildingBlock: ESEHIV_clean_sbu_0, # of connection points: 4
#     Edge 12, Type (0, 1), BuildingBlock: AJUNOK_clean_linker_0, # of connection points: 2
#     Edge 13, Type (0, 1), BuildingBlock: AJUNOK_clean_linker_0, # of connection points: 2
#     Edge 14, Type (0, 1), BuildingBlock: AJUNOK_clean_linker_0, # of connection points: 2
#     Edge 15, Type (0, 1), BuildingBlock: AJUNOK_clean_linker_0, # of connection points: 2
#     Edge 16, Type (0, 1), BuildingBlock: AJUNOK_clean_linker_0, # of connection points: 2
#     Edge 17, Type (0, 1), BuildingBlock: AJUNOK_clean_linker_0, # of connection points: 2
#     Edge 18, Type (0, 1), BuildingBlock: AJUNOK_clean_linker_0, # of connection points: 2
#     Edge 19, Type (0, 1), BuildingBlock: AJUNOK_clean_linker_0, # of connection points: 2
#     Edge 20, Type (0, 1), BuildingBlock: AJUNOK_clean_linker_0, # of connection points: 2
#     Edge 21, Type (0, 1), BuildingBlock: AJUNOK_clean_linker_0, # of connection points: 2
#     Edge 22, Type (0, 1), BuildingBlock: AJUNOK_clean_linker_0, # of connection points: 2
#     Edge 23, Type (0, 1), BuildingBlock: AJUNOK_clean_linker_0, # of connection points: 2
#     Edge 24, Type (0, 1), BuildingBlock: AJUNOK_clean_linker_0, # of connection points: 2
#     Edge 25, Type (0, 1), BuildingBlock: AJUNOK_clean_linker_0, # of connection points: 2
#     Edge 26, Type (0, 1), BuildingBlock: AJUNOK_clean_linker_0, # of connection points: 2
#     Edge 27, Type (0, 1), BuildingBlock: AJUNOK_clean_linker_0, # of connection points: 2
#     Edge 28, Type (0, 1), BuildingBlock: AJUNOK_clean_linker_0, # of connection points: 2
#     Edge 29, Type (0, 1), BuildingBlock: AJUNOK_clean_linker_0, # of connection points: 2
#     Edge 30, Type (0, 1), BuildingBlock: AJUNOK_clean_linker_0, # of connection points: 2
#     Edge 31, Type (0, 1), BuildingBlock: AJUNOK_clean_linker_0, # of connection points: 2
#     Edge 32, Type (0, 1), BuildingBlock: AJUNOK_clean_linker_0, # of connection points: 2
#     Edge 33, Type (0, 1), BuildingBlock: AJUNOK_clean_linker_0, # of connection points: 2
#     Edge 34, Type (0, 1), BuildingBlock: AJUNOK_clean_linker_0, # of connection points: 2
#     Edge 35, Type (0, 1), BuildingBlock: AJUNOK_clean_linker_0, # of connection points: 2
# Relax obj value: 0.054
# Max RMSD: 0.107
# Mean RMSD: 0.097
data_MOF--net-ssa--node1-ESEHIV_clean_sbu_0--node2-ESEHIV_clean_sbu_0--edge1-AJUNOK_clean_linker_0
_symmetry_space_group_name_H-M    P1
_symmetry_Int_Tables_number       1
_symmetry_cell_setting            triclinic
loop_
_symmetry_equiv_pos_as_xyz
'x, y, z'
_cell_length_a     36.612344
_cell_length_b     39.848742
_cell_length_c     27.972317
_cell_angle_alpha  87.499728
_cell_angle_beta   91.156041
_cell_angle_gamma 123.39437
loop_
_atom_site_label
_atom_site_type_symbol
_atom_site_fract_x
_atom_site_fract_y
_atom_site_fract_z
_atom_type_partial_charge
Cu0 Cu 1.02091 0.52999 1.01335 0.0
N1 N 0.97961 0.47692 0.03181 0.0
N2 N 0.94312 0.41033 1.02696 0.0
C3 C 0.97329 0.44628 1.00663 0.0
C4 C 0.92981 0.4186 0.06689 0.0
C5 C 0.9528 0.46 0.07002 0.0
O6 O 0.9975 0.5391 0.95048 0.0
C7 C 0.11217 0.55432 0.04242 0.0
O8 O 0.12344 0.59153 0.04659 0.0
H9 H 0.99015 0.45041 0.97335 0.0
H10 H 0.95026 0.47651 0.09803 0.0
N11 N 1.02299 0.56512 0.05721 0.0
N12 N 0.04937 0.60935 0.11563 0.0
C13 C 0.04466 0.57572 0.09909 0.0
C14 C 1.01206 0.59186 0.0478 0.0
C15 C 1.02809 0.619 0.08369 0.0
C16 C 0.956 0.5245 0.94734 0.0
O17 O 0.93149 0.50426 0.98484 0.0
H18 H 0.05858 0.56017 0.11548 0.0
H19 H 0.99661 0.59346 1.0152 0.0
O20 O 0.07571 0.52937 1.02171 0.0
H21 H 0.90558 0.39646 0.09208 0.0
H22 H 1.02733 0.64576 0.08397 0.0
Cu23 Cu 0.55052 0.02564 0.55661 0.0
N24 N 0.56757 1.01497 0.49767 0.0
N25 N 0.57483 0.97858 0.44285 0.0
C26 C 0.56348 0.97981 0.48843 0.0
C27 C 0.58664 1.01471 0.4227 0.0
C28 C 0.58188 0.03678 0.4562 0.0
O29 O 0.48828 0.98461 0.55825 0.0
C30 C 0.62163 0.02836 0.6018 0.0
O31 O 0.63561 0.03302 0.55766 0.0
H32 H 0.55192 0.95531 0.5148 0.0
H33 H 0.58826 0.06658 0.45052 0.0
N34 N 0.56069 0.07781 0.56555 0.0
N35 N 0.56397 0.12844 0.60492 0.0
C36 C 0.54292 0.08784 0.6001 0.0
C37 C 0.59452 0.11335 0.54832 0.0
C38 C 0.59662 0.14414 0.57208 0.0
C39 C 0.46553 0.99022 0.52791 0.0
O40 O 0.48397 0.02538 0.50505 0.0
H41 H 0.51616 0.06551 0.62277 0.0
H42 H 0.61812 0.11667 0.52266 0.0
O43 O 0.58327 1.02037 0.60896 0.0
H44 H 0.59896 0.0251 0.38661 0.0
H45 H 0.6225 0.17554 0.56736 0.0
Cu46 Cu 0.58355 0.55554 0.03283 0.0
N47 N 0.59372 0.51369 1.02562 0.0
N48 N 0.59362 0.46518 0.98525 0.0
C49 C 0.57238 0.48367 0.99408 0.0
C50 C 0.63006 0.48491 1.01241 0.0
C51 C 0.63009 0.51449 0.03674 0.0
O52 O 0.61238 0.58917 0.97634 0.0
C53 C 0.50187 0.50819 0.06968 0.0
O54 O 0.52511 0.50154 0.10033 0.0
H55 H 0.54304 0.47726 0.97572 0.0
H56 H 0.65679 0.53726 0.05768 0.0
N57 N 0.60443 0.58758 0.08865 0.0
N58 N 0.61336 0.6312 0.14478 0.0
C59 C 0.59294 0.61274 0.10357 0.0
C60 C 0.63294 0.59016 0.12166 0.0
C61 C 0.63851 0.6167 0.15575 0.0
C62 C 0.65401 0.6115 0.97684 0.0
O63 O 0.67419 0.61949 1.0182 0.0
H64 H 0.56931 0.61664 0.08488 0.0
H65 H 0.64881 0.57396 0.12103 0.0
O66 O 0.52104 0.53108 0.03304 0.0
H67 H 0.65686 0.48079 1.01211 0.0
H68 H 0.66018 0.62503 0.18616 0.0
Cu69 Cu 1.02465 0.48491 0.51885 0.0
N70 N 1.01648 0.44991 0.47138 0.0
N71 N 1.03487 0.42238 0.41689 0.0
C72 C 0.04699 0.44358 0.45697 0.0
C73 C 0.99509 0.41487 0.40572 0.0
C74 C 0.9836 0.43158 0.43973 0.0
O75 O 0.08613 0.53442 0.50965 0.0
C76 C 0.96005 0.42421 0.58427 0.0
O77 O 0.9355 0.42074 0.54747 0.0
H78 H 0.07899 0.45724 0.47317 0.0
H79 H 0.95456 0.4324 0.43974 0.0
N80 N 0.9903 0.50541 0.50663 0.0
N81 N 0.96116 0.5405 0.52137 0.0
C82 C 0.97803 0.5202 0.54042 0.0
C83 C 0.98039 0.51617 0.46454 0.0
C84 C 0.96195 0.53755 0.47358 0.0
C85 C 0.09873 0.54859 0.46637 0.0
O86 O 0.07181 0.52874 0.43143 0.0
H87 H 0.9823 0.51664 0.57825 0.0
H88 H 0.98789 0.51056 0.42976 0.0
O89 O 1.00153 0.4513 0.58081 0.0
H90 H 0.97669 0.4001 0.374 0.0
H91 H 0.95163 0.55127 0.44707 0.0
Cu92 Cu 0.54395 0.02494 0.07439 0.0
N93 N 0.52412 0.05877 0.08048 0.0
N94 N 0.50166 0.09827 0.05397 0.0
C95 C 0.51856 0.07706 0.04226 0.0
C96 C 0.49601 0.09287 0.10196 0.0
C97 C 0.50992 0.06838 0.11825 0.0
O98 O 0.57337 0.04213 1.00924 0.0
C99 C 0.48527 0.96048 0.14036 0.0
O100 O 0.50969 0.98948 0.16964 0.0
H101 H 0.52671 0.07465 1.00618 0.0
H102 H 0.50884 0.05773 0.15475 0.0
N103 N 0.58945 0.03669 0.11615 0.0
N104 N 0.6365 0.02471 0.15202 0.0
C105 C 0.61094 1.01836 0.11356 0.0
C106 C 0.60264 0.05666 0.15703 0.0
C107 C 0.63149 0.04904 0.1795 0.0
C108 C 0.60689 0.07886 1.00667 0.0
O109 O 0.61763 0.09954 0.04563 0.0
H110 H 0.60545 0.99849 0.08519 0.0
H111 H 0.58954 0.07274 0.17134 0.0
O112 O 0.4938 0.96838 0.09504 0.0
H113 H 0.48162 0.10455 0.12365 0.0
H114 H 0.6444 0.05776 0.21517 0.0
Cu115 Cu 0.51036 0.51686 0.51509 0.0
N116 N 0.52304 0.56519 0.5383 0.0
N117 N 0.55589 0.63163 0.53927 0.0
C118 C 0.55343 0.60084 0.51796 0.0
C119 C 0.52585 0.61473 0.57482 0.0
C120 C 0.50568 0.57346 0.57434 0.0
O121 O 0.4827 0.5131 0.4496 0.0
C122 C 0.57755 0.52422 0.57393 0.0
O123 O 0.55242 0.52845 0.60244 0.0
H124 H 0.57215 0.60398 0.48665 0.0
H125 H 0.47974 0.55115 0.59784 0.0
N126 N 0.46848 0.47307 0.55318 0.0
N127 N 0.44152 0.41874 0.60193 0.0
C128 C 0.47482 0.44537 0.57313 0.0
C129 C 0.42922 0.46319 0.56949 0.0
C130 C 0.41243 0.42944 0.59987 0.0
C131 C 0.45584 0.52463 0.44501 0.0
O132 O 0.44814 0.53808 0.48296 0.0
H133 H 0.50402 0.44536 0.56796 0.0
H134 H 0.41459 0.48006 0.56125 0.0
O135 O 0.56628 0.5187 0.52936 0.0
H136 H 0.51863 0.6309 0.59888 0.0
H137 H 0.38237 0.41505 0.6204 0.0
Cu138 Cu 0.26928 0.49319 0.22085 0.0
N139 N 0.28649 0.47236 0.17429 0.0
N140 N 0.3321 0.46763 0.12794 0.0
C141 C 0.32821 0.4894 0.16041 0.0
C142 C 0.29134 0.43548 0.12081 0.0
C143 C 0.26309 0.43843 0.14969 0.0
O144 O 0.31936 0.51744 0.2691 0.0
C145 C 0.21117 0.50033 0.15864 0.0
O146 O 0.19624 0.46191 0.15875 0.0
H147 H 0.3555 0.51661 0.1751 0.0
H148 H 0.22828 0.41668 0.15366 0.0
N149 N 0.22115 0.45183 0.25522 0.0
N150 N 0.16141 0.4223 0.30121 0.0
C151 C 0.19064 0.45562 0.27541 0.0
C152 C 0.21072 0.41464 0.26844 0.0
C153 C 0.17379 0.39633 0.29713 0.0
C154 C 0.33416 0.49581 0.28391 0.0
O155 O 0.31632 0.46012 0.2661 0.0
H156 H 0.19074 0.48286 0.27255 0.0
H157 H 0.22907 0.40203 0.25868 0.0
O158 O 0.24559 0.52273 0.18414 0.0
H159 H 0.28303 0.41083 0.09828 0.0
H160 H 0.15751 0.36647 0.31386 0.0
Cu161 Cu 0.80438 0.22926 0.79643 0.0
N162 N 0.79995 0.18822 0.76117 0.0
N163 N 0.76503 0.13132 0.72071 0.0
C164 C 0.76555 0.14968 0.76047 0.0
C165 C 0.8018 0.1591 0.69656 0.0
C166 C 0.82319 0.19394 0.72155 0.0
O167 O 0.75077 0.20521 0.83856 0.0
C168 C 0.87012 0.3 0.74192 0.0
O169 O 0.89439 0.28909 0.76346 0.0
H170 H 0.73946 0.13621 0.78654 0.0
H171 H 0.85099 0.22264 0.70887 0.0
N172 N 0.84585 0.24482 0.84443 0.0
N173 N 0.88081 0.27641 0.91048 0.0
C174 C 0.85004 0.26966 0.87809 0.0
C175 C 0.87509 0.23527 0.8556 0.0
C176 C 0.8973 0.25535 0.89625 0.0
C177 C 0.71044 0.1761 0.83476 0.0
O178 O 0.69401 0.16414 0.79201 0.0
H179 H 0.83152 0.28345 0.87786 0.0
H180 H 0.88017 0.21561 0.83543 0.0
O181 O 0.82858 0.27866 0.75124 0.0
H182 H 0.80997 0.15633 0.6606 0.0
H183 H 0.92361 0.25477 0.91374 0.0
Cu184 Cu 0.62642 0.81991 0.30455 0.0
N185 N 0.66783 0.86517 0.26857 0.0
N186 N 0.68767 0.9209 0.22492 0.0
C187 C 0.6543 0.88483 0.24147 0.0
C188 C 0.72425 0.92417 0.24173 0.0
C189 C 0.71186 0.88943 0.26868 0.0
O190 O 0.58967 0.83863 0.32975 0.0
C191 C 0.62648 0.75773 0.25795 0.0
O192 O 0.66405 0.77514 0.2805 0.0
H193 H 0.62011 0.87405 0.23706 0.0
H194 H 0.73343 0.88345 0.28842 0.0
N195 N 0.64855 0.80905 0.35949 0.0
N196 N 0.64432 0.77737 0.42895 0.0
C197 C 0.62201 0.7804 0.39203 0.0
C198 C 0.68942 0.82487 0.37629 0.0
C199 C 0.68688 0.80496 0.41905 0.0
C200 C 0.60933 0.86689 0.35993 0.0
O201 O 0.6493 0.8788 0.37268 0.0
H202 H 0.58693 0.76098 0.38753 0.0
H203 H 0.71899 0.84858 0.35871 0.0
O204 O 0.60253 0.77189 0.26289 0.0
H205 H 0.75726 0.9501 0.23618 0.0
H206 H 0.71412 0.80981 0.44069 0.0
Cu207 Cu 0.7996 0.56518 0.73976 0.0
N208 N 0.84016 0.5937 0.69087 0.0
N209 N 0.88592 0.60387 0.63249 0.0
C210 C 0.86663 0.58355 0.67373 0.0
C211 C 0.87095 0.62764 0.62283 0.0
C212 C 0.84292 0.62162 0.65942 0.0
O213 O 0.82458 0.54032 0.78358 0.0
C214 C 0.73233 0.53284 0.66249 0.0
O215 O 0.76415 0.54181 0.63295 0.0
H216 H 0.86889 0.55931 0.68902 0.0
H217 H 0.8233 0.63422 0.66103 0.0
N218 N 0.79562 0.60077 0.77688 0.0
N219 N 0.76487 0.62109 0.82637 0.0
C220 C 0.76349 0.58935 0.80883 0.0
C221 C 0.81876 0.64121 0.7744 0.0
C222 C 0.79999 0.65385 0.80516 0.0
C223 C 0.86442 0.56328 0.79848 0.0
O224 O 0.88636 0.60127 0.78383 0.0
H225 H 0.73958 0.55817 0.81873 0.0
H226 H 0.8465 0.6601 0.751 0.0
O227 O 0.73992 0.53475 0.70798 0.0
H228 H 0.87794 0.64623 0.59054 0.0
H229 H 0.81062 0.6847 0.81047 0.0
Cu230 Cu 0.2799 0.77761 0.32691 0.0
N231 N 0.23145 0.76504 0.28968 0.0
N232 N 0.1728 0.72797 0.24397 0.0
C233 C 0.20278 0.72831 0.27315 0.0
C234 C 0.18248 0.76596 0.24301 0.0
C235 C 0.21881 0.78884 0.27124 0.0
O236 O 0.25963 0.72411 0.36107 0.0
C237 C 0.334 0.8166 0.23895 0.0
O238 O 0.2963 0.79879 0.21669 0.0
H239 H 0.20442 0.70249 0.28204 0.0
H240 H 0.23568 0.82076 0.27659 0.0
N241 N 0.28809 0.81428 0.37257 0.0
N242 N 0.32004 0.86209 0.42661 0.0
C243 C 0.32478 0.83844 0.39761 0.0
C244 C 0.25916 0.82283 0.38639 0.0
C245 C 0.2787 0.85218 0.4198 0.0
C246 C 0.23546 0.71283 0.39902 0.0
O247 O 0.23028 0.73922 0.41873 0.0
H248 H 0.3547 0.83938 0.39376 0.0
H249 H 0.22605 0.80856 0.37325 0.0
O250 O 0.33405 0.80824 0.28411 0.0
H251 H 0.16572 0.7768 0.22175 0.0
H252 H 0.26354 0.86501 0.43784 0.0
Cu253 Cu 0.51958 0.26862 0.79911 0.0
N254 N 0.4801 0.27291 0.7602 0.0
N255 N 0.4523 0.30164 0.71571 0.0
C256 C 0.48886 0.30598 0.73469 0.0
C257 C 0.41951 0.2638 0.72861 0.0
C258 C 0.43674 0.24619 0.75609 0.0
O259 O 0.55614 0.32112 0.83283 0.0
C260 C 0.5243 0.20971 0.74716 0.0
O261 O 0.48554 0.18593 0.76697 0.0
H262 H 0.52144 0.33285 0.73109 0.0
H263 H 0.4187 0.21652 0.77332 0.0
N264 N 0.48836 0.23142 0.8493 0.0
N265 N 0.47438 0.19132 0.91389 0.0
C266 C 0.49992 0.20925 0.87481 0.0
C267 C 0.45435 0.22715 0.87324 0.0
C268 C 0.44568 0.20241 0.91323 0.0
C269 C 0.53663 0.33721 0.84901 0.0
O270 O 0.49488 0.32019 0.83969 0.0
H271 H 0.52782 0.20793 0.86631 0.0
H272 H 0.43817 0.24237 0.86346 0.0
O273 O 0.54647 0.24722 0.75735 0.0
H274 H 0.38527 0.25034 0.72035 0.0
H275 H 0.42098 0.19391 0.94026 0.0
C276 C 0.18063 0.56805 0.08783 0.0
C277 C 0.13855 0.54025 0.06897 0.0
C278 C 0.20393 0.55571 0.117 0.0
C279 C 0.18648 0.51477 0.12889 0.0
H280 H 0.1958 0.59993 0.08024 0.0
H281 H 0.23595 0.57849 0.13009 0.0
S282 S 0.07677 0.42946 0.09031 0.0
N283 N 0.08055 0.46962 0.06569 0.0
N284 N 0.12301 0.44641 0.11946 0.0
C285 C 0.14433 0.48672 0.11011 0.0
C286 C 0.12088 0.49934 0.08052 0.0
C287 C 0.64942 0.06342 0.67882 0.0
C288 C 0.65449 0.04446 0.64067 0.0
C289 C 0.68498 0.08929 0.70775 0.0
C290 C 0.72694 0.09704 0.69981 0.0
H291 H 0.61884 0.06111 0.68392 0.0
H292 H 0.68012 0.1057 0.73385 0.0
S293 S 0.75445 0.04672 0.61255 0.0
N294 N 0.70253 0.02943 0.60203 0.0
N295 N 0.76914 0.07753 0.65709 0.0
C296 C 0.73106 0.07464 0.66539 0.0
C297 C 0.69491 0.04848 0.63571 0.0
C298 C 0.61992 0.66316 0.22216 0.0
C299 C 0.61007 0.65988 0.17279 0.0
C300 C 0.6222 0.69321 0.24942 0.0
C301 C 0.61391 0.7215 0.22949 0.0
H302 H 0.62697 0.64276 0.24011 0.0
H303 H 0.63187 0.69501 0.28657 0.0
S304 S 0.58469 0.72619 0.10272 0.0
N305 N 0.59055 0.68788 0.10554 0.0
N306 N 0.59386 0.74347 0.15727 0.0
C307 C 0.60192 0.7177 0.18084 0.0
C308 C 0.60014 0.6872 0.15253 0.0
C309 C 0.91012 0.56217 0.52967 0.0
C310 C 0.94609 0.56139 0.54682 0.0
C311 C 0.89205 0.57857 0.55653 0.0
C312 C 0.90933 0.59449 0.60134 0.0
H313 H 0.89461 0.54837 0.49638 0.0
H314 H 0.86301 0.57683 0.54354 0.0
S315 S 1.007 0.6057 0.65901 0.0
N316 N 1.00174 0.58322 0.60872 0.0
N317 N 0.96617 0.61217 0.65981 0.0
C318 C 0.94646 0.59589 0.61771 0.0
C319 C 0.96529 0.57982 0.59027 0.0
C320 C 0.44767 0.91332 0.21277 0.0
C321 C 0.44823 0.92067 0.16254 0.0
C322 C 0.41214 0.87903 0.23676 0.0
C323 C 0.37464 0.84997 0.21209 0.0
H324 H 0.4748 0.93487 0.23441 0.0
H325 H 0.41351 0.87618 0.27533 0.0
S326 S 0.36003 0.85239 0.07987 0.0
N327 N 0.40837 0.89391 0.08888 0.0
N328 N 0.34188 0.82998 0.13313 0.0
C329 C 0.37539 0.85604 0.16153 0.0
C330 C 0.41188 0.89099 0.13708 0.0
C331 C 0.41258 0.34828 0.62643 0.0
C332 C 0.44154 0.3895 0.63358 0.0
C333 C 0.41601 0.31969 0.65374 0.0
C334 C 0.44839 0.33148 0.68922 0.0
H335 H 0.38822 0.33832 0.5985 0.0
H336 H 0.39392 0.28824 0.64613 0.0
S337 S 0.52863 0.43637 0.72474 0.0
N338 N 0.50153 0.44097 0.67982 0.0
N339 N 0.5071 0.38763 0.73271 0.0
C340 C 0.47633 0.37282 0.6978 0.0
C341 C 0.47309 0.40173 0.66957 0.0
C342 C 0.58914 0.92416 0.45007 0.0
C343 C 0.5773 0.94685 0.42175 0.0
C344 C 0.59617 0.89625 0.42995 0.0
C345 C 0.59069 0.88864 0.38062 0.0
H346 H 0.59523 0.92942 0.48789 0.0
H347 H 0.6077 0.88149 0.45314 0.0
S348 S 0.5569 0.93743 0.29055 0.0
N349 N 0.55791 0.95765 0.34133 0.0
N350 N 0.57103 0.90528 0.30411 0.0
C351 C 0.5769 0.90962 0.35208 0.0
C352 C 0.5703 0.93862 0.37242 0.0
C353 C 0.72362 0.64909 0.92969 0.0
C354 C 0.67942 0.6171 0.93329 0.0
C355 C 0.7509 0.65089 0.89371 0.0
C356 C 0.73528 0.62032 0.86054 0.0
H357 H 0.73763 0.67226 0.95586 0.0
H358 H 0.78499 0.6755 0.89321 0.0
S359 S 0.62152 0.53048 0.85388 0.0
N360 N 0.62082 0.55477 0.89971 0.0
N361 N 0.67191 0.55795 0.83252 0.0
C362 C 0.69072 0.58876 0.86295 0.0
C363 C 0.66282 0.58725 0.89912 0.0
C364 C 0.15706 0.62204 0.48238 0.0
C365 C 0.14026 0.58872 0.45325 0.0
C366 C 0.1897 0.66144 0.46537 0.0
C367 C 0.20776 0.66969 0.41857 0.0
H368 H 0.14305 0.61811 0.51753 0.0
H369 H 0.19961 0.68603 0.48871 0.0
S370 S 0.17873 0.59242 0.32961 0.0
N371 N 0.14724 0.56647 0.37622 0.0
N372 N 0.20813 0.63983 0.34504 0.0
C373 C 0.19328 0.63627 0.39029 0.0
C374 C 0.15976 0.59619 0.40736 0.0
C375 C 0.48117 0.10891 0.97274 0.0
C376 C 0.49161 0.12076 1.02056 0.0
C377 C 0.47543 0.13205 0.93815 0.0
C378 C 0.4788 0.16735 0.95024 0.0
H379 H 0.47769 0.08162 0.96167 0.0
H380 H 0.46821 0.12233 0.90165 0.0
S381 S 0.50548 0.21234 0.06914 0.0
N382 N 0.50569 0.17113 0.07742 0.0
N383 N 0.49283 0.21353 1.01235 0.0
C384 C 0.48798 0.17923 0.99776 0.0
C385 C 0.49475 0.15613 0.033 0.0
C386 C 0.4176 0.49119 0.36684 0.0
C387 C 0.43039 0.52149 0.39973 0.0
C388 C 0.38798 0.48446 0.32913 0.0
C389 C 0.36959 0.50778 0.32166 0.0
H390 H 0.429 0.4713 0.3714 0.0
H391 H 0.37863 0.45982 0.30611 0.0
S392 S 0.39596 0.59399 0.39442 0.0
N393 N 0.42459 0.57734 0.41957 0.0
N394 N 0.36973 0.56463 0.34928 0.0
C395 C 0.38387 0.53946 0.35282 0.0
C396 C 0.41381 0.54621 0.39147 0.0
C397 C 0.95634 0.36585 0.98276 0.0
C398 C 0.92711 0.37211 1.0065 0.0
C399 C 0.94109 0.33264 0.95411 0.0
C400 C 0.89606 0.30482 0.94787 0.0
H401 H 0.99125 0.38784 0.98467 0.0
H402 H 0.96456 0.33023 0.93421 0.0
S403 S 0.80618 0.3046 1.00705 0.0
N404 N 0.85122 0.34561 1.02546 0.0
N405 N 0.82254 0.28299 0.97199 0.0
C406 C 0.86662 0.30912 0.97419 0.0
C407 C 0.88214 0.34279 1.00352 0.0
C408 C 0.95582 0.56672 0.87536 0.0
C409 C 0.93392 0.53137 0.9047 0.0
C410 C 0.93318 0.57573 0.84069 0.0
C411 C 0.88737 0.54984 0.83285 0.0
H412 H 0.99042 0.58851 0.88053 0.0
H413 H 0.95198 0.60402 0.8204 0.0
S414 S 0.81501 0.45131 0.8968 0.0
N415 N 0.86358 0.46876 0.9208 0.0
N416 N 0.82198 0.48569 0.85613 0.0
C417 C 0.86553 0.51354 0.86041 0.0
C418 C 0.88844 0.50445 0.896 0.0
C419 C 0.41706 0.91745 0.50838 0.0
C420 C 0.42393 0.95584 0.50924 0.0
C421 C 0.38252 0.88669 0.48211 0.0
C422 C 0.35317 0.89294 0.45641 0.0
H423 H 0.43985 0.91172 0.52596 0.0
H424 H 0.37915 0.85797 0.48115 0.0
S425 S 0.3553 0.9872 0.44954 0.0
N426 N 0.39719 0.9977 0.48401 0.0
N427 N 0.3324 0.93998 0.43499 0.0
C428 C 0.35854 0.93059 0.45877 0.0
C429 C 0.39388 0.96199 0.48507 0.0
C430 C 0.55555 0.42952 0.91058 0.0
C431 C 0.58252 0.43454 0.95008 0.0
C432 C 0.54336 0.39963 0.87699 0.0
C433 C 0.55767 0.37312 0.88039 0.0
H434 H 0.54331 0.44868 0.90544 0.0
H435 H 0.52157 0.39674 0.84832 0.0
S436 S 0.62756 0.37163 0.97707 0.0
N437 N 0.6223 0.4087 0.99066 0.0
N438 N 0.60006 0.35365 0.92697 0.0
C439 C 0.58535 0.3781 0.91888 0.0
C440 C 0.59751 0.40835 0.95369 0.0
C441 C 0.06795 0.42921 0.33828 0.0
C442 C 0.063 0.41744 0.38707 0.0
C443 C 0.09943 0.42964 0.31006 0.0
C444 C 0.12634 0.41751 0.32943 0.0
H445 H 0.04873 0.43988 0.32243 0.0
H446 H 0.10339 0.4402 0.273 0.0
S447 S 0.12467 0.38224 0.45461 0.0
N448 N 0.08641 0.39221 0.45318 0.0
N449 N 0.14516 0.39234 0.39986 0.0
C450 C 0.12055 0.40424 0.37766 0.0
C451 C 0.08902 0.40445 0.40658 0.0
C452 C 0.61532 0.09358 0.91562 0.0
C453 C 0.6336 0.10076 0.96187 0.0
C454 C 0.63985 0.11831 0.87517 0.0
C455 C 0.68388 0.15155 0.87885 0.0
H456 H 0.58148 0.06938 0.91076 0.0
H457 H 0.62396 0.11127 0.84062 0.0
S458 S 0.74824 0.18143 0.99144 0.0
N459 N 0.69961 0.14254 1.00805 0.0
N460 N 0.74475 0.18835 0.93338 0.0
C461 C 0.70257 0.15836 0.92487 0.0
C462 C 0.6778 0.13326 0.96576 0.0
C463 C 0.62399 0.68886 0.50409 0.0
C464 C 0.58151 0.67278 0.52176 0.0
C465 C 0.64605 0.725 0.47675 0.0
C466 C 0.62613 0.74604 0.46581 0.0
H467 H 0.63924 0.67216 0.50933 0.0
H468 H 0.67748 0.73495 0.46124 0.0
S469 S 0.51805 0.71978 0.50909 0.0
N470 N 0.52227 0.68276 0.5305 0.0
N471 N 0.56406 0.75113 0.47961 0.0
C472 C 0.58519 0.73201 0.48647 0.0
C473 C 0.56279 0.69527 0.51445 0.0
C474 C 0.53276 0.13047 0.68323 0.0
C475 C 0.55614 0.15016 0.64049 0.0
C476 C 0.52431 0.15044 0.71765 0.0
C477 C 0.53924 0.19155 0.71209 0.0
H478 H 0.52065 0.09914 0.69047 0.0
H479 H 0.50541 0.13317 0.7491 0.0
S480 S 0.60021 0.25762 0.60655 0.0
N481 N 0.59249 0.21398 0.59436 0.0
N482 N 0.57796 0.25108 0.65973 0.0
C483 C 0.56312 0.21196 0.67011 0.0
C484 C 0.57117 0.19149 0.63436 0.0
C485 C 0.44429 0.48732 0.13104 0.0
C486 C 0.45661 0.49463 0.08242 0.0
C487 C 0.40317 0.47775 0.14542 0.0
C488 C 0.3725 0.47422 0.11173 0.0
H489 H 0.46707 0.49033 0.15853 0.0
H490 H 0.39533 0.47348 0.18325 0.0
S491 S 0.38697 0.48794 0.98028 0.0
N492 N 0.43398 0.4964 1.00043 0.0
N493 N 0.35586 0.47718 0.02795 0.0
C494 C 0.38347 0.47997 0.06303 0.0
C495 C 0.42581 0.49056 0.04825 0.0
C496 C 0.89181 0.36738 0.62807 0.0
C497 C 0.93797 0.39529 0.62735 0.0
C498 C 0.86965 0.3381 0.66578 0.0
C499 C 0.89237 0.33481 0.70499 0.0
H500 H 0.87228 0.3675 0.59857 0.0
H501 H 0.83461 0.31696 0.66322 0.0
S502 S 1.01279 0.40233 0.72365 0.0
N503 N 1.00483 0.41871 0.67178 0.0
N504 N 0.96407 0.3645 0.742 0.0
C505 C 0.93835 0.36346 0.70561 0.0
C506 C 0.96082 0.39333 0.66725 0.0
C507 C 0.63539 0.96235 0.14959 0.0
C508 C 0.65498 1.00168 0.16572 0.0
C509 C 0.64884 0.9374 0.16647 0.0
C510 C 0.6822 0.95035 0.20051 0.0
H511 H 0.60774 0.94962 0.12563 0.0
H512 H 0.63147 0.90682 0.15459 0.0
S513 S 0.74753 0.05169 0.25081 0.0
N514 N 0.71272 0.05375 0.21429 0.0
N515 N 0.73686 1.00582 0.24754 0.0
C516 C 0.70389 0.99018 0.21516 0.0
C517 C 0.69038 1.01598 0.1976 0.0
C518 C 0.64427 0.51817 0.57021 0.0
C519 C 0.61633 0.52477 0.59629 0.0
C520 C 0.68043 0.51938 0.59215 0.0
C521 C 0.69044 0.52677 0.64149 0.0
H522 H 0.63855 0.51246 0.53243 0.0
H523 H 0.70114 0.51493 0.56985 0.0
S524 S 0.62865 0.54699 0.72605 0.0
N525 N 0.60251 0.5397 0.67504 0.0
N526 N 0.66896 0.54128 0.71509 0.0
C527 C 0.66245 0.53286 0.66795 0.0
C528 C 0.62607 0.53206 0.64575 0.0
C529 C 0.06962 0.66105 0.17503 0.0
C530 C 0.07828 0.63506 0.15272 0.0
C531 C 0.1001 0.69064 0.20565 0.0
C532 C 0.14042 0.69533 0.21555 0.0
H533 H 0.03934 0.65908 0.16793 0.0
H534 H 0.0923 0.71035 0.22129 0.0
S535 S 0.17947 0.63503 0.16746 0.0
N536 N 0.13045 0.61585 0.14407 0.0
N537 N 0.18741 0.6714 0.20108 0.0
C538 C 0.14905 0.66884 0.19484 0.0
C539 C 0.11806 0.63868 0.16367 0.0
loop_
_geom_bond_atom_site_label_1
_geom_bond_atom_site_label_2
_geom_bond_distance
_geom_bond_site_symmetry_2
_ccdc_geom_bond_type
Cu0 N1 1.999 1_454 S
Cu0 O6 1.974 1_454 S
Cu0 N11 1.985 . S
Cu0 O20 1.959 . S
N1 Cu0 1.999 1_656 S
N1 C3 1.263 . S
N1 C5 1.389 1_556 S
N2 C3 1.358 . S
N2 C4 1.400 . S
C3 N1 1.263 . S
C3 N2 1.358 . S
C3 H9 0.930 . S
C4 N2 1.400 . S
C4 C5 1.351 1_556 S
C4 H21 0.930 . S
C5 N1 1.389 1_554 S
C5 C4 1.351 1_554 S
C5 H10 0.930 . S
O6 Cu0 1.974 1_656 S
O6 C16 1.282 . S
C7 O8 1.262 1_554 S
C7 O20 1.251 . S
O8 C7 1.262 1_556 S
H9 C3 0.930 . S
H10 C5 0.930 . S
N11 Cu0 1.985 . S
N11 C13 1.335 . S
N11 C14 1.390 . S
N12 C13 1.345 . S
N12 C15 1.336 . S
C13 N11 1.335 . S
C13 N12 1.345 . S
C13 H18 0.930 . S
C14 N11 1.390 . S
C14 C15 1.346 . S
C14 H19 0.930 1_554 S
C15 N12 1.336 . S
C15 C14 1.346 . S
C15 H22 0.929 . S
C16 O6 1.282 . S
C16 O17 1.216 1_655 S
O17 C16 1.216 1_455 S
H18 C13 0.930 . S
H19 C14 0.930 1_556 S
O20 Cu0 1.959 . S
O20 C7 1.251 . S
H21 C4 0.930 . S
H22 C15 0.929 . S
Cu23 N24 1.999 . S
Cu23 O29 1.974 . S
Cu23 N34 1.985 1_565 S
Cu23 O43 1.959 1_565 S
N24 Cu23 1.999 . S
N24 C26 1.263 . S
N24 C28 1.389 . S
N25 C26 1.358 . S
N25 C27 1.400 . S
C26 N24 1.263 . S
C26 N25 1.358 . S
C26 H32 0.930 . S
C27 N25 1.400 . S
C27 C28 1.351 . S
C27 H44 0.930 . S
C28 N24 1.389 . S
C28 C27 1.351 . S
C28 H33 0.930 . S
O29 Cu23 1.974 . S
O29 C39 1.282 . S
C30 O31 1.261 . S
C30 O43 1.251 . S
O31 C30 1.261 . S
H32 C26 0.930 . S
H33 C28 0.930 . S
N34 Cu23 1.985 1_545 S
N34 C36 1.335 . S
N34 C37 1.390 . S
N35 C36 1.345 . S
N35 C38 1.336 . S
C36 N34 1.335 . S
C36 N35 1.345 . S
C36 H41 0.930 . S
C37 N34 1.390 . S
C37 C38 1.346 . S
C37 H42 0.930 . S
C38 N35 1.336 . S
C38 C37 1.346 . S
C38 H45 0.929 . S
C39 O29 1.282 . S
C39 O40 1.216 1_565 S
O40 C39 1.216 1_545 S
H41 C36 0.930 . S
H42 C37 0.930 . S
O43 Cu23 1.959 1_545 S
O43 C30 1.251 . S
H44 C27 0.930 . S
H45 C38 0.929 . S
Cu46 N47 2.003 . S
Cu46 O52 1.977 . S
Cu46 N57 1.981 1_556 S
Cu46 O66 1.955 1_556 S
N47 Cu46 2.003 . S
N47 C49 1.263 . S
N47 C51 1.389 . S
N48 C49 1.358 . S
N48 C50 1.400 . S
C49 N47 1.263 . S
C49 N48 1.358 . S
C49 H55 0.930 . S
C50 N48 1.400 . S
C50 C51 1.351 . S
C50 H67 0.930 . S
C51 N47 1.389 . S
C51 C50 1.351 . S
C51 H56 0.930 . S
O52 Cu46 1.977 . S
O52 C62 1.282 . S
C53 O54 1.261 . S
C53 O66 1.251 . S
O54 C53 1.261 . S
H55 C49 0.930 . S
H56 C51 0.930 . S
N57 Cu46 1.981 1_554 S
N57 C59 1.335 . S
N57 C60 1.390 . S
N58 C59 1.345 . S
N58 C61 1.336 . S
C59 N57 1.335 . S
C59 N58 1.345 . S
C59 H64 0.930 . S
C60 N57 1.390 . S
C60 C61 1.346 . S
C60 H65 0.930 . S
C61 N58 1.336 . S
C61 C60 1.346 . S
C61 H68 0.929 . S
C62 O52 1.282 . S
C62 O63 1.216 1_556 S
O63 C62 1.216 1_554 S
H64 C59 0.930 . S
H65 C60 0.930 . S
O66 Cu46 1.955 1_554 S
O66 C53 1.251 . S
H67 C50 0.930 . S
H68 C61 0.929 . S
Cu69 N70 1.999 1_655 S
Cu69 O75 1.974 1_655 S
Cu69 N80 1.985 . S
Cu69 O89 1.959 . S
N70 Cu69 1.999 1_455 S
N70 C72 1.263 . S
N70 C74 1.389 1_455 S
N71 C72 1.358 . S
N71 C73 1.400 . S
C72 N70 1.263 . S
C72 N71 1.358 . S
C72 H78 0.930 . S
C73 N71 1.400 . S
C73 C74 1.351 1_455 S
C73 H90 0.930 . S
C74 N70 1.389 1_655 S
C74 C73 1.351 1_655 S
C74 H79 0.930 . S
O75 Cu69 1.974 1_455 S
O75 C85 1.282 . S
C76 O77 1.261 1_655 S
C76 O89 1.251 . S
O77 C76 1.261 1_455 S
H78 C72 0.930 . S
H79 C74 0.930 . S
N80 Cu69 1.985 . S
N80 C82 1.335 . S
N80 C83 1.390 . S
N81 C82 1.345 . S
N81 C84 1.336 . S
C82 N80 1.335 . S
C82 N81 1.345 . S
C82 H87 0.930 . S
C83 N80 1.390 . S
C83 C84 1.346 . S
C83 H88 0.930 1_655 S
C84 N81 1.336 . S
C84 C83 1.346 . S
C84 H91 0.929 . S
C85 O75 1.282 . S
C85 O86 1.216 . S
O86 C85 1.216 . S
H87 C82 0.930 . S
H88 C83 0.930 1_455 S
O89 Cu69 1.959 . S
O89 C76 1.251 . S
H90 C73 0.930 . S
H91 C84 0.929 . S
Cu92 N93 1.999 . S
Cu92 O98 1.974 1_554 S
Cu92 N103 1.985 1_545 S
Cu92 O112 1.959 1_545 S
N93 Cu92 1.999 . S
N93 C95 1.263 1_554 S
N93 C97 1.389 . S
N94 C95 1.358 . S
N94 C96 1.400 . S
C95 N93 1.263 1_556 S
C95 N94 1.358 . S
C95 H101 0.930 . S
C96 N94 1.400 . S
C96 C97 1.351 1_556 S
C96 H113 0.930 1_556 S
C97 N93 1.389 . S
C97 C96 1.351 1_554 S
C97 H102 0.930 . S
O98 Cu92 1.974 1_556 S
O98 C108 1.282 . S
C99 O100 1.261 . S
C99 O112 1.251 . S
O100 C99 1.261 . S
H101 C95 0.930 . S
H102 C97 0.930 . S
N103 Cu92 1.985 1_565 S
N103 C105 1.335 . S
N103 C106 1.390 . S
N104 C105 1.345 . S
N104 C107 1.336 . S
C105 N103 1.335 . S
C105 N104 1.345 . S
C105 H110 0.930 . S
C106 N103 1.390 . S
C106 C107 1.346 . S
C106 H111 0.935 . S
C107 N104 1.336 . S
C107 C106 1.346 . S
C107 H114 0.929 . S
C108 O98 1.282 . S
C108 O109 1.216 . S
O109 C108 1.216 . S
H110 C105 0.930 . S
H111 C106 0.935 . S
O112 Cu92 1.959 1_565 S
O112 C99 1.251 . S
H113 C96 0.930 1_554 S
H114 C107 0.929 . S
Cu115 N116 1.999 . S
Cu115 O121 1.974 . S
Cu115 N126 1.985 . S
Cu115 O135 1.959 . S
N116 Cu115 1.999 . S
N116 C118 1.263 . S
N116 C120 1.389 . S
N117 C118 1.358 . S
N117 C119 1.400 . S
C118 N116 1.263 . S
C118 N117 1.358 . S
C118 H124 0.930 . S
C119 N117 1.400 . S
C119 C120 1.351 . S
C119 H136 0.930 . S
C120 N116 1.389 . S
C120 C119 1.351 . S
C120 H125 0.930 . S
O121 Cu115 1.974 . S
O121 C131 1.282 . S
C122 O123 1.261 . S
C122 O135 1.251 . S
O123 C122 1.261 . S
H124 C118 0.930 . S
H125 C120 0.930 . S
N126 Cu115 1.985 . S
N126 C128 1.335 . S
N126 C129 1.390 . S
N127 C128 1.345 . S
N127 C130 1.336 . S
C128 N126 1.335 . S
C128 N127 1.345 . S
C128 H133 0.930 . S
C129 N126 1.390 . S
C129 C130 1.346 . S
C129 H134 0.930 . S
C130 N127 1.336 . S
C130 C129 1.346 . S
C130 H137 0.929 . S
C131 O121 1.282 . S
C131 O132 1.216 . S
O132 C131 1.216 . S
H133 C128 0.930 . S
H134 C129 0.930 . S
O135 Cu115 1.959 . S
O135 C122 1.251 . S
H136 C119 0.930 . S
H137 C130 0.929 . S
Cu138 N139 1.999 . S
Cu138 O144 1.974 . S
Cu138 N149 1.985 . S
Cu138 O158 1.959 . S
N139 Cu138 1.999 . S
N139 C141 1.263 . S
N139 C143 1.389 . S
N140 C141 1.358 . S
N140 C142 1.400 . S
C141 N139 1.263 . S
C141 N140 1.358 . S
C141 H147 0.930 . S
C142 N140 1.400 . S
C142 C143 1.351 . S
C142 H159 0.930 . S
C143 N139 1.389 . S
C143 C142 1.351 . S
C143 H148 0.930 . S
O144 Cu138 1.974 . S
O144 C154 1.282 . S
C145 O146 1.261 . S
C145 O158 1.251 . S
O146 C145 1.261 . S
H147 C141 0.930 . S
H148 C143 0.930 . S
N149 Cu138 1.985 . S
N149 C151 1.335 . S
N149 C152 1.390 . S
N150 C151 1.345 . S
N150 C153 1.336 . S
C151 N149 1.335 . S
C151 N150 1.345 . S
C151 H156 0.930 . S
C152 N149 1.390 . S
C152 C153 1.346 . S
C152 H157 0.930 . S
C153 N150 1.336 . S
C153 C152 1.346 . S
C153 H160 0.929 . S
C154 O144 1.282 . S
C154 O155 1.216 . S
O155 C154 1.216 . S
H156 C151 0.930 . S
H157 C152 0.930 . S
O158 Cu138 1.959 . S
O158 C145 1.251 . S
H159 C142 0.930 . S
H160 C153 0.929 . S
Cu161 N162 1.999 . S
Cu161 O167 1.974 . S
Cu161 N172 1.985 . S
Cu161 O181 1.959 . S
N162 Cu161 1.999 . S
N162 C164 1.263 . S
N162 C166 1.389 . S
N163 C164 1.358 . S
N163 C165 1.400 . S
C164 N162 1.263 . S
C164 N163 1.358 . S
C164 H170 0.930 . S
C165 N163 1.400 . S
C165 C166 1.351 . S
C165 H182 0.930 . S
C166 N162 1.389 . S
C166 C165 1.351 . S
C166 H171 0.930 . S
O167 Cu161 1.974 . S
O167 C177 1.282 . S
C168 O169 1.261 . S
C168 O181 1.251 . S
O169 C168 1.261 . S
H170 C164 0.930 . S
H171 C166 0.930 . S
N172 Cu161 1.985 . S
N172 C174 1.335 . S
N172 C175 1.390 . S
N173 C174 1.345 . S
N173 C176 1.336 . S
C174 N172 1.335 . S
C174 N173 1.345 . S
C174 H179 0.930 . S
C175 N172 1.390 . S
C175 C176 1.346 . S
C175 H180 0.930 . S
C176 N173 1.336 . S
C176 C175 1.346 . S
C176 H183 0.929 . S
C177 O167 1.282 . S
C177 O178 1.216 . S
O178 C177 1.216 . S
H179 C174 0.930 . S
H180 C175 0.930 . S
O181 Cu161 1.959 . S
O181 C168 1.251 . S
H182 C165 0.930 . S
H183 C176 0.929 . S
Cu184 N185 1.999 . S
Cu184 O190 1.974 . S
Cu184 N195 1.985 . S
Cu184 O204 1.959 . S
N185 Cu184 1.999 . S
N185 C187 1.263 . S
N185 C189 1.389 . S
N186 C187 1.358 . S
N186 C188 1.400 . S
C187 N185 1.263 . S
C187 N186 1.358 . S
C187 H193 0.930 . S
C188 N186 1.400 . S
C188 C189 1.351 . S
C188 H205 0.930 . S
C189 N185 1.389 . S
C189 C188 1.351 . S
C189 H194 0.930 . S
O190 Cu184 1.974 . S
O190 C200 1.282 . S
C191 O192 1.261 . S
C191 O204 1.251 . S
O192 C191 1.261 . S
H193 C187 0.930 . S
H194 C189 0.930 . S
N195 Cu184 1.985 . S
N195 C197 1.335 . S
N195 C198 1.390 . S
N196 C197 1.345 . S
N196 C199 1.336 . S
C197 N195 1.335 . S
C197 N196 1.345 . S
C197 H202 0.930 . S
C198 N195 1.390 . S
C198 C199 1.346 . S
C198 H203 0.930 . S
C199 N196 1.336 . S
C199 C198 1.346 . S
C199 H206 0.929 . S
C200 O190 1.282 . S
C200 O201 1.216 . S
O201 C200 1.216 . S
H202 C197 0.930 . S
H203 C198 0.930 . S
O204 Cu184 1.959 . S
O204 C191 1.251 . S
H205 C188 0.930 . S
H206 C199 0.929 . S
Cu207 N208 1.999 . S
Cu207 O213 1.974 . S
Cu207 N218 1.985 . S
Cu207 O227 1.959 . S
N208 Cu207 1.999 . S
N208 C210 1.263 . S
N208 C212 1.389 . S
N209 C210 1.358 . S
N209 C211 1.400 . S
C210 N208 1.263 . S
C210 N209 1.358 . S
C210 H216 0.930 . S
C211 N209 1.400 . S
C211 C212 1.351 . S
C211 H228 0.930 . S
C212 N208 1.389 . S
C212 C211 1.351 . S
C212 H217 0.930 . S
O213 Cu207 1.974 . S
O213 C223 1.282 . S
C214 O215 1.261 . S
C214 O227 1.251 . S
O215 C214 1.261 . S
H216 C210 0.930 . S
H217 C212 0.930 . S
N218 Cu207 1.985 . S
N218 C220 1.335 . S
N218 C221 1.390 . S
N219 C220 1.345 . S
N219 C222 1.336 . S
C220 N218 1.335 . S
C220 N219 1.345 . S
C220 H225 0.930 . S
C221 N218 1.390 . S
C221 C222 1.346 . S
C221 H226 0.930 . S
C222 N219 1.336 . S
C222 C221 1.346 . S
C222 H229 0.929 . S
C223 O213 1.282 . S
C223 O224 1.216 . S
O224 C223 1.216 . S
H225 C220 0.930 . S
H226 C221 0.930 . S
O227 Cu207 1.959 . S
O227 C214 1.251 . S
H228 C211 0.930 . S
H229 C222 0.929 . S
Cu230 N231 1.999 . S
Cu230 O236 1.974 . S
Cu230 N241 1.985 . S
Cu230 O250 1.959 . S
N231 Cu230 1.999 . S
N231 C233 1.263 . S
N231 C235 1.389 . S
N232 C233 1.358 . S
N232 C234 1.400 . S
C233 N231 1.263 . S
C233 N232 1.358 . S
C233 H239 0.930 . S
C234 N232 1.400 . S
C234 C235 1.351 . S
C234 H251 0.930 . S
C235 N231 1.389 . S
C235 C234 1.351 . S
C235 H240 0.930 . S
O236 Cu230 1.974 . S
O236 C246 1.282 . S
C237 O238 1.261 . S
C237 O250 1.251 . S
O238 C237 1.261 . S
H239 C233 0.930 . S
H240 C235 0.930 . S
N241 Cu230 1.985 . S
N241 C243 1.335 . S
N241 C244 1.390 . S
N242 C243 1.345 . S
N242 C245 1.336 . S
C243 N241 1.335 . S
C243 N242 1.345 . S
C243 H248 0.930 . S
C244 N241 1.390 . S
C244 C245 1.346 . S
C244 H249 0.930 . S
C245 N242 1.336 . S
C245 C244 1.346 . S
C245 H252 0.929 . S
C246 O236 1.282 . S
C246 O247 1.216 . S
O247 C246 1.216 . S
H248 C243 0.930 . S
H249 C244 0.930 . S
O250 Cu230 1.959 . S
O250 C237 1.251 . S
H251 C234 0.930 . S
H252 C245 0.929 . S
Cu253 N254 1.999 . S
Cu253 O259 1.974 . S
Cu253 N264 1.985 . S
Cu253 O273 1.959 . S
N254 Cu253 1.999 . S
N254 C256 1.263 . S
N254 C258 1.389 . S
N255 C256 1.358 . S
N255 C257 1.400 . S
C256 N254 1.263 . S
C256 N255 1.358 . S
C256 H262 0.930 . S
C257 N255 1.400 . S
C257 C258 1.351 . S
C257 H274 0.930 . S
C258 N254 1.389 . S
C258 C257 1.351 . S
C258 H263 0.930 . S
O259 Cu253 1.974 . S
O259 C269 1.282 . S
C260 O261 1.261 . S
C260 O273 1.251 . S
O261 C260 1.261 . S
H262 C256 0.930 . S
H263 C258 0.930 . S
N264 Cu253 1.985 . S
N264 C266 1.335 . S
N264 C267 1.390 . S
N265 C266 1.345 . S
N265 C268 1.336 . S
C266 N264 1.335 . S
C266 N265 1.345 . S
C266 H271 0.930 . S
C267 N264 1.390 . S
C267 C268 1.346 . S
C267 H272 0.930 . S
C268 N265 1.336 . S
C268 C267 1.346 . S
C268 H275 0.929 . S
C269 O259 1.282 . S
C269 O270 1.216 . S
O270 C269 1.216 . S
H271 C266 0.930 . S
H272 C267 0.930 . S
O273 Cu253 1.959 . S
O273 C260 1.251 . S
H274 C257 0.930 . S
H275 C268 0.929 . S
C276 C277 1.369 . S
C276 C278 1.419 . S
C276 H280 0.930 . S
C277 C276 1.369 . S
C277 C286 1.429 . S
C278 C276 1.419 . S
C278 C279 1.363 . S
C278 H281 0.929 . S
C279 C278 1.363 . S
C279 C285 1.428 . S
H280 C276 0.930 . S
H281 C278 0.929 . S
S282 N283 1.613 . S
S282 N284 1.610 . S
N283 S282 1.613 . S
N283 C286 1.350 . S
N284 S282 1.610 . S
N284 C285 1.351 . S
C285 C279 1.428 . S
C285 N284 1.351 . S
C285 C286 1.434 . S
C286 C277 1.429 . S
C286 N283 1.350 . S
C286 C285 1.434 . S
C287 C288 1.369 . S
C287 C289 1.419 . S
C287 H291 0.930 . S
C288 C287 1.369 . S
C288 C297 1.429 . S
C289 C287 1.419 . S
C289 C290 1.363 . S
C289 H292 0.929 . S
C290 C289 1.363 . S
C290 C296 1.428 . S
H291 C287 0.930 . S
H292 C289 0.929 . S
S293 N294 1.613 . S
S293 N295 1.610 . S
N294 S293 1.613 . S
N294 C297 1.350 . S
N295 S293 1.610 . S
N295 C296 1.351 . S
C296 C290 1.428 . S
C296 N295 1.351 . S
C296 C297 1.434 . S
C297 C288 1.429 . S
C297 N294 1.350 . S
C297 C296 1.434 . S
C298 C299 1.369 . S
C298 C300 1.419 . S
C298 H302 0.930 . S
C299 C298 1.369 . S
C299 C308 1.429 . S
C300 C298 1.419 . S
C300 C301 1.363 . S
C300 H303 0.929 . S
C301 C300 1.363 . S
C301 C307 1.428 . S
H302 C298 0.930 . S
H303 C300 0.929 . S
S304 N305 1.613 . S
S304 N306 1.610 . S
N305 S304 1.613 . S
N305 C308 1.350 . S
N306 S304 1.610 . S
N306 C307 1.351 . S
C307 C301 1.428 . S
C307 N306 1.351 . S
C307 C308 1.434 . S
C308 C299 1.429 . S
C308 N305 1.350 . S
C308 C307 1.434 . S
C309 C310 1.369 . S
C309 C311 1.419 . S
C309 H313 0.930 . S
C310 C309 1.369 . S
C310 C319 1.429 . S
C311 C309 1.419 . S
C311 C312 1.363 . S
C311 H314 0.929 . S
C312 C311 1.363 . S
C312 C318 1.428 . S
H313 C309 0.930 . S
H314 C311 0.929 . S
S315 N316 1.613 1_455 S
S315 N317 1.610 1_455 S
N316 S315 1.613 1_655 S
N316 C319 1.350 . S
N317 S315 1.610 1_655 S
N317 C318 1.351 . S
C318 C312 1.428 . S
C318 N317 1.351 . S
C318 C319 1.434 . S
C319 C310 1.429 . S
C319 N316 1.350 . S
C319 C318 1.434 . S
C320 C321 1.369 . S
C320 C322 1.419 . S
C320 H324 0.930 . S
C321 C320 1.369 . S
C321 C330 1.429 . S
C322 C320 1.419 . S
C322 C323 1.363 . S
C322 H325 0.929 . S
C323 C322 1.363 . S
C323 C329 1.428 . S
H324 C320 0.930 . S
H325 C322 0.929 . S
S326 N327 1.613 . S
S326 N328 1.610 . S
N327 S326 1.613 . S
N327 C330 1.350 . S
N328 S326 1.610 . S
N328 C329 1.351 . S
C329 C323 1.428 . S
C329 N328 1.351 . S
C329 C330 1.434 . S
C330 C321 1.429 . S
C330 N327 1.350 . S
C330 C329 1.434 . S
C331 C332 1.369 . S
C331 C333 1.419 . S
C331 H335 0.930 . S
C332 C331 1.369 . S
C332 C341 1.429 . S
C333 C331 1.419 . S
C333 C334 1.363 . S
C333 H336 0.929 . S
C334 C333 1.363 . S
C334 C340 1.428 . S
H335 C331 0.930 . S
H336 C333 0.929 . S
S337 N338 1.613 . S
S337 N339 1.610 . S
N338 S337 1.613 . S
N338 C341 1.350 . S
N339 S337 1.610 . S
N339 C340 1.351 . S
C340 C334 1.428 . S
C340 N339 1.351 . S
C340 C341 1.434 . S
C341 C332 1.429 . S
C341 N338 1.350 . S
C341 C340 1.434 . S
C342 C343 1.369 . S
C342 C344 1.419 . S
C342 H346 0.930 . S
C343 C342 1.369 . S
C343 C352 1.429 . S
C344 C342 1.419 . S
C344 C345 1.363 . S
C344 H347 0.929 . S
C345 C344 1.363 . S
C345 C351 1.428 . S
H346 C342 0.930 . S
H347 C344 0.929 . S
S348 N349 1.613 . S
S348 N350 1.610 . S
N349 S348 1.613 . S
N349 C352 1.350 . S
N350 S348 1.610 . S
N350 C351 1.351 . S
C351 C345 1.428 . S
C351 N350 1.351 . S
C351 C352 1.434 . S
C352 C343 1.429 . S
C352 N349 1.350 . S
C352 C351 1.434 . S
C353 C354 1.369 . S
C353 C355 1.419 . S
C353 H357 0.930 . S
C354 C353 1.369 . S
C354 C363 1.429 . S
C355 C353 1.419 . S
C355 C356 1.363 . S
C355 H358 0.929 . S
C356 C355 1.363 . S
C356 C362 1.428 . S
H357 C353 0.930 . S
H358 C355 0.929 . S
S359 N360 1.613 . S
S359 N361 1.610 . S
N360 S359 1.613 . S
N360 C363 1.350 . S
N361 S359 1.610 . S
N361 C362 1.351 . S
C362 C356 1.428 . S
C362 N361 1.351 . S
C362 C363 1.434 . S
C363 C354 1.429 . S
C363 N360 1.350 . S
C363 C362 1.434 . S
C364 C365 1.369 . S
C364 C366 1.419 . S
C364 H368 0.930 . S
C365 C364 1.369 . S
C365 C374 1.429 . S
C366 C364 1.419 . S
C366 C367 1.363 . S
C366 H369 0.929 . S
C367 C366 1.363 . S
C367 C373 1.428 . S
H368 C364 0.930 . S
H369 C366 0.929 . S
S370 N371 1.613 . S
S370 N372 1.610 . S
N371 S370 1.613 . S
N371 C374 1.350 . S
N372 S370 1.610 . S
N372 C373 1.351 . S
C373 C367 1.428 . S
C373 N372 1.351 . S
C373 C374 1.434 . S
C374 C365 1.429 . S
C374 N371 1.350 . S
C374 C373 1.434 . S
C375 C376 1.369 . S
C375 C377 1.419 . S
C375 H379 0.930 . S
C376 C375 1.369 . S
C376 C385 1.429 . S
C377 C375 1.419 . S
C377 C378 1.363 . S
C377 H380 0.929 . S
C378 C377 1.363 . S
C378 C384 1.428 . S
H379 C375 0.930 . S
H380 C377 0.929 . S
S381 N382 1.613 . S
S381 N383 1.610 . S
N382 S381 1.613 . S
N382 C385 1.350 . S
N383 S381 1.610 . S
N383 C384 1.351 . S
C384 C378 1.428 . S
C384 N383 1.351 . S
C384 C385 1.434 . S
C385 C376 1.429 . S
C385 N382 1.350 . S
C385 C384 1.434 . S
C386 C387 1.369 . S
C386 C388 1.419 . S
C386 H390 0.930 . S
C387 C386 1.369 . S
C387 C396 1.429 . S
C388 C386 1.419 . S
C388 C389 1.363 . S
C388 H391 0.929 . S
C389 C388 1.363 . S
C389 C395 1.428 . S
H390 C386 0.930 . S
H391 C388 0.929 . S
S392 N393 1.613 . S
S392 N394 1.610 . S
N393 S392 1.613 . S
N393 C396 1.350 . S
N394 S392 1.610 . S
N394 C395 1.351 . S
C395 C389 1.428 . S
C395 N394 1.351 . S
C395 C396 1.434 . S
C396 C387 1.429 . S
C396 N393 1.350 . S
C396 C395 1.434 . S
C397 C398 1.369 . S
C397 C399 1.419 . S
C397 H401 0.930 . S
C398 C397 1.369 . S
C398 C407 1.429 . S
C399 C397 1.419 . S
C399 C400 1.363 . S
C399 H402 0.929 . S
C400 C399 1.363 . S
C400 C406 1.428 . S
H401 C397 0.930 . S
H402 C399 0.929 . S
S403 N404 1.613 . S
S403 N405 1.610 . S
N404 S403 1.613 . S
N404 C407 1.350 . S
N405 S403 1.610 . S
N405 C406 1.351 . S
C406 C400 1.428 . S
C406 N405 1.351 . S
C406 C407 1.434 . S
C407 C398 1.429 . S
C407 N404 1.350 . S
C407 C406 1.434 . S
C408 C409 1.369 . S
C408 C410 1.419 . S
C408 H412 0.930 . S
C409 C408 1.369 . S
C409 C418 1.429 . S
C410 C408 1.419 . S
C410 C411 1.363 . S
C410 H413 0.929 . S
C411 C410 1.363 . S
C411 C417 1.428 . S
H412 C408 0.930 . S
H413 C410 0.929 . S
S414 N415 1.613 . S
S414 N416 1.610 . S
N415 S414 1.613 . S
N415 C418 1.350 . S
N416 S414 1.610 . S
N416 C417 1.351 . S
C417 C411 1.428 . S
C417 N416 1.351 . S
C417 C418 1.434 . S
C418 C409 1.429 . S
C418 N415 1.350 . S
C418 C417 1.434 . S
C419 C420 1.369 . S
C419 C421 1.419 . S
C419 H423 0.930 . S
C420 C419 1.369 . S
C420 C429 1.429 . S
C421 C419 1.419 . S
C421 C422 1.363 . S
C421 H424 0.929 . S
C422 C421 1.363 . S
C422 C428 1.428 . S
H423 C419 0.930 . S
H424 C421 0.929 . S
S425 N426 1.630 . S
S425 N427 1.610 1_545 S
N426 S425 1.630 . S
N426 C429 1.319 1_545 S
N427 S425 1.610 1_565 S
N427 C428 1.351 . S
C428 C422 1.428 . S
C428 N427 1.351 . S
C428 C429 1.434 . S
C429 C420 1.429 . S
C429 N426 1.319 1_565 S
C429 C428 1.434 . S
C430 C431 1.369 . S
C430 C432 1.419 . S
C430 H434 0.930 . S
C431 C430 1.369 . S
C431 C440 1.429 . S
C432 C430 1.419 . S
C432 C433 1.363 . S
C432 H435 0.929 . S
C433 C432 1.363 . S
C433 C439 1.428 . S
H434 C430 0.930 . S
H435 C432 0.929 . S
S436 N437 1.613 . S
S436 N438 1.610 . S
N437 S436 1.613 . S
N437 C440 1.350 . S
N438 S436 1.610 . S
N438 C439 1.351 . S
C439 C433 1.428 . S
C439 N438 1.351 . S
C439 C440 1.434 . S
C440 C431 1.429 . S
C440 N437 1.350 . S
C440 C439 1.434 . S
C441 C442 1.369 . S
C441 C443 1.419 . S
C441 H445 0.930 . S
C442 C441 1.369 . S
C442 C451 1.429 . S
C443 C441 1.419 . S
C443 C444 1.363 . S
C443 H446 0.929 . S
C444 C443 1.363 . S
C444 C450 1.428 . S
H445 C441 0.930 . S
H446 C443 0.929 . S
S447 N448 1.613 . S
S447 N449 1.610 . S
N448 S447 1.613 . S
N448 C451 1.350 . S
N449 S447 1.610 . S
N449 C450 1.351 . S
C450 C444 1.428 . S
C450 N449 1.351 . S
C450 C451 1.434 . S
C451 C442 1.429 . S
C451 N448 1.350 . S
C451 C450 1.434 . S
C452 C453 1.369 . S
C452 C454 1.419 . S
C452 H456 0.930 . S
C453 C452 1.369 . S
C453 C462 1.429 . S
C454 C452 1.419 . S
C454 C455 1.363 . S
C454 H457 0.929 . S
C455 C454 1.363 . S
C455 C461 1.428 . S
H456 C452 0.930 . S
H457 C454 0.929 . S
S458 N459 1.613 . S
S458 N460 1.610 . S
N459 S458 1.613 . S
N459 C462 1.350 . S
N460 S458 1.610 . S
N460 C461 1.351 . S
C461 C455 1.428 . S
C461 N460 1.351 . S
C461 C462 1.434 . S
C462 C453 1.429 . S
C462 N459 1.350 . S
C462 C461 1.434 . S
C463 C464 1.369 . S
C463 C465 1.419 . S
C463 H467 0.930 . S
C464 C463 1.369 . S
C464 C473 1.429 . S
C465 C463 1.419 . S
C465 C466 1.363 . S
C465 H468 0.929 . S
C466 C465 1.363 . S
C466 C472 1.428 . S
H467 C463 0.930 . S
H468 C465 0.929 . S
S469 N470 1.613 . S
S469 N471 1.610 . S
N470 S469 1.613 . S
N470 C473 1.350 . S
N471 S469 1.610 . S
N471 C472 1.351 . S
C472 C466 1.428 . S
C472 N471 1.351 . S
C472 C473 1.434 . S
C473 C464 1.429 . S
C473 N470 1.350 . S
C473 C472 1.434 . S
C474 C475 1.369 . S
C474 C476 1.419 . S
C474 H478 0.930 . S
C475 C474 1.369 . S
C475 C484 1.429 . S
C476 C474 1.419 . S
C476 C477 1.363 . S
C476 H479 0.929 . S
C477 C476 1.363 . S
C477 C483 1.428 . S
H478 C474 0.930 . S
H479 C476 0.929 . S
S480 N481 1.613 . S
S480 N482 1.610 . S
N481 S480 1.613 . S
N481 C484 1.350 . S
N482 S480 1.610 . S
N482 C483 1.351 . S
C483 C477 1.428 . S
C483 N482 1.351 . S
C483 C484 1.434 . S
C484 C475 1.429 . S
C484 N481 1.350 . S
C484 C483 1.434 . S
C485 C486 1.369 . S
C485 C487 1.419 . S
C485 H489 0.930 . S
C486 C485 1.369 . S
C486 C495 1.429 . S
C487 C485 1.419 . S
C487 C488 1.363 . S
C487 H490 0.929 . S
C488 C487 1.363 . S
C488 C494 1.428 . S
H489 C485 0.930 . S
H490 C487 0.929 . S
S491 N492 1.613 . S
S491 N493 1.610 . S
N492 S491 1.613 . S
N492 C495 1.350 . S
N493 S491 1.610 . S
N493 C494 1.351 . S
C494 C488 1.428 . S
C494 N493 1.351 . S
C494 C495 1.434 . S
C495 C486 1.429 . S
C495 N492 1.350 . S
C495 C494 1.434 . S
C496 C497 1.369 . S
C496 C498 1.419 . S
C496 H500 0.930 . S
C497 C496 1.369 . S
C497 C506 1.429 . S
C498 C496 1.419 . S
C498 C499 1.363 . S
C498 H501 0.929 . S
C499 C498 1.363 . S
C499 C505 1.428 . S
H500 C496 0.930 . S
H501 C498 0.929 . S
S502 N503 1.613 . S
S502 N504 1.610 . S
N503 S502 1.613 . S
N503 C506 1.350 . S
N504 S502 1.610 . S
N504 C505 1.351 . S
C505 C499 1.428 . S
C505 N504 1.351 . S
C505 C506 1.434 . S
C506 C497 1.429 . S
C506 N503 1.350 . S
C506 C505 1.434 . S
C507 C508 1.369 . S
C507 C509 1.419 . S
C507 H511 0.930 . S
C508 C507 1.369 . S
C508 C517 1.429 . S
C509 C507 1.419 . S
C509 C510 1.363 . S
C509 H512 0.929 . S
C510 C509 1.363 . S
C510 C516 1.428 . S
H511 C507 0.930 . S
H512 C509 0.929 . S
S513 N514 1.613 1_545 S
S513 N515 1.610 1_545 S
N514 S513 1.613 1_565 S
N514 C517 1.350 . S
N515 S513 1.610 1_565 S
N515 C516 1.351 . S
C516 C510 1.428 . S
C516 N515 1.351 . S
C516 C517 1.434 . S
C517 C508 1.429 . S
C517 N514 1.350 . S
C517 C516 1.434 . S
C518 C519 1.369 . S
C518 C520 1.419 . S
C518 H522 0.930 . S
C519 C518 1.369 . S
C519 C528 1.429 . S
C520 C518 1.419 . S
C520 C521 1.363 . S
C520 H523 0.929 . S
C521 C520 1.363 . S
C521 C527 1.428 . S
H522 C518 0.930 . S
H523 C520 0.929 . S
S524 N525 1.613 . S
S524 N526 1.610 . S
N525 S524 1.613 . S
N525 C528 1.350 . S
N526 S524 1.610 . S
N526 C527 1.351 . S
C527 C521 1.428 . S
C527 N526 1.351 . S
C527 C528 1.434 . S
C528 C519 1.429 . S
C528 N525 1.350 . S
C528 C527 1.434 . S
C529 C530 1.369 . S
C529 C531 1.419 . S
C529 H533 0.930 . S
C530 C529 1.369 . S
C530 C539 1.429 . S
C531 C529 1.419 . S
C531 C532 1.363 . S
C531 H534 0.929 . S
C532 C531 1.363 . S
C532 C538 1.428 . S
H533 C529 0.930 . S
H534 C531 0.929 . S
S535 N536 1.613 . S
S535 N537 1.610 . S
N536 S535 1.613 . S
N536 C539 1.350 . S
N537 S535 1.610 . S
N537 C538 1.351 . S
C538 C532 1.428 . S
C538 N537 1.351 . S
C538 C539 1.434 . S
C539 C530 1.429 . S
C539 N536 1.350 . S
C539 C538 1.434 . S
C277 C7 2.263 . S
C279 C145 2.237 . S
C288 C30 1.366 . S
C290 N163 1.366 . S
C301 C191 2.066 . S
C299 N58 2.035 . S
C312 N209 1.281 . S
C310 N81 1.204 . S
C323 C237 2.148 . S
C321 C99 2.185 . S
C334 N255 1.335 . S
C332 N127 1.269 . S
C343 N25 2.060 . S
C345 C200 2.095 . S
C354 C62 1.385 . S
C356 N219 1.270 . S
C367 C246 2.202 . S
C365 C85 2.197 . S
C378 N265 1.228 . S
C376 N94 1.291 . S
C387 C131 2.197 . S
C389 C154 2.181 . S
C400 N173 1.169 . S
C398 N2 1.228 . S
C411 C223 2.057 . S
C409 C16 2.095 . S
C420 C39 1.178 . S
C422 N242 1.175 . S
C433 C269 1.908 . S
C431 N48 1.917 . S
C442 N71 1.078 . S
C444 N150 1.085 . S
C453 C108 2.041 . S
C455 C177 2.003 . S
C464 N117 1.097 . S
C466 N196 1.113 . S
C475 N35 1.907 . S
C477 C260 1.944 . S
C488 N140 1.129 . S
C486 C53 1.198 . S
C497 C76 2.125 . S
C499 C168 2.111 . S
C508 N104 1.080 . S
C510 N186 1.060 . S
C519 C122 2.061 . S
C521 C214 2.047 . S
C530 N12 1.054 . S
C532 N232 1.019 . S
