# Generated by pormake.
# Topology pyr, (3,6)-cn, num edge types: 1
# Building blocks:
#     Node 0, Type 0, BuildingBlock: OLANEW_clean_sbu_2, # of connection points: 3
#     Node 1, Type 0, BuildingBlock: OLANEW_clean_sbu_2, # of connection points: 3
#     Node 2, Type 0, BuildingBlock: OLANEW_clean_sbu_2, # of connection points: 3
#     Node 3, Type 0, BuildingBlock: OLANEW_clean_sbu_2, # of connection points: 3
#     Node 4, Type 0, BuildingBlock: OLANEW_clean_sbu_2, # of connection points: 3
#     Node 5, Type 0, BuildingBlock: OLANEW_clean_sbu_2, # of connection points: 3
#     Node 6, Type 0, BuildingBlock: OLANEW_clean_sbu_2, # of connection points: 3
#     Node 7, Type 0, BuildingBlock: OLANEW_clean_sbu_2, # of connection points: 3
#     Node 8, Type 1, BuildingBlock: BETDIP_clean_sbu_0, # of connection points: 6
#     Node 9, Type 1, BuildingBlock: BETDIP_clean_sbu_0, # of connection points: 6
#     Node 10, Type 1, BuildingBlock: BETDIP_clean_sbu_0, # of connection points: 6
#     Node 11, Type 1, BuildingBlock: BETDIP_clean_sbu_0, # of connection points: 6
#     Edge 12, Type (0, 1), BuildingBlock: UVAHIK_clean_linker_0, # of connection points: 2
#     Edge 13, Type (0, 1), BuildingBlock: UVAHIK_clean_linker_0, # of connection points: 2
#     Edge 14, Type (0, 1), BuildingBlock: UVAHIK_clean_linker_0, # of connection points: 2
#     Edge 15, Type (0, 1), BuildingBlock: UVAHIK_clean_linker_0, # of connection points: 2
#     Edge 16, Type (0, 1), BuildingBlock: UVAHIK_clean_linker_0, # of connection points: 2
#     Edge 17, Type (0, 1), BuildingBlock: UVAHIK_clean_linker_0, # of connection points: 2
#     Edge 18, Type (0, 1), BuildingBlock: UVAHIK_clean_linker_0, # of connection points: 2
#     Edge 19, Type (0, 1), BuildingBlock: UVAHIK_clean_linker_0, # of connection points: 2
#     Edge 20, Type (0, 1), BuildingBlock: UVAHIK_clean_linker_0, # of connection points: 2
#     Edge 21, Type (0, 1), BuildingBlock: UVAHIK_clean_linker_0, # of connection points: 2
#     Edge 22, Type (0, 1), BuildingBlock: UVAHIK_clean_linker_0, # of connection points: 2
#     Edge 23, Type (0, 1), BuildingBlock: UVAHIK_clean_linker_0, # of connection points: 2
#     Edge 24, Type (0, 1), BuildingBlock: UVAHIK_clean_linker_0, # of connection points: 2
#     Edge 25, Type (0, 1), BuildingBlock: UVAHIK_clean_linker_0, # of connection points: 2
#     Edge 26, Type (0, 1), BuildingBlock: UVAHIK_clean_linker_0, # of connection points: 2
#     Edge 27, Type (0, 1), BuildingBlock: UVAHIK_clean_linker_0, # of connection points: 2
#     Edge 28, Type (0, 1), BuildingBlock: UVAHIK_clean_linker_0, # of connection points: 2
#     Edge 29, Type (0, 1), BuildingBlock: UVAHIK_clean_linker_0, # of connection points: 2
#     Edge 30, Type (0, 1), BuildingBlock: UVAHIK_clean_linker_0, # of connection points: 2
#     Edge 31, Type (0, 1), BuildingBlock: UVAHIK_clean_linker_0, # of connection points: 2
#     Edge 32, Type (0, 1), BuildingBlock: UVAHIK_clean_linker_0, # of connection points: 2
#     Edge 33, Type (0, 1), BuildingBlock: UVAHIK_clean_linker_0, # of connection points: 2
#     Edge 34, Type (0, 1), BuildingBlock: UVAHIK_clean_linker_0, # of connection points: 2
#     Edge 35, Type (0, 1), BuildingBlock: UVAHIK_clean_linker_0, # of connection points: 2
# Relax obj value: 0.132
# Max RMSD: 0.225
# Mean RMSD: 0.143
data_MOF--net-pyr--node1-OLANEW_clean_sbu_2--node2-BETDIP_clean_sbu_0--edge1-UVAHIK_clean_linker_0
_symmetry_space_group_name_H-M    P1
_symmetry_Int_Tables_number       1
_symmetry_cell_setting            triclinic
loop_
_symmetry_equiv_pos_as_xyz
'x, y, z'
_cell_length_a     47.923187
_cell_length_b     54.976418
_cell_length_c     53.28662
_cell_angle_alpha  91.665623
_cell_angle_beta   92.795013
_cell_angle_gamma 106.49812
loop_
_atom_site_label
_atom_site_type_symbol
_atom_site_fract_x
_atom_site_fract_y
_atom_site_fract_z
_atom_type_partial_charge
O0 O 0.39091 0.27434 0.16844 0.0
Cd1 Cd 0.37948 0.31423 0.17753 0.0
O2 O 0.35687 0.25379 0.19229 0.0
Cd3 Cd 0.33252 0.22263 0.21433 0.0
O4 O 0.30499 0.19974 0.24154 0.0
C5 C 0.31626 0.1959 0.2626 0.0
O6 O 0.34458 0.20506 0.26717 0.0
C7 C 0.37769 0.25381 0.17835 0.0
C8 C 0.32778 0.31941 0.15502 0.0
O9 O 0.35167 0.326 0.14378 0.0
O10 O 0.3282 0.30965 0.17655 0.0
O11 O 0.19452 0.75788 0.79113 0.0
Cd12 Cd 0.16172 0.73707 0.75536 0.0
O13 O 0.21606 0.78972 0.76819 0.0
Cd14 Cd 0.18201 0.78225 0.73791 0.0
O15 O 0.15329 0.79591 0.71241 0.0
C16 C 0.14013 0.81054 0.72226 0.0
O17 O 0.14335 0.81514 0.74673 0.0
C18 C 0.21502 0.77805 0.78853 0.0
C19 C 0.19374 0.71542 0.72369 0.0
O20 O 0.19193 0.73797 0.72072 0.0
O21 O 0.1796 0.70273 0.74116 0.0
O22 O 0.68288 0.40785 0.84795 0.0
Cd23 Cd 0.63445 0.39536 0.82545 0.0
O24 O 0.67215 0.37214 0.86754 0.0
Cd25 Cd 0.67418 0.34287 0.89453 0.0
O26 O 0.66153 0.30811 0.91608 0.0
C27 C 0.63566 0.30104 0.92336 0.0
O28 O 0.61818 0.31507 0.91826 0.0
C29 C 0.69011 0.39366 0.86401 0.0
C30 C 0.62666 0.42236 0.78297 0.0
O31 O 0.62567 0.43139 0.80525 0.0
O32 O 0.63218 0.40093 0.7807 0.0
O33 O 0.9207 0.74938 0.30947 0.0
Cd34 Cd 0.89491 0.71104 0.28309 0.0
O35 O 0.88496 0.73312 0.33335 0.0
Cd36 Cd 0.85855 0.72795 0.36626 0.0
O37 O 0.82629 0.70936 0.39252 0.0
C38 C 0.81208 0.72129 0.40508 0.0
O39 O 0.81735 0.74589 0.40281 0.0
C40 C 0.90748 0.75112 0.32931 0.0
C41 C 0.9217 0.68946 0.24629 0.0
O42 O 0.9099 0.70706 0.24101 0.0
O43 O 0.92232 0.68311 0.26924 0.0
O44 O 0.71668 0.76866 0.80517 0.0
Cd45 Cd 0.69185 0.74544 0.83997 0.0
O46 O 0.70516 0.80181 0.81961 0.0
Cd47 Cd 0.69868 0.8394 0.82528 0.0
O48 O 0.68189 0.86683 0.8457 0.0
C49 C 0.65595 0.85879 0.85258 0.0
O50 O 0.64076 0.83535 0.8461 0.0
C51 C 0.71769 0.79189 0.80331 0.0
C52 C 0.72626 0.71864 0.86364 0.0
O53 O 0.7076 0.70826 0.8456 0.0
O54 O 0.72843 0.74164 0.87063 0.0
O55 O 0.80059 0.24953 0.3901 0.0
Cd56 Cd 0.83121 0.26778 0.42772 0.0
O57 O 0.81786 0.28298 0.36783 0.0
Cd58 Cd 0.8312 0.30825 0.40136 0.0
O59 O 0.81786 0.33724 0.42273 0.0
C60 C 0.80657 0.35114 0.4093 0.0
O61 O 0.80552 0.34783 0.38471 0.0
C62 C 0.80297 0.25992 0.36901 0.0
C63 C 0.86212 0.23325 0.43998 0.0
O64 O 0.87168 0.25057 0.42438 0.0
O65 O 0.83852 0.23285 0.4505 0.0
O66 O 0.41801 0.75456 0.2309 0.0
Cd67 Cd 0.39145 0.71245 0.24579 0.0
O68 O 0.37803 0.75569 0.20919 0.0
Cd69 Cd 0.35252 0.71583 0.2105 0.0
O70 O 0.32179 0.68374 0.18919 0.0
C71 C 0.29864 0.66984 0.19784 0.0
O72 O 0.29314 0.67376 0.22129 0.0
C73 C 0.40418 0.76654 0.21731 0.0
C74 C 0.41383 0.69207 0.28751 0.0
O75 O 0.41746 0.68531 0.26495 0.0
O76 O 0.40075 0.70923 0.29047 0.0
O77 O 0.1544 0.37006 0.75893 0.0
Cd78 Cd 0.16697 0.3492 0.72139 0.0
O79 O 0.13263 0.33394 0.77586 0.0
Cd80 Cd 0.13595 0.30789 0.74476 0.0
O81 O 0.12583 0.27221 0.72174 0.0
C82 C 0.12356 0.2713 0.69782 0.0
O83 O 0.12833 0.29261 0.68601 0.0
C84 C 0.14109 0.35813 0.777 0.0
C85 C 0.21166 0.38015 0.69456 0.0
O86 O 0.18485 0.37873 0.68923 0.0
O87 O 0.21739 0.36729 0.7128 0.0
Tb88 Tb 0.97585 0.98866 0.53431 0.0
Tb89 Tb 0.03836 0.01435 0.52649 0.0
C90 C 0.92643 0.95801 0.53921 0.0
C91 C 0.91056 0.94436 0.5601 0.0
C92 C 0.92037 0.92619 0.57316 0.0
C93 C 0.9052 0.91409 0.59325 0.0
C94 C 0.88009 0.92006 0.60077 0.0
C95 C 0.87024 0.93807 0.58755 0.0
C96 C 0.88523 0.94998 0.56736 0.0
C97 C 0.9996 0.02975 0.5637 0.0
C98 C 0.02563 0.9715 0.5644 0.0
C99 C 0.08759 0.04564 0.52226 0.0
C100 C 0.10358 0.05876 0.50144 0.0
C101 C 0.1289 0.07886 0.50666 0.0
C102 C 0.1452 0.09067 0.48706 0.0
C103 C 0.13647 0.08249 0.46187 0.0
C104 C 0.11065 0.0626 0.45675 0.0
C105 C 0.09431 0.05087 0.47638 0.0
C106 C 0.01498 0.97347 0.49668 0.0
C107 C 0.98823 0.03263 0.49829 0.0
O108 O 0.94872 0.95109 0.53155 0.0
O109 O 0.93167 0.98268 0.54064 0.0
O110 O 0.01158 0.01325 0.55712 0.0
O111 O 0.97249 0.02225 0.55589 0.0
O112 O 0.99844 0.96488 0.55469 0.0
O113 O 0.04413 0.99348 0.55944 0.0
O114 O 0.06449 0.05226 0.52804 0.0
O115 O 0.08294 0.02103 0.52168 0.0
O116 O 0.0026 0.98974 0.50336 0.0
O117 O 0.04212 0.98147 0.50431 0.0
O118 O 0.01544 0.03883 0.50789 0.0
O119 O 0.96989 0.01021 0.50198 0.0
H120 H 0.93983 0.92143 0.56803 0.0
H121 H 0.9134 0.9004 0.6032 0.0
H122 H 0.85074 0.9428 0.59266 0.0
H123 H 0.8771 0.96377 0.5575 0.0
H124 H 0.13625 0.08525 0.52592 0.0
H125 H 0.16466 0.10621 0.49166 0.0
H126 H 0.10344 0.05565 0.43762 0.0
H127 H 0.07474 0.03534 0.47205 0.0
Tb128 Tb 0.55149 0.04489 0.07447 0.0
Tb129 Tb 0.48738 0.01611 0.05349 0.0
C130 C 0.59945 0.078 0.08234 0.0
C131 C 0.61705 0.09164 0.10458 0.0
C132 C 0.62701 0.11823 0.10524 0.0
C133 C 0.64301 0.13168 0.1264 0.0
C134 C 0.64956 0.11877 0.14729 0.0
C135 C 0.63976 0.09206 0.14644 0.0
C136 C 0.62355 0.07863 0.12536 0.0
C137 C 0.52718 0.00466 0.10101 0.0
C138 C 0.49609 0.05673 0.09756 0.0
C139 C 0.43947 0.98502 0.03917 0.0
C140 C 0.42848 0.96073 0.02472 0.0
C141 C 0.39937 0.94654 0.02634 0.0
C142 C 0.38701 0.92562 0.00981 0.0
C143 C 0.40363 0.91856 0.99137 0.0
C144 C 0.43336 0.93196 0.99088 0.0
C145 C 0.44563 0.95296 0.00734 0.0
C146 C 0.51202 0.06138 0.03641 0.0
C147 C 0.54193 1.00247 0.03105 0.0
O148 O 0.57486 0.08344 0.0773 0.0
O149 O 0.59684 0.0536 0.07956 0.0
O150 O 0.51742 0.01318 0.08212 0.0
O151 O 0.5529 0.02009 0.10661 0.0
O152 O 0.52427 0.06488 0.09336 0.0
O153 O 0.47835 0.03558 0.08676 0.0
O154 O 0.45248 0.9847 0.06136 0.0
O155 O 0.45299 0.00438 0.02629 0.0
O156 O 0.52431 0.04459 0.04155 0.0
O157 O 0.48434 0.05248 0.03943 0.0
O158 O 0.51353 0.99519 0.03445 0.0
O159 O 0.56004 0.02308 0.0425 0.0
H160 H 0.6221 0.12863 0.08946 0.0
H161 H 0.64978 0.15223 0.12654 0.0
H162 H 0.64475 0.08147 0.16202 0.0
H163 H 0.61605 0.0581 0.12541 0.0
H164 H 0.38578 0.95238 0.03957 0.0
H165 H 0.36399 0.91597 0.01055 0.0
H166 H 0.44688 0.92681 0.97716 0.0
H167 H 0.46808 0.96381 0.0057 0.0
Tb168 Tb 0.50079 0.57701 0.55215 0.0
Tb169 Tb 0.50739 0.52934 0.52782 0.0
C170 C 0.48279 0.6145 0.56315 0.0
C171 C 0.45911 0.62002 0.57666 0.0
C172 C 0.43148 0.60229 0.57682 0.0
C173 C 0.40893 0.60854 0.58876 0.0
C174 C 0.41361 0.6327 0.60055 0.0
C175 C 0.44147 0.65021 0.60068 0.0
C176 C 0.464 0.64389 0.58886 0.0
C177 C 0.52906 0.55248 0.58073 0.0
C178 C 0.45015 0.52435 0.55543 0.0
C179 C 0.52476 0.49228 0.51381 0.0
C180 C 0.55226 0.48752 0.50708 0.0
C181 C 0.57868 0.49868 0.52109 0.0
C182 C 0.60413 0.49277 0.51488 0.0
C183 C 0.60363 0.47584 0.49444 0.0
C184 C 0.57725 0.46516 0.48021 0.0
C185 C 0.55183 0.4709 0.48653 0.0
C186 C 0.48022 0.55521 0.49934 0.0
C187 C 0.55887 0.58098 0.52731 0.0
O188 O 0.47509 0.60063 0.54219 0.0
O189 O 0.50278 0.60807 0.57681 0.0
O190 O 0.50732 0.54268 0.56573 0.0
O191 O 0.53415 0.57696 0.58159 0.0
O192 O 0.4586 0.54948 0.55854 0.0
O193 O 0.46682 0.51182 0.54508 0.0
O194 O 0.52279 0.4986 0.53737 0.0
O195 O 0.51387 0.50568 0.49833 0.0
O196 O 0.50203 0.5641 0.51442 0.0
O197 O 0.4736 0.53063 0.49902 0.0
O198 O 0.55152 0.55584 0.52714 0.0
O199 O 0.54018 0.59357 0.53315 0.0
H200 H 0.42718 0.58382 0.5673 0.0
H201 H 0.38765 0.59473 0.58815 0.0
H202 H 0.44586 0.66884 0.60992 0.0
H203 H 0.4852 0.6578 0.58896 0.0
H204 H 0.57962 0.51174 0.53693 0.0
H205 H 0.62421 0.50147 0.52602 0.0
H206 H 0.57609 0.45184 0.46455 0.0
H207 H 0.53166 0.46207 0.47553 0.0
Tb208 Tb 0.01605 0.52814 0.99798 0.0
Tb209 Tb 0.01439 0.48649 0.03364 0.0
C210 C 0.00348 0.55916 0.96893 0.0
C211 C 0.98127 0.57274 0.96595 0.0
C212 C 0.95256 0.56199 0.97274 0.0
C213 C 0.9312 0.57427 0.96748 0.0
C214 C 0.93826 0.5975 0.95542 0.0
C215 C 0.96734 0.60861 0.94966 0.0
C216 C 0.9886 0.59629 0.95481 0.0
C217 C 0.06537 0.53278 0.02477 0.0
C218 C 0.9909 0.53081 0.052 0.0
C219 C 0.02574 0.45429 0.06193 0.0
C220 C 0.04749 0.44009 0.06417 0.0
C221 C 0.07653 0.45098 0.05831 0.0
C222 C 0.09734 0.43791 0.06259 0.0
C223 C 0.08946 0.41366 0.07266 0.0
C224 C 0.06007 0.40251 0.07757 0.0
C225 C 0.03935 0.41565 0.07344 0.0
C226 C 0.96472 0.4829 0.00822 0.0
C227 C 0.0427 0.48589 0.98038 0.0
O228 O 0.99436 0.53448 0.96495 0.0
O229 O 0.02202 0.56604 0.98848 0.0
O230 O 0.03992 0.52473 0.03187 0.0
O231 O 0.06394 0.54054 1.00213 0.0
O232 O 0.99019 0.53698 0.02814 0.0
O233 O 0.00235 0.51273 0.05925 0.0
O234 O 0.03545 0.47886 0.06647 0.0
O235 O 0.00703 0.44822 0.04244 0.0
O236 O 0.98982 0.48989 0.99999 0.0
O237 O 0.96675 0.47596 0.0311 0.0
O238 O 0.04136 0.47836 1.00384 0.0
O239 O 0.03135 0.50387 0.97295 0.0
H240 H 0.94649 0.54381 0.98147 0.0
H241 H 0.90899 0.56512 0.97203 0.0
H242 H 0.97364 0.62672 0.94084 0.0
H243 H 0.0107 0.60492 0.9496 0.0
H244 H 0.08327 0.46982 0.05101 0.0
H245 H 0.11977 0.44719 0.05879 0.0
H246 H 0.0531 0.38369 0.08486 0.0
H247 H 0.017 0.40688 0.07791 0.0
C248 C 0.31013 0.17834 0.30551 0.0
C249 C 0.29761 0.18263 0.28227 0.0
C250 C 0.29253 0.16695 0.32455 0.0
C251 C 0.21775 0.12818 0.33637 0.0
H252 H 0.23942 0.15534 0.4048 0.0
C253 C 0.14166 0.0988 0.41816 0.0
C254 C 0.15465 0.09421 0.4411 0.0
C255 C 0.15885 0.10946 0.39858 0.0
C256 C 0.23322 0.14738 0.38583 0.0
H257 H 0.25671 0.17793 0.26067 0.0
H258 H 0.22601 0.15834 0.29398 0.0
H259 H 0.26989 0.17372 0.37094 0.0
H260 H 0.19597 0.09685 0.46119 0.0
H261 H 0.22588 0.11562 0.42717 0.0
H262 H 0.18094 0.10193 0.35134 0.0
C263 C 0.24946 0.16351 0.29741 0.0
C264 C 0.25072 0.15788 0.36641 0.0
C265 C 0.26708 0.17486 0.27834 0.0
C266 C 0.18524 0.10057 0.44398 0.0
C267 C 0.2024 0.1113 0.42445 0.0
C268 C 0.2002 0.11772 0.3558 0.0
C269 C 0.26197 0.15961 0.32082 0.0
C270 C 0.24326 0.14836 0.34144 0.0
C271 C 0.18942 0.11584 0.40152 0.0
C272 C 0.20779 0.12716 0.38077 0.0
H273 H 0.33358 0.18397 0.30913 0.0
H274 H 0.30291 0.16383 0.34219 0.0
H275 H 0.21157 0.12017 0.31741 0.0
H276 H 0.11819 0.09446 0.41543 0.0
H277 H 0.14821 0.11304 0.38125 0.0
C278 C 0.23357 0.77976 0.8337 0.0
C279 C 0.23731 0.7886 0.80924 0.0
C280 C 0.25378 0.79125 0.85347 0.0
C281 C 0.30896 0.85214 0.87067 0.0
H282 H 0.33241 0.81546 0.92507 0.0
C283 C 0.39604 0.90396 0.94595 0.0
C284 C 0.38916 0.89936 0.97105 0.0
C285 C 0.3798 0.88805 0.92632 0.0
C286 C 0.32592 0.82592 0.91004 0.0
H287 H 0.266 0.81549 0.78612 0.0
H288 H 0.30133 0.83506 0.82032 0.0
H289 H 0.29944 0.792 0.89034 0.0
H290 H 0.36094 0.87343 0.99524 0.0
H291 H 0.33218 0.8458 0.9608 0.0
H292 H 0.33509 0.88599 0.89024 0.0
C293 C 0.28244 0.81976 0.82445 0.0
C294 C 0.30702 0.81252 0.8902 0.0
C295 C 0.26222 0.80844 0.80479 0.0
C296 C 0.36656 0.87768 0.97609 0.0
C297 C 0.35026 0.86172 0.9564 0.0
C298 C 0.32783 0.86545 0.89035 0.0
C299 C 0.27817 0.81169 0.84912 0.0
C300 C 0.2984 0.82552 0.87025 0.0
C301 C 0.3562 0.86719 0.93127 0.0
C302 C 0.33662 0.85254 0.91023 0.0
H303 H 0.21461 0.76448 0.83773 0.0
H304 H 0.24974 0.78468 0.87229 0.0
H305 H 0.30221 0.86283 0.85597 0.0
H306 H 0.41306 0.92059 0.94129 0.0
H307 H 0.3852 0.89253 0.90717 0.0
C308 C 0.61082 0.42231 0.73739 0.0
C309 C 0.62025 0.43571 0.76058 0.0
C310 C 0.60261 0.43446 0.71674 0.0
C311 C 0.61255 0.4958 0.68872 0.0
H312 H 0.53467 0.46726 0.65785 0.0
C313 C 0.5621 0.55177 0.61831 0.0
C314 C 0.5415 0.53845 0.59946 0.0
C315 C 0.57289 0.53878 0.63689 0.0
C316 C 0.55672 0.47531 0.66577 0.0
H317 H 0.62936 0.47255 0.78005 0.0
H318 H 0.61591 0.49395 0.74367 0.0
H319 H 0.55213 0.44541 0.69161 0.0
H320 H 0.5161 0.50104 0.58523 0.0
H321 H 0.53618 0.47822 0.6165 0.0
H322 H 0.61776 0.52527 0.66257 0.0
C323 C 0.61455 0.47398 0.74164 0.0
C324 C 0.56662 0.46279 0.68529 0.0
C325 C 0.62215 0.46171 0.76245 0.0
C326 C 0.53226 0.51183 0.5993 0.0
C327 C 0.54349 0.49877 0.61757 0.0
C328 C 0.60292 0.50807 0.66884 0.0
C329 C 0.6043 0.46039 0.71869 0.0
C330 C 0.59448 0.47306 0.69714 0.0
C331 C 0.56375 0.51204 0.63687 0.0
C332 C 0.57468 0.49822 0.65724 0.0
H333 H 0.60899 0.40225 0.73537 0.0
H334 H 0.59489 0.42359 0.69922 0.0
H335 H 0.63426 0.50398 0.69741 0.0
H336 H 0.56948 0.57233 0.61905 0.0
H337 H 0.58791 0.54986 0.65159 0.0
C338 C 0.92943 0.68134 0.20083 0.0
C339 C 0.93219 0.67552 0.2262 0.0
C340 C 0.9365 0.66651 0.18169 0.0
C341 C 0.97625 0.61864 0.16954 0.0
H342 H 0.92399 0.60104 0.10971 0.0
C343 C 0.98362 0.54106 0.09701 0.0
C344 C 0.98105 0.54603 0.07138 0.0
C345 C 0.97717 0.55686 0.11553 0.0
C346 C 0.93899 0.60597 0.12616 0.0
H347 H 0.94533 0.64987 0.25129 0.0
H348 H 0.95749 0.62401 0.21799 0.0
H349 H 0.91515 0.62938 0.14251 0.0
H350 H 0.96882 0.57126 0.0452 0.0
H351 H 0.95765 0.59885 0.07753 0.0
H352 H 1.00001 0.59516 0.15327 0.0
C353 C 0.95011 0.64017 0.21284 0.0
C354 C 0.93396 0.62229 0.14498 0.0
C355 C 0.94303 0.65498 0.23198 0.0
C356 C 0.971 0.56679 0.06473 0.0
C357 C 0.96451 0.5826 0.08329 0.0
C358 C 0.98126 0.60232 0.15075 0.0
C359 C 0.94654 0.6455 0.18741 0.0
C360 C 0.95246 0.62877 0.16698 0.0
C361 C 0.96795 0.57808 0.10896 0.0
C362 C 0.96262 0.59565 0.12885 0.0
H363 H 0.9212 0.69704 0.19568 0.0
H364 H 0.93394 0.67146 0.16236 0.0
H365 H 0.99124 0.62351 0.18601 0.0
H366 H 0.9912 0.52521 0.10288 0.0
H367 H 0.97954 0.5525 0.13507 0.0
C368 C 0.41746 0.23403 0.17079 0.0
C369 C 0.38791 0.23104 0.17465 0.0
C370 C 0.4276 0.2129 0.16682 0.0
C371 C 0.4041 0.1469 0.14294 0.0
H372 H 0.47846 0.14488 0.17358 0.0
C373 C 0.45351 0.06575 0.11768 0.0
C374 C 0.4833 0.07333 0.11292 0.0
C375 C 0.44069 0.08269 0.1293 0.0
C376 C 0.45773 0.14519 0.16475 0.0
H377 H 0.34562 0.20353 0.1766 0.0
H378 H 0.3634 0.16641 0.16969 0.0
H379 H 0.45791 0.17894 0.18596 0.0
H380 H 0.52317 0.10446 0.11766 0.0
H381 H 0.50081 0.13397 0.13747 0.0
H382 H 0.40434 0.11375 0.12103 0.0
C383 C 0.37874 0.18519 0.17005 0.0
C384 C 0.44594 0.16469 0.17189 0.0
C385 C 0.36862 0.20641 0.17431 0.0
C386 C 0.50019 0.09789 0.12106 0.0
C387 C 0.48735 0.11484 0.13257 0.0
C388 C 0.41597 0.12747 0.13567 0.0
C389 C 0.40837 0.18824 0.16629 0.0
C390 C 0.41927 0.16603 0.16071 0.0
C391 C 0.45731 0.10765 0.13637 0.0
C392 C 0.44323 0.12665 0.14613 0.0
H393 H 0.43284 0.25278 0.1709 0.0
H394 H 0.45045 0.21591 0.16356 0.0
H395 H 0.38365 0.14756 0.1338 0.0
H396 H 0.43985 0.04693 0.11183 0.0
H397 H 0.41761 0.07636 0.13234 0.0
C398 C 0.11061 0.84124 0.71752 0.0
C399 C 0.12379 0.82415 0.70638 0.0
C400 C 0.09741 0.85586 0.70266 0.0
C401 C 0.06806 0.86144 0.63825 0.0
H402 H 0.08598 0.93281 0.65847 0.0
C403 C 0.01624 0.93054 0.58648 0.0
C404 C 0.03513 0.95446 0.58175 0.0
C405 C 0.02556 0.91411 0.60222 0.0
C406 C 0.08086 0.91295 0.65251 0.0
H407 H 0.13255 0.80838 0.67082 0.0
H408 H 0.10962 0.83404 0.64486 0.0
H409 H 0.10451 0.90449 0.68455 0.0
H410 H 0.07859 0.97992 0.59 0.0
H411 H 0.09483 0.95125 0.61735 0.0
H412 H 0.04497 0.87009 0.60587 0.0
C413 C 0.10934 0.836 0.66512 0.0
C414 C 0.09119 0.89666 0.66761 0.0
C415 C 0.12259 0.82137 0.68 0.0
C416 C 0.06344 0.96167 0.59329 0.0
C417 C 0.07272 0.94529 0.60908 0.0
C418 C 0.05763 0.87775 0.62317 0.0
C419 C 0.09705 0.85373 0.6763 0.0
C420 C 0.08506 0.87073 0.66059 0.0
C421 C 0.05393 0.92128 0.61365 0.0
C422 C 0.0641 0.90373 0.63006 0.0
H423 H 0.11096 0.84374 0.73779 0.0
H424 H 0.08769 0.86903 0.71184 0.0
H425 H 0.06277 0.84153 0.63243 0.0
H426 H 0.99429 0.92436 0.57789 0.0
H427 H 0.01047 0.89586 0.60559 0.0
C428 C 0.73315 0.38615 0.88832 0.0
C429 C 0.7184 0.40297 0.8788 0.0
C430 C 0.76016 0.39547 0.90183 0.0
C431 C 0.8049 0.45092 0.93991 0.0
H432 H 0.86985 0.42506 0.92487 0.0
C433 C 0.91042 0.47055 0.0043 0.0
C434 C 0.93704 0.47687 0.99267 0.0
C435 C 0.884 0.4629 0.98988 0.0
C436 C 0.85195 0.43256 0.92916 0.0
H437 H 0.72044 0.4427 0.87594 0.0
H438 H 0.76721 0.45885 0.89975 0.0
H439 H 0.82295 0.40816 0.90099 0.0
H440 H 0.95702 0.48068 0.95684 0.0
H441 H 0.91068 0.46692 0.93152 0.0
H442 H 0.83376 0.47513 0.96824 0.0
C443 C 0.75793 0.4385 0.89683 0.0
C444 C 0.82505 0.42271 0.91568 0.0
C445 C 0.73121 0.42923 0.88307 0.0
C446 C 0.93678 0.47591 0.96628 0.0
C447 C 0.91031 0.46789 0.95183 0.0
C448 C 0.83166 0.46051 0.95361 0.0
C449 C 0.77276 0.42175 0.90633 0.0
C450 C 0.80124 0.43183 0.92088 0.0
C451 C 0.88364 0.46109 0.9635 0.0
C452 C 0.85549 0.45146 0.94838 0.0
H453 H 0.72417 0.36586 0.88492 0.0
H454 H 0.77107 0.3821 0.90898 0.0
H455 H 0.78692 0.45823 0.94444 0.0
H456 H 0.91 0.47117 0.02462 0.0
H457 H 0.86383 0.45766 0.99942 0.0
C458 C 0.78217 0.68079 0.42239 0.0
C459 C 0.7887 0.7073 0.42091 0.0
C460 C 0.75906 0.66739 0.43616 0.0
C461 C 0.68998 0.67245 0.45998 0.0
H462 H 0.6944 0.6154 0.49955 0.0
C463 C 0.59598 0.622 0.51975 0.0
C464 C 0.58764 0.59531 0.51875 0.0
C465 C 0.62191 0.63572 0.50983 0.0
C466 C 0.69276 0.63116 0.48841 0.0
H467 H 0.77654 0.74059 0.43341 0.0
H468 H 0.73641 0.71725 0.4576 0.0
H469 H 0.73726 0.6395 0.47868 0.0
H470 H 0.60062 0.56211 0.50728 0.0
H471 H 0.64583 0.58613 0.48966 0.0
H472 H 0.6455 0.66404 0.46938 0.0
C473 C 0.7489 0.70677 0.44778 0.0
C474 C 0.71731 0.64497 0.47646 0.0
C475 C 0.77202 0.72017 0.43402 0.0
C476 C 0.60637 0.58266 0.50834 0.0
C477 C 0.63236 0.59643 0.49833 0.0
C478 C 0.66549 0.65867 0.47189 0.0
C479 C 0.74192 0.68018 0.44877 0.0
C480 C 0.71619 0.66578 0.46209 0.0
C481 C 0.64017 0.62313 0.49857 0.0
C482 C 0.66655 0.63785 0.48625 0.0
H483 H 0.79458 0.67026 0.41252 0.0
H484 H 0.75411 0.64691 0.43631 0.0
H485 H 0.68815 0.68802 0.44865 0.0
H486 H 0.58225 0.6324 0.52785 0.0
H487 H 0.62755 0.65626 0.5108 0.0
C488 C 0.30099 0.336 0.12102 0.0
C489 C 0.30096 0.32437 0.14419 0.0
C490 C 0.27652 0.34285 0.11196 0.0
C491 C 0.21299 0.35957 0.13485 0.0
H492 H 0.18622 0.35279 0.06445 0.0
C493 C 0.11071 0.3873 0.10147 0.0
C494 C 0.11197 0.4006 0.07921 0.0
C495 C 0.13246 0.37603 0.10839 0.0
C496 C 0.19361 0.35503 0.08413 0.0
H497 H 0.27475 0.30991 0.17549 0.0
H498 H 0.23206 0.32174 0.15961 0.0
H499 H 0.22635 0.33614 0.07817 0.0
H500 H 0.13686 0.41182 0.04641 0.0
H501 H 0.17529 0.39273 0.05884 0.0
H502 H 0.18079 0.37884 0.14086 0.0
C503 C 0.25115 0.32587 0.14862 0.0
C504 C 0.21655 0.34545 0.09199 0.0
C505 C 0.27557 0.31896 0.15765 0.0
C506 C 0.13536 0.40198 0.06383 0.0
C507 C 0.15722 0.39076 0.0708 0.0
C508 C 0.19018 0.36921 0.127 0.0
C509 C 0.25152 0.3383 0.1259 0.0
C510 C 0.22652 0.34764 0.11745 0.0
C511 C 0.15619 0.37787 0.09332 0.0
C512 C 0.18019 0.36711 0.10155 0.0
H513 H 0.32019 0.34043 0.11017 0.0
H514 H 0.27759 0.35256 0.09448 0.0
H515 H 0.22051 0.36203 0.15451 0.0
H516 H 0.09325 0.38608 0.11396 0.0
H517 H 0.13073 0.36594 0.12567 0.0
C518 C 0.59603 0.26965 0.94426 0.0
C519 C 0.62475 0.27696 0.93649 0.0
C520 C 0.58506 0.24662 0.95577 0.0
C521 C 0.6067 0.19593 0.98915 0.0
H522 H 0.52725 0.15665 0.96984 0.0
C523 C 0.55563 0.09297 0.0205 0.0
C524 C 0.52632 0.08651 0.02665 0.0
C525 C 0.56861 0.1164 0.01022 0.0
C526 C 0.54935 0.16749 0.97571 0.0
H527 H 0.6646 0.26583 0.93516 0.0
H528 H 0.64532 0.22544 0.95514 0.0
H529 H 0.54814 0.19686 0.9506 0.0
H530 H 0.4878 0.09959 0.02738 0.0
H531 H 0.51037 0.14047 0.00969 0.0
H532 H 0.6078 0.16639 0.01427 0.0
C533 C 0.63137 0.23769 0.95248 0.0
C534 C 0.56137 0.1906 0.96464 0.0
C535 C 0.64239 0.2608 0.94092 0.0
C536 C 0.51038 0.10401 0.02268 0.0
C537 C 0.5233 0.12739 0.0124 0.0
C538 C 0.59464 0.17275 1.00025 0.0
C539 C 0.60245 0.2302 0.95983 0.0
C540 C 0.59012 0.20524 0.97132 0.0
C541 C 0.5525 0.13381 0.00578 0.0
C542 C 0.56573 0.15831 0.99379 0.0
H543 H 0.58184 0.28165 0.94132 0.0
H544 H 0.56288 0.24174 0.96159 0.0
H545 H 0.6288 0.20681 0.99493 0.0
H546 H 0.56839 0.07975 0.02324 0.0
H547 H 0.59104 0.12058 0.00515 0.0
C548 C 0.94768 0.78668 0.35026 0.0
C549 C 0.91788 0.77354 0.34706 0.0
C550 C 0.95736 0.80801 0.36687 0.0
C551 C 0.93408 0.85931 0.397 0.0
H552 H 0.99889 0.86432 0.44519 0.0
C553 C 0.97247 0.94227 0.47275 0.0
C554 C 0.00246 0.95097 0.47946 0.0
C555 C 0.96117 0.9204 0.45697 0.0
C556 C 0.98106 0.86353 0.43162 0.0
H557 H 0.87475 0.77318 0.35788 0.0
H558 H 0.89162 0.81044 0.38677 0.0
H559 H 0.98174 0.82713 0.41657 0.0
H560 H 0.04419 0.94406 0.47446 0.0
H561 H 0.02495 0.90691 0.44637 0.0
H562 H 0.93385 0.896 0.41144 0.0
C563 C 0.90753 0.80402 0.37673 0.0
C564 C 0.97117 0.84208 0.41527 0.0
C565 C 0.89791 0.78247 0.36044 0.0
C566 C 0.02093 0.93771 0.46979 0.0
C567 C 0.00978 0.91617 0.45382 0.0
C568 C 0.94426 0.88099 0.41312 0.0
C569 C 0.93737 0.81697 0.38023 0.0
C570 C 0.94763 0.83974 0.39773 0.0
C571 C 0.97969 0.90696 0.44734 0.0
C572 C 0.96803 0.8835 0.43061 0.0
H573 H 0.96354 0.78034 0.34008 0.0
H574 H 0.98047 0.81774 0.369 0.0
H575 H 0.91601 0.85811 0.38354 0.0
H576 H 0.95774 0.95216 0.47992 0.0
H577 H 0.93786 0.91383 0.45269 0.0
C578 C 0.21568 0.68055 0.71222 0.0
C579 C 0.21294 0.70498 0.70835 0.0
C580 C 0.23576 0.67164 0.69924 0.0
C581 C 0.30448 0.69537 0.66833 0.0
H582 H 0.28756 0.62637 0.64063 0.0
C583 C 0.38553 0.66401 0.60824 0.0
C584 C 0.3894 0.63998 0.61209 0.0
C585 C 0.36306 0.67117 0.61926 0.0
C586 C 0.29272 0.64562 0.64852 0.0
H587 H 0.22839 0.73884 0.68717 0.0
H588 H 0.26324 0.72324 0.6645 0.0
H589 H 0.24947 0.64009 0.66075 0.0
H590 H 0.37266 0.60454 0.63046 0.0
H591 H 0.3335 0.61713 0.65 0.0
H592 H 0.34772 0.70094 0.6565 0.0
C593 C 0.25015 0.71111 0.6778 0.0
C594 C 0.27089 0.65347 0.65999 0.0
C595 C 0.23004 0.71998 0.69068 0.0
C596 C 0.37006 0.62311 0.62699 0.0
C597 C 0.34761 0.63032 0.63813 0.0
C598 C 0.32629 0.68752 0.65699 0.0
C599 C 0.25358 0.68702 0.68223 0.0
C600 C 0.27652 0.67848 0.66991 0.0
C601 C 0.34396 0.6545 0.63451 0.0
C602 C 0.32067 0.66259 0.64683 0.0
H603 H 0.20283 0.66852 0.7257 0.0
H604 H 0.23803 0.65305 0.70317 0.0
H605 H 0.30968 0.71462 0.67626 0.0
H606 H 0.39971 0.67725 0.59644 0.0
H607 H 0.36052 0.68972 0.61564 0.0
C608 C 0.74095 0.79306 0.76227 0.0
C609 C 0.73324 0.80631 0.78254 0.0
C610 C 0.75688 0.8061 0.74311 0.0
C611 C 0.77644 0.86704 0.71235 0.0
H612 H 0.84114 0.8445 0.68985 0.0
C613 C 0.85451 0.92196 0.64046 0.0
C614 C 0.86415 0.90761 0.62233 0.0
C615 C 0.83909 0.91023 0.66055 0.0
C616 C 0.82293 0.85087 0.69565 0.0
H617 H 0.73686 0.84387 0.79854 0.0
H618 H 0.76412 0.86665 0.76473 0.0
H619 H 0.81273 0.823 0.72359 0.0
H620 H 0.86495 0.86968 0.6109 0.0
H621 H 0.8376 0.84909 0.64566 0.0
H622 H 0.78625 0.89461 0.68412 0.0
C623 C 0.75748 0.84608 0.76367 0.0
C624 C 0.8067 0.83857 0.71505 0.0
C625 C 0.74165 0.83299 0.783 0.0
C626 C 0.85812 0.88128 0.62476 0.0
C627 C 0.8425 0.86951 0.64474 0.0
C628 C 0.79255 0.87925 0.69278 0.0
C629 C 0.7655 0.83275 0.74365 0.0
C630 C 0.78318 0.84642 0.72353 0.0
C631 C 0.83275 0.88383 0.6629 0.0
C632 C 0.81593 0.87123 0.68409 0.0
H633 H 0.7348 0.7725 0.76121 0.0
H634 H 0.76238 0.79528 0.72777 0.0
H635 H 0.75826 0.87336 0.71832 0.0
H636 H 0.85919 0.94235 0.63927 0.0
H637 H 0.83242 0.92194 0.67439 0.0
C638 C 0.76799 0.22124 0.34773 0.0
C639 C 0.78813 0.24527 0.34601 0.0
C640 C 0.75346 0.2076 0.32612 0.0
C641 C 0.7582 0.20064 0.258 0.0
H642 H 0.67459 0.1702 0.25759 0.0
C643 C 0.68932 0.15519 0.1677 0.0
C644 C 0.66615 0.1331 0.16999 0.0
C645 C 0.70452 0.16889 0.18906 0.0
C646 C 0.69799 0.17825 0.25748 0.0
H647 H 0.80907 0.27367 0.32017 0.0
H648 H 0.78377 0.24967 0.28237 0.0
H649 H 0.70073 0.19384 0.29511 0.0
H650 H 0.64081 0.10821 0.19671 0.0
H651 H 0.66799 0.1315 0.23385 0.0
H652 H 0.75564 0.18474 0.22055 0.0
C653 C 0.77931 0.24145 0.3005 0.0
C654 C 0.71293 0.19186 0.27896 0.0
C655 C 0.79366 0.25522 0.32215 0.0
C656 C 0.65875 0.12494 0.19419 0.0
C657 C 0.67409 0.13853 0.21554 0.0
C658 C 0.74331 0.18683 0.23656 0.0
C659 C 0.75893 0.21758 0.3023 0.0
C660 C 0.74317 0.20319 0.27944 0.0
C661 C 0.69706 0.16076 0.21326 0.0
C662 C 0.713 0.17546 0.23604 0.0
H663 H 0.76323 0.21301 0.36582 0.0
H664 H 0.73807 0.18912 0.32802 0.0
H665 H 0.78158 0.20895 0.25796 0.0
H666 H 0.69586 0.16186 0.14937 0.0
H667 H 0.72187 0.18607 0.18658 0.0
C668 C 0.42705 0.69103 0.33365 0.0
C669 C 0.42288 0.67937 0.30941 0.0
C670 C 0.43402 0.67837 0.35446 0.0
C671 C 0.45744 0.62074 0.37179 0.0
H672 H 0.43103 0.63459 0.43689 0.0
C673 C 0.45496 0.55704 0.45737 0.0
C674 C 0.47144 0.56974 0.47888 0.0
C675 C 0.44887 0.57072 0.43706 0.0
C676 C 0.43857 0.6306 0.4188 0.0
H677 H 0.42248 0.64515 0.28804 0.0
H678 H 0.43304 0.6226 0.32415 0.0
H679 H 0.42092 0.65759 0.40072 0.0
H680 H 0.49409 0.60676 0.49605 0.0
H681 H 0.48216 0.63068 0.46102 0.0
H682 H 0.47382 0.59282 0.39 0.0
C683 C 0.43219 0.6419 0.32728 0.0
C684 C 0.43305 0.64395 0.39801 0.0
C685 C 0.42592 0.6548 0.30644 0.0
C686 C 0.481 0.59644 0.47991 0.0
C687 C 0.47428 0.61013 0.45985 0.0
C688 C 0.4623 0.60699 0.39246 0.0
C689 C 0.43631 0.65341 0.35171 0.0
C690 C 0.44246 0.63931 0.3741 0.0
C691 C 0.45855 0.59739 0.43807 0.0
C692 C 0.453 0.61183 0.41616 0.0
H693 H 0.425 0.71002 0.33655 0.0
H694 H 0.43768 0.6883 0.37269 0.0
H695 H 0.46578 0.61687 0.35406 0.0
H696 H 0.44742 0.53649 0.45595 0.0
H697 H 0.43662 0.56046 0.4205 0.0
C698 C 0.13762 0.39839 0.79869 0.0
C699 C 0.13459 0.3722 0.79919 0.0
C700 C 0.12989 0.41123 0.81911 0.0
C701 C 0.11742 0.40794 0.88699 0.0
H702 H 0.06848 0.45165 0.87234 0.0
C703 C 0.06097 0.44974 0.96492 0.0
C704 C 0.05691 0.47379 0.96149 0.0
C705 C 0.0722 0.43772 0.94589 0.0
C706 C 0.08257 0.4399 0.87688 0.0
H707 H 0.12183 0.33919 0.82197 0.0
H708 H 0.10868 0.36168 0.85761 0.0
H709 H 0.08554 0.43069 0.83796 0.0
H710 H 0.06294 0.50462 0.93593 0.0
H711 H 0.08333 0.48426 0.90341 0.0
H712 H 0.11477 0.41737 0.92593 0.0
C713 C 0.11698 0.37225 0.8414 0.0
C714 C 0.09228 0.4278 0.85708 0.0
C715 C 0.12437 0.35934 0.82088 0.0
C716 C 0.06536 0.48592 0.93908 0.0
C717 C 0.07689 0.47411 0.92027 0.0
C718 C 0.10796 0.42028 0.90686 0.0
C719 C 0.1193 0.39827 0.84064 0.0
C720 C 0.10976 0.41163 0.86186 0.0
C721 C 0.07994 0.44961 0.92312 0.0
C722 C 0.09035 0.43645 0.90209 0.0
H723 H 0.14542 0.4089 0.78232 0.0
H724 H 0.13218 0.43135 0.81805 0.0
H725 H 0.13105 0.39573 0.89129 0.0
H726 H 0.05461 0.43985 0.98195 0.0
H727 H 0.07397 0.41879 0.94877 0.0
C728 C 0.66059 0.89893 0.87831 0.0
C729 C 0.64362 0.87477 0.8691 0.0
C730 C 0.64935 0.9132 0.89517 0.0
C731 C 0.59282 0.90566 0.94138 0.0
H732 H 0.60819 0.97851 0.93705 0.0
C733 C 0.53657 0.96388 1.00277 0.0
C734 C 0.55371 0.98767 0.01277 0.0
C735 C 0.54749 0.95026 0.98507 0.0
C736 C 0.60397 0.95821 0.93868 0.0
H737 H 0.60123 0.84699 0.86982 0.0
H738 H 0.5816 0.87195 0.8989 0.0
H739 H 0.62714 0.95479 0.906 0.0
H740 H 0.59603 0.01562 0.01218 0.0
H741 H 0.61515 0.99171 0.98158 0.0
H742 H 0.56971 0.90905 0.97405 0.0
C743 C 0.60376 0.87971 0.89348 0.0
C744 C 0.61482 0.94462 0.92087 0.0
C745 C 0.61497 0.86546 0.87666 0.0
C746 C 0.58217 0.99738 0.00485 0.0
C747 C 0.59307 0.98377 0.98714 0.0
C748 C 0.58197 0.91923 0.95916 0.0
C749 C 0.62091 0.90361 0.90318 0.0
C750 C 0.60934 0.91817 0.922 0.0
C751 C 0.57584 0.96009 0.97697 0.0
C752 C 0.5874 0.94567 0.95802 0.0
H753 H 0.68276 0.90664 0.87289 0.0
H754 H 0.66324 0.93145 0.90245 0.0
H755 H 0.58864 0.88537 0.94308 0.0
H756 H 0.51471 0.95568 0.00863 0.0
H757 H 0.53355 0.93216 0.97747 0.0
C758 C 0.89804 0.20998 0.42858 0.0
C759 C 0.87704 0.21351 0.4447 0.0
C760 C 0.91061 0.19015 0.43192 0.0
C761 C 0.89871 0.12865 0.46327 0.0
H762 H 0.97958 0.13738 0.44963 0.0
C763 C 0.94929 0.04599 0.47395 0.0
C764 C 0.97749 0.05213 0.48562 0.0
C765 C 0.93767 0.06513 0.46546 0.0
C766 C 0.957 0.13463 0.45368 0.0
H767 H 0.8534 0.1995 0.47746 0.0
H768 H 0.87607 0.16558 0.48392 0.0
H769 H 0.95864 0.17239 0.44375 0.0
H770 H 0.01602 0.08317 0.49662 0.0
H771 H 0.99561 0.11638 0.48256 0.0
H772 H 0.89745 0.09141 0.47451 0.0
C773 C 0.88222 0.17756 0.46815 0.0
C774 C 0.94484 0.15465 0.44999 0.0
C775 C 0.86939 0.19718 0.46461 0.0
C776 C 0.99427 0.07771 0.48758 0.0
C777 C 0.98255 0.09684 0.47939 0.0
C778 C 0.91094 0.10875 0.46723 0.0
C779 C 0.90272 0.17354 0.45166 0.0
C780 C 0.91558 0.15202 0.45494 0.0
C781 C 0.95384 0.09088 0.46874 0.0
C782 C 0.94033 0.1115 0.46269 0.0
H783 H 0.90424 0.22212 0.41293 0.0
H784 H 0.92599 0.18751 0.41862 0.0
H785 H 0.87595 0.12567 0.46682 0.0
H786 H 0.93586 0.02645 0.47201 0.0
H787 H 0.91574 0.05975 0.45681 0.0
C788 C 0.25121 0.63562 0.19026 0.0
C789 C 0.27689 0.6511 0.18094 0.0
C790 C 0.22964 0.61946 0.17396 0.0
C791 C 0.21511 0.59008 0.10888 0.0
H792 H 0.13537 0.5883 0.12059 0.0
C793 C 0.1186 0.55452 0.03391 0.0
C794 C 0.09143 0.54117 0.04236 0.0
C795 C 0.14235 0.56497 0.05113 0.0
C796 C 0.15746 0.58824 0.11722 0.0
H797 H 0.30037 0.66113 0.14718 0.0
H798 H 0.26263 0.63337 0.11877 0.0
H799 H 0.17457 0.61183 0.15019 0.0
H800 H 0.06806 0.52738 0.07532 0.0
H801 H 0.10943 0.54518 0.10524 0.0
H802 H 0.19781 0.56691 0.07548 0.0
C803 C 0.25926 0.63339 0.13872 0.0
C804 C 0.17999 0.60174 0.13426 0.0
C805 C 0.28088 0.64946 0.15503 0.0
C806 C 0.08874 0.53754 0.06821 0.0
C807 C 0.11239 0.54796 0.08539 0.0
C808 C 0.19251 0.57663 0.09175 0.0
C809 C 0.23316 0.61847 0.14791 0.0
C810 C 0.20915 0.60296 0.13028 0.0
C811 C 0.1393 0.56229 0.07713 0.0
C812 C 0.16342 0.57564 0.09568 0.0
H813 H 0.24751 0.63625 0.21013 0.0
H814 H 0.21007 0.60789 0.18178 0.0
H815 H 0.23726 0.59033 0.10538 0.0
H816 H 0.12127 0.55759 0.01407 0.0
H817 H 0.16273 0.57602 0.04415 0.0
C818 C 0.26461 0.39768 0.68627 0.0
C819 C 0.23524 0.39569 0.67976 0.0
C820 C 0.28681 0.41169 0.67191 0.0
C821 C 0.30286 0.46165 0.62485 0.0
H822 H 0.36868 0.43585 0.6132 0.0
C823 C 0.4124 0.48325 0.56265 0.0
C824 C 0.42284 0.50978 0.5665 0.0
C825 C 0.38823 0.46927 0.57496 0.0
C826 C 0.35032 0.44323 0.616 0.0
H827 H 0.20623 0.40706 0.65303 0.0
H828 H 0.24487 0.43121 0.62781 0.0
H829 H 0.32929 0.41164 0.63749 0.0
H830 H 0.41557 0.54237 0.58615 0.0
H831 H 0.37373 0.51808 0.60765 0.0
H832 H 0.32368 0.49302 0.60294 0.0
C833 C 0.25083 0.42223 0.64423 0.0
C834 C 0.32788 0.42949 0.63027 0.0
C835 C 0.22863 0.40825 0.65865 0.0
C836 C 0.40802 0.52202 0.58247 0.0
C837 C 0.3839 0.50805 0.59482 0.0
C838 C 0.3253 0.47539 0.61053 0.0
C839 C 0.28022 0.42404 0.65059 0.0
C840 C 0.30391 0.43857 0.63502 0.0
C841 C 0.37391 0.48144 0.59152 0.0
C842 C 0.34941 0.46641 0.60599 0.0
H843 H 0.27052 0.38834 0.70247 0.0
H844 H 0.30919 0.413 0.67766 0.0
H845 H 0.2849 0.46937 0.62828 0.0
H846 H 0.42316 0.47317 0.5504 0.0
H847 H 0.38086 0.44886 0.57159 0.0
C848 C 0.76764 0.71701 0.89354 0.0
C849 C 0.74529 0.70471 0.87554 0.0
C850 C 0.78661 0.70423 0.90376 0.0
C851 C 0.81524 0.65015 0.88955 0.0
H852 H 0.8453 0.66142 0.95912 0.0
C853 C 0.91548 0.62032 0.92406 0.0
C854 C 0.91522 0.60951 0.94767 0.0
C855 C 0.89366 0.63115 0.9163 0.0
C856 C 0.83689 0.65787 0.93971 0.0
H857 H 0.72473 0.66907 0.85477 0.0
H858 H 0.75752 0.64667 0.87287 0.0
H859 H 0.80813 0.68101 0.94425 0.0
H860 H 0.89187 0.60186 0.98175 0.0
H861 H 0.85332 0.62043 0.96796 0.0
H862 H 0.84363 0.62678 0.88502 0.0
C863 C 0.76076 0.66635 0.87874 0.0
C864 C 0.81584 0.66932 0.93112 0.0
C865 C 0.74186 0.67916 0.86846 0.0
C866 C 0.89258 0.60986 0.96338 0.0
C867 C 0.87067 0.62072 0.95558 0.0
C868 C 0.83622 0.6387 0.89813 0.0
C869 C 0.7836 0.67883 0.89627 0.0
C870 C 0.80493 0.66576 0.90587 0.0
C871 C 0.8709 0.63137 0.93188 0.0
C872 C 0.84754 0.64263 0.92323 0.0
H873 H 0.7709 0.73671 0.89937 0.0
H874 H 0.80417 0.71451 0.91699 0.0
H875 H 0.80759 0.6472 0.86993 0.0
H876 H 0.93235 0.62007 0.91133 0.0
H877 H 0.89474 0.6395 0.89808 0.0
C878 C 0.44835 0.80147 0.20666 0.0
C879 C 0.41821 0.79272 0.20959 0.0
C880 C 0.46053 0.82503 0.1962 0.0
C881 C 0.43838 0.87286 0.15727 0.0
H882 H 0.51726 0.91412 0.17513 0.0
C883 C 0.49344 0.9605 0.10107 0.0
C884 C 0.51334 0.9813 0.11403 0.0
C885 C 0.482 0.93781 0.11316 0.0
C886 C 0.49503 0.90306 0.17008 0.0
H887 H 0.37754 0.80247 0.20532 0.0
H888 H 0.39873 0.84373 0.18841 0.0
H889 H 0.49734 0.87514 0.19667 0.0
H890 H 0.5369 0.99491 0.14973 0.0
H891 H 0.51611 0.95589 0.17123 0.0
H892 H 0.43554 0.90122 0.13149 0.0
C893 C 0.41298 0.83215 0.19303 0.0
C894 C 0.48372 0.88037 0.18223 0.0
C895 C 0.4008 0.80852 0.20301 0.0
C896 C 0.52148 0.97912 0.13933 0.0
C897 C 0.50975 0.9566 0.15156 0.0
C898 C 0.44953 0.89567 0.14538 0.0
C899 C 0.44289 0.84054 0.18879 0.0
C900 C 0.45519 0.8649 0.17602 0.0
C901 C 0.49001 0.93547 0.13862 0.0
C902 C 0.47806 0.91114 0.15153 0.0
H903 H 0.4623 0.78965 0.2114 0.0
H904 H 0.4836 0.83062 0.19311 0.0
H905 H 0.41655 0.86136 0.15147 0.0
H906 H 0.48758 0.96142 0.08132 0.0
H907 H 0.46745 0.92191 0.10228 0.0
C908 C 0.11141 0.24532 0.65708 0.0
C909 C 0.11412 0.24643 0.68351 0.0
C910 C 0.10117 0.22194 0.64363 0.0
C911 C 0.08834 0.15236 0.64941 0.0
H912 H 0.03354 0.14782 0.59228 0.0
C913 C 0.04374 0.06067 0.58537 0.0
C914 C 0.01408 0.05419 0.57741 0.0
C915 C 0.0573 0.08416 0.59789 0.0
C916 C 0.04868 0.14869 0.60827 0.0
H917 H 0.10862 0.22368 0.71649 0.0
H918 H 0.09045 0.18302 0.69309 0.0
H919 H 0.05469 0.18843 0.61505 0.0
H920 H 0.97528 0.06699 0.57642 0.0
H921 H 0.99866 0.10766 0.59853 0.0
H922 H 0.08161 0.11239 0.64302 0.0
C923 C 0.09658 0.20019 0.68269 0.0
C924 C 0.06113 0.1721 0.62116 0.0
C925 C 0.10686 0.22356 0.69614 0.0
C926 C 0.9982 0.07151 0.58231 0.0
C927 C 0.01169 0.09492 0.5948 0.0
C928 C 0.07587 0.12891 0.6365 0.0
C929 C 0.09333 0.19907 0.65626 0.0
C930 C 0.08099 0.17424 0.642 0.0
C931 C 0.04145 0.10163 0.60269 0.0
C932 C 0.05568 0.12673 0.61589 0.0
H933 H 0.11694 0.26253 0.64672 0.0
H934 H 0.0994 0.22182 0.62329 0.0
H935 H 0.10379 0.15333 0.66519 0.0
H936 H 0.0565 0.04767 0.5818 0.0
H937 H 0.0803 0.08877 0.60347 0.0
C938 C 0.79099 0.37138 0.44706 0.0
C939 C 0.7924 0.36907 0.42084 0.0
C940 C 0.77533 0.38675 0.45754 0.0
C941 C 0.74039 0.43758 0.44242 0.0
H942 H 0.68914 0.4085 0.49466 0.0
C943 C 0.63738 0.467 0.46317 0.0
C944 C 0.63018 0.46859 0.48829 0.0
C945 C 0.66101 0.45827 0.45714 0.0
C946 C 0.70367 0.41711 0.48038 0.0
H947 H 0.77926 0.38176 0.38515 0.0
H948 H 0.75175 0.40806 0.40329 0.0
H949 H 0.72394 0.38711 0.48031 0.0
H950 H 0.64249 0.46278 0.52685 0.0
H951 H 0.68389 0.44752 0.51629 0.0
H952 H 0.7193 0.46711 0.44193 0.0
C953 C 0.763 0.39836 0.41586 0.0
C954 C 0.72368 0.40487 0.47217 0.0
C955 C 0.77864 0.38308 0.40542 0.0
C956 C 0.64762 0.46191 0.50733 0.0
C957 C 0.67115 0.45297 0.50128 0.0
C958 C 0.72027 0.44974 0.45055 0.0
C959 C 0.76077 0.40013 0.44203 0.0
C960 C 0.7419 0.41468 0.45273 0.0
C961 C 0.67789 0.45077 0.47608 0.0
C962 C 0.70131 0.43939 0.46929 0.0
H963 H 0.80145 0.36092 0.45947 0.0
H964 H 0.77438 0.38794 0.47779 0.0
H965 H 0.75448 0.44594 0.42777 0.0
H966 H 0.6245 0.47223 0.44811 0.0
H967 H 0.66545 0.45659 0.43752 0.0
loop_
_geom_bond_atom_site_label_1
_geom_bond_atom_site_label_2
_geom_bond_distance
_geom_bond_site_symmetry_2
_ccdc_geom_bond_type
O0 Cd1 2.300 . S
O0 C7 1.275 . S
Cd1 O0 2.300 . S
Cd1 O9 2.381 . S
Cd1 O10 2.378 . S
O2 Cd3 2.385 . S
O2 C7 1.255 . S
Cd3 O2 2.385 . S
Cd3 O4 2.317 . S
O4 Cd3 2.317 . S
O4 C5 1.232 . S
C5 O4 1.232 . S
C5 O6 1.218 . S
O6 C5 1.218 . S
C7 O0 1.275 . S
C7 O2 1.255 . S
C8 O9 1.258 . S
C8 O10 1.256 . S
O9 Cd1 2.381 . S
O9 C8 1.258 . S
O10 Cd1 2.378 . S
O10 C8 1.256 . S
O11 Cd12 2.300 . S
O11 C18 1.275 . S
Cd12 O11 2.300 . S
Cd12 O20 2.381 . S
Cd12 O21 2.378 . S
O13 Cd14 2.385 . S
O13 C18 1.255 . S
Cd14 O13 2.385 . S
Cd14 O15 2.317 . S
O15 Cd14 2.317 . S
O15 C16 1.232 . S
C16 O15 1.232 . S
C16 O17 1.218 . S
O17 C16 1.218 . S
C18 O11 1.275 . S
C18 O13 1.255 . S
C19 O20 1.258 . S
C19 O21 1.256 . S
O20 Cd12 2.381 . S
O20 C19 1.258 . S
O21 Cd12 2.378 . S
O21 C19 1.256 . S
O22 Cd23 2.300 . S
O22 C29 1.275 . S
Cd23 O22 2.300 . S
Cd23 O31 2.381 . S
Cd23 O32 2.378 . S
O24 Cd25 2.385 . S
O24 C29 1.255 . S
Cd25 O24 2.385 . S
Cd25 O26 2.317 . S
O26 Cd25 2.317 . S
O26 C27 1.232 . S
C27 O26 1.232 . S
C27 O28 1.218 . S
O28 C27 1.218 . S
C29 O22 1.275 . S
C29 O24 1.255 . S
C30 O31 1.258 . S
C30 O32 1.256 . S
O31 Cd23 2.381 . S
O31 C30 1.258 . S
O32 Cd23 2.378 . S
O32 C30 1.256 . S
O33 Cd34 2.300 . S
O33 C40 1.275 . S
Cd34 O33 2.300 . S
Cd34 O42 2.381 . S
Cd34 O43 2.378 . S
O35 Cd36 2.385 . S
O35 C40 1.255 . S
Cd36 O35 2.385 . S
Cd36 O37 2.317 . S
O37 Cd36 2.317 . S
O37 C38 1.232 . S
C38 O37 1.232 . S
C38 O39 1.218 . S
O39 C38 1.218 . S
C40 O33 1.275 . S
C40 O35 1.255 . S
C41 O42 1.258 . S
C41 O43 1.256 . S
O42 Cd34 2.381 . S
O42 C41 1.258 . S
O43 Cd34 2.378 . S
O43 C41 1.256 . S
O44 Cd45 2.300 . S
O44 C51 1.275 . S
Cd45 O44 2.300 . S
Cd45 O53 2.381 . S
Cd45 O54 2.378 . S
O46 Cd47 2.385 . S
O46 C51 1.255 . S
Cd47 O46 2.385 . S
Cd47 O48 2.317 . S
O48 Cd47 2.317 . S
O48 C49 1.232 . S
C49 O48 1.232 . S
C49 O50 1.218 . S
O50 C49 1.218 . S
C51 O44 1.275 . S
C51 O46 1.255 . S
C52 O53 1.258 . S
C52 O54 1.256 . S
O53 Cd45 2.381 . S
O53 C52 1.258 . S
O54 Cd45 2.378 . S
O54 C52 1.256 . S
O55 Cd56 2.300 . S
O55 C62 1.275 . S
Cd56 O55 2.300 . S
Cd56 O64 2.381 . S
Cd56 O65 2.378 . S
O57 Cd58 2.385 . S
O57 C62 1.255 . S
Cd58 O57 2.385 . S
Cd58 O59 2.317 . S
O59 Cd58 2.317 . S
O59 C60 1.232 . S
C60 O59 1.232 . S
C60 O61 1.218 . S
O61 C60 1.218 . S
C62 O55 1.275 . S
C62 O57 1.255 . S
C63 O64 1.258 . S
C63 O65 1.256 . S
O64 Cd56 2.381 . S
O64 C63 1.258 . S
O65 Cd56 2.378 . S
O65 C63 1.256 . S
O66 Cd67 2.300 . S
O66 C73 1.275 . S
Cd67 O66 2.300 . S
Cd67 O75 2.381 . S
Cd67 O76 2.378 . S
O68 Cd69 2.385 . S
O68 C73 1.255 . S
Cd69 O68 2.385 . S
Cd69 O70 2.317 . S
O70 Cd69 2.317 . S
O70 C71 1.232 . S
C71 O70 1.232 . S
C71 O72 1.218 . S
O72 C71 1.218 . S
C73 O66 1.275 . S
C73 O68 1.255 . S
C74 O75 1.258 . S
C74 O76 1.256 . S
O75 Cd67 2.381 . S
O75 C74 1.258 . S
O76 Cd67 2.378 . S
O76 C74 1.256 . S
O77 Cd78 2.300 . S
O77 C84 1.275 . S
Cd78 O77 2.300 . S
Cd78 O86 2.381 . S
Cd78 O87 2.378 . S
O79 Cd80 2.385 . S
O79 C84 1.255 . S
Cd80 O79 2.385 . S
Cd80 O81 2.317 . S
O81 Cd80 2.317 . S
O81 C82 1.232 . S
C82 O81 1.232 . S
C82 O83 1.218 . S
O83 C82 1.218 . S
C84 O77 1.275 . S
C84 O79 1.255 . S
C85 O86 1.258 . S
C85 O87 1.256 . S
O86 Cd78 2.381 . S
O86 C85 1.258 . S
O87 Cd78 2.378 . S
O87 C85 1.256 . S
Tb88 C90 2.809 1_545 S
Tb88 O108 2.484 1_545 S
Tb88 O109 2.440 1_545 S
Tb88 O110 2.658 1_655 S
Tb88 O111 2.409 1_655 S
Tb88 O112 2.378 1_645 S
Tb88 O116 2.325 1_545 S
Tb88 O119 2.341 . S
Tb89 C99 2.809 . S
Tb89 O110 2.325 . S
Tb89 O113 2.341 1_545 S
Tb89 O114 2.484 . S
Tb89 O115 2.440 . S
Tb89 O116 2.658 1_445 S
Tb89 O117 2.409 1_545 S
Tb89 O118 2.368 1_455 S
C90 Tb88 2.809 1_565 S
C90 C91 1.514 . S
C90 O108 1.248 . S
C90 O109 1.266 . S
C91 C90 1.514 . S
C91 C92 1.359 . S
C91 C96 1.348 . S
C92 C91 1.359 . S
C92 C93 1.380 . S
C92 H120 0.929 . S
C93 C92 1.380 . S
C93 C94 1.347 . S
C93 H121 0.931 . S
C94 C93 1.347 . S
C94 C95 1.369 . S
C95 C94 1.369 . S
C95 C96 1.408 . S
C95 H122 0.930 . S
C96 C91 1.348 . S
C96 C95 1.408 . S
C96 H123 0.930 . S
C97 O110 1.281 . S
C97 O111 1.254 . S
C98 O112 1.236 . S
C98 O113 1.266 . S
C99 Tb89 2.809 . S
C99 C100 1.514 . S
C99 O114 1.248 . S
C99 O115 1.266 . S
C100 C99 1.514 . S
C100 C101 1.359 . S
C100 C105 1.348 . S
C101 C100 1.359 . S
C101 C102 1.380 . S
C101 H124 0.929 . S
C102 C101 1.380 . S
C102 C103 1.347 . S
C102 H125 0.931 . S
C103 C102 1.347 . S
C103 C104 1.369 . S
C104 C103 1.369 . S
C104 C105 1.408 . S
C104 H126 0.930 . S
C105 C100 1.348 . S
C105 C104 1.408 . S
C105 H127 0.930 . S
C106 O116 1.281 . S
C106 O117 1.254 1_655 S
C107 O118 1.247 . S
C107 O119 1.266 . S
O108 Tb88 2.484 1_565 S
O108 C90 1.248 . S
O109 Tb88 2.440 1_565 S
O109 C90 1.266 . S
O110 Tb88 2.658 1_455 S
O110 Tb89 2.325 . S
O110 C97 1.281 . S
O111 Tb88 2.409 1_455 S
O111 C97 1.254 . S
O112 Tb88 2.378 1_465 S
O112 C98 1.236 . S
O113 Tb89 2.341 1_565 S
O113 C98 1.266 . S
O114 Tb89 2.484 . S
O114 C99 1.248 . S
O115 Tb89 2.440 . S
O115 C99 1.266 . S
O116 Tb88 2.325 1_565 S
O116 Tb89 2.658 1_665 S
O116 C106 1.281 . S
O117 Tb89 2.409 1_565 S
O117 C106 1.254 1_455 S
O118 Tb89 2.368 1_655 S
O118 C107 1.247 . S
O119 Tb88 2.341 . S
O119 C107 1.266 . S
H120 C92 0.929 . S
H121 C93 0.931 . S
H122 C95 0.930 . S
H123 C96 0.930 . S
H124 C101 0.929 . S
H125 C102 0.931 . S
H126 C104 0.930 . S
H127 C105 0.930 . S
Tb128 C130 2.809 . S
Tb128 O148 2.484 . S
Tb128 O149 2.440 . S
Tb128 O150 2.658 . S
Tb128 O151 2.409 . S
Tb128 O152 2.378 . S
Tb128 O156 2.325 . S
Tb128 O159 2.341 . S
Tb129 C139 2.809 1_544 S
Tb129 O150 2.325 . S
Tb129 O153 2.341 . S
Tb129 O154 2.484 1_545 S
Tb129 O155 2.440 1_554 S
Tb129 O156 2.658 . S
Tb129 O157 2.433 . S
Tb129 O158 2.378 . S
C130 Tb128 2.809 . S
C130 C131 1.514 . S
C130 O148 1.248 . S
C130 O149 1.266 . S
C131 C130 1.514 . S
C131 C132 1.359 . S
C131 C136 1.348 . S
C132 C131 1.359 . S
C132 C133 1.380 . S
C132 H160 0.929 . S
C133 C132 1.380 . S
C133 C134 1.347 . S
C133 H161 0.931 . S
C134 C133 1.347 . S
C134 C135 1.369 . S
C135 C134 1.369 . S
C135 C136 1.408 . S
C135 H162 0.930 . S
C136 C131 1.348 . S
C136 C135 1.408 . S
C136 H163 0.930 . S
C137 O150 1.281 1_565 S
C137 O151 1.254 1_565 S
C138 O152 1.236 . S
C138 O153 1.266 . S
C139 Tb129 2.809 1_566 S
C139 C140 1.514 . S
C139 O154 1.248 1_556 S
C139 O155 1.266 1_565 S
C140 C139 1.514 . S
C140 C141 1.359 . S
C140 C145 1.348 . S
C141 C140 1.359 . S
C141 C142 1.380 . S
C141 H164 0.929 . S
C142 C141 1.380 . S
C142 C143 1.347 . S
C142 H165 0.931 . S
C143 C142 1.347 . S
C143 C144 1.369 . S
C144 C143 1.369 . S
C144 C145 1.408 . S
C144 H166 0.930 . S
C145 C140 1.348 . S
C145 C144 1.408 . S
C145 H167 0.930 . S
C146 O156 1.281 . S
C146 O157 1.278 . S
C147 O158 1.236 . S
C147 O159 1.266 . S
O148 Tb128 2.484 . S
O148 C130 1.248 . S
O149 Tb128 2.440 . S
O149 C130 1.266 . S
O150 Tb128 2.658 . S
O150 Tb129 2.325 . S
O150 C137 1.281 1_545 S
O151 Tb128 2.409 . S
O151 C137 1.254 1_545 S
O152 Tb128 2.378 . S
O152 C138 1.236 . S
O153 Tb129 2.341 . S
O153 C138 1.266 . S
O154 Tb129 2.484 1_565 S
O154 C139 1.248 1_554 S
O155 Tb129 2.440 1_556 S
O155 C139 1.266 1_545 S
O156 Tb128 2.325 . S
O156 Tb129 2.658 . S
O156 C146 1.281 . S
O157 Tb129 2.433 . S
O157 C146 1.278 . S
O158 Tb129 2.378 . S
O158 C147 1.236 . S
O159 Tb128 2.341 . S
O159 C147 1.266 . S
H160 C132 0.929 . S
H161 C133 0.931 . S
H162 C135 0.930 . S
H163 C136 0.930 . S
H164 C141 0.929 . S
H165 C142 0.931 . S
H166 C144 0.930 . S
H167 C145 0.930 . S
Tb168 C170 2.809 . S
Tb168 O188 2.484 . S
Tb168 O189 2.440 . S
Tb168 O190 2.658 . S
Tb168 O191 2.409 . S
Tb168 O192 2.378 . S
Tb168 O196 2.325 . S
Tb168 O199 2.341 . S
Tb169 C179 2.809 . S
Tb169 O190 2.325 . S
Tb169 O193 2.341 . S
Tb169 O194 2.484 . S
Tb169 O195 2.440 . S
Tb169 O196 2.658 . S
Tb169 O197 2.409 . S
Tb169 O198 2.378 . S
C170 Tb168 2.809 . S
C170 C171 1.514 . S
C170 O188 1.248 . S
C170 O189 1.266 . S
C171 C170 1.514 . S
C171 C172 1.359 . S
C171 C176 1.348 . S
C172 C171 1.359 . S
C172 C173 1.380 . S
C172 H200 0.929 . S
C173 C172 1.380 . S
C173 C174 1.347 . S
C173 H201 0.931 . S
C174 C173 1.347 . S
C174 C175 1.369 . S
C175 C174 1.369 . S
C175 C176 1.408 . S
C175 H202 0.930 . S
C176 C171 1.348 . S
C176 C175 1.408 . S
C176 H203 0.930 . S
C177 O190 1.281 . S
C177 O191 1.254 . S
C178 O192 1.236 . S
C178 O193 1.266 . S
C179 Tb169 2.809 . S
C179 C180 1.514 . S
C179 O194 1.248 . S
C179 O195 1.266 . S
C180 C179 1.514 . S
C180 C181 1.359 . S
C180 C185 1.348 . S
C181 C180 1.359 . S
C181 C182 1.380 . S
C181 H204 0.929 . S
C182 C181 1.380 . S
C182 C183 1.347 . S
C182 H205 0.931 . S
C183 C182 1.347 . S
C183 C184 1.369 . S
C184 C183 1.369 . S
C184 C185 1.408 . S
C184 H206 0.930 . S
C185 C180 1.348 . S
C185 C184 1.408 . S
C185 H207 0.930 . S
C186 O196 1.281 . S
C186 O197 1.254 . S
C187 O198 1.236 . S
C187 O199 1.266 . S
O188 Tb168 2.484 . S
O188 C170 1.248 . S
O189 Tb168 2.440 . S
O189 C170 1.266 . S
O190 Tb168 2.658 . S
O190 Tb169 2.325 . S
O190 C177 1.281 . S
O191 Tb168 2.409 . S
O191 C177 1.254 . S
O192 Tb168 2.378 . S
O192 C178 1.236 . S
O193 Tb169 2.341 . S
O193 C178 1.266 . S
O194 Tb169 2.484 . S
O194 C179 1.248 . S
O195 Tb169 2.440 . S
O195 C179 1.266 . S
O196 Tb168 2.325 . S
O196 Tb169 2.658 . S
O196 C186 1.281 . S
O197 Tb169 2.409 . S
O197 C186 1.254 . S
O198 Tb169 2.378 . S
O198 C187 1.236 . S
O199 Tb168 2.341 . S
O199 C187 1.266 . S
H200 C172 0.929 . S
H201 C173 0.931 . S
H202 C175 0.930 . S
H203 C176 0.930 . S
H204 C181 0.929 . S
H205 C182 0.931 . S
H206 C184 0.930 . S
H207 C185 0.930 . S
Tb208 C210 2.809 1_455 S
Tb208 O228 2.484 1_455 S
Tb208 O229 2.440 . S
Tb208 O230 2.658 1_556 S
Tb208 O231 2.409 1_556 S
Tb208 O232 2.378 1_556 S
Tb208 O236 2.325 1_455 S
Tb208 O239 2.341 . S
Tb209 C219 2.809 . S
Tb209 O230 2.325 . S
Tb209 O233 2.341 1_455 S
Tb209 O234 2.484 . S
Tb209 O235 2.440 . S
Tb209 O236 2.658 1_454 S
Tb209 O237 2.409 1_455 S
Tb209 O238 2.378 1_554 S
C210 Tb208 2.809 1_655 S
C210 C211 1.514 . S
C210 O228 1.248 . S
C210 O229 1.266 1_655 S
C211 C210 1.514 . S
C211 C212 1.359 . S
C211 C216 1.348 . S
C212 C211 1.359 . S
C212 C213 1.380 . S
C212 H240 0.929 . S
C213 C212 1.380 . S
C213 C214 1.347 . S
C213 H241 0.931 . S
C214 C213 1.347 . S
C214 C215 1.369 . S
C215 C214 1.369 . S
C215 C216 1.408 . S
C215 H242 0.930 . S
C216 C211 1.348 . S
C216 C215 1.408 . S
C216 H243 0.930 1_655 S
C217 O230 1.281 . S
C217 O231 1.254 . S
C218 O232 1.236 1_655 S
C218 O233 1.266 . S
C219 Tb209 2.809 . S
C219 C220 1.514 . S
C219 O234 1.248 . S
C219 O235 1.266 . S
C220 C219 1.514 . S
C220 C221 1.359 . S
C220 C225 1.348 . S
C221 C220 1.359 . S
C221 C222 1.380 . S
C221 H244 0.929 . S
C222 C221 1.380 . S
C222 C223 1.347 . S
C222 H245 0.931 . S
C223 C222 1.347 . S
C223 C224 1.369 . S
C224 C223 1.369 . S
C224 C225 1.408 . S
C224 H246 0.930 . S
C225 C220 1.348 . S
C225 C224 1.408 . S
C225 H247 0.930 . S
C226 O236 1.281 . S
C226 O237 1.254 1_556 S
C227 O238 1.236 . S
C227 O239 1.266 . S
O228 Tb208 2.484 1_655 S
O228 C210 1.248 . S
O229 Tb208 2.440 . S
O229 C210 1.266 1_455 S
O230 Tb208 2.658 1_554 S
O230 Tb209 2.325 . S
O230 C217 1.281 . S
O231 Tb208 2.409 1_554 S
O231 C217 1.254 . S
O232 Tb208 2.378 1_554 S
O232 C218 1.236 1_455 S
O233 Tb209 2.341 1_655 S
O233 C218 1.266 . S
O234 Tb209 2.484 . S
O234 C219 1.248 . S
O235 Tb209 2.440 . S
O235 C219 1.266 . S
O236 Tb208 2.325 1_655 S
O236 Tb209 2.658 1_656 S
O236 C226 1.281 . S
O237 Tb209 2.409 1_655 S
O237 C226 1.254 1_554 S
O238 Tb209 2.378 1_556 S
O238 C227 1.236 . S
O239 Tb208 2.341 . S
O239 C227 1.266 . S
H240 C212 0.929 . S
H241 C213 0.931 . S
H242 C215 0.930 . S
H243 C216 0.930 1_455 S
H244 C221 0.929 . S
H245 C222 0.931 . S
H246 C224 0.930 . S
H247 C225 0.930 . S
C248 C249 1.349 . S
C248 C250 1.327 . S
C248 H273 0.950 . S
C249 C248 1.349 . S
C249 C265 1.349 . S
C250 C248 1.327 . S
C250 C269 1.429 . S
C250 H274 0.950 . S
C251 C268 1.574 . S
C251 C270 1.368 . S
C251 H275 0.949 . S
H252 C256 0.949 . S
C253 C254 1.349 . S
C253 C255 1.327 . S
C253 H276 0.950 . S
C254 C253 1.349 . S
C254 C266 1.349 . S
C255 C253 1.327 . S
C255 C271 1.429 . S
C255 H277 0.950 . S
C256 H252 0.949 . S
C256 C264 1.574 . S
C256 C272 1.368 . S
H257 C265 0.950 . S
H258 C263 0.950 . S
H259 C264 0.949 . S
H260 C266 0.950 . S
H261 C267 0.950 . S
H262 C268 0.949 . S
C263 H258 0.950 . S
C263 C265 1.327 . S
C263 C269 1.429 . S
C264 C256 1.574 . S
C264 H259 0.949 . S
C264 C270 1.368 . S
C265 C249 1.349 . S
C265 H257 0.950 . S
C265 C263 1.327 . S
C266 C254 1.349 . S
C266 H260 0.950 . S
C266 C267 1.327 . S
C267 H261 0.950 . S
C267 C266 1.327 . S
C267 C271 1.429 . S
C268 C251 1.574 . S
C268 H262 0.949 . S
C268 C272 1.368 . S
C269 C250 1.429 . S
C269 C263 1.429 . S
C269 C270 1.523 . S
C270 C251 1.368 . S
C270 C264 1.368 . S
C270 C269 1.523 . S
C271 C255 1.429 . S
C271 C267 1.429 . S
C271 C272 1.523 . S
C272 C256 1.368 . S
C272 C268 1.368 . S
C272 C271 1.523 . S
H273 C248 0.950 . S
H274 C250 0.950 . S
H275 C251 0.949 . S
H276 C253 0.950 . S
H277 C255 0.950 . S
C278 C279 1.349 . S
C278 C280 1.327 . S
C278 H303 0.950 . S
C279 C278 1.349 . S
C279 C295 1.349 . S
C280 C278 1.327 . S
C280 C299 1.429 . S
C280 H304 0.950 . S
C281 C298 1.574 . S
C281 C300 1.368 . S
C281 H305 0.949 . S
H282 C286 0.949 . S
C283 C284 1.349 . S
C283 C285 1.327 . S
C283 H306 0.950 . S
C284 C283 1.349 . S
C284 C296 1.349 . S
C285 C283 1.327 . S
C285 C301 1.429 . S
C285 H307 0.950 . S
C286 H282 0.949 . S
C286 C294 1.574 . S
C286 C302 1.368 . S
H287 C295 0.950 . S
H288 C293 0.950 . S
H289 C294 0.949 . S
H290 C296 0.950 . S
H291 C297 0.950 . S
H292 C298 0.949 . S
C293 H288 0.950 . S
C293 C295 1.327 . S
C293 C299 1.429 . S
C294 C286 1.574 . S
C294 H289 0.949 . S
C294 C300 1.368 . S
C295 C279 1.349 . S
C295 H287 0.950 . S
C295 C293 1.327 . S
C296 C284 1.349 . S
C296 H290 0.950 . S
C296 C297 1.327 . S
C297 H291 0.950 . S
C297 C296 1.327 . S
C297 C301 1.429 . S
C298 C281 1.574 . S
C298 H292 0.949 . S
C298 C302 1.368 . S
C299 C280 1.429 . S
C299 C293 1.429 . S
C299 C300 1.523 . S
C300 C281 1.368 . S
C300 C294 1.368 . S
C300 C299 1.523 . S
C301 C285 1.429 . S
C301 C297 1.429 . S
C301 C302 1.523 . S
C302 C286 1.368 . S
C302 C298 1.368 . S
C302 C301 1.523 . S
H303 C278 0.950 . S
H304 C280 0.950 . S
H305 C281 0.949 . S
H306 C283 0.950 . S
H307 C285 0.950 . S
C308 C309 1.349 . S
C308 C310 1.327 . S
C308 H333 0.950 . S
C309 C308 1.349 . S
C309 C325 1.349 . S
C310 C308 1.327 . S
C310 C329 1.429 . S
C310 H334 0.950 . S
C311 C328 1.574 . S
C311 C330 1.368 . S
C311 H335 0.949 . S
H312 C316 0.949 . S
C313 C314 1.349 . S
C313 C315 1.327 . S
C313 H336 0.950 . S
C314 C313 1.349 . S
C314 C326 1.349 . S
C315 C313 1.327 . S
C315 C331 1.429 . S
C315 H337 0.950 . S
C316 H312 0.949 . S
C316 C324 1.574 . S
C316 C332 1.368 . S
H317 C325 0.950 . S
H318 C323 0.950 . S
H319 C324 0.949 . S
H320 C326 0.950 . S
H321 C327 0.950 . S
H322 C328 0.949 . S
C323 H318 0.950 . S
C323 C325 1.327 . S
C323 C329 1.429 . S
C324 C316 1.574 . S
C324 H319 0.949 . S
C324 C330 1.368 . S
C325 C309 1.349 . S
C325 H317 0.950 . S
C325 C323 1.327 . S
C326 C314 1.349 . S
C326 H320 0.950 . S
C326 C327 1.327 . S
C327 H321 0.950 . S
C327 C326 1.327 . S
C327 C331 1.429 . S
C328 C311 1.574 . S
C328 H322 0.949 . S
C328 C332 1.368 . S
C329 C310 1.429 . S
C329 C323 1.429 . S
C329 C330 1.523 . S
C330 C311 1.368 . S
C330 C324 1.368 . S
C330 C329 1.523 . S
C331 C315 1.429 . S
C331 C327 1.429 . S
C331 C332 1.523 . S
C332 C316 1.368 . S
C332 C328 1.368 . S
C332 C331 1.523 . S
H333 C308 0.950 . S
H334 C310 0.950 . S
H335 C311 0.949 . S
H336 C313 0.950 . S
H337 C315 0.950 . S
C338 C339 1.349 . S
C338 C340 1.327 . S
C338 H363 0.950 . S
C339 C338 1.349 . S
C339 C355 1.349 . S
C340 C338 1.327 . S
C340 C359 1.429 . S
C340 H364 0.950 . S
C341 C358 1.574 . S
C341 C360 1.368 . S
C341 H365 0.949 . S
H342 C346 0.949 . S
C343 C344 1.349 . S
C343 C345 1.327 . S
C343 H366 0.980 . S
C344 C343 1.349 . S
C344 C356 1.349 . S
C345 C343 1.327 . S
C345 C361 1.429 . S
C345 H367 0.950 . S
C346 H342 0.949 . S
C346 C354 1.574 . S
C346 C362 1.368 . S
H347 C355 0.950 . S
H348 C353 0.950 . S
H349 C354 0.949 . S
H350 C356 0.950 . S
H351 C357 0.950 . S
H352 C358 0.949 . S
C353 H348 0.950 . S
C353 C355 1.327 . S
C353 C359 1.429 . S
C354 C346 1.574 . S
C354 H349 0.949 . S
C354 C360 1.368 . S
C355 C339 1.349 . S
C355 H347 0.950 . S
C355 C353 1.327 . S
C356 C344 1.349 . S
C356 H350 0.950 . S
C356 C357 1.327 . S
C357 H351 0.950 . S
C357 C356 1.327 . S
C357 C361 1.429 . S
C358 C341 1.574 . S
C358 H352 0.949 . S
C358 C362 1.368 . S
C359 C340 1.429 . S
C359 C353 1.429 . S
C359 C360 1.523 . S
C360 C341 1.368 . S
C360 C354 1.368 . S
C360 C359 1.523 . S
C361 C345 1.429 . S
C361 C357 1.429 . S
C361 C362 1.523 . S
C362 C346 1.368 . S
C362 C358 1.368 . S
C362 C361 1.523 . S
H363 C338 0.950 . S
H364 C340 0.950 . S
H365 C341 0.949 . S
H366 C343 0.980 . S
H367 C345 0.950 . S
C368 C369 1.349 . S
C368 C370 1.327 . S
C368 H393 0.950 . S
C369 C368 1.349 . S
C369 C385 1.349 . S
C370 C368 1.327 . S
C370 C389 1.429 . S
C370 H394 0.950 . S
C371 C388 1.574 . S
C371 C390 1.368 . S
C371 H395 0.949 . S
H372 C376 0.949 . S
C373 C374 1.349 . S
C373 C375 1.327 . S
C373 H396 0.950 . S
C374 C373 1.349 . S
C374 C386 1.349 . S
C375 C373 1.327 . S
C375 C391 1.429 . S
C375 H397 0.950 . S
C376 H372 0.949 . S
C376 C384 1.574 . S
C376 C392 1.368 . S
H377 C385 0.950 . S
H378 C383 0.950 . S
H379 C384 0.949 . S
H380 C386 0.950 . S
H381 C387 0.950 . S
H382 C388 0.949 . S
C383 H378 0.950 . S
C383 C385 1.327 . S
C383 C389 1.429 . S
C384 C376 1.574 . S
C384 H379 0.949 . S
C384 C390 1.368 . S
C385 C369 1.349 . S
C385 H377 0.950 . S
C385 C383 1.327 . S
C386 C374 1.349 . S
C386 H380 0.950 . S
C386 C387 1.327 . S
C387 H381 0.950 . S
C387 C386 1.327 . S
C387 C391 1.429 . S
C388 C371 1.574 . S
C388 H382 0.949 . S
C388 C392 1.368 . S
C389 C370 1.429 . S
C389 C383 1.429 . S
C389 C390 1.523 . S
C390 C371 1.368 . S
C390 C384 1.368 . S
C390 C389 1.523 . S
C391 C375 1.429 . S
C391 C387 1.429 . S
C391 C392 1.523 . S
C392 C376 1.368 . S
C392 C388 1.368 . S
C392 C391 1.523 . S
H393 C368 0.950 . S
H394 C370 0.950 . S
H395 C371 0.949 . S
H396 C373 0.950 . S
H397 C375 0.950 . S
C398 C399 1.349 . S
C398 C400 1.327 . S
C398 H423 0.950 . S
C399 C398 1.349 . S
C399 C415 1.349 . S
C400 C398 1.327 . S
C400 C419 1.429 . S
C400 H424 0.950 . S
C401 C418 1.574 . S
C401 C420 1.368 . S
C401 H425 0.949 . S
H402 C406 0.949 . S
C403 C404 1.349 . S
C403 C405 1.327 . S
C403 H426 0.950 . S
C404 C403 1.349 . S
C404 C416 1.349 . S
C405 C403 1.327 . S
C405 C421 1.429 . S
C405 H427 0.950 . S
C406 H402 0.949 . S
C406 C414 1.574 . S
C406 C422 1.368 . S
H407 C415 0.950 . S
H408 C413 0.950 . S
H409 C414 0.949 . S
H410 C416 0.950 . S
H411 C417 0.950 . S
H412 C418 0.949 . S
C413 H408 0.950 . S
C413 C415 1.327 . S
C413 C419 1.429 . S
C414 C406 1.574 . S
C414 H409 0.949 . S
C414 C420 1.368 . S
C415 C399 1.349 . S
C415 H407 0.950 . S
C415 C413 1.327 . S
C416 C404 1.349 . S
C416 H410 0.950 . S
C416 C417 1.327 . S
C417 H411 0.950 . S
C417 C416 1.327 . S
C417 C421 1.429 . S
C418 C401 1.574 . S
C418 H412 0.949 . S
C418 C422 1.368 . S
C419 C400 1.429 . S
C419 C413 1.429 . S
C419 C420 1.523 . S
C420 C401 1.368 . S
C420 C414 1.368 . S
C420 C419 1.523 . S
C421 C405 1.429 . S
C421 C417 1.429 . S
C421 C422 1.523 . S
C422 C406 1.368 . S
C422 C418 1.368 . S
C422 C421 1.523 . S
H423 C398 0.950 . S
H424 C400 0.950 . S
H425 C401 0.949 . S
H426 C403 0.950 . S
H427 C405 0.950 . S
C428 C429 1.349 . S
C428 C430 1.327 . S
C428 H453 0.950 . S
C429 C428 1.349 . S
C429 C445 1.349 . S
C430 C428 1.327 . S
C430 C449 1.429 . S
C430 H454 0.950 . S
C431 C448 1.574 . S
C431 C450 1.368 . S
C431 H455 0.949 . S
H432 C436 0.949 . S
C433 C434 1.349 . S
C433 C435 1.327 . S
C433 H456 0.950 . S
C434 C433 1.349 . S
C434 C446 1.349 . S
C435 C433 1.327 . S
C435 C451 1.429 . S
C435 H457 0.950 . S
C436 H432 0.949 . S
C436 C444 1.574 . S
C436 C452 1.368 . S
H437 C445 0.950 . S
H438 C443 0.950 . S
H439 C444 0.949 . S
H440 C446 0.950 . S
H441 C447 0.950 . S
H442 C448 0.949 . S
C443 H438 0.950 . S
C443 C445 1.327 . S
C443 C449 1.429 . S
C444 C436 1.574 . S
C444 H439 0.949 . S
C444 C450 1.368 . S
C445 C429 1.349 . S
C445 H437 0.950 . S
C445 C443 1.327 . S
C446 C434 1.349 . S
C446 H440 0.950 . S
C446 C447 1.327 . S
C447 H441 0.950 . S
C447 C446 1.327 . S
C447 C451 1.429 . S
C448 C431 1.574 . S
C448 H442 0.949 . S
C448 C452 1.368 . S
C449 C430 1.429 . S
C449 C443 1.429 . S
C449 C450 1.523 . S
C450 C431 1.368 . S
C450 C444 1.368 . S
C450 C449 1.523 . S
C451 C435 1.429 . S
C451 C447 1.429 . S
C451 C452 1.523 . S
C452 C436 1.368 . S
C452 C448 1.368 . S
C452 C451 1.523 . S
H453 C428 0.950 . S
H454 C430 0.950 . S
H455 C431 0.949 . S
H456 C433 0.950 . S
H457 C435 0.950 . S
C458 C459 1.349 . S
C458 C460 1.327 . S
C458 H483 0.950 . S
C459 C458 1.349 . S
C459 C475 1.349 . S
C460 C458 1.327 . S
C460 C479 1.429 . S
C460 H484 0.950 . S
C461 C478 1.574 . S
C461 C480 1.368 . S
C461 H485 0.949 . S
H462 C466 0.949 . S
C463 C464 1.349 . S
C463 C465 1.327 . S
C463 H486 0.950 . S
C464 C463 1.349 . S
C464 C476 1.349 . S
C465 C463 1.327 . S
C465 C481 1.429 . S
C465 H487 0.950 . S
C466 H462 0.949 . S
C466 C474 1.574 . S
C466 C482 1.368 . S
H467 C475 0.950 . S
H468 C473 0.950 . S
H469 C474 0.949 . S
H470 C476 0.950 . S
H471 C477 0.950 . S
H472 C478 0.949 . S
C473 H468 0.950 . S
C473 C475 1.327 . S
C473 C479 1.429 . S
C474 C466 1.574 . S
C474 H469 0.949 . S
C474 C480 1.368 . S
C475 C459 1.349 . S
C475 H467 0.950 . S
C475 C473 1.327 . S
C476 C464 1.349 . S
C476 H470 0.950 . S
C476 C477 1.327 . S
C477 H471 0.950 . S
C477 C476 1.327 . S
C477 C481 1.429 . S
C478 C461 1.574 . S
C478 H472 0.949 . S
C478 C482 1.368 . S
C479 C460 1.429 . S
C479 C473 1.429 . S
C479 C480 1.523 . S
C480 C461 1.368 . S
C480 C474 1.368 . S
C480 C479 1.523 . S
C481 C465 1.429 . S
C481 C477 1.429 . S
C481 C482 1.523 . S
C482 C466 1.368 . S
C482 C478 1.368 . S
C482 C481 1.523 . S
H483 C458 0.950 . S
H484 C460 0.950 . S
H485 C461 0.949 . S
H486 C463 0.950 . S
H487 C465 0.950 . S
C488 C489 1.349 . S
C488 C490 1.327 . S
C488 H513 0.950 . S
C489 C488 1.349 . S
C489 C505 1.349 . S
C490 C488 1.327 . S
C490 C509 1.429 . S
C490 H514 0.950 . S
C491 C508 1.574 . S
C491 C510 1.368 . S
C491 H515 0.949 . S
H492 C496 0.949 . S
C493 C494 1.349 . S
C493 C495 1.327 . S
C493 H516 0.950 . S
C494 C493 1.349 . S
C494 C506 1.349 . S
C495 C493 1.327 . S
C495 C511 1.429 . S
C495 H517 0.950 . S
C496 H492 0.949 . S
C496 C504 1.574 . S
C496 C512 1.368 . S
H497 C505 0.950 . S
H498 C503 0.950 . S
H499 C504 0.949 . S
H500 C506 0.950 . S
H501 C507 0.950 . S
H502 C508 0.949 . S
C503 H498 0.950 . S
C503 C505 1.327 . S
C503 C509 1.429 . S
C504 C496 1.574 . S
C504 H499 0.949 . S
C504 C510 1.368 . S
C505 C489 1.349 . S
C505 H497 0.950 . S
C505 C503 1.327 . S
C506 C494 1.349 . S
C506 H500 0.950 . S
C506 C507 1.327 . S
C507 H501 0.950 . S
C507 C506 1.327 . S
C507 C511 1.429 . S
C508 C491 1.574 . S
C508 H502 0.949 . S
C508 C512 1.368 . S
C509 C490 1.429 . S
C509 C503 1.429 . S
C509 C510 1.523 . S
C510 C491 1.368 . S
C510 C504 1.368 . S
C510 C509 1.523 . S
C511 C495 1.429 . S
C511 C507 1.429 . S
C511 C512 1.523 . S
C512 C496 1.368 . S
C512 C508 1.368 . S
C512 C511 1.523 . S
H513 C488 0.950 . S
H514 C490 0.950 . S
H515 C491 0.949 . S
H516 C493 0.950 . S
H517 C495 0.950 . S
C518 C519 1.349 . S
C518 C520 1.327 . S
C518 H543 0.950 . S
C519 C518 1.349 . S
C519 C535 1.349 . S
C520 C518 1.327 . S
C520 C539 1.429 . S
C520 H544 0.950 . S
C521 C538 1.574 . S
C521 C540 1.368 . S
C521 H545 0.949 . S
H522 C526 0.949 . S
C523 C524 1.349 . S
C523 C525 1.327 . S
C523 H546 0.950 . S
C524 C523 1.349 . S
C524 C536 1.349 . S
C525 C523 1.327 . S
C525 C541 1.429 . S
C525 H547 0.950 . S
C526 H522 0.949 . S
C526 C534 1.574 . S
C526 C542 1.368 . S
H527 C535 0.950 . S
H528 C533 0.950 . S
H529 C534 0.949 . S
H530 C536 0.950 1_554 S
H531 C537 0.950 . S
H532 C538 0.949 . S
C533 H528 0.950 . S
C533 C535 1.327 . S
C533 C539 1.429 . S
C534 C526 1.574 . S
C534 H529 0.949 . S
C534 C540 1.368 . S
C535 C519 1.349 . S
C535 H527 0.950 . S
C535 C533 1.327 . S
C536 C524 1.349 . S
C536 H530 0.950 1_556 S
C536 C537 1.327 . S
C537 H531 0.950 . S
C537 C536 1.327 . S
C537 C541 1.429 . S
C538 C521 1.574 . S
C538 H532 0.949 . S
C538 C542 1.368 . S
C539 C520 1.429 . S
C539 C533 1.429 . S
C539 C540 1.523 . S
C540 C521 1.368 . S
C540 C534 1.368 . S
C540 C539 1.523 . S
C541 C525 1.429 . S
C541 C537 1.429 . S
C541 C542 1.523 . S
C542 C526 1.368 . S
C542 C538 1.368 . S
C542 C541 1.523 . S
H543 C518 0.950 . S
H544 C520 0.950 . S
H545 C521 0.949 . S
H546 C523 0.950 . S
H547 C525 0.950 . S
C548 C549 1.349 . S
C548 C550 1.327 . S
C548 H573 0.950 . S
C549 C548 1.349 . S
C549 C565 1.349 . S
C550 C548 1.327 . S
C550 C569 1.429 . S
C550 H574 0.950 . S
C551 C568 1.574 . S
C551 C570 1.368 . S
C551 H575 0.949 . S
H552 C556 0.949 . S
C553 C554 1.349 . S
C553 C555 1.327 . S
C553 H576 0.950 . S
C554 C553 1.349 . S
C554 C566 1.349 . S
C555 C553 1.327 . S
C555 C571 1.429 . S
C555 H577 0.950 . S
C556 H552 0.949 . S
C556 C564 1.574 . S
C556 C572 1.368 . S
H557 C565 0.950 . S
H558 C563 0.950 . S
H559 C564 0.949 . S
H560 C566 0.950 . S
H561 C567 0.950 . S
H562 C568 0.949 . S
C563 H558 0.950 . S
C563 C565 1.327 . S
C563 C569 1.429 . S
C564 C556 1.574 . S
C564 H559 0.949 . S
C564 C570 1.368 . S
C565 C549 1.349 . S
C565 H557 0.950 . S
C565 C563 1.327 . S
C566 C554 1.349 . S
C566 H560 0.950 . S
C566 C567 1.327 . S
C567 H561 0.950 . S
C567 C566 1.327 . S
C567 C571 1.429 . S
C568 C551 1.574 . S
C568 H562 0.949 . S
C568 C572 1.368 . S
C569 C550 1.429 . S
C569 C563 1.429 . S
C569 C570 1.523 . S
C570 C551 1.368 . S
C570 C564 1.368 . S
C570 C569 1.523 . S
C571 C555 1.429 . S
C571 C567 1.429 . S
C571 C572 1.523 . S
C572 C556 1.368 . S
C572 C568 1.368 . S
C572 C571 1.523 . S
H573 C548 0.950 . S
H574 C550 0.950 . S
H575 C551 0.949 . S
H576 C553 0.950 . S
H577 C555 0.950 . S
C578 C579 1.349 . S
C578 C580 1.327 . S
C578 H603 0.950 . S
C579 C578 1.349 . S
C579 C595 1.349 . S
C580 C578 1.327 . S
C580 C599 1.429 . S
C580 H604 0.950 . S
C581 C598 1.574 . S
C581 C600 1.368 . S
C581 H605 0.949 . S
H582 C586 0.949 . S
C583 C584 1.349 . S
C583 C585 1.327 . S
C583 H606 0.950 . S
C584 C583 1.349 . S
C584 C596 1.349 . S
C585 C583 1.327 . S
C585 C601 1.429 . S
C585 H607 0.950 . S
C586 H582 0.949 . S
C586 C594 1.574 . S
C586 C602 1.368 . S
H587 C595 0.950 . S
H588 C593 0.950 . S
H589 C594 0.949 . S
H590 C596 0.950 . S
H591 C597 0.950 . S
H592 C598 0.949 . S
C593 H588 0.950 . S
C593 C595 1.327 . S
C593 C599 1.429 . S
C594 C586 1.574 . S
C594 H589 0.949 . S
C594 C600 1.368 . S
C595 C579 1.349 . S
C595 H587 0.950 . S
C595 C593 1.327 . S
C596 C584 1.349 . S
C596 H590 0.950 . S
C596 C597 1.327 . S
C597 H591 0.950 . S
C597 C596 1.327 . S
C597 C601 1.429 . S
C598 C581 1.574 . S
C598 H592 0.949 . S
C598 C602 1.368 . S
C599 C580 1.429 . S
C599 C593 1.429 . S
C599 C600 1.523 . S
C600 C581 1.368 . S
C600 C594 1.368 . S
C600 C599 1.523 . S
C601 C585 1.429 . S
C601 C597 1.429 . S
C601 C602 1.523 . S
C602 C586 1.368 . S
C602 C598 1.368 . S
C602 C601 1.523 . S
H603 C578 0.950 . S
H604 C580 0.950 . S
H605 C581 0.949 . S
H606 C583 0.950 . S
H607 C585 0.950 . S
C608 C609 1.349 . S
C608 C610 1.327 . S
C608 H633 0.950 . S
C609 C608 1.349 . S
C609 C625 1.349 . S
C610 C608 1.327 . S
C610 C629 1.429 . S
C610 H634 0.950 . S
C611 C628 1.574 . S
C611 C630 1.368 . S
C611 H635 0.949 . S
H612 C616 0.949 . S
C613 C614 1.349 . S
C613 C615 1.327 . S
C613 H636 0.950 . S
C614 C613 1.349 . S
C614 C626 1.349 . S
C615 C613 1.327 . S
C615 C631 1.429 . S
C615 H637 0.950 . S
C616 H612 0.949 . S
C616 C624 1.574 . S
C616 C632 1.368 . S
H617 C625 0.950 . S
H618 C623 0.950 . S
H619 C624 0.949 . S
H620 C626 0.950 . S
H621 C627 0.950 . S
H622 C628 0.949 . S
C623 H618 0.950 . S
C623 C625 1.327 . S
C623 C629 1.429 . S
C624 C616 1.574 . S
C624 H619 0.949 . S
C624 C630 1.368 . S
C625 C609 1.349 . S
C625 H617 0.950 . S
C625 C623 1.327 . S
C626 C614 1.349 . S
C626 H620 0.950 . S
C626 C627 1.327 . S
C627 H621 0.950 . S
C627 C626 1.327 . S
C627 C631 1.429 . S
C628 C611 1.574 . S
C628 H622 0.949 . S
C628 C632 1.368 . S
C629 C610 1.429 . S
C629 C623 1.429 . S
C629 C630 1.523 . S
C630 C611 1.368 . S
C630 C624 1.368 . S
C630 C629 1.523 . S
C631 C615 1.429 . S
C631 C627 1.429 . S
C631 C632 1.523 . S
C632 C616 1.368 . S
C632 C628 1.368 . S
C632 C631 1.523 . S
H633 C608 0.950 . S
H634 C610 0.950 . S
H635 C611 0.949 . S
H636 C613 0.950 . S
H637 C615 0.950 . S
C638 C639 1.349 . S
C638 C640 1.327 . S
C638 H663 0.950 . S
C639 C638 1.349 . S
C639 C655 1.349 . S
C640 C638 1.327 . S
C640 C659 1.429 . S
C640 H664 0.950 . S
C641 C658 1.574 . S
C641 C660 1.368 . S
C641 H665 0.949 . S
H642 C646 0.949 . S
C643 C644 1.349 . S
C643 C645 1.327 . S
C643 H666 0.950 . S
C644 C643 1.349 . S
C644 C656 1.349 . S
C645 C643 1.327 . S
C645 C661 1.429 . S
C645 H667 0.950 . S
C646 H642 0.949 . S
C646 C654 1.574 . S
C646 C662 1.368 . S
H647 C655 0.950 . S
H648 C653 0.950 . S
H649 C654 0.949 . S
H650 C656 0.950 . S
H651 C657 0.950 . S
H652 C658 0.949 . S
C653 H648 0.950 . S
C653 C655 1.327 . S
C653 C659 1.429 . S
C654 C646 1.574 . S
C654 H649 0.949 . S
C654 C660 1.368 . S
C655 C639 1.349 . S
C655 H647 0.950 . S
C655 C653 1.327 . S
C656 C644 1.349 . S
C656 H650 0.950 . S
C656 C657 1.327 . S
C657 H651 0.950 . S
C657 C656 1.327 . S
C657 C661 1.429 . S
C658 C641 1.574 . S
C658 H652 0.949 . S
C658 C662 1.368 . S
C659 C640 1.429 . S
C659 C653 1.429 . S
C659 C660 1.523 . S
C660 C641 1.368 . S
C660 C654 1.368 . S
C660 C659 1.523 . S
C661 C645 1.429 . S
C661 C657 1.429 . S
C661 C662 1.523 . S
C662 C646 1.368 . S
C662 C658 1.368 . S
C662 C661 1.523 . S
H663 C638 0.950 . S
H664 C640 0.950 . S
H665 C641 0.949 . S
H666 C643 0.950 . S
H667 C645 0.950 . S
C668 C669 1.349 . S
C668 C670 1.327 . S
C668 H693 0.950 . S
C669 C668 1.349 . S
C669 C685 1.349 . S
C670 C668 1.327 . S
C670 C689 1.429 . S
C670 H694 0.950 . S
C671 C688 1.574 . S
C671 C690 1.368 . S
C671 H695 0.949 . S
H672 C676 0.949 . S
C673 C674 1.349 . S
C673 C675 1.327 . S
C673 H696 0.950 . S
C674 C673 1.349 . S
C674 C686 1.349 . S
C675 C673 1.327 . S
C675 C691 1.429 . S
C675 H697 0.950 . S
C676 H672 0.949 . S
C676 C684 1.574 . S
C676 C692 1.368 . S
H677 C685 0.950 . S
H678 C683 0.950 . S
H679 C684 0.949 . S
H680 C686 0.950 . S
H681 C687 0.950 . S
H682 C688 0.949 . S
C683 H678 0.950 . S
C683 C685 1.327 . S
C683 C689 1.429 . S
C684 C676 1.574 . S
C684 H679 0.949 . S
C684 C690 1.368 . S
C685 C669 1.349 . S
C685 H677 0.950 . S
C685 C683 1.327 . S
C686 C674 1.349 . S
C686 H680 0.950 . S
C686 C687 1.327 . S
C687 H681 0.950 . S
C687 C686 1.327 . S
C687 C691 1.429 . S
C688 C671 1.574 . S
C688 H682 0.949 . S
C688 C692 1.368 . S
C689 C670 1.429 . S
C689 C683 1.429 . S
C689 C690 1.523 . S
C690 C671 1.368 . S
C690 C684 1.368 . S
C690 C689 1.523 . S
C691 C675 1.429 . S
C691 C687 1.429 . S
C691 C692 1.523 . S
C692 C676 1.368 . S
C692 C688 1.368 . S
C692 C691 1.523 . S
H693 C668 0.950 . S
H694 C670 0.950 . S
H695 C671 0.949 . S
H696 C673 0.950 . S
H697 C675 0.950 . S
C698 C699 1.349 . S
C698 C700 1.327 . S
C698 H723 0.950 . S
C699 C698 1.349 . S
C699 C715 1.349 . S
C700 C698 1.327 . S
C700 C719 1.429 . S
C700 H724 0.950 . S
C701 C718 1.574 . S
C701 C720 1.368 . S
C701 H725 0.949 . S
H702 C706 0.949 . S
C703 C704 1.349 . S
C703 C705 1.327 . S
C703 H726 0.950 . S
C704 C703 1.349 . S
C704 C716 1.349 . S
C705 C703 1.327 . S
C705 C721 1.429 . S
C705 H727 0.950 . S
C706 H702 0.949 . S
C706 C714 1.574 . S
C706 C722 1.368 . S
H707 C715 0.950 . S
H708 C713 0.950 . S
H709 C714 0.949 . S
H710 C716 0.950 . S
H711 C717 0.950 . S
H712 C718 0.949 . S
C713 H708 0.950 . S
C713 C715 1.327 . S
C713 C719 1.429 . S
C714 C706 1.574 . S
C714 H709 0.949 . S
C714 C720 1.368 . S
C715 C699 1.349 . S
C715 H707 0.950 . S
C715 C713 1.327 . S
C716 C704 1.349 . S
C716 H710 0.950 . S
C716 C717 1.327 . S
C717 H711 0.950 . S
C717 C716 1.327 . S
C717 C721 1.429 . S
C718 C701 1.574 . S
C718 H712 0.949 . S
C718 C722 1.368 . S
C719 C700 1.429 . S
C719 C713 1.429 . S
C719 C720 1.523 . S
C720 C701 1.368 . S
C720 C714 1.368 . S
C720 C719 1.523 . S
C721 C705 1.429 . S
C721 C717 1.429 . S
C721 C722 1.523 . S
C722 C706 1.368 . S
C722 C718 1.368 . S
C722 C721 1.523 . S
H723 C698 0.950 . S
H724 C700 0.950 . S
H725 C701 0.949 . S
H726 C703 0.950 . S
H727 C705 0.950 . S
C728 C729 1.349 . S
C728 C730 1.327 . S
C728 H753 0.950 . S
C729 C728 1.349 . S
C729 C745 1.349 . S
C730 C728 1.327 . S
C730 C749 1.429 . S
C730 H754 0.950 . S
C731 C748 1.574 . S
C731 C750 1.368 . S
C731 H755 0.949 . S
H732 C736 0.949 . S
C733 C734 1.355 . S
C733 C735 1.327 . S
C733 H756 0.950 . S
C734 C733 1.355 . S
C734 C746 1.354 . S
C735 C733 1.327 . S
C735 C751 1.429 . S
C735 H757 0.950 . S
C736 H732 0.949 . S
C736 C744 1.574 . S
C736 C752 1.368 . S
H737 C745 0.950 . S
H738 C743 0.950 . S
H739 C744 0.949 . S
H740 C746 0.937 1_544 S
H741 C747 0.950 . S
H742 C748 0.949 . S
C743 H738 0.950 . S
C743 C745 1.327 . S
C743 C749 1.429 . S
C744 C736 1.574 . S
C744 H739 0.949 . S
C744 C750 1.368 . S
C745 C729 1.349 . S
C745 H737 0.950 . S
C745 C743 1.327 . S
C746 C734 1.354 . S
C746 H740 0.937 1_566 S
C746 C747 1.327 . S
C747 H741 0.950 . S
C747 C746 1.327 . S
C747 C751 1.429 . S
C748 C731 1.574 . S
C748 H742 0.949 . S
C748 C752 1.368 . S
C749 C730 1.429 . S
C749 C743 1.429 . S
C749 C750 1.523 . S
C750 C731 1.368 . S
C750 C744 1.368 . S
C750 C749 1.523 . S
C751 C735 1.429 . S
C751 C747 1.429 . S
C751 C752 1.523 . S
C752 C736 1.368 . S
C752 C748 1.368 . S
C752 C751 1.523 . S
H753 C728 0.950 . S
H754 C730 0.950 . S
H755 C731 0.949 . S
H756 C733 0.950 . S
H757 C735 0.950 . S
C758 C759 1.349 . S
C758 C760 1.327 . S
C758 H783 0.950 . S
C759 C758 1.349 . S
C759 C775 1.349 . S
C760 C758 1.327 . S
C760 C779 1.429 . S
C760 H784 0.950 . S
C761 C778 1.574 . S
C761 C780 1.368 . S
C761 H785 0.949 . S
H762 C766 0.949 . S
C763 C764 1.349 . S
C763 C765 1.327 . S
C763 H786 0.950 . S
C764 C763 1.349 . S
C764 C776 1.349 . S
C765 C763 1.327 . S
C765 C781 1.429 . S
C765 H787 0.950 . S
C766 H762 0.949 . S
C766 C774 1.574 . S
C766 C782 1.368 . S
H767 C775 0.950 . S
H768 C773 0.950 . S
H769 C774 0.949 . S
H770 C776 0.950 . S
H771 C777 0.950 . S
H772 C778 0.949 . S
C773 H768 0.950 . S
C773 C775 1.327 . S
C773 C779 1.429 . S
C774 C766 1.574 . S
C774 H769 0.949 . S
C774 C780 1.368 . S
C775 C759 1.349 . S
C775 H767 0.950 . S
C775 C773 1.327 . S
C776 C764 1.349 . S
C776 H770 0.950 . S
C776 C777 1.327 . S
C777 H771 0.950 . S
C777 C776 1.327 . S
C777 C781 1.429 . S
C778 C761 1.574 . S
C778 H772 0.949 . S
C778 C782 1.368 . S
C779 C760 1.429 . S
C779 C773 1.429 . S
C779 C780 1.523 . S
C780 C761 1.368 . S
C780 C774 1.368 . S
C780 C779 1.523 . S
C781 C765 1.429 . S
C781 C777 1.429 . S
C781 C782 1.523 . S
C782 C766 1.368 . S
C782 C778 1.368 . S
C782 C781 1.523 . S
H783 C758 0.950 . S
H784 C760 0.950 . S
H785 C761 0.949 . S
H786 C763 0.950 . S
H787 C765 0.950 . S
C788 C789 1.349 . S
C788 C790 1.327 . S
C788 H813 0.950 . S
C789 C788 1.349 . S
C789 C805 1.349 . S
C790 C788 1.327 . S
C790 C809 1.429 . S
C790 H814 0.950 . S
C791 C808 1.574 . S
C791 C810 1.368 . S
C791 H815 0.949 . S
H792 C796 0.949 . S
C793 C794 1.349 . S
C793 C795 1.327 . S
C793 H816 0.950 . S
C794 C793 1.349 . S
C794 C806 1.349 . S
C795 C793 1.327 . S
C795 C811 1.429 . S
C795 H817 0.950 . S
C796 H792 0.949 . S
C796 C804 1.574 . S
C796 C812 1.368 . S
H797 C805 0.950 . S
H798 C803 0.950 . S
H799 C804 0.949 . S
H800 C806 0.950 . S
H801 C807 0.950 . S
H802 C808 0.949 . S
C803 H798 0.950 . S
C803 C805 1.327 . S
C803 C809 1.429 . S
C804 C796 1.574 . S
C804 H799 0.949 . S
C804 C810 1.368 . S
C805 C789 1.349 . S
C805 H797 0.950 . S
C805 C803 1.327 . S
C806 C794 1.349 . S
C806 H800 0.950 . S
C806 C807 1.327 . S
C807 H801 0.950 . S
C807 C806 1.327 . S
C807 C811 1.429 . S
C808 C791 1.574 . S
C808 H802 0.949 . S
C808 C812 1.368 . S
C809 C790 1.429 . S
C809 C803 1.429 . S
C809 C810 1.523 . S
C810 C791 1.368 . S
C810 C804 1.368 . S
C810 C809 1.523 . S
C811 C795 1.429 . S
C811 C807 1.429 . S
C811 C812 1.523 . S
C812 C796 1.368 . S
C812 C808 1.368 . S
C812 C811 1.523 . S
H813 C788 0.950 . S
H814 C790 0.950 . S
H815 C791 0.949 . S
H816 C793 0.950 . S
H817 C795 0.950 . S
C818 C819 1.349 . S
C818 C820 1.327 . S
C818 H843 0.950 . S
C819 C818 1.349 . S
C819 C835 1.349 . S
C820 C818 1.327 . S
C820 C839 1.429 . S
C820 H844 0.950 . S
C821 C838 1.574 . S
C821 C840 1.368 . S
C821 H845 0.949 . S
H822 C826 0.949 . S
C823 C824 1.349 . S
C823 C825 1.327 . S
C823 H846 0.950 . S
C824 C823 1.349 . S
C824 C836 1.349 . S
C825 C823 1.327 . S
C825 C841 1.429 . S
C825 H847 0.950 . S
C826 H822 0.949 . S
C826 C834 1.574 . S
C826 C842 1.368 . S
H827 C835 0.950 . S
H828 C833 0.950 . S
H829 C834 0.949 . S
H830 C836 0.950 . S
H831 C837 0.950 . S
H832 C838 0.949 . S
C833 H828 0.950 . S
C833 C835 1.327 . S
C833 C839 1.429 . S
C834 C826 1.574 . S
C834 H829 0.949 . S
C834 C840 1.368 . S
C835 C819 1.349 . S
C835 H827 0.950 . S
C835 C833 1.327 . S
C836 C824 1.349 . S
C836 H830 0.950 . S
C836 C837 1.327 . S
C837 H831 0.950 . S
C837 C836 1.327 . S
C837 C841 1.429 . S
C838 C821 1.574 . S
C838 H832 0.949 . S
C838 C842 1.368 . S
C839 C820 1.429 . S
C839 C833 1.429 . S
C839 C840 1.523 . S
C840 C821 1.368 . S
C840 C834 1.368 . S
C840 C839 1.523 . S
C841 C825 1.429 . S
C841 C837 1.429 . S
C841 C842 1.523 . S
C842 C826 1.368 . S
C842 C838 1.368 . S
C842 C841 1.523 . S
H843 C818 0.950 . S
H844 C820 0.950 . S
H845 C821 0.949 . S
H846 C823 0.950 . S
H847 C825 0.950 . S
C848 C849 1.349 . S
C848 C850 1.327 . S
C848 H873 0.950 . S
C849 C848 1.349 . S
C849 C865 1.349 . S
C850 C848 1.327 . S
C850 C869 1.429 . S
C850 H874 0.950 . S
C851 C868 1.574 . S
C851 C870 1.368 . S
C851 H875 0.949 . S
H852 C856 0.949 . S
C853 C854 1.349 . S
C853 C855 1.327 . S
C853 H876 0.950 . S
C854 C853 1.349 . S
C854 C866 1.349 . S
C855 C853 1.327 . S
C855 C871 1.429 . S
C855 H877 0.950 . S
C856 H852 0.949 . S
C856 C864 1.574 . S
C856 C872 1.368 . S
H857 C865 0.950 . S
H858 C863 0.950 . S
H859 C864 0.949 . S
H860 C866 0.912 1_554 S
H861 C867 0.950 . S
H862 C868 0.949 . S
C863 H858 0.950 . S
C863 C865 1.327 . S
C863 C869 1.429 . S
C864 C856 1.574 . S
C864 H859 0.949 . S
C864 C870 1.368 . S
C865 C849 1.349 . S
C865 H857 0.950 . S
C865 C863 1.327 . S
C866 C854 1.349 . S
C866 H860 0.912 1_556 S
C866 C867 1.327 . S
C867 H861 0.950 . S
C867 C866 1.327 . S
C867 C871 1.429 . S
C868 C851 1.574 . S
C868 H862 0.949 . S
C868 C872 1.368 . S
C869 C850 1.429 . S
C869 C863 1.429 . S
C869 C870 1.523 . S
C870 C851 1.368 . S
C870 C864 1.368 . S
C870 C869 1.523 . S
C871 C855 1.429 . S
C871 C867 1.429 . S
C871 C872 1.523 . S
C872 C856 1.368 . S
C872 C868 1.368 . S
C872 C871 1.523 . S
H873 C848 0.950 . S
H874 C850 0.950 . S
H875 C851 0.949 . S
H876 C853 0.950 . S
H877 C855 0.950 . S
C878 C879 1.349 . S
C878 C880 1.327 . S
C878 H903 0.950 . S
C879 C878 1.349 . S
C879 C895 1.349 . S
C880 C878 1.327 . S
C880 C899 1.429 . S
C880 H904 0.950 . S
C881 C898 1.574 . S
C881 C900 1.368 . S
C881 H905 0.949 . S
H882 C886 0.949 . S
C883 C884 1.349 . S
C883 C885 1.327 . S
C883 H906 0.950 . S
C884 C883 1.349 . S
C884 C896 1.349 . S
C885 C883 1.327 . S
C885 C901 1.429 . S
C885 H907 0.950 . S
C886 H882 0.949 . S
C886 C894 1.574 . S
C886 C902 1.368 . S
H887 C895 0.950 . S
H888 C893 0.950 . S
H889 C894 0.949 . S
H890 C896 0.950 . S
H891 C897 0.950 . S
H892 C898 0.949 . S
C893 H888 0.950 . S
C893 C895 1.327 . S
C893 C899 1.429 . S
C894 C886 1.574 . S
C894 H889 0.949 . S
C894 C900 1.368 . S
C895 C879 1.349 . S
C895 H887 0.950 . S
C895 C893 1.327 . S
C896 C884 1.349 . S
C896 H890 0.950 . S
C896 C897 1.327 . S
C897 H891 0.950 . S
C897 C896 1.327 . S
C897 C901 1.429 . S
C898 C881 1.574 . S
C898 H892 0.949 . S
C898 C902 1.368 . S
C899 C880 1.429 . S
C899 C893 1.429 . S
C899 C900 1.523 . S
C900 C881 1.368 . S
C900 C894 1.368 . S
C900 C899 1.523 . S
C901 C885 1.429 . S
C901 C897 1.429 . S
C901 C902 1.523 . S
C902 C886 1.368 . S
C902 C898 1.368 . S
C902 C901 1.523 . S
H903 C878 0.950 . S
H904 C880 0.950 . S
H905 C881 0.949 . S
H906 C883 0.950 . S
H907 C885 0.950 . S
C908 C909 1.349 . S
C908 C910 1.327 . S
C908 H933 0.950 . S
C909 C908 1.349 . S
C909 C925 1.349 . S
C910 C908 1.327 . S
C910 C929 1.429 . S
C910 H934 0.950 . S
C911 C928 1.574 . S
C911 C930 1.368 . S
C911 H935 0.949 . S
H912 C916 0.949 . S
C913 C914 1.349 . S
C913 C915 1.327 . S
C913 H936 0.950 . S
C914 C913 1.349 . S
C914 C926 1.349 . S
C915 C913 1.327 . S
C915 C931 1.429 . S
C915 H937 0.950 . S
C916 H912 0.949 . S
C916 C924 1.574 . S
C916 C932 1.368 . S
H917 C925 0.950 . S
H918 C923 0.950 . S
H919 C924 0.949 . S
H920 C926 0.950 . S
H921 C927 0.950 . S
H922 C928 0.949 . S
C923 H918 0.950 . S
C923 C925 1.327 . S
C923 C929 1.429 . S
C924 C916 1.574 . S
C924 H919 0.949 . S
C924 C930 1.368 . S
C925 C909 1.349 . S
C925 H917 0.950 . S
C925 C923 1.327 . S
C926 C914 1.349 . S
C926 H920 0.950 . S
C926 C927 1.327 . S
C927 H921 0.950 . S
C927 C926 1.327 . S
C927 C931 1.429 . S
C928 C911 1.574 . S
C928 H922 0.949 . S
C928 C932 1.368 . S
C929 C910 1.429 . S
C929 C923 1.429 . S
C929 C930 1.523 . S
C930 C911 1.368 . S
C930 C924 1.368 . S
C930 C929 1.523 . S
C931 C915 1.429 . S
C931 C927 1.429 . S
C931 C932 1.523 . S
C932 C916 1.368 . S
C932 C928 1.368 . S
C932 C931 1.523 . S
H933 C908 0.950 . S
H934 C910 0.950 . S
H935 C911 0.949 . S
H936 C913 0.950 . S
H937 C915 0.950 . S
C938 C939 1.349 . S
C938 C940 1.327 . S
C938 H963 0.950 . S
C939 C938 1.349 . S
C939 C955 1.349 . S
C940 C938 1.327 . S
C940 C959 1.429 . S
C940 H964 0.950 . S
C941 C958 1.574 . S
C941 C960 1.368 . S
C941 H965 0.949 . S
H942 C946 0.949 . S
C943 C944 1.349 . S
C943 C945 1.327 . S
C943 H966 0.950 . S
C944 C943 1.349 . S
C944 C956 1.349 . S
C945 C943 1.327 . S
C945 C961 1.429 . S
C945 H967 0.950 . S
C946 H942 0.949 . S
C946 C954 1.574 . S
C946 C962 1.368 . S
H947 C955 0.950 . S
H948 C953 0.950 . S
H949 C954 0.949 . S
H950 C956 0.950 . S
H951 C957 0.950 . S
H952 C958 0.949 . S
C953 H948 0.950 . S
C953 C955 1.327 . S
C953 C959 1.429 . S
C954 C946 1.574 . S
C954 H949 0.949 . S
C954 C960 1.368 . S
C955 C939 1.349 . S
C955 H947 0.950 . S
C955 C953 1.327 . S
C956 C944 1.349 . S
C956 H950 0.950 . S
C956 C957 1.327 . S
C957 H951 0.950 . S
C957 C956 1.327 . S
C957 C961 1.429 . S
C958 C941 1.574 . S
C958 H952 0.949 . S
C958 C962 1.368 . S
C959 C940 1.429 . S
C959 C953 1.429 . S
C959 C960 1.523 . S
C960 C941 1.368 . S
C960 C954 1.368 . S
C960 C959 1.523 . S
C961 C945 1.429 . S
C961 C957 1.429 . S
C961 C962 1.523 . S
C962 C946 1.368 . S
C962 C958 1.368 . S
C962 C961 1.523 . S
H963 C938 0.950 . S
H964 C940 0.950 . S
H965 C941 0.949 . S
H966 C943 0.950 . S
H967 C945 0.950 . S
C249 C5 1.137 . S
C254 C103 1.349 . S
C279 C18 1.111 . S
C284 C143 1.137 . S
C314 C177 1.977 . S
C309 C30 1.993 . S
C339 C41 2.282 . S
C344 C218 2.257 . S
C374 C138 1.569 . S
C369 C7 1.490 . S
C404 C98 2.278 . S
C399 C16 2.196 . S
C434 C226 1.515 . S
C429 C29 1.506 . S
C464 C187 1.331 . S
C459 C38 1.118 . S
C489 C8 1.199 . S
C494 C223 1.228 . S
C524 C146 2.168 1_556 S
C519 C27 2.022 . S
C549 C40 2.473 . S
C554 C106 2.432 . S
C579 C19 1.326 . S
C584 C174 1.332 . S
C614 C94 1.353 . S
C609 C51 1.226 . S
C639 C62 1.465 . S
C644 C134 1.435 . S
C669 C74 2.172 . S
C674 C186 2.159 . S
C699 C84 2.259 . S
C704 C227 2.294 . S
C729 C49 1.569 . S
C734 C147 1.921 1_566 S
C764 C107 2.161 . S
C759 C63 2.133 . S
C794 C217 1.385 . S
C789 C71 1.271 . S
C824 C178 1.505 . S
C819 C85 1.563 . S
C849 C52 1.135 . S
C854 C214 1.181 . S
C884 C137 2.223 . S
C879 C73 2.270 . S
C914 C97 1.997 . S
C909 C82 1.927 . S
C939 C60 1.474 . S
C944 C183 1.568 . S
