# Generated by pormake.
# Topology iac, (4,6)-cn, num edge types: 1
# Building blocks:
#     Node 0, Type 0, BuildingBlock: NAHDIM_clean_sbu_0, # of connection points: 4
#     Node 1, Type 0, BuildingBlock: NAHDIM_clean_sbu_0, # of connection points: 4
#     Node 2, Type 0, BuildingBlock: NAHDIM_clean_sbu_0, # of connection points: 4
#     Node 3, Type 0, BuildingBlock: NAHDIM_clean_sbu_0, # of connection points: 4
#     Node 4, Type 0, BuildingBlock: NAHDIM_clean_sbu_0, # of connection points: 4
#     Node 5, Type 0, BuildingBlock: NAHDIM_clean_sbu_0, # of connection points: 4
#     Node 6, Type 0, BuildingBlock: NAHDIM_clean_sbu_0, # of connection points: 4
#     Node 7, Type 0, BuildingBlock: NAHDIM_clean_sbu_0, # of connection points: 4
#     Node 8, Type 0, BuildingBlock: NAHDIM_clean_sbu_0, # of connection points: 4
#     Node 9, Type 0, BuildingBlock: NAHDIM_clean_sbu_0, # of connection points: 4
#     Node 10, Type 0, BuildingBlock: NAHDIM_clean_sbu_0, # of connection points: 4
#     Node 11, Type 0, BuildingBlock: NAHDIM_clean_sbu_0, # of connection points: 4
#     Node 12, Type 0, BuildingBlock: NAHDIM_clean_sbu_0, # of connection points: 4
#     Node 13, Type 0, BuildingBlock: NAHDIM_clean_sbu_0, # of connection points: 4
#     Node 14, Type 0, BuildingBlock: NAHDIM_clean_sbu_0, # of connection points: 4
#     Node 15, Type 0, BuildingBlock: NAHDIM_clean_sbu_0, # of connection points: 4
#     Node 16, Type 0, BuildingBlock: NAHDIM_clean_sbu_0, # of connection points: 4
#     Node 17, Type 0, BuildingBlock: NAHDIM_clean_sbu_0, # of connection points: 4
#     Node 18, Type 0, BuildingBlock: NAHDIM_clean_sbu_0, # of connection points: 4
#     Node 19, Type 0, BuildingBlock: NAHDIM_clean_sbu_0, # of connection points: 4
#     Node 20, Type 0, BuildingBlock: NAHDIM_clean_sbu_0, # of connection points: 4
#     Node 21, Type 0, BuildingBlock: NAHDIM_clean_sbu_0, # of connection points: 4
#     Node 22, Type 0, BuildingBlock: NAHDIM_clean_sbu_0, # of connection points: 4
#     Node 23, Type 0, BuildingBlock: NAHDIM_clean_sbu_0, # of connection points: 4
#     Node 24, Type 1, BuildingBlock: VOLQOD_clean_sbu_1, # of connection points: 6
#     Node 25, Type 1, BuildingBlock: VOLQOD_clean_sbu_1, # of connection points: 6
#     Node 26, Type 1, BuildingBlock: VOLQOD_clean_sbu_1, # of connection points: 6
#     Node 27, Type 1, BuildingBlock: VOLQOD_clean_sbu_1, # of connection points: 6
#     Node 28, Type 1, BuildingBlock: VOLQOD_clean_sbu_1, # of connection points: 6
#     Node 29, Type 1, BuildingBlock: VOLQOD_clean_sbu_1, # of connection points: 6
#     Node 30, Type 1, BuildingBlock: VOLQOD_clean_sbu_1, # of connection points: 6
#     Node 31, Type 1, BuildingBlock: VOLQOD_clean_sbu_1, # of connection points: 6
#     Node 32, Type 1, BuildingBlock: VOLQOD_clean_sbu_1, # of connection points: 6
#     Node 33, Type 1, BuildingBlock: VOLQOD_clean_sbu_1, # of connection points: 6
#     Node 34, Type 1, BuildingBlock: VOLQOD_clean_sbu_1, # of connection points: 6
#     Node 35, Type 1, BuildingBlock: VOLQOD_clean_sbu_1, # of connection points: 6
#     Node 36, Type 1, BuildingBlock: VOLQOD_clean_sbu_1, # of connection points: 6
#     Node 37, Type 1, BuildingBlock: VOLQOD_clean_sbu_1, # of connection points: 6
#     Node 38, Type 1, BuildingBlock: VOLQOD_clean_sbu_1, # of connection points: 6
#     Node 39, Type 1, BuildingBlock: VOLQOD_clean_sbu_1, # of connection points: 6
#     Edge 40, Type (0, 1), BuildingBlock: KIFKEQ_clean_linker_1, # of connection points: 2
#     Edge 41, Type (0, 1), BuildingBlock: KIFKEQ_clean_linker_1, # of connection points: 2
#     Edge 42, Type (0, 1), BuildingBlock: KIFKEQ_clean_linker_1, # of connection points: 2
#     Edge 43, Type (0, 1), BuildingBlock: KIFKEQ_clean_linker_1, # of connection points: 2
#     Edge 44, Type (0, 1), BuildingBlock: KIFKEQ_clean_linker_1, # of connection points: 2
#     Edge 45, Type (0, 1), BuildingBlock: KIFKEQ_clean_linker_1, # of connection points: 2
#     Edge 46, Type (0, 1), BuildingBlock: KIFKEQ_clean_linker_1, # of connection points: 2
#     Edge 47, Type (0, 1), BuildingBlock: KIFKEQ_clean_linker_1, # of connection points: 2
#     Edge 48, Type (0, 1), BuildingBlock: KIFKEQ_clean_linker_1, # of connection points: 2
#     Edge 49, Type (0, 1), BuildingBlock: KIFKEQ_clean_linker_1, # of connection points: 2
#     Edge 50, Type (0, 1), BuildingBlock: KIFKEQ_clean_linker_1, # of connection points: 2
#     Edge 51, Type (0, 1), BuildingBlock: KIFKEQ_clean_linker_1, # of connection points: 2
#     Edge 52, Type (0, 1), BuildingBlock: KIFKEQ_clean_linker_1, # of connection points: 2
#     Edge 53, Type (0, 1), BuildingBlock: KIFKEQ_clean_linker_1, # of connection points: 2
#     Edge 54, Type (0, 1), BuildingBlock: KIFKEQ_clean_linker_1, # of connection points: 2
#     Edge 55, Type (0, 1), BuildingBlock: KIFKEQ_clean_linker_1, # of connection points: 2
#     Edge 56, Type (0, 1), BuildingBlock: KIFKEQ_clean_linker_1, # of connection points: 2
#     Edge 57, Type (0, 1), BuildingBlock: KIFKEQ_clean_linker_1, # of connection points: 2
#     Edge 58, Type (0, 1), BuildingBlock: KIFKEQ_clean_linker_1, # of connection points: 2
#     Edge 59, Type (0, 1), BuildingBlock: KIFKEQ_clean_linker_1, # of connection points: 2
#     Edge 60, Type (0, 1), BuildingBlock: KIFKEQ_clean_linker_1, # of connection points: 2
#     Edge 61, Type (0, 1), BuildingBlock: KIFKEQ_clean_linker_1, # of connection points: 2
#     Edge 62, Type (0, 1), BuildingBlock: KIFKEQ_clean_linker_1, # of connection points: 2
#     Edge 63, Type (0, 1), BuildingBlock: KIFKEQ_clean_linker_1, # of connection points: 2
#     Edge 64, Type (0, 1), BuildingBlock: KIFKEQ_clean_linker_1, # of connection points: 2
#     Edge 65, Type (0, 1), BuildingBlock: KIFKEQ_clean_linker_1, # of connection points: 2
#     Edge 66, Type (0, 1), BuildingBlock: KIFKEQ_clean_linker_1, # of connection points: 2
#     Edge 67, Type (0, 1), BuildingBlock: KIFKEQ_clean_linker_1, # of connection points: 2
#     Edge 68, Type (0, 1), BuildingBlock: KIFKEQ_clean_linker_1, # of connection points: 2
#     Edge 69, Type (0, 1), BuildingBlock: KIFKEQ_clean_linker_1, # of connection points: 2
#     Edge 70, Type (0, 1), BuildingBlock: KIFKEQ_clean_linker_1, # of connection points: 2
#     Edge 71, Type (0, 1), BuildingBlock: KIFKEQ_clean_linker_1, # of connection points: 2
#     Edge 72, Type (0, 1), BuildingBlock: KIFKEQ_clean_linker_1, # of connection points: 2
#     Edge 73, Type (0, 1), BuildingBlock: KIFKEQ_clean_linker_1, # of connection points: 2
#     Edge 74, Type (0, 1), BuildingBlock: KIFKEQ_clean_linker_1, # of connection points: 2
#     Edge 75, Type (0, 1), BuildingBlock: KIFKEQ_clean_linker_1, # of connection points: 2
#     Edge 76, Type (0, 1), BuildingBlock: KIFKEQ_clean_linker_1, # of connection points: 2
#     Edge 77, Type (0, 1), BuildingBlock: KIFKEQ_clean_linker_1, # of connection points: 2
#     Edge 78, Type (0, 1), BuildingBlock: KIFKEQ_clean_linker_1, # of connection points: 2
#     Edge 79, Type (0, 1), BuildingBlock: KIFKEQ_clean_linker_1, # of connection points: 2
#     Edge 80, Type (0, 1), BuildingBlock: KIFKEQ_clean_linker_1, # of connection points: 2
#     Edge 81, Type (0, 1), BuildingBlock: KIFKEQ_clean_linker_1, # of connection points: 2
#     Edge 82, Type (0, 1), BuildingBlock: KIFKEQ_clean_linker_1, # of connection points: 2
#     Edge 83, Type (0, 1), BuildingBlock: KIFKEQ_clean_linker_1, # of connection points: 2
#     Edge 84, Type (0, 1), BuildingBlock: KIFKEQ_clean_linker_1, # of connection points: 2
#     Edge 85, Type (0, 1), BuildingBlock: KIFKEQ_clean_linker_1, # of connection points: 2
#     Edge 86, Type (0, 1), BuildingBlock: KIFKEQ_clean_linker_1, # of connection points: 2
#     Edge 87, Type (0, 1), BuildingBlock: KIFKEQ_clean_linker_1, # of connection points: 2
#     Edge 88, Type (0, 1), BuildingBlock: KIFKEQ_clean_linker_1, # of connection points: 2
#     Edge 89, Type (0, 1), BuildingBlock: KIFKEQ_clean_linker_1, # of connection points: 2
#     Edge 90, Type (0, 1), BuildingBlock: KIFKEQ_clean_linker_1, # of connection points: 2
#     Edge 91, Type (0, 1), BuildingBlock: KIFKEQ_clean_linker_1, # of connection points: 2
#     Edge 92, Type (0, 1), BuildingBlock: KIFKEQ_clean_linker_1, # of connection points: 2
#     Edge 93, Type (0, 1), BuildingBlock: KIFKEQ_clean_linker_1, # of connection points: 2
#     Edge 94, Type (0, 1), BuildingBlock: KIFKEQ_clean_linker_1, # of connection points: 2
#     Edge 95, Type (0, 1), BuildingBlock: KIFKEQ_clean_linker_1, # of connection points: 2
#     Edge 96, Type (0, 1), BuildingBlock: KIFKEQ_clean_linker_1, # of connection points: 2
#     Edge 97, Type (0, 1), BuildingBlock: KIFKEQ_clean_linker_1, # of connection points: 2
#     Edge 98, Type (0, 1), BuildingBlock: KIFKEQ_clean_linker_1, # of connection points: 2
#     Edge 99, Type (0, 1), BuildingBlock: KIFKEQ_clean_linker_1, # of connection points: 2
#     Edge 100, Type (0, 1), BuildingBlock: KIFKEQ_clean_linker_1, # of connection points: 2
#     Edge 101, Type (0, 1), BuildingBlock: KIFKEQ_clean_linker_1, # of connection points: 2
#     Edge 102, Type (0, 1), BuildingBlock: KIFKEQ_clean_linker_1, # of connection points: 2
#     Edge 103, Type (0, 1), BuildingBlock: KIFKEQ_clean_linker_1, # of connection points: 2
#     Edge 104, Type (0, 1), BuildingBlock: KIFKEQ_clean_linker_1, # of connection points: 2
#     Edge 105, Type (0, 1), BuildingBlock: KIFKEQ_clean_linker_1, # of connection points: 2
#     Edge 106, Type (0, 1), BuildingBlock: KIFKEQ_clean_linker_1, # of connection points: 2
#     Edge 107, Type (0, 1), BuildingBlock: KIFKEQ_clean_linker_1, # of connection points: 2
#     Edge 108, Type (0, 1), BuildingBlock: KIFKEQ_clean_linker_1, # of connection points: 2
#     Edge 109, Type (0, 1), BuildingBlock: KIFKEQ_clean_linker_1, # of connection points: 2
#     Edge 110, Type (0, 1), BuildingBlock: KIFKEQ_clean_linker_1, # of connection points: 2
#     Edge 111, Type (0, 1), BuildingBlock: KIFKEQ_clean_linker_1, # of connection points: 2
#     Edge 112, Type (0, 1), BuildingBlock: KIFKEQ_clean_linker_1, # of connection points: 2
#     Edge 113, Type (0, 1), BuildingBlock: KIFKEQ_clean_linker_1, # of connection points: 2
#     Edge 114, Type (0, 1), BuildingBlock: KIFKEQ_clean_linker_1, # of connection points: 2
#     Edge 115, Type (0, 1), BuildingBlock: KIFKEQ_clean_linker_1, # of connection points: 2
#     Edge 116, Type (0, 1), BuildingBlock: KIFKEQ_clean_linker_1, # of connection points: 2
#     Edge 117, Type (0, 1), BuildingBlock: KIFKEQ_clean_linker_1, # of connection points: 2
#     Edge 118, Type (0, 1), BuildingBlock: KIFKEQ_clean_linker_1, # of connection points: 2
#     Edge 119, Type (0, 1), BuildingBlock: KIFKEQ_clean_linker_1, # of connection points: 2
#     Edge 120, Type (0, 1), BuildingBlock: KIFKEQ_clean_linker_1, # of connection points: 2
#     Edge 121, Type (0, 1), BuildingBlock: KIFKEQ_clean_linker_1, # of connection points: 2
#     Edge 122, Type (0, 1), BuildingBlock: KIFKEQ_clean_linker_1, # of connection points: 2
#     Edge 123, Type (0, 1), BuildingBlock: KIFKEQ_clean_linker_1, # of connection points: 2
#     Edge 124, Type (0, 1), BuildingBlock: KIFKEQ_clean_linker_1, # of connection points: 2
#     Edge 125, Type (0, 1), BuildingBlock: KIFKEQ_clean_linker_1, # of connection points: 2
#     Edge 126, Type (0, 1), BuildingBlock: KIFKEQ_clean_linker_1, # of connection points: 2
#     Edge 127, Type (0, 1), BuildingBlock: KIFKEQ_clean_linker_1, # of connection points: 2
#     Edge 128, Type (0, 1), BuildingBlock: KIFKEQ_clean_linker_1, # of connection points: 2
#     Edge 129, Type (0, 1), BuildingBlock: KIFKEQ_clean_linker_1, # of connection points: 2
#     Edge 130, Type (0, 1), BuildingBlock: KIFKEQ_clean_linker_1, # of connection points: 2
#     Edge 131, Type (0, 1), BuildingBlock: KIFKEQ_clean_linker_1, # of connection points: 2
#     Edge 132, Type (0, 1), BuildingBlock: KIFKEQ_clean_linker_1, # of connection points: 2
#     Edge 133, Type (0, 1), BuildingBlock: KIFKEQ_clean_linker_1, # of connection points: 2
#     Edge 134, Type (0, 1), BuildingBlock: KIFKEQ_clean_linker_1, # of connection points: 2
#     Edge 135, Type (0, 1), BuildingBlock: KIFKEQ_clean_linker_1, # of connection points: 2
# Relax obj value: 0.316
# Max RMSD: 0.290
# Mean RMSD: 0.182
data_MOF--net-iac--node1-NAHDIM_clean_sbu_0--node2-VOLQOD_clean_sbu_1--edge1-KIFKEQ_clean_linker_1
_symmetry_space_group_name_H-M    P1
_symmetry_Int_Tables_number       1
_symmetry_cell_setting            triclinic
loop_
_symmetry_equiv_pos_as_xyz
'x, y, z'
_cell_length_a     56.822325
_cell_length_b     55.630904
_cell_length_c     54.080769
_cell_angle_alpha  90.020323
_cell_angle_beta   90.492263
_cell_angle_gamma 91.149966
loop_
_atom_site_label
_atom_site_type_symbol
_atom_site_fract_x
_atom_site_fract_y
_atom_site_fract_z
_atom_type_partial_charge
C0 C 0.95497 0.24449 0.15366 0.0
O1 O 0.97331 0.23161 0.15956 0.0
O2 O 0.98695 0.22493 0.10118 0.0
Zn3 Zn 0.98576 0.2581 0.11547 0.0
O4 O 0.98575 0.28422 0.08979 0.0
C5 C 0.03317 0.25514 0.1341 0.0
O6 O 0.03514 0.2399 0.11571 0.0
O7 O 0.95626 0.25861 0.13523 0.0
C8 C 0.00368 0.28726 0.07618 0.0
O9 O 0.02058 0.27152 0.07722 0.0
C10 C 0.97004 0.21733 0.0876 0.0
O11 O 0.95353 0.23228 0.08097 0.0
O12 O 0.01341 0.26459 0.13808 0.0
C13 C 0.04677 0.69696 0.32944 0.0
O14 O 0.02969 0.68105 0.32589 0.0
O15 O 0.01456 0.68499 0.39215 0.0
Zn16 Zn 0.01725 0.71296 0.36896 0.0
O17 O 0.01982 0.7427 0.38997 0.0
C18 C 0.97694 0.6995 0.3369 0.0
O19 O 0.98137 0.67715 0.34293 0.0
O20 O 0.04571 0.71139 0.3476 0.0
C21 C 0.00874 0.74396 0.41025 0.0
O22 O -0.0048 0.72579 0.41712 0.0
C23 C 0.03019 0.68395 0.40907 0.0
O24 O 0.0482 0.69912 0.40843 0.0
O25 O 0.98924 0.71648 0.34643 0.0
C26 C 0.45778 0.77506 0.70962 0.0
O27 O 0.4627 0.79208 0.69355 0.0
O28 O 0.49388 0.72856 0.66973 0.0
Zn29 Zn 0.50091 0.757 0.69152 0.0
O30 O 0.50447 0.78641 0.67028 0.0
C31 C 0.54774 0.7423 0.69775 0.0
O32 O 0.54164 0.72974 0.67807 0.0
O33 O 0.47304 0.75919 0.714 0.0
C34 C 0.51592 0.78591 0.65021 0.0
O35 O 0.52483 0.76556 0.64278 0.0
C36 C 0.47848 0.72999 0.65264 0.0
O37 O 0.46768 0.75038 0.64912 0.0
O38 O 0.53207 0.75399 0.70897 0.0
C39 C 0.54036 0.2513 0.83815 0.0
O40 O 0.52597 0.23258 0.83963 0.0
O41 O 0.51885 0.24248 0.90183 0.0
Zn42 Zn 0.51205 0.26907 0.87778 0.0
O43 O 0.51263 0.30126 0.8952 0.0
C44 C 0.46389 0.25272 0.87274 0.0
O45 O 0.4674 0.24596 0.89573 0.0
O46 O 0.53741 0.26916 0.85237 0.0
C47 C 0.49442 0.31397 0.89747 0.0
O48 O 0.47426 0.30608 0.88823 0.0
C49 C 0.51845 0.24522 0.92515 0.0
O50 O 0.51327 0.26629 0.93437 0.0
O51 O 0.48065 0.26293 0.86109 0.0
C52 C 0.15731 0.98062 0.2206 0.0
O53 O 0.14303 -0.00502 0.20872 0.0
O54 O 0.10567 0.00311 0.24395 0.0
Zn55 Zn 0.13736 0.00556 0.26046 0.0
O56 O 0.13123 -0.00117 0.2963 0.0
C57 C 0.16994 0.04588 0.25104 0.0
O58 O 0.18402 0.02986 0.24169 0.0
O59 O 0.15873 0.98201 0.24405 0.0
C60 C 0.11593 0.01316 0.30443 0.0
O61 O 0.108 0.02996 0.28964 0.0
C62 C 0.09257 0.98514 0.24947 0.0
O63 O 0.10061 0.96885 0.26478 0.0
O64 O 0.14982 0.03933 0.25882 0.0
C65 C 0.23489 0.90452 0.50205 0.0
O66 O 0.24859 0.8924 0.51698 0.0
O67 O 0.26013 0.85052 0.48801 0.0
Zn68 Zn 0.26193 0.87982 0.46641 0.0
O69 O 0.25511 0.87021 0.43133 0.0
C70 C 0.30563 0.89484 0.48882 0.0
O71 O 0.29651 0.88383 0.50807 0.0
O72 O 0.23764 0.90265 0.4788 0.0
C73 C 0.26459 0.85119 0.42356 0.0
O74 O 0.27822 0.8391 0.43863 0.0
C75 C 0.24032 0.8398 0.49036 0.0
O76 O 0.2222 0.84742 0.47753 0.0
O77 O 0.29407 0.89526 0.46863 0.0
C78 C 0.32102 0.01039 0.74666 0.0
O79 O 0.32957 -0.00014 0.72704 0.0
O80 O 0.37543 0.98599 0.74428 0.0
Zn81 Zn 0.35191 0.97839 0.77058 0.0
O82 O 0.3684 0.98107 0.80343 0.0
C83 C 0.31802 0.94067 0.77768 0.0
O84 O 0.31042 0.95594 0.79415 0.0
O85 O 0.32761 0.00364 0.76802 0.0
C86 C 0.35782 0.98692 0.82307 0.0
O87 O 0.33506 0.99053 0.82237 0.0
C88 C 0.39588 0.97736 0.74304 0.0
O89 O 0.40245 0.96116 0.75923 0.0
O90 O 0.33627 0.94609 0.76528 0.0
C91 C 0.25493 0.07735 0.06473 0.0
O92 O 0.24303 0.08581 0.08342 0.0
O93 O 0.21336 0.12114 0.05959 0.0
Zn94 Zn 0.21489 0.09277 0.03676 0.0
O95 O 0.21489 0.1048 0.00205 0.0
C96 C 0.17827 0.06407 0.0609 0.0
O97 O 0.18647 0.07347 0.08161 0.0
O98 O 0.24566 0.07724 0.04325 0.0
C99 C 0.19625 0.1116 0.99125 0.0
O100 O 0.17602 0.10962 0.00274 0.0
C101 C 0.22321 0.14082 0.05298 0.0
O102 O 0.23235 0.14251 0.03081 0.0
O103 O 0.1879 0.0697 0.04058 0.0
C104 C 0.73653 0.44557 0.03036 0.0
O105 O 0.74407 0.43807 0.05199 0.0
O106 O 0.76607 0.39358 0.04295 0.0
Zn107 Zn 0.77141 0.41355 0.01269 0.0
O108 O 0.76863 0.39184 0.9833 0.0
C109 C 0.81073 0.44189 0.03161 0.0
O110 O 0.79889 0.44118 0.05236 0.0
O111 O 0.74592 0.4377 0.0108 0.0
C112 C 0.78648 0.3832 0.97278 0.0
O113 O 0.80767 0.38906 0.98095 0.0
C114 C 0.77462 0.37288 0.04602 0.0
O115 O 0.78929 0.3645 0.02964 0.0
O116 O 0.80255 0.43092 0.01274 0.0
C117 C 0.83768 0.51753 0.2623 0.0
O118 O 0.82628 0.5041 0.27839 0.0
O119 O 0.90977 0.49205 0.2635 0.0
Zn120 Zn 0.87942 0.49487 0.28176 0.0
O121 O 0.8856 0.50728 0.31606 0.0
C122 C 0.87066 0.4431 0.28629 0.0
O123 O 0.8936 0.44098 0.28495 0.0
O124 O 0.85998 0.51705 0.26156 0.0
C125 C 0.90295 0.49788 0.32709 0.0
O126 O 0.91545 0.48202 0.31523 0.0
C127 C 0.92236 0.51118 0.26294 0.0
O128 O 0.91541 0.53007 0.2753 0.0
O129 O 0.86169 0.46374 0.28473 0.0
C130 C 0.75848 0.58258 0.5272 0.0
O131 O 0.74991 0.56914 0.50915 0.0
O132 O 0.73671 0.65775 0.51446 0.0
Zn133 Zn 0.7356 0.62357 0.50276 0.0
O134 O 0.75016 0.62379 0.46927 0.0
C135 C 0.69242 0.5985 0.51622 0.0
O136 O 0.70427 0.5927 0.53623 0.0
O137 O 0.75445 0.60494 0.52742 0.0
C138 C 0.7433 0.61141 0.45077 0.0
O139 O 0.7266 0.59498 0.45356 0.0
C140 C 0.7552 0.67008 0.50965 0.0
O141 O 0.77195 0.6602 0.49676 0.0
O142 O 0.70224 0.61159 0.49993 0.0
C143 C 0.69629 0.48686 0.69845 0.0
O144 O 0.6872 0.49364 0.67721 0.0
O145 O 0.64433 0.52237 0.69307 0.0
Zn146 Zn 0.67038 0.5264 0.71826 0.0
O147 O 0.65563 0.52986 0.75146 0.0
C148 C 0.69996 0.56473 0.69508 0.0
O149 O 0.69615 0.55477 0.67335 0.0
O150 O 0.69119 0.49805 0.7181 0.0
C151 C 0.64011 0.54586 0.75348 0.0
O152 O 0.63469 0.5589 0.73407 0.0
C153 C 0.62674 0.50941 0.69959 0.0
O154 O 0.62693 0.49921 0.72149 0.0
O155 O 0.6904 0.55581 0.71418 0.0
C156 C 0.03382 0.74513 0.84132 0.0
O157 O 0.01646 0.7292 0.84147 0.0
O158 O 0.00896 0.72941 0.90308 0.0
Zn159 Zn 0.00761 0.75887 0.8817 0.0
O160 O 0.0067 0.787 0.90483 0.0
C161 C 0.96573 0.744 0.85106 0.0
O162 O 0.96743 0.72206 0.85979 0.0
O163 O 0.03536 0.76039 0.85881 0.0
C164 C 0.01728 0.78641 0.92563 0.0
O165 O 0.03092 0.76826 0.93077 0.0
C166 C 0.99238 0.72295 0.9174 0.0
O167 O 0.97215 0.73392 0.91629 0.0
O168 O 0.97949 0.76057 0.85905 0.0
C169 C 0.97093 0.22314 0.66425 0.0
O170 O 0.9817 0.20248 0.66503 0.0
O171 O 0.9903 0.20886 0.59473 0.0
Zn172 Zn -0.00471 0.23721 0.61706 0.0
O173 O 0.98901 0.26865 0.60075 0.0
C174 C 0.03718 0.21722 0.63686 0.0
O175 O 0.02542 0.19695 0.63314 0.0
O176 O 0.974 0.23738 0.64619 0.0
C177 C 0.992 0.28602 0.6158 0.0
O178 O 0.00081 0.28163 0.63785 0.0
C179 C 0.97351 0.19372 0.59734 0.0
O180 O 0.95723 0.19774 0.61385 0.0
O181 O 0.02801 0.23692 0.63046 0.0
C182 C 0.52249 0.27042 0.35017 0.0
O183 O 0.502 0.27444 0.33972 0.0
O184 O 0.49568 0.2301 0.41419 0.0
Zn185 Zn 0.49423 0.25969 0.39306 0.0
O186 O 0.49269 0.28859 0.41466 0.0
C187 C 0.45695 0.24145 0.3596 0.0
O188 O 0.46639 0.22022 0.36209 0.0
O189 O 0.52336 0.26347 0.37255 0.0
C190 C 0.47345 0.29503 0.42412 0.0
O191 O 0.45429 0.28187 0.42035 0.0
C192 C 0.47758 0.21962 0.42314 0.0
O193 O 0.45659 0.22793 0.41816 0.0
O194 O 0.46575 0.25942 0.37111 0.0
C195 C 0.46292 0.75933 0.132 0.0
O196 O 0.4697 0.76579 0.10976 0.0
O197 O 0.52158 0.75 0.10964 0.0
Zn198 Zn 0.51085 0.76721 0.13995 0.0
O199 O 0.50763 0.80149 0.13093 0.0
C200 C 0.53688 0.7407 0.17466 0.0
O201 O 0.52485 0.72309 0.16399 0.0
O202 O 0.47835 0.75673 0.14886 0.0
C203 C 0.50078 0.81735 0.14595 0.0
O204 O 0.49872 0.81219 0.16954 0.0
C205 C 0.54281 0.7444 0.10576 0.0
O206 O 0.55907 0.74917 0.12255 0.0
O207 O 0.53323 0.76219 0.16795 0.0
C208 C 0.86857 0.05176 0.78522 0.0
O209 O 0.86376 0.03384 0.80029 0.0
O210 O 0.9236 0.00892 0.74687 0.0
Zn211 Zn 0.89657 0.01564 0.76949 0.0
O212 O 0.90559 0.00762 0.80432 0.0
C213 C 0.86233 0.00022 0.73557 0.0
O214 O 0.87324 0.01716 0.72289 0.0
O215 O 0.88447 0.04918 0.76905 0.0
C216 C 0.8982 0.98928 0.81611 0.0
O217 O 0.88421 0.97351 0.80502 0.0
C218 C 0.92866 0.98674 0.74639 0.0
O219 O 0.91712 0.97183 0.76096 0.0
O220 O 0.86937 -0.00445 0.75739 0.0
C221 C 0.81647 0.06946 0.4912 0.0
O222 O 0.81821 0.08815 0.47645 0.0
O223 O 0.79302 0.12081 0.5399 0.0
Zn224 Zn 0.78103 0.09786 0.51381 0.0
O225 O 0.77626 0.11473 0.48147 0.0
C226 C 0.74635 0.06744 0.53888 0.0
O227 O 0.76365 0.05254 0.54269 0.0
O228 O 0.80207 0.06981 0.50902 0.0
C229 C 0.75754 0.12596 0.47662 0.0
O230 O 0.74077 0.12656 0.49318 0.0
C231 C 0.793 0.14348 0.53692 0.0
O232 O 0.78864 0.15228 0.51486 0.0
O233 O 0.7499 0.08653 0.52648 0.0
C234 C 0.66728 0.92521 0.27594 0.0
O235 O 0.64568 0.92126 0.28366 0.0
O236 O 0.62841 0.97491 0.23952 0.0
Zn237 Zn 0.65097 0.97331 0.26823 0.0
O238 O 0.63233 0.9728 0.29951 0.0
C239 C 0.6783 0.0095 0.24531 0.0
O240 O 0.67653 -0.00599 0.227 0.0
O241 O 0.67297 0.94573 0.26737 0.0
C242 C 0.64025 0.96593 0.32031 0.0
O243 O 0.66208 0.95877 0.32217 0.0
C244 C 0.61483 0.99273 0.24134 0.0
O245 O 0.6159 0.0059 0.26151 0.0
O246 O 0.66964 0.00392 0.26617 0.0
C247 C 0.66779 0.88796 0.99162 0.0
O248 O 0.66541 0.86579 -0.00028 0.0
O249 O 0.71861 0.84922 0.00825 0.0
Zn250 Zn 0.71868 0.87907 0.9872 0.0
O251 O 0.72814 0.87032 0.95288 0.0
C252 C 0.73996 0.90452 0.02649 0.0
O253 O 0.7232 0.89272 0.03825 0.0
O254 O 0.68801 0.89602 0.98572 0.0
C255 C 0.74826 0.87491 0.94378 0.0
O256 O 0.76415 0.88668 0.95708 0.0
C257 C 0.73775 0.83769 0.00845 0.0
O258 O 0.75481 0.84473 0.99373 0.0
O259 O 0.74178 0.90191 0.00324 0.0
C260 C 0.2948 0.57611 0.94031 0.0
O261 O 0.28145 0.5711 0.92096 0.0
O262 O 0.24429 0.61373 0.98606 0.0
Zn263 Zn 0.25059 0.58546 0.96415 0.0
O264 O 0.23576 0.59087 0.93093 0.0
C265 C 0.24381 0.55453 0.00412 0.0
O266 O 0.26093 0.56864 0.01248 0.0
O267 O 0.2853 0.58227 0.96047 0.0
C268 C 0.21711 0.60288 0.92851 0.0
O269 O 0.20604 0.61001 0.94835 0.0
C270 C 0.24618 0.63588 0.98055 0.0
O271 O 0.25346 0.64219 0.95844 0.0
O272 O 0.2369 0.55698 0.98185 0.0
C273 C 0.15822 0.45241 0.80773 0.0
O274 O 0.13996 0.46072 0.8195 0.0
O275 O 0.12698 0.49676 0.7612 0.0
Zn276 Zn 0.1558 0.49773 0.78314 0.0
O277 O 0.14789 0.51329 0.8153 0.0
C278 C 0.18356 0.5117 0.7423 0.0
O279 O 0.17134 0.49388 0.73225 0.0
O280 O 0.16758 0.4649 0.79064 0.0
C281 C 0.13269 0.52959 0.81726 0.0
O282 O 0.123 0.53848 0.7972 0.0
C283 C 0.1058 0.49308 0.76784 0.0
O284 O 0.1013 0.48765 0.79098 0.0
O285 O 0.18054 0.51661 0.76501 0.0
C286 C 0.17599 0.41503 0.51953 0.0
O287 O 0.18727 0.4171 0.49851 0.0
O288 O 0.22028 0.35968 0.55524 0.0
Zn289 Zn 0.21517 0.38609 0.53079 0.0
O290 O 0.21587 0.37356 0.49614 0.0
C291 C 0.26077 0.40456 0.54489 0.0
O292 O 0.26444 0.38172 0.54928 0.0
O293 O 0.18446 0.402 0.53657 0.0
C294 C 0.20333 0.3556 0.48921 0.0
O295 O 0.19002 0.34427 0.50537 0.0
C296 C 0.21829 0.36554 0.57779 0.0
O297 O 0.21101 0.38718 0.58321 0.0
O298 O 0.24101 0.41081 0.53606 0.0
C299 C 0.34565 0.55979 0.23983 0.0
O300 O 0.34413 0.5462 0.25964 0.0
O301 O 0.41218 0.53073 0.21076 0.0
Zn302 Zn 0.38616 0.53243 0.23532 0.0
O303 O 0.39707 0.54007 0.26989 0.0
C304 C 0.35492 0.4957 0.21725 0.0
O305 O 0.35285 0.51093 0.19883 0.0
O306 O 0.36309 0.55744 0.22554 0.0
C307 C 0.4178 0.54489 0.27763 0.0
O308 O 0.43549 0.54453 0.26217 0.0
C309 C 0.423 0.54935 0.20295 0.0
O310 O 0.41791 0.57043 0.21224 0.0
O311 O 0.36871 0.50092 0.23517 0.0
O312 O 0.9586 0.02941 0.04895 0.0
Zn313 Zn 0.96794 -0.00397 0.04003 0.0
O314 O 0.95482 0.97298 0.06327 0.0
Zn315 Zn 0.98001 0.95397 0.07695 0.0
Zn316 Zn 0.93826 0.9895 0.0896 0.0
Zn317 Zn 0.93348 0.95142 0.04586 0.0
O318 O 0.98144 0.92125 0.06118 0.0
O319 O 0.94715 0.91886 0.04145 0.0
O320 O 0.00324 -0.00339 0.04143 0.0
O321 O 0.01125 0.97013 0.07082 0.0
O322 O 0.97715 0.9516 0.11362 0.0
O323 O 0.95284 0.98114 0.12266 0.0
O324 O 0.90371 0.97944 0.08987 0.0
O325 O 0.95663 0.98955 0.00547 0.0
O326 O 0.90283 0.94888 0.06321 0.0
O327 O 0.9276 0.96288 0.01115 0.0
C328 C 0.94879 0.03864 0.06765 0.0
C329 C 0.96668 0.90973 0.04762 0.0
C330 C 0.96709 0.9649 0.12935 0.0
C331 C 0.01791 0.98618 0.05551 0.0
C332 C 0.89295 0.96189 0.07928 0.0
C333 C 0.93943 0.97688 -0.00286 0.0
O334 O 0.94081 0.02561 0.0852 0.0
O335 O 0.21041 0.73096 0.1411 0.0
Zn336 Zn 0.21288 0.73277 0.17803 0.0
O337 O 0.22861 0.76273 0.18787 0.0
Zn338 Zn 0.25368 0.75504 0.21075 0.0
Zn339 Zn 0.24129 0.77998 0.15915 0.0
Zn340 Zn 0.20658 0.78285 0.20478 0.0
O341 O 0.25245 0.77394 0.24204 0.0
O342 O 0.21901 0.79347 0.23824 0.0
O343 O 0.23127 0.70407 0.18945 0.0
O344 O 0.25393 0.72009 0.21898 0.0
O345 O 0.28461 0.76153 0.19514 0.0
O346 O 0.27693 0.77969 0.15953 0.0
O347 O 0.23002 0.81457 0.15852 0.0
O348 O 0.18083 0.72935 0.19363 0.0
O349 O 0.20074 0.81271 0.18561 0.0
O350 O 0.17639 0.76515 0.21091 0.0
C351 C 0.21898 0.74352 0.12352 0.0
C352 C 0.2375 0.78845 0.25049 0.0
C353 C 0.2915 0.77113 0.17509 0.0
C354 C 0.24577 0.70185 0.20734 0.0
C355 C 0.21245 0.82392 0.16915 0.0
C356 C 0.16873 0.74401 0.2061 0.0
O357 O 0.2312 0.76262 0.1277 0.0
O358 O 0.52355 0.9438 0.53778 0.0
Zn359 Zn 0.5148 0.97191 0.51648 0.0
O360 O 0.51955 0.00227 0.53454 0.0
Zn361 Zn 0.48963 0.01841 0.53938 0.0
Zn362 Zn 0.53491 -0.00378 0.56647 0.0
Zn363 Zn 0.53953 0.02321 0.5153 0.0
O364 O 0.48877 0.05164 0.52365 0.0
O365 O 0.52379 0.05335 0.50601 0.0
O366 O 0.48058 0.96707 0.50758 0.0
O367 O 0.46331 -0.00155 0.5246 0.0
O368 O 0.48264 0.02082 0.57562 0.0
O369 O 0.51445 0.00683 0.59443 0.0
O370 O 0.56715 0.01218 0.56931 0.0
O371 O 0.53398 0.9707 0.48517 0.0
O372 O 0.56871 0.03206 0.53378 0.0
O373 O 0.54934 0.00765 0.48407 0.0
C374 C 0.53286 0.94217 0.5592 0.0
C375 C 0.50403 0.06261 0.51045 0.0
C376 C 0.49393 0.01559 0.59528 0.0
C377 C 0.46218 0.97881 0.51251 0.0
C378 C 0.57777 0.02638 0.55448 0.0
C379 C 0.54641 0.9869 0.47458 0.0
O380 O 0.53847 0.96082 0.57172 0.0
O381 O 0.2344 0.2218 0.83482 0.0
Zn382 Zn 0.24786 0.24444 0.80953 0.0
O383 O 0.23943 0.23279 0.7767 0.0
Zn384 Zn 0.26721 0.22552 0.75723 0.0
Zn385 Zn 0.21803 0.2051 0.77856 0.0
Zn386 Zn 0.22319 0.25786 0.76031 0.0
O387 O 0.26868 0.24568 0.72583 0.0
O388 O 0.24364 0.27423 0.7358 0.0
O389 O 0.28301 0.24563 0.81361 0.0
O390 O 0.29659 0.23256 0.77766 0.0
O391 O 0.26717 0.19025 0.74844 0.0
O392 O 0.23401 0.17636 0.76517 0.0
O393 O 0.18871 0.209 0.75767 0.0
O394 O 0.23452 0.27729 0.81688 0.0
O395 O 0.19556 0.24505 0.74154 0.0
O396 O 0.21178 0.2822 0.78377 0.0
C397 C 0.21902 0.20482 0.83418 0.0
C398 C 0.2595 0.26606 0.72189 0.0
C399 C 0.25293 0.17294 0.75338 0.0
C400 C 0.30009 0.24034 0.79962 0.0
C401 C 0.18325 0.2258 0.74284 0.0
C402 C 0.21881 0.28875 0.80512 0.0
O403 O 0.21 0.19742 0.81384 0.0
O404 O 0.0192 0.96858 0.46703 0.0
Zn405 Zn 0.00052 0.95341 0.49439 0.0
O406 O 0.01346 0.96203 0.52655 0.0
Zn407 Zn 0.02726 0.9346 0.54347 0.0
Zn408 Zn 0.03704 0.98771 0.52293 0.0
Zn409 Zn 0.98759 0.97321 0.54558 0.0
O410 O 0.01607 0.93224 0.57914 0.0
O411 O 0.9877 0.95925 0.57922 0.0
O412 O 0.00277 0.91808 0.49031 0.0
O413 O 0.02006 0.90378 0.52417 0.0
O414 O 0.06243 0.9395 0.54499 0.0
O415 O 0.06795 0.97862 0.53815 0.0
O416 O 0.02545 0.01946 0.53583 0.0
O417 O 0.96634 0.96221 0.4904 0.0
O418 O 0.98981 0.00882 0.54895 0.0
O419 O 0.95648 0.9666 0.52964 0.0
C420 C 0.03656 0.98338 0.46709 0.0
C421 C -0.00013 0.94349 0.59012 0.0
C422 C 0.0759 0.95807 0.54383 0.0
C423 C 0.01055 0.90057 0.5029 0.0
C424 C 0.00556 0.02483 0.54482 0.0
C425 C 0.9508 0.96505 0.50691 0.0
O426 O 0.0449 0.99213 0.48713 0.0
O427 O 0.27568 0.72905 0.73608 0.0
Zn428 Zn 0.24091 0.73267 0.7412 0.0
O429 O 0.22388 0.72549 0.71079 0.0
Zn430 Zn 0.20784 0.75389 0.70009 0.0
Zn431 Zn 0.24497 0.71451 0.68564 0.0
Zn432 Zn 0.20085 0.70035 0.71602 0.0
O433 O 0.17401 0.75248 0.71128 0.0
O434 O 0.16836 0.71331 0.71715 0.0
O435 O 0.2383 0.76759 0.7503 0.0
O436 O 0.22311 0.78295 0.71592 0.0
O437 O 0.21017 0.75731 0.66312 0.0
O438 O 0.23779 0.73118 0.65346 0.0
O439 O 0.24108 0.67857 0.68087 0.0
O440 O 0.23027 0.71108 0.76899 0.0
O441 O 0.20368 0.67354 0.69164 0.0
O442 O 0.20567 0.68574 0.74956 0.0
C443 C 0.28797 0.72662 0.71669 0.0
C444 C 0.16065 0.73464 0.71681 0.0
C445 C 0.22337 0.74744 0.64725 0.0
C446 C 0.23317 0.78562 0.73691 0.0
C447 C 0.22237 0.66561 0.68201 0.0
C448 C 0.21683 0.69246 0.76895 0.0
O449 O 0.27841 0.72222 0.69572 0.0
O450 O 0.5277 0.04297 0.07342 0.0
Zn451 Zn 0.5161 0.04276 0.03809 0.0
O452 O 0.48337 0.03118 0.03724 0.0
Zn453 Zn 0.48087 0.00073 0.01978 0.0
Zn454 Zn 0.4713 0.0271 0.07085 0.0
Zn455 Zn 0.46435 0.05402 0.01975 0.0
O456 O 0.45866 0.00188 0.99091 0.0
O457 O 0.45225 0.04094 0.98716 0.0
O458 O 0.53715 0.01995 0.01988 0.0
O459 O 0.51231 0.99104 0.00742 0.0
O460 O 0.47093 0.97421 0.04233 0.0
O461 O 0.46547 0.99217 0.07833 0.0
O462 O 0.4404 0.0437 0.07568 0.0
O463 O 0.51946 0.07652 0.02381 0.0
O464 O 0.43596 0.06169 0.03937 0.0
O465 O 0.48237 0.08444 0.01382 0.0
C466 C 0.51772 0.04116 0.09437 0.0
C467 C 0.44986 0.01946 0.97927 0.0
C468 C 0.46595 0.97325 0.06517 0.0
C469 C 0.53305 -3e-05 0.00897 0.0
C470 C 0.42852 0.05662 0.0609 0.0
C471 C 0.50393 0.09083 0.01566 0.0
O472 O 0.49563 0.03723 0.09608 0.0
O473 O 0.18438 0.28151 0.24751 0.0
Zn474 Zn 0.21228 0.27133 0.26778 0.0
O475 O 0.24162 0.28059 0.25099 0.0
Zn476 Zn 0.26035 0.25235 0.2446 0.0
Zn477 Zn 0.23501 0.29717 0.21969 0.0
Zn478 Zn 0.25985 0.3016 0.27233 0.0
O479 O 0.29263 0.254 0.25992 0.0
O480 O 0.29151 0.28844 0.28037 0.0
O481 O 0.20954 0.23521 0.2706 0.0
O482 O 0.24407 0.22281 0.25717 0.0
O483 O 0.26314 0.24676 0.20838 0.0
O484 O 0.24511 0.27728 0.19054 0.0
O485 O 0.25064 0.33033 0.21836 0.0
O486 O 0.21025 0.2858 0.30225 0.0
O487 O 0.265 0.33344 0.2566 0.0
O488 O 0.24387 0.30666 0.30427 0.0
C489 C 0.18214 0.2926 0.22704 0.0
C490 C 0.30227 0.26958 0.27414 0.0
C491 C 0.25597 0.25753 0.18908 0.0
C492 C 0.22381 0.21842 0.26609 0.0
C493 C 0.26122 0.34236 0.23533 0.0
C494 C 0.22468 0.29956 0.31398 0.0
O495 O 0.20002 0.30007 0.215 0.0
O496 O 0.53517 0.54461 0.91607 0.0
Zn497 Zn 0.51418 0.53541 0.94441 0.0
O498 O 0.52771 0.54698 0.97568 0.0
Zn499 Zn 0.53199 0.51998 -0.00139 0.0
Zn500 Zn 0.55776 0.56391 0.97015 0.0
Zn501 Zn 0.50629 0.56957 0.9897 0.0
O502 O 0.51465 0.52507 0.03079 0.0
O503 O 0.49739 0.55986 0.02381 0.0
O504 O 0.51097 0.4995 0.94488 0.0
O505 O 0.52138 0.48845 0.98284 0.0
O506 O 0.5663 0.51669 0.00712 0.0
O507 O 0.58391 0.54705 0.9875 0.0
O508 O 0.55799 0.59842 0.98219 0.0
O509 O 0.48157 0.54798 0.93792 0.0
O510 O 0.52064 0.6022 0.9926 0.0
O511 O 0.4769 0.57229 0.96991 0.0
C512 C 0.55501 0.5556 0.91482 0.0
C513 C 0.50177 0.5422 0.03792 0.0
C514 C 0.58482 0.52865 0.00142 0.0
C515 C 0.51395 0.48327 0.96113 0.0
C516 C 0.54118 0.61114 0.98988 0.0
C517 C 0.4693 0.56279 0.94995 0.0
O518 O 0.56544 0.56379 0.93407 0.0
O519 O 0.79427 0.23202 0.25537 0.0
Zn520 Zn 0.76596 0.24325 0.27396 0.0
O521 O 0.73764 0.24245 0.25313 0.0
Zn522 Zn 0.72556 0.27485 0.24905 0.0
Zn523 Zn 0.74479 0.2281 0.22105 0.0
Zn524 Zn 0.71371 0.22299 0.26887 0.0
O525 O 0.6922 0.27797 0.26157 0.0
O526 O 0.68358 0.24018 0.27185 0.0
O527 O 0.77424 0.27709 0.28382 0.0
O528 O 0.74658 0.2991 0.26628 0.0
O529 O 0.72611 0.28368 0.21313 0.0
O530 O 0.73647 0.25058 0.1933 0.0
O531 O 0.72934 0.19525 0.21633 0.0
O532 O 0.76162 0.22384 0.30502 0.0
O533 O 0.70713 0.19321 0.24983 0.0
O534 O 0.72399 0.21253 0.30262 0.0
C535 C 0.79695 0.22567 0.23297 0.0
C536 C 0.67766 0.26191 0.26909 0.0
C537 C 0.73038 0.27251 0.19315 0.0
C538 C 0.7653 0.2974 0.27921 0.0
C539 C 0.71441 0.18416 0.22981 0.0
C540 C 0.74358 0.21334 0.31419 0.0
O541 O 0.7795 0.22382 0.21816 0.0
O542 O 6e-05 0.53725 0.61662 0.0
Zn543 Zn -0.00363 0.53555 0.57981 0.0
O544 O 0.96626 0.52044 0.57101 0.0
Zn545 Zn 0.97182 0.49491 0.54753 0.0
Zn546 Zn 0.9505 0.50736 0.60038 0.0
Zn547 Zn 0.94674 0.54423 0.55518 0.0
O548 O 0.95518 0.49987 0.51562 0.0
O549 O 0.93599 0.53372 0.52102 0.0
O550 O 0.0233 0.51596 0.56763 0.0
O551 O 0.00606 0.49094 0.54087 0.0
O552 O 0.96096 0.46351 0.56084 0.0
O553 O 0.94769 0.47101 0.59844 0.0
O554 O 0.91755 0.52081 0.6034 0.0
O555 O 0.00038 0.5681 0.56374 0.0
O556 O 0.91803 0.54975 0.57495 0.0
O557 O 0.96446 0.57499 0.54942 0.0
C558 C 0.98911 0.52735 0.63452 0.0
C559 C 0.9413 0.5158 0.5077 0.0
C560 C 0.95234 0.45629 0.58117 0.0
C561 C 0.0245 0.49959 0.55129 0.0
C562 C 0.90793 0.53849 0.59252 0.0
C563 C 0.98586 0.58152 0.55254 0.0
O564 O 0.97017 0.51505 0.63101 0.0
O565 O 0.77613 0.71037 0.28571 0.0
Zn566 Zn 0.78279 0.73438 0.25882 0.0
O567 O 0.76885 0.72374 0.22751 0.0
Zn568 Zn 0.79291 0.71598 0.20288 0.0
Zn569 Zn 0.74764 0.69626 0.23321 0.0
Zn570 Zn 0.75064 0.7497 0.21536 0.0
O571 O 0.7883 0.73454 0.17025 0.0
O572 O 0.75834 0.75715 0.18096 0.0
O573 O 0.81756 0.73569 0.25532 0.0
O574 O 0.82568 0.72209 0.21767 0.0
O575 O 0.79064 0.68051 0.19557 0.0
O576 O 0.75697 0.66827 0.21252 0.0
O577 O 0.71352 0.70387 0.22748 0.0
O578 O 0.77221 0.76742 0.2697 0.0
O579 O 0.71629 0.74224 0.21674 0.0
O580 O 0.75606 0.77951 0.2345 0.0
C581 C 0.76292 0.69165 0.28672 0.0
C582 C 0.77321 0.75053 0.16512 0.0
C583 C 0.77522 0.6641 0.19983 0.0
C584 C 0.8323 0.73008 0.23881 0.0
C585 C 0.70395 0.72353 0.2215 0.0
C586 C 0.76333 0.78379 0.25633 0.0
O587 O 0.75063 0.68467 0.26821 0.0
O588 O 0.7484 0.22682 0.70682 0.0
Zn589 Zn 0.74386 0.23189 0.74334 0.0
O590 O 0.76171 0.26053 0.75434 0.0
Zn591 Zn 0.78467 0.25173 0.77972 0.0
Zn592 Zn 0.77769 0.276 0.7264 0.0
Zn593 Zn 0.74048 0.28315 0.76851 0.0
O594 O 0.78076 0.27 0.81144 0.0
O595 O 0.7484 0.29043 0.80385 0.0
O596 O 0.75682 0.20223 0.75935 0.0
O597 O 0.78286 0.21656 0.78672 0.0
O598 O 0.81758 0.25725 0.76767 0.0
O599 O 0.81262 0.27531 0.73147 0.0
O600 O 0.76806 0.31043 0.72092 0.0
O601 O 0.70893 0.23416 0.75086 0.0
O602 O 0.74224 0.31442 0.75107 0.0
O603 O 0.70737 0.27114 0.76628 0.0
C604 C 0.76018 0.23795 0.6903 0.0
C605 C 0.76509 0.28454 0.8183 0.0
C606 C 0.82596 0.26683 0.74822 0.0
C607 C 0.77194 0.19898 0.77647 0.0
C608 C 0.75359 0.32306 0.73288 0.0
C609 C 0.69729 0.25162 0.7594 0.0
O610 O 0.77179 0.25717 0.69529 0.0
O611 O 0.73067 0.77969 0.72779 0.0
Zn612 Zn 0.76489 0.77519 0.73444 0.0
O613 O 0.78314 0.79122 0.7091 0.0
Zn614 Zn 0.80322 0.76817 0.69336 0.0
Zn615 Zn 0.76291 0.8067 0.68501 0.0
Zn616 Zn 0.80291 0.81513 0.72446 0.0
O617 O 0.83606 0.76903 0.7082 0.0
O618 O 0.83546 0.80329 0.72911 0.0
O619 O 0.7687 0.73934 0.73308 0.0
O620 O 0.79032 0.73503 0.69943 0.0
O621 O 0.80256 0.77252 0.65645 0.0
O622 O 0.77016 0.79384 0.65127 0.0
O623 O 0.76907 0.84269 0.68391 0.0
O624 O 0.7714 0.78908 0.76818 0.0
O625 O 0.8029 0.84538 0.70496 0.0
O626 O 0.7917 0.82227 0.75867 0.0
C627 C 0.7187 0.78898 0.71042 0.0
C628 C 0.84605 0.78449 0.72239 0.0
C629 C 0.78694 0.78171 0.64246 0.0
C630 C 0.77776 0.72608 0.71662 0.0
C631 C 0.78731 0.85454 0.69104 0.0
C632 C 0.78077 0.80923 0.77433 0.0
O633 O 0.72861 0.79962 0.69228 0.0
O634 O 0.46352 0.58079 0.52932 0.0
Zn635 Zn 0.47333 0.5538 0.50691 0.0
O636 O 0.46448 0.52278 0.52144 0.0
Zn637 Zn 0.49162 0.50235 0.52191 0.0
Zn638 Zn 0.45253 0.52631 0.55506 0.0
Zn639 Zn 0.44042 0.50765 0.50118 0.0
O640 O 0.48531 0.47053 0.50595 0.0
O641 O 0.44847 0.47361 0.49272 0.0
O642 O 0.50855 0.55641 0.50339 0.0
O643 O 0.51985 0.51863 0.5072 0.0
O644 O 0.5015 0.49602 0.55646 0.0
O645 O 0.47519 0.51285 0.58065 0.0
O646 O 0.41972 0.51136 0.55845 0.0
O647 O 0.45939 0.55762 0.47247 0.0
O648 O 0.40998 0.50607 0.51889 0.0
O649 O 0.43617 0.52517 0.46943 0.0
C650 C 0.45508 0.58093 0.5511 0.0
C651 C 0.46704 0.46148 0.49556 0.0
C652 C 0.4941 0.50123 0.57785 0.0
C653 C 0.5245 0.54066 0.50274 0.0
C654 C 0.40455 0.50616 0.54165 0.0
C655 C 0.4448 0.54444 0.46029 0.0
O656 O 0.45032 0.56146 0.5626 0.0
O657 O 0.02587 0.47277 0.02434 0.0
Zn658 Zn 0.02174 0.50818 0.01838 0.0
O659 O 0.03344 0.52673 0.04668 0.0
Zn660 Zn 0.00827 0.54584 0.05982 0.0
Zn661 Zn 0.04618 0.50558 0.07172 0.0
Zn662 Zn 0.05825 0.54858 0.03682 0.0
O663 O 0.01041 0.58025 0.04756 0.0
O664 O 0.04739 0.58238 0.03496 0.0
O665 O 0.98664 0.51111 0.01475 0.0
O666 O 0.97721 0.53238 0.04786 0.0
O667 O 0.00825 0.54372 0.09698 0.0
O668 O 0.03151 0.51279 0.10455 0.0
O669 O 0.08137 0.50992 0.07502 0.0
O670 O 0.03884 0.51761 0.98702 0.0
O671 O 0.08742 0.54557 0.05749 0.0
O672 O 0.06732 0.54145 0.00213 0.0
C673 C 0.0324 0.4607 0.0431 0.0
C674 C 0.02759 0.5921 0.03826 0.0
C675 C 0.01749 0.52884 0.11196 0.0
C676 C 0.97127 0.51976 0.02909 0.0
C677 C 0.09483 0.52774 0.06986 0.0
C678 C 0.05762 0.53021 0.98414 0.0
O679 O 0.03984 0.47099 0.06279 0.0
H680 H 0.99281 0.18055 0.11017 0.0
H681 H 0.94023 0.19531 0.05426 0.0
H682 H 0.98532 0.13752 0.10495 0.0
H683 H 0.933 0.15206 0.04889 0.0
H684 H 0.95282 0.07152 0.03042 0.0
H685 H 0.9571 0.11515 0.03431 0.0
H686 H 0.94919 0.10924 0.11339 0.0
H687 H 0.94465 0.0656 0.10959 0.0
C688 C 0.97985 0.17462 0.09656 0.0
C689 C 0.9671 0.19132 0.08261 0.0
C690 C 0.97542 0.15 0.09377 0.0
C691 C 0.95842 0.14157 0.07672 0.0
C692 C 0.94618 0.15817 0.06218 0.0
C693 C 0.95033 0.18286 0.06526 0.0
C694 C 0.95169 0.07955 0.04861 0.0
C695 C 0.94851 0.06512 0.06972 0.0
C696 C 0.95407 0.1045 0.05079 0.0
C697 C 0.95369 0.11544 0.07415 0.0
C698 C 0.94978 0.10115 0.09519 0.0
C699 C 0.94701 0.07622 0.09298 0.0
H700 H 0.08326 0.7294 0.33066 0.0
H701 H 0.05154 0.67326 0.28533 0.0
H702 H 0.11041 0.73932 0.29759 0.0
H703 H 0.07888 0.68343 0.252 0.0
H704 H 0.15334 0.69751 0.21338 0.0
H705 H 0.12282 0.68407 0.24216 0.0
H706 H 0.10494 0.75793 0.25584 0.0
H707 H 0.13537 0.77141 0.22742 0.0
C708 C 0.08218 0.71904 0.31371 0.0
C709 C 0.06508 0.7007 0.31054 0.0
C710 C 0.09761 0.72487 0.29469 0.0
C711 C 0.09637 0.71248 0.27207 0.0
C712 C 0.08009 0.69334 0.26923 0.0
C713 C 0.0645 0.68753 0.28831 0.0
C714 C 0.14248 0.71084 0.22205 0.0
C715 C 0.14703 0.73554 0.21847 0.0
C716 C 0.12506 0.70312 0.23855 0.0
C717 C 0.11199 0.72001 0.25164 0.0
C718 C 0.11523 0.74457 0.24645 0.0
C719 C 0.13255 0.75226 0.23005 0.0
H720 H 0.53646 0.79079 0.60486 0.0
H721 H 0.50456 0.83148 0.66343 0.0
H722 H 0.54377 0.82801 0.58188 0.0
H723 H 0.51178 0.86845 0.64045 0.0
H724 H 0.54837 0.93209 0.60594 0.0
H725 H 0.54635 0.89357 0.62719 0.0
H726 H 0.51961 0.85957 0.56059 0.0
H727 H 0.52174 0.8981 0.5391 0.0
C728 C 0.531 0.80764 0.61282 0.0
C729 C 0.51994 0.80821 0.63596 0.0
C730 C 0.53515 0.82889 0.59963 0.0
C731 C 0.52852 0.85109 0.60949 0.0
C732 C 0.51744 0.85162 0.6326 0.0
C733 C 0.51313 0.83041 0.64566 0.0
C734 C 0.54238 0.91638 0.59565 0.0
C735 C 0.53495 0.91825 0.57087 0.0
C736 C 0.5411 0.89435 0.60791 0.0
C737 C 0.53251 0.8737 0.59563 0.0
C738 C 0.52635 0.87522 0.57048 0.0
C739 C 0.52751 0.89731 0.55821 0.0
H740 H 0.4241 0.23338 0.89328 0.0
H741 H 0.45035 0.26565 0.82597 0.0
H742 H 0.3849 0.23013 0.87488 0.0
H743 H 0.41096 0.2627 0.80772 0.0
H744 H 0.34137 0.23067 0.77593 0.0
H745 H 0.38125 0.23292 0.79305 0.0
H746 H 0.35379 0.25758 0.86262 0.0
H747 H 0.31402 0.25504 0.84577 0.0
C748 C 0.42153 0.23976 0.87455 0.0
C749 C 0.44034 0.24986 0.86113 0.0
C750 C 0.39902 0.23802 0.86406 0.0
C751 C 0.3948 0.24632 0.83991 0.0
C752 C 0.41369 0.25599 0.8263 0.0
C753 C 0.43623 0.25777 0.83681 0.0
C754 C 0.34384 0.23663 0.79485 0.0
C755 C 0.32445 0.2426 0.80948 0.0
C756 C 0.3667 0.238 0.80462 0.0
C757 C 0.37065 0.24528 0.82923 0.0
C758 C 0.3513 0.25152 0.84372 0.0
C759 C 0.3285 0.25022 0.83398 0.0
H760 H 0.02952 0.78691 0.39819 0.0
H761 H 0.99237 0.75043 0.45717 0.0
H762 H 0.03064 0.82378 0.42254 0.0
H763 H -0.00643 0.78753 0.48154 0.0
H764 H 0.02312 0.85714 0.52324 0.0
H765 H 0.02383 0.81802 0.50222 0.0
H766 H -0.00294 0.85072 0.43559 0.0
H767 H -0.00383 0.88934 0.45618 0.0
C768 C 0.02174 0.7867 0.4164 0.0
C769 C 0.01062 0.76585 0.42564 0.0
C770 C 0.02235 0.80782 0.4303 0.0
C771 C 0.01204 0.80847 0.4538 0.0
C772 C 0.00172 0.78742 0.4635 0.0
C773 C 0.00089 0.7663 0.44947 0.0
C774 C 0.01725 0.85589 0.50417 0.0
C775 C 0.0097 0.87641 0.4914 0.0
C776 C 0.01763 0.83355 0.4922 0.0
C777 C 0.01079 0.83153 0.46724 0.0
C778 C 0.00281 0.8519 0.45472 0.0
C779 C 0.00218 0.87401 0.46665 0.0
H780 H 0.41934 0.80036 0.69562 0.0
H781 H 0.44022 0.73956 0.73993 0.0
H782 H 0.37825 0.78794 0.69979 0.0
H783 H 0.39883 0.72736 0.74423 0.0
H784 H 0.31597 0.72972 0.75817 0.0
H785 H 0.35738 0.7428 0.76041 0.0
H786 H 0.35887 0.74873 0.68088 0.0
H787 H 0.31782 0.73548 0.67845 0.0
C788 C 0.41518 0.78467 0.70673 0.0
C789 C 0.43309 0.77072 0.71711 0.0
C790 C 0.39166 0.77751 0.70896 0.0
C791 C 0.38554 0.75647 0.7219 0.0
C792 C 0.40319 0.7436 0.73406 0.0
C793 C 0.42683 0.75061 0.7316 0.0
C794 C 0.32523 0.73354 0.74116 0.0
C795 C 0.31359 0.73165 0.71813 0.0
C796 C 0.34887 0.74102 0.74248 0.0
C797 C 0.36106 0.7471 0.72085 0.0
C798 C 0.34966 0.7445 0.69785 0.0
C799 C 0.32623 0.7367 0.69647 0.0
H800 H 0.51022 0.24228 0.97478 0.0
H801 H 0.53434 0.20088 0.91261 0.0
H802 H 0.51142 0.20637 0.00071 0.0
H803 H 0.53551 0.16508 0.93858 0.0
H804 H 0.54585 0.10638 -0.00409 0.0
H805 H 0.55414 0.14573 0.97693 0.0
H806 H 0.48513 0.16927 -0.00215 0.0
H807 H 0.47684 0.13026 0.01645 0.0
C808 C 0.51613 0.22564 0.96675 0.0
C809 C 0.52186 0.22432 0.94157 0.0
C810 C 0.5168 0.20511 0.98159 0.0
C811 C 0.52347 0.18297 0.97161 0.0
C812 C 0.53051 0.18197 0.94682 0.0
C813 C 0.52962 0.20242 0.93191 0.0
C814 C 0.53271 0.12018 -0.00317 0.0
C815 C 0.51065 0.11526 0.00741 0.0
C816 C 0.53739 0.14258 0.98591 0.0
C817 C 0.52025 0.16049 0.98593 0.0
C818 C 0.49876 0.15592 -0.00222 0.0
C819 C 0.49395 0.13351 0.00825 0.0
H820 H 0.07911 0.24669 0.12384 0.0
H821 H 0.03454 0.28079 0.17731 0.0
H822 H 0.11382 0.26015 0.14712 0.0
H823 H 0.06948 0.2942 0.20069 0.0
H824 H 0.13951 0.28022 0.24723 0.0
H825 H 0.1023 0.27376 0.22512 0.0
H826 H 0.13425 0.29987 0.15791 0.0
H827 H 0.17146 0.30638 0.17982 0.0
C828 C 0.07671 0.257 0.1406 0.0
C829 C 0.0541 0.26264 0.14877 0.0
C830 C 0.0966 0.26491 0.15378 0.0
C831 C 0.0943 0.27841 0.17555 0.0
C832 C 0.0717 0.28383 0.18394 0.0
C833 C 0.05176 0.27616 0.17056 0.0
C834 C 0.13849 0.28509 0.22787 0.0
C835 C 0.15857 0.29351 0.21523 0.0
C836 C 0.11716 0.28142 0.21524 0.0
C837 C 0.11557 0.28594 0.18975 0.0
C838 C 0.13516 0.29587 0.1775 0.0
C839 C 0.15641 0.29975 0.19013 0.0
H840 H 0.06964 0.01685 0.21986 0.0
H841 H 0.06189 0.94696 0.25409 0.0
H842 H 0.03237 0.01049 0.19822 0.0
H843 H 0.02432 0.94071 0.23253 0.0
H844 H 0.96371 -5e-05 0.16455 0.0
H845 H 0.98911 0.00447 0.20091 0.0
H846 H 0.01661 0.93376 0.18809 0.0
H847 H 0.99113 0.92909 0.15207 0.0
C848 C 0.0598 0.00028 0.22306 0.0
C849 C 0.06889 0.98224 0.23833 0.0
C850 C 0.03827 -0.00324 0.21091 0.0
C851 C 0.0254 0.97509 0.21372 0.0
C852 C 0.03393 0.95753 0.22995 0.0
C853 C 0.05545 0.96111 0.24222 0.0
C854 C 0.97449 0.98499 0.17005 0.0
C855 C 0.9759 0.96441 0.1551 0.0
C856 C 0.98915 0.98768 0.19077 0.0
C857 C 0.00524 0.96973 0.19695 0.0
C858 C 0.00445 0.94795 0.1838 0.0
C859 C 0.98992 0.94532 0.16304 0.0
H860 H 0.27849 0.80906 0.40315 0.0
H861 H 0.24115 0.87402 0.38619 0.0
H862 H 0.27165 0.79479 0.36118 0.0
H863 H 0.23487 0.86 0.34383 0.0
H864 H 0.20683 0.81422 0.27838 0.0
H865 H 0.2132 0.82989 0.3201 0.0
H866 H 0.2841 0.80317 0.31981 0.0
H867 H 0.27754 0.78696 0.27856 0.0
C868 C 0.26895 0.82038 0.39041 0.0
C869 C 0.2604 0.84269 0.39798 0.0
C870 C 0.26514 0.81225 0.36628 0.0
C871 C 0.25284 0.82632 0.34909 0.0
C872 C 0.2442 0.84862 0.35669 0.0
C873 C 0.2479 0.85671 0.38092 0.0
C874 C 0.22379 0.81178 0.28721 0.0
C875 C 0.24161 0.79918 0.27522 0.0
C876 C 0.22749 0.82086 0.31107 0.0
C877 C 0.2491 0.81763 0.32336 0.0
C878 C 0.26707 0.80554 0.31109 0.0
C879 C 0.26335 0.79635 0.28735 0.0
H880 H 0.39168 0.01744 0.71464 0.0
H881 H 0.43681 0.95711 0.72785 0.0
H882 H 0.4174 0.03133 0.68172 0.0
H883 H 0.46213 0.97045 0.69413 0.0
H884 H 0.51184 0.00607 0.64141 0.0
H885 H 0.48971 0.00013 0.67942 0.0
H886 H 0.42581 0.01934 0.64091 0.0
H887 H 0.44792 0.02607 0.60338 0.0
C888 C 0.40709 0.00708 0.71044 0.0
C889 C 0.41211 0.98603 0.72366 0.0
C890 C 0.42181 0.01503 0.69151 0.0
C891 C 0.44176 0.00194 0.68511 0.0
C892 C 0.44711 0.98118 0.69878 0.0
C893 C 0.43249 0.97338 0.71796 0.0
C894 C 0.49314 0.00953 0.64122 0.0
C895 C 0.48162 0.01633 0.61926 0.0
C896 C 0.48042 0.0059 0.66295 0.0
C897 C 0.45591 0.00889 0.66316 0.0
C898 C 0.44468 0.01706 0.64156 0.0
C899 C 0.45739 0.02085 0.61992 0.0
H900 H 0.16026 0.12761 0.96184 0.0
H901 H 0.23612 0.12349 0.96621 0.0
H902 H 0.16379 0.15082 0.9235 0.0
H903 H 0.23948 0.1465 0.9282 0.0
H904 H 0.23793 0.2127 0.88004 0.0
H905 H 0.23065 0.18974 0.91753 0.0
H906 H 0.17889 0.14572 0.87881 0.0
H907 H 0.18605 0.16875 0.841 0.0
C908 C 0.17762 0.13148 0.95456 0.0
C909 C 0.19791 0.12386 0.96713 0.0
C910 C 0.17961 0.14469 0.93264 0.0
C911 C 0.2019 0.15066 0.92317 0.0
C912 C 0.22209 0.14247 0.93538 0.0
C913 C 0.22013 0.12916 0.95707 0.0
C914 C 0.22482 0.1983 0.87947 0.0
C915 C 0.21274 0.19241 0.85744 0.0
C916 C 0.22076 0.18509 0.90094 0.0
C917 C 0.20444 0.16581 0.9009 0.0
C918 C 0.19155 0.16054 0.87926 0.0
C919 C 0.19573 0.17367 0.85765 0.0
H920 H 0.0755 0.03241 0.32097 0.0
H921 H 0.13235 0.98646 0.34332 0.0
H922 H 0.05661 0.02588 0.36071 0.0
H923 H 0.11337 0.98024 0.38346 0.0
H924 H 0.08148 0.00028 0.46062 0.0
H925 H 0.1016 0.00781 0.4215 0.0
H926 H 0.03831 0.9873 0.38144 0.0
H927 H 0.01819 0.97941 0.42046 0.0
C928 C 0.08408 0.02107 0.33445 0.0
C929 C 0.10541 0.0099 0.32905 0.0
C930 C 0.07317 0.01727 0.35711 0.0
C931 C 0.08354 0.00254 0.37498 0.0
C932 C 0.10513 0.99177 0.36992 0.0
C933 C 0.1159 -0.00475 0.347 0.0
C934 C 0.07181 -0.00246 0.44347 0.0
C935 C 0.04823 0.98934 0.44356 0.0
C936 C 0.08339 0.00166 0.42116 0.0
C937 C 0.07146 -0.00193 0.39861 0.0
C938 C 0.04781 0.99028 0.39867 0.0
C939 C 0.03634 0.98575 0.42095 0.0
H940 H 0.1991 0.81847 0.5053 0.0
H941 H 0.27411 0.81961 0.51941 0.0
H942 H 0.19325 0.79194 0.54075 0.0
H943 H 0.2682 0.79335 0.55491 0.0
H944 H 0.25241 0.73465 0.60952 0.0
H945 H 0.25521 0.75285 0.56862 0.0
H946 H 0.19721 0.79882 0.58583 0.0
H947 H 0.19417 0.78053 0.62657 0.0
C948 C 0.21436 0.8128 0.51574 0.0
C949 C 0.23705 0.82131 0.5097 0.0
C950 C 0.21098 0.7977 0.53609 0.0
C951 C 0.23023 0.79071 0.55069 0.0
C952 C 0.25303 0.79825 0.54388 0.0
C953 C 0.2564 0.81342 0.52362 0.0
C954 C 0.24001 0.74838 0.60448 0.0
C955 C 0.22322 0.75631 0.62145 0.0
C956 C 0.2417 0.75886 0.58107 0.0
C957 C 0.22655 0.77736 0.5741 0.0
C958 C 0.20901 0.78444 0.59058 0.0
C959 C 0.20738 0.77406 0.61402 0.0
H960 H 0.40451 -0.00187 0.82773 0.0
H961 H 0.34148 0.98525 0.87031 0.0
H962 H 0.42663 0.00648 0.8659 0.0
H963 H 0.36391 -0.00701 0.90852 0.0
H964 H 0.42598 0.9783 0.96666 0.0
H965 H 0.40314 0.97037 0.92885 0.0
H966 H 0.42066 0.04156 0.90227 0.0
H967 H 0.44303 0.04987 0.94039 0.0
C968 C 0.39545 -0.00311 0.84525 0.0
C969 C 0.3713 0.99103 0.84613 0.0
C970 C 0.40807 0.00179 0.86698 0.0
C971 C 0.39686 0.00038 0.88994 0.0
C972 C 0.37284 -0.00587 0.89093 0.0
C973 C 0.36007 0.98976 0.86914 0.0
C974 C 0.42494 0.99226 0.95276 0.0
C975 C 0.43627 0.01469 0.9564 0.0
C976 C 0.41182 0.98775 0.93126 0.0
C977 C 0.41027 0.00538 0.91285 0.0
C978 C 0.42173 0.02772 0.9163 0.0
C979 C 0.43441 0.03246 0.93806 0.0
H980 H 0.23771 0.18711 0.04386 0.0
H981 H 0.21856 0.13842 0.103 0.0
H982 H 0.24862 0.21803 0.0744 0.0
H983 H 0.22964 0.16917 0.13326 0.0
H984 H 0.27785 0.21545 0.1794 0.0
H985 H 0.27041 0.18887 0.14439 0.0
H986 H 0.22764 0.24276 0.10978 0.0
H987 H 0.23484 0.26958 0.14503 0.0
C988 C 0.23565 0.18309 0.06333 0.0
C989 C 0.22736 0.16033 0.07107 0.0
C990 C 0.24189 0.20076 0.08072 0.0
C991 C 0.2403 0.19576 0.10607 0.0
C992 C 0.23139 0.17327 0.11377 0.0
C993 C 0.22485 0.15578 0.09645 0.0
C994 C 0.26727 0.22194 0.16414 0.0
C995 C 0.25657 0.24449 0.16526 0.0
C996 C 0.26293 0.20663 0.14418 0.0
C997 C 0.24803 0.21363 0.12478 0.0
C998 C 0.23909 0.23696 0.12466 0.0
C999 C 0.24328 0.2523 0.1448 0.0
H1000 H 0.15786 0.04176 0.0211 0.0
H1001 H 0.15006 0.0516 0.09991 0.0
H1002 H 0.12052 0.0197 0.01947 0.0
H1003 H 0.11239 0.02966 0.09812 0.0
H1004 H 0.05298 0.97381 0.08784 0.0
H1005 H 0.09338 0.98958 0.08924 0.0
H1006 H 0.0795 0.03244 0.02435 0.0
H1007 H 0.03932 0.01661 0.02272 0.0
C1008 C 0.14827 0.03908 0.03813 0.0
C1009 C 0.15679 0.04867 0.06062 0.0
C1010 C 0.12683 0.0265 0.03714 0.0
C1011 C 0.11346 0.02319 0.0586 0.0
C1012 C 0.12242 0.03182 0.08131 0.0
C1013 C 0.14392 0.04448 0.08231 0.0
C1014 C 0.05863 0.98638 0.07369 0.0
C1015 C 0.04291 -0.00598 0.0552 0.0
C1016 C 0.08171 -0.0045 0.07462 0.0
C1017 C 0.08954 0.01225 0.05695 0.0
C1018 C 0.07403 0.01934 0.03806 0.0
C1019 C 0.05096 0.01036 0.03722 0.0
H1020 H 0.70681 0.45847 0.06733 0.0
H1021 H 0.72014 0.46851 0.98939 0.0
H1022 H 0.67106 0.48192 0.06341 0.0
H1023 H 0.68447 0.49175 0.98553 0.0
H1024 H 0.6282 0.54689 0.98921 0.0
H1025 H 0.66638 0.53002 -0.00097 0.0
H1026 H 0.63229 0.47408 0.04189 0.0
H1027 H 0.59404 0.49097 0.03231 0.0
C1028 C 0.70227 0.4659 0.04945 0.0
C1029 C 0.71617 0.46151 0.02862 0.0
C1030 C 0.68178 0.47922 0.04721 0.0
C1031 C 0.67501 0.48859 0.02418 0.0
C1032 C 0.6894 0.48496 0.00358 0.0
C1033 C 0.70974 0.4715 0.00576 0.0
C1034 C 0.62882 0.53118 0.00101 0.0
C1035 C 0.60804 0.5201 0.00974 0.0
C1036 C 0.65069 0.52151 0.00655 0.0
C1037 C 0.65224 0.50067 0.02104 0.0
C1038 C 0.63161 0.49028 0.03082 0.0
C1039 C 0.6097 0.49987 0.02518 0.0
H1040 H 0.82396 0.44252 0.29714 0.0
H1041 H 0.8821 0.39566 0.28297 0.0
H1042 H 0.79758 0.40778 0.30065 0.0
H1043 H 0.85549 0.36083 0.28575 0.0
H1044 H 0.80573 0.30106 0.30698 0.0
H1045 H 0.83082 0.33668 0.31282 0.0
H1046 H 0.78052 0.37905 0.27237 0.0
H1047 H 0.7552 0.34375 0.2671 0.0
C1048 C 0.83112 0.42477 0.29475 0.0
C1049 C 0.85508 0.42181 0.28951 0.0
C1050 C 0.81597 0.40487 0.29672 0.0
C1051 C 0.82438 0.38156 0.29332 0.0
C1052 C 0.8485 0.37855 0.28878 0.0
C1053 C 0.86372 0.39849 0.28698 0.0
C1054 C 0.79981 0.31808 0.29974 0.0
C1055 C 0.77855 0.3195 0.28635 0.0
C1056 C 0.81429 0.33843 0.30292 0.0
C1057 C 0.80782 0.36061 0.29279 0.0
C1058 C 0.78596 0.36229 0.28061 0.0
C1059 C 0.77145 0.34199 0.2775 0.0
H1060 H 0.77385 0.60383 0.56997 0.0
H1061 H 0.77997 0.53896 0.52672 0.0
H1062 H 0.80599 0.5911 0.59667 0.0
H1063 H 0.81246 0.52647 0.55315 0.0
H1064 H 0.8885 0.58242 0.5924 0.0
H1065 H 0.84728 0.59072 0.58506 0.0
H1066 H 0.82983 0.51523 0.59364 0.0
H1067 H 0.8715 0.50697 0.60102 0.0
C1068 C 0.7818 0.58665 0.5664 0.0
C1069 C 0.77479 0.57265 0.54586 0.0
C1070 C 0.80017 0.57935 0.58176 0.0
C1071 C 0.812 0.55797 0.57682 0.0
C1072 C 0.80361 0.54297 0.55759 0.0
C1073 C 0.78512 0.55022 0.54227 0.0
C1074 C 0.87573 0.56776 0.59374 0.0
C1075 C 0.88313 0.54407 0.59701 0.0
C1076 C 0.85205 0.57249 0.5896 0.0
C1077 C 0.83531 0.55355 0.58836 0.0
C1078 C 0.8424 0.53012 0.59419 0.0
C1079 C 0.86618 0.52543 0.59867 0.0
H1080 H 0.20818 0.06856 0.23049 0.0
H1081 H 0.14962 0.08012 0.27928 0.0
H1082 H 0.22118 0.11021 0.23648 0.0
H1083 H 0.16309 0.12132 0.28607 0.0
H1084 H 0.25124 0.17882 0.26824 0.0
H1085 H 0.23835 0.13688 0.2663 0.0
H1086 H 0.1658 0.15891 0.26573 0.0
H1087 H 0.17872 0.20077 0.26864 0.0
C1088 C 0.19818 0.07996 0.2426 0.0
C1089 C 0.17784 0.07111 0.25429 0.0
C1090 C 0.20572 0.10376 0.24622 0.0
C1091 C 0.19322 0.11912 0.26186 0.0
C1092 C 0.17294 0.11014 0.27363 0.0
C1093 C 0.16526 0.08647 0.26978 0.0
C1094 C 0.23253 0.17466 0.26809 0.0
C1095 C 0.21598 0.19309 0.26851 0.0
C1096 C 0.22514 0.15063 0.26672 0.0
C1097 C 0.20105 0.14451 0.26547 0.0
C1098 C 0.1845 0.16293 0.26689 0.0
C1099 C 0.19189 0.18697 0.26855 0.0
H1100 H 0.32918 0.90748 0.53103 0.0
H1101 H 0.33405 0.91055 0.45136 0.0
H1102 H 0.36681 0.92913 0.5347 0.0
H1103 H 0.37194 0.93205 0.45516 0.0
H1104 H 0.45203 0.94186 0.48042 0.0
H1105 H 0.41373 0.92211 0.47319 0.0
H1106 H 0.38147 0.97211 0.52296 0.0
H1107 H 0.41951 0.99202 0.5301 0.0
C1108 C 0.33833 0.91269 0.51431 0.0
C1109 C 0.32868 0.90737 0.49091 0.0
C1110 C 0.35976 0.9252 0.51643 0.0
C1111 C 0.37211 0.93232 0.4952 0.0
C1112 C 0.36271 0.92669 0.47178 0.0
C1113 C 0.34105 0.91448 0.46964 0.0
C1114 C 0.43672 0.94881 0.48958 0.0
C1115 C 0.43882 0.96842 0.50593 0.0
C1116 C 0.41484 0.93756 0.48537 0.0
C1117 C 0.39481 0.94551 0.49771 0.0
C1118 C 0.39676 0.96552 0.51345 0.0
C1119 C 0.41851 0.97698 0.51739 0.0
H1120 H 0.85223 0.53415 0.21761 0.0
H1121 H 0.79454 0.53696 0.26888 0.0
H1122 H 0.83363 0.56434 0.19184 0.0
H1123 H 0.7765 0.56811 0.24403 0.0
H1124 H 0.74581 0.62454 0.20152 0.0
H1125 H 0.75811 0.58338 0.20842 0.0
H1126 H 0.83047 0.6057 0.19639 0.0
H1127 H 0.81808 0.64622 0.18838 0.0
C1128 C 0.83548 0.5412 0.22329 0.0
C1129 C 0.825 0.53364 0.24547 0.0
C1130 C 0.82482 0.5585 0.20854 0.0
C1131 C 0.80373 0.56903 0.21597 0.0
C1132 C 0.79257 0.56027 0.23744 0.0
C1133 C 0.80302 0.54259 0.25192 0.0
C1134 C 0.76423 0.6204 0.19941 0.0
C1135 C 0.78107 0.63876 0.19515 0.0
C1136 C 0.77132 0.59685 0.20361 0.0
C1137 C 0.79537 0.59135 0.20392 0.0
C1138 C 0.81179 0.60913 0.19644 0.0
C1139 C 0.80467 0.63256 0.19188 0.0
H1140 H 0.72579 0.47478 0.73594 0.0
H1141 H 0.69975 0.45036 0.66475 0.0
H1142 H 0.74508 0.43659 0.7421 0.0
H1143 H 0.71869 0.41172 0.67125 0.0
H1144 H 0.76487 0.34645 0.68954 0.0
H1145 H 0.75614 0.38826 0.6787 0.0
H1146 H 0.72485 0.39799 0.75045 0.0
H1147 H 0.73357 0.35696 0.76124 0.0
C1148 C 0.72441 0.46132 0.72148 0.0
C1149 C 0.71084 0.46529 0.70012 0.0
C1150 C 0.73548 0.43949 0.725 0.0
C1151 C 0.73299 0.42106 0.70736 0.0
C1152 C 0.72093 0.42565 0.68512 0.0
C1153 C 0.70998 0.44768 0.68148 0.0
C1154 C 0.75635 0.35769 0.703 0.0
C1155 C 0.74978 0.3484 0.72617 0.0
C1156 C 0.75132 0.38151 0.69678 0.0
C1157 C 0.74001 0.39638 0.71381 0.0
C1158 C 0.73397 0.38713 0.73709 0.0
C1159 C 0.73876 0.36347 0.74317 0.0
H1160 H 0.0338 0.78845 0.97336 0.0
H1161 H 0.98762 0.82418 0.92181 0.0
H1162 H 0.02127 0.81538 0.00625 0.0
H1163 H 0.97539 0.85107 0.9545 0.0
H1164 H 0.93892 0.87893 0.02039 0.0
H1165 H 0.95196 0.84758 0.99263 0.0
H1166 H 0.02353 0.85875 0.01827 0.0
H1167 H 0.0105 0.89001 0.04639 0.0
C1168 C 0.02118 0.80217 0.96897 0.0
C1169 C 0.01163 0.80411 0.94498 0.0
C1170 C 0.014 0.81755 0.98782 0.0
C1171 C -0.00293 0.83504 0.98303 0.0
C1172 C 0.98806 0.83738 0.95889 0.0
C1173 C -0.00474 0.82212 0.94009 0.0
C1174 C 0.95738 0.8744 0.02053 0.0
C1175 C 0.97372 0.88725 0.03534 0.0
C1176 C 0.96486 0.85656 0.00447 0.0
C1177 C 0.98884 0.85115 0.00286 0.0
C1178 C 0.00495 0.86259 0.01907 0.0
C1179 C -0.00255 0.88049 0.0352 0.0
H1180 H 0.94285 0.1944 0.69328 0.0
H1181 H 0.96283 0.26843 0.67935 0.0
H1182 H 0.91108 0.2078 0.72 0.0
H1183 H 0.93185 0.28179 0.70655 0.0
H1184 H 0.858 0.2383 0.77154 0.0
H1185 H 0.89747 0.22907 0.75721 0.0
H1186 H 0.89007 0.28101 0.69839 0.0
H1187 H 0.85107 0.29046 0.71281 0.0
C1188 C 0.94085 0.21347 0.69652 0.0
C1189 C 0.95484 0.23041 0.6839 0.0
C1190 C 0.92279 0.22117 0.7119 0.0
C1191 C 0.91875 0.24589 0.71501 0.0
C1192 C 0.93418 0.26266 0.70405 0.0
C1193 C 0.95191 0.25501 0.6885 0.0
C1194 C 0.8651 0.24822 0.75597 0.0
C1195 C 0.85134 0.26495 0.74312 0.0
C1196 C 0.8876 0.24276 0.74767 0.0
C1197 C 0.89679 0.25413 0.72657 0.0
C1198 C 0.88364 0.27207 0.71486 0.0
C1199 C 0.86118 0.27742 0.72304 0.0
H1200 H 0.44354 0.18667 0.43653 0.0
H1201 H 0.51772 0.20371 0.44478 0.0
H1202 H 0.44899 0.14931 0.45949 0.0
H1203 H 0.523 0.16702 0.46833 0.0
H1204 H 0.53069 0.08708 0.47709 0.0
H1205 H 0.52314 0.1254 0.45798 0.0
H1206 H 0.45874 0.13091 0.49936 0.0
H1207 H 0.46602 0.09167 0.51827 0.0
C1208 C 0.46093 0.18259 0.44352 0.0
C1209 C 0.48028 0.19792 0.43854 0.0
C1210 C 0.46402 0.16128 0.4568 0.0
C1211 C 0.48648 0.15504 0.46547 0.0
C1212 C 0.50556 0.17098 0.46139 0.0
C1213 C 0.50253 0.19207 0.44795 0.0
C1214 C 0.51492 0.09638 0.4823 0.0
C1215 C 0.49901 0.08631 0.49936 0.0
C1216 C 0.51067 0.11853 0.47141 0.0
C1217 C 0.4905 0.1314 0.47737 0.0
C1218 C 0.47441 0.12136 0.49431 0.0
C1219 C 0.47862 0.09897 0.50521 0.0
H1220 H 0.56068 0.6987 0.17736 0.0
H1221 H 0.56051 0.77125 0.2059 0.0
H1222 H 0.60005 0.69341 0.19425 0.0
H1223 H 0.59955 0.76566 0.22369 0.0
H1224 H 0.67843 0.76203 0.20722 0.0
H1225 H 0.63623 0.76445 0.2025 0.0
H1226 H 0.62807 0.69116 0.22808 0.0
H1227 H 0.67083 0.68847 0.23223 0.0
C1228 C 0.56874 0.71324 0.18797 0.0
C1229 C 0.55779 0.73557 0.18989 0.0
C1230 C 0.5913 0.71017 0.19775 0.0
C1231 C 0.60314 0.72931 0.20984 0.0
C1232 C 0.59114 0.75081 0.21386 0.0
C1233 C 0.56874 0.75397 0.20381 0.0
C1234 C 0.66772 0.74642 0.21202 0.0
C1235 C 0.67805 0.72498 0.21989 0.0
C1236 C 0.64341 0.74792 0.2096 0.0
C1237 C 0.62872 0.72806 0.21512 0.0
C1238 C 0.63895 0.70672 0.22355 0.0
C1239 C 0.66341 0.70519 0.22592 0.0
H1240 H 0.00227 0.18088 0.55959 0.0
H1241 H 0.94844 0.15284 0.6083 0.0
H1242 H 0.00885 0.14049 0.54405 0.0
H1243 H 0.95558 0.11243 0.59348 0.0
H1244 H 0.96225 0.04367 0.55124 0.0
H1245 H 0.95261 0.08511 0.55999 0.0
H1246 H 0.02662 0.10474 0.55925 0.0
H1247 H 0.03621 0.06327 0.54948 0.0
C1248 C 0.99169 0.16611 0.5668 0.0
C1249 C 0.97494 0.17 0.58528 0.0
C1250 C -0.00439 0.14294 0.55806 0.0
C1251 C 0.983 0.12316 0.56775 0.0
C1252 C 0.96548 0.12725 0.58541 0.0
C1253 C 0.9614 0.15045 0.59398 0.0
C1254 C 0.9765 0.05682 0.55292 0.0
C1255 C 4e-05 0.05016 0.54991 0.0
C1256 C 0.97095 0.08059 0.55799 0.0
C1257 C 0.98882 0.09825 0.56048 0.0
C1258 C 0.01237 0.09166 0.5571 0.0
C1259 C 0.01792 0.06787 0.55171 0.0
H1260 H 0.52739 0.27067 0.30004 0.0
H1261 H 0.56688 0.27781 0.36838 0.0
H1262 H 0.56411 0.2734 0.27674 0.0
H1263 H 0.60343 0.281 0.34501 0.0
H1264 H 0.66329 0.30237 0.29276 0.0
H1265 H 0.62419 0.30888 0.31038 0.0
H1266 H 0.59905 0.24206 0.27815 0.0
H1267 H 0.63803 0.23527 0.26121 0.0
C1268 C 0.54385 0.27318 0.31003 0.0
C1269 C 0.54436 0.27376 0.33601 0.0
C1270 C 0.56478 0.27479 0.29671 0.0
C1271 C 0.58645 0.27755 0.30915 0.0
C1272 C 0.58687 0.27918 0.33504 0.0
C1273 C 0.56602 0.27709 0.34838 0.0
C1274 C 0.64921 0.28943 0.28902 0.0
C1275 C 0.65356 0.26827 0.27582 0.0
C1276 C 0.62698 0.29308 0.29914 0.0
C1277 C 0.60876 0.27593 0.29557 0.0
C1278 C 0.61278 0.25561 0.28097 0.0
C1279 C 0.63506 0.25169 0.27141 0.0
H1280 H 0.47646 0.82238 0.10338 0.0
H1281 H 0.50324 0.86232 0.16636 0.0
H1282 H 0.46161 0.85907 0.08532 0.0
H1283 H 0.48975 0.89966 0.14753 0.0
H1284 H 0.45473 0.9631 0.11338 0.0
H1285 H 0.45854 0.92456 0.13442 0.0
H1286 H 0.47856 0.89182 0.06535 0.0
H1287 H 0.47367 0.92964 0.04435 0.0
C1288 C 0.47936 0.83918 0.11321 0.0
C1289 C 0.49141 0.83975 0.13595 0.0
C1290 C 0.47088 0.86021 0.10286 0.0
C1291 C 0.47485 0.88244 0.11469 0.0
C1292 C 0.48618 0.88285 0.13798 0.0
C1293 C 0.49415 0.86158 0.14868 0.0
C1294 C 0.4594 0.94749 0.10264 0.0
C1295 C 0.46408 0.94949 0.07723 0.0
C1296 C 0.46181 0.92547 0.11475 0.0
C1297 C 0.46911 0.9051 0.10169 0.0
C1298 C 0.47256 0.90695 0.07603 0.0
C1299 C 0.46988 0.92879 0.06394 0.0
H1300 H 0.92868 0.7167 0.83293 0.0
H1301 H 0.9683 0.78261 0.82037 0.0
H1302 H 0.90314 0.726 0.79773 0.0
H1303 H 0.94361 0.79137 0.78486 0.0
H1304 H 0.87406 0.81498 0.74943 0.0
H1305 H 0.90477 0.80419 0.77835 0.0
H1306 H 0.89993 0.73044 0.7533 0.0
H1307 H 0.86833 0.74118 0.7247 0.0
C1308 C 0.93202 0.73305 0.82256 0.0
C1309 C 0.95021 0.74911 0.8297 0.0
C1310 C 0.91759 0.73827 0.80222 0.0
C1311 C 0.92126 0.75951 0.78849 0.0
C1312 C 0.93996 0.77511 0.79527 0.0
C1313 C 0.95413 0.77007 0.81569 0.0
C1314 C 0.87982 0.79653 0.74966 0.0
C1315 C 0.86852 0.7789 0.73494 0.0
C1316 C 0.89757 0.79033 0.76625 0.0
C1317 C 0.90464 0.76635 0.76843 0.0
C1318 C 0.89454 0.74898 0.75243 0.0
C1319 C 0.87667 0.75521 0.73579 0.0
H1320 H 0.91982 0.02255 0.84585 0.0
H1321 H 0.8906 0.95021 0.84601 0.0
H1322 H 0.92936 0.01907 0.88948 0.0
H1323 H 0.90093 0.9464 0.88975 0.0
H1324 H 0.89999 0.95879 0.97377 0.0
H1325 H 0.89009 0.9612 0.92991 0.0
H1326 H 0.95586 -0.00079 0.91652 0.0
H1327 H 0.96536 -0.00246 0.96036 0.0
C1328 C 0.91566 0.00577 0.85516 0.0
C1329 C 0.9045 0.98661 0.84247 0.0
C1330 C 0.92125 0.00374 0.88018 0.0
C1331 C 0.91604 0.98241 0.89309 0.0
C1332 C 0.90493 0.96318 0.88039 0.0
C1333 C 0.89914 0.96529 0.85532 0.0
C1334 C 0.91231 0.96768 0.96145 0.0
C1335 C 0.93339 0.97812 0.97056 0.0
C1336 C 0.90671 0.96891 0.93629 0.0
C1337 C 0.92215 0.98045 0.91972 0.0
C1338 C 0.94336 0.99059 0.92884 0.0
C1339 C 0.94885 0.98955 0.95398 0.0
H1340 H 0.79707 0.13054 0.58543 0.0
H1341 H 0.78677 0.19213 0.53809 0.0
H1342 H 0.78873 0.15505 0.62146 0.0
H1343 H 0.77818 0.21658 0.57428 0.0
H1344 H 0.78532 0.25526 0.65088 0.0
H1345 H 0.79535 0.23359 0.61332 0.0
H1346 H 0.75204 0.17327 0.63673 0.0
H1347 H 0.74216 0.19467 0.67437 0.0
C1348 C 0.79336 0.14938 0.58271 0.0
C1349 C 0.79234 0.15931 0.55885 0.0
C1350 C 0.78834 0.16335 0.60335 0.0
C1351 C 0.7823 0.18757 0.6006 0.0
C1352 C 0.78271 0.19793 0.57692 0.0
C1353 C 0.78766 0.18392 0.55622 0.0
C1354 C 0.77765 0.23751 0.64787 0.0
C1355 C 0.76309 0.22663 0.66577 0.0
C1356 C 0.78343 0.22512 0.62635 0.0
C1357 C 0.77484 0.20159 0.62236 0.0
C1358 C 0.75936 0.19119 0.63963 0.0
C1359 C 0.75351 0.20357 0.66107 0.0
H1360 H 0.59775 0.98726 0.32426 0.0
H1361 H 0.6481 0.94578 0.36575 0.0
H1362 H 0.57323 0.99005 0.36084 0.0
H1363 H 0.62329 0.94855 0.40241 0.0
H1364 H 0.55893 0.9432 0.45583 0.0
H1365 H 0.58062 0.93589 0.41756 0.0
H1366 H 0.58159 0.01203 0.40207 0.0
H1367 H 0.56032 0.01939 0.44009 0.0
C1368 C 0.6035 0.97857 0.34112 0.0
C1369 C 0.62497 0.96649 0.34221 0.0
C1370 C 0.58945 0.9802 0.36203 0.0
C1371 C 0.59645 0.96955 0.38435 0.0
C1372 C 0.61748 0.95675 0.3853 0.0
C1373 C 0.63172 0.95535 0.36442 0.0
C1374 C 0.56363 0.95829 0.4441 0.0
C1375 C 0.55802 0.98186 0.45093 0.0
C1376 C 0.57611 0.95412 0.42236 0.0
C1377 C 0.58267 0.97341 0.40696 0.0
C1378 C 0.57654 -0.00316 0.41354 0.0
C1379 C 0.56449 0.00104 0.43536 0.0
H1380 H 0.77812 0.81265 0.01622 0.0
H1381 H 0.70799 0.82187 0.04463 0.0
H1382 H 0.78822 0.78875 0.05257 0.0
H1383 H 0.71807 0.79779 0.08066 0.0
H1384 H 0.75511 0.79378 0.15466 0.0
H1385 H 0.74638 0.81072 0.11454 0.0
H1386 H 0.7787 0.75039 0.07897 0.0
H1387 H 0.78756 0.73298 0.11986 0.0
C1388 C 0.7647 0.80915 0.02993 0.0
C1389 C 0.74237 0.81955 0.02779 0.0
C1390 C 0.7705 0.79536 0.05065 0.0
C1391 C 0.75407 0.79181 0.06957 0.0
C1392 C 0.73121 0.80065 0.0665 0.0
C1393 C 0.72541 0.81438 0.04583 0.0
C1394 C 0.76051 0.78403 0.13837 0.0
C1395 C 0.77172 0.76182 0.14043 0.0
C1396 C 0.75533 0.79371 0.11536 0.0
C1397 C 0.76123 0.78153 0.09368 0.0
C1398 C 0.77373 0.75998 0.0955 0.0
C1399 C 0.77891 0.75012 0.1188 0.0
H1400 H 0.9361 0.93974 0.7353 0.0
H1401 H 0.95785 0.01201 0.71529 0.0
H1402 H 0.95865 0.92386 0.70101 0.0
H1403 H 0.9806 -0.00404 0.6811 0.0
H1404 H 0.02781 0.96035 0.62711 0.0
H1405 H 0.01511 0.96805 0.66958 0.0
H1406 H 0.94973 0.92967 0.65451 0.0
H1407 H 0.96229 0.92254 0.61208 0.0
C1408 C 0.94605 0.95223 0.7239 0.0
C1409 C 0.94496 0.97719 0.72781 0.0
C1410 C 0.95895 0.94308 0.7043 0.0
C1411 C 0.97132 0.95867 0.68846 0.0
C1412 C 0.97142 0.98352 0.69323 0.0
C1413 C 0.95825 0.99272 0.71267 0.0
C1414 C 0.01121 0.95267 0.63334 0.0
C1415 C -0.0039 0.94055 0.61668 0.0
C1416 C 0.00385 0.9573 0.65746 0.0
C1417 C 0.98142 0.94956 0.66522 0.0
C1418 C 0.96721 0.93562 0.64909 0.0
C1419 C 0.97439 0.93142 0.62488 0.0
H1420 H 0.78893 0.12797 0.43876 0.0
H1421 H 0.72095 0.15351 0.4611 0.0
H1422 H 0.78534 0.14967 0.39989 0.0
H1423 H 0.71761 0.17562 0.42233 0.0
H1424 H 0.70917 0.1883 0.33878 0.0
H1425 H 0.71249 0.16752 0.37818 0.0
H1426 H 0.78525 0.19093 0.38446 0.0
H1427 H 0.78215 0.21137 0.34476 0.0
C1428 C 0.77325 0.13828 0.43542 0.0
C1429 C 0.7552 0.13901 0.453 0.0
C1430 C 0.77128 0.15085 0.41321 0.0
C1431 C 0.75124 0.16442 0.4081 0.0
C1432 C 0.73316 0.16511 0.42565 0.0
C1433 C 0.73512 0.15253 0.44789 0.0
C1434 C 0.72589 0.18909 0.34856 0.0
C1435 C 0.74543 0.20144 0.33855 0.0
C1436 C 0.72772 0.17729 0.37122 0.0
C1437 C 0.74913 0.17756 0.38439 0.0
C1438 C 0.76861 0.19013 0.37456 0.0
C1439 C 0.76678 0.20195 0.35187 0.0
H1440 H 0.61468 0.97588 0.19374 0.0
H1441 H 0.58136 0.02707 0.24159 0.0
H1442 H 0.59165 0.99068 0.15876 0.0
H1443 H 0.55858 0.04192 0.20663 0.0
H1444 H 0.5031 0.03846 0.14241 0.0
H1445 H 0.52662 0.02751 0.1784 0.0
H1446 H 0.58917 0.02834 0.1336 0.0
H1447 H 0.56573 0.03913 0.09749 0.0
C1448 C 0.60236 0.99017 0.19682 0.0
C1449 C 0.59982 0.00028 0.22042 0.0
C1450 C 0.58937 -0.00119 0.17676 0.0
C1451 C 0.57348 0.01761 0.17996 0.0
C1452 C 0.57062 0.02738 0.20364 0.0
C1453 C 0.58371 0.01887 0.22364 0.0
C1454 C 0.52193 0.03678 0.14029 0.0
C1455 C 0.53247 0.03949 0.11699 0.0
C1456 C 0.5354 0.03049 0.16093 0.0
C1457 C 0.55965 0.02668 0.15869 0.0
C1458 C 0.57042 0.0307 0.13574 0.0
C1459 C 0.557 0.03715 0.11512 0.0
H1460 H 0.79015 0.87893 0.91927 0.0
H1461 H 0.71916 0.85011 0.91217 0.0
H1462 H 0.79958 0.86227 0.87881 0.0
H1463 H 0.72848 0.83394 0.87178 0.0
H1464 H 0.75886 0.78656 0.8129 0.0
H1465 H 0.75238 0.8023 0.85424 0.0
H1466 H 0.78962 0.86799 0.83484 0.0
H1467 H 0.79655 0.85213 0.79362 0.0
C1468 C 0.77654 0.86918 0.90904 0.0
C1469 C 0.75394 0.86578 0.91895 0.0
C1470 C 0.78193 0.85971 0.88587 0.0
C1471 C 0.76481 0.84665 0.87223 0.0
C1472 C 0.74217 0.84352 0.88205 0.0
C1473 C 0.73679 0.85297 0.90514 0.0
C1474 C 0.76582 0.80429 0.81747 0.0
C1475 C 0.77809 0.81814 0.79989 0.0
C1476 C 0.76199 0.81336 0.84112 0.0
C1477 C 0.77031 0.83646 0.84769 0.0
C1478 C 0.78315 0.85005 0.83037 0.0
C1479 C 0.787 0.84099 0.8067 0.0
H1480 H 0.76925 0.93984 0.00907 0.0
H1481 H 0.75147 0.90027 0.0753 0.0
H1482 H 0.80282 0.95853 0.03061 0.0
H1483 H 0.78543 0.91867 0.09666 0.0
H1484 H 0.87121 0.91944 0.08906 0.0
H1485 H 0.8294 0.91008 0.08313 0.0
H1486 H 0.81627 0.98515 0.06973 0.0
H1487 H 0.85823 -0.00539 0.07648 0.0
C1488 C 0.77227 0.93551 0.02835 0.0
C1489 C 0.75797 0.91842 0.04044 0.0
C1490 C 0.7913 0.94639 0.04075 0.0
C1491 C 0.79657 0.94004 0.06528 0.0
C1492 C 0.78157 0.92391 0.07778 0.0
C1493 C 0.76224 0.91338 0.06553 0.0
C1494 C 0.85918 0.93403 0.08596 0.0
C1495 C 0.86773 0.95768 0.0832 0.0
C1496 C 0.8353 0.92872 0.08262 0.0
C1497 C 0.81975 0.94692 0.07585 0.0
C1498 C 0.828 0.97088 0.075 0.0
C1499 C 0.85188 0.97628 0.07898 0.0
H1500 H 0.3215 0.56448 0.90016 0.0
H1501 H 0.32663 0.58563 0.977 0.0
H1502 H 0.36451 0.5636 0.89803 0.0
H1503 H 0.36917 0.58437 0.97493 0.0
H1504 H 0.44364 0.60166 0.96186 0.0
H1505 H 0.40158 0.60663 0.95583 0.0
H1506 H 0.3975 0.53973 0.91527 0.0
H1507 H 0.43993 0.53502 0.9208 0.0
C1508 C 0.33177 0.56891 0.91656 0.0
C1509 C 0.32068 0.57519 0.93873 0.0
C1510 C 0.35634 0.56836 0.91533 0.0
C1511 C 0.37018 0.5742 0.93621 0.0
C1512 C 0.35901 0.58032 0.95835 0.0
C1513 C 0.33459 0.58084 0.95959 0.0
C1514 C 0.43386 0.58821 0.95127 0.0
C1515 C 0.44496 0.56774 0.94216 0.0
C1516 C 0.40976 0.59101 0.94791 0.0
C1517 C 0.39619 0.57328 0.93559 0.0
C1518 C 0.40754 0.55368 0.92485 0.0
C1519 C 0.4318 0.55096 0.92804 0.0
H1520 H 0.21655 0.54498 0.75716 0.0
H1521 H 0.18139 0.51634 0.69206 0.0
H1522 H 0.23271 0.57801 0.73271 0.0
H1523 H 0.19747 0.54965 0.66759 0.0
H1524 H 0.18664 0.636 0.66647 0.0
H1525 H 0.18409 0.59286 0.67364 0.0
H1526 H 0.25721 0.59316 0.69606 0.0
H1527 H 0.25985 0.63645 0.68855 0.0
C1528 C 0.2128 0.5454 0.73749 0.0
C1529 C 0.19736 0.52837 0.72662 0.0
C1530 C 0.22226 0.56417 0.72341 0.0
C1531 C 0.21623 0.56643 0.69826 0.0
C1532 C 0.20234 0.54832 0.68695 0.0
C1533 C 0.19314 0.5293 0.70098 0.0
C1534 C 0.20244 0.62666 0.67183 0.0
C1535 C 0.2233 0.63956 0.67738 0.0
C1536 C 0.20103 0.60192 0.67585 0.0
C1537 C 0.22037 0.58979 0.68582 0.0
C1538 C 0.24202 0.60219 0.68856 0.0
C1539 C 0.24354 0.62693 0.68413 0.0
H1540 H 0.14992 0.43914 0.48529 0.0
H1541 H 0.15271 0.42095 0.56297 0.0
H1542 H 0.1139 0.46135 0.49217 0.0
H1543 H 0.11674 0.44314 0.56974 0.0
H1544 H 0.03485 0.47016 0.51262 0.0
H1545 H 0.07208 0.45077 0.50441 0.0
H1546 H 0.10346 0.48632 0.56795 0.0
H1547 H 0.06622 0.50576 0.57629 0.0
C1548 C 0.14286 0.43989 0.50381 0.0
C1549 C 0.15411 0.42827 0.52359 0.0
C1550 C 0.12224 0.45254 0.50771 0.0
C1551 C 0.11264 0.45401 0.53149 0.0
C1552 C 0.12395 0.44252 0.55128 0.0
C1553 C 0.14442 0.42967 0.54735 0.0
C1554 C 0.04972 0.47401 0.52474 0.0
C1555 C 0.04755 0.48942 0.54518 0.0
C1556 C 0.07105 0.46299 0.51995 0.0
C1557 C 0.09056 0.46698 0.53563 0.0
C1558 C 0.08858 0.48276 0.55574 0.0
C1559 C 0.06731 0.49399 0.5604 0.0
H1560 H 0.82941 0.97205 0.75834 0.0
H1561 H 0.85353 -0.00551 0.68623 0.0
H1562 H 0.80328 0.94217 0.73905 0.0
H1563 H 0.82751 0.96423 0.66692 0.0
H1564 H 0.82386 0.8764 0.66838 0.0
H1565 H 0.83511 0.91868 0.67272 0.0
H1566 H 0.7689 0.93238 0.70819 0.0
H1567 H 0.75743 0.88991 0.70319 0.0
C1568 C 0.82872 0.97094 0.73835 0.0
C1569 C 0.84378 0.98522 0.7238 0.0
C1570 C 0.81354 0.95407 0.72727 0.0
C1571 C 0.81341 0.95096 0.70149 0.0
C1572 C 0.82726 0.96639 0.68682 0.0
C1573 C 0.84219 0.98358 0.6979 0.0
C1574 C 0.81126 0.88876 0.67589 0.0
C1575 C 0.7899 0.88016 0.68552 0.0
C1576 C 0.81762 0.91294 0.67833 0.0
C1577 C 0.80294 0.92867 0.69103 0.0
C1578 C 0.78048 0.92054 0.69835 0.0
C1579 C 0.77389 0.89635 0.6954 0.0
H1580 H 0.72643 0.02375 0.5505 0.0
H1581 H 0.71317 0.09992 0.54992 0.0
H1582 H 0.68534 0.01561 0.56133 0.0
H1583 H 0.67257 0.09196 0.56176 0.0
H1584 H 0.59976 0.06515 0.53436 0.0
H1585 H 0.64107 0.07603 0.53701 0.0
H1586 H 0.6521 0.0189 0.58978 0.0
H1587 H 0.61026 0.00752 0.58662 0.0
C1588 C 0.71486 0.03873 0.55326 0.0
C1589 C 0.72273 0.06239 0.54878 0.0
C1590 C 0.6914 0.03412 0.55967 0.0
C1591 C 0.67562 0.05315 0.56202 0.0
C1592 C 0.68414 0.07689 0.55949 0.0
C1593 C 0.70738 0.08145 0.55269 0.0
C1594 C 0.61086 0.05511 0.54686 0.0
C1595 C 0.60184 0.0353 0.56004 0.0
C1596 C 0.63458 0.0615 0.54857 0.0
C1597 C 0.64993 0.04828 0.56356 0.0
C1598 C 0.64071 0.02925 0.57789 0.0
C1599 C 0.61677 0.02288 0.57623 0.0
H1600 H 0.13705 0.41642 0.83437 0.0
H1601 H 0.20119 0.43517 0.79588 0.0
H1602 H 0.15195 0.3761 0.84207 0.0
H1603 H 0.21604 0.39508 0.80378 0.0
H1604 H 0.24222 0.32441 0.83058 0.0
H1605 H 0.22778 0.36503 0.83829 0.0
H1606 H 0.15945 0.34346 0.80947 0.0
H1607 H 0.17391 0.3033 0.80145 0.0
C1608 C 0.15444 0.41206 0.82789 0.0
C1609 C 0.16783 0.42878 0.8142 0.0
C1610 C 0.16295 0.38906 0.83237 0.0
C1611 C 0.18515 0.38259 0.82361 0.0
C1612 C 0.199 0.39973 0.81104 0.0
C1613 C 0.19037 0.42256 0.80624 0.0
C1614 C 0.22395 0.32825 0.82666 0.0
C1615 C 0.20918 0.31096 0.81524 0.0
C1616 C 0.21575 0.35142 0.83093 0.0
C1617 C 0.19257 0.35731 0.82433 0.0
C1618 C 0.17732 0.33934 0.8149 0.0
C1619 C 0.18562 0.31643 0.81019 0.0
H1620 H 0.33978 0.58601 0.19761 0.0
H1621 H 0.31092 0.5746 0.27048 0.0
H1622 H 0.31148 0.61769 0.19017 0.0
H1623 H 0.28267 0.60632 0.26295 0.0
H1624 H 0.26736 0.68836 0.25012 0.0
H1625 H 0.28837 0.65135 0.25786 0.0
H1626 H 0.26729 0.62467 0.18586 0.0
H1627 H 0.2461 0.66179 0.17802 0.0
C1628 C 0.32729 0.59013 0.21195 0.0
C1629 C 0.3277 0.57797 0.2347 0.0
C1630 C 0.31097 0.60811 0.2076 0.0
C1631 C 0.29491 0.61439 0.226 0.0
C1632 C 0.29495 0.60186 0.24852 0.0
C1633 C 0.3111 0.58371 0.25278 0.0
C1634 C 0.26685 0.67444 0.23609 0.0
C1635 C 0.25524 0.67804 0.21339 0.0
C1636 C 0.27878 0.65321 0.24059 0.0
C1637 C 0.27956 0.63526 0.22238 0.0
C1638 C 0.2671 0.63836 0.2001 0.0
C1639 C 0.25486 0.65951 0.19571 0.0
H1640 H 0.49106 0.68368 0.66074 0.0
H1641 H 0.45273 0.72842 0.60966 0.0
H1642 H 0.48161 0.64858 0.63538 0.0
H1643 H 0.44335 0.69307 0.58415 0.0
H1644 H 0.46423 0.6265 0.53376 0.0
H1645 H 0.46717 0.66349 0.55806 0.0
H1646 H 0.44495 0.62448 0.62306 0.0
H1647 H 0.44197 0.58757 0.59902 0.0
C1648 C 0.48059 0.68602 0.64411 0.0
C1649 C 0.47264 0.70881 0.63718 0.0
C1650 C 0.47504 0.66589 0.6297 0.0
C1651 C 0.46162 0.66814 0.60793 0.0
C1652 C 0.45375 0.69091 0.60085 0.0
C1653 C 0.45907 0.71107 0.61547 0.0
C1654 C 0.45956 0.62588 0.55312 0.0
C1655 C 0.45318 0.604 0.5645 0.0
C1656 C 0.46118 0.64708 0.56699 0.0
C1657 C 0.4566 0.64669 0.59247 0.0
C1658 C 0.44893 0.62514 0.60351 0.0
C1659 C 0.44713 0.60404 0.58967 0.0
H1660 H 0.57402 0.28631 0.8327 0.0
H1661 H 0.55331 0.21561 0.80624 0.0
H1662 H 0.60954 0.28491 0.80844 0.0
H1663 H 0.5889 0.21447 0.78115 0.0
H1664 H 0.67169 0.2117 0.77311 0.0
H1665 H 0.63107 0.21096 0.78783 0.0
H1666 H 0.62466 0.28575 0.76764 0.0
H1667 H 0.66537 0.28664 0.75409 0.0
C1668 C 0.57686 0.27058 0.82138 0.0
C1669 C 0.56088 0.25102 0.82152 0.0
C1670 C 0.5972 0.26985 0.80724 0.0
C1671 C 0.60205 0.24961 0.79269 0.0
C1672 C 0.58577 0.23024 0.7923 0.0
C1673 C 0.56535 0.23095 0.80658 0.0
C1674 C 0.66134 0.22776 0.77134 0.0
C1675 C 0.67168 0.24933 0.76293 0.0
C1676 C 0.63807 0.22736 0.77971 0.0
C1677 C 0.6248 0.24848 0.77944 0.0
C1678 C 0.63461 0.26939 0.76881 0.0
C1679 C 0.65787 0.26987 0.7609 0.0
H1680 H 0.97145 0.32183 0.06603 0.0
H1681 H 0.04514 0.30564 0.05861 0.0
H1682 H 0.97969 0.36311 0.05276 0.0
H1683 H 0.05329 0.34697 0.04566 0.0
H1684 H 0.00298 0.43309 0.01408 0.0
H1685 H -0.00364 0.38951 0.01642 0.0
H1686 H 0.04992 0.38512 0.07324 0.0
H1687 H 0.05632 0.42858 0.07124 0.0
C1688 C 0.98929 0.32693 0.06107 0.0
C1689 C 0.00768 0.31056 0.06363 0.0
C1690 C -0.00603 0.35051 0.05338 0.0
C1691 C 0.01716 0.35819 0.04845 0.0
C1692 C 0.03531 0.34148 0.04957 0.0
C1693 C 0.03058 0.31781 0.05688 0.0
C1694 C 0.01357 0.42275 0.0268 0.0
C1695 C 0.03009 0.43422 0.04258 0.0
C1696 C 0.00971 0.39789 0.02817 0.0
C1697 C 0.02267 0.38404 0.04494 0.0
C1698 C 0.03987 0.39538 0.05996 0.0
C1699 C 0.04341 0.42025 0.05893 0.0
H1700 H 0.96565 0.74355 0.31865 0.0
H1701 H 0.94648 0.66812 0.31328 0.0
H1702 H 0.93442 0.75316 0.28944 0.0
H1703 H 0.91488 0.67787 0.28434 0.0
H1704 H 0.86667 0.70018 0.22264 0.0
H1705 H 0.90488 0.69383 0.24271 0.0
H1706 H 0.89177 0.75258 0.29271 0.0
H1707 H 0.85404 0.75899 0.27263 0.0
C1708 C 0.9548 0.72899 0.31122 0.0
C1709 C 0.95836 0.70507 0.31856 0.0
C1710 C 0.93692 0.73452 0.29444 0.0
C1711 C 0.92214 0.7163 0.28462 0.0
C1712 C 0.92617 0.69229 0.29133 0.0
C1713 C 0.94411 0.68673 0.30813 0.0
C1714 C 0.87237 0.7122 0.23738 0.0
C1715 C 0.85736 0.72998 0.2462 0.0
C1716 C 0.89408 0.70838 0.24906 0.0
C1717 C 0.9012 0.7225 0.26949 0.0
C1718 C 0.88692 0.74147 0.27695 0.0
C1719 C 0.86524 0.74511 0.26548 0.0
H1720 H 0.53244 0.33449 0.92139 0.0
H1721 H 0.46014 0.34749 0.90077 0.0
H1722 H 0.53572 0.37485 0.93901 0.0
H1723 H 0.46344 0.38771 0.91854 0.0
H1724 H 0.5264 0.44254 0.98632 0.0
H1725 H 0.52047 0.40076 0.97311 0.0
H1726 H 0.48528 0.42497 0.90683 0.0
H1727 H 0.491 0.46649 0.91995 0.0
C1728 C 0.5172 0.34587 0.92078 0.0
C1729 C 0.49609 0.33785 0.90949 0.0
C1730 C 0.51905 0.36892 0.93103 0.0
C1731 C 0.49986 0.38446 0.93006 0.0
C1732 C 0.47859 0.37622 0.91931 0.0
C1733 C 0.4767 0.35315 0.90921 0.0
C1734 C 0.51721 0.43891 0.96905 0.0
C1735 C 0.50925 0.45786 0.95416 0.0
C1736 C 0.51395 0.41501 0.96144 0.0
C1737 C 0.50242 0.40961 0.93895 0.0
C1738 C 0.49399 0.42854 0.92439 0.0
C1739 C 0.49742 0.45236 0.93185 0.0
H1740 H 0.94707 0.21887 0.19605 0.0
H1741 H 0.9121 0.26206 0.14096 0.0
H1742 H 0.90934 0.2112 0.21632 0.0
H1743 H 0.8746 0.25439 0.16122 0.0
H1744 H 0.8092 0.21491 0.18562 0.0
H1745 H 0.84816 0.21801 0.16751 0.0
H1746 H 0.87819 0.23485 0.23919 0.0
H1747 H 0.83911 0.23172 0.25756 0.0
C1748 C 0.93138 0.22681 0.18834 0.0
C1749 C 0.93253 0.24103 0.16687 0.0
C1750 C 0.90984 0.22244 0.19997 0.0
C1751 C 0.88908 0.23198 0.19015 0.0
C1752 C 0.89031 0.24648 0.16892 0.0
C1753 C 0.91181 0.25103 0.15746 0.0
C1754 C 0.8241 0.2189 0.19767 0.0
C1755 C 0.82097 0.22337 0.22301 0.0
C1756 C 0.84639 0.22082 0.18723 0.0
C1757 C 0.86607 0.22708 0.20189 0.0
C1758 C 0.86327 0.23002 0.22748 0.0
C1759 C 0.84089 0.22824 0.23796 0.0
H1760 H 0.99258 0.65412 0.41827 0.0
H1761 H 0.05784 0.68092 0.4506 0.0
H1762 H 0.98341 0.63329 0.45661 0.0
H1763 H 0.04841 0.66022 0.48922 0.0
H1764 H 0.9601 0.61745 0.53226 0.0
H1765 H 0.97246 0.64425 0.49906 0.0
H1766 H 0.04356 0.61893 0.50605 0.0
H1767 H 0.03133 0.59233 0.53959 0.0
C1768 C 0.00504 0.65547 0.4335 0.0
C1769 C 0.02591 0.66922 0.43138 0.0
C1770 C -0.00036 0.64377 0.4556 0.0
C1771 C 0.01498 0.64552 0.47609 0.0
C1772 C 0.03623 0.65862 0.47376 0.0
C1773 C 0.04162 0.67041 0.45162 0.0
C1774 C 0.97852 0.61807 0.52721 0.0
C1775 C -0.00536 0.60245 0.53826 0.0
C1776 C 0.98554 0.63325 0.50803 0.0
C1777 C 0.00881 0.63312 0.49947 0.0
C1778 C 0.02547 0.61932 0.51215 0.0
C1779 C 0.01846 0.60413 0.53146 0.0
H1780 H 0.56723 0.76922 0.73551 0.0
H1781 H 0.58524 0.72683 0.67159 0.0
H1782 H 0.60847 0.78225 0.73985 0.0
H1783 H 0.62614 0.73999 0.67594 0.0
H1784 H 0.68811 0.79291 0.67142 0.0
H1785 H 0.64647 0.78121 0.67041 0.0
H1786 H 0.64937 0.7644 0.74828 0.0
H1787 H 0.69103 0.77603 0.74941 0.0
C1788 C 0.58 0.7624 0.72264 0.0
C1789 C 0.57293 0.74712 0.70311 0.0
C1790 C 0.60354 0.76991 0.72511 0.0
C1791 C 0.6203 0.76246 0.70793 0.0
C1792 C 0.61343 0.74637 0.68911 0.0
C1793 C 0.59003 0.73867 0.6868 0.0
C1794 C 0.6798 0.78709 0.68841 0.0
C1795 C 0.69289 0.78522 0.71044 0.0
C1796 C 0.65605 0.7802 0.68777 0.0
C1797 C 0.64488 0.77162 0.70921 0.0
C1798 C 0.6576 0.77094 0.73152 0.0
C1799 C 0.68143 0.77754 0.73211 0.0
H1800 H 0.62437 0.51703 0.64984 0.0
H1801 H 0.58241 0.49467 0.71235 0.0
H1802 H 0.59012 0.51144 0.62269 0.0
H1803 H 0.54805 0.48942 0.6851 0.0
H1804 H 0.4913 0.51876 0.62532 0.0
H1805 H 0.52264 0.51849 0.65673 0.0
H1806 H 0.56438 0.47405 0.60943 0.0
H1807 H 0.53328 0.47392 0.57832 0.0
C1808 C 0.60784 0.51096 0.65776 0.0
C1809 C 0.60607 0.5062 0.68315 0.0
C1810 C 0.58831 0.50764 0.64224 0.0
C1811 C 0.56656 0.49986 0.65187 0.0
C1812 C 0.56464 0.49543 0.6773 0.0
C1813 C 0.58432 0.49834 0.69279 0.0
C1814 C 0.50687 0.50837 0.62193 0.0
C1815 C 0.50994 0.4967 0.59914 0.0
C1816 C 0.5248 0.50828 0.63987 0.0
C1817 C 0.54603 0.49666 0.63516 0.0
C1818 C 0.54833 0.48352 0.61324 0.0
C1819 C 0.53043 0.4834 0.5955 0.0
H1820 H 0.82029 0.3656 0.9424 0.0
H1821 H 0.74536 0.3631 0.95561 0.0
H1822 H 0.81453 0.33955 0.90649 0.0
H1823 H 0.73971 0.33657 0.92022 0.0
H1824 H 0.73645 0.3184 0.83762 0.0
H1825 H 0.74166 0.34042 0.87604 0.0
H1826 H 0.80324 0.29908 0.89334 0.0
H1827 H 0.79841 0.27732 0.85438 0.0
C1828 C 0.80263 0.35931 0.93779 0.0
C1829 C 0.78326 0.3666 0.95168 0.0
C1830 C 0.79935 0.34423 0.91733 0.0
C1831 C 0.77664 0.33607 0.91046 0.0
C1832 C 0.75737 0.34288 0.92478 0.0
C1833 C 0.76063 0.35804 0.94511 0.0
C1834 C 0.75101 0.31379 0.84967 0.0
C1835 C 0.76709 0.29616 0.84284 0.0
C1836 C 0.75391 0.32636 0.87181 0.0
C1837 C 0.7729 0.32154 0.88773 0.0
C1838 C 0.78863 0.30343 0.88128 0.0
C1839 C 0.78576 0.29087 0.85904 0.0
H1840 H 0.94985 0.55099 0.2541 0.0
H1841 H 0.94008 0.47647 0.23297 0.0
H1842 H 0.97849 0.55651 0.22118 0.0
H1843 H 0.96851 0.48212 0.19994 0.0
H1844 H 0.98997 0.5614 0.13533 0.0
H1845 H 0.97215 0.55741 0.17587 0.0
H1846 H 0.0098 0.49177 0.18836 0.0
H1847 H 0.02754 0.49556 0.14761 0.0
C1848 C 0.95409 0.53568 0.24271 0.0
C1849 C 0.94242 0.51338 0.24587 0.0
C1850 C 0.97044 0.53889 0.22383 0.0
C1851 C 0.97554 0.51983 0.20784 0.0
C1852 C 0.96508 0.49711 0.21208 0.0
C1853 C 0.94866 0.49391 0.23091 0.0
C1854 C -0.00519 0.54634 0.14686 0.0
C1855 C 0.00991 0.52862 0.13806 0.0
C1856 C 0.98471 0.54414 0.17019 0.0
C1857 C 0.98945 0.52416 0.18519 0.0
C1858 C 0.00563 0.5072 0.17704 0.0
C1859 C 0.01585 0.50946 0.15374 0.0
H1860 H 0.73231 0.59029 0.40616 0.0
H1861 H 0.77103 0.65008 0.43896 0.0
H1862 H 0.74003 0.60672 0.3651 0.0
H1863 H 0.77762 0.66702 0.39848 0.0
H1864 H 0.79685 0.68933 0.32245 0.0
H1865 H 0.79596 0.66582 0.36037 0.0
H1866 H 0.72628 0.63879 0.34097 0.0
H1867 H 0.72787 0.66129 0.30242 0.0
C1868 C 0.74265 0.60678 0.4046 0.0
C1869 C 0.75084 0.61897 0.42583 0.0
C1870 C 0.74689 0.61634 0.3811 0.0
C1871 C 0.75918 0.63841 0.3784 0.0
C1872 C 0.76836 0.64987 0.39965 0.0
C1873 C 0.76442 0.64018 0.42302 0.0
C1874 C 0.78139 0.67828 0.3263 0.0
C1875 C 0.76232 0.67733 0.30965 0.0
C1876 C 0.78084 0.66482 0.34806 0.0
C1877 C 0.76097 0.65049 0.35393 0.0
C1878 C 0.74206 0.64926 0.33696 0.0
C1879 C 0.74283 0.66237 0.31496 0.0
H1880 H 0.60005 0.57085 0.76139 0.0
H1881 H 0.65243 0.52848 0.79881 0.0
H1882 H 0.57918 0.5756 0.80037 0.0
H1883 H 0.63159 0.53336 0.8377 0.0
H1884 H 0.60093 0.56811 0.90639 0.0
H1885 H 0.62159 0.56765 0.86708 0.0
H1886 H 0.55704 0.54671 0.82951 0.0
H1887 H 0.53623 0.54707 0.86883 0.0
C1888 C 0.60717 0.56268 0.77794 0.0
C1889 C 0.62784 0.54926 0.77708 0.0
C1890 C 0.59517 0.56532 0.80017 0.0
C1891 C 0.60384 0.55488 0.82195 0.0
C1892 C 0.62469 0.54178 0.82117 0.0
C1893 C 0.63651 0.53887 0.79891 0.0
C1894 C 0.59105 0.56367 0.88974 0.0
C1895 C 0.56696 0.55749 0.89073 0.0
C1896 C 0.60293 0.56328 0.86729 0.0
C1897 C 0.5909 0.55701 0.84538 0.0
C1898 C 0.56666 0.55172 0.84617 0.0
C1899 C 0.55481 0.55183 0.86868 0.0
H1900 H 0.73786 0.38105 0.07672 0.0
H1901 H 0.79262 0.33031 0.06195 0.0
H1902 H 0.72343 0.35569 0.1101 0.0
H1903 H 0.77873 0.30531 0.09607 0.0
H1904 H 0.73881 0.25553 0.1465 0.0
H1905 H 0.74729 0.27925 0.10963 0.0
H1906 H 0.73465 0.34441 0.15059 0.0
H1907 H 0.72539 0.32082 0.18699 0.0
C1908 C 0.74697 0.36456 0.08076 0.0
C1909 C 0.76648 0.35774 0.06679 0.0
C1910 C 0.7387 0.35003 0.09994 0.0
C1911 C 0.7499 0.32845 0.10581 0.0
C1912 C 0.76941 0.3216 0.09177 0.0
C1913 C 0.77754 0.33604 0.07238 0.0
C1914 C 0.73738 0.2749 0.14748 0.0
C1915 C 0.73158 0.28627 0.16977 0.0
C1916 C 0.74248 0.28851 0.12641 0.0
C1917 C 0.742 0.31376 0.12723 0.0
C1918 C 0.73501 0.325 0.14918 0.0
C1919 C 0.72975 0.31142 0.17015 0.0
H1920 H 0.94117 0.48421 0.35361 0.0
H1921 H 0.87658 0.52344 0.35982 0.0
H1922 H 0.94866 0.48976 0.3975 0.0
H1923 H 0.88393 0.5286 0.4042 0.0
H1924 H 0.92125 0.55076 0.47905 0.0
H1925 H 0.91113 0.54806 0.43502 0.0
H1926 H 0.93083 0.47345 0.43484 0.0
H1927 H 0.94132 0.47621 0.47834 0.0
C1928 C 0.92856 0.49406 0.36435 0.0
C1929 C 0.90816 0.50317 0.35331 0.0
C1930 C 0.93279 0.49711 0.38955 0.0
C1931 C 0.91666 0.50923 0.40436 0.0
C1932 C 0.89667 0.51919 0.39321 0.0
C1933 C 0.89245 0.51619 0.36786 0.0
C1934 C 0.92315 0.53374 0.46962 0.0
C1935 C 0.93239 0.51379 0.48205 0.0
C1936 C 0.91734 0.5322 0.44445 0.0
C1937 C 0.92063 0.51068 0.43142 0.0
C1938 C 0.92871 0.49047 0.44424 0.0
C1939 C 0.9346 0.49202 0.46921 0.0
H1940 H 0.79486 0.69855 0.50741 0.0
H1941 H 0.72511 0.69503 0.53869 0.0
H1942 H 0.80442 0.73357 0.53301 0.0
H1943 H 0.73477 0.72974 0.56438 0.0
H1944 H 0.81827 0.75454 0.61712 0.0
H1945 H 0.81099 0.73412 0.57806 0.0
H1946 H 0.7462 0.77253 0.56869 0.0
H1947 H 0.75327 0.79284 0.60804 0.0
C1948 C 0.7814 0.70552 0.51936 0.0
C1949 C 0.75939 0.69373 0.52144 0.0
C1950 C 0.78691 0.72557 0.534 0.0
C1951 C 0.77046 0.73423 0.55087 0.0
C1952 C 0.74779 0.72364 0.55141 0.0
C1953 C 0.74231 0.70357 0.53684 0.0
C1954 C 0.8028 0.7592 0.60644 0.0
C1955 C 0.78603 0.7748 0.61605 0.0
C1956 C 0.7987 0.74759 0.5839 0.0
C1957 C 0.77777 0.75139 0.57056 0.0
C1958 C 0.76226 0.76894 0.57885 0.0
C1959 C 0.76638 0.78061 0.60137 0.0
H1960 H 0.66768 0.56639 0.54456 0.0
H1961 H 0.66199 0.61053 0.47907 0.0
H1962 H 0.62735 0.5518 0.5381 0.0
H1963 H 0.62168 0.59578 0.47261 0.0
H1964 H 0.54186 0.58591 0.49281 0.0
H1965 H 0.58296 0.59943 0.49422 0.0
H1966 H 0.60448 0.52655 0.5076 0.0
H1967 H 0.56352 0.51294 0.50636 0.0
C1968 C 0.65786 0.57294 0.52878 0.0
C1969 C 0.66801 0.58964 0.51236 0.0
C1970 C 0.63483 0.56445 0.52498 0.0
C1971 C 0.62146 0.57259 0.50479 0.0
C1972 C 0.63157 0.58932 0.4884 0.0
C1973 C 0.65466 0.59769 0.49208 0.0
C1974 C 0.55536 0.5727 0.49566 0.0
C1975 C 0.54936 0.54838 0.49969 0.0
C1976 C 0.57889 0.58045 0.49641 0.0
C1977 C 0.59683 0.56406 0.50133 0.0
C1978 C 0.59094 0.53961 0.50418 0.0
C1979 C 0.56747 0.53182 0.50328 0.0
H1980 H 0.21927 0.90453 0.54962 0.0
H1981 H 0.20494 0.93404 0.47722 0.0
H1982 H 0.18314 0.92186 0.56509 0.0
H1983 H 0.16884 0.95132 0.49276 0.0
H1984 H 0.11047 0.98968 0.52908 0.0
H1985 H 0.1519 0.98094 0.52293 0.0
H1986 H 0.14095 0.91059 0.55502 0.0
H1987 H 0.09957 0.91921 0.56121 0.0
C1988 C 0.20864 0.91505 0.5371 0.0
C1989 C 0.2148 0.9177 0.5121 0.0
C1990 C 0.18795 0.92491 0.54598 0.0
C1991 C 0.17318 0.93783 0.53011 0.0
C1992 C 0.18002 0.94164 0.50548 0.0
C1993 C 0.20059 0.93159 0.49653 0.0
C1994 C 0.117 0.97258 0.53545 0.0
C1995 C 0.10165 0.95498 0.54533 0.0
C1996 C 0.1407 0.96757 0.53177 0.0
C1997 C 0.14953 0.94501 0.53822 0.0
C1998 C 0.13464 0.92818 0.54996 0.0
C1999 C 0.1109 0.93308 0.55341 0.0
H2000 H 0.28388 0.91973 0.80613 0.0
H2001 H 0.32193 0.91077 0.73798 0.0
H2002 H 0.26087 0.88308 0.7972 0.0
H2003 H 0.2988 0.87429 0.72907 0.0
H2004 H 0.2359 0.82623 0.70867 0.0
H2005 H 0.25533 0.86435 0.71936 0.0
H2006 H 0.26952 0.83791 0.79291 0.0
H2007 H 0.25018 0.79962 0.7823 0.0
C2008 C 0.28733 0.90994 0.78927 0.0
C2009 C 0.3047 0.9181 0.77274 0.0
C2010 C 0.2742 0.88898 0.78423 0.0
C2011 C 0.27797 0.87604 0.76238 0.0
C2012 C 0.29536 0.88415 0.7459 0.0
C2013 C 0.30871 0.9049 0.7511 0.0
C2014 C 0.2428 0.82863 0.72726 0.0
C2015 C 0.24164 0.80981 0.74459 0.0
C2016 C 0.25407 0.85039 0.73328 0.0
C2017 C 0.26412 0.85389 0.75684 0.0
C2018 C 0.26187 0.83563 0.77462 0.0
C2019 C 0.25085 0.81372 0.76851 0.0
H2020 H 0.28493 0.06311 0.02888 0.0
H2021 H 0.28203 0.07954 0.10697 0.0
H2022 H 0.32742 0.05987 0.03193 0.0
H2023 H 0.32493 0.07613 0.1099 0.0
H2024 H 0.40097 0.03944 0.09877 0.0
H2025 H 0.35837 0.04409 0.10277 0.0
H2026 H 0.35876 0.09306 0.04089 0.0
H2027 H 0.40099 0.0886 0.03682 0.0
C2028 C 0.2933 0.06575 0.04678 0.0
C2029 C 0.28013 0.07187 0.06763 0.0
C2030 C 0.31765 0.06405 0.04846 0.0
C2031 C 0.32938 0.06825 0.07104 0.0
C2032 C 0.31622 0.07297 0.09227 0.0
C2033 C 0.29173 0.07488 0.09055 0.0
C2034 C 0.39204 0.05167 0.08644 0.0
C2035 C 0.40426 0.06331 0.06718 0.0
C2036 C 0.3677 0.05427 0.08873 0.0
C2037 C 0.35535 0.06847 0.07175 0.0
C2038 C 0.36787 0.08157 0.05384 0.0
C2039 C 0.39206 0.07907 0.0516 0.0
H2040 H 0.71931 0.58197 0.73771 0.0
H2041 H 0.71554 0.59594 0.65917 0.0
H2042 H 0.74223 0.61878 0.74379 0.0
H2043 H 0.73807 0.63343 0.66541 0.0
H2044 H 0.79147 0.69261 0.68278 0.0
H2045 H 0.77596 0.6517 0.6777 0.0
H2046 H 0.73292 0.66068 0.74243 0.0
H2047 H 0.74871 0.70119 0.74785 0.0
C2048 C 0.72338 0.59294 0.7217 0.0
C2049 C 0.71532 0.58626 0.69797 0.0
C2050 C 0.73649 0.61407 0.72523 0.0
C2051 C 0.7417 0.62918 0.70516 0.0
C2052 C 0.73448 0.62206 0.68124 0.0
C2053 C 0.72146 0.6007 0.67766 0.0
C2054 C 0.77901 0.6857 0.69619 0.0
C2055 C 0.77122 0.70024 0.71566 0.0
C2056 C 0.76999 0.66233 0.69313 0.0
C2057 C 0.75309 0.65303 0.70952 0.0
C2058 C 0.74613 0.6672 0.72961 0.0
C2059 C 0.75513 0.6905 0.73268 0.0
H2060 H 0.83567 0.45248 0.99 0.0
H2061 H 0.83635 0.46262 0.06924 0.0
H2062 H 0.87278 0.47481 0.987 0.0
H2063 H 0.87392 0.48427 0.06636 0.0
H2064 H 0.95297 0.48576 -0.00248 0.0
H2065 H 0.91319 0.46902 -0.00296 0.0
H2066 H 0.89293 0.52062 0.0523 0.0
H2067 H 0.93304 0.53694 0.05338 0.0
C2068 C 0.8438 0.4594 0.00681 0.0
C2069 C 0.83315 0.45567 0.0299 0.0
C2070 C 0.86512 0.47215 0.00508 0.0
C2071 C 0.87638 0.4813 0.02642 0.0
C2072 C 0.86555 0.47782 0.04949 0.0
C2073 C 0.84411 0.46522 0.05119 0.0
C2074 C 0.93996 0.49384 0.00928 0.0
C2075 C 0.94626 0.51254 0.02568 0.0
C2076 C 0.91708 0.48426 0.00895 0.0
C2077 C 0.89991 0.49329 0.02486 0.0
C2078 C 0.90588 0.51291 0.04022 0.0
C2079 C 0.92882 0.52239 0.04068 0.0
H2080 H 0.3143 0.03769 0.70533 0.0
H2081 H 0.29484 0.0315 0.78221 0.0
H2082 H 0.29423 0.07609 0.70272 0.0
H2083 H 0.27485 0.06972 0.77953 0.0
H2084 H 0.22836 0.13166 0.76421 0.0
H2085 H 0.24105 0.0905 0.75872 0.0
H2086 H 0.30418 0.11648 0.72281 0.0
H2087 H 0.29156 0.1578 0.72816 0.0
C2088 C 0.30539 0.0443 0.72152 0.0
C2089 C 0.30629 0.03174 0.74405 0.0
C2090 C 0.29402 0.06629 0.72003 0.0
C2091 C 0.2831 0.07585 0.74093 0.0
C2092 C 0.28295 0.06265 0.76306 0.0
C2093 C 0.29453 0.04085 0.76464 0.0
C2094 C 0.24479 0.12866 0.7548 0.0
C2095 C 0.25914 0.14806 0.74696 0.0
C2096 C 0.25203 0.10507 0.75171 0.0
C2097 C 0.27365 0.10038 0.74055 0.0
C2098 C 0.28734 0.11963 0.73134 0.0
C2099 C 0.28018 0.14328 0.73456 0.0
H2100 H 0.19388 0.95342 0.23685 0.0
H2101 H 0.1481 0.96447 0.17382 0.0
H2102 H 0.21044 0.91852 0.21635 0.0
H2103 H 0.16446 0.92934 0.15358 0.0
H2104 H 0.24323 0.86198 0.16937 0.0
H2105 H 0.23302 0.90407 0.17653 0.0
H2106 H 0.15929 0.88495 0.16909 0.0
H2107 H 0.16946 0.843 0.16266 0.0
C2108 C 0.18764 0.94864 0.21848 0.0
C2109 C 0.16952 0.96151 0.20707 0.0
C2110 C 0.19726 0.92881 0.20666 0.0
C2111 C 0.1887 0.92131 0.18339 0.0
C2112 C 0.17135 0.93481 0.1715 0.0
C2113 C 0.16201 0.95488 0.18313 0.0
C2114 C 0.22493 0.86703 0.16829 0.0
C2115 C 0.20708 0.8494 0.16546 0.0
C2116 C 0.21911 0.89099 0.1726 0.0
C2117 C 0.19539 0.89764 0.1735 0.0
C2118 C 0.17771 0.88034 0.1683 0.0
C2119 C 0.1835 0.85637 0.16461 0.0
H2120 H 0.4353 0.31486 0.44626 0.0
H2121 H 0.50923 0.32755 0.43179 0.0
H2122 H 0.43329 0.35435 0.46574 0.0
H2123 H 0.50705 0.36706 0.45057 0.0
H2124 H 0.5011 0.42851 0.50402 0.0
H2125 H 0.502 0.38718 0.4895 0.0
H2126 H 0.43493 0.3962 0.45271 0.0
H2127 H 0.43367 0.43742 0.46781 0.0
C2128 C 0.45112 0.32601 0.44732 0.0
C2129 C 0.4724 0.31813 0.43742 0.0
C2130 C 0.44993 0.34867 0.45833 0.0
C2131 C 0.46998 0.36385 0.4596 0.0
C2132 C 0.49136 0.35568 0.45019 0.0
C2133 C 0.49257 0.33306 0.43928 0.0
C2134 C 0.4865 0.42169 0.49287 0.0
C2135 C 0.46739 0.43631 0.48691 0.0
C2136 C 0.48706 0.39801 0.48451 0.0
C2137 C 0.46859 0.38846 0.46987 0.0
C2138 C 0.44929 0.40294 0.46422 0.0
C2139 C 0.44867 0.42662 0.47271 0.0
H2140 H 0.42542 0.7596 0.10014 0.0
H2141 H 0.44355 0.75897 0.1779 0.0
H2142 H 0.38391 0.76264 0.11053 0.0
H2143 H 0.40233 0.76298 0.18828 0.0
H2144 H 0.32516 0.74588 0.19915 0.0
H2145 H 0.36606 0.74175 0.18819 0.0
H2146 H 0.35655 0.79061 0.12691 0.0
H2147 H 0.315 0.794 0.13736 0.0
C2148 C 0.42052 0.76003 0.11944 0.0
C2149 C 0.43771 0.75894 0.1382 0.0
C2150 C 0.39677 0.76204 0.12539 0.0
C2151 C 0.38978 0.76322 0.15023 0.0
C2152 C 0.40702 0.76177 0.16896 0.0
C2153 C 0.43069 0.75949 0.16302 0.0
C2154 C 0.33175 0.75592 0.18342 0.0
C2155 C 0.3168 0.77035 0.16915 0.0
C2156 C 0.3553 0.75359 0.17718 0.0
C2157 C 0.36464 0.76586 0.1567 0.0
C2158 C 0.34981 0.7806 0.14259 0.0
C2159 C 0.32607 0.78273 0.14869 0.0
H2160 H 0.03375 0.7172 0.94165 0.0
H2161 H 0.96178 0.69104 0.93921 0.0
H2162 H 0.04214 0.69031 0.97572 0.0
H2163 H 0.9705 0.66245 0.97215 0.0
H2164 H 0.98777 0.61953 0.03952 0.0
H2165 H 0.97911 0.65404 0.01335 0.0
H2166 H 0.04907 0.65088 0.98268 0.0
H2167 H 0.05805 0.61794 0.00969 0.0
C2168 C 0.0198 0.70532 0.94819 0.0
C2169 C -0.00279 0.70589 0.93757 0.0
C2170 C 0.02461 0.68978 0.96773 0.0
C2171 C 0.00715 0.67377 0.97665 0.0
C2172 C 0.98438 0.67465 0.96615 0.0
C2173 C 0.97939 0.6908 0.94703 0.0
C2174 C 0.00147 0.62672 0.02767 0.0
C2175 C 0.02355 0.61581 0.02664 0.0
C2176 C -0.00359 0.64632 0.01237 0.0
C2177 C 0.01321 0.65519 -0.00454 0.0
C2178 C 0.03568 0.64501 -0.00444 0.0
C2179 C 0.04084 0.62584 0.0111 0.0
H2180 H 0.06255 0.17865 0.6524 0.0
H2181 H 0.06264 0.25638 0.65243 0.0
H2182 H 0.09883 0.17944 0.67698 0.0
H2183 H 0.09825 0.25713 0.67746 0.0
H2184 H 0.17319 0.25249 0.70222 0.0
H2185 H 0.13921 0.2489 0.67499 0.0
H2186 H 0.1123 0.18953 0.71866 0.0
H2187 H 0.14696 0.19263 0.74565 0.0
C2188 C 0.07034 0.19588 0.65759 0.0
C2189 C 0.05978 0.21745 0.65045 0.0
C2190 C 0.09099 0.19631 0.67181 0.0
C2191 C 0.1014 0.21833 0.67916 0.0
C2192 C 0.09092 0.23986 0.67176 0.0
C2193 C 0.07042 0.23943 0.65748 0.0
C2194 C 0.16006 0.23864 0.70607 0.0
C2195 C 0.16262 0.223 0.72627 0.0
C2196 C 0.14053 0.23663 0.69046 0.0
C2197 C 0.12293 0.21911 0.69481 0.0
C2198 C 0.12568 0.20309 0.7147 0.0
C2199 C 0.14543 0.20496 0.73025 0.0
H2200 H 0.57603 0.71018 0.10057 0.0
H2201 H 0.52236 0.74822 0.0605 0.0
H2202 H 0.57989 0.68253 0.06593 0.0
H2203 H 0.52717 0.72165 0.02518 0.0
H2204 H 0.50862 0.64519 -0.00255 0.0
H2205 H 0.51365 0.6821 0.02037 0.0
H2206 H 0.58875 0.6712 0.02455 0.0
H2207 H 0.58343 0.63324 0.00211 0.0
C2208 C 0.56562 0.71306 0.08399 0.0
C2209 C 0.5485 0.73086 0.08332 0.0
C2210 C 0.56796 0.69736 0.06401 0.0
C2211 C 0.55348 0.69954 0.04289 0.0
C2212 C 0.53808 0.71898 0.04143 0.0
C2213 C 0.53534 0.73424 0.0616 0.0
C2214 C 0.52631 0.65083 0.00281 0.0
C2215 C 0.54556 0.63605 -0.00156 0.0
C2216 C 0.52926 0.67226 0.01579 0.0
C2217 C 0.55161 0.67961 0.02461 0.0
C2218 C 0.57123 0.66584 0.0184 0.0
C2219 C 0.56823 0.64421 0.00537 0.0
H2220 H 0.02915 0.72119 0.79768 0.0
H2221 H 0.07504 0.77125 0.83695 0.0
H2222 H 0.05583 0.72175 0.76283 0.0
H2223 H 0.10227 0.77119 0.80226 0.0
H2224 H 0.14233 0.77737 0.73201 0.0
H2225 H 0.10882 0.78228 0.75936 0.0
H2226 H 0.09366 0.70595 0.75494 0.0
H2227 H 0.12651 0.70116 0.72724 0.0
C2228 C 0.04502 0.73225 0.79893 0.0
C2229 C 0.05016 0.74594 0.82022 0.0
C2230 C 0.06031 0.73257 0.7789 0.0
C2231 C 0.08125 0.74641 0.77975 0.0
C2232 C 0.08612 0.76059 0.80083 0.0
C2233 C 0.07067 0.76043 0.82084 0.0
C2234 C 0.13139 0.76177 0.73626 0.0
C2235 C 0.13729 0.73881 0.7277 0.0
C2236 C 0.11237 0.76455 0.7522 0.0
C2237 C 0.09885 0.74445 0.75974 0.0
C2238 C 0.10361 0.72186 0.74949 0.0
C2239 C 0.12255 0.71909 0.73361 0.0
H2240 H -0.00082 0.32684 0.64265 0.0
H2241 H 0.96512 0.29983 0.57618 0.0
H2242 H 0.98417 0.36658 0.63433 0.0
H2243 H 0.94945 0.33967 0.56817 0.0
H2244 H 0.95808 0.42058 0.54744 0.0
H2245 H 0.96434 0.37842 0.5558 0.0
H2246 H 0.94891 0.39 0.63296 0.0
H2247 H 0.9434 0.43266 0.62473 0.0
C2248 C 0.98838 0.32937 0.62629 0.0
C2249 C 0.98349 0.31025 0.60996 0.0
C2250 C 0.9795 0.35211 0.6217 0.0
C2251 C 0.96539 0.35625 0.60073 0.0
C2252 C 0.96039 0.33708 0.58441 0.0
C2253 C 0.96941 0.3143 0.58895 0.0
C2254 C 0.95561 0.41413 0.56615 0.0
C2255 C 0.95073 0.4301 0.58553 0.0
C2256 C 0.95906 0.38984 0.5709 0.0
C2257 C 0.95755 0.38093 0.59512 0.0
C2258 C 0.95074 0.39649 0.61418 0.0
C2259 C 0.94736 0.42088 0.60944 0.0
H2260 H 0.44071 0.28349 0.34147 0.0
H2261 H 0.4257 0.20705 0.34244 0.0
H2262 H 0.40466 0.28998 0.31823 0.0
H2263 H 0.38896 0.21364 0.31978 0.0
H2264 H 0.33248 0.23343 0.2627 0.0
H2265 H 0.3712 0.22624 0.28092 0.0
H2266 H 0.36376 0.28858 0.32771 0.0
H2267 H 0.32567 0.29616 0.30915 0.0
C2268 C 0.42965 0.26805 0.33673 0.0
C2269 C 0.43585 0.24478 0.34401 0.0
C2270 C 0.40893 0.27179 0.3235 0.0
C2271 C 0.39375 0.25238 0.31749 0.0
C2272 C 0.40036 0.22896 0.32399 0.0
C2273 C 0.42131 0.22518 0.33707 0.0
C2274 C 0.33922 0.24567 0.27677 0.0
C2275 C 0.32602 0.26541 0.28442 0.0
C2276 C 0.36133 0.24146 0.28729 0.0
C2277 C 0.3706 0.25688 0.30569 0.0
C2278 C 0.35737 0.27662 0.31323 0.0
C2279 C 0.33542 0.28089 0.30266 0.0
H2280 H 0.45977 0.54852 0.30299 0.0
H2281 H 0.38453 0.55317 0.31236 0.0
H2282 H 0.46539 0.5532 0.34762 0.0
H2283 H 0.39019 0.55835 0.35664 0.0
H2284 H 0.46835 0.57511 0.4288 0.0
H2285 H 0.46147 0.57975 0.38429 0.0
H2286 H 0.4019 0.53048 0.38866 0.0
H2287 H 0.40845 0.52617 0.43276 0.0
C2288 C 0.44448 0.5509 0.3145 0.0
C2289 C 0.4217 0.55005 0.3042 0.0
C2290 C 0.44771 0.55376 0.34003 0.0
C2291 C 0.42821 0.5559 0.35567 0.0
C2292 C 0.40554 0.55629 0.34514 0.0
C2293 C 0.40231 0.55333 0.31974 0.0
C2294 C 0.45352 0.56568 0.42028 0.0
C2295 C 0.43902 0.55018 0.43427 0.0
C2296 C 0.44972 0.56817 0.39479 0.0
C2297 C 0.43121 0.55541 0.38295 0.0
C2298 C 0.41614 0.54079 0.39722 0.0
C2299 C 0.42 0.5382 0.42253 0.0
H2300 H 0.24744 0.68512 0.97588 0.0
H2301 H 0.22979 0.62793 0.02699 0.0
H2302 H 0.23665 0.71483 0.00704 0.0
H2303 H 0.21955 0.65731 0.0579 0.0
H2304 H 0.18735 0.71031 0.10553 0.0
H2305 H 0.19071 0.68694 0.0677 0.0
H2306 H 0.25173 0.72969 0.04699 0.0
H2307 H 0.24793 0.75357 0.08452 0.0
C2308 C 0.24124 0.67889 0.99369 0.0
C2309 C 0.23953 0.65417 -0.00104 0.0
C2310 C 0.23509 0.69589 0.01152 0.0
C2311 C 0.22701 0.68845 0.03487 0.0
C2312 C 0.22517 0.66371 0.03994 0.0
C2313 C 0.23131 0.64682 0.02224 0.0
C2314 C 0.20113 0.71512 0.0926 0.0
C2315 C 0.21761 0.73351 0.0982 0.0
C2316 C 0.20315 0.70163 0.071 0.0
C2317 C 0.22186 0.70605 0.05467 0.0
C2318 C 0.23711 0.72581 0.05918 0.0
C2319 C 0.23495 0.7395 0.08073 0.0
H2320 H 0.09026 0.54921 0.82789 0.0
H2321 H 0.15292 0.52093 0.86207 0.0
H2322 H 0.07178 0.55159 0.86847 0.0
H2323 H 0.13446 0.52334 0.90247 0.0
H2324 H 0.10067 0.54967 0.97316 0.0
H2325 H 0.11899 0.55323 0.9328 0.0
H2326 H 0.05783 0.51928 0.89885 0.0
H2327 H 0.03926 0.51572 0.93935 0.0
C2328 C 0.10025 0.54397 0.84409 0.0
C2329 C 0.12299 0.5348 0.84183 0.0
C2330 C 0.08959 0.54511 0.86724 0.0
C2331 C 0.10163 0.53744 0.88851 0.0
C2332 C 0.12482 0.52946 0.88638 0.0
C2333 C 0.13535 0.52804 0.86325 0.0
C2334 C 0.09103 0.54301 0.95712 0.0
C2335 C 0.06852 0.53228 0.95949 0.0
C2336 C 0.10158 0.54504 0.93403 0.0
C2337 C 0.08981 0.53658 0.91276 0.0
C2338 C 0.06717 0.5262 0.91497 0.0
C2339 C 0.05665 0.52396 0.93816 0.0
H2340 H 0.24495 0.32533 0.57308 0.0
H2341 H 0.21151 0.37015 0.62719 0.0
H2342 H 0.26181 0.30121 0.60632 0.0
H2343 H 0.2276 0.34578 0.66018 0.0
H2344 H 0.26965 0.31342 0.71748 0.0
H2345 H 0.2639 0.33756 0.68041 0.0
H2346 H 0.25061 0.27272 0.638 0.0
H2347 H 0.25764 0.24864 0.67502 0.0
C2348 C 0.24099 0.32986 0.59205 0.0
C2349 C 0.22694 0.34965 0.59757 0.0
C2350 C 0.2507 0.31608 0.61107 0.0
C2351 C 0.24643 0.32181 0.63593 0.0
C2352 C 0.2319 0.34129 0.64129 0.0
C2353 C 0.2224 0.35512 0.62235 0.0
C2354 C 0.26651 0.30439 0.69996 0.0
C2355 C 0.26404 0.2793 0.69895 0.0
C2356 C 0.26284 0.31816 0.67883 0.0
C2357 C 0.256 0.30709 0.65644 0.0
C2358 C 0.25581 0.28182 0.65494 0.0
C2359 C 0.25995 0.268 0.67608 0.0
H2360 H 0.44802 0.58553 0.18042 0.0
H2361 H 0.43374 0.50897 0.17693 0.0
H2362 H 0.47001 0.58318 0.14202 0.0
H2363 H 0.45522 0.50677 0.13828 0.0
H2364 H 0.50868 0.50948 0.07532 0.0
H2365 H 0.49322 0.51099 0.11738 0.0
H2366 H 0.45751 0.57666 0.09949 0.0
H2367 H 0.47309 0.57547 0.058 0.0
C2368 C 0.44976 0.56817 0.17161 0.0
C2369 C 0.43887 0.54751 0.18155 0.0
C2370 C 0.46224 0.56685 0.14954 0.0
C2371 C 0.46404 0.54485 0.13692 0.0
C2372 C 0.45426 0.52396 0.14759 0.0
C2373 C 0.44183 0.52527 0.16969 0.0
C2374 C 0.49754 0.52422 0.08042 0.0
C2375 C 0.49213 0.54233 0.06327 0.0
C2376 C 0.48869 0.52508 0.10448 0.0
C2377 C 0.47434 0.54408 0.11183 0.0
C2378 C 0.46893 0.56207 0.09462 0.0
C2379 C 0.47771 0.56123 0.07069 0.0
H2380 H 0.23066 0.58658 0.88337 0.0
H2381 H 0.19072 0.64218 0.91853 0.0
H2382 H 0.22716 0.60748 0.84383 0.0
H2383 H 0.18749 0.66314 0.87899 0.0
H2384 H 0.22601 0.70711 0.81626 0.0
H2385 H 0.22142 0.6837 0.85415 0.0
H2386 H 0.19658 0.62258 0.81144 0.0
H2387 H 0.2009 0.64603 0.77343 0.0
C2388 C 0.22073 0.60299 0.88253 0.0
C2389 C 0.21113 0.61286 0.90405 0.0
C2390 C 0.21869 0.61489 0.85992 0.0
C2391 C 0.2073 0.63701 0.85853 0.0
C2392 C 0.19656 0.64621 0.87972 0.0
C2393 C 0.19828 0.63412 0.90226 0.0
C2394 C 0.2195 0.68872 0.81494 0.0
C2395 C 0.21389 0.67838 0.79189 0.0
C2396 C 0.21667 0.67541 0.83662 0.0
C2397 C 0.20851 0.65143 0.83563 0.0
C2398 C 0.20288 0.64106 0.81263 0.0
C2399 C 0.20533 0.65449 0.79095 0.0
H2400 H 0.10977 0.5061 0.71954 0.0
H2401 H 0.05811 0.4916 0.77612 0.0
H2402 H 0.07867 0.51711 0.69099 0.0
H2403 H 0.02674 0.50293 0.74727 0.0
H2404 H 0.98126 0.49599 0.67281 0.0
H2405 H 0.00781 0.4887 0.70764 0.0
H2406 H 0.05072 0.55 0.68612 0.0
H2407 H 0.02454 0.55707 0.65116 0.0
C2408 C 0.09176 0.50522 0.72591 0.0
C2409 C 0.08646 0.49802 0.75016 0.0
C2410 C 0.07392 0.51179 0.70959 0.0
C2411 C 0.05028 0.51132 0.71703 0.0
C2412 C 0.04482 0.50353 0.74107 0.0
C2413 C 0.06277 0.49702 0.75754 0.0
C2414 C -0.00402 0.50833 0.67593 0.0
C2415 C 0.00104 0.52684 0.65895 0.0
C2416 C 0.01121 0.50411 0.69588 0.0
C2417 C 0.03167 0.5184 0.6992 0.0
C2418 C 0.03543 0.53828 0.6836 0.0
C2419 C 0.02032 0.54243 0.66367 0.0
H2420 H 0.18571 0.31356 0.46925 0.0
H2421 H 0.2219 0.37999 0.4502 0.0
H2422 H 0.18902 0.29988 0.42644 0.0
H2423 H 0.22454 0.36672 0.40758 0.0
H2424 H 0.25436 0.32389 0.34511 0.0
H2425 H 0.24724 0.33708 0.38688 0.0
H2426 H 0.17671 0.30671 0.38311 0.0
H2427 H 0.18408 0.29276 0.34091 0.0
C2428 C 0.19414 0.32533 0.45589 0.0
C2429 C 0.20388 0.34769 0.46316 0.0
C2430 C 0.19589 0.31756 0.43136 0.0
C2431 C 0.20729 0.33209 0.41369 0.0
C2432 C 0.21613 0.35484 0.42086 0.0
C2433 C 0.21457 0.36249 0.4453 0.0
C2434 C 0.23725 0.32001 0.35301 0.0
C2435 C 0.21972 0.30738 0.33954 0.0
C2436 C 0.23313 0.32773 0.377 0.0
C2437 C 0.2113 0.32325 0.38822 0.0
C2438 C 0.19375 0.31036 0.37496 0.0
C2439 C 0.19793 0.30247 0.3508 0.0
H2440 H 0.25947 0.45312 0.53711 0.0
H2441 H 0.30453 0.39703 0.56416 0.0
H2442 H 0.29164 0.48243 0.54245 0.0
H2443 H 0.33669 0.42621 0.56905 0.0
H2444 H 0.39001 0.48391 0.58426 0.0
H2445 H 0.35235 0.46259 0.5904 0.0
H2446 H 0.32805 0.48774 0.51922 0.0
H2447 H 0.36523 0.50905 0.51329 0.0
C2448 C 0.27616 0.44707 0.54437 0.0
C2449 C 0.27958 0.42269 0.54982 0.0
C2450 C 0.29455 0.46387 0.54746 0.0
C2451 C 0.31671 0.45661 0.55608 0.0
C2452 C 0.31975 0.43244 0.56267 0.0
C2453 C 0.30138 0.41565 0.55957 0.0
C2454 C 0.37631 0.48541 0.57032 0.0
C2455 C 0.38061 0.49781 0.54815 0.0
C2456 C 0.35487 0.47309 0.57374 0.0
C2457 C 0.33737 0.47327 0.55516 0.0
C2458 C 0.34106 0.48734 0.53396 0.0
C2459 C 0.36247 0.49942 0.53047 0.0
H2460 H 0.85623 0.06737 0.4635 0.0
H2461 H 0.81153 0.02472 0.51139 0.0
H2462 H 0.88448 0.0352 0.46256 0.0
H2463 H 0.83933 0.99198 0.5096 0.0
H2464 H 0.91289 0.96737 0.53711 0.0
H2465 H 0.87648 0.98754 0.52853 0.0
H2466 H 0.89629 -0.00438 0.4519 0.0
H2467 H 0.93348 0.97605 0.46083 0.0
C2468 C 0.8522 0.05088 0.47337 0.0
C2469 C 0.83197 0.04876 0.48797 0.0
C2470 C 0.86828 0.03227 0.47261 0.0
C2471 C 0.86432 0.01103 0.48621 0.0
C2472 C 0.84317 0.00828 0.49933 0.0
C2473 C 0.82725 0.02703 0.50037 0.0
C2474 C 0.9093 0.97291 0.51827 0.0
C2475 C 0.92636 0.97071 0.49981 0.0
C2476 C 0.88822 0.98435 0.51326 0.0
C2477 C 0.88363 -0.00631 0.48961 0.0
C2478 C 0.89958 0.98915 0.47048 0.0
C2479 C 0.9208 0.97775 0.47554 0.0
H2480 H 0.68121 0.04631 0.2784 0.0
H2481 H 0.69369 0.0291 0.20168 0.0
H2482 H 0.68939 0.08849 0.26981 0.0
H2483 H 0.70185 0.07169 0.19314 0.0
H2484 H 0.73885 0.15017 0.20444 0.0
H2485 H 0.7311 0.10662 0.20548 0.0
H2486 H 0.66632 0.11846 0.2444 0.0
H2487 H 0.67403 0.16159 0.24356 0.0
C2488 C 0.68593 0.05147 0.25975 0.0
C2489 C 0.68655 0.03439 0.24067 0.0
C2490 C 0.69043 0.07566 0.2548 0.0
C2491 C 0.69572 0.08332 0.2307 0.0
C2492 C 0.69766 0.06619 0.21183 0.0
C2493 C 0.69301 0.04187 0.21676 0.0
C2494 C 0.72262 0.14344 0.21251 0.0
C2495 C 0.70722 0.15915 0.2243 0.0
C2496 C 0.71826 0.11858 0.21319 0.0
C2497 C 0.69846 0.1093 0.22562 0.0
C2498 C 0.68204 0.12519 0.23529 0.0
C2499 C 0.68638 0.14986 0.23467 0.0
H2500 H 0.62225 0.87844 0.00546 0.0
H2501 H 0.66741 0.93418 0.97487 0.0
H2502 H 0.58962 0.90632 0.00573 0.0
H2503 H 0.63476 0.9618 0.9748 0.0
H2504 H 0.58027 0.01011 0.0136 0.0
H2505 H 0.61251 0.98287 0.00637 0.0
H2506 H 0.56316 0.92908 0.97861 0.0
H2507 H 0.53084 0.95612 0.98611 0.0
C2508 C 0.62515 0.89652 -0.00144 0.0
C2509 C 0.64746 0.90412 0.99034 0.0
C2510 C 0.60643 0.91246 -0.00144 0.0
C2511 C 0.60966 0.93629 0.99035 0.0
C2512 C 0.63181 0.94366 0.98154 0.0
C2513 C 0.65049 0.92777 0.98152 0.0
C2514 C 0.5763 0.99265 0.00554 0.0
C2515 C 0.55293 0.98525 0.00067 0.0
C2516 C 0.5948 0.97704 0.00135 0.0
C2517 C 0.59033 0.95371 0.9922 0.0
C2518 C 0.5671 0.94677 0.98611 0.0
C2519 C 0.54861 0.96238 0.99025 0.0
H2520 H 0.35678 0.45989 0.25141 0.0
H2521 H 0.32047 0.48095 0.1845 0.0
H2522 H 0.33197 0.42396 0.25385 0.0
H2523 H 0.29518 0.44495 0.18728 0.0
H2524 H 0.2697 0.37749 0.26901 0.0
H2525 H 0.29084 0.41534 0.26297 0.0
H2526 H 0.29618 0.40017 0.18488 0.0
H2527 H 0.27432 0.36219 0.19089 0.0
C2528 C 0.34347 0.45687 0.23723 0.0
C2529 C 0.34049 0.47335 0.21787 0.0
C2530 C 0.32913 0.43635 0.23871 0.0
C2531 C 0.31137 0.43184 0.22096 0.0
C2532 C 0.30874 0.44796 0.2012 0.0
C2533 C 0.32317 0.46857 0.19967 0.0
C2534 C 0.27511 0.38233 0.25048 0.0
C2535 C 0.27069 0.36675 0.23047 0.0
C2536 C 0.28734 0.40395 0.24705 0.0
C2537 C 0.29567 0.41043 0.22357 0.0
C2538 C 0.29 0.3956 0.2032 0.0
C2539 C 0.27751 0.3739 0.20662 0.0
H2540 H 0.24225 0.55975 0.05424 0.0
H2541 H 0.21107 0.5194 0.99358 0.0
H2542 H 0.20994 0.54683 0.08087 0.0
H2543 H 0.17905 0.50625 0.02032 0.0
H2544 H 0.12107 0.48738 0.0686 0.0
H2545 H 0.16337 0.48636 0.06076 0.0
H2546 H 0.16835 0.56322 0.07146 0.0
H2547 H 0.12617 0.56431 0.07871 0.0
C2548 C 0.22904 0.54736 0.04685 0.0
C2549 C 0.22883 0.54103 0.02166 0.0
C2550 C 0.21058 0.53997 0.06214 0.0
C2551 C 0.19194 0.52579 0.05257 0.0
C2552 C 0.19328 0.51708 0.02824 0.0
C2553 C 0.21152 0.52477 0.01284 0.0
C2554 C 0.13141 0.50388 0.07034 0.0
C2555 C 0.12039 0.52601 0.07385 0.0
C2556 C 0.15557 0.50327 0.06578 0.0
C2557 C 0.16901 0.52472 0.06527 0.0
C2558 C 0.15844 0.54639 0.07189 0.0
C2559 C 0.13427 0.54706 0.07592 0.0
H2560 H 0.661 0.87888 0.29171 0.0
H2561 H 0.71427 0.92948 0.26642 0.0
H2562 H 0.69028 0.84754 0.29364 0.0
H2563 H 0.74364 0.89825 0.26891 0.0
H2564 H 0.76817 0.82611 0.23262 0.0
H2565 H 0.74869 0.86313 0.243 0.0
H2566 H 0.72684 0.83227 0.31268 0.0
H2567 H 0.74643 0.79483 0.30197 0.0
C2568 C 0.67901 0.88339 0.28686 0.0
C2569 C 0.68522 0.90651 0.27844 0.0
C2570 C 0.69587 0.86551 0.28831 0.0
C2571 C 0.71929 0.87044 0.28143 0.0
C2572 C 0.72569 0.89388 0.27412 0.0
C2573 C 0.70883 0.91171 0.27259 0.0
C2574 C 0.75995 0.82758 0.25056 0.0
C2575 C 0.75854 0.80767 0.26642 0.0
C2576 C 0.74883 0.84882 0.25657 0.0
C2577 C 0.73589 0.85047 0.2785 0.0
C2578 C 0.73642 0.83132 0.29549 0.0
C2579 C 0.74783 0.81004 0.28953 0.0
H2580 H 0.84068 0.06653 0.82264 0.0
H2581 H 0.86278 0.08503 0.74865 0.0
H2582 H 0.81372 0.10019 0.82239 0.0
H2583 H 0.83563 0.1186 0.74843 0.0
H2584 H 0.76771 0.15965 0.74655 0.0
H2585 H 0.79011 0.12279 0.74987 0.0
H2586 H 0.81842 0.14648 0.82028 0.0
H2587 H 0.79621 0.18348 0.81699 0.0
C2588 C 0.83985 0.07786 0.80637 0.0
C2589 C 0.85385 0.07324 0.78566 0.0
C2590 C 0.82441 0.09705 0.80627 0.0
C2591 C 0.82245 0.11171 0.7853 0.0
C2592 C 0.8366 0.10726 0.76467 0.0
C2593 C 0.85231 0.08828 0.76491 0.0
C2594 C 0.77817 0.15672 0.76308 0.0
C2595 C 0.78038 0.17454 0.78143 0.0
C2596 C 0.79118 0.13576 0.76481 0.0
C2597 C 0.80625 0.13211 0.7851 0.0
C2598 C 0.80696 0.14896 0.80442 0.0
C2599 C 0.79423 0.17009 0.80253 0.0
loop_
_geom_bond_atom_site_label_1
_geom_bond_atom_site_label_2
_geom_bond_distance
_geom_bond_site_symmetry_2
_ccdc_geom_bond_type
C0 O1 1.160 . S
C0 O7 1.185 . S
O1 C0 1.160 . S
O2 Zn3 1.899 . S
O2 C10 1.284 . S
Zn3 O2 1.899 . S
Zn3 O4 2.032 1_455 S
Zn3 O7 2.086 1_455 S
Zn3 O12 1.977 . S
O4 Zn3 2.032 1_655 S
O4 C8 1.278 1_655 S
C5 O6 1.203 . S
C5 O12 1.267 . S
O6 C5 1.203 . S
O7 C0 1.185 . S
O7 Zn3 2.086 1_655 S
C8 O4 1.278 1_455 S
C8 O9 1.211 . S
O9 C8 1.211 . S
C10 O2 1.284 . S
C10 O11 1.273 . S
O11 C10 1.273 . S
O12 Zn3 1.977 . S
O12 C5 1.267 . S
C13 O14 1.160 . S
C13 O20 1.185 . S
O14 C13 1.160 . S
O15 Zn16 1.899 . S
O15 C23 1.284 . S
Zn16 O15 1.899 . S
Zn16 O17 2.032 . S
Zn16 O20 2.086 . S
Zn16 O25 1.977 1_455 S
O17 Zn16 2.032 . S
O17 C21 1.278 . S
C18 O19 1.203 . S
C18 O25 1.267 . S
O19 C18 1.203 . S
O20 C13 1.185 . S
O20 Zn16 2.086 . S
C21 O17 1.278 . S
C21 O22 1.211 1_455 S
O22 C21 1.211 1_655 S
C23 O15 1.284 . S
C23 O24 1.273 1_455 S
O24 C23 1.273 1_655 S
O25 Zn16 1.977 1_655 S
O25 C18 1.267 . S
C26 O27 1.160 . S
C26 O33 1.185 . S
O27 C26 1.160 . S
O28 Zn29 1.899 . S
O28 C36 1.284 . S
Zn29 O28 1.899 . S
Zn29 O30 2.032 . S
Zn29 O33 2.086 . S
Zn29 O38 1.977 . S
O30 Zn29 2.032 . S
O30 C34 1.278 . S
C31 O32 1.203 . S
C31 O38 1.267 . S
O32 C31 1.203 . S
O33 C26 1.185 . S
O33 Zn29 2.086 . S
C34 O30 1.278 . S
C34 O35 1.211 . S
O35 C34 1.211 . S
C36 O28 1.284 . S
C36 O37 1.273 . S
O37 C36 1.273 . S
O38 Zn29 1.977 . S
O38 C31 1.267 . S
C39 O40 1.160 . S
C39 O46 1.185 . S
O40 C39 1.160 . S
O41 Zn42 1.899 . S
O41 C49 1.284 . S
Zn42 O41 1.899 . S
Zn42 O43 2.032 . S
Zn42 O46 2.086 . S
Zn42 O51 1.977 . S
O43 Zn42 2.032 . S
O43 C47 1.278 . S
C44 O45 1.203 . S
C44 O51 1.267 . S
O45 C44 1.203 . S
O46 C39 1.185 . S
O46 Zn42 2.086 . S
C47 O43 1.278 . S
C47 O48 1.211 . S
O48 C47 1.211 . S
C49 O41 1.284 . S
C49 O50 1.273 . S
O50 C49 1.273 . S
O51 Zn42 1.977 . S
O51 C44 1.267 . S
C52 O53 1.160 . S
C52 O59 1.185 . S
O53 C52 1.160 . S
O54 Zn55 1.899 . S
O54 C62 1.284 . S
Zn55 O54 1.899 . S
Zn55 O56 2.032 . S
Zn55 O59 2.086 1_545 S
Zn55 O64 1.977 . S
O56 Zn55 2.032 . S
O56 C60 1.278 . S
C57 O58 1.203 . S
C57 O64 1.267 . S
O58 C57 1.203 . S
O59 C52 1.185 . S
O59 Zn55 2.086 1_565 S
C60 O56 1.278 . S
C60 O61 1.211 . S
O61 C60 1.211 . S
C62 O54 1.284 . S
C62 O63 1.273 . S
O63 C62 1.273 . S
O64 Zn55 1.977 . S
O64 C57 1.267 . S
C65 O66 1.160 . S
C65 O72 1.185 . S
O66 C65 1.160 . S
O67 Zn68 1.899 . S
O67 C75 1.284 . S
Zn68 O67 1.899 . S
Zn68 O69 2.032 . S
Zn68 O72 2.086 . S
Zn68 O77 1.977 . S
O69 Zn68 2.032 . S
O69 C73 1.278 . S
C70 O71 1.203 . S
C70 O77 1.267 . S
O71 C70 1.203 . S
O72 C65 1.185 . S
O72 Zn68 2.086 . S
C73 O69 1.278 . S
C73 O74 1.211 . S
O74 C73 1.211 . S
C75 O67 1.284 . S
C75 O76 1.273 . S
O76 C75 1.273 . S
O77 Zn68 1.977 . S
O77 C70 1.267 . S
C78 O79 1.160 . S
C78 O85 1.185 . S
O79 C78 1.160 . S
O80 Zn81 1.899 . S
O80 C88 1.275 1_545 S
Zn81 O80 1.899 . S
Zn81 O82 2.032 . S
Zn81 O85 2.086 . S
Zn81 O90 1.977 1_545 S
O82 Zn81 2.032 . S
O82 C86 1.278 1_545 S
C83 O84 1.203 . S
C83 O90 1.267 . S
O84 C83 1.203 . S
O85 C78 1.185 . S
O85 Zn81 2.086 . S
C86 O82 1.278 1_565 S
C86 O87 1.211 . S
O87 C86 1.211 . S
C88 O80 1.275 1_565 S
C88 O89 1.289 . S
O89 C88 1.289 . S
O90 Zn81 1.977 1_565 S
O90 C83 1.267 . S
C91 O92 1.160 . S
C91 O98 1.185 . S
O92 C91 1.160 . S
O93 Zn94 1.899 . S
O93 C101 1.284 . S
Zn94 O93 1.899 . S
Zn94 O95 2.032 1_554 S
Zn94 O98 2.086 . S
Zn94 O103 1.977 . S
O95 Zn94 2.032 1_556 S
O95 C99 1.278 . S
C96 O97 1.203 . S
C96 O103 1.267 . S
O97 C96 1.203 . S
O98 C91 1.185 . S
O98 Zn94 2.086 . S
C99 O95 1.278 . S
C99 O100 1.211 . S
O100 C99 1.211 . S
C101 O93 1.284 . S
C101 O102 1.273 . S
O102 C101 1.273 . S
O103 Zn94 1.977 . S
O103 C96 1.267 . S
C104 O105 1.160 . S
C104 O111 1.185 . S
O105 C104 1.160 . S
O106 Zn107 1.899 . S
O106 C114 1.284 . S
Zn107 O106 1.899 . S
Zn107 O108 2.032 1_554 S
Zn107 O111 2.086 . S
Zn107 O116 1.977 . S
O108 Zn107 2.032 1_556 S
O108 C112 1.278 . S
C109 O110 1.203 . S
C109 O116 1.267 . S
O110 C109 1.203 . S
O111 C104 1.185 . S
O111 Zn107 2.086 . S
C112 O108 1.278 . S
C112 O113 1.211 . S
O113 C112 1.211 . S
C114 O106 1.284 . S
C114 O115 1.273 . S
O115 C114 1.273 . S
O116 Zn107 1.977 . S
O116 C109 1.267 . S
C117 O118 1.160 . S
C117 O124 1.185 . S
O118 C117 1.160 . S
O119 Zn120 1.899 . S
O119 C127 1.284 . S
Zn120 O119 1.899 . S
Zn120 O121 2.032 . S
Zn120 O124 2.086 . S
Zn120 O129 1.977 . S
O121 Zn120 2.032 . S
O121 C125 1.278 . S
C122 O123 1.203 . S
C122 O129 1.267 . S
O123 C122 1.203 . S
O124 C117 1.185 . S
O124 Zn120 2.086 . S
C125 O121 1.278 . S
C125 O126 1.211 . S
O126 C125 1.211 . S
C127 O119 1.284 . S
C127 O128 1.273 . S
O128 C127 1.273 . S
O129 Zn120 1.977 . S
O129 C122 1.267 . S
C130 O131 1.160 . S
C130 O137 1.185 . S
O131 C130 1.160 . S
O132 Zn133 1.899 . S
O132 C140 1.284 . S
Zn133 O132 1.899 . S
Zn133 O134 2.032 . S
Zn133 O137 2.086 . S
Zn133 O142 1.977 . S
O134 Zn133 2.032 . S
O134 C138 1.278 . S
C135 O136 1.203 . S
C135 O142 1.267 . S
O136 C135 1.203 . S
O137 C130 1.185 . S
O137 Zn133 2.086 . S
C138 O134 1.278 . S
C138 O139 1.211 . S
O139 C138 1.211 . S
C140 O132 1.284 . S
C140 O141 1.273 . S
O141 C140 1.273 . S
O142 Zn133 1.977 . S
O142 C135 1.267 . S
C143 O144 1.160 . S
C143 O150 1.185 . S
O144 C143 1.160 . S
O145 Zn146 1.899 . S
O145 C153 1.284 . S
Zn146 O145 1.899 . S
Zn146 O147 2.032 . S
Zn146 O150 2.086 . S
Zn146 O155 1.977 . S
O147 Zn146 2.032 . S
O147 C151 1.278 . S
C148 O149 1.203 . S
C148 O155 1.267 . S
O149 C148 1.203 . S
O150 C143 1.185 . S
O150 Zn146 2.086 . S
C151 O147 1.278 . S
C151 O152 1.211 . S
O152 C151 1.211 . S
C153 O145 1.284 . S
C153 O154 1.273 . S
O154 C153 1.273 . S
O155 Zn146 1.977 . S
O155 C148 1.267 . S
C156 O157 1.160 . S
C156 O163 1.185 . S
O157 C156 1.160 . S
O158 Zn159 1.899 . S
O158 C166 1.284 . S
Zn159 O158 1.899 . S
Zn159 O160 2.032 . S
Zn159 O163 2.086 . S
Zn159 O168 1.977 1_455 S
O160 Zn159 2.032 . S
O160 C164 1.278 . S
C161 O162 1.203 . S
C161 O168 1.267 . S
O162 C161 1.203 . S
O163 C156 1.185 . S
O163 Zn159 2.086 . S
C164 O160 1.278 . S
C164 O165 1.211 1_455 S
O165 C164 1.211 1_655 S
C166 O158 1.284 . S
C166 O167 1.273 1_455 S
O167 C166 1.273 1_655 S
O168 Zn159 1.977 1_655 S
O168 C161 1.267 . S
C169 O170 1.160 . S
C169 O176 1.185 . S
O170 C169 1.160 . S
O171 Zn172 1.899 . S
O171 C179 1.284 . S
Zn172 O171 1.899 . S
Zn172 O173 2.032 1_455 S
Zn172 O176 2.086 1_455 S
Zn172 O181 1.977 . S
O173 Zn172 2.032 1_655 S
O173 C177 1.278 1_655 S
C174 O175 1.203 . S
C174 O181 1.267 . S
O175 C174 1.203 . S
O176 C169 1.185 . S
O176 Zn172 2.086 1_655 S
C177 O173 1.278 1_455 S
C177 O178 1.211 . S
O178 C177 1.211 . S
C179 O171 1.284 . S
C179 O180 1.273 . S
O180 C179 1.273 . S
O181 Zn172 1.977 . S
O181 C174 1.267 . S
C182 O183 1.160 . S
C182 O189 1.185 . S
O183 C182 1.160 . S
O184 Zn185 1.899 . S
O184 C192 1.284 . S
Zn185 O184 1.899 . S
Zn185 O186 2.032 . S
Zn185 O189 2.086 . S
Zn185 O194 1.977 . S
O186 Zn185 2.032 . S
O186 C190 1.278 . S
C187 O188 1.203 . S
C187 O194 1.267 . S
O188 C187 1.203 . S
O189 C182 1.185 . S
O189 Zn185 2.086 . S
C190 O186 1.278 . S
C190 O191 1.211 . S
O191 C190 1.211 . S
C192 O184 1.284 . S
C192 O193 1.273 . S
O193 C192 1.273 . S
O194 Zn185 1.977 . S
O194 C187 1.267 . S
C195 O196 1.160 . S
C195 O202 1.185 . S
O196 C195 1.160 . S
O197 Zn198 1.899 . S
O197 C205 1.284 . S
Zn198 O197 1.899 . S
Zn198 O199 2.032 . S
Zn198 O202 2.086 . S
Zn198 O207 1.977 . S
O199 Zn198 2.032 . S
O199 C203 1.278 . S
C200 O201 1.203 . S
C200 O207 1.267 . S
O201 C200 1.203 . S
O202 C195 1.185 . S
O202 Zn198 2.086 . S
C203 O199 1.278 . S
C203 O204 1.211 . S
O204 C203 1.211 . S
C205 O197 1.284 . S
C205 O206 1.273 . S
O206 C205 1.273 . S
O207 Zn198 1.977 . S
O207 C200 1.267 . S
C208 O209 1.160 . S
C208 O215 1.185 . S
O209 C208 1.160 . S
O210 Zn211 1.899 . S
O210 C218 1.284 . S
Zn211 O210 1.899 . S
Zn211 O212 2.032 . S
Zn211 O215 2.086 . S
Zn211 O220 1.977 1_545 S
O212 Zn211 2.032 . S
O212 C216 1.278 . S
C213 O214 1.203 . S
C213 O220 1.267 . S
O214 C213 1.203 . S
O215 C208 1.185 . S
O215 Zn211 2.086 . S
C216 O212 1.278 . S
C216 O217 1.211 1_545 S
O217 C216 1.211 1_565 S
C218 O210 1.284 . S
C218 O219 1.273 . S
O219 C218 1.273 . S
O220 Zn211 1.977 1_565 S
O220 C213 1.267 . S
C221 O222 1.160 . S
C221 O228 1.185 . S
O222 C221 1.160 . S
O223 Zn224 1.899 . S
O223 C231 1.284 . S
Zn224 O223 1.899 . S
Zn224 O225 2.032 . S
Zn224 O228 2.086 . S
Zn224 O233 1.977 . S
O225 Zn224 2.032 . S
O225 C229 1.278 . S
C226 O227 1.203 . S
C226 O233 1.267 . S
O227 C226 1.203 . S
O228 C221 1.185 . S
O228 Zn224 2.086 . S
C229 O225 1.278 . S
C229 O230 1.211 . S
O230 C229 1.211 . S
C231 O223 1.284 . S
C231 O232 1.273 . S
O232 C231 1.273 . S
O233 Zn224 1.977 . S
O233 C226 1.267 . S
C234 O235 1.160 . S
C234 O241 1.185 . S
O235 C234 1.160 . S
O236 Zn237 1.899 . S
O236 C244 1.284 1_565 S
Zn237 O236 1.899 . S
Zn237 O238 2.032 . S
Zn237 O241 2.086 . S
Zn237 O246 1.977 1_565 S
O238 Zn237 2.032 . S
O238 C242 1.278 1_565 S
C239 O240 1.203 . S
C239 O246 1.267 . S
O240 C239 1.203 . S
O241 C234 1.185 . S
O241 Zn237 2.086 . S
C242 O238 1.278 1_545 S
C242 O243 1.211 . S
O243 C242 1.211 . S
C244 O236 1.284 1_545 S
C244 O245 1.273 . S
O245 C244 1.273 . S
O246 Zn237 1.977 1_545 S
O246 C239 1.267 . S
C247 O248 1.160 . S
C247 O254 1.190 . S
O248 C247 1.160 . S
O249 Zn250 1.899 . S
O249 C257 1.284 . S
Zn250 O249 1.899 . S
Zn250 O251 2.032 1_554 S
Zn250 O254 2.089 . S
Zn250 O259 1.983 . S
O251 Zn250 2.032 1_556 S
O251 C255 1.278 . S
C252 O253 1.203 . S
C252 O259 1.276 . S
O253 C252 1.203 . S
O254 C247 1.190 . S
O254 Zn250 2.089 . S
C255 O251 1.278 . S
C255 O256 1.211 . S
O256 C255 1.211 . S
C257 O249 1.284 . S
C257 O258 1.273 . S
O258 C257 1.273 . S
O259 Zn250 1.983 . S
O259 C252 1.276 . S
C260 O261 1.160 . S
C260 O267 1.185 1_554 S
O261 C260 1.160 . S
O262 Zn263 1.899 . S
O262 C270 1.284 . S
Zn263 O262 1.899 . S
Zn263 O264 2.032 1_554 S
Zn263 O267 2.086 1_554 S
Zn263 O272 1.977 . S
O264 Zn263 2.032 1_556 S
O264 C268 1.278 . S
C265 O266 1.203 . S
C265 O272 1.265 . S
O266 C265 1.203 . S
O267 C260 1.185 1_556 S
O267 Zn263 2.086 1_556 S
C268 O264 1.278 . S
C268 O269 1.211 . S
O269 C268 1.211 . S
C270 O262 1.284 . S
C270 O271 1.273 . S
O271 C270 1.273 . S
O272 Zn263 1.977 . S
O272 C265 1.265 . S
C273 O274 1.160 . S
C273 O280 1.185 . S
O274 C273 1.160 . S
O275 Zn276 1.899 . S
O275 C283 1.284 . S
Zn276 O275 1.899 . S
Zn276 O277 2.032 . S
Zn276 O280 2.086 . S
Zn276 O285 1.977 . S
O277 Zn276 2.032 . S
O277 C281 1.278 . S
C278 O279 1.203 . S
C278 O285 1.267 . S
O279 C278 1.203 . S
O280 C273 1.185 . S
O280 Zn276 2.086 . S
C281 O277 1.278 . S
C281 O282 1.211 . S
O282 C281 1.211 . S
C283 O275 1.284 . S
C283 O284 1.273 . S
O284 C283 1.273 . S
O285 Zn276 1.977 . S
O285 C278 1.267 . S
C286 O287 1.160 . S
C286 O293 1.185 . S
O287 C286 1.160 . S
O288 Zn289 1.899 . S
O288 C296 1.284 . S
Zn289 O288 1.899 . S
Zn289 O290 2.032 . S
Zn289 O293 2.086 . S
Zn289 O298 1.977 . S
O290 Zn289 2.032 . S
O290 C294 1.278 . S
C291 O292 1.203 . S
C291 O298 1.267 . S
O292 C291 1.203 . S
O293 C286 1.185 . S
O293 Zn289 2.086 . S
C294 O290 1.278 . S
C294 O295 1.211 . S
O295 C294 1.211 . S
C296 O288 1.284 . S
C296 O297 1.273 . S
O297 C296 1.273 . S
O298 Zn289 1.977 . S
O298 C291 1.267 . S
C299 O300 1.160 . S
C299 O306 1.185 . S
O300 C299 1.160 . S
O301 Zn302 1.899 . S
O301 C309 1.284 . S
Zn302 O301 1.899 . S
Zn302 O303 2.032 . S
Zn302 O306 2.086 . S
Zn302 O311 1.977 . S
O303 Zn302 2.032 . S
O303 C307 1.278 . S
C304 O305 1.203 . S
C304 O311 1.267 . S
O305 C304 1.203 . S
O306 C299 1.185 . S
O306 Zn302 2.086 . S
C307 O303 1.278 . S
C307 O308 1.211 . S
O308 C307 1.211 . S
C309 O301 1.284 . S
C309 O310 1.273 . S
O310 C309 1.273 . S
O311 Zn302 1.977 . S
O311 C304 1.267 . S
O312 Zn313 1.953 . S
O312 C328 1.225 1_455 S
Zn313 O312 1.953 . S
Zn313 O314 1.949 . S
Zn313 O320 1.915 1_554 S
Zn313 O325 1.924 1_454 S
O314 Zn313 1.949 . S
O314 Zn315 1.923 1_545 S
O314 Zn316 1.950 1_455 S
O314 Zn317 1.945 1_444 S
Zn315 O314 1.923 1_565 S
Zn315 O318 1.933 . S
Zn315 O321 1.941 1_565 S
Zn315 O322 1.965 . S
Zn316 O314 1.950 1_655 S
Zn316 O323 1.941 1_655 S
Zn316 O324 1.906 1_545 S
Zn316 O334 1.953 . S
Zn317 O314 1.945 1_666 S
Zn317 O319 1.949 . S
Zn317 O326 1.977 1_556 S
Zn317 O327 1.910 1_565 S
O318 Zn315 1.933 . S
O318 C329 1.226 1_554 S
O319 Zn317 1.949 . S
O319 C329 1.276 1_655 S
O320 Zn313 1.915 1_556 S
O320 C331 1.247 1_556 S
O321 Zn315 1.941 1_545 S
O321 C331 1.283 . S
O322 Zn315 1.965 . S
O322 C330 1.303 1_565 S
O323 Zn316 1.941 1_455 S
O323 C330 1.243 . S
O324 Zn316 1.906 1_565 S
O324 C332 1.304 . S
O325 Zn313 1.924 1_656 S
O325 C333 1.311 . S
O326 Zn317 1.977 1_554 S
O326 C332 1.272 . S
O327 Zn317 1.910 1_545 S
O327 C333 1.231 . S
C328 O312 1.225 1_655 S
C328 O334 1.298 . S
C329 O318 1.226 1_556 S
C329 O319 1.276 1_455 S
C330 O322 1.303 1_545 S
C330 O323 1.243 . S
C331 O320 1.247 1_554 S
C331 O321 1.283 . S
C332 O324 1.304 . S
C332 O326 1.272 . S
C333 O325 1.311 . S
C333 O327 1.231 . S
O334 Zn316 1.953 . S
O334 C328 1.298 . S
O335 Zn336 1.953 . S
O335 C351 1.225 . S
Zn336 O335 1.953 . S
Zn336 O337 1.949 . S
Zn336 O343 1.919 . S
Zn336 O348 1.924 . S
O337 Zn336 1.949 . S
O337 Zn338 1.923 . S
O337 Zn339 1.950 . S
O337 Zn340 1.945 . S
Zn338 O337 1.923 . S
Zn338 O341 1.933 . S
Zn338 O344 1.941 . S
Zn338 O345 1.965 . S
Zn339 O337 1.950 . S
Zn339 O346 1.938 . S
Zn339 O347 1.906 . S
Zn339 O357 1.953 . S
Zn340 O337 1.945 . S
Zn340 O342 1.932 . S
Zn340 O349 1.977 . S
Zn340 O350 1.910 . S
O341 Zn338 1.933 . S
O341 C352 1.226 . S
O342 Zn340 1.932 . S
O342 C352 1.307 . S
O343 Zn336 1.919 . S
O343 C354 1.253 . S
O344 Zn338 1.941 . S
O344 C354 1.283 . S
O345 Zn338 1.965 . S
O345 C353 1.303 . S
O346 Zn339 1.938 . S
O346 C353 1.247 . S
O347 Zn339 1.906 . S
O347 C355 1.304 . S
O348 Zn336 1.924 . S
O348 C356 1.311 . S
O349 Zn340 1.977 . S
O349 C355 1.272 . S
O350 Zn340 1.910 . S
O350 C356 1.231 . S
C351 O335 1.225 . S
C351 O357 1.298 . S
C352 O341 1.226 . S
C352 O342 1.307 . S
C353 O345 1.303 . S
C353 O346 1.247 . S
C354 O343 1.253 . S
C354 O344 1.283 . S
C355 O347 1.304 . S
C355 O349 1.272 . S
C356 O348 1.311 . S
C356 O350 1.231 . S
O357 Zn339 1.953 . S
O357 C351 1.298 . S
O358 Zn359 1.953 . S
O358 C374 1.225 . S
Zn359 O358 1.953 . S
Zn359 O360 1.949 1_565 S
Zn359 O366 1.919 . S
Zn359 O371 1.924 . S
O360 Zn359 1.949 1_545 S
O360 Zn361 1.923 . S
O360 Zn362 1.950 . S
O360 Zn363 1.945 . S
Zn361 O360 1.923 . S
Zn361 O364 1.933 . S
Zn361 O367 1.941 . S
Zn361 O368 1.965 . S
Zn362 O360 1.950 . S
Zn362 O369 1.938 . S
Zn362 O370 1.906 . S
Zn362 O380 1.953 1_545 S
Zn363 O360 1.945 . S
Zn363 O365 1.932 . S
Zn363 O372 1.977 . S
Zn363 O373 1.910 . S
O364 Zn361 1.933 . S
O364 C375 1.226 . S
O365 Zn363 1.932 . S
O365 C375 1.307 . S
O366 Zn359 1.919 . S
O366 C377 1.253 . S
O367 Zn361 1.941 . S
O367 C377 1.283 1_545 S
O368 Zn361 1.965 . S
O368 C376 1.303 . S
O369 Zn362 1.938 . S
O369 C376 1.247 . S
O370 Zn362 1.906 . S
O370 C378 1.304 . S
O371 Zn359 1.924 . S
O371 C379 1.311 . S
O372 Zn363 1.977 . S
O372 C378 1.272 . S
O373 Zn363 1.910 . S
O373 C379 1.231 1_545 S
C374 O358 1.225 . S
C374 O380 1.298 . S
C375 O364 1.226 . S
C375 O365 1.307 . S
C376 O368 1.303 . S
C376 O369 1.247 . S
C377 O366 1.253 . S
C377 O367 1.283 1_565 S
C378 O370 1.304 . S
C378 O372 1.272 . S
C379 O371 1.311 . S
C379 O373 1.231 1_565 S
O380 Zn362 1.953 1_565 S
O380 C374 1.298 . S
O381 Zn382 1.953 . S
O381 C397 1.225 . S
Zn382 O381 1.953 . S
Zn382 O383 1.949 . S
Zn382 O389 1.919 . S
Zn382 O394 1.924 . S
O383 Zn382 1.949 . S
O383 Zn384 1.923 . S
O383 Zn385 1.950 . S
O383 Zn386 1.945 . S
Zn384 O383 1.923 . S
Zn384 O387 1.933 . S
Zn384 O390 1.941 . S
Zn384 O391 1.965 . S
Zn385 O383 1.950 . S
Zn385 O392 1.938 . S
Zn385 O393 1.906 . S
Zn385 O403 1.953 . S
Zn386 O383 1.945 . S
Zn386 O388 1.932 . S
Zn386 O395 1.977 . S
Zn386 O396 1.910 . S
O387 Zn384 1.933 . S
O387 C398 1.226 . S
O388 Zn386 1.932 . S
O388 C398 1.307 . S
O389 Zn382 1.919 . S
O389 C400 1.253 . S
O390 Zn384 1.941 . S
O390 C400 1.283 . S
O391 Zn384 1.965 . S
O391 C399 1.303 . S
O392 Zn385 1.938 . S
O392 C399 1.247 . S
O393 Zn385 1.906 . S
O393 C401 1.304 . S
O394 Zn382 1.924 . S
O394 C402 1.311 . S
O395 Zn386 1.977 . S
O395 C401 1.272 . S
O396 Zn386 1.910 . S
O396 C402 1.231 . S
C397 O381 1.225 . S
C397 O403 1.298 . S
C398 O387 1.226 . S
C398 O388 1.307 . S
C399 O391 1.303 . S
C399 O392 1.247 . S
C400 O389 1.253 . S
C400 O390 1.283 . S
C401 O393 1.304 . S
C401 O395 1.272 . S
C402 O394 1.311 . S
C402 O396 1.231 . S
O403 Zn385 1.953 . S
O403 C397 1.298 . S
O404 Zn405 1.948 1_445 S
O404 C420 1.225 . S
Zn405 O404 1.948 1_665 S
Zn405 O406 1.942 1_665 S
Zn405 O412 1.939 . S
Zn405 O417 1.915 1_565 S
O406 Zn405 1.942 1_445 S
O406 Zn407 1.923 1_545 S
O406 Zn408 1.950 . S
O406 Zn409 1.945 1_455 S
Zn407 O406 1.923 1_565 S
Zn407 O410 1.933 . S
Zn407 O413 1.941 . S
Zn407 O414 1.965 . S
Zn408 O406 1.950 . S
Zn408 O415 1.938 . S
Zn408 O416 1.906 . S
Zn408 O426 1.953 . S
Zn409 O406 1.945 1_655 S
Zn409 O411 1.932 . S
Zn409 O418 1.977 1_655 S
Zn409 O419 1.910 . S
O410 Zn407 1.933 . S
O410 C421 1.226 1_455 S
O411 Zn409 1.932 . S
O411 C421 1.307 1_545 S
O412 Zn405 1.939 . S
O412 C423 1.265 . S
O413 Zn407 1.941 . S
O413 C423 1.254 1_455 S
O414 Zn407 1.965 . S
O414 C422 1.303 . S
O415 Zn408 1.938 . S
O415 C422 1.247 1_545 S
O416 Zn408 1.906 . S
O416 C424 1.304 . S
O417 Zn405 1.915 1_545 S
O417 C425 1.311 . S
O418 Zn409 1.977 1_455 S
O418 C424 1.272 . S
O419 Zn409 1.910 . S
O419 C425 1.231 . S
C420 O404 1.225 . S
C420 O426 1.298 . S
C421 O410 1.226 1_655 S
C421 O411 1.307 1_565 S
C422 O414 1.303 . S
C422 O415 1.247 1_565 S
C423 O412 1.265 . S
C423 O413 1.254 1_655 S
C424 O416 1.304 . S
C424 O418 1.272 . S
C425 O417 1.311 . S
C425 O419 1.231 . S
O426 Zn408 1.953 . S
O426 C420 1.298 . S
O427 Zn428 1.953 . S
O427 C443 1.225 . S
Zn428 O427 1.953 . S
Zn428 O429 1.949 . S
Zn428 O435 1.919 . S
Zn428 O440 1.924 . S
O429 Zn428 1.949 . S
O429 Zn430 1.923 . S
O429 Zn431 1.950 . S
O429 Zn432 1.945 . S
Zn430 O429 1.923 . S
Zn430 O433 1.933 . S
Zn430 O436 1.941 . S
Zn430 O437 1.965 . S
Zn431 O429 1.950 . S
Zn431 O438 1.938 . S
Zn431 O439 1.906 . S
Zn431 O449 1.953 . S
Zn432 O429 1.945 . S
Zn432 O434 1.932 . S
Zn432 O441 1.977 . S
Zn432 O442 1.910 . S
O433 Zn430 1.933 . S
O433 C444 1.226 . S
O434 Zn432 1.932 . S
O434 C444 1.307 . S
O435 Zn428 1.919 . S
O435 C446 1.253 . S
O436 Zn430 1.941 . S
O436 C446 1.283 . S
O437 Zn430 1.965 . S
O437 C445 1.303 . S
O438 Zn431 1.938 . S
O438 C445 1.247 . S
O439 Zn431 1.906 . S
O439 C447 1.304 . S
O440 Zn428 1.924 . S
O440 C448 1.311 . S
O441 Zn432 1.977 . S
O441 C447 1.272 . S
O442 Zn432 1.910 . S
O442 C448 1.231 . S
C443 O427 1.225 . S
C443 O449 1.298 . S
C444 O433 1.226 . S
C444 O434 1.307 . S
C445 O437 1.303 . S
C445 O438 1.247 . S
C446 O435 1.253 . S
C446 O436 1.283 . S
C447 O439 1.304 . S
C447 O441 1.272 . S
C448 O440 1.311 . S
C448 O442 1.231 . S
O449 Zn431 1.953 . S
O449 C443 1.298 . S
O450 Zn451 1.953 . S
O450 C466 1.225 . S
Zn451 O450 1.953 . S
Zn451 O452 1.949 . S
Zn451 O458 1.932 . S
Zn451 O463 1.924 . S
O452 Zn451 1.949 . S
O452 Zn453 1.920 1_544 S
O452 Zn454 1.950 . S
O452 Zn455 1.945 1_554 S
Zn453 O452 1.920 1_566 S
Zn453 O456 1.938 . S
Zn453 O459 1.942 . S
Zn453 O460 1.962 1_556 S
Zn454 O452 1.950 . S
Zn454 O461 1.938 1_545 S
Zn454 O462 1.906 . S
Zn454 O472 1.953 . S
Zn455 O452 1.945 1_556 S
Zn455 O457 1.932 . S
Zn455 O464 1.977 1_556 S
Zn455 O465 1.910 . S
O456 Zn453 1.938 . S
O456 C467 1.226 . S
O457 Zn455 1.932 . S
O457 C467 1.307 1_545 S
O458 Zn451 1.932 . S
O458 C469 1.234 1_544 S
O459 Zn453 1.942 . S
O459 C469 1.283 . S
O460 Zn453 1.962 1_554 S
O460 C468 1.303 . S
O461 Zn454 1.938 1_565 S
O461 C468 1.247 . S
O462 Zn454 1.906 . S
O462 C470 1.304 . S
O463 Zn451 1.924 . S
O463 C471 1.330 . S
O464 Zn455 1.977 1_554 S
O464 C470 1.272 . S
O465 Zn455 1.910 . S
O465 C471 1.211 1_556 S
C466 O450 1.225 . S
C466 O472 1.298 . S
C467 O456 1.226 . S
C467 O457 1.307 1_565 S
C468 O460 1.303 . S
C468 O461 1.247 . S
C469 O458 1.234 1_566 S
C469 O459 1.283 . S
C470 O462 1.304 . S
C470 O464 1.272 . S
C471 O463 1.330 . S
C471 O465 1.211 1_554 S
O472 Zn454 1.953 . S
O472 C466 1.298 . S
O473 Zn474 1.953 . S
O473 C489 1.225 . S
Zn474 O473 1.953 . S
Zn474 O475 1.949 . S
Zn474 O481 1.919 . S
Zn474 O486 1.924 . S
O475 Zn474 1.949 . S
O475 Zn476 1.923 . S
O475 Zn477 1.950 . S
O475 Zn478 1.945 . S
Zn476 O475 1.923 . S
Zn476 O479 1.933 . S
Zn476 O482 1.941 . S
Zn476 O483 1.965 . S
Zn477 O475 1.950 . S
Zn477 O484 1.938 . S
Zn477 O485 1.906 . S
Zn477 O495 1.953 . S
Zn478 O475 1.945 . S
Zn478 O480 1.932 . S
Zn478 O487 1.977 . S
Zn478 O488 1.910 . S
O479 Zn476 1.933 . S
O479 C490 1.226 . S
O480 Zn478 1.932 . S
O480 C490 1.307 . S
O481 Zn474 1.919 . S
O481 C492 1.253 . S
O482 Zn476 1.941 . S
O482 C492 1.283 . S
O483 Zn476 1.965 . S
O483 C491 1.303 . S
O484 Zn477 1.938 . S
O484 C491 1.247 . S
O485 Zn477 1.906 . S
O485 C493 1.304 . S
O486 Zn474 1.924 . S
O486 C494 1.311 . S
O487 Zn478 1.977 . S
O487 C493 1.272 . S
O488 Zn478 1.910 . S
O488 C494 1.231 . S
C489 O473 1.225 . S
C489 O495 1.298 . S
C490 O479 1.226 . S
C490 O480 1.307 . S
C491 O483 1.303 . S
C491 O484 1.247 . S
C492 O481 1.253 . S
C492 O482 1.283 . S
C493 O485 1.304 . S
C493 O487 1.272 . S
C494 O486 1.311 . S
C494 O488 1.231 . S
O495 Zn477 1.953 . S
O495 C489 1.298 . S
O496 Zn497 1.953 . S
O496 C512 1.225 . S
Zn497 O496 1.953 . S
Zn497 O498 1.949 1_556 S
Zn497 O504 1.919 . S
Zn497 O509 1.924 . S
O498 Zn497 1.949 1_554 S
O498 Zn499 1.923 . S
O498 Zn500 1.950 . S
O498 Zn501 1.945 . S
Zn499 O498 1.923 . S
Zn499 O502 1.933 . S
Zn499 O505 1.941 . S
Zn499 O506 1.965 . S
Zn500 O498 1.950 . S
Zn500 O507 1.938 . S
Zn500 O508 1.906 . S
Zn500 O518 1.953 1_554 S
Zn501 O498 1.945 . S
Zn501 O503 1.932 . S
Zn501 O510 1.977 . S
Zn501 O511 1.910 . S
O502 Zn499 1.933 . S
O502 C513 1.226 . S
O503 Zn501 1.932 . S
O503 C513 1.307 . S
O504 Zn497 1.919 . S
O504 C515 1.244 1_556 S
O505 Zn499 1.941 . S
O505 C515 1.291 . S
O506 Zn499 1.965 . S
O506 C514 1.303 . S
O507 Zn500 1.938 . S
O507 C514 1.247 . S
O508 Zn500 1.906 . S
O508 C516 1.304 . S
O509 Zn497 1.924 . S
O509 C517 1.311 . S
O510 Zn501 1.977 . S
O510 C516 1.272 . S
O511 Zn501 1.910 . S
O511 C517 1.231 1_554 S
C512 O496 1.225 . S
C512 O518 1.298 . S
C513 O502 1.226 . S
C513 O503 1.307 . S
C514 O506 1.303 . S
C514 O507 1.247 . S
C515 O504 1.244 1_554 S
C515 O505 1.291 . S
C516 O508 1.304 . S
C516 O510 1.272 . S
C517 O509 1.311 . S
C517 O511 1.231 1_556 S
O518 Zn500 1.953 1_556 S
O518 C512 1.298 . S
O519 Zn520 1.953 . S
O519 C535 1.225 . S
Zn520 O519 1.953 . S
Zn520 O521 1.949 . S
Zn520 O527 1.919 . S
Zn520 O532 1.924 . S
O521 Zn520 1.949 . S
O521 Zn522 1.923 . S
O521 Zn523 1.950 . S
O521 Zn524 1.945 . S
Zn522 O521 1.923 . S
Zn522 O525 1.933 . S
Zn522 O528 1.941 . S
Zn522 O529 1.965 . S
Zn523 O521 1.950 . S
Zn523 O530 1.938 . S
Zn523 O531 1.906 . S
Zn523 O541 1.953 . S
Zn524 O521 1.945 . S
Zn524 O526 1.932 . S
Zn524 O533 1.977 . S
Zn524 O534 1.910 . S
O525 Zn522 1.933 . S
O525 C536 1.226 . S
O526 Zn524 1.932 . S
O526 C536 1.307 . S
O527 Zn520 1.919 . S
O527 C538 1.253 . S
O528 Zn522 1.941 . S
O528 C538 1.283 . S
O529 Zn522 1.965 . S
O529 C537 1.303 . S
O530 Zn523 1.938 . S
O530 C537 1.247 . S
O531 Zn523 1.906 . S
O531 C539 1.304 . S
O532 Zn520 1.924 . S
O532 C540 1.311 . S
O533 Zn524 1.977 . S
O533 C539 1.272 . S
O534 Zn524 1.910 . S
O534 C540 1.231 . S
C535 O519 1.225 . S
C535 O541 1.298 . S
C536 O525 1.226 . S
C536 O526 1.307 . S
C537 O529 1.303 . S
C537 O530 1.247 . S
C538 O527 1.253 . S
C538 O528 1.283 . S
C539 O531 1.304 . S
C539 O533 1.272 . S
C540 O532 1.311 . S
C540 O534 1.231 . S
O541 Zn523 1.953 . S
O541 C535 1.298 . S
O542 Zn543 1.953 . S
O542 C558 1.225 . S
Zn543 O542 1.953 . S
Zn543 O544 1.934 1_455 S
Zn543 O550 1.919 . S
Zn543 O555 1.924 . S
O544 Zn543 1.934 1_655 S
O544 Zn545 1.921 1_655 S
O544 Zn546 1.958 . S
O544 Zn547 1.952 . S
Zn545 O544 1.921 1_455 S
Zn545 O548 1.921 1_455 S
Zn545 O551 1.970 . S
Zn545 O552 1.956 1_455 S
Zn546 O544 1.958 . S
Zn546 O553 1.938 . S
Zn546 O554 1.906 . S
Zn546 O564 1.940 1_655 S
Zn547 O544 1.952 . S
Zn547 O549 1.932 . S
Zn547 O556 1.977 . S
Zn547 O557 1.911 . S
O548 Zn545 1.921 1_655 S
O548 C559 1.226 . S
O549 Zn547 1.932 . S
O549 C559 1.307 . S
O550 Zn543 1.919 . S
O550 C561 1.253 . S
O551 Zn545 1.970 . S
O551 C561 1.283 . S
O552 Zn545 1.956 1_655 S
O552 C560 1.303 . S
O553 Zn546 1.938 . S
O553 C560 1.247 . S
O554 Zn546 1.906 . S
O554 C562 1.304 . S
O555 Zn543 1.924 . S
O555 C563 1.311 . S
O556 Zn547 1.977 . S
O556 C562 1.272 . S
O557 Zn547 1.911 . S
O557 C563 1.230 1_655 S
C558 O542 1.225 . S
C558 O564 1.324 . S
C559 O548 1.226 . S
C559 O549 1.307 . S
C560 O552 1.303 . S
C560 O553 1.247 . S
C561 O550 1.253 . S
C561 O551 1.283 . S
C562 O554 1.304 . S
C562 O556 1.272 . S
C563 O555 1.311 . S
C563 O557 1.230 1_455 S
O564 Zn546 1.940 1_455 S
O564 C558 1.324 . S
O565 Zn566 1.953 . S
O565 C581 1.225 . S
Zn566 O565 1.953 . S
Zn566 O567 1.949 . S
Zn566 O573 1.919 . S
Zn566 O578 1.924 . S
O567 Zn566 1.949 . S
O567 Zn568 1.923 . S
O567 Zn569 1.950 . S
O567 Zn570 1.945 . S
Zn568 O567 1.923 . S
Zn568 O571 1.933 . S
Zn568 O574 1.941 . S
Zn568 O575 1.965 . S
Zn569 O567 1.950 . S
Zn569 O576 1.938 . S
Zn569 O577 1.906 . S
Zn569 O587 1.953 . S
Zn570 O567 1.945 . S
Zn570 O572 1.932 . S
Zn570 O579 1.977 . S
Zn570 O580 1.910 . S
O571 Zn568 1.933 . S
O571 C582 1.226 . S
O572 Zn570 1.932 . S
O572 C582 1.307 . S
O573 Zn566 1.919 . S
O573 C584 1.253 . S
O574 Zn568 1.941 . S
O574 C584 1.283 . S
O575 Zn568 1.965 . S
O575 C583 1.303 . S
O576 Zn569 1.938 . S
O576 C583 1.247 . S
O577 Zn569 1.906 . S
O577 C585 1.304 . S
O578 Zn566 1.924 . S
O578 C586 1.311 . S
O579 Zn570 1.977 . S
O579 C585 1.272 . S
O580 Zn570 1.910 . S
O580 C586 1.231 . S
C581 O565 1.225 . S
C581 O587 1.298 . S
C582 O571 1.226 . S
C582 O572 1.307 . S
C583 O575 1.303 . S
C583 O576 1.247 . S
C584 O573 1.253 . S
C584 O574 1.283 . S
C585 O577 1.304 . S
C585 O579 1.272 . S
C586 O578 1.311 . S
C586 O580 1.231 . S
O587 Zn569 1.953 . S
O587 C581 1.298 . S
O588 Zn589 1.953 . S
O588 C604 1.225 . S
Zn589 O588 1.953 . S
Zn589 O590 1.949 . S
Zn589 O596 1.919 . S
Zn589 O601 1.924 . S
O590 Zn589 1.949 . S
O590 Zn591 1.923 . S
O590 Zn592 1.950 . S
O590 Zn593 1.945 . S
Zn591 O590 1.923 . S
Zn591 O594 1.933 . S
Zn591 O597 1.941 . S
Zn591 O598 1.965 . S
Zn592 O590 1.950 . S
Zn592 O599 1.938 . S
Zn592 O600 1.906 . S
Zn592 O610 1.953 . S
Zn593 O590 1.945 . S
Zn593 O595 1.932 . S
Zn593 O602 1.977 . S
Zn593 O603 1.910 . S
O594 Zn591 1.933 . S
O594 C605 1.226 . S
O595 Zn593 1.932 . S
O595 C605 1.307 . S
O596 Zn589 1.919 . S
O596 C607 1.253 . S
O597 Zn591 1.941 . S
O597 C607 1.283 . S
O598 Zn591 1.965 . S
O598 C606 1.303 . S
O599 Zn592 1.938 . S
O599 C606 1.247 . S
O600 Zn592 1.906 . S
O600 C608 1.304 . S
O601 Zn589 1.924 . S
O601 C609 1.311 . S
O602 Zn593 1.977 . S
O602 C608 1.272 . S
O603 Zn593 1.910 . S
O603 C609 1.231 . S
C604 O588 1.225 . S
C604 O610 1.298 . S
C605 O594 1.226 . S
C605 O595 1.307 . S
C606 O598 1.303 . S
C606 O599 1.247 . S
C607 O596 1.253 . S
C607 O597 1.283 . S
C608 O600 1.304 . S
C608 O602 1.272 . S
C609 O601 1.311 . S
C609 O603 1.231 . S
O610 Zn592 1.953 . S
O610 C604 1.298 . S
O611 Zn612 1.953 . S
O611 C627 1.225 . S
Zn612 O611 1.953 . S
Zn612 O613 1.949 . S
Zn612 O619 1.919 . S
Zn612 O624 1.924 . S
O613 Zn612 1.949 . S
O613 Zn614 1.923 . S
O613 Zn615 1.950 . S
O613 Zn616 1.945 . S
Zn614 O613 1.923 . S
Zn614 O617 1.933 . S
Zn614 O620 1.941 . S
Zn614 O621 1.965 . S
Zn615 O613 1.950 . S
Zn615 O622 1.938 . S
Zn615 O623 1.906 . S
Zn615 O633 1.953 . S
Zn616 O613 1.945 . S
Zn616 O618 1.932 . S
Zn616 O625 1.977 . S
Zn616 O626 1.910 . S
O617 Zn614 1.933 . S
O617 C628 1.226 . S
O618 Zn616 1.932 . S
O618 C628 1.307 . S
O619 Zn612 1.919 . S
O619 C630 1.253 . S
O620 Zn614 1.941 . S
O620 C630 1.283 . S
O621 Zn614 1.965 . S
O621 C629 1.303 . S
O622 Zn615 1.938 . S
O622 C629 1.247 . S
O623 Zn615 1.906 . S
O623 C631 1.304 . S
O624 Zn612 1.924 . S
O624 C632 1.311 . S
O625 Zn616 1.977 . S
O625 C631 1.272 . S
O626 Zn616 1.910 . S
O626 C632 1.231 . S
C627 O611 1.225 . S
C627 O633 1.298 . S
C628 O617 1.226 . S
C628 O618 1.307 . S
C629 O621 1.303 . S
C629 O622 1.247 . S
C630 O619 1.253 . S
C630 O620 1.283 . S
C631 O623 1.304 . S
C631 O625 1.272 . S
C632 O624 1.311 . S
C632 O626 1.231 . S
O633 Zn615 1.953 . S
O633 C627 1.298 . S
O634 Zn635 1.953 . S
O634 C650 1.225 . S
Zn635 O634 1.953 . S
Zn635 O636 1.949 . S
Zn635 O642 1.919 . S
Zn635 O647 1.924 . S
O636 Zn635 1.949 . S
O636 Zn637 1.923 . S
O636 Zn638 1.950 . S
O636 Zn639 1.945 . S
Zn637 O636 1.923 . S
Zn637 O640 1.933 . S
Zn637 O643 1.941 . S
Zn637 O644 1.965 . S
Zn638 O636 1.950 . S
Zn638 O645 1.938 . S
Zn638 O646 1.906 . S
Zn638 O656 1.953 . S
Zn639 O636 1.945 . S
Zn639 O641 1.932 . S
Zn639 O648 1.977 . S
Zn639 O649 1.910 . S
O640 Zn637 1.933 . S
O640 C651 1.226 . S
O641 Zn639 1.932 . S
O641 C651 1.307 . S
O642 Zn635 1.919 . S
O642 C653 1.253 . S
O643 Zn637 1.941 . S
O643 C653 1.283 . S
O644 Zn637 1.965 . S
O644 C652 1.303 . S
O645 Zn638 1.938 . S
O645 C652 1.247 . S
O646 Zn638 1.906 . S
O646 C654 1.304 . S
O647 Zn635 1.924 . S
O647 C655 1.311 . S
O648 Zn639 1.977 . S
O648 C654 1.272 . S
O649 Zn639 1.910 . S
O649 C655 1.231 . S
C650 O634 1.225 . S
C650 O656 1.298 . S
C651 O640 1.226 . S
C651 O641 1.307 . S
C652 O644 1.303 . S
C652 O645 1.247 . S
C653 O642 1.253 . S
C653 O643 1.283 . S
C654 O646 1.304 . S
C654 O648 1.272 . S
C655 O647 1.311 . S
C655 O649 1.231 . S
O656 Zn638 1.953 . S
O656 C650 1.298 . S
O657 Zn658 1.953 1_455 S
O657 C673 1.225 . S
Zn658 O657 1.953 1_655 S
Zn658 O659 1.949 1_655 S
Zn658 O665 1.919 . S
Zn658 O670 1.924 1_654 S
O659 Zn658 1.949 1_455 S
O659 Zn660 1.923 1_455 S
O659 Zn661 1.950 . S
O659 Zn662 1.945 1_554 S
Zn660 O659 1.923 1_655 S
Zn660 O663 1.933 . S
Zn660 O666 1.941 . S
Zn660 O667 1.965 . S
Zn661 O659 1.950 . S
Zn661 O668 1.938 . S
Zn661 O669 1.906 . S
Zn661 O679 1.953 . S
Zn662 O659 1.945 1_556 S
Zn662 O664 1.932 . S
Zn662 O671 1.977 1_556 S
Zn662 O672 1.910 . S
O663 Zn660 1.933 . S
O663 C674 1.226 1_554 S
O664 Zn662 1.932 . S
O664 C674 1.307 1_455 S
O665 Zn658 1.919 . S
O665 C676 1.254 . S
O666 Zn660 1.941 . S
O666 C676 1.283 . S
O667 Zn660 1.965 . S
O667 C675 1.303 . S
O668 Zn661 1.938 . S
O668 C675 1.247 1_455 S
O669 Zn661 1.906 . S
O669 C677 1.304 . S
O670 Zn658 1.924 1_456 S
O670 C678 1.311 . S
O671 Zn662 1.977 1_554 S
O671 C677 1.272 . S
O672 Zn662 1.910 . S
O672 C678 1.231 . S
C673 O657 1.225 . S
C673 O679 1.298 . S
C674 O663 1.226 1_556 S
C674 O664 1.307 1_655 S
C675 O667 1.303 . S
C675 O668 1.247 1_655 S
C676 O665 1.254 . S
C676 O666 1.283 . S
C677 O669 1.304 . S
C677 O671 1.272 . S
C678 O670 1.311 . S
C678 O672 1.231 . S
O679 Zn661 1.953 . S
O679 C673 1.298 . S
H680 C688 0.950 . S
H681 C693 0.950 . S
H682 C690 0.950 . S
H683 C692 0.950 . S
H684 C694 0.950 . S
H685 C696 0.950 . S
H686 C698 0.950 . S
H687 C699 0.950 . S
C688 H680 0.950 . S
C688 C689 1.386 1_655 S
C688 C690 1.391 . S
C689 C688 1.386 1_455 S
C689 C693 1.393 . S
C690 H682 0.950 . S
C690 C688 1.391 . S
C690 C691 1.420 . S
C691 C690 1.420 . S
C691 C692 1.375 1_655 S
C691 C697 1.494 . S
C692 H683 0.950 . S
C692 C691 1.375 1_455 S
C692 C693 1.391 . S
C693 H681 0.950 . S
C693 C689 1.393 . S
C693 C692 1.391 . S
C694 H684 0.950 . S
C694 C695 1.386 1_455 S
C694 C696 1.391 . S
C695 C694 1.386 1_655 S
C695 C699 1.393 . S
C696 H685 0.950 . S
C696 C694 1.391 . S
C696 C697 1.400 1_455 S
C697 C691 1.494 . S
C697 C696 1.400 1_655 S
C697 C698 1.398 . S
C698 H686 0.950 . S
C698 C697 1.398 . S
C698 C699 1.391 . S
C699 H687 0.950 . S
C699 C695 1.393 . S
C699 C698 1.391 . S
H700 C708 0.950 . S
H701 C713 0.950 . S
H702 C710 0.950 . S
H703 C712 0.950 . S
H704 C714 0.950 . S
H705 C716 0.950 . S
H706 C718 0.950 . S
H707 C719 0.950 . S
C708 H700 0.950 . S
C708 C709 1.386 . S
C708 C710 1.391 . S
C709 C708 1.386 . S
C709 C713 1.393 . S
C710 H702 0.950 . S
C710 C708 1.391 . S
C710 C711 1.400 . S
C711 C710 1.400 . S
C711 C712 1.398 . S
C711 C717 1.491 . S
C712 H703 0.950 . S
C712 C711 1.398 . S
C712 C713 1.391 . S
C713 H701 0.950 . S
C713 C709 1.393 . S
C713 C712 1.391 . S
C714 H704 0.950 . S
C714 C715 1.386 . S
C714 C716 1.391 . S
C715 C714 1.386 . S
C715 C719 1.393 . S
C716 H705 0.950 . S
C716 C714 1.391 . S
C716 C717 1.400 . S
C717 C711 1.491 . S
C717 C716 1.400 . S
C717 C718 1.398 . S
C718 H706 0.950 . S
C718 C717 1.398 . S
C718 C719 1.391 . S
C719 H707 0.950 . S
C719 C715 1.393 . S
C719 C718 1.391 . S
H720 C728 0.950 . S
H721 C733 0.950 . S
H722 C730 0.950 . S
H723 C732 0.950 . S
H724 C734 0.950 . S
H725 C736 0.950 . S
H726 C738 0.950 . S
H727 C739 0.950 . S
C728 H720 0.950 . S
C728 C729 1.386 . S
C728 C730 1.391 . S
C729 C728 1.386 . S
C729 C733 1.393 . S
C730 H722 0.950 . S
C730 C728 1.391 . S
C730 C731 1.400 . S
C731 C730 1.400 . S
C731 C732 1.398 . S
C731 C737 1.491 . S
C732 H723 0.950 . S
C732 C731 1.398 . S
C732 C733 1.391 . S
C733 H721 0.950 . S
C733 C729 1.393 . S
C733 C732 1.391 . S
C734 H724 0.950 . S
C734 C735 1.386 . S
C734 C736 1.391 . S
C735 C734 1.386 . S
C735 C739 1.393 . S
C736 H725 0.950 . S
C736 C734 1.391 . S
C736 C737 1.400 . S
C737 C731 1.491 . S
C737 C736 1.400 . S
C737 C738 1.398 . S
C738 H726 0.950 . S
C738 C737 1.398 . S
C738 C739 1.391 . S
C739 H727 0.950 . S
C739 C735 1.393 . S
C739 C738 1.391 . S
H740 C748 0.950 . S
H741 C753 0.950 . S
H742 C750 0.950 . S
H743 C752 0.950 . S
H744 C754 0.950 . S
H745 C756 0.950 . S
H746 C758 0.950 . S
H747 C759 0.950 . S
C748 H740 0.950 . S
C748 C749 1.386 . S
C748 C750 1.391 . S
C749 C748 1.386 . S
C749 C753 1.393 . S
C750 H742 0.950 . S
C750 C748 1.391 . S
C750 C751 1.400 . S
C751 C750 1.400 . S
C751 C752 1.398 . S
C751 C757 1.491 . S
C752 H743 0.950 . S
C752 C751 1.398 . S
C752 C753 1.391 . S
C753 H741 0.950 . S
C753 C749 1.393 . S
C753 C752 1.391 . S
C754 H744 0.950 . S
C754 C755 1.386 . S
C754 C756 1.391 . S
C755 C754 1.386 . S
C755 C759 1.393 . S
C756 H745 0.950 . S
C756 C754 1.391 . S
C756 C757 1.400 . S
C757 C751 1.491 . S
C757 C756 1.400 . S
C757 C758 1.398 . S
C758 H746 0.950 . S
C758 C757 1.398 . S
C758 C759 1.391 . S
C759 H747 0.950 . S
C759 C755 1.393 . S
C759 C758 1.391 . S
H760 C768 0.950 . S
H761 C773 0.950 . S
H762 C770 0.950 . S
H763 C772 0.950 . S
H764 C774 0.950 . S
H765 C776 0.950 . S
H766 C778 0.950 . S
H767 C779 0.950 . S
C768 H760 0.950 . S
C768 C769 1.386 1_655 S
C768 C770 1.391 . S
C769 C768 1.386 1_455 S
C769 C773 1.393 . S
C770 H762 0.950 . S
C770 C768 1.391 . S
C770 C771 1.400 1_655 S
C771 C770 1.400 1_455 S
C771 C772 1.398 . S
C771 C777 1.488 1_455 S
C772 H763 0.950 . S
C772 C771 1.398 . S
C772 C773 1.391 . S
C773 H761 0.950 . S
C773 C769 1.393 . S
C773 C772 1.391 . S
C774 H764 0.950 . S
C774 C775 1.386 1_455 S
C774 C776 1.391 . S
C775 C774 1.386 1_655 S
C775 C779 1.393 . S
C776 H765 0.950 . S
C776 C774 1.391 . S
C776 C777 1.391 1_455 S
C777 C771 1.488 1_655 S
C777 C776 1.391 1_655 S
C777 C778 1.411 . S
C778 H766 0.950 . S
C778 C777 1.411 . S
C778 C779 1.391 . S
C779 H767 0.950 . S
C779 C775 1.393 . S
C779 C778 1.391 . S
H780 C788 0.950 . S
H781 C793 0.950 . S
H782 C790 0.950 . S
H783 C792 0.950 . S
H784 C794 0.950 . S
H785 C796 0.950 . S
H786 C798 0.950 . S
H787 C799 0.950 . S
C788 H780 0.950 . S
C788 C789 1.386 . S
C788 C790 1.391 . S
C789 C788 1.386 . S
C789 C793 1.393 . S
C790 H782 0.950 . S
C790 C788 1.391 . S
C790 C791 1.400 . S
C791 C790 1.400 . S
C791 C792 1.398 . S
C791 C797 1.491 . S
C792 H783 0.950 . S
C792 C791 1.398 . S
C792 C793 1.391 . S
C793 H781 0.950 . S
C793 C789 1.393 . S
C793 C792 1.391 . S
C794 H784 0.950 . S
C794 C795 1.386 . S
C794 C796 1.391 . S
C795 C794 1.386 . S
C795 C799 1.393 . S
C796 H785 0.950 . S
C796 C794 1.391 . S
C796 C797 1.400 . S
C797 C791 1.491 . S
C797 C796 1.400 . S
C797 C798 1.398 . S
C798 H786 0.950 . S
C798 C797 1.398 . S
C798 C799 1.391 . S
C799 H787 0.950 . S
C799 C795 1.393 . S
C799 C798 1.391 . S
H800 C808 0.950 . S
H801 C813 0.950 . S
H802 C810 0.950 . S
H803 C812 0.950 . S
H804 C814 0.950 . S
H805 C816 0.950 . S
H806 C818 0.950 1_554 S
H807 C819 0.950 . S
C808 H800 0.950 . S
C808 C809 1.386 . S
C808 C810 1.391 . S
C809 C808 1.386 . S
C809 C813 1.393 . S
C810 H802 0.950 . S
C810 C808 1.391 . S
C810 C811 1.400 . S
C811 C810 1.400 . S
C811 C812 1.398 . S
C811 C817 1.491 . S
C812 H803 0.950 . S
C812 C811 1.398 . S
C812 C813 1.391 . S
C813 H801 0.950 . S
C813 C809 1.393 . S
C813 C812 1.391 . S
C814 H804 0.950 . S
C814 C815 1.386 . S
C814 C816 1.391 . S
C815 C814 1.386 . S
C815 C819 1.393 1_556 S
C816 H805 0.950 . S
C816 C814 1.391 . S
C816 C817 1.400 . S
C817 C811 1.491 . S
C817 C816 1.400 . S
C817 C818 1.398 . S
C818 H806 0.950 1_556 S
C818 C817 1.398 . S
C818 C819 1.391 1_556 S
C819 H807 0.950 . S
C819 C815 1.393 1_554 S
C819 C818 1.391 1_554 S
H820 C828 0.950 . S
H821 C833 0.950 . S
H822 C830 0.950 . S
H823 C832 0.950 . S
H824 C834 0.950 . S
H825 C836 0.950 . S
H826 C838 0.950 . S
H827 C839 0.950 . S
C828 H820 0.950 . S
C828 C829 1.386 . S
C828 C830 1.391 . S
C829 C828 1.386 . S
C829 C833 1.393 . S
C830 H822 0.950 . S
C830 C828 1.391 . S
C830 C831 1.400 . S
C831 C830 1.400 . S
C831 C832 1.398 . S
C831 C837 1.491 . S
C832 H823 0.950 . S
C832 C831 1.398 . S
C832 C833 1.391 . S
C833 H821 0.950 . S
C833 C829 1.393 . S
C833 C832 1.391 . S
C834 H824 0.950 . S
C834 C835 1.386 . S
C834 C836 1.391 . S
C835 C834 1.386 . S
C835 C839 1.393 . S
C836 H825 0.950 . S
C836 C834 1.391 . S
C836 C837 1.400 . S
C837 C831 1.491 . S
C837 C836 1.400 . S
C837 C838 1.398 . S
C838 H826 0.950 . S
C838 C837 1.398 . S
C838 C839 1.391 . S
C839 H827 0.950 . S
C839 C835 1.393 . S
C839 C838 1.391 . S
H840 C848 0.925 1_565 S
H841 C853 0.950 . S
H842 C850 0.950 . S
H843 C852 0.950 . S
H844 C854 0.950 . S
H845 C856 0.950 . S
H846 C858 0.950 . S
H847 C859 0.950 . S
C848 H840 0.925 1_545 S
C848 C849 1.414 . S
C848 C850 1.388 1_545 S
C849 C848 1.414 . S
C849 C853 1.393 . S
C850 H842 0.950 . S
C850 C848 1.388 1_565 S
C850 C851 1.400 1_565 S
C851 C850 1.400 1_545 S
C851 C852 1.398 . S
C851 C857 1.491 . S
C852 H843 0.950 . S
C852 C851 1.398 . S
C852 C853 1.391 . S
C853 H841 0.950 . S
C853 C849 1.393 . S
C853 C852 1.391 . S
C854 H844 0.950 . S
C854 C855 1.386 . S
C854 C856 1.391 . S
C855 C854 1.386 . S
C855 C859 1.393 1_545 S
C856 H845 0.950 . S
C856 C854 1.391 . S
C856 C857 1.400 . S
C857 C851 1.491 . S
C857 C856 1.400 . S
C857 C858 1.398 1_545 S
C858 H846 0.950 . S
C858 C857 1.398 1_565 S
C858 C859 1.391 . S
C859 H847 0.950 . S
C859 C855 1.393 1_565 S
C859 C858 1.391 . S
H860 C868 0.950 . S
H861 C873 0.950 . S
H862 C870 0.950 . S
H863 C872 0.950 . S
H864 C874 0.950 . S
H865 C876 0.950 . S
H866 C878 0.950 . S
H867 C879 0.950 . S
C868 H860 0.950 . S
C868 C869 1.386 . S
C868 C870 1.391 . S
C869 C868 1.386 . S
C869 C873 1.393 . S
C870 H862 0.950 . S
C870 C868 1.391 . S
C870 C871 1.400 . S
C871 C870 1.400 . S
C871 C872 1.398 . S
C871 C877 1.491 . S
C872 H863 0.950 . S
C872 C871 1.398 . S
C872 C873 1.391 . S
C873 H861 0.950 . S
C873 C869 1.393 . S
C873 C872 1.391 . S
C874 H864 0.950 . S
C874 C875 1.386 . S
C874 C876 1.391 . S
C875 C874 1.386 . S
C875 C879 1.393 . S
C876 H865 0.950 . S
C876 C874 1.391 . S
C876 C877 1.400 . S
C877 C871 1.491 . S
C877 C876 1.400 . S
C877 C878 1.398 . S
C878 H866 0.950 . S
C878 C877 1.398 . S
C878 C879 1.391 . S
C879 H867 0.950 . S
C879 C875 1.393 . S
C879 C878 1.391 . S
H880 C888 0.950 . S
H881 C893 0.950 . S
H882 C890 0.950 . S
H883 C892 0.950 . S
H884 C894 0.950 1_565 S
H885 C896 0.962 . S
H886 C898 0.950 . S
H887 C899 0.950 . S
C888 H880 0.950 . S
C888 C889 1.403 . S
C888 C890 1.391 . S
C889 C888 1.403 . S
C889 C893 1.381 1_545 S
C890 H882 0.950 . S
C890 C888 1.391 . S
C890 C891 1.400 . S
C891 C890 1.400 . S
C891 C892 1.398 1_545 S
C891 C897 1.491 . S
C892 H883 0.950 . S
C892 C891 1.398 1_565 S
C892 C893 1.391 . S
C893 H881 0.950 . S
C893 C889 1.381 1_565 S
C893 C892 1.391 . S
C894 H884 0.950 1_545 S
C894 C895 1.386 . S
C894 C896 1.389 1_545 S
C895 C894 1.386 . S
C895 C899 1.393 . S
C896 H885 0.962 . S
C896 C894 1.389 1_565 S
C896 C897 1.391 1_565 S
C897 C891 1.491 . S
C897 C896 1.391 1_545 S
C897 C898 1.398 . S
C898 H886 0.950 . S
C898 C897 1.398 . S
C898 C899 1.391 . S
C899 H887 0.950 . S
C899 C895 1.393 . S
C899 C898 1.391 . S
H900 C908 0.950 . S
H901 C913 0.950 . S
H902 C910 0.950 . S
H903 C912 0.950 . S
H904 C914 0.950 . S
H905 C916 0.950 . S
H906 C918 0.950 . S
H907 C919 0.950 . S
C908 H900 0.950 . S
C908 C909 1.386 . S
C908 C910 1.391 . S
C909 C908 1.386 . S
C909 C913 1.393 . S
C910 H902 0.950 . S
C910 C908 1.391 . S
C910 C911 1.400 . S
C911 C910 1.400 . S
C911 C912 1.398 . S
C911 C917 1.491 . S
C912 H903 0.950 . S
C912 C911 1.398 . S
C912 C913 1.391 . S
C913 H901 0.950 . S
C913 C909 1.393 . S
C913 C912 1.391 . S
C914 H904 0.950 . S
C914 C915 1.386 . S
C914 C916 1.391 . S
C915 C914 1.386 . S
C915 C919 1.393 . S
C916 H905 0.950 . S
C916 C914 1.391 . S
C916 C917 1.400 . S
C917 C911 1.491 . S
C917 C916 1.400 . S
C917 C918 1.398 . S
C918 H906 0.950 . S
C918 C917 1.398 . S
C918 C919 1.391 . S
C919 H907 0.950 . S
C919 C915 1.393 . S
C919 C918 1.391 . S
H920 C928 0.950 . S
H921 C933 0.950 . S
H922 C930 0.950 . S
H923 C932 0.950 . S
H924 C934 0.950 . S
H925 C936 0.950 . S
H926 C938 0.950 . S
H927 C939 0.950 . S
C928 H920 0.950 . S
C928 C929 1.386 . S
C928 C930 1.391 . S
C929 C928 1.386 . S
C929 C933 1.393 . S
C930 H922 0.950 . S
C930 C928 1.391 . S
C930 C931 1.400 . S
C931 C930 1.400 . S
C931 C932 1.398 . S
C931 C937 1.491 . S
C932 H923 0.950 . S
C932 C931 1.398 . S
C932 C933 1.391 . S
C933 H921 0.950 . S
C933 C929 1.393 . S
C933 C932 1.391 . S
C934 H924 0.950 . S
C934 C935 1.386 . S
C934 C936 1.391 . S
C935 C934 1.386 . S
C935 C939 1.393 . S
C936 H925 0.950 . S
C936 C934 1.391 . S
C936 C937 1.400 . S
C937 C931 1.491 . S
C937 C936 1.400 . S
C937 C938 1.398 . S
C938 H926 0.950 . S
C938 C937 1.398 . S
C938 C939 1.391 . S
C939 H927 0.950 . S
C939 C935 1.393 . S
C939 C938 1.391 . S
H940 C948 0.950 . S
H941 C953 0.950 . S
H942 C950 0.950 . S
H943 C952 0.950 . S
H944 C954 0.950 . S
H945 C956 0.950 . S
H946 C958 0.950 . S
H947 C959 0.950 . S
C948 H940 0.950 . S
C948 C949 1.386 . S
C948 C950 1.391 . S
C949 C948 1.386 . S
C949 C953 1.393 . S
C950 H942 0.950 . S
C950 C948 1.391 . S
C950 C951 1.400 . S
C951 C950 1.400 . S
C951 C952 1.398 . S
C951 C957 1.491 . S
C952 H943 0.950 . S
C952 C951 1.398 . S
C952 C953 1.391 . S
C953 H941 0.950 . S
C953 C949 1.393 . S
C953 C952 1.391 . S
C954 H944 0.950 . S
C954 C955 1.386 . S
C954 C956 1.391 . S
C955 C954 1.386 . S
C955 C959 1.393 . S
C956 H945 0.950 . S
C956 C954 1.391 . S
C956 C957 1.400 . S
C957 C951 1.491 . S
C957 C956 1.400 . S
C957 C958 1.398 . S
C958 H946 0.950 . S
C958 C957 1.398 . S
C958 C959 1.391 . S
C959 H947 0.950 . S
C959 C955 1.393 . S
C959 C958 1.391 . S
H960 C968 0.950 . S
H961 C973 0.950 . S
H962 C970 0.950 . S
H963 C972 0.950 . S
H964 C974 0.950 . S
H965 C976 0.950 . S
H966 C978 0.944 1_545 S
H967 C979 0.950 1_545 S
C968 H960 0.950 . S
C968 C969 1.386 . S
C968 C970 1.391 . S
C969 C968 1.386 . S
C969 C973 1.393 1_545 S
C970 H962 0.950 . S
C970 C968 1.391 . S
C970 C971 1.400 1_545 S
C971 C970 1.400 1_565 S
C971 C972 1.398 . S
C971 C977 1.491 . S
C972 H963 0.950 . S
C972 C971 1.398 . S
C972 C973 1.391 . S
C973 H961 0.950 . S
C973 C969 1.393 1_565 S
C973 C972 1.391 . S
C974 H964 0.950 . S
C974 C975 1.386 . S
C974 C976 1.391 . S
C975 C974 1.386 . S
C975 C979 1.393 . S
C976 H965 0.950 . S
C976 C974 1.391 . S
C976 C977 1.400 . S
C977 C971 1.491 . S
C977 C976 1.400 . S
C977 C978 1.403 . S
C978 H966 0.944 1_565 S
C978 C977 1.403 . S
C978 C979 1.392 . S
C979 H967 0.950 1_565 S
C979 C975 1.393 . S
C979 C978 1.392 . S
H980 C988 0.950 . S
H981 C993 0.950 . S
H982 C990 0.950 . S
H983 C992 0.950 . S
H984 C994 0.950 . S
H985 C996 0.950 . S
H986 C998 0.950 . S
H987 C999 0.950 . S
C988 H980 0.950 . S
C988 C989 1.386 . S
C988 C990 1.391 . S
C989 C988 1.386 . S
C989 C993 1.393 . S
C990 H982 0.950 . S
C990 C988 1.391 . S
C990 C991 1.400 . S
C991 C990 1.400 . S
C991 C992 1.398 . S
C991 C997 1.491 . S
C992 H983 0.950 . S
C992 C991 1.398 . S
C992 C993 1.391 . S
C993 H981 0.950 . S
C993 C989 1.393 . S
C993 C992 1.391 . S
C994 H984 0.950 . S
C994 C995 1.386 . S
C994 C996 1.391 . S
C995 C994 1.386 . S
C995 C999 1.393 . S
C996 H985 0.950 . S
C996 C994 1.391 . S
C996 C997 1.400 . S
C997 C991 1.491 . S
C997 C996 1.400 . S
C997 C998 1.398 . S
C998 H986 0.950 . S
C998 C997 1.398 . S
C998 C999 1.391 . S
C999 H987 0.950 . S
C999 C995 1.393 . S
C999 C998 1.391 . S
H1000 C1008 0.950 . S
H1001 C1013 0.950 . S
H1002 C1010 0.950 . S
H1003 C1012 0.950 . S
H1004 C1014 0.950 . S
H1005 C1016 0.950 . S
H1006 C1018 0.950 . S
H1007 C1019 0.950 . S
C1008 H1000 0.950 . S
C1008 C1009 1.386 1_556 S
C1008 C1010 1.391 . S
C1009 C1008 1.386 1_554 S
C1009 C1013 1.393 . S
C1010 H1002 0.950 . S
C1010 C1008 1.391 . S
C1010 C1011 1.400 1_556 S
C1011 C1010 1.400 1_554 S
C1011 C1012 1.398 . S
C1011 C1017 1.491 . S
C1012 H1003 0.950 . S
C1012 C1011 1.398 . S
C1012 C1013 1.391 . S
C1013 H1001 0.950 . S
C1013 C1009 1.393 . S
C1013 C1012 1.391 . S
C1014 H1004 0.950 . S
C1014 C1015 1.349 1_554 S
C1014 C1016 1.391 . S
C1015 C1014 1.349 1_556 S
C1015 C1019 1.426 . S
C1016 H1005 0.950 . S
C1016 C1014 1.391 . S
C1016 C1017 1.400 . S
C1017 C1011 1.491 . S
C1017 C1016 1.400 . S
C1017 C1018 1.398 1_554 S
C1018 H1006 0.950 . S
C1018 C1017 1.398 1_556 S
C1018 C1019 1.391 . S
C1019 H1007 0.950 . S
C1019 C1015 1.426 . S
C1019 C1018 1.391 . S
H1020 C1028 0.950 . S
H1021 C1033 0.950 . S
H1022 C1030 0.950 . S
H1023 C1032 0.950 . S
H1024 C1034 0.950 . S
H1025 C1036 0.950 . S
H1026 C1038 0.950 . S
H1027 C1039 0.950 . S
C1028 H1020 0.950 . S
C1028 C1029 1.386 . S
C1028 C1030 1.391 . S
C1029 C1028 1.386 . S
C1029 C1033 1.393 1_554 S
C1030 H1022 0.950 . S
C1030 C1028 1.391 . S
C1030 C1031 1.400 . S
C1031 C1030 1.400 . S
C1031 C1032 1.398 1_554 S
C1031 C1037 1.491 . S
C1032 H1023 0.950 . S
C1032 C1031 1.398 1_556 S
C1032 C1033 1.391 . S
C1033 H1021 0.950 . S
C1033 C1029 1.393 1_556 S
C1033 C1032 1.391 . S
C1034 H1024 0.950 . S
C1034 C1035 1.386 1_556 S
C1034 C1036 1.391 . S
C1035 C1034 1.386 1_554 S
C1035 C1039 1.393 . S
C1036 H1025 0.950 . S
C1036 C1034 1.391 . S
C1036 C1037 1.400 1_556 S
C1037 C1031 1.491 . S
C1037 C1036 1.400 1_554 S
C1037 C1038 1.398 . S
C1038 H1026 0.950 . S
C1038 C1037 1.398 . S
C1038 C1039 1.391 . S
C1039 H1027 0.950 . S
C1039 C1035 1.393 . S
C1039 C1038 1.391 . S
H1040 C1048 0.950 . S
H1041 C1053 0.950 . S
H1042 C1050 0.950 . S
H1043 C1052 0.950 . S
H1044 C1054 0.950 . S
H1045 C1056 0.950 . S
H1046 C1058 0.950 . S
H1047 C1059 0.950 . S
C1048 H1040 0.950 . S
C1048 C1049 1.386 . S
C1048 C1050 1.391 . S
C1049 C1048 1.386 . S
C1049 C1053 1.393 . S
C1050 H1042 0.950 . S
C1050 C1048 1.391 . S
C1050 C1051 1.400 . S
C1051 C1050 1.400 . S
C1051 C1052 1.398 . S
C1051 C1057 1.491 . S
C1052 H1043 0.950 . S
C1052 C1051 1.398 . S
C1052 C1053 1.391 . S
C1053 H1041 0.950 . S
C1053 C1049 1.393 . S
C1053 C1052 1.391 . S
C1054 H1044 0.950 . S
C1054 C1055 1.386 . S
C1054 C1056 1.391 . S
C1055 C1054 1.386 . S
C1055 C1059 1.393 . S
C1056 H1045 0.950 . S
C1056 C1054 1.391 . S
C1056 C1057 1.400 . S
C1057 C1051 1.491 . S
C1057 C1056 1.400 . S
C1057 C1058 1.398 . S
C1058 H1046 0.950 . S
C1058 C1057 1.398 . S
C1058 C1059 1.391 . S
C1059 H1047 0.950 . S
C1059 C1055 1.393 . S
C1059 C1058 1.391 . S
H1060 C1068 0.950 . S
H1061 C1073 0.950 . S
H1062 C1070 0.950 . S
H1063 C1072 0.950 . S
H1064 C1074 0.950 . S
H1065 C1076 0.950 . S
H1066 C1078 0.950 . S
H1067 C1079 0.950 . S
C1068 H1060 0.950 . S
C1068 C1069 1.386 . S
C1068 C1070 1.391 . S
C1069 C1068 1.386 . S
C1069 C1073 1.393 . S
C1070 H1062 0.950 . S
C1070 C1068 1.391 . S
C1070 C1071 1.400 . S
C1071 C1070 1.400 . S
C1071 C1072 1.398 . S
C1071 C1077 1.491 . S
C1072 H1063 0.950 . S
C1072 C1071 1.398 . S
C1072 C1073 1.391 . S
C1073 H1061 0.950 . S
C1073 C1069 1.393 . S
C1073 C1072 1.391 . S
C1074 H1064 0.950 . S
C1074 C1075 1.386 . S
C1074 C1076 1.391 . S
C1075 C1074 1.386 . S
C1075 C1079 1.393 . S
C1076 H1065 0.950 . S
C1076 C1074 1.391 . S
C1076 C1077 1.400 . S
C1077 C1071 1.491 . S
C1077 C1076 1.400 . S
C1077 C1078 1.398 . S
C1078 H1066 0.950 . S
C1078 C1077 1.398 . S
C1078 C1079 1.391 . S
C1079 H1067 0.950 . S
C1079 C1075 1.393 . S
C1079 C1078 1.391 . S
H1080 C1088 0.950 . S
H1081 C1093 0.950 . S
H1082 C1090 0.950 . S
H1083 C1092 0.950 . S
H1084 C1094 0.950 . S
H1085 C1096 0.950 . S
H1086 C1098 0.950 . S
H1087 C1099 0.950 . S
C1088 H1080 0.950 . S
C1088 C1089 1.386 . S
C1088 C1090 1.391 . S
C1089 C1088 1.386 . S
C1089 C1093 1.393 . S
C1090 H1082 0.950 . S
C1090 C1088 1.391 . S
C1090 C1091 1.400 . S
C1091 C1090 1.400 . S
C1091 C1092 1.398 . S
C1091 C1097 1.491 . S
C1092 H1083 0.950 . S
C1092 C1091 1.398 . S
C1092 C1093 1.391 . S
C1093 H1081 0.950 . S
C1093 C1089 1.393 . S
C1093 C1092 1.391 . S
C1094 H1084 0.950 . S
C1094 C1095 1.386 . S
C1094 C1096 1.391 . S
C1095 C1094 1.386 . S
C1095 C1099 1.393 . S
C1096 H1085 0.950 . S
C1096 C1094 1.391 . S
C1096 C1097 1.400 . S
C1097 C1091 1.491 . S
C1097 C1096 1.400 . S
C1097 C1098 1.398 . S
C1098 H1086 0.950 . S
C1098 C1097 1.398 . S
C1098 C1099 1.391 . S
C1099 H1087 0.950 . S
C1099 C1095 1.393 . S
C1099 C1098 1.391 . S
H1100 C1108 0.950 . S
H1101 C1113 0.950 . S
H1102 C1110 0.950 . S
H1103 C1112 0.950 . S
H1104 C1114 0.950 . S
H1105 C1116 0.950 . S
H1106 C1118 0.950 . S
H1107 C1119 0.950 . S
C1108 H1100 0.950 . S
C1108 C1109 1.386 . S
C1108 C1110 1.391 . S
C1109 C1108 1.386 . S
C1109 C1113 1.393 . S
C1110 H1102 0.950 . S
C1110 C1108 1.391 . S
C1110 C1111 1.400 . S
C1111 C1110 1.400 . S
C1111 C1112 1.398 . S
C1111 C1117 1.491 . S
C1112 H1103 0.950 . S
C1112 C1111 1.398 . S
C1112 C1113 1.391 . S
C1113 H1101 0.950 . S
C1113 C1109 1.393 . S
C1113 C1112 1.391 . S
C1114 H1104 0.950 . S
C1114 C1115 1.386 . S
C1114 C1116 1.391 . S
C1115 C1114 1.386 . S
C1115 C1119 1.393 . S
C1116 H1105 0.950 . S
C1116 C1114 1.391 . S
C1116 C1117 1.400 . S
C1117 C1111 1.491 . S
C1117 C1116 1.400 . S
C1117 C1118 1.398 . S
C1118 H1106 0.950 . S
C1118 C1117 1.398 . S
C1118 C1119 1.391 . S
C1119 H1107 0.950 . S
C1119 C1115 1.393 . S
C1119 C1118 1.391 . S
H1120 C1128 0.950 . S
H1121 C1133 0.950 . S
H1122 C1130 0.950 . S
H1123 C1132 0.950 . S
H1124 C1134 0.950 . S
H1125 C1136 0.950 . S
H1126 C1138 0.950 . S
H1127 C1139 0.950 . S
C1128 H1120 0.950 . S
C1128 C1129 1.386 . S
C1128 C1130 1.391 . S
C1129 C1128 1.386 . S
C1129 C1133 1.393 . S
C1130 H1122 0.950 . S
C1130 C1128 1.391 . S
C1130 C1131 1.400 . S
C1131 C1130 1.400 . S
C1131 C1132 1.398 . S
C1131 C1137 1.491 . S
C1132 H1123 0.950 . S
C1132 C1131 1.398 . S
C1132 C1133 1.391 . S
C1133 H1121 0.950 . S
C1133 C1129 1.393 . S
C1133 C1132 1.391 . S
C1134 H1124 0.950 . S
C1134 C1135 1.386 . S
C1134 C1136 1.391 . S
C1135 C1134 1.386 . S
C1135 C1139 1.393 . S
C1136 H1125 0.950 . S
C1136 C1134 1.391 . S
C1136 C1137 1.400 . S
C1137 C1131 1.491 . S
C1137 C1136 1.400 . S
C1137 C1138 1.398 . S
C1138 H1126 0.950 . S
C1138 C1137 1.398 . S
C1138 C1139 1.391 . S
C1139 H1127 0.950 . S
C1139 C1135 1.393 . S
C1139 C1138 1.391 . S
H1140 C1148 0.950 . S
H1141 C1153 0.950 . S
H1142 C1150 0.950 . S
H1143 C1152 0.950 . S
H1144 C1154 0.950 . S
H1145 C1156 0.950 . S
H1146 C1158 0.950 . S
H1147 C1159 0.950 . S
C1148 H1140 0.950 . S
C1148 C1149 1.386 . S
C1148 C1150 1.391 . S
C1149 C1148 1.386 . S
C1149 C1153 1.393 . S
C1150 H1142 0.950 . S
C1150 C1148 1.391 . S
C1150 C1151 1.400 . S
C1151 C1150 1.400 . S
C1151 C1152 1.398 . S
C1151 C1157 1.491 . S
C1152 H1143 0.950 . S
C1152 C1151 1.398 . S
C1152 C1153 1.391 . S
C1153 H1141 0.950 . S
C1153 C1149 1.393 . S
C1153 C1152 1.391 . S
C1154 H1144 0.950 . S
C1154 C1155 1.386 . S
C1154 C1156 1.391 . S
C1155 C1154 1.386 . S
C1155 C1159 1.393 . S
C1156 H1145 0.950 . S
C1156 C1154 1.391 . S
C1156 C1157 1.400 . S
C1157 C1151 1.491 . S
C1157 C1156 1.400 . S
C1157 C1158 1.398 . S
C1158 H1146 0.950 . S
C1158 C1157 1.398 . S
C1158 C1159 1.391 . S
C1159 H1147 0.950 . S
C1159 C1155 1.393 . S
C1159 C1158 1.391 . S
H1160 C1168 0.950 . S
H1161 C1173 0.950 . S
H1162 C1170 0.950 . S
H1163 C1172 0.950 . S
H1164 C1174 0.950 . S
H1165 C1176 0.950 . S
H1166 C1178 0.950 . S
H1167 C1179 0.924 1_654 S
C1168 H1160 0.950 . S
C1168 C1169 1.386 1_655 S
C1168 C1170 1.391 . S
C1169 C1168 1.386 1_455 S
C1169 C1173 1.393 . S
C1170 H1162 0.950 . S
C1170 C1168 1.391 . S
C1170 C1171 1.400 1_655 S
C1171 C1170 1.400 1_455 S
C1171 C1172 1.398 . S
C1171 C1177 1.491 . S
C1172 H1163 0.950 . S
C1172 C1171 1.398 . S
C1172 C1173 1.391 . S
C1173 H1161 0.950 . S
C1173 C1169 1.393 . S
C1173 C1172 1.391 . S
C1174 H1164 0.950 . S
C1174 C1175 1.386 . S
C1174 C1176 1.391 . S
C1175 C1174 1.386 . S
C1175 C1179 1.423 . S
C1176 H1165 0.950 . S
C1176 C1174 1.391 . S
C1176 C1177 1.400 . S
C1177 C1171 1.491 . S
C1177 C1176 1.400 . S
C1177 C1178 1.398 1_455 S
C1178 H1166 0.950 . S
C1178 C1177 1.398 1_655 S
C1178 C1179 1.388 1_655 S
C1179 H1167 0.924 1_456 S
C1179 C1175 1.423 . S
C1179 C1178 1.388 1_455 S
H1180 C1188 0.950 . S
H1181 C1193 0.950 . S
H1182 C1190 0.950 . S
H1183 C1192 0.950 . S
H1184 C1194 0.950 . S
H1185 C1196 0.950 . S
H1186 C1198 0.950 . S
H1187 C1199 0.950 . S
C1188 H1180 0.950 . S
C1188 C1189 1.386 . S
C1188 C1190 1.391 . S
C1189 C1188 1.386 . S
C1189 C1193 1.393 . S
C1190 H1182 0.950 . S
C1190 C1188 1.391 . S
C1190 C1191 1.400 . S
C1191 C1190 1.400 . S
C1191 C1192 1.398 . S
C1191 C1197 1.491 . S
C1192 H1183 0.950 . S
C1192 C1191 1.398 . S
C1192 C1193 1.391 . S
C1193 H1181 0.950 . S
C1193 C1189 1.393 . S
C1193 C1192 1.391 . S
C1194 H1184 0.950 . S
C1194 C1195 1.386 . S
C1194 C1196 1.391 . S
C1195 C1194 1.386 . S
C1195 C1199 1.393 . S
C1196 H1185 0.950 . S
C1196 C1194 1.391 . S
C1196 C1197 1.400 . S
C1197 C1191 1.491 . S
C1197 C1196 1.400 . S
C1197 C1198 1.398 . S
C1198 H1186 0.950 . S
C1198 C1197 1.398 . S
C1198 C1199 1.391 . S
C1199 H1187 0.950 . S
C1199 C1195 1.393 . S
C1199 C1198 1.391 . S
H1200 C1208 0.950 . S
H1201 C1213 0.950 . S
H1202 C1210 0.950 . S
H1203 C1212 0.950 . S
H1204 C1214 0.950 . S
H1205 C1216 0.950 . S
H1206 C1218 0.950 . S
H1207 C1219 0.950 . S
C1208 H1200 0.950 . S
C1208 C1209 1.386 . S
C1208 C1210 1.391 . S
C1209 C1208 1.386 . S
C1209 C1213 1.393 . S
C1210 H1202 0.950 . S
C1210 C1208 1.391 . S
C1210 C1211 1.400 . S
C1211 C1210 1.400 . S
C1211 C1212 1.398 . S
C1211 C1217 1.491 . S
C1212 H1203 0.950 . S
C1212 C1211 1.398 . S
C1212 C1213 1.391 . S
C1213 H1201 0.950 . S
C1213 C1209 1.393 . S
C1213 C1212 1.391 . S
C1214 H1204 0.950 . S
C1214 C1215 1.386 . S
C1214 C1216 1.391 . S
C1215 C1214 1.386 . S
C1215 C1219 1.393 . S
C1216 H1205 0.950 . S
C1216 C1214 1.391 . S
C1216 C1217 1.400 . S
C1217 C1211 1.491 . S
C1217 C1216 1.400 . S
C1217 C1218 1.398 . S
C1218 H1206 0.950 . S
C1218 C1217 1.398 . S
C1218 C1219 1.391 . S
C1219 H1207 0.950 . S
C1219 C1215 1.393 . S
C1219 C1218 1.391 . S
H1220 C1228 0.950 . S
H1221 C1233 0.950 . S
H1222 C1230 0.950 . S
H1223 C1232 0.950 . S
H1224 C1234 0.950 . S
H1225 C1236 0.950 . S
H1226 C1238 0.950 . S
H1227 C1239 0.950 . S
C1228 H1220 0.950 . S
C1228 C1229 1.386 . S
C1228 C1230 1.391 . S
C1229 C1228 1.386 . S
C1229 C1233 1.393 . S
C1230 H1222 0.950 . S
C1230 C1228 1.391 . S
C1230 C1231 1.400 . S
C1231 C1230 1.400 . S
C1231 C1232 1.398 . S
C1231 C1237 1.491 . S
C1232 H1223 0.950 . S
C1232 C1231 1.398 . S
C1232 C1233 1.391 . S
C1233 H1221 0.950 . S
C1233 C1229 1.393 . S
C1233 C1232 1.391 . S
C1234 H1224 0.950 . S
C1234 C1235 1.386 . S
C1234 C1236 1.391 . S
C1235 C1234 1.386 . S
C1235 C1239 1.393 . S
C1236 H1225 0.950 . S
C1236 C1234 1.391 . S
C1236 C1237 1.400 . S
C1237 C1231 1.491 . S
C1237 C1236 1.400 . S
C1237 C1238 1.398 . S
C1238 H1226 0.950 . S
C1238 C1237 1.398 . S
C1238 C1239 1.391 . S
C1239 H1227 0.950 . S
C1239 C1235 1.393 . S
C1239 C1238 1.391 . S
H1240 C1248 0.950 . S
H1241 C1253 0.950 . S
H1242 C1250 0.950 . S
H1243 C1252 0.950 . S
H1244 C1254 0.950 1_655 S
H1245 C1256 0.950 1_655 S
H1246 C1258 0.950 . S
H1247 C1259 0.950 . S
C1248 H1240 0.950 . S
C1248 C1249 1.386 . S
C1248 C1250 1.391 . S
C1249 C1248 1.386 . S
C1249 C1253 1.393 1_455 S
C1250 H1242 0.950 . S
C1250 C1248 1.391 . S
C1250 C1251 1.400 . S
C1251 C1250 1.400 . S
C1251 C1252 1.398 1_455 S
C1251 C1257 1.491 . S
C1252 H1243 0.950 . S
C1252 C1251 1.398 1_655 S
C1252 C1253 1.391 . S
C1253 H1241 0.950 . S
C1253 C1249 1.393 1_655 S
C1253 C1252 1.391 . S
C1254 H1244 0.950 1_455 S
C1254 C1255 1.386 . S
C1254 C1256 1.391 . S
C1255 C1254 1.386 . S
C1255 C1259 1.393 . S
C1256 H1245 0.950 1_455 S
C1256 C1254 1.391 . S
C1256 C1257 1.400 . S
C1257 C1251 1.491 . S
C1257 C1256 1.400 . S
C1257 C1258 1.398 . S
C1258 H1246 0.950 . S
C1258 C1257 1.398 . S
C1258 C1259 1.391 . S
C1259 H1247 0.950 . S
C1259 C1255 1.393 . S
C1259 C1258 1.391 . S
H1260 C1268 0.950 . S
H1261 C1273 0.950 . S
H1262 C1270 0.950 . S
H1263 C1272 0.950 . S
H1264 C1274 0.950 . S
H1265 C1276 0.950 . S
H1266 C1278 0.950 . S
H1267 C1279 0.950 . S
C1268 H1260 0.950 . S
C1268 C1269 1.386 . S
C1268 C1270 1.391 . S
C1269 C1268 1.386 . S
C1269 C1273 1.393 . S
C1270 H1262 0.950 . S
C1270 C1268 1.391 . S
C1270 C1271 1.400 . S
C1271 C1270 1.400 . S
C1271 C1272 1.398 . S
C1271 C1277 1.491 . S
C1272 H1263 0.950 . S
C1272 C1271 1.398 . S
C1272 C1273 1.391 . S
C1273 H1261 0.950 . S
C1273 C1269 1.393 . S
C1273 C1272 1.391 . S
C1274 H1264 0.950 . S
C1274 C1275 1.386 . S
C1274 C1276 1.391 . S
C1275 C1274 1.386 . S
C1275 C1279 1.393 . S
C1276 H1265 0.950 . S
C1276 C1274 1.391 . S
C1276 C1277 1.400 . S
C1277 C1271 1.491 . S
C1277 C1276 1.400 . S
C1277 C1278 1.398 . S
C1278 H1266 0.950 . S
C1278 C1277 1.398 . S
C1278 C1279 1.391 . S
C1279 H1267 0.950 . S
C1279 C1275 1.393 . S
C1279 C1278 1.391 . S
H1280 C1288 0.950 . S
H1281 C1293 0.950 . S
H1282 C1290 0.950 . S
H1283 C1292 0.950 . S
H1284 C1294 0.950 . S
H1285 C1296 0.950 . S
H1286 C1298 0.950 . S
H1287 C1299 0.950 . S
C1288 H1280 0.950 . S
C1288 C1289 1.386 . S
C1288 C1290 1.391 . S
C1289 C1288 1.386 . S
C1289 C1293 1.393 . S
C1290 H1282 0.950 . S
C1290 C1288 1.391 . S
C1290 C1291 1.400 . S
C1291 C1290 1.400 . S
C1291 C1292 1.398 . S
C1291 C1297 1.491 . S
C1292 H1283 0.950 . S
C1292 C1291 1.398 . S
C1292 C1293 1.391 . S
C1293 H1281 0.950 . S
C1293 C1289 1.393 . S
C1293 C1292 1.391 . S
C1294 H1284 0.950 . S
C1294 C1295 1.386 . S
C1294 C1296 1.391 . S
C1295 C1294 1.386 . S
C1295 C1299 1.393 . S
C1296 H1285 0.950 . S
C1296 C1294 1.391 . S
C1296 C1297 1.400 . S
C1297 C1291 1.491 . S
C1297 C1296 1.400 . S
C1297 C1298 1.398 . S
C1298 H1286 0.950 . S
C1298 C1297 1.398 . S
C1298 C1299 1.391 . S
C1299 H1287 0.950 . S
C1299 C1295 1.393 . S
C1299 C1298 1.391 . S
H1300 C1308 0.950 . S
H1301 C1313 0.950 . S
H1302 C1310 0.950 . S
H1303 C1312 0.950 . S
H1304 C1314 0.950 . S
H1305 C1316 0.950 . S
H1306 C1318 0.950 . S
H1307 C1319 0.950 . S
C1308 H1300 0.950 . S
C1308 C1309 1.386 . S
C1308 C1310 1.391 . S
C1309 C1308 1.386 . S
C1309 C1313 1.393 . S
C1310 H1302 0.950 . S
C1310 C1308 1.391 . S
C1310 C1311 1.400 . S
C1311 C1310 1.400 . S
C1311 C1312 1.398 . S
C1311 C1317 1.491 . S
C1312 H1303 0.950 . S
C1312 C1311 1.398 . S
C1312 C1313 1.391 . S
C1313 H1301 0.950 . S
C1313 C1309 1.393 . S
C1313 C1312 1.391 . S
C1314 H1304 0.950 . S
C1314 C1315 1.386 . S
C1314 C1316 1.391 . S
C1315 C1314 1.386 . S
C1315 C1319 1.393 . S
C1316 H1305 0.950 . S
C1316 C1314 1.391 . S
C1316 C1317 1.400 . S
C1317 C1311 1.491 . S
C1317 C1316 1.400 . S
C1317 C1318 1.398 . S
C1318 H1306 0.950 . S
C1318 C1317 1.398 . S
C1318 C1319 1.391 . S
C1319 H1307 0.950 . S
C1319 C1315 1.393 . S
C1319 C1318 1.391 . S
H1320 C1328 0.950 . S
H1321 C1333 0.934 1_565 S
H1322 C1330 0.950 . S
H1323 C1332 0.950 . S
H1324 C1334 0.950 . S
H1325 C1336 0.950 . S
H1326 C1338 0.950 . S
H1327 C1339 0.950 . S
C1328 H1320 0.950 . S
C1328 C1329 1.386 . S
C1328 C1330 1.391 . S
C1329 C1328 1.386 . S
C1329 C1333 1.393 . S
C1330 H1322 0.950 . S
C1330 C1328 1.391 . S
C1330 C1331 1.400 . S
C1331 C1330 1.400 . S
C1331 C1332 1.398 . S
C1331 C1337 1.491 . S
C1332 H1323 0.950 . S
C1332 C1331 1.398 . S
C1332 C1333 1.391 . S
C1333 H1321 0.934 1_545 S
C1333 C1329 1.393 . S
C1333 C1332 1.391 . S
C1334 H1324 0.950 . S
C1334 C1335 1.386 . S
C1334 C1336 1.391 . S
C1335 C1334 1.386 . S
C1335 C1339 1.393 . S
C1336 H1325 0.950 . S
C1336 C1334 1.391 . S
C1336 C1337 1.400 . S
C1337 C1331 1.491 . S
C1337 C1336 1.400 . S
C1337 C1338 1.398 . S
C1338 H1326 0.950 . S
C1338 C1337 1.398 . S
C1338 C1339 1.391 . S
C1339 H1327 0.950 . S
C1339 C1335 1.393 . S
C1339 C1338 1.391 . S
H1340 C1348 0.950 . S
H1341 C1353 0.950 . S
H1342 C1350 0.950 . S
H1343 C1352 0.950 . S
H1344 C1354 0.950 . S
H1345 C1356 0.950 . S
H1346 C1358 0.950 . S
H1347 C1359 0.950 . S
C1348 H1340 0.950 . S
C1348 C1349 1.386 . S
C1348 C1350 1.391 . S
C1349 C1348 1.386 . S
C1349 C1353 1.393 . S
C1350 H1342 0.950 . S
C1350 C1348 1.391 . S
C1350 C1351 1.400 . S
C1351 C1350 1.400 . S
C1351 C1352 1.398 . S
C1351 C1357 1.491 . S
C1352 H1343 0.950 . S
C1352 C1351 1.398 . S
C1352 C1353 1.391 . S
C1353 H1341 0.950 . S
C1353 C1349 1.393 . S
C1353 C1352 1.391 . S
C1354 H1344 0.950 . S
C1354 C1355 1.386 . S
C1354 C1356 1.391 . S
C1355 C1354 1.386 . S
C1355 C1359 1.393 . S
C1356 H1345 0.950 . S
C1356 C1354 1.391 . S
C1356 C1357 1.400 . S
C1357 C1351 1.491 . S
C1357 C1356 1.400 . S
C1357 C1358 1.398 . S
C1358 H1346 0.950 . S
C1358 C1357 1.398 . S
C1358 C1359 1.391 . S
C1359 H1347 0.950 . S
C1359 C1355 1.393 . S
C1359 C1358 1.391 . S
H1360 C1368 0.950 . S
H1361 C1373 0.950 . S
H1362 C1370 0.950 . S
H1363 C1372 0.950 . S
H1364 C1374 0.950 1_545 S
H1365 C1376 0.950 . S
H1366 C1378 0.950 . S
H1367 C1379 0.950 . S
C1368 H1360 0.950 . S
C1368 C1369 1.386 . S
C1368 C1370 1.391 . S
C1369 C1368 1.386 . S
C1369 C1373 1.393 1_565 S
C1370 H1362 0.950 . S
C1370 C1368 1.391 . S
C1370 C1371 1.400 . S
C1371 C1370 1.400 . S
C1371 C1372 1.398 1_565 S
C1371 C1377 1.491 . S
C1372 H1363 0.950 . S
C1372 C1371 1.398 1_545 S
C1372 C1373 1.391 . S
C1373 H1361 0.950 . S
C1373 C1369 1.393 1_545 S
C1373 C1372 1.391 . S
C1374 H1364 0.950 1_565 S
C1374 C1375 1.386 . S
C1374 C1376 1.391 1_565 S
C1375 C1374 1.386 . S
C1375 C1379 1.393 . S
C1376 H1365 0.950 . S
C1376 C1374 1.391 1_545 S
C1376 C1377 1.400 1_545 S
C1377 C1371 1.491 . S
C1377 C1376 1.400 1_565 S
C1377 C1378 1.398 . S
C1378 H1366 0.950 . S
C1378 C1377 1.398 . S
C1378 C1379 1.391 . S
C1379 H1367 0.950 . S
C1379 C1375 1.393 . S
C1379 C1378 1.391 . S
H1380 C1388 0.950 . S
H1381 C1393 0.950 . S
H1382 C1390 0.950 . S
H1383 C1392 0.950 . S
H1384 C1394 0.950 . S
H1385 C1396 0.950 . S
H1386 C1398 0.950 . S
H1387 C1399 0.950 . S
C1388 H1380 0.950 . S
C1388 C1389 1.386 . S
C1388 C1390 1.391 . S
C1389 C1388 1.386 . S
C1389 C1393 1.393 . S
C1390 H1382 0.950 . S
C1390 C1388 1.391 . S
C1390 C1391 1.400 . S
C1391 C1390 1.400 . S
C1391 C1392 1.398 . S
C1391 C1397 1.491 . S
C1392 H1383 0.950 . S
C1392 C1391 1.398 . S
C1392 C1393 1.391 . S
C1393 H1381 0.950 . S
C1393 C1389 1.393 . S
C1393 C1392 1.391 . S
C1394 H1384 0.950 . S
C1394 C1395 1.386 . S
C1394 C1396 1.391 . S
C1395 C1394 1.386 . S
C1395 C1399 1.393 . S
C1396 H1385 0.950 . S
C1396 C1394 1.391 . S
C1396 C1397 1.400 . S
C1397 C1391 1.491 . S
C1397 C1396 1.400 . S
C1397 C1398 1.398 . S
C1398 H1386 0.950 . S
C1398 C1397 1.398 . S
C1398 C1399 1.391 . S
C1399 H1387 0.950 . S
C1399 C1395 1.393 . S
C1399 C1398 1.391 . S
H1400 C1408 0.950 . S
H1401 C1413 0.950 . S
H1402 C1410 0.950 . S
H1403 C1412 0.950 . S
H1404 C1414 0.950 . S
H1405 C1416 0.950 . S
H1406 C1418 0.950 . S
H1407 C1419 0.950 . S
C1408 H1400 0.950 . S
C1408 C1409 1.386 1_565 S
C1408 C1410 1.391 . S
C1409 C1408 1.386 1_545 S
C1409 C1413 1.393 . S
C1410 H1402 0.950 . S
C1410 C1408 1.391 . S
C1410 C1411 1.400 1_565 S
C1411 C1410 1.400 1_545 S
C1411 C1412 1.398 . S
C1411 C1417 1.491 . S
C1412 H1403 0.950 . S
C1412 C1411 1.398 . S
C1412 C1413 1.391 . S
C1413 H1401 0.950 . S
C1413 C1409 1.393 . S
C1413 C1412 1.391 . S
C1414 H1404 0.950 . S
C1414 C1415 1.386 1_545 S
C1414 C1416 1.391 . S
C1415 C1414 1.386 1_565 S
C1415 C1419 1.393 . S
C1416 H1405 0.950 . S
C1416 C1414 1.391 . S
C1416 C1417 1.400 . S
C1417 C1411 1.491 . S
C1417 C1416 1.400 . S
C1417 C1418 1.398 1_545 S
C1418 H1406 0.950 . S
C1418 C1417 1.398 1_565 S
C1418 C1419 1.391 . S
C1419 H1407 0.950 . S
C1419 C1415 1.393 . S
C1419 C1418 1.391 . S
H1420 C1428 0.950 . S
H1421 C1433 0.950 . S
H1422 C1430 0.950 . S
H1423 C1432 0.950 . S
H1424 C1434 0.950 . S
H1425 C1436 0.950 . S
H1426 C1438 0.950 . S
H1427 C1439 0.950 . S
C1428 H1420 0.950 . S
C1428 C1429 1.386 . S
C1428 C1430 1.391 . S
C1429 C1428 1.386 . S
C1429 C1433 1.393 . S
C1430 H1422 0.950 . S
C1430 C1428 1.391 . S
C1430 C1431 1.400 . S
C1431 C1430 1.400 . S
C1431 C1432 1.398 . S
C1431 C1437 1.491 . S
C1432 H1423 0.950 . S
C1432 C1431 1.398 . S
C1432 C1433 1.391 . S
C1433 H1421 0.950 . S
C1433 C1429 1.393 . S
C1433 C1432 1.391 . S
C1434 H1424 0.950 . S
C1434 C1435 1.386 . S
C1434 C1436 1.391 . S
C1435 C1434 1.386 . S
C1435 C1439 1.393 . S
C1436 H1425 0.950 . S
C1436 C1434 1.391 . S
C1436 C1437 1.400 . S
C1437 C1431 1.491 . S
C1437 C1436 1.400 . S
C1437 C1438 1.398 . S
C1438 H1426 0.950 . S
C1438 C1437 1.398 . S
C1438 C1439 1.391 . S
C1439 H1427 0.950 . S
C1439 C1435 1.393 . S
C1439 C1438 1.391 . S
H1440 C1448 0.950 . S
H1441 C1453 0.950 . S
H1442 C1450 0.950 . S
H1443 C1452 0.950 . S
H1444 C1454 0.950 . S
H1445 C1456 0.950 . S
H1446 C1458 0.950 1_565 S
H1447 C1459 0.950 1_565 S
C1448 H1440 0.950 . S
C1448 C1449 1.386 1_565 S
C1448 C1450 1.391 . S
C1449 C1448 1.386 1_545 S
C1449 C1453 1.393 . S
C1450 H1442 0.950 . S
C1450 C1448 1.391 . S
C1450 C1451 1.400 1_565 S
C1451 C1450 1.400 1_545 S
C1451 C1452 1.398 . S
C1451 C1457 1.491 . S
C1452 H1443 0.950 . S
C1452 C1451 1.398 . S
C1452 C1453 1.391 . S
C1453 H1441 0.950 . S
C1453 C1449 1.393 . S
C1453 C1452 1.391 . S
C1454 H1444 0.950 . S
C1454 C1455 1.386 . S
C1454 C1456 1.391 . S
C1455 C1454 1.386 . S
C1455 C1459 1.393 . S
C1456 H1445 0.950 . S
C1456 C1454 1.391 . S
C1456 C1457 1.400 . S
C1457 C1451 1.491 . S
C1457 C1456 1.400 . S
C1457 C1458 1.398 . S
C1458 H1446 0.950 1_545 S
C1458 C1457 1.398 . S
C1458 C1459 1.391 . S
C1459 H1447 0.950 1_545 S
C1459 C1455 1.393 . S
C1459 C1458 1.391 . S
H1460 C1468 0.950 . S
H1461 C1473 0.950 . S
H1462 C1470 0.950 . S
H1463 C1472 0.950 . S
H1464 C1474 0.950 . S
H1465 C1476 0.950 . S
H1466 C1478 0.950 . S
H1467 C1479 0.950 . S
C1468 H1460 0.950 . S
C1468 C1469 1.386 . S
C1468 C1470 1.391 . S
C1469 C1468 1.386 . S
C1469 C1473 1.393 . S
C1470 H1462 0.950 . S
C1470 C1468 1.391 . S
C1470 C1471 1.400 . S
C1471 C1470 1.400 . S
C1471 C1472 1.398 . S
C1471 C1477 1.491 . S
C1472 H1463 0.950 . S
C1472 C1471 1.398 . S
C1472 C1473 1.391 . S
C1473 H1461 0.950 . S
C1473 C1469 1.393 . S
C1473 C1472 1.391 . S
C1474 H1464 0.950 . S
C1474 C1475 1.386 . S
C1474 C1476 1.391 . S
C1475 C1474 1.386 . S
C1475 C1479 1.393 . S
C1476 H1465 0.950 . S
C1476 C1474 1.391 . S
C1476 C1477 1.400 . S
C1477 C1471 1.491 . S
C1477 C1476 1.400 . S
C1477 C1478 1.398 . S
C1478 H1466 0.950 . S
C1478 C1477 1.398 . S
C1478 C1479 1.391 . S
C1479 H1467 0.950 . S
C1479 C1475 1.393 . S
C1479 C1478 1.391 . S
H1480 C1488 0.950 . S
H1481 C1493 0.950 . S
H1482 C1490 0.950 . S
H1483 C1492 0.950 . S
H1484 C1494 0.950 . S
H1485 C1496 0.950 . S
H1486 C1498 0.950 . S
H1487 C1499 0.937 1_545 S
C1488 H1480 0.950 . S
C1488 C1489 1.386 . S
C1488 C1490 1.391 . S
C1489 C1488 1.386 . S
C1489 C1493 1.393 . S
C1490 H1482 0.950 . S
C1490 C1488 1.391 . S
C1490 C1491 1.400 . S
C1491 C1490 1.400 . S
C1491 C1492 1.398 . S
C1491 C1497 1.491 . S
C1492 H1483 0.950 . S
C1492 C1491 1.398 . S
C1492 C1493 1.391 . S
C1493 H1481 0.950 . S
C1493 C1489 1.393 . S
C1493 C1492 1.391 . S
C1494 H1484 0.950 . S
C1494 C1495 1.386 . S
C1494 C1496 1.391 . S
C1495 C1494 1.386 . S
C1495 C1499 1.393 . S
C1496 H1485 0.950 . S
C1496 C1494 1.391 . S
C1496 C1497 1.400 . S
C1497 C1491 1.491 . S
C1497 C1496 1.400 . S
C1497 C1498 1.398 . S
C1498 H1486 0.950 . S
C1498 C1497 1.398 . S
C1498 C1499 1.391 . S
C1499 H1487 0.937 1_565 S
C1499 C1495 1.393 . S
C1499 C1498 1.391 . S
H1500 C1508 0.950 . S
H1501 C1513 0.950 . S
H1502 C1510 0.950 . S
H1503 C1512 0.950 . S
H1504 C1514 0.950 . S
H1505 C1516 0.950 . S
H1506 C1518 0.950 1_554 S
H1507 C1519 0.950 . S
C1508 H1500 0.950 . S
C1508 C1509 1.391 . S
C1508 C1510 1.391 . S
C1509 C1508 1.391 . S
C1509 C1513 1.386 1_554 S
C1510 H1502 0.950 . S
C1510 C1508 1.391 . S
C1510 C1511 1.400 1_554 S
C1511 C1510 1.400 1_556 S
C1511 C1512 1.398 . S
C1511 C1517 1.491 . S
C1512 H1503 0.950 . S
C1512 C1511 1.398 . S
C1512 C1513 1.391 . S
C1513 H1501 0.950 . S
C1513 C1509 1.386 1_556 S
C1513 C1512 1.391 . S
C1514 H1504 0.950 . S
C1514 C1515 1.386 . S
C1514 C1516 1.391 . S
C1515 C1514 1.386 . S
C1515 C1519 1.393 . S
C1516 H1505 0.950 . S
C1516 C1514 1.391 . S
C1516 C1517 1.400 . S
C1517 C1511 1.491 . S
C1517 C1516 1.400 . S
C1517 C1518 1.398 . S
C1518 H1506 0.950 1_556 S
C1518 C1517 1.398 . S
C1518 C1519 1.391 . S
C1519 H1507 0.950 . S
C1519 C1515 1.393 . S
C1519 C1518 1.391 . S
H1520 C1528 0.950 . S
H1521 C1533 0.950 . S
H1522 C1530 0.950 . S
H1523 C1532 0.950 . S
H1524 C1534 0.950 . S
H1525 C1536 0.950 . S
H1526 C1538 0.950 . S
H1527 C1539 0.950 . S
C1528 H1520 0.950 . S
C1528 C1529 1.386 . S
C1528 C1530 1.391 . S
C1529 C1528 1.386 . S
C1529 C1533 1.393 . S
C1530 H1522 0.950 . S
C1530 C1528 1.391 . S
C1530 C1531 1.400 . S
C1531 C1530 1.400 . S
C1531 C1532 1.398 . S
C1531 C1537 1.491 . S
C1532 H1523 0.950 . S
C1532 C1531 1.398 . S
C1532 C1533 1.391 . S
C1533 H1521 0.950 . S
C1533 C1529 1.393 . S
C1533 C1532 1.391 . S
C1534 H1524 0.950 . S
C1534 C1535 1.386 . S
C1534 C1536 1.391 . S
C1535 C1534 1.386 . S
C1535 C1539 1.393 . S
C1536 H1525 0.950 . S
C1536 C1534 1.391 . S
C1536 C1537 1.400 . S
C1537 C1531 1.491 . S
C1537 C1536 1.400 . S
C1537 C1538 1.398 . S
C1538 H1526 0.950 . S
C1538 C1537 1.398 . S
C1538 C1539 1.391 . S
C1539 H1527 0.950 . S
C1539 C1535 1.393 . S
C1539 C1538 1.391 . S
H1540 C1548 0.950 . S
H1541 C1553 0.950 . S
H1542 C1550 0.950 . S
H1543 C1552 0.950 . S
H1544 C1554 0.950 . S
H1545 C1556 0.950 . S
H1546 C1558 0.950 . S
H1547 C1559 0.950 . S
C1548 H1540 0.950 . S
C1548 C1549 1.386 . S
C1548 C1550 1.391 . S
C1549 C1548 1.386 . S
C1549 C1553 1.393 . S
C1550 H1542 0.950 . S
C1550 C1548 1.391 . S
C1550 C1551 1.400 . S
C1551 C1550 1.400 . S
C1551 C1552 1.398 . S
C1551 C1557 1.491 . S
C1552 H1543 0.950 . S
C1552 C1551 1.398 . S
C1552 C1553 1.391 . S
C1553 H1541 0.950 . S
C1553 C1549 1.393 . S
C1553 C1552 1.391 . S
C1554 H1544 0.950 . S
C1554 C1555 1.386 . S
C1554 C1556 1.391 . S
C1555 C1554 1.386 . S
C1555 C1559 1.393 . S
C1556 H1545 0.950 . S
C1556 C1554 1.391 . S
C1556 C1557 1.400 . S
C1557 C1551 1.491 . S
C1557 C1556 1.400 . S
C1557 C1558 1.398 . S
C1558 H1546 0.950 . S
C1558 C1557 1.398 . S
C1558 C1559 1.391 . S
C1559 H1547 0.950 . S
C1559 C1555 1.393 . S
C1559 C1558 1.391 . S
H1560 C1568 0.950 . S
H1561 C1573 0.950 . S
H1562 C1570 0.950 . S
H1563 C1572 0.950 . S
H1564 C1574 0.950 . S
H1565 C1576 0.950 . S
H1566 C1578 0.950 . S
H1567 C1579 0.950 . S
C1568 H1560 0.950 . S
C1568 C1569 1.386 . S
C1568 C1570 1.391 . S
C1569 C1568 1.386 . S
C1569 C1573 1.393 . S
C1570 H1562 0.950 . S
C1570 C1568 1.391 . S
C1570 C1571 1.400 . S
C1571 C1570 1.400 . S
C1571 C1572 1.398 . S
C1571 C1577 1.491 . S
C1572 H1563 0.950 . S
C1572 C1571 1.398 . S
C1572 C1573 1.391 . S
C1573 H1561 0.950 . S
C1573 C1569 1.393 . S
C1573 C1572 1.391 . S
C1574 H1564 0.950 . S
C1574 C1575 1.386 . S
C1574 C1576 1.391 . S
C1575 C1574 1.386 . S
C1575 C1579 1.393 . S
C1576 H1565 0.950 . S
C1576 C1574 1.391 . S
C1576 C1577 1.400 . S
C1577 C1571 1.491 . S
C1577 C1576 1.400 . S
C1577 C1578 1.398 . S
C1578 H1566 0.950 . S
C1578 C1577 1.398 . S
C1578 C1579 1.391 . S
C1579 H1567 0.950 . S
C1579 C1575 1.393 . S
C1579 C1578 1.391 . S
H1580 C1588 0.950 . S
H1581 C1593 0.950 . S
H1582 C1590 0.950 . S
H1583 C1592 0.950 . S
H1584 C1594 0.950 . S
H1585 C1596 0.950 . S
H1586 C1598 0.950 . S
H1587 C1599 0.950 . S
C1588 H1580 0.950 . S
C1588 C1589 1.386 . S
C1588 C1590 1.391 . S
C1589 C1588 1.386 . S
C1589 C1593 1.393 . S
C1590 H1582 0.950 . S
C1590 C1588 1.391 . S
C1590 C1591 1.400 . S
C1591 C1590 1.400 . S
C1591 C1592 1.398 . S
C1591 C1597 1.491 . S
C1592 H1583 0.950 . S
C1592 C1591 1.398 . S
C1592 C1593 1.391 . S
C1593 H1581 0.950 . S
C1593 C1589 1.393 . S
C1593 C1592 1.391 . S
C1594 H1584 0.950 . S
C1594 C1595 1.386 . S
C1594 C1596 1.391 . S
C1595 C1594 1.386 . S
C1595 C1599 1.393 . S
C1596 H1585 0.950 . S
C1596 C1594 1.391 . S
C1596 C1597 1.400 . S
C1597 C1591 1.491 . S
C1597 C1596 1.400 . S
C1597 C1598 1.398 . S
C1598 H1586 0.950 . S
C1598 C1597 1.398 . S
C1598 C1599 1.391 . S
C1599 H1587 0.950 . S
C1599 C1595 1.393 . S
C1599 C1598 1.391 . S
H1600 C1608 0.950 . S
H1601 C1613 0.950 . S
H1602 C1610 0.950 . S
H1603 C1612 0.950 . S
H1604 C1614 0.950 . S
H1605 C1616 0.950 . S
H1606 C1618 0.950 . S
H1607 C1619 0.950 . S
C1608 H1600 0.950 . S
C1608 C1609 1.386 . S
C1608 C1610 1.391 . S
C1609 C1608 1.386 . S
C1609 C1613 1.393 . S
C1610 H1602 0.950 . S
C1610 C1608 1.391 . S
C1610 C1611 1.400 . S
C1611 C1610 1.400 . S
C1611 C1612 1.398 . S
C1611 C1617 1.491 . S
C1612 H1603 0.950 . S
C1612 C1611 1.398 . S
C1612 C1613 1.391 . S
C1613 H1601 0.950 . S
C1613 C1609 1.393 . S
C1613 C1612 1.391 . S
C1614 H1604 0.950 . S
C1614 C1615 1.386 . S
C1614 C1616 1.391 . S
C1615 C1614 1.386 . S
C1615 C1619 1.393 . S
C1616 H1605 0.950 . S
C1616 C1614 1.391 . S
C1616 C1617 1.400 . S
C1617 C1611 1.491 . S
C1617 C1616 1.400 . S
C1617 C1618 1.398 . S
C1618 H1606 0.950 . S
C1618 C1617 1.398 . S
C1618 C1619 1.391 . S
C1619 H1607 0.950 . S
C1619 C1615 1.393 . S
C1619 C1618 1.391 . S
H1620 C1628 0.950 . S
H1621 C1633 0.950 . S
H1622 C1630 0.950 . S
H1623 C1632 0.950 . S
H1624 C1634 0.950 . S
H1625 C1636 0.950 . S
H1626 C1638 0.950 . S
H1627 C1639 0.950 . S
C1628 H1620 0.950 . S
C1628 C1629 1.386 . S
C1628 C1630 1.391 . S
C1629 C1628 1.386 . S
C1629 C1633 1.393 . S
C1630 H1622 0.950 . S
C1630 C1628 1.391 . S
C1630 C1631 1.400 . S
C1631 C1630 1.400 . S
C1631 C1632 1.398 . S
C1631 C1637 1.491 . S
C1632 H1623 0.950 . S
C1632 C1631 1.398 . S
C1632 C1633 1.391 . S
C1633 H1621 0.950 . S
C1633 C1629 1.393 . S
C1633 C1632 1.391 . S
C1634 H1624 0.950 . S
C1634 C1635 1.386 . S
C1634 C1636 1.391 . S
C1635 C1634 1.386 . S
C1635 C1639 1.393 . S
C1636 H1625 0.950 . S
C1636 C1634 1.391 . S
C1636 C1637 1.400 . S
C1637 C1631 1.491 . S
C1637 C1636 1.400 . S
C1637 C1638 1.398 . S
C1638 H1626 0.950 . S
C1638 C1637 1.398 . S
C1638 C1639 1.391 . S
C1639 H1627 0.950 . S
C1639 C1635 1.393 . S
C1639 C1638 1.391 . S
H1640 C1648 0.950 . S
H1641 C1653 0.950 . S
H1642 C1650 0.950 . S
H1643 C1652 0.950 . S
H1644 C1654 0.950 . S
H1645 C1656 0.950 . S
H1646 C1658 0.950 . S
H1647 C1659 0.950 . S
C1648 H1640 0.950 . S
C1648 C1649 1.386 . S
C1648 C1650 1.391 . S
C1649 C1648 1.386 . S
C1649 C1653 1.393 . S
C1650 H1642 0.950 . S
C1650 C1648 1.391 . S
C1650 C1651 1.400 . S
C1651 C1650 1.400 . S
C1651 C1652 1.398 . S
C1651 C1657 1.491 . S
C1652 H1643 0.950 . S
C1652 C1651 1.398 . S
C1652 C1653 1.391 . S
C1653 H1641 0.950 . S
C1653 C1649 1.393 . S
C1653 C1652 1.391 . S
C1654 H1644 0.950 . S
C1654 C1655 1.386 . S
C1654 C1656 1.391 . S
C1655 C1654 1.386 . S
C1655 C1659 1.393 . S
C1656 H1645 0.950 . S
C1656 C1654 1.391 . S
C1656 C1657 1.400 . S
C1657 C1651 1.491 . S
C1657 C1656 1.400 . S
C1657 C1658 1.398 . S
C1658 H1646 0.950 . S
C1658 C1657 1.398 . S
C1658 C1659 1.391 . S
C1659 H1647 0.950 . S
C1659 C1655 1.393 . S
C1659 C1658 1.391 . S
H1660 C1668 0.950 . S
H1661 C1673 0.950 . S
H1662 C1670 0.950 . S
H1663 C1672 0.950 . S
H1664 C1674 0.950 . S
H1665 C1676 0.950 . S
H1666 C1678 0.950 . S
H1667 C1679 0.950 . S
C1668 H1660 0.950 . S
C1668 C1669 1.386 . S
C1668 C1670 1.391 . S
C1669 C1668 1.386 . S
C1669 C1673 1.393 . S
C1670 H1662 0.950 . S
C1670 C1668 1.391 . S
C1670 C1671 1.400 . S
C1671 C1670 1.400 . S
C1671 C1672 1.398 . S
C1671 C1677 1.491 . S
C1672 H1663 0.950 . S
C1672 C1671 1.398 . S
C1672 C1673 1.391 . S
C1673 H1661 0.950 . S
C1673 C1669 1.393 . S
C1673 C1672 1.391 . S
C1674 H1664 0.950 . S
C1674 C1675 1.386 . S
C1674 C1676 1.391 . S
C1675 C1674 1.386 . S
C1675 C1679 1.393 . S
C1676 H1665 0.950 . S
C1676 C1674 1.391 . S
C1676 C1677 1.400 . S
C1677 C1671 1.491 . S
C1677 C1676 1.400 . S
C1677 C1678 1.398 . S
C1678 H1666 0.950 . S
C1678 C1677 1.398 . S
C1678 C1679 1.391 . S
C1679 H1667 0.950 . S
C1679 C1675 1.393 . S
C1679 C1678 1.391 . S
H1680 C1688 0.950 1_655 S
H1681 C1693 0.950 . S
H1682 C1690 0.950 . S
H1683 C1692 0.950 . S
H1684 C1694 0.950 . S
H1685 C1696 0.950 . S
H1686 C1698 0.950 . S
H1687 C1699 0.950 . S
C1688 H1680 0.950 1_455 S
C1688 C1689 1.386 . S
C1688 C1690 1.391 . S
C1689 C1688 1.386 . S
C1689 C1693 1.393 . S
C1690 H1682 0.950 . S
C1690 C1688 1.391 . S
C1690 C1691 1.400 . S
C1691 C1690 1.400 . S
C1691 C1692 1.398 . S
C1691 C1697 1.491 . S
C1692 H1683 0.950 . S
C1692 C1691 1.398 . S
C1692 C1693 1.391 . S
C1693 H1681 0.950 . S
C1693 C1689 1.393 . S
C1693 C1692 1.391 . S
C1694 H1684 0.950 . S
C1694 C1695 1.386 . S
C1694 C1696 1.391 . S
C1695 C1694 1.386 . S
C1695 C1699 1.393 . S
C1696 H1685 0.950 . S
C1696 C1694 1.391 . S
C1696 C1697 1.400 . S
C1697 C1691 1.491 . S
C1697 C1696 1.400 . S
C1697 C1698 1.398 . S
C1698 H1686 0.950 . S
C1698 C1697 1.398 . S
C1698 C1699 1.391 . S
C1699 H1687 0.950 . S
C1699 C1695 1.393 . S
C1699 C1698 1.391 . S
H1700 C1708 0.950 . S
H1701 C1713 0.950 . S
H1702 C1710 0.950 . S
H1703 C1712 0.950 . S
H1704 C1714 0.950 . S
H1705 C1716 0.950 . S
H1706 C1718 0.950 . S
H1707 C1719 0.950 . S
C1708 H1700 0.950 . S
C1708 C1709 1.386 . S
C1708 C1710 1.391 . S
C1709 C1708 1.386 . S
C1709 C1713 1.393 . S
C1710 H1702 0.950 . S
C1710 C1708 1.391 . S
C1710 C1711 1.400 . S
C1711 C1710 1.400 . S
C1711 C1712 1.398 . S
C1711 C1717 1.491 . S
C1712 H1703 0.950 . S
C1712 C1711 1.398 . S
C1712 C1713 1.391 . S
C1713 H1701 0.950 . S
C1713 C1709 1.393 . S
C1713 C1712 1.391 . S
C1714 H1704 0.950 . S
C1714 C1715 1.386 . S
C1714 C1716 1.391 . S
C1715 C1714 1.386 . S
C1715 C1719 1.393 . S
C1716 H1705 0.950 . S
C1716 C1714 1.391 . S
C1716 C1717 1.400 . S
C1717 C1711 1.491 . S
C1717 C1716 1.400 . S
C1717 C1718 1.398 . S
C1718 H1706 0.950 . S
C1718 C1717 1.398 . S
C1718 C1719 1.391 . S
C1719 H1707 0.950 . S
C1719 C1715 1.393 . S
C1719 C1718 1.391 . S
H1720 C1728 0.950 . S
H1721 C1733 0.950 . S
H1722 C1730 0.950 . S
H1723 C1732 0.950 . S
H1724 C1734 0.950 . S
H1725 C1736 0.950 . S
H1726 C1738 0.950 . S
H1727 C1739 0.950 . S
C1728 H1720 0.950 . S
C1728 C1729 1.386 . S
C1728 C1730 1.391 . S
C1729 C1728 1.386 . S
C1729 C1733 1.393 . S
C1730 H1722 0.950 . S
C1730 C1728 1.391 . S
C1730 C1731 1.400 . S
C1731 C1730 1.400 . S
C1731 C1732 1.398 . S
C1731 C1737 1.491 . S
C1732 H1723 0.950 . S
C1732 C1731 1.398 . S
C1732 C1733 1.391 . S
C1733 H1721 0.950 . S
C1733 C1729 1.393 . S
C1733 C1732 1.391 . S
C1734 H1724 0.950 . S
C1734 C1735 1.386 1_554 S
C1734 C1736 1.391 1_554 S
C1735 C1734 1.386 1_556 S
C1735 C1739 1.393 . S
C1736 H1725 0.950 . S
C1736 C1734 1.391 1_556 S
C1736 C1737 1.400 . S
C1737 C1731 1.491 . S
C1737 C1736 1.400 . S
C1737 C1738 1.398 . S
C1738 H1726 0.950 . S
C1738 C1737 1.398 . S
C1738 C1739 1.391 . S
C1739 H1727 0.950 . S
C1739 C1735 1.393 . S
C1739 C1738 1.391 . S
H1740 C1748 0.950 . S
H1741 C1753 0.950 . S
H1742 C1750 0.950 . S
H1743 C1752 0.950 . S
H1744 C1754 0.950 . S
H1745 C1756 0.950 . S
H1746 C1758 0.950 . S
H1747 C1759 0.950 . S
C1748 H1740 0.950 . S
C1748 C1749 1.386 . S
C1748 C1750 1.391 . S
C1749 C1748 1.386 . S
C1749 C1753 1.393 . S
C1750 H1742 0.950 . S
C1750 C1748 1.391 . S
C1750 C1751 1.400 . S
C1751 C1750 1.400 . S
C1751 C1752 1.398 . S
C1751 C1757 1.491 . S
C1752 H1743 0.950 . S
C1752 C1751 1.398 . S
C1752 C1753 1.391 . S
C1753 H1741 0.950 . S
C1753 C1749 1.393 . S
C1753 C1752 1.391 . S
C1754 H1744 0.950 . S
C1754 C1755 1.386 . S
C1754 C1756 1.391 . S
C1755 C1754 1.386 . S
C1755 C1759 1.393 . S
C1756 H1745 0.950 . S
C1756 C1754 1.391 . S
C1756 C1757 1.400 . S
C1757 C1751 1.491 . S
C1757 C1756 1.400 . S
C1757 C1758 1.398 . S
C1758 H1746 0.950 . S
C1758 C1757 1.398 . S
C1758 C1759 1.391 . S
C1759 H1747 0.950 . S
C1759 C1755 1.393 . S
C1759 C1758 1.391 . S
H1760 C1768 0.950 . S
H1761 C1773 0.950 . S
H1762 C1770 0.950 . S
H1763 C1772 0.950 . S
H1764 C1774 0.950 1_655 S
H1765 C1776 0.958 . S
H1766 C1778 0.950 . S
H1767 C1779 0.950 . S
C1768 H1760 0.950 . S
C1768 C1769 1.386 . S
C1768 C1770 1.391 . S
C1769 C1768 1.386 . S
C1769 C1773 1.393 1_455 S
C1770 H1762 0.950 . S
C1770 C1768 1.391 . S
C1770 C1771 1.400 . S
C1771 C1770 1.400 . S
C1771 C1772 1.398 1_455 S
C1771 C1777 1.491 . S
C1772 H1763 0.950 . S
C1772 C1771 1.398 1_655 S
C1772 C1773 1.391 . S
C1773 H1761 0.950 . S
C1773 C1769 1.393 1_655 S
C1773 C1772 1.391 . S
C1774 H1764 0.950 1_455 S
C1774 C1775 1.386 . S
C1774 C1776 1.390 1_455 S
C1775 C1774 1.386 . S
C1775 C1779 1.393 . S
C1776 H1765 0.958 . S
C1776 C1774 1.390 1_655 S
C1776 C1777 1.394 1_655 S
C1777 C1771 1.491 . S
C1777 C1776 1.394 1_455 S
C1777 C1778 1.398 . S
C1778 H1766 0.950 . S
C1778 C1777 1.398 . S
C1778 C1779 1.391 . S
C1779 H1767 0.950 . S
C1779 C1775 1.393 . S
C1779 C1778 1.391 . S
H1780 C1788 0.950 . S
H1781 C1793 0.950 . S
H1782 C1790 0.950 . S
H1783 C1792 0.950 . S
H1784 C1794 0.950 . S
H1785 C1796 0.950 . S
H1786 C1798 0.950 . S
H1787 C1799 0.950 . S
C1788 H1780 0.950 . S
C1788 C1789 1.386 . S
C1788 C1790 1.391 . S
C1789 C1788 1.386 . S
C1789 C1793 1.393 . S
C1790 H1782 0.950 . S
C1790 C1788 1.391 . S
C1790 C1791 1.400 . S
C1791 C1790 1.400 . S
C1791 C1792 1.398 . S
C1791 C1797 1.491 . S
C1792 H1783 0.950 . S
C1792 C1791 1.398 . S
C1792 C1793 1.391 . S
C1793 H1781 0.950 . S
C1793 C1789 1.393 . S
C1793 C1792 1.391 . S
C1794 H1784 0.950 . S
C1794 C1795 1.386 . S
C1794 C1796 1.391 . S
C1795 C1794 1.386 . S
C1795 C1799 1.393 . S
C1796 H1785 0.950 . S
C1796 C1794 1.391 . S
C1796 C1797 1.400 . S
C1797 C1791 1.491 . S
C1797 C1796 1.400 . S
C1797 C1798 1.398 . S
C1798 H1786 0.950 . S
C1798 C1797 1.398 . S
C1798 C1799 1.391 . S
C1799 H1787 0.950 . S
C1799 C1795 1.393 . S
C1799 C1798 1.391 . S
H1800 C1808 0.950 . S
H1801 C1813 0.950 . S
H1802 C1810 0.950 . S
H1803 C1812 0.950 . S
H1804 C1814 0.950 . S
H1805 C1816 0.950 . S
H1806 C1818 0.950 . S
H1807 C1819 0.950 . S
C1808 H1800 0.950 . S
C1808 C1809 1.386 . S
C1808 C1810 1.391 . S
C1809 C1808 1.386 . S
C1809 C1813 1.393 . S
C1810 H1802 0.950 . S
C1810 C1808 1.391 . S
C1810 C1811 1.400 . S
C1811 C1810 1.400 . S
C1811 C1812 1.398 . S
C1811 C1817 1.491 . S
C1812 H1803 0.950 . S
C1812 C1811 1.398 . S
C1812 C1813 1.391 . S
C1813 H1801 0.950 . S
C1813 C1809 1.393 . S
C1813 C1812 1.391 . S
C1814 H1804 0.950 . S
C1814 C1815 1.386 . S
C1814 C1816 1.391 . S
C1815 C1814 1.386 . S
C1815 C1819 1.393 . S
C1816 H1805 0.950 . S
C1816 C1814 1.391 . S
C1816 C1817 1.400 . S
C1817 C1811 1.491 . S
C1817 C1816 1.400 . S
C1817 C1818 1.398 . S
C1818 H1806 0.950 . S
C1818 C1817 1.398 . S
C1818 C1819 1.391 . S
C1819 H1807 0.950 . S
C1819 C1815 1.393 . S
C1819 C1818 1.391 . S
H1820 C1828 0.950 . S
H1821 C1833 0.950 . S
H1822 C1830 0.950 . S
H1823 C1832 0.950 . S
H1824 C1834 0.950 . S
H1825 C1836 0.950 . S
H1826 C1838 0.950 . S
H1827 C1839 0.950 . S
C1828 H1820 0.950 . S
C1828 C1829 1.386 . S
C1828 C1830 1.391 . S
C1829 C1828 1.386 . S
C1829 C1833 1.393 . S
C1830 H1822 0.950 . S
C1830 C1828 1.391 . S
C1830 C1831 1.400 . S
C1831 C1830 1.400 . S
C1831 C1832 1.398 . S
C1831 C1837 1.491 . S
C1832 H1823 0.950 . S
C1832 C1831 1.398 . S
C1832 C1833 1.391 . S
C1833 H1821 0.950 . S
C1833 C1829 1.393 . S
C1833 C1832 1.391 . S
C1834 H1824 0.950 . S
C1834 C1835 1.386 . S
C1834 C1836 1.391 . S
C1835 C1834 1.386 . S
C1835 C1839 1.393 . S
C1836 H1825 0.950 . S
C1836 C1834 1.391 . S
C1836 C1837 1.400 . S
C1837 C1831 1.491 . S
C1837 C1836 1.400 . S
C1837 C1838 1.398 . S
C1838 H1826 0.950 . S
C1838 C1837 1.398 . S
C1838 C1839 1.391 . S
C1839 H1827 0.950 . S
C1839 C1835 1.393 . S
C1839 C1838 1.391 . S
H1840 C1848 0.950 . S
H1841 C1853 0.950 . S
H1842 C1850 0.950 . S
H1843 C1852 0.950 . S
H1844 C1854 0.950 . S
H1845 C1856 0.950 . S
H1846 C1858 0.950 . S
H1847 C1859 0.950 . S
C1848 H1840 0.950 . S
C1848 C1849 1.386 . S
C1848 C1850 1.391 . S
C1849 C1848 1.386 . S
C1849 C1853 1.393 . S
C1850 H1842 0.950 . S
C1850 C1848 1.391 . S
C1850 C1851 1.400 . S
C1851 C1850 1.400 . S
C1851 C1852 1.398 . S
C1851 C1857 1.491 . S
C1852 H1843 0.950 . S
C1852 C1851 1.398 . S
C1852 C1853 1.391 . S
C1853 H1841 0.950 . S
C1853 C1849 1.393 . S
C1853 C1852 1.391 . S
C1854 H1844 0.950 . S
C1854 C1855 1.386 . S
C1854 C1856 1.391 . S
C1855 C1854 1.386 . S
C1855 C1859 1.393 . S
C1856 H1845 0.950 . S
C1856 C1854 1.391 . S
C1856 C1857 1.400 . S
C1857 C1851 1.491 . S
C1857 C1856 1.400 . S
C1857 C1858 1.398 . S
C1858 H1846 0.950 . S
C1858 C1857 1.398 . S
C1858 C1859 1.391 . S
C1859 H1847 0.950 . S
C1859 C1855 1.393 . S
C1859 C1858 1.391 . S
H1860 C1868 0.950 . S
H1861 C1873 0.950 . S
H1862 C1870 0.950 . S
H1863 C1872 0.950 . S
H1864 C1874 0.950 . S
H1865 C1876 0.950 . S
H1866 C1878 0.950 . S
H1867 C1879 0.950 . S
C1868 H1860 0.950 . S
C1868 C1869 1.386 . S
C1868 C1870 1.391 . S
C1869 C1868 1.386 . S
C1869 C1873 1.393 . S
C1870 H1862 0.950 . S
C1870 C1868 1.391 . S
C1870 C1871 1.400 . S
C1871 C1870 1.400 . S
C1871 C1872 1.398 . S
C1871 C1877 1.491 . S
C1872 H1863 0.950 . S
C1872 C1871 1.398 . S
C1872 C1873 1.391 . S
C1873 H1861 0.950 . S
C1873 C1869 1.393 . S
C1873 C1872 1.391 . S
C1874 H1864 0.950 . S
C1874 C1875 1.386 . S
C1874 C1876 1.391 . S
C1875 C1874 1.386 . S
C1875 C1879 1.393 . S
C1876 H1865 0.950 . S
C1876 C1874 1.391 . S
C1876 C1877 1.400 . S
C1877 C1871 1.491 . S
C1877 C1876 1.400 . S
C1877 C1878 1.398 . S
C1878 H1866 0.950 . S
C1878 C1877 1.398 . S
C1878 C1879 1.391 . S
C1879 H1867 0.950 . S
C1879 C1875 1.393 . S
C1879 C1878 1.391 . S
H1880 C1888 0.950 . S
H1881 C1893 0.950 . S
H1882 C1890 0.950 . S
H1883 C1892 0.950 . S
H1884 C1894 0.950 . S
H1885 C1896 0.950 . S
H1886 C1898 0.950 . S
H1887 C1899 0.950 . S
C1888 H1880 0.950 . S
C1888 C1889 1.386 . S
C1888 C1890 1.391 . S
C1889 C1888 1.386 . S
C1889 C1893 1.393 . S
C1890 H1882 0.950 . S
C1890 C1888 1.391 . S
C1890 C1891 1.400 . S
C1891 C1890 1.400 . S
C1891 C1892 1.398 . S
C1891 C1897 1.491 . S
C1892 H1883 0.950 . S
C1892 C1891 1.398 . S
C1892 C1893 1.391 . S
C1893 H1881 0.950 . S
C1893 C1889 1.393 . S
C1893 C1892 1.391 . S
C1894 H1884 0.950 . S
C1894 C1895 1.386 . S
C1894 C1896 1.391 . S
C1895 C1894 1.386 . S
C1895 C1899 1.393 . S
C1896 H1885 0.950 . S
C1896 C1894 1.391 . S
C1896 C1897 1.400 . S
C1897 C1891 1.491 . S
C1897 C1896 1.400 . S
C1897 C1898 1.398 . S
C1898 H1886 0.950 . S
C1898 C1897 1.398 . S
C1898 C1899 1.391 . S
C1899 H1887 0.950 . S
C1899 C1895 1.393 . S
C1899 C1898 1.391 . S
H1900 C1908 0.950 . S
H1901 C1913 0.950 . S
H1902 C1910 0.950 . S
H1903 C1912 0.950 . S
H1904 C1914 0.950 . S
H1905 C1916 0.950 . S
H1906 C1918 0.950 . S
H1907 C1919 0.950 . S
C1908 H1900 0.950 . S
C1908 C1909 1.386 . S
C1908 C1910 1.391 . S
C1909 C1908 1.386 . S
C1909 C1913 1.393 . S
C1910 H1902 0.950 . S
C1910 C1908 1.391 . S
C1910 C1911 1.400 . S
C1911 C1910 1.400 . S
C1911 C1912 1.398 . S
C1911 C1917 1.491 . S
C1912 H1903 0.950 . S
C1912 C1911 1.398 . S
C1912 C1913 1.391 . S
C1913 H1901 0.950 . S
C1913 C1909 1.393 . S
C1913 C1912 1.391 . S
C1914 H1904 0.950 . S
C1914 C1915 1.386 . S
C1914 C1916 1.391 . S
C1915 C1914 1.386 . S
C1915 C1919 1.393 . S
C1916 H1905 0.950 . S
C1916 C1914 1.391 . S
C1916 C1917 1.400 . S
C1917 C1911 1.491 . S
C1917 C1916 1.400 . S
C1917 C1918 1.398 . S
C1918 H1906 0.950 . S
C1918 C1917 1.398 . S
C1918 C1919 1.391 . S
C1919 H1907 0.950 . S
C1919 C1915 1.393 . S
C1919 C1918 1.391 . S
H1920 C1928 0.950 . S
H1921 C1933 0.950 . S
H1922 C1930 0.950 . S
H1923 C1932 0.950 . S
H1924 C1934 0.950 . S
H1925 C1936 0.950 . S
H1926 C1938 0.950 . S
H1927 C1939 0.950 . S
C1928 H1920 0.950 . S
C1928 C1929 1.386 . S
C1928 C1930 1.391 . S
C1929 C1928 1.386 . S
C1929 C1933 1.393 . S
C1930 H1922 0.950 . S
C1930 C1928 1.391 . S
C1930 C1931 1.400 . S
C1931 C1930 1.400 . S
C1931 C1932 1.398 . S
C1931 C1937 1.491 . S
C1932 H1923 0.950 . S
C1932 C1931 1.398 . S
C1932 C1933 1.391 . S
C1933 H1921 0.950 . S
C1933 C1929 1.393 . S
C1933 C1932 1.391 . S
C1934 H1924 0.950 . S
C1934 C1935 1.386 . S
C1934 C1936 1.391 . S
C1935 C1934 1.386 . S
C1935 C1939 1.393 . S
C1936 H1925 0.950 . S
C1936 C1934 1.391 . S
C1936 C1937 1.400 . S
C1937 C1931 1.491 . S
C1937 C1936 1.400 . S
C1937 C1938 1.398 . S
C1938 H1926 0.950 . S
C1938 C1937 1.398 . S
C1938 C1939 1.391 . S
C1939 H1927 0.950 . S
C1939 C1935 1.393 . S
C1939 C1938 1.391 . S
H1940 C1948 0.950 . S
H1941 C1953 0.950 . S
H1942 C1950 0.950 . S
H1943 C1952 0.950 . S
H1944 C1954 0.950 . S
H1945 C1956 0.950 . S
H1946 C1958 0.950 . S
H1947 C1959 0.950 . S
C1948 H1940 0.950 . S
C1948 C1949 1.386 . S
C1948 C1950 1.391 . S
C1949 C1948 1.386 . S
C1949 C1953 1.393 . S
C1950 H1942 0.950 . S
C1950 C1948 1.391 . S
C1950 C1951 1.400 . S
C1951 C1950 1.400 . S
C1951 C1952 1.398 . S
C1951 C1957 1.491 . S
C1952 H1943 0.950 . S
C1952 C1951 1.398 . S
C1952 C1953 1.391 . S
C1953 H1941 0.950 . S
C1953 C1949 1.393 . S
C1953 C1952 1.391 . S
C1954 H1944 0.950 . S
C1954 C1955 1.386 . S
C1954 C1956 1.391 . S
C1955 C1954 1.386 . S
C1955 C1959 1.393 . S
C1956 H1945 0.950 . S
C1956 C1954 1.391 . S
C1956 C1957 1.400 . S
C1957 C1951 1.491 . S
C1957 C1956 1.400 . S
C1957 C1958 1.398 . S
C1958 H1946 0.950 . S
C1958 C1957 1.398 . S
C1958 C1959 1.391 . S
C1959 H1947 0.950 . S
C1959 C1955 1.393 . S
C1959 C1958 1.391 . S
H1960 C1968 0.950 . S
H1961 C1973 0.950 . S
H1962 C1970 0.950 . S
H1963 C1972 0.950 . S
H1964 C1974 0.950 . S
H1965 C1976 0.950 . S
H1966 C1978 0.950 . S
H1967 C1979 0.950 . S
C1968 H1960 0.950 . S
C1968 C1969 1.386 . S
C1968 C1970 1.391 . S
C1969 C1968 1.386 . S
C1969 C1973 1.393 . S
C1970 H1962 0.950 . S
C1970 C1968 1.391 . S
C1970 C1971 1.400 . S
C1971 C1970 1.400 . S
C1971 C1972 1.398 . S
C1971 C1977 1.491 . S
C1972 H1963 0.950 . S
C1972 C1971 1.398 . S
C1972 C1973 1.391 . S
C1973 H1961 0.950 . S
C1973 C1969 1.393 . S
C1973 C1972 1.391 . S
C1974 H1964 0.950 . S
C1974 C1975 1.386 . S
C1974 C1976 1.391 . S
C1975 C1974 1.386 . S
C1975 C1979 1.393 . S
C1976 H1965 0.950 . S
C1976 C1974 1.391 . S
C1976 C1977 1.400 . S
C1977 C1971 1.491 . S
C1977 C1976 1.400 . S
C1977 C1978 1.398 . S
C1978 H1966 0.950 . S
C1978 C1977 1.398 . S
C1978 C1979 1.391 . S
C1979 H1967 0.950 . S
C1979 C1975 1.393 . S
C1979 C1978 1.391 . S
H1980 C1988 0.950 . S
H1981 C1993 0.950 . S
H1982 C1990 0.950 . S
H1983 C1992 0.950 . S
H1984 C1994 0.950 1_545 S
H1985 C1996 0.950 . S
H1986 C1998 0.950 . S
H1987 C1999 0.950 . S
C1988 H1980 0.950 . S
C1988 C1989 1.386 . S
C1988 C1990 1.391 . S
C1989 C1988 1.386 . S
C1989 C1993 1.393 . S
C1990 H1982 0.950 . S
C1990 C1988 1.391 . S
C1990 C1991 1.400 . S
C1991 C1990 1.400 . S
C1991 C1992 1.398 . S
C1991 C1997 1.491 . S
C1992 H1983 0.950 . S
C1992 C1991 1.398 . S
C1992 C1993 1.391 . S
C1993 H1981 0.950 . S
C1993 C1989 1.393 . S
C1993 C1992 1.391 . S
C1994 H1984 0.950 1_565 S
C1994 C1995 1.386 . S
C1994 C1996 1.391 . S
C1995 C1994 1.386 . S
C1995 C1999 1.393 . S
C1996 H1985 0.950 . S
C1996 C1994 1.391 . S
C1996 C1997 1.400 . S
C1997 C1991 1.491 . S
C1997 C1996 1.400 . S
C1997 C1998 1.398 . S
C1998 H1986 0.950 . S
C1998 C1997 1.398 . S
C1998 C1999 1.391 . S
C1999 H1987 0.950 . S
C1999 C1995 1.393 . S
C1999 C1998 1.391 . S
H2000 C2008 0.950 . S
H2001 C2013 0.950 . S
H2002 C2010 0.950 . S
H2003 C2012 0.950 . S
H2004 C2014 0.950 . S
H2005 C2016 0.950 . S
H2006 C2018 0.950 . S
H2007 C2019 0.950 . S
C2008 H2000 0.950 . S
C2008 C2009 1.386 . S
C2008 C2010 1.391 . S
C2009 C2008 1.386 . S
C2009 C2013 1.393 . S
C2010 H2002 0.950 . S
C2010 C2008 1.391 . S
C2010 C2011 1.400 . S
C2011 C2010 1.400 . S
C2011 C2012 1.398 . S
C2011 C2017 1.491 . S
C2012 H2003 0.950 . S
C2012 C2011 1.398 . S
C2012 C2013 1.391 . S
C2013 H2001 0.950 . S
C2013 C2009 1.393 . S
C2013 C2012 1.391 . S
C2014 H2004 0.950 . S
C2014 C2015 1.386 . S
C2014 C2016 1.391 . S
C2015 C2014 1.386 . S
C2015 C2019 1.393 . S
C2016 H2005 0.950 . S
C2016 C2014 1.391 . S
C2016 C2017 1.400 . S
C2017 C2011 1.491 . S
C2017 C2016 1.400 . S
C2017 C2018 1.398 . S
C2018 H2006 0.950 . S
C2018 C2017 1.398 . S
C2018 C2019 1.391 . S
C2019 H2007 0.950 . S
C2019 C2015 1.393 . S
C2019 C2018 1.391 . S
H2020 C2028 0.950 . S
H2021 C2033 0.950 . S
H2022 C2030 0.950 . S
H2023 C2032 0.950 . S
H2024 C2034 0.950 . S
H2025 C2036 0.950 . S
H2026 C2038 0.950 . S
H2027 C2039 0.950 1_565 S
C2028 H2020 0.950 . S
C2028 C2029 1.386 . S
C2028 C2030 1.391 . S
C2029 C2028 1.386 . S
C2029 C2033 1.393 . S
C2030 H2022 0.950 . S
C2030 C2028 1.391 . S
C2030 C2031 1.400 . S
C2031 C2030 1.400 . S
C2031 C2032 1.398 . S
C2031 C2037 1.491 . S
C2032 H2023 0.950 . S
C2032 C2031 1.398 . S
C2032 C2033 1.391 . S
C2033 H2021 0.950 . S
C2033 C2029 1.393 . S
C2033 C2032 1.391 . S
C2034 H2024 0.950 . S
C2034 C2035 1.386 . S
C2034 C2036 1.391 . S
C2035 C2034 1.386 . S
C2035 C2039 1.393 . S
C2036 H2025 0.950 . S
C2036 C2034 1.391 . S
C2036 C2037 1.400 . S
C2037 C2031 1.491 . S
C2037 C2036 1.400 . S
C2037 C2038 1.398 . S
C2038 H2026 0.950 . S
C2038 C2037 1.398 . S
C2038 C2039 1.391 . S
C2039 H2027 0.950 1_545 S
C2039 C2035 1.393 . S
C2039 C2038 1.391 . S
H2040 C2048 0.950 . S
H2041 C2053 0.950 . S
H2042 C2050 0.950 . S
H2043 C2052 0.950 . S
H2044 C2054 0.950 . S
H2045 C2056 0.950 . S
H2046 C2058 0.950 . S
H2047 C2059 0.950 . S
C2048 H2040 0.950 . S
C2048 C2049 1.386 . S
C2048 C2050 1.391 . S
C2049 C2048 1.386 . S
C2049 C2053 1.393 . S
C2050 H2042 0.950 . S
C2050 C2048 1.391 . S
C2050 C2051 1.400 . S
C2051 C2050 1.400 . S
C2051 C2052 1.398 . S
C2051 C2057 1.491 . S
C2052 H2043 0.950 . S
C2052 C2051 1.398 . S
C2052 C2053 1.391 . S
C2053 H2041 0.950 . S
C2053 C2049 1.393 . S
C2053 C2052 1.391 . S
C2054 H2044 0.950 . S
C2054 C2055 1.386 . S
C2054 C2056 1.391 . S
C2055 C2054 1.386 . S
C2055 C2059 1.393 . S
C2056 H2045 0.950 . S
C2056 C2054 1.391 . S
C2056 C2057 1.400 . S
C2057 C2051 1.491 . S
C2057 C2056 1.400 . S
C2057 C2058 1.398 . S
C2058 H2046 0.950 . S
C2058 C2057 1.398 . S
C2058 C2059 1.391 . S
C2059 H2047 0.950 . S
C2059 C2055 1.393 . S
C2059 C2058 1.391 . S
H2060 C2068 0.950 . S
H2061 C2073 0.950 . S
H2062 C2070 0.950 . S
H2063 C2072 0.950 . S
H2064 C2074 0.950 . S
H2065 C2076 0.950 . S
H2066 C2078 0.950 . S
H2067 C2079 0.950 . S
C2068 H2060 0.950 . S
C2068 C2069 1.386 . S
C2068 C2070 1.391 . S
C2069 C2068 1.386 . S
C2069 C2073 1.393 . S
C2070 H2062 0.950 . S
C2070 C2068 1.391 . S
C2070 C2071 1.400 . S
C2071 C2070 1.400 . S
C2071 C2072 1.398 . S
C2071 C2077 1.491 . S
C2072 H2063 0.950 . S
C2072 C2071 1.398 . S
C2072 C2073 1.391 . S
C2073 H2061 0.950 . S
C2073 C2069 1.393 . S
C2073 C2072 1.391 . S
C2074 H2064 0.950 . S
C2074 C2075 1.386 . S
C2074 C2076 1.391 . S
C2075 C2074 1.386 . S
C2075 C2079 1.393 1_556 S
C2076 H2065 0.950 . S
C2076 C2074 1.391 . S
C2076 C2077 1.400 1_556 S
C2077 C2071 1.491 . S
C2077 C2076 1.400 1_554 S
C2077 C2078 1.398 . S
C2078 H2066 0.950 . S
C2078 C2077 1.398 . S
C2078 C2079 1.391 . S
C2079 H2067 0.950 . S
C2079 C2075 1.393 1_554 S
C2079 C2078 1.391 . S
H2080 C2088 0.950 . S
H2081 C2093 0.950 . S
H2082 C2090 0.950 . S
H2083 C2092 0.950 . S
H2084 C2094 0.950 . S
H2085 C2096 0.950 . S
H2086 C2098 0.950 . S
H2087 C2099 0.950 . S
C2088 H2080 0.950 . S
C2088 C2089 1.386 . S
C2088 C2090 1.391 . S
C2089 C2088 1.386 . S
C2089 C2093 1.393 . S
C2090 H2082 0.950 . S
C2090 C2088 1.391 . S
C2090 C2091 1.400 . S
C2091 C2090 1.400 . S
C2091 C2092 1.398 . S
C2091 C2097 1.491 . S
C2092 H2083 0.950 . S
C2092 C2091 1.398 . S
C2092 C2093 1.391 . S
C2093 H2081 0.950 . S
C2093 C2089 1.393 . S
C2093 C2092 1.391 . S
C2094 H2084 0.950 . S
C2094 C2095 1.386 . S
C2094 C2096 1.391 . S
C2095 C2094 1.386 . S
C2095 C2099 1.393 . S
C2096 H2085 0.950 . S
C2096 C2094 1.391 . S
C2096 C2097 1.400 . S
C2097 C2091 1.491 . S
C2097 C2096 1.400 . S
C2097 C2098 1.398 . S
C2098 H2086 0.950 . S
C2098 C2097 1.398 . S
C2098 C2099 1.391 . S
C2099 H2087 0.950 . S
C2099 C2095 1.393 . S
C2099 C2098 1.391 . S
H2100 C2108 0.950 . S
H2101 C2113 0.950 . S
H2102 C2110 0.950 . S
H2103 C2112 0.950 . S
H2104 C2114 0.950 . S
H2105 C2116 0.950 . S
H2106 C2118 0.950 . S
H2107 C2119 0.950 . S
C2108 H2100 0.950 . S
C2108 C2109 1.386 . S
C2108 C2110 1.391 . S
C2109 C2108 1.386 . S
C2109 C2113 1.393 . S
C2110 H2102 0.950 . S
C2110 C2108 1.391 . S
C2110 C2111 1.400 . S
C2111 C2110 1.400 . S
C2111 C2112 1.398 . S
C2111 C2117 1.491 . S
C2112 H2103 0.950 . S
C2112 C2111 1.398 . S
C2112 C2113 1.391 . S
C2113 H2101 0.950 . S
C2113 C2109 1.393 . S
C2113 C2112 1.391 . S
C2114 H2104 0.950 . S
C2114 C2115 1.386 . S
C2114 C2116 1.391 . S
C2115 C2114 1.386 . S
C2115 C2119 1.393 . S
C2116 H2105 0.950 . S
C2116 C2114 1.391 . S
C2116 C2117 1.400 . S
C2117 C2111 1.491 . S
C2117 C2116 1.400 . S
C2117 C2118 1.398 . S
C2118 H2106 0.950 . S
C2118 C2117 1.398 . S
C2118 C2119 1.391 . S
C2119 H2107 0.950 . S
C2119 C2115 1.393 . S
C2119 C2118 1.391 . S
H2120 C2128 0.950 . S
H2121 C2133 0.950 . S
H2122 C2130 0.950 . S
H2123 C2132 0.950 . S
H2124 C2134 0.950 . S
H2125 C2136 0.950 . S
H2126 C2138 0.950 . S
H2127 C2139 0.950 . S
C2128 H2120 0.950 . S
C2128 C2129 1.386 . S
C2128 C2130 1.391 . S
C2129 C2128 1.386 . S
C2129 C2133 1.393 . S
C2130 H2122 0.950 . S
C2130 C2128 1.391 . S
C2130 C2131 1.400 . S
C2131 C2130 1.400 . S
C2131 C2132 1.398 . S
C2131 C2137 1.491 . S
C2132 H2123 0.950 . S
C2132 C2131 1.398 . S
C2132 C2133 1.391 . S
C2133 H2121 0.950 . S
C2133 C2129 1.393 . S
C2133 C2132 1.391 . S
C2134 H2124 0.950 . S
C2134 C2135 1.386 . S
C2134 C2136 1.391 . S
C2135 C2134 1.386 . S
C2135 C2139 1.393 . S
C2136 H2125 0.950 . S
C2136 C2134 1.391 . S
C2136 C2137 1.400 . S
C2137 C2131 1.491 . S
C2137 C2136 1.400 . S
C2137 C2138 1.398 . S
C2138 H2126 0.950 . S
C2138 C2137 1.398 . S
C2138 C2139 1.391 . S
C2139 H2127 0.950 . S
C2139 C2135 1.393 . S
C2139 C2138 1.391 . S
H2140 C2148 0.950 . S
H2141 C2153 0.950 . S
H2142 C2150 0.950 . S
H2143 C2152 0.950 . S
H2144 C2154 0.950 . S
H2145 C2156 0.950 . S
H2146 C2158 0.950 . S
H2147 C2159 0.950 . S
C2148 H2140 0.950 . S
C2148 C2149 1.386 . S
C2148 C2150 1.391 . S
C2149 C2148 1.386 . S
C2149 C2153 1.393 . S
C2150 H2142 0.950 . S
C2150 C2148 1.391 . S
C2150 C2151 1.400 . S
C2151 C2150 1.400 . S
C2151 C2152 1.398 . S
C2151 C2157 1.491 . S
C2152 H2143 0.950 . S
C2152 C2151 1.398 . S
C2152 C2153 1.391 . S
C2153 H2141 0.950 . S
C2153 C2149 1.393 . S
C2153 C2152 1.391 . S
C2154 H2144 0.950 . S
C2154 C2155 1.386 . S
C2154 C2156 1.391 . S
C2155 C2154 1.386 . S
C2155 C2159 1.393 . S
C2156 H2145 0.950 . S
C2156 C2154 1.391 . S
C2156 C2157 1.400 . S
C2157 C2151 1.491 . S
C2157 C2156 1.400 . S
C2157 C2158 1.398 . S
C2158 H2146 0.950 . S
C2158 C2157 1.398 . S
C2158 C2159 1.391 . S
C2159 H2147 0.950 . S
C2159 C2155 1.393 . S
C2159 C2158 1.391 . S
H2160 C2168 0.950 . S
H2161 C2173 0.950 . S
H2162 C2170 0.950 . S
H2163 C2172 0.950 . S
H2164 C2174 0.950 1_554 S
H2165 C2176 0.950 . S
H2166 C2178 0.950 . S
H2167 C2179 0.950 . S
C2168 H2160 0.950 . S
C2168 C2169 1.386 . S
C2168 C2170 1.391 . S
C2169 C2168 1.386 . S
C2169 C2173 1.393 1_455 S
C2170 H2162 0.950 . S
C2170 C2168 1.391 . S
C2170 C2171 1.400 1_455 S
C2171 C2170 1.400 1_655 S
C2171 C2172 1.398 . S
C2171 C2177 1.491 . S
C2172 H2163 0.950 . S
C2172 C2171 1.398 . S
C2172 C2173 1.391 . S
C2173 H2161 0.950 . S
C2173 C2169 1.393 1_655 S
C2173 C2172 1.391 . S
C2174 H2164 0.950 1_556 S
C2174 C2175 1.386 . S
C2174 C2176 1.391 . S
C2175 C2174 1.386 . S
C2175 C2179 1.393 1_655 S
C2176 H2165 0.950 . S
C2176 C2174 1.391 . S
C2176 C2177 1.400 . S
C2177 C2171 1.491 . S
C2177 C2176 1.400 . S
C2177 C2178 1.398 1_655 S
C2178 H2166 0.950 . S
C2178 C2177 1.398 1_455 S
C2178 C2179 1.391 . S
C2179 H2167 0.950 . S
C2179 C2175 1.393 1_455 S
C2179 C2178 1.391 . S
H2180 C2188 0.950 . S
H2181 C2193 0.950 . S
H2182 C2190 0.950 . S
H2183 C2192 0.950 . S
H2184 C2194 0.950 . S
H2185 C2196 0.950 . S
H2186 C2198 0.950 . S
H2187 C2199 0.950 . S
C2188 H2180 0.950 . S
C2188 C2189 1.386 . S
C2188 C2190 1.391 . S
C2189 C2188 1.386 . S
C2189 C2193 1.393 . S
C2190 H2182 0.950 . S
C2190 C2188 1.391 . S
C2190 C2191 1.400 . S
C2191 C2190 1.400 . S
C2191 C2192 1.398 . S
C2191 C2197 1.491 . S
C2192 H2183 0.950 . S
C2192 C2191 1.398 . S
C2192 C2193 1.391 . S
C2193 H2181 0.950 . S
C2193 C2189 1.393 . S
C2193 C2192 1.391 . S
C2194 H2184 0.950 . S
C2194 C2195 1.386 . S
C2194 C2196 1.391 . S
C2195 C2194 1.386 . S
C2195 C2199 1.393 . S
C2196 H2185 0.950 . S
C2196 C2194 1.391 . S
C2196 C2197 1.400 . S
C2197 C2191 1.491 . S
C2197 C2196 1.400 . S
C2197 C2198 1.398 . S
C2198 H2186 0.950 . S
C2198 C2197 1.398 . S
C2198 C2199 1.391 . S
C2199 H2187 0.950 . S
C2199 C2195 1.393 . S
C2199 C2198 1.391 . S
H2200 C2208 0.950 . S
H2201 C2213 0.950 . S
H2202 C2210 0.950 . S
H2203 C2212 0.950 . S
H2204 C2214 0.950 . S
H2205 C2216 0.950 . S
H2206 C2218 0.950 . S
H2207 C2219 0.950 . S
C2208 H2200 0.950 . S
C2208 C2209 1.386 . S
C2208 C2210 1.391 . S
C2209 C2208 1.386 . S
C2209 C2213 1.393 . S
C2210 H2202 0.950 . S
C2210 C2208 1.391 . S
C2210 C2211 1.400 . S
C2211 C2210 1.400 . S
C2211 C2212 1.398 . S
C2211 C2217 1.491 . S
C2212 H2203 0.950 . S
C2212 C2211 1.398 . S
C2212 C2213 1.391 . S
C2213 H2201 0.950 . S
C2213 C2209 1.393 . S
C2213 C2212 1.391 . S
C2214 H2204 0.950 . S
C2214 C2215 1.386 . S
C2214 C2216 1.391 . S
C2215 C2214 1.386 . S
C2215 C2219 1.393 . S
C2216 H2205 0.950 . S
C2216 C2214 1.391 . S
C2216 C2217 1.400 . S
C2217 C2211 1.491 . S
C2217 C2216 1.400 . S
C2217 C2218 1.398 . S
C2218 H2206 0.950 . S
C2218 C2217 1.398 . S
C2218 C2219 1.391 . S
C2219 H2207 0.950 . S
C2219 C2215 1.393 . S
C2219 C2218 1.391 . S
H2220 C2228 0.950 . S
H2221 C2233 0.950 . S
H2222 C2230 0.950 . S
H2223 C2232 0.950 . S
H2224 C2234 0.950 . S
H2225 C2236 0.950 . S
H2226 C2238 0.950 . S
H2227 C2239 0.950 . S
C2228 H2220 0.950 . S
C2228 C2229 1.386 . S
C2228 C2230 1.391 . S
C2229 C2228 1.386 . S
C2229 C2233 1.393 . S
C2230 H2222 0.950 . S
C2230 C2228 1.391 . S
C2230 C2231 1.400 . S
C2231 C2230 1.400 . S
C2231 C2232 1.398 . S
C2231 C2237 1.491 . S
C2232 H2223 0.950 . S
C2232 C2231 1.398 . S
C2232 C2233 1.391 . S
C2233 H2221 0.950 . S
C2233 C2229 1.393 . S
C2233 C2232 1.391 . S
C2234 H2224 0.950 . S
C2234 C2235 1.386 . S
C2234 C2236 1.391 . S
C2235 C2234 1.386 . S
C2235 C2239 1.393 . S
C2236 H2225 0.950 . S
C2236 C2234 1.391 . S
C2236 C2237 1.400 . S
C2237 C2231 1.491 . S
C2237 C2236 1.400 . S
C2237 C2238 1.398 . S
C2238 H2226 0.950 . S
C2238 C2237 1.398 . S
C2238 C2239 1.391 . S
C2239 H2227 0.950 . S
C2239 C2235 1.393 . S
C2239 C2238 1.391 . S
H2240 C2248 0.950 . S
H2241 C2253 0.950 . S
H2242 C2250 0.950 . S
H2243 C2252 0.950 . S
H2244 C2254 0.950 . S
H2245 C2256 0.950 . S
H2246 C2258 0.950 . S
H2247 C2259 0.950 . S
C2248 H2240 0.950 . S
C2248 C2249 1.386 . S
C2248 C2250 1.391 . S
C2249 C2248 1.386 . S
C2249 C2253 1.393 1_455 S
C2250 H2242 0.950 . S
C2250 C2248 1.391 . S
C2250 C2251 1.397 1_455 S
C2251 C2250 1.397 1_655 S
C2251 C2252 1.401 . S
C2251 C2257 1.491 . S
C2252 H2243 0.950 . S
C2252 C2251 1.401 . S
C2252 C2253 1.391 . S
C2253 H2241 0.950 . S
C2253 C2249 1.393 1_655 S
C2253 C2252 1.391 . S
C2254 H2244 0.950 . S
C2254 C2255 1.386 . S
C2254 C2256 1.391 . S
C2255 C2254 1.386 . S
C2255 C2259 1.393 1_655 S
C2256 H2245 0.950 . S
C2256 C2254 1.391 . S
C2256 C2257 1.400 . S
C2257 C2251 1.491 . S
C2257 C2256 1.400 . S
C2257 C2258 1.398 1_655 S
C2258 H2246 0.950 . S
C2258 C2257 1.398 1_455 S
C2258 C2259 1.391 . S
C2259 H2247 0.950 . S
C2259 C2255 1.393 1_455 S
C2259 C2258 1.391 . S
H2260 C2268 0.950 . S
H2261 C2273 0.950 . S
H2262 C2270 0.950 . S
H2263 C2272 0.950 . S
H2264 C2274 0.950 . S
H2265 C2276 0.950 . S
H2266 C2278 0.950 . S
H2267 C2279 0.950 . S
C2268 H2260 0.950 . S
C2268 C2269 1.386 . S
C2268 C2270 1.391 . S
C2269 C2268 1.386 . S
C2269 C2273 1.393 . S
C2270 H2262 0.950 . S
C2270 C2268 1.391 . S
C2270 C2271 1.400 . S
C2271 C2270 1.400 . S
C2271 C2272 1.398 . S
C2271 C2277 1.491 . S
C2272 H2263 0.950 . S
C2272 C2271 1.398 . S
C2272 C2273 1.391 . S
C2273 H2261 0.950 . S
C2273 C2269 1.393 . S
C2273 C2272 1.391 . S
C2274 H2264 0.950 . S
C2274 C2275 1.386 . S
C2274 C2276 1.391 . S
C2275 C2274 1.386 . S
C2275 C2279 1.393 . S
C2276 H2265 0.950 . S
C2276 C2274 1.391 . S
C2276 C2277 1.400 . S
C2277 C2271 1.491 . S
C2277 C2276 1.400 . S
C2277 C2278 1.398 . S
C2278 H2266 0.950 . S
C2278 C2277 1.398 . S
C2278 C2279 1.391 . S
C2279 H2267 0.950 . S
C2279 C2275 1.393 . S
C2279 C2278 1.391 . S
H2280 C2288 0.950 . S
H2281 C2293 0.950 . S
H2282 C2290 0.950 . S
H2283 C2292 0.950 . S
H2284 C2294 0.950 . S
H2285 C2296 0.950 . S
H2286 C2298 0.950 . S
H2287 C2299 0.950 . S
C2288 H2280 0.950 . S
C2288 C2289 1.386 . S
C2288 C2290 1.391 . S
C2289 C2288 1.386 . S
C2289 C2293 1.393 . S
C2290 H2282 0.950 . S
C2290 C2288 1.391 . S
C2290 C2291 1.400 . S
C2291 C2290 1.400 . S
C2291 C2292 1.398 . S
C2291 C2297 1.491 . S
C2292 H2283 0.950 . S
C2292 C2291 1.398 . S
C2292 C2293 1.391 . S
C2293 H2281 0.950 . S
C2293 C2289 1.393 . S
C2293 C2292 1.391 . S
C2294 H2284 0.950 . S
C2294 C2295 1.386 . S
C2294 C2296 1.391 . S
C2295 C2294 1.386 . S
C2295 C2299 1.393 . S
C2296 H2285 0.950 . S
C2296 C2294 1.391 . S
C2296 C2297 1.400 . S
C2297 C2291 1.491 . S
C2297 C2296 1.400 . S
C2297 C2298 1.398 . S
C2298 H2286 0.950 . S
C2298 C2297 1.398 . S
C2298 C2299 1.391 . S
C2299 H2287 0.950 . S
C2299 C2295 1.393 . S
C2299 C2298 1.391 . S
H2300 C2308 0.950 . S
H2301 C2313 0.950 . S
H2302 C2310 0.950 . S
H2303 C2312 0.950 . S
H2304 C2314 0.950 . S
H2305 C2316 0.950 . S
H2306 C2318 0.950 . S
H2307 C2319 0.950 . S
C2308 H2300 0.950 . S
C2308 C2309 1.386 . S
C2308 C2310 1.391 . S
C2309 C2308 1.386 . S
C2309 C2313 1.393 . S
C2310 H2302 0.950 . S
C2310 C2308 1.391 . S
C2310 C2311 1.400 . S
C2311 C2310 1.400 . S
C2311 C2312 1.398 . S
C2311 C2317 1.491 . S
C2312 H2303 0.950 . S
C2312 C2311 1.398 . S
C2312 C2313 1.391 . S
C2313 H2301 0.950 . S
C2313 C2309 1.393 . S
C2313 C2312 1.391 . S
C2314 H2304 0.950 . S
C2314 C2315 1.386 . S
C2314 C2316 1.391 . S
C2315 C2314 1.386 . S
C2315 C2319 1.393 . S
C2316 H2305 0.950 . S
C2316 C2314 1.391 . S
C2316 C2317 1.400 . S
C2317 C2311 1.491 . S
C2317 C2316 1.400 . S
C2317 C2318 1.398 . S
C2318 H2306 0.950 . S
C2318 C2317 1.398 . S
C2318 C2319 1.391 . S
C2319 H2307 0.950 . S
C2319 C2315 1.393 . S
C2319 C2318 1.391 . S
H2320 C2328 0.950 . S
H2321 C2333 0.950 . S
H2322 C2330 0.950 . S
H2323 C2332 0.950 . S
H2324 C2334 0.950 . S
H2325 C2336 0.950 . S
H2326 C2338 0.950 . S
H2327 C2339 0.950 . S
C2328 H2320 0.950 . S
C2328 C2329 1.386 . S
C2328 C2330 1.391 . S
C2329 C2328 1.386 . S
C2329 C2333 1.393 . S
C2330 H2322 0.950 . S
C2330 C2328 1.391 . S
C2330 C2331 1.400 . S
C2331 C2330 1.400 . S
C2331 C2332 1.398 . S
C2331 C2337 1.491 . S
C2332 H2323 0.950 . S
C2332 C2331 1.398 . S
C2332 C2333 1.391 . S
C2333 H2321 0.950 . S
C2333 C2329 1.393 . S
C2333 C2332 1.391 . S
C2334 H2324 0.950 . S
C2334 C2335 1.386 . S
C2334 C2336 1.391 . S
C2335 C2334 1.386 . S
C2335 C2339 1.393 . S
C2336 H2325 0.950 . S
C2336 C2334 1.391 . S
C2336 C2337 1.400 . S
C2337 C2331 1.491 . S
C2337 C2336 1.400 . S
C2337 C2338 1.398 . S
C2338 H2326 0.950 . S
C2338 C2337 1.398 . S
C2338 C2339 1.391 . S
C2339 H2327 0.950 . S
C2339 C2335 1.393 . S
C2339 C2338 1.391 . S
H2340 C2348 0.950 . S
H2341 C2353 0.950 . S
H2342 C2350 0.950 . S
H2343 C2352 0.950 . S
H2344 C2354 0.950 . S
H2345 C2356 0.950 . S
H2346 C2358 0.950 . S
H2347 C2359 0.950 . S
C2348 H2340 0.950 . S
C2348 C2349 1.386 . S
C2348 C2350 1.391 . S
C2349 C2348 1.386 . S
C2349 C2353 1.393 . S
C2350 H2342 0.950 . S
C2350 C2348 1.391 . S
C2350 C2351 1.400 . S
C2351 C2350 1.400 . S
C2351 C2352 1.398 . S
C2351 C2357 1.491 . S
C2352 H2343 0.950 . S
C2352 C2351 1.398 . S
C2352 C2353 1.391 . S
C2353 H2341 0.950 . S
C2353 C2349 1.393 . S
C2353 C2352 1.391 . S
C2354 H2344 0.950 . S
C2354 C2355 1.386 . S
C2354 C2356 1.391 . S
C2355 C2354 1.386 . S
C2355 C2359 1.393 . S
C2356 H2345 0.950 . S
C2356 C2354 1.391 . S
C2356 C2357 1.400 . S
C2357 C2351 1.491 . S
C2357 C2356 1.400 . S
C2357 C2358 1.398 . S
C2358 H2346 0.950 . S
C2358 C2357 1.398 . S
C2358 C2359 1.391 . S
C2359 H2347 0.950 . S
C2359 C2355 1.393 . S
C2359 C2358 1.391 . S
H2360 C2368 0.950 . S
H2361 C2373 0.950 . S
H2362 C2370 0.950 . S
H2363 C2372 0.950 . S
H2364 C2374 0.950 . S
H2365 C2376 0.950 . S
H2366 C2378 0.950 . S
H2367 C2379 0.950 . S
C2368 H2360 0.950 . S
C2368 C2369 1.386 . S
C2368 C2370 1.391 . S
C2369 C2368 1.386 . S
C2369 C2373 1.393 . S
C2370 H2362 0.950 . S
C2370 C2368 1.391 . S
C2370 C2371 1.400 . S
C2371 C2370 1.400 . S
C2371 C2372 1.398 . S
C2371 C2377 1.491 . S
C2372 H2363 0.950 . S
C2372 C2371 1.398 . S
C2372 C2373 1.391 . S
C2373 H2361 0.950 . S
C2373 C2369 1.393 . S
C2373 C2372 1.391 . S
C2374 H2364 0.950 . S
C2374 C2375 1.386 . S
C2374 C2376 1.391 . S
C2375 C2374 1.386 . S
C2375 C2379 1.393 . S
C2376 H2365 0.950 . S
C2376 C2374 1.391 . S
C2376 C2377 1.400 . S
C2377 C2371 1.491 . S
C2377 C2376 1.400 . S
C2377 C2378 1.398 . S
C2378 H2366 0.950 . S
C2378 C2377 1.398 . S
C2378 C2379 1.391 . S
C2379 H2367 0.950 . S
C2379 C2375 1.393 . S
C2379 C2378 1.391 . S
H2380 C2388 0.950 . S
H2381 C2393 0.950 . S
H2382 C2390 0.950 . S
H2383 C2392 0.950 . S
H2384 C2394 0.950 . S
H2385 C2396 0.950 . S
H2386 C2398 0.950 . S
H2387 C2399 0.950 . S
C2388 H2380 0.950 . S
C2388 C2389 1.386 . S
C2388 C2390 1.391 . S
C2389 C2388 1.386 . S
C2389 C2393 1.393 . S
C2390 H2382 0.950 . S
C2390 C2388 1.391 . S
C2390 C2391 1.400 . S
C2391 C2390 1.400 . S
C2391 C2392 1.398 . S
C2391 C2397 1.491 . S
C2392 H2383 0.950 . S
C2392 C2391 1.398 . S
C2392 C2393 1.391 . S
C2393 H2381 0.950 . S
C2393 C2389 1.393 . S
C2393 C2392 1.391 . S
C2394 H2384 0.950 . S
C2394 C2395 1.386 . S
C2394 C2396 1.391 . S
C2395 C2394 1.386 . S
C2395 C2399 1.393 . S
C2396 H2385 0.950 . S
C2396 C2394 1.391 . S
C2396 C2397 1.400 . S
C2397 C2391 1.491 . S
C2397 C2396 1.400 . S
C2397 C2398 1.398 . S
C2398 H2386 0.950 . S
C2398 C2397 1.398 . S
C2398 C2399 1.391 . S
C2399 H2387 0.950 . S
C2399 C2395 1.393 . S
C2399 C2398 1.391 . S
H2400 C2408 0.950 . S
H2401 C2413 0.950 . S
H2402 C2410 0.950 . S
H2403 C2412 0.950 . S
H2404 C2414 0.950 . S
H2405 C2416 0.950 . S
H2406 C2418 0.950 . S
H2407 C2419 0.950 . S
C2408 H2400 0.950 . S
C2408 C2409 1.386 . S
C2408 C2410 1.391 . S
C2409 C2408 1.386 . S
C2409 C2413 1.393 . S
C2410 H2402 0.950 . S
C2410 C2408 1.391 . S
C2410 C2411 1.400 . S
C2411 C2410 1.400 . S
C2411 C2412 1.398 . S
C2411 C2417 1.491 . S
C2412 H2403 0.950 . S
C2412 C2411 1.398 . S
C2412 C2413 1.391 . S
C2413 H2401 0.950 . S
C2413 C2409 1.393 . S
C2413 C2412 1.391 . S
C2414 H2404 0.950 . S
C2414 C2415 1.386 . S
C2414 C2416 1.391 . S
C2415 C2414 1.386 . S
C2415 C2419 1.393 . S
C2416 H2405 0.950 . S
C2416 C2414 1.391 . S
C2416 C2417 1.400 . S
C2417 C2411 1.491 . S
C2417 C2416 1.400 . S
C2417 C2418 1.398 . S
C2418 H2406 0.950 . S
C2418 C2417 1.398 . S
C2418 C2419 1.391 . S
C2419 H2407 0.950 . S
C2419 C2415 1.393 . S
C2419 C2418 1.391 . S
H2420 C2428 0.950 . S
H2421 C2433 0.950 . S
H2422 C2430 0.950 . S
H2423 C2432 0.950 . S
H2424 C2434 0.950 . S
H2425 C2436 0.950 . S
H2426 C2438 0.950 . S
H2427 C2439 0.950 . S
C2428 H2420 0.950 . S
C2428 C2429 1.386 . S
C2428 C2430 1.391 . S
C2429 C2428 1.386 . S
C2429 C2433 1.393 . S
C2430 H2422 0.950 . S
C2430 C2428 1.391 . S
C2430 C2431 1.400 . S
C2431 C2430 1.400 . S
C2431 C2432 1.398 . S
C2431 C2437 1.491 . S
C2432 H2423 0.950 . S
C2432 C2431 1.398 . S
C2432 C2433 1.391 . S
C2433 H2421 0.950 . S
C2433 C2429 1.393 . S
C2433 C2432 1.391 . S
C2434 H2424 0.950 . S
C2434 C2435 1.386 . S
C2434 C2436 1.391 . S
C2435 C2434 1.386 . S
C2435 C2439 1.393 . S
C2436 H2425 0.950 . S
C2436 C2434 1.391 . S
C2436 C2437 1.400 . S
C2437 C2431 1.491 . S
C2437 C2436 1.400 . S
C2437 C2438 1.398 . S
C2438 H2426 0.950 . S
C2438 C2437 1.398 . S
C2438 C2439 1.391 . S
C2439 H2427 0.950 . S
C2439 C2435 1.393 . S
C2439 C2438 1.391 . S
H2440 C2448 0.950 . S
H2441 C2453 0.950 . S
H2442 C2450 0.950 . S
H2443 C2452 0.950 . S
H2444 C2454 0.950 . S
H2445 C2456 0.950 . S
H2446 C2458 0.950 . S
H2447 C2459 0.950 . S
C2448 H2440 0.950 . S
C2448 C2449 1.386 . S
C2448 C2450 1.391 . S
C2449 C2448 1.386 . S
C2449 C2453 1.393 . S
C2450 H2442 0.950 . S
C2450 C2448 1.391 . S
C2450 C2451 1.400 . S
C2451 C2450 1.400 . S
C2451 C2452 1.398 . S
C2451 C2457 1.491 . S
C2452 H2443 0.950 . S
C2452 C2451 1.398 . S
C2452 C2453 1.391 . S
C2453 H2441 0.950 . S
C2453 C2449 1.393 . S
C2453 C2452 1.391 . S
C2454 H2444 0.950 . S
C2454 C2455 1.386 . S
C2454 C2456 1.391 . S
C2455 C2454 1.386 . S
C2455 C2459 1.393 . S
C2456 H2445 0.950 . S
C2456 C2454 1.391 . S
C2456 C2457 1.400 . S
C2457 C2451 1.491 . S
C2457 C2456 1.400 . S
C2457 C2458 1.398 . S
C2458 H2446 0.950 . S
C2458 C2457 1.398 . S
C2458 C2459 1.391 . S
C2459 H2447 0.950 . S
C2459 C2455 1.393 . S
C2459 C2458 1.391 . S
H2460 C2468 0.950 . S
H2461 C2473 0.950 . S
H2462 C2470 0.950 . S
H2463 C2472 0.950 . S
H2464 C2474 0.950 . S
H2465 C2476 0.950 . S
H2466 C2478 0.950 . S
H2467 C2479 0.950 . S
C2468 H2460 0.950 . S
C2468 C2469 1.386 . S
C2468 C2470 1.391 . S
C2469 C2468 1.386 . S
C2469 C2473 1.393 . S
C2470 H2462 0.950 . S
C2470 C2468 1.391 . S
C2470 C2471 1.400 . S
C2471 C2470 1.400 . S
C2471 C2472 1.398 . S
C2471 C2477 1.491 . S
C2472 H2463 0.950 . S
C2472 C2471 1.398 . S
C2472 C2473 1.391 . S
C2473 H2461 0.950 . S
C2473 C2469 1.393 . S
C2473 C2472 1.391 . S
C2474 H2464 0.950 . S
C2474 C2475 1.386 . S
C2474 C2476 1.391 . S
C2475 C2474 1.386 . S
C2475 C2479 1.393 . S
C2476 H2465 0.950 . S
C2476 C2474 1.391 . S
C2476 C2477 1.400 . S
C2477 C2471 1.491 . S
C2477 C2476 1.400 . S
C2477 C2478 1.398 . S
C2478 H2466 0.950 . S
C2478 C2477 1.398 . S
C2478 C2479 1.391 . S
C2479 H2467 0.950 . S
C2479 C2475 1.393 . S
C2479 C2478 1.391 . S
H2480 C2488 0.950 . S
H2481 C2493 0.950 . S
H2482 C2490 0.950 . S
H2483 C2492 0.950 . S
H2484 C2494 0.950 . S
H2485 C2496 0.950 . S
H2486 C2498 0.950 . S
H2487 C2499 0.950 . S
C2488 H2480 0.950 . S
C2488 C2489 1.386 . S
C2488 C2490 1.391 . S
C2489 C2488 1.386 . S
C2489 C2493 1.393 . S
C2490 H2482 0.950 . S
C2490 C2488 1.391 . S
C2490 C2491 1.400 . S
C2491 C2490 1.400 . S
C2491 C2492 1.398 . S
C2491 C2497 1.491 . S
C2492 H2483 0.950 . S
C2492 C2491 1.398 . S
C2492 C2493 1.391 . S
C2493 H2481 0.950 . S
C2493 C2489 1.393 . S
C2493 C2492 1.391 . S
C2494 H2484 0.950 . S
C2494 C2495 1.386 . S
C2494 C2496 1.391 . S
C2495 C2494 1.386 . S
C2495 C2499 1.393 . S
C2496 H2485 0.950 . S
C2496 C2494 1.391 . S
C2496 C2497 1.400 . S
C2497 C2491 1.491 . S
C2497 C2496 1.400 . S
C2497 C2498 1.398 . S
C2498 H2486 0.950 . S
C2498 C2497 1.398 . S
C2498 C2499 1.391 . S
C2499 H2487 0.950 . S
C2499 C2495 1.393 . S
C2499 C2498 1.391 . S
H2500 C2508 0.950 . S
H2501 C2513 0.950 . S
H2502 C2510 0.950 . S
H2503 C2512 0.950 . S
H2504 C2514 0.950 . S
H2505 C2516 0.950 . S
H2506 C2518 0.950 . S
H2507 C2519 0.932 1_554 S
C2508 H2500 0.950 . S
C2508 C2509 1.407 . S
C2508 C2510 1.391 . S
C2509 C2508 1.407 . S
C2509 C2513 1.368 1_554 S
C2510 H2502 0.950 . S
C2510 C2508 1.391 . S
C2510 C2511 1.400 1_554 S
C2511 C2510 1.400 1_556 S
C2511 C2512 1.398 . S
C2511 C2517 1.491 . S
C2512 H2503 0.950 . S
C2512 C2511 1.398 . S
C2512 C2513 1.391 . S
C2513 H2501 0.950 . S
C2513 C2509 1.368 1_556 S
C2513 C2512 1.391 . S
C2514 H2504 0.950 . S
C2514 C2515 1.386 . S
C2514 C2516 1.391 . S
C2515 C2514 1.386 . S
C2515 C2519 1.415 . S
C2516 H2505 0.950 . S
C2516 C2514 1.391 . S
C2516 C2517 1.400 . S
C2517 C2511 1.491 . S
C2517 C2516 1.400 . S
C2517 C2518 1.398 1_556 S
C2518 H2506 0.950 . S
C2518 C2517 1.398 1_554 S
C2518 C2519 1.387 1_554 S
C2519 H2507 0.932 1_556 S
C2519 C2515 1.415 . S
C2519 C2518 1.387 1_556 S
H2520 C2528 0.950 . S
H2521 C2533 0.950 . S
H2522 C2530 0.950 . S
H2523 C2532 0.950 . S
H2524 C2534 0.950 . S
H2525 C2536 0.950 . S
H2526 C2538 0.950 . S
H2527 C2539 0.950 . S
C2528 H2520 0.950 . S
C2528 C2529 1.386 . S
C2528 C2530 1.391 . S
C2529 C2528 1.386 . S
C2529 C2533 1.393 . S
C2530 H2522 0.950 . S
C2530 C2528 1.391 . S
C2530 C2531 1.400 . S
C2531 C2530 1.400 . S
C2531 C2532 1.398 . S
C2531 C2537 1.491 . S
C2532 H2523 0.950 . S
C2532 C2531 1.398 . S
C2532 C2533 1.391 . S
C2533 H2521 0.950 . S
C2533 C2529 1.393 . S
C2533 C2532 1.391 . S
C2534 H2524 0.950 . S
C2534 C2535 1.386 . S
C2534 C2536 1.391 . S
C2535 C2534 1.386 . S
C2535 C2539 1.393 . S
C2536 H2525 0.950 . S
C2536 C2534 1.391 . S
C2536 C2537 1.400 . S
C2537 C2531 1.491 . S
C2537 C2536 1.400 . S
C2537 C2538 1.398 . S
C2538 H2526 0.950 . S
C2538 C2537 1.398 . S
C2538 C2539 1.391 . S
C2539 H2527 0.950 . S
C2539 C2535 1.393 . S
C2539 C2538 1.391 . S
H2540 C2548 0.950 . S
H2541 C2553 0.950 . S
H2542 C2550 0.950 . S
H2543 C2552 0.950 . S
H2544 C2554 0.950 . S
H2545 C2556 0.950 1_556 S
H2546 C2558 0.950 . S
H2547 C2559 0.950 . S
C2548 H2540 0.950 . S
C2548 C2549 1.386 . S
C2548 C2550 1.391 . S
C2549 C2548 1.386 . S
C2549 C2553 1.393 1_554 S
C2550 H2542 0.950 . S
C2550 C2548 1.391 . S
C2550 C2551 1.400 . S
C2551 C2550 1.400 . S
C2551 C2552 1.398 1_554 S
C2551 C2557 1.491 . S
C2552 H2543 0.950 . S
C2552 C2551 1.398 1_556 S
C2552 C2553 1.391 . S
C2553 H2541 0.950 . S
C2553 C2549 1.393 1_556 S
C2553 C2552 1.391 . S
C2554 H2544 0.950 . S
C2554 C2555 1.386 . S
C2554 C2556 1.391 . S
C2555 C2554 1.386 . S
C2555 C2559 1.393 . S
C2556 H2545 0.950 1_554 S
C2556 C2554 1.391 . S
C2556 C2557 1.400 . S
C2557 C2551 1.491 . S
C2557 C2556 1.400 . S
C2557 C2558 1.398 . S
C2558 H2546 0.950 . S
C2558 C2557 1.398 . S
C2558 C2559 1.391 . S
C2559 H2547 0.950 . S
C2559 C2555 1.393 . S
C2559 C2558 1.391 . S
H2560 C2568 0.950 . S
H2561 C2573 0.950 . S
H2562 C2570 0.950 . S
H2563 C2572 0.950 . S
H2564 C2574 0.950 . S
H2565 C2576 0.950 . S
H2566 C2578 0.950 . S
H2567 C2579 0.950 . S
C2568 H2560 0.950 . S
C2568 C2569 1.386 . S
C2568 C2570 1.391 . S
C2569 C2568 1.386 . S
C2569 C2573 1.393 . S
C2570 H2562 0.950 . S
C2570 C2568 1.391 . S
C2570 C2571 1.400 . S
C2571 C2570 1.400 . S
C2571 C2572 1.398 . S
C2571 C2577 1.491 . S
C2572 H2563 0.950 . S
C2572 C2571 1.398 . S
C2572 C2573 1.391 . S
C2573 H2561 0.950 . S
C2573 C2569 1.393 . S
C2573 C2572 1.391 . S
C2574 H2564 0.950 . S
C2574 C2575 1.386 . S
C2574 C2576 1.391 . S
C2575 C2574 1.386 . S
C2575 C2579 1.393 . S
C2576 H2565 0.950 . S
C2576 C2574 1.391 . S
C2576 C2577 1.400 . S
C2577 C2571 1.491 . S
C2577 C2576 1.400 . S
C2577 C2578 1.398 . S
C2578 H2566 0.950 . S
C2578 C2577 1.398 . S
C2578 C2579 1.391 . S
C2579 H2567 0.950 . S
C2579 C2575 1.393 . S
C2579 C2578 1.391 . S
H2580 C2588 0.950 . S
H2581 C2593 0.950 . S
H2582 C2590 0.950 . S
H2583 C2592 0.950 . S
H2584 C2594 0.950 . S
H2585 C2596 0.950 . S
H2586 C2598 0.950 . S
H2587 C2599 0.950 . S
C2588 H2580 0.950 . S
C2588 C2589 1.386 . S
C2588 C2590 1.391 . S
C2589 C2588 1.386 . S
C2589 C2593 1.393 . S
C2590 H2582 0.950 . S
C2590 C2588 1.391 . S
C2590 C2591 1.400 . S
C2591 C2590 1.400 . S
C2591 C2592 1.398 . S
C2591 C2597 1.491 . S
C2592 H2583 0.950 . S
C2592 C2591 1.398 . S
C2592 C2593 1.391 . S
C2593 H2581 0.950 . S
C2593 C2589 1.393 . S
C2593 C2592 1.391 . S
C2594 H2584 0.950 . S
C2594 C2595 1.386 . S
C2594 C2596 1.391 . S
C2595 C2594 1.386 . S
C2595 C2599 1.393 . S
C2596 H2585 0.950 . S
C2596 C2594 1.391 . S
C2596 C2597 1.400 . S
C2597 C2591 1.491 . S
C2597 C2596 1.400 . S
C2597 C2598 1.398 . S
C2598 H2586 0.950 . S
C2598 C2597 1.398 . S
C2598 C2599 1.391 . S
C2599 H2587 0.950 . S
C2599 C2595 1.393 . S
C2599 C2598 1.391 . S
C695 C328 1.065 . S
C689 C10 1.081 . S
C709 C13 1.213 . S
C715 C356 1.197 . S
C729 C34 1.071 . S
C735 C374 1.093 . S
C755 C400 1.196 . S
C749 C44 1.322 . S
C769 C21 1.335 . S
C775 C423 1.255 . S
C795 C443 0.972 . S
C789 C26 0.957 . S
C815 C471 1.270 1_556 S
C809 C49 1.349 . S
C829 C5 1.014 . S
C835 C489 1.025 . S
C849 C62 1.243 . S
C855 C330 1.259 . S
C869 C73 0.958 . S
C875 C352 0.953 . S
C895 C376 1.282 . S
C889 C88 1.264 1_545 S
C915 C397 0.995 . S
C909 C99 0.992 . S
C929 C60 1.032 . S
C935 C420 1.034 . S
C955 C445 1.257 . S
C949 C75 1.254 . S
C975 C467 0.978 . S
C969 C86 0.970 1_545 S
C995 C491 1.262 . S
C989 C101 1.264 . S
C1015 C331 0.836 1_556 S
C1009 C96 0.926 . S
C1035 C514 1.073 . S
C1029 C104 1.039 . S
C1049 C122 0.883 . S
C1055 C538 0.855 . S
C1075 C562 1.033 . S
C1069 C130 1.033 . S
C1089 C57 0.862 . S
C1095 C492 0.791 . S
C1115 C377 0.915 . S
C1109 C70 0.927 . S
C1129 C117 0.984 . S
C1135 C583 0.990 . S
C1155 C608 0.973 . S
C1149 C143 0.940 . S
C1169 C164 1.177 . S
C1175 C329 1.159 . S
C1195 C606 1.024 . S
C1189 C169 1.012 . S
C1209 C192 1.178 . S
C1215 C375 1.158 . S
C1229 C200 0.980 . S
C1235 C585 0.982 . S
C1255 C424 1.026 . S
C1249 C179 1.067 . S
C1275 C536 1.071 . S
C1269 C182 1.071 . S
C1295 C468 1.114 . S
C1289 C203 1.094 . S
C1315 C628 1.133 . S
C1309 C161 1.129 . S
C1335 C333 0.902 . S
C1329 C216 0.966 . S
C1349 C231 1.327 . S
C1355 C604 1.309 . S
C1375 C379 0.925 . S
C1369 C242 0.991 1_565 S
C1389 C257 1.296 . S
C1395 C582 1.269 . S
C1409 C218 1.327 . S
C1415 C421 1.298 . S
C1429 C229 0.970 . S
C1435 C540 0.912 . S
C1455 C466 1.293 . S
C1449 C244 1.313 . S
C1469 C255 0.976 . S
C1475 C632 0.934 . S
C1489 C252 1.291 . S
C1495 C332 1.282 . S
C1509 C260 1.209 . S
C1515 C517 1.165 . S
C1529 C278 1.244 . S
C1535 C447 1.230 . S
C1549 C286 1.192 . S
C1555 C561 1.119 . S
C1575 C631 1.209 . S
C1569 C213 1.220 . S
C1595 C378 1.305 . S
C1589 C226 1.308 . S
C1615 C402 1.099 . S
C1609 C273 1.124 . S
C1635 C354 1.041 . S
C1629 C299 1.160 . S
C1649 C36 1.083 . S
C1655 C650 1.071 . S
C1675 C609 1.196 . S
C1669 C39 1.211 . S
C1695 C673 1.068 . S
C1689 C8 1.041 . S
C1709 C18 1.327 . S
C1715 C584 1.211 . S
C1729 C47 1.331 . S
C1735 C515 1.259 1_556 S
C1755 C535 0.982 . S
C1749 C0 0.952 . S
C1775 C563 1.244 . S
C1769 C23 1.338 . S
C1795 C627 1.044 . S
C1789 C31 1.028 . S
C1815 C652 1.259 . S
C1809 C153 1.243 . S
C1829 C112 0.947 . S
C1835 C605 0.949 . S
C1849 C127 1.280 . S
C1855 C675 1.281 . S
C1875 C581 0.995 . S
C1869 C138 0.991 . S
C1895 C512 1.036 . S
C1889 C151 1.032 . S
C1909 C114 1.248 . S
C1915 C537 1.264 . S
C1935 C559 0.952 . S
C1929 C125 0.960 . S
C1949 C140 1.264 . S
C1955 C629 1.262 . S
C1975 C653 0.900 . S
C1969 C135 0.899 . S
C1995 C422 1.073 . S
C1989 C65 1.031 . S
C2015 C446 0.821 . S
C2009 C83 0.882 . S
C2029 C91 1.028 . S
C2035 C470 1.033 . S
C2055 C630 0.809 . S
C2049 C148 0.865 . S
C2069 C109 0.934 . S
C2075 C676 0.924 1_556 S
C2095 C399 0.994 . S
C2089 C78 0.968 . S
C2115 C355 0.972 . S
C2109 C52 0.944 . S
C2129 C190 1.159 . S
C2135 C651 1.178 . S
C2155 C353 1.020 . S
C2149 C195 1.005 . S
C2175 C674 1.172 . S
C2169 C166 1.177 . S
C2189 C174 0.980 . S
C2195 C401 0.982 . S
C2209 C205 1.062 . S
C2215 C516 1.012 . S
C2229 C156 1.072 . S
C2235 C444 1.070 . S
C2249 C177 1.113 . S
C2255 C560 1.126 . S
C2269 C187 1.129 . S
C2275 C490 1.126 . S
C2295 C655 0.947 . S
C2289 C307 0.970 . S
C2309 C270 1.321 . S
C2315 C351 1.294 . S
C2335 C678 0.922 . S
C2329 C281 1.000 . S
C2349 C296 1.304 . S
C2355 C398 1.283 . S
C2369 C309 1.320 . S
C2375 C513 1.290 . S
C2395 C448 0.945 . S
C2389 C268 0.961 . S
C2409 C283 1.317 . S
C2415 C558 1.298 . S
C2435 C494 0.922 . S
C2429 C294 0.978 . S
C2455 C654 1.280 . S
C2449 C291 1.286 . S
C2475 C425 1.164 . S
C2469 C221 1.206 . S
C2489 C239 1.266 . S
C2495 C539 1.250 . S
C2515 C469 1.136 . S
C2509 C247 1.213 . S
C2535 C493 1.209 . S
C2529 C304 1.220 . S
C2549 C265 1.316 . S
C2555 C677 1.314 . S
C2575 C586 1.098 . S
C2569 C234 1.133 . S
C2595 C607 1.092 . S
C2589 C208 1.142 . S
