# Generated by pormake.
# Topology pyr, (3,6)-cn, num edge types: 1
# Building blocks:
#     Node 0, Type 0, BuildingBlock: OLANEW_clean_sbu_2, # of connection points: 3
#     Node 1, Type 0, BuildingBlock: OLANEW_clean_sbu_2, # of connection points: 3
#     Node 2, Type 0, BuildingBlock: OLANEW_clean_sbu_2, # of connection points: 3
#     Node 3, Type 0, BuildingBlock: OLANEW_clean_sbu_2, # of connection points: 3
#     Node 4, Type 0, BuildingBlock: OLANEW_clean_sbu_2, # of connection points: 3
#     Node 5, Type 0, BuildingBlock: OLANEW_clean_sbu_2, # of connection points: 3
#     Node 6, Type 0, BuildingBlock: OLANEW_clean_sbu_2, # of connection points: 3
#     Node 7, Type 0, BuildingBlock: OLANEW_clean_sbu_2, # of connection points: 3
#     Node 8, Type 1, BuildingBlock: JUFBIX_clean_sbu_0, # of connection points: 6
#     Node 9, Type 1, BuildingBlock: JUFBIX_clean_sbu_0, # of connection points: 6
#     Node 10, Type 1, BuildingBlock: JUFBIX_clean_sbu_0, # of connection points: 6
#     Node 11, Type 1, BuildingBlock: JUFBIX_clean_sbu_0, # of connection points: 6
#     Edge 12, Type (0, 1), BuildingBlock: AJUNOK_clean_linker_0, # of connection points: 2
#     Edge 13, Type (0, 1), BuildingBlock: AJUNOK_clean_linker_0, # of connection points: 2
#     Edge 14, Type (0, 1), BuildingBlock: AJUNOK_clean_linker_0, # of connection points: 2
#     Edge 15, Type (0, 1), BuildingBlock: AJUNOK_clean_linker_0, # of connection points: 2
#     Edge 16, Type (0, 1), BuildingBlock: AJUNOK_clean_linker_0, # of connection points: 2
#     Edge 17, Type (0, 1), BuildingBlock: AJUNOK_clean_linker_0, # of connection points: 2
#     Edge 18, Type (0, 1), BuildingBlock: AJUNOK_clean_linker_0, # of connection points: 2
#     Edge 19, Type (0, 1), BuildingBlock: AJUNOK_clean_linker_0, # of connection points: 2
#     Edge 20, Type (0, 1), BuildingBlock: AJUNOK_clean_linker_0, # of connection points: 2
#     Edge 21, Type (0, 1), BuildingBlock: AJUNOK_clean_linker_0, # of connection points: 2
#     Edge 22, Type (0, 1), BuildingBlock: AJUNOK_clean_linker_0, # of connection points: 2
#     Edge 23, Type (0, 1), BuildingBlock: AJUNOK_clean_linker_0, # of connection points: 2
#     Edge 24, Type (0, 1), BuildingBlock: AJUNOK_clean_linker_0, # of connection points: 2
#     Edge 25, Type (0, 1), BuildingBlock: AJUNOK_clean_linker_0, # of connection points: 2
#     Edge 26, Type (0, 1), BuildingBlock: AJUNOK_clean_linker_0, # of connection points: 2
#     Edge 27, Type (0, 1), BuildingBlock: AJUNOK_clean_linker_0, # of connection points: 2
#     Edge 28, Type (0, 1), BuildingBlock: AJUNOK_clean_linker_0, # of connection points: 2
#     Edge 29, Type (0, 1), BuildingBlock: AJUNOK_clean_linker_0, # of connection points: 2
#     Edge 30, Type (0, 1), BuildingBlock: AJUNOK_clean_linker_0, # of connection points: 2
#     Edge 31, Type (0, 1), BuildingBlock: AJUNOK_clean_linker_0, # of connection points: 2
#     Edge 32, Type (0, 1), BuildingBlock: AJUNOK_clean_linker_0, # of connection points: 2
#     Edge 33, Type (0, 1), BuildingBlock: AJUNOK_clean_linker_0, # of connection points: 2
#     Edge 34, Type (0, 1), BuildingBlock: AJUNOK_clean_linker_0, # of connection points: 2
#     Edge 35, Type (0, 1), BuildingBlock: AJUNOK_clean_linker_0, # of connection points: 2
# Relax obj value: 0.161
# Max RMSD: 0.176
# Mean RMSD: 0.120
data_MOF--net-pry--node1-OLANEW_clean_sbu_2--node2-JUFBIX_clean_sbu_0--edge1-AJUNOK_clean_linker_0
_symmetry_space_group_name_H-M    P1
_symmetry_Int_Tables_number       1
_symmetry_cell_setting            triclinic
loop_
_symmetry_equiv_pos_as_xyz
'x, y, z'
_cell_length_a     30.715517
_cell_length_b     28.122558
_cell_length_c     29.696009
_cell_angle_alpha  89.139139
_cell_angle_beta   89.591463
_cell_angle_gamma 96.763492
loop_
_atom_site_label
_atom_site_type_symbol
_atom_site_fract_x
_atom_site_fract_y
_atom_site_fract_z
_atom_type_partial_charge
O0 O 0.23142 0.16481 0.15353 0.0
Cd1 Cd 0.15825 0.19417 0.16782 0.0
O2 O 0.2388 0.12236 0.21645 0.0
Cd3 Cd 0.18138 0.12534 0.26285 0.0
O4 O 0.13641 0.10842 0.32254 0.0
C5 C 0.15175 0.09829 0.36093 0.0
O6 O 0.19442 0.09903 0.36469 0.0
C7 C 0.25327 0.13808 0.17779 0.0
C8 C 0.12896 0.27605 0.1243 0.0
O9 O 0.14787 0.27889 0.16271 0.0
O10 O 0.12577 0.23529 0.10504 0.0
O11 O 0.54712 0.9513 0.73539 0.0
Cd12 Cd 0.57144 0.93735 0.65827 0.0
O13 O 0.47971 0.93527 0.71259 0.0
Cd14 Cd 0.40824 0.92426 0.71523 0.0
O15 O 0.33906 0.93305 0.70988 0.0
C16 C 0.32545 0.94887 0.6729 0.0
O17 O 0.3534 0.95774 0.63928 0.0
C18 C 0.50627 0.9477 0.74415 0.0
C19 C 0.56908 0.84087 0.63552 0.0
O20 O 0.60428 0.86434 0.65027 0.0
O21 O 0.53501 0.86292 0.63207 0.0
O22 O 0.75147 0.47862 0.93467 0.0
Cd23 Cd 0.68081 0.46196 0.89616 0.0
O24 O 0.73493 0.40205 0.94589 0.0
Cd25 Cd 0.73138 0.32834 0.97043 0.0
O26 O 0.68091 0.26772 0.98287 0.0
C27 C 0.64427 0.27809 0.99767 0.0
O28 O 0.63969 0.32315 1.00523 0.0
C29 C 0.76107 0.43978 0.95231 0.0
C30 C 0.66853 0.49603 0.80884 0.0
O31 O 0.65612 0.51794 0.84336 0.0
O32 O 0.68879 0.45925 0.8155 0.0
O33 O 0.09257 0.76135 0.46201 0.0
Cd34 Cd 0.12451 0.69148 0.4349 0.0
O35 O 0.05582 0.71297 0.51107 0.0
Cd36 Cd 1.00248 0.69823 0.55988 0.0
O37 O 0.93238 0.67708 0.5678 0.0
C38 C 0.90957 0.69087 0.53568 0.0
O39 O 0.9296 0.71784 0.50347 0.0
C40 C 0.06506 0.75476 0.49428 0.0
C41 C 0.08517 0.65403 0.35659 0.0
O42 O 0.12 0.68399 0.35467 0.0
O43 O 0.06867 0.64232 0.39552 0.0
O44 O 0.87499 0.87762 0.85439 0.0
Cd45 Cd 0.85421 0.84144 0.92928 0.0
O46 O 0.82615 0.92804 0.83971 0.0
Cd47 Cd 0.77964 0.91977 0.89852 0.0
O48 O 0.72089 0.92749 0.94208 0.0
C49 C 0.71906 0.96332 0.96764 0.0
O50 O 0.75349 0.99572 0.96938 0.0
C51 C 0.86046 0.90895 0.82873 0.0
C52 C 0.89348 0.75876 0.95466 0.0
O53 O 0.85393 0.75552 0.94053 0.0
O54 O 0.91505 0.80059 0.95576 0.0
O55 O 0.54902 0.02885 0.45115 0.0
Cd56 Cd 0.56852 0.0169 0.52985 0.0
O57 O 0.57465 0.10419 0.45932 0.0
Cd58 Cd 0.59278 0.1797 0.44012 0.0
O59 O 0.59776 0.25732 0.45125 0.0
C60 C 0.56724 0.27094 0.47528 0.0
O61 O 0.53606 0.23836 0.49013 0.0
C62 C 0.55862 0.07045 0.43412 0.0
C63 C 0.65928 0.0152 0.53464 0.0
O64 O 0.64234 0.0542 0.54045 0.0
O65 O 0.63322 0.97707 0.52748 0.0
O66 O 0.43986 0.74257 0.20544 0.0
Cd67 Cd 0.43126 0.65677 0.22456 0.0
O68 O 0.3822 0.7303 0.16273 0.0
Cd69 Cd 0.32578 0.73614 0.11831 0.0
O70 O 0.26021 0.70738 0.09387 0.0
C71 C 0.25502 0.67047 0.06923 0.0
O72 O 0.28989 0.65124 0.0562 0.0
C73 C 0.4132 0.75929 0.17853 0.0
C74 C 0.46462 0.63355 0.30861 0.0
O75 O 0.48907 0.63735 0.27325 0.0
O76 O 0.42465 0.64162 0.30427 0.0
O77 O 0.12104 0.5462 0.67514 0.0
Cd78 Cd 0.14114 0.56644 0.59719 0.0
O79 O 0.09993 0.47215 0.65618 0.0
Cd80 Cd 0.07401 0.39632 0.66504 0.0
O81 O 0.05296 0.31916 0.66301 0.0
C82 C 0.01743 0.30162 0.64467 0.0
O83 O 0.99154 0.33088 0.62723 0.0
C84 C 0.10617 0.50364 0.68658 0.0
C85 C 0.22898 0.55345 0.58849 0.0
O86 O 0.19859 0.5193 0.58098 0.0
O87 O 0.2176 0.59448 0.59836 0.0
Co88 Co 0.96865 1.01011 0.57372 0.0
C89 C 1.00653 0.92479 0.56856 0.0
Co90 Co 0.03008 1.00945 0.61132 0.0
C91 C 0.87745 0.01861 0.55557 0.0
C92 C 0.91084 0.99291 0.49897 0.0
N93 N 0.9172 1.00861 0.54138 0.0
N94 N 0.84653 1.00934 0.52378 0.0
C95 C 0.8674 0.99307 0.48816 0.0
H96 H 0.87092 0.03035 0.58925 0.0
H97 H 0.93592 0.98067 0.47777 0.0
C98 C 0.99417 0.09585 0.61532 0.0
N99 N 0.08104 1.01068 0.64395 0.0
C100 C 0.11878 0.99375 0.63234 0.0
C101 C 0.0878 0.02785 0.68581 0.0
N102 N 0.14886 0.99978 0.6653 0.0
C103 C 0.12942 0.02104 0.69907 0.0
C104 C 0.04375 0.04068 0.5218 0.0
O105 O 0.9639 0.07448 0.59144 0.0
O106 O 0.0256 0.07327 0.62761 0.0
O107 O 0.06304 0.0322 0.55839 0.0
O108 O 1.00202 0.03415 0.52122 0.0
O109 O 0.03466 0.94589 0.59476 0.0
H110 H 0.06382 0.04393 0.70553 0.0
H111 H 0.12359 0.97626 0.60077 0.0
O112 O 0.97448 0.94608 0.55546 0.0
O113 O 0.93565 0.98573 0.62692 0.0
O114 O 0.99719 0.98644 0.66356 0.0
C115 C 0.95566 0.97777 0.6632 0.0
H116 H 0.8521 0.98132 0.45688 0.0
H117 H 0.14435 0.03112 0.73098 0.0
Co118 Co 0.47132 0.0289 0.0504 0.0
C119 C 0.45909 0.95692 0.11691 0.0
Co120 Co 0.50281 0.04865 0.11504 0.0
C121 C 0.46911 1.01112 0.95639 0.0
C122 C 0.40616 0.98886 0.98591 0.0
N123 N 0.44646 1.01053 0.99557 0.0
N124 N 0.44525 0.98956 0.92293 0.0
C125 C 0.40528 0.97609 0.94109 0.0
H126 H 0.5031 0.02605 0.95282 0.0
H127 H 0.37986 0.98093 1.01027 0.0
C128 C 0.51606 0.11963 0.04849 0.0
N129 N 0.5311 0.06866 0.16831 0.0
C130 C 0.52258 0.05754 0.21229 0.0
C131 C 0.5668 0.10156 0.16893 0.0
N132 N 0.55162 0.08245 0.24003 0.0
C133 C 0.57878 0.11075 0.21243 0.0
C134 C 0.55756 1.00632 0.05616 0.0
O135 O 0.49579 0.08856 0.0233 0.0
O136 O 0.52004 0.10986 0.08981 0.0
O137 O 0.55678 0.02757 0.0936 0.0
O138 O 0.52291 1.00108 0.03289 0.0
O139 O 0.48458 0.98645 0.13957 0.0
H140 H 0.58317 0.11859 0.13953 0.0
H141 H 0.49575 0.03162 0.22362 0.0
O142 O 0.44804 0.96909 0.07748 0.0
O143 O 0.41923 0.0571 0.06936 0.0
O144 O 0.4493 0.06991 0.13564 0.0
C145 C 0.4165 0.07167 0.1098 0.0
H146 H 0.37813 0.95633 0.92385 0.0
H147 H 0.60484 0.13756 0.22252 0.0
Co148 Co 0.60457 0.56556 0.54041 0.0
C149 C 0.53752 0.57767 0.48001 0.0
Co150 Co 0.53849 0.54823 0.56934 0.0
C151 C 0.69525 0.6051 0.53577 0.0
C152 C 0.67319 0.57252 0.47398 0.0
N153 N 0.65972 0.58182 0.51592 0.0
N154 N 0.73039 0.61054 0.5079 0.0
C155 C 0.71661 0.59038 0.46888 0.0
H156 H 0.69512 0.61831 0.56981 0.0
H157 H 0.65278 0.55376 0.44882 0.0
C158 C 0.60521 0.53757 0.63017 0.0
N159 N 0.48338 0.53077 0.59349 0.0
C160 C 0.4459 0.54937 0.58411 0.0
C161 C 0.47117 0.49241 0.62045 0.0
N162 N 0.41075 0.52344 0.60327 0.0
C163 C 0.42647 0.48782 0.62655 0.0
C164 C 0.57211 0.47051 0.52988 0.0
O165 O 0.62992 0.54929 0.59635 0.0
O166 O 0.56394 0.53502 0.62556 0.0
O167 O 0.54027 0.48422 0.55158 0.0
O168 O 0.60512 0.5009 0.52074 0.0
O169 O 0.51336 0.56218 0.51316 0.0
H170 H 0.49318 0.46828 0.63344 0.0
H171 H 0.44414 0.58003 0.56202 0.0
O172 O 0.57889 0.58201 0.48467 0.0
O173 O 0.60343 0.63014 0.5603 0.0
O174 O 0.53661 0.61206 0.58679 0.0
C175 C 0.56962 0.64295 0.57963 0.0
H176 H 0.73673 0.58807 0.43909 0.0
H177 H 0.40697 0.46005 0.64594 0.0
Co178 Co 0.0161 0.50787 0.99923 0.0
C179 C 0.932 0.46802 0.03065 0.0
Co180 Co 1.00033 0.52199 0.07021 0.0
C181 C 0.0525 0.48994 0.90873 0.0
C182 C 0.98428 0.49885 0.9111 0.0
N183 N 0.01983 0.49785 0.93752 0.0
N184 N 0.038 0.48535 0.86581 0.0
C185 C 0.99519 0.49089 0.86753 0.0
H186 H 0.08603 0.48805 0.91888 0.0
H187 H 0.95227 0.50616 0.92255 0.0
C188 C 0.08349 0.56406 0.03761 0.0
N189 N 0.9935 0.53146 0.13145 0.0
C190 C 1.01268 0.56752 0.15664 0.0
C191 C 0.97292 0.49985 0.16145 0.0
N192 N 1.0057 0.55917 0.20116 0.0
C193 C 0.98019 0.51688 0.20425 0.0
C194 C 0.0433 0.43866 0.05509 0.0
O195 O 0.07271 0.54391 1.00053 0.0
O196 O 0.05719 0.55817 0.0711 0.0
O197 O 0.02656 0.46445 0.08399 0.0
O198 O 0.0419 0.45041 0.0135 0.0
O199 O 0.94296 0.48705 0.06798 0.0
H200 H 0.95563 0.46545 0.15296 0.0
H201 H 0.03237 0.59869 0.14265 0.0
O202 O 0.95958 0.47186 0.99859 0.0
O203 O 0.9906 0.5661 0.98573 0.0
O204 O 0.97464 0.57881 0.05631 0.0
C205 C 0.97417 0.59142 0.01506 0.0
H206 H 0.97368 0.4913 0.83882 0.0
H207 H 0.96964 0.49832 0.23536 0.0
C208 C 0.14175 0.0763 0.44321 0.0
C209 C 0.12271 0.0849 0.40119 0.0
C210 C 0.11606 0.06261 0.48168 0.0
C211 C 0.0699 0.05672 0.48025 0.0
H212 H 0.17706 0.07995 0.44664 0.0
H213 H 0.13279 0.05629 0.51282 0.0
S214 S 1.00314 0.07476 0.37879 0.0
N215 N 0.05431 0.08657 0.36077 0.0
N216 N 1.00612 0.06084 0.4328 0.0
C217 C 0.05025 0.06541 0.43853 0.0
C218 C 0.07653 0.07947 0.39922 0.0
C219 C 0.44931 0.97364 0.7973 0.0
C220 C 0.49067 0.95782 0.79027 0.0
C221 C 0.43441 0.98328 0.84071 0.0
C222 C 0.46076 0.97879 0.87866 0.0
H223 H 0.4287 0.98019 0.76914 0.0
H224 H 0.40248 0.99553 0.84455 0.0
S225 S 0.57206 0.93975 0.87883 0.0
N226 N 0.55783 0.93855 0.82538 0.0
N227 N 0.53021 0.95742 0.90653 0.0
C228 C 0.5024 0.96369 0.87215 0.0
C229 C 0.5173 0.95326 0.82811 0.0
C230 C 0.61539 0.52833 0.75704 0.0
C231 C 0.65557 0.50979 0.76295 0.0
C232 C 0.59956 0.53708 0.71396 0.0
C233 C 0.62375 0.52877 0.67504 0.0
H234 H 0.5952 0.53462 0.78591 0.0
H235 H 0.56803 0.55052 0.71119 0.0
S236 S 0.73241 0.48354 0.67218 0.0
N237 N 0.72002 0.48488 0.72635 0.0
N238 N 0.69097 0.50306 0.64521 0.0
C239 C 0.66477 0.51189 0.68043 0.0
C240 C 0.68045 0.50188 0.72441 0.0
C241 C 0.021 0.61164 0.31637 0.0
C242 C 0.06493 0.6326 0.31529 0.0
C243 C 1.00161 0.58891 0.27857 0.0
C244 C 0.02539 0.58608 0.23826 0.0
H245 H 1.00141 0.61253 0.34676 0.0
H246 H 0.96779 0.57305 0.28096 0.0
S247 S 0.14229 0.63253 0.21868 0.0
N248 N 0.13202 0.64805 0.27074 0.0
N249 N 0.09584 0.60437 0.20013 0.0
C250 C 0.06933 0.60698 0.23661 0.0
C251 C 0.08902 0.63045 0.27502 0.0
C252 C 0.30452 0.12036 0.11416 0.0
C253 C 0.29591 0.12338 0.16073 0.0
C254 C 0.34322 0.10352 0.09787 0.0
C255 C 0.37551 0.08977 0.12738 0.0
H256 H 0.2807 0.13005 0.09 0.0
H257 H 0.34787 0.10139 0.0618 0.0
S258 S 0.37001 0.09273 0.25248 0.0
N259 N 0.3239 0.11209 0.23604 0.0
N260 N 0.39616 0.08148 0.20582 0.0
C261 C 0.36762 0.09356 0.17401 0.0
C262 C 0.32808 0.11002 0.19053 0.0
C263 C 0.25154 0.95429 0.70695 0.0
C264 C 0.27953 0.95992 0.66899 0.0
C265 C 0.20885 0.96693 0.70527 0.0
C266 C 0.19227 0.98537 0.66553 0.0
H267 H 0.26277 0.9406 0.73855 0.0
H268 H 0.18857 0.96217 0.73534 0.0
S269 S 0.2515 1.00708 0.55659 0.0
N270 N 0.28703 0.98488 0.59007 0.0
N271 N 0.20678 1.0089 0.58735 0.0
C272 C 0.21943 0.99057 0.62711 0.0
C273 C 0.26306 0.97784 0.62875 0.0
C274 C 0.81166 0.47395 1.01221 0.0
C275 C 0.80147 0.4393 0.97904 0.0
C276 C 0.8528 0.47919 0.03312 0.0
C277 C 0.88574 0.45126 0.02019 0.0
H278 H 0.7882 0.49831 0.02091 0.0
H279 H 0.85998 0.50783 0.05687 0.0
S280 S 0.87429 0.35319 0.93747 0.0
N281 N 0.82607 0.37378 0.93724 0.0
N282 N 0.90429 0.38546 0.97451 0.0
C283 C 0.8751 0.41486 0.98878 0.0
C284 C 0.83273 0.40847 0.96863 0.0
C285 C 0.84055 0.68159 0.49117 0.0
C286 C 0.86239 0.67293 0.5315 0.0
C287 C 0.79726 0.66172 0.48411 0.0
C288 C 0.77384 0.63293 0.51724 0.0
H289 H 0.85727 0.70294 0.46419 0.0
H290 H 0.78198 0.66868 0.45231 0.0
S291 S 0.8148 0.60034 0.62934 0.0
N292 N 0.85647 0.63444 0.60571 0.0
N293 N 0.77492 0.5972 0.59213 0.0
C294 C 0.79459 0.62498 0.55822 0.0
C295 C 0.83891 0.64493 0.5654 0.0
C296 C 0.10039 0.35586 0.13242 0.0
C297 C 0.1089 0.3178 0.1046 0.0
C298 C 0.07908 0.39418 0.11608 0.0
C299 C 0.06576 0.3969 0.07084 0.0
H300 H 0.1095 0.35572 0.16759 0.0
H301 H 0.07321 0.42213 0.1393 0.0
S302 S 0.08129 0.30745 0.98322 0.0
N303 N 0.10262 0.28577 0.02898 0.0
N304 N 0.06354 0.35819 0.99813 0.0
C305 C 0.07474 0.35959 0.04231 0.0
C306 C 0.09593 0.32004 0.05918 0.0
C307 C 0.6035 0.19734 0.98297 0.0
C308 C 0.60771 0.24006 1.00752 0.0
C309 C 0.57068 0.15969 0.99375 0.0
C310 C 0.54166 0.16321 0.03004 0.0
H311 H 0.62623 0.19259 0.9558 0.0
H312 H 0.56985 0.12655 0.97545 0.0
S313 S 0.53757 0.2678 0.10366 0.0
N314 N 0.57838 0.28441 0.06819 0.0
N315 N 0.51792 0.21299 0.08931 0.0
C316 C 0.54459 0.20618 0.05384 0.0
C317 C 0.5773 0.24482 0.04234 0.0
C318 C 0.04436 0.80225 0.55945 0.0
C319 C 0.04476 0.79538 0.51266 0.0
C320 C 0.03013 0.84352 0.57763 0.0
C321 C 0.01451 0.87844 0.54971 0.0
H322 H 0.05713 0.77669 0.58199 0.0
H323 H 0.03232 0.84872 0.61367 0.0
S324 S 1.00626 0.87571 0.42529 0.0
N325 N 0.02701 0.82588 0.43892 0.0
N326 N 0.99859 0.90268 0.47326 0.0
C327 C 1.01274 0.87087 0.50308 0.0
C328 C 0.0284 0.82952 0.48448 0.0
C329 C 0.60775 0.771 0.61329 0.0
C330 C 0.56821 0.79015 0.62191 0.0
C331 C 0.60793 0.7236 0.59921 0.0
C332 C 0.5686 0.6932 0.59385 0.0
H333 H 0.63892 0.79295 0.61691 0.0
H334 H 0.63921 0.71059 0.5929 0.0
S335 S 0.45608 0.72555 0.61244 0.0
N336 N 0.48858 0.77476 0.62408 0.0
N337 N 0.4889 0.68574 0.59819 0.0
C338 C 0.5288 0.71177 0.60263 0.0
C339 C 0.52861 0.76018 0.61647 0.0
C340 C 0.86415 0.94818 0.75118 0.0
C341 C 0.8848 0.92475 0.78603 0.0
C342 C 0.8868 0.96432 0.71127 0.0
C343 C 0.93138 0.95861 0.70478 0.0
H344 H 0.83008 0.95407 0.75466 0.0
H345 H 0.86943 0.98225 0.6857 0.0
S346 S 1.00085 0.89919 0.785 0.0
N347 N 0.95266 0.8961 0.81051 0.0
N348 N 0.99504 0.92688 0.73642 0.0
C349 C 0.95234 0.93504 0.73919 0.0
C350 C 0.92917 0.91802 0.77945 0.0
C351 C 0.51674 0.06434 0.362 0.0
C352 C 0.55604 0.07744 0.38503 0.0
C353 C 0.51536 0.06636 0.31468 0.0
C354 C 0.55352 0.0802 0.28876 0.0
H355 H 0.48693 0.05249 0.3807 0.0
H356 H 0.48417 0.05709 0.29839 0.0
S357 S 0.66583 0.11124 0.33424 0.0
N358 N 0.63413 0.10192 0.37933 0.0
N359 N 0.63276 0.10245 0.29084 0.0
C360 C 0.59333 0.09184 0.31191 0.0
C361 C 0.59427 0.09124 0.35993 0.0
C362 C 0.52729 0.61647 0.35759 0.0
C363 C 0.48212 0.61959 0.35287 0.0
C364 C 0.5448 0.60288 0.39868 0.0
C365 C 0.51786 0.59143 0.43679 0.0
H366 H 0.54953 0.62474 0.32933 0.0
H367 H 0.5798 0.6012 0.40042 0.0
S368 S 0.39719 0.59369 0.44248 0.0
N369 N 0.41069 0.61004 0.39013 0.0
N370 N 0.44345 0.58422 0.46707 0.0
C371 C 0.47255 0.59425 0.43256 0.0
C372 C 0.45475 0.60842 0.39075 0.0
C373 C 0.05773 0.45958 0.74514 0.0
C374 C 0.09447 0.49242 0.73429 0.0
C375 C 0.04192 0.45421 0.78943 0.0
C376 C 0.06192 0.48174 0.82447 0.0
H377 H 0.03904 0.44041 0.719 0.0
H378 H 1.01203 0.43052 0.79594 0.0
S379 S 0.16179 0.56901 0.81467 0.0
N380 N 0.15306 0.54958 0.76291 0.0
N381 N 0.12235 0.54015 0.84612 0.0
C382 C 0.10034 0.51234 0.81473 0.0
C383 C 0.11665 0.51774 0.76956 0.0
C384 C 0.67683 1.01263 0.01861 0.0
C385 C 0.67805 0.9708 0.99308 0.0
C386 C 0.63829 0.02275 0.04054 0.0
C387 C 0.59904 0.99183 0.0375 0.0
H388 H 0.70572 0.03851 0.02108 0.0
H389 H 0.63884 0.05601 0.05859 0.0
S390 S 0.58519 0.87458 0.98065 0.0
N391 N 0.63684 0.89581 0.97035 0.0
N392 N 0.5644 0.91569 1.01051 0.0
C393 C 0.59992 0.94915 0.01359 0.0
C394 C 0.63936 0.93838 0.99176 0.0
C395 C 0.72508 0.97481 0.51539 0.0
C396 C 0.70752 0.01422 0.53412 0.0
C397 C 0.77044 0.97356 0.51218 0.0
C398 C 0.80009 1.01126 0.52821 0.0
H399 H 0.70366 0.94492 0.50231 0.0
H400 H 0.78249 0.94267 0.49728 0.0
S401 S 0.7717 0.12232 0.58079 0.0
N402 N 0.72382 0.09191 0.56931 0.0
N403 N 0.80919 0.08893 0.56363 0.0
C404 C 0.78324 0.05051 0.54767 0.0
C405 C 0.73696 0.05218 0.55046 0.0
C406 C 0.20559 0.60646 0.0302 0.0
C407 C 0.21034 0.64669 0.05841 0.0
C408 C 0.16431 0.58086 0.02218 0.0
C409 C 0.12621 0.59403 0.04258 0.0
H410 H 0.23409 0.59397 0.0147 0.0
H411 H 0.16244 0.54956 1.00113 0.0
S412 S 0.11926 0.69949 0.11473 0.0
N413 N 0.17211 0.70065 0.10351 0.0
N414 N 0.09498 0.65219 0.08879 0.0
C415 C 0.13009 0.63509 0.0694 0.0
C416 C 0.17197 0.66151 0.07718 0.0
C417 C 0.30851 0.58387 0.59562 0.0
C418 C 0.27578 0.54525 0.58857 0.0
C419 C 0.35269 0.57661 0.59957 0.0
C420 C 0.36562 0.53048 0.59722 0.0
H421 H 0.29998 0.61995 0.59883 0.0
H422 H 0.37681 0.60707 0.60571 0.0
S423 S 0.29407 0.41796 0.57481 0.0
N424 N 0.26027 0.45943 0.57629 0.0
N425 N 0.34334 0.44623 0.58388 0.0
C426 C 0.33368 0.49181 0.58875 0.0
C427 C 0.28875 0.4991 0.58432 0.0
C428 C 0.95818 0.71211 0.96192 0.0
C429 C 0.91345 0.7157 0.97015 0.0
C430 C 0.97763 0.6716 0.97624 0.0
C431 C 0.95346 0.63413 1.0008 0.0
H432 H 0.97813 0.74044 0.94359 0.0
H433 H 1.01193 0.66984 0.96854 0.0
S434 S 0.83584 0.62628 0.03209 0.0
N435 N 0.84565 0.67777 1.00421 0.0
N436 N 0.88283 0.60314 0.03294 0.0
C437 C 0.90905 0.63759 1.00989 0.0
C438 C 0.88888 0.67797 0.99408 0.0
C439 C 0.40748 0.82659 0.12286 0.0
C440 C 0.42008 0.81095 0.1655 0.0
C441 C 0.41922 0.87412 0.10792 0.0
C442 C 0.44387 0.90799 0.1351 0.0
H443 H 0.39009 0.80153 0.10004 0.0
H444 H 0.40986 0.88392 0.07425 0.0
S445 S 0.48039 0.88636 0.25185 0.0
N446 N 0.45537 0.83411 0.23623 0.0
N447 N 0.47715 0.92303 0.20843 0.0
C448 C 0.4548 0.89325 0.17868 0.0
C449 C 0.44302 0.8449 0.19376 0.0
C450 C 0.03659 0.21872 0.65844 0.0
C451 C 1.00751 0.24879 0.64018 0.0
C452 C 0.03079 0.16929 0.65163 0.0
C453 C 0.99564 0.14746 0.62614 0.0
H454 H 0.06487 0.23348 0.67741 0.0
H455 H 0.05497 0.14827 0.66561 0.0
S456 S 0.9075 0.20918 0.57448 0.0
N457 N 0.94014 0.25249 0.59809 0.0
N458 N 0.92937 0.15938 0.58521 0.0
C459 C 0.96507 0.17665 0.60932 0.0
C460 C 0.97097 0.22728 0.61633 0.0
C461 C 0.6049 0.35526 0.48028 0.0
C462 C 0.56743 0.32203 0.48797 0.0
C463 C 0.60622 0.40315 0.49373 0.0
C464 C 0.57009 0.41981 0.51535 0.0
H465 H 0.63374 0.34412 0.46425 0.0
H466 H 0.63595 0.42715 0.48739 0.0
S467 S 0.46301 0.34795 0.54108 0.0
N468 N 0.4926 0.30992 0.51709 0.0
N469 N 0.49498 0.39929 0.5422 0.0
C470 C 0.53213 0.38709 0.52251 0.0
C471 C 0.53083 0.33844 0.50888 0.0
loop_
_geom_bond_atom_site_label_1
_geom_bond_atom_site_label_2
_geom_bond_distance
_geom_bond_site_symmetry_2
_ccdc_geom_bond_type
O0 Cd1 2.300 . S
O0 C7 1.275 . S
Cd1 O0 2.300 . S
Cd1 O9 2.381 . S
Cd1 O10 2.378 . S
O2 Cd3 2.385 . S
O2 C7 1.255 . S
Cd3 O2 2.385 . S
Cd3 O4 2.317 . S
O4 Cd3 2.317 . S
O4 C5 1.232 . S
C5 O4 1.232 . S
C5 O6 1.218 . S
O6 C5 1.218 . S
C7 O0 1.275 . S
C7 O2 1.255 . S
C8 O9 1.258 . S
C8 O10 1.256 . S
O9 Cd1 2.381 . S
O9 C8 1.258 . S
O10 Cd1 2.378 . S
O10 C8 1.256 . S
O11 Cd12 2.300 . S
O11 C18 1.275 . S
Cd12 O11 2.300 . S
Cd12 O20 2.381 . S
Cd12 O21 2.378 . S
O13 Cd14 2.385 . S
O13 C18 1.255 . S
Cd14 O13 2.385 . S
Cd14 O15 2.317 . S
O15 Cd14 2.317 . S
O15 C16 1.232 . S
C16 O15 1.232 . S
C16 O17 1.218 . S
O17 C16 1.218 . S
C18 O11 1.275 . S
C18 O13 1.255 . S
C19 O20 1.258 . S
C19 O21 1.256 . S
O20 Cd12 2.381 . S
O20 C19 1.258 . S
O21 Cd12 2.378 . S
O21 C19 1.256 . S
O22 Cd23 2.300 . S
O22 C29 1.275 . S
Cd23 O22 2.300 . S
Cd23 O31 2.381 . S
Cd23 O32 2.378 . S
O24 Cd25 2.385 . S
O24 C29 1.255 . S
Cd25 O24 2.385 . S
Cd25 O26 2.317 . S
O26 Cd25 2.317 . S
O26 C27 1.232 . S
C27 O26 1.232 . S
C27 O28 1.218 . S
O28 C27 1.218 . S
C29 O22 1.275 . S
C29 O24 1.255 . S
C30 O31 1.258 . S
C30 O32 1.256 . S
O31 Cd23 2.381 . S
O31 C30 1.258 . S
O32 Cd23 2.378 . S
O32 C30 1.256 . S
O33 Cd34 2.300 . S
O33 C40 1.275 . S
Cd34 O33 2.300 . S
Cd34 O42 2.381 . S
Cd34 O43 2.378 . S
O35 Cd36 2.385 . S
O35 C40 1.255 . S
Cd36 O35 2.385 . S
Cd36 O37 2.317 . S
O37 Cd36 2.317 . S
O37 C38 1.232 . S
C38 O37 1.232 . S
C38 O39 1.218 . S
O39 C38 1.218 . S
C40 O33 1.275 . S
C40 O35 1.255 . S
C41 O42 1.258 . S
C41 O43 1.256 . S
O42 Cd34 2.381 . S
O42 C41 1.258 . S
O43 Cd34 2.378 . S
O43 C41 1.256 . S
O44 Cd45 2.300 . S
O44 C51 1.275 . S
Cd45 O44 2.300 . S
Cd45 O53 2.381 . S
Cd45 O54 2.378 1_556 S
O46 Cd47 2.385 1_565 S
O46 C51 1.255 . S
Cd47 O46 2.385 1_545 S
Cd47 O48 2.317 1_545 S
O48 Cd47 2.317 1_565 S
O48 C49 1.232 . S
C49 O48 1.232 . S
C49 O50 1.218 1_565 S
O50 C49 1.218 1_545 S
C51 O44 1.275 . S
C51 O46 1.255 . S
C52 O53 1.258 . S
C52 O54 1.256 1_556 S
O53 Cd45 2.381 . S
O53 C52 1.258 . S
O54 Cd45 2.378 1_554 S
O54 C52 1.256 1_554 S
O55 Cd56 2.300 . S
O55 C62 1.275 . S
Cd56 O55 2.300 . S
Cd56 O64 2.381 . S
Cd56 O65 2.378 . S
O57 Cd58 2.385 . S
O57 C62 1.255 . S
Cd58 O57 2.385 . S
Cd58 O59 2.317 . S
O59 Cd58 2.317 . S
O59 C60 1.232 . S
C60 O59 1.232 . S
C60 O61 1.218 . S
O61 C60 1.218 . S
C62 O55 1.275 . S
C62 O57 1.255 . S
C63 O64 1.258 . S
C63 O65 1.256 . S
O64 Cd56 2.381 . S
O64 C63 1.258 . S
O65 Cd56 2.378 . S
O65 C63 1.256 . S
O66 Cd67 2.300 . S
O66 C73 1.275 . S
Cd67 O66 2.300 . S
Cd67 O75 2.381 . S
Cd67 O76 2.378 . S
O68 Cd69 2.385 . S
O68 C73 1.255 . S
Cd69 O68 2.385 . S
Cd69 O70 2.317 . S
O70 Cd69 2.317 . S
O70 C71 1.232 . S
C71 O70 1.232 . S
C71 O72 1.218 . S
O72 C71 1.218 . S
C73 O66 1.275 . S
C73 O68 1.255 . S
C74 O75 1.258 . S
C74 O76 1.256 . S
O75 Cd67 2.381 . S
O75 C74 1.258 . S
O76 Cd67 2.378 . S
O76 C74 1.256 . S
O77 Cd78 2.300 . S
O77 C84 1.275 . S
Cd78 O77 2.300 . S
Cd78 O86 2.381 . S
Cd78 O87 2.378 . S
O79 Cd80 2.385 . S
O79 C84 1.255 . S
Cd80 O79 2.385 . S
Cd80 O81 2.317 . S
O81 Cd80 2.317 . S
O81 C82 1.232 . S
C82 O81 1.232 . S
C82 O83 1.218 . S
O83 C82 1.218 . S
C84 O77 1.275 . S
C84 O79 1.255 . S
C85 O86 1.258 . S
C85 O87 1.256 . S
O86 Cd78 2.381 . S
O86 C85 1.258 . S
O87 Cd78 2.378 . S
O87 C85 1.256 . S
Co88 N93 2.057 . S
Co88 O105 2.021 . S
Co88 O108 2.062 . S
Co88 O112 2.117 1_545 S
Co88 O113 2.020 1_545 S
C89 O109 1.259 1_655 S
C89 O112 1.258 . S
Co90 N99 2.057 . S
Co90 O106 2.117 1_565 S
Co90 O107 2.020 1_565 S
Co90 O109 2.021 . S
Co90 O114 2.062 . S
C91 N93 1.316 . S
C91 N94 1.347 . S
C91 H96 0.931 . S
C92 N93 1.375 1_565 S
C92 C95 1.350 . S
C92 H97 0.930 . S
N93 Co88 2.057 . S
N93 C91 1.316 . S
N93 C92 1.375 1_545 S
N94 C91 1.347 . S
N94 C95 1.373 1_545 S
C95 C92 1.350 . S
C95 N94 1.373 1_565 S
C95 H116 0.931 . S
H96 C91 0.931 . S
H97 C92 0.930 . S
C98 O105 1.259 1_455 S
C98 O106 1.258 . S
N99 Co90 2.057 . S
N99 C100 1.316 . S
N99 C101 1.375 1_565 S
C100 N99 1.316 . S
C100 N102 1.347 . S
C100 H111 0.931 . S
C101 N99 1.375 1_545 S
C101 C103 1.350 . S
C101 H110 0.930 . S
N102 C100 1.347 . S
N102 C103 1.373 1_565 S
C103 C101 1.350 . S
C103 N102 1.373 1_545 S
C103 H117 0.931 . S
C104 O107 1.256 . S
C104 O108 1.255 1_455 S
O105 Co88 2.021 . S
O105 C98 1.259 1_655 S
O106 Co90 2.117 1_545 S
O106 C98 1.258 . S
O107 Co90 2.020 1_545 S
O107 C104 1.256 . S
O108 Co88 2.062 . S
O108 C104 1.255 1_655 S
O109 C89 1.259 1_455 S
O109 Co90 2.021 . S
H110 C101 0.930 . S
H111 C100 0.931 . S
O112 Co88 2.117 1_565 S
O112 C89 1.258 . S
O113 Co88 2.020 1_565 S
O113 C115 1.256 . S
O114 Co90 2.062 . S
O114 C115 1.255 1_455 S
C115 O113 1.256 . S
C115 O114 1.255 1_655 S
H116 C95 0.931 . S
H117 C103 0.931 . S
Co118 N123 2.057 1_544 S
Co118 O135 2.021 1_554 S
Co118 O138 2.062 . S
Co118 O142 2.117 1_545 S
Co118 O143 2.020 . S
C119 O139 1.259 . S
C119 O142 1.258 . S
Co120 N129 2.057 . S
Co120 O136 2.117 . S
Co120 O137 2.020 . S
Co120 O139 2.021 1_545 S
Co120 O144 2.062 . S
C121 N123 1.316 . S
C121 N124 1.347 . S
C121 H126 0.931 1_565 S
C122 N123 1.375 . S
C122 C125 1.350 . S
C122 H127 0.930 . S
N123 Co118 2.057 1_566 S
N123 C121 1.316 . S
N123 C122 1.375 . S
N124 C121 1.347 . S
N124 C125 1.373 . S
C125 C122 1.350 . S
C125 N124 1.373 . S
C125 H146 0.931 . S
H126 C121 0.931 1_545 S
H127 C122 0.930 . S
C128 O135 1.259 1_554 S
C128 O136 1.258 . S
N129 Co120 2.057 . S
N129 C130 1.316 . S
N129 C131 1.375 . S
C130 N129 1.316 . S
C130 N132 1.347 . S
C130 H141 0.931 . S
C131 N129 1.375 . S
C131 C133 1.350 . S
C131 H140 0.930 . S
N132 C130 1.347 . S
N132 C133 1.373 . S
C133 C131 1.350 . S
C133 N132 1.373 . S
C133 H147 0.931 . S
C134 O137 1.256 . S
C134 O138 1.255 . S
O135 Co118 2.021 1_556 S
O135 C128 1.259 1_556 S
O136 Co120 2.117 . S
O136 C128 1.258 . S
O137 Co120 2.020 . S
O137 C134 1.256 . S
O138 Co118 2.062 . S
O138 C134 1.255 . S
O139 C119 1.259 . S
O139 Co120 2.021 1_565 S
H140 C131 0.930 . S
H141 C130 0.931 . S
O142 Co118 2.117 1_565 S
O142 C119 1.258 . S
O143 Co118 2.020 . S
O143 C145 1.256 . S
O144 Co120 2.062 . S
O144 C145 1.255 . S
C145 O143 1.256 . S
C145 O144 1.255 . S
H146 C125 0.931 . S
H147 C133 0.931 . S
Co148 N153 2.057 . S
Co148 O165 2.021 . S
Co148 O168 2.062 . S
Co148 O172 2.117 . S
Co148 O173 2.020 . S
C149 O169 1.259 . S
C149 O172 1.258 . S
Co150 N159 2.057 . S
Co150 O166 2.117 . S
Co150 O167 2.020 . S
Co150 O169 2.021 . S
Co150 O174 2.062 . S
C151 N153 1.316 . S
C151 N154 1.347 . S
C151 H156 0.931 . S
C152 N153 1.375 . S
C152 C155 1.350 . S
C152 H157 0.930 . S
N153 Co148 2.057 . S
N153 C151 1.316 . S
N153 C152 1.375 . S
N154 C151 1.347 . S
N154 C155 1.373 . S
C155 C152 1.350 . S
C155 N154 1.373 . S
C155 H176 0.931 . S
H156 C151 0.931 . S
H157 C152 0.930 . S
C158 O165 1.259 . S
C158 O166 1.258 . S
N159 Co150 2.057 . S
N159 C160 1.316 . S
N159 C161 1.375 . S
C160 N159 1.316 . S
C160 N162 1.347 . S
C160 H171 0.931 . S
C161 N159 1.375 . S
C161 C163 1.350 . S
C161 H170 0.930 . S
N162 C160 1.347 . S
N162 C163 1.373 . S
C163 C161 1.350 . S
C163 N162 1.373 . S
C163 H177 0.931 . S
C164 O167 1.256 . S
C164 O168 1.255 . S
O165 Co148 2.021 . S
O165 C158 1.259 . S
O166 Co150 2.117 . S
O166 C158 1.258 . S
O167 Co150 2.020 . S
O167 C164 1.256 . S
O168 Co148 2.062 . S
O168 C164 1.255 . S
O169 C149 1.259 . S
O169 Co150 2.021 . S
H170 C161 0.930 . S
H171 C160 0.931 . S
O172 Co148 2.117 . S
O172 C149 1.258 . S
O173 Co148 2.020 . S
O173 C175 1.256 . S
O174 Co150 2.062 . S
O174 C175 1.255 . S
C175 O173 1.256 . S
C175 O174 1.255 . S
H176 C155 0.931 . S
H177 C163 0.931 . S
Co178 N183 2.057 . S
Co178 O195 2.021 . S
Co178 O198 2.062 1_556 S
Co178 O202 2.117 1_455 S
Co178 O203 2.020 . S
C179 O199 1.259 . S
C179 O202 1.258 1_554 S
Co180 N189 2.058 . S
Co180 O196 2.117 . S
Co180 O197 2.020 . S
Co180 O199 2.021 1_455 S
Co180 O204 2.062 1_455 S
C181 N183 1.316 . S
C181 N184 1.347 . S
C181 H186 0.931 . S
C182 N183 1.375 . S
C182 C185 1.350 . S
C182 H187 0.930 1_455 S
N183 Co178 2.057 . S
N183 C181 1.316 . S
N183 C182 1.375 . S
N184 C181 1.347 . S
N184 C185 1.373 . S
C185 C182 1.350 . S
C185 N184 1.373 . S
C185 H206 0.931 . S
H186 C181 0.931 . S
H187 C182 0.930 1_655 S
C188 O195 1.259 1_554 S
C188 O196 1.258 . S
N189 Co180 2.058 . S
N189 C190 1.308 1_455 S
N189 C191 1.382 . S
C190 N189 1.308 1_655 S
C190 N192 1.347 . S
C190 H201 0.931 . S
C191 N189 1.382 . S
C191 C193 1.350 . S
C191 H200 0.930 . S
N192 C190 1.347 . S
N192 C193 1.373 1_655 S
C193 C191 1.350 . S
C193 N192 1.373 1_455 S
C193 H207 0.931 . S
C194 O197 1.256 . S
C194 O198 1.255 . S
O195 Co178 2.021 . S
O195 C188 1.259 1_556 S
O196 Co180 2.117 . S
O196 C188 1.258 . S
O197 Co180 2.020 . S
O197 C194 1.256 . S
O198 Co178 2.062 1_554 S
O198 C194 1.255 . S
O199 C179 1.259 . S
O199 Co180 2.021 1_655 S
H200 C191 0.930 . S
H201 C190 0.931 . S
O202 Co178 2.117 1_655 S
O202 C179 1.258 1_556 S
O203 Co178 2.020 . S
O203 C205 1.236 1_456 S
O204 Co180 2.062 1_655 S
O204 C205 1.278 . S
C205 O203 1.236 1_654 S
C205 O204 1.278 . S
H206 C185 0.931 . S
H207 C193 0.931 . S
C208 C209 1.369 . S
C208 C210 1.419 . S
C208 H212 0.930 1_545 S
C209 C208 1.369 . S
C209 C218 1.429 . S
C210 C208 1.419 . S
C210 C211 1.363 . S
C210 H213 0.929 1_545 S
C211 C210 1.363 . S
C211 C217 1.428 . S
H212 C208 0.930 1_565 S
H213 C210 0.929 1_565 S
S214 N215 1.613 . S
S214 N216 1.610 . S
N215 S214 1.613 . S
N215 C218 1.350 . S
N216 S214 1.610 . S
N216 C217 1.351 . S
C217 C211 1.428 . S
C217 N216 1.351 . S
C217 C218 1.434 . S
C218 C209 1.429 . S
C218 N215 1.350 . S
C218 C217 1.434 . S
C219 C220 1.369 . S
C219 C221 1.419 . S
C219 H223 0.930 . S
C220 C219 1.369 . S
C220 C229 1.429 . S
C221 C219 1.419 . S
C221 C222 1.363 . S
C221 H224 0.929 . S
C222 C221 1.363 . S
C222 C228 1.428 . S
H223 C219 0.930 . S
H224 C221 0.929 . S
S225 N226 1.613 1_545 S
S225 N227 1.610 . S
N226 S225 1.613 1_565 S
N226 C229 1.350 . S
N227 S225 1.610 . S
N227 C228 1.351 1_545 S
C228 C222 1.428 . S
C228 N227 1.351 1_565 S
C228 C229 1.434 . S
C229 C220 1.429 . S
C229 N226 1.350 . S
C229 C228 1.434 . S
C230 C231 1.369 . S
C230 C232 1.419 . S
C230 H234 0.930 . S
C231 C230 1.369 . S
C231 C240 1.429 . S
C232 C230 1.419 . S
C232 C233 1.363 . S
C232 H235 0.929 . S
C233 C232 1.363 . S
C233 C239 1.428 . S
H234 C230 0.930 . S
H235 C232 0.929 . S
S236 N237 1.613 . S
S236 N238 1.610 . S
N237 S236 1.613 . S
N237 C240 1.350 . S
N238 S236 1.610 . S
N238 C239 1.351 . S
C239 C233 1.428 . S
C239 N238 1.351 . S
C239 C240 1.434 . S
C240 C231 1.429 . S
C240 N237 1.350 . S
C240 C239 1.434 . S
C241 C242 1.369 . S
C241 C243 1.419 . S
C241 H245 0.930 . S
C242 C241 1.369 . S
C242 C251 1.429 1_655 S
C243 C241 1.419 . S
C243 C244 1.363 . S
C243 H246 0.929 . S
C244 C243 1.363 . S
C244 C250 1.428 1_655 S
H245 C241 0.930 . S
H246 C243 0.929 . S
S247 N248 1.613 . S
S247 N249 1.610 . S
N248 S247 1.613 . S
N248 C251 1.350 . S
N249 S247 1.610 . S
N249 C250 1.351 . S
C250 C244 1.428 1_455 S
C250 N249 1.351 . S
C250 C251 1.434 . S
C251 C242 1.429 1_455 S
C251 N248 1.350 . S
C251 C250 1.434 . S
C252 C253 1.369 . S
C252 C254 1.419 . S
C252 H256 0.930 . S
C253 C252 1.369 . S
C253 C262 1.429 . S
C254 C252 1.419 . S
C254 C255 1.363 . S
C254 H257 0.929 . S
C255 C254 1.363 . S
C255 C261 1.428 . S
H256 C252 0.930 . S
H257 C254 0.929 . S
S258 N259 1.613 . S
S258 N260 1.610 . S
N259 S258 1.613 . S
N259 C262 1.350 . S
N260 S258 1.610 . S
N260 C261 1.351 . S
C261 C255 1.428 . S
C261 N260 1.351 . S
C261 C262 1.434 . S
C262 C253 1.429 . S
C262 N259 1.350 . S
C262 C261 1.434 . S
C263 C264 1.369 . S
C263 C265 1.419 . S
C263 H267 0.930 . S
C264 C263 1.369 . S
C264 C273 1.429 . S
C265 C263 1.419 . S
C265 C266 1.363 . S
C265 H268 0.929 . S
C266 C265 1.363 . S
C266 C272 1.428 . S
H267 C263 0.930 . S
H268 C265 0.929 . S
S269 N270 1.613 . S
S269 N271 1.610 . S
N270 S269 1.613 . S
N270 C273 1.350 1_545 S
N271 S269 1.610 . S
N271 C272 1.351 1_545 S
C272 C266 1.428 . S
C272 N271 1.351 1_565 S
C272 C273 1.434 . S
C273 C264 1.429 . S
C273 N270 1.350 1_565 S
C273 C272 1.434 . S
C274 C275 1.369 1_554 S
C274 C276 1.419 . S
C274 H278 0.930 . S
C275 C274 1.369 1_556 S
C275 C284 1.429 . S
C276 C274 1.419 . S
C276 C277 1.363 1_554 S
C276 H279 0.929 . S
C277 C276 1.363 1_556 S
C277 C283 1.428 . S
H278 C274 0.930 . S
H279 C276 0.929 . S
S280 N281 1.613 . S
S280 N282 1.610 . S
N281 S280 1.613 . S
N281 C284 1.350 . S
N282 S280 1.610 . S
N282 C283 1.351 . S
C283 C277 1.428 . S
C283 N282 1.351 . S
C283 C284 1.434 . S
C284 C275 1.429 . S
C284 N281 1.350 . S
C284 C283 1.434 . S
C285 C286 1.369 . S
C285 C287 1.419 . S
C285 H289 0.930 . S
C286 C285 1.369 . S
C286 C295 1.429 . S
C287 C285 1.419 . S
C287 C288 1.363 . S
C287 H290 0.929 . S
C288 C287 1.363 . S
C288 C294 1.428 . S
H289 C285 0.930 . S
H290 C287 0.929 . S
S291 N292 1.613 . S
S291 N293 1.610 . S
N292 S291 1.613 . S
N292 C295 1.350 . S
N293 S291 1.610 . S
N293 C294 1.351 . S
C294 C288 1.428 . S
C294 N293 1.351 . S
C294 C295 1.434 . S
C295 C286 1.429 . S
C295 N292 1.350 . S
C295 C294 1.434 . S
C296 C297 1.369 . S
C296 C298 1.419 . S
C296 H300 0.930 . S
C297 C296 1.369 . S
C297 C306 1.429 . S
C298 C296 1.419 . S
C298 C299 1.363 . S
C298 H301 0.929 . S
C299 C298 1.363 . S
C299 C305 1.428 . S
H300 C296 0.930 . S
H301 C298 0.929 . S
S302 N303 1.614 1_655 S
S302 N304 1.610 . S
N303 S302 1.614 1_455 S
N303 C306 1.349 . S
N304 S302 1.610 . S
N304 C305 1.351 1_655 S
C305 C299 1.428 . S
C305 N304 1.351 1_455 S
C305 C306 1.434 . S
C306 C297 1.429 . S
C306 N303 1.349 . S
C306 C305 1.434 . S
C307 C308 1.369 1_556 S
C307 C309 1.419 . S
C307 H311 0.930 . S
C308 C307 1.369 1_554 S
C308 C317 1.429 . S
C309 C307 1.419 . S
C309 C310 1.363 1_556 S
C309 H312 0.929 . S
C310 C309 1.363 1_554 S
C310 C316 1.428 . S
H311 C307 0.930 . S
H312 C309 0.929 . S
S313 N314 1.613 . S
S313 N315 1.610 . S
N314 S313 1.613 . S
N314 C317 1.350 . S
N315 S313 1.610 . S
N315 C316 1.351 . S
C316 C310 1.428 . S
C316 N315 1.351 . S
C316 C317 1.434 . S
C317 C308 1.429 . S
C317 N314 1.350 . S
C317 C316 1.434 . S
C318 C319 1.369 . S
C318 C320 1.419 . S
C318 H322 0.930 1_655 S
C319 C318 1.369 . S
C319 C328 1.429 . S
C320 C318 1.419 . S
C320 C321 1.363 . S
C320 H323 0.929 1_655 S
C321 C320 1.363 . S
C321 C327 1.428 . S
H322 C318 0.930 1_455 S
H323 C320 0.929 1_455 S
S324 N325 1.613 . S
S324 N326 1.610 . S
N325 S324 1.613 . S
N325 C328 1.350 . S
N326 S324 1.610 . S
N326 C327 1.351 . S
C327 C321 1.428 . S
C327 N326 1.351 . S
C327 C328 1.434 . S
C328 C319 1.429 . S
C328 N325 1.350 . S
C328 C327 1.434 . S
C329 C330 1.369 . S
C329 C331 1.419 . S
C329 H333 0.930 . S
C330 C329 1.369 . S
C330 C339 1.429 . S
C331 C329 1.419 . S
C331 C332 1.363 . S
C331 H334 0.929 . S
C332 C331 1.363 . S
C332 C338 1.428 . S
H333 C329 0.930 . S
H334 C331 0.929 . S
S335 N336 1.613 . S
S335 N337 1.610 . S
N336 S335 1.613 . S
N336 C339 1.350 . S
N337 S335 1.610 . S
N337 C338 1.351 . S
C338 C332 1.428 . S
C338 N337 1.351 . S
C338 C339 1.434 . S
C339 C330 1.429 . S
C339 N336 1.350 . S
C339 C338 1.434 . S
C340 C341 1.369 . S
C340 C342 1.419 . S
C340 H344 0.930 1_565 S
C341 C340 1.369 . S
C341 C350 1.429 . S
C342 C340 1.419 . S
C342 C343 1.363 . S
C342 H345 0.929 1_565 S
C343 C342 1.363 . S
C343 C349 1.428 . S
H344 C340 0.930 1_545 S
H345 C342 0.929 1_545 S
S346 N347 1.613 . S
S346 N348 1.610 . S
N347 S346 1.613 . S
N347 C350 1.350 . S
N348 S346 1.610 . S
N348 C349 1.351 . S
C349 C343 1.428 . S
C349 N348 1.351 . S
C349 C350 1.434 . S
C350 C341 1.429 . S
C350 N347 1.350 . S
C350 C349 1.434 . S
C351 C352 1.369 . S
C351 C353 1.419 . S
C351 H355 0.930 . S
C352 C351 1.369 . S
C352 C361 1.429 . S
C353 C351 1.419 . S
C353 C354 1.363 . S
C353 H356 0.929 . S
C354 C353 1.363 . S
C354 C360 1.428 . S
H355 C351 0.930 . S
H356 C353 0.929 . S
S357 N358 1.613 . S
S357 N359 1.610 . S
N358 S357 1.613 . S
N358 C361 1.350 . S
N359 S357 1.610 . S
N359 C360 1.351 . S
C360 C354 1.428 . S
C360 N359 1.351 . S
C360 C361 1.434 . S
C361 C352 1.429 . S
C361 N358 1.350 . S
C361 C360 1.434 . S
C362 C363 1.369 . S
C362 C364 1.419 . S
C362 H366 0.930 . S
C363 C362 1.369 . S
C363 C372 1.429 . S
C364 C362 1.419 . S
C364 C365 1.363 . S
C364 H367 0.929 . S
C365 C364 1.363 . S
C365 C371 1.428 . S
H366 C362 0.930 . S
H367 C364 0.929 . S
S368 N369 1.613 . S
S368 N370 1.610 . S
N369 S368 1.613 . S
N369 C372 1.350 . S
N370 S368 1.610 . S
N370 C371 1.351 . S
C371 C365 1.428 . S
C371 N370 1.351 . S
C371 C372 1.434 . S
C372 C363 1.429 . S
C372 N369 1.350 . S
C372 C371 1.434 . S
C373 C374 1.369 . S
C373 C375 1.419 . S
C373 H377 0.930 . S
C374 C373 1.369 . S
C374 C383 1.429 . S
C375 C373 1.419 . S
C375 C376 1.363 . S
C375 H378 0.929 . S
C376 C375 1.363 . S
C376 C382 1.428 . S
H377 C373 0.930 . S
H378 C375 0.929 . S
S379 N380 1.613 . S
S379 N381 1.610 . S
N380 S379 1.613 . S
N380 C383 1.350 . S
N381 S379 1.610 . S
N381 C382 1.351 . S
C382 C376 1.428 . S
C382 N381 1.351 . S
C382 C383 1.434 . S
C383 C374 1.429 . S
C383 N380 1.350 . S
C383 C382 1.434 . S
C384 C385 1.369 1_554 S
C384 C386 1.419 . S
C384 H388 0.930 . S
C385 C384 1.369 1_556 S
C385 C394 1.429 . S
C386 C384 1.419 . S
C386 C387 1.363 . S
C386 H389 0.929 . S
C387 C386 1.363 . S
C387 C393 1.428 1_554 S
H388 C384 0.930 . S
H389 C386 0.929 . S
S390 N391 1.613 . S
S390 N392 1.610 . S
N391 S390 1.613 . S
N391 C394 1.350 . S
N392 S390 1.610 . S
N392 C393 1.351 . S
C393 C387 1.428 1_556 S
C393 N392 1.351 . S
C393 C394 1.434 . S
C394 C385 1.429 . S
C394 N391 1.350 . S
C394 C393 1.434 . S
C395 C396 1.369 . S
C395 C397 1.419 . S
C395 H399 0.930 . S
C396 C395 1.369 . S
C396 C405 1.429 . S
C397 C395 1.419 . S
C397 C398 1.363 . S
C397 H400 0.929 . S
C398 C397 1.363 . S
C398 C404 1.428 . S
H399 C395 0.930 . S
H400 C397 0.929 . S
S401 N402 1.613 . S
S401 N403 1.610 . S
N402 S401 1.613 . S
N402 C405 1.350 . S
N403 S401 1.610 . S
N403 C404 1.351 . S
C404 C398 1.428 . S
C404 N403 1.351 . S
C404 C405 1.434 . S
C405 C396 1.429 . S
C405 N402 1.350 . S
C405 C404 1.434 . S
C406 C407 1.369 . S
C406 C408 1.419 . S
C406 H410 0.930 . S
C407 C406 1.369 . S
C407 C416 1.429 . S
C408 C406 1.419 . S
C408 C409 1.363 . S
C408 H411 0.929 . S
C409 C408 1.363 . S
C409 C415 1.428 . S
H410 C406 0.930 . S
H411 C408 0.929 . S
S412 N413 1.613 . S
S412 N414 1.610 . S
N413 S412 1.613 . S
N413 C416 1.350 . S
N414 S412 1.610 . S
N414 C415 1.351 . S
C415 C409 1.428 . S
C415 N414 1.351 . S
C415 C416 1.434 . S
C416 C407 1.429 . S
C416 N413 1.350 . S
C416 C415 1.434 . S
C417 C418 1.369 . S
C417 C419 1.419 . S
C417 H421 0.930 . S
C418 C417 1.369 . S
C418 C427 1.429 . S
C419 C417 1.419 . S
C419 C420 1.363 . S
C419 H422 0.929 . S
C420 C419 1.363 . S
C420 C426 1.428 . S
H421 C417 0.930 . S
H422 C419 0.929 . S
S423 N424 1.613 . S
S423 N425 1.610 . S
N424 S423 1.613 . S
N424 C427 1.350 . S
N425 S423 1.610 . S
N425 C426 1.351 . S
C426 C420 1.428 . S
C426 N425 1.351 . S
C426 C427 1.434 . S
C427 C418 1.429 . S
C427 N424 1.350 . S
C427 C426 1.434 . S
C428 C429 1.369 . S
C428 C430 1.419 1_655 S
C428 H432 0.930 1_655 S
C429 C428 1.369 . S
C429 C438 1.429 . S
C430 C428 1.419 1_455 S
C430 C431 1.363 1_455 S
C430 H433 0.929 . S
C431 C430 1.363 1_655 S
C431 C437 1.428 1_556 S
H432 C428 0.930 1_455 S
H433 C430 0.929 . S
S434 N435 1.613 . S
S434 N436 1.610 . S
N435 S434 1.613 . S
N435 C438 1.350 1_554 S
N436 S434 1.610 . S
N436 C437 1.351 . S
C437 C431 1.428 1_554 S
C437 N436 1.351 . S
C437 C438 1.434 1_554 S
C438 C429 1.429 . S
C438 N435 1.350 1_556 S
C438 C437 1.434 1_556 S
C439 C440 1.369 . S
C439 C441 1.419 . S
C439 H443 0.930 . S
C440 C439 1.369 . S
C440 C449 1.429 . S
C441 C439 1.419 . S
C441 C442 1.363 . S
C441 H444 0.929 . S
C442 C441 1.363 . S
C442 C448 1.428 . S
H443 C439 0.930 . S
H444 C441 0.929 . S
S445 N446 1.613 . S
S445 N447 1.610 . S
N446 S445 1.613 . S
N446 C449 1.350 . S
N447 S445 1.610 . S
N447 C448 1.351 . S
C448 C442 1.428 . S
C448 N447 1.351 . S
C448 C449 1.434 . S
C449 C440 1.429 . S
C449 N446 1.350 . S
C449 C448 1.434 . S
C450 C451 1.369 . S
C450 C452 1.419 . S
C450 H454 0.930 . S
C451 C450 1.369 . S
C451 C460 1.429 1_455 S
C452 C450 1.419 . S
C452 C453 1.363 . S
C452 H455 0.929 . S
C453 C452 1.363 . S
C453 C459 1.428 1_455 S
H454 C450 0.930 . S
H455 C452 0.929 . S
S456 N457 1.613 . S
S456 N458 1.610 . S
N457 S456 1.613 . S
N457 C460 1.350 . S
N458 S456 1.610 . S
N458 C459 1.351 . S
C459 C453 1.428 1_655 S
C459 N458 1.351 . S
C459 C460 1.434 . S
C460 C451 1.429 1_655 S
C460 N457 1.350 . S
C460 C459 1.434 . S
C461 C462 1.369 . S
C461 C463 1.419 . S
C461 H465 0.930 . S
C462 C461 1.369 . S
C462 C471 1.429 . S
C463 C461 1.419 . S
C463 C464 1.363 . S
C463 H466 0.929 . S
C464 C463 1.363 . S
C464 C470 1.428 . S
H465 C461 0.930 . S
H466 C463 0.929 . S
S467 N468 1.613 . S
S467 N469 1.610 . S
N468 S467 1.613 . S
N468 C471 1.350 . S
N469 S467 1.610 . S
N469 C470 1.351 . S
C470 C464 1.428 . S
C470 N469 1.351 . S
C470 C471 1.434 . S
C471 C462 1.429 . S
C471 N468 1.350 . S
C471 C470 1.434 . S
C209 C5 2.348 . S
C211 C104 2.456 . S
C220 C18 1.117 . S
C222 N124 1.160 . S
C233 C158 1.812 . S
C231 C30 1.761 . S
C242 C41 1.297 . S
C244 N192 1.171 . S
C255 C145 2.574 . S
C253 C7 2.506 . S
C266 N102 1.290 . S
C264 C16 1.051 . S
C277 C179 2.118 1_556 S
C275 C29 1.990 . S
C288 N154 0.929 . S
C286 C38 0.912 . S
C297 C8 1.902 . S
C299 C194 1.904 . S
C310 C128 1.875 . S
C308 C27 1.564 1_554 S
C319 C40 1.414 . S
C321 C89 1.390 . S
C330 C19 1.066 . S
C332 C175 1.119 . S
C343 C115 2.241 . S
C341 C51 2.138 . S
C352 C62 1.164 . S
C354 N132 1.245 . S
C363 C74 1.843 . S
C365 C149 1.899 . S
C374 C84 1.116 . S
C376 N184 1.200 . S
C385 C49 2.427 . S
C387 C134 2.559 1_565 S
C398 N94 1.106 . S
C396 C63 1.089 . S
C409 C188 1.942 . S
C407 C71 1.610 . S
C420 N162 0.934 . S
C418 C85 0.889 . S
C429 C52 1.837 . S
C431 C205 1.832 1_556 S
C442 C119 1.940 . S
C440 C73 1.777 . S
C453 C98 1.327 . S
C451 C82 0.964 . S
C462 C60 1.261 . S
C464 C164 1.615 . S
