# Generated by pormake.
# Topology ocu, (6,8)-cn, num edge types: 1
# Building blocks:
#     Node 0, Type 0, BuildingBlock: VOLQOD_clean_sbu_1, # of connection points: 6
#     Node 1, Type 0, BuildingBlock: VOLQOD_clean_sbu_1, # of connection points: 6
#     Node 2, Type 0, BuildingBlock: VOLQOD_clean_sbu_1, # of connection points: 6
#     Node 3, Type 0, BuildingBlock: VOLQOD_clean_sbu_1, # of connection points: 6
#     Node 4, Type 0, BuildingBlock: VOLQOD_clean_sbu_1, # of connection points: 6
#     Node 5, Type 0, BuildingBlock: VOLQOD_clean_sbu_1, # of connection points: 6
#     Node 6, Type 0, BuildingBlock: VOLQOD_clean_sbu_1, # of connection points: 6
#     Node 7, Type 0, BuildingBlock: VOLQOD_clean_sbu_1, # of connection points: 6
#     Node 8, Type 1, BuildingBlock: GIZVER_clean_sbu_0, # of connection points: 8
#     Node 9, Type 1, BuildingBlock: GIZVER_clean_sbu_0, # of connection points: 8
#     Node 10, Type 1, BuildingBlock: GIZVER_clean_sbu_0, # of connection points: 8
#     Node 11, Type 1, BuildingBlock: GIZVER_clean_sbu_0, # of connection points: 8
#     Node 12, Type 1, BuildingBlock: GIZVER_clean_sbu_0, # of connection points: 8
#     Node 13, Type 1, BuildingBlock: GIZVER_clean_sbu_0, # of connection points: 8
#     Edge 14, Type (0, 1), BuildingBlock: EZIPEK_clean_linker_0, # of connection points: 2
#     Edge 15, Type (0, 1), BuildingBlock: EZIPEK_clean_linker_0, # of connection points: 2
#     Edge 16, Type (0, 1), BuildingBlock: EZIPEK_clean_linker_0, # of connection points: 2
#     Edge 17, Type (0, 1), BuildingBlock: EZIPEK_clean_linker_0, # of connection points: 2
#     Edge 18, Type (0, 1), BuildingBlock: EZIPEK_clean_linker_0, # of connection points: 2
#     Edge 19, Type (0, 1), BuildingBlock: EZIPEK_clean_linker_0, # of connection points: 2
#     Edge 20, Type (0, 1), BuildingBlock: EZIPEK_clean_linker_0, # of connection points: 2
#     Edge 21, Type (0, 1), BuildingBlock: EZIPEK_clean_linker_0, # of connection points: 2
#     Edge 22, Type (0, 1), BuildingBlock: EZIPEK_clean_linker_0, # of connection points: 2
#     Edge 23, Type (0, 1), BuildingBlock: EZIPEK_clean_linker_0, # of connection points: 2
#     Edge 24, Type (0, 1), BuildingBlock: EZIPEK_clean_linker_0, # of connection points: 2
#     Edge 25, Type (0, 1), BuildingBlock: EZIPEK_clean_linker_0, # of connection points: 2
#     Edge 26, Type (0, 1), BuildingBlock: EZIPEK_clean_linker_0, # of connection points: 2
#     Edge 27, Type (0, 1), BuildingBlock: EZIPEK_clean_linker_0, # of connection points: 2
#     Edge 28, Type (0, 1), BuildingBlock: EZIPEK_clean_linker_0, # of connection points: 2
#     Edge 29, Type (0, 1), BuildingBlock: EZIPEK_clean_linker_0, # of connection points: 2
#     Edge 30, Type (0, 1), BuildingBlock: EZIPEK_clean_linker_0, # of connection points: 2
#     Edge 31, Type (0, 1), BuildingBlock: EZIPEK_clean_linker_0, # of connection points: 2
#     Edge 32, Type (0, 1), BuildingBlock: EZIPEK_clean_linker_0, # of connection points: 2
#     Edge 33, Type (0, 1), BuildingBlock: EZIPEK_clean_linker_0, # of connection points: 2
#     Edge 34, Type (0, 1), BuildingBlock: EZIPEK_clean_linker_0, # of connection points: 2
#     Edge 35, Type (0, 1), BuildingBlock: EZIPEK_clean_linker_0, # of connection points: 2
#     Edge 36, Type (0, 1), BuildingBlock: EZIPEK_clean_linker_0, # of connection points: 2
#     Edge 37, Type (0, 1), BuildingBlock: EZIPEK_clean_linker_0, # of connection points: 2
#     Edge 38, Type (0, 1), BuildingBlock: EZIPEK_clean_linker_0, # of connection points: 2
#     Edge 39, Type (0, 1), BuildingBlock: EZIPEK_clean_linker_0, # of connection points: 2
#     Edge 40, Type (0, 1), BuildingBlock: EZIPEK_clean_linker_0, # of connection points: 2
#     Edge 41, Type (0, 1), BuildingBlock: EZIPEK_clean_linker_0, # of connection points: 2
#     Edge 42, Type (0, 1), BuildingBlock: EZIPEK_clean_linker_0, # of connection points: 2
#     Edge 43, Type (0, 1), BuildingBlock: EZIPEK_clean_linker_0, # of connection points: 2
#     Edge 44, Type (0, 1), BuildingBlock: EZIPEK_clean_linker_0, # of connection points: 2
#     Edge 45, Type (0, 1), BuildingBlock: EZIPEK_clean_linker_0, # of connection points: 2
#     Edge 46, Type (0, 1), BuildingBlock: EZIPEK_clean_linker_0, # of connection points: 2
#     Edge 47, Type (0, 1), BuildingBlock: EZIPEK_clean_linker_0, # of connection points: 2
#     Edge 48, Type (0, 1), BuildingBlock: EZIPEK_clean_linker_0, # of connection points: 2
#     Edge 49, Type (0, 1), BuildingBlock: EZIPEK_clean_linker_0, # of connection points: 2
#     Edge 50, Type (0, 1), BuildingBlock: EZIPEK_clean_linker_0, # of connection points: 2
#     Edge 51, Type (0, 1), BuildingBlock: EZIPEK_clean_linker_0, # of connection points: 2
#     Edge 52, Type (0, 1), BuildingBlock: EZIPEK_clean_linker_0, # of connection points: 2
#     Edge 53, Type (0, 1), BuildingBlock: EZIPEK_clean_linker_0, # of connection points: 2
#     Edge 54, Type (0, 1), BuildingBlock: EZIPEK_clean_linker_0, # of connection points: 2
#     Edge 55, Type (0, 1), BuildingBlock: EZIPEK_clean_linker_0, # of connection points: 2
#     Edge 56, Type (0, 1), BuildingBlock: EZIPEK_clean_linker_0, # of connection points: 2
#     Edge 57, Type (0, 1), BuildingBlock: EZIPEK_clean_linker_0, # of connection points: 2
#     Edge 58, Type (0, 1), BuildingBlock: EZIPEK_clean_linker_0, # of connection points: 2
#     Edge 59, Type (0, 1), BuildingBlock: EZIPEK_clean_linker_0, # of connection points: 2
#     Edge 60, Type (0, 1), BuildingBlock: EZIPEK_clean_linker_0, # of connection points: 2
#     Edge 61, Type (0, 1), BuildingBlock: EZIPEK_clean_linker_0, # of connection points: 2
# Relax obj value: 0.259
# Max RMSD: 0.365
# Mean RMSD: 0.247
data_MOF--net-ocu--node1-VOLQOD_clean_sbu_1--node2-GIZVER_clean_sbu_0--edge1-EZIPEK_clean_linker_0
_symmetry_space_group_name_H-M    P1
_symmetry_Int_Tables_number       1
_symmetry_cell_setting            triclinic
loop_
_symmetry_equiv_pos_as_xyz
'x, y, z'
_cell_length_a     32.435984
_cell_length_b     33.632338
_cell_length_c     23.915145
_cell_angle_alpha  88.936106
_cell_angle_beta   91.111617
_cell_angle_gamma 104.16337
loop_
_atom_site_label
_atom_site_type_symbol
_atom_site_fract_x
_atom_site_fract_y
_atom_site_fract_z
_atom_type_partial_charge
O0 O 0.33061 0.33905 0.27315 0.0
Zn1 Zn 0.28915 0.29408 0.314 0.0
O2 O 0.25273 0.25754 0.25854 0.0
Zn3 Zn 0.19419 0.26002 0.26835 0.0
Zn4 Zn 0.26955 0.27239 0.18099 0.0
Zn5 Zn 0.25614 0.20122 0.27049 0.0
O6 O 0.15697 0.20582 0.29289 0.0
O7 O 0.19975 0.16359 0.28703 0.0
O8 O 0.25436 0.32341 0.36358 0.0
O9 O 0.18996 0.30109 0.32539 0.0
O10 O 0.17089 0.27994 0.19827 0.0
O11 O 0.22155 0.2867 0.13527 0.0
O12 O 0.29412 0.22944 0.14241 0.0
O13 O 0.32685 0.26227 0.35688 0.0
O14 O 0.28345 0.17948 0.20628 0.0
O15 O 0.29526 0.19804 0.33452 0.0
C16 C 0.33772 0.34617 0.22137 0.0
C17 C 0.16365 0.17014 0.29708 0.0
C18 C 0.18472 0.28969 0.14923 0.0
C19 C 0.21502 0.32366 0.35985 0.0
C20 C 0.2975 0.19409 0.15899 0.0
C21 C 0.3239 0.22374 0.36108 0.0
O22 O 0.31715 0.32295 0.18354 0.0
O23 O 0.73996 0.21076 0.16056 0.0
Zn24 Zn 0.77987 0.24966 0.21744 0.0
O25 O 0.7447 0.26682 0.27447 0.0
Zn26 Zn 0.74839 0.32493 0.27394 0.0
Zn27 Zn 0.68612 0.24313 0.25936 0.0
Zn28 Zn 0.75846 0.25298 0.34991 0.0
O29 O 0.77661 0.35368 0.34136 0.0
O30 O 0.79583 0.30317 0.38742 0.0
O31 O 0.81416 0.30278 0.17676 0.0
O32 O 0.78667 0.34989 0.21454 0.0
O33 O 0.69594 0.34137 0.25099 0.0
O34 O 0.65753 0.28147 0.22145 0.0
O35 O 0.65513 0.21752 0.3249 0.0
O36 O 0.81864 0.21632 0.25827 0.0
O37 O 0.70508 0.22062 0.39024 0.0
O38 O 0.79669 0.21564 0.34619 0.0
C39 C 0.70072 0.19203 0.16605 0.0
C40 C 0.79904 0.3413 0.37881 0.0
C41 C 0.66449 0.32003 0.22402 0.0
C42 C 0.81127 0.34011 0.18007 0.0
C43 C 0.66639 0.2084 0.37355 0.0
C44 C 0.81956 0.20481 0.3097 0.0
O45 O 0.67887 0.19955 0.20583 0.0
O46 O 0.6703 0.68823 0.26642 0.0
Zn47 Zn 0.71582 0.7322 0.30655 0.0
O48 O 0.75892 0.7613 0.25192 0.0
Zn49 Zn 0.81453 0.75083 0.26351 0.0
Zn50 Zn 0.74147 0.74494 0.17593 0.0
Zn51 Zn 0.76706 0.81997 0.25803 0.0
O52 O 0.85897 0.79953 0.29083 0.0
O53 O 0.82505 0.84936 0.28608 0.0
O54 O 0.74597 0.70142 0.36532 0.0
O55 O 0.80975 0.71203 0.32633 0.0
O56 O 0.83326 0.72071 0.20059 0.0
O57 O 0.7778 0.71058 0.14242 0.0
O58 O 0.72694 0.79079 0.12991 0.0
O59 O 0.68364 0.77404 0.33715 0.0
O60 O 0.74541 0.84316 0.18836 0.0
O61 O 0.72871 0.83276 0.31469 0.0
C62 C 0.66288 0.6832 0.21411 0.0
C63 C 0.85772 0.83644 0.29908 0.0
C64 C 0.813 0.70323 0.15798 0.0
C65 C 0.78354 0.69545 0.36352 0.0
C66 C 0.72766 0.8275 0.14321 0.0
C67 C 0.6945 0.81335 0.33744 0.0
O68 O 0.68705 0.70431 0.1779 0.0
O69 O 0.31042 0.78995 0.3445 0.0
Zn70 Zn 0.27398 0.74888 0.28665 0.0
O71 O 0.24633 0.77934 0.2321 0.0
Zn72 Zn 0.18521 0.76423 0.24084 0.0
Zn73 Zn 0.26429 0.83753 0.24306 0.0
Zn74 Zn 0.2595 0.76966 0.15564 0.0
O75 O 0.15653 0.73495 0.1733 0.0
O76 O 0.20864 0.73687 0.11343 0.0
O77 O 0.22721 0.70115 0.31926 0.0
O78 O 0.16831 0.72115 0.29941 0.0
O79 O 0.16122 0.81004 0.26626 0.0
O80 O 0.21948 0.86064 0.27381 0.0
O81 O 0.29277 0.86959 0.17855 0.0
O82 O 0.31299 0.7202 0.24553 0.0
O83 O 0.29298 0.82147 0.11726 0.0
O84 O 0.29764 0.73234 0.15678 0.0
C85 C 0.3217 0.82925 0.34031 0.0
C86 C 0.17001 0.72434 0.12771 0.0
C87 C 0.18008 0.8461 0.28112 0.0
C88 C 0.18675 0.69538 0.32126 0.0
C89 C 0.30409 0.85893 0.13179 0.0
C90 C 0.31671 0.71527 0.19324 0.0
O91 O 0.30724 0.84863 0.30199 0.0
O92 O 0.2576 0.68821 0.66268 0.0
Zn93 Zn 0.29594 0.7308 0.71298 0.0
O94 O 0.26248 0.76175 0.75384 0.0
Zn95 Zn 0.2821 0.81922 0.74062 0.0
Zn96 Zn 0.20528 0.74498 0.72814 0.0
Zn97 Zn 0.26257 0.75262 0.8349 0.0
O98 O 0.31488 0.84625 0.80663 0.0
O99 O 0.29617 0.80208 0.87726 0.0
O100 O 0.34358 0.76961 0.67121 0.0
O101 O 0.32652 0.82895 0.68455 0.0
O102 O 0.23602 0.8452 0.71329 0.0
O103 O 0.17998 0.79175 0.70714 0.0
O104 O 0.1736 0.70614 0.78394 0.0
O105 O 0.32395 0.70017 0.76808 0.0
O106 O 0.20491 0.72221 0.86599 0.0
O107 O 0.29835 0.71411 0.84928 0.0
C108 C 0.21927 0.68526 0.64645 0.0
C109 C 0.31817 0.83595 0.85753 0.0
C110 C 0.19705 0.82985 0.70115 0.0
C111 C 0.35003 0.80822 0.66363 0.0
C112 C 0.17532 0.69997 0.83633 0.0
C113 C 0.32136 0.69668 0.821 0.0
O114 O 0.19811 0.70969 0.66295 0.0
O115 O 0.17705 0.17985 0.76495 0.0
Zn116 Zn 0.22934 0.21885 0.80573 0.0
O117 O 0.26646 0.25308 0.74835 0.0
Zn118 Zn 0.32489 0.24818 0.75293 0.0
Zn119 Zn 0.24707 0.23763 0.67294 0.0
Zn120 Zn 0.26756 0.31022 0.75537 0.0
O121 O 0.36691 0.30117 0.77266 0.0
O122 O 0.32471 0.34397 0.77682 0.0
O123 O 0.26528 0.18669 0.85369 0.0
O124 O 0.32939 0.21294 0.81844 0.0
O125 O 0.34084 0.21616 0.68899 0.0
O126 O 0.28019 0.20022 0.64072 0.0
O127 O 0.23434 0.28345 0.62447 0.0
O128 O 0.20775 0.25735 0.85866 0.0
O129 O 0.24128 0.33122 0.68931 0.0
O130 O 0.2322 0.31825 0.81805 0.0
C131 C 0.167 0.17906 0.7127 0.0
C132 C 0.36086 0.33617 0.78377 0.0
C133 C 0.31703 0.19493 0.65167 0.0
C134 C 0.30549 0.18989 0.85343 0.0
C135 C 0.22973 0.31798 0.64069 0.0
C136 C 0.21119 0.29611 0.85624 0.0
O137 O 0.19116 0.20076 0.6771 0.0
O138 O 0.82771 0.27949 0.81992 0.0
Zn139 Zn 0.78282 0.24086 0.77357 0.0
O140 O 0.74904 0.27197 0.7295 0.0
Zn141 Zn 0.68911 0.24864 0.7362 0.0
Zn142 Zn 0.76062 0.32678 0.75765 0.0
Zn143 Zn 0.76266 0.27374 0.65039 0.0
O144 O 0.66643 0.21708 0.66733 0.0
O145 O 0.71381 0.24117 0.60137 0.0
O146 O 0.74431 0.19416 0.81748 0.0
O147 O 0.68129 0.20378 0.79103 0.0
O148 O 0.65625 0.288 0.76535 0.0
O149 O 0.70953 0.34179 0.78498 0.0
O150 O 0.79254 0.36713 0.70232 0.0
O151 O 0.81543 0.21387 0.72294 0.0
O152 O 0.79844 0.33044 0.62775 0.0
O153 O 0.80189 0.23875 0.63999 0.0
C154 C 0.82933 0.31562 0.83651 0.0
C155 C 0.67972 0.21612 0.61784 0.0
C156 C 0.67038 0.32358 0.78588 0.0
C157 C 0.70377 0.18398 0.8184 0.0
C158 C 0.80857 0.36383 0.65508 0.0
C159 C 0.8196 0.21626 0.67023 0.0
O160 O 0.80124 0.33435 0.82183 0.0
O161 O 0.8311 0.83055 0.77071 0.0
Zn162 Zn 0.78804 0.78267 0.80498 0.0
O163 O 0.74969 0.75178 0.74711 0.0
Zn164 Zn 0.69314 0.75989 0.75147 0.0
Zn165 Zn 0.77329 0.76837 0.67369 0.0
Zn166 Zn 0.74342 0.69366 0.75815 0.0
O167 O 0.6487 0.70898 0.77227 0.0
O168 O 0.6845 0.6607 0.77386 0.0
O169 O 0.75424 0.80866 0.85992 0.0
O170 O 0.69259 0.79877 0.8129 0.0
O171 O 0.67743 0.78716 0.68245 0.0
O172 O 0.73614 0.79948 0.632 0.0
O173 O 0.79267 0.72226 0.63496 0.0
O174 O 0.82275 0.74413 0.83897 0.0
O175 O 0.76964 0.67059 0.69482 0.0
O176 O 0.77687 0.68436 0.82547 0.0
C177 C 0.843 0.8366 0.72025 0.0
C178 C 0.65029 0.67188 0.78016 0.0
C179 C 0.69945 0.80504 0.64162 0.0
C180 C 0.71697 0.81464 0.85301 0.0
C181 C 0.78954 0.68515 0.65079 0.0
C182 C 0.81199 0.70517 0.84526 0.0
O183 O 0.82558 0.81289 0.68135 0.0
Co184 Co 0.05293 0.94103 0.4849 0.0
Co185 Co 0.05992 0.96903 0.58323 0.0
Co186 Co 0.00166 0.01272 0.5124 0.0
O187 O 0.05292 0.99161 0.51663 0.0
H188 H 0.0786 0.01287 0.51175 0.0
O189 O 0.95142 0.03556 0.50757 0.0
Co190 Co 0.95446 0.09041 0.52899 0.0
Co191 Co 0.94667 0.05341 0.43539 0.0
H192 H 0.92565 0.01613 0.51891 0.0
O193 O 0.11251 0.97146 0.60931 0.0
O194 O 0.06823 0.91959 0.56047 0.0
O195 O 0.01441 0.96097 0.63466 0.0
O196 O 0.96837 0.97208 0.56945 0.0
O197 O 0.02641 0.05032 0.57335 0.0
O198 O 0.95206 0.1388 0.55108 0.0
O199 O 0.89865 0.08223 0.53744 0.0
O200 O 0.01594 0.10563 0.52995 0.0
O201 O 0.03477 0.05221 0.45434 0.0
O202 O 0.98972 0.04944 0.38381 0.0
O203 O 0.9474 0.10772 0.44743 0.0
O204 O 0.8965 0.05747 0.40589 0.0
C205 C 0.09453 0.91892 0.44256 0.0
C206 C 0.97177 0.93557 0.45871 0.0
C207 C 0.97669 0.95762 0.61715 0.0
C208 C 0.10199 0.93376 0.59227 0.0
C209 C 0.91234 0.11963 0.55507 0.0
C210 C 0.0341 0.089 0.56872 0.0
C211 C 0.02754 0.05511 0.4017 0.0
C212 C 0.91266 0.09605 0.41622 0.0
O213 O 0.05689 0.89597 0.45209 0.0
O214 O 0.10759 0.95463 0.46589 0.0
O215 O 0.97666 0.97401 0.45238 0.0
O216 O 0.99377 0.92146 0.49525 0.0
Co217 Co 0.563 0.93237 0.97831 0.0
Co218 Co 0.55759 0.95349 0.08118 0.0
Co219 Co 0.51767 0.01318 0.00082 0.0
O220 O 0.56211 0.98238 0.01425 0.0
H221 H 0.59012 1.0007 0.0137 0.0
O222 O 0.47339 0.04469 0.98773 0.0
Co223 Co 0.46693 0.08945 0.03332 0.0
Co224 Co 0.48342 0.08331 0.9316 0.0
H225 H 0.44592 0.02712 0.97918 0.0
O226 O 0.60609 0.94955 0.11915 0.0
O227 O 0.56931 0.90678 0.0533 0.0
O228 O 0.50256 0.93875 0.11326 0.0
O229 O 0.47726 0.98247 0.05907 0.0
O230 O 0.54939 0.05388 0.05588 0.0
O231 O 0.45572 0.12879 0.07403 0.0
O232 O 0.40912 0.0748 0.03831 0.0
O233 O 0.52746 0.11064 0.03713 0.0
O234 O 0.55832 0.04226 0.94168 0.0
O235 O 0.54091 0.09817 0.90626 0.0
O236 O 0.46272 0.12287 0.96518 0.0
O237 O 0.43804 0.08776 0.88688 0.0
C238 C 0.60941 0.90593 0.94858 0.0
C239 C 0.47554 0.93338 0.95473 0.0
C240 C 0.47213 0.95302 0.09496 0.0
C241 C 0.60168 0.91737 0.08825 0.0
C242 C 0.41639 0.10801 0.06816 0.0
C243 C 0.55596 0.09294 0.05483 0.0
C244 C 0.56703 0.07577 0.91342 0.0
C245 C 0.43417 0.11377 0.9249 0.0
O246 O 0.56934 0.88719 0.94435 0.0
O247 O 0.62009 0.94236 0.97055 0.0
O248 O 0.48586 0.97209 0.94553 0.0
O249 O 0.50146 0.9154 0.97961 0.0
Co250 Co 0.06676 0.42745 0.96565 0.0
Co251 Co 0.03403 0.42677 0.06124 0.0
Co252 Co 0.00748 0.50183 0.00222 0.0
O253 O 0.05502 0.47154 0.01388 0.0
H254 H 0.08066 0.48887 0.02967 0.0
O255 O 0.95805 0.5286 0.99277 0.0
Co256 Co 0.94719 0.57171 0.03898 0.0
Co257 Co 0.96421 0.56759 0.94008 0.0
H258 H 0.93172 0.5083 0.98617 0.0
O259 O 0.06967 0.41313 0.11492 0.0
O260 O 0.0531 0.38698 0.02835 0.0
O261 O 0.97375 0.41099 0.0699 0.0
O262 O 0.97392 0.47668 0.07049 0.0
O263 O 0.0437 0.54899 0.04588 0.0
O264 O 0.93382 0.60871 0.08139 0.0
O265 O 0.889 0.5554 0.03934 0.0
O266 O 0.00487 0.59515 0.04541 0.0
O267 O 0.04129 0.52832 0.93395 0.0
O268 O 0.01816 0.58412 0.91306 0.0
O269 O 0.94464 0.60794 0.9727 0.0
O270 O 0.92192 0.57192 0.89387 0.0
C271 C 0.11564 0.40024 0.9483 0.0
C272 C 0.97662 0.42294 0.93901 0.0
C273 C 0.95439 0.43884 0.07655 0.0
C274 C 0.07378 0.38795 0.076 0.0
C275 C 0.89533 0.58805 0.07049 0.0
C276 C 0.04027 0.58593 0.05062 0.0
C277 C 0.04645 0.56433 0.91185 0.0
C278 C 0.92083 0.60177 0.92736 0.0
O279 O 0.07896 0.38996 0.92357 0.0
O280 O 0.12354 0.43205 0.98155 0.0
O281 O 0.97164 0.45675 0.95686 0.0
O282 O 0.01149 0.41322 0.94272 0.0
Co283 Co 0.54352 0.4341 0.97431 0.0
Co284 Co 0.55718 0.46511 0.07248 0.0
Co285 Co 0.49914 0.50989 0.01253 0.0
O286 O 0.54936 0.48719 0.00395 0.0
H287 H 0.57447 0.50707 0.99161 0.0
O288 O 0.44913 0.53222 0.0227 0.0
Co289 Co 0.45329 0.58509 0.05359 0.0
Co290 Co 0.44128 0.55425 0.95501 0.0
H291 H 0.42381 0.51193 0.03345 0.0
O292 O 0.60875 0.45947 0.094 0.0
O293 O 0.55527 0.41224 0.05091 0.0
O294 O 0.51518 0.46352 0.13081 0.0
O295 O 0.46804 0.4653 0.06407 0.0
O296 O 0.52817 0.54147 0.07712 0.0
O297 O 0.45289 0.63246 0.08311 0.0
O298 O 0.39752 0.5781 0.06837 0.0
O299 O 0.51331 0.59908 0.04792 0.0
O300 O 0.52962 0.55531 0.96005 0.0
O301 O 0.48082 0.55625 0.89486 0.0
O302 O 0.44316 0.60649 0.97653 0.0
O303 O 0.38969 0.55744 0.93557 0.0
C304 C 0.58131 0.40498 0.93433 0.0
C305 C 0.46487 0.43828 0.94914 0.0
C306 C 0.47694 0.4567 0.11395 0.0
C307 C 0.59014 0.42177 0.08168 0.0
C308 C 0.41281 0.61492 0.08794 0.0
C309 C 0.53408 0.58006 0.07993 0.0
C310 C 0.51935 0.56423 0.91037 0.0
C311 C 0.40766 0.59553 0.94703 0.0
O312 O 0.54194 0.38658 0.94364 0.0
O313 O 0.59807 0.44098 0.9555 0.0
O314 O 0.47033 0.47707 0.94817 0.0
O315 O 0.48478 0.42129 0.98487 0.0
Co316 Co 0.09294 0.46561 0.53664 0.0
Co317 Co 0.06371 0.46195 0.43423 0.0
Co318 Co 0.01235 0.51496 0.5053 0.0
O319 O 0.03856 0.46634 0.50352 0.0
H320 H 0.01774 0.44114 0.51185 0.0
O321 O 0.98445 0.56228 0.5054 0.0
Co322 Co 0.92522 0.55619 0.48277 0.0
Co323 Co 0.96657 0.56949 0.57732 0.0
H324 H 0.00261 0.58736 0.49091 0.0
O325 O 0.07024 0.41241 0.40753 0.0
O326 O 0.11619 0.45757 0.4616 0.0
O327 O 0.07775 0.50973 0.38758 0.0
O328 O 0.05172 0.54778 0.44644 0.0
O329 O 0.96958 0.48641 0.44894 0.0
O330 O 0.87246 0.55606 0.46058 0.0
O331 O 0.9285 0.61022 0.46752 0.0
O332 O 0.91351 0.49783 0.49206 0.0
O333 O 0.9731 0.48377 0.56509 0.0
O334 O 0.96966 0.52735 0.63198 0.0
O335 O 0.90858 0.56267 0.56159 0.0
O336 O 0.95299 0.61733 0.59955 0.0
C337 C 0.12278 0.42216 0.56644 0.0
C338 C 0.09535 0.54902 0.55503 0.0
C339 C 0.07438 0.54416 0.40449 0.0
C340 C 0.1073 0.42428 0.43164 0.0
C341 C 0.88824 0.59541 0.45524 0.0
C342 C 0.93034 0.4754 0.46184 0.0
C343 C 0.96 0.49135 0.61296 0.0
C344 C 0.91427 0.5967 0.58913 0.0
O345 O 0.14134 0.46092 0.56908 0.0
O346 O 0.0834 0.41104 0.54812 0.0
O347 O 0.05534 0.54352 0.56212 0.0
O348 O 0.11059 0.52317 0.5295 0.0
Co349 Co 0.59763 0.97281 0.5126 0.0
Co350 Co 0.55857 0.96856 0.41697 0.0
Co351 Co 0.50789 0.00742 0.50429 0.0
O352 O 0.54116 0.9677 0.48916 0.0
H353 H 0.52487 0.94019 0.49721 0.0
O354 O 0.47265 0.04632 0.52179 0.0
Co355 Co 0.42972 0.05949 0.47324 0.0
Co356 Co 0.4273 0.02482 0.56382 0.0
H357 H 0.48818 0.06927 0.54331 0.0
O358 O 0.55685 0.91993 0.38448 0.0
O359 O 0.61179 0.96035 0.43348 0.0
O360 O 0.5666 0.01947 0.37751 0.0
O361 O 0.53177 0.04604 0.44051 0.0
O362 O 0.46272 0.973 0.45623 0.0
O363 O 0.39343 0.0782 0.42981 0.0
O364 O 0.44427 0.11374 0.48747 0.0
O365 O 0.40907 1.00352 0.45068 0.0
O366 O 0.48623 0.96942 0.56937 0.0
O367 O 0.41715 0.96621 0.57565 0.0
O368 O 0.38588 0.0481 0.53355 0.0
O369 O 0.41724 0.05788 0.61866 0.0
C370 C 0.63143 0.93324 0.54266 0.0
C371 C 0.59256 0.05565 0.53228 0.0
C372 C 0.55706 0.04997 0.39922 0.0
C373 C 0.5951 0.9266 0.40558 0.0
C374 C 0.41403 0.11317 0.45061 0.0
C375 C 0.42438 0.97258 0.44341 0.0
C376 C 0.44809 0.94922 0.57846 0.0
C377 C 0.38757 0.06308 0.58385 0.0
O378 O 0.65026 0.97188 0.53623 0.0
O379 O 0.59143 0.91991 0.52939 0.0
O380 O 0.55505 0.04155 0.55119 0.0
O381 O 0.61016 0.03281 0.50268 0.0
C382 C 0.08943 0.12507 0.28948 0.0
C383 C 0.12954 0.13573 0.31774 0.0
C384 C 0.10557 0.07893 0.38355 0.0
C385 C 0.0635 0.07415 0.3636 0.0
N386 N 0.02123 0.07578 0.27985 0.0
N387 N 0.1743 0.12513 0.39632 0.0
C388 C 0.0567 0.09241 0.31124 0.0
C389 C 0.13751 0.11294 0.36557 0.0
N390 N 0.08263 0.14622 0.2422 0.0
N391 N 0.11541 0.04891 0.4162 0.0
H392 H 0.19806 0.1513 0.38698 0.0
H393 H 0.17918 0.1115 0.43459 0.0
H394 H 0.09303 0.02123 0.42235 0.0
H395 H 0.14632 0.04888 0.42894 0.0
H396 H 0.05276 0.14401 0.22403 0.0
H397 H 0.10683 0.1675 0.22204 0.0
H398 H 0.01509 0.08628 0.24012 0.0
H399 H 1.00096 0.04748 0.28972 0.0
C400 C 0.8899 0.18588 0.32888 0.0
C401 C 0.84473 0.17544 0.32939 0.0
C402 C 0.84575 0.1184 0.39439 0.0
C403 C 0.89065 0.12609 0.38992 0.0
N404 N 0.95448 0.16246 0.3429 0.0
N405 N 0.77981 0.12547 0.35129 0.0
C406 C 0.91259 0.15861 0.35444 0.0
C407 C 0.8228 0.1397 0.35865 0.0
N408 N 0.91126 0.22241 0.30591 0.0
N409 N 0.8249 0.09179 0.43435 0.0
H410 H 0.76202 0.13953 0.32402 0.0
H411 H 0.76273 0.09737 0.36734 0.0
H412 H 0.84037 0.07614 0.46248 0.0
H413 H 0.79294 0.08854 0.4434 0.0
H414 H 0.94405 0.23377 0.31003 0.0
H415 H 0.89583 0.24275 0.28619 0.0
H416 H 0.97075 0.18284 0.31281 0.0
H417 H 0.97206 0.14282 0.35956 0.0
C418 C 0.87977 0.85483 0.39752 0.0
C419 C 0.88858 0.86052 0.33942 0.0
C420 C 0.95514 0.91082 0.3608 0.0
C421 C 0.94441 0.90783 0.41839 0.0
N422 N 0.89497 0.8808 0.49166 0.0
N423 N 0.93168 0.89595 0.2646 0.0
C424 C 0.90647 0.88059 0.4369 0.0
C425 C 0.92552 0.88905 0.32067 0.0
N426 N 0.84594 0.82451 0.41504 0.0
N427 N 0.99426 0.93349 0.34486 0.0
H428 H 0.91105 0.87957 0.23437 0.0
H429 H 0.95546 0.91954 0.24797 0.0
H430 H 0.01682 0.94957 0.37317 0.0
H431 H 0.00585 0.93377 0.30454 0.0
H432 H 0.84053 0.81578 0.45675 0.0
H433 H 0.82448 0.80592 0.3877 0.0
H434 H 0.86534 0.86546 0.50668 0.0
H435 H 0.91401 0.89878 0.52193 0.0
C436 C 0.15458 0.84927 0.37766 0.0
C437 C 0.1597 0.8663 0.32252 0.0
C438 C 0.12697 0.9212 0.34861 0.0
C439 C 0.12147 0.90403 0.40352 0.0
N440 N 0.13334 0.85542 0.47331 0.0
N441 N 0.15885 0.92163 0.25754 0.0
C442 C 0.13628 0.86907 0.4189 0.0
C443 C 0.14855 0.9034 0.30868 0.0
N444 N 0.16724 0.8141 0.39037 0.0
N445 N 0.10934 0.95295 0.33377 0.0
H446 H 0.17289 0.9083 0.22639 0.0
H447 H 0.15611 0.95105 0.24706 0.0
H448 H 0.09377 0.96723 0.36193 0.0
H449 H 0.10758 0.96359 0.29287 0.0
H450 H 0.1599 0.79717 0.42721 0.0
H451 H 0.1845 0.80063 0.3633 0.0
H452 H 0.14734 0.83289 0.48947 0.0
H453 H 0.11857 0.86842 0.50393 0.0
C454 C 0.13377 0.86003 0.69653 0.0
C455 C 0.17228 0.85598 0.6731 0.0
C456 C 0.16554 0.90428 0.59771 0.0
C457 C 0.12511 0.90533 0.61798 0.0
N458 N 0.06853 0.88217 0.68392 0.0
N459 N 0.2197 0.86629 0.59437 0.0
C460 C 0.1084 0.88229 0.66636 0.0
C461 C 0.18686 0.87593 0.62174 0.0
N462 N 0.12261 0.84444 0.74885 0.0
N463 N 0.18392 0.93076 0.55611 0.0
H464 H 0.23545 0.84462 0.6094 0.0
H465 H 0.22846 0.87665 0.55397 0.0
H466 H 0.16895 0.95156 0.53671 0.0
H467 H 0.2153 0.9343 0.54394 0.0
H468 H 0.09729 0.85007 0.77082 0.0
H469 H 0.14088 0.82861 0.77262 0.0
H470 H 0.05242 0.86208 0.71439 0.0
H471 H 0.0504 0.90068 0.66572 0.0
C472 C 0.08843 0.15603 0.69029 0.0
C473 C 0.12982 0.14928 0.68801 0.0
C474 C 0.10948 0.10882 0.60311 0.0
C475 C 0.06732 0.11331 0.60693 0.0
N476 N 0.01419 0.13277 0.66235 0.0
N477 N 0.17628 0.11058 0.65134 0.0
C478 C 0.05597 0.13448 0.65298 0.0
C479 C 0.13893 0.12248 0.6475 0.0
N480 N 0.08053 0.18407 0.72652 0.0
N481 N 0.12198 0.09322 0.55576 0.0
H482 H 0.19822 0.11992 0.68394 0.0
H483 H 0.18336 0.08841 0.62588 0.0
H484 H 0.1018 0.08527 0.52115 0.0
H485 H 0.15333 0.0925 0.54836 0.0
H486 H 0.05247 0.19395 0.72557 0.0
H487 H 0.10317 0.19905 0.75561 0.0
H488 H 0.00372 0.14438 0.69805 0.0
H489 H 0.98968 0.11645 0.63684 0.0
C490 C 0.83525 0.14789 0.65447 0.0
C491 C 0.84308 0.19052 0.64177 0.0
C492 C 0.88547 0.1818 0.56209 0.0
C493 C 0.8836 0.14123 0.58044 0.0
N494 N 0.8633 0.08787 0.65125 0.0
N495 N 0.88366 0.24952 0.59053 0.0
C496 C 0.86018 0.12464 0.62848 0.0
C497 C 0.87036 0.20794 0.59738 0.0
N498 N 0.80306 0.12905 0.68915 0.0
N499 N 0.90147 0.1953 0.51082 0.0
H500 H 0.87561 0.27001 0.61787 0.0
H501 H 0.9066 0.26355 0.56173 0.0
H502 H 0.91246 0.1766 0.48342 0.0
H503 H 0.89966 0.22347 0.49338 0.0
H504 H 0.79388 0.09732 0.6948 0.0
H505 H 0.78223 0.14413 0.7071 0.0
H506 H 0.85038 0.07703 0.68982 0.0
H507 H 0.88199 0.06994 0.63469 0.0
C508 C 0.8752 0.91085 0.69747 0.0
C509 C 0.87976 0.87016 0.70522 0.0
C510 C 0.94511 0.88649 0.65219 0.0
C511 C 0.94262 0.92805 0.64722 0.0
N512 N 0.90876 0.9815 0.67152 0.0
N513 N 0.92378 0.82216 0.70306 0.0
C514 C 0.90866 0.94084 0.67189 0.0
C515 C 0.91646 0.85911 0.68706 0.0
N516 N 0.83832 0.92027 0.71247 0.0
N517 N 0.97283 0.87227 0.62043 0.0
H518 H 0.90322 0.8014 0.72904 0.0
H519 H 0.95219 0.8141 0.69543 0.0
H520 H 0.99314 0.89072 0.59216 0.0
H521 H 0.97265 0.84133 0.61791 0.0
H522 H 0.83093 0.94797 0.70222 0.0
H523 H 0.81395 0.89932 0.73288 0.0
H524 H 0.88709 0.99333 0.69337 0.0
H525 H 0.9325 1.00395 0.65237 0.0
C526 C 0.36981 0.18377 0.14392 0.0
C527 C 0.32614 0.17307 0.12945 0.0
C528 C 0.33819 0.11553 0.07469 0.0
C529 C 0.38169 0.12461 0.09395 0.0
N530 N 0.42918 0.15592 0.16891 0.0
N531 N 0.26687 0.1253 0.0874 0.0
C532 C 0.39468 0.15544 0.13498 0.0
C533 C 0.30976 0.13791 0.0966 0.0
N534 N 0.38772 0.22079 0.16729 0.0
N535 N 0.32336 0.08599 0.03594 0.0
H536 H 0.24579 0.1421 0.10055 0.0
H537 H 0.25203 0.09722 0.06984 0.0
H538 H 0.33882 0.0637 0.02543 0.0
H539 H 0.29493 0.08362 0.01374 0.0
H540 H 0.4204 0.23115 0.17433 0.0
H541 H 0.37038 0.2424 0.17466 0.0
H542 H 0.43863 0.17685 0.20109 0.0
H543 H 0.44424 0.13182 0.1704 0.0
C544 C 0.85754 0.41307 0.16923 0.0
C545 C 0.83864 0.3738 0.14592 0.0
C546 C 0.88027 0.39709 0.06301 0.0
C547 C 0.90979 0.42571 0.09564 0.0
N548 N 0.92371 0.46459 0.18053 0.0
N549 N 0.82503 0.33411 0.06156 0.0
C550 C 0.89755 0.43525 0.14894 0.0
C551 C 0.84802 0.36725 0.08991 0.0
N552 N 0.83642 0.43107 0.20612 0.0
N553 N 0.88007 0.40182 0.00654 0.0
H554 H 0.79787 0.31429 0.07783 0.0
H555 H 0.8334 0.32656 0.02202 0.0
H556 H 0.89915 0.42787 0.9878 0.0
H557 H 0.85661 0.38436 0.98055 0.0
H558 H 0.84857 0.46103 0.21963 0.0
H559 H 0.80479 0.41922 0.21659 0.0
H560 H 0.91699 0.46994 0.22172 0.0
H561 H 0.95288 0.48206 0.1665 0.0
C562 C 0.65139 0.8306 0.13534 0.0
C563 C 0.69441 0.84642 0.11882 0.0
C564 C 0.67634 0.90832 0.08097 0.0
C565 C 0.63303 0.89188 0.09553 0.0
N566 N 0.57795 0.8349 0.12892 0.0
N567 N 0.74591 0.89541 0.06622 0.0
C568 C 0.62012 0.8521 0.1199 0.0
C569 C 0.70621 0.88377 0.08844 0.0
N570 N 0.64088 0.79662 0.16955 0.0
N571 N 0.68933 0.94787 0.06173 0.0
H572 H 0.76813 0.87776 0.07132 0.0
H573 H 0.75536 0.92015 0.03864 0.0
H574 H 0.66866 0.96685 0.05486 0.0
H575 H 0.72109 0.96298 0.05627 0.0
H576 H 0.61168 0.78695 0.18916 0.0
H577 H 0.66227 0.77965 0.18262 0.0
H578 H 0.56599 0.80405 0.13914 0.0
H579 H 0.5542 0.85055 0.12237 0.0
C580 C 0.14269 0.64881 0.11951 0.0
C581 C 0.14267 0.68869 0.0991 0.0
C582 C 0.08295 0.6594 0.03697 0.0
C583 C 0.07792 0.62027 0.06457 0.0
N584 N 0.0998 0.58099 0.1406 0.0
N585 N 0.11201 0.73301 0.0408 0.0
C586 C 0.10732 0.61556 0.10758 0.0
C587 C 0.11279 0.69425 0.0582 0.0
N588 N 0.17617 0.6428 0.15132 0.0
N589 N 0.06005 0.66346 0.98965 0.0
H590 H 0.13485 0.759 0.05352 0.0
H591 H 0.08738 0.73959 0.01661 0.0
H592 H 0.03665 0.63988 0.97309 0.0
H593 H 0.06671 0.68957 0.96403 0.0
H594 H 0.17983 0.61377 0.16266 0.0
H595 H 0.20223 0.66658 0.16208 0.0
H596 H 0.11794 0.57818 0.17622 0.0
H597 H 0.07279 0.55694 0.13682 0.0
C598 C 0.35684 0.89683 0.9128 0.0
C599 C 0.35619 0.85872 0.88882 0.0
C600 C 0.43365 0.87209 0.90128 0.0
C601 C 0.43403 0.90806 0.93165 0.0
N602 N 0.39258 0.9493 0.9758 0.0
N603 N 0.39289 0.80624 0.86907 0.0
C604 C 0.3947 0.91916 0.9397 0.0
C605 C 0.39419 0.84499 0.88645 0.0
N606 N 0.32133 0.91188 0.90983 0.0
N607 N 0.4708 0.86532 0.88234 0.0
H608 H 0.36509 0.78585 0.85537 0.0
H609 H 0.41888 0.79326 0.87295 0.0
H610 H 0.49999 0.8865 0.88695 0.0
H611 H 0.47202 0.84147 0.85574 0.0
H612 H 0.32144 0.94184 0.92032 0.0
H613 H 0.2924 0.89524 0.89318 0.0
H614 H 0.36427 0.95585 0.98777 0.0
H615 H 0.41855 0.96408 -0.00075 0.0
C616 C 0.21155 0.3558 0.91794 0.0
C617 C 0.18913 0.3173 0.896 0.0
C618 C 0.12396 0.32888 0.93403 0.0
C619 C 0.144 0.37137 0.94167 0.0
N620 N 0.20905 0.42512 0.9403 0.0
N621 N 0.12139 0.26929 0.87858 0.0
C622 C 0.18865 0.38476 0.93465 0.0
C623 C 0.14476 0.30395 0.90369 0.0
N624 N 0.25483 0.36456 0.92268 0.0
N625 N 0.08477 0.31201 0.95554 0.0
H626 H 0.13435 0.25009 0.85452 0.0
H627 H 0.08823 0.26155 0.87752 0.0
H628 H 0.0681 0.32854 0.97864 0.0
H629 H 0.07111 0.28053 0.95587 0.0
H630 H 0.27284 0.39043 0.9428 0.0
H631 H 0.27201 0.34345 0.91188 0.0
H632 H 0.24062 0.43697 0.92915 0.0
H633 H 0.19399 0.44745 0.95248 0.0
C634 C 0.65065 0.11836 0.80656 0.0
C635 C 0.68028 0.14444 0.84246 0.0
C636 C 0.64556 0.10598 0.92288 0.0
C637 C 0.60955 0.08966 0.88823 0.0
N638 N 0.57945 0.07468 0.79606 0.0
N639 N 0.70845 0.1616 0.93518 0.0
C640 C 0.61288 0.09353 0.82948 0.0
C641 C 0.67928 0.13714 0.90078 0.0
N642 N 0.65858 0.11839 0.75064 0.0
N643 N 0.64747 0.09199 0.97646 0.0
H644 H 0.73398 0.18415 0.91998 0.0
H645 H 0.70609 0.16076 0.97859 0.0
H646 H 0.62352 0.06882 0.99342 0.0
H647 H 0.6745 0.10053 0.00197 0.0
H648 H 0.63968 0.09828 0.72249 0.0
H649 H 0.68665 0.13618 0.7336 0.0
H650 H 0.57797 0.08006 0.75313 0.0
H651 H 0.55242 0.05444 0.81206 0.0
C652 C 0.87402 0.69628 0.9093 0.0
C653 C 0.84244 0.68142 0.86753 0.0
C654 C 0.85693 0.61396 0.87736 0.0
C655 C 0.89336 0.62985 0.911 0.0
N656 N 0.94255 0.6914 0.9461 0.0
N657 N 0.82145 0.63009 0.79528 0.0
C658 C 0.90381 0.67257 0.92373 0.0
C659 C 0.83899 0.64142 0.84656 0.0
N660 N 0.87529 0.73192 0.93638 0.0
N661 N 0.83843 0.57289 0.87525 0.0
H662 H 0.81445 0.65127 0.76687 0.0
H663 H 0.82082 0.6016 0.77816 0.0
H664 H 0.84735 0.55146 0.90192 0.0
H665 H 0.81041 0.56129 0.85247 0.0
H666 H 0.89569 0.74167 0.97033 0.0
H667 H 0.85278 0.74896 0.92975 0.0
H668 H 0.95206 0.72302 0.95167 0.0
H669 H 0.96719 0.67689 0.95218 0.0
C670 C 0.11395 0.29216 0.10788 0.0
C671 C 0.15844 0.30965 0.11152 0.0
C672 C 0.14727 0.37743 0.08904 0.0
C673 C 0.10268 0.36043 0.08616 0.0
N674 N 0.04328 0.30102 0.0851 0.0
N675 N 0.21722 0.36496 0.08251 0.0
C676 C 0.08593 0.31743 0.09258 0.0
C677 C 0.17508 0.35093 0.09436 0.0
N678 N 0.09879 0.2515 0.12076 0.0
N679 N 0.16331 0.41901 0.08889 0.0
H680 H 0.23837 0.34619 0.08259 0.0
H681 H 0.22997 0.39386 0.06501 0.0
H682 H 0.14443 0.43995 0.08501 0.0
H683 H 0.19516 0.43283 0.09745 0.0
H684 H 0.06677 0.23721 0.12576 0.0
H685 H 0.11901 0.23196 0.12754 0.0
H686 H 0.02941 0.26971 0.08377 0.0
H687 H 0.02162 0.31886 0.07708 0.0
C688 C 0.15499 0.6367 0.90174 0.0
C689 C 0.14395 0.66332 0.85962 0.0
C690 C 0.08074 0.60931 0.83656 0.0
C691 C 0.08646 0.58704 0.88537 0.0
N692 N 0.12922 0.58042 0.96694 0.0
N693 N 0.08785 0.67762 0.80007 0.0
C694 C 0.12388 0.60075 0.91849 0.0
C695 C 0.10441 0.65027 0.83055 0.0
N696 N 0.19506 0.64412 0.92447 0.0
N697 N 0.05021 0.59213 0.79818 0.0
H698 H 0.10168 0.7091 0.79986 0.0
H699 H 0.05768 0.66975 0.78141 0.0
H700 H 0.03211 0.56197 0.80281 0.0
H701 H 0.04628 0.60635 0.75999 0.0
H702 H 0.20507 0.62331 0.95104 0.0
H703 H 0.21987 0.66874 0.91355 0.0
H704 H 0.15222 0.59249 -0.00282 0.0
H705 H 0.10953 0.55211 0.97775 0.0
C706 C 0.32268 0.12414 0.88663 0.0
C707 C 0.3274 0.16675 0.89291 0.0
C708 C 0.39962 0.1742 0.93091 0.0
C709 C 0.39616 0.13177 0.92187 0.0
N710 N 0.34884 0.06441 0.91138 0.0
N711 N 0.36199 0.22777 0.94144 0.0
C712 C 0.35581 0.10607 0.90623 0.0
C713 C 0.36301 0.18995 0.92274 0.0
N714 N 0.28767 0.10134 0.85947 0.0
N715 N 0.43814 0.20037 0.9423 0.0
H716 H 0.33498 0.23917 0.93581 0.0
H717 H 0.38545 0.24524 0.96739 0.0
H718 H 0.46657 0.19135 0.94508 0.0
H719 H 0.44261 0.23209 0.94353 0.0
H720 H 0.28495 0.07129 0.84696 0.0
H721 H 0.26213 0.1133 0.847 0.0
H722 H 0.31919 0.04434 0.90499 0.0
H723 H 0.37136 0.05016 0.92877 0.0
C724 C 0.88847 0.37894 0.83556 0.0
C725 C 0.86922 0.34067 0.86154 0.0
C726 C 0.92593 0.35294 0.93262 0.0
C727 C 0.94081 0.39388 0.91132 0.0
N728 N 0.93513 0.44658 0.84353 0.0
N729 N 0.86756 0.29192 0.93689 0.0
C730 C 0.92143 0.40721 0.86347 0.0
C731 C 0.88772 0.32749 0.91024 0.0
N732 N 0.87742 0.38694 0.78197 0.0
N733 N 0.9475 0.33861 0.97499 0.0
H734 H 0.83907 0.27305 0.92229 0.0
H735 H 0.87691 0.28267 0.97589 0.0
H736 H 0.97344 0.3567 -0.00387 0.0
H737 H 0.94131 0.30786 0.98714 0.0
H738 H 0.89233 0.41297 0.75917 0.0
H739 H 0.85712 0.36491 0.75787 0.0
H740 H 0.91788 0.45965 0.8144 0.0
H741 H 0.96272 0.46707 0.85772 0.0
C742 C 0.66918 0.82194 0.93029 0.0
C743 C 0.70004 0.841 0.89099 0.0
C744 C 0.67466 0.904 0.89318 0.0
C745 C 0.64245 0.88459 0.93128 0.0
N746 N 0.61289 0.82706 0.99277 0.0
N747 N 0.73972 0.90209 0.84534 0.0
C748 C 0.641 0.84416 0.95201 0.0
C749 C 0.7054 0.88288 0.87633 0.0
N750 N 0.66611 0.78186 0.94506 0.0
N751 N 0.67381 0.94112 0.86944 0.0
H752 H 0.76226 0.88694 0.83226 0.0
H753 H 0.74807 0.93352 0.83713 0.0
H754 H 0.65097 0.95697 0.87857 0.0
H755 H 0.69342 0.95477 0.83693 0.0
H756 H 0.64128 0.76366 0.96773 0.0
H757 H 0.68867 0.76635 0.93315 0.0
H758 H 0.61293 0.79975 0.01382 0.0
H759 H 0.59074 0.84133 0.0088 0.0
C760 C 0.83857 0.6389 0.1724 0.0
C761 C 0.82609 0.66727 0.13461 0.0
C762 C 0.83655 0.62391 0.05727 0.0
C763 C 0.86042 0.60408 0.09349 0.0
N764 N 0.8816 0.58993 0.18719 0.0
N765 N 0.81189 0.68543 0.03902 0.0
C766 C 0.86034 0.61056 0.15171 0.0
C767 C 0.82392 0.65903 0.07635 0.0
N768 N 0.82746 0.63733 0.22739 0.0
N769 N 0.82572 0.60887 0.00516 0.0
H770 H 0.80541 0.71295 0.05059 0.0
H771 H 0.81154 0.68162 -0.00406 0.0
H772 H 0.83314 0.58209 0.99215 0.0
H773 H 0.80526 0.61976 0.97816 0.0
H774 H 0.83332 0.61535 0.2556 0.0
H775 H 0.80751 0.65434 0.24315 0.0
H776 H 0.88728 0.59713 0.22929 0.0
H777 H 0.89498 0.56663 0.17352 0.0
C778 C 0.35296 0.92934 0.12135 0.0
C779 C 0.34051 0.88801 0.10379 0.0
C780 C 0.4137 0.8892 0.08157 0.0
C781 C 0.42757 0.9294 0.10431 0.0
N782 N 0.41058 0.98855 0.14441 0.0
N783 N 0.35502 0.8406 0.03777 0.0
C784 C 0.39705 0.95003 0.123 0.0
C785 C 0.36964 0.87155 0.0747 0.0
N786 N 0.32204 0.94874 0.13415 0.0
N787 N 0.44206 0.86723 0.06695 0.0
H788 H 0.32281 0.83081 0.02713 0.0
H789 H 0.37482 0.82929 0.01183 0.0
H790 H 0.47484 0.87763 0.07068 0.0
H791 H 0.43273 0.8365 0.05571 0.0
H792 H 0.32764 0.97938 0.14515 0.0
H793 H 0.28982 0.93442 0.12874 0.0
H794 H 0.39068 1.0049 0.16158 0.0
H795 H 0.44269 1.0036 0.14801 0.0
C796 C 0.65789 0.12319 0.14385 0.0
C797 C 0.67615 0.16333 0.12425 0.0
C798 C 0.61983 0.15522 0.05199 0.0
C799 C 0.5973 0.11798 0.07858 0.0
N800 N 0.59224 0.07255 0.15949 0.0
N801 N 0.67381 0.21918 0.06111 0.0
C802 C 0.61588 0.10318 0.12672 0.0
C803 C 0.65723 0.17958 0.07814 0.0
N804 N 0.68016 0.10517 0.18137 0.0
N805 N 0.60672 0.16685 0.00097 0.0
H806 H 0.70236 0.23694 0.07734 0.0
H807 H 0.65828 0.23491 0.03313 0.0
H808 H 0.58038 0.14996 0.97928 0.0
H809 H 0.62457 0.19111 0.97734 0.0
H810 H 0.67008 0.07458 0.19418 0.0
H811 H 0.71083 0.11996 0.19484 0.0
H812 H 0.60338 0.06315 0.19742 0.0
H813 H 0.55978 0.06029 0.15312 0.0
C814 C 0.59143 0.60726 0.78742 0.0
C815 C 0.61558 0.64414 0.81122 0.0
C816 C 0.57217 0.63106 0.89487 0.0
C817 C 0.55131 0.59186 0.87465 0.0
N818 N 0.54258 0.54081 0.80305 0.0
N819 N 0.636 0.68552 0.89358 0.0
C820 C 0.56121 0.57943 0.82106 0.0
C821 C 0.60801 0.65444 0.86665 0.0
N822 N 0.59674 0.5994 0.73253 0.0
N823 N 0.55629 0.64722 0.93916 0.0
H824 H 0.66355 0.70313 0.87527 0.0
H825 H 0.63417 0.69072 0.93619 0.0
H826 H 0.52762 0.63263 0.95737 0.0
H827 H 0.56831 0.67724 0.95246 0.0
H828 H 0.57729 0.57507 0.71097 0.0
H829 H 0.61886 0.61913 0.70728 0.0
H830 H 0.5518 0.52816 0.76738 0.0
H831 H 0.51942 0.52036 0.82588 0.0
C832 C 0.32167 0.63894 0.88582 0.0
C833 C 0.34481 0.67108 0.85164 0.0
C834 C 0.41139 0.65549 0.88196 0.0
C835 C 0.38825 0.62638 0.92089 0.0
N836 N 0.32264 0.5978 0.96908 0.0
N837 N 0.41206 0.71529 0.82391 0.0
C838 C 0.34377 0.62063 0.92589 0.0
C839 C 0.38985 0.68112 0.85175 0.0
N840 N 0.27882 0.62438 0.87793 0.0
N841 N 0.45291 0.65692 0.87082 0.0
H842 H 0.39746 0.73447 0.80023 0.0
H843 H 0.44488 0.72642 0.82811 0.0
H844 H 0.46992 0.63797 0.89042 0.0
H845 H 0.46945 0.67444 0.83826 0.0
H846 H 0.26132 0.59802 0.89798 0.0
H847 H 0.2617 0.63589 0.84683 0.0
H848 H 0.29078 0.59595 0.97729 0.0
H849 H 0.33804 0.58422 -0.00013 0.0
C850 C 0.42645 0.39106 0.80829 0.0
C851 C 0.38962 0.3615 0.82495 0.0
C852 C 0.40039 0.38491 0.92179 0.0
C853 C 0.43859 0.41285 0.90592 0.0
N854 N 0.49313 0.43672 0.8375 0.0
N855 N 0.34669 0.32356 0.8991 0.0
C856 C 0.45312 0.41445 0.85002 0.0
C857 C 0.37813 0.35643 0.88222 0.0
N858 N 0.4355 0.39715 0.7528 0.0
N859 N 0.38472 0.38639 0.97422 0.0
H860 H 0.32923 0.30181 0.87163 0.0
H861 H 0.34024 0.31587 0.94095 0.0
H862 H 0.40035 0.40676 0.00462 0.0
H863 H 0.35452 0.36998 0.98608 0.0
H864 H 0.45944 0.42124 0.73754 0.0
H865 H 0.41706 0.37952 0.72165 0.0
H866 H 0.50717 0.43585 0.7989 0.0
H867 H 0.51375 0.45353 0.86735 0.0
C868 C 0.63475 0.37979 0.80422 0.0
C869 C 0.64299 0.34175 0.82088 0.0
C870 C 0.61306 0.3465 0.91337 0.0
C871 C 0.60576 0.38504 0.8972 0.0
N872 N 0.60356 0.43626 0.82585 0.0
N873 N 0.64607 0.2912 0.89304 0.0
C874 C 0.6153 0.40134 0.84235 0.0
C875 C 0.63327 0.32541 0.87571 0.0
N876 N 0.64676 0.39568 0.75226 0.0
N877 N 0.59993 0.32976 0.96456 0.0
H878 H 0.66028 0.27417 0.86686 0.0
H879 H 0.64523 0.28078 0.93434 0.0
H880 H 0.58783 0.34545 -0.00507 0.0
H881 H 0.59889 0.29959 0.97631 0.0
H882 H 0.6469 0.42539 0.73928 0.0
H883 H 0.65832 0.37933 0.7221 0.0
H884 H 0.60479 0.44736 0.7849 0.0
H885 H 0.59019 0.45353 0.8527 0.0
C886 C 0.6594 0.35215 0.1311 0.0
C887 C 0.64182 0.341 0.1847 0.0
C888 C 0.58428 0.37374 0.16361 0.0
C889 C 0.60474 0.38949 0.11284 0.0
N890 N 0.66331 0.39683 0.0498 0.0
N891 N 0.58914 0.34092 0.25395 0.0
C892 C 0.64257 0.37926 0.09669 0.0
C893 C 0.60436 0.35125 0.20129 0.0
N894 N 0.69197 0.33654 0.11311 0.0
N895 N 0.54594 0.38086 0.17614 0.0
H896 H 0.60245 0.3231 0.28178 0.0
H897 H 0.5649 0.35167 0.27151 0.0
H898 H 0.53191 0.39956 0.15146 0.0
H899 H 0.52679 0.36637 0.20861 0.0
H900 H 0.70305 0.33994 0.07231 0.0
H901 H 0.70584 0.31723 0.13769 0.0
H902 H 0.69362 0.39449 0.03933 0.0
H903 H 0.65119 0.41593 0.02272 0.0
C904 C 0.6397 0.62241 0.15441 0.0
C905 C 0.62826 0.6498 0.19211 0.0
C906 C 0.55357 0.62343 0.16525 0.0
C907 C 0.56631 0.60277 0.11987 0.0
N908 N 0.62247 0.58565 0.06781 0.0
N909 N 0.57435 0.67868 0.23151 0.0
C910 C 0.60963 0.60262 0.11382 0.0
C911 C 0.58509 0.65067 0.19763 0.0
N912 N 0.67957 0.61563 0.15744 0.0
N913 N 0.5116 0.61587 0.17863 0.0
H914 H 0.5965 0.69856 0.25663 0.0
H915 H 0.54396 0.68383 0.23193 0.0
H916 H 0.4881 0.59427 0.15765 0.0
H917 H 0.50084 0.62754 0.21408 0.0
H918 H 0.68871 0.59342 0.13421 0.0
H919 H 0.70203 0.62935 0.1876 0.0
H920 H 0.65431 0.58843 0.05852 0.0
H921 H 0.60156 0.57215 0.03604 0.0
C922 C 0.37337 0.70635 0.12998 0.0
C923 C 0.34383 0.68948 0.17214 0.0
C924 C 0.36026 0.62265 0.16107 0.0
C925 C 0.3855 0.63855 0.11408 0.0
N926 N 0.40756 0.6933 0.04598 0.0
N927 N 0.30304 0.62945 0.22085 0.0
C928 C 0.38958 0.67979 0.09625 0.0
C929 C 0.33558 0.64702 0.18603 0.0
N930 N 0.38671 0.74795 0.12295 0.0
N931 N 0.36113 0.58519 0.18348 0.0
H932 H 0.2839 0.64596 0.23971 0.0
H933 H 0.29278 0.59786 0.22724 0.0
H934 H 0.37921 0.56658 0.16717 0.0
H935 H 0.34687 0.57423 0.22125 0.0
H936 H 0.41119 0.7619 0.09621 0.0
H937 H 0.37658 0.76855 0.14828 0.0
H938 H 0.40739 0.7219 0.02859 0.0
H939 H 0.41844 0.67437 0.01883 0.0
C940 C 0.40915 0.3614 0.18166 0.0
C941 C 0.37638 0.37661 0.20432 0.0
C942 C 0.4144 0.44644 0.17772 0.0
C943 C 0.44324 0.42977 0.14725 0.0
N944 N 0.45925 0.36968 0.10759 0.0
N945 N 0.34565 0.4332 0.22294 0.0
C946 C 0.43836 0.38679 0.14581 0.0
C947 C 0.37847 0.4192 0.20266 0.0
N948 N 0.41267 0.32271 0.19494 0.0
N949 N 0.42129 0.48798 0.18243 0.0
H950 H 0.31967 0.41386 0.24257 0.0
H951 H 0.3431 0.46332 0.21779 0.0
H952 H 0.44679 0.5085 0.16346 0.0
H953 H 0.40357 0.50194 0.2081 0.0
H954 H 0.43841 0.31157 0.1828 0.0
H955 H 0.39264 0.30394 0.22356 0.0
H956 H 0.45308 0.33813 0.10155 0.0
H957 H 0.47982 0.38709 0.0787 0.0
C958 C 0.80933 0.63108 0.59197 0.0
C959 C 0.82099 0.66306 0.63119 0.0
C960 C 0.88625 0.64137 0.65439 0.0
C961 C 0.87772 0.61275 0.61023 0.0
N962 N 0.82114 0.56748 0.55786 0.0
N963 N 0.87336 0.70233 0.69502 0.0
C964 C 0.8364 0.60378 0.58448 0.0
C965 C 0.86033 0.66929 0.66083 0.0
N966 N 0.77298 0.62765 0.5607 0.0
N967 N 0.91645 0.63882 0.69407 0.0
H968 H 0.85513 0.72327 0.70222 0.0
H969 H 0.90386 0.71093 0.71253 0.0
H970 H 0.93208 0.61512 0.69489 0.0
H971 H 0.92136 0.65607 0.73041 0.0
H972 H 0.765 0.60837 0.52654 0.0
H973 H 0.75281 0.64718 0.56574 0.0
H974 H 0.79048 0.55824 0.54119 0.0
H975 H 0.83639 0.54368 0.55978 0.0
C976 C 0.41739 0.8594 0.67769 0.0
C977 C 0.39004 0.83241 0.64045 0.0
C978 C 0.42238 0.87431 0.5618 0.0
C979 C 0.43961 0.90647 0.59936 0.0
N980 N 0.45925 0.92885 0.69321 0.0
N981 N 0.36847 0.8112 0.54685 0.0
C982 C 0.43985 0.89846 0.65753 0.0
C983 C 0.39391 0.83836 0.58221 0.0
N984 N 0.41994 0.84797 0.73248 0.0
N985 N 0.43373 0.87807 0.50715 0.0
H986 H 0.34839 0.78393 0.56132 0.0
H987 H 0.36616 0.81656 0.50399 0.0
H988 H 0.45646 0.90333 0.49264 0.0
H989 H 0.42465 0.85442 0.47855 0.0
H990 H 0.44096 0.86509 0.76152 0.0
H991 H 0.40332 0.81921 0.74732 0.0
H992 H 0.45659 0.92647 0.73652 0.0
H993 H 0.47713 0.95723 0.6789 0.0
C994 C 0.1575 0.33073 0.63234 0.0
C995 C 0.19925 0.33743 0.61099 0.0
C996 C 0.18953 0.39651 0.55638 0.0
C997 C 0.14804 0.39139 0.57958 0.0
N998 N 0.09087 0.35115 0.63547 0.0
N999 N 0.25055 0.36787 0.54249 0.0
C1000 C 0.13125 0.35732 0.61558 0.0
C1001 C 0.21382 0.36761 0.56974 0.0
N1002 N 0.14396 0.29994 0.671 0.0
N1003 N 0.20641 0.4294 0.52241 0.0
H1004 H 0.26864 0.3468 0.55196 0.0
H1005 H 0.26088 0.38589 0.50722 0.0
H1006 H 0.18925 0.44921 0.50558 0.0
H1007 H 0.23834 0.43803 0.51169 0.0
H1008 H 0.11639 0.29596 0.69411 0.0
H1009 H 0.16122 0.27835 0.68135 0.0
H1010 H 0.0745 0.32421 0.65509 0.0
H1011 H 0.07274 0.3727 0.63172 0.0
C1012 C 0.68005 0.1439 0.59272 0.0
C1013 C 0.66145 0.17788 0.58599 0.0
C1014 C 0.59951 0.1334 0.5396 0.0
C1015 C 0.617 0.09841 0.5486 0.0
N1016 N 0.67028 0.0702 0.59535 0.0
N1017 N 0.60877 0.20753 0.5429 0.0
C1018 C 0.65672 0.10379 0.57735 0.0
C1019 C 0.62258 0.17325 0.55669 0.0
N1020 N 0.7205 0.14999 0.61367 0.0
N1021 N 0.56001 0.12857 0.51644 0.0
H1022 H 0.62542 0.23688 0.55475 0.0
H1023 H 0.58338 0.20776 0.51574 0.0
H1024 H 0.54397 0.10167 0.49815 0.0
H1025 H 0.54246 0.15064 0.51668 0.0
H1026 H 0.73836 0.12824 0.61145 0.0
H1027 H 0.73763 0.17809 0.62872 0.0
H1028 H 0.69616 0.07171 0.62235 0.0
H1029 H 0.65309 0.04019 0.58868 0.0
C1030 C 0.85104 0.37225 0.45691 0.0
C1031 C 0.83668 0.37204 0.4007 0.0
C1032 C 0.8885 0.43692 0.38268 0.0
C1033 C 0.90264 0.43754 0.43865 0.0
N1034 N 0.91211 0.39557 0.51777 0.0
N1035 N 0.86204 0.39127 0.30751 0.0
C1036 C 0.88824 0.40225 0.47297 0.0
C1037 C 0.86103 0.40072 0.36243 0.0
N1038 N 0.82953 0.34464 0.49503 0.0
N1039 N 0.90075 0.47052 0.34856 0.0
H1040 H 0.84571 0.36298 0.29179 0.0
H1041 H 0.88486 0.40875 0.28102 0.0
H1042 H 0.92178 0.49766 0.36131 0.0
H1043 H 0.8871 0.47181 0.30898 0.0
H1044 H 0.83845 0.34536 0.53709 0.0
H1045 H 0.80136 0.32312 0.48538 0.0
H1046 H 0.90599 0.36764 0.53951 0.0
H1047 H 0.94145 0.41537 0.52665 0.0
C1048 C 0.63835 0.83006 0.4023 0.0
C1049 C 0.66485 0.83902 0.35471 0.0
C1050 C 0.64877 0.90676 0.34567 0.0
C1051 C 0.62074 0.89724 0.39104 0.0
N1052 N 0.57929 0.8449 0.45181 0.0
N1053 N 0.67686 0.8782 0.26797 0.0
C1054 C 0.61242 0.85727 0.416 0.0
C1055 C 0.66492 0.87529 0.32264 0.0
N1056 N 0.63861 0.79666 0.43548 0.0
N1057 N 0.65908 0.94546 0.32302 0.0
H1058 H 0.68327 0.85357 0.24708 0.0
H1059 H 0.6741 0.9024 0.24146 0.0
H1060 H 0.64671 0.96923 0.33719 0.0
H1061 H 0.68265 0.95458 0.29314 0.0
H1062 H 0.62313 0.79121 0.47365 0.0
H1063 H 0.65761 0.77654 0.428 0.0
H1064 H 0.56923 0.81493 0.46702 0.0
H1065 H 0.55924 0.86351 0.46204 0.0
C1066 C 0.17114 0.63405 0.38855 0.0
C1067 C 0.15896 0.65554 0.34196 0.0
C1068 C 0.0896 0.60493 0.33865 0.0
C1069 C 0.10364 0.5816 0.38117 0.0
N1070 N 0.16328 0.56777 0.4334 0.0
N1071 N 0.11189 0.65065 0.26058 0.0
C1072 C 0.14614 0.5942 0.40209 0.0
C1073 C 0.11952 0.63812 0.31359 0.0
N1074 N 0.20542 0.65185 0.42126 0.0
N1075 N 0.04806 0.59504 0.32117 0.0
H1076 H 0.13489 0.67067 0.23716 0.0
H1077 H 0.08511 0.63663 0.23694 0.0
H1078 H 0.02563 0.56991 0.33727 0.0
H1079 H 0.03543 0.61373 0.29395 0.0
H1080 H 0.21335 0.63831 0.45817 0.0
H1081 H 0.22286 0.68201 0.4155 0.0
H1082 H 0.19515 0.57439 0.44594 0.0
H1083 H 0.14715 0.53742 0.44051 0.0
C1084 C 0.37256 0.21061 0.44054 0.0
C1085 C 0.36005 0.20766 0.3834 0.0
C1086 C 0.40005 0.15555 0.36945 0.0
C1087 C 0.40408 0.1516 0.42827 0.0
N1088 N 0.40716 0.18336 0.51872 0.0
N1089 N 0.37022 0.1857 0.29066 0.0
C1090 C 0.39513 0.18216 0.46357 0.0
C1091 C 0.37732 0.18327 0.34698 0.0
N1092 N 0.36095 0.23907 0.47278 0.0
N1093 N 0.41919 0.1335 0.3352 0.0
H1094 H 0.35863 0.20933 0.27251 0.0
H1095 H 0.37433 0.16395 0.26239 0.0
H1096 H 0.43674 0.11339 0.35036 0.0
H1097 H 0.42084 0.13716 0.292 0.0
H1098 H 0.36757 0.24292 0.51528 0.0
H1099 H 0.3445 0.25977 0.45644 0.0
H1100 H 0.40307 0.20532 0.54662 0.0
H1101 H 0.42257 0.16275 0.53737 0.0
C1102 C 0.69318 0.85132 0.55765 0.0
C1103 C 0.68655 0.84068 0.61519 0.0
C1104 C 0.64788 0.89403 0.62554 0.0
C1105 C 0.65433 0.90466 0.56847 0.0
N1106 N 0.69495 0.90372 0.48555 0.0
N1107 N 0.67754 0.86739 0.70658 0.0
C1108 C 0.68104 0.88671 0.53614 0.0
C1109 C 0.66962 0.86646 0.65016 0.0
N1110 N 0.70975 0.82731 0.52339 0.0
N1111 N 0.62151 0.91058 0.65669 0.0
H1112 H 0.69851 0.8521 0.72571 0.0
H1113 H 0.66853 0.88803 0.73293 0.0
H1114 H 0.60664 0.9328 0.64111 0.0
H1115 H 0.61242 0.90014 0.69701 0.0
H1116 H 0.71446 0.83315 0.48082 0.0
H1117 H 0.7158 0.79953 0.53636 0.0
H1118 H 0.71732 0.89424 0.46189 0.0
H1119 H 0.68695 0.92998 0.46966 0.0
C1120 C 0.59226 0.16686 0.38897 0.0
C1121 C 0.63637 0.17306 0.40104 0.0
C1122 C 0.62946 0.09938 0.40123 0.0
C1123 C 0.58479 0.09207 0.38924 0.0
N1124 N 0.52295 0.11946 0.37844 0.0
N1125 N 0.68938 0.14489 0.44712 0.0
C1126 C 0.56597 0.12613 0.38527 0.0
C1127 C 0.6525 0.13921 0.4165 0.0
N1128 N 0.57616 0.20035 0.37968 0.0
N1129 N 0.65074 0.06912 0.39771 0.0
H1130 H 0.70432 0.17329 0.46388 0.0
H1131 H 0.70112 0.12068 0.46301 0.0
H1132 H 0.63739 0.03951 0.38454 0.0
H1133 H 0.68374 0.07494 0.40166 0.0
H1134 H 0.54567 0.199 0.36413 0.0
H1135 H 0.59447 0.23004 0.3869 0.0
H1136 H 0.50661 0.14219 0.38311 0.0
H1137 H 0.50338 0.09054 0.37008 0.0
C1138 C 0.83107 0.68373 0.44159 0.0
C1139 C 0.79883 0.66685 0.40204 0.0
C1140 C 0.82744 0.60627 0.39445 0.0
C1141 C 0.85942 0.62205 0.43565 0.0
N1142 N 0.88801 0.675 0.50368 0.0
N1143 N 0.75918 0.60833 0.3524 0.0
C1144 C 0.86023 0.66056 0.46084 0.0
C1145 C 0.79441 0.62653 0.38319 0.0
N1146 N 0.83463 0.72293 0.45892 0.0
N1147 N 0.83064 0.57395 0.36231 0.0
H1148 H 0.73501 0.62312 0.34325 0.0
H1149 H 0.75195 0.57759 0.34118 0.0
H1150 H 0.85707 0.56147 0.36363 0.0
H1151 H 0.8099 0.5628 0.32929 0.0
H1152 H 0.86065 0.74007 0.48115 0.0
H1153 H 0.81149 0.7388 0.4489 0.0
H1154 H 0.88602 0.69961 0.52835 0.0
H1155 H 0.91166 0.66123 0.51766 0.0
C1156 C 0.39291 0.87297 0.36146 0.0
C1157 C 0.35123 0.85576 0.38017 0.0
C1158 C 0.35775 0.91347 0.44435 0.0
C1159 C 0.39727 0.93366 0.41961 0.0
N1160 N 0.44874 0.93472 0.34749 0.0
N1161 N 0.29261 0.85936 0.43787 0.0
C1162 C 0.41406 0.91372 0.37657 0.0
C1163 C 0.33358 0.8757 0.42188 0.0
N1164 N 0.41175 0.85033 0.32796 0.0
N1165 N 0.34355 0.92959 0.49008 0.0
H1166 H 0.27527 0.8306 0.42462 0.0
H1167 H 0.2753 0.87485 0.46192 0.0
H1168 H 0.35808 0.95819 0.50605 0.0
H1169 H 0.31843 0.9135 0.51436 0.0
H1170 H 0.44353 0.85933 0.3165 0.0
H1171 H 0.39639 0.82048 0.31649 0.0
H1172 H 0.46014 0.92319 0.31243 0.0
H1173 H 0.46349 0.96547 0.35447 0.0
C1174 C 0.20465 0.39456 0.37332 0.0
C1175 C 0.19712 0.35304 0.39165 0.0
C1176 C 0.13295 0.35918 0.43992 0.0
C1177 C 0.14005 0.4008 0.42154 0.0
N1178 N 0.18657 0.46029 0.37851 0.0
N1179 N 0.16239 0.29988 0.45495 0.0
C1180 C 0.17746 0.4193 0.39128 0.0
C1181 C 0.16392 0.33681 0.42923 0.0
N1182 N 0.23601 0.4095 0.33558 0.0
N1183 N 0.09601 0.34044 0.46606 0.0
H1184 H 0.18511 0.28334 0.44784 0.0
H1185 H 0.14172 0.28792 0.48725 0.0
H1186 H 0.07265 0.35554 0.47564 0.0
H1187 H 0.08706 0.30911 0.47488 0.0
H1188 H 0.23967 0.43744 0.31443 0.0
H1189 H 0.25747 0.39292 0.3232 0.0
H1190 H 0.21571 0.47657 0.36301 0.0
H1191 H 0.16599 0.47886 0.38633 0.0
C1192 C 0.32154 0.14241 0.57746 0.0
C1193 C 0.32718 0.15601 0.63367 0.0
C1194 C 0.35433 0.09594 0.65984 0.0
C1195 C 0.35662 0.0872 0.60223 0.0
N1196 N 0.31858 0.08598 0.51422 0.0
N1197 N 0.32806 0.13398 0.73023 0.0
C1198 C 0.33285 0.1054 0.56306 0.0
C1199 C 0.3377 0.12941 0.67565 0.0
N1200 N 0.30604 0.1649 0.53781 0.0
N1201 N 0.3658 0.07072 0.69947 0.0
H1202 H 0.31038 0.1543 0.74234 0.0
H1203 H 0.33307 0.11483 0.76287 0.0
H1204 H 0.36781 0.04103 0.69037 0.0
H1205 H 0.37241 0.07862 0.74114 0.0
H1206 H 0.30325 0.15784 0.49554 0.0
H1207 H 0.29838 0.19247 0.54626 0.0
H1208 H 0.29942 0.0965 0.48499 0.0
H1209 H 0.32013 0.05598 0.50685 0.0
C1210 C 0.84568 0.43711 0.6367 0.0
C1211 C 0.84791 0.39576 0.64136 0.0
C1212 C 0.92631 0.41832 0.64094 0.0
C1213 C 0.92371 0.45974 0.63737 0.0
N1214 N 0.8806 0.50717 0.65767 0.0
N1215 N 0.89105 0.34778 0.66295 0.0
C1216 C 0.88337 0.4689 0.64295 0.0
C1217 C 0.88847 0.38645 0.64749 0.0
N1218 N 0.80742 0.44612 0.62604 0.0
N1219 N 0.96513 0.40946 0.63774 0.0
H1220 H 0.8645 0.32388 0.67066 0.0
H1221 H 0.91946 0.34024 0.67376 0.0
H1222 H 0.99355 0.4322 0.63811 0.0
H1223 H 0.96902 0.37996 0.63214 0.0
H1224 H 0.80447 0.47571 0.61677 0.0
H1225 H 0.77927 0.42341 0.62089 0.0
H1226 H 0.85183 0.51436 0.66577 0.0
H1227 H 0.90673 0.52997 0.67037 0.0
C1228 C 0.17094 0.65419 0.56894 0.0
C1229 C 0.19423 0.64836 0.61787 0.0
C1230 C 0.15193 0.57724 0.62595 0.0
C1231 C 0.12622 0.58435 0.58 0.0
N1232 N 0.10654 0.63128 0.51328 0.0
N1233 N 0.20194 0.60653 0.69914 0.0
C1234 C 0.13439 0.62336 0.55298 0.0
C1235 C 0.18386 0.61029 0.64773 0.0
N1236 N 0.18402 0.68951 0.53803 0.0
N1237 N 0.14546 0.53884 0.64938 0.0
H1238 H 0.22566 0.62945 0.71728 0.0
H1239 H 0.19125 0.58159 0.72607 0.0
H1240 H 0.1196 0.51482 0.6388 0.0
H1241 H 0.16684 0.53029 0.67741 0.0
H1242 H 0.17038 0.69504 0.49985 0.0
H1243 H 0.21132 0.71205 0.5484 0.0
H1244 H 0.10865 0.65998 0.49493 0.0
H1245 H 0.07875 0.60988 0.50239 0.0
loop_
_geom_bond_atom_site_label_1
_geom_bond_atom_site_label_2
_geom_bond_distance
_geom_bond_site_symmetry_2
_ccdc_geom_bond_type
O0 Zn1 1.953 . S
O0 C16 1.225 . S
Zn1 O0 1.953 . S
Zn1 O2 1.949 . S
Zn1 O8 1.919 . S
Zn1 O13 1.924 . S
O2 Zn1 1.949 . S
O2 Zn3 1.923 . S
O2 Zn4 1.950 . S
O2 Zn5 1.945 . S
Zn3 O2 1.923 . S
Zn3 O6 1.933 . S
Zn3 O9 1.941 . S
Zn3 O10 1.965 . S
Zn4 O2 1.950 . S
Zn4 O11 1.938 . S
Zn4 O12 1.906 . S
Zn4 O22 1.953 . S
Zn5 O2 1.945 . S
Zn5 O7 1.932 . S
Zn5 O14 1.977 . S
Zn5 O15 1.910 . S
O6 Zn3 1.933 . S
O6 C17 1.226 . S
O7 Zn5 1.932 . S
O7 C17 1.307 . S
O8 Zn1 1.919 . S
O8 C19 1.253 . S
O9 Zn3 1.941 . S
O9 C19 1.283 . S
O10 Zn3 1.965 . S
O10 C18 1.303 . S
O11 Zn4 1.938 . S
O11 C18 1.247 . S
O12 Zn4 1.906 . S
O12 C20 1.304 . S
O13 Zn1 1.924 . S
O13 C21 1.311 . S
O14 Zn5 1.977 . S
O14 C20 1.272 . S
O15 Zn5 1.910 . S
O15 C21 1.231 . S
C16 O0 1.225 . S
C16 O22 1.298 . S
C17 O6 1.226 . S
C17 O7 1.307 . S
C18 O10 1.303 . S
C18 O11 1.247 . S
C19 O8 1.253 . S
C19 O9 1.283 . S
C20 O12 1.304 . S
C20 O14 1.272 . S
C21 O13 1.311 . S
C21 O15 1.231 . S
O22 Zn4 1.953 . S
O22 C16 1.298 . S
O23 Zn24 1.953 . S
O23 C39 1.225 . S
Zn24 O23 1.953 . S
Zn24 O25 1.949 . S
Zn24 O31 1.919 . S
Zn24 O36 1.924 . S
O25 Zn24 1.949 . S
O25 Zn26 1.923 . S
O25 Zn27 1.950 . S
O25 Zn28 1.945 . S
Zn26 O25 1.923 . S
Zn26 O29 1.933 . S
Zn26 O32 1.941 . S
Zn26 O33 1.965 . S
Zn27 O25 1.950 . S
Zn27 O34 1.938 . S
Zn27 O35 1.906 . S
Zn27 O45 1.953 . S
Zn28 O25 1.945 . S
Zn28 O30 1.932 . S
Zn28 O37 1.977 . S
Zn28 O38 1.910 . S
O29 Zn26 1.933 . S
O29 C40 1.226 . S
O30 Zn28 1.932 . S
O30 C40 1.307 . S
O31 Zn24 1.919 . S
O31 C42 1.253 . S
O32 Zn26 1.941 . S
O32 C42 1.283 . S
O33 Zn26 1.965 . S
O33 C41 1.303 . S
O34 Zn27 1.938 . S
O34 C41 1.247 . S
O35 Zn27 1.906 . S
O35 C43 1.304 . S
O36 Zn24 1.924 . S
O36 C44 1.311 . S
O37 Zn28 1.977 . S
O37 C43 1.272 . S
O38 Zn28 1.910 . S
O38 C44 1.231 . S
C39 O23 1.225 . S
C39 O45 1.298 . S
C40 O29 1.226 . S
C40 O30 1.307 . S
C41 O33 1.303 . S
C41 O34 1.247 . S
C42 O31 1.253 . S
C42 O32 1.283 . S
C43 O35 1.304 . S
C43 O37 1.272 . S
C44 O36 1.311 . S
C44 O38 1.231 . S
O45 Zn27 1.953 . S
O45 C39 1.298 . S
O46 Zn47 1.953 . S
O46 C62 1.225 . S
Zn47 O46 1.953 . S
Zn47 O48 1.949 . S
Zn47 O54 1.919 . S
Zn47 O59 1.924 . S
O48 Zn47 1.949 . S
O48 Zn49 1.923 . S
O48 Zn50 1.950 . S
O48 Zn51 1.945 . S
Zn49 O48 1.923 . S
Zn49 O52 1.933 . S
Zn49 O55 1.941 . S
Zn49 O56 1.965 . S
Zn50 O48 1.950 . S
Zn50 O57 1.938 . S
Zn50 O58 1.906 . S
Zn50 O68 1.953 . S
Zn51 O48 1.945 . S
Zn51 O53 1.932 . S
Zn51 O60 1.977 . S
Zn51 O61 1.910 . S
O52 Zn49 1.933 . S
O52 C63 1.226 . S
O53 Zn51 1.932 . S
O53 C63 1.307 . S
O54 Zn47 1.919 . S
O54 C65 1.253 . S
O55 Zn49 1.941 . S
O55 C65 1.283 . S
O56 Zn49 1.965 . S
O56 C64 1.303 . S
O57 Zn50 1.938 . S
O57 C64 1.247 . S
O58 Zn50 1.906 . S
O58 C66 1.304 . S
O59 Zn47 1.924 . S
O59 C67 1.311 . S
O60 Zn51 1.977 . S
O60 C66 1.272 . S
O61 Zn51 1.910 . S
O61 C67 1.231 . S
C62 O46 1.225 . S
C62 O68 1.298 . S
C63 O52 1.226 . S
C63 O53 1.307 . S
C64 O56 1.303 . S
C64 O57 1.247 . S
C65 O54 1.253 . S
C65 O55 1.283 . S
C66 O58 1.304 . S
C66 O60 1.272 . S
C67 O59 1.311 . S
C67 O61 1.231 . S
O68 Zn50 1.953 . S
O68 C62 1.298 . S
O69 Zn70 1.953 . S
O69 C85 1.225 . S
Zn70 O69 1.953 . S
Zn70 O71 1.949 . S
Zn70 O77 1.919 . S
Zn70 O82 1.924 . S
O71 Zn70 1.949 . S
O71 Zn72 1.923 . S
O71 Zn73 1.950 . S
O71 Zn74 1.945 . S
Zn72 O71 1.923 . S
Zn72 O75 1.933 . S
Zn72 O78 1.941 . S
Zn72 O79 1.965 . S
Zn73 O71 1.950 . S
Zn73 O80 1.938 . S
Zn73 O81 1.906 . S
Zn73 O91 1.953 . S
Zn74 O71 1.945 . S
Zn74 O76 1.932 . S
Zn74 O83 1.977 . S
Zn74 O84 1.910 . S
O75 Zn72 1.933 . S
O75 C86 1.226 . S
O76 Zn74 1.932 . S
O76 C86 1.307 . S
O77 Zn70 1.919 . S
O77 C88 1.253 . S
O78 Zn72 1.941 . S
O78 C88 1.283 . S
O79 Zn72 1.965 . S
O79 C87 1.303 . S
O80 Zn73 1.938 . S
O80 C87 1.247 . S
O81 Zn73 1.906 . S
O81 C89 1.304 . S
O82 Zn70 1.924 . S
O82 C90 1.311 . S
O83 Zn74 1.977 . S
O83 C89 1.272 . S
O84 Zn74 1.910 . S
O84 C90 1.231 . S
C85 O69 1.225 . S
C85 O91 1.298 . S
C86 O75 1.226 . S
C86 O76 1.307 . S
C87 O79 1.303 . S
C87 O80 1.247 . S
C88 O77 1.253 . S
C88 O78 1.283 . S
C89 O81 1.304 . S
C89 O83 1.272 . S
C90 O82 1.311 . S
C90 O84 1.231 . S
O91 Zn73 1.953 . S
O91 C85 1.298 . S
O92 Zn93 1.953 . S
O92 C108 1.225 . S
Zn93 O92 1.953 . S
Zn93 O94 1.949 . S
Zn93 O100 1.919 . S
Zn93 O105 1.924 . S
O94 Zn93 1.949 . S
O94 Zn95 1.923 . S
O94 Zn96 1.950 . S
O94 Zn97 1.945 . S
Zn95 O94 1.923 . S
Zn95 O98 1.933 . S
Zn95 O101 1.941 . S
Zn95 O102 1.965 . S
Zn96 O94 1.950 . S
Zn96 O103 1.938 . S
Zn96 O104 1.906 . S
Zn96 O114 1.953 . S
Zn97 O94 1.945 . S
Zn97 O99 1.932 . S
Zn97 O106 1.977 . S
Zn97 O107 1.910 . S
O98 Zn95 1.933 . S
O98 C109 1.226 . S
O99 Zn97 1.932 . S
O99 C109 1.307 . S
O100 Zn93 1.919 . S
O100 C111 1.253 . S
O101 Zn95 1.941 . S
O101 C111 1.283 . S
O102 Zn95 1.965 . S
O102 C110 1.303 . S
O103 Zn96 1.938 . S
O103 C110 1.247 . S
O104 Zn96 1.906 . S
O104 C112 1.304 . S
O105 Zn93 1.924 . S
O105 C113 1.311 . S
O106 Zn97 1.977 . S
O106 C112 1.272 . S
O107 Zn97 1.910 . S
O107 C113 1.231 . S
C108 O92 1.225 . S
C108 O114 1.298 . S
C109 O98 1.226 . S
C109 O99 1.307 . S
C110 O102 1.303 . S
C110 O103 1.247 . S
C111 O100 1.253 . S
C111 O101 1.283 . S
C112 O104 1.304 . S
C112 O106 1.272 . S
C113 O105 1.311 . S
C113 O107 1.231 . S
O114 Zn96 1.953 . S
O114 C108 1.298 . S
O115 Zn116 1.953 . S
O115 C131 1.225 . S
Zn116 O115 1.953 . S
Zn116 O117 1.949 . S
Zn116 O123 1.919 . S
Zn116 O128 1.924 . S
O117 Zn116 1.949 . S
O117 Zn118 1.923 . S
O117 Zn119 1.950 . S
O117 Zn120 1.945 . S
Zn118 O117 1.923 . S
Zn118 O121 1.933 . S
Zn118 O124 1.941 . S
Zn118 O125 1.965 . S
Zn119 O117 1.950 . S
Zn119 O126 1.938 . S
Zn119 O127 1.906 . S
Zn119 O137 1.953 . S
Zn120 O117 1.945 . S
Zn120 O122 1.932 . S
Zn120 O129 1.977 . S
Zn120 O130 1.910 . S
O121 Zn118 1.933 . S
O121 C132 1.226 . S
O122 Zn120 1.932 . S
O122 C132 1.307 . S
O123 Zn116 1.919 . S
O123 C134 1.253 . S
O124 Zn118 1.941 . S
O124 C134 1.283 . S
O125 Zn118 1.965 . S
O125 C133 1.303 . S
O126 Zn119 1.938 . S
O126 C133 1.247 . S
O127 Zn119 1.906 . S
O127 C135 1.304 . S
O128 Zn116 1.924 . S
O128 C136 1.311 . S
O129 Zn120 1.977 . S
O129 C135 1.272 . S
O130 Zn120 1.910 . S
O130 C136 1.231 . S
C131 O115 1.225 . S
C131 O137 1.298 . S
C132 O121 1.226 . S
C132 O122 1.307 . S
C133 O125 1.303 . S
C133 O126 1.247 . S
C134 O123 1.253 . S
C134 O124 1.283 . S
C135 O127 1.304 . S
C135 O129 1.272 . S
C136 O128 1.311 . S
C136 O130 1.231 . S
O137 Zn119 1.953 . S
O137 C131 1.298 . S
O138 Zn139 1.953 . S
O138 C154 1.225 . S
Zn139 O138 1.953 . S
Zn139 O140 1.949 . S
Zn139 O146 1.919 . S
Zn139 O151 1.924 . S
O140 Zn139 1.949 . S
O140 Zn141 1.923 . S
O140 Zn142 1.950 . S
O140 Zn143 1.945 . S
Zn141 O140 1.923 . S
Zn141 O144 1.933 . S
Zn141 O147 1.941 . S
Zn141 O148 1.965 . S
Zn142 O140 1.950 . S
Zn142 O149 1.938 . S
Zn142 O150 1.906 . S
Zn142 O160 1.953 . S
Zn143 O140 1.945 . S
Zn143 O145 1.932 . S
Zn143 O152 1.977 . S
Zn143 O153 1.910 . S
O144 Zn141 1.933 . S
O144 C155 1.226 . S
O145 Zn143 1.932 . S
O145 C155 1.307 . S
O146 Zn139 1.919 . S
O146 C157 1.253 . S
O147 Zn141 1.941 . S
O147 C157 1.283 . S
O148 Zn141 1.965 . S
O148 C156 1.303 . S
O149 Zn142 1.938 . S
O149 C156 1.247 . S
O150 Zn142 1.906 . S
O150 C158 1.304 . S
O151 Zn139 1.924 . S
O151 C159 1.311 . S
O152 Zn143 1.977 . S
O152 C158 1.272 . S
O153 Zn143 1.910 . S
O153 C159 1.231 . S
C154 O138 1.225 . S
C154 O160 1.298 . S
C155 O144 1.226 . S
C155 O145 1.307 . S
C156 O148 1.303 . S
C156 O149 1.247 . S
C157 O146 1.253 . S
C157 O147 1.283 . S
C158 O150 1.304 . S
C158 O152 1.272 . S
C159 O151 1.311 . S
C159 O153 1.231 . S
O160 Zn142 1.953 . S
O160 C154 1.298 . S
O161 Zn162 1.953 . S
O161 C177 1.225 . S
Zn162 O161 1.953 . S
Zn162 O163 1.949 . S
Zn162 O169 1.919 . S
Zn162 O174 1.924 . S
O163 Zn162 1.949 . S
O163 Zn164 1.923 . S
O163 Zn165 1.950 . S
O163 Zn166 1.945 . S
Zn164 O163 1.923 . S
Zn164 O167 1.933 . S
Zn164 O170 1.941 . S
Zn164 O171 1.965 . S
Zn165 O163 1.950 . S
Zn165 O172 1.938 . S
Zn165 O173 1.906 . S
Zn165 O183 1.953 . S
Zn166 O163 1.945 . S
Zn166 O168 1.932 . S
Zn166 O175 1.977 . S
Zn166 O176 1.910 . S
O167 Zn164 1.933 . S
O167 C178 1.226 . S
O168 Zn166 1.932 . S
O168 C178 1.307 . S
O169 Zn162 1.919 . S
O169 C180 1.253 . S
O170 Zn164 1.941 . S
O170 C180 1.283 . S
O171 Zn164 1.965 . S
O171 C179 1.303 . S
O172 Zn165 1.938 . S
O172 C179 1.247 . S
O173 Zn165 1.906 . S
O173 C181 1.304 . S
O174 Zn162 1.924 . S
O174 C182 1.311 . S
O175 Zn166 1.977 . S
O175 C181 1.272 . S
O176 Zn166 1.910 . S
O176 C182 1.231 . S
C177 O161 1.225 . S
C177 O183 1.298 . S
C178 O167 1.226 . S
C178 O168 1.307 . S
C179 O171 1.303 . S
C179 O172 1.247 . S
C180 O169 1.253 . S
C180 O170 1.283 . S
C181 O173 1.304 . S
C181 O175 1.272 . S
C182 O174 1.311 . S
C182 O176 1.231 . S
O183 Zn165 1.953 . S
O183 C177 1.298 . S
Co184 O187 2.042 . S
Co184 O194 2.264 . S
Co184 O213 2.286 . S
Co184 O214 2.069 . S
Co184 O216 2.015 1_455 S
Co185 O187 2.122 . S
Co185 O193 2.073 . S
Co185 O194 2.327 . S
Co185 O195 1.976 1_455 S
Co186 O187 2.087 1_545 S
Co186 O189 2.087 1_455 S
Co186 O196 2.111 1_445 S
Co186 O197 2.143 . S
Co186 O201 2.111 . S
Co186 O215 2.143 1_445 S
O187 Co184 2.042 . S
O187 Co185 2.122 . S
O187 Co186 2.087 1_565 S
O187 H188 0.980 . S
H188 O187 0.980 . S
O189 Co186 2.087 1_655 S
O189 Co190 2.042 . S
O189 Co191 2.122 . S
O189 H192 0.980 . S
Co190 O189 2.042 . S
Co190 O198 2.286 . S
Co190 O199 2.069 . S
Co190 O200 2.015 1_655 S
Co190 O203 2.264 . S
Co191 O189 2.122 . S
Co191 O202 1.976 1_655 S
Co191 O203 2.327 . S
Co191 O204 2.073 . S
H192 O189 0.980 . S
O193 Co185 2.073 . S
O193 C208 1.245 . S
O194 Co184 2.264 . S
O194 Co185 2.327 . S
O194 C208 1.257 . S
O195 Co185 1.976 1_655 S
O195 C207 1.251 . S
O196 Co186 2.111 1_665 S
O196 C207 1.274 . S
O197 Co186 2.143 . S
O197 C210 1.246 . S
O198 Co190 2.286 . S
O198 C209 1.259 . S
O199 Co190 2.069 . S
O199 C209 1.289 . S
O200 Co190 2.015 1_455 S
O200 C210 1.257 . S
O201 Co186 2.111 . S
O201 C211 1.274 . S
O202 Co191 1.976 1_455 S
O202 C211 1.251 . S
O203 Co190 2.264 . S
O203 Co191 2.327 . S
O203 C212 1.257 . S
O204 Co191 2.073 . S
O204 C212 1.245 . S
C205 O213 1.259 . S
C205 O214 1.289 . S
C206 O215 1.246 . S
C206 O216 1.257 . S
C207 O195 1.251 . S
C207 O196 1.274 . S
C208 O193 1.245 . S
C208 O194 1.257 . S
C209 O198 1.259 . S
C209 O199 1.289 . S
C210 O197 1.246 . S
C210 O200 1.257 . S
C211 O201 1.274 . S
C211 O202 1.251 . S
C212 O203 1.257 . S
C212 O204 1.245 . S
O213 Co184 2.286 . S
O213 C205 1.259 . S
O214 Co184 2.069 . S
O214 C205 1.289 . S
O215 Co186 2.143 1_665 S
O215 C206 1.246 . S
O216 Co184 2.015 1_655 S
O216 C206 1.257 . S
Co217 O220 2.042 1_556 S
Co217 O227 2.264 1_556 S
Co217 O246 2.286 . S
Co217 O247 2.069 . S
Co217 O249 2.015 . S
Co218 O220 2.122 . S
Co218 O226 2.073 . S
Co218 O227 2.327 . S
Co218 O228 1.976 . S
Co219 O220 2.087 1_545 S
Co219 O222 2.087 1_554 S
Co219 O229 2.111 1_545 S
Co219 O230 2.143 . S
Co219 O234 2.111 1_554 S
Co219 O248 2.143 1_544 S
O220 Co217 2.042 1_554 S
O220 Co218 2.122 . S
O220 Co219 2.087 1_565 S
O220 H221 0.980 . S
H221 O220 0.980 . S
O222 Co219 2.087 1_556 S
O222 Co223 2.042 1_556 S
O222 Co224 2.122 . S
O222 H225 0.980 . S
Co223 O222 2.042 1_554 S
Co223 O231 2.286 . S
Co223 O232 2.069 . S
Co223 O233 2.015 . S
Co223 O236 2.264 1_554 S
Co224 O222 2.122 . S
Co224 O235 1.976 . S
Co224 O236 2.327 . S
Co224 O237 2.073 . S
H225 O222 0.980 . S
O226 Co218 2.073 . S
O226 C241 1.245 . S
O227 Co217 2.264 1_554 S
O227 Co218 2.327 . S
O227 C241 1.257 . S
O228 Co218 1.976 . S
O228 C240 1.251 . S
O229 Co219 2.111 1_565 S
O229 C240 1.274 . S
O230 Co219 2.143 . S
O230 C243 1.246 . S
O231 Co223 2.286 . S
O231 C242 1.259 . S
O232 Co223 2.069 . S
O232 C242 1.289 . S
O233 Co223 2.015 . S
O233 C243 1.257 . S
O234 Co219 2.111 1_556 S
O234 C244 1.274 . S
O235 Co224 1.976 . S
O235 C244 1.251 . S
O236 Co223 2.264 1_556 S
O236 Co224 2.327 . S
O236 C245 1.257 . S
O237 Co224 2.073 . S
O237 C245 1.245 . S
C238 O246 1.259 . S
C238 O247 1.289 . S
C239 O248 1.246 . S
C239 O249 1.257 . S
C240 O228 1.251 . S
C240 O229 1.274 . S
C241 O226 1.245 . S
C241 O227 1.257 . S
C242 O231 1.259 . S
C242 O232 1.289 . S
C243 O230 1.246 . S
C243 O233 1.257 . S
C244 O234 1.274 . S
C244 O235 1.251 . S
C245 O236 1.257 . S
C245 O237 1.245 . S
O246 Co217 2.286 . S
O246 C238 1.259 . S
O247 Co217 2.069 . S
O247 C238 1.289 . S
O248 Co219 2.143 1_566 S
O248 C239 1.246 . S
O249 Co217 2.015 . S
O249 C239 1.257 . S
Co250 O253 2.042 1_556 S
Co250 O260 2.264 1_556 S
Co250 O279 2.286 . S
Co250 O280 2.069 . S
Co250 O282 2.015 1_455 S
Co251 O253 2.122 . S
Co251 O259 2.073 . S
Co251 O260 2.327 . S
Co251 O261 1.976 1_455 S
Co252 O253 2.087 . S
Co252 O255 2.087 1_454 S
Co252 O262 2.111 1_455 S
Co252 O263 2.143 . S
Co252 O267 2.111 1_554 S
Co252 O281 2.143 1_454 S
O253 Co250 2.042 1_554 S
O253 Co251 2.122 . S
O253 Co252 2.087 . S
O253 H254 0.980 . S
H254 O253 0.980 . S
O255 Co252 2.087 1_656 S
O255 Co256 2.042 1_556 S
O255 Co257 2.122 . S
O255 H258 0.980 . S
Co256 O255 2.042 1_554 S
Co256 O264 2.286 . S
Co256 O265 2.069 . S
Co256 O266 2.015 1_655 S
Co256 O269 2.264 1_554 S
Co257 O255 2.122 . S
Co257 O268 1.976 1_655 S
Co257 O269 2.327 . S
Co257 O270 2.073 . S
H258 O255 0.980 . S
O259 Co251 2.073 . S
O259 C274 1.245 . S
O260 Co250 2.264 1_554 S
O260 Co251 2.327 . S
O260 C274 1.257 . S
O261 Co251 1.976 1_655 S
O261 C273 1.251 . S
O262 Co252 2.111 1_655 S
O262 C273 1.274 . S
O263 Co252 2.143 . S
O263 C276 1.246 . S
O264 Co256 2.286 . S
O264 C275 1.259 . S
O265 Co256 2.069 . S
O265 C275 1.289 . S
O266 Co256 2.015 1_455 S
O266 C276 1.257 . S
O267 Co252 2.111 1_556 S
O267 C277 1.274 . S
O268 Co257 1.976 1_455 S
O268 C277 1.251 . S
O269 Co256 2.264 1_556 S
O269 Co257 2.327 . S
O269 C278 1.257 . S
O270 Co257 2.073 . S
O270 C278 1.245 . S
C271 O279 1.259 . S
C271 O280 1.289 . S
C272 O281 1.246 . S
C272 O282 1.257 . S
C273 O261 1.251 . S
C273 O262 1.274 . S
C274 O259 1.245 . S
C274 O260 1.257 . S
C275 O264 1.259 . S
C275 O265 1.289 . S
C276 O263 1.246 . S
C276 O266 1.257 . S
C277 O267 1.274 . S
C277 O268 1.251 . S
C278 O269 1.257 . S
C278 O270 1.245 . S
O279 Co250 2.286 . S
O279 C271 1.259 . S
O280 Co250 2.069 . S
O280 C271 1.289 . S
O281 Co252 2.143 1_656 S
O281 C272 1.246 . S
O282 Co250 2.015 1_655 S
O282 C272 1.257 . S
Co283 O286 2.042 1_556 S
Co283 O293 2.264 1_556 S
Co283 O312 2.286 . S
Co283 O313 2.069 . S
Co283 O315 2.015 . S
Co284 O286 2.122 . S
Co284 O292 2.073 . S
Co284 O293 2.327 . S
Co284 O294 1.976 . S
Co285 O286 2.087 . S
Co285 O288 2.087 1_554 S
Co285 O295 2.111 . S
Co285 O296 2.143 . S
Co285 O300 2.111 1_554 S
Co285 O314 2.143 1_554 S
O286 Co283 2.042 1_554 S
O286 Co284 2.122 . S
O286 Co285 2.087 . S
O286 H287 0.980 . S
H287 O286 0.980 . S
O288 Co285 2.087 1_556 S
O288 Co289 2.042 1_556 S
O288 Co290 2.122 . S
O288 H291 0.980 . S
Co289 O288 2.042 1_554 S
Co289 O297 2.286 . S
Co289 O298 2.069 . S
Co289 O299 2.015 . S
Co289 O302 2.264 1_554 S
Co290 O288 2.122 . S
Co290 O301 1.976 . S
Co290 O302 2.327 . S
Co290 O303 2.073 . S
H291 O288 0.980 . S
O292 Co284 2.073 . S
O292 C307 1.245 . S
O293 Co283 2.264 1_554 S
O293 Co284 2.327 . S
O293 C307 1.257 . S
O294 Co284 1.976 . S
O294 C306 1.251 . S
O295 Co285 2.111 . S
O295 C306 1.274 . S
O296 Co285 2.143 . S
O296 C309 1.246 . S
O297 Co289 2.286 . S
O297 C308 1.259 . S
O298 Co289 2.069 . S
O298 C308 1.289 . S
O299 Co289 2.015 . S
O299 C309 1.257 . S
O300 Co285 2.111 1_556 S
O300 C310 1.274 . S
O301 Co290 1.976 . S
O301 C310 1.251 . S
O302 Co289 2.264 1_556 S
O302 Co290 2.327 . S
O302 C311 1.257 . S
O303 Co290 2.073 . S
O303 C311 1.245 . S
C304 O312 1.259 . S
C304 O313 1.289 . S
C305 O314 1.246 . S
C305 O315 1.257 . S
C306 O294 1.251 . S
C306 O295 1.274 . S
C307 O292 1.245 . S
C307 O293 1.257 . S
C308 O297 1.259 . S
C308 O298 1.289 . S
C309 O296 1.246 . S
C309 O299 1.257 . S
C310 O300 1.274 . S
C310 O301 1.251 . S
C311 O302 1.257 . S
C311 O303 1.245 . S
O312 Co283 2.286 . S
O312 C304 1.259 . S
O313 Co283 2.069 . S
O313 C304 1.289 . S
O314 Co285 2.143 1_556 S
O314 C305 1.246 . S
O315 Co283 2.015 . S
O315 C305 1.257 . S
Co316 O319 2.042 . S
Co316 O326 2.264 . S
Co316 O345 2.286 . S
Co316 O346 2.069 . S
Co316 O348 2.015 . S
Co317 O319 2.122 . S
Co317 O325 2.073 . S
Co317 O326 2.327 . S
Co317 O327 1.976 . S
Co318 O319 2.087 . S
Co318 O321 2.087 1_455 S
Co318 O328 2.111 . S
Co318 O329 2.143 1_455 S
Co318 O333 2.111 1_455 S
Co318 O347 2.143 . S
O319 Co316 2.042 . S
O319 Co317 2.122 . S
O319 Co318 2.087 . S
O319 H320 0.980 . S
H320 O319 0.980 . S
O321 Co318 2.087 1_655 S
O321 Co322 2.042 . S
O321 Co323 2.122 . S
O321 H324 0.980 . S
Co322 O321 2.042 . S
Co322 O330 2.286 . S
Co322 O331 2.069 . S
Co322 O332 2.015 . S
Co322 O335 2.264 . S
Co323 O321 2.122 . S
Co323 O334 1.976 . S
Co323 O335 2.327 . S
Co323 O336 2.073 . S
H324 O321 0.980 . S
O325 Co317 2.073 . S
O325 C340 1.245 . S
O326 Co316 2.264 . S
O326 Co317 2.327 . S
O326 C340 1.257 . S
O327 Co317 1.976 . S
O327 C339 1.251 . S
O328 Co318 2.111 . S
O328 C339 1.274 . S
O329 Co318 2.143 1_655 S
O329 C342 1.246 . S
O330 Co322 2.286 . S
O330 C341 1.259 . S
O331 Co322 2.069 . S
O331 C341 1.289 . S
O332 Co322 2.015 . S
O332 C342 1.257 . S
O333 Co318 2.111 1_655 S
O333 C343 1.274 . S
O334 Co323 1.976 . S
O334 C343 1.251 . S
O335 Co322 2.264 . S
O335 Co323 2.327 . S
O335 C344 1.257 . S
O336 Co323 2.073 . S
O336 C344 1.245 . S
C337 O345 1.259 . S
C337 O346 1.289 . S
C338 O347 1.246 . S
C338 O348 1.257 . S
C339 O327 1.251 . S
C339 O328 1.274 . S
C340 O325 1.245 . S
C340 O326 1.257 . S
C341 O330 1.259 . S
C341 O331 1.289 . S
C342 O329 1.246 . S
C342 O332 1.257 . S
C343 O333 1.274 . S
C343 O334 1.251 . S
C344 O335 1.257 . S
C344 O336 1.245 . S
O345 Co316 2.286 . S
O345 C337 1.259 . S
O346 Co316 2.069 . S
O346 C337 1.289 . S
O347 Co318 2.143 . S
O347 C338 1.246 . S
O348 Co316 2.015 . S
O348 C338 1.257 . S
Co349 O352 2.042 . S
Co349 O359 2.264 . S
Co349 O378 2.286 . S
Co349 O379 2.069 . S
Co349 O381 2.015 1_565 S
Co350 O352 2.122 . S
Co350 O358 2.073 . S
Co350 O359 2.327 . S
Co350 O360 1.976 1_565 S
Co351 O352 2.087 1_545 S
Co351 O354 2.087 . S
Co351 O361 2.111 . S
Co351 O362 2.143 1_545 S
Co351 O366 2.111 1_545 S
Co351 O380 2.143 . S
O352 Co349 2.042 . S
O352 Co350 2.122 . S
O352 Co351 2.087 1_565 S
O352 H353 0.980 . S
H353 O352 0.980 . S
O354 Co351 2.087 . S
O354 Co355 2.042 . S
O354 Co356 2.122 . S
O354 H357 0.980 . S
Co355 O354 2.042 . S
Co355 O363 2.286 . S
Co355 O364 2.069 . S
Co355 O365 2.015 1_545 S
Co355 O368 2.264 . S
Co356 O354 2.122 . S
Co356 O367 1.976 1_545 S
Co356 O368 2.327 . S
Co356 O369 2.073 . S
H357 O354 0.980 . S
O358 Co350 2.073 . S
O358 C373 1.245 . S
O359 Co349 2.264 . S
O359 Co350 2.327 . S
O359 C373 1.257 . S
O360 Co350 1.976 1_545 S
O360 C372 1.251 . S
O361 Co351 2.111 . S
O361 C372 1.274 . S
O362 Co351 2.143 1_565 S
O362 C375 1.246 . S
O363 Co355 2.286 . S
O363 C374 1.259 . S
O364 Co355 2.069 . S
O364 C374 1.289 . S
O365 Co355 2.015 1_565 S
O365 C375 1.257 . S
O366 Co351 2.111 1_565 S
O366 C376 1.274 . S
O367 Co356 1.976 1_565 S
O367 C376 1.251 . S
O368 Co355 2.264 . S
O368 Co356 2.327 . S
O368 C377 1.257 . S
O369 Co356 2.073 . S
O369 C377 1.245 . S
C370 O378 1.259 . S
C370 O379 1.289 . S
C371 O380 1.246 . S
C371 O381 1.257 . S
C372 O360 1.251 . S
C372 O361 1.274 . S
C373 O358 1.245 . S
C373 O359 1.257 . S
C374 O363 1.259 . S
C374 O364 1.289 . S
C375 O362 1.246 . S
C375 O365 1.257 . S
C376 O366 1.274 . S
C376 O367 1.251 . S
C377 O368 1.257 . S
C377 O369 1.245 . S
O378 Co349 2.286 . S
O378 C370 1.259 . S
O379 Co349 2.069 . S
O379 C370 1.289 . S
O380 Co351 2.143 . S
O380 C371 1.246 . S
O381 Co349 2.015 1_545 S
O381 C371 1.257 . S
C382 C383 1.363 . S
C382 C388 1.379 . S
C382 N390 1.356 . S
C383 C382 1.363 . S
C383 C389 1.363 . S
C384 C385 1.363 . S
C384 C389 1.379 . S
C384 N391 1.356 . S
C385 C384 1.363 . S
C385 C388 1.363 . S
N386 C388 1.356 . S
N386 H398 0.984 . S
N386 H399 0.985 . S
N387 C389 1.356 . S
N387 H392 0.984 . S
N387 H393 0.985 . S
C388 C382 1.379 . S
C388 C385 1.363 . S
C388 N386 1.356 . S
C389 C383 1.363 . S
C389 C384 1.379 . S
C389 N387 1.356 . S
N390 C382 1.356 . S
N390 H396 0.984 . S
N390 H397 0.984 . S
N391 C384 1.356 . S
N391 H394 0.984 . S
N391 H395 0.985 . S
H392 N387 0.984 . S
H393 N387 0.985 . S
H394 N391 0.984 . S
H395 N391 0.985 . S
H396 N390 0.984 . S
H397 N390 0.984 . S
H398 N386 0.984 . S
H399 N386 0.985 . S
C400 C401 1.363 . S
C400 C406 1.379 . S
C400 N408 1.356 . S
C401 C400 1.363 . S
C401 C407 1.363 . S
C402 C403 1.363 . S
C402 C407 1.379 . S
C402 N409 1.356 . S
C403 C402 1.363 . S
C403 C406 1.363 . S
N404 C406 1.356 . S
N404 H416 0.984 . S
N404 H417 0.985 . S
N405 C407 1.356 . S
N405 H410 0.984 . S
N405 H411 0.985 . S
C406 C400 1.379 . S
C406 C403 1.363 . S
C406 N404 1.356 . S
C407 C401 1.363 . S
C407 C402 1.379 . S
C407 N405 1.356 . S
N408 C400 1.356 . S
N408 H414 0.984 . S
N408 H415 0.984 . S
N409 C402 1.356 . S
N409 H412 0.984 . S
N409 H413 0.985 . S
H410 N405 0.984 . S
H411 N405 0.985 . S
H412 N409 0.984 . S
H413 N409 0.985 . S
H414 N408 0.984 . S
H415 N408 0.984 . S
H416 N404 0.984 . S
H417 N404 0.985 . S
C418 C419 1.363 . S
C418 C424 1.379 . S
C418 N426 1.356 . S
C419 C418 1.363 . S
C419 C425 1.363 . S
C420 C421 1.363 . S
C420 C425 1.379 . S
C420 N427 1.356 . S
C421 C420 1.363 . S
C421 C424 1.363 . S
N422 C424 1.356 . S
N422 H434 0.984 . S
N422 H435 0.985 . S
N423 C425 1.356 . S
N423 H428 0.984 . S
N423 H429 0.985 . S
C424 C418 1.379 . S
C424 C421 1.363 . S
C424 N422 1.356 . S
C425 C419 1.363 . S
C425 C420 1.379 . S
C425 N423 1.356 . S
N426 C418 1.356 . S
N426 H432 0.984 . S
N426 H433 0.984 . S
N427 C420 1.356 . S
N427 H430 0.984 . S
N427 H431 0.985 . S
H428 N423 0.984 . S
H429 N423 0.985 . S
H430 N427 0.984 . S
H431 N427 0.985 . S
H432 N426 0.984 . S
H433 N426 0.984 . S
H434 N422 0.984 . S
H435 N422 0.985 . S
C436 C437 1.363 . S
C436 C442 1.379 . S
C436 N444 1.356 . S
C437 C436 1.363 . S
C437 C443 1.363 . S
C438 C439 1.363 . S
C438 C443 1.379 . S
C438 N445 1.356 . S
C439 C438 1.363 . S
C439 C442 1.363 . S
N440 C442 1.356 . S
N440 H452 0.984 . S
N440 H453 0.985 . S
N441 C443 1.356 . S
N441 H446 0.984 . S
N441 H447 0.985 . S
C442 C436 1.379 . S
C442 C439 1.363 . S
C442 N440 1.356 . S
C443 C437 1.363 . S
C443 C438 1.379 . S
C443 N441 1.356 . S
N444 C436 1.356 . S
N444 H450 0.984 . S
N444 H451 0.984 . S
N445 C438 1.356 . S
N445 H448 0.984 . S
N445 H449 0.985 . S
H446 N441 0.984 . S
H447 N441 0.985 . S
H448 N445 0.984 . S
H449 N445 0.985 . S
H450 N444 0.984 . S
H451 N444 0.984 . S
H452 N440 0.984 . S
H453 N440 0.985 . S
C454 C455 1.363 . S
C454 C460 1.379 . S
C454 N462 1.356 . S
C455 C454 1.363 . S
C455 C461 1.363 . S
C456 C457 1.363 . S
C456 C461 1.379 . S
C456 N463 1.356 . S
C457 C456 1.363 . S
C457 C460 1.363 . S
N458 C460 1.356 . S
N458 H470 0.984 . S
N458 H471 0.985 . S
N459 C461 1.356 . S
N459 H464 0.984 . S
N459 H465 0.985 . S
C460 C454 1.379 . S
C460 C457 1.363 . S
C460 N458 1.356 . S
C461 C455 1.363 . S
C461 C456 1.379 . S
C461 N459 1.356 . S
N462 C454 1.356 . S
N462 H468 0.984 . S
N462 H469 0.984 . S
N463 C456 1.356 . S
N463 H466 0.984 . S
N463 H467 0.985 . S
H464 N459 0.984 . S
H465 N459 0.985 . S
H466 N463 0.984 . S
H467 N463 0.985 . S
H468 N462 0.984 . S
H469 N462 0.984 . S
H470 N458 0.984 . S
H471 N458 0.985 . S
C472 C473 1.363 . S
C472 C478 1.379 . S
C472 N480 1.356 . S
C473 C472 1.363 . S
C473 C479 1.363 . S
C474 C475 1.363 . S
C474 C479 1.379 . S
C474 N481 1.356 . S
C475 C474 1.363 . S
C475 C478 1.363 . S
N476 C478 1.356 . S
N476 H488 0.984 . S
N476 H489 0.985 . S
N477 C479 1.356 . S
N477 H482 0.984 . S
N477 H483 0.985 . S
C478 C472 1.379 . S
C478 C475 1.363 . S
C478 N476 1.356 . S
C479 C473 1.363 . S
C479 C474 1.379 . S
C479 N477 1.356 . S
N480 C472 1.356 . S
N480 H486 0.984 . S
N480 H487 0.984 . S
N481 C474 1.356 . S
N481 H484 0.984 . S
N481 H485 0.985 . S
H482 N477 0.984 . S
H483 N477 0.985 . S
H484 N481 0.984 . S
H485 N481 0.985 . S
H486 N480 0.984 . S
H487 N480 0.984 . S
H488 N476 0.984 . S
H489 N476 0.985 . S
C490 C491 1.363 . S
C490 C496 1.379 . S
C490 N498 1.356 . S
C491 C490 1.363 . S
C491 C497 1.363 . S
C492 C493 1.363 . S
C492 C497 1.379 . S
C492 N499 1.356 . S
C493 C492 1.363 . S
C493 C496 1.363 . S
N494 C496 1.356 . S
N494 H506 0.984 . S
N494 H507 0.985 . S
N495 C497 1.356 . S
N495 H500 0.984 . S
N495 H501 0.985 . S
C496 C490 1.379 . S
C496 C493 1.363 . S
C496 N494 1.356 . S
C497 C491 1.363 . S
C497 C492 1.379 . S
C497 N495 1.356 . S
N498 C490 1.356 . S
N498 H504 0.984 . S
N498 H505 0.984 . S
N499 C492 1.356 . S
N499 H502 0.984 . S
N499 H503 0.985 . S
H500 N495 0.984 . S
H501 N495 0.985 . S
H502 N499 0.984 . S
H503 N499 0.985 . S
H504 N498 0.984 . S
H505 N498 0.984 . S
H506 N494 0.984 . S
H507 N494 0.985 . S
C508 C509 1.363 . S
C508 C514 1.379 . S
C508 N516 1.356 . S
C509 C508 1.363 . S
C509 C515 1.363 . S
C510 C511 1.363 . S
C510 C515 1.379 . S
C510 N517 1.356 . S
C511 C510 1.363 . S
C511 C514 1.363 . S
N512 C514 1.356 . S
N512 H524 0.984 . S
N512 H525 0.985 . S
N513 C515 1.356 . S
N513 H518 0.984 . S
N513 H519 0.985 . S
C514 C508 1.379 . S
C514 C511 1.363 . S
C514 N512 1.356 . S
C515 C509 1.363 . S
C515 C510 1.379 . S
C515 N513 1.356 . S
N516 C508 1.356 . S
N516 H522 0.984 . S
N516 H523 0.984 . S
N517 C510 1.356 . S
N517 H520 0.984 . S
N517 H521 0.985 . S
H518 N513 0.984 . S
H519 N513 0.985 . S
H520 N517 0.984 . S
H521 N517 0.985 . S
H522 N516 0.984 . S
H523 N516 0.984 . S
H524 N512 0.984 . S
H525 N512 0.985 . S
C526 C527 1.363 . S
C526 C532 1.379 . S
C526 N534 1.356 . S
C527 C526 1.363 . S
C527 C533 1.363 . S
C528 C529 1.363 . S
C528 C533 1.379 . S
C528 N535 1.356 . S
C529 C528 1.363 . S
C529 C532 1.363 . S
N530 C532 1.356 . S
N530 H542 0.984 . S
N530 H543 0.985 . S
N531 C533 1.356 . S
N531 H536 0.984 . S
N531 H537 0.985 . S
C532 C526 1.379 . S
C532 C529 1.363 . S
C532 N530 1.356 . S
C533 C527 1.363 . S
C533 C528 1.379 . S
C533 N531 1.356 . S
N534 C526 1.356 . S
N534 H540 0.984 . S
N534 H541 0.984 . S
N535 C528 1.356 . S
N535 H538 0.984 . S
N535 H539 0.985 1_554 S
H536 N531 0.984 . S
H537 N531 0.985 . S
H538 N535 0.984 . S
H539 N535 0.985 1_556 S
H540 N534 0.984 . S
H541 N534 0.984 . S
H542 N530 0.984 . S
H543 N530 0.985 . S
C544 C545 1.363 . S
C544 C550 1.379 . S
C544 N552 1.356 . S
C545 C544 1.363 . S
C545 C551 1.363 . S
C546 C547 1.363 . S
C546 C551 1.379 . S
C546 N553 1.356 . S
C547 C546 1.363 . S
C547 C550 1.363 . S
N548 C550 1.356 . S
N548 H560 0.984 . S
N548 H561 0.985 . S
N549 C551 1.356 . S
N549 H554 0.984 . S
N549 H555 0.985 . S
C550 C544 1.379 . S
C550 C547 1.363 . S
C550 N548 1.356 . S
C551 C545 1.363 . S
C551 C546 1.379 . S
C551 N549 1.356 . S
N552 C544 1.356 . S
N552 H558 0.984 . S
N552 H559 0.984 . S
N553 C546 1.356 . S
N553 H556 0.984 . S
N553 H557 0.985 . S
H554 N549 0.984 . S
H555 N549 0.985 . S
H556 N553 0.984 . S
H557 N553 0.985 . S
H558 N552 0.984 . S
H559 N552 0.984 . S
H560 N548 0.984 . S
H561 N548 0.985 . S
C562 C563 1.363 . S
C562 C568 1.379 . S
C562 N570 1.356 . S
C563 C562 1.363 . S
C563 C569 1.363 . S
C564 C565 1.363 . S
C564 C569 1.379 . S
C564 N571 1.356 . S
C565 C564 1.363 . S
C565 C568 1.363 . S
N566 C568 1.356 . S
N566 H578 0.984 . S
N566 H579 0.985 . S
N567 C569 1.356 . S
N567 H572 0.984 . S
N567 H573 0.985 . S
C568 C562 1.379 . S
C568 C565 1.363 . S
C568 N566 1.356 . S
C569 C563 1.363 . S
C569 C564 1.379 . S
C569 N567 1.356 . S
N570 C562 1.356 . S
N570 H576 0.984 . S
N570 H577 0.984 . S
N571 C564 1.356 . S
N571 H574 0.984 . S
N571 H575 0.985 1_554 S
H572 N567 0.984 . S
H573 N567 0.985 . S
H574 N571 0.984 . S
H575 N571 0.985 1_556 S
H576 N570 0.984 . S
H577 N570 0.984 . S
H578 N566 0.984 . S
H579 N566 0.985 . S
C580 C581 1.363 . S
C580 C586 1.379 . S
C580 N588 1.356 . S
C581 C580 1.363 . S
C581 C587 1.363 . S
C582 C583 1.363 . S
C582 C587 1.379 . S
C582 N589 1.356 . S
C583 C582 1.363 . S
C583 C586 1.363 . S
N584 C586 1.356 . S
N584 H596 0.984 . S
N584 H597 0.985 . S
N585 C587 1.356 . S
N585 H590 0.984 . S
N585 H591 0.985 . S
C586 C580 1.379 . S
C586 C583 1.363 . S
C586 N584 1.356 . S
C587 C581 1.363 . S
C587 C582 1.379 . S
C587 N585 1.356 . S
N588 C580 1.356 . S
N588 H594 0.984 . S
N588 H595 0.984 . S
N589 C582 1.356 . S
N589 H592 0.985 . S
N589 H593 0.985 1_554 S
H590 N585 0.984 . S
H591 N585 0.985 . S
H592 N589 0.985 . S
H593 N589 0.985 1_556 S
H594 N588 0.984 . S
H595 N588 0.984 . S
H596 N584 0.984 . S
H597 N584 0.985 . S
C598 C599 1.363 . S
C598 C604 1.379 . S
C598 N606 1.356 . S
C599 C598 1.363 . S
C599 C605 1.363 . S
C600 C601 1.363 . S
C600 C605 1.379 . S
C600 N607 1.356 . S
C601 C600 1.363 . S
C601 C604 1.363 . S
N602 C604 1.356 1_554 S
N602 H614 0.984 . S
N602 H615 0.985 . S
N603 C605 1.356 . S
N603 H608 0.984 . S
N603 H609 0.985 . S
C604 C598 1.379 . S
C604 C601 1.363 . S
C604 N602 1.356 1_556 S
C605 C599 1.363 . S
C605 C600 1.379 . S
C605 N603 1.356 . S
N606 C598 1.356 . S
N606 H612 0.984 . S
N606 H613 0.984 . S
N607 C600 1.356 . S
N607 H610 0.984 . S
N607 H611 0.985 . S
H608 N603 0.984 . S
H609 N603 0.985 . S
H610 N607 0.984 . S
H611 N607 0.985 . S
H612 N606 0.984 . S
H613 N606 0.984 . S
H614 N602 0.984 . S
H615 N602 0.985 . S
C616 C617 1.363 . S
C616 C622 1.379 . S
C616 N624 1.356 . S
C617 C616 1.363 . S
C617 C623 1.363 . S
C618 C619 1.363 . S
C618 C623 1.379 . S
C618 N625 1.356 . S
C619 C618 1.363 . S
C619 C622 1.363 . S
N620 C622 1.356 . S
N620 H632 0.984 . S
N620 H633 0.985 . S
N621 C623 1.356 . S
N621 H626 0.984 . S
N621 H627 0.985 . S
C622 C616 1.379 . S
C622 C619 1.363 . S
C622 N620 1.356 . S
C623 C617 1.363 . S
C623 C618 1.379 . S
C623 N621 1.356 . S
N624 C616 1.356 . S
N624 H630 0.984 . S
N624 H631 0.984 . S
N625 C618 1.356 . S
N625 H628 0.984 . S
N625 H629 0.985 . S
H626 N621 0.984 . S
H627 N621 0.985 . S
H628 N625 0.984 . S
H629 N625 0.985 . S
H630 N624 0.984 . S
H631 N624 0.984 . S
H632 N620 0.984 . S
H633 N620 0.985 . S
C634 C635 1.363 . S
C634 C640 1.379 . S
C634 N642 1.356 . S
C635 C634 1.363 . S
C635 C641 1.363 . S
C636 C637 1.363 . S
C636 C641 1.379 . S
C636 N643 1.356 1_556 S
C637 C636 1.363 . S
C637 C640 1.363 . S
N638 C640 1.356 . S
N638 H650 0.984 . S
N638 H651 0.985 . S
N639 C641 1.356 . S
N639 H644 0.984 . S
N639 H645 0.970 1_556 S
C640 C634 1.379 . S
C640 C637 1.363 . S
C640 N638 1.356 . S
C641 C635 1.363 . S
C641 C636 1.379 . S
C641 N639 1.356 . S
N642 C634 1.356 . S
N642 H648 0.984 . S
N642 H649 0.984 . S
N643 C636 1.356 1_554 S
N643 H646 0.984 . S
N643 H647 0.985 . S
H644 N639 0.984 . S
H645 N639 0.970 1_554 S
H646 N643 0.984 . S
H647 N643 0.985 . S
H648 N642 0.984 . S
H649 N642 0.984 . S
H650 N638 0.984 . S
H651 N638 0.985 . S
C652 C653 1.363 . S
C652 C658 1.379 . S
C652 N660 1.356 . S
C653 C652 1.363 . S
C653 C659 1.363 . S
C654 C655 1.363 . S
C654 C659 1.379 . S
C654 N661 1.356 . S
C655 C654 1.363 . S
C655 C658 1.363 . S
N656 C658 1.356 . S
N656 H668 0.984 1_556 S
N656 H669 0.984 . S
N657 C659 1.356 . S
N657 H662 0.984 . S
N657 H663 0.985 . S
C658 C652 1.379 . S
C658 C655 1.363 . S
C658 N656 1.356 . S
C659 C653 1.363 . S
C659 C654 1.379 . S
C659 N657 1.356 . S
N660 C652 1.356 . S
N660 H666 0.984 . S
N660 H667 0.984 . S
N661 C654 1.356 . S
N661 H664 0.984 . S
N661 H665 0.985 . S
H662 N657 0.984 . S
H663 N657 0.985 . S
H664 N661 0.984 . S
H665 N661 0.985 . S
H666 N660 0.984 . S
H667 N660 0.984 . S
H668 N656 0.984 1_554 S
H669 N656 0.984 . S
C670 C671 1.363 . S
C670 C676 1.379 . S
C670 N678 1.356 . S
C671 C670 1.363 . S
C671 C677 1.363 . S
C672 C673 1.363 . S
C672 C677 1.379 . S
C672 N679 1.356 . S
C673 C672 1.363 . S
C673 C676 1.363 . S
N674 C676 1.356 . S
N674 H686 0.984 . S
N674 H687 0.985 . S
N675 C677 1.356 . S
N675 H680 0.984 . S
N675 H681 0.985 . S
C676 C670 1.379 . S
C676 C673 1.363 . S
C676 N674 1.356 . S
C677 C671 1.363 . S
C677 C672 1.379 . S
C677 N675 1.356 . S
N678 C670 1.356 . S
N678 H684 0.984 . S
N678 H685 0.984 . S
N679 C672 1.356 . S
N679 H682 0.984 . S
N679 H683 0.985 . S
H680 N675 0.984 . S
H681 N675 0.985 . S
H682 N679 0.984 . S
H683 N679 0.985 . S
H684 N678 0.984 . S
H685 N678 0.984 . S
H686 N674 0.984 . S
H687 N674 0.985 . S
C688 C689 1.363 . S
C688 C694 1.379 . S
C688 N696 1.356 . S
C689 C688 1.363 . S
C689 C695 1.363 . S
C690 C691 1.363 . S
C690 C695 1.379 . S
C690 N697 1.356 . S
C691 C690 1.363 . S
C691 C694 1.363 . S
N692 C694 1.356 . S
N692 H704 0.984 1_556 S
N692 H705 0.985 . S
N693 C695 1.356 . S
N693 H698 0.984 . S
N693 H699 0.985 . S
C694 C688 1.379 . S
C694 C691 1.363 . S
C694 N692 1.356 . S
C695 C689 1.363 . S
C695 C690 1.379 . S
C695 N693 1.356 . S
N696 C688 1.356 . S
N696 H702 0.996 . S
N696 H703 0.984 . S
N697 C690 1.356 . S
N697 H700 0.984 . S
N697 H701 0.985 . S
H698 N693 0.984 . S
H699 N693 0.985 . S
H700 N697 0.984 . S
H701 N697 0.985 . S
H702 N696 0.996 . S
H703 N696 0.984 . S
H704 N692 0.984 1_554 S
H705 N692 0.985 . S
C706 C707 1.363 . S
C706 C712 1.379 . S
C706 N714 1.356 . S
C707 C706 1.363 . S
C707 C713 1.363 . S
C708 C709 1.363 . S
C708 C713 1.379 . S
C708 N715 1.355 1_556 S
C709 C708 1.363 . S
C709 C712 1.363 . S
N710 C712 1.356 . S
N710 H722 0.984 . S
N710 H723 0.985 . S
N711 C713 1.356 . S
N711 H716 0.984 . S
N711 H717 0.985 . S
C712 C706 1.379 . S
C712 C709 1.363 . S
C712 N710 1.356 . S
C713 C707 1.363 . S
C713 C708 1.379 . S
C713 N711 1.356 . S
N714 C706 1.356 . S
N714 H720 0.984 . S
N714 H721 0.984 . S
N715 C708 1.355 1_554 S
N715 H718 0.985 . S
N715 H719 0.986 . S
H716 N711 0.984 . S
H717 N711 0.985 . S
H718 N715 0.985 . S
H719 N715 0.986 . S
H720 N714 0.984 . S
H721 N714 0.984 . S
H722 N710 0.984 . S
H723 N710 0.985 . S
C724 C725 1.363 . S
C724 C730 1.379 . S
C724 N732 1.356 . S
C725 C724 1.363 . S
C725 C731 1.363 . S
C726 C727 1.363 . S
C726 C731 1.379 . S
C726 N733 1.356 1_556 S
C727 C726 1.363 . S
C727 C730 1.363 . S
N728 C730 1.356 . S
N728 H740 0.984 . S
N728 H741 0.985 . S
N729 C731 1.356 . S
N729 H734 0.984 . S
N729 H735 0.985 1_556 S
C730 C724 1.379 . S
C730 C727 1.363 . S
C730 N728 1.356 . S
C731 C725 1.363 . S
C731 C726 1.379 . S
C731 N729 1.356 . S
N732 C724 1.356 . S
N732 H738 0.984 . S
N732 H739 0.984 . S
N733 C726 1.356 1_554 S
N733 H736 0.984 . S
N733 H737 0.985 . S
H734 N729 0.984 . S
H735 N729 0.985 1_554 S
H736 N733 0.984 . S
H737 N733 0.985 . S
H738 N732 0.984 . S
H739 N732 0.984 . S
H740 N728 0.984 . S
H741 N728 0.985 . S
C742 C743 1.363 . S
C742 C748 1.379 . S
C742 N750 1.356 . S
C743 C742 1.363 . S
C743 C749 1.363 . S
C744 C745 1.363 . S
C744 C749 1.379 . S
C744 N751 1.356 . S
C745 C744 1.363 . S
C745 C748 1.363 . S
N746 C748 1.356 . S
N746 H758 0.984 . S
N746 H759 0.985 . S
N747 C749 1.356 . S
N747 H752 0.984 . S
N747 H753 0.985 . S
C748 C742 1.379 . S
C748 C745 1.363 . S
C748 N746 1.356 . S
C749 C743 1.363 . S
C749 C744 1.379 . S
C749 N747 1.356 . S
N750 C742 1.356 . S
N750 H756 0.984 . S
N750 H757 0.984 . S
N751 C744 1.356 . S
N751 H754 0.984 . S
N751 H755 0.985 . S
H752 N747 0.984 . S
H753 N747 0.985 . S
H754 N751 0.984 . S
H755 N751 0.985 . S
H756 N750 0.984 . S
H757 N750 0.984 . S
H758 N746 0.984 . S
H759 N746 0.985 . S
C760 C761 1.363 . S
C760 C766 1.379 . S
C760 N768 1.356 . S
C761 C760 1.363 . S
C761 C767 1.363 . S
C762 C763 1.363 . S
C762 C767 1.379 . S
C762 N769 1.374 . S
C763 C762 1.363 . S
C763 C766 1.363 . S
N764 C766 1.356 . S
N764 H776 0.984 . S
N764 H777 0.985 . S
N765 C767 1.356 . S
N765 H770 0.984 . S
N765 H771 0.985 . S
C766 C760 1.379 . S
C766 C763 1.363 . S
C766 N764 1.356 . S
C767 C761 1.363 . S
C767 C762 1.379 . S
C767 N765 1.356 . S
N768 C760 1.356 . S
N768 H774 0.984 . S
N768 H775 0.984 . S
N769 C762 1.374 . S
N769 H772 0.984 . S
N769 H773 0.968 1_554 S
H770 N765 0.984 . S
H771 N765 0.985 . S
H772 N769 0.984 . S
H773 N769 0.968 1_556 S
H774 N768 0.984 . S
H775 N768 0.984 . S
H776 N764 0.984 . S
H777 N764 0.985 . S
C778 C779 1.363 . S
C778 C784 1.379 . S
C778 N786 1.356 . S
C779 C778 1.363 . S
C779 C785 1.363 . S
C780 C781 1.363 . S
C780 C785 1.379 . S
C780 N787 1.356 . S
C781 C780 1.363 . S
C781 C784 1.363 . S
N782 C784 1.356 . S
N782 H794 0.984 . S
N782 H795 0.985 . S
N783 C785 1.356 . S
N783 H788 0.984 . S
N783 H789 0.985 1_554 S
C784 C778 1.379 . S
C784 C781 1.363 . S
C784 N782 1.356 . S
C785 C779 1.363 . S
C785 C780 1.379 . S
C785 N783 1.356 . S
N786 C778 1.356 . S
N786 H792 0.984 . S
N786 H793 0.984 . S
N787 C780 1.356 . S
N787 H790 0.984 . S
N787 H791 0.985 1_554 S
H788 N783 0.984 . S
H789 N783 0.985 1_556 S
H790 N787 0.984 . S
H791 N787 0.985 1_556 S
H792 N786 0.984 . S
H793 N786 0.984 . S
H794 N782 0.984 . S
H795 N782 0.985 . S
C796 C797 1.363 . S
C796 C802 1.379 . S
C796 N804 1.356 . S
C797 C796 1.363 . S
C797 C803 1.363 . S
C798 C799 1.363 . S
C798 C803 1.379 . S
C798 N805 1.356 . S
C799 C798 1.363 . S
C799 C802 1.363 . S
N800 C802 1.356 . S
N800 H812 0.984 . S
N800 H813 0.985 . S
N801 C803 1.356 . S
N801 H806 0.984 . S
N801 H807 0.985 . S
C802 C796 1.379 . S
C802 C799 1.363 . S
C802 N800 1.356 . S
C803 C797 1.363 . S
C803 C798 1.379 . S
C803 N801 1.356 . S
N804 C796 1.356 . S
N804 H810 0.984 . S
N804 H811 0.984 . S
N805 C798 1.356 . S
N805 H808 0.984 . S
N805 H809 0.985 . S
H806 N801 0.984 . S
H807 N801 0.985 . S
H808 N805 0.984 . S
H809 N805 0.985 . S
H810 N804 0.984 . S
H811 N804 0.984 . S
H812 N800 0.984 . S
H813 N800 0.985 . S
C814 C815 1.363 . S
C814 C820 1.379 . S
C814 N822 1.356 . S
C815 C814 1.363 . S
C815 C821 1.363 . S
C816 C817 1.363 . S
C816 C821 1.379 . S
C816 N823 1.356 . S
C817 C816 1.363 . S
C817 C820 1.363 . S
N818 C820 1.356 . S
N818 H830 0.984 . S
N818 H831 0.985 . S
N819 C821 1.356 . S
N819 H824 0.984 . S
N819 H825 0.985 . S
C820 C814 1.379 . S
C820 C817 1.363 . S
C820 N818 1.356 . S
C821 C815 1.363 . S
C821 C816 1.379 . S
C821 N819 1.356 . S
N822 C814 1.356 . S
N822 H828 0.984 . S
N822 H829 0.984 . S
N823 C816 1.356 . S
N823 H826 0.984 1_556 S
N823 H827 0.985 1_556 S
H824 N819 0.984 . S
H825 N819 0.985 . S
H826 N823 0.984 1_554 S
H827 N823 0.985 1_554 S
H828 N822 0.984 . S
H829 N822 0.984 . S
H830 N818 0.984 . S
H831 N818 0.985 . S
C832 C833 1.363 . S
C832 C838 1.379 . S
C832 N840 1.356 . S
C833 C832 1.363 . S
C833 C839 1.363 . S
C834 C835 1.363 . S
C834 C839 1.379 . S
C834 N841 1.356 . S
C835 C834 1.363 . S
C835 C838 1.363 . S
N836 C838 1.356 . S
N836 H848 0.984 . S
N836 H849 0.985 . S
N837 C839 1.356 . S
N837 H842 0.984 . S
N837 H843 0.985 . S
C838 C832 1.379 . S
C838 C835 1.363 . S
C838 N836 1.356 . S
C839 C833 1.363 . S
C839 C834 1.379 . S
C839 N837 1.356 . S
N840 C832 1.356 . S
N840 H846 0.984 . S
N840 H847 0.984 . S
N841 C834 1.356 . S
N841 H844 0.984 . S
N841 H845 0.985 . S
H842 N837 0.984 . S
H843 N837 0.985 . S
H844 N841 0.984 . S
H845 N841 0.985 . S
H846 N840 0.984 . S
H847 N840 0.984 . S
H848 N836 0.984 . S
H849 N836 0.985 . S
C850 C851 1.363 . S
C850 C856 1.379 . S
C850 N858 1.356 . S
C851 C850 1.363 . S
C851 C857 1.363 . S
C852 C853 1.363 . S
C852 C857 1.379 . S
C852 N859 1.356 . S
C853 C852 1.363 . S
C853 C856 1.363 . S
N854 C856 1.356 . S
N854 H866 0.984 . S
N854 H867 0.985 . S
N855 C857 1.356 . S
N855 H860 0.984 . S
N855 H861 0.985 . S
C856 C850 1.379 . S
C856 C853 1.363 . S
C856 N854 1.356 . S
C857 C851 1.363 . S
C857 C852 1.379 . S
C857 N855 1.356 . S
N858 C850 1.356 . S
N858 H864 0.984 . S
N858 H865 0.984 . S
N859 C852 1.356 . S
N859 H862 0.984 1_556 S
N859 H863 0.985 1_556 S
H860 N855 0.984 . S
H861 N855 0.985 . S
H862 N859 0.984 1_554 S
H863 N859 0.985 1_554 S
H864 N858 0.984 . S
H865 N858 0.984 . S
H866 N854 0.984 . S
H867 N854 0.985 . S
C868 C869 1.363 . S
C868 C874 1.379 . S
C868 N876 1.356 . S
C869 C868 1.363 . S
C869 C875 1.363 . S
C870 C871 1.363 . S
C870 C875 1.379 . S
C870 N877 1.356 . S
C871 C870 1.363 . S
C871 C874 1.363 . S
N872 C874 1.356 . S
N872 H884 0.984 . S
N872 H885 0.985 . S
N873 C875 1.356 . S
N873 H878 0.984 . S
N873 H879 0.985 . S
C874 C868 1.379 . S
C874 C871 1.363 . S
C874 N872 1.356 . S
C875 C869 1.363 . S
C875 C870 1.379 . S
C875 N873 1.356 . S
N876 C868 1.356 . S
N876 H882 0.984 . S
N876 H883 0.984 . S
N877 C870 1.356 . S
N877 H880 0.984 . S
N877 H881 0.985 . S
H878 N873 0.984 . S
H879 N873 0.985 . S
H880 N877 0.984 . S
H881 N877 0.985 . S
H882 N876 0.984 . S
H883 N876 0.984 . S
H884 N872 0.984 . S
H885 N872 0.985 . S
C886 C887 1.363 . S
C886 C892 1.379 . S
C886 N894 1.356 . S
C887 C886 1.363 . S
C887 C893 1.363 . S
C888 C889 1.363 . S
C888 C893 1.379 . S
C888 N895 1.356 . S
C889 C888 1.363 . S
C889 C892 1.363 . S
N890 C892 1.356 . S
N890 H902 0.984 . S
N890 H903 0.985 . S
N891 C893 1.356 . S
N891 H896 0.984 . S
N891 H897 0.985 . S
C892 C886 1.379 . S
C892 C889 1.363 . S
C892 N890 1.356 . S
C893 C887 1.363 . S
C893 C888 1.379 . S
C893 N891 1.356 . S
N894 C886 1.356 . S
N894 H900 0.984 . S
N894 H901 0.984 . S
N895 C888 1.356 . S
N895 H898 0.984 . S
N895 H899 0.985 . S
H896 N891 0.984 . S
H897 N891 0.985 . S
H898 N895 0.984 . S
H899 N895 0.985 . S
H900 N894 0.984 . S
H901 N894 0.984 . S
H902 N890 0.984 . S
H903 N890 0.985 . S
C904 C905 1.363 . S
C904 C910 1.379 . S
C904 N912 1.356 . S
C905 C904 1.363 . S
C905 C911 1.363 . S
C906 C907 1.363 . S
C906 C911 1.379 . S
C906 N913 1.356 . S
C907 C906 1.363 . S
C907 C910 1.363 . S
N908 C910 1.356 . S
N908 H920 0.984 . S
N908 H921 0.985 . S
N909 C911 1.356 . S
N909 H914 0.984 . S
N909 H915 0.985 . S
C910 C904 1.379 . S
C910 C907 1.363 . S
C910 N908 1.356 . S
C911 C905 1.363 . S
C911 C906 1.379 . S
C911 N909 1.356 . S
N912 C904 1.356 . S
N912 H918 0.984 . S
N912 H919 0.984 . S
N913 C906 1.356 . S
N913 H916 0.984 . S
N913 H917 0.985 . S
H914 N909 0.984 . S
H915 N909 0.985 . S
H916 N913 0.984 . S
H917 N913 0.985 . S
H918 N912 0.984 . S
H919 N912 0.984 . S
H920 N908 0.984 . S
H921 N908 0.985 . S
C922 C923 1.363 . S
C922 C928 1.379 . S
C922 N930 1.356 . S
C923 C922 1.363 . S
C923 C929 1.363 . S
C924 C925 1.363 . S
C924 C929 1.379 . S
C924 N931 1.356 . S
C925 C924 1.363 . S
C925 C928 1.363 . S
N926 C928 1.356 . S
N926 H938 0.984 . S
N926 H939 0.985 . S
N927 C929 1.356 . S
N927 H932 0.984 . S
N927 H933 0.985 . S
C928 C922 1.379 . S
C928 C925 1.363 . S
C928 N926 1.356 . S
C929 C923 1.363 . S
C929 C924 1.379 . S
C929 N927 1.356 . S
N930 C922 1.356 . S
N930 H936 0.984 . S
N930 H937 0.984 . S
N931 C924 1.356 . S
N931 H934 0.984 . S
N931 H935 0.985 . S
H932 N927 0.984 . S
H933 N927 0.985 . S
H934 N931 0.984 . S
H935 N931 0.985 . S
H936 N930 0.984 . S
H937 N930 0.984 . S
H938 N926 0.984 . S
H939 N926 0.985 . S
C940 C941 1.363 . S
C940 C946 1.379 . S
C940 N948 1.356 . S
C941 C940 1.363 . S
C941 C947 1.363 . S
C942 C943 1.363 . S
C942 C947 1.379 . S
C942 N949 1.356 . S
C943 C942 1.363 . S
C943 C946 1.363 . S
N944 C946 1.356 . S
N944 H956 0.984 . S
N944 H957 0.985 . S
N945 C947 1.356 . S
N945 H950 0.984 . S
N945 H951 0.985 . S
C946 C940 1.379 . S
C946 C943 1.363 . S
C946 N944 1.356 . S
C947 C941 1.363 . S
C947 C942 1.379 . S
C947 N945 1.356 . S
N948 C940 1.356 . S
N948 H954 0.984 . S
N948 H955 0.984 . S
N949 C942 1.356 . S
N949 H952 0.984 . S
N949 H953 0.985 . S
H950 N945 0.984 . S
H951 N945 0.985 . S
H952 N949 0.984 . S
H953 N949 0.985 . S
H954 N948 0.984 . S
H955 N948 0.984 . S
H956 N944 0.984 . S
H957 N944 0.985 . S
C958 C959 1.363 . S
C958 C964 1.379 . S
C958 N966 1.356 . S
C959 C958 1.363 . S
C959 C965 1.363 . S
C960 C961 1.363 . S
C960 C965 1.379 . S
C960 N967 1.356 . S
C961 C960 1.363 . S
C961 C964 1.363 . S
N962 C964 1.356 . S
N962 H974 0.984 . S
N962 H975 0.985 . S
N963 C965 1.356 . S
N963 H968 0.984 . S
N963 H969 0.985 . S
C964 C958 1.379 . S
C964 C961 1.363 . S
C964 N962 1.356 . S
C965 C959 1.363 . S
C965 C960 1.379 . S
C965 N963 1.356 . S
N966 C958 1.356 . S
N966 H972 0.984 . S
N966 H973 0.984 . S
N967 C960 1.356 . S
N967 H970 0.984 . S
N967 H971 0.985 . S
H968 N963 0.984 . S
H969 N963 0.985 . S
H970 N967 0.984 . S
H971 N967 0.985 . S
H972 N966 0.984 . S
H973 N966 0.984 . S
H974 N962 0.984 . S
H975 N962 0.985 . S
C976 C977 1.363 . S
C976 C982 1.379 . S
C976 N984 1.356 . S
C977 C976 1.363 . S
C977 C983 1.363 . S
C978 C979 1.363 . S
C978 C983 1.379 . S
C978 N985 1.356 . S
C979 C978 1.363 . S
C979 C982 1.363 . S
N980 C982 1.356 . S
N980 H992 0.984 . S
N980 H993 0.985 . S
N981 C983 1.356 . S
N981 H986 0.984 . S
N981 H987 0.985 . S
C982 C976 1.379 . S
C982 C979 1.363 . S
C982 N980 1.356 . S
C983 C977 1.363 . S
C983 C978 1.379 . S
C983 N981 1.356 . S
N984 C976 1.356 . S
N984 H990 0.984 . S
N984 H991 0.984 . S
N985 C978 1.356 . S
N985 H988 0.984 . S
N985 H989 0.985 . S
H986 N981 0.984 . S
H987 N981 0.985 . S
H988 N985 0.984 . S
H989 N985 0.985 . S
H990 N984 0.984 . S
H991 N984 0.984 . S
H992 N980 0.984 . S
H993 N980 0.985 . S
C994 C995 1.363 . S
C994 C1000 1.379 . S
C994 N1002 1.356 . S
C995 C994 1.363 . S
C995 C1001 1.363 . S
C996 C997 1.363 . S
C996 C1001 1.379 . S
C996 N1003 1.356 . S
C997 C996 1.363 . S
C997 C1000 1.363 . S
N998 C1000 1.356 . S
N998 H1010 0.984 . S
N998 H1011 0.985 . S
N999 C1001 1.356 . S
N999 H1004 0.984 . S
N999 H1005 0.985 . S
C1000 C994 1.379 . S
C1000 C997 1.363 . S
C1000 N998 1.356 . S
C1001 C995 1.363 . S
C1001 C996 1.379 . S
C1001 N999 1.356 . S
N1002 C994 1.356 . S
N1002 H1008 0.984 . S
N1002 H1009 0.984 . S
N1003 C996 1.356 . S
N1003 H1006 0.984 . S
N1003 H1007 0.985 . S
H1004 N999 0.984 . S
H1005 N999 0.985 . S
H1006 N1003 0.984 . S
H1007 N1003 0.985 . S
H1008 N1002 0.984 . S
H1009 N1002 0.984 . S
H1010 N998 0.984 . S
H1011 N998 0.985 . S
C1012 C1013 1.363 . S
C1012 C1018 1.379 . S
C1012 N1020 1.356 . S
C1013 C1012 1.363 . S
C1013 C1019 1.363 . S
C1014 C1015 1.363 . S
C1014 C1019 1.379 . S
C1014 N1021 1.356 . S
C1015 C1014 1.363 . S
C1015 C1018 1.363 . S
N1016 C1018 1.356 . S
N1016 H1028 0.984 . S
N1016 H1029 0.985 . S
N1017 C1019 1.356 . S
N1017 H1022 0.984 . S
N1017 H1023 0.985 . S
C1018 C1012 1.379 . S
C1018 C1015 1.363 . S
C1018 N1016 1.356 . S
C1019 C1013 1.363 . S
C1019 C1014 1.379 . S
C1019 N1017 1.356 . S
N1020 C1012 1.356 . S
N1020 H1026 0.984 . S
N1020 H1027 0.984 . S
N1021 C1014 1.356 . S
N1021 H1024 0.984 . S
N1021 H1025 0.985 . S
H1022 N1017 0.984 . S
H1023 N1017 0.985 . S
H1024 N1021 0.984 . S
H1025 N1021 0.985 . S
H1026 N1020 0.984 . S
H1027 N1020 0.984 . S
H1028 N1016 0.984 . S
H1029 N1016 0.985 . S
C1030 C1031 1.363 . S
C1030 C1036 1.379 . S
C1030 N1038 1.356 . S
C1031 C1030 1.363 . S
C1031 C1037 1.363 . S
C1032 C1033 1.363 . S
C1032 C1037 1.379 . S
C1032 N1039 1.356 . S
C1033 C1032 1.363 . S
C1033 C1036 1.363 . S
N1034 C1036 1.356 . S
N1034 H1046 0.984 . S
N1034 H1047 0.985 . S
N1035 C1037 1.356 . S
N1035 H1040 0.984 . S
N1035 H1041 0.985 . S
C1036 C1030 1.379 . S
C1036 C1033 1.363 . S
C1036 N1034 1.356 . S
C1037 C1031 1.363 . S
C1037 C1032 1.379 . S
C1037 N1035 1.356 . S
N1038 C1030 1.356 . S
N1038 H1044 0.984 . S
N1038 H1045 0.984 . S
N1039 C1032 1.356 . S
N1039 H1042 0.984 . S
N1039 H1043 0.985 . S
H1040 N1035 0.984 . S
H1041 N1035 0.985 . S
H1042 N1039 0.984 . S
H1043 N1039 0.985 . S
H1044 N1038 0.984 . S
H1045 N1038 0.984 . S
H1046 N1034 0.984 . S
H1047 N1034 0.985 . S
C1048 C1049 1.363 . S
C1048 C1054 1.379 . S
C1048 N1056 1.356 . S
C1049 C1048 1.363 . S
C1049 C1055 1.363 . S
C1050 C1051 1.363 . S
C1050 C1055 1.379 . S
C1050 N1057 1.356 . S
C1051 C1050 1.363 . S
C1051 C1054 1.363 . S
N1052 C1054 1.356 . S
N1052 H1064 0.984 . S
N1052 H1065 0.985 . S
N1053 C1055 1.356 . S
N1053 H1058 0.984 . S
N1053 H1059 0.985 . S
C1054 C1048 1.379 . S
C1054 C1051 1.363 . S
C1054 N1052 1.356 . S
C1055 C1049 1.363 . S
C1055 C1050 1.379 . S
C1055 N1053 1.356 . S
N1056 C1048 1.356 . S
N1056 H1062 0.984 . S
N1056 H1063 0.984 . S
N1057 C1050 1.356 . S
N1057 H1060 0.984 . S
N1057 H1061 0.985 . S
H1058 N1053 0.984 . S
H1059 N1053 0.985 . S
H1060 N1057 0.984 . S
H1061 N1057 0.985 . S
H1062 N1056 0.984 . S
H1063 N1056 0.984 . S
H1064 N1052 0.984 . S
H1065 N1052 0.985 . S
C1066 C1067 1.363 . S
C1066 C1072 1.379 . S
C1066 N1074 1.356 . S
C1067 C1066 1.363 . S
C1067 C1073 1.363 . S
C1068 C1069 1.363 . S
C1068 C1073 1.379 . S
C1068 N1075 1.356 . S
C1069 C1068 1.363 . S
C1069 C1072 1.363 . S
N1070 C1072 1.356 . S
N1070 H1082 0.984 . S
N1070 H1083 0.985 . S
N1071 C1073 1.356 . S
N1071 H1076 0.984 . S
N1071 H1077 0.985 . S
C1072 C1066 1.379 . S
C1072 C1069 1.363 . S
C1072 N1070 1.356 . S
C1073 C1067 1.363 . S
C1073 C1068 1.379 . S
C1073 N1071 1.356 . S
N1074 C1066 1.356 . S
N1074 H1080 0.984 . S
N1074 H1081 0.984 . S
N1075 C1068 1.356 . S
N1075 H1078 0.984 . S
N1075 H1079 0.985 . S
H1076 N1071 0.984 . S
H1077 N1071 0.985 . S
H1078 N1075 0.984 . S
H1079 N1075 0.985 . S
H1080 N1074 0.984 . S
H1081 N1074 0.984 . S
H1082 N1070 0.984 . S
H1083 N1070 0.985 . S
C1084 C1085 1.363 . S
C1084 C1090 1.379 . S
C1084 N1092 1.356 . S
C1085 C1084 1.363 . S
C1085 C1091 1.363 . S
C1086 C1087 1.363 . S
C1086 C1091 1.379 . S
C1086 N1093 1.356 . S
C1087 C1086 1.363 . S
C1087 C1090 1.363 . S
N1088 C1090 1.356 . S
N1088 H1100 0.984 . S
N1088 H1101 0.985 . S
N1089 C1091 1.356 . S
N1089 H1094 0.984 . S
N1089 H1095 0.985 . S
C1090 C1084 1.379 . S
C1090 C1087 1.363 . S
C1090 N1088 1.356 . S
C1091 C1085 1.363 . S
C1091 C1086 1.379 . S
C1091 N1089 1.356 . S
N1092 C1084 1.356 . S
N1092 H1098 0.984 . S
N1092 H1099 0.984 . S
N1093 C1086 1.356 . S
N1093 H1096 0.984 . S
N1093 H1097 0.985 . S
H1094 N1089 0.984 . S
H1095 N1089 0.985 . S
H1096 N1093 0.984 . S
H1097 N1093 0.985 . S
H1098 N1092 0.984 . S
H1099 N1092 0.984 . S
H1100 N1088 0.984 . S
H1101 N1088 0.985 . S
C1102 C1103 1.363 . S
C1102 C1108 1.379 . S
C1102 N1110 1.356 . S
C1103 C1102 1.363 . S
C1103 C1109 1.363 . S
C1104 C1105 1.363 . S
C1104 C1109 1.379 . S
C1104 N1111 1.356 . S
C1105 C1104 1.363 . S
C1105 C1108 1.363 . S
N1106 C1108 1.356 . S
N1106 H1118 0.984 . S
N1106 H1119 0.985 . S
N1107 C1109 1.356 . S
N1107 H1112 0.984 . S
N1107 H1113 0.985 . S
C1108 C1102 1.379 . S
C1108 C1105 1.363 . S
C1108 N1106 1.356 . S
C1109 C1103 1.363 . S
C1109 C1104 1.379 . S
C1109 N1107 1.356 . S
N1110 C1102 1.356 . S
N1110 H1116 0.984 . S
N1110 H1117 0.984 . S
N1111 C1104 1.356 . S
N1111 H1114 0.984 . S
N1111 H1115 0.985 . S
H1112 N1107 0.984 . S
H1113 N1107 0.985 . S
H1114 N1111 0.984 . S
H1115 N1111 0.985 . S
H1116 N1110 0.984 . S
H1117 N1110 0.984 . S
H1118 N1106 0.984 . S
H1119 N1106 0.985 . S
C1120 C1121 1.363 . S
C1120 C1126 1.379 . S
C1120 N1128 1.356 . S
C1121 C1120 1.363 . S
C1121 C1127 1.363 . S
C1122 C1123 1.363 . S
C1122 C1127 1.379 . S
C1122 N1129 1.356 . S
C1123 C1122 1.363 . S
C1123 C1126 1.363 . S
N1124 C1126 1.356 . S
N1124 H1136 0.984 . S
N1124 H1137 0.985 . S
N1125 C1127 1.356 . S
N1125 H1130 0.984 . S
N1125 H1131 0.985 . S
C1126 C1120 1.379 . S
C1126 C1123 1.363 . S
C1126 N1124 1.356 . S
C1127 C1121 1.363 . S
C1127 C1122 1.379 . S
C1127 N1125 1.356 . S
N1128 C1120 1.356 . S
N1128 H1134 0.984 . S
N1128 H1135 0.984 . S
N1129 C1122 1.356 . S
N1129 H1132 0.984 . S
N1129 H1133 0.985 . S
H1130 N1125 0.984 . S
H1131 N1125 0.985 . S
H1132 N1129 0.984 . S
H1133 N1129 0.985 . S
H1134 N1128 0.984 . S
H1135 N1128 0.984 . S
H1136 N1124 0.984 . S
H1137 N1124 0.985 . S
C1138 C1139 1.363 . S
C1138 C1144 1.379 . S
C1138 N1146 1.356 . S
C1139 C1138 1.363 . S
C1139 C1145 1.363 . S
C1140 C1141 1.363 . S
C1140 C1145 1.379 . S
C1140 N1147 1.356 . S
C1141 C1140 1.363 . S
C1141 C1144 1.363 . S
N1142 C1144 1.356 . S
N1142 H1154 0.984 . S
N1142 H1155 0.985 . S
N1143 C1145 1.356 . S
N1143 H1148 0.984 . S
N1143 H1149 0.985 . S
C1144 C1138 1.379 . S
C1144 C1141 1.363 . S
C1144 N1142 1.356 . S
C1145 C1139 1.363 . S
C1145 C1140 1.379 . S
C1145 N1143 1.356 . S
N1146 C1138 1.356 . S
N1146 H1152 0.984 . S
N1146 H1153 0.984 . S
N1147 C1140 1.356 . S
N1147 H1150 0.984 . S
N1147 H1151 0.985 . S
H1148 N1143 0.984 . S
H1149 N1143 0.985 . S
H1150 N1147 0.984 . S
H1151 N1147 0.985 . S
H1152 N1146 0.984 . S
H1153 N1146 0.984 . S
H1154 N1142 0.984 . S
H1155 N1142 0.985 . S
C1156 C1157 1.363 . S
C1156 C1162 1.379 . S
C1156 N1164 1.356 . S
C1157 C1156 1.363 . S
C1157 C1163 1.363 . S
C1158 C1159 1.363 . S
C1158 C1163 1.379 . S
C1158 N1165 1.356 . S
C1159 C1158 1.363 . S
C1159 C1162 1.363 . S
N1160 C1162 1.356 . S
N1160 H1172 0.984 . S
N1160 H1173 0.985 . S
N1161 C1163 1.356 . S
N1161 H1166 0.984 . S
N1161 H1167 0.985 . S
C1162 C1156 1.379 . S
C1162 C1159 1.363 . S
C1162 N1160 1.356 . S
C1163 C1157 1.363 . S
C1163 C1158 1.379 . S
C1163 N1161 1.356 . S
N1164 C1156 1.356 . S
N1164 H1170 0.984 . S
N1164 H1171 0.984 . S
N1165 C1158 1.356 . S
N1165 H1168 0.984 . S
N1165 H1169 0.985 . S
H1166 N1161 0.984 . S
H1167 N1161 0.985 . S
H1168 N1165 0.984 . S
H1169 N1165 0.985 . S
H1170 N1164 0.984 . S
H1171 N1164 0.984 . S
H1172 N1160 0.984 . S
H1173 N1160 0.985 . S
C1174 C1175 1.363 . S
C1174 C1180 1.379 . S
C1174 N1182 1.356 . S
C1175 C1174 1.363 . S
C1175 C1181 1.363 . S
C1176 C1177 1.363 . S
C1176 C1181 1.379 . S
C1176 N1183 1.356 . S
C1177 C1176 1.363 . S
C1177 C1180 1.363 . S
N1178 C1180 1.356 . S
N1178 H1190 0.984 . S
N1178 H1191 0.985 . S
N1179 C1181 1.356 . S
N1179 H1184 0.984 . S
N1179 H1185 0.985 . S
C1180 C1174 1.379 . S
C1180 C1177 1.363 . S
C1180 N1178 1.356 . S
C1181 C1175 1.363 . S
C1181 C1176 1.379 . S
C1181 N1179 1.356 . S
N1182 C1174 1.356 . S
N1182 H1188 0.984 . S
N1182 H1189 0.984 . S
N1183 C1176 1.356 . S
N1183 H1186 0.984 . S
N1183 H1187 0.985 . S
H1184 N1179 0.984 . S
H1185 N1179 0.985 . S
H1186 N1183 0.984 . S
H1187 N1183 0.985 . S
H1188 N1182 0.984 . S
H1189 N1182 0.984 . S
H1190 N1178 0.984 . S
H1191 N1178 0.985 . S
C1192 C1193 1.363 . S
C1192 C1198 1.379 . S
C1192 N1200 1.356 . S
C1193 C1192 1.363 . S
C1193 C1199 1.363 . S
C1194 C1195 1.363 . S
C1194 C1199 1.379 . S
C1194 N1201 1.356 . S
C1195 C1194 1.363 . S
C1195 C1198 1.363 . S
N1196 C1198 1.356 . S
N1196 H1208 0.984 . S
N1196 H1209 0.985 . S
N1197 C1199 1.356 . S
N1197 H1202 0.984 . S
N1197 H1203 0.985 . S
C1198 C1192 1.379 . S
C1198 C1195 1.363 . S
C1198 N1196 1.356 . S
C1199 C1193 1.363 . S
C1199 C1194 1.379 . S
C1199 N1197 1.356 . S
N1200 C1192 1.356 . S
N1200 H1206 0.984 . S
N1200 H1207 0.984 . S
N1201 C1194 1.356 . S
N1201 H1204 0.984 . S
N1201 H1205 0.985 . S
H1202 N1197 0.984 . S
H1203 N1197 0.985 . S
H1204 N1201 0.984 . S
H1205 N1201 0.985 . S
H1206 N1200 0.984 . S
H1207 N1200 0.984 . S
H1208 N1196 0.984 . S
H1209 N1196 0.985 . S
C1210 C1211 1.363 . S
C1210 C1216 1.379 . S
C1210 N1218 1.356 . S
C1211 C1210 1.363 . S
C1211 C1217 1.363 . S
C1212 C1213 1.363 . S
C1212 C1217 1.379 . S
C1212 N1219 1.356 . S
C1213 C1212 1.363 . S
C1213 C1216 1.363 . S
N1214 C1216 1.356 . S
N1214 H1226 0.984 . S
N1214 H1227 0.985 . S
N1215 C1217 1.356 . S
N1215 H1220 0.984 . S
N1215 H1221 0.985 . S
C1216 C1210 1.379 . S
C1216 C1213 1.363 . S
C1216 N1214 1.356 . S
C1217 C1211 1.363 . S
C1217 C1212 1.379 . S
C1217 N1215 1.356 . S
N1218 C1210 1.356 . S
N1218 H1224 0.984 . S
N1218 H1225 0.984 . S
N1219 C1212 1.356 . S
N1219 H1222 0.984 . S
N1219 H1223 0.985 . S
H1220 N1215 0.984 . S
H1221 N1215 0.985 . S
H1222 N1219 0.984 . S
H1223 N1219 0.985 . S
H1224 N1218 0.984 . S
H1225 N1218 0.984 . S
H1226 N1214 0.984 . S
H1227 N1214 0.985 . S
C1228 C1229 1.363 . S
C1228 C1234 1.379 . S
C1228 N1236 1.356 . S
C1229 C1228 1.363 . S
C1229 C1235 1.363 . S
C1230 C1231 1.363 . S
C1230 C1235 1.379 . S
C1230 N1237 1.356 . S
C1231 C1230 1.363 . S
C1231 C1234 1.363 . S
N1232 C1234 1.356 . S
N1232 H1244 0.984 . S
N1232 H1245 0.985 . S
N1233 C1235 1.356 . S
N1233 H1238 0.984 . S
N1233 H1239 0.985 . S
C1234 C1228 1.379 . S
C1234 C1231 1.363 . S
C1234 N1232 1.356 . S
C1235 C1229 1.363 . S
C1235 C1230 1.379 . S
C1235 N1233 1.356 . S
N1236 C1228 1.356 . S
N1236 H1242 0.984 . S
N1236 H1243 0.984 . S
N1237 C1230 1.356 . S
N1237 H1240 0.984 . S
N1237 H1241 0.985 . S
H1238 N1233 0.984 . S
H1239 N1233 0.985 . S
H1240 N1237 0.984 . S
H1241 N1237 0.985 . S
H1242 N1236 0.984 . S
H1243 N1236 0.984 . S
H1244 N1232 0.984 . S
H1245 N1232 0.985 . S
C385 C211 1.189 . S
C383 C17 1.312 . S
C403 C212 1.710 . S
C401 C44 1.741 . S
C421 C206 1.349 . S
C419 C63 1.377 . S
C437 C87 1.178 . S
C439 C205 1.154 . S
C455 C110 1.652 . S
C457 C208 1.533 . S
C475 C210 1.361 . S
C473 C131 1.385 . S
C491 C159 1.241 . S
C493 C209 1.344 . S
C509 C177 1.326 . S
C511 C207 1.209 . S
C529 C242 1.700 . S
C527 C20 1.432 . S
C545 C42 1.495 . S
C547 C273 1.412 . S
C565 C241 1.665 . S
C563 C66 1.435 . S
C583 C276 1.263 . S
C581 C86 1.285 . S
C599 C109 1.428 . S
C601 C239 1.431 . S
C619 C271 1.592 . S
C617 C136 1.473 . S
C635 C157 1.328 . S
C637 C244 1.313 . S
C653 C182 1.415 . S
C655 C278 1.489 . S
C671 C18 1.445 . S
C673 C274 1.411 . S
C689 C112 1.452 . S
C691 C277 1.589 . S
C709 C245 1.414 . S
C707 C134 1.381 . S
C727 C272 1.411 . S
C725 C154 1.417 . S
C743 C180 1.433 . S
C745 C238 1.521 . S
C761 C64 1.480 . S
C763 C275 1.496 . S
C781 C240 1.642 . S
C779 C89 1.337 . S
C797 C39 1.570 . S
C799 C243 1.595 . S
C815 C178 1.304 . S
C817 C310 1.188 . S
C833 C113 1.500 . S
C835 C311 1.494 . S
C853 C305 1.328 . S
C851 C132 1.362 . S
C871 C304 1.437 . S
C869 C156 1.445 . S
C887 C41 1.372 . S
C889 C307 1.236 . S
C907 C309 1.343 . S
C905 C62 1.372 . S
C923 C90 1.471 . S
C925 C308 1.546 . S
C941 C16 1.323 . S
C943 C306 1.211 . S
C959 C181 1.505 . S
C961 C344 1.614 . S
C979 C376 1.346 . S
C977 C111 1.351 . S
C995 C135 1.248 . S
C997 C337 1.396 . S
C1013 C155 1.490 . S
C1015 C371 1.520 . S
C1033 C342 1.266 . S
C1031 C40 1.267 . S
C1049 C67 1.727 . S
C1051 C373 1.924 . S
C1069 C339 1.419 . S
C1067 C88 1.494 . S
C1087 C374 1.636 . S
C1085 C21 1.405 . S
C1105 C370 1.413 . S
C1103 C179 1.403 . S
C1121 C43 1.337 . S
C1123 C372 1.655 . S
C1139 C65 1.266 . S
C1141 C341 1.371 . S
C1159 C375 1.672 . S
C1157 C85 1.617 . S
C1175 C19 1.535 . S
C1177 C340 1.573 . S
C1193 C133 1.684 . S
C1195 C377 1.631 . S
C1213 C343 1.602 . S
C1211 C158 1.465 . S
C1231 C338 1.421 . S
C1229 C108 1.408 . S
