# Generated by pormake.
# Topology ocu, (6,8)-cn, num edge types: 1
# Building blocks:
#     Node 0, Type 0, BuildingBlock: KUMBUR_clean_sbu_1, # of connection points: 6
#     Node 1, Type 0, BuildingBlock: KUMBUR_clean_sbu_1, # of connection points: 6
#     Node 2, Type 0, BuildingBlock: KUMBUR_clean_sbu_1, # of connection points: 6
#     Node 3, Type 0, BuildingBlock: KUMBUR_clean_sbu_1, # of connection points: 6
#     Node 4, Type 0, BuildingBlock: KUMBUR_clean_sbu_1, # of connection points: 6
#     Node 5, Type 0, BuildingBlock: KUMBUR_clean_sbu_1, # of connection points: 6
#     Node 6, Type 0, BuildingBlock: KUMBUR_clean_sbu_1, # of connection points: 6
#     Node 7, Type 0, BuildingBlock: KUMBUR_clean_sbu_1, # of connection points: 6
#     Node 8, Type 1, BuildingBlock: TAGTUT_clean_sbu_1, # of connection points: 8
#     Node 9, Type 1, BuildingBlock: TAGTUT_clean_sbu_1, # of connection points: 8
#     Node 10, Type 1, BuildingBlock: TAGTUT_clean_sbu_1, # of connection points: 8
#     Node 11, Type 1, BuildingBlock: TAGTUT_clean_sbu_1, # of connection points: 8
#     Node 12, Type 1, BuildingBlock: TAGTUT_clean_sbu_1, # of connection points: 8
#     Node 13, Type 1, BuildingBlock: TAGTUT_clean_sbu_1, # of connection points: 8
#     Edge 14, Type (0, 1), BuildingBlock: OJICUG_clean_linker_0, # of connection points: 2
#     Edge 15, Type (0, 1), BuildingBlock: OJICUG_clean_linker_0, # of connection points: 2
#     Edge 16, Type (0, 1), BuildingBlock: OJICUG_clean_linker_0, # of connection points: 2
#     Edge 17, Type (0, 1), BuildingBlock: OJICUG_clean_linker_0, # of connection points: 2
#     Edge 18, Type (0, 1), BuildingBlock: OJICUG_clean_linker_0, # of connection points: 2
#     Edge 19, Type (0, 1), BuildingBlock: OJICUG_clean_linker_0, # of connection points: 2
#     Edge 20, Type (0, 1), BuildingBlock: OJICUG_clean_linker_0, # of connection points: 2
#     Edge 21, Type (0, 1), BuildingBlock: OJICUG_clean_linker_0, # of connection points: 2
#     Edge 22, Type (0, 1), BuildingBlock: OJICUG_clean_linker_0, # of connection points: 2
#     Edge 23, Type (0, 1), BuildingBlock: OJICUG_clean_linker_0, # of connection points: 2
#     Edge 24, Type (0, 1), BuildingBlock: OJICUG_clean_linker_0, # of connection points: 2
#     Edge 25, Type (0, 1), BuildingBlock: OJICUG_clean_linker_0, # of connection points: 2
#     Edge 26, Type (0, 1), BuildingBlock: OJICUG_clean_linker_0, # of connection points: 2
#     Edge 27, Type (0, 1), BuildingBlock: OJICUG_clean_linker_0, # of connection points: 2
#     Edge 28, Type (0, 1), BuildingBlock: OJICUG_clean_linker_0, # of connection points: 2
#     Edge 29, Type (0, 1), BuildingBlock: OJICUG_clean_linker_0, # of connection points: 2
#     Edge 30, Type (0, 1), BuildingBlock: OJICUG_clean_linker_0, # of connection points: 2
#     Edge 31, Type (0, 1), BuildingBlock: OJICUG_clean_linker_0, # of connection points: 2
#     Edge 32, Type (0, 1), BuildingBlock: OJICUG_clean_linker_0, # of connection points: 2
#     Edge 33, Type (0, 1), BuildingBlock: OJICUG_clean_linker_0, # of connection points: 2
#     Edge 34, Type (0, 1), BuildingBlock: OJICUG_clean_linker_0, # of connection points: 2
#     Edge 35, Type (0, 1), BuildingBlock: OJICUG_clean_linker_0, # of connection points: 2
#     Edge 36, Type (0, 1), BuildingBlock: OJICUG_clean_linker_0, # of connection points: 2
#     Edge 37, Type (0, 1), BuildingBlock: OJICUG_clean_linker_0, # of connection points: 2
#     Edge 38, Type (0, 1), BuildingBlock: OJICUG_clean_linker_0, # of connection points: 2
#     Edge 39, Type (0, 1), BuildingBlock: OJICUG_clean_linker_0, # of connection points: 2
#     Edge 40, Type (0, 1), BuildingBlock: OJICUG_clean_linker_0, # of connection points: 2
#     Edge 41, Type (0, 1), BuildingBlock: OJICUG_clean_linker_0, # of connection points: 2
#     Edge 42, Type (0, 1), BuildingBlock: OJICUG_clean_linker_0, # of connection points: 2
#     Edge 43, Type (0, 1), BuildingBlock: OJICUG_clean_linker_0, # of connection points: 2
#     Edge 44, Type (0, 1), BuildingBlock: OJICUG_clean_linker_0, # of connection points: 2
#     Edge 45, Type (0, 1), BuildingBlock: OJICUG_clean_linker_0, # of connection points: 2
#     Edge 46, Type (0, 1), BuildingBlock: OJICUG_clean_linker_0, # of connection points: 2
#     Edge 47, Type (0, 1), BuildingBlock: OJICUG_clean_linker_0, # of connection points: 2
#     Edge 48, Type (0, 1), BuildingBlock: OJICUG_clean_linker_0, # of connection points: 2
#     Edge 49, Type (0, 1), BuildingBlock: OJICUG_clean_linker_0, # of connection points: 2
#     Edge 50, Type (0, 1), BuildingBlock: OJICUG_clean_linker_0, # of connection points: 2
#     Edge 51, Type (0, 1), BuildingBlock: OJICUG_clean_linker_0, # of connection points: 2
#     Edge 52, Type (0, 1), BuildingBlock: OJICUG_clean_linker_0, # of connection points: 2
#     Edge 53, Type (0, 1), BuildingBlock: OJICUG_clean_linker_0, # of connection points: 2
#     Edge 54, Type (0, 1), BuildingBlock: OJICUG_clean_linker_0, # of connection points: 2
#     Edge 55, Type (0, 1), BuildingBlock: OJICUG_clean_linker_0, # of connection points: 2
#     Edge 56, Type (0, 1), BuildingBlock: OJICUG_clean_linker_0, # of connection points: 2
#     Edge 57, Type (0, 1), BuildingBlock: OJICUG_clean_linker_0, # of connection points: 2
#     Edge 58, Type (0, 1), BuildingBlock: OJICUG_clean_linker_0, # of connection points: 2
#     Edge 59, Type (0, 1), BuildingBlock: OJICUG_clean_linker_0, # of connection points: 2
#     Edge 60, Type (0, 1), BuildingBlock: OJICUG_clean_linker_0, # of connection points: 2
#     Edge 61, Type (0, 1), BuildingBlock: OJICUG_clean_linker_0, # of connection points: 2
# Relax obj value: 0.099
# Max RMSD: 0.177
# Mean RMSD: 0.101
data_MOF--net-ocu--node1-KUMBUR_clean_sbu_1--node2-TAGTUT_clean_sbu_1--edge1-OJICUG_clean_linker_0
_symmetry_space_group_name_H-M    P1
_symmetry_Int_Tables_number       1
_symmetry_cell_setting            triclinic
loop_
_symmetry_equiv_pos_as_xyz
'x, y, z'
_cell_length_a     31.288875
_cell_length_b     30.181776
_cell_length_c     32.467862
_cell_angle_alpha  102.44945
_cell_angle_beta   79.929675
_cell_angle_gamma 118.85312
loop_
_atom_site_label
_atom_site_type_symbol
_atom_site_fract_x
_atom_site_fract_y
_atom_site_fract_z
_atom_type_partial_charge
Tb0 Tb 0.22144 0.225 0.23178 0.0
C1 C 0.37066 0.40799 0.35087 0.0
N2 N 0.38048 0.38084 0.31477 0.0
C3 C 0.44592 0.45822 0.29285 0.0
C4 C 0.39772 0.46167 0.35915 0.0
C5 C 0.41925 0.40489 0.28697 0.0
C6 C 0.43468 0.48685 0.3289 0.0
C7 C 0.32337 0.40786 0.41853 0.0
C8 C 0.33355 0.38163 0.37983 0.0
C9 C 0.3503 0.46142 0.42708 0.0
C10 C 0.38715 0.48831 0.3973 0.0
Tb11 Tb 0.32991 0.29472 0.30597 0.0
N12 N 0.30667 0.33014 0.36946 0.0
C13 C 0.28634 0.3794 0.44729 0.0
C14 C 0.27225 0.30199 0.39817 0.0
C15 C 0.26107 0.32615 0.43724 0.0
H16 H 0.43035 0.38293 0.26082 0.0
H17 H 0.23321 0.30365 0.45967 0.0
H18 H 0.12558 0.13378 0.27971 0.0
H19 H 0.31904 0.2195 0.07825 0.0
H20 H 0.25382 0.26103 0.39135 0.0
H21 H 0.27743 0.39805 0.47749 0.0
H22 H 0.29853 0.26083 0.14735 0.0
H23 H 0.47558 0.47707 0.2699 0.0
H24 H 0.34286 0.48238 0.45655 0.0
H25 H 0.40762 0.52962 0.40427 0.0
H26 H 0.08249 0.04004 0.26921 0.0
H27 H 0.45546 0.5282 0.33362 0.0
H28 H 0.27514 0.12524 0.0592 0.0
N29 N 0.17343 0.13839 0.22354 0.0
C30 C 0.18294 0.11219 0.18659 0.0
C31 C 0.11068 0.05976 0.24564 0.0
C32 C 0.1567 0.05845 0.17778 0.0
C33 C 0.13631 0.11312 0.25215 0.0
C34 C 0.121 0.0322 0.20833 0.0
N35 N 0.24573 0.19098 0.16827 0.0
C36 C 0.28011 0.21986 0.13992 0.0
C37 C 0.22953 0.11407 0.11831 0.0
C38 C 0.21932 0.13949 0.15748 0.0
C39 C 0.26622 0.14328 0.08972 0.0
C40 C 0.29131 0.19647 0.10045 0.0
H41 H 0.1007 0.9908 0.20312 0.0
H42 H 0.14715 0.99143 0.13157 0.0
H43 H 0.21057 0.0402 0.07929 0.0
O44 O 0.21092 0.26326 0.19074 0.0
O45 O 0.27222 0.19105 0.22577 0.0
O46 O 0.34748 0.25682 0.24461 0.0
O47 O 0.14982 0.19964 0.21643 0.0
O48 O 0.27814 0.30423 0.22568 0.0
O49 O 0.35097 0.31341 0.24125 0.0
O50 O 0.33816 0.2525 0.34481 0.0
O51 O 0.27996 0.32949 0.31263 0.0
O52 O 0.20464 0.26509 0.29218 0.0
O53 O 0.40041 0.3183 0.32293 0.0
O54 O 0.27178 0.21593 0.31215 0.0
O55 O 0.19973 0.20846 0.29697 0.0
C56 C 0.32044 0.21137 0.22367 0.0
C57 C 0.1369 0.2668 0.20516 0.0
C58 C 0.11033 0.32131 0.18339 0.0
C59 C 0.09442 0.33269 0.22569 0.0
C60 C 0.11987 0.27768 0.24708 0.0
C61 C 0.0988 0.31058 0.25726 0.0
C62 C 0.1316 0.2882 0.17331 0.0
C63 C 0.32606 0.32349 0.21911 0.0
C64 C 0.16351 0.23647 0.19466 0.0
C65 C 0.16704 0.03274 0.13895 0.0
C66 C 0.20314 0.06052 0.10917 0.0
C67 C 0.232 0.31018 0.31345 0.0
C68 C 0.41285 0.25005 0.33183 0.0
C69 C 0.44123 0.19674 0.35311 0.0
C70 C 0.46097 0.18949 0.3113 0.0
C71 C 0.43293 0.24267 0.29038 0.0
C72 C 0.41708 0.22714 0.36307 0.0
C73 C 0.45681 0.21241 0.2802 0.0
C74 C 0.22414 0.19872 0.31981 0.0
C75 C 0.38558 0.27963 0.34276 0.0
H76 H 0.07811 0.35821 0.23425 0.0
H77 H 0.12327 0.26111 0.27191 0.0
H78 H 0.08608 0.31918 0.28973 0.0
H79 H 0.14509 0.28011 0.14093 0.0
H80 H 0.48022 0.16671 0.30273 0.0
H81 H 0.43012 0.26027 0.26598 0.0
H82 H 0.40086 0.23238 0.39494 0.0
H83 H 0.47223 0.2068 0.24814 0.0
Tb84 Tb 0.74115 0.30101 0.28515 0.0
C85 C 0.89118 0.24974 0.17655 0.0
N86 N 0.84413 0.21457 0.18492 0.0
C87 C 0.83802 0.17842 0.11156 0.0
C88 C 0.9124 0.25262 0.13467 0.0
C89 C 0.81767 0.17844 0.15342 0.0
C90 C 0.88547 0.216 0.10204 0.0
C91 C 0.96271 0.32651 0.2018 0.0
C92 C 0.91598 0.28624 0.20984 0.0
C93 C 0.98272 0.33107 0.15998 0.0
C94 C 0.95811 0.29393 0.12649 0.0
Tb95 Tb 0.81405 0.22009 0.25365 0.0
N96 N 0.89334 0.28355 0.24972 0.0
C97 C 0.98753 0.36156 0.23597 0.0
C98 C 0.91976 0.31369 0.28343 0.0
C99 C 0.96667 0.35396 0.2771 0.0
H100 H 0.78101 0.14936 0.16064 0.0
H101 H 0.98682 0.3788 0.30391 0.0
H102 H 0.79277 0.39758 0.36164 0.0
H103 H 0.5622 0.13682 0.27516 0.0
H104 H 0.90599 0.30628 0.31526 0.0
H105 H 1.02346 0.39338 0.23099 0.0
H106 H 0.64363 0.19558 0.2467 0.0
H107 H 0.81687 0.14991 0.08662 0.0
H108 H 1.01673 0.36389 0.15352 0.0
H109 H 0.97366 0.29836 0.09426 0.0
H110 H 0.7711 0.42201 0.4369 0.0
H111 H 0.90063 0.21693 0.06939 0.0
H112 H 0.5352 0.15418 0.35021 0.0
N113 N 0.72487 0.33033 0.35333 0.0
C114 C 0.67898 0.30195 0.37038 0.0
C115 C 0.74501 0.38789 0.41869 0.0
C116 C 0.66503 0.31432 0.41315 0.0
C117 C 0.75755 0.37351 0.37634 0.0
C118 C 0.69865 0.35791 0.43731 0.0
N119 N 0.66317 0.24536 0.30533 0.0
C120 C 0.63261 0.20372 0.27945 0.0
C121 C 0.60073 0.22564 0.36304 0.0
C122 C 0.64687 0.25839 0.34546 0.0
C123 C 0.57046 0.18095 0.33761 0.0
C124 C 0.58596 0.17057 0.29535 0.0
H125 H 0.68924 0.36865 0.47034 0.0
H126 H 0.60775 0.28962 0.46389 0.0
H127 H 0.55391 0.21083 0.4204 0.0
O128 O 0.70224 0.311 0.24442 0.0
O129 O 0.72468 0.24326 0.32516 0.0
O130 O 0.74166 0.17907 0.28604 0.0
O131 O 0.73667 0.36975 0.29633 0.0
O132 O 0.73083 0.25198 0.22333 0.0
O133 O 0.74226 0.18305 0.22827 0.0
O134 O 0.85369 0.19719 0.28416 0.0
O135 O 0.8209 0.27279 0.21229 0.0
O136 O 0.81552 0.34082 0.25571 0.0
O137 O 0.80998 0.14808 0.23171 0.0
O138 O 0.81755 0.26309 0.31804 0.0
O139 O 0.81318 0.33423 0.30876 0.0
C140 C 0.719 0.19625 0.31829 0.0
C141 C 0.72159 0.39521 0.23921 0.0
C142 C 0.69008 0.43616 0.20495 0.0
C143 C 0.73855 0.47192 0.19407 0.0
C144 C 0.76974 0.4305 0.22791 0.0
C145 C 0.77806 0.46877 0.20529 0.0
C146 C 0.68209 0.39789 0.22748 0.0
C147 C 0.72605 0.20558 0.20907 0.0
C148 C 0.71052 0.35619 0.26471 0.0
C149 C 0.61888 0.28168 0.43077 0.0
C150 C 0.58747 0.23717 0.40589 0.0
C151 C 0.83289 0.32168 0.22076 0.0
C152 C 0.85461 0.11498 0.25759 0.0
C153 C 0.89701 0.08135 0.28779 0.0
C154 C 0.88695 0.04211 0.25267 0.0
C155 C 0.84432 0.07498 0.22325 0.0
C156 C 0.88107 0.11814 0.28986 0.0
C157 C 0.86056 0.03888 0.22083 0.0
C158 C 0.82379 0.31017 0.33143 0.0
C159 C 0.84022 0.15466 0.25773 0.0
H160 H 0.7459 0.5016 0.17614 0.0
H161 H 0.80056 0.42864 0.23679 0.0
H162 H 0.81516 0.49592 0.1963 0.0
H163 H 0.64496 0.37053 0.23658 0.0
H164 H 0.89919 0.01355 0.24994 0.0
H165 H 0.82437 0.07199 0.1978 0.0
H166 H 0.88836 0.14843 0.31678 0.0
H167 H 0.85273 1.00834 0.19415 0.0
Tb168 Tb 0.74789 0.70115 0.30201 0.0
C169 C 0.91204 0.87987 0.20171 0.0
N170 N 0.88515 0.88287 0.23891 0.0
C171 C 0.95373 0.95963 0.26632 0.0
C172 C 0.96113 0.91682 0.19543 0.0
C173 C 0.90504 0.92224 0.27104 0.0
C174 C 0.9817 0.95697 0.22829 0.0
C175 C 0.91531 0.8384 0.12919 0.0
C176 C 0.88943 0.84122 0.16897 0.0
C177 C 0.96481 0.87413 0.12325 0.0
C178 C 0.98765 0.91334 0.15627 0.0
Tb179 Tb 0.80585 0.82104 0.24128 0.0
N180 N 0.84139 0.80754 0.17569 0.0
C181 C 0.89018 0.80077 0.09626 0.0
C182 C 0.81595 0.77325 0.14296 0.0
C183 C 0.8401 0.7685 0.10304 0.0
H184 H 0.88317 0.92557 0.29997 0.0
H185 H 0.81995 0.74044 0.07742 0.0
H186 H 0.67181 0.59329 0.24532 0.0
H187 H 0.72957 0.79456 0.46037 0.0
H188 H 0.77728 0.7496 0.14761 0.0
H189 H 0.90874 0.79735 0.06518 0.0
H190 H 0.77379 0.78183 0.39168 0.0
H191 H 0.96948 0.99095 0.29166 0.0
H192 H 0.98542 0.87248 0.09296 0.0
H193 H 1.02556 0.94131 0.15096 0.0
H194 H 0.58583 0.52728 0.25468 0.0
H195 H 1.01866 0.98674 0.22412 0.0
H196 H 0.64128 0.73599 0.47318 0.0
N197 N 0.6686 0.63932 0.30438 0.0
C198 C 0.6412 0.64397 0.34084 0.0
C199 C 0.60099 0.56028 0.27879 0.0
C200 C 0.59225 0.60691 0.34754 0.0
C201 C 0.64941 0.59804 0.27347 0.0
C202 C 0.57248 0.56469 0.31602 0.0
N203 N 0.71072 0.71914 0.36524 0.0
C204 C 0.73526 0.75683 0.3968 0.0
C205 C 0.63637 0.69004 0.41124 0.0
C206 C 0.663 0.68488 0.3724 0.0
C207 C 0.66048 0.73066 0.44287 0.0
C208 C 0.7103 0.76386 0.43576 0.0
H209 H 0.53576 0.53464 0.32067 0.0
H210 H 0.52725 0.58435 0.39141 0.0
H211 H 0.56585 0.65735 0.44714 0.0
O212 O 0.79153 0.69949 0.34331 0.0
O213 O 0.71387 0.75376 0.31547 0.0
O214 O 0.77576 0.83438 0.30582 0.0
O215 O 0.73624 0.62948 0.31206 0.0
O216 O 0.8245 0.76041 0.30541 0.0
O217 O 0.82885 0.83744 0.305 0.0
O218 O 0.7488 0.82577 0.22048 0.0
O219 O 0.83708 0.76597 0.22024 0.0
O220 O 0.78291 0.68604 0.24013 0.0
O221 O 0.81945 0.89178 0.22662 0.0
O222 O 0.73176 0.75815 0.23344 0.0
O223 O 0.72595 0.68117 0.23722 0.0
C224 C 0.73177 0.80425 0.32158 0.0
C225 C 0.80991 0.63107 0.32236 0.0
C226 C 0.87337 0.61668 0.34234 0.0
C227 C 0.88191 0.59819 0.29974 0.0
C228 C 0.8186 0.61204 0.28009 0.0
C229 C 0.85485 0.59628 0.26884 0.0
C230 C 0.8378 0.63404 0.35312 0.0
C231 C 0.83934 0.80843 0.32184 0.0
C232 C 0.77344 0.64993 0.33484 0.0
C233 C 0.56507 0.61241 0.38582 0.0
C234 C 0.58705 0.65397 0.41756 0.0
C235 C 0.82213 0.71623 0.21817 0.0
C236 C 0.77178 0.88303 0.17308 0.0
C237 C 0.72166 0.88886 0.12719 0.0
C238 C 0.75872 0.89588 0.09409 0.0
C239 C 0.80882 0.89046 0.13986 0.0
C240 C 0.72841 0.8827 0.16668 0.0
C241 C 0.8022 0.8969 0.10052 0.0
C242 C 0.71885 0.71037 0.21734 0.0
C243 C 0.77592 0.87286 0.214 0.0
H244 H 0.90852 0.58393 0.29039 0.0
H245 H 0.7974 0.60935 0.25588 0.0
H246 H 0.86162 0.582 0.23614 0.0
H247 H 0.83155 0.64986 0.38556 0.0
H248 H 0.75429 0.90144 0.06353 0.0
H249 H 0.84262 0.89111 0.14418 0.0
H250 H 0.69973 0.87717 0.19225 0.0
H251 H 0.83081 0.90271 0.07497 0.0
Tb252 Tb 0.23075 0.78943 0.26594 0.0
C253 C 0.29944 0.66949 0.33856 0.0
N254 N 0.32147 0.7194 0.33284 0.0
C255 C 0.35061 0.74497 0.40199 0.0
C256 C 0.29818 0.65588 0.37781 0.0
C257 C 0.35046 0.75642 0.3625 0.0
C258 C 0.32302 0.69469 0.41018 0.0
C259 C 0.258 0.57959 0.30858 0.0
C260 C 0.28093 0.63173 0.30408 0.0
C261 C 0.25401 0.56594 0.34833 0.0
C262 C 0.27431 0.60399 0.3828 0.0
Tb263 Tb 0.31977 0.73244 0.2666 0.0
N264 N 0.28531 0.64635 0.2661 0.0
C265 C 0.23963 0.54282 0.27301 0.0
C266 C 0.26879 0.61066 0.231 0.0
C267 C 0.2453 0.55844 0.23403 0.0
H268 H 0.37475 0.79458 0.35557 0.0
H269 H 0.23169 0.53026 0.20627 0.0
H270 H 0.18341 0.73174 0.17314 0.0
H271 H 0.31512 0.98953 0.33377 0.0
H272 H 0.27372 0.6221 0.20055 0.0
H273 H 0.22143 0.50233 0.2752 0.0
H274 H 0.27311 0.89691 0.33599 0.0
H275 H 0.37283 0.77472 0.42575 0.0
H276 H 0.23613 0.52607 0.35254 0.0
H277 H 0.27238 0.59284 0.41292 0.0
H278 H 0.1915 0.75553 0.10322 0.0
H279 H 0.32342 0.68588 0.4407 0.0
H280 H 0.32967 0.02144 0.26596 0.0
N281 N 0.23417 0.80618 0.19988 0.0
C282 C 0.25623 0.85678 0.1962 0.0
C283 C 0.21129 0.78423 0.12871 0.0
C284 C 0.26056 0.87271 0.15726 0.0
C285 C 0.20813 0.77049 0.16805 0.0
C286 C 0.23889 0.83542 0.1229 0.0
N287 N 0.26563 0.87607 0.26965 0.0
C288 C 0.27991 0.91004 0.30602 0.0
C289 C 0.29549 0.94558 0.22966 0.0
C290 C 0.27233 0.89288 0.2322 0.0
C291 C 0.31146 0.98059 0.26662 0.0
C292 C 0.30339 0.96272 0.30496 0.0
H293 H 0.241 0.84602 0.0925 0.0
H294 H 0.28871 0.93814 0.12456 0.0
H295 H 0.32015 1.00189 0.18775 0.0
O296 O 0.18312 0.8222 0.28228 0.0
O297 O 0.30868 0.8312 0.24373 0.0
O298 O 0.33072 0.76942 0.21179 0.0
O299 O 0.15485 0.74092 0.26462 0.0
O300 O 0.26301 0.81086 0.32681 0.0
O301 O 0.33578 0.80787 0.30406 0.0
O302 O 0.36777 0.70036 0.2473 0.0
O303 O 0.24193 0.6897 0.2888 0.0
O304 O 0.21859 0.75082 0.32011 0.0
O305 O 0.39547 0.7817 0.2668 0.0
O306 O 0.28648 0.70925 0.20618 0.0
O307 O 0.21415 0.71409 0.22801 0.0
C308 C 0.33453 0.81506 0.21426 0.0
C309 C 0.11855 0.77074 0.32488 0.0
C310 C 0.12646 0.79288 0.40033 0.0
C311 C 0.07512 0.76853 0.40768 0.0
C312 C 0.06753 0.74671 0.33175 0.0
C313 C 0.04589 0.74538 0.37338 0.0
C314 C 0.14707 0.79117 0.35915 0.0
C315 C 0.3086 0.82386 0.33212 0.0
C316 C 0.1447 0.77781 0.28316 0.0
C317 C 0.2845 0.92521 0.15436 0.0
C318 C 0.30212 0.96154 0.19042 0.0
C319 C 0.21532 0.70542 0.31778 0.0
C320 C 0.42833 0.75463 0.20284 0.0
C321 C 0.4199 0.73118 0.12718 0.0
C322 C 0.46742 0.77144 0.12019 0.0
C323 C 0.47525 0.79461 0.19587 0.0
C324 C 0.40016 0.72575 0.16866 0.0
C325 C 0.49434 0.80355 0.15451 0.0
C326 C 0.24077 0.69616 0.20111 0.0
C327 C 0.40509 0.74543 0.24532 0.0
H328 H 0.05767 0.77041 0.43944 0.0
H329 H 0.04485 0.73038 0.30537 0.0
H330 H 1.00653 0.7289 0.37914 0.0
H331 H 0.18634 0.81076 0.35385 0.0
H332 H 0.48481 0.77697 0.08854 0.0
H333 H 0.49663 0.81898 0.2222 0.0
H334 H 0.36264 0.69732 0.17428 0.0
H335 H 0.53066 0.83437 0.14902 0.0
Tb336 Tb 0.24192 0.80509 0.78145 0.0
C337 C 0.37923 0.71924 0.67766 0.0
N338 N 0.33133 0.6904 0.68968 0.0
C339 C 0.319 0.63949 0.62092 0.0
C340 C 0.39827 0.711 0.63573 0.0
C341 C 0.30121 0.65053 0.6623 0.0
C342 C 0.3677 0.67013 0.60742 0.0
C343 C 0.45536 0.79556 0.69338 0.0
C344 C 0.40789 0.76045 0.70647 0.0
C345 C 0.47352 0.7885 0.65139 0.0
C346 C 0.44595 0.74579 0.6228 0.0
Tb347 Tb 0.30594 0.71415 0.75668 0.0
N348 N 0.38724 0.76911 0.74588 0.0
C349 C 0.48227 0.8382 0.72227 0.0
C350 C 0.41519 0.80741 0.77553 0.0
C351 C 0.46279 0.84314 0.76399 0.0
H352 H 0.26367 0.62661 0.67265 0.0
H353 H 0.48421 0.87462 0.78716 0.0
H354 H 0.28435 0.89279 0.86526 0.0
H355 H 0.06458 0.64269 0.7519 0.0
H356 H 0.40183 0.81078 0.80815 0.0
H357 H 0.51817 0.86721 0.71278 0.0
H358 H 0.14642 0.70724 0.73046 0.0
H359 H 0.29499 0.60778 0.59936 0.0
H360 H 0.50812 0.81717 0.64077 0.0
H361 H 0.46096 0.74136 0.59038 0.0
H362 H 0.25338 0.91121 0.9388 0.0
H363 H 0.38106 0.6625 0.57495 0.0
H364 H 0.03108 0.64994 0.82642 0.0
N365 N 0.21672 0.82875 0.84849 0.0
C366 C 0.169 0.79945 0.86077 0.0
C367 C 0.22934 0.87945 0.9173 0.0
C368 C 0.15026 0.80734 0.90287 0.0
C369 C 0.2469 0.8687 0.87577 0.0
C370 C 0.18086 0.84837 0.93106 0.0
N371 N 0.16091 0.7495 0.79256 0.0
C372 C 0.13312 0.71073 0.76309 0.0
C373 C 0.09334 0.72228 0.84548 0.0
C374 C 0.14037 0.75799 0.83208 0.0
C375 C 0.06663 0.67933 0.81673 0.0
C376 C 0.08588 0.67452 0.77491 0.0
H377 H 0.16773 0.85574 0.96366 0.0
H378 H 0.08832 0.77604 0.94869 0.0
H379 H 0.04156 0.6997 0.89863 0.0
O380 O 0.21061 0.82696 0.74108 0.0
O381 O 0.2222 0.7497 0.82527 0.0
O382 O 0.22941 0.68269 0.7821 0.0
O383 O 0.2539 0.88068 0.79256 0.0
O384 O 0.2355 0.7584 0.71858 0.0
O385 O 0.23691 0.68603 0.72924 0.0
O386 O 0.33673 0.69135 0.79662 0.0
O387 O 0.32633 0.76959 0.71292 0.0
O388 O 0.31842 0.83661 0.75564 0.0
O389 O 0.29274 0.63804 0.74539 0.0
O390 O 0.31284 0.76168 0.81945 0.0
O391 O 0.31138 0.83391 0.8083 0.0
C392 C 0.21285 0.70143 0.81767 0.0
C393 C 0.22482 0.91594 0.75129 0.0
C394 C 0.17967 0.94887 0.72388 0.0
C395 C 0.21962 0.99836 0.73063 0.0
C396 C 0.2638 0.96554 0.75808 0.0
C397 C 0.26118 1.00646 0.74762 0.0
C398 C 0.18282 0.90763 0.73428 0.0
C399 C 0.22911 0.71126 0.70558 0.0
C400 C 0.22856 0.87327 0.76198 0.0
C401 C 0.103 0.77195 0.91611 0.0
C402 C 0.07557 0.72896 0.88766 0.0
C403 C 0.33529 0.81772 0.72028 0.0
C404 C 0.32237 0.60241 0.78593 0.0
C405 C 0.3678 0.56994 0.81346 0.0
C406 C 0.32855 0.52014 0.8057 0.0
C407 C 0.28415 0.55252 0.778 0.0
C408 C 0.36419 0.61104 0.80337 0.0
C409 C 0.28726 0.51166 0.78801 0.0
C410 C 0.3198 0.80915 0.83198 0.0
C411 C 0.3183 0.64507 0.77565 0.0
H412 H 0.21954 0.03092 0.72181 0.0
H413 H 0.29651 0.97263 0.77115 0.0
H414 H 0.29157 0.0446 0.75255 0.0
H415 H 0.15267 0.86926 0.72958 0.0
H416 H 0.32892 0.48759 0.81422 0.0
H417 H 0.25166 0.54514 0.76439 0.0
H418 H 0.39387 0.64963 0.80862 0.0
H419 H 0.25744 0.47327 0.78223 0.0
Tb420 Tb 0.24516 0.20143 0.79903 0.0
C421 C 0.41953 0.36756 0.70236 0.0
N422 N 0.39327 0.3751 0.73873 0.0
C423 C 0.46734 0.43816 0.76981 0.0
C424 C 0.47099 0.39442 0.69863 0.0
C425 C 0.41627 0.41157 0.77165 0.0
C426 C 0.49474 0.4287 0.73354 0.0
C427 C 0.42023 0.32441 0.63012 0.0
C428 C 0.39462 0.33239 0.66878 0.0
C429 C 0.4716 0.35138 0.62612 0.0
C430 C 0.49695 0.38592 0.66044 0.0
Tb431 Tb 0.31088 0.3233 0.73928 0.0
N432 N 0.34518 0.30471 0.67465 0.0
C433 C 0.39336 0.28925 0.59685 0.0
C434 C 0.3186 0.27226 0.64188 0.0
C435 C 0.34226 0.26353 0.60263 0.0
H436 H 0.39557 0.42027 0.79949 0.0
H437 H 0.32108 0.23713 0.57686 0.0
H438 H 0.16082 0.10412 0.73882 0.0
H439 H 0.23449 0.28534 0.96211 0.0
H440 H 0.27934 0.25343 0.64586 0.0
H441 H 0.41164 0.2821 0.56653 0.0
H442 H 0.27629 0.26979 0.89294 0.0
H443 H 0.48572 0.46569 0.79636 0.0
H444 H 0.49206 0.34556 0.59674 0.0
H445 H 0.53657 0.40615 0.65698 0.0
H446 H 0.07048 0.05764 0.74232 0.0
H447 H 0.53411 0.448 0.73298 0.0
H448 H 0.14395 0.23984 0.97248 0.0
N449 N 0.16281 0.14873 0.79981 0.0
C450 C 0.13641 0.15566 0.83628 0.0
C451 C 0.08888 0.08503 0.76883 0.0
C452 C 0.08497 0.128 0.84018 0.0
C453 C 0.13996 0.11231 0.76681 0.0
C454 C 0.06132 0.09351 0.80534 0.0
N455 N 0.21055 0.2188 0.86397 0.0
C456 C 0.23705 0.25093 0.89687 0.0
C457 C 0.13549 0.19814 0.90869 0.0
C458 C 0.16116 0.19077 0.86988 0.0
C459 C 0.16227 0.23316 0.94204 0.0
C460 C 0.21335 0.25917 0.93624 0.0
H461 H 1.02189 0.07318 0.80618 0.0
H462 H 1.01932 0.11503 0.88206 0.0
H463 H 0.06365 0.17591 0.9423 0.0
O464 O 0.29038 0.18976 0.83205 0.0
O465 O 0.21502 0.2573 0.81493 0.0
O466 O 0.27516 0.33766 0.80103 0.0
O467 O 0.22321 0.12581 0.80759 0.0
O468 O 0.32073 0.26091 0.80896 0.0
O469 O 0.32775 0.33865 0.80503 0.0
O470 O 0.26755 0.33516 0.70401 0.0
O471 O 0.34076 0.26683 0.7242 0.0
O472 O 0.27916 0.18672 0.73656 0.0
O473 O 0.3331 0.39904 0.73105 0.0
O474 O 0.23482 0.26541 0.73107 0.0
O475 O 0.22746 0.18726 0.73362 0.0
C476 C 0.2324 0.30752 0.81889 0.0
C477 C 0.27112 0.105 0.84469 0.0
C478 C 0.32635 0.08498 0.8729 0.0
C479 C 0.28896 0.0342 0.87252 0.0
C480 C 0.23453 0.0542 0.8449 0.0
C481 C 0.24346 0.01914 0.85882 0.0
C482 C 0.31697 0.12057 0.85935 0.0
C483 C 0.3354 0.30934 0.82426 0.0
C484 C 0.26148 0.14066 0.82779 0.0
C485 C 0.05892 0.13587 0.8785 0.0
C486 C 0.08416 0.17056 0.91281 0.0
C487 C 0.32242 0.21634 0.71921 0.0
C488 C 0.28753 0.42036 0.69167 0.0
C489 C 0.23376 0.44148 0.66233 0.0
C490 C 0.27168 0.49203 0.66295 0.0
C491 C 0.32462 0.471 0.69171 0.0
C492 C 0.24219 0.40542 0.67628 0.0
C493 C 0.31669 0.50647 0.67733 0.0
C494 C 0.21944 0.21713 0.71542 0.0
C495 C 0.29606 0.38435 0.70927 0.0
H496 H 0.29465 1.00611 0.88345 0.0
H497 H 0.19907 0.04132 0.83384 0.0
H498 H 0.21511 0.97996 0.85867 0.0
H499 H 0.34552 0.15971 0.85932 0.0
H500 H 0.26674 0.52047 0.65178 0.0
H501 H 0.35969 0.48342 0.70334 0.0
H502 H 0.21323 0.36647 0.67621 0.0
H503 H 0.34542 0.54551 0.67769 0.0
Tb504 Tb 0.73028 0.2822 0.76176 0.0
C505 C 0.84401 0.18801 0.83168 0.0
N506 N 0.86415 0.23216 0.81522 0.0
C507 C 0.92445 0.2724 0.86599 0.0
C508 C 0.86192 0.1848 0.86725 0.0
C509 C 0.90573 0.27328 0.83022 0.0
C510 C 0.9019 0.22823 0.88507 0.0
C511 C 0.78872 0.09701 0.82408 0.0
C512 C 0.80813 0.14484 0.81046 0.0
C513 C 0.80414 0.09402 0.86107 0.0
C514 C 0.84072 0.13788 0.88263 0.0
Tb515 Tb 0.82715 0.23029 0.75955 0.0
N516 N 0.79494 0.14923 0.77458 0.0
C517 C 0.75598 0.05348 0.79915 0.0
C518 C 0.76547 0.10661 0.74866 0.0
C519 C 0.74503 0.05821 0.76085 0.0
H520 H 0.92337 0.30746 0.81542 0.0
H521 H 0.72063 0.02469 0.74088 0.0
H522 H 0.68995 0.23797 0.66746 0.0
H523 H 0.79897 0.47624 0.84852 0.0
H524 H 0.75668 0.11027 0.71924 0.0
H525 H 0.74016 0.01598 0.80852 0.0
H526 H 0.75602 0.38275 0.84216 0.0
H527 H 0.95629 0.30568 0.87873 0.0
H528 H 0.78927 0.05772 0.87241 0.0
H529 H 0.85355 0.1347 0.91024 0.0
H530 H 0.70145 0.27163 0.60085 0.0
H531 H 0.91673 0.22745 0.91251 0.0
H532 H 0.82645 0.51809 0.78449 0.0
N533 N 0.73594 0.31036 0.70053 0.0
C534 C 0.75972 0.36174 0.70109 0.0
C535 C 0.71869 0.29734 0.62863 0.0
C536 C 0.76704 0.38298 0.66431 0.0
C537 C 0.71268 0.27825 0.66602 0.0
C538 C 0.74696 0.34988 0.62748 0.0
N539 N 0.76312 0.37021 0.77446 0.0
C540 C 0.76919 0.39977 0.81357 0.0
C541 C 0.79805 0.44643 0.74158 0.0
C542 C 0.77475 0.39274 0.73924 0.0
C543 C 0.80846 0.47669 0.78129 0.0
C544 C 0.79302 0.4532 0.81749 0.0
H545 H 0.75164 0.36463 0.59852 0.0
H546 H 0.7995 0.45354 0.63786 0.0
H547 H 0.82679 0.50922 0.70558 0.0
O548 O 0.67373 0.30318 0.77456 0.0
O549 O 0.78695 0.29096 0.71047 0.0
O550 O 0.84802 0.30765 0.74835 0.0
O551 O 0.65753 0.22426 0.75799 0.0
O552 O 0.77357 0.31446 0.81885 0.0
O553 O 0.83506 0.28949 0.81341 0.0
O554 O 0.86121 0.18937 0.7199 0.0
O555 O 0.74974 0.18763 0.78467 0.0
O556 O 0.72505 0.24811 0.81645 0.0
O557 O 0.89812 0.27107 0.73101 0.0
O558 O 0.7863 0.20462 0.70308 0.0
O559 O 0.71289 0.20483 0.72879 0.0
C560 C 0.83339 0.31466 0.71618 0.0
C561 C 0.61241 0.24508 0.81534 0.0
C562 C 0.61515 0.26685 0.89128 0.0
C563 C 0.56495 0.23221 0.89632 0.0
C564 C 0.56259 0.21059 0.81983 0.0
C565 C 0.53912 0.20336 0.86055 0.0
C566 C 0.63857 0.26958 0.85089 0.0
C567 C 0.81281 0.31686 0.83209 0.0
C568 C 0.64009 0.25586 0.77469 0.0
C569 C 0.79276 0.43635 0.66592 0.0
C570 C 0.80835 0.46805 0.70449 0.0
C571 C 0.72443 0.20406 0.81511 0.0
C572 C 0.8967 0.23212 0.66029 0.0
C573 C 0.85943 0.19249 0.59251 0.0
C574 C 0.88822 0.24015 0.57796 0.0
C575 C 0.92755 0.27746 0.6436 0.0
C576 C 0.86283 0.19026 0.63476 0.0
C577 C 0.92276 0.28157 0.60289 0.0
C578 C 0.73958 0.18864 0.70032 0.0
C579 C 0.89531 0.2304 0.70564 0.0
H580 H 0.5452 0.2292 0.92733 0.0
H581 H 0.54219 0.18973 0.79229 0.0
H582 H 0.5005 0.17706 0.86434 0.0
H583 H 0.67756 0.29435 0.84702 0.0
H584 H 0.88623 0.24515 0.5465 0.0
H585 H 0.95398 0.31036 0.66263 0.0
H586 H 0.84012 0.15535 0.64798 0.0
H587 H 0.946 0.31711 0.59052 0.0
Tb588 Tb 0.72365 0.72536 0.73074 0.0
C589 C 0.86894 0.90398 0.85696 0.0
N590 N 0.87955 0.87895 0.81977 0.0
C591 C 0.94887 0.95733 0.80367 0.0
C592 C 0.89752 0.95703 0.86863 0.0
C593 C 0.91971 0.90456 0.79363 0.0
C594 C 0.93746 0.98371 0.84123 0.0
C595 C 0.81847 0.90023 0.9233 0.0
C596 C 0.82984 0.87604 0.88391 0.0
C597 C 0.84647 0.95324 0.93482 0.0
C598 C 0.88583 0.9816 0.9075 0.0
Tb599 Tb 0.82923 0.79286 0.80781 0.0
N600 N 0.80259 0.82507 0.87117 0.0
C601 C 0.77946 0.87032 0.94997 0.0
C602 C 0.76615 0.79539 0.8979 0.0
C603 C 0.75352 0.81756 0.93736 0.0
H604 H 0.9305 0.88415 0.76589 0.0
H605 H 0.7241 0.79387 0.95819 0.0
H606 H 0.62273 0.63331 0.77192 0.0
H607 H 0.82969 0.72614 0.58058 0.0
H608 H 0.7471 0.75471 0.88924 0.0
H609 H 0.7696 0.88742 0.98055 0.0
H610 H 0.80541 0.76467 0.64921 0.0
H611 H 0.98056 0.97737 0.78279 0.0
H612 H 0.83817 0.97261 0.96489 0.0
H613 H 0.90735 0.02243 0.91693 0.0
H614 H 0.57443 0.53993 0.75539 0.0
H615 H 0.96008 0.02441 0.84946 0.0
H616 H 0.78586 0.63242 0.55834 0.0
N617 N 0.67433 0.63919 0.7185 0.0
C618 C 0.68561 0.61446 0.68145 0.0
C619 C 0.60598 0.56023 0.73453 0.0
C620 C 0.65797 0.56127 0.66987 0.0
C621 C 0.63419 0.61316 0.74443 0.0
C622 C 0.61826 0.53413 0.69723 0.0
N623 N 0.75104 0.69392 0.66736 0.0
C624 C 0.78718 0.72397 0.64067 0.0
C625 C 0.73662 0.61894 0.61536 0.0
C626 C 0.72455 0.64283 0.6546 0.0
C627 C 0.77545 0.64927 0.58881 0.0
C628 C 0.80047 0.70213 0.60135 0.0
H629 H 0.59651 0.49328 0.68912 0.0
H630 H 0.64958 0.49604 0.62183 0.0
H631 H 0.71842 0.54663 0.574 0.0
O632 O 0.71613 0.76716 0.69101 0.0
O633 O 0.77375 0.6909 0.72518 0.0
O634 O 0.84834 0.75594 0.74641 0.0
O635 O 0.65361 0.70149 0.71261 0.0
O636 O 0.78055 0.80525 0.72848 0.0
O637 O 0.85282 0.81356 0.74414 0.0
O638 O 0.83649 0.75071 0.84724 0.0
O639 O 0.77938 0.82751 0.81361 0.0
O640 O 0.70473 0.7627 0.79202 0.0
O641 O 0.89928 0.81633 0.82559 0.0
O642 O 0.77207 0.71307 0.8108 0.0
O643 O 0.69978 0.70432 0.79452 0.0
C644 C 0.8218 0.71094 0.72453 0.0
C645 C 0.64159 0.76963 0.70337 0.0
C646 C 0.61262 0.82253 0.68228 0.0
C647 C 0.59587 0.83226 0.72479 0.0
C648 C 0.62351 0.77869 0.74524 0.0
C649 C 0.60098 0.81013 0.7559 0.0
C650 C 0.63589 0.79126 0.67193 0.0
C651 C 0.82838 0.824 0.72195 0.0
C652 C 0.66874 0.74001 0.69254 0.0
C653 C 0.67039 0.53699 0.63118 0.0
C654 C 0.70954 0.56578 0.60392 0.0
C655 C 0.73141 0.80773 0.81385 0.0
C656 C 0.91034 0.74714 0.83335 0.0
C657 C 0.93697 0.69173 0.85312 0.0
C658 C 0.95406 0.68271 0.8106 0.0
C659 C 0.92881 0.73901 0.79143 0.0
C660 C 0.9145 0.72365 0.86403 0.0
C661 C 0.95026 0.70656 0.78008 0.0
C662 C 0.72417 0.69413 0.8171 0.0
C663 C 0.88395 0.77739 0.84517 0.0
H664 H 0.57828 0.85648 0.73415 0.0
H665 H 0.62706 0.76165 0.76962 0.0
H666 H 0.58748 0.81741 0.78837 0.0
H667 H 0.65036 0.78443 0.63966 0.0
H668 H 0.97099 0.65789 0.80081 0.0
H669 H 0.92635 0.75745 0.76754 0.0
H670 H 0.89951 0.72971 0.89625 0.0
H671 H 0.96402 0.69991 0.74759 0.0
C672 C 0.93473 0.09899 0.55079 0.0
C673 C 0.97253 0.0718 0.43356 0.0
C674 C 0.95846 0.90409 0.46491 0.0
Mg675 Mg 1.02136 0.11921 0.52049 0.0
O676 O 0.98099 0.04762 0.53427 0.0
Mg677 Mg 0.91755 0.98601 0.50391 0.0
Mg678 Mg 1.02471 0.01394 0.52181 0.0
O679 O 0.06761 0.98009 0.50816 0.0
Mg680 Mg 0.03773 0.91303 0.51991 0.0
Mg681 Mg 0.12416 0.03343 0.54087 0.0
C682 C 0.09956 0.12518 0.57348 0.0
C683 C 0.12138 0.07956 0.45888 0.0
O684 O 0.94655 0.06273 0.54614 0.0
O685 O 0.96983 0.14434 0.55349 0.0
O686 O 0.94213 0.03154 0.44957 0.0
O687 O 1.0083 0.10915 0.45343 0.0
O688 O 0.0859 0.15053 0.55661 0.0
O689 O 0.07946 0.07635 0.56576 0.0
C690 C 0.92828 0.9445 0.58457 0.0
O691 O 0.97524 0.966 0.57657 0.0
O692 O 0.90047 0.9465 0.56117 0.0
O693 O 0.16384 0.98456 0.5165 0.0
O694 O 0.10182 0.90434 0.50406 0.0
O695 O 0.09677 0.99061 0.59752 0.0
C696 C 0.14728 0.93592 0.50744 0.0
O697 O 0.03269 0.91298 0.5867 0.0
O698 O 0.97815 0.88092 0.47749 0.0
C699 C 0.06469 0.94891 0.6104 0.0
O700 O 0.97107 0.95176 0.47834 0.0
O701 O 0.07466 0.06166 0.46746 0.0
O702 O 0.14736 0.07336 0.48156 0.0
C703 C 0.42331 0.11148 0.10327 0.0
C704 C 0.46457 0.09799 0.96887 0.0
C705 C 0.43812 0.91046 0.97049 0.0
Mg706 Mg 0.52046 0.12369 0.04708 0.0
O707 O 0.49344 0.05331 0.04923 0.0
Mg708 Mg 0.42483 1.00862 0.03254 0.0
Mg709 Mg 0.52723 0.01207 0.01628 0.0
O710 O 0.5607 0.9708 0.98338 0.0
Mg711 Mg 0.53281 0.9005 0.98547 0.0
Mg712 Mg 0.62886 0.01439 1.00118 0.0
C713 C 0.61471 0.11257 0.06454 0.0
C714 C 0.60894 0.07568 0.94229 0.0
O715 O 0.40077 0.06494 0.08417 0.0
O716 O 0.46939 0.13947 0.09501 0.0
O717 O 0.4357 0.05575 0.98236 0.0
O718 O 0.5031 0.13133 0.98715 0.0
O719 O 0.59288 0.13953 0.06405 0.0
O720 O 0.59616 0.06445 0.04962 0.0
C721 C 0.44678 0.94786 0.09033 0.0
O722 O 0.48935 0.95981 0.07021 0.0
O723 O 0.41775 0.96273 0.08197 0.0
O724 O 0.65238 0.95735 0.94977 0.0
O725 O 0.58311 0.8837 0.93791 0.0
O726 O 0.61711 0.96605 0.05069 0.0
C727 C 0.62943 0.91098 0.93039 0.0
O728 O 0.54916 0.89124 0.04437 0.0
O729 O 0.45992 0.88344 0.97044 0.0
C730 C 0.58771 0.92323 0.06307 0.0
O731 O 0.45766 0.95898 0.98388 0.0
O732 O 0.56603 0.06427 0.96175 0.0
O733 O 0.63727 0.06065 0.95179 0.0
C734 C 0.92951 0.61684 0.10647 0.0
C735 C 0.97786 0.61048 0.97733 0.0
C736 C 0.93302 0.41324 0.96691 0.0
Mg737 Mg 0.02724 0.6236 0.05679 0.0
O738 O 0.99412 0.55202 0.05277 0.0
Mg739 Mg 0.92634 0.51377 0.03317 0.0
Mg740 Mg 1.02413 0.50839 0.01803 0.0
O741 O 0.05483 0.46497 0.98361 0.0
Mg742 Mg 1.02362 0.39371 0.97975 0.0
Mg743 Mg 0.12284 0.50385 1.00289 0.0
C744 C 0.1157 0.60161 0.06983 0.0
C745 C 0.1084 0.57181 0.94644 0.0
O746 O 0.9062 0.57198 0.08488 0.0
O747 O 0.97643 0.6421 0.10264 0.0
O748 O 0.94484 0.56679 0.98582 0.0
O749 O 1.01537 0.63836 0.99856 0.0
O750 O 0.09755 0.63287 0.07373 0.0
O751 O 0.0933 0.55468 0.05243 0.0
C752 C 0.93988 0.44618 0.09003 0.0
O753 O 0.98228 0.45561 0.07047 0.0
O754 O 0.91305 0.46352 0.08119 0.0
O755 O 0.14426 0.44773 0.95087 0.0
O756 O 0.07459 0.37709 0.93281 0.0
O757 O 0.10677 0.45048 0.04997 0.0
C758 C 0.12143 0.40318 0.92884 0.0
O759 O 0.037 0.37834 0.0371 0.0
O760 O 0.95274 0.38355 0.96425 0.0
C761 C 0.07483 0.40609 0.05797 0.0
O762 O 0.9544 0.4609 0.98347 0.0
O763 O 0.06591 0.56197 0.96594 0.0
O764 O 0.1351 0.55423 0.95515 0.0
C765 C 0.45494 0.61638 0.03789 0.0
C766 C 0.48395 0.57449 0.92856 0.0
C767 C 0.45178 0.40511 0.96916 0.0
Mg768 Mg 0.53675 0.62142 1.01345 0.0
O769 O 0.48782 0.554 0.03291 0.0
Mg770 Mg 0.42174 0.49538 1.00335 0.0
Mg771 Mg 0.52607 0.51405 0.02066 0.0
O772 O 0.56337 0.47427 1.0073 0.0
Mg773 Mg 0.52829 0.40991 0.02528 0.0
Mg774 Mg 0.62418 0.52559 0.03572 0.0
C775 C 0.60942 0.62309 0.06883 0.0
C776 C 0.62189 0.57112 0.95351 0.0
O777 O 0.4591 0.57601 0.03861 0.0
O778 O 0.49397 0.6589 0.04028 0.0
O779 O 0.44936 0.5367 0.9454 0.0
O780 O 0.52187 0.609 0.94745 0.0
O781 O 0.59985 0.65018 0.05014 0.0
O782 O 0.58559 0.57437 0.06248 0.0
C783 C 0.42831 0.45216 0.08594 0.0
O784 O 0.47493 0.46956 0.07675 0.0
O785 O 0.40201 0.45804 0.06346 0.0
O786 O 0.65467 0.46834 1.01019 0.0
O787 O 0.58646 0.39182 1.0069 0.0
O788 O 0.59881 0.48859 0.0942 0.0
C789 C 0.63305 0.41917 1.00495 0.0
O790 O 0.5293 0.4158 0.09264 0.0
O791 O 0.46736 0.38005 0.98458 0.0
C792 C 0.56581 0.45144 0.11207 0.0
O793 O 0.46907 0.45393 0.97925 0.0
O794 O 0.57605 0.55706 0.96418 0.0
O795 O 0.64726 0.5627 0.97502 0.0
C796 C 0.92431 0.61037 0.60481 0.0
C797 C 0.96343 0.59409 0.47122 0.0
C798 C 0.93923 0.40874 0.4733 0.0
Mg799 Mg 1.02087 0.62152 0.5474 0.0
O800 O 0.99396 0.55193 0.55241 0.0
Mg801 Mg 0.92533 0.50671 0.53579 0.0
Mg802 Mg 0.02769 0.51109 0.51901 0.0
O803 O 0.06136 0.46995 0.48595 0.0
Mg804 Mg 0.03477 0.40008 0.49021 0.0
Mg805 Mg 0.13013 0.51554 0.50187 0.0
C806 C 0.11632 0.61344 0.56347 0.0
C807 C 0.10599 0.57435 0.44365 0.0
O808 O 0.90174 0.56302 0.58744 0.0
O809 O 0.96994 0.63865 0.59483 0.0
O810 O 0.93415 0.55355 0.48685 0.0
O811 O 1.00441 0.62594 0.48627 0.0
O812 O 0.0942 0.64003 0.563 0.0
O813 O 0.09727 0.56496 0.55031 0.0
C814 C 0.9483 0.44629 0.59268 0.0
O815 O 0.99156 0.45958 0.57368 0.0
O816 O 0.91908 0.46043 0.58362 0.0
O817 O 0.15358 0.45877 0.45082 0.0
O818 O 0.08496 0.38375 0.44196 0.0
O819 O 0.12158 0.47011 0.55271 0.0
C820 C 0.13079 0.4118 0.43272 0.0
O821 O 0.05454 0.39432 0.54985 0.0
O822 O 0.9612 0.38206 0.47425 0.0
C823 C 0.09362 0.42825 0.56706 0.0
O824 O 0.95815 0.45721 0.48691 0.0
O825 O 0.06375 0.56256 0.46438 0.0
O826 O 0.13548 0.55996 0.45184 0.0
C827 C 0.42949 0.11637 0.60742 0.0
C828 C 0.47643 0.11103 0.47776 0.0
C829 C 0.43131 0.91448 0.46558 0.0
Mg830 Mg 0.52677 0.12295 0.55661 0.0
O831 O 0.49362 0.0514 0.55234 0.0
Mg832 Mg 0.42564 0.01389 0.53331 0.0
Mg833 Mg 0.5227 1.0065 0.51781 0.0
O834 O 0.55195 0.96169 0.48333 0.0
Mg835 Mg 0.51906 0.89002 0.47856 0.0
Mg836 Mg 0.61963 0.99953 0.50321 0.0
C837 C 0.61445 0.09896 0.5689 0.0
C838 C 0.60777 0.06784 0.44603 0.0
O839 O 0.40588 0.07193 0.5854 0.0
O840 O 0.47645 0.14128 0.60348 0.0
O841 O 0.4436 0.06706 0.48587 0.0
O842 O 0.51404 0.13855 0.49895 0.0
O843 O 0.59696 0.13079 0.5726 0.0
O844 O 0.59141 0.05187 0.55206 0.0
C845 C 0.43827 0.94514 0.58998 0.0
O846 O 0.48026 0.9536 0.57005 0.0
O847 O 0.41228 0.96365 0.58143 0.0
O848 O 0.64054 0.94264 0.45198 0.0
O849 O 0.57095 0.87278 0.43248 0.0
O850 O 0.60093 0.94614 0.55035 0.0
C851 C 0.61792 0.89837 0.42954 0.0
O852 O 0.53113 0.87411 0.53662 0.0
O853 O 0.44929 0.88292 0.4614 0.0
C854 C 0.56839 0.90197 0.55822 0.0
O855 O 0.45363 0.96114 0.48374 0.0
O856 O 0.56551 0.05932 0.46546 0.0
O857 O 0.63371 0.04966 0.45517 0.0
C858 C 0.14735 0.15292 0.36698 0.0
C859 C 0.19697 0.16626 0.35411 0.0
H860 H 0.08446 0.11434 0.40864 0.0
C861 C 0.22096 0.15007 0.37574 0.0
H862 H 0.1277 0.1656 0.35203 0.0
C863 C 0.19637 0.12197 0.4093 0.0
C864 C 0.14672 0.1085 0.42217 0.0
H865 H 0.2591 0.15958 0.36709 0.0
H866 H 0.21654 0.11083 0.42523 0.0
C867 C 0.12249 0.12392 0.40005 0.0
C868 C 0.90464 0.0339 0.33711 0.0
C869 C 0.92043 0.08067 0.32344 0.0
H870 H 0.91112 0.99403 0.37996 0.0
C871 C 0.95708 0.12535 0.34453 0.0
H872 H 0.87512 0.99932 0.32273 0.0
C873 C 0.97699 0.12285 0.37909 0.0
C874 C 0.96049 0.07561 0.39275 0.0
H875 H 0.9698 0.1621 0.3347 0.0
H876 H 1.00362 0.15787 0.39601 0.0
C877 C 0.92505 0.03116 0.37047 0.0
C878 C 0.88994 0.80608 0.37319 0.0
C879 C 0.86798 0.83094 0.35959 0.0
H880 H 0.93527 0.80925 0.41737 0.0
C881 C 0.87267 0.87773 0.38303 0.0
H882 H 0.88687 0.76983 0.35595 0.0
C883 C 0.89994 0.90001 0.41831 0.0
C884 C 0.92359 0.87645 0.43125 0.0
H885 H 0.85521 0.89736 0.37414 0.0
H886 H 0.90302 0.93623 0.43489 0.0
C887 C 0.91749 0.82861 0.40861 0.0
C888 C 0.19208 0.88014 0.42342 0.0
C889 C 0.15838 0.83068 0.43303 0.0
H890 H 0.22245 0.95988 0.44646 0.0
C891 C 0.14847 0.8227 0.47528 0.0
H892 H 0.20206 0.8881 0.3912 0.0
C893 C 0.16257 0.86513 0.50707 0.0
C894 C 0.18081 0.91382 0.49545 0.0
H895 H 0.12479 0.78482 0.48358 0.0
H896 H 0.14703 0.85887 0.53914 0.0
C897 C 0.20502 0.92199 0.45542 0.0
C898 C 0.11421 0.89731 0.67276 0.0
C899 C 0.13689 0.94063 0.70327 0.0
H900 H 0.07021 0.86486 0.61998 0.0
C901 C 0.12281 0.97953 0.70971 0.0
H902 H 0.12397 0.8665 0.66674 0.0
C903 C 0.09311 0.97907 0.68208 0.0
C904 C 0.07493 0.93862 0.64879 0.0
H905 H 0.138 0.01243 0.73394 0.0
H906 H 0.08852 0.01272 0.68381 0.0
C907 C 0.08292 0.89608 0.64605 0.0
C908 C 0.18201 0.14636 0.65615 0.0
C909 C 0.19058 0.19501 0.6779 0.0
H910 H 0.14819 0.08712 0.6059 0.0
C911 C 0.17286 0.22273 0.66249 0.0
H912 H 0.19618 0.12445 0.66638 0.0
C913 C 0.14567 0.20136 0.62694 0.0
C914 C 0.13541 0.15172 0.6062 0.0
H915 H 0.17913 0.26054 0.67832 0.0
H916 H 0.13109 0.22294 0.61679 0.0
C917 C 0.15476 0.12505 0.62092 0.0
C918 C 0.85973 0.14412 0.52095 0.0
C919 C 0.83584 0.14363 0.56197 0.0
H920 H 0.91755 0.13026 0.48527 0.0
C921 C 0.81785 0.09721 0.57792 0.0
H922 H 0.86661 0.17286 0.50224 0.0
C923 C 0.84725 0.07251 0.56922 0.0
C924 C 0.88775 0.08997 0.53951 0.0
H925 H 0.79093 0.08879 0.6049 0.0
H926 H 0.84344 0.0471 0.59018 0.0
C927 C 0.88873 0.11919 0.51071 0.0
C928 C 0.82986 0.87146 0.66638 0.0
C929 C 0.85527 0.85818 0.68909 0.0
H930 H 0.83238 0.90791 0.61585 0.0
C931 C 0.90578 0.87548 0.67824 0.0
H932 H 0.79104 0.85916 0.6737 0.0
C933 C 0.93004 0.90522 0.64568 0.0
C934 C 0.90421 0.91644 0.62166 0.0
H935 H 0.92664 0.86533 0.69422 0.0
H936 H 0.9688 0.9187 0.63913 0.0
C937 C 0.85378 0.89959 0.63296 0.0
C938 C 0.32111 0.13198 0.17659 0.0
C939 C 0.34598 0.18428 0.19373 0.0
H940 H 0.32513 0.06787 0.13471 0.0
C941 C 0.39614 0.21139 0.18122 0.0
H942 H 0.28264 0.1095 0.18573 0.0
C943 C 0.42067 0.1874 0.15275 0.0
C944 C 0.39597 0.13533 0.13502 0.0
H945 H 0.41668 0.25177 0.19293 0.0
H946 H 0.45926 0.2103 0.14422 0.0
C947 C 0.34564 0.10792 0.14745 0.0
C948 C 0.88905 0.40767 0.19802 0.0
C949 C 0.86287 0.35423 0.18783 0.0
H950 H 0.93505 0.47894 0.17445 0.0
C951 C 0.86546 0.33154 0.14538 0.0
H952 H 0.88748 0.42634 0.23031 0.0
C953 C 0.89419 0.36131 0.11393 0.0
C954 C 0.91985 0.41458 0.12408 0.0
H955 H 0.84419 0.2907 0.13617 0.0
H956 H 0.89436 0.34293 0.08135 0.0
C957 C 0.9169 0.43763 0.16628 0.0
C958 C 0.67328 0.93601 0.13636 0.0
C959 C 0.6774 0.89109 0.12074 0.0
H960 H 0.63923 0.98099 0.13086 0.0
C961 C 0.64308 0.85184 0.09396 0.0
H962 H 0.69966 0.96673 0.15694 0.0
C963 C 0.60768 0.8594 0.07982 0.0
C964 C 0.60713 0.90676 0.09162 0.0
H965 H 0.64585 0.81688 0.08171 0.0
H966 H 0.58452 0.83046 0.05613 0.0
C967 C 0.63847 0.94391 0.12176 0.0
C968 C 0.23345 0.67967 0.12345 0.0
C969 C 0.21788 0.66205 0.16278 0.0
H970 H 0.21181 0.67511 0.06261 0.0
C971 C 0.17297 0.61821 0.16738 0.0
H972 H 0.26764 0.71404 0.11958 0.0
C973 C 0.14219 0.59486 0.13441 0.0
C974 C 0.15501 0.61617 0.09695 0.0
H975 H 0.16009 0.60436 0.19759 0.0
H976 H 0.10625 0.56318 0.13983 0.0
C977 C 0.20152 0.65768 0.09102 0.0
C978 C 0.36791 0.89022 0.88009 0.0
C979 C 0.34247 0.83646 0.87224 0.0
H980 H 0.41674 0.95644 0.91926 0.0
C981 C 0.34137 0.80849 0.90217 0.0
H982 H 0.36974 0.91284 0.85746 0.0
C983 C 0.3684 0.83344 0.93742 0.0
C984 C 0.3969 0.88688 0.94357 0.0
H985 H 0.32147 0.76706 0.89734 0.0
H986 H 0.36976 0.81062 0.95829 0.0
C987 C 0.39449 0.91527 0.91575 0.0
C988 C 0.22669 0.38507 0.86186 0.0
C989 C 0.20406 0.33206 0.84693 0.0
H990 H 0.21883 0.44909 0.89924 0.0
C991 C 0.15401 0.30313 0.85858 0.0
H992 H 0.26522 0.40868 0.8536 0.0
C993 C 0.12733 0.32641 0.88451 0.0
C994 C 0.14993 0.37935 0.89975 0.0
H995 H 0.13515 0.26247 0.84726 0.0
H996 H 0.08891 0.30259 0.89297 0.0
C997 C 0.20008 0.40834 0.88812 0.0
C998 C 0.6743 0.11722 0.83796 0.0
C999 C 0.69 0.17015 0.84621 0.0
H1000 H 0.6354 0.04571 0.86185 0.0
C1001 C 0.67273 0.19047 0.88482 0.0
H1002 H 0.68568 0.09998 0.80836 0.0
C1003 C 0.64181 0.15884 0.91488 0.0
C1004 C 0.62828 0.10636 0.90721 0.0
H1005 H 0.68494 0.23123 0.89268 0.0
H1006 H 0.63129 0.17598 0.94515 0.0
C1007 C 0.64443 0.08589 0.86824 0.0
C1008 C 0.93986 0.61983 0.87727 0.0
C1009 C 0.94395 0.66935 0.88619 0.0
H1010 H 0.94847 0.56274 0.89922 0.0
C1011 C 0.95732 0.69844 0.92633 0.0
H1012 H 0.92808 0.59585 0.84727 0.0
C1013 C 0.96925 0.67952 0.95583 0.0
C1014 C 0.9679 0.6313 0.94562 0.0
H1015 H 0.96106 0.73682 0.93423 0.0
H1016 H 0.98027 0.7028 0.98626 0.0
C1017 C 0.95158 0.6009 0.90683 0.0
C1018 C 0.08196 0.31207 0.11323 0.0
C1019 C 0.10428 0.34365 0.1499 0.0
H1020 H 0.05477 0.30727 0.05541 0.0
C1021 C 0.1192 0.39638 0.15506 0.0
H1022 H 0.07031 0.27134 0.10849 0.0
C1023 C 0.11042 0.41692 0.12472 0.0
C1024 C 0.08537 0.38477 0.08935 0.0
H1025 H 0.13724 0.42158 0.18275 0.0
H1026 H 0.12167 0.45759 0.12966 0.0
C1027 C 0.07262 0.3325 0.08317 0.0
C1028 C 0.16413 0.68594 0.88854 0.0
C1029 C 0.18217 0.6672 0.8496 0.0
H1030 H 0.12426 0.66978 0.94912 0.0
C1031 C 0.17216 0.61558 0.84211 0.0
H1032 H 0.17266 0.72577 0.89617 0.0
C1033 C 0.14603 0.58413 0.8731 0.0
C1034 C 0.12812 0.60302 0.91187 0.0
H1035 H 0.18578 0.59973 0.81283 0.0
H1036 H 0.14072 0.54513 0.86715 0.0
C1037 C 0.1365 0.65394 0.91904 0.0
C1038 C 0.39527 0.06655 0.87639 0.0
C1039 C 0.37398 0.09961 0.88876 0.0
H1040 H 0.44311 0.04163 0.89189 0.0
C1041 C 0.39404 0.14136 0.92111 0.0
H1042 H 0.38115 0.03455 0.85112 0.0
C1043 C 0.43046 0.14593 0.94408 0.0
C1044 C 0.44714 0.10887 0.93484 0.0
H1045 H 0.3784 0.16748 0.9313 0.0
H1046 H 0.44139 0.17487 0.97188 0.0
C1047 C 0.43128 0.07099 0.89932 0.0
C1048 C 0.85682 0.3981 0.8817 0.0
C1049 C 0.82906 0.34456 0.87444 0.0
H1050 H 0.91117 0.46286 0.91843 0.0
C1051 C 0.82801 0.31609 0.90392 0.0
H1052 H 0.85908 0.42075 0.85891 0.0
C1053 C 0.8579 0.33982 0.93751 0.0
C1054 C 0.88956 0.39272 0.94255 0.0
H1055 H 0.80747 0.27467 0.89868 0.0
H1056 H 0.85945 0.31603 0.95731 0.0
C1057 C 0.88666 0.42214 0.91581 0.0
C1058 C 0.73147 0.88763 0.86002 0.0
C1059 C 0.70593 0.83544 0.84274 0.0
H1060 H 0.72818 0.95253 0.90107 0.0
C1061 C 0.65546 0.80929 0.85427 0.0
H1062 H 0.77034 0.90929 0.8518 0.0
C1063 C 0.63118 0.83424 0.88175 0.0
C1064 C 0.6565 0.88626 0.89948 0.0
H1065 H 0.63451 0.76897 0.84263 0.0
H1066 H 0.59228 0.81209 0.88959 0.0
C1067 C 0.70719 0.91262 0.88816 0.0
C1068 C 0.82592 0.6382 0.17389 0.0
C1069 C 0.84922 0.69142 0.18815 0.0
H1070 H 0.83248 0.57295 0.13757 0.0
C1071 C 0.89882 0.71975 0.17478 0.0
H1072 H 0.78754 0.61506 0.18305 0.0
C1073 C 0.92472 0.69539 0.14884 0.0
C1074 C 0.90164 0.64203 0.135 0.0
H1075 H 0.91798 0.76066 0.18504 0.0
H1076 H 0.96296 0.71864 0.13938 0.0
C1077 C 0.85168 0.61389 0.14765 0.0
C1078 C 0.38579 0.9029 0.19437 0.0
C1079 C 0.36964 0.84988 0.18424 0.0
H1080 H 0.4233 0.97552 0.1723 0.0
C1081 C 0.38547 0.83063 0.14447 0.0
H1082 H 0.37518 0.91924 0.22497 0.0
C1083 C 0.41518 0.86343 0.11489 0.0
C1084 C 0.42868 0.91592 0.12434 0.0
H1085 H 0.37262 0.78992 0.13531 0.0
H1086 H 0.42458 0.84725 0.08366 0.0
C1087 C 0.41422 0.93535 0.16454 0.0
C1088 C 0.68227 0.12709 0.15603 0.0
C1089 C 0.70456 0.18051 0.16788 0.0
H1090 H 0.63715 0.06313 0.11254 0.0
C1091 C 0.70485 0.21088 0.1404 0.0
H1092 H 0.68194 0.10274 0.17633 0.0
C1093 C 0.67993 0.18845 0.10385 0.0
C1094 C 0.65396 0.13502 0.09376 0.0
H1095 H 0.72285 0.25226 0.14792 0.0
H1096 H 0.6783 0.21303 0.08492 0.0
C1097 C 0.65722 0.10448 0.11916 0.0
C1098 C 0.72234 0.64683 0.87343 0.0
C1099 C 0.69708 0.65958 0.84994 0.0
H1100 H 0.71912 0.61014 0.9243 0.0
C1101 C 0.64627 0.6409 0.85973 0.0
H1102 H 0.7614 0.66021 0.86703 0.0
C1103 C 0.62159 0.61032 0.89175 0.0
C1104 C 0.64712 0.59956 0.91656 0.0
H1105 H 0.62537 0.65044 0.84323 0.0
H1106 H 0.5825 0.59536 0.89703 0.0
C1107 C 0.69789 0.61781 0.90643 0.0
C1108 C 0.42477 0.54021 0.82921 0.0
C1109 C 0.41029 0.57874 0.83484 0.0
H1110 H 0.45984 0.5084 0.85589 0.0
C1111 C 0.43262 0.62258 0.86501 0.0
H1112 H 0.41004 0.50705 0.80514 0.0
C1113 C 0.4642 0.62489 0.89195 0.0
C1114 C 0.47274 0.58291 0.8899 0.0
H1115 H 0.42256 0.65315 0.87055 0.0
H1116 H 0.47699 0.65669 0.91757 0.0
C1117 C 0.45461 0.54162 0.85723 0.0
C1118 C 0.37107 0.38129 0.88362 0.0
C1119 C 0.36362 0.33267 0.86235 0.0
H1120 H 0.4029 0.44123 0.9344 0.0
C1121 C 0.38179 0.30616 0.8788 0.0
H1122 H 0.35655 0.40237 0.87258 0.0
C1123 C 0.40822 0.32854 0.91484 0.0
C1124 C 0.41721 0.37804 0.93526 0.0
H1125 H 0.37634 0.26841 0.86349 0.0
H1126 H 0.42298 0.30763 0.92578 0.0
C1127 C 0.39745 0.40357 0.91951 0.0
C1128 C 0.67263 0.35782 0.91631 0.0
C1129 C 0.64156 0.30758 0.92555 0.0
H1130 H 0.70064 0.43734 0.93915 0.0
C1131 C 0.63006 0.29977 0.96787 0.0
H1132 H 0.68233 0.36621 0.88428 0.0
C1133 C 0.64081 0.34198 0.99964 0.0
C1134 C 0.66067 0.39107 0.98836 0.0
H1135 H 0.6081 0.26162 0.97607 0.0
H1136 H 0.62431 0.33535 0.03144 0.0
C1137 C 0.68395 0.39951 0.94815 0.0
C1138 C 0.60957 0.39293 0.17264 0.0
C1139 C 0.64804 0.43774 0.19153 0.0
H1140 H 0.5502 0.36188 0.13336 0.0
C1141 C 0.64831 0.48476 0.19414 0.0
H1142 H 0.60829 0.35599 0.17042 0.0
C1143 C 0.61427 0.4879 0.174 0.0
C1144 C 0.58012 0.44419 0.14994 0.0
H1145 H 0.67693 0.51955 0.20931 0.0
H1146 H 0.61845 0.52547 0.17302 0.0
C1147 C 0.57567 0.39613 0.152 0.0
C1148 C 0.67395 0.71572 0.16313 0.0
C1149 C 0.69145 0.68802 0.17887 0.0
H1150 H 0.63582 0.71776 0.11546 0.0
C1151 C 0.68536 0.64056 0.1559 0.0
H1152 H 0.67793 0.75243 0.17985 0.0
C1153 C 0.66125 0.62076 0.11866 0.0
C1154 C 0.64269 0.64789 0.10349 0.0
H1155 H 0.69937 0.61877 0.16655 0.0
H1156 H 0.65675 0.58393 0.10207 0.0
C1157 C 0.65018 0.69607 0.1258 0.0
C1158 C 0.37138 0.63769 0.10158 0.0
C1159 C 0.39508 0.68876 0.09295 0.0
H1160 H 0.36738 0.56393 0.08141 0.0
C1161 C 0.40809 0.69629 0.05044 0.0
H1162 H 0.35746 0.62827 0.13311 0.0
C1163 C 0.41218 0.65731 0.02062 0.0
C1164 C 0.40804 0.61495 0.0356 0.0
H1165 H 0.4225 0.7339 0.04169 0.0
H1166 H 0.43183 0.6669 0.99025 0.0
C1167 C 0.37606 0.59955 0.07131 0.0
C1168 C 0.40367 0.37787 0.1767 0.0
C1169 C 0.35277 0.3585 0.18648 0.0
H1170 H 0.46756 0.42643 0.14143 0.0
C1171 C 0.32738 0.37185 0.16369 0.0
H1172 H 0.42467 0.36735 0.19204 0.0
C1173 C 0.35191 0.40255 0.13169 0.0
C1174 C 0.40294 0.42211 0.12205 0.0
H1175 H 0.2882 0.35779 0.16994 0.0
H1176 H 0.33058 0.41066 0.11431 0.0
C1177 C 0.42843 0.41054 0.14615 0.0
C1178 C 0.82261 0.63159 0.67802 0.0
C1179 C 0.84757 0.68394 0.69494 0.0
H1180 H 0.82646 0.56719 0.63659 0.0
C1181 C 0.89769 0.71098 0.68232 0.0
H1182 H 0.78407 0.60925 0.68707 0.0
C1183 C 0.92213 0.68678 0.65396 0.0
C1184 C 0.89734 0.63459 0.63655 0.0
H1185 H 0.9182 0.75143 0.69382 0.0
H1186 H 0.9607 0.70956 0.64526 0.0
C1187 C 0.84706 0.6073 0.64914 0.0
C1188 C 0.38452 0.83278 0.64968 0.0
C1189 C 0.36555 0.85156 0.68806 0.0
H1190 H 0.42472 0.84841 0.58915 0.0
C1191 C 0.37409 0.90264 0.69457 0.0
H1192 H 0.37713 0.79329 0.64276 0.0
C1193 C 0.39967 0.93351 0.66314 0.0
C1194 C 0.41845 0.91455 0.62492 0.0
H1195 H 0.35972 0.91846 0.72341 0.0
H1196 H 0.40397 0.97209 0.66834 0.0
C1197 C 0.41163 0.86426 0.61877 0.0
C1198 C 0.16558 0.38555 0.61431 0.0
C1199 C 0.18643 0.42767 0.64622 0.0
H1200 H 0.11725 0.35159 0.56422 0.0
C1201 C 0.16592 0.46145 0.65826 0.0
H1202 H 0.18063 0.3589 0.60431 0.0
C1203 C 0.12968 0.45705 0.63562 0.0
C1204 C 0.11268 0.41846 0.60072 0.0
H1205 H 0.18058 0.49374 0.68321 0.0
H1206 H 0.11822 0.48669 0.64295 0.0
C1207 C 0.12891 0.38102 0.59164 0.0
C1208 C 0.73144 0.17705 0.62333 0.0
C1209 C 0.71645 0.15687 0.66152 0.0
H1210 H 0.70937 0.17531 0.56358 0.0
C1211 C 0.67229 0.11195 0.6649 0.0
H1212 H 0.76517 0.21206 0.62038 0.0
C1213 C 0.64171 0.08966 0.63183 0.0
C1214 C 0.65389 0.11323 0.59567 0.0
H1215 H 0.6599 0.09615 0.69426 0.0
H1216 H 0.60632 0.05685 0.63633 0.0
C1217 C 0.6996 0.1562 0.59098 0.0
C1218 C 0.87246 0.39043 0.38043 0.0
C1219 C 0.84616 0.33679 0.37209 0.0
H1220 H 0.92088 0.45576 0.42065 0.0
C1221 C 0.84428 0.30803 0.40178 0.0
H1222 H 0.87538 0.41361 0.35783 0.0
C1223 C 0.87086 0.33207 0.43746 0.0
C1224 C 0.89953 0.38547 0.44453 0.0
H1225 H 0.82397 0.26663 0.39649 0.0
H1226 H 0.87134 0.30861 0.45821 0.0
C1227 C 0.89836 0.4146 0.41662 0.0
C1228 C 0.65238 0.79891 0.36013 0.0
C1229 C 0.7026 0.82826 0.34917 0.0
H1230 H 0.58644 0.79775 0.39339 0.0
C1231 C 0.72469 0.88115 0.36455 0.0
H1232 H 0.63404 0.75819 0.34885 0.0
C1233 C 0.69738 0.90394 0.39033 0.0
C1234 C 0.647 0.87467 0.40103 0.0
H1235 H 0.76333 0.90506 0.35696 0.0
H1236 H 0.71579 0.94462 0.40177 0.0
C1237 C 0.62495 0.8218 0.38551 0.0
C1238 C 0.16618 0.61802 0.33898 0.0
C1239 C 0.18067 0.67076 0.34818 0.0
H1240 H 0.13081 0.54618 0.3622 0.0
C1241 C 0.16353 0.68993 0.38739 0.0
H1242 H 0.17743 0.60163 0.30873 0.0
C1243 C 0.13472 0.65747 0.41748 0.0
C1244 C 0.1232 0.60545 0.40905 0.0
H1245 H 0.17454 0.73042 0.39575 0.0
H1246 H 0.12445 0.67371 0.44832 0.0
C1247 C 0.13855 0.58599 0.36927 0.0
C1248 C 0.45964 0.20176 0.42662 0.0
C1249 C 0.44664 0.17335 0.38631 0.0
H1250 H 0.47954 0.2039 0.48728 0.0
C1251 C 0.44049 0.12302 0.37746 0.0
H1252 H 0.4644 0.24053 0.4345 0.0
C1253 C 0.45046 0.10276 0.40722 0.0
C1254 C 0.46655 0.13246 0.44629 0.0
H1255 H 0.42904 0.09971 0.34715 0.0
H1256 H 0.44651 0.06427 0.39941 0.0
C1257 C 0.46889 0.18115 0.45661 0.0
C1258 C 0.59016 0.81433 0.60928 0.0
C1259 C 0.60478 0.84412 0.64897 0.0
H1260 H 0.56522 0.80891 0.5499 0.0
C1261 C 0.60893 0.89368 0.65756 0.0
H1262 H 0.58645 0.77596 0.60166 0.0
C1263 C 0.59624 0.91205 0.62822 0.0
C1264 C 0.57872 0.8811 0.58987 0.0
H1265 H 0.62155 0.91817 0.68719 0.0
H1266 H 0.5996 0.95032 0.63567 0.0
C1267 C 0.57708 0.83268 0.57998 0.0
C1268 C 0.67235 0.10944 0.34144 0.0
C1269 C 0.68686 0.16217 0.34981 0.0
H1270 H 0.63519 0.03812 0.36572 0.0
C1271 C 0.67131 0.18248 0.38935 0.0
H1272 H 0.68383 0.09244 0.31159 0.0
C1273 C 0.6416 0.15097 0.41952 0.0
C1274 C 0.62852 0.09878 0.41145 0.0
H1275 H 0.68353 0.22313 0.39781 0.0
H1276 H 0.63153 0.16796 0.45009 0.0
C1277 C 0.644 0.07823 0.37218 0.0
C1278 C 0.87294 0.60121 0.41487 0.0
C1279 C 0.89895 0.61494 0.37597 0.0
H1280 H 0.87374 0.58498 0.47531 0.0
C1281 C 0.94836 0.62486 0.36936 0.0
H1282 H 0.83462 0.59202 0.42088 0.0
C1283 C 0.97114 0.62108 0.40111 0.0
C1284 C 0.94426 0.60603 0.43929 0.0
H1285 H 0.96944 0.63567 0.33974 0.0
H1286 H 1.00886 0.62796 0.39526 0.0
C1287 C 0.89529 0.59681 0.44602 0.0
C1288 C 0.31467 0.83813 0.40996 0.0
C1289 C 0.33107 0.8568 0.37106 0.0
H1290 H 0.33488 0.84107 0.47098 0.0
C1291 C 0.37622 0.90068 0.36744 0.0
H1292 H 0.28034 0.80369 0.41308 0.0
C1293 C 0.40636 0.92303 0.4009 0.0
C1294 C 0.39263 0.90079 0.43796 0.0
H1295 H 0.38977 0.91536 0.3376 0.0
H1296 H 0.44248 0.95473 0.39616 0.0
C1297 C 0.34588 0.85926 0.44293 0.0
C1298 C 0.15675 0.31086 0.35573 0.0
C1299 C 0.20684 0.33767 0.34299 0.0
H1300 H 0.09399 0.31269 0.3927 0.0
C1301 C 0.23211 0.39005 0.35963 0.0
H1302 H 0.13604 0.27037 0.3445 0.0
C1303 C 0.20791 0.41461 0.38848 0.0
C1304 C 0.15763 0.38752 0.4011 0.0
H1305 H 0.27061 0.41218 0.35035 0.0
H1306 H 0.22865 0.45472 0.40092 0.0
C1307 C 0.13257 0.33532 0.38392 0.0
C1308 C 0.40004 0.21863 0.67864 0.0
C1309 C 0.34986 0.19088 0.69055 0.0
H1310 H 0.46425 0.21728 0.64369 0.0
C1311 C 0.32608 0.13793 0.6753 0.0
H1312 H 0.41982 0.25916 0.69012 0.0
C1313 C 0.35163 0.11364 0.64859 0.0
C1314 C 0.40192 0.14142 0.63674 0.0
H1315 H 0.28742 0.11509 0.68371 0.0
H1316 H 0.33194 0.073 0.63737 0.0
C1317 C 0.42568 0.1943 0.65225 0.0
C1318 C 0.91519 0.38515 0.69199 0.0
C1319 C 0.86814 0.345 0.68354 0.0
H1320 H 0.97917 0.44924 0.66893 0.0
C1321 C 0.85219 0.33522 0.64325 0.0
H1322 H 0.92841 0.39353 0.72283 0.0
C1323 C 0.88078 0.36631 0.61298 0.0
C1324 C 0.92656 0.40801 0.62177 0.0
H1325 H 0.81679 0.30409 0.63521 0.0
H1326 H 0.86605 0.35891 0.58297 0.0
C1327 C 0.94436 0.41664 0.66114 0.0
C1328 C 0.21017 0.71403 0.63502 0.0
C1329 C 0.20785 0.68504 0.66467 0.0
H1330 H 0.18389 0.71355 0.57827 0.0
C1331 C 0.18258 0.63139 0.65584 0.0
H1332 H 0.22999 0.75545 0.64065 0.0
C1333 C 0.15752 0.60737 0.61932 0.0
C1334 C 0.15626 0.63667 0.59167 0.0
H1335 H 0.17969 0.60803 0.67827 0.0
H1336 H 0.13543 0.56617 0.61494 0.0
C1337 C 0.18444 0.69008 0.59896 0.0
loop_
_geom_bond_atom_site_label_1
_geom_bond_atom_site_label_2
_geom_bond_distance
_geom_bond_site_symmetry_2
_ccdc_geom_bond_type
Tb0 N29 2.617 . S
Tb0 N35 2.572 . S
Tb0 O44 2.465 . S
Tb0 O45 2.387 . S
Tb0 O47 2.428 . S
Tb0 O48 2.308 . S
Tb0 O52 2.349 . S
Tb0 O55 2.393 . S
Tb0 C64 2.802 . S
C1 N2 1.379 . S
C1 C4 1.416 . S
C1 C8 1.424 . S
N2 C1 1.379 . S
N2 C5 1.334 . S
N2 Tb11 2.617 . S
C3 C5 1.390 . S
C3 C6 1.339 . S
C3 H23 0.930 . S
C4 C1 1.416 . S
C4 C6 1.416 . S
C4 C10 1.448 . S
C5 N2 1.334 . S
C5 C3 1.390 . S
C5 H16 0.930 . S
C6 C3 1.339 . S
C6 C4 1.416 . S
C6 H27 0.930 . S
C7 C8 1.413 . S
C7 C9 1.427 . S
C7 C13 1.416 . S
C8 C1 1.424 . S
C8 C7 1.413 . S
C8 N12 1.361 . S
C9 C7 1.427 . S
C9 C10 1.328 . S
C9 H24 0.929 . S
C10 C4 1.448 . S
C10 C9 1.328 . S
C10 H25 0.930 . S
Tb11 N2 2.617 . S
Tb11 N12 2.572 . S
Tb11 O46 2.349 . S
Tb11 O49 2.393 . S
Tb11 O50 2.465 . S
Tb11 O51 2.387 . S
Tb11 O53 2.428 . S
Tb11 O54 2.308 . S
Tb11 C75 2.802 . S
N12 C8 1.361 . S
N12 Tb11 2.572 . S
N12 C14 1.340 . S
C13 C7 1.416 . S
C13 C15 1.332 . S
C13 H21 0.931 . S
C14 N12 1.340 . S
C14 C15 1.407 . S
C14 H20 0.930 . S
C15 C13 1.332 . S
C15 C14 1.407 . S
C15 H17 0.929 . S
H16 C5 0.930 . S
H17 C15 0.929 . S
H18 C33 0.930 . S
H19 C40 0.929 . S
H20 C14 0.930 . S
H21 C13 0.931 . S
H22 C36 0.930 . S
H23 C3 0.930 . S
H24 C9 0.929 . S
H25 C10 0.930 . S
H26 C31 0.930 . S
H27 C6 0.930 . S
H28 C39 0.931 . S
N29 Tb0 2.617 . S
N29 C30 1.379 . S
N29 C33 1.334 . S
C30 N29 1.379 . S
C30 C32 1.416 . S
C30 C38 1.424 . S
C31 H26 0.930 . S
C31 C33 1.390 . S
C31 C34 1.339 . S
C32 C30 1.416 . S
C32 C34 1.416 . S
C32 C65 1.448 . S
C33 H18 0.930 . S
C33 N29 1.334 . S
C33 C31 1.390 . S
C34 C31 1.339 . S
C34 C32 1.416 . S
C34 H41 0.930 1_545 S
N35 Tb0 2.572 . S
N35 C36 1.340 . S
N35 C38 1.361 . S
C36 H22 0.930 . S
C36 N35 1.340 . S
C36 C40 1.407 . S
C37 C38 1.413 . S
C37 C39 1.416 . S
C37 C66 1.427 . S
C38 C30 1.424 . S
C38 N35 1.361 . S
C38 C37 1.413 . S
C39 H28 0.931 . S
C39 C37 1.416 . S
C39 C40 1.332 . S
C40 H19 0.929 . S
C40 C36 1.407 . S
C40 C39 1.332 . S
H41 C34 0.930 1_565 S
H42 C65 0.930 . S
H43 C66 0.929 . S
O44 Tb0 2.465 . S
O44 C64 1.264 . S
O45 Tb0 2.387 . S
O45 C56 1.264 . S
O46 Tb11 2.349 . S
O46 C56 1.243 . S
O47 Tb0 2.428 . S
O47 C64 1.256 . S
O48 Tb0 2.308 . S
O48 C63 1.266 . S
O49 Tb11 2.393 . S
O49 C63 1.248 . S
O50 Tb11 2.465 . S
O50 C75 1.264 . S
O51 Tb11 2.387 . S
O51 C67 1.264 . S
O52 Tb0 2.349 . S
O52 C67 1.243 . S
O53 Tb11 2.428 . S
O53 C75 1.256 . S
O54 Tb11 2.308 . S
O54 C74 1.266 . S
O55 Tb0 2.393 . S
O55 C74 1.248 . S
C56 O45 1.264 . S
C56 O46 1.243 . S
C57 C60 1.399 . S
C57 C62 1.383 . S
C57 C64 1.496 . S
C58 C59 1.399 . S
C58 C62 1.389 . S
C59 C58 1.399 . S
C59 C61 1.380 . S
C59 H76 0.929 . S
C60 C57 1.399 . S
C60 C61 1.392 . S
C60 H77 0.929 . S
C61 C59 1.380 . S
C61 C60 1.392 . S
C61 H78 0.929 1_455 S
C62 C57 1.383 . S
C62 C58 1.389 . S
C62 H79 0.931 . S
C63 O48 1.266 . S
C63 O49 1.248 . S
C64 Tb0 2.802 . S
C64 O44 1.264 . S
C64 O47 1.256 . S
C64 C57 1.496 . S
C65 C32 1.448 . S
C65 H42 0.930 . S
C65 C66 1.328 . S
C66 C37 1.427 . S
C66 H43 0.929 . S
C66 C65 1.328 . S
C67 O51 1.264 . S
C67 O52 1.243 . S
C68 C71 1.399 . S
C68 C72 1.383 . S
C68 C75 1.496 . S
C69 C70 1.399 . S
C69 C72 1.389 . S
C70 C69 1.399 . S
C70 C73 1.380 . S
C70 H80 0.929 . S
C71 C68 1.399 . S
C71 C73 1.392 . S
C71 H81 0.929 . S
C72 C68 1.383 . S
C72 C69 1.389 . S
C72 H82 0.931 . S
C73 C70 1.380 . S
C73 C71 1.392 . S
C73 H83 0.929 . S
C74 O54 1.266 . S
C74 O55 1.248 . S
C75 Tb11 2.802 . S
C75 O50 1.264 . S
C75 O53 1.256 . S
C75 C68 1.496 . S
H76 C59 0.929 . S
H77 C60 0.929 . S
H78 C61 0.929 1_655 S
H79 C62 0.931 . S
H80 C70 0.929 . S
H81 C71 0.929 . S
H82 C72 0.931 . S
H83 C73 0.929 . S
Tb84 N113 2.617 . S
Tb84 N119 2.572 . S
Tb84 O128 2.465 . S
Tb84 O129 2.387 . S
Tb84 O131 2.428 . S
Tb84 O132 2.308 . S
Tb84 O136 2.349 . S
Tb84 O139 2.393 . S
Tb84 C148 2.802 . S
C85 N86 1.379 . S
C85 C88 1.416 . S
C85 C92 1.424 . S
N86 C85 1.379 . S
N86 C89 1.334 . S
N86 Tb95 2.617 . S
C87 C89 1.390 . S
C87 C90 1.339 . S
C87 H107 0.930 . S
C88 C85 1.416 . S
C88 C90 1.416 . S
C88 C94 1.448 . S
C89 N86 1.334 . S
C89 C87 1.390 . S
C89 H100 0.930 . S
C90 C87 1.339 . S
C90 C88 1.416 . S
C90 H111 0.930 . S
C91 C92 1.413 . S
C91 C93 1.427 . S
C91 C97 1.416 . S
C92 C85 1.424 . S
C92 C91 1.413 . S
C92 N96 1.361 . S
C93 C91 1.427 . S
C93 C94 1.328 . S
C93 H108 0.929 . S
C94 C88 1.448 . S
C94 C93 1.328 . S
C94 H109 0.930 . S
Tb95 N86 2.617 . S
Tb95 N96 2.572 . S
Tb95 O130 2.349 . S
Tb95 O133 2.393 . S
Tb95 O134 2.465 . S
Tb95 O135 2.387 . S
Tb95 O137 2.428 . S
Tb95 O138 2.308 . S
Tb95 C159 2.802 . S
N96 C92 1.361 . S
N96 Tb95 2.572 . S
N96 C98 1.340 . S
C97 C91 1.416 . S
C97 C99 1.332 . S
C97 H105 0.931 1_655 S
C98 N96 1.340 . S
C98 C99 1.407 . S
C98 H104 0.930 . S
C99 C97 1.332 . S
C99 C98 1.407 . S
C99 H101 0.929 . S
H100 C89 0.930 . S
H101 C99 0.929 . S
H102 C117 0.930 . S
H103 C124 0.929 . S
H104 C98 0.930 . S
H105 C97 0.931 1_455 S
H106 C120 0.930 . S
H107 C87 0.930 . S
H108 C93 0.929 . S
H109 C94 0.930 . S
H110 C115 0.930 . S
H111 C90 0.930 . S
H112 C123 0.931 . S
N113 Tb84 2.617 . S
N113 C114 1.379 . S
N113 C117 1.334 . S
C114 N113 1.379 . S
C114 C116 1.416 . S
C114 C122 1.424 . S
C115 H110 0.930 . S
C115 C117 1.390 . S
C115 C118 1.339 . S
C116 C114 1.416 . S
C116 C118 1.416 . S
C116 C149 1.448 . S
C117 H102 0.930 . S
C117 N113 1.334 . S
C117 C115 1.390 . S
C118 C115 1.339 . S
C118 C116 1.416 . S
C118 H125 0.930 . S
N119 Tb84 2.572 . S
N119 C120 1.340 . S
N119 C122 1.361 . S
C120 H106 0.930 . S
C120 N119 1.340 . S
C120 C124 1.407 . S
C121 C122 1.413 . S
C121 C123 1.416 . S
C121 C150 1.427 . S
C122 C114 1.424 . S
C122 N119 1.361 . S
C122 C121 1.413 . S
C123 H112 0.931 . S
C123 C121 1.416 . S
C123 C124 1.332 . S
C124 H103 0.929 . S
C124 C120 1.407 . S
C124 C123 1.332 . S
H125 C118 0.930 . S
H126 C149 0.930 . S
H127 C150 0.929 . S
O128 Tb84 2.465 . S
O128 C148 1.264 . S
O129 Tb84 2.387 . S
O129 C140 1.264 . S
O130 Tb95 2.349 . S
O130 C140 1.243 . S
O131 Tb84 2.428 . S
O131 C148 1.256 . S
O132 Tb84 2.308 . S
O132 C147 1.266 . S
O133 Tb95 2.393 . S
O133 C147 1.248 . S
O134 Tb95 2.465 . S
O134 C159 1.264 . S
O135 Tb95 2.387 . S
O135 C151 1.264 . S
O136 Tb84 2.349 . S
O136 C151 1.243 . S
O137 Tb95 2.428 . S
O137 C159 1.256 . S
O138 Tb95 2.308 . S
O138 C158 1.266 . S
O139 Tb84 2.393 . S
O139 C158 1.248 . S
C140 O129 1.264 . S
C140 O130 1.243 . S
C141 C144 1.399 . S
C141 C146 1.383 . S
C141 C148 1.496 . S
C142 C143 1.399 . S
C142 C146 1.389 . S
C143 C142 1.399 . S
C143 C145 1.380 . S
C143 H160 0.929 . S
C144 C141 1.399 . S
C144 C145 1.392 . S
C144 H161 0.929 . S
C145 C143 1.380 . S
C145 C144 1.392 . S
C145 H162 0.929 . S
C146 C141 1.383 . S
C146 C142 1.389 . S
C146 H163 0.931 . S
C147 O132 1.266 . S
C147 O133 1.248 . S
C148 Tb84 2.802 . S
C148 O128 1.264 . S
C148 O131 1.256 . S
C148 C141 1.496 . S
C149 C116 1.448 . S
C149 H126 0.930 . S
C149 C150 1.328 . S
C150 C121 1.427 . S
C150 H127 0.929 . S
C150 C149 1.328 . S
C151 O135 1.264 . S
C151 O136 1.243 . S
C152 C155 1.399 . S
C152 C156 1.383 . S
C152 C159 1.496 . S
C153 C154 1.399 . S
C153 C156 1.389 . S
C154 C153 1.399 . S
C154 C157 1.380 . S
C154 H164 0.929 . S
C155 C152 1.399 . S
C155 C157 1.392 . S
C155 H165 0.929 . S
C156 C152 1.383 . S
C156 C153 1.389 . S
C156 H166 0.931 . S
C157 C154 1.380 . S
C157 C155 1.392 . S
C157 H167 0.929 . S
C158 O138 1.266 . S
C158 O139 1.248 . S
C159 Tb95 2.802 . S
C159 O134 1.264 . S
C159 O137 1.256 . S
C159 C152 1.496 . S
H160 C143 0.929 . S
H161 C144 0.929 . S
H162 C145 0.929 . S
H163 C146 0.931 . S
H164 C154 0.929 . S
H165 C155 0.929 . S
H166 C156 0.931 . S
H167 C157 0.929 . S
Tb168 N197 2.617 . S
Tb168 N203 2.572 . S
Tb168 O212 2.465 . S
Tb168 O213 2.387 . S
Tb168 O215 2.428 . S
Tb168 O216 2.308 . S
Tb168 O220 2.349 . S
Tb168 O223 2.393 . S
Tb168 C232 2.802 . S
C169 N170 1.379 . S
C169 C172 1.416 . S
C169 C176 1.424 . S
N170 C169 1.379 . S
N170 C173 1.334 . S
N170 Tb179 2.617 . S
C171 C173 1.390 . S
C171 C174 1.339 . S
C171 H191 0.930 . S
C172 C169 1.416 . S
C172 C174 1.416 . S
C172 C178 1.448 . S
C173 N170 1.334 . S
C173 C171 1.390 . S
C173 H184 0.930 . S
C174 C171 1.339 . S
C174 C172 1.416 . S
C174 H195 0.930 . S
C175 C176 1.413 . S
C175 C177 1.427 . S
C175 C181 1.416 . S
C176 C169 1.424 . S
C176 C175 1.413 . S
C176 N180 1.361 . S
C177 C175 1.427 . S
C177 C178 1.328 . S
C177 H192 0.929 . S
C178 C172 1.448 . S
C178 C177 1.328 . S
C178 H193 0.930 . S
Tb179 N170 2.617 . S
Tb179 N180 2.572 . S
Tb179 O214 2.349 . S
Tb179 O217 2.393 . S
Tb179 O218 2.465 . S
Tb179 O219 2.387 . S
Tb179 O221 2.428 . S
Tb179 O222 2.308 . S
Tb179 C243 2.802 . S
N180 C176 1.361 . S
N180 Tb179 2.572 . S
N180 C182 1.340 . S
C181 C175 1.416 . S
C181 C183 1.332 . S
C181 H189 0.931 . S
C182 N180 1.340 . S
C182 C183 1.407 . S
C182 H188 0.930 . S
C183 C181 1.332 . S
C183 C182 1.407 . S
C183 H185 0.929 . S
H184 C173 0.930 . S
H185 C183 0.929 . S
H186 C201 0.930 . S
H187 C208 0.929 . S
H188 C182 0.930 . S
H189 C181 0.931 . S
H190 C204 0.930 . S
H191 C171 0.930 . S
H192 C177 0.929 . S
H193 C178 0.930 . S
H194 C199 0.930 . S
H195 C174 0.930 . S
H196 C207 0.931 . S
N197 Tb168 2.617 . S
N197 C198 1.379 . S
N197 C201 1.334 . S
C198 N197 1.379 . S
C198 C200 1.416 . S
C198 C206 1.424 . S
C199 H194 0.930 . S
C199 C201 1.390 . S
C199 C202 1.339 . S
C200 C198 1.416 . S
C200 C202 1.416 . S
C200 C233 1.448 . S
C201 H186 0.930 . S
C201 N197 1.334 . S
C201 C199 1.390 . S
C202 C199 1.339 . S
C202 C200 1.416 . S
C202 H209 0.930 . S
N203 Tb168 2.572 . S
N203 C204 1.340 . S
N203 C206 1.361 . S
C204 H190 0.930 . S
C204 N203 1.340 . S
C204 C208 1.407 . S
C205 C206 1.413 . S
C205 C207 1.416 . S
C205 C234 1.427 . S
C206 C198 1.424 . S
C206 N203 1.361 . S
C206 C205 1.413 . S
C207 H196 0.931 . S
C207 C205 1.416 . S
C207 C208 1.332 . S
C208 H187 0.929 . S
C208 C204 1.407 . S
C208 C207 1.332 . S
H209 C202 0.930 . S
H210 C233 0.930 . S
H211 C234 0.929 . S
O212 Tb168 2.465 . S
O212 C232 1.264 . S
O213 Tb168 2.387 . S
O213 C224 1.264 . S
O214 Tb179 2.349 . S
O214 C224 1.243 . S
O215 Tb168 2.428 . S
O215 C232 1.256 . S
O216 Tb168 2.308 . S
O216 C231 1.266 . S
O217 Tb179 2.393 . S
O217 C231 1.248 . S
O218 Tb179 2.465 . S
O218 C243 1.264 . S
O219 Tb179 2.387 . S
O219 C235 1.264 . S
O220 Tb168 2.349 . S
O220 C235 1.243 . S
O221 Tb179 2.428 . S
O221 C243 1.256 . S
O222 Tb179 2.308 . S
O222 C242 1.266 . S
O223 Tb168 2.393 . S
O223 C242 1.248 . S
C224 O213 1.264 . S
C224 O214 1.243 . S
C225 C228 1.399 . S
C225 C230 1.383 . S
C225 C232 1.496 . S
C226 C227 1.399 . S
C226 C230 1.389 . S
C227 C226 1.399 . S
C227 C229 1.380 . S
C227 H244 0.929 . S
C228 C225 1.399 . S
C228 C229 1.392 . S
C228 H245 0.929 . S
C229 C227 1.380 . S
C229 C228 1.392 . S
C229 H246 0.929 . S
C230 C225 1.383 . S
C230 C226 1.389 . S
C230 H247 0.931 . S
C231 O216 1.266 . S
C231 O217 1.248 . S
C232 Tb168 2.802 . S
C232 O212 1.264 . S
C232 O215 1.256 . S
C232 C225 1.496 . S
C233 C200 1.448 . S
C233 H210 0.930 . S
C233 C234 1.328 . S
C234 C205 1.427 . S
C234 H211 0.929 . S
C234 C233 1.328 . S
C235 O219 1.264 . S
C235 O220 1.243 . S
C236 C239 1.399 . S
C236 C240 1.383 . S
C236 C243 1.496 . S
C237 C238 1.399 . S
C237 C240 1.389 . S
C238 C237 1.399 . S
C238 C241 1.380 . S
C238 H248 0.929 . S
C239 C236 1.399 . S
C239 C241 1.392 . S
C239 H249 0.929 . S
C240 C236 1.383 . S
C240 C237 1.389 . S
C240 H250 0.931 . S
C241 C238 1.380 . S
C241 C239 1.392 . S
C241 H251 0.929 1_565 S
C242 O222 1.266 . S
C242 O223 1.248 . S
C243 Tb179 2.802 . S
C243 O218 1.264 . S
C243 O221 1.256 . S
C243 C236 1.496 . S
H244 C227 0.929 . S
H245 C228 0.929 . S
H246 C229 0.929 . S
H247 C230 0.931 . S
H248 C238 0.929 . S
H249 C239 0.929 . S
H250 C240 0.931 . S
H251 C241 0.929 1_545 S
Tb252 N281 2.617 . S
Tb252 N287 2.572 . S
Tb252 O296 2.465 . S
Tb252 O297 2.387 . S
Tb252 O299 2.428 . S
Tb252 O300 2.308 . S
Tb252 O304 2.349 . S
Tb252 O307 2.393 . S
Tb252 C316 2.802 . S
C253 N254 1.379 . S
C253 C256 1.416 . S
C253 C260 1.424 . S
N254 C253 1.379 . S
N254 C257 1.334 . S
N254 Tb263 2.617 . S
C255 C257 1.390 . S
C255 C258 1.339 . S
C255 H275 0.930 . S
C256 C253 1.416 . S
C256 C258 1.416 . S
C256 C262 1.448 . S
C257 N254 1.334 . S
C257 C255 1.390 . S
C257 H268 0.930 . S
C258 C255 1.339 . S
C258 C256 1.416 . S
C258 H279 0.930 . S
C259 C260 1.413 . S
C259 C261 1.427 . S
C259 C265 1.416 . S
C260 C253 1.424 . S
C260 C259 1.413 . S
C260 N264 1.361 . S
C261 C259 1.427 . S
C261 C262 1.328 . S
C261 H276 0.929 . S
C262 C256 1.448 . S
C262 C261 1.328 . S
C262 H277 0.930 . S
Tb263 N254 2.617 . S
Tb263 N264 2.572 . S
Tb263 O298 2.349 . S
Tb263 O301 2.393 . S
Tb263 O302 2.465 . S
Tb263 O303 2.387 . S
Tb263 O305 2.428 . S
Tb263 O306 2.308 . S
Tb263 C327 2.802 . S
N264 C260 1.361 . S
N264 Tb263 2.572 . S
N264 C266 1.340 . S
C265 C259 1.416 . S
C265 C267 1.332 . S
C265 H273 0.931 . S
C266 N264 1.340 . S
C266 C267 1.407 . S
C266 H272 0.930 . S
C267 C265 1.332 . S
C267 C266 1.407 . S
C267 H269 0.929 . S
H268 C257 0.930 . S
H269 C267 0.929 . S
H270 C285 0.930 . S
H271 C292 0.929 . S
H272 C266 0.930 . S
H273 C265 0.931 . S
H274 C288 0.930 . S
H275 C255 0.930 . S
H276 C261 0.929 . S
H277 C262 0.930 . S
H278 C283 0.930 . S
H279 C258 0.930 . S
H280 C291 0.931 1_545 S
N281 Tb252 2.617 . S
N281 C282 1.379 . S
N281 C285 1.334 . S
C282 N281 1.379 . S
C282 C284 1.416 . S
C282 C290 1.424 . S
C283 H278 0.930 . S
C283 C285 1.390 . S
C283 C286 1.339 . S
C284 C282 1.416 . S
C284 C286 1.416 . S
C284 C317 1.448 . S
C285 H270 0.930 . S
C285 N281 1.334 . S
C285 C283 1.390 . S
C286 C283 1.339 . S
C286 C284 1.416 . S
C286 H293 0.930 . S
N287 Tb252 2.572 . S
N287 C288 1.340 . S
N287 C290 1.361 . S
C288 H274 0.930 . S
C288 N287 1.340 . S
C288 C292 1.407 . S
C289 C290 1.413 . S
C289 C291 1.416 . S
C289 C318 1.427 . S
C290 C282 1.424 . S
C290 N287 1.361 . S
C290 C289 1.413 . S
C291 H280 0.931 1_565 S
C291 C289 1.416 . S
C291 C292 1.332 . S
C292 H271 0.929 . S
C292 C288 1.407 . S
C292 C291 1.332 . S
H293 C286 0.930 . S
H294 C317 0.930 . S
H295 C318 0.929 . S
O296 Tb252 2.465 . S
O296 C316 1.264 . S
O297 Tb252 2.387 . S
O297 C308 1.264 . S
O298 Tb263 2.349 . S
O298 C308 1.243 . S
O299 Tb252 2.428 . S
O299 C316 1.256 . S
O300 Tb252 2.308 . S
O300 C315 1.266 . S
O301 Tb263 2.393 . S
O301 C315 1.248 . S
O302 Tb263 2.465 . S
O302 C327 1.264 . S
O303 Tb263 2.387 . S
O303 C319 1.264 . S
O304 Tb252 2.349 . S
O304 C319 1.243 . S
O305 Tb263 2.428 . S
O305 C327 1.256 . S
O306 Tb263 2.308 . S
O306 C326 1.266 . S
O307 Tb252 2.393 . S
O307 C326 1.248 . S
C308 O297 1.264 . S
C308 O298 1.243 . S
C309 C312 1.399 . S
C309 C314 1.383 . S
C309 C316 1.496 . S
C310 C311 1.399 . S
C310 C314 1.389 . S
C311 C310 1.399 . S
C311 C313 1.380 . S
C311 H328 0.929 . S
C312 C309 1.399 . S
C312 C313 1.392 . S
C312 H329 0.929 . S
C313 C311 1.380 . S
C313 C312 1.392 . S
C313 H330 0.929 . S
C314 C309 1.383 . S
C314 C310 1.389 . S
C314 H331 0.931 . S
C315 O300 1.266 . S
C315 O301 1.248 . S
C316 Tb252 2.802 . S
C316 O296 1.264 . S
C316 O299 1.256 . S
C316 C309 1.496 . S
C317 C284 1.448 . S
C317 H294 0.930 . S
C317 C318 1.328 . S
C318 C289 1.427 . S
C318 H295 0.929 . S
C318 C317 1.328 . S
C319 O303 1.264 . S
C319 O304 1.243 . S
C320 C323 1.399 . S
C320 C324 1.383 . S
C320 C327 1.496 . S
C321 C322 1.399 . S
C321 C324 1.389 . S
C322 C321 1.399 . S
C322 C325 1.380 . S
C322 H332 0.929 . S
C323 C320 1.399 . S
C323 C325 1.392 . S
C323 H333 0.929 . S
C324 C320 1.383 . S
C324 C321 1.389 . S
C324 H334 0.931 . S
C325 C322 1.380 . S
C325 C323 1.392 . S
C325 H335 0.929 . S
C326 O306 1.266 . S
C326 O307 1.248 . S
C327 Tb263 2.802 . S
C327 O302 1.264 . S
C327 O305 1.256 . S
C327 C320 1.496 . S
H328 C311 0.929 . S
H329 C312 0.929 . S
H330 C313 0.929 . S
H331 C314 0.931 . S
H332 C322 0.929 . S
H333 C323 0.929 . S
H334 C324 0.931 . S
H335 C325 0.929 . S
Tb336 N365 2.617 . S
Tb336 N371 2.572 . S
Tb336 O380 2.465 . S
Tb336 O381 2.387 . S
Tb336 O383 2.428 . S
Tb336 O384 2.308 . S
Tb336 O388 2.349 . S
Tb336 O391 2.393 . S
Tb336 C400 2.802 . S
C337 N338 1.379 . S
C337 C340 1.416 . S
C337 C344 1.424 . S
N338 C337 1.379 . S
N338 C341 1.334 . S
N338 Tb347 2.617 . S
C339 C341 1.390 . S
C339 C342 1.339 . S
C339 H359 0.930 . S
C340 C337 1.416 . S
C340 C342 1.416 . S
C340 C346 1.448 . S
C341 N338 1.334 . S
C341 C339 1.390 . S
C341 H352 0.930 . S
C342 C339 1.339 . S
C342 C340 1.416 . S
C342 H363 0.930 . S
C343 C344 1.413 . S
C343 C345 1.427 . S
C343 C349 1.416 . S
C344 C337 1.424 . S
C344 C343 1.413 . S
C344 N348 1.361 . S
C345 C343 1.427 . S
C345 C346 1.328 . S
C345 H360 0.929 . S
C346 C340 1.448 . S
C346 C345 1.328 . S
C346 H361 0.930 . S
Tb347 N338 2.617 . S
Tb347 N348 2.572 . S
Tb347 O382 2.349 . S
Tb347 O385 2.393 . S
Tb347 O386 2.465 . S
Tb347 O387 2.387 . S
Tb347 O389 2.428 . S
Tb347 O390 2.308 . S
Tb347 C411 2.802 . S
N348 C344 1.361 . S
N348 Tb347 2.572 . S
N348 C350 1.340 . S
C349 C343 1.416 . S
C349 C351 1.332 . S
C349 H357 0.931 . S
C350 N348 1.340 . S
C350 C351 1.407 . S
C350 H356 0.930 . S
C351 C349 1.332 . S
C351 C350 1.407 . S
C351 H353 0.929 . S
H352 C341 0.930 . S
H353 C351 0.929 . S
H354 C369 0.930 . S
H355 C376 0.929 . S
H356 C350 0.930 . S
H357 C349 0.931 . S
H358 C372 0.930 . S
H359 C339 0.930 . S
H360 C345 0.929 . S
H361 C346 0.930 . S
H362 C367 0.930 . S
H363 C342 0.930 . S
H364 C375 0.931 1_655 S
N365 Tb336 2.617 . S
N365 C366 1.379 . S
N365 C369 1.334 . S
C366 N365 1.379 . S
C366 C368 1.416 . S
C366 C374 1.424 . S
C367 H362 0.930 . S
C367 C369 1.390 . S
C367 C370 1.339 . S
C368 C366 1.416 . S
C368 C370 1.416 . S
C368 C401 1.448 . S
C369 H354 0.930 . S
C369 N365 1.334 . S
C369 C367 1.390 . S
C370 C367 1.339 . S
C370 C368 1.416 . S
C370 H377 0.930 . S
N371 Tb336 2.572 . S
N371 C372 1.340 . S
N371 C374 1.361 . S
C372 H358 0.930 . S
C372 N371 1.340 . S
C372 C376 1.407 . S
C373 C374 1.413 . S
C373 C375 1.416 . S
C373 C402 1.427 . S
C374 C366 1.424 . S
C374 N371 1.361 . S
C374 C373 1.413 . S
C375 H364 0.931 1_455 S
C375 C373 1.416 . S
C375 C376 1.332 . S
C376 H355 0.929 . S
C376 C372 1.407 . S
C376 C375 1.332 . S
H377 C370 0.930 . S
H378 C401 0.930 . S
H379 C402 0.929 . S
O380 Tb336 2.465 . S
O380 C400 1.264 . S
O381 Tb336 2.387 . S
O381 C392 1.264 . S
O382 Tb347 2.349 . S
O382 C392 1.243 . S
O383 Tb336 2.428 . S
O383 C400 1.256 . S
O384 Tb336 2.308 . S
O384 C399 1.266 . S
O385 Tb347 2.393 . S
O385 C399 1.248 . S
O386 Tb347 2.465 . S
O386 C411 1.264 . S
O387 Tb347 2.387 . S
O387 C403 1.264 . S
O388 Tb336 2.349 . S
O388 C403 1.243 . S
O389 Tb347 2.428 . S
O389 C411 1.256 . S
O390 Tb347 2.308 . S
O390 C410 1.266 . S
O391 Tb336 2.393 . S
O391 C410 1.248 . S
C392 O381 1.264 . S
C392 O382 1.243 . S
C393 C396 1.399 . S
C393 C398 1.383 . S
C393 C400 1.496 . S
C394 C395 1.399 . S
C394 C398 1.389 . S
C395 C394 1.399 . S
C395 C397 1.380 . S
C395 H412 0.929 . S
C396 C393 1.399 . S
C396 C397 1.392 . S
C396 H413 0.929 . S
C397 C395 1.380 . S
C397 C396 1.392 . S
C397 H414 0.929 . S
C398 C393 1.383 . S
C398 C394 1.389 . S
C398 H415 0.931 . S
C399 O384 1.266 . S
C399 O385 1.248 . S
C400 Tb336 2.802 . S
C400 O380 1.264 . S
C400 O383 1.256 . S
C400 C393 1.496 . S
C401 C368 1.448 . S
C401 H378 0.930 . S
C401 C402 1.328 . S
C402 C373 1.427 . S
C402 H379 0.929 . S
C402 C401 1.328 . S
C403 O387 1.264 . S
C403 O388 1.243 . S
C404 C407 1.399 . S
C404 C408 1.383 . S
C404 C411 1.496 . S
C405 C406 1.399 . S
C405 C408 1.389 . S
C406 C405 1.399 . S
C406 C409 1.380 . S
C406 H416 0.929 . S
C407 C404 1.399 . S
C407 C409 1.392 . S
C407 H417 0.929 . S
C408 C404 1.383 . S
C408 C405 1.389 . S
C408 H418 0.931 . S
C409 C406 1.380 . S
C409 C407 1.392 . S
C409 H419 0.929 . S
C410 O390 1.266 . S
C410 O391 1.248 . S
C411 Tb347 2.802 . S
C411 O386 1.264 . S
C411 O389 1.256 . S
C411 C404 1.496 . S
H412 C395 0.929 . S
H413 C396 0.929 . S
H414 C397 0.929 . S
H415 C398 0.931 . S
H416 C406 0.929 . S
H417 C407 0.929 . S
H418 C408 0.931 . S
H419 C409 0.929 . S
Tb420 N449 2.617 . S
Tb420 N455 2.572 . S
Tb420 O464 2.465 . S
Tb420 O465 2.387 . S
Tb420 O467 2.428 . S
Tb420 O468 2.308 . S
Tb420 O472 2.349 . S
Tb420 O475 2.393 . S
Tb420 C484 2.802 . S
C421 N422 1.379 . S
C421 C424 1.416 . S
C421 C428 1.424 . S
N422 C421 1.379 . S
N422 C425 1.334 . S
N422 Tb431 2.617 . S
C423 C425 1.390 . S
C423 C426 1.339 . S
C423 H443 0.930 . S
C424 C421 1.416 . S
C424 C426 1.416 . S
C424 C430 1.448 . S
C425 N422 1.334 . S
C425 C423 1.390 . S
C425 H436 0.930 . S
C426 C423 1.339 . S
C426 C424 1.416 . S
C426 H447 0.930 . S
C427 C428 1.413 . S
C427 C429 1.427 . S
C427 C433 1.416 . S
C428 C421 1.424 . S
C428 C427 1.413 . S
C428 N432 1.361 . S
C429 C427 1.427 . S
C429 C430 1.328 . S
C429 H444 0.929 . S
C430 C424 1.448 . S
C430 C429 1.328 . S
C430 H445 0.930 . S
Tb431 N422 2.617 . S
Tb431 N432 2.572 . S
Tb431 O466 2.349 . S
Tb431 O469 2.393 . S
Tb431 O470 2.465 . S
Tb431 O471 2.387 . S
Tb431 O473 2.428 . S
Tb431 O474 2.308 . S
Tb431 C495 2.802 . S
N432 C428 1.361 . S
N432 Tb431 2.572 . S
N432 C434 1.340 . S
C433 C427 1.416 . S
C433 C435 1.332 . S
C433 H441 0.931 . S
C434 N432 1.340 . S
C434 C435 1.407 . S
C434 H440 0.930 . S
C435 C433 1.332 . S
C435 C434 1.407 . S
C435 H437 0.929 . S
H436 C425 0.930 . S
H437 C435 0.929 . S
H438 C453 0.930 . S
H439 C460 0.929 . S
H440 C434 0.930 . S
H441 C433 0.931 . S
H442 C456 0.930 . S
H443 C423 0.930 . S
H444 C429 0.929 . S
H445 C430 0.930 . S
H446 C451 0.930 . S
H447 C426 0.930 . S
H448 C459 0.931 . S
N449 Tb420 2.617 . S
N449 C450 1.379 . S
N449 C453 1.334 . S
C450 N449 1.379 . S
C450 C452 1.416 . S
C450 C458 1.424 . S
C451 H446 0.930 . S
C451 C453 1.390 . S
C451 C454 1.339 . S
C452 C450 1.416 . S
C452 C454 1.416 . S
C452 C485 1.448 . S
C453 H438 0.930 . S
C453 N449 1.334 . S
C453 C451 1.390 . S
C454 C451 1.339 . S
C454 C452 1.416 . S
C454 H461 0.930 . S
N455 Tb420 2.572 . S
N455 C456 1.340 . S
N455 C458 1.361 . S
C456 H442 0.930 . S
C456 N455 1.340 . S
C456 C460 1.407 . S
C457 C458 1.413 . S
C457 C459 1.416 . S
C457 C486 1.427 . S
C458 C450 1.424 . S
C458 N455 1.361 . S
C458 C457 1.413 . S
C459 H448 0.931 . S
C459 C457 1.416 . S
C459 C460 1.332 . S
C460 H439 0.929 . S
C460 C456 1.407 . S
C460 C459 1.332 . S
H461 C454 0.930 . S
H462 C485 0.930 . S
H463 C486 0.929 . S
O464 Tb420 2.465 . S
O464 C484 1.264 . S
O465 Tb420 2.387 . S
O465 C476 1.264 . S
O466 Tb431 2.349 . S
O466 C476 1.243 . S
O467 Tb420 2.428 . S
O467 C484 1.256 . S
O468 Tb420 2.308 . S
O468 C483 1.266 . S
O469 Tb431 2.393 . S
O469 C483 1.248 . S
O470 Tb431 2.465 . S
O470 C495 1.264 . S
O471 Tb431 2.387 . S
O471 C487 1.264 . S
O472 Tb420 2.349 . S
O472 C487 1.243 . S
O473 Tb431 2.428 . S
O473 C495 1.256 . S
O474 Tb431 2.308 . S
O474 C494 1.266 . S
O475 Tb420 2.393 . S
O475 C494 1.248 . S
C476 O465 1.264 . S
C476 O466 1.243 . S
C477 C480 1.399 . S
C477 C482 1.383 . S
C477 C484 1.496 . S
C478 C479 1.399 . S
C478 C482 1.389 . S
C479 C478 1.399 . S
C479 C481 1.380 . S
C479 H496 0.929 . S
C480 C477 1.399 . S
C480 C481 1.392 . S
C480 H497 0.929 . S
C481 C479 1.380 . S
C481 C480 1.392 . S
C481 H498 0.929 1_545 S
C482 C477 1.383 . S
C482 C478 1.389 . S
C482 H499 0.931 . S
C483 O468 1.266 . S
C483 O469 1.248 . S
C484 Tb420 2.802 . S
C484 O464 1.264 . S
C484 O467 1.256 . S
C484 C477 1.496 . S
C485 C452 1.448 . S
C485 H462 0.930 . S
C485 C486 1.328 . S
C486 C457 1.427 . S
C486 H463 0.929 . S
C486 C485 1.328 . S
C487 O471 1.264 . S
C487 O472 1.243 . S
C488 C491 1.399 . S
C488 C492 1.383 . S
C488 C495 1.496 . S
C489 C490 1.399 . S
C489 C492 1.389 . S
C490 C489 1.399 . S
C490 C493 1.380 . S
C490 H500 0.929 . S
C491 C488 1.399 . S
C491 C493 1.392 . S
C491 H501 0.929 . S
C492 C488 1.383 . S
C492 C489 1.389 . S
C492 H502 0.931 . S
C493 C490 1.380 . S
C493 C491 1.392 . S
C493 H503 0.929 . S
C494 O474 1.266 . S
C494 O475 1.248 . S
C495 Tb431 2.802 . S
C495 O470 1.264 . S
C495 O473 1.256 . S
C495 C488 1.496 . S
H496 C479 0.929 . S
H497 C480 0.929 . S
H498 C481 0.929 1_565 S
H499 C482 0.931 . S
H500 C490 0.929 . S
H501 C491 0.929 . S
H502 C492 0.931 . S
H503 C493 0.929 . S
Tb504 N533 2.617 . S
Tb504 N539 2.572 . S
Tb504 O548 2.465 . S
Tb504 O549 2.387 . S
Tb504 O551 2.428 . S
Tb504 O552 2.308 . S
Tb504 O556 2.349 . S
Tb504 O559 2.393 . S
Tb504 C568 2.802 . S
C505 N506 1.379 . S
C505 C508 1.416 . S
C505 C512 1.424 . S
N506 C505 1.379 . S
N506 C509 1.334 . S
N506 Tb515 2.617 . S
C507 C509 1.390 . S
C507 C510 1.339 . S
C507 H527 0.930 . S
C508 C505 1.416 . S
C508 C510 1.416 . S
C508 C514 1.448 . S
C509 N506 1.334 . S
C509 C507 1.390 . S
C509 H520 0.930 . S
C510 C507 1.339 . S
C510 C508 1.416 . S
C510 H531 0.930 . S
C511 C512 1.413 . S
C511 C513 1.427 . S
C511 C517 1.416 . S
C512 C505 1.424 . S
C512 C511 1.413 . S
C512 N516 1.361 . S
C513 C511 1.427 . S
C513 C514 1.328 . S
C513 H528 0.929 . S
C514 C508 1.448 . S
C514 C513 1.328 . S
C514 H529 0.930 . S
Tb515 N506 2.617 . S
Tb515 N516 2.572 . S
Tb515 O550 2.349 . S
Tb515 O553 2.393 . S
Tb515 O554 2.465 . S
Tb515 O555 2.387 . S
Tb515 O557 2.428 . S
Tb515 O558 2.308 . S
Tb515 C579 2.802 . S
N516 C512 1.361 . S
N516 Tb515 2.572 . S
N516 C518 1.340 . S
C517 C511 1.416 . S
C517 C519 1.332 . S
C517 H525 0.931 1_545 S
C518 N516 1.340 . S
C518 C519 1.407 . S
C518 H524 0.930 . S
C519 C517 1.332 . S
C519 C518 1.407 . S
C519 H521 0.929 . S
H520 C509 0.930 . S
H521 C519 0.929 . S
H522 C537 0.930 . S
H523 C544 0.929 . S
H524 C518 0.930 . S
H525 C517 0.931 1_565 S
H526 C540 0.930 . S
H527 C507 0.930 . S
H528 C513 0.929 . S
H529 C514 0.930 . S
H530 C535 0.930 . S
H531 C510 0.930 . S
H532 C543 0.931 . S
N533 Tb504 2.617 . S
N533 C534 1.379 . S
N533 C537 1.334 . S
C534 N533 1.379 . S
C534 C536 1.416 . S
C534 C542 1.424 . S
C535 H530 0.930 . S
C535 C537 1.390 . S
C535 C538 1.339 . S
C536 C534 1.416 . S
C536 C538 1.416 . S
C536 C569 1.448 . S
C537 H522 0.930 . S
C537 N533 1.334 . S
C537 C535 1.390 . S
C538 C535 1.339 . S
C538 C536 1.416 . S
C538 H545 0.930 . S
N539 Tb504 2.572 . S
N539 C540 1.340 . S
N539 C542 1.361 . S
C540 H526 0.930 . S
C540 N539 1.340 . S
C540 C544 1.407 . S
C541 C542 1.413 . S
C541 C543 1.416 . S
C541 C570 1.427 . S
C542 C534 1.424 . S
C542 N539 1.361 . S
C542 C541 1.413 . S
C543 H532 0.931 . S
C543 C541 1.416 . S
C543 C544 1.332 . S
C544 H523 0.929 . S
C544 C540 1.407 . S
C544 C543 1.332 . S
H545 C538 0.930 . S
H546 C569 0.930 . S
H547 C570 0.929 . S
O548 Tb504 2.465 . S
O548 C568 1.264 . S
O549 Tb504 2.387 . S
O549 C560 1.264 . S
O550 Tb515 2.349 . S
O550 C560 1.243 . S
O551 Tb504 2.428 . S
O551 C568 1.256 . S
O552 Tb504 2.308 . S
O552 C567 1.266 . S
O553 Tb515 2.393 . S
O553 C567 1.248 . S
O554 Tb515 2.465 . S
O554 C579 1.264 . S
O555 Tb515 2.387 . S
O555 C571 1.264 . S
O556 Tb504 2.349 . S
O556 C571 1.243 . S
O557 Tb515 2.428 . S
O557 C579 1.256 . S
O558 Tb515 2.308 . S
O558 C578 1.266 . S
O559 Tb504 2.393 . S
O559 C578 1.248 . S
C560 O549 1.264 . S
C560 O550 1.243 . S
C561 C564 1.399 . S
C561 C566 1.383 . S
C561 C568 1.496 . S
C562 C563 1.399 . S
C562 C566 1.389 . S
C563 C562 1.399 . S
C563 C565 1.380 . S
C563 H580 0.929 . S
C564 C561 1.399 . S
C564 C565 1.392 . S
C564 H581 0.929 . S
C565 C563 1.380 . S
C565 C564 1.392 . S
C565 H582 0.929 . S
C566 C561 1.383 . S
C566 C562 1.389 . S
C566 H583 0.931 . S
C567 O552 1.266 . S
C567 O553 1.248 . S
C568 Tb504 2.802 . S
C568 O548 1.264 . S
C568 O551 1.256 . S
C568 C561 1.496 . S
C569 C536 1.448 . S
C569 H546 0.930 . S
C569 C570 1.328 . S
C570 C541 1.427 . S
C570 H547 0.929 . S
C570 C569 1.328 . S
C571 O555 1.264 . S
C571 O556 1.243 . S
C572 C575 1.399 . S
C572 C576 1.383 . S
C572 C579 1.496 . S
C573 C574 1.399 . S
C573 C576 1.389 . S
C574 C573 1.399 . S
C574 C577 1.380 . S
C574 H584 0.929 . S
C575 C572 1.399 . S
C575 C577 1.392 . S
C575 H585 0.929 . S
C576 C572 1.383 . S
C576 C573 1.389 . S
C576 H586 0.931 . S
C577 C574 1.380 . S
C577 C575 1.392 . S
C577 H587 0.929 . S
C578 O558 1.266 . S
C578 O559 1.248 . S
C579 Tb515 2.802 . S
C579 O554 1.264 . S
C579 O557 1.256 . S
C579 C572 1.496 . S
H580 C563 0.929 . S
H581 C564 0.929 . S
H582 C565 0.929 . S
H583 C566 0.931 . S
H584 C574 0.929 . S
H585 C575 0.929 . S
H586 C576 0.931 . S
H587 C577 0.929 . S
Tb588 N617 2.617 . S
Tb588 N623 2.572 . S
Tb588 O632 2.465 . S
Tb588 O633 2.387 . S
Tb588 O635 2.428 . S
Tb588 O636 2.308 . S
Tb588 O640 2.349 . S
Tb588 O643 2.393 . S
Tb588 C652 2.802 . S
C589 N590 1.379 . S
C589 C592 1.416 . S
C589 C596 1.424 . S
N590 C589 1.379 . S
N590 C593 1.334 . S
N590 Tb599 2.617 . S
C591 C593 1.390 . S
C591 C594 1.339 . S
C591 H611 0.930 . S
C592 C589 1.416 . S
C592 C594 1.416 . S
C592 C598 1.448 . S
C593 N590 1.334 . S
C593 C591 1.390 . S
C593 H604 0.930 . S
C594 C591 1.339 . S
C594 C592 1.416 . S
C594 H615 0.930 1_565 S
C595 C596 1.413 . S
C595 C597 1.427 . S
C595 C601 1.416 . S
C596 C589 1.424 . S
C596 C595 1.413 . S
C596 N600 1.361 . S
C597 C595 1.427 . S
C597 C598 1.328 . S
C597 H612 0.929 . S
C598 C592 1.448 . S
C598 C597 1.328 . S
C598 H613 0.930 . S
Tb599 N590 2.617 . S
Tb599 N600 2.572 . S
Tb599 O634 2.349 . S
Tb599 O637 2.393 . S
Tb599 O638 2.465 . S
Tb599 O639 2.387 . S
Tb599 O641 2.428 . S
Tb599 O642 2.308 . S
Tb599 C663 2.802 . S
N600 C596 1.361 . S
N600 Tb599 2.572 . S
N600 C602 1.340 . S
C601 C595 1.416 . S
C601 C603 1.332 . S
C601 H609 0.931 . S
C602 N600 1.340 . S
C602 C603 1.407 . S
C602 H608 0.930 . S
C603 C601 1.332 . S
C603 C602 1.407 . S
C603 H605 0.929 . S
H604 C593 0.930 . S
H605 C603 0.929 . S
H606 C621 0.930 . S
H607 C628 0.929 . S
H608 C602 0.930 . S
H609 C601 0.931 . S
H610 C624 0.930 . S
H611 C591 0.930 . S
H612 C597 0.929 . S
H613 C598 0.930 . S
H614 C619 0.930 . S
H615 C594 0.930 1_545 S
H616 C627 0.931 . S
N617 Tb588 2.617 . S
N617 C618 1.379 . S
N617 C621 1.334 . S
C618 N617 1.379 . S
C618 C620 1.416 . S
C618 C626 1.424 . S
C619 H614 0.930 . S
C619 C621 1.390 . S
C619 C622 1.339 . S
C620 C618 1.416 . S
C620 C622 1.416 . S
C620 C653 1.448 . S
C621 H606 0.930 . S
C621 N617 1.334 . S
C621 C619 1.390 . S
C622 C619 1.339 . S
C622 C620 1.416 . S
C622 H629 0.930 . S
N623 Tb588 2.572 . S
N623 C624 1.340 . S
N623 C626 1.361 . S
C624 H610 0.930 . S
C624 N623 1.340 . S
C624 C628 1.407 . S
C625 C626 1.413 . S
C625 C627 1.416 . S
C625 C654 1.427 . S
C626 C618 1.424 . S
C626 N623 1.361 . S
C626 C625 1.413 . S
C627 H616 0.931 . S
C627 C625 1.416 . S
C627 C628 1.332 . S
C628 H607 0.929 . S
C628 C624 1.407 . S
C628 C627 1.332 . S
H629 C622 0.930 . S
H630 C653 0.930 . S
H631 C654 0.929 . S
O632 Tb588 2.465 . S
O632 C652 1.264 . S
O633 Tb588 2.387 . S
O633 C644 1.264 . S
O634 Tb599 2.349 . S
O634 C644 1.243 . S
O635 Tb588 2.428 . S
O635 C652 1.256 . S
O636 Tb588 2.308 . S
O636 C651 1.266 . S
O637 Tb599 2.393 . S
O637 C651 1.248 . S
O638 Tb599 2.465 . S
O638 C663 1.264 . S
O639 Tb599 2.387 . S
O639 C655 1.264 . S
O640 Tb588 2.349 . S
O640 C655 1.243 . S
O641 Tb599 2.428 . S
O641 C663 1.256 . S
O642 Tb599 2.308 . S
O642 C662 1.266 . S
O643 Tb588 2.393 . S
O643 C662 1.248 . S
C644 O633 1.264 . S
C644 O634 1.243 . S
C645 C648 1.399 . S
C645 C650 1.383 . S
C645 C652 1.496 . S
C646 C647 1.399 . S
C646 C650 1.389 . S
C647 C646 1.399 . S
C647 C649 1.380 . S
C647 H664 0.929 . S
C648 C645 1.399 . S
C648 C649 1.392 . S
C648 H665 0.929 . S
C649 C647 1.380 . S
C649 C648 1.392 . S
C649 H666 0.929 . S
C650 C645 1.383 . S
C650 C646 1.389 . S
C650 H667 0.931 . S
C651 O636 1.266 . S
C651 O637 1.248 . S
C652 Tb588 2.802 . S
C652 O632 1.264 . S
C652 O635 1.256 . S
C652 C645 1.496 . S
C653 C620 1.448 . S
C653 H630 0.930 . S
C653 C654 1.328 . S
C654 C625 1.427 . S
C654 H631 0.929 . S
C654 C653 1.328 . S
C655 O639 1.264 . S
C655 O640 1.243 . S
C656 C659 1.399 . S
C656 C660 1.383 . S
C656 C663 1.496 . S
C657 C658 1.399 . S
C657 C660 1.389 . S
C658 C657 1.399 . S
C658 C661 1.380 . S
C658 H668 0.929 . S
C659 C656 1.399 . S
C659 C661 1.392 . S
C659 H669 0.929 . S
C660 C656 1.383 . S
C660 C657 1.389 . S
C660 H670 0.931 . S
C661 C658 1.380 . S
C661 C659 1.392 . S
C661 H671 0.929 1_655 S
C662 O642 1.266 . S
C662 O643 1.248 . S
C663 Tb599 2.802 . S
C663 O638 1.264 . S
C663 O641 1.256 . S
C663 C656 1.496 . S
H664 C647 0.929 . S
H665 C648 0.929 . S
H666 C649 0.929 . S
H667 C650 0.931 . S
H668 C658 0.929 . S
H669 C659 0.929 . S
H670 C660 0.931 . S
H671 C661 0.929 1_455 S
C672 O684 1.241 . S
C672 O685 1.280 . S
C673 O686 1.277 . S
C673 O687 1.245 . S
C674 O698 1.247 . S
C674 O700 1.289 . S
Mg675 O676 1.926 1_455 S
Mg675 O685 1.984 1_455 S
Mg675 O687 1.988 1_455 S
Mg675 O688 2.061 . S
O676 Mg675 1.926 1_655 S
O676 Mg677 1.986 1_545 S
O676 Mg678 1.900 1_655 S
Mg677 O676 1.986 1_565 S
Mg677 O684 2.042 1_565 S
Mg677 O686 2.041 1_565 S
Mg677 O692 2.038 . S
Mg677 O700 2.238 . S
Mg678 O676 1.900 1_455 S
Mg678 O679 1.934 1_545 S
Mg678 O689 2.126 . S
Mg678 O691 2.073 1_445 S
Mg678 O700 2.087 1_445 S
Mg678 O701 2.085 . S
O679 Mg678 1.934 1_565 S
O679 Mg680 1.926 . S
O679 Mg681 1.986 1_565 S
Mg680 O679 1.926 . S
Mg680 O694 1.988 . S
Mg680 O697 1.990 . S
Mg680 O698 2.056 1_455 S
Mg681 O679 1.986 1_545 S
Mg681 O689 2.238 . S
Mg681 O693 2.042 1_545 S
Mg681 O695 2.041 1_545 S
Mg681 O702 2.038 . S
C682 O688 1.247 . S
C682 O689 1.289 . S
C683 O701 1.245 . S
C683 O702 1.274 . S
O684 C672 1.241 . S
O684 Mg677 2.042 1_545 S
O685 C672 1.280 . S
O685 Mg675 1.984 1_655 S
O686 C673 1.277 . S
O686 Mg677 2.041 1_545 S
O687 C673 1.245 . S
O687 Mg675 1.988 1_655 S
O688 Mg675 2.061 . S
O688 C682 1.247 . S
O689 Mg678 2.126 . S
O689 Mg681 2.238 . S
O689 C682 1.289 . S
C690 O691 1.245 . S
C690 O692 1.274 . S
O691 Mg678 2.073 1_665 S
O691 C690 1.245 . S
O692 Mg677 2.038 . S
O692 C690 1.274 . S
O693 Mg681 2.042 1_565 S
O693 C696 1.241 . S
O694 Mg680 1.988 . S
O694 C696 1.280 . S
O695 Mg681 2.041 1_565 S
O695 C699 1.277 . S
C696 O693 1.241 . S
C696 O694 1.280 . S
O697 Mg680 1.990 . S
O697 C699 1.245 . S
O698 C674 1.247 . S
O698 Mg680 2.056 1_655 S
C699 O695 1.277 . S
C699 O697 1.245 . S
O700 C674 1.289 . S
O700 Mg677 2.238 . S
O700 Mg678 2.087 1_665 S
O701 Mg678 2.085 . S
O701 C683 1.245 . S
O702 Mg681 2.038 . S
O702 C683 1.274 . S
C703 O715 1.241 . S
C703 O716 1.280 . S
C704 O717 1.277 . S
C704 O718 1.245 . S
C705 O729 1.247 . S
C705 O731 1.289 . S
Mg706 O707 1.926 . S
Mg706 O716 1.984 . S
Mg706 O718 1.988 1_554 S
Mg706 O719 2.061 . S
O707 Mg706 1.926 . S
O707 Mg708 1.986 1_545 S
O707 Mg709 1.927 . S
Mg708 O707 1.986 1_565 S
Mg708 O715 2.042 1_565 S
Mg708 O717 2.041 1_564 S
Mg708 O723 2.038 . S
Mg708 O731 2.238 1_554 S
Mg709 O707 1.927 . S
Mg709 O710 1.907 1_544 S
Mg709 O720 2.119 . S
Mg709 O722 2.093 1_545 S
Mg709 O731 2.094 1_544 S
Mg709 O732 2.064 1_554 S
O710 Mg709 1.907 1_566 S
O710 Mg711 1.926 . S
O710 Mg712 1.986 1_565 S
Mg711 O710 1.926 . S
Mg711 O725 1.984 . S
Mg711 O728 1.988 1_556 S
Mg711 O729 2.061 . S
Mg712 O710 1.986 1_545 S
Mg712 O720 2.238 1_556 S
Mg712 O724 2.042 1_545 S
Mg712 O726 2.041 1_546 S
Mg712 O733 2.038 . S
C713 O719 1.247 . S
C713 O720 1.289 . S
C714 O732 1.245 . S
C714 O733 1.274 . S
O715 C703 1.241 . S
O715 Mg708 2.042 1_545 S
O716 C703 1.280 . S
O716 Mg706 1.984 . S
O717 C704 1.277 . S
O717 Mg708 2.041 1_546 S
O718 C704 1.245 . S
O718 Mg706 1.988 1_556 S
O719 Mg706 2.061 . S
O719 C713 1.247 . S
O720 Mg709 2.119 . S
O720 Mg712 2.238 1_554 S
O720 C713 1.289 . S
C721 O722 1.245 . S
C721 O723 1.274 . S
O722 Mg709 2.093 1_565 S
O722 C721 1.245 . S
O723 Mg708 2.038 . S
O723 C721 1.274 . S
O724 Mg712 2.042 1_565 S
O724 C727 1.241 . S
O725 Mg711 1.984 . S
O725 C727 1.280 . S
O726 Mg712 2.041 1_564 S
O726 C730 1.277 . S
C727 O724 1.241 . S
C727 O725 1.280 . S
O728 Mg711 1.988 1_554 S
O728 C730 1.245 . S
O729 C705 1.247 . S
O729 Mg711 2.061 . S
C730 O726 1.277 . S
C730 O728 1.245 . S
O731 C705 1.289 . S
O731 Mg708 2.238 1_556 S
O731 Mg709 2.094 1_566 S
O732 Mg709 2.064 1_556 S
O732 C714 1.245 . S
O733 Mg712 2.038 . S
O733 C714 1.274 . S
C734 O746 1.241 . S
C734 O747 1.280 . S
C735 O748 1.277 . S
C735 O749 1.245 . S
C736 O760 1.247 . S
C736 O762 1.289 . S
Mg737 O738 1.926 1_455 S
Mg737 O747 1.984 1_455 S
Mg737 O749 1.988 1_454 S
Mg737 O750 2.061 . S
O738 Mg737 1.926 1_655 S
O738 Mg739 1.986 . S
O738 Mg740 1.898 1_655 S
Mg739 O738 1.986 . S
Mg739 O746 2.042 . S
Mg739 O748 2.041 1_554 S
Mg739 O754 2.038 . S
Mg739 O762 2.238 1_554 S
Mg740 O738 1.898 1_455 S
Mg740 O741 1.936 1_554 S
Mg740 O751 2.138 . S
Mg740 O753 2.094 1_455 S
Mg740 O762 2.075 1_454 S
Mg740 O763 2.064 1_554 S
O741 Mg740 1.936 1_556 S
O741 Mg742 1.926 . S
O741 Mg743 1.986 . S
Mg742 O741 1.926 . S
Mg742 O756 1.989 . S
Mg742 O759 1.990 1_556 S
Mg742 O760 2.056 1_455 S
Mg743 O741 1.986 . S
Mg743 O751 2.238 1_556 S
Mg743 O755 2.042 . S
Mg743 O757 2.041 1_556 S
Mg743 O764 2.038 . S
C744 O750 1.247 . S
C744 O751 1.289 . S
C745 O763 1.245 . S
C745 O764 1.274 . S
O746 C734 1.241 . S
O746 Mg739 2.042 . S
O747 C734 1.280 . S
O747 Mg737 1.984 1_655 S
O748 C735 1.277 . S
O748 Mg739 2.041 1_556 S
O749 C735 1.245 . S
O749 Mg737 1.988 1_656 S
O750 Mg737 2.061 . S
O750 C744 1.247 . S
O751 Mg740 2.138 . S
O751 Mg743 2.238 1_554 S
O751 C744 1.289 . S
C752 O753 1.245 . S
C752 O754 1.274 . S
O753 Mg740 2.094 1_655 S
O753 C752 1.245 . S
O754 Mg739 2.038 . S
O754 C752 1.274 . S
O755 Mg743 2.042 . S
O755 C758 1.241 . S
O756 Mg742 1.989 . S
O756 C758 1.280 . S
O757 Mg743 2.041 1_554 S
O757 C761 1.277 . S
C758 O755 1.241 . S
C758 O756 1.280 . S
O759 Mg742 1.990 1_554 S
O759 C761 1.245 . S
O760 C736 1.247 . S
O760 Mg742 2.056 1_655 S
C761 O757 1.277 . S
C761 O759 1.245 . S
O762 C736 1.289 . S
O762 Mg739 2.238 1_556 S
O762 Mg740 2.075 1_656 S
O763 Mg740 2.064 1_556 S
O763 C745 1.245 . S
O764 Mg743 2.038 . S
O764 C745 1.274 . S
C765 O777 1.241 . S
C765 O778 1.280 . S
C766 O779 1.277 . S
C766 O780 1.245 . S
C767 O791 1.247 . S
C767 O793 1.289 . S
Mg768 O769 1.926 . S
Mg768 O778 1.984 . S
Mg768 O780 1.988 1_554 S
Mg768 O781 2.061 . S
O769 Mg768 1.926 . S
O769 Mg770 1.986 . S
O769 Mg771 1.921 . S
Mg770 O769 1.986 . S
Mg770 O777 2.042 . S
Mg770 O779 2.041 1_554 S
Mg770 O785 2.038 . S
Mg770 O793 2.238 1_554 S
Mg771 O769 1.921 . S
Mg771 O772 1.913 1_554 S
Mg771 O782 2.119 . S
Mg771 O784 2.097 . S
Mg771 O793 2.094 1_554 S
Mg771 O794 2.061 1_554 S
O772 Mg771 1.913 1_556 S
O772 Mg773 1.926 . S
O772 Mg774 1.986 . S
Mg773 O772 1.926 . S
Mg773 O787 1.984 . S
Mg773 O790 1.988 1_556 S
Mg773 O791 2.061 . S
Mg774 O772 1.986 . S
Mg774 O782 2.238 1_556 S
Mg774 O786 2.042 . S
Mg774 O788 2.041 1_556 S
Mg774 O795 2.038 . S
C775 O781 1.247 . S
C775 O782 1.289 . S
C776 O794 1.245 . S
C776 O795 1.274 . S
O777 C765 1.241 . S
O777 Mg770 2.042 . S
O778 C765 1.280 . S
O778 Mg768 1.984 . S
O779 C766 1.277 . S
O779 Mg770 2.041 1_556 S
O780 C766 1.245 . S
O780 Mg768 1.988 1_556 S
O781 Mg768 2.061 . S
O781 C775 1.247 . S
O782 Mg771 2.119 . S
O782 Mg774 2.238 1_554 S
O782 C775 1.289 . S
C783 O784 1.245 . S
C783 O785 1.274 . S
O784 Mg771 2.097 . S
O784 C783 1.245 . S
O785 Mg770 2.038 . S
O785 C783 1.274 . S
O786 Mg774 2.042 . S
O786 C789 1.241 . S
O787 Mg773 1.984 . S
O787 C789 1.280 . S
O788 Mg774 2.041 1_554 S
O788 C792 1.277 . S
C789 O786 1.241 . S
C789 O787 1.280 . S
O790 Mg773 1.988 1_554 S
O790 C792 1.245 . S
O791 C767 1.247 . S
O791 Mg773 2.061 . S
C792 O788 1.277 . S
C792 O790 1.245 . S
O793 C767 1.289 . S
O793 Mg770 2.238 1_556 S
O793 Mg771 2.094 1_556 S
O794 Mg771 2.061 1_556 S
O794 C776 1.245 . S
O795 Mg774 2.038 . S
O795 C776 1.274 . S
C796 O808 1.241 . S
C796 O809 1.280 . S
C797 O810 1.277 . S
C797 O811 1.245 . S
C798 O822 1.247 . S
C798 O824 1.289 . S
Mg799 O800 1.926 1_455 S
Mg799 O809 1.984 1_455 S
Mg799 O811 1.988 1_455 S
Mg799 O812 2.061 . S
O800 Mg799 1.926 1_655 S
O800 Mg801 1.986 . S
O800 Mg802 1.894 1_655 S
Mg801 O800 1.986 . S
Mg801 O808 2.042 . S
Mg801 O810 2.041 . S
Mg801 O816 2.038 . S
Mg801 O824 2.238 . S
Mg802 O800 1.894 1_455 S
Mg802 O803 1.940 . S
Mg802 O813 2.126 . S
Mg802 O815 2.076 1_455 S
Mg802 O824 2.087 1_455 S
Mg802 O825 2.082 . S
O803 Mg802 1.940 . S
O803 Mg804 1.926 . S
O803 Mg805 1.986 . S
Mg804 O803 1.926 . S
Mg804 O818 1.988 . S
Mg804 O821 1.990 . S
Mg804 O822 2.056 1_455 S
Mg805 O803 1.986 . S
Mg805 O813 2.238 . S
Mg805 O817 2.042 . S
Mg805 O819 2.041 . S
Mg805 O826 2.038 . S
C806 O812 1.247 . S
C806 O813 1.289 . S
C807 O825 1.245 . S
C807 O826 1.274 . S
O808 C796 1.241 . S
O808 Mg801 2.042 . S
O809 C796 1.280 . S
O809 Mg799 1.984 1_655 S
O810 C797 1.277 . S
O810 Mg801 2.041 . S
O811 C797 1.245 . S
O811 Mg799 1.988 1_655 S
O812 Mg799 2.061 . S
O812 C806 1.247 . S
O813 Mg802 2.126 . S
O813 Mg805 2.238 . S
O813 C806 1.289 . S
C814 O815 1.245 . S
C814 O816 1.274 . S
O815 Mg802 2.076 1_655 S
O815 C814 1.245 . S
O816 Mg801 2.038 . S
O816 C814 1.274 . S
O817 Mg805 2.042 . S
O817 C820 1.241 . S
O818 Mg804 1.988 . S
O818 C820 1.280 . S
O819 Mg805 2.041 . S
O819 C823 1.277 . S
C820 O817 1.241 . S
C820 O818 1.280 . S
O821 Mg804 1.990 . S
O821 C823 1.245 . S
O822 C798 1.247 . S
O822 Mg804 2.056 1_655 S
C823 O819 1.277 . S
C823 O821 1.245 . S
O824 C798 1.289 . S
O824 Mg801 2.238 . S
O824 Mg802 2.087 1_655 S
O825 Mg802 2.082 . S
O825 C807 1.245 . S
O826 Mg805 2.038 . S
O826 C807 1.274 . S
C827 O839 1.241 . S
C827 O840 1.280 . S
C828 O841 1.277 . S
C828 O842 1.245 . S
C829 O853 1.247 . S
C829 O855 1.289 . S
Mg830 O831 1.926 . S
Mg830 O840 1.984 . S
Mg830 O842 1.988 . S
Mg830 O843 2.061 . S
O831 Mg830 1.926 . S
O831 Mg832 1.986 1_545 S
O831 Mg833 1.923 . S
Mg832 O831 1.986 1_565 S
Mg832 O839 2.042 1_565 S
Mg832 O841 2.041 1_565 S
Mg832 O847 2.038 . S
Mg832 O855 2.238 . S
Mg833 O831 1.923 . S
Mg833 O834 1.911 1_545 S
Mg833 O844 2.107 . S
Mg833 O846 2.075 1_545 S
Mg833 O855 2.106 1_545 S
Mg833 O856 2.082 . S
O834 Mg833 1.911 1_565 S
O834 Mg835 1.926 . S
O834 Mg836 1.986 1_565 S
Mg835 O834 1.926 . S
Mg835 O849 1.984 . S
Mg835 O852 1.988 . S
Mg835 O853 2.061 . S
Mg836 O834 1.986 1_545 S
Mg836 O844 2.238 . S
Mg836 O848 2.042 1_545 S
Mg836 O850 2.041 1_545 S
Mg836 O857 2.038 . S
C837 O843 1.247 . S
C837 O844 1.289 . S
C838 O856 1.245 . S
C838 O857 1.274 . S
O839 C827 1.241 . S
O839 Mg832 2.042 1_545 S
O840 C827 1.280 . S
O840 Mg830 1.984 . S
O841 C828 1.277 . S
O841 Mg832 2.041 1_545 S
O842 C828 1.245 . S
O842 Mg830 1.988 . S
O843 Mg830 2.061 . S
O843 C837 1.247 . S
O844 Mg833 2.107 . S
O844 Mg836 2.238 . S
O844 C837 1.289 . S
C845 O846 1.245 . S
C845 O847 1.274 . S
O846 Mg833 2.075 1_565 S
O846 C845 1.245 . S
O847 Mg832 2.038 . S
O847 C845 1.274 . S
O848 Mg836 2.042 1_565 S
O848 C851 1.241 . S
O849 Mg835 1.984 . S
O849 C851 1.280 . S
O850 Mg836 2.041 1_565 S
O850 C854 1.277 . S
C851 O848 1.241 . S
C851 O849 1.280 . S
O852 Mg835 1.988 . S
O852 C854 1.245 . S
O853 C829 1.247 . S
O853 Mg835 2.061 . S
C854 O850 1.277 . S
C854 O852 1.245 . S
O855 C829 1.289 . S
O855 Mg832 2.238 . S
O855 Mg833 2.106 1_565 S
O856 Mg833 2.082 . S
O856 C838 1.245 . S
O857 Mg836 2.038 . S
O857 C838 1.274 . S
C858 C859 1.387 . S
C858 H862 0.950 . S
C858 C867 1.390 . S
C859 C858 1.387 . S
C859 C861 1.387 . S
H860 C867 0.950 . S
C861 C859 1.387 . S
C861 C863 1.390 . S
C861 H865 0.950 . S
H862 C858 0.950 . S
C863 C861 1.390 . S
C863 C864 1.387 . S
C863 H866 0.950 . S
C864 C863 1.387 . S
C864 C867 1.387 . S
H865 C861 0.950 . S
H866 C863 0.950 . S
C867 C858 1.390 . S
C867 H860 0.950 . S
C867 C864 1.387 . S
C868 C869 1.387 . S
C868 H872 0.950 . S
C868 C877 1.390 . S
C869 C868 1.387 . S
C869 C871 1.387 . S
H870 C877 0.950 . S
C871 C869 1.387 . S
C871 C873 1.390 . S
C871 H875 0.950 . S
H872 C868 0.950 . S
C873 C871 1.390 . S
C873 C874 1.387 . S
C873 H876 0.950 . S
C874 C873 1.387 . S
C874 C877 1.387 . S
H875 C871 0.950 . S
H876 C873 0.950 . S
C877 C868 1.390 . S
C877 H870 0.950 . S
C877 C874 1.387 . S
C878 C879 1.387 . S
C878 H882 0.950 . S
C878 C887 1.390 . S
C879 C878 1.387 . S
C879 C881 1.387 . S
H880 C887 0.950 . S
C881 C879 1.387 . S
C881 C883 1.390 . S
C881 H885 0.950 . S
H882 C878 0.950 . S
C883 C881 1.390 . S
C883 C884 1.387 . S
C883 H886 0.950 . S
C884 C883 1.387 . S
C884 C887 1.387 . S
H885 C881 0.950 . S
H886 C883 0.950 . S
C887 C878 1.390 . S
C887 H880 0.950 . S
C887 C884 1.387 . S
C888 C889 1.387 . S
C888 H892 0.950 . S
C888 C897 1.390 . S
C889 C888 1.387 . S
C889 C891 1.387 . S
H890 C897 0.950 . S
C891 C889 1.387 . S
C891 C893 1.390 . S
C891 H895 0.950 . S
H892 C888 0.950 . S
C893 C891 1.390 . S
C893 C894 1.387 . S
C893 H896 0.950 . S
C894 C893 1.387 . S
C894 C897 1.387 . S
H895 C891 0.950 . S
H896 C893 0.950 . S
C897 C888 1.390 . S
C897 H890 0.950 . S
C897 C894 1.387 . S
C898 C899 1.387 . S
C898 H902 0.950 . S
C898 C907 1.390 . S
C899 C898 1.387 . S
C899 C901 1.387 . S
H900 C907 0.950 . S
C901 C899 1.387 . S
C901 C903 1.390 . S
C901 H905 0.950 . S
H902 C898 0.950 . S
C903 C901 1.390 . S
C903 C904 1.387 . S
C903 H906 0.950 . S
C904 C903 1.387 . S
C904 C907 1.387 . S
H905 C901 0.950 . S
H906 C903 0.950 . S
C907 C898 1.390 . S
C907 H900 0.950 . S
C907 C904 1.387 . S
C908 C909 1.387 . S
C908 H912 0.950 . S
C908 C917 1.390 . S
C909 C908 1.387 . S
C909 C911 1.387 . S
H910 C917 0.950 . S
C911 C909 1.387 . S
C911 C913 1.390 . S
C911 H915 0.950 . S
H912 C908 0.950 . S
C913 C911 1.390 . S
C913 C914 1.387 . S
C913 H916 0.950 . S
C914 C913 1.387 . S
C914 C917 1.387 . S
H915 C911 0.950 . S
H916 C913 0.950 . S
C917 C908 1.390 . S
C917 H910 0.950 . S
C917 C914 1.387 . S
C918 C919 1.387 . S
C918 H922 0.950 . S
C918 C927 1.390 . S
C919 C918 1.387 . S
C919 C921 1.387 . S
H920 C927 0.950 . S
C921 C919 1.387 . S
C921 C923 1.390 . S
C921 H925 0.950 . S
H922 C918 0.950 . S
C923 C921 1.390 . S
C923 C924 1.387 . S
C923 H926 0.950 . S
C924 C923 1.387 . S
C924 C927 1.387 . S
H925 C921 0.950 . S
H926 C923 0.950 . S
C927 C918 1.390 . S
C927 H920 0.950 . S
C927 C924 1.387 . S
C928 C929 1.387 . S
C928 H932 0.950 . S
C928 C937 1.390 . S
C929 C928 1.387 . S
C929 C931 1.387 . S
H930 C937 0.950 . S
C931 C929 1.387 . S
C931 C933 1.390 . S
C931 H935 0.950 . S
H932 C928 0.950 . S
C933 C931 1.390 . S
C933 C934 1.387 . S
C933 H936 0.950 . S
C934 C933 1.387 . S
C934 C937 1.387 . S
H935 C931 0.950 . S
H936 C933 0.950 . S
C937 C928 1.390 . S
C937 H930 0.950 . S
C937 C934 1.387 . S
C938 C939 1.387 . S
C938 H942 0.950 . S
C938 C947 1.390 . S
C939 C938 1.387 . S
C939 C941 1.387 . S
H940 C947 0.950 . S
C941 C939 1.387 . S
C941 C943 1.390 . S
C941 H945 0.950 . S
H942 C938 0.950 . S
C943 C941 1.390 . S
C943 C944 1.387 . S
C943 H946 0.950 . S
C944 C943 1.387 . S
C944 C947 1.387 . S
H945 C941 0.950 . S
H946 C943 0.950 . S
C947 C938 1.390 . S
C947 H940 0.950 . S
C947 C944 1.387 . S
C948 C949 1.387 . S
C948 H952 0.950 . S
C948 C957 1.390 . S
C949 C948 1.387 . S
C949 C951 1.387 . S
H950 C957 0.950 . S
C951 C949 1.387 . S
C951 C953 1.390 . S
C951 H955 0.950 . S
H952 C948 0.950 . S
C953 C951 1.390 . S
C953 C954 1.387 . S
C953 H956 0.950 . S
C954 C953 1.387 . S
C954 C957 1.387 . S
H955 C951 0.950 . S
H956 C953 0.950 . S
C957 C948 1.390 . S
C957 H950 0.950 . S
C957 C954 1.387 . S
C958 C959 1.387 . S
C958 H962 0.950 . S
C958 C967 1.390 . S
C959 C958 1.387 . S
C959 C961 1.387 . S
H960 C967 0.950 . S
C961 C959 1.387 . S
C961 C963 1.390 . S
C961 H965 0.950 . S
H962 C958 0.950 . S
C963 C961 1.390 . S
C963 C964 1.387 . S
C963 H966 0.950 . S
C964 C963 1.387 . S
C964 C967 1.387 . S
H965 C961 0.950 . S
H966 C963 0.950 . S
C967 C958 1.390 . S
C967 H960 0.950 . S
C967 C964 1.387 . S
C968 C969 1.387 . S
C968 H972 0.950 . S
C968 C977 1.390 . S
C969 C968 1.387 . S
C969 C971 1.387 . S
H970 C977 0.950 . S
C971 C969 1.387 . S
C971 C973 1.390 . S
C971 H975 0.950 . S
H972 C968 0.950 . S
C973 C971 1.390 . S
C973 C974 1.387 . S
C973 H976 0.950 . S
C974 C973 1.387 . S
C974 C977 1.387 . S
H975 C971 0.950 . S
H976 C973 0.950 . S
C977 C968 1.390 . S
C977 H970 0.950 . S
C977 C974 1.387 . S
C978 C979 1.387 . S
C978 H982 0.950 . S
C978 C987 1.390 . S
C979 C978 1.387 . S
C979 C981 1.387 . S
H980 C987 0.950 . S
C981 C979 1.387 . S
C981 C983 1.390 . S
C981 H985 0.950 . S
H982 C978 0.950 . S
C983 C981 1.390 . S
C983 C984 1.387 . S
C983 H986 0.950 . S
C984 C983 1.387 . S
C984 C987 1.387 . S
H985 C981 0.950 . S
H986 C983 0.950 . S
C987 C978 1.390 . S
C987 H980 0.950 . S
C987 C984 1.387 . S
C988 C989 1.387 . S
C988 H992 0.950 . S
C988 C997 1.390 . S
C989 C988 1.387 . S
C989 C991 1.387 . S
H990 C997 0.950 . S
C991 C989 1.387 . S
C991 C993 1.390 . S
C991 H995 0.950 . S
H992 C988 0.950 . S
C993 C991 1.390 . S
C993 C994 1.387 . S
C993 H996 0.950 . S
C994 C993 1.387 . S
C994 C997 1.387 . S
H995 C991 0.950 . S
H996 C993 0.950 . S
C997 C988 1.390 . S
C997 H990 0.950 . S
C997 C994 1.387 . S
C998 C999 1.387 . S
C998 H1002 0.950 . S
C998 C1007 1.390 . S
C999 C998 1.387 . S
C999 C1001 1.387 . S
H1000 C1007 0.950 . S
C1001 C999 1.387 . S
C1001 C1003 1.390 . S
C1001 H1005 0.950 . S
H1002 C998 0.950 . S
C1003 C1001 1.390 . S
C1003 C1004 1.387 . S
C1003 H1006 0.950 . S
C1004 C1003 1.387 . S
C1004 C1007 1.387 . S
H1005 C1001 0.950 . S
H1006 C1003 0.950 . S
C1007 C998 1.390 . S
C1007 H1000 0.950 . S
C1007 C1004 1.387 . S
C1008 C1009 1.387 . S
C1008 H1012 0.950 . S
C1008 C1017 1.390 . S
C1009 C1008 1.387 . S
C1009 C1011 1.387 . S
H1010 C1017 0.950 . S
C1011 C1009 1.387 . S
C1011 C1013 1.390 . S
C1011 H1015 0.950 . S
H1012 C1008 0.950 . S
C1013 C1011 1.390 . S
C1013 C1014 1.387 . S
C1013 H1016 0.950 . S
C1014 C1013 1.387 . S
C1014 C1017 1.387 . S
H1015 C1011 0.950 . S
H1016 C1013 0.950 . S
C1017 C1008 1.390 . S
C1017 H1010 0.950 . S
C1017 C1014 1.387 . S
C1018 C1019 1.387 . S
C1018 H1022 0.950 . S
C1018 C1027 1.390 . S
C1019 C1018 1.387 . S
C1019 C1021 1.387 . S
H1020 C1027 0.950 . S
C1021 C1019 1.387 . S
C1021 C1023 1.390 . S
C1021 H1025 0.950 . S
H1022 C1018 0.950 . S
C1023 C1021 1.390 . S
C1023 C1024 1.387 . S
C1023 H1026 0.950 . S
C1024 C1023 1.387 . S
C1024 C1027 1.387 . S
H1025 C1021 0.950 . S
H1026 C1023 0.950 . S
C1027 C1018 1.390 . S
C1027 H1020 0.950 . S
C1027 C1024 1.387 . S
C1028 C1029 1.387 . S
C1028 H1032 0.950 . S
C1028 C1037 1.390 . S
C1029 C1028 1.387 . S
C1029 C1031 1.387 . S
H1030 C1037 0.950 . S
C1031 C1029 1.387 . S
C1031 C1033 1.390 . S
C1031 H1035 0.950 . S
H1032 C1028 0.950 . S
C1033 C1031 1.390 . S
C1033 C1034 1.387 . S
C1033 H1036 0.950 . S
C1034 C1033 1.387 . S
C1034 C1037 1.387 . S
H1035 C1031 0.950 . S
H1036 C1033 0.950 . S
C1037 C1028 1.390 . S
C1037 H1030 0.950 . S
C1037 C1034 1.387 . S
C1038 C1039 1.387 . S
C1038 H1042 0.950 . S
C1038 C1047 1.390 . S
C1039 C1038 1.387 . S
C1039 C1041 1.387 . S
H1040 C1047 0.950 . S
C1041 C1039 1.387 . S
C1041 C1043 1.390 . S
C1041 H1045 0.950 . S
H1042 C1038 0.950 . S
C1043 C1041 1.390 . S
C1043 C1044 1.387 . S
C1043 H1046 0.950 . S
C1044 C1043 1.387 . S
C1044 C1047 1.387 . S
H1045 C1041 0.950 . S
H1046 C1043 0.950 . S
C1047 C1038 1.390 . S
C1047 H1040 0.950 . S
C1047 C1044 1.387 . S
C1048 C1049 1.387 . S
C1048 H1052 0.950 . S
C1048 C1057 1.390 . S
C1049 C1048 1.387 . S
C1049 C1051 1.387 . S
H1050 C1057 0.950 . S
C1051 C1049 1.387 . S
C1051 C1053 1.390 . S
C1051 H1055 0.950 . S
H1052 C1048 0.950 . S
C1053 C1051 1.390 . S
C1053 C1054 1.387 . S
C1053 H1056 0.950 . S
C1054 C1053 1.387 . S
C1054 C1057 1.387 . S
H1055 C1051 0.950 . S
H1056 C1053 0.950 . S
C1057 C1048 1.390 . S
C1057 H1050 0.950 . S
C1057 C1054 1.387 . S
C1058 C1059 1.387 . S
C1058 H1062 0.950 . S
C1058 C1067 1.390 . S
C1059 C1058 1.387 . S
C1059 C1061 1.387 . S
H1060 C1067 0.950 . S
C1061 C1059 1.387 . S
C1061 C1063 1.390 . S
C1061 H1065 0.950 . S
H1062 C1058 0.950 . S
C1063 C1061 1.390 . S
C1063 C1064 1.387 . S
C1063 H1066 0.950 . S
C1064 C1063 1.387 . S
C1064 C1067 1.387 . S
H1065 C1061 0.950 . S
H1066 C1063 0.950 . S
C1067 C1058 1.390 . S
C1067 H1060 0.950 . S
C1067 C1064 1.387 . S
C1068 C1069 1.387 . S
C1068 H1072 0.950 . S
C1068 C1077 1.390 . S
C1069 C1068 1.387 . S
C1069 C1071 1.387 . S
H1070 C1077 0.950 . S
C1071 C1069 1.387 . S
C1071 C1073 1.390 . S
C1071 H1075 0.950 . S
H1072 C1068 0.950 . S
C1073 C1071 1.390 . S
C1073 C1074 1.387 . S
C1073 H1076 0.950 . S
C1074 C1073 1.387 . S
C1074 C1077 1.387 . S
H1075 C1071 0.950 . S
H1076 C1073 0.950 . S
C1077 C1068 1.390 . S
C1077 H1070 0.950 . S
C1077 C1074 1.387 . S
C1078 C1079 1.387 . S
C1078 H1082 0.950 . S
C1078 C1087 1.390 . S
C1079 C1078 1.387 . S
C1079 C1081 1.387 . S
H1080 C1087 0.950 . S
C1081 C1079 1.387 . S
C1081 C1083 1.390 . S
C1081 H1085 0.950 . S
H1082 C1078 0.950 . S
C1083 C1081 1.390 . S
C1083 C1084 1.387 . S
C1083 H1086 0.950 . S
C1084 C1083 1.387 . S
C1084 C1087 1.387 . S
H1085 C1081 0.950 . S
H1086 C1083 0.950 . S
C1087 C1078 1.390 . S
C1087 H1080 0.950 . S
C1087 C1084 1.387 . S
C1088 C1089 1.387 . S
C1088 H1092 0.950 . S
C1088 C1097 1.390 . S
C1089 C1088 1.387 . S
C1089 C1091 1.387 . S
H1090 C1097 0.950 . S
C1091 C1089 1.387 . S
C1091 C1093 1.390 . S
C1091 H1095 0.950 . S
H1092 C1088 0.950 . S
C1093 C1091 1.390 . S
C1093 C1094 1.387 . S
C1093 H1096 0.950 . S
C1094 C1093 1.387 . S
C1094 C1097 1.387 . S
H1095 C1091 0.950 . S
H1096 C1093 0.950 . S
C1097 C1088 1.390 . S
C1097 H1090 0.950 . S
C1097 C1094 1.387 . S
C1098 C1099 1.387 . S
C1098 H1102 0.950 . S
C1098 C1107 1.390 . S
C1099 C1098 1.387 . S
C1099 C1101 1.387 . S
H1100 C1107 0.950 . S
C1101 C1099 1.387 . S
C1101 C1103 1.390 . S
C1101 H1105 0.950 . S
H1102 C1098 0.950 . S
C1103 C1101 1.390 . S
C1103 C1104 1.387 . S
C1103 H1106 0.950 . S
C1104 C1103 1.387 . S
C1104 C1107 1.387 . S
H1105 C1101 0.950 . S
H1106 C1103 0.950 . S
C1107 C1098 1.390 . S
C1107 H1100 0.950 . S
C1107 C1104 1.387 . S
C1108 C1109 1.387 . S
C1108 H1112 0.950 . S
C1108 C1117 1.390 . S
C1109 C1108 1.387 . S
C1109 C1111 1.387 . S
H1110 C1117 0.950 . S
C1111 C1109 1.387 . S
C1111 C1113 1.390 . S
C1111 H1115 0.950 . S
H1112 C1108 0.950 . S
C1113 C1111 1.390 . S
C1113 C1114 1.387 . S
C1113 H1116 0.950 . S
C1114 C1113 1.387 . S
C1114 C1117 1.387 . S
H1115 C1111 0.950 . S
H1116 C1113 0.950 . S
C1117 C1108 1.390 . S
C1117 H1110 0.950 . S
C1117 C1114 1.387 . S
C1118 C1119 1.387 . S
C1118 H1122 0.950 . S
C1118 C1127 1.390 . S
C1119 C1118 1.387 . S
C1119 C1121 1.387 . S
H1120 C1127 0.950 . S
C1121 C1119 1.387 . S
C1121 C1123 1.390 . S
C1121 H1125 0.950 . S
H1122 C1118 0.950 . S
C1123 C1121 1.390 . S
C1123 C1124 1.387 . S
C1123 H1126 0.950 . S
C1124 C1123 1.387 . S
C1124 C1127 1.387 . S
H1125 C1121 0.950 . S
H1126 C1123 0.950 . S
C1127 C1118 1.390 . S
C1127 H1120 0.950 . S
C1127 C1124 1.387 . S
C1128 C1129 1.387 . S
C1128 H1132 0.950 . S
C1128 C1137 1.390 . S
C1129 C1128 1.387 . S
C1129 C1131 1.387 . S
H1130 C1137 0.950 . S
C1131 C1129 1.387 . S
C1131 C1133 1.390 . S
C1131 H1135 0.950 . S
H1132 C1128 0.950 . S
C1133 C1131 1.390 . S
C1133 C1134 1.387 . S
C1133 H1136 0.950 . S
C1134 C1133 1.387 . S
C1134 C1137 1.387 . S
H1135 C1131 0.950 . S
H1136 C1133 0.950 . S
C1137 C1128 1.390 . S
C1137 H1130 0.950 . S
C1137 C1134 1.387 . S
C1138 C1139 1.387 . S
C1138 H1142 0.950 . S
C1138 C1147 1.390 . S
C1139 C1138 1.387 . S
C1139 C1141 1.387 . S
H1140 C1147 0.950 . S
C1141 C1139 1.387 . S
C1141 C1143 1.390 . S
C1141 H1145 0.950 . S
H1142 C1138 0.950 . S
C1143 C1141 1.390 . S
C1143 C1144 1.387 . S
C1143 H1146 0.950 . S
C1144 C1143 1.387 . S
C1144 C1147 1.387 . S
H1145 C1141 0.950 . S
H1146 C1143 0.950 . S
C1147 C1138 1.390 . S
C1147 H1140 0.950 . S
C1147 C1144 1.387 . S
C1148 C1149 1.387 . S
C1148 H1152 0.950 . S
C1148 C1157 1.390 . S
C1149 C1148 1.387 . S
C1149 C1151 1.387 . S
H1150 C1157 0.950 . S
C1151 C1149 1.387 . S
C1151 C1153 1.390 . S
C1151 H1155 0.950 . S
H1152 C1148 0.950 . S
C1153 C1151 1.390 . S
C1153 C1154 1.387 . S
C1153 H1156 0.950 . S
C1154 C1153 1.387 . S
C1154 C1157 1.387 . S
H1155 C1151 0.950 . S
H1156 C1153 0.950 . S
C1157 C1148 1.390 . S
C1157 H1150 0.950 . S
C1157 C1154 1.387 . S
C1158 C1159 1.387 . S
C1158 H1162 0.950 . S
C1158 C1167 1.390 . S
C1159 C1158 1.387 . S
C1159 C1161 1.387 . S
H1160 C1167 0.950 . S
C1161 C1159 1.387 . S
C1161 C1163 1.390 . S
C1161 H1165 0.950 . S
H1162 C1158 0.950 . S
C1163 C1161 1.390 . S
C1163 C1164 1.387 . S
C1163 H1166 0.950 . S
C1164 C1163 1.387 . S
C1164 C1167 1.387 . S
H1165 C1161 0.950 . S
H1166 C1163 0.950 . S
C1167 C1158 1.390 . S
C1167 H1160 0.950 . S
C1167 C1164 1.387 . S
C1168 C1169 1.387 . S
C1168 H1172 0.950 . S
C1168 C1177 1.390 . S
C1169 C1168 1.387 . S
C1169 C1171 1.387 . S
H1170 C1177 0.950 . S
C1171 C1169 1.387 . S
C1171 C1173 1.390 . S
C1171 H1175 0.950 . S
H1172 C1168 0.950 . S
C1173 C1171 1.390 . S
C1173 C1174 1.387 . S
C1173 H1176 0.950 . S
C1174 C1173 1.387 . S
C1174 C1177 1.387 . S
H1175 C1171 0.950 . S
H1176 C1173 0.950 . S
C1177 C1168 1.390 . S
C1177 H1170 0.950 . S
C1177 C1174 1.387 . S
C1178 C1179 1.387 . S
C1178 H1182 0.950 . S
C1178 C1187 1.390 . S
C1179 C1178 1.387 . S
C1179 C1181 1.387 . S
H1180 C1187 0.950 . S
C1181 C1179 1.387 . S
C1181 C1183 1.390 . S
C1181 H1185 0.950 . S
H1182 C1178 0.950 . S
C1183 C1181 1.390 . S
C1183 C1184 1.387 . S
C1183 H1186 0.950 . S
C1184 C1183 1.387 . S
C1184 C1187 1.387 . S
H1185 C1181 0.950 . S
H1186 C1183 0.950 . S
C1187 C1178 1.390 . S
C1187 H1180 0.950 . S
C1187 C1184 1.387 . S
C1188 C1189 1.387 . S
C1188 H1192 0.950 . S
C1188 C1197 1.390 . S
C1189 C1188 1.387 . S
C1189 C1191 1.387 . S
H1190 C1197 0.950 . S
C1191 C1189 1.387 . S
C1191 C1193 1.390 . S
C1191 H1195 0.950 . S
H1192 C1188 0.950 . S
C1193 C1191 1.390 . S
C1193 C1194 1.387 . S
C1193 H1196 0.950 . S
C1194 C1193 1.387 . S
C1194 C1197 1.387 . S
H1195 C1191 0.950 . S
H1196 C1193 0.950 . S
C1197 C1188 1.390 . S
C1197 H1190 0.950 . S
C1197 C1194 1.387 . S
C1198 C1199 1.387 . S
C1198 H1202 0.950 . S
C1198 C1207 1.390 . S
C1199 C1198 1.387 . S
C1199 C1201 1.387 . S
H1200 C1207 0.950 . S
C1201 C1199 1.387 . S
C1201 C1203 1.390 . S
C1201 H1205 0.950 . S
H1202 C1198 0.950 . S
C1203 C1201 1.390 . S
C1203 C1204 1.387 . S
C1203 H1206 0.950 . S
C1204 C1203 1.387 . S
C1204 C1207 1.387 . S
H1205 C1201 0.950 . S
H1206 C1203 0.950 . S
C1207 C1198 1.390 . S
C1207 H1200 0.950 . S
C1207 C1204 1.387 . S
C1208 C1209 1.387 . S
C1208 H1212 0.950 . S
C1208 C1217 1.390 . S
C1209 C1208 1.387 . S
C1209 C1211 1.387 . S
H1210 C1217 0.950 . S
C1211 C1209 1.387 . S
C1211 C1213 1.390 . S
C1211 H1215 0.950 . S
H1212 C1208 0.950 . S
C1213 C1211 1.390 . S
C1213 C1214 1.387 . S
C1213 H1216 0.950 . S
C1214 C1213 1.387 . S
C1214 C1217 1.387 . S
H1215 C1211 0.950 . S
H1216 C1213 0.950 . S
C1217 C1208 1.390 . S
C1217 H1210 0.950 . S
C1217 C1214 1.387 . S
C1218 C1219 1.387 . S
C1218 H1222 0.950 . S
C1218 C1227 1.390 . S
C1219 C1218 1.387 . S
C1219 C1221 1.387 . S
H1220 C1227 0.950 . S
C1221 C1219 1.387 . S
C1221 C1223 1.390 . S
C1221 H1225 0.950 . S
H1222 C1218 0.950 . S
C1223 C1221 1.390 . S
C1223 C1224 1.387 . S
C1223 H1226 0.950 . S
C1224 C1223 1.387 . S
C1224 C1227 1.387 . S
H1225 C1221 0.950 . S
H1226 C1223 0.950 . S
C1227 C1218 1.390 . S
C1227 H1220 0.950 . S
C1227 C1224 1.387 . S
C1228 C1229 1.387 . S
C1228 H1232 0.950 . S
C1228 C1237 1.390 . S
C1229 C1228 1.387 . S
C1229 C1231 1.387 . S
H1230 C1237 0.950 . S
C1231 C1229 1.387 . S
C1231 C1233 1.390 . S
C1231 H1235 0.950 . S
H1232 C1228 0.950 . S
C1233 C1231 1.390 . S
C1233 C1234 1.387 . S
C1233 H1236 0.950 . S
C1234 C1233 1.387 . S
C1234 C1237 1.387 . S
H1235 C1231 0.950 . S
H1236 C1233 0.950 . S
C1237 C1228 1.390 . S
C1237 H1230 0.950 . S
C1237 C1234 1.387 . S
C1238 C1239 1.387 . S
C1238 H1242 0.950 . S
C1238 C1247 1.390 . S
C1239 C1238 1.387 . S
C1239 C1241 1.387 . S
H1240 C1247 0.950 . S
C1241 C1239 1.387 . S
C1241 C1243 1.390 . S
C1241 H1245 0.950 . S
H1242 C1238 0.950 . S
C1243 C1241 1.390 . S
C1243 C1244 1.387 . S
C1243 H1246 0.950 . S
C1244 C1243 1.387 . S
C1244 C1247 1.387 . S
H1245 C1241 0.950 . S
H1246 C1243 0.950 . S
C1247 C1238 1.390 . S
C1247 H1240 0.950 . S
C1247 C1244 1.387 . S
C1248 C1249 1.387 . S
C1248 H1252 0.950 . S
C1248 C1257 1.390 . S
C1249 C1248 1.387 . S
C1249 C1251 1.387 . S
H1250 C1257 0.950 . S
C1251 C1249 1.387 . S
C1251 C1253 1.390 . S
C1251 H1255 0.950 . S
H1252 C1248 0.950 . S
C1253 C1251 1.390 . S
C1253 C1254 1.387 . S
C1253 H1256 0.950 . S
C1254 C1253 1.387 . S
C1254 C1257 1.387 . S
H1255 C1251 0.950 . S
H1256 C1253 0.950 . S
C1257 C1248 1.390 . S
C1257 H1250 0.950 . S
C1257 C1254 1.387 . S
C1258 C1259 1.387 . S
C1258 H1262 0.950 . S
C1258 C1267 1.390 . S
C1259 C1258 1.387 . S
C1259 C1261 1.387 . S
H1260 C1267 0.950 . S
C1261 C1259 1.387 . S
C1261 C1263 1.390 . S
C1261 H1265 0.950 . S
H1262 C1258 0.950 . S
C1263 C1261 1.390 . S
C1263 C1264 1.387 . S
C1263 H1266 0.950 . S
C1264 C1263 1.387 . S
C1264 C1267 1.387 . S
H1265 C1261 0.950 . S
H1266 C1263 0.950 . S
C1267 C1258 1.390 . S
C1267 H1260 0.950 . S
C1267 C1264 1.387 . S
C1268 C1269 1.387 . S
C1268 H1272 0.950 . S
C1268 C1277 1.390 . S
C1269 C1268 1.387 . S
C1269 C1271 1.387 . S
H1270 C1277 0.950 . S
C1271 C1269 1.387 . S
C1271 C1273 1.390 . S
C1271 H1275 0.950 . S
H1272 C1268 0.950 . S
C1273 C1271 1.390 . S
C1273 C1274 1.387 . S
C1273 H1276 0.950 . S
C1274 C1273 1.387 . S
C1274 C1277 1.387 . S
H1275 C1271 0.950 . S
H1276 C1273 0.950 . S
C1277 C1268 1.390 . S
C1277 H1270 0.950 . S
C1277 C1274 1.387 . S
C1278 C1279 1.387 . S
C1278 H1282 0.950 . S
C1278 C1287 1.390 . S
C1279 C1278 1.387 . S
C1279 C1281 1.387 . S
H1280 C1287 0.950 . S
C1281 C1279 1.387 . S
C1281 C1283 1.390 . S
C1281 H1285 0.950 . S
H1282 C1278 0.950 . S
C1283 C1281 1.390 . S
C1283 C1284 1.387 . S
C1283 H1286 0.950 . S
C1284 C1283 1.387 . S
C1284 C1287 1.387 . S
H1285 C1281 0.950 . S
H1286 C1283 0.950 . S
C1287 C1278 1.390 . S
C1287 H1280 0.950 . S
C1287 C1284 1.387 . S
C1288 C1289 1.387 . S
C1288 H1292 0.950 . S
C1288 C1297 1.390 . S
C1289 C1288 1.387 . S
C1289 C1291 1.387 . S
H1290 C1297 0.950 . S
C1291 C1289 1.387 . S
C1291 C1293 1.390 . S
C1291 H1295 0.950 . S
H1292 C1288 0.950 . S
C1293 C1291 1.390 . S
C1293 C1294 1.387 . S
C1293 H1296 0.950 . S
C1294 C1293 1.387 . S
C1294 C1297 1.387 . S
H1295 C1291 0.950 . S
H1296 C1293 0.950 . S
C1297 C1288 1.390 . S
C1297 H1290 0.950 . S
C1297 C1294 1.387 . S
C1298 C1299 1.387 . S
C1298 H1302 0.950 . S
C1298 C1307 1.390 . S
C1299 C1298 1.387 . S
C1299 C1301 1.387 . S
H1300 C1307 0.950 . S
C1301 C1299 1.387 . S
C1301 C1303 1.390 . S
C1301 H1305 0.950 . S
H1302 C1298 0.950 . S
C1303 C1301 1.390 . S
C1303 C1304 1.387 . S
C1303 H1306 0.950 . S
C1304 C1303 1.387 . S
C1304 C1307 1.387 . S
H1305 C1301 0.950 . S
H1306 C1303 0.950 . S
C1307 C1298 1.390 . S
C1307 H1300 0.950 . S
C1307 C1304 1.387 . S
C1308 C1309 1.387 . S
C1308 H1312 0.950 . S
C1308 C1317 1.390 . S
C1309 C1308 1.387 . S
C1309 C1311 1.387 . S
H1310 C1317 0.950 . S
C1311 C1309 1.387 . S
C1311 C1313 1.390 . S
C1311 H1315 0.950 . S
H1312 C1308 0.950 . S
C1313 C1311 1.390 . S
C1313 C1314 1.387 . S
C1313 H1316 0.950 . S
C1314 C1313 1.387 . S
C1314 C1317 1.387 . S
H1315 C1311 0.950 . S
H1316 C1313 0.950 . S
C1317 C1308 1.390 . S
C1317 H1310 0.950 . S
C1317 C1314 1.387 . S
C1318 C1319 1.387 . S
C1318 H1322 0.950 . S
C1318 C1327 1.390 . S
C1319 C1318 1.387 . S
C1319 C1321 1.387 . S
H1320 C1327 0.950 . S
C1321 C1319 1.387 . S
C1321 C1323 1.390 . S
C1321 H1325 0.950 . S
H1322 C1318 0.950 . S
C1323 C1321 1.390 . S
C1323 C1324 1.387 . S
C1323 H1326 0.950 . S
C1324 C1323 1.387 . S
C1324 C1327 1.387 . S
H1325 C1321 0.950 . S
H1326 C1323 0.950 . S
C1327 C1318 1.390 . S
C1327 H1320 0.950 . S
C1327 C1324 1.387 . S
C1328 C1329 1.387 . S
C1328 H1332 0.950 . S
C1328 C1337 1.390 . S
C1329 C1328 1.387 . S
C1329 C1331 1.387 . S
H1330 C1337 0.950 . S
C1331 C1329 1.387 . S
C1331 C1333 1.390 . S
C1331 H1335 0.950 . S
H1332 C1328 0.950 . S
C1333 C1331 1.390 . S
C1333 C1334 1.387 . S
C1333 H1336 0.950 . S
C1334 C1333 1.387 . S
C1334 C1337 1.387 . S
H1335 C1331 0.950 . S
H1336 C1333 0.950 . S
C1337 C1328 1.390 . S
C1337 H1330 0.950 . S
C1337 C1334 1.387 . S
C864 C683 1.746 . S
C859 C74 1.726 . S
C874 C673 1.305 . S
C869 C153 1.260 . S
C884 C674 1.435 . S
C879 C231 1.419 . S
C889 C310 0.919 . S
C894 C696 0.868 . S
C899 C394 1.257 . S
C904 C699 1.304 . S
C914 C682 1.434 . S
C909 C494 1.418 . S
C919 C573 0.916 . S
C924 C672 0.865 . S
C929 C651 1.726 . S
C934 C690 1.746 . S
C944 C703 2.425 . S
C939 C56 2.523 . S
C949 C151 1.686 . S
C954 C752 1.660 . S
C964 C730 1.362 . S
C959 C237 1.385 . S
C974 C744 1.422 . S
C969 C326 1.396 . S
C979 C410 1.413 . S
C984 C705 1.402 . S
C994 C758 2.427 . S
C989 C476 2.543 . S
C999 C571 1.696 . S
C1004 C714 1.680 . S
C1009 C657 1.281 . S
C1014 C735 1.313 . S
C1019 C58 1.281 . S
C1024 C761 1.312 . S
C1029 C392 1.686 . S
C1034 C745 1.660 . S
C1044 C704 1.364 . S
C1039 C478 1.384 . S
C1054 C736 1.422 . S
C1049 C567 1.396 . S
C1059 C655 2.523 . S
C1064 C727 2.426 . S
C1069 C235 2.543 . S
C1074 C734 2.426 . S
C1084 C721 1.682 . S
C1079 C308 1.695 . S
C1089 C147 1.412 . S
C1094 C713 1.401 . S
C1099 C662 1.724 . S
C1104 C776 1.744 . S
C1109 C405 1.256 . S
C1114 C766 1.304 . S
C1124 C767 1.435 . S
C1119 C483 1.421 . S
C1134 C789 0.866 . S
C1129 C562 0.918 . S
C1139 C142 1.257 . S
C1144 C792 1.304 . S
C1154 C775 1.435 . S
C1149 C242 1.421 . S
C1159 C321 0.913 . S
C1164 C765 0.869 . S
C1169 C63 1.724 . S
C1174 C783 1.744 . S
C1179 C644 2.523 . S
C1184 C796 2.425 . S
C1194 C845 1.658 . S
C1189 C403 1.686 . S
C1199 C489 1.383 . S
C1204 C823 1.364 . S
C1209 C578 1.396 . S
C1214 C837 1.422 . S
C1224 C798 1.402 . S
C1219 C158 1.413 . S
C1229 C224 2.544 . S
C1234 C851 2.427 . S
C1244 C807 1.681 . S
C1239 C319 1.696 . S
C1254 C828 1.312 . S
C1249 C69 1.277 . S
C1264 C854 1.312 . S
C1259 C646 1.281 . S
C1269 C140 1.686 . S
C1274 C838 1.658 . S
C1279 C226 1.385 . S
C1284 C797 1.364 . S
C1294 C829 1.422 . S
C1289 C315 1.399 . S
C1299 C67 2.523 . S
C1304 C820 2.425 . S
C1309 C487 2.543 . S
C1314 C827 2.426 . S
C1324 C814 1.682 . S
C1319 C560 1.695 . S
C1334 C806 1.402 . S
C1329 C399 1.413 . S
