# Generated by pormake.
# Topology ocu, (6,8)-cn, num edge types: 1
# Building blocks:
#     Node 0, Type 0, BuildingBlock: KUMBUR_clean_sbu_0, # of connection points: 6
#     Node 1, Type 0, BuildingBlock: KUMBUR_clean_sbu_0, # of connection points: 6
#     Node 2, Type 0, BuildingBlock: KUMBUR_clean_sbu_0, # of connection points: 6
#     Node 3, Type 0, BuildingBlock: KUMBUR_clean_sbu_0, # of connection points: 6
#     Node 4, Type 0, BuildingBlock: KUMBUR_clean_sbu_0, # of connection points: 6
#     Node 5, Type 0, BuildingBlock: KUMBUR_clean_sbu_0, # of connection points: 6
#     Node 6, Type 0, BuildingBlock: KUMBUR_clean_sbu_0, # of connection points: 6
#     Node 7, Type 0, BuildingBlock: KUMBUR_clean_sbu_0, # of connection points: 6
#     Node 8, Type 1, BuildingBlock: VETTIZ_charged_sbu_0, # of connection points: 8
#     Node 9, Type 1, BuildingBlock: VETTIZ_charged_sbu_0, # of connection points: 8
#     Node 10, Type 1, BuildingBlock: VETTIZ_charged_sbu_0, # of connection points: 8
#     Node 11, Type 1, BuildingBlock: VETTIZ_charged_sbu_0, # of connection points: 8
#     Node 12, Type 1, BuildingBlock: VETTIZ_charged_sbu_0, # of connection points: 8
#     Node 13, Type 1, BuildingBlock: VETTIZ_charged_sbu_0, # of connection points: 8
#     Edge 14, Type (0, 1), BuildingBlock: ZUJKAS_clean_linker_0, # of connection points: 2
#     Edge 15, Type (0, 1), BuildingBlock: ZUJKAS_clean_linker_0, # of connection points: 2
#     Edge 16, Type (0, 1), BuildingBlock: ZUJKAS_clean_linker_0, # of connection points: 2
#     Edge 17, Type (0, 1), BuildingBlock: ZUJKAS_clean_linker_0, # of connection points: 2
#     Edge 18, Type (0, 1), BuildingBlock: ZUJKAS_clean_linker_0, # of connection points: 2
#     Edge 19, Type (0, 1), BuildingBlock: ZUJKAS_clean_linker_0, # of connection points: 2
#     Edge 20, Type (0, 1), BuildingBlock: ZUJKAS_clean_linker_0, # of connection points: 2
#     Edge 21, Type (0, 1), BuildingBlock: ZUJKAS_clean_linker_0, # of connection points: 2
#     Edge 22, Type (0, 1), BuildingBlock: ZUJKAS_clean_linker_0, # of connection points: 2
#     Edge 23, Type (0, 1), BuildingBlock: ZUJKAS_clean_linker_0, # of connection points: 2
#     Edge 24, Type (0, 1), BuildingBlock: ZUJKAS_clean_linker_0, # of connection points: 2
#     Edge 25, Type (0, 1), BuildingBlock: ZUJKAS_clean_linker_0, # of connection points: 2
#     Edge 26, Type (0, 1), BuildingBlock: ZUJKAS_clean_linker_0, # of connection points: 2
#     Edge 27, Type (0, 1), BuildingBlock: ZUJKAS_clean_linker_0, # of connection points: 2
#     Edge 28, Type (0, 1), BuildingBlock: ZUJKAS_clean_linker_0, # of connection points: 2
#     Edge 29, Type (0, 1), BuildingBlock: ZUJKAS_clean_linker_0, # of connection points: 2
#     Edge 30, Type (0, 1), BuildingBlock: ZUJKAS_clean_linker_0, # of connection points: 2
#     Edge 31, Type (0, 1), BuildingBlock: ZUJKAS_clean_linker_0, # of connection points: 2
#     Edge 32, Type (0, 1), BuildingBlock: ZUJKAS_clean_linker_0, # of connection points: 2
#     Edge 33, Type (0, 1), BuildingBlock: ZUJKAS_clean_linker_0, # of connection points: 2
#     Edge 34, Type (0, 1), BuildingBlock: ZUJKAS_clean_linker_0, # of connection points: 2
#     Edge 35, Type (0, 1), BuildingBlock: ZUJKAS_clean_linker_0, # of connection points: 2
#     Edge 36, Type (0, 1), BuildingBlock: ZUJKAS_clean_linker_0, # of connection points: 2
#     Edge 37, Type (0, 1), BuildingBlock: ZUJKAS_clean_linker_0, # of connection points: 2
#     Edge 38, Type (0, 1), BuildingBlock: ZUJKAS_clean_linker_0, # of connection points: 2
#     Edge 39, Type (0, 1), BuildingBlock: ZUJKAS_clean_linker_0, # of connection points: 2
#     Edge 40, Type (0, 1), BuildingBlock: ZUJKAS_clean_linker_0, # of connection points: 2
#     Edge 41, Type (0, 1), BuildingBlock: ZUJKAS_clean_linker_0, # of connection points: 2
#     Edge 42, Type (0, 1), BuildingBlock: ZUJKAS_clean_linker_0, # of connection points: 2
#     Edge 43, Type (0, 1), BuildingBlock: ZUJKAS_clean_linker_0, # of connection points: 2
#     Edge 44, Type (0, 1), BuildingBlock: ZUJKAS_clean_linker_0, # of connection points: 2
#     Edge 45, Type (0, 1), BuildingBlock: ZUJKAS_clean_linker_0, # of connection points: 2
#     Edge 46, Type (0, 1), BuildingBlock: ZUJKAS_clean_linker_0, # of connection points: 2
#     Edge 47, Type (0, 1), BuildingBlock: ZUJKAS_clean_linker_0, # of connection points: 2
#     Edge 48, Type (0, 1), BuildingBlock: ZUJKAS_clean_linker_0, # of connection points: 2
#     Edge 49, Type (0, 1), BuildingBlock: ZUJKAS_clean_linker_0, # of connection points: 2
#     Edge 50, Type (0, 1), BuildingBlock: ZUJKAS_clean_linker_0, # of connection points: 2
#     Edge 51, Type (0, 1), BuildingBlock: ZUJKAS_clean_linker_0, # of connection points: 2
#     Edge 52, Type (0, 1), BuildingBlock: ZUJKAS_clean_linker_0, # of connection points: 2
#     Edge 53, Type (0, 1), BuildingBlock: ZUJKAS_clean_linker_0, # of connection points: 2
#     Edge 54, Type (0, 1), BuildingBlock: ZUJKAS_clean_linker_0, # of connection points: 2
#     Edge 55, Type (0, 1), BuildingBlock: ZUJKAS_clean_linker_0, # of connection points: 2
#     Edge 56, Type (0, 1), BuildingBlock: ZUJKAS_clean_linker_0, # of connection points: 2
#     Edge 57, Type (0, 1), BuildingBlock: ZUJKAS_clean_linker_0, # of connection points: 2
#     Edge 58, Type (0, 1), BuildingBlock: ZUJKAS_clean_linker_0, # of connection points: 2
#     Edge 59, Type (0, 1), BuildingBlock: ZUJKAS_clean_linker_0, # of connection points: 2
#     Edge 60, Type (0, 1), BuildingBlock: ZUJKAS_clean_linker_0, # of connection points: 2
#     Edge 61, Type (0, 1), BuildingBlock: ZUJKAS_clean_linker_0, # of connection points: 2
# Relax obj value: 0.106
# Max RMSD: 0.250
# Mean RMSD: 0.161
data_MOF--net-ocu--node1-KUMBUR_clean_sbu_0--node2-VETTIZ_charged_sbu_0--edge1-ZUJKAS_clean_linker_0
_symmetry_space_group_name_H-M    P1
_symmetry_Int_Tables_number       1
_symmetry_cell_setting            triclinic
loop_
_symmetry_equiv_pos_as_xyz
'x, y, z'
_cell_length_a     47.982841
_cell_length_b     48.693969
_cell_length_c     52.236553
_cell_angle_alpha  80.281669
_cell_angle_beta   98.161149
_cell_angle_gamma 101.68083
loop_
_atom_site_label
_atom_site_type_symbol
_atom_site_fract_x
_atom_site_fract_y
_atom_site_fract_z
_atom_type_partial_charge
Tb0 Tb 0.25686 0.21971 0.23688 0.0
C1 C 0.3428 0.28884 0.31182 0.0
C2 C 0.34798 0.25663 0.35207 0.0
C3 C 0.38708 0.29528 0.34099 0.0
C4 C 0.33188 0.26525 0.32839 0.0
C5 C 0.37034 0.30449 0.31805 0.0
C6 C 0.37589 0.2714 0.35802 0.0
C7 C 0.36165 0.33837 0.27972 0.0
N8 N 0.32572 0.29726 0.29017 0.0
C9 C 0.33437 0.32225 0.27454 0.0
C10 C 0.37985 0.32931 0.30143 0.0
Tb11 Tb 0.28156 0.26926 0.28304 0.0
N12 N 0.30476 0.2518 0.32202 0.0
C13 C 0.29185 0.23039 0.33939 0.0
C14 C 0.3352 0.23408 0.36942 0.0
C15 C 0.30695 0.22099 0.3631 0.0
H16 H 0.32063 0.32948 0.25763 0.0
H17 H 0.29673 0.20374 0.37655 0.0
H18 H 0.38871 0.26492 0.37599 0.0
H19 H 0.36863 0.35775 0.26693 0.0
H20 H 0.27001 0.22005 0.33498 0.0
H21 H 0.24392 0.28395 0.14223 0.0
H22 H 0.34667 0.22713 0.38801 0.0
H23 H 0.21634 0.1602 0.26157 0.0
H24 H 0.27023 0.26661 0.18353 0.0
H25 H 0.16705 0.13417 0.25301 0.0
H26 H 0.40839 0.30687 0.34606 0.0
H27 H 0.19259 0.26427 0.13211 0.0
H28 H 0.14906 0.22889 0.14501 0.0
H29 H 0.4009 0.34191 0.30548 0.0
H30 H 0.12799 0.18797 0.1753 0.0
N31 N 0.23425 0.23748 0.19758 0.0
C32 C 0.24795 0.25755 0.17962 0.0
C33 C 0.20404 0.25656 0.15045 0.0
C34 C 0.19045 0.23499 0.16821 0.0
C35 C 0.23303 0.26759 0.15603 0.0
C36 C 0.20645 0.22564 0.19171 0.0
H37 H 0.13472 0.15213 0.21546 0.0
N38 N 0.21181 0.19327 0.22974 0.0
C39 C 0.17452 0.1535 0.24037 0.0
C40 C 0.19474 0.20266 0.20847 0.0
C41 C 0.2025 0.16831 0.24512 0.0
C42 C 0.1563 0.16375 0.21922 0.0
C43 C 0.16652 0.18834 0.20263 0.0
O44 O 0.26539 0.17948 0.23459 0.0
O45 O 0.28448 0.22904 0.27217 0.0
O46 O 0.31839 0.26753 0.26374 0.0
O47 O 0.29424 0.25196 0.22537 0.0
O48 O 0.2644 0.18835 0.27147 0.0
O49 O 0.28192 0.21614 0.20812 0.0
O50 O 0.27037 0.30872 0.28389 0.0
O51 O 0.25448 0.25978 0.2477 0.0
O52 O 0.22004 0.22206 0.25625 0.0
O53 O 0.24423 0.23755 0.29467 0.0
O54 O 0.27364 0.3007 0.24842 0.0
O55 O 0.25811 0.27293 0.313 0.0
C56 C 0.28249 0.20458 0.28544 0.0
C57 C 0.27251 0.17224 0.19256 0.0
C58 C 0.28816 0.14573 0.16315 0.0
C59 C 0.29409 0.16113 0.18445 0.0
C60 C 0.26016 0.14175 0.15013 0.0
C61 C 0.24479 0.16787 0.17939 0.0
C62 C 0.23869 0.15269 0.15827 0.0
C63 C 0.31759 0.26427 0.239 0.0
C64 C 0.27954 0.18882 0.21441 0.0
C65 C 0.14984 0.19849 0.18003 0.0
C66 C 0.16182 0.22179 0.1628 0.0
C67 C 0.25626 0.28408 0.23432 0.0
C68 C 0.26404 0.31847 0.3252 0.0
C69 C 0.24309 0.33342 0.32886 0.0
C70 C 0.24825 0.35138 0.34821 0.0
C71 C 0.27489 0.35407 0.36377 0.0
C72 C 0.29039 0.32152 0.34087 0.0
C73 C 0.29575 0.33929 0.36004 0.0
C74 C 0.22073 0.22652 0.28063 0.0
C75 C 0.2578 0.29971 0.30502 0.0
H76 H 0.31542 0.16433 0.19491 0.0
H77 H 0.2549 0.13052 0.13336 0.0
H78 H 0.22793 0.17623 0.18532 0.0
H79 H 0.21728 0.14955 0.14807 0.0
H80 H 0.22287 0.33117 0.31647 0.0
H81 H 0.27948 0.36721 0.37919 0.0
H82 H 0.30671 0.31014 0.3384 0.0
H83 H 0.31609 0.34145 0.3722 0.0
Tb84 Tb 0.78412 0.26163 0.24887 0.0
C85 C 0.72902 0.30737 0.32613 0.0
C86 C 0.6849 0.27428 0.33259 0.0
C87 C 0.70946 0.30009 0.36772 0.0
C88 C 0.70674 0.28778 0.31682 0.0
C89 C 0.73037 0.31437 0.35145 0.0
C90 C 0.68673 0.28006 0.35829 0.0
C91 C 0.77107 0.35103 0.34166 0.0
N92 N 0.74863 0.32066 0.30976 0.0
C93 C 0.76871 0.34336 0.3167 0.0
C94 C 0.75211 0.33614 0.35929 0.0
Tb95 Tb 0.7433 0.30682 0.26901 0.0
N96 N 0.7059 0.28279 0.29193 0.0
C97 C 0.68257 0.26554 0.28114 0.0
C98 C 0.66162 0.25587 0.32188 0.0
C99 C 0.66029 0.25177 0.29593 0.0
H100 H 0.78364 0.35488 0.30328 0.0
H101 H 0.64219 0.23782 0.28733 0.0
H102 H 0.67036 0.26963 0.3708 0.0
H103 H 0.78759 0.36834 0.34729 0.0
H104 H 0.68082 0.26172 0.26124 0.0
H105 H 0.86481 0.22063 0.32149 0.0
H106 H 0.64439 0.24512 0.33331 0.0
H107 H 0.7888 0.28856 0.18583 0.0
H108 H 0.81621 0.22513 0.30299 0.0
H109 H 0.82655 0.30825 0.15758 0.0
H110 H 0.71026 0.30493 0.38735 0.0
H111 H 0.90593 0.24582 0.29806 0.0
H112 H 0.92399 0.27598 0.25795 0.0
H113 H 0.75392 0.34215 0.3786 0.0
H114 H 0.91364 0.30001 0.2133 0.0
N115 N 0.82858 0.25369 0.26875 0.0
C116 C 0.8334 0.23642 0.29202 0.0
C117 C 0.8844 0.24807 0.28963 0.0
C118 C 0.87945 0.26422 0.26521 0.0
C119 C 0.86124 0.23378 0.30287 0.0
C120 C 0.85099 0.26651 0.25506 0.0
H121 H 0.87743 0.3113 0.17549 0.0
N122 N 0.8175 0.2812 0.22049 0.0
C123 C 0.83217 0.301 0.17806 0.0
C124 C 0.84524 0.28062 0.23012 0.0
C125 C 0.81069 0.28998 0.19443 0.0
C126 C 0.86083 0.30265 0.18823 0.0
C127 C 0.86769 0.29193 0.21442 0.0
O128 O 0.75229 0.2271 0.23914 0.0
O129 O 0.74911 0.26411 0.26969 0.0
O130 O 0.77574 0.29636 0.30128 0.0
O131 O 0.81047 0.28396 0.28037 0.0
O132 O 0.77175 0.23236 0.28398 0.0
O133 O 0.79326 0.23402 0.22544 0.0
O134 O 0.74018 0.34971 0.26405 0.0
O135 O 0.77394 0.30332 0.24312 0.0
O136 O 0.75648 0.28084 0.21656 0.0
O137 O 0.71876 0.28332 0.23769 0.0
O138 O 0.78039 0.34003 0.25829 0.0
O139 O 0.70728 0.31997 0.24591 0.0
C140 C 0.7515 0.24406 0.28834 0.0
C141 C 0.76822 0.18697 0.23258 0.0
C142 C 0.78713 0.14691 0.25849 0.0
C143 C 0.78868 0.17631 0.25138 0.0
C144 C 0.76493 0.12837 0.24604 0.0
C145 C 0.74634 0.16826 0.22032 0.0
C146 C 0.7448 0.13905 0.22698 0.0
C147 C 0.80234 0.29321 0.30022 0.0
C148 C 0.7685 0.21747 0.22642 0.0
C149 C 0.89612 0.29101 0.22495 0.0
C150 C 0.902 0.27727 0.25034 0.0
C151 C 0.79074 0.32673 0.24385 0.0
C152 C 0.71725 0.36711 0.2243 0.0
C153 C 0.72395 0.36092 0.20082 0.0
C154 C 0.72435 0.38139 0.17825 0.0
C155 C 0.71867 0.40834 0.18013 0.0
C156 C 0.71195 0.39402 0.22564 0.0
C157 C 0.71284 0.41458 0.20366 0.0
C158 C 0.72858 0.27808 0.21693 0.0
C159 C 0.71691 0.3465 0.24814 0.0
H160 H 0.80573 0.19101 0.26043 0.0
H161 H 0.76272 0.10563 0.25136 0.0
H162 H 0.73028 0.17625 0.20582 0.0
H163 H 0.72773 0.12465 0.21761 0.0
H164 H 0.72855 0.34019 0.20023 0.0
H165 H 0.71755 0.42451 0.16325 0.0
H166 H 0.70716 0.39913 0.24376 0.0
H167 H 0.70844 0.43528 0.20471 0.0
Tb168 Tb 0.76434 0.74974 0.28919 0.0
C169 C 0.83423 0.83549 0.21204 0.0
C170 C 0.80284 0.84442 0.17232 0.0
C171 C 0.84269 0.88114 0.18438 0.0
C172 C 0.81034 0.82666 0.19547 0.0
C173 C 0.85109 0.86262 0.20649 0.0
C174 C 0.81865 0.872 0.16723 0.0
C175 C 0.88513 0.8497 0.24302 0.0
N176 N 0.84214 0.81656 0.23258 0.0
C177 C 0.86799 0.82283 0.24734 0.0
C178 C 0.87648 0.86982 0.22269 0.0
Tb179 Tb 0.81213 0.77331 0.23872 0.0
N180 N 0.79589 0.79978 0.20096 0.0
C181 C 0.7747 0.78878 0.18308 0.0
C182 C 0.78055 0.83348 0.15444 0.0
C183 C 0.7665 0.8055 0.15981 0.0
H184 H 0.87495 0.80748 0.26313 0.0
H185 H 0.74944 0.7967 0.14596 0.0
H186 H 0.81298 0.88608 0.14972 0.0
H187 H 0.90506 0.85481 0.2553 0.0
H188 H 0.76368 0.76717 0.18675 0.0
H189 H 0.83147 0.72174 0.37844 0.0
H190 H 0.77457 0.84619 0.13614 0.0
H191 H 0.69905 0.71812 0.26706 0.0
H192 H 0.81498 0.75338 0.34019 0.0
H193 H 0.66724 0.67217 0.27582 0.0
H194 H 0.85521 0.90216 0.17986 0.0
H195 H 0.8056 0.67241 0.38766 0.0
H196 H 0.76332 0.63497 0.3761 0.0
H197 H 0.88998 0.89049 0.21916 0.0
H198 H 0.71828 0.62153 0.34826 0.0
N199 N 0.78051 0.72231 0.32655 0.0
C200 C 0.80337 0.73202 0.3436 0.0
C201 C 0.79826 0.68625 0.37063 0.0
C202 C 0.77375 0.67698 0.3542 0.0
C203 C 0.81285 0.71408 0.36553 0.0
C204 C 0.76526 0.69584 0.33222 0.0
H205 H 0.68201 0.63546 0.31107 0.0
N206 N 0.73234 0.70789 0.29676 0.0
C207 C 0.68775 0.6764 0.28747 0.0
C208 C 0.74013 0.68836 0.31678 0.0
C209 C 0.70597 0.70259 0.28262 0.0
C210 C 0.69618 0.65571 0.30732 0.0
C211 C 0.72249 0.66169 0.32253 0.0
O212 O 0.72809 0.76649 0.29256 0.0
O213 O 0.77361 0.77774 0.25311 0.0
O214 O 0.81485 0.80825 0.26114 0.0
O215 O 0.80186 0.78153 0.3003 0.0
O216 O 0.73176 0.76109 0.25735 0.0
O217 O 0.76522 0.77176 0.32081 0.0
O218 O 0.85023 0.76013 0.23486 0.0
O219 O 0.80233 0.74459 0.27404 0.0
O220 O 0.76066 0.71431 0.26758 0.0
O221 O 0.77613 0.73909 0.22821 0.0
O222 O 0.84439 0.76043 0.27025 0.0
O223 O 0.81325 0.75235 0.20676 0.0
C224 C 0.74839 0.7775 0.24183 0.0
C225 C 0.72035 0.77112 0.33492 0.0
C226 C 0.68875 0.7887 0.35871 0.0
C227 C 0.70735 0.79313 0.33919 0.0
C228 C 0.68338 0.76171 0.37377 0.0
C229 C 0.71474 0.74447 0.35018 0.0
C230 C 0.69632 0.73984 0.36952 0.0
C231 C 0.81518 0.80483 0.28685 0.0
C232 C 0.7392 0.77634 0.31409 0.0
C233 C 0.73138 0.64223 0.34365 0.0
C234 C 0.75702 0.64987 0.35947 0.0
C235 C 0.82738 0.74341 0.28513 0.0
C236 C 0.85879 0.7584 0.19195 0.0
C237 C 0.86717 0.73716 0.18118 0.0
C238 C 0.88666 0.74426 0.16218 0.0
C239 C 0.89735 0.77315 0.15415 0.0
C240 C 0.86949 0.78694 0.18335 0.0
C241 C 0.88862 0.79423 0.16452 0.0
C242 C 0.76217 0.7163 0.24217 0.0
C243 C 0.84007 0.75037 0.21305 0.0
H244 H 0.71201 0.81378 0.32748 0.0
H245 H 0.66887 0.75733 0.38866 0.0
H246 H 0.7245 0.72729 0.34711 0.0
H247 H 0.69194 0.71918 0.38119 0.0
H248 H 0.85844 0.71516 0.18767 0.0
H249 H 0.9129 0.77961 0.14017 0.0
H250 H 0.86348 0.80357 0.19142 0.0
H251 H 0.89704 0.81632 0.1582 0.0
Tb252 Tb 0.31092 0.73291 0.27666 0.0
C253 C 0.24982 0.81625 0.19852 0.0
C254 C 0.28565 0.85824 0.18949 0.0
C255 C 0.2465 0.84566 0.15611 0.0
C256 C 0.27468 0.83385 0.20636 0.0
C257 C 0.23502 0.82218 0.17352 0.0
C258 C 0.2718 0.86368 0.16409 0.0
C259 C 0.19761 0.78273 0.18568 0.0
N260 N 0.23939 0.794 0.21604 0.0
C261 C 0.21304 0.77783 0.21031 0.0
C262 C 0.20881 0.80479 0.16707 0.0
Tb263 Tb 0.26684 0.78678 0.25548 0.0
N264 N 0.28716 0.82793 0.23113 0.0
C265 C 0.30959 0.84693 0.24087 0.0
C266 C 0.30964 0.87682 0.19892 0.0
C267 C 0.32137 0.87135 0.22487 0.0
H268 H 0.20421 0.76055 0.22438 0.0
H269 H 0.33963 0.88585 0.23253 0.0
H270 H 0.28006 0.88214 0.15074 0.0
H271 H 0.17714 0.7694 0.18105 0.0
H272 H 0.3192 0.84306 0.26075 0.0
H273 H 0.23534 0.63622 0.30071 0.0
H274 H 0.31882 0.89573 0.18658 0.0
H275 H 0.37561 0.75557 0.30596 0.0
H276 H 0.25705 0.67807 0.27204 0.0
H277 H 0.40359 0.74543 0.34865 0.0
H278 H 0.23561 0.85047 0.13671 0.0
H279 H 0.25627 0.62615 0.34663 0.0
H280 H 0.29618 0.63856 0.38196 0.0
H281 H 0.19678 0.80858 0.14804 0.0
H282 H 0.34233 0.66829 0.39503 0.0
N283 N 0.28973 0.69251 0.30142 0.0
C284 C 0.26663 0.67408 0.29192 0.0
C285 C 0.26595 0.64465 0.33409 0.0
C286 C 0.29075 0.66245 0.34318 0.0
C287 C 0.25415 0.65021 0.30817 0.0
C288 C 0.30234 0.68633 0.32606 0.0
H289 H 0.38294 0.70786 0.38249 0.0
N290 N 0.33896 0.72451 0.31555 0.0
C291 C 0.38226 0.73341 0.34468 0.0
C292 C 0.328 0.70295 0.33342 0.0
C293 C 0.3663 0.73906 0.32044 0.0
C294 C 0.3705 0.71226 0.36376 0.0
C295 C 0.34322 0.69636 0.35809 0.0
O296 O 0.34839 0.72986 0.26146 0.0
O297 O 0.30473 0.77151 0.25128 0.0
O298 O 0.26689 0.76485 0.22255 0.0
O299 O 0.27592 0.72163 0.24538 0.0
O300 O 0.34576 0.76796 0.26548 0.0
O301 O 0.31069 0.69788 0.25765 0.0
O302 O 0.22804 0.79009 0.26803 0.0
O303 O 0.27321 0.74845 0.2817 0.0
O304 O 0.31511 0.75741 0.30917 0.0
O305 O 0.30113 0.79896 0.28637 0.0
O306 O 0.2324 0.75127 0.26631 0.0
O307 O 0.26636 0.82075 0.27543 0.0
C308 C 0.33034 0.78422 0.25056 0.0
C309 C 0.35554 0.68393 0.25929 0.0
C310 C 0.38573 0.65587 0.24451 0.0
C311 C 0.36732 0.67595 0.23901 0.0
C312 C 0.39217 0.64424 0.27079 0.0
C313 C 0.362 0.67162 0.28514 0.0
C314 C 0.38027 0.65195 0.29081 0.0
C315 C 0.26571 0.7373 0.22408 0.0
C316 C 0.33739 0.70579 0.25331 0.0
C317 C 0.33115 0.67353 0.37584 0.0
C318 C 0.30489 0.65661 0.3684 0.0
C319 C 0.2476 0.73554 0.28217 0.0
C320 C 0.22214 0.83629 0.27058 0.0
C321 C 0.20779 0.84285 0.28974 0.0
C322 C 0.1911 0.86428 0.28368 0.0
C323 C 0.18895 0.8789 0.25802 0.0
C324 C 0.21984 0.85123 0.24521 0.0
C325 C 0.20329 0.87241 0.23899 0.0
C326 C 0.3135 0.78462 0.30732 0.0
C327 C 0.239 0.81354 0.27741 0.0
H328 H 0.36191 0.68524 0.21902 0.0
H329 H 0.40673 0.62937 0.27603 0.0
H330 H 0.35315 0.67735 0.30094 0.0
H331 H 0.38539 0.64277 0.31087 0.0
H332 H 0.20997 0.83149 0.30943 0.0
H333 H 0.17595 0.89519 0.25256 0.0
H334 H 0.23073 0.84653 0.23023 0.0
H335 H 0.20148 0.88377 0.21932 0.0
Tb336 Tb 0.33096 0.71435 0.76571 0.0
C337 C 0.22605 0.74353 0.79628 0.0
C338 C 0.19087 0.75248 0.75922 0.0
C339 C 0.17518 0.73207 0.8016 0.0
C340 C 0.21966 0.75305 0.77004 0.0
C341 C 0.20386 0.73422 0.81257 0.0
C342 C 0.1687 0.74097 0.77491 0.0
C343 C 0.23974 0.73503 0.84982 0.0
N344 N 0.25402 0.74648 0.80637 0.0
C345 C 0.26096 0.7442 0.8329 0.0
C346 C 0.2111 0.72914 0.8396 0.0
Tb347 Tb 0.28699 0.76168 0.77679 0.0
N348 N 0.24171 0.76495 0.75564 0.0
C349 C 0.23603 0.779 0.73086 0.0
C350 C 0.18519 0.76475 0.73331 0.0
C351 C 0.20787 0.77853 0.71926 0.0
H352 H 0.28276 0.74921 0.84148 0.0
H353 H 0.2037 0.78896 0.69948 0.0
H354 H 0.14649 0.74012 0.76687 0.0
H355 H 0.24553 0.73249 0.87076 0.0
H356 H 0.25281 0.79008 0.71931 0.0
H357 H 0.4288 0.78691 0.74264 0.0
H358 H 0.16339 0.76472 0.72433 0.0
H359 H 0.29878 0.65734 0.73916 0.0
H360 H 0.39117 0.76331 0.76993 0.0
H361 H 0.29652 0.63854 0.69776 0.0
H362 H 0.15788 0.72465 0.81376 0.0
H363 H 0.42793 0.77484 0.6984 0.0
H364 H 0.40453 0.74436 0.66409 0.0
H365 H 0.1947 0.72207 0.85276 0.0
H366 H 0.36794 0.70409 0.65152 0.0
N367 N 0.368 0.73747 0.74175 0.0
C368 C 0.39008 0.75727 0.7509 0.0
C369 C 0.41119 0.76412 0.71042 0.0
C370 C 0.38941 0.74302 0.70157 0.0
C371 C 0.41179 0.77091 0.73539 0.0
C372 C 0.36814 0.72979 0.71802 0.0
H373 H 0.32763 0.66419 0.6641 0.0
N374 N 0.32925 0.69442 0.72837 0.0
C375 C 0.31088 0.65814 0.70107 0.0
C376 C 0.34779 0.70748 0.71097 0.0
C377 C 0.31215 0.66892 0.72448 0.0
C378 C 0.32841 0.6727 0.68211 0.0
C379 C 0.34776 0.6973 0.68724 0.0
O380 O 0.33448 0.67208 0.78003 0.0
O381 O 0.29908 0.72094 0.78901 0.0
O382 O 0.31465 0.74871 0.8122 0.0
O383 O 0.35322 0.74301 0.7938 0.0
O384 O 0.29428 0.68186 0.77811 0.0
O385 O 0.36854 0.70592 0.78939 0.0
O386 O 0.31837 0.79796 0.7823 0.0
O387 O 0.32311 0.75706 0.75842 0.0
O388 O 0.29705 0.71586 0.73283 0.0
O389 O 0.2621 0.73426 0.74845 0.0
O390 O 0.29744 0.78398 0.73835 0.0
O391 O 0.27621 0.79489 0.79233 0.0
C392 C 0.28319 0.69681 0.79043 0.0
C393 C 0.35991 0.6652 0.82142 0.0
C394 C 0.36738 0.66721 0.86841 0.0
C395 C 0.36507 0.68092 0.84241 0.0
C396 C 0.36341 0.6373 0.87284 0.0
C397 C 0.35589 0.63557 0.82644 0.0
C398 C 0.3574 0.62172 0.85202 0.0
C399 C 0.34265 0.7511 0.81274 0.0
C400 C 0.35857 0.67893 0.79407 0.0
C401 C 0.36779 0.71133 0.67 0.0
C402 C 0.38864 0.7342 0.67718 0.0
C403 C 0.31915 0.77293 0.73684 0.0
C404 C 0.30179 0.84036 0.7782 0.0
C405 C 0.28109 0.84741 0.75776 0.0
C406 C 0.28231 0.87557 0.74571 0.0
C407 C 0.3048 0.89663 0.75412 0.0
C408 C 0.32407 0.86152 0.78648 0.0
C409 C 0.32555 0.88956 0.77443 0.0
C410 C 0.27058 0.7204 0.73194 0.0
C411 C 0.30114 0.81094 0.7904 0.0
H412 H 0.36764 0.70373 0.83843 0.0
H413 H 0.36596 0.62571 0.89234 0.0
H414 H 0.35173 0.62312 0.8105 0.0
H415 H 0.35457 0.59883 0.85576 0.0
H416 H 0.26422 0.83093 0.75105 0.0
H417 H 0.30611 0.91856 0.74526 0.0
H418 H 0.34037 0.8563 0.80214 0.0
H419 H 0.34278 0.90586 0.78086 0.0
Tb420 Tb 0.25693 0.25231 0.78765 0.0
C421 C 0.33175 0.33603 0.7134 0.0
C422 C 0.29917 0.34852 0.67549 0.0
C423 C 0.34155 0.38261 0.68746 0.0
C424 C 0.30695 0.32912 0.69731 0.0
C425 C 0.34972 0.36265 0.70846 0.0
C426 C 0.31627 0.37555 0.67098 0.0
C427 C 0.38339 0.34697 0.74409 0.0
N428 N 0.33887 0.31605 0.73329 0.0
C429 C 0.36487 0.32084 0.74811 0.0
C430 C 0.37564 0.36811 0.72437 0.0
Tb431 Tb 0.30645 0.27429 0.73931 0.0
N432 N 0.29128 0.30273 0.70227 0.0
C433 C 0.26862 0.29368 0.68475 0.0
C434 C 0.27495 0.33988 0.65847 0.0
C435 C 0.25987 0.31217 0.66292 0.0
H436 H 0.37123 0.30493 0.76358 0.0
H437 H 0.24138 0.30504 0.64962 0.0
H438 H 0.31052 0.39085 0.65447 0.0
H439 H 0.40359 0.3508 0.75627 0.0
H440 H 0.25641 0.27253 0.68789 0.0
H441 H 0.31836 0.22674 0.88103 0.0
H442 H 0.26815 0.35415 0.64154 0.0
H443 H 0.18989 0.22113 0.7672 0.0
H444 H 0.3024 0.25824 0.8426 0.0
H445 H 0.15915 0.17453 0.77574 0.0
H446 H 0.35493 0.40327 0.68345 0.0
H447 H 0.29646 0.17586 0.88703 0.0
H448 H 0.25814 0.13679 0.87233 0.0
H449 H 0.39005 0.3883 0.72125 0.0
H450 H 0.21413 0.12258 0.84365 0.0
N451 N 0.27337 0.22555 0.82506 0.0
C452 C 0.29305 0.23618 0.84423 0.0
C453 C 0.28972 0.18961 0.8697 0.0
C454 C 0.26737 0.17946 0.8515 0.0
C455 C 0.30204 0.2183 0.86642 0.0
C456 C 0.25916 0.19833 0.82938 0.0
H457 H 0.17648 0.13686 0.80827 0.0
N458 N 0.22513 0.21025 0.79426 0.0
C459 C 0.18028 0.17865 0.78637 0.0
C460 C 0.23416 0.19041 0.81345 0.0
C461 C 0.19784 0.20523 0.78171 0.0
C462 C 0.19021 0.15738 0.80462 0.0
C463 C 0.21711 0.16332 0.81892 0.0
O464 O 0.24547 0.29056 0.79283 0.0
O465 O 0.26709 0.28002 0.75202 0.0
O466 O 0.30957 0.30903 0.76168 0.0
O467 O 0.29502 0.2829 0.80072 0.0
O468 O 0.22517 0.26188 0.75465 0.0
O469 O 0.23132 0.25217 0.81743 0.0
O470 O 0.34316 0.25796 0.73664 0.0
O471 O 0.29568 0.2455 0.77492 0.0
O472 O 0.24793 0.21894 0.76217 0.0
O473 O 0.27121 0.24176 0.72603 0.0
O474 O 0.33792 0.26183 0.77154 0.0
O475 O 0.30744 0.25439 0.7067 0.0
C476 C 0.24212 0.27941 0.73995 0.0
C477 C 0.20111 0.28625 0.80912 0.0
C478 C 0.16757 0.30958 0.82499 0.0
C479 C 0.19505 0.30271 0.82669 0.0
C480 C 0.14649 0.30015 0.8052 0.0
C481 C 0.17961 0.27708 0.78964 0.0
C482 C 0.15255 0.2841 0.78766 0.0
C483 C 0.30884 0.30614 0.78726 0.0
C484 C 0.22981 0.2788 0.81137 0.0
C485 C 0.22671 0.14362 0.83942 0.0
C486 C 0.2518 0.1517 0.85573 0.0
C487 C 0.32082 0.24516 0.78647 0.0
C488 C 0.35329 0.2547 0.69463 0.0
C489 C 0.36497 0.23216 0.68956 0.0
C490 C 0.38532 0.23681 0.67159 0.0
C491 C 0.39365 0.26448 0.65868 0.0
C492 C 0.3618 0.28206 0.6815 0.0
C493 C 0.38189 0.28686 0.66358 0.0
C494 C 0.2533 0.22058 0.73768 0.0
C495 C 0.33313 0.24921 0.7144 0.0
H496 H 0.21152 0.30971 0.84189 0.0
H497 H 0.12533 0.30543 0.80312 0.0
H498 H 0.18354 0.26448 0.77595 0.0
H499 H 0.13616 0.27701 0.77248 0.0
H500 H 0.35858 0.21109 0.70001 0.0
H501 H 0.40898 0.26876 0.64451 0.0
H502 H 0.35306 0.29965 0.68518 0.0
H503 H 0.38839 0.30802 0.65346 0.0
Tb504 Tb 0.79893 0.23525 0.76979 0.0
C505 C 0.73761 0.31864 0.69293 0.0
C506 C 0.77342 0.3609 0.68512 0.0
C507 C 0.73412 0.34978 0.65147 0.0
C508 C 0.76259 0.33581 0.70121 0.0
C509 C 0.72257 0.32577 0.66827 0.0
C510 C 0.75953 0.36735 0.6599 0.0
C511 C 0.6843 0.28703 0.68003 0.0
N512 N 0.72689 0.29607 0.70999 0.0
C513 C 0.70001 0.2809 0.70431 0.0
C514 C 0.69583 0.30928 0.66174 0.0
Tb515 Tb 0.75384 0.28779 0.74944 0.0
N516 N 0.77503 0.32904 0.72584 0.0
C517 C 0.7974 0.34769 0.73617 0.0
C518 C 0.79709 0.37934 0.69526 0.0
C519 C 0.80899 0.37279 0.72097 0.0
H520 H 0.69089 0.2636 0.71823 0.0
H521 H 0.82704 0.38713 0.72917 0.0
H522 H 0.76774 0.38633 0.64712 0.0
H523 H 0.66335 0.27455 0.67542 0.0
H524 H 0.80696 0.34325 0.75601 0.0
H525 H 0.71975 0.13717 0.78177 0.0
H526 H 0.80581 0.39903 0.6837 0.0
H527 H 0.86173 0.25091 0.80594 0.0
H528 H 0.7452 0.17869 0.75688 0.0
H529 H 0.88275 0.23813 0.85116 0.0
H530 H 0.72307 0.35547 0.63232 0.0
H531 H 0.73331 0.12557 0.82913 0.0
H532 H 0.76713 0.13612 0.86871 0.0
H533 H 0.68357 0.31408 0.643 0.0
H534 H 0.81152 0.16381 0.88784 0.0
N535 N 0.77354 0.19316 0.78963 0.0
C536 C 0.75203 0.175 0.7774 0.0
C537 C 0.74491 0.14431 0.81826 0.0
C538 C 0.76825 0.1614 0.83037 0.0
C539 C 0.73723 0.15079 0.79155 0.0
C540 C 0.78258 0.18569 0.81533 0.0
H541 H 0.8551 0.20145 0.88132 0.0
N542 N 0.82187 0.22308 0.81065 0.0
C543 C 0.86141 0.22779 0.84452 0.0
C544 C 0.80742 0.20132 0.82623 0.0
C545 C 0.84945 0.23496 0.81887 0.0
C546 C 0.84571 0.20716 0.86149 0.0
C547 C 0.81873 0.19305 0.85222 0.0
O548 O 0.81311 0.22917 0.73497 0.0
O549 O 0.79296 0.27427 0.745 0.0
O550 O 0.75206 0.26454 0.7164 0.0
O551 O 0.76457 0.22265 0.73942 0.0
O552 O 0.83341 0.27187 0.7624 0.0
O553 O 0.82797 0.20756 0.77179 0.0
O554 O 0.71453 0.28959 0.76204 0.0
O555 O 0.76126 0.24993 0.77616 0.0
O556 O 0.80823 0.26289 0.7998 0.0
O557 O 0.78583 0.30133 0.78171 0.0
O558 O 0.72027 0.25141 0.75976 0.0
O559 O 0.75135 0.32212 0.76832 0.0
C560 C 0.81848 0.28772 0.74611 0.0
C561 C 0.86036 0.22069 0.73988 0.0
C562 C 0.89637 0.21384 0.7141 0.0
C563 C 0.86804 0.20765 0.72058 0.0
C564 C 0.91674 0.23372 0.72668 0.0
C565 C 0.88117 0.24034 0.75233 0.0
C566 C 0.90909 0.24694 0.7456 0.0
C567 C 0.75367 0.23738 0.71799 0.0
C568 C 0.83083 0.2132 0.74705 0.0
C569 C 0.80343 0.17016 0.86771 0.0
C570 C 0.77821 0.15437 0.85681 0.0
C571 C 0.73583 0.23647 0.77612 0.0
C572 C 0.70573 0.335 0.76447 0.0
C573 C 0.69533 0.34445 0.78469 0.0
C574 C 0.67668 0.36427 0.77898 0.0
C575 C 0.66865 0.37426 0.75258 0.0
C576 C 0.69768 0.34561 0.73842 0.0
C577 C 0.67921 0.36509 0.73255 0.0
C578 C 0.80301 0.28847 0.79982 0.0
C579 C 0.72427 0.3135 0.77095 0.0
H580 H 0.8522 0.19217 0.71114 0.0
H581 H 0.9386 0.23904 0.72185 0.0
H582 H 0.87613 0.25049 0.76737 0.0
H583 H 0.92492 0.26218 0.75527 0.0
H584 H 0.702 0.33651 0.80481 0.0
H585 H 0.65389 0.38894 0.74728 0.0
H586 H 0.70542 0.33873 0.72261 0.0
H587 H 0.67287 0.37298 0.71236 0.0
Tb588 Tb 0.78471 0.75374 0.74548 0.0
C589 C 0.87113 0.82113 0.82104 0.0
C590 C 0.87851 0.78698 0.85945 0.0
C591 C 0.91667 0.82665 0.8485 0.0
C592 C 0.86122 0.79667 0.83691 0.0
C593 C 0.89864 0.83698 0.82699 0.0
C594 C 0.90661 0.80163 0.86472 0.0
C595 C 0.88695 0.87353 0.79208 0.0
N596 N 0.85277 0.83056 0.80088 0.0
C597 C 0.8598 0.85706 0.78714 0.0
C598 C 0.90666 0.86324 0.81182 0.0
Tb599 Tb 0.80909 0.80184 0.79324 0.0
N600 N 0.83383 0.78354 0.83126 0.0
C601 C 0.82166 0.76182 0.84882 0.0
C602 C 0.86667 0.76356 0.87648 0.0
C603 C 0.83795 0.75125 0.87137 0.0
H604 H 0.84481 0.86525 0.77178 0.0
H605 H 0.82835 0.73349 0.88469 0.0
H606 H 0.92036 0.79433 0.88175 0.0
H607 H 0.89264 0.89415 0.78066 0.0
H608 H 0.79965 0.75171 0.84527 0.0
H609 H 0.7643 0.82224 0.65453 0.0
H610 H 0.87923 0.75535 0.89395 0.0
H611 H 0.74865 0.69118 0.76915 0.0
H612 H 0.79354 0.8042 0.69379 0.0
H613 H 0.70099 0.66191 0.76046 0.0
H614 H 0.93802 0.83833 0.85325 0.0
H615 H 0.71369 0.79946 0.64527 0.0
H616 H 0.67317 0.75974 0.6574 0.0
H617 H 0.9276 0.87611 0.81574 0.0
H618 H 0.65595 0.71579 0.68615 0.0
N619 N 0.75974 0.77179 0.70766 0.0
C620 C 0.77157 0.79384 0.69023 0.0
C621 C 0.72644 0.7914 0.66267 0.0
C622 C 0.715 0.76768 0.67961 0.0
C623 C 0.75501 0.80425 0.6678 0.0
C624 C 0.7325 0.7582 0.70207 0.0
H625 H 0.66639 0.67881 0.72439 0.0
N626 N 0.7411 0.72476 0.73863 0.0
C627 C 0.70681 0.68213 0.74845 0.0
C628 C 0.72284 0.73369 0.71812 0.0
C629 C 0.73388 0.69879 0.75327 0.0
C630 C 0.68731 0.69177 0.72813 0.0
C631 C 0.69537 0.71767 0.7124 0.0
O632 O 0.79714 0.71527 0.74278 0.0
O633 O 0.81326 0.76322 0.78023 0.0
O634 O 0.84521 0.80496 0.77069 0.0
O635 O 0.82043 0.78712 0.7333 0.0
O636 O 0.79502 0.72192 0.77884 0.0
O637 O 0.80715 0.75206 0.71417 0.0
O638 O 0.79683 0.84014 0.79674 0.0
O639 O 0.78079 0.79271 0.75824 0.0
O640 O 0.74845 0.75231 0.76692 0.0
O641 O 0.77366 0.76738 0.80508 0.0
O642 O 0.79927 0.83383 0.76001 0.0
O643 O 0.78499 0.80247 0.82373 0.0
C644 C 0.81276 0.73852 0.7927 0.0
C645 C 0.8023 0.70738 0.70045 0.0
C646 C 0.81827 0.67687 0.67491 0.0
C647 C 0.82353 0.6935 0.69532 0.0
C648 C 0.79128 0.67411 0.65999 0.0
C649 C 0.7756 0.70431 0.68533 0.0
C650 C 0.77014 0.68768 0.66525 0.0
C651 C 0.84367 0.80041 0.74615 0.0
C652 C 0.80868 0.72541 0.72126 0.0
C653 C 0.67725 0.72763 0.69077 0.0
C654 C 0.68705 0.75265 0.6744 0.0
C655 C 0.78164 0.81752 0.7458 0.0
C656 C 0.79111 0.84607 0.83952 0.0
C657 C 0.76911 0.85616 0.84818 0.0
C658 C 0.77492 0.87165 0.86944 0.0
C659 C 0.80318 0.87704 0.88167 0.0
C660 C 0.81903 0.85162 0.8521 0.0
C661 C 0.82501 0.86708 0.87302 0.0
C662 C 0.75016 0.75468 0.79198 0.0
C663 C 0.78444 0.82939 0.8177 0.0
H664 H 0.84429 0.69615 0.70685 0.0
H665 H 0.78642 0.66123 0.64436 0.0
H666 H 0.75907 0.71484 0.68893 0.0
H667 H 0.74946 0.68536 0.65365 0.0
H668 H 0.74745 0.85152 0.83865 0.0
H669 H 0.80851 0.88924 0.89778 0.0
H670 H 0.83619 0.84402 0.84581 0.0
H671 H 0.84665 0.87138 0.88258 0.0
Fe672 Fe 1.03223 0.04924 0.50761 0.0
O673 O 1.01363 1.01111 0.52405 0.0
Fe674 Fe 0.09686 0.03592 0.49362 0.0
Fe675 Fe 0.9719 0.99928 0.52324 0.0
O676 O 0.05502 0.02726 0.49234 0.0
O677 O 0.05491 0.0246 0.492 0.0
O678 O 1.01366 1.00843 0.52389 0.0
Fe679 Fe 0.03586 0.98641 0.50801 0.0
C680 C 0.98895 0.05567 0.54419 0.0
O681 O 1.00286 0.04729 0.47505 0.0
O682 O 0.9628 0.03133 0.49413 0.0
O683 O 0.06175 0.96868 0.48815 0.0
O684 O 0.0905 1.00755 0.46726 0.0
O685 O 0.08811 0.07116 0.46841 0.0
O686 O 0.0545 0.08653 0.48753 0.0
O687 O 0.96602 0.97289 0.49497 0.0
O688 O 1.00608 0.98376 0.47558 0.0
C689 C 0.07348 0.08998 0.47116 0.0
O690 O 0.06532 0.98736 0.54041 0.0
O691 O 0.10527 1.00241 0.52132 0.0
O692 O 1.00581 0.06725 0.52627 0.0
O693 O 0.97787 0.02886 0.54849 0.0
C694 C 0.97575 0.04281 0.4743 0.0
C695 C 0.97943 0.97375 0.47538 0.0
C696 C 0.99661 0.94662 0.54651 0.0
O697 O 0.98208 0.9654 0.54953 0.0
O698 O 1.0135 0.94912 0.5284 0.0
C699 C 0.07871 0.98084 0.47034 0.0
O700 O 0.10278 0.06094 0.52308 0.0
O701 O 0.06147 0.05256 0.54039 0.0
C702 C 0.09213 0.98951 0.54061 0.0
C703 C 0.0884 0.06144 0.54169 0.0
Fe704 Fe 0.53679 0.98072 0.02032 0.0
O705 O 0.55659 0.01599 0.03505 0.0
Fe706 Fe 0.47115 0.99879 0.99282 0.0
Fe707 Fe 0.59851 0.02763 0.03956 0.0
O708 O 0.51313 1.00729 0.99807 0.0
O709 O 0.51305 1.01052 0.9974 0.0
O710 O 0.55648 0.01925 0.03441 0.0
Fe711 Fe 0.53291 0.04586 1.01199 0.0
C712 C 0.58506 0.96608 0.06547 0.0
O713 O 0.56414 0.988 0.99187 0.0
O714 O 0.60578 1.00085 0.01545 0.0
O715 O 0.50418 0.06864 0.98537 0.0
O716 O 0.47458 0.03382 0.96419 0.0
O717 O 0.47916 0.96948 0.97195 0.0
O718 O 0.51226 0.94749 1.00024 0.0
O719 O 0.60208 0.06033 1.00867 0.0
O720 O 0.56054 0.05484 0.98331 0.0
C721 C 0.49306 0.9487 0.97973 0.0
O722 O 0.50546 0.03888 0.04035 0.0
O723 O 0.46386 0.02548 0.0168 0.0
O724 O 0.56548 0.95791 0.04667 0.0
O725 O 0.59514 0.99245 0.06815 0.0
C726 C 0.5913 0.99093 0.99558 0.0
C727 C 0.58742 0.06423 0.98649 0.0
C728 C 0.57688 0.0779 0.0526 0.0
O729 O 0.59058 0.05698 0.06049 0.0
O730 O 0.55764 0.07911 0.03208 0.0
C731 C 0.48446 0.06026 0.96672 0.0
O732 O 0.46751 0.96634 0.02391 0.0
O733 O 0.50925 0.97138 0.04908 0.0
C734 C 0.47825 0.03524 0.03677 0.0
C735 C 0.48225 0.96258 0.04606 0.0
Fe736 Fe 0.03825 0.54506 1.00882 0.0
O737 O 1.01029 0.51221 0.99642 0.0
Fe738 Fe 0.09779 0.51349 0.03442 0.0
Fe739 Fe 0.96849 0.50935 0.9946 0.0
O740 O 0.05669 0.51421 0.03101 0.0
O741 O 0.0561 0.51102 0.03206 0.0
O742 O 1.00965 0.50898 0.99753 0.0
Fe743 Fe 1.02822 0.47824 0.01971 0.0
C744 C 0.98878 0.54847 0.03644 0.0
O745 O 1.01379 0.57287 0.98309 0.0
O746 O 0.97622 0.54231 0.9643 0.0
O747 O 0.05197 0.47796 0.98972 0.0
O748 O 0.09543 0.48197 1.01182 0.0
O749 O 0.10522 0.54301 1.0015 0.0
O750 O 0.06282 0.54728 0.97863 0.0
O751 O 0.9664 0.47563 0.97507 0.0
O752 O 0.99614 0.44836 1.00236 0.0
C753 C 0.09005 0.5502 0.98027 0.0
O754 O 0.05257 0.45039 0.04531 0.0
O755 O 0.08958 0.48082 0.06496 0.0
O756 O 1.0148 0.54557 0.03877 0.0
O757 O 0.97081 0.54039 0.01762 0.0
C758 C 0.99181 0.56734 0.96549 0.0
C759 C 0.97565 0.45204 0.98349 0.0
C760 C 0.97637 0.47229 0.04844 0.0
O761 O 0.96146 0.47924 0.02702 0.0
O762 O 1.0037 0.47609 0.05019 0.0
C763 C 0.07788 0.47448 0.99247 0.0
O764 O 0.09939 0.54729 0.05389 0.0
O765 O 0.07025 0.5749 0.02636 0.0
C766 C 0.0741 0.45584 0.06331 0.0
C767 C 0.08958 0.57071 0.0462 0.0
Fe768 Fe 0.53203 0.51786 0.98656 0.0
O769 O 0.56325 0.52437 0.01629 0.0
Fe770 Fe 0.46871 0.49675 0.01643 0.0
Fe771 Fe 0.60456 0.52402 0.01488 0.0
O772 O 0.50905 0.49266 0.01391 0.0
O773 O 0.50841 0.49328 0.01706 0.0
O774 O 0.56275 0.52319 0.01939 0.0
Fe775 Fe 0.53711 0.50087 0.04781 0.0
C776 C 0.57536 0.4875 0.97179 0.0
O777 O 0.55772 0.54625 0.96152 0.0
O778 O 0.59752 0.56046 0.98929 0.0
O779 O 0.52332 0.53739 0.05162 0.0
O780 O 0.47657 0.51961 0.04744 0.0
O781 O 0.47085 0.53453 0.99155 0.0
O782 O 0.51719 0.55196 0.99428 0.0
O783 O 0.60973 0.53814 0.05123 0.0
O784 O 0.57259 0.51291 0.07526 0.0
C785 C 0.4915 0.55535 0.99281 0.0
O786 O 0.50782 0.47676 0.07265 0.0
O787 O 0.46848 0.46125 0.04446 0.0
O788 O 0.54944 0.4856 0.97673 0.0
O789 O 0.5966 0.50498 0.98118 0.0
C790 C 0.58126 0.56349 0.96732 0.0
C791 C 0.59743 0.52981 0.07277 0.0
C792 C 0.56807 0.47176 0.03281 0.0
O793 O 0.56959 0.49834 0.02448 0.0
O794 O 0.54875 0.46237 0.04697 0.0
C795 C 0.49769 0.53788 0.0552 0.0
O796 O 0.46206 0.47796 0.98311 0.0
O797 O 0.49649 0.50668 0.95888 0.0
C798 C 0.48405 0.45946 0.067 0.0
C799 C 0.47317 0.48759 0.9613 0.0
Fe800 Fe 0.04604 0.45016 0.52038 0.0
O801 O 0.04971 0.4915 0.51826 0.0
Fe802 Fe 1.03018 0.51328 0.48334 0.0
Fe803 Fe 0.03682 0.5095 0.54519 0.0
O804 O 0.04897 0.49156 0.51513 0.0
O805 O 1.01727 0.53121 0.51034 0.0
O806 O 1.0181 0.53122 0.51345 0.0
Fe807 Fe 1.02111 0.57261 0.50827 0.0
C808 C 0.99845 0.45269 0.55382 0.0
O809 O 0.07742 0.45597 0.55135 0.0
O810 O 0.0595 0.48351 0.57473 0.0
O811 O 0.04984 0.58267 0.48021 0.0
O812 O 0.06716 0.54345 0.48114 0.0
O813 O 0.04818 0.49129 0.45997 0.0
O814 O 0.07165 0.46072 0.49034 0.0
O815 O 0.07394 0.53979 0.54568 0.0
O816 O 0.05505 0.57898 0.53697 0.0
C817 C 0.06691 0.47449 0.46701 0.0
O818 O 0.98933 0.56635 0.47775 0.0
O819 O 1.00714 0.53923 0.45385 0.0
O820 O 1.01717 0.44012 0.54817 0.0
O821 O 0.99982 0.47932 0.54746 0.0
C822 C 0.07635 0.46609 0.57255 0.0
C823 C 0.07536 0.56595 0.54704 0.0
C824 C 1.00042 0.54853 0.56176 0.0
O825 O 1.01904 0.5316 0.56868 0.0
O826 O 0.99562 0.56226 0.53844 0.0
C827 C 0.06859 0.57005 0.47468 0.0
O828 O 0.9931 0.48276 0.48257 0.0
O829 O 1.01238 0.44377 0.49157 0.0
C830 C 0.98967 0.55585 0.45659 0.0
C831 C 0.99195 0.45656 0.48145 0.0
Fe832 Fe 0.54978 0.95136 0.51711 0.0
O833 O 0.55111 0.99212 0.51512 0.0
Fe834 Fe 0.52748 1.01284 0.48215 0.0
Fe835 Fe 0.54077 1.00914 0.54391 0.0
O836 O 0.55045 0.99249 0.51201 0.0
O837 O 0.51704 0.02982 0.51094 0.0
O838 O 0.51774 0.02948 0.51407 0.0
Fe839 Fe 0.51851 0.07065 0.50895 0.0
C840 C 0.50609 0.95075 0.55559 0.0
O841 O 0.58429 0.9593 0.5449 0.0
O842 O 0.56762 0.98456 0.57121 0.0
O843 O 0.54332 0.08215 0.47792 0.0
O844 O 0.56269 0.04475 0.4764 0.0
O845 O 0.54292 0.9914 0.45642 0.0
O846 O 0.57104 0.96293 0.48422 0.0
O847 O 0.57624 0.04104 0.54035 0.0
O848 O 0.55511 0.07881 0.53419 0.0
C849 C 0.56257 0.9755 0.46128 0.0
O850 O 0.48395 0.06272 0.48121 0.0
O851 O 0.50052 0.03738 0.45488 0.0
O852 O 0.52501 0.93985 0.54808 0.0
O853 O 0.50557 0.97717 0.54985 0.0
C854 C 0.58498 0.9685 0.56694 0.0
C855 C 0.57702 0.0672 0.54114 0.0
C856 C 0.50605 0.04676 0.56486 0.0
O857 O 0.52556 0.03072 0.56961 0.0
O858 O 0.49732 0.05923 0.54197 0.0
C859 C 0.56228 0.07116 0.47058 0.0
O860 O 0.49205 0.98094 0.48556 0.0
O861 O 0.51318 0.94313 0.49184 0.0
C862 C 0.48306 0.05328 0.45924 0.0
C863 C 0.49131 0.95478 0.48479 0.0
H864 H 0.19 0.17471 0.29631 0.0
H865 H 0.15056 0.16431 0.32337 0.0
H866 H 0.15269 0.25396 0.31992 0.0
H867 H 0.19305 0.2642 0.29364 0.0
H868 H 0.15469 0.23146 0.3673 0.0
H869 H 0.06721 0.16297 0.31606 0.0
H870 H 0.09901 0.14862 0.31764 0.0
H871 H 0.09713 0.18346 0.29974 0.0
C872 C 0.18134 0.19207 0.30064 0.0
C873 C 0.1941 0.22016 0.29283 0.0
C874 C 0.15866 0.18619 0.31596 0.0
C875 C 0.14809 0.20834 0.32329 0.0
C876 C 0.16021 0.23651 0.31437 0.0
H877 H 0.03545 0.12096 0.44148 0.0
H878 H 0.04689 0.1596 0.40538 0.0
C879 C 0.18319 0.24235 0.29941 0.0
C880 C 0.1279 0.20193 0.34349 0.0
H881 H 0.07226 0.15164 0.36459 0.0
C882 C 0.13607 0.21464 0.36631 0.0
C883 C 0.10297 0.18072 0.34219 0.0
C884 C 0.09095 0.16849 0.3174 0.0
C885 C 0.12219 0.20426 0.38879 0.0
C886 C 0.10019 0.18011 0.38864 0.0
C887 C 0.08961 0.16978 0.36494 0.0
C888 C 0.09276 0.16168 0.41322 0.0
C889 C 0.13253 0.21808 0.41301 0.0
C890 C 0.1147 0.15055 0.42983 0.0
C891 C 0.10822 0.12857 0.45001 0.0
C892 C 0.07966 0.11723 0.45408 0.0
C893 C 0.05764 0.12956 0.43876 0.0
C894 C 0.06415 0.15151 0.41816 0.0
H895 H 0.13933 0.24134 0.40775 0.0
H896 H 0.11569 0.21407 0.42644 0.0
H897 H 0.15148 0.20958 0.42346 0.0
H898 H 0.13686 0.15745 0.42608 0.0
H899 H 0.12555 0.11933 0.46157 0.0
H900 H 0.81067 0.09942 0.26128 0.0
H901 H 0.84344 0.08016 0.29672 0.0
H902 H 0.84593 0.15113 0.33704 0.0
H903 H 0.81144 0.16924 0.30301 0.0
H904 H 0.89677 0.09977 0.31608 0.0
H905 H 0.82471 0.08631 0.39294 0.0
H906 H 0.8128 0.09482 0.35872 0.0
H907 H 0.83186 0.12228 0.3772 0.0
C908 C 0.81776 0.11068 0.27791 0.0
C909 C 0.80813 0.13577 0.27933 0.0
C910 C 0.83676 0.09981 0.29799 0.0
C911 C 0.84665 0.11393 0.31974 0.0
C912 C 0.83798 0.1395 0.32076 0.0
H913 H 0.99121 0.08572 0.43506 0.0
H914 H 0.96061 0.10202 0.39616 0.0
C915 C 0.81859 0.15009 0.30099 0.0
C916 C 0.86583 0.10181 0.34151 0.0
H917 H 0.87325 0.08236 0.40753 0.0
C918 C 0.89158 0.09572 0.33608 0.0
C919 C 0.85873 0.09607 0.36749 0.0
C920 C 0.83038 0.09992 0.37441 0.0
C921 C 0.91072 0.0845 0.35605 0.0
C922 C 0.90427 0.08018 0.38219 0.0
C923 C 0.87832 0.08592 0.38751 0.0
C924 C 0.92371 0.06937 0.40451 0.0
C925 C 0.93726 0.07688 0.34883 0.0
C926 C 0.91301 0.046 0.42235 0.0
C927 C 0.93011 0.03733 0.44491 0.0
C928 C 0.9584 0.05156 0.44985 0.0
C929 C 0.96949 0.07436 0.43161 0.0
C930 C 0.95212 0.08348 0.40927 0.0
H931 H 0.93443 0.07287 0.32821 0.0
H932 H 0.95543 0.09481 0.3509 0.0
H933 H 0.94297 0.05778 0.36171 0.0
H934 H 0.89119 0.03476 0.41906 0.0
H935 H 0.92111 0.01953 0.45855 0.0
H936 H 0.82401 0.86308 0.27682 0.0
H937 H 0.85306 0.89639 0.30514 0.0
H938 H 0.88008 0.82609 0.3581 0.0
H939 H 0.85058 0.7932 0.33056 0.0
H940 H 0.86207 0.85863 0.38416 0.0
H941 H 0.93724 0.92661 0.31801 0.0
H942 H 0.90022 0.92598 0.3059 0.0
H943 H 0.91484 0.89412 0.30971 0.0
C944 C 0.83637 0.85494 0.29445 0.0
C945 C 0.83452 0.82559 0.3019 0.0
C946 C 0.85315 0.87394 0.31051 0.0
C947 C 0.8689 0.86383 0.33385 0.0
C948 C 0.86795 0.83451 0.34044 0.0
H949 H 1.00087 0.95242 0.4384 0.0
H950 H 0.97363 0.92784 0.40286 0.0
C951 C 0.85091 0.81566 0.32475 0.0
C952 C 0.88479 0.88304 0.35262 0.0
H953 H 0.93808 0.94061 0.35965 0.0
C954 C 0.87871 0.87654 0.37873 0.0
C955 C 0.90672 0.90629 0.34571 0.0
C956 C 0.91539 0.91356 0.31837 0.0
C957 C 0.89406 0.89217 0.39811 0.0
C958 C 0.91545 0.91592 0.39113 0.0
C959 C 0.92149 0.92262 0.36499 0.0
C960 C 0.93223 0.93333 0.41097 0.0
C961 C 0.88783 0.88226 0.42606 0.0
C962 C 0.91822 0.94544 0.42686 0.0
C963 C 0.93364 0.95888 0.44751 0.0
C964 C 0.96357 0.96131 0.45227 0.0
C965 C 0.97782 0.9508 0.43532 0.0
C966 C 0.96227 0.9368 0.41495 0.0
H967 H 0.87753 0.85954 0.42907 0.0
H968 H 0.90768 0.88518 0.43986 0.0
H969 H 0.87284 0.89469 0.43098 0.0
H970 H 0.8952 0.94392 0.4237 0.0
H971 H 0.92205 0.96716 0.45992 0.0
H972 H 0.16264 0.82814 0.32193 0.0
H973 H 0.13775 0.84062 0.355 0.0
H974 H 0.16068 0.92911 0.32443 0.0
H975 H 0.18592 0.91698 0.29172 0.0
H976 H 0.15996 0.87693 0.39369 0.0
H977 H 0.0731 0.91667 0.325 0.0
H978 H 0.09525 0.89466 0.3161 0.0
H979 H 0.10815 0.93207 0.31573 0.0
C980 C 0.16255 0.85028 0.32236 0.0
C981 C 0.17611 0.87156 0.30401 0.0
C982 C 0.14818 0.85733 0.34117 0.0
C983 C 0.14692 0.88573 0.34182 0.0
C984 C 0.1608 0.907 0.32385 0.0
H985 H 0.1066 0.99953 0.42692 0.0
H986 H 0.11942 0.97167 0.3975 0.0
C987 C 0.17519 0.90002 0.30513 0.0
C988 C 0.1318 0.89355 0.3616 0.0
H989 H 0.08093 0.93126 0.36753 0.0
C990 C 0.14228 0.88829 0.38812 0.0
C991 C 0.1086 0.90816 0.35423 0.0
C992 C 0.0954 0.913 0.32624 0.0
C993 C 0.13144 0.89903 0.40725 0.0
C994 C 0.10941 0.9151 0.39961 0.0
C995 C 0.09788 0.91897 0.3733 0.0
C996 C 0.10065 0.93118 0.41782 0.0
C997 C 0.14472 0.89463 0.43525 0.0
C998 C 0.08552 0.91759 0.43898 0.0
C999 C 0.078 0.93357 0.45605 0.0
C1000 C 0.08565 0.96335 0.45223 0.0
C1001 C 0.1005 0.97668 0.43074 0.0
C1002 C 0.10781 0.96079 0.41375 0.0
H1003 H 0.16359 0.88409 0.43749 0.0
H1004 H 0.15148 0.91528 0.44272 0.0
H1005 H 0.12861 0.88126 0.44756 0.0
H1006 H 0.07954 0.89472 0.44225 0.0
H1007 H 0.06649 0.9226 0.47232 0.0
H1008 H 0.22459 0.85708 0.74427 0.0
H1009 H 0.18751 0.86966 0.70946 0.0
H1010 H 0.25241 0.9232 0.66502 0.0
H1011 H 0.28966 0.91032 0.69947 0.0
H1012 H 0.17837 0.9261 0.69137 0.0
H1013 H 0.2018 0.87425 0.61217 0.0
H1014 H 0.2142 0.86445 0.64617 0.0
H1015 H 0.23279 0.89539 0.62741 0.0
C1016 C 0.23096 0.87123 0.72691 0.0
C1017 C 0.25997 0.88281 0.72454 0.0
C1018 C 0.20979 0.87841 0.70715 0.0
C1019 C 0.21736 0.89702 0.68466 0.0
C1020 C 0.24628 0.90843 0.68212 0.0
H1021 H 0.15007 0.99571 0.55128 0.0
H1022 H 0.1772 0.97037 0.58738 0.0
C1023 C 0.26746 0.90135 0.7019 0.0
C1024 C 0.19504 0.90618 0.66455 0.0
H1025 H 0.17311 0.91029 0.59929 0.0
C1026 C 0.17679 0.92229 0.6713 0.0
C1027 C 0.19313 0.90095 0.63853 0.0
C1028 C 0.21133 0.88258 0.63063 0.0
C1029 C 0.15772 0.93484 0.65225 0.0
C1030 C 0.15678 0.9307 0.626 0.0
C1031 C 0.17409 0.91348 0.61949 0.0
C1032 C 0.13981 0.94596 0.60465 0.0
C1033 C 0.13986 0.9536 0.66007 0.0
C1034 C 0.10981 0.94058 0.6026 0.0
C1035 C 0.09418 0.95514 0.58203 0.0
C1036 C 0.10839 0.97508 0.56315 0.0
C1037 C 0.13847 0.98042 0.56544 0.0
C1038 C 0.15402 0.96595 0.586 0.0
H1039 H 0.14667 0.95834 0.68034 0.0
H1040 H 0.14121 0.97391 0.64653 0.0
H1041 H 0.11711 0.94283 0.65892 0.0
H1042 H 0.09853 0.92491 0.61669 0.0
H1043 H 0.07103 0.95039 0.58063 0.0
H1044 H 0.21796 0.16947 0.75243 0.0
H1045 H 0.18682 0.13812 0.72361 0.0
H1046 H 0.21986 0.1924 0.65642 0.0
H1047 H 0.25036 0.22371 0.68465 0.0
H1048 H 0.15825 0.17853 0.65349 0.0
H1049 H 0.21042 0.08375 0.67952 0.0
H1050 H 0.20122 0.09855 0.70586 0.0
H1051 H 0.22855 0.11844 0.68647 0.0
C1052 C 0.21838 0.17486 0.73154 0.0
C1053 C 0.23618 0.19967 0.721 0.0
C1054 C 0.2008 0.15673 0.71508 0.0
C1055 C 0.2009 0.16299 0.68781 0.0
C1056 C 0.21922 0.18723 0.67737 0.0
H1057 H 0.14624 0.07752 0.55414 0.0
H1058 H 0.17107 0.09996 0.59157 0.0
C1059 C 0.23674 0.20519 0.69369 0.0
C1060 C 0.18159 0.14508 0.66968 0.0
H1061 H 0.17142 0.08173 0.64654 0.0
C1062 C 0.16085 0.15721 0.65218 0.0
C1063 C 0.18523 0.11739 0.66784 0.0
C1064 C 0.20763 0.10365 0.68576 0.0
C1065 C 0.1441 0.14271 0.63253 0.0
C1066 C 0.14798 0.11516 0.63042 0.0
C1067 C 0.16834 0.10277 0.64826 0.0
C1068 C 0.13255 0.0998 0.60868 0.0
C1069 C 0.12323 0.1575 0.61348 0.0
C1070 C 0.10258 0.09173 0.60601 0.0
C1071 C 0.08822 0.07887 0.58454 0.0
C1072 C 0.10355 0.0738 0.56525 0.0
C1073 C 0.13364 0.08126 0.56842 0.0
C1074 C 0.14794 0.09401 0.58991 0.0
H1075 H 0.12682 0.18055 0.61462 0.0
H1076 H 0.12493 0.15468 0.59313 0.0
H1077 H 0.10108 0.14809 0.61794 0.0
H1078 H 0.09025 0.09562 0.62043 0.0
H1079 H 0.06507 0.07332 0.58288 0.0
H1080 H 0.87006 0.20639 0.66512 0.0
H1081 H 0.88555 0.18252 0.63328 0.0
H1082 H 0.9575 0.16366 0.68843 0.0
H1083 H 0.94255 0.18808 0.71989 0.0
H1084 H 0.97347 0.18266 0.64058 0.0
H1085 H 0.87665 0.09835 0.63464 0.0
H1086 H 0.86921 0.13363 0.62632 0.0
H1087 H 0.88364 0.1217 0.65908 0.0
C1088 C 0.88907 0.19697 0.67041 0.0
C1089 C 0.90511 0.199 0.69492 0.0
C1090 C 0.89786 0.18331 0.65228 0.0
C1091 C 0.92246 0.17096 0.65863 0.0
C1092 C 0.93848 0.17306 0.6831 0.0
H1093 H 0.96871 0.04011 0.59167 0.0
H1094 H 0.95358 0.07 0.61805 0.0
C1095 C 0.92993 0.187 0.70105 0.0
C1096 C 0.93181 0.15584 0.63993 0.0
H1097 H 0.91108 0.0996 0.60612 0.0
C1098 C 0.95983 0.16452 0.63298 0.0
C1099 C 0.91405 0.13203 0.63026 0.0
C1100 C 0.88432 0.12066 0.63812 0.0
C1101 C 0.97075 0.14976 0.61697 0.0
C1102 C 0.95286 0.12617 0.60705 0.0
C1103 C 0.92469 0.11781 0.61364 0.0
C1104 C 0.9633 0.10871 0.59112 0.0
C1105 C 1.00164 0.15893 0.6117 0.0
C1106 C 0.97399 0.12057 0.56723 0.0
C1107 C 0.98304 0.10353 0.55218 0.0
C1108 C 0.98102 0.07426 0.56056 0.0
C1109 C 0.97037 0.06254 0.58453 0.0
C1110 C 0.96169 0.07959 0.59965 0.0
H1111 H 1.01424 0.1724 0.62605 0.0
H1112 H 1.01193 0.14032 0.61232 0.0
H1113 H 1.00261 0.17151 0.59194 0.0
H1114 H 0.97485 0.14288 0.55999 0.0
H1115 H 0.9909 0.11315 0.53369 0.0
H1116 H 0.87683 0.85344 0.74054 0.0
H1117 H 0.91184 0.87197 0.70908 0.0
H1118 H 0.90023 0.7893 0.68561 0.0
H1119 H 0.86555 0.77065 0.71728 0.0
H1120 H 0.96154 0.82569 0.68941 0.0
H1121 H 0.87418 0.87495 0.62904 0.0
H1122 H 0.88208 0.88128 0.6625 0.0
H1123 H 0.86733 0.84613 0.65539 0.0
C1124 C 0.8826 0.83902 0.72949 0.0
C1125 C 0.86862 0.81065 0.7314 0.0
C1126 C 0.90241 0.84964 0.71136 0.0
C1127 C 0.90847 0.83196 0.69504 0.0
C1128 C 0.8959 0.8032 0.69812 0.0
H1129 H 0.96104 0.89655 0.5413 0.0
H1130 H 0.94282 0.8619 0.57775 0.0
C1131 C 0.87601 0.79266 0.71609 0.0
C1132 C 0.92472 0.8441 0.6725 0.0
H1133 H 0.91891 0.88455 0.6127 0.0
C1134 C 0.95232 0.83854 0.67257 0.0
C1135 C 0.91228 0.86028 0.65043 0.0
C1136 C 0.88226 0.86595 0.64906 0.0
C1137 C 0.9682 0.84961 0.65128 0.0
C1138 C 0.95603 0.86654 0.62954 0.0
C1139 C 0.92814 0.87139 0.62931 0.0
C1140 C 0.9723 0.8816 0.60763 0.0
C1141 C 0.99776 0.84312 0.65214 0.0
C1142 C 0.99573 0.90331 0.61229 0.0
C1143 C 1.00612 0.92294 0.59153 0.0
C1144 C 0.9934 0.92099 0.56585 0.0
C1145 C 0.97163 0.89794 0.56092 0.0
C1146 C 0.96112 0.87833 0.58172 0.0
H1147 H 1.00068 0.82376 0.66614 0.0
H1148 H 1.00203 0.84024 0.63251 0.0
H1149 H 1.01387 0.86112 0.65861 0.0
H1150 H 1.00425 0.90668 0.63209 0.0
H1151 H 1.02233 0.9411 0.59577 0.0
H1152 H 0.28343 0.09466 0.14595 0.0
H1153 H 0.31991 0.07701 0.12842 0.0
H1154 H 0.3813 0.15205 0.14313 0.0
H1155 H 0.3447 0.17043 0.16002 0.0
H1156 H 0.3524 0.11264 0.08385 0.0
H1157 H 0.42044 0.07916 0.17491 0.0
H1158 H 0.38304 0.08035 0.17498 0.0
H1159 H 0.40865 0.11267 0.17105 0.0
C1160 C 0.30463 0.10753 0.14541 0.0
C1161 C 0.311 0.1341 0.15425 0.0
C1162 C 0.32551 0.09727 0.13558 0.0
C1163 C 0.35327 0.11315 0.13468 0.0
C1164 C 0.36004 0.13934 0.144 0.0
H1165 H 0.49805 0.07533 0.06956 0.0
H1166 H 0.46932 0.09507 0.09479 0.0
C1167 C 0.33909 0.14975 0.15371 0.0
C1168 C 0.3744 0.10307 0.12219 0.0
H1169 H 0.43361 0.07195 0.13504 0.0
C1170 C 0.37023 0.10384 0.095 0.0
C1171 C 0.39778 0.09199 0.13682 0.0
C1172 C 0.40292 0.09079 0.1661 0.0
C1173 C 0.38863 0.09343 0.082 0.0
C1174 C 0.41135 0.08116 0.0967 0.0
C1175 C 0.41605 0.08115 0.12386 0.0
C1176 C 0.42956 0.06735 0.08407 0.0
C1177 C 0.38363 0.09582 0.05258 0.0
C1178 C 0.41697 0.04449 0.07063 0.0
C1179 C 0.43317 0.03339 0.05614 0.0
C1180 C 0.46245 0.04463 0.05507 0.0
C1181 C 0.47552 0.06628 0.06996 0.0
C1182 C 0.45914 0.0776 0.08433 0.0
H1183 H 0.37133 0.11285 0.04396 0.0
H1184 H 0.40419 0.10024 0.04391 0.0
H1185 H 0.37102 0.07553 0.04702 0.0
H1186 H 0.39435 0.03575 0.07075 0.0
H1187 H 0.42258 0.01636 0.04527 0.0
H1188 H 0.84877 0.34026 0.2542 0.0
H1189 H 0.88349 0.36507 0.22389 0.0
H1190 H 0.8143 0.37276 0.16214 0.0
H1191 H 0.77988 0.34681 0.19227 0.0
H1192 H 0.85664 0.35572 0.14493 0.0
H1193 H 0.90447 0.44753 0.19661 0.0
H1194 H 0.907 0.41404 0.21639 0.0
H1195 H 0.87238 0.42338 0.20551 0.0
C1196 C 0.8411 0.34716 0.23412 0.0
C1197 C 0.81178 0.34098 0.22539 0.0
C1198 C 0.86091 0.36174 0.21685 0.0
C1199 C 0.85168 0.3713 0.19063 0.0
C1200 C 0.82215 0.36571 0.18217 0.0
H1201 H 0.91869 0.46337 0.0507 0.0
H1202 H 0.89139 0.43856 0.08614 0.0
C1203 C 0.80243 0.35081 0.19936 0.0
C1204 C 0.87268 0.3859 0.17168 0.0
H1205 H 0.92669 0.443 0.16008 0.0
C1206 C 0.87197 0.37471 0.14843 0.0
C1207 C 0.89291 0.41081 0.17597 0.0
C1208 C 0.89414 0.42483 0.19984 0.0
C1209 C 0.89064 0.38755 0.12954 0.0
C1210 C 0.91045 0.41269 0.13358 0.0
C1211 C 0.91167 0.42366 0.15701 0.0
C1212 C 0.92813 0.42896 0.11265 0.0
C1213 C 0.88896 0.37403 0.10528 0.0
C1214 C 0.95825 0.43271 0.11584 0.0
C1215 C 0.97426 0.44707 0.09532 0.0
C1216 C 0.96044 0.45816 0.07128 0.0
C1217 C 0.93032 0.45499 0.06867 0.0
C1218 C 0.91449 0.44067 0.08899 0.0
H1219 H 0.8788 0.35127 0.10831 0.0
H1220 H 0.87581 0.38503 0.08911 0.0
H1221 H 0.91058 0.37586 0.09916 0.0
H1222 H 0.96931 0.42403 0.134 0.0
H1223 H 0.99735 0.44913 0.09816 0.0
H1224 H 0.70565 0.76423 0.20429 0.0
H1225 H 0.67988 0.79598 0.17284 0.0
H1226 H 0.73605 0.86804 0.2016 0.0
H1227 H 0.76311 0.83591 0.23193 0.0
H1228 H 0.64837 0.82816 0.18 0.0
H1229 H 0.73409 0.89919 0.12775 0.0
H1230 H 0.7407 0.86832 0.15026 0.0
H1231 H 0.74024 0.9008 0.16217 0.0
C1232 C 0.71305 0.78691 0.20328 0.0
C1233 C 0.73689 0.79755 0.22008 0.0
C1234 C 0.6981 0.80515 0.18541 0.0
C1235 C 0.70584 0.83476 0.1843 0.0
C1236 C 0.72988 0.84548 0.20115 0.0
H1237 H 0.62268 0.97518 0.10914 0.0
H1238 H 0.65014 0.94264 0.13716 0.0
C1239 C 0.74543 0.82709 0.21863 0.0
C1240 C 0.68736 0.85374 0.16685 0.0
H1241 H 0.68862 0.9136 0.12138 0.0
C1242 C 0.65735 0.84663 0.167 0.0
C1243 C 0.69858 0.87823 0.14983 0.0
C1244 C 0.73015 0.88696 0.14728 0.0
C1245 C 0.63863 0.86308 0.15107 0.0
C1246 C 0.64994 0.8875 0.13426 0.0
C1247 C 0.67982 0.89482 0.13415 0.0
C1248 C 0.63138 0.90652 0.1175 0.0
C1249 C 0.60687 0.85463 0.15287 0.0
C1250 C 0.61111 0.89718 0.097 0.0
C1251 C 0.59512 0.91598 0.0806 0.0
C1252 C 0.59907 0.9446 0.0843 0.0
C1253 C 0.61888 0.95346 0.10536 0.0
C1254 C 0.63481 0.93482 0.12153 0.0
H1255 H 0.60199 0.83882 0.17038 0.0
H1256 H 0.59737 0.87345 0.15353 0.0
H1257 H 0.59639 0.84511 0.13526 0.0
H1258 H 0.60821 0.87554 0.09322 0.0
H1259 H 0.58035 0.9083 0.06458 0.0
H1260 H 0.25407 0.7615 0.17368 0.0
H1261 H 0.22069 0.74044 0.13925 0.0
H1262 H 0.20656 0.66082 0.19046 0.0
H1263 H 0.2395 0.68182 0.22514 0.0
H1264 H 0.22039 0.69118 0.11553 0.0
H1265 H 0.12544 0.68084 0.16813 0.0
H1266 H 0.15915 0.70352 0.17648 0.0
H1267 H 0.15432 0.66601 0.18753 0.0
C1268 C 0.24396 0.73944 0.17756 0.0
C1269 C 0.24908 0.72339 0.20225 0.0
C1270 C 0.22495 0.72748 0.15786 0.0
C1271 C 0.21073 0.69932 0.16256 0.0
C1272 C 0.21691 0.68281 0.1867 0.0
H1273 H 0.10872 0.56531 0.09764 0.0
H1274 H 0.1349 0.60207 0.1227 0.0
C1275 C 0.23596 0.69474 0.2064 0.0
C1276 C 0.18921 0.68704 0.14241 0.0
H1277 H 0.11959 0.65385 0.13273 0.0
C1278 C 0.1982 0.68348 0.11897 0.0
C1279 C 0.16023 0.67748 0.14688 0.0
C1280 C 0.14907 0.68238 0.171 0.0
C1281 C 0.17938 0.6686 0.10072 0.0
C1282 C 0.15087 0.6574 0.10603 0.0
C1283 C 0.14147 0.66251 0.12872 0.0
C1284 C 0.13219 0.63639 0.09078 0.0
C1285 C 0.19054 0.66334 0.07674 0.0
C1286 C 0.12123 0.64368 0.06463 0.0
C1287 C 0.10599 0.62253 0.05012 0.0
C1288 C 0.10194 0.59395 0.06161 0.0
C1289 C 0.11187 0.5871 0.08812 0.0
C1290 C 0.12672 0.60809 0.10253 0.0
H1291 H 0.2139 0.67148 0.07664 0.0
H1292 H 0.18629 0.64028 0.07553 0.0
H1293 H 0.1792 0.67395 0.05899 0.0
H1294 H 0.12503 0.66553 0.05535 0.0
H1295 H 0.09852 0.62836 0.02974 0.0
H1296 H 0.32873 0.77683 0.85082 0.0
H1297 H 0.3611 0.80405 0.88169 0.0
H1298 H 0.43364 0.78488 0.85262 0.0
H1299 H 0.40132 0.75828 0.82103 0.0
H1300 H 0.40161 0.79306 0.92134 0.0
H1301 H 0.45238 0.86971 0.84234 0.0
H1302 H 0.42093 0.8435 0.83573 0.0
H1303 H 0.4557 0.83365 0.84245 0.0
C1304 C 0.35153 0.7781 0.85108 0.0
C1305 C 0.36231 0.76536 0.83327 0.0
C1306 C 0.3701 0.79374 0.86883 0.0
C1307 C 0.39994 0.79707 0.86927 0.0
C1308 C 0.41077 0.78337 0.85225 0.0
H1309 H 0.50538 0.89417 0.99168 0.0
H1310 H 0.48743 0.85453 0.96641 0.0
C1311 C 0.3922 0.76799 0.83425 0.0
C1312 C 0.41935 0.81604 0.88663 0.0
H1313 H 0.46889 0.87744 0.88542 0.0
C1314 C 0.4165 0.81141 0.91353 0.0
C1315 C 0.4388 0.84007 0.87649 0.0
C1316 C 0.44204 0.84727 0.84767 0.0
C1317 C 0.43159 0.83064 0.93029 0.0
C1318 C 0.45065 0.85492 0.92003 0.0
C1319 C 0.45445 0.8588 0.89338 0.0
C1320 C 0.46357 0.87864 0.93535 0.0
C1321 C 0.42574 0.82562 0.95848 0.0
C1322 C 0.45719 0.90563 0.92596 0.0
C1323 C 0.46765 0.92818 0.94004 0.0
C1324 C 0.48484 0.9246 0.96417 0.0
C1325 C 0.49213 0.89775 0.97328 0.0
C1326 C 0.48161 0.87498 0.95897 0.0
H1327 H 0.40662 0.80889 0.96207 0.0
H1328 H 0.44446 0.81876 0.97108 0.0
H1329 H 0.42237 0.84541 0.9645 0.0
H1330 H 0.44348 0.90921 0.90783 0.0
H1331 H 0.4617 0.94847 0.93202 0.0
H1332 H 0.19893 0.35852 0.84136 0.0
H1333 H 0.1852 0.38758 0.87001 0.0
H1334 H 0.10623 0.32802 0.87887 0.0
H1335 H 0.11981 0.2989 0.85052 0.0
H1336 H 0.13178 0.41152 0.86146 0.0
H1337 H 0.1432 0.33895 0.95509 0.0
H1338 H 0.16061 0.33697 0.92714 0.0
H1339 H 0.12309 0.32292 0.92792 0.0
C1340 C 0.17883 0.35146 0.84971 0.0
C1341 C 0.16044 0.32643 0.84366 0.0
C1342 C 0.17093 0.36816 0.8659 0.0
C1343 C 0.14475 0.35987 0.87664 0.0
C1344 C 0.12661 0.3347 0.87096 0.0
H1345 H 0.04743 0.4534 0.9489 0.0
H1346 H 0.06386 0.42681 0.91982 0.0
C1347 C 0.13434 0.31817 0.85464 0.0
C1348 C 0.13594 0.37775 0.89334 0.0
H1349 H 0.12107 0.37822 0.9553 0.0
C1350 C 0.12952 0.40433 0.882 0.0
C1351 C 0.13314 0.36834 0.92014 0.0
C1352 C 0.14056 0.34034 0.93346 0.0
C1353 C 0.11991 0.42156 0.8967 0.0
C1354 C 0.11652 0.41186 0.92336 0.0
C1355 C 0.12342 0.38549 0.93478 0.0
C1356 C 0.10669 0.42909 0.94004 0.0
C1357 C 0.11376 0.45015 0.88374 0.0
C1358 C 0.12524 0.43907 0.96108 0.0
C1359 C 0.11599 0.45426 0.97765 0.0
C1360 C 0.0878 0.45962 0.97376 0.0
C1361 C 0.06927 0.44977 0.95247 0.0
C1362 C 0.07866 0.43465 0.93577 0.0
H1363 H 0.12257 0.45677 0.86464 0.0
H1364 H 0.09024 0.44918 0.88031 0.0
H1365 H 0.1229 0.46654 0.89657 0.0
H1366 H 0.14693 0.43497 0.96477 0.0
H1367 H 0.13093 0.46146 0.99378 0.0
H1368 H 0.68646 0.1987 0.77282 0.0
H1369 H 0.66188 0.16867 0.80847 0.0
H1370 H 0.73055 0.2008 0.86448 0.0
H1371 H 0.75516 0.23128 0.82866 0.0
H1372 H 0.70899 0.13708 0.87048 0.0
H1373 H 0.62363 0.20121 0.86193 0.0
H1374 H 0.63073 0.1917 0.83199 0.0
H1375 H 0.65765 0.21524 0.84933 0.0
C1376 C 0.69642 0.19916 0.79275 0.0
C1377 C 0.72302 0.21674 0.79797 0.0
C1378 C 0.68232 0.18211 0.81308 0.0
C1379 C 0.69429 0.18259 0.83913 0.0
C1380 C 0.72095 0.20008 0.84449 0.0
H1381 H 0.64313 0.09178 0.98799 0.0
H1382 H 0.66848 0.11938 0.95221 0.0
C1383 C 0.73507 0.21731 0.82407 0.0
C1384 C 0.67854 0.16513 0.86064 0.0
H1385 H 0.61808 0.15795 0.89066 0.0
C1386 C 0.68919 0.14168 0.87502 0.0
C1387 C 0.65254 0.17099 0.86631 0.0
C1388 C 0.64044 0.19625 0.85176 0.0
C1389 C 0.67432 0.12368 0.8947 0.0
C1390 C 0.64844 0.12973 0.90066 0.0
C1391 C 0.63781 0.1532 0.88614 0.0
C1392 C 0.6326 0.11261 0.92241 0.0
C1393 C 0.68617 0.09795 0.90842 0.0
C1394 C 0.60348 0.10028 0.91794 0.0
C1395 C 0.58861 0.08462 0.9386 0.0
C1396 C 0.60255 0.08105 0.96421 0.0
C1397 C 0.63162 0.09375 0.96857 0.0
C1398 C 0.64634 0.10944 0.94801 0.0
H1399 H 0.70023 0.0914 0.89629 0.0
H1400 H 0.69926 0.10308 0.92687 0.0
H1401 H 0.66873 0.07976 0.91328 0.0
H1402 H 0.59229 0.10263 0.8984 0.0
H1403 H 0.56628 0.07523 0.93447 0.0
H1404 H 0.87118 0.75936 0.79946 0.0
H1405 H 0.90775 0.73756 0.82949 0.0
H1406 H 0.84188 0.66969 0.85809 0.0
H1407 H 0.80554 0.69157 0.82855 0.0
H1408 H 0.88173 0.68895 0.89837 0.0
H1409 H 0.93626 0.66672 0.81911 0.0
H1410 H 0.9334 0.70309 0.81834 0.0
H1411 H 0.90161 0.67709 0.81299 0.0
C1412 C 0.86454 0.74004 0.81247 0.0
C1413 C 0.83538 0.72748 0.81202 0.0
C1414 C 0.8855 0.72738 0.82945 0.0
C1415 C 0.87775 0.70171 0.84606 0.0
C1416 C 0.84857 0.68945 0.84566 0.0
H1417 H 0.95969 0.56354 0.91826 0.0
H1418 H 0.93588 0.59925 0.89033 0.0
C1419 C 0.82777 0.70197 0.82871 0.0
C1420 C 0.89964 0.68689 0.86342 0.0
H1421 H 0.95407 0.65124 0.86229 0.0
C1422 C 0.89779 0.68101 0.8905 0.0
C1423 C 0.92051 0.6762 0.85326 0.0
C1424 C 0.92308 0.68082 0.82434 0.0
C1425 C 0.91558 0.66432 0.90748 0.0
C1426 C 0.93623 0.65332 0.89729 0.0
C1427 C 0.93852 0.65978 0.87027 0.0
C1428 C 0.95338 0.63268 0.91372 0.0
C1429 C 0.9111 0.65745 0.93603 0.0
C1430 C 0.9722 0.63952 0.93599 0.0
C1431 C 0.98616 0.61892 0.95217 0.0
C1432 C 0.98154 0.59096 0.94649 0.0
C1433 C 0.96374 0.5847 0.9235 0.0
C1434 C 0.95003 0.60521 0.90738 0.0
H1435 H 0.89077 0.6628 0.93982 0.0
H1436 H 0.91087 0.6346 0.94316 0.0
H1437 H 0.92901 0.66983 0.94758 0.0
H1438 H 0.9757 0.66067 0.94116 0.0
H1439 H 0.99955 0.62457 0.9697 0.0
H1440 H 0.19726 0.26897 0.23068 0.0
H1441 H 0.16232 0.29363 0.20175 0.0
H1442 H 0.23122 0.34932 0.16375 0.0
H1443 H 0.26593 0.32604 0.19394 0.0
H1444 H 0.19964 0.38 0.17133 0.0
H1445 H 0.12462 0.29187 0.13077 0.0
H1446 H 0.1265 0.28717 0.1657 0.0
H1447 H 0.1577 0.28674 0.15033 0.0
C1448 C 0.20481 0.2861 0.21577 0.0
C1449 C 0.23436 0.29522 0.21425 0.0
C1450 C 0.18474 0.30021 0.19901 0.0
C1451 C 0.1937 0.32335 0.17991 0.0
C1452 C 0.22333 0.33175 0.17814 0.0
H1453 H 0.08455 0.40597 0.05218 0.0
H1454 H 0.11196 0.37289 0.08082 0.0
C1455 C 0.2433 0.31828 0.19533 0.0
C1456 C 0.17297 0.34048 0.1632 0.0
H1457 H 0.10909 0.33652 0.12367 0.0
C1458 C 0.18 0.37026 0.16079 0.0
C1459 C 0.14715 0.32832 0.14905 0.0
C1460 C 0.13868 0.29679 0.14886 0.0
C1461 C 0.16257 0.38795 0.14484 0.0
C1462 C 0.13612 0.37583 0.13168 0.0
C1463 C 0.12899 0.34606 0.13395 0.0
C1464 C 0.11622 0.39378 0.11502 0.0
C1465 C 0.1735 0.41954 0.1416 0.0
C1466 C 0.108 0.4159 0.12471 0.0
C1467 C 0.09285 0.4351 0.10821 0.0
C1468 C 0.08436 0.4321 0.08178 0.0
C1469 C 0.09043 0.40866 0.07253 0.0
C1470 C 0.1063 0.38981 0.08892 0.0
H1471 H 0.19722 0.42454 0.14544 0.0
H1472 H 0.16711 0.42984 0.12159 0.0
H1473 H 0.16464 0.42895 0.15588 0.0
H1474 H 0.11417 0.41898 0.14492 0.0
H1475 H 0.08848 0.45289 0.11596 0.0
H1476 H 0.23013 0.6666 0.77868 0.0
H1477 H 0.19616 0.64042 0.80892 0.0
H1478 H 0.2537 0.67115 0.87356 0.0
H1479 H 0.28871 0.69478 0.84335 0.0
H1480 H 0.23356 0.62358 0.89031 0.0
H1481 H 0.13789 0.6635 0.83927 0.0
H1482 H 0.15014 0.64351 0.81875 0.0
H1483 H 0.17239 0.67576 0.82769 0.0
C1484 C 0.2352 0.66808 0.79934 0.0
C1485 C 0.26132 0.68412 0.80854 0.0
C1486 C 0.2156 0.65328 0.81671 0.0
C1487 C 0.22132 0.65458 0.84377 0.0
C1488 C 0.2481 0.66988 0.85291 0.0
H1489 H 0.08761 0.60188 0.9506 0.0
H1490 H 0.11927 0.62692 0.91768 0.0
C1491 C 0.26803 0.68393 0.83559 0.0
C1492 C 0.20035 0.63902 0.86271 0.0
H1493 H 0.1293 0.62319 0.87247 0.0
C1494 C 0.21083 0.62396 0.88636 0.0
C1495 C 0.17043 0.63926 0.85821 0.0
C1496 C 0.15714 0.65664 0.83473 0.0
C1497 C 0.19276 0.60953 0.90532 0.0
C1498 C 0.16271 0.60841 0.90011 0.0
C1499 C 0.15215 0.62349 0.87656 0.0
C1500 C 0.14205 0.59242 0.91902 0.0
C1501 C 0.20651 0.59663 0.93116 0.0
C1502 C 0.14323 0.56422 0.93029 0.0
C1503 C 0.12566 0.55026 0.9496 0.0
C1504 C 0.10549 0.5636 0.95731 0.0
C1505 C 0.10281 0.59101 0.94487 0.0
C1506 C 0.12103 0.60534 0.92608 0.0
H1507 H 0.22896 0.60762 0.93541 0.0
H1508 H 0.19452 0.59762 0.94756 0.0
H1509 H 0.20711 0.57414 0.93036 0.0
H1510 H 0.15814 0.55306 0.92454 0.0
H1511 H 0.12803 0.52904 0.95876 0.0
H1512 H 0.30612 0.18676 0.79867 0.0
H1513 H 0.33297 0.15583 0.83113 0.0
H1514 H 0.38989 0.22954 0.85567 0.0
H1515 H 0.36336 0.26011 0.82352 0.0
H1516 H 0.39332 0.1557 0.83186 0.0
H1517 H 0.37222 0.18141 0.92608 0.0
H1518 H 0.34908 0.1876 0.89613 0.0
H1519 H 0.3824 0.21139 0.90189 0.0
C1520 C 0.32378 0.19626 0.81162 0.0
C1521 C 0.33211 0.2259 0.80907 0.0
C1522 C 0.33932 0.17861 0.83001 0.0
C1523 C 0.36336 0.19026 0.84628 0.0
C1524 C 0.37117 0.21988 0.84396 0.0
H1525 H 0.49182 0.11904 0.96426 0.0
H1526 H 0.46442 0.15157 0.93458 0.0
C1527 C 0.35595 0.23738 0.8255 0.0
C1528 C 0.38189 0.17184 0.86402 0.0
H1529 H 0.40877 0.15481 0.9279 0.0
C1530 C 0.39647 0.15534 0.85289 0.0
C1531 C 0.38678 0.17181 0.89145 0.0
C1532 C 0.3717 0.18883 0.90473 0.0
C1533 C 0.41578 0.13914 0.86821 0.0
C1534 C 0.4201 0.13842 0.89579 0.0
C1535 C 0.40569 0.15517 0.90689 0.0
C1536 C 0.43801 0.1192 0.91343 0.0
C1537 C 0.43203 0.12365 0.8544 0.0
C1538 C 0.43248 0.09009 0.9118 0.0
C1539 C 0.44829 0.07166 0.92838 0.0
C1540 C 0.47001 0.08141 0.94775 0.0
C1541 C 0.47559 0.11063 0.94954 0.0
C1542 C 0.45975 0.12927 0.93262 0.0
H1543 H 0.43464 0.13435 0.83411 0.0
H1544 H 0.45357 0.12215 0.86492 0.0
H1545 H 0.41979 0.10191 0.85313 0.0
H1546 H 0.41537 0.08134 0.89796 0.0
H1547 H 0.44283 0.04941 0.92623 0.0
H1548 H 0.78594 0.31797 0.83321 0.0
H1549 H 0.8169 0.34279 0.86732 0.0
H1550 H 0.89084 0.31992 0.84386 0.0
H1551 H 0.8604 0.29662 0.8094 0.0
H1552 H 0.85354 0.31935 0.9094 0.0
H1553 H 0.91484 0.4049 0.84391 0.0
H1554 H 0.88179 0.38319 0.83243 0.0
H1555 H 0.91482 0.36997 0.83714 0.0
C1556 C 0.80884 0.3186 0.83533 0.0
C1557 C 0.82085 0.30486 0.81928 0.0
C1558 C 0.82643 0.33256 0.85479 0.0
C1559 C 0.85615 0.33322 0.85802 0.0
C1560 C 0.86803 0.31987 0.8416 0.0
H1561 H 0.99707 0.41426 0.96186 0.0
H1562 H 0.96908 0.38 0.93386 0.0
C1563 C 0.85057 0.3061 0.82224 0.0
C1564 C 0.87496 0.34736 0.87877 0.0
H1565 H 0.93258 0.39989 0.88889 0.0
C1566 C 0.87077 0.33702 0.90496 0.0
C1567 C 0.8976 0.37019 0.87286 0.0
C1568 C 0.90243 0.38291 0.84506 0.0
C1569 C 0.88869 0.34897 0.92545 0.0
C1570 C 0.91114 0.37194 0.9195 0.0
C1571 C 0.91559 0.38197 0.89335 0.0
C1572 C 0.92794 0.38828 0.93974 0.0
C1573 C 0.88348 0.33699 0.95328 0.0
C1574 C 0.91399 0.40374 0.95251 0.0
C1575 C 0.92979 0.42326 0.96808 0.0
C1576 C 0.95983 0.42757 0.9713 0.0
C1577 C 0.97389 0.41097 0.95982 0.0
C1578 C 0.95798 0.39158 0.94383 0.0
H1579 H 0.87151 0.31482 0.95481 0.0
H1580 H 0.90398 0.33752 0.96625 0.0
H1581 H 0.87051 0.34997 0.96043 0.0
H1582 H 0.89092 0.40192 0.94923 0.0
H1583 H 0.91856 0.43594 0.97676 0.0
H1584 H 0.73156 0.89634 0.84053 0.0
H1585 H 0.69525 0.91589 0.85674 0.0
H1586 H 0.73007 0.89097 0.93606 0.0
H1587 H 0.76585 0.87083 0.9201 0.0
H1588 H 0.66964 0.87873 0.9279 0.0
H1589 H 0.71325 0.99035 0.88873 0.0
H1590 H 0.70445 0.9657 0.86551 0.0
H1591 H 0.73315 0.9621 0.89121 0.0
C1592 C 0.73126 0.89473 0.86143 0.0
C1593 C 0.75181 0.88225 0.87901 0.0
C1594 C 0.71067 0.90615 0.87065 0.0
C1595 C 0.71023 0.90528 0.89761 0.0
C1596 C 0.73012 0.89205 0.91517 0.0
H1597 H 0.64903 0.99985 0.99339 0.0
H1598 H 0.67487 0.97925 0.96674 0.0
C1599 C 0.7507 0.88073 0.906 0.0
C1600 C 0.68957 0.91858 0.90779 0.0
H1601 H 0.67316 0.98267 0.91201 0.0
C1602 C 0.67015 0.90141 0.92421 0.0
C1603 C 0.69049 0.94822 0.90312 0.0
C1604 C 0.71156 0.96781 0.88636 0.0
C1605 C 0.65204 0.91313 0.93652 0.0
C1606 C 0.65317 0.94281 0.93206 0.0
C1607 C 0.67217 0.95991 0.91522 0.0
C1608 C 0.63682 0.95671 0.94661 0.0
C1609 C 0.63275 0.89381 0.95509 0.0
C1610 C 0.60673 0.95145 0.9437 0.0
C1611 C 0.59177 0.96326 0.95897 0.0
C1612 C 0.60668 0.98051 0.97746 0.0
C1613 C 0.6368 0.98649 0.97955 0.0
C1614 C 0.65166 0.97479 0.96426 0.0
H1615 H 0.63822 0.87229 0.96 0.0
H1616 H 0.63411 0.90282 0.97349 0.0
H1617 H 0.61024 0.89168 0.94593 0.0
H1618 H 0.59483 0.93791 0.92988 0.0
H1619 H 0.56859 0.95826 0.95678 0.0
H1620 H 0.89542 0.69125 0.18651 0.0
H1621 H 0.91164 0.65525 0.16801 0.0
H1622 H 0.9181 0.71101 0.09474 0.0
H1623 H 0.89957 0.74604 0.11224 0.0
H1624 H 0.89598 0.66082 0.08536 0.0
H1625 H 0.99116 0.65203 0.15769 0.0
H1626 H 0.9585 0.64362 0.17264 0.0
H1627 H 0.97 0.67899 0.15638 0.0
C1628 C 0.89983 0.69577 0.16632 0.0
C1629 C 0.89631 0.72186 0.15102 0.0
C1630 C 0.90968 0.67528 0.1559 0.0
C1631 C 0.91692 0.68062 0.13016 0.0
C1632 C 0.913 0.70641 0.11475 0.0
H1633 H 1.02043 0.59217 0.06059 0.0
H1634 H 1.00265 0.62294 0.08463 0.0
C1635 C 0.90266 0.72665 0.12495 0.0
C1636 C 0.92782 0.65924 0.11882 0.0
H1637 H 0.97942 0.61819 0.12811 0.0
C1638 C 0.91429 0.65159 0.09472 0.0
C1639 C 0.952 0.64741 0.13076 0.0
C1640 C 0.96894 0.65614 0.15564 0.0
C1641 C 0.92423 0.63272 0.08218 0.0
C1642 C 0.94766 0.61998 0.09462 0.0
C1643 C 0.96122 0.62758 0.11873 0.0
C1644 C 0.95904 0.59964 0.08237 0.0
C1645 C 0.91009 0.62756 0.05525 0.0
C1646 C 0.94081 0.57562 0.07401 0.0
C1647 C 0.95079 0.55841 0.05982 0.0
C1648 C 0.97944 0.56433 0.05445 0.0
C1649 C 0.99824 0.5871 0.06448 0.0
C1650 C 0.98807 0.60472 0.07818 0.0
H1651 H 0.89903 0.64514 0.04547 0.0
H1652 H 0.92591 0.62519 0.04258 0.0
H1653 H 0.89373 0.60785 0.05695 0.0
H1654 H 0.91862 0.57057 0.07785 0.0
H1655 H 0.93595 0.54071 0.05267 0.0
H1656 H 0.31171 0.79156 0.19789 0.0
H1657 H 0.33644 0.82392 0.16325 0.0
H1658 H 0.40274 0.85604 0.22119 0.0
H1659 H 0.37817 0.82375 0.25577 0.0
H1660 H 0.37747 0.89881 0.17723 0.0
H1661 H 0.41864 0.81219 0.14575 0.0
H1662 H 0.38131 0.80631 0.15053 0.0
H1663 H 0.40806 0.80943 0.17807 0.0
C1664 C 0.33121 0.80596 0.20324 0.0
C1665 C 0.3427 0.80567 0.22957 0.0
C1666 C 0.34545 0.82425 0.18345 0.0
C1667 C 0.37145 0.84238 0.18967 0.0
C1668 C 0.38267 0.84235 0.21597 0.0
H1669 H 0.50471 0.93499 0.09266 0.0
H1670 H 0.47828 0.90682 0.12827 0.0
C1671 C 0.36863 0.82393 0.23567 0.0
C1672 C 0.38778 0.86051 0.16883 0.0
H1673 H 0.43092 0.85812 0.12274 0.0
C1674 C 0.38908 0.88995 0.16523 0.0
C1675 C 0.40323 0.84893 0.15348 0.0
C1676 C 0.40303 0.8175 0.15708 0.0
C1677 C 0.40516 0.90807 0.14642 0.0
C1678 C 0.42036 0.89645 0.13083 0.0
C1679 C 0.41931 0.86703 0.1347 0.0
C1680 C 0.43667 0.91438 0.10982 0.0
C1681 C 0.40607 0.93958 0.14354 0.0
C1682 C 0.42211 0.92792 0.08761 0.0
C1683 C 0.43706 0.94375 0.06724 0.0
C1684 C 0.46703 0.94657 0.06854 0.0
C1685 C 0.48169 0.93336 0.09102 0.0
C1686 C 0.4666 0.91719 0.11135 0.0
H1687 H 0.39862 0.94568 0.16061 0.0
H1688 H 0.42812 0.95142 0.14116 0.0
H1689 H 0.39191 0.94613 0.12579 0.0
H1690 H 0.39903 0.92583 0.08583 0.0
H1691 H 0.42502 0.95375 0.05034 0.0
H1692 H 0.66975 0.27093 0.20916 0.0
H1693 H 0.6372 0.24367 0.17802 0.0
H1694 H 0.70964 0.22685 0.14694 0.0
H1695 H 0.7421 0.25472 0.17722 0.0
H1696 H 0.66769 0.23564 0.10831 0.0
H1697 H 0.62158 0.15856 0.18938 0.0
H1698 H 0.61719 0.19432 0.18919 0.0
H1699 H 0.6525 0.18572 0.1949 0.0
C1700 C 0.67874 0.26174 0.19546 0.0
C1701 C 0.70861 0.26483 0.19596 0.0
C1702 C 0.66007 0.24593 0.17776 0.0
C1703 C 0.67085 0.23248 0.16047 0.0
C1704 C 0.70066 0.23681 0.16009 0.0
H1705 H 0.60996 0.07894 0.09953 0.0
H1706 H 0.62852 0.11849 0.1233 0.0
C1707 C 0.71927 0.25283 0.17752 0.0
C1708 C 0.65154 0.21268 0.14373 0.0
H1709 H 0.6039 0.14989 0.14672 0.0
C1710 C 0.65352 0.21701 0.11667 0.0
C1711 C 0.63317 0.18816 0.15458 0.0
C1712 C 0.63108 0.18117 0.18361 0.0
C1713 C 0.63848 0.19721 0.10042 0.0
C1714 C 0.62034 0.17257 0.11134 0.0
C1715 C 0.61757 0.16882 0.13822 0.0
C1716 C 0.60723 0.14858 0.09632 0.0
C1717 C 0.64339 0.20212 0.07198 0.0
C1718 C 0.5884 0.15183 0.07315 0.0
C1719 C 0.57766 0.12888 0.05907 0.0
C1720 C 0.58549 0.10222 0.06797 0.0
C1721 C 0.60352 0.09904 0.09167 0.0
C1722 C 0.61419 0.12178 0.10551 0.0
H1723 H 0.66216 0.2191 0.06784 0.0
H1724 H 0.64683 0.18239 0.06589 0.0
H1725 H 0.62423 0.20858 0.05985 0.0
H1726 H 0.58211 0.1721 0.06587 0.0
H1727 H 0.56377 0.13219 0.04102 0.0
H1728 H 0.69634 0.72955 0.77289 0.0
H1729 H 0.65839 0.70146 0.7982 0.0
H1730 H 0.7106 0.72 0.86967 0.0
H1731 H 0.74848 0.74773 0.84478 0.0
H1732 H 0.66448 0.65359 0.8345 0.0
H1733 H 0.63311 0.73438 0.88171 0.0
H1734 H 0.65289 0.74348 0.85357 0.0
H1735 H 0.67116 0.73615 0.88585 0.0
C1736 C 0.69974 0.72766 0.79398 0.0
C1737 C 0.72579 0.74036 0.80678 0.0
C1738 C 0.67792 0.7118 0.80839 0.0
C1739 C 0.68156 0.70889 0.8358 0.0
C1740 C 0.70708 0.72242 0.84853 0.0
H1741 H 0.62775 0.60618 0.9721 0.0
H1742 H 0.64701 0.64244 0.9377 0.0
C1743 C 0.72889 0.7381 0.8342 0.0
C1744 C 0.66013 0.68963 0.85144 0.0
H1745 H 0.6226 0.68598 0.90313 0.0
C1746 C 0.65475 0.66069 0.84911 0.0
C1747 C 0.64749 0.69901 0.87046 0.0
C1748 C 0.65122 0.73001 0.87289 0.0
C1749 C 0.63865 0.64063 0.8665 0.0
C1750 C 0.6273 0.64988 0.88642 0.0
C1751 C 0.63144 0.67896 0.88789 0.0
C1752 C 0.6136 0.62951 0.90741 0.0
C1753 C 0.63539 0.60956 0.86441 0.0
C1754 C 0.58796 0.6107 0.9019 0.0
C1755 C 0.57684 0.5898 0.92156 0.0
C1756 C 0.59119 0.5874 0.94708 0.0
C1757 C 0.61621 0.60717 0.95268 0.0
C1758 C 0.62724 0.62802 0.93305 0.0
H1759 H 0.64946 0.60577 0.85071 0.0
H1760 H 0.64045 0.59729 0.88387 0.0
H1761 H 0.61287 0.6013 0.85719 0.0
H1762 H 0.5769 0.61182 0.88229 0.0
H1763 H 0.55745 0.57508 0.91653 0.0
H1764 H 0.40158 0.72044 0.86913 0.0
H1765 H 0.42731 0.7399 0.90722 0.0
H1766 H 0.38453 0.66807 0.95666 0.0
H1767 H 0.35438 0.65241 0.91919 0.0
H1768 H 0.41084 0.69853 0.98775 0.0
H1769 H 0.49762 0.71579 0.92368 0.0
H1770 H 0.47322 0.73984 0.92046 0.0
H1771 H 0.46257 0.70688 0.90684 0.0
C1772 C 0.39633 0.70964 0.8881 0.0
C1773 C 0.37705 0.6836 0.89083 0.0
C1774 C 0.41199 0.72039 0.91012 0.0
C1775 C 0.41063 0.70391 0.93488 0.0
C1776 C 0.3876 0.68088 0.93786 0.0
H1777 H 0.43942 0.57105 0.98913 0.0
H1778 H 0.42976 0.61823 0.98853 0.0
C1779 C 0.37061 0.67126 0.9161 0.0
C1780 C 0.43595 0.70464 0.95538 0.0
H1781 H 0.49699 0.67835 0.95787 0.0
C1782 C 0.43028 0.69503 0.98146 0.0
C1783 C 0.46313 0.7025 0.94872 0.0
C1784 C 0.47473 0.71706 0.92353 0.0
C1785 C 0.44568 0.67565 0.99741 0.0
C1786 C 0.46797 0.66733 0.98734 0.0
C1787 C 0.47863 0.6834 0.96481 0.0
C1788 C 0.47438 0.63832 0.99451 0.0
C1789 C 0.43588 0.66182 0.02345 0.0
C1790 C 0.5027 0.63373 0.99783 0.0
C1791 C 0.5083 0.60669 0.99762 0.0
C1792 C 0.48566 0.5838 0.9939 0.0
C1793 C 0.45736 0.58823 0.99175 0.0
C1794 C 0.4518 0.61518 0.99202 0.0
H1795 H 0.42961 0.67762 0.03351 0.0
H1796 H 0.41666 0.64519 0.02032 0.0
H1797 H 0.45281 0.65195 0.03627 0.0
H1798 H 0.52046 0.65131 0.99936 0.0
H1799 H 0.53038 0.6039 0.99973 0.0
H1800 H 0.33075 0.36072 0.76714 0.0
H1801 H 0.36245 0.39697 0.7903 0.0
H1802 H 0.3579 0.33942 0.86261 0.0
H1803 H 0.32678 0.30311 0.83971 0.0
H1804 H 0.35233 0.42112 0.83342 0.0
H1805 H 0.44481 0.36569 0.85813 0.0
H1806 H 0.41589 0.35642 0.83314 0.0
H1807 H 0.41174 0.34386 0.86704 0.0
C1808 C 0.33659 0.35571 0.78797 0.0
C1809 C 0.32638 0.32879 0.80151 0.0
C1810 C 0.35466 0.37649 0.80115 0.0
C1811 C 0.36298 0.37068 0.82807 0.0
C1812 C 0.35224 0.34414 0.84172 0.0
H1813 H 0.41733 0.46174 0.95421 0.0
H1814 H 0.39281 0.43784 0.91779 0.0
C1815 C 0.33415 0.32343 0.8286 0.0
C1816 C 0.38225 0.39241 0.84226 0.0
H1817 H 0.44465 0.40301 0.88283 0.0
C1818 C 0.37273 0.41741 0.84389 0.0
C1819 C 0.40912 0.38779 0.8555 0.0
C1820 C 0.42118 0.36212 0.8532 0.0
C1821 C 0.38853 0.43703 0.85979 0.0
C1822 C 0.41434 0.43133 0.87459 0.0
C1823 C 0.42475 0.40725 0.87163 0.0
C1824 C 0.42906 0.44824 0.89534 0.0
C1825 C 0.37714 0.46338 0.8611 0.0
C1826 C 0.45778 0.46194 0.89496 0.0
C1827 C 0.472 0.4758 0.91591 0.0
C1828 C 0.45785 0.47563 0.93778 0.0
C1829 C 0.42897 0.46223 0.93777 0.0
C1830 C 0.41478 0.44872 0.91683 0.0
H1831 H 0.36288 0.46912 0.84312 0.0
H1832 H 0.36441 0.45946 0.87793 0.0
H1833 H 0.39484 0.48162 0.86384 0.0
H1834 H 0.46926 0.46157 0.87864 0.0
H1835 H 0.49428 0.48577 0.91537 0.0
H1836 H 0.66688 0.41768 0.78018 0.0
H1837 H 0.64726 0.43433 0.81396 0.0
H1838 H 0.64282 0.35196 0.86068 0.0
H1839 H 0.66088 0.33448 0.82613 0.0
H1840 H 0.59521 0.3731 0.86176 0.0
H1841 H 0.6904 0.45527 0.8814 0.0
H1842 H 0.67579 0.45977 0.84775 0.0
H1843 H 0.69048 0.42852 0.8614 0.0
C1844 C 0.66146 0.40288 0.79745 0.0
C1845 C 0.66557 0.37463 0.80027 0.0
C1846 C 0.65058 0.41262 0.81699 0.0
C1847 C 0.64406 0.39461 0.84017 0.0
C1848 C 0.64789 0.36635 0.84307 0.0
H1849 H 0.6236 0.46529 0.97644 0.0
H1850 H 0.63798 0.43905 0.94632 0.0
C1851 C 0.65853 0.35646 0.82337 0.0
C1852 C 0.63323 0.40539 0.86124 0.0
H1853 H 0.64819 0.45846 0.899 0.0
C1854 C 0.60688 0.39163 0.87008 0.0
C1855 C 0.64862 0.4293 0.87246 0.0
C1856 C 0.67802 0.44388 0.86547 0.0
C1857 C 0.59528 0.4015 0.88937 0.0
C1858 C 0.61006 0.42625 0.89964 0.0
C1859 C 0.63662 0.43965 0.89106 0.0
C1860 C 0.59903 0.43861 0.91963 0.0
C1861 C 0.56763 0.38494 0.89887 0.0
C1862 C 0.57187 0.44648 0.91529 0.0
C1863 C 0.56326 0.46099 0.93301 0.0
C1864 C 0.58199 0.46856 0.95496 0.0
C1865 C 0.60873 0.45992 0.95963 0.0
C1866 C 0.61702 0.44495 0.94234 0.0
H1867 H 0.564 0.36251 0.89546 0.0
H1868 H 0.56743 0.38532 0.92003 0.0
H1869 H 0.5495 0.39448 0.88794 0.0
H1870 H 0.55778 0.44249 0.89768 0.0
H1871 H 0.54266 0.4676 0.9288 0.0
H1872 H 0.74669 0.4165 0.136 0.0
H1873 H 0.72794 0.41146 0.09136 0.0
H1874 H 0.69521 0.32286 0.11478 0.0
H1875 H 0.70925 0.32902 0.1603 0.0
H1876 H 0.71568 0.38969 0.05003 0.0
H1877 H 0.62063 0.34374 0.10481 0.0
H1878 H 0.65468 0.35447 0.12273 0.0
H1879 H 0.64794 0.32322 0.10672 0.0
C1880 C 0.73529 0.39588 0.13182 0.0
C1881 C 0.72674 0.37414 0.15207 0.0
C1882 C 0.72512 0.39277 0.10596 0.0
C1883 C 0.70751 0.36736 0.09995 0.0
C1884 C 0.70634 0.34341 0.11928 0.0
H1885 H 0.55597 0.41913 0.01985 0.0
H1886 H 0.58947 0.38696 0.02137 0.0
C1887 C 0.71495 0.34693 0.14548 0.0
C1888 C 0.68513 0.36921 0.07709 0.0
H1889 H 0.61426 0.37347 0.06695 0.0
C1890 C 0.69332 0.38538 0.05342 0.0
C1891 C 0.65553 0.36282 0.08076 0.0
C1892 C 0.64407 0.34517 0.10505 0.0
C1893 C 0.67389 0.39929 0.0358 0.0
C1894 C 0.64558 0.39636 0.04179 0.0
C1895 C 0.63624 0.37622 0.06276 0.0
C1896 C 0.62725 0.41771 0.03114 0.0
C1897 C 0.68435 0.41858 1.01202 0.0
C1898 C 0.63743 0.44615 0.03485 0.0
C1899 C 0.61829 0.46461 0.0337 0.0
C1900 C 0.58878 0.45466 0.02932 0.0
C1901 C 0.57874 0.42701 0.02362 0.0
C1902 C 0.59786 0.40877 0.02417 0.0
H1903 H 0.70028 0.40969 1.00398 0.0
H1904 H 0.66646 0.42193 0.99652 0.0
H1905 H 0.69521 0.43942 0.01767 0.0
H1906 H 0.65986 0.45344 0.04096 0.0
H1907 H 0.62641 0.48587 0.03824 0.0
H1908 H 0.74828 0.71683 0.18945 0.0
H1909 H 0.71758 0.67982 0.16695 0.0
H1910 H 0.70706 0.62594 0.24071 0.0
H1911 H 0.73824 0.66277 0.26348 0.0
H1912 H 0.71831 0.59829 0.20027 0.0
H1913 H 0.62969 0.65805 0.16789 0.0
H1914 H 0.66396 0.67781 0.15984 0.0
H1915 H 0.65775 0.66742 0.19356 0.0
C1916 C 0.7396 0.69713 0.20097 0.0
C1917 C 0.74539 0.69301 0.22835 0.0
C1918 C 0.72185 0.67605 0.18805 0.0
C1919 C 0.70953 0.65041 0.20222 0.0
C1920 C 0.71607 0.64574 0.22945 0.0
H1921 H 0.57575 0.53656 0.1169 0.0
H1922 H 0.60134 0.56168 0.15279 0.0
C1923 C 0.73381 0.66686 0.24242 0.0
C1924 C 0.69013 0.6285 0.18834 0.0
H1925 H 0.62896 0.61828 0.14621 0.0
C1926 C 0.69856 0.60246 0.18873 0.0
C1927 C 0.66409 0.63375 0.17375 0.0
C1928 C 0.65313 0.66065 0.17389 0.0
C1929 C 0.68246 0.58221 0.17361 0.0
C1930 C 0.65752 0.58835 0.15752 0.0
C1931 C 0.6482 0.61367 0.15839 0.0
C1932 C 0.64247 0.57031 0.13772 0.0
C1933 C 0.69259 0.55463 0.17463 0.0
C1934 C 0.65711 0.56674 0.11747 0.0
C1935 C 0.64261 0.55262 0.09699 0.0
C1936 C 0.61304 0.54177 0.0962 0.0
C1937 C 0.59853 0.54451 0.11697 0.0
C1938 C 0.61309 0.55892 0.13745 0.0
H1939 H 0.70573 0.54926 0.19342 0.0
H1940 H 0.67426 0.53692 0.17209 0.0
H1941 H 0.70614 0.55665 0.15863 0.0
H1942 H 0.67962 0.57582 0.11698 0.0
H1943 H 0.65453 0.5508 0.08142 0.0
H1944 H 0.39582 0.60304 0.24147 0.0
H1945 H 0.41837 0.58859 0.20834 0.0
H1946 H 0.42489 0.67273 0.16482 0.0
H1947 H 0.40395 0.68799 0.19892 0.0
H1948 H 0.40143 0.58525 0.15944 0.0
H1949 H 0.50484 0.66048 0.1644 0.0
H1950 H 0.48002 0.65599 0.18834 0.0
H1951 H 0.47438 0.67774 0.15728 0.0
C1952 C 0.40254 0.61877 0.22519 0.0
C1953 C 0.39831 0.64688 0.22325 0.0
C1954 C 0.41527 0.61034 0.20603 0.0
C1955 C 0.42396 0.62963 0.18419 0.0
C1956 C 0.41916 0.65756 0.18177 0.0
H1957 H 0.45197 0.56428 0.04656 0.0
H1958 H 0.43612 0.59042 0.07606 0.0
C1959 C 0.40667 0.66614 0.20114 0.0
C1960 C 0.43683 0.61985 0.16366 0.0
H1961 H 0.49535 0.63262 0.12975 0.0
C1962 C 0.42199 0.59565 0.15303 0.0
C1963 C 0.4639 0.63309 0.15543 0.0
C1964 C 0.48187 0.65808 0.16712 0.0
C1965 C 0.43328 0.58434 0.13458 0.0
C1966 C 0.45983 0.59814 0.1256 0.0
C1967 C 0.47485 0.62225 0.1363 0.0
C1968 C 0.47233 0.58726 0.10555 0.0
C1969 C 0.41691 0.55712 0.12553 0.0
C1970 C 0.49919 0.57882 0.11119 0.0
C1971 C 0.50881 0.56461 0.09381 0.0
C1972 C 0.49151 0.55836 0.07071 0.0
C1973 C 0.46566 0.56862 0.06431 0.0
C1974 C 0.45642 0.58331 0.08132 0.0
H1975 H 0.40198 0.54511 0.13966 0.0
H1976 H 0.40396 0.56216 0.10658 0.0
H1977 H 0.43164 0.54323 0.12279 0.0
H1978 H 0.51203 0.58188 0.12965 0.0
H1979 H 0.52877 0.55686 0.09927 0.0
H1980 H 0.37157 0.28625 0.26004 0.0
H1981 H 0.4103 0.31548 0.23638 0.0
H1982 H 0.3595 0.30169 0.1631 0.0
H1983 H 0.3209 0.27259 0.1864 0.0
H1984 H 0.41833 0.30032 0.16357 0.0
H1985 H 0.40082 0.39576 0.20056 0.0
H1986 H 0.40899 0.36653 0.22453 0.0
H1987 H 0.37571 0.36268 0.20373 0.0
C1988 C 0.36868 0.28939 0.23888 0.0
C1989 C 0.34272 0.27792 0.22511 0.0
C1990 C 0.39086 0.30602 0.22543 0.0
C1991 C 0.38742 0.31123 0.19804 0.0
C1992 C 0.36243 0.29808 0.18428 0.0
H1993 H 0.43917 0.41524 0.06238 0.0
H1994 H 0.42133 0.37816 0.09674 0.0
C1995 C 0.3403 0.28152 0.19767 0.0
C1996 C 0.40857 0.332 0.18338 0.0
H1997 H 0.4318 0.40318 0.16823 0.0
C1998 C 0.42171 0.32278 0.16487 0.0
C1999 C 0.41294 0.36125 0.18523 0.0
C2000 C 0.3988 0.37234 0.20443 0.0
C2001 C 0.43814 0.3422 0.14734 0.0
C2002 C 0.44105 0.37152 0.14815 0.0
C2003 C 0.42939 0.38065 0.16768 0.0
C2004 C 0.45336 0.39309 0.1273 0.0
C2005 C 0.45163 0.33123 0.12766 0.0
C2006 C 0.47696 0.41412 0.13323 0.0
C2007 C 0.4872 0.43554 0.11361 0.0
C2008 C 0.47373 0.43647 0.08778 0.0
C2009 C 0.45009 0.41526 0.082 0.0
C2010 C 0.44 0.39384 0.10158 0.0
H2011 H 0.45521 0.30924 0.13468 0.0
H2012 H 0.43705 0.33096 0.10917 0.0
H2013 H 0.4724 0.34498 0.1234 0.0
H2014 H 0.48733 0.41404 0.15307 0.0
H2015 H 0.5054 0.45156 0.1188 0.0
H2016 H 0.83362 0.67511 0.62691 0.0
H2017 H 0.86878 0.64987 0.61641 0.0
H2018 H 0.88921 0.62119 0.69834 0.0
H2019 H 0.85385 0.64642 0.70907 0.0
H2020 H 0.93183 0.65541 0.6385 0.0
H2021 H 0.86502 0.54791 0.65861 0.0
H2022 H 0.8493 0.57945 0.65097 0.0
H2023 H 0.86938 0.57202 0.68216 0.0
C2024 C 0.84553 0.6634 0.64272 0.0
C2025 C 0.84077 0.66262 0.66882 0.0
C2026 C 0.86573 0.64912 0.63669 0.0
C2027 C 0.88144 0.63351 0.65657 0.0
C2028 C 0.87718 0.633 0.6827 0.0
H2029 H 1.01859 0.55802 0.61246 0.0
H2030 H 0.99195 0.57609 0.64109 0.0
C2031 C 0.8571 0.64754 0.6888 0.0
C2032 C 0.90179 0.61745 0.64954 0.0
H2033 H 0.90755 0.55119 0.63991 0.0
C2034 C 0.92688 0.63256 0.63929 0.0
C2035 C 0.89513 0.58767 0.65048 0.0
C2036 C 0.86823 0.57061 0.66104 0.0
C2037 C 0.945 0.61876 0.6291 0.0
C2038 C 0.93779 0.5891 0.62913 0.0
C2039 C 0.91319 0.57387 0.64019 0.0
C2040 C 0.95308 0.57449 0.61425 0.0
C2041 C 0.9709 0.63614 0.617 0.0
C2042 C 0.93975 0.56673 0.59021 0.0
C2043 C 0.95486 0.55669 0.57393 0.0
C2044 C 0.98355 0.55379 0.58147 0.0
C2045 C 0.99642 0.55981 0.60629 0.0
C2046 C 0.98132 0.57031 0.62253 0.0
H2047 H 0.97236 0.65923 0.61683 0.0
H2048 H 0.99061 0.62978 0.62817 0.0
H2049 H 0.97022 0.63208 0.59661 0.0
H2050 H 0.91801 0.56975 0.58345 0.0
H2051 H 0.94438 0.55215 0.55493 0.0
H2052 H 0.36432 0.81474 0.74659 0.0
H2053 H 0.39541 0.84455 0.7152 0.0
H2054 H 0.35162 0.79584 0.65485 0.0
H2055 H 0.32016 0.76641 0.68625 0.0
H2056 H 0.43313 0.8322 0.68555 0.0
H2057 H 0.34577 0.87647 0.62114 0.0
H2058 H 0.34085 0.85689 0.65324 0.0
H2059 H 0.34031 0.83845 0.62606 0.0
C2060 C 0.36177 0.81013 0.72672 0.0
C2061 C 0.34064 0.78762 0.71903 0.0
C2062 C 0.37939 0.82727 0.70874 0.0
C2063 C 0.37581 0.82272 0.68249 0.0
C2064 C 0.35463 0.80014 0.67482 0.0
H2065 H 0.49942 0.89317 0.56997 0.0
H2066 H 0.46788 0.86278 0.60016 0.0
C2067 C 0.33692 0.78306 0.69282 0.0
C2068 C 0.39411 0.84178 0.66327 0.0
H2069 H 0.39166 0.88784 0.60597 0.0
C2070 C 0.42403 0.84433 0.66815 0.0
C2071 C 0.3824 0.85811 0.64073 0.0
C2072 C 0.3506 0.85764 0.63502 0.0
C2073 C 0.4424 0.86228 0.65103 0.0
C2074 C 0.43066 0.87791 0.62804 0.0
C2075 C 0.40076 0.87573 0.62339 0.0
C2076 C 0.44907 0.89656 0.60865 0.0
C2077 C 0.47433 0.86474 0.65807 0.0
C2078 C 0.44841 0.92571 0.60238 0.0
C2079 C 0.46641 0.9433 0.58482 0.0
C2080 C 0.48542 0.93211 0.57299 0.0
C2081 C 0.48536 0.90274 0.57878 0.0
C2082 C 0.46739 0.88525 0.59626 0.0
H2083 H 0.47989 0.85805 0.67929 0.0
H2084 H 0.48235 0.85078 0.6472 0.0
H2085 H 0.48563 0.88682 0.65275 0.0
H2086 H 0.43434 0.935 0.61148 0.0
H2087 H 0.46575 0.96574 0.58089 0.0
H2088 H 0.26405 0.33722 0.73248 0.0
H2089 H 0.23977 0.37476 0.70666 0.0
H2090 H 0.16921 0.31115 0.68203 0.0
H2091 H 0.19332 0.27395 0.70737 0.0
H2092 H 0.21537 0.38387 0.65024 0.0
H2093 H 0.13279 0.36289 0.71876 0.0
H2094 H 0.16671 0.3511 0.72731 0.0
H2095 H 0.13834 0.33179 0.70739 0.0
C2096 C 0.24368 0.33132 0.72104 0.0
C2097 C 0.23074 0.30258 0.72168 0.0
C2098 C 0.22972 0.35278 0.70643 0.0
C2099 C 0.20237 0.34586 0.69266 0.0
C2100 C 0.19004 0.31714 0.69271 0.0
H2101 H 0.06506 0.41246 0.59695 0.0
H2102 H 0.09736 0.38683 0.62804 0.0
C2103 C 0.20394 0.29585 0.7071 0.0
C2104 C 0.18586 0.3682 0.67895 0.0
H2105 H 0.12241 0.39065 0.6776 0.0
C2106 C 0.19528 0.38574 0.65642 0.0
C2107 C 0.15959 0.37069 0.68697 0.0
C2108 C 0.1488 0.35332 0.71156 0.0
C2109 C 0.17845 0.40451 0.641 0.0
C2110 C 0.15164 0.4063 0.64854 0.0
C2111 C 0.14284 0.38946 0.67166 0.0
C2112 C 0.1312 0.4233 0.63161 0.0
C2113 C 0.18887 0.42114 0.616 0.0
C2114 C 0.1387 0.45279 0.62383 0.0
C2115 C 0.11993 0.46763 0.60608 0.0
C2116 C 0.0932 0.4533 0.59603 0.0
C2117 C 0.08527 0.42418 0.60478 0.0
C2118 C 0.10387 0.40945 0.62244 0.0
H2119 H 0.20666 0.41292 0.61017 0.0
H2120 H 0.17119 0.42055 0.59977 0.0
H2121 H 0.19683 0.44358 0.6188 0.0
H2122 H 0.15935 0.46423 0.63094 0.0
H2123 H 0.12687 0.48992 0.59926 0.0
H2124 H 0.75623 0.18281 0.7139 0.0
H2125 H 0.73259 0.15509 0.67988 0.0
H2126 H 0.70113 0.22824 0.63647 0.0
H2127 H 0.72552 0.2566 0.67042 0.0
H2128 H 0.67413 0.14499 0.66664 0.0
H2129 H 0.73043 0.19567 0.5801 0.0
H2130 H 0.74491 0.20159 0.61299 0.0
H2131 H 0.71702 0.21959 0.59588 0.0
C2132 C 0.74424 0.1932 0.69725 0.0
C2133 C 0.74168 0.22177 0.6956 0.0
C2134 C 0.73092 0.17725 0.67765 0.0
C2135 C 0.71497 0.18948 0.6557 0.0
C2136 C 0.71347 0.21836 0.6532 0.0
H2137 H 0.59094 0.1247 0.53577 0.0
H2138 H 0.6278 0.1533 0.56225 0.0
C2139 C 0.72701 0.23446 0.67286 0.0
C2140 C 0.69813 0.17121 0.63676 0.0
H2141 H 0.68823 0.16129 0.57265 0.0
C2142 C 0.6774 0.1484 0.64613 0.0
C2143 C 0.7024 0.17575 0.61003 0.0
C2144 C 0.72506 0.19932 0.59911 0.0
C2145 C 0.66033 0.13038 0.62943 0.0
C2146 C 0.66448 0.13494 0.60266 0.0
C2147 C 0.68533 0.15766 0.59325 0.0
C2148 C 0.6456 0.11772 0.58391 0.0
C2149 C 0.63726 0.10726 0.64043 0.0
C2150 C 0.64419 0.08827 0.5865 0.0
C2151 C 0.62298 0.07172 0.57136 0.0
C2152 C 0.6029 0.08445 0.55346 0.0
C2153 C 0.60582 0.11417 0.54965 0.0
C2154 C 0.62697 0.13062 0.56469 0.0
H2155 H 0.63304 0.1103 0.66004 0.0
H2156 H 0.61693 0.1064 0.62718 0.0
H2157 H 0.64411 0.08649 0.64237 0.0
H2158 H 0.65872 0.07798 0.60097 0.0
H2159 H 0.62136 0.04891 0.57471 0.0
H2160 H 0.85915 0.31645 0.29739 0.0
H2161 H 0.89106 0.34353 0.32898 0.0
H2162 H 0.82669 0.32049 0.38252 0.0
H2163 H 0.79457 0.29418 0.35074 0.0
H2164 H 0.84574 0.3761 0.37697 0.0
H2165 H 0.93932 0.3222 0.3956 0.0
H2166 H 0.93051 0.33426 0.36158 0.0
H2167 H 0.90563 0.30717 0.3788 0.0
C2168 C 0.85204 0.31671 0.31609 0.0
C2169 C 0.82413 0.30359 0.32134 0.0
C2170 C 0.87037 0.33217 0.33424 0.0
C2171 C 0.86139 0.33421 0.35827 0.0
C2172 C 0.83415 0.31954 0.36411 0.0
H2173 H 0.97171 0.39985 0.48905 0.0
H2174 H 0.93847 0.37157 0.45951 0.0
C2175 C 0.81582 0.30435 0.34594 0.0
C2176 C 0.87943 0.35289 0.3767 0.0
H2177 H 0.94542 0.36623 0.41153 0.0
C2178 C 0.86752 0.37384 0.3846 0.0
C2179 C 0.9078 0.34995 0.3869 0.0
C2180 C 0.9215 0.32701 0.38051 0.0
C2181 C 0.88307 0.39181 0.40227 0.0
C2182 C 0.91169 0.38934 0.41196 0.0
C2183 C 0.92358 0.36838 0.40406 0.0
C2184 C 0.9295 0.40738 0.43105 0.0
C2185 C 0.86833 0.41272 0.41089 0.0
C2186 C 0.93514 0.4372 0.42545 0.0
C2187 C 0.95392 0.45358 0.4427 0.0
C2188 C 0.96784 0.44042 0.46564 0.0
C2189 C 0.96139 0.41069 0.47155 0.0
C2190 C 0.94246 0.39444 0.45456 0.0
H2191 H 0.84464 0.40651 0.40775 0.0
H2192 H 0.87478 0.41464 0.43188 0.0
H2193 H 0.8744 0.43385 0.39926 0.0
H2194 H 0.92595 0.4478 0.40726 0.0
H2195 H 0.95877 0.47638 0.43734 0.0
H2196 H 0.66606 0.82873 0.32253 0.0
H2197 H 0.64253 0.86614 0.33075 0.0
H2198 H 0.65638 0.83865 0.41367 0.0
H2199 H 0.68017 0.80155 0.40573 0.0
H2200 H 0.59959 0.84609 0.3951 0.0
H2201 H 0.67988 0.94003 0.36114 0.0
H2202 H 0.66665 0.91471 0.33885 0.0
H2203 H 0.68804 0.90474 0.36875 0.0
C2204 C 0.66445 0.83088 0.34254 0.0
C2205 C 0.67501 0.81202 0.36347 0.0
C2206 C 0.65095 0.85228 0.34719 0.0
C2207 C 0.64786 0.85532 0.37284 0.0
C2208 C 0.65846 0.83665 0.39371 0.0
H2209 H 0.61811 0.97358 0.4595 0.0
H2210 H 0.63663 0.9479 0.43139 0.0
C2211 C 0.67195 0.81533 0.38911 0.0
C2212 C 0.63299 0.87738 0.37825 0.0
H2213 H 0.63995 0.94874 0.37783 0.0
C2214 C 0.60815 0.86857 0.39099 0.0
C2215 C 0.64427 0.90668 0.37292 0.0
C2216 C 0.67128 0.91728 0.35982 0.0
C2217 C 0.59488 0.88813 0.39945 0.0
C2218 C 0.60652 0.91743 0.39469 0.0
C2219 C 0.63083 0.92633 0.38114 0.0
C2220 C 0.59642 0.93836 0.4072 0.0
C2221 C 0.5695 0.87708 0.41479 0.0
C2222 C 0.56803 0.94306 0.40197 0.0
C2223 C 0.55738 0.95803 0.41803 0.0
C2224 C 0.57503 0.96834 0.43949 0.0
C2225 C 0.60405 0.96583 0.44309 0.0
C2226 C 0.61465 0.95111 0.42704 0.0
H2227 H 0.56603 0.85369 0.42028 0.0
H2228 H 0.57244 0.88692 0.43291 0.0
H2229 H 0.54989 0.88265 0.4028 0.0
H2230 H 0.55368 0.93376 0.38649 0.0
H2231 H 0.53488 0.95943 0.415 0.0
H2232 H 0.19841 0.69769 0.27825 0.0
H2233 H 0.17235 0.66868 0.31333 0.0
H2234 H 0.23985 0.70043 0.37054 0.0
H2235 H 0.26641 0.72919 0.33513 0.0
H2236 H 0.21816 0.64353 0.38479 0.0
H2237 H 0.1287 0.70241 0.35678 0.0
H2238 H 0.13575 0.68682 0.33019 0.0
H2239 H 0.16247 0.71402 0.34341 0.0
C2240 C 0.20788 0.6982 0.29831 0.0
C2241 C 0.23456 0.71551 0.3039 0.0
C2242 C 0.19285 0.68176 0.3184 0.0
C2243 C 0.20365 0.68279 0.34474 0.0
C2244 C 0.23087 0.69935 0.35043 0.0
H2245 H 0.0859 0.62781 0.46508 0.0
H2246 H 0.12084 0.65492 0.4362 0.0
C2247 C 0.24612 0.71571 0.3302 0.0
C2248 C 0.18587 0.66743 0.36602 0.0
H2249 H 0.11961 0.65953 0.38639 0.0
C2250 C 0.19668 0.64717 0.38527 0.0
C2251 C 0.15798 0.67244 0.36713 0.0
C2252 C 0.14564 0.69531 0.34845 0.0
C2253 C 0.18015 0.63132 0.40497 0.0
C2254 C 0.15164 0.63525 0.40518 0.0
C2255 C 0.14123 0.65608 0.3863 0.0
C2256 C 0.13209 0.61828 0.42462 0.0
C2257 C 0.19372 0.61092 0.42562 0.0
C2258 C 0.12658 0.58843 0.42815 0.0
C2259 C 0.1068 0.5728 0.44506 0.0
C2260 C 0.09151 0.58657 0.45852 0.0
C2261 C 0.09718 0.61641 0.45509 0.0
C2262 C 0.11721 0.63199 0.43848 0.0
H2263 H 0.21743 0.61715 0.42797 0.0
H2264 H 0.18583 0.60972 0.44482 0.0
H2265 H 0.18838 0.58949 0.41964 0.0
H2266 H 0.13691 0.57711 0.41725 0.0
H2267 H 0.10281 0.54989 0.44687 0.0
H2268 H 0.27509 0.15525 0.31837 0.0
H2269 H 0.31131 0.13068 0.34511 0.0
H2270 H 0.37756 0.20049 0.32099 0.0
H2271 H 0.34119 0.22506 0.29378 0.0
H2272 H 0.35907 0.11431 0.32671 0.0
H2273 H 0.39566 0.1859 0.40224 0.0
H2274 H 0.36008 0.1824 0.38495 0.0
H2275 H 0.39012 0.20164 0.36858 0.0
C2276 C 0.29735 0.16563 0.31905 0.0
C2277 C 0.30505 0.19245 0.30428 0.0
C2278 C 0.31811 0.15143 0.33428 0.0
C2279 C 0.34734 0.16359 0.33533 0.0
C2280 C 0.35519 0.19066 0.3209 0.0
H2281 H 0.48581 0.06588 0.40548 0.0
H2282 H 0.45436 0.09219 0.37322 0.0
C2283 C 0.33432 0.20485 0.30542 0.0
C2284 C 0.36923 0.14735 0.35098 0.0
H2285 H 0.41687 0.14584 0.40646 0.0
C2286 C 0.37195 0.12138 0.34399 0.0
C2287 C 0.38594 0.15623 0.37374 0.0
C2288 C 0.38295 0.18301 0.38307 0.0
C2289 C 0.39047 0.10408 0.35918 0.0
C2290 C 0.40701 0.11288 0.38208 0.0
C2291 C 0.40453 0.13904 0.38884 0.0
C2292 C 0.42517 0.09449 0.40054 0.0
C2293 C 0.39131 0.07596 0.35117 0.0
C2294 C 0.41928 0.08641 0.42659 0.0
C2295 C 0.43706 0.07136 0.44488 0.0
C2296 C 0.4616 0.06386 0.43792 0.0
C2297 C 0.46694 0.07081 0.41154 0.0
C2298 C 0.44897 0.08604 0.39307 0.0
H2299 H 0.37333 0.06973 0.33616 0.0
H2300 H 0.41169 0.07742 0.34287 0.0
H2301 H 0.39048 0.05903 0.36835 0.0
H2302 H 0.40109 0.09232 0.43301 0.0
H2303 H 0.43205 0.06641 0.46492 0.0
H2304 H 0.78929 0.86593 0.71198 0.0
H2305 H 0.7533 0.89022 0.68465 0.0
H2306 H 0.68661 0.82149 0.71004 0.0
H2307 H 0.72291 0.79707 0.73787 0.0
H2308 H 0.67938 0.84226 0.65486 0.0
H2309 H 0.6993 0.93066 0.71315 0.0
H2310 H 0.73124 0.92431 0.70274 0.0
H2311 H 0.71163 0.89765 0.72504 0.0
C2312 C 0.76697 0.8558 0.71157 0.0
C2313 C 0.75909 0.82933 0.72684 0.0
C2314 C 0.74633 0.86986 0.69605 0.0
C2315 C 0.71703 0.85812 0.69551 0.0
C2316 C 0.70901 0.83121 0.71017 0.0
H2317 H 0.58205 0.95766 0.62074 0.0
H2318 H 0.61217 0.93051 0.65371 0.0
C2319 C 0.7298 0.81709 0.72592 0.0
C2320 C 0.6952 0.8743 0.67974 0.0
H2321 H 0.67268 0.93818 0.67102 0.0
C2322 C 0.67773 0.86308 0.65861 0.0
C2323 C 0.69253 0.90142 0.68464 0.0
C2324 C 0.70945 0.91416 0.70777 0.0
C2325 C 0.65883 0.87865 0.64172 0.0
C2326 C 0.65737 0.90644 0.64575 0.0
C2327 C 0.67385 0.9171 0.66761 0.0
C2328 C 0.64019 0.92513 0.6266 0.0
C2329 C 0.64063 0.86517 0.61953 0.0
C2330 C 0.64654 0.93247 0.60064 0.0
C2331 C 0.62965 0.94813 0.58198 0.0
C2332 C 0.60576 0.95719 0.58854 0.0
C2333 C 0.60031 0.95131 0.61492 0.0
C2334 C 0.61741 0.93552 0.63376 0.0
H2335 H 0.63784 0.84168 0.62345 0.0
H2336 H 0.61918 0.87126 0.61599 0.0
H2337 H 0.65128 0.87246 0.60143 0.0
H2338 H 0.66436 0.92555 0.59461 0.0
H2339 H 0.63486 0.95238 0.56201 0.0
H2340 H 0.7548 0.24823 0.34018 0.0
H2341 H 0.72329 0.22004 0.37208 0.0
H2342 H 0.67224 0.1768 0.31089 0.0
H2343 H 0.70331 0.20559 0.279 0.0
H2344 H 0.63841 0.19016 0.34218 0.0
H2345 H 0.72268 0.1384 0.40357 0.0
H2346 H 0.73091 0.17638 0.4002 0.0
H2347 H 0.72817 0.15893 0.37196 0.0
C2348 C 0.73652 0.23304 0.33357 0.0
C2349 C 0.73076 0.22982 0.30701 0.0
C2350 C 0.71875 0.21661 0.35185 0.0
C2351 C 0.69543 0.19591 0.34409 0.0
C2352 C 0.68993 0.19261 0.31749 0.0
H2353 H 0.60144 0.05535 0.4446 0.0
H2354 H 0.63343 0.08561 0.41433 0.0
C2355 C 0.70757 0.20916 0.29923 0.0
C2356 C 0.67672 0.17766 0.36347 0.0
H2357 H 0.67751 0.13012 0.41989 0.0
C2358 C 0.64703 0.1771 0.35919 0.0
C2359 C 0.6877 0.16005 0.38548 0.0
C2360 C 0.71906 0.15817 0.39051 0.0
C2361 C 0.6282 0.1599 0.37633 0.0
C2362 C 0.63927 0.14298 0.39881 0.0
C2363 C 0.66892 0.14323 0.4029 0.0
C2364 C 0.6204 0.12466 0.41804 0.0
C2365 C 0.59648 0.15951 0.36974 0.0
C2366 C 0.60277 0.1364 0.43085 0.0
C2367 C 0.58437 0.11914 0.44812 0.0
C2368 C 0.58325 0.08959 0.45334 0.0
C2369 C 0.6016 0.07795 0.44113 0.0
C2370 C 0.61995 0.09527 0.42375 0.0
H2371 H 0.59093 0.16687 0.34866 0.0
H2372 H 0.58395 0.13791 0.3748 0.0
H2373 H 0.58989 0.17398 0.38107 0.0
H2374 H 0.60317 0.15903 0.42746 0.0
H2375 H 0.57087 0.12903 0.45728 0.0
H2376 H 0.87546 0.74943 0.31851 0.0
H2377 H 0.89851 0.71265 0.34589 0.0
H2378 H 0.82754 0.64878 0.32233 0.0
H2379 H 0.80456 0.68591 0.29426 0.0
H2380 H 0.88319 0.67377 0.38715 0.0
H2381 H 0.89552 0.61909 0.30547 0.0
H2382 H 0.88513 0.6534 0.30013 0.0
H2383 H 0.8594 0.62191 0.3085 0.0
C2384 C 0.86455 0.72756 0.31942 0.0
C2385 C 0.83798 0.72066 0.30454 0.0
C2386 C 0.87781 0.70648 0.33506 0.0
C2387 C 0.86516 0.67772 0.336 0.0
C2388 C 0.83814 0.6707 0.32163 0.0
H2389 H 0.9329 0.55295 0.45719 0.0
H2390 H 0.90114 0.57957 0.4265 0.0
C2391 C 0.82475 0.69196 0.30589 0.0
C2392 C 0.88079 0.65562 0.35194 0.0
H2393 H 0.9125 0.5995 0.34802 0.0
C2394 C 0.8894 0.65744 0.37856 0.0
C2395 C 0.88948 0.63449 0.3408 0.0
C2396 C 0.88218 0.63212 0.31212 0.0
C2397 C 0.90633 0.63905 0.3942 0.0
C2398 C 0.91461 0.61757 0.38322 0.0
C2399 C 0.90606 0.6157 0.35658 0.0
C2400 C 0.93235 0.5973 0.39927 0.0
C2401 C 0.91597 0.64347 0.42224 0.0
C2402 C 0.95998 0.59655 0.39344 0.0
C2403 C 0.97813 0.58068 0.41086 0.0
C2404 C 0.96892 0.56525 0.4344 0.0
C2405 C 0.94059 0.56447 0.43916 0.0
C2406 C 0.92249 0.58001 0.42174 0.0
H2407 H 0.91453 0.66506 0.42556 0.0
H2408 H 0.90198 0.62795 0.4352 0.0
H2409 H 0.93839 0.64025 0.42803 0.0
H2410 H 0.96814 0.60954 0.37619 0.0
H2411 H 0.99997 0.58218 0.40686 0.0
H2412 H 0.31733 0.8411 0.30854 0.0
H2413 H 0.34252 0.86889 0.34198 0.0
H2414 H 0.36683 0.79377 0.38857 0.0
H2415 H 0.34055 0.76522 0.3553 0.0
H2416 H 0.34941 0.8305 0.41775 0.0
H2417 H 0.42982 0.88939 0.35225 0.0
H2418 H 0.39355 0.89061 0.33853 0.0
H2419 H 0.40583 0.85731 0.34503 0.0
C2420 C 0.32793 0.83024 0.32582 0.0
C2421 C 0.32756 0.80087 0.32878 0.0
C2422 C 0.34244 0.84631 0.34494 0.0
C2423 C 0.35719 0.83356 0.36742 0.0
C2424 C 0.35589 0.80409 0.37115 0.0
H2425 H 0.4753 0.89746 0.49273 0.0
H2426 H 0.43894 0.86836 0.46618 0.0
C2427 C 0.34111 0.78784 0.352 0.0
C2428 C 0.37443 0.85138 0.38653 0.0
H2429 H 0.43009 0.90698 0.39194 0.0
C2430 C 0.36713 0.84715 0.41218 0.0
C2431 C 0.39753 0.87311 0.37919 0.0
C2432 C 0.40737 0.87776 0.35233 0.0
C2433 C 0.38207 0.86444 0.43058 0.0
C2434 C 0.40497 0.88631 0.42311 0.0
C2435 C 0.41224 0.89048 0.39749 0.0
C2436 C 0.42324 0.90385 0.44191 0.0
C2437 C 0.37306 0.85943 0.45774 0.0
C2438 C 0.4262 0.93354 0.43737 0.0
C2439 C 0.44702 0.95033 0.45261 0.0
C2440 C 0.46552 0.93763 0.4723 0.0
C2441 C 0.46144 0.90787 0.47763 0.0
C2442 C 0.44052 0.89116 0.46258 0.0
H2443 H 0.35083 0.84734 0.45834 0.0
H2444 H 0.38757 0.84696 0.47112 0.0
H2445 H 0.37453 0.87981 0.46516 0.0
H2446 H 0.41317 0.94373 0.42136 0.0
H2447 H 0.44978 0.97318 0.44791 0.0
H2448 H 0.19014 0.33229 0.34672 0.0
H2449 H 0.15404 0.3565 0.35691 0.0
H2450 H 0.21958 0.42875 0.37158 0.0
H2451 H 0.25551 0.40534 0.36017 0.0
H2452 H 0.15121 0.37101 0.4026 0.0
H2453 H 0.15833 0.4683 0.33036 0.0
H2454 H 0.17416 0.43867 0.32687 0.0
H2455 H 0.19288 0.46453 0.34724 0.0
C2456 C 0.1968 0.35364 0.35141 0.0
C2457 C 0.22584 0.36679 0.35266 0.0
C2458 C 0.17611 0.36742 0.35737 0.0
C2459 C 0.18393 0.39467 0.36464 0.0
C2460 C 0.21279 0.40806 0.3654 0.0
H2461 H 0.12148 0.46571 0.47528 0.0
H2462 H 0.14702 0.44788 0.44636 0.0
C2463 C 0.23346 0.39438 0.35931 0.0
C2464 C 0.16267 0.40781 0.37423 0.0
H2465 H 0.13836 0.47 0.37018 0.0
C2466 C 0.14801 0.39245 0.39509 0.0
C2467 C 0.1581 0.4357 0.36434 0.0
C2468 C 0.17148 0.45261 0.34077 0.0
C2469 C 0.13037 0.40473 0.40729 0.0
C2470 C 0.12761 0.43329 0.39872 0.0
C2471 C 0.14081 0.44821 0.37691 0.0
C2472 C 0.11345 0.44838 0.41406 0.0
C2473 C 0.1155 0.3873 0.42988 0.0
C2474 C 0.08663 0.45593 0.40496 0.0
C2475 C 0.0719 0.4664 0.42153 0.0
C2476 C 0.08387 0.46923 0.44736 0.0
C2477 C 0.11154 0.4634 0.45561 0.0
C2478 C 0.12618 0.4532 0.43912 0.0
H2479 H 0.11364 0.36421 0.42968 0.0
H2480 H 0.12808 0.39256 0.44851 0.0
H2481 H 0.09374 0.39204 0.42947 0.0
H2482 H 0.07654 0.45244 0.38559 0.0
H2483 H 0.05058 0.47064 0.41471 0.0
H2484 H 0.44134 0.23627 0.66668 0.0
H2485 H 0.46115 0.19788 0.65525 0.0
H2486 H 0.37744 0.14495 0.65294 0.0
H2487 H 0.35736 0.18329 0.66414 0.0
H2488 H 0.45594 0.13557 0.68148 0.0
H2489 H 0.40698 0.15313 0.57818 0.0
H2490 H 0.41292 0.18007 0.59926 0.0
H2491 H 0.38417 0.15034 0.6034 0.0
C2492 C 0.42713 0.21646 0.66375 0.0
C2493 C 0.39771 0.21294 0.66614 0.0
C2494 C 0.43854 0.19448 0.65745 0.0
C2495 C 0.42075 0.16864 0.65318 0.0
C2496 C 0.39152 0.16477 0.65613 0.0
H2497 H 0.45062 0.03628 0.57418 0.0
H2498 H 0.42933 0.06171 0.60069 0.0
C2499 C 0.38012 0.18666 0.66262 0.0
C2500 C 0.43243 0.14642 0.6441 0.0
H2501 H 0.43322 0.11636 0.58985 0.0
C2502 C 0.45093 0.13119 0.66149 0.0
C2503 C 0.4258 0.14077 0.61807 0.0
C2504 C 0.40653 0.15697 0.59848 0.0
C2505 C 0.46282 0.11024 0.65351 0.0
C2506 C 0.45659 0.10493 0.62726 0.0
C2507 C 0.43791 0.12015 0.61002 0.0
C2508 C 0.46983 0.08466 0.61658 0.0
C2509 C 0.48152 0.09375 0.67339 0.0
C2510 C 0.49978 0.08788 0.61764 0.0
C2511 C 0.51197 0.07268 0.603 0.0
C2512 C 0.4944 0.05441 0.58676 0.0
C2513 C 0.4646 0.04986 0.58695 0.0
C2514 C 0.45245 0.06462 0.6019 0.0
H2515 H 0.47631 0.09324 0.69355 0.0
H2516 H 0.47919 0.07163 0.6695 0.0
H2517 H 0.50424 0.10421 0.67255 0.0
H2518 H 0.51374 0.10365 0.62819 0.0
H2519 H 0.53497 0.07716 0.60253 0.0
H2520 H 0.86717 0.32645 0.75084 0.0
H2521 H 0.89356 0.35592 0.71617 0.0
H2522 H 0.82879 0.32115 0.65819 0.0
H2523 H 0.8017 0.29269 0.69307 0.0
H2524 H 0.91869 0.34106 0.68254 0.0
H2525 H 0.83837 0.40118 0.62561 0.0
H2526 H 0.83256 0.38009 0.65683 0.0
H2527 H 0.82642 0.36359 0.62773 0.0
C2528 C 0.85826 0.32565 0.73066 0.0
C2529 C 0.83211 0.30773 0.72469 0.0
C2530 C 0.87344 0.3424 0.71078 0.0
C2531 C 0.86323 0.34126 0.68428 0.0
C2532 C 0.83693 0.32329 0.67829 0.0
H2533 H 0.98381 0.39488 0.56572 0.0
H2534 H 0.95004 0.36769 0.59563 0.0
C2535 C 0.82142 0.30687 0.69828 0.0
C2536 C 0.88133 0.35735 0.66337 0.0
H2537 H 0.88117 0.40398 0.6063 0.0
C2538 C 0.91037 0.3549 0.66598 0.0
C2539 C 0.87083 0.3756 0.64157 0.0
C2540 C 0.84041 0.38052 0.63783 0.0
C2541 C 0.92903 0.37009 0.64783 0.0
C2542 C 0.91838 0.38778 0.62574 0.0
C2543 C 0.88939 0.39029 0.62303 0.0
C2544 C 0.93721 0.40429 0.6057 0.0
C2545 C 0.96025 0.36759 0.65301 0.0
C2546 C 0.94037 0.43399 0.60017 0.0
C2547 C 0.95946 0.44967 0.58268 0.0
C2548 C 0.9759 0.43604 0.57026 0.0
C2549 C 0.97183 0.40622 0.57508 0.0
C2550 C 0.9526 0.39058 0.59238 0.0
H2551 H 0.96643 0.36009 0.67395 0.0
H2552 H 0.96425 0.35196 0.64141 0.0
H2553 H 0.97428 0.38821 0.64731 0.0
H2554 H 0.92867 0.44516 0.60998 0.0
H2555 H 0.96195 0.47256 0.57952 0.0
H2556 H 0.25104 0.66423 0.73461 0.0
H2557 H 0.21974 0.63873 0.70175 0.0
H2558 H 0.20846 0.71839 0.65479 0.0
H2559 H 0.2411 0.74396 0.68744 0.0
H2560 H 0.16484 0.63751 0.68281 0.0
H2561 H 0.23242 0.67846 0.60192 0.0
H2562 H 0.24501 0.6834 0.63535 0.0
H2563 H 0.22202 0.70571 0.61572 0.0
C2564 C 0.24209 0.67626 0.71714 0.0
C2565 C 0.24884 0.70596 0.71326 0.0
C2566 C 0.22402 0.66168 0.69843 0.0
C2567 C 0.21216 0.67651 0.67539 0.0
C2568 C 0.21793 0.70639 0.67201 0.0
H2569 H 0.09208 0.6232 0.54506 0.0
H2570 H 0.12659 0.64899 0.57569 0.0
C2571 C 0.23624 0.72102 0.69078 0.0
C2572 C 0.19373 0.66042 0.65525 0.0
H2573 H 0.18696 0.65047 0.59115 0.0
C2574 C 0.16979 0.6403 0.6628 0.0
C2575 C 0.20019 0.66382 0.62912 0.0
C2576 C 0.22645 0.6838 0.62003 0.0
C2577 C 0.15195 0.62396 0.64496 0.0
C2578 C 0.15829 0.62753 0.61882 0.0
C2579 C 0.18217 0.64764 0.61121 0.0
C2580 C 0.1395 0.61156 0.59887 0.0
C2581 C 0.12603 0.60342 0.65408 0.0
C2582 C 0.13592 0.58188 0.6011 0.0
C2583 C 0.11624 0.56695 0.58341 0.0
C2584 C 0.09963 0.58145 0.56324 0.0
C2585 C 0.10432 0.61128 0.56043 0.0
C2586 C 0.12409 0.62612 0.57794 0.0
H2587 H 0.12099 0.60718 0.67317 0.0
H2588 H 0.107 0.605 0.63947 0.0
H2589 H 0.13017 0.58148 0.65637 0.0
H2590 H 0.1479 0.57019 0.61689 0.0
H2591 H 0.11315 0.54403 0.58623 0.0
loop_
_geom_bond_atom_site_label_1
_geom_bond_atom_site_label_2
_geom_bond_distance
_geom_bond_site_symmetry_2
_ccdc_geom_bond_type
Tb0 N31 2.660 . S
Tb0 N38 2.600 . S
Tb0 O44 2.546 . S
Tb0 O45 2.610 . S
Tb0 O47 2.320 . S
Tb0 O48 2.552 . S
Tb0 O49 2.413 . S
Tb0 O51 2.362 . S
Tb0 O52 2.421 . S
Tb0 C64 2.833 . S
C1 C4 1.432 . S
C1 C5 1.414 . S
C1 N8 1.359 . S
C2 C4 1.417 . S
C2 C6 1.432 . S
C2 C14 1.410 . S
C3 C5 1.444 . S
C3 C6 1.317 . S
C3 H26 0.929 . S
C4 C1 1.432 . S
C4 C2 1.417 . S
C4 N12 1.360 . S
C5 C1 1.414 . S
C5 C3 1.444 . S
C5 C10 1.385 . S
C6 C2 1.432 . S
C6 C3 1.317 . S
C6 H18 0.930 . S
C7 C9 1.392 . S
C7 C10 1.370 . S
C7 H19 0.931 . S
N8 C1 1.359 . S
N8 C9 1.327 . S
N8 Tb11 2.600 . S
C9 C7 1.392 . S
C9 N8 1.327 . S
C9 H16 0.930 . S
C10 C5 1.385 . S
C10 C7 1.370 . S
C10 H29 0.930 . S
Tb11 N8 2.600 . S
Tb11 N12 2.660 . S
Tb11 O45 2.362 . S
Tb11 O46 2.421 . S
Tb11 O50 2.546 . S
Tb11 O51 2.610 . S
Tb11 O53 2.320 . S
Tb11 O54 2.552 . S
Tb11 O55 2.413 . S
Tb11 C75 2.833 . S
N12 C4 1.360 . S
N12 Tb11 2.660 . S
N12 C13 1.305 . S
C13 N12 1.305 . S
C13 C15 1.407 . S
C13 H20 0.930 . S
C14 C2 1.410 . S
C14 C15 1.345 . S
C14 H22 0.930 . S
C15 C13 1.407 . S
C15 C14 1.345 . S
C15 H17 0.930 . S
H16 C9 0.930 . S
H17 C15 0.930 . S
H18 C6 0.930 . S
H19 C7 0.931 . S
H20 C13 0.930 . S
H21 C35 0.930 . S
H22 C14 0.930 . S
H23 C41 0.930 . S
H24 C32 0.930 . S
H25 C39 0.931 . S
H26 C3 0.929 . S
H27 C33 0.930 . S
H28 C66 0.930 . S
H29 C10 0.930 . S
H30 C65 0.929 . S
N31 Tb0 2.660 . S
N31 C32 1.305 . S
N31 C36 1.360 . S
C32 H24 0.930 . S
C32 N31 1.305 . S
C32 C35 1.407 . S
C33 H27 0.930 . S
C33 C34 1.410 . S
C33 C35 1.345 . S
C34 C33 1.410 . S
C34 C36 1.417 . S
C34 C66 1.432 . S
C35 H21 0.930 . S
C35 C32 1.407 . S
C35 C33 1.345 . S
C36 N31 1.360 . S
C36 C34 1.417 . S
C36 C40 1.432 . S
H37 C42 0.930 . S
N38 Tb0 2.600 . S
N38 C40 1.359 . S
N38 C41 1.327 . S
C39 H25 0.931 . S
C39 C41 1.392 . S
C39 C42 1.370 . S
C40 C36 1.432 . S
C40 N38 1.359 . S
C40 C43 1.414 . S
C41 H23 0.930 . S
C41 N38 1.327 . S
C41 C39 1.392 . S
C42 H37 0.930 . S
C42 C39 1.370 . S
C42 C43 1.385 . S
C43 C40 1.414 . S
C43 C42 1.385 . S
C43 C65 1.444 . S
O44 Tb0 2.546 . S
O44 C64 1.251 . S
O45 Tb0 2.610 . S
O45 Tb11 2.362 . S
O45 C56 1.283 . S
O46 Tb11 2.421 . S
O46 C63 1.262 . S
O47 Tb0 2.320 . S
O47 C63 1.260 . S
O48 Tb0 2.552 . S
O48 C56 1.243 . S
O49 Tb0 2.413 . S
O49 C64 1.256 . S
O50 Tb11 2.546 . S
O50 C75 1.251 . S
O51 Tb0 2.362 . S
O51 Tb11 2.610 . S
O51 C67 1.283 . S
O52 Tb0 2.421 . S
O52 C74 1.262 . S
O53 Tb11 2.320 . S
O53 C74 1.260 . S
O54 Tb11 2.552 . S
O54 C67 1.243 . S
O55 Tb11 2.413 . S
O55 C75 1.256 . S
C56 O45 1.283 . S
C56 O48 1.243 . S
C57 C59 1.382 . S
C57 C61 1.393 . S
C57 C64 1.500 . S
C58 C59 1.400 . S
C58 C60 1.384 . S
C59 C57 1.382 . S
C59 C58 1.400 . S
C59 H76 0.930 . S
C60 C58 1.384 . S
C60 C62 1.392 . S
C60 H77 0.931 . S
C61 C57 1.393 . S
C61 C62 1.401 . S
C61 H78 0.930 . S
C62 C60 1.392 . S
C62 C61 1.401 . S
C62 H79 0.930 . S
C63 O46 1.262 . S
C63 O47 1.260 . S
C64 Tb0 2.833 . S
C64 O44 1.251 . S
C64 O49 1.256 . S
C64 C57 1.500 . S
C65 H30 0.929 . S
C65 C43 1.444 . S
C65 C66 1.317 . S
C66 H28 0.930 . S
C66 C34 1.432 . S
C66 C65 1.317 . S
C67 O51 1.283 . S
C67 O54 1.243 . S
C68 C69 1.382 . S
C68 C72 1.393 . S
C68 C75 1.500 . S
C69 C68 1.382 . S
C69 C70 1.400 . S
C69 H80 0.930 . S
C70 C69 1.400 . S
C70 C71 1.384 . S
C71 C70 1.384 . S
C71 C73 1.392 . S
C71 H81 0.931 . S
C72 C68 1.393 . S
C72 C73 1.401 . S
C72 H82 0.930 . S
C73 C71 1.392 . S
C73 C72 1.401 . S
C73 H83 0.930 . S
C74 O52 1.262 . S
C74 O53 1.260 . S
C75 Tb11 2.833 . S
C75 O50 1.251 . S
C75 O55 1.256 . S
C75 C68 1.500 . S
H76 C59 0.930 . S
H77 C60 0.931 . S
H78 C61 0.930 . S
H79 C62 0.930 . S
H80 C69 0.930 . S
H81 C71 0.931 . S
H82 C72 0.930 . S
H83 C73 0.930 . S
Tb84 N115 2.660 . S
Tb84 N122 2.600 . S
Tb84 O128 2.546 . S
Tb84 O129 2.610 . S
Tb84 O131 2.320 . S
Tb84 O132 2.552 . S
Tb84 O133 2.413 . S
Tb84 O135 2.362 . S
Tb84 O136 2.421 . S
Tb84 C148 2.833 . S
C85 C88 1.432 . S
C85 C89 1.414 . S
C85 N92 1.359 . S
C86 C88 1.417 . S
C86 C90 1.432 . S
C86 C98 1.410 . S
C87 C89 1.444 . S
C87 C90 1.317 . S
C87 H110 0.929 . S
C88 C85 1.432 . S
C88 C86 1.417 . S
C88 N96 1.360 . S
C89 C85 1.414 . S
C89 C87 1.444 . S
C89 C94 1.385 . S
C90 C86 1.432 . S
C90 C87 1.317 . S
C90 H102 0.930 . S
C91 C93 1.392 . S
C91 C94 1.370 . S
C91 H103 0.931 . S
N92 C85 1.359 . S
N92 C93 1.327 . S
N92 Tb95 2.600 . S
C93 C91 1.392 . S
C93 N92 1.327 . S
C93 H100 0.930 . S
C94 C89 1.385 . S
C94 C91 1.370 . S
C94 H113 0.930 . S
Tb95 N92 2.600 . S
Tb95 N96 2.660 . S
Tb95 O129 2.362 . S
Tb95 O130 2.421 . S
Tb95 O134 2.546 . S
Tb95 O135 2.610 . S
Tb95 O137 2.320 . S
Tb95 O138 2.552 . S
Tb95 O139 2.413 . S
Tb95 C159 2.833 . S
N96 C88 1.360 . S
N96 Tb95 2.660 . S
N96 C97 1.305 . S
C97 N96 1.305 . S
C97 C99 1.407 . S
C97 H104 0.930 . S
C98 C86 1.410 . S
C98 C99 1.345 . S
C98 H106 0.930 . S
C99 C97 1.407 . S
C99 C98 1.345 . S
C99 H101 0.930 . S
H100 C93 0.930 . S
H101 C99 0.930 . S
H102 C90 0.930 . S
H103 C91 0.931 . S
H104 C97 0.930 . S
H105 C119 0.930 . S
H106 C98 0.930 . S
H107 C125 0.930 . S
H108 C116 0.930 . S
H109 C123 0.931 . S
H110 C87 0.929 . S
H111 C117 0.930 . S
H112 C150 0.930 . S
H113 C94 0.930 . S
H114 C149 0.929 . S
N115 Tb84 2.660 . S
N115 C116 1.305 . S
N115 C120 1.360 . S
C116 H108 0.930 . S
C116 N115 1.305 . S
C116 C119 1.407 . S
C117 H111 0.930 . S
C117 C118 1.410 . S
C117 C119 1.345 . S
C118 C117 1.410 . S
C118 C120 1.417 . S
C118 C150 1.432 . S
C119 H105 0.930 . S
C119 C116 1.407 . S
C119 C117 1.345 . S
C120 N115 1.360 . S
C120 C118 1.417 . S
C120 C124 1.432 . S
H121 C126 0.930 . S
N122 Tb84 2.600 . S
N122 C124 1.359 . S
N122 C125 1.327 . S
C123 H109 0.931 . S
C123 C125 1.392 . S
C123 C126 1.370 . S
C124 C120 1.432 . S
C124 N122 1.359 . S
C124 C127 1.414 . S
C125 H107 0.930 . S
C125 N122 1.327 . S
C125 C123 1.392 . S
C126 H121 0.930 . S
C126 C123 1.370 . S
C126 C127 1.385 . S
C127 C124 1.414 . S
C127 C126 1.385 . S
C127 C149 1.444 . S
O128 Tb84 2.546 . S
O128 C148 1.251 . S
O129 Tb84 2.610 . S
O129 Tb95 2.362 . S
O129 C140 1.283 . S
O130 Tb95 2.421 . S
O130 C147 1.262 . S
O131 Tb84 2.320 . S
O131 C147 1.260 . S
O132 Tb84 2.552 . S
O132 C140 1.243 . S
O133 Tb84 2.413 . S
O133 C148 1.256 . S
O134 Tb95 2.546 . S
O134 C159 1.251 . S
O135 Tb84 2.362 . S
O135 Tb95 2.610 . S
O135 C151 1.283 . S
O136 Tb84 2.421 . S
O136 C158 1.262 . S
O137 Tb95 2.320 . S
O137 C158 1.260 . S
O138 Tb95 2.552 . S
O138 C151 1.243 . S
O139 Tb95 2.413 . S
O139 C159 1.256 . S
C140 O129 1.283 . S
C140 O132 1.243 . S
C141 C143 1.382 . S
C141 C145 1.393 . S
C141 C148 1.500 . S
C142 C143 1.400 . S
C142 C144 1.384 . S
C143 C141 1.382 . S
C143 C142 1.400 . S
C143 H160 0.930 . S
C144 C142 1.384 . S
C144 C146 1.392 . S
C144 H161 0.931 . S
C145 C141 1.393 . S
C145 C146 1.401 . S
C145 H162 0.930 . S
C146 C144 1.392 . S
C146 C145 1.401 . S
C146 H163 0.930 . S
C147 O130 1.262 . S
C147 O131 1.260 . S
C148 Tb84 2.833 . S
C148 O128 1.251 . S
C148 O133 1.256 . S
C148 C141 1.500 . S
C149 H114 0.929 . S
C149 C127 1.444 . S
C149 C150 1.317 . S
C150 H112 0.930 . S
C150 C118 1.432 . S
C150 C149 1.317 . S
C151 O135 1.283 . S
C151 O138 1.243 . S
C152 C153 1.382 . S
C152 C156 1.393 . S
C152 C159 1.500 . S
C153 C152 1.382 . S
C153 C154 1.400 . S
C153 H164 0.930 . S
C154 C153 1.400 . S
C154 C155 1.384 . S
C155 C154 1.384 . S
C155 C157 1.392 . S
C155 H165 0.931 . S
C156 C152 1.393 . S
C156 C157 1.401 . S
C156 H166 0.930 . S
C157 C155 1.392 . S
C157 C156 1.401 . S
C157 H167 0.930 . S
C158 O136 1.262 . S
C158 O137 1.260 . S
C159 Tb95 2.833 . S
C159 O134 1.251 . S
C159 O139 1.256 . S
C159 C152 1.500 . S
H160 C143 0.930 . S
H161 C144 0.931 . S
H162 C145 0.930 . S
H163 C146 0.930 . S
H164 C153 0.930 . S
H165 C155 0.931 . S
H166 C156 0.930 . S
H167 C157 0.930 . S
Tb168 N199 2.660 . S
Tb168 N206 2.600 . S
Tb168 O212 2.546 . S
Tb168 O213 2.610 . S
Tb168 O215 2.320 . S
Tb168 O216 2.552 . S
Tb168 O217 2.413 . S
Tb168 O219 2.362 . S
Tb168 O220 2.421 . S
Tb168 C232 2.833 . S
C169 C172 1.432 . S
C169 C173 1.414 . S
C169 N176 1.359 . S
C170 C172 1.417 . S
C170 C174 1.432 . S
C170 C182 1.410 . S
C171 C173 1.444 . S
C171 C174 1.317 . S
C171 H194 0.929 . S
C172 C169 1.432 . S
C172 C170 1.417 . S
C172 N180 1.360 . S
C173 C169 1.414 . S
C173 C171 1.444 . S
C173 C178 1.385 . S
C174 C170 1.432 . S
C174 C171 1.317 . S
C174 H186 0.930 . S
C175 C177 1.392 . S
C175 C178 1.370 . S
C175 H187 0.931 . S
N176 C169 1.359 . S
N176 C177 1.327 . S
N176 Tb179 2.600 . S
C177 C175 1.392 . S
C177 N176 1.327 . S
C177 H184 0.930 . S
C178 C173 1.385 . S
C178 C175 1.370 . S
C178 H197 0.930 . S
Tb179 N176 2.600 . S
Tb179 N180 2.660 . S
Tb179 O213 2.362 . S
Tb179 O214 2.421 . S
Tb179 O218 2.546 . S
Tb179 O219 2.610 . S
Tb179 O221 2.320 . S
Tb179 O222 2.552 . S
Tb179 O223 2.413 . S
Tb179 C243 2.833 . S
N180 C172 1.360 . S
N180 Tb179 2.660 . S
N180 C181 1.305 . S
C181 N180 1.305 . S
C181 C183 1.407 . S
C181 H188 0.930 . S
C182 C170 1.410 . S
C182 C183 1.345 . S
C182 H190 0.930 . S
C183 C181 1.407 . S
C183 C182 1.345 . S
C183 H185 0.930 . S
H184 C177 0.930 . S
H185 C183 0.930 . S
H186 C174 0.930 . S
H187 C175 0.931 . S
H188 C181 0.930 . S
H189 C203 0.930 . S
H190 C182 0.930 . S
H191 C209 0.930 . S
H192 C200 0.930 . S
H193 C207 0.931 . S
H194 C171 0.929 . S
H195 C201 0.930 . S
H196 C234 0.930 . S
H197 C178 0.930 . S
H198 C233 0.929 . S
N199 Tb168 2.660 . S
N199 C200 1.305 . S
N199 C204 1.360 . S
C200 H192 0.930 . S
C200 N199 1.305 . S
C200 C203 1.407 . S
C201 H195 0.930 . S
C201 C202 1.410 . S
C201 C203 1.345 . S
C202 C201 1.410 . S
C202 C204 1.417 . S
C202 C234 1.432 . S
C203 H189 0.930 . S
C203 C200 1.407 . S
C203 C201 1.345 . S
C204 N199 1.360 . S
C204 C202 1.417 . S
C204 C208 1.432 . S
H205 C210 0.930 . S
N206 Tb168 2.600 . S
N206 C208 1.359 . S
N206 C209 1.327 . S
C207 H193 0.931 . S
C207 C209 1.392 . S
C207 C210 1.370 . S
C208 C204 1.432 . S
C208 N206 1.359 . S
C208 C211 1.414 . S
C209 H191 0.930 . S
C209 N206 1.327 . S
C209 C207 1.392 . S
C210 H205 0.930 . S
C210 C207 1.370 . S
C210 C211 1.385 . S
C211 C208 1.414 . S
C211 C210 1.385 . S
C211 C233 1.444 . S
O212 Tb168 2.546 . S
O212 C232 1.251 . S
O213 Tb168 2.610 . S
O213 Tb179 2.362 . S
O213 C224 1.283 . S
O214 Tb179 2.421 . S
O214 C231 1.262 . S
O215 Tb168 2.320 . S
O215 C231 1.260 . S
O216 Tb168 2.552 . S
O216 C224 1.243 . S
O217 Tb168 2.413 . S
O217 C232 1.256 . S
O218 Tb179 2.546 . S
O218 C243 1.251 . S
O219 Tb168 2.362 . S
O219 Tb179 2.610 . S
O219 C235 1.283 . S
O220 Tb168 2.421 . S
O220 C242 1.262 . S
O221 Tb179 2.320 . S
O221 C242 1.260 . S
O222 Tb179 2.552 . S
O222 C235 1.243 . S
O223 Tb179 2.413 . S
O223 C243 1.256 . S
C224 O213 1.283 . S
C224 O216 1.243 . S
C225 C227 1.382 . S
C225 C229 1.393 . S
C225 C232 1.500 . S
C226 C227 1.400 . S
C226 C228 1.384 . S
C227 C225 1.382 . S
C227 C226 1.400 . S
C227 H244 0.930 . S
C228 C226 1.384 . S
C228 C230 1.392 . S
C228 H245 0.931 . S
C229 C225 1.393 . S
C229 C230 1.401 . S
C229 H246 0.930 . S
C230 C228 1.392 . S
C230 C229 1.401 . S
C230 H247 0.930 . S
C231 O214 1.262 . S
C231 O215 1.260 . S
C232 Tb168 2.833 . S
C232 O212 1.251 . S
C232 O217 1.256 . S
C232 C225 1.500 . S
C233 H198 0.929 . S
C233 C211 1.444 . S
C233 C234 1.317 . S
C234 H196 0.930 . S
C234 C202 1.432 . S
C234 C233 1.317 . S
C235 O219 1.283 . S
C235 O222 1.243 . S
C236 C237 1.382 . S
C236 C240 1.393 . S
C236 C243 1.500 . S
C237 C236 1.382 . S
C237 C238 1.400 . S
C237 H248 0.930 . S
C238 C237 1.400 . S
C238 C239 1.384 . S
C239 C238 1.384 . S
C239 C241 1.392 . S
C239 H249 0.931 . S
C240 C236 1.393 . S
C240 C241 1.401 . S
C240 H250 0.930 . S
C241 C239 1.392 . S
C241 C240 1.401 . S
C241 H251 0.930 . S
C242 O220 1.262 . S
C242 O221 1.260 . S
C243 Tb179 2.833 . S
C243 O218 1.251 . S
C243 O223 1.256 . S
C243 C236 1.500 . S
H244 C227 0.930 . S
H245 C228 0.931 . S
H246 C229 0.930 . S
H247 C230 0.930 . S
H248 C237 0.930 . S
H249 C239 0.931 . S
H250 C240 0.930 . S
H251 C241 0.930 . S
Tb252 N283 2.660 . S
Tb252 N290 2.600 . S
Tb252 O296 2.546 . S
Tb252 O297 2.610 . S
Tb252 O299 2.320 . S
Tb252 O300 2.552 . S
Tb252 O301 2.413 . S
Tb252 O303 2.362 . S
Tb252 O304 2.421 . S
Tb252 C316 2.833 . S
C253 C256 1.432 . S
C253 C257 1.414 . S
C253 N260 1.359 . S
C254 C256 1.417 . S
C254 C258 1.432 . S
C254 C266 1.410 . S
C255 C257 1.444 . S
C255 C258 1.317 . S
C255 H278 0.929 . S
C256 C253 1.432 . S
C256 C254 1.417 . S
C256 N264 1.360 . S
C257 C253 1.414 . S
C257 C255 1.444 . S
C257 C262 1.385 . S
C258 C254 1.432 . S
C258 C255 1.317 . S
C258 H270 0.930 . S
C259 C261 1.392 . S
C259 C262 1.370 . S
C259 H271 0.931 . S
N260 C253 1.359 . S
N260 C261 1.327 . S
N260 Tb263 2.600 . S
C261 C259 1.392 . S
C261 N260 1.327 . S
C261 H268 0.930 . S
C262 C257 1.385 . S
C262 C259 1.370 . S
C262 H281 0.930 . S
Tb263 N260 2.600 . S
Tb263 N264 2.660 . S
Tb263 O297 2.362 . S
Tb263 O298 2.421 . S
Tb263 O302 2.546 . S
Tb263 O303 2.610 . S
Tb263 O305 2.320 . S
Tb263 O306 2.552 . S
Tb263 O307 2.413 . S
Tb263 C327 2.833 . S
N264 C256 1.360 . S
N264 Tb263 2.660 . S
N264 C265 1.305 . S
C265 N264 1.305 . S
C265 C267 1.407 . S
C265 H272 0.930 . S
C266 C254 1.410 . S
C266 C267 1.345 . S
C266 H274 0.930 . S
C267 C265 1.407 . S
C267 C266 1.345 . S
C267 H269 0.930 . S
H268 C261 0.930 . S
H269 C267 0.930 . S
H270 C258 0.930 . S
H271 C259 0.931 . S
H272 C265 0.930 . S
H273 C287 0.930 . S
H274 C266 0.930 . S
H275 C293 0.930 . S
H276 C284 0.930 . S
H277 C291 0.931 . S
H278 C255 0.929 . S
H279 C285 0.930 . S
H280 C318 0.930 . S
H281 C262 0.930 . S
H282 C317 0.929 . S
N283 Tb252 2.660 . S
N283 C284 1.305 . S
N283 C288 1.360 . S
C284 H276 0.930 . S
C284 N283 1.305 . S
C284 C287 1.407 . S
C285 H279 0.930 . S
C285 C286 1.410 . S
C285 C287 1.345 . S
C286 C285 1.410 . S
C286 C288 1.417 . S
C286 C318 1.432 . S
C287 H273 0.930 . S
C287 C284 1.407 . S
C287 C285 1.345 . S
C288 N283 1.360 . S
C288 C286 1.417 . S
C288 C292 1.432 . S
H289 C294 0.930 . S
N290 Tb252 2.600 . S
N290 C292 1.359 . S
N290 C293 1.327 . S
C291 H277 0.931 . S
C291 C293 1.392 . S
C291 C294 1.370 . S
C292 C288 1.432 . S
C292 N290 1.359 . S
C292 C295 1.414 . S
C293 H275 0.930 . S
C293 N290 1.327 . S
C293 C291 1.392 . S
C294 H289 0.930 . S
C294 C291 1.370 . S
C294 C295 1.385 . S
C295 C292 1.414 . S
C295 C294 1.385 . S
C295 C317 1.444 . S
O296 Tb252 2.546 . S
O296 C316 1.251 . S
O297 Tb252 2.610 . S
O297 Tb263 2.362 . S
O297 C308 1.283 . S
O298 Tb263 2.421 . S
O298 C315 1.262 . S
O299 Tb252 2.320 . S
O299 C315 1.260 . S
O300 Tb252 2.552 . S
O300 C308 1.243 . S
O301 Tb252 2.413 . S
O301 C316 1.256 . S
O302 Tb263 2.546 . S
O302 C327 1.251 . S
O303 Tb252 2.362 . S
O303 Tb263 2.610 . S
O303 C319 1.283 . S
O304 Tb252 2.421 . S
O304 C326 1.262 . S
O305 Tb263 2.320 . S
O305 C326 1.260 . S
O306 Tb263 2.552 . S
O306 C319 1.243 . S
O307 Tb263 2.413 . S
O307 C327 1.256 . S
C308 O297 1.283 . S
C308 O300 1.243 . S
C309 C311 1.382 . S
C309 C313 1.393 . S
C309 C316 1.500 . S
C310 C311 1.400 . S
C310 C312 1.384 . S
C311 C309 1.382 . S
C311 C310 1.400 . S
C311 H328 0.930 . S
C312 C310 1.384 . S
C312 C314 1.392 . S
C312 H329 0.931 . S
C313 C309 1.393 . S
C313 C314 1.401 . S
C313 H330 0.930 . S
C314 C312 1.392 . S
C314 C313 1.401 . S
C314 H331 0.930 . S
C315 O298 1.262 . S
C315 O299 1.260 . S
C316 Tb252 2.833 . S
C316 O296 1.251 . S
C316 O301 1.256 . S
C316 C309 1.500 . S
C317 H282 0.929 . S
C317 C295 1.444 . S
C317 C318 1.317 . S
C318 H280 0.930 . S
C318 C286 1.432 . S
C318 C317 1.317 . S
C319 O303 1.283 . S
C319 O306 1.243 . S
C320 C321 1.382 . S
C320 C324 1.393 . S
C320 C327 1.500 . S
C321 C320 1.382 . S
C321 C322 1.400 . S
C321 H332 0.930 . S
C322 C321 1.400 . S
C322 C323 1.384 . S
C323 C322 1.384 . S
C323 C325 1.392 . S
C323 H333 0.931 . S
C324 C320 1.393 . S
C324 C325 1.401 . S
C324 H334 0.930 . S
C325 C323 1.392 . S
C325 C324 1.401 . S
C325 H335 0.930 . S
C326 O304 1.262 . S
C326 O305 1.260 . S
C327 Tb263 2.833 . S
C327 O302 1.251 . S
C327 O307 1.256 . S
C327 C320 1.500 . S
H328 C311 0.930 . S
H329 C312 0.931 . S
H330 C313 0.930 . S
H331 C314 0.930 . S
H332 C321 0.930 . S
H333 C323 0.931 . S
H334 C324 0.930 . S
H335 C325 0.930 . S
Tb336 N367 2.660 . S
Tb336 N374 2.600 . S
Tb336 O380 2.546 . S
Tb336 O381 2.610 . S
Tb336 O383 2.320 . S
Tb336 O384 2.552 . S
Tb336 O385 2.413 . S
Tb336 O387 2.362 . S
Tb336 O388 2.421 . S
Tb336 C400 2.833 . S
C337 C340 1.432 . S
C337 C341 1.414 . S
C337 N344 1.359 . S
C338 C340 1.417 . S
C338 C342 1.432 . S
C338 C350 1.410 . S
C339 C341 1.444 . S
C339 C342 1.317 . S
C339 H362 0.929 . S
C340 C337 1.432 . S
C340 C338 1.417 . S
C340 N348 1.360 . S
C341 C337 1.414 . S
C341 C339 1.444 . S
C341 C346 1.385 . S
C342 C338 1.432 . S
C342 C339 1.317 . S
C342 H354 0.930 . S
C343 C345 1.392 . S
C343 C346 1.370 . S
C343 H355 0.931 . S
N344 C337 1.359 . S
N344 C345 1.327 . S
N344 Tb347 2.600 . S
C345 C343 1.392 . S
C345 N344 1.327 . S
C345 H352 0.930 . S
C346 C341 1.385 . S
C346 C343 1.370 . S
C346 H365 0.930 . S
Tb347 N344 2.600 . S
Tb347 N348 2.660 . S
Tb347 O381 2.362 . S
Tb347 O382 2.421 . S
Tb347 O386 2.546 . S
Tb347 O387 2.610 . S
Tb347 O389 2.320 . S
Tb347 O390 2.552 . S
Tb347 O391 2.413 . S
Tb347 C411 2.833 . S
N348 C340 1.360 . S
N348 Tb347 2.660 . S
N348 C349 1.305 . S
C349 N348 1.305 . S
C349 C351 1.407 . S
C349 H356 0.930 . S
C350 C338 1.410 . S
C350 C351 1.345 . S
C350 H358 0.930 . S
C351 C349 1.407 . S
C351 C350 1.345 . S
C351 H353 0.930 . S
H352 C345 0.930 . S
H353 C351 0.930 . S
H354 C342 0.930 . S
H355 C343 0.931 . S
H356 C349 0.930 . S
H357 C371 0.930 . S
H358 C350 0.930 . S
H359 C377 0.930 . S
H360 C368 0.930 . S
H361 C375 0.931 . S
H362 C339 0.929 . S
H363 C369 0.930 . S
H364 C402 0.930 . S
H365 C346 0.930 . S
H366 C401 0.929 . S
N367 Tb336 2.660 . S
N367 C368 1.305 . S
N367 C372 1.360 . S
C368 H360 0.930 . S
C368 N367 1.305 . S
C368 C371 1.407 . S
C369 H363 0.930 . S
C369 C370 1.410 . S
C369 C371 1.345 . S
C370 C369 1.410 . S
C370 C372 1.417 . S
C370 C402 1.432 . S
C371 H357 0.930 . S
C371 C368 1.407 . S
C371 C369 1.345 . S
C372 N367 1.360 . S
C372 C370 1.417 . S
C372 C376 1.432 . S
H373 C378 0.930 . S
N374 Tb336 2.600 . S
N374 C376 1.359 . S
N374 C377 1.327 . S
C375 H361 0.931 . S
C375 C377 1.392 . S
C375 C378 1.370 . S
C376 C372 1.432 . S
C376 N374 1.359 . S
C376 C379 1.414 . S
C377 H359 0.930 . S
C377 N374 1.327 . S
C377 C375 1.392 . S
C378 H373 0.930 . S
C378 C375 1.370 . S
C378 C379 1.385 . S
C379 C376 1.414 . S
C379 C378 1.385 . S
C379 C401 1.444 . S
O380 Tb336 2.546 . S
O380 C400 1.251 . S
O381 Tb336 2.610 . S
O381 Tb347 2.362 . S
O381 C392 1.283 . S
O382 Tb347 2.421 . S
O382 C399 1.262 . S
O383 Tb336 2.320 . S
O383 C399 1.260 . S
O384 Tb336 2.552 . S
O384 C392 1.243 . S
O385 Tb336 2.413 . S
O385 C400 1.256 . S
O386 Tb347 2.546 . S
O386 C411 1.251 . S
O387 Tb336 2.362 . S
O387 Tb347 2.610 . S
O387 C403 1.283 . S
O388 Tb336 2.421 . S
O388 C410 1.262 . S
O389 Tb347 2.320 . S
O389 C410 1.260 . S
O390 Tb347 2.552 . S
O390 C403 1.243 . S
O391 Tb347 2.413 . S
O391 C411 1.256 . S
C392 O381 1.283 . S
C392 O384 1.243 . S
C393 C395 1.382 . S
C393 C397 1.393 . S
C393 C400 1.500 . S
C394 C395 1.400 . S
C394 C396 1.384 . S
C395 C393 1.382 . S
C395 C394 1.400 . S
C395 H412 0.930 . S
C396 C394 1.384 . S
C396 C398 1.392 . S
C396 H413 0.931 . S
C397 C393 1.393 . S
C397 C398 1.401 . S
C397 H414 0.930 . S
C398 C396 1.392 . S
C398 C397 1.401 . S
C398 H415 0.930 . S
C399 O382 1.262 . S
C399 O383 1.260 . S
C400 Tb336 2.833 . S
C400 O380 1.251 . S
C400 O385 1.256 . S
C400 C393 1.500 . S
C401 H366 0.929 . S
C401 C379 1.444 . S
C401 C402 1.317 . S
C402 H364 0.930 . S
C402 C370 1.432 . S
C402 C401 1.317 . S
C403 O387 1.283 . S
C403 O390 1.243 . S
C404 C405 1.382 . S
C404 C408 1.393 . S
C404 C411 1.500 . S
C405 C404 1.382 . S
C405 C406 1.400 . S
C405 H416 0.930 . S
C406 C405 1.400 . S
C406 C407 1.384 . S
C407 C406 1.384 . S
C407 C409 1.392 . S
C407 H417 0.931 . S
C408 C404 1.393 . S
C408 C409 1.401 . S
C408 H418 0.930 . S
C409 C407 1.392 . S
C409 C408 1.401 . S
C409 H419 0.930 . S
C410 O388 1.262 . S
C410 O389 1.260 . S
C411 Tb347 2.833 . S
C411 O386 1.251 . S
C411 O391 1.256 . S
C411 C404 1.500 . S
H412 C395 0.930 . S
H413 C396 0.931 . S
H414 C397 0.930 . S
H415 C398 0.930 . S
H416 C405 0.930 . S
H417 C407 0.931 . S
H418 C408 0.930 . S
H419 C409 0.930 . S
Tb420 N451 2.660 . S
Tb420 N458 2.600 . S
Tb420 O464 2.546 . S
Tb420 O465 2.610 . S
Tb420 O467 2.320 . S
Tb420 O468 2.552 . S
Tb420 O469 2.413 . S
Tb420 O471 2.362 . S
Tb420 O472 2.421 . S
Tb420 C484 2.833 . S
C421 C424 1.432 . S
C421 C425 1.414 . S
C421 N428 1.359 . S
C422 C424 1.417 . S
C422 C426 1.432 . S
C422 C434 1.410 . S
C423 C425 1.444 . S
C423 C426 1.317 . S
C423 H446 0.929 . S
C424 C421 1.432 . S
C424 C422 1.417 . S
C424 N432 1.360 . S
C425 C421 1.414 . S
C425 C423 1.444 . S
C425 C430 1.385 . S
C426 C422 1.432 . S
C426 C423 1.317 . S
C426 H438 0.930 . S
C427 C429 1.392 . S
C427 C430 1.370 . S
C427 H439 0.931 . S
N428 C421 1.359 . S
N428 C429 1.327 . S
N428 Tb431 2.600 . S
C429 C427 1.392 . S
C429 N428 1.327 . S
C429 H436 0.930 . S
C430 C425 1.385 . S
C430 C427 1.370 . S
C430 H449 0.930 . S
Tb431 N428 2.600 . S
Tb431 N432 2.660 . S
Tb431 O465 2.362 . S
Tb431 O466 2.421 . S
Tb431 O470 2.546 . S
Tb431 O471 2.610 . S
Tb431 O473 2.320 . S
Tb431 O474 2.552 . S
Tb431 O475 2.413 . S
Tb431 C495 2.833 . S
N432 C424 1.360 . S
N432 Tb431 2.660 . S
N432 C433 1.305 . S
C433 N432 1.305 . S
C433 C435 1.407 . S
C433 H440 0.930 . S
C434 C422 1.410 . S
C434 C435 1.345 . S
C434 H442 0.930 . S
C435 C433 1.407 . S
C435 C434 1.345 . S
C435 H437 0.930 . S
H436 C429 0.930 . S
H437 C435 0.930 . S
H438 C426 0.930 . S
H439 C427 0.931 . S
H440 C433 0.930 . S
H441 C455 0.930 . S
H442 C434 0.930 . S
H443 C461 0.930 . S
H444 C452 0.930 . S
H445 C459 0.931 . S
H446 C423 0.929 . S
H447 C453 0.930 . S
H448 C486 0.930 . S
H449 C430 0.930 . S
H450 C485 0.929 . S
N451 Tb420 2.660 . S
N451 C452 1.305 . S
N451 C456 1.360 . S
C452 H444 0.930 . S
C452 N451 1.305 . S
C452 C455 1.407 . S
C453 H447 0.930 . S
C453 C454 1.410 . S
C453 C455 1.345 . S
C454 C453 1.410 . S
C454 C456 1.417 . S
C454 C486 1.432 . S
C455 H441 0.930 . S
C455 C452 1.407 . S
C455 C453 1.345 . S
C456 N451 1.360 . S
C456 C454 1.417 . S
C456 C460 1.432 . S
H457 C462 0.930 . S
N458 Tb420 2.600 . S
N458 C460 1.359 . S
N458 C461 1.327 . S
C459 H445 0.931 . S
C459 C461 1.392 . S
C459 C462 1.370 . S
C460 C456 1.432 . S
C460 N458 1.359 . S
C460 C463 1.414 . S
C461 H443 0.930 . S
C461 N458 1.327 . S
C461 C459 1.392 . S
C462 H457 0.930 . S
C462 C459 1.370 . S
C462 C463 1.385 . S
C463 C460 1.414 . S
C463 C462 1.385 . S
C463 C485 1.444 . S
O464 Tb420 2.546 . S
O464 C484 1.251 . S
O465 Tb420 2.610 . S
O465 Tb431 2.362 . S
O465 C476 1.283 . S
O466 Tb431 2.421 . S
O466 C483 1.262 . S
O467 Tb420 2.320 . S
O467 C483 1.260 . S
O468 Tb420 2.552 . S
O468 C476 1.243 . S
O469 Tb420 2.413 . S
O469 C484 1.256 . S
O470 Tb431 2.546 . S
O470 C495 1.251 . S
O471 Tb420 2.362 . S
O471 Tb431 2.610 . S
O471 C487 1.283 . S
O472 Tb420 2.421 . S
O472 C494 1.262 . S
O473 Tb431 2.320 . S
O473 C494 1.260 . S
O474 Tb431 2.552 . S
O474 C487 1.243 . S
O475 Tb431 2.413 . S
O475 C495 1.256 . S
C476 O465 1.283 . S
C476 O468 1.243 . S
C477 C479 1.382 . S
C477 C481 1.393 . S
C477 C484 1.500 . S
C478 C479 1.400 . S
C478 C480 1.384 . S
C479 C477 1.382 . S
C479 C478 1.400 . S
C479 H496 0.930 . S
C480 C478 1.384 . S
C480 C482 1.392 . S
C480 H497 0.931 . S
C481 C477 1.393 . S
C481 C482 1.401 . S
C481 H498 0.930 . S
C482 C480 1.392 . S
C482 C481 1.401 . S
C482 H499 0.930 . S
C483 O466 1.262 . S
C483 O467 1.260 . S
C484 Tb420 2.833 . S
C484 O464 1.251 . S
C484 O469 1.256 . S
C484 C477 1.500 . S
C485 H450 0.929 . S
C485 C463 1.444 . S
C485 C486 1.317 . S
C486 H448 0.930 . S
C486 C454 1.432 . S
C486 C485 1.317 . S
C487 O471 1.283 . S
C487 O474 1.243 . S
C488 C489 1.382 . S
C488 C492 1.393 . S
C488 C495 1.500 . S
C489 C488 1.382 . S
C489 C490 1.400 . S
C489 H500 0.930 . S
C490 C489 1.400 . S
C490 C491 1.384 . S
C491 C490 1.384 . S
C491 C493 1.392 . S
C491 H501 0.931 . S
C492 C488 1.393 . S
C492 C493 1.401 . S
C492 H502 0.930 . S
C493 C491 1.392 . S
C493 C492 1.401 . S
C493 H503 0.930 . S
C494 O472 1.262 . S
C494 O473 1.260 . S
C495 Tb431 2.833 . S
C495 O470 1.251 . S
C495 O475 1.256 . S
C495 C488 1.500 . S
H496 C479 0.930 . S
H497 C480 0.931 . S
H498 C481 0.930 . S
H499 C482 0.930 . S
H500 C489 0.930 . S
H501 C491 0.931 . S
H502 C492 0.930 . S
H503 C493 0.930 . S
Tb504 N535 2.660 . S
Tb504 N542 2.600 . S
Tb504 O548 2.546 . S
Tb504 O549 2.610 . S
Tb504 O551 2.320 . S
Tb504 O552 2.552 . S
Tb504 O553 2.413 . S
Tb504 O555 2.362 . S
Tb504 O556 2.421 . S
Tb504 C568 2.833 . S
C505 C508 1.432 . S
C505 C509 1.414 . S
C505 N512 1.359 . S
C506 C508 1.417 . S
C506 C510 1.432 . S
C506 C518 1.410 . S
C507 C509 1.444 . S
C507 C510 1.317 . S
C507 H530 0.929 . S
C508 C505 1.432 . S
C508 C506 1.417 . S
C508 N516 1.360 . S
C509 C505 1.414 . S
C509 C507 1.444 . S
C509 C514 1.385 . S
C510 C506 1.432 . S
C510 C507 1.317 . S
C510 H522 0.930 . S
C511 C513 1.392 . S
C511 C514 1.370 . S
C511 H523 0.931 . S
N512 C505 1.359 . S
N512 C513 1.327 . S
N512 Tb515 2.600 . S
C513 C511 1.392 . S
C513 N512 1.327 . S
C513 H520 0.930 . S
C514 C509 1.385 . S
C514 C511 1.370 . S
C514 H533 0.930 . S
Tb515 N512 2.600 . S
Tb515 N516 2.660 . S
Tb515 O549 2.362 . S
Tb515 O550 2.421 . S
Tb515 O554 2.546 . S
Tb515 O555 2.610 . S
Tb515 O557 2.320 . S
Tb515 O558 2.552 . S
Tb515 O559 2.413 . S
Tb515 C579 2.833 . S
N516 C508 1.360 . S
N516 Tb515 2.660 . S
N516 C517 1.305 . S
C517 N516 1.305 . S
C517 C519 1.407 . S
C517 H524 0.930 . S
C518 C506 1.410 . S
C518 C519 1.345 . S
C518 H526 0.930 . S
C519 C517 1.407 . S
C519 C518 1.345 . S
C519 H521 0.930 . S
H520 C513 0.930 . S
H521 C519 0.930 . S
H522 C510 0.930 . S
H523 C511 0.931 . S
H524 C517 0.930 . S
H525 C539 0.930 . S
H526 C518 0.930 . S
H527 C545 0.930 . S
H528 C536 0.930 . S
H529 C543 0.931 . S
H530 C507 0.929 . S
H531 C537 0.930 . S
H532 C570 0.930 . S
H533 C514 0.930 . S
H534 C569 0.929 . S
N535 Tb504 2.660 . S
N535 C536 1.305 . S
N535 C540 1.360 . S
C536 H528 0.930 . S
C536 N535 1.305 . S
C536 C539 1.407 . S
C537 H531 0.930 . S
C537 C538 1.410 . S
C537 C539 1.345 . S
C538 C537 1.410 . S
C538 C540 1.417 . S
C538 C570 1.432 . S
C539 H525 0.930 . S
C539 C536 1.407 . S
C539 C537 1.345 . S
C540 N535 1.360 . S
C540 C538 1.417 . S
C540 C544 1.432 . S
H541 C546 0.930 . S
N542 Tb504 2.600 . S
N542 C544 1.359 . S
N542 C545 1.327 . S
C543 H529 0.931 . S
C543 C545 1.392 . S
C543 C546 1.370 . S
C544 C540 1.432 . S
C544 N542 1.359 . S
C544 C547 1.414 . S
C545 H527 0.930 . S
C545 N542 1.327 . S
C545 C543 1.392 . S
C546 H541 0.930 . S
C546 C543 1.370 . S
C546 C547 1.385 . S
C547 C544 1.414 . S
C547 C546 1.385 . S
C547 C569 1.444 . S
O548 Tb504 2.546 . S
O548 C568 1.251 . S
O549 Tb504 2.610 . S
O549 Tb515 2.362 . S
O549 C560 1.283 . S
O550 Tb515 2.421 . S
O550 C567 1.262 . S
O551 Tb504 2.320 . S
O551 C567 1.260 . S
O552 Tb504 2.552 . S
O552 C560 1.243 . S
O553 Tb504 2.413 . S
O553 C568 1.256 . S
O554 Tb515 2.546 . S
O554 C579 1.251 . S
O555 Tb504 2.362 . S
O555 Tb515 2.610 . S
O555 C571 1.283 . S
O556 Tb504 2.421 . S
O556 C578 1.262 . S
O557 Tb515 2.320 . S
O557 C578 1.260 . S
O558 Tb515 2.552 . S
O558 C571 1.243 . S
O559 Tb515 2.413 . S
O559 C579 1.256 . S
C560 O549 1.283 . S
C560 O552 1.243 . S
C561 C563 1.382 . S
C561 C565 1.393 . S
C561 C568 1.500 . S
C562 C563 1.400 . S
C562 C564 1.384 . S
C563 C561 1.382 . S
C563 C562 1.400 . S
C563 H580 0.930 . S
C564 C562 1.384 . S
C564 C566 1.392 . S
C564 H581 0.931 . S
C565 C561 1.393 . S
C565 C566 1.401 . S
C565 H582 0.930 . S
C566 C564 1.392 . S
C566 C565 1.401 . S
C566 H583 0.930 . S
C567 O550 1.262 . S
C567 O551 1.260 . S
C568 Tb504 2.833 . S
C568 O548 1.251 . S
C568 O553 1.256 . S
C568 C561 1.500 . S
C569 H534 0.929 . S
C569 C547 1.444 . S
C569 C570 1.317 . S
C570 H532 0.930 . S
C570 C538 1.432 . S
C570 C569 1.317 . S
C571 O555 1.283 . S
C571 O558 1.243 . S
C572 C573 1.382 . S
C572 C576 1.393 . S
C572 C579 1.500 . S
C573 C572 1.382 . S
C573 C574 1.400 . S
C573 H584 0.930 . S
C574 C573 1.400 . S
C574 C575 1.384 . S
C575 C574 1.384 . S
C575 C577 1.392 . S
C575 H585 0.931 . S
C576 C572 1.393 . S
C576 C577 1.401 . S
C576 H586 0.930 . S
C577 C575 1.392 . S
C577 C576 1.401 . S
C577 H587 0.930 . S
C578 O556 1.262 . S
C578 O557 1.260 . S
C579 Tb515 2.833 . S
C579 O554 1.251 . S
C579 O559 1.256 . S
C579 C572 1.500 . S
H580 C563 0.930 . S
H581 C564 0.931 . S
H582 C565 0.930 . S
H583 C566 0.930 . S
H584 C573 0.930 . S
H585 C575 0.931 . S
H586 C576 0.930 . S
H587 C577 0.930 . S
Tb588 N619 2.660 . S
Tb588 N626 2.600 . S
Tb588 O632 2.546 . S
Tb588 O633 2.610 . S
Tb588 O635 2.320 . S
Tb588 O636 2.552 . S
Tb588 O637 2.413 . S
Tb588 O639 2.362 . S
Tb588 O640 2.421 . S
Tb588 C652 2.833 . S
C589 C592 1.432 . S
C589 C593 1.414 . S
C589 N596 1.359 . S
C590 C592 1.417 . S
C590 C594 1.432 . S
C590 C602 1.410 . S
C591 C593 1.444 . S
C591 C594 1.317 . S
C591 H614 0.929 . S
C592 C589 1.432 . S
C592 C590 1.417 . S
C592 N600 1.360 . S
C593 C589 1.414 . S
C593 C591 1.444 . S
C593 C598 1.385 . S
C594 C590 1.432 . S
C594 C591 1.317 . S
C594 H606 0.930 . S
C595 C597 1.392 . S
C595 C598 1.370 . S
C595 H607 0.931 . S
N596 C589 1.359 . S
N596 C597 1.327 . S
N596 Tb599 2.600 . S
C597 C595 1.392 . S
C597 N596 1.327 . S
C597 H604 0.930 . S
C598 C593 1.385 . S
C598 C595 1.370 . S
C598 H617 0.930 . S
Tb599 N596 2.600 . S
Tb599 N600 2.660 . S
Tb599 O633 2.362 . S
Tb599 O634 2.421 . S
Tb599 O638 2.546 . S
Tb599 O639 2.610 . S
Tb599 O641 2.320 . S
Tb599 O642 2.552 . S
Tb599 O643 2.413 . S
Tb599 C663 2.833 . S
N600 C592 1.360 . S
N600 Tb599 2.660 . S
N600 C601 1.305 . S
C601 N600 1.305 . S
C601 C603 1.407 . S
C601 H608 0.930 . S
C602 C590 1.410 . S
C602 C603 1.345 . S
C602 H610 0.930 . S
C603 C601 1.407 . S
C603 C602 1.345 . S
C603 H605 0.930 . S
H604 C597 0.930 . S
H605 C603 0.930 . S
H606 C594 0.930 . S
H607 C595 0.931 . S
H608 C601 0.930 . S
H609 C623 0.930 . S
H610 C602 0.930 . S
H611 C629 0.930 . S
H612 C620 0.930 . S
H613 C627 0.931 . S
H614 C591 0.929 . S
H615 C621 0.930 . S
H616 C654 0.930 . S
H617 C598 0.930 . S
H618 C653 0.929 . S
N619 Tb588 2.660 . S
N619 C620 1.305 . S
N619 C624 1.360 . S
C620 H612 0.930 . S
C620 N619 1.305 . S
C620 C623 1.407 . S
C621 H615 0.930 . S
C621 C622 1.410 . S
C621 C623 1.345 . S
C622 C621 1.410 . S
C622 C624 1.417 . S
C622 C654 1.432 . S
C623 H609 0.930 . S
C623 C620 1.407 . S
C623 C621 1.345 . S
C624 N619 1.360 . S
C624 C622 1.417 . S
C624 C628 1.432 . S
H625 C630 0.930 . S
N626 Tb588 2.600 . S
N626 C628 1.359 . S
N626 C629 1.327 . S
C627 H613 0.931 . S
C627 C629 1.392 . S
C627 C630 1.370 . S
C628 C624 1.432 . S
C628 N626 1.359 . S
C628 C631 1.414 . S
C629 H611 0.930 . S
C629 N626 1.327 . S
C629 C627 1.392 . S
C630 H625 0.930 . S
C630 C627 1.370 . S
C630 C631 1.385 . S
C631 C628 1.414 . S
C631 C630 1.385 . S
C631 C653 1.444 . S
O632 Tb588 2.546 . S
O632 C652 1.251 . S
O633 Tb588 2.610 . S
O633 Tb599 2.362 . S
O633 C644 1.283 . S
O634 Tb599 2.421 . S
O634 C651 1.262 . S
O635 Tb588 2.320 . S
O635 C651 1.260 . S
O636 Tb588 2.552 . S
O636 C644 1.243 . S
O637 Tb588 2.413 . S
O637 C652 1.256 . S
O638 Tb599 2.546 . S
O638 C663 1.251 . S
O639 Tb588 2.362 . S
O639 Tb599 2.610 . S
O639 C655 1.283 . S
O640 Tb588 2.421 . S
O640 C662 1.262 . S
O641 Tb599 2.320 . S
O641 C662 1.260 . S
O642 Tb599 2.552 . S
O642 C655 1.243 . S
O643 Tb599 2.413 . S
O643 C663 1.256 . S
C644 O633 1.283 . S
C644 O636 1.243 . S
C645 C647 1.382 . S
C645 C649 1.393 . S
C645 C652 1.500 . S
C646 C647 1.400 . S
C646 C648 1.384 . S
C647 C645 1.382 . S
C647 C646 1.400 . S
C647 H664 0.930 . S
C648 C646 1.384 . S
C648 C650 1.392 . S
C648 H665 0.931 . S
C649 C645 1.393 . S
C649 C650 1.401 . S
C649 H666 0.930 . S
C650 C648 1.392 . S
C650 C649 1.401 . S
C650 H667 0.930 . S
C651 O634 1.262 . S
C651 O635 1.260 . S
C652 Tb588 2.833 . S
C652 O632 1.251 . S
C652 O637 1.256 . S
C652 C645 1.500 . S
C653 H618 0.929 . S
C653 C631 1.444 . S
C653 C654 1.317 . S
C654 H616 0.930 . S
C654 C622 1.432 . S
C654 C653 1.317 . S
C655 O639 1.283 . S
C655 O642 1.243 . S
C656 C657 1.382 . S
C656 C660 1.393 . S
C656 C663 1.500 . S
C657 C656 1.382 . S
C657 C658 1.400 . S
C657 H668 0.930 . S
C658 C657 1.400 . S
C658 C659 1.384 . S
C659 C658 1.384 . S
C659 C661 1.392 . S
C659 H669 0.931 . S
C660 C656 1.393 . S
C660 C661 1.401 . S
C660 H670 0.930 . S
C661 C659 1.392 . S
C661 C660 1.401 . S
C661 H671 0.930 . S
C662 O640 1.262 . S
C662 O641 1.260 . S
C663 Tb599 2.833 . S
C663 O638 1.251 . S
C663 O643 1.256 . S
C663 C656 1.500 . S
H664 C647 0.930 . S
H665 C648 0.931 . S
H666 C649 0.930 . S
H667 C650 0.930 . S
H668 C657 0.930 . S
H669 C659 0.931 . S
H670 C660 0.930 . S
H671 C661 0.930 . S
Fe672 O673 1.886 1_455 S
Fe672 O676 1.715 . S
Fe672 O681 2.077 1_455 S
Fe672 O686 1.935 . S
Fe672 O692 2.077 1_455 S
Fe672 O701 1.935 . S
O673 Fe672 1.886 1_655 S
O673 Fe675 1.715 1_545 S
Fe674 O676 1.886 . S
Fe674 O677 1.715 1_545 S
Fe674 O684 1.935 1_545 S
Fe674 O685 2.077 . S
Fe674 O691 1.935 1_545 S
Fe674 O700 2.077 . S
Fe675 O673 1.715 1_565 S
Fe675 O678 1.886 . S
Fe675 O682 1.935 1_565 S
Fe675 O687 2.077 . S
Fe675 O693 1.935 1_565 S
Fe675 O697 2.077 . S
O676 Fe672 1.715 . S
O676 Fe674 1.886 . S
O677 Fe674 1.715 1_565 S
O677 Fe679 1.886 1_455 S
O678 Fe675 1.886 . S
O678 Fe679 1.715 . S
Fe679 O677 1.886 1_655 S
Fe679 O678 1.715 . S
Fe679 O683 2.077 1_655 S
Fe679 O688 1.935 . S
Fe679 O690 2.077 1_655 S
Fe679 O698 1.935 . S
C680 O692 1.381 . S
C680 O693 1.421 . S
O681 Fe672 2.077 1_655 S
O681 C694 1.381 . S
O682 Fe675 1.935 1_545 S
O682 C694 1.421 . S
O683 Fe679 2.077 1_455 S
O683 C699 1.381 . S
O684 Fe674 1.935 1_565 S
O684 C699 1.421 . S
O685 Fe674 2.077 . S
O685 C689 1.381 . S
O686 Fe672 1.935 . S
O686 C689 1.421 . S
O687 Fe675 2.077 . S
O687 C695 1.381 . S
O688 Fe679 1.935 . S
O688 C695 1.421 . S
C689 O685 1.381 . S
C689 O686 1.421 . S
O690 Fe679 2.077 1_455 S
O690 C702 1.381 . S
O691 Fe674 1.935 1_565 S
O691 C702 1.421 . S
O692 Fe672 2.077 1_655 S
O692 C680 1.381 . S
O693 Fe675 1.935 1_545 S
O693 C680 1.421 . S
C694 O681 1.381 . S
C694 O682 1.421 . S
C695 O687 1.381 . S
C695 O688 1.421 . S
C696 O697 1.381 . S
C696 O698 1.421 . S
O697 Fe675 2.077 . S
O697 C696 1.381 . S
O698 Fe679 1.935 . S
O698 C696 1.421 . S
C699 O683 1.381 . S
C699 O684 1.421 . S
O700 Fe674 2.077 . S
O700 C703 1.381 . S
O701 Fe672 1.935 . S
O701 C703 1.421 . S
C702 O690 1.381 . S
C702 O691 1.421 . S
C703 O700 1.381 . S
C703 O701 1.421 . S
Fe704 O705 1.886 . S
Fe704 O708 1.715 . S
Fe704 O713 2.077 1_554 S
Fe704 O718 1.935 1_554 S
Fe704 O724 2.077 . S
Fe704 O733 1.935 . S
O705 Fe704 1.886 . S
O705 Fe707 1.715 1_565 S
Fe706 O708 1.886 1_556 S
Fe706 O709 1.715 1_565 S
Fe706 O716 1.935 1_565 S
Fe706 O717 2.077 . S
Fe706 O723 1.935 1_566 S
Fe706 O732 2.077 1_556 S
Fe707 O705 1.715 1_545 S
Fe707 O710 1.885 1_554 S
Fe707 O714 1.935 1_544 S
Fe707 O719 2.077 1_554 S
Fe707 O725 1.935 1_545 S
Fe707 O729 2.077 . S
O708 Fe704 1.715 . S
O708 Fe706 1.886 1_554 S
O709 Fe706 1.715 1_545 S
O709 Fe711 1.886 . S
O710 Fe707 1.885 1_556 S
O710 Fe711 1.715 . S
Fe711 O709 1.886 . S
Fe711 O710 1.715 . S
Fe711 O715 2.077 . S
Fe711 O720 1.935 . S
Fe711 O722 2.077 1_556 S
Fe711 O730 1.935 1_556 S
C712 O724 1.381 . S
C712 O725 1.421 . S
O713 Fe704 2.077 1_556 S
O713 C726 1.381 . S
O714 Fe707 1.935 1_566 S
O714 C726 1.421 . S
O715 Fe711 2.077 . S
O715 C731 1.381 . S
O716 Fe706 1.935 1_545 S
O716 C731 1.421 . S
O717 Fe706 2.077 . S
O717 C721 1.381 . S
O718 Fe704 1.935 1_556 S
O718 C721 1.421 . S
O719 Fe707 2.077 1_556 S
O719 C727 1.381 . S
O720 Fe711 1.935 . S
O720 C727 1.421 . S
C721 O717 1.381 . S
C721 O718 1.421 . S
O722 Fe711 2.077 1_554 S
O722 C734 1.381 . S
O723 Fe706 1.935 1_544 S
O723 C734 1.421 . S
O724 Fe704 2.077 . S
O724 C712 1.381 . S
O725 Fe707 1.935 1_565 S
O725 C712 1.421 . S
C726 O713 1.381 . S
C726 O714 1.421 . S
C727 O719 1.381 . S
C727 O720 1.421 . S
C728 O729 1.381 . S
C728 O730 1.421 . S
O729 Fe707 2.077 . S
O729 C728 1.381 . S
O730 Fe711 1.935 1_554 S
O730 C728 1.421 . S
C731 O715 1.381 . S
C731 O716 1.421 . S
O732 Fe706 2.077 1_554 S
O732 C735 1.381 . S
O733 Fe704 1.935 . S
O733 C735 1.421 . S
C734 O722 1.381 . S
C734 O723 1.421 . S
C735 O732 1.381 . S
C735 O733 1.421 . S
Fe736 O737 1.886 1_455 S
Fe736 O740 1.716 . S
Fe736 O745 2.077 1_455 S
Fe736 O750 1.935 . S
Fe736 O756 2.077 1_456 S
Fe736 O765 1.935 1_556 S
O737 Fe736 1.886 1_655 S
O737 Fe739 1.715 . S
Fe738 O740 1.885 1_554 S
Fe738 O741 1.715 . S
Fe738 O748 1.935 1_554 S
Fe738 O749 2.077 1_554 S
Fe738 O755 1.935 . S
Fe738 O764 2.077 . S
Fe739 O737 1.715 . S
Fe739 O742 1.886 1_556 S
Fe739 O746 1.935 . S
Fe739 O751 2.077 . S
Fe739 O757 1.935 1_556 S
Fe739 O761 2.077 1_556 S
O740 Fe736 1.716 . S
O740 Fe738 1.885 1_556 S
O741 Fe738 1.715 . S
O741 Fe743 1.886 1_455 S
O742 Fe739 1.886 1_554 S
O742 Fe743 1.715 . S
Fe743 O741 1.886 1_655 S
Fe743 O742 1.715 . S
Fe743 O747 2.077 1_654 S
Fe743 O752 1.935 1_554 S
Fe743 O754 2.077 1_655 S
Fe743 O762 1.935 . S
C744 O756 1.381 . S
C744 O757 1.421 . S
O745 Fe736 2.077 1_655 S
O745 C758 1.381 . S
O746 Fe739 1.935 . S
O746 C758 1.421 . S
O747 Fe743 2.077 1_456 S
O747 C763 1.381 . S
O748 Fe738 1.935 1_556 S
O748 C763 1.421 . S
O749 Fe738 2.077 1_556 S
O749 C753 1.381 . S
O750 Fe736 1.935 . S
O750 C753 1.421 . S
O751 Fe739 2.077 . S
O751 C759 1.381 . S
O752 Fe743 1.935 1_556 S
O752 C759 1.421 . S
C753 O749 1.381 . S
C753 O750 1.421 . S
O754 Fe743 2.077 1_455 S
O754 C766 1.381 . S
O755 Fe738 1.935 . S
O755 C766 1.421 . S
O756 Fe736 2.077 1_654 S
O756 C744 1.381 . S
O757 Fe739 1.935 1_554 S
O757 C744 1.421 . S
C758 O745 1.381 . S
C758 O746 1.421 . S
C759 O751 1.381 . S
C759 O752 1.421 . S
C760 O761 1.381 . S
C760 O762 1.421 . S
O761 Fe739 2.077 1_554 S
O761 C760 1.381 . S
O762 Fe743 1.935 . S
O762 C760 1.421 . S
C763 O747 1.381 . S
C763 O748 1.421 . S
O764 Fe738 2.077 . S
O764 C767 1.381 . S
O765 Fe736 1.935 1_554 S
O765 C767 1.421 . S
C766 O754 1.381 . S
C766 O755 1.421 . S
C767 O764 1.381 . S
C767 O765 1.421 . S
Fe768 O769 1.886 . S
Fe768 O772 1.715 . S
Fe768 O777 2.077 . S
Fe768 O782 1.935 . S
Fe768 O788 2.077 . S
Fe768 O797 1.935 . S
O769 Fe768 1.886 . S
O769 Fe771 1.715 1_556 S
Fe770 O772 1.886 . S
Fe770 O773 1.715 1_556 S
Fe770 O780 1.935 1_556 S
Fe770 O781 2.077 . S
Fe770 O787 1.935 1_556 S
Fe770 O796 2.077 . S
Fe771 O769 1.715 1_554 S
Fe771 O774 1.886 . S
Fe771 O778 1.935 1_554 S
Fe771 O783 2.077 . S
Fe771 O789 1.935 1_554 S
Fe771 O793 2.077 . S
O772 Fe768 1.715 . S
O772 Fe770 1.886 . S
O773 Fe770 1.715 1_554 S
O773 Fe775 1.886 . S
O774 Fe771 1.886 . S
O774 Fe775 1.715 . S
Fe775 O773 1.886 . S
Fe775 O774 1.715 . S
Fe775 O779 2.077 . S
Fe775 O784 1.935 . S
Fe775 O786 2.077 . S
Fe775 O794 1.935 . S
C776 O788 1.381 . S
C776 O789 1.421 . S
O777 Fe768 2.077 . S
O777 C790 1.381 . S
O778 Fe771 1.935 1_556 S
O778 C790 1.421 . S
O779 Fe775 2.077 . S
O779 C795 1.381 . S
O780 Fe770 1.935 1_554 S
O780 C795 1.421 . S
O781 Fe770 2.077 . S
O781 C785 1.381 . S
O782 Fe768 1.935 . S
O782 C785 1.421 . S
O783 Fe771 2.077 . S
O783 C791 1.381 . S
O784 Fe775 1.935 . S
O784 C791 1.421 . S
C785 O781 1.381 . S
C785 O782 1.421 . S
O786 Fe775 2.077 . S
O786 C798 1.381 . S
O787 Fe770 1.935 1_554 S
O787 C798 1.421 . S
O788 Fe768 2.077 . S
O788 C776 1.381 . S
O789 Fe771 1.935 1_556 S
O789 C776 1.421 . S
C790 O777 1.381 . S
C790 O778 1.421 . S
C791 O783 1.381 . S
C791 O784 1.421 . S
C792 O793 1.381 . S
C792 O794 1.421 . S
O793 Fe771 2.077 . S
O793 C792 1.381 . S
O794 Fe775 1.935 . S
O794 C792 1.421 . S
C795 O779 1.381 . S
C795 O780 1.421 . S
O796 Fe770 2.077 . S
O796 C799 1.381 . S
O797 Fe768 1.935 . S
O797 C799 1.421 . S
C798 O786 1.381 . S
C798 O787 1.421 . S
C799 O796 1.381 . S
C799 O797 1.421 . S
Fe800 O801 1.886 . S
Fe800 O804 1.715 . S
Fe800 O809 2.077 1_655 S
Fe800 O814 1.935 1_655 S
Fe800 O820 2.077 . S
Fe800 O829 1.935 . S
O801 Fe800 1.886 . S
O801 Fe803 1.715 1_655 S
Fe802 O804 1.886 . S
Fe802 O805 1.715 1_655 S
Fe802 O812 1.935 1_655 S
Fe802 O813 2.077 1_655 S
Fe802 O819 1.935 . S
Fe802 O828 2.077 . S
Fe803 O801 1.715 1_455 S
Fe803 O806 1.886 . S
Fe803 O810 1.935 . S
Fe803 O815 2.077 . S
Fe803 O821 1.935 1_455 S
Fe803 O825 2.077 1_455 S
O804 Fe800 1.715 . S
O804 Fe802 1.886 . S
O805 Fe802 1.715 1_455 S
O805 Fe807 1.886 . S
O806 Fe803 1.886 . S
O806 Fe807 1.715 . S
Fe807 O805 1.886 . S
Fe807 O806 1.715 . S
Fe807 O811 2.077 . S
Fe807 O816 1.935 . S
Fe807 O818 2.077 1_455 S
Fe807 O826 1.935 1_455 S
C808 O820 1.381 . S
C808 O821 1.421 . S
O809 Fe800 2.077 1_455 S
O809 C822 1.381 . S
O810 Fe803 1.935 . S
O810 C822 1.421 . S
O811 Fe807 2.077 . S
O811 C827 1.381 . S
O812 Fe802 1.935 1_455 S
O812 C827 1.421 . S
O813 Fe802 2.077 1_455 S
O813 C817 1.381 . S
O814 Fe800 1.935 1_455 S
O814 C817 1.421 . S
O815 Fe803 2.077 . S
O815 C823 1.381 . S
O816 Fe807 1.935 . S
O816 C823 1.421 . S
C817 O813 1.381 . S
C817 O814 1.421 . S
O818 Fe807 2.077 1_655 S
O818 C830 1.381 . S
O819 Fe802 1.935 . S
O819 C830 1.421 . S
O820 Fe800 2.077 . S
O820 C808 1.381 . S
O821 Fe803 1.935 1_655 S
O821 C808 1.421 . S
C822 O809 1.381 . S
C822 O810 1.421 . S
C823 O815 1.381 . S
C823 O816 1.421 . S
C824 O825 1.381 . S
C824 O826 1.421 . S
O825 Fe803 2.077 1_655 S
O825 C824 1.381 . S
O826 Fe807 1.935 1_655 S
O826 C824 1.421 . S
C827 O811 1.381 . S
C827 O812 1.421 . S
O828 Fe802 2.077 . S
O828 C831 1.381 . S
O829 Fe800 1.935 . S
O829 C831 1.421 . S
C830 O818 1.381 . S
C830 O819 1.421 . S
C831 O828 1.381 . S
C831 O829 1.421 . S
Fe832 O833 1.886 . S
Fe832 O836 1.715 . S
Fe832 O841 2.077 . S
Fe832 O846 1.935 . S
Fe832 O852 2.077 . S
Fe832 O861 1.935 . S
O833 Fe832 1.886 . S
O833 Fe835 1.715 . S
Fe834 O836 1.886 1_545 S
Fe834 O837 1.715 . S
Fe834 O844 1.935 . S
Fe834 O845 2.077 1_545 S
Fe834 O851 1.935 . S
Fe834 O860 2.077 1_545 S
Fe835 O833 1.715 . S
Fe835 O838 1.886 1_565 S
Fe835 O842 1.935 . S
Fe835 O847 2.077 1_565 S
Fe835 O853 1.935 . S
Fe835 O857 2.077 1_565 S
O836 Fe832 1.715 . S
O836 Fe834 1.886 1_565 S
O837 Fe834 1.715 . S
O837 Fe839 1.886 . S
O838 Fe835 1.886 1_545 S
O838 Fe839 1.715 . S
Fe839 O837 1.886 . S
Fe839 O838 1.715 . S
Fe839 O843 2.077 . S
Fe839 O848 1.935 . S
Fe839 O850 2.077 . S
Fe839 O858 1.935 . S
C840 O852 1.381 . S
C840 O853 1.421 . S
O841 Fe832 2.077 . S
O841 C854 1.381 . S
O842 Fe835 1.935 . S
O842 C854 1.421 . S
O843 Fe839 2.077 . S
O843 C859 1.381 . S
O844 Fe834 1.935 . S
O844 C859 1.421 . S
O845 Fe834 2.077 1_565 S
O845 C849 1.381 . S
O846 Fe832 1.935 . S
O846 C849 1.421 . S
O847 Fe835 2.077 1_545 S
O847 C855 1.381 . S
O848 Fe839 1.935 . S
O848 C855 1.421 . S
C849 O845 1.381 . S
C849 O846 1.421 . S
O850 Fe839 2.077 . S
O850 C862 1.381 . S
O851 Fe834 1.935 . S
O851 C862 1.421 . S
O852 Fe832 2.077 . S
O852 C840 1.381 . S
O853 Fe835 1.935 . S
O853 C840 1.421 . S
C854 O841 1.381 . S
C854 O842 1.421 . S
C855 O847 1.381 . S
C855 O848 1.421 . S
C856 O857 1.381 . S
C856 O858 1.421 . S
O857 Fe835 2.077 1_545 S
O857 C856 1.381 . S
O858 Fe839 1.935 . S
O858 C856 1.421 . S
C859 O843 1.381 . S
C859 O844 1.421 . S
O860 Fe834 2.077 1_565 S
O860 C863 1.381 . S
O861 Fe832 1.935 . S
O861 C863 1.421 . S
C862 O850 1.381 . S
C862 O851 1.421 . S
C863 O860 1.381 . S
C863 O861 1.421 . S
H864 C872 0.929 . S
H865 C874 0.930 . S
H866 C876 0.930 . S
H867 C879 0.929 . S
H868 C882 0.930 . S
H869 C884 0.960 . S
H870 C884 0.960 . S
H871 C884 0.960 . S
C872 H864 0.929 . S
C872 C873 1.377 . S
C872 C874 1.384 . S
C873 C872 1.377 . S
C873 C879 1.390 . S
C874 H865 0.930 . S
C874 C872 1.384 . S
C874 C875 1.372 . S
C875 C874 1.372 . S
C875 C876 1.400 . S
C875 C880 1.490 . S
C876 H866 0.930 . S
C876 C875 1.400 . S
C876 C879 1.386 . S
H877 C893 0.930 . S
H878 C894 0.931 . S
C879 H867 0.929 . S
C879 C873 1.390 . S
C879 C876 1.386 . S
C880 C875 1.490 . S
C880 C882 1.395 . S
C880 C883 1.403 . S
H881 C887 0.930 . S
C882 H868 0.930 . S
C882 C880 1.395 . S
C882 C885 1.403 . S
C883 C880 1.403 . S
C883 C884 1.524 . S
C883 C887 1.400 . S
C884 H869 0.960 . S
C884 H870 0.960 . S
C884 H871 0.960 . S
C884 C883 1.524 . S
C885 C882 1.403 . S
C885 C886 1.392 . S
C885 C889 1.495 . S
C886 C885 1.392 . S
C886 C887 1.385 . S
C886 C888 1.478 . S
C887 H881 0.930 . S
C887 C883 1.400 . S
C887 C886 1.385 . S
C888 C886 1.478 . S
C888 C890 1.381 . S
C888 C894 1.383 . S
C889 C885 1.495 . S
C889 H895 0.959 . S
C889 H896 0.961 . S
C889 H897 0.960 . S
C890 C888 1.381 . S
C890 C891 1.394 . S
C890 H898 0.930 . S
C891 C890 1.394 . S
C891 C892 1.383 . S
C891 H899 0.929 . S
C892 C891 1.383 . S
C892 C893 1.377 . S
C893 H877 0.930 . S
C893 C892 1.377 . S
C893 C894 1.379 . S
C894 H878 0.931 . S
C894 C888 1.383 . S
C894 C893 1.379 . S
H895 C889 0.959 . S
H896 C889 0.961 . S
H897 C889 0.960 . S
H898 C890 0.930 . S
H899 C891 0.929 . S
H900 C908 0.929 . S
H901 C910 0.930 . S
H902 C912 0.930 . S
H903 C915 0.929 . S
H904 C918 0.930 . S
H905 C920 0.960 . S
H906 C920 0.960 . S
H907 C920 0.960 . S
C908 H900 0.929 . S
C908 C909 1.377 . S
C908 C910 1.384 . S
C909 C908 1.377 . S
C909 C915 1.390 . S
C910 H901 0.930 . S
C910 C908 1.384 . S
C910 C911 1.372 . S
C911 C910 1.372 . S
C911 C912 1.400 . S
C911 C916 1.490 . S
C912 H902 0.930 . S
C912 C911 1.400 . S
C912 C915 1.386 . S
H913 C929 0.930 . S
H914 C930 0.931 . S
C915 H903 0.929 . S
C915 C909 1.390 . S
C915 C912 1.386 . S
C916 C911 1.490 . S
C916 C918 1.395 . S
C916 C919 1.403 . S
H917 C923 0.930 . S
C918 H904 0.930 . S
C918 C916 1.395 . S
C918 C921 1.403 . S
C919 C916 1.403 . S
C919 C920 1.524 . S
C919 C923 1.400 . S
C920 H905 0.960 . S
C920 H906 0.960 . S
C920 H907 0.960 . S
C920 C919 1.524 . S
C921 C918 1.403 . S
C921 C922 1.392 . S
C921 C925 1.495 . S
C922 C921 1.392 . S
C922 C923 1.385 . S
C922 C924 1.478 . S
C923 H917 0.930 . S
C923 C919 1.400 . S
C923 C922 1.385 . S
C924 C922 1.478 . S
C924 C926 1.381 . S
C924 C930 1.383 . S
C925 C921 1.495 . S
C925 H931 0.959 . S
C925 H932 0.961 . S
C925 H933 0.960 . S
C926 C924 1.381 . S
C926 C927 1.394 . S
C926 H934 0.930 . S
C927 C926 1.394 . S
C927 C928 1.383 . S
C927 H935 0.929 . S
C928 C927 1.383 . S
C928 C929 1.377 . S
C929 H913 0.930 . S
C929 C928 1.377 . S
C929 C930 1.379 . S
C930 H914 0.931 . S
C930 C924 1.383 . S
C930 C929 1.379 . S
H931 C925 0.959 . S
H932 C925 0.961 . S
H933 C925 0.960 . S
H934 C926 0.930 . S
H935 C927 0.929 . S
H936 C944 0.929 . S
H937 C946 0.930 . S
H938 C948 0.930 . S
H939 C951 0.929 . S
H940 C954 0.930 . S
H941 C956 0.960 . S
H942 C956 0.960 . S
H943 C956 0.960 . S
C944 H936 0.929 . S
C944 C945 1.377 . S
C944 C946 1.384 . S
C945 C944 1.377 . S
C945 C951 1.390 . S
C946 H937 0.930 . S
C946 C944 1.384 . S
C946 C947 1.372 . S
C947 C946 1.372 . S
C947 C948 1.400 . S
C947 C952 1.490 . S
C948 H938 0.930 . S
C948 C947 1.400 . S
C948 C951 1.386 . S
H949 C965 0.930 . S
H950 C966 0.931 . S
C951 H939 0.929 . S
C951 C945 1.390 . S
C951 C948 1.386 . S
C952 C947 1.490 . S
C952 C954 1.395 . S
C952 C955 1.403 . S
H953 C959 0.930 . S
C954 H940 0.930 . S
C954 C952 1.395 . S
C954 C957 1.403 . S
C955 C952 1.403 . S
C955 C956 1.524 . S
C955 C959 1.400 . S
C956 H941 0.960 . S
C956 H942 0.960 . S
C956 H943 0.960 . S
C956 C955 1.524 . S
C957 C954 1.403 . S
C957 C958 1.392 . S
C957 C961 1.495 . S
C958 C957 1.392 . S
C958 C959 1.385 . S
C958 C960 1.478 . S
C959 H953 0.930 . S
C959 C955 1.400 . S
C959 C958 1.385 . S
C960 C958 1.478 . S
C960 C962 1.381 . S
C960 C966 1.383 . S
C961 C957 1.495 . S
C961 H967 0.959 . S
C961 H968 0.961 . S
C961 H969 0.960 . S
C962 C960 1.381 . S
C962 C963 1.394 . S
C962 H970 0.930 . S
C963 C962 1.394 . S
C963 C964 1.383 . S
C963 H971 0.929 . S
C964 C963 1.383 . S
C964 C965 1.377 . S
C965 H949 0.930 . S
C965 C964 1.377 . S
C965 C966 1.379 . S
C966 H950 0.931 . S
C966 C960 1.383 . S
C966 C965 1.379 . S
H967 C961 0.959 . S
H968 C961 0.961 . S
H969 C961 0.960 . S
H970 C962 0.930 . S
H971 C963 0.929 . S
H972 C980 0.929 . S
H973 C982 0.930 . S
H974 C984 0.930 . S
H975 C987 0.929 . S
H976 C990 0.930 . S
H977 C992 0.960 . S
H978 C992 0.960 . S
H979 C992 0.960 . S
C980 H972 0.929 . S
C980 C981 1.377 . S
C980 C982 1.384 . S
C981 C980 1.377 . S
C981 C987 1.390 . S
C982 H973 0.930 . S
C982 C980 1.384 . S
C982 C983 1.372 . S
C983 C982 1.372 . S
C983 C984 1.400 . S
C983 C988 1.490 . S
C984 H974 0.930 . S
C984 C983 1.400 . S
C984 C987 1.386 . S
H985 C1001 0.930 . S
H986 C1002 0.931 . S
C987 H975 0.929 . S
C987 C981 1.390 . S
C987 C984 1.386 . S
C988 C983 1.490 . S
C988 C990 1.395 . S
C988 C991 1.403 . S
H989 C995 0.930 . S
C990 H976 0.930 . S
C990 C988 1.395 . S
C990 C993 1.403 . S
C991 C988 1.403 . S
C991 C992 1.524 . S
C991 C995 1.400 . S
C992 H977 0.960 . S
C992 H978 0.960 . S
C992 H979 0.960 . S
C992 C991 1.524 . S
C993 C990 1.403 . S
C993 C994 1.392 . S
C993 C997 1.495 . S
C994 C993 1.392 . S
C994 C995 1.385 . S
C994 C996 1.478 . S
C995 H989 0.930 . S
C995 C991 1.400 . S
C995 C994 1.385 . S
C996 C994 1.478 . S
C996 C998 1.381 . S
C996 C1002 1.383 . S
C997 C993 1.495 . S
C997 H1003 0.959 . S
C997 H1004 0.961 . S
C997 H1005 0.960 . S
C998 C996 1.381 . S
C998 C999 1.394 . S
C998 H1006 0.930 . S
C999 C998 1.394 . S
C999 C1000 1.383 . S
C999 H1007 0.929 . S
C1000 C999 1.383 . S
C1000 C1001 1.377 . S
C1001 H985 0.930 . S
C1001 C1000 1.377 . S
C1001 C1002 1.379 . S
C1002 H986 0.931 . S
C1002 C996 1.383 . S
C1002 C1001 1.379 . S
H1003 C997 0.959 . S
H1004 C997 0.961 . S
H1005 C997 0.960 . S
H1006 C998 0.930 . S
H1007 C999 0.929 . S
H1008 C1016 0.929 . S
H1009 C1018 0.930 . S
H1010 C1020 0.930 . S
H1011 C1023 0.929 . S
H1012 C1026 0.930 . S
H1013 C1028 0.960 . S
H1014 C1028 0.960 . S
H1015 C1028 0.960 . S
C1016 H1008 0.929 . S
C1016 C1017 1.377 . S
C1016 C1018 1.384 . S
C1017 C1016 1.377 . S
C1017 C1023 1.390 . S
C1018 H1009 0.930 . S
C1018 C1016 1.384 . S
C1018 C1019 1.372 . S
C1019 C1018 1.372 . S
C1019 C1020 1.400 . S
C1019 C1024 1.490 . S
C1020 H1010 0.930 . S
C1020 C1019 1.400 . S
C1020 C1023 1.386 . S
H1021 C1037 0.930 . S
H1022 C1038 0.931 . S
C1023 H1011 0.929 . S
C1023 C1017 1.390 . S
C1023 C1020 1.386 . S
C1024 C1019 1.490 . S
C1024 C1026 1.395 . S
C1024 C1027 1.403 . S
H1025 C1031 0.930 . S
C1026 H1012 0.930 . S
C1026 C1024 1.395 . S
C1026 C1029 1.403 . S
C1027 C1024 1.403 . S
C1027 C1028 1.524 . S
C1027 C1031 1.400 . S
C1028 H1013 0.960 . S
C1028 H1014 0.960 . S
C1028 H1015 0.960 . S
C1028 C1027 1.524 . S
C1029 C1026 1.403 . S
C1029 C1030 1.392 . S
C1029 C1033 1.495 . S
C1030 C1029 1.392 . S
C1030 C1031 1.385 . S
C1030 C1032 1.478 . S
C1031 H1025 0.930 . S
C1031 C1027 1.400 . S
C1031 C1030 1.385 . S
C1032 C1030 1.478 . S
C1032 C1034 1.381 . S
C1032 C1038 1.383 . S
C1033 C1029 1.495 . S
C1033 H1039 0.959 . S
C1033 H1040 0.961 . S
C1033 H1041 0.960 . S
C1034 C1032 1.381 . S
C1034 C1035 1.394 . S
C1034 H1042 0.930 . S
C1035 C1034 1.394 . S
C1035 C1036 1.383 . S
C1035 H1043 0.929 . S
C1036 C1035 1.383 . S
C1036 C1037 1.377 . S
C1037 H1021 0.930 . S
C1037 C1036 1.377 . S
C1037 C1038 1.379 . S
C1038 H1022 0.931 . S
C1038 C1032 1.383 . S
C1038 C1037 1.379 . S
H1039 C1033 0.959 . S
H1040 C1033 0.961 . S
H1041 C1033 0.960 . S
H1042 C1034 0.930 . S
H1043 C1035 0.929 . S
H1044 C1052 0.929 . S
H1045 C1054 0.930 . S
H1046 C1056 0.930 . S
H1047 C1059 0.929 . S
H1048 C1062 0.930 . S
H1049 C1064 0.960 . S
H1050 C1064 0.960 . S
H1051 C1064 0.960 . S
C1052 H1044 0.929 . S
C1052 C1053 1.377 . S
C1052 C1054 1.384 . S
C1053 C1052 1.377 . S
C1053 C1059 1.390 . S
C1054 H1045 0.930 . S
C1054 C1052 1.384 . S
C1054 C1055 1.372 . S
C1055 C1054 1.372 . S
C1055 C1056 1.400 . S
C1055 C1060 1.490 . S
C1056 H1046 0.930 . S
C1056 C1055 1.400 . S
C1056 C1059 1.386 . S
H1057 C1073 0.930 . S
H1058 C1074 0.931 . S
C1059 H1047 0.929 . S
C1059 C1053 1.390 . S
C1059 C1056 1.386 . S
C1060 C1055 1.490 . S
C1060 C1062 1.395 . S
C1060 C1063 1.403 . S
H1061 C1067 0.930 . S
C1062 H1048 0.930 . S
C1062 C1060 1.395 . S
C1062 C1065 1.403 . S
C1063 C1060 1.403 . S
C1063 C1064 1.524 . S
C1063 C1067 1.400 . S
C1064 H1049 0.960 . S
C1064 H1050 0.960 . S
C1064 H1051 0.960 . S
C1064 C1063 1.524 . S
C1065 C1062 1.403 . S
C1065 C1066 1.392 . S
C1065 C1069 1.495 . S
C1066 C1065 1.392 . S
C1066 C1067 1.385 . S
C1066 C1068 1.478 . S
C1067 H1061 0.930 . S
C1067 C1063 1.400 . S
C1067 C1066 1.385 . S
C1068 C1066 1.478 . S
C1068 C1070 1.381 . S
C1068 C1074 1.383 . S
C1069 C1065 1.495 . S
C1069 H1075 0.959 . S
C1069 H1076 0.961 . S
C1069 H1077 0.960 . S
C1070 C1068 1.381 . S
C1070 C1071 1.394 . S
C1070 H1078 0.930 . S
C1071 C1070 1.394 . S
C1071 C1072 1.383 . S
C1071 H1079 0.929 . S
C1072 C1071 1.383 . S
C1072 C1073 1.377 . S
C1073 H1057 0.930 . S
C1073 C1072 1.377 . S
C1073 C1074 1.379 . S
C1074 H1058 0.931 . S
C1074 C1068 1.383 . S
C1074 C1073 1.379 . S
H1075 C1069 0.959 . S
H1076 C1069 0.961 . S
H1077 C1069 0.960 . S
H1078 C1070 0.930 . S
H1079 C1071 0.929 . S
H1080 C1088 0.929 . S
H1081 C1090 0.930 . S
H1082 C1092 0.930 . S
H1083 C1095 0.929 . S
H1084 C1098 0.930 . S
H1085 C1100 0.960 . S
H1086 C1100 0.960 . S
H1087 C1100 0.960 . S
C1088 H1080 0.929 . S
C1088 C1089 1.377 . S
C1088 C1090 1.384 . S
C1089 C1088 1.377 . S
C1089 C1095 1.390 . S
C1090 H1081 0.930 . S
C1090 C1088 1.384 . S
C1090 C1091 1.372 . S
C1091 C1090 1.372 . S
C1091 C1092 1.400 . S
C1091 C1096 1.490 . S
C1092 H1082 0.930 . S
C1092 C1091 1.400 . S
C1092 C1095 1.386 . S
H1093 C1109 0.930 . S
H1094 C1110 0.931 . S
C1095 H1083 0.929 . S
C1095 C1089 1.390 . S
C1095 C1092 1.386 . S
C1096 C1091 1.490 . S
C1096 C1098 1.395 . S
C1096 C1099 1.403 . S
H1097 C1103 0.930 . S
C1098 H1084 0.930 . S
C1098 C1096 1.395 . S
C1098 C1101 1.403 . S
C1099 C1096 1.403 . S
C1099 C1100 1.524 . S
C1099 C1103 1.400 . S
C1100 H1085 0.960 . S
C1100 H1086 0.960 . S
C1100 H1087 0.960 . S
C1100 C1099 1.524 . S
C1101 C1098 1.403 . S
C1101 C1102 1.392 . S
C1101 C1105 1.495 . S
C1102 C1101 1.392 . S
C1102 C1103 1.385 . S
C1102 C1104 1.478 . S
C1103 H1097 0.930 . S
C1103 C1099 1.400 . S
C1103 C1102 1.385 . S
C1104 C1102 1.478 . S
C1104 C1106 1.381 . S
C1104 C1110 1.383 . S
C1105 C1101 1.495 . S
C1105 H1111 0.959 . S
C1105 H1112 0.961 . S
C1105 H1113 0.960 . S
C1106 C1104 1.381 . S
C1106 C1107 1.394 . S
C1106 H1114 0.930 . S
C1107 C1106 1.394 . S
C1107 C1108 1.383 . S
C1107 H1115 0.929 . S
C1108 C1107 1.383 . S
C1108 C1109 1.377 . S
C1109 H1093 0.930 . S
C1109 C1108 1.377 . S
C1109 C1110 1.379 . S
C1110 H1094 0.931 . S
C1110 C1104 1.383 . S
C1110 C1109 1.379 . S
H1111 C1105 0.959 . S
H1112 C1105 0.961 . S
H1113 C1105 0.960 . S
H1114 C1106 0.930 . S
H1115 C1107 0.929 . S
H1116 C1124 0.929 . S
H1117 C1126 0.930 . S
H1118 C1128 0.930 . S
H1119 C1131 0.929 . S
H1120 C1134 0.930 . S
H1121 C1136 0.960 . S
H1122 C1136 0.960 . S
H1123 C1136 0.960 . S
C1124 H1116 0.929 . S
C1124 C1125 1.377 . S
C1124 C1126 1.384 . S
C1125 C1124 1.377 . S
C1125 C1131 1.390 . S
C1126 H1117 0.930 . S
C1126 C1124 1.384 . S
C1126 C1127 1.372 . S
C1127 C1126 1.372 . S
C1127 C1128 1.400 . S
C1127 C1132 1.490 . S
C1128 H1118 0.930 . S
C1128 C1127 1.400 . S
C1128 C1131 1.386 . S
H1129 C1145 0.930 . S
H1130 C1146 0.931 . S
C1131 H1119 0.929 . S
C1131 C1125 1.390 . S
C1131 C1128 1.386 . S
C1132 C1127 1.490 . S
C1132 C1134 1.395 . S
C1132 C1135 1.403 . S
H1133 C1139 0.930 . S
C1134 H1120 0.930 . S
C1134 C1132 1.395 . S
C1134 C1137 1.403 . S
C1135 C1132 1.403 . S
C1135 C1136 1.524 . S
C1135 C1139 1.400 . S
C1136 H1121 0.960 . S
C1136 H1122 0.960 . S
C1136 H1123 0.960 . S
C1136 C1135 1.524 . S
C1137 C1134 1.403 . S
C1137 C1138 1.392 . S
C1137 C1141 1.495 . S
C1138 C1137 1.392 . S
C1138 C1139 1.385 . S
C1138 C1140 1.478 . S
C1139 H1133 0.930 . S
C1139 C1135 1.400 . S
C1139 C1138 1.385 . S
C1140 C1138 1.478 . S
C1140 C1142 1.381 . S
C1140 C1146 1.383 . S
C1141 C1137 1.495 . S
C1141 H1147 0.959 . S
C1141 H1148 0.961 . S
C1141 H1149 0.960 . S
C1142 C1140 1.381 . S
C1142 C1143 1.394 . S
C1142 H1150 0.930 . S
C1143 C1142 1.394 . S
C1143 C1144 1.383 . S
C1143 H1151 0.929 . S
C1144 C1143 1.383 . S
C1144 C1145 1.377 . S
C1145 H1129 0.930 . S
C1145 C1144 1.377 . S
C1145 C1146 1.379 . S
C1146 H1130 0.931 . S
C1146 C1140 1.383 . S
C1146 C1145 1.379 . S
H1147 C1141 0.959 . S
H1148 C1141 0.961 . S
H1149 C1141 0.960 . S
H1150 C1142 0.930 . S
H1151 C1143 0.929 . S
H1152 C1160 0.929 . S
H1153 C1162 0.930 . S
H1154 C1164 0.930 . S
H1155 C1167 0.929 . S
H1156 C1170 0.930 . S
H1157 C1172 0.960 . S
H1158 C1172 0.960 . S
H1159 C1172 0.960 . S
C1160 H1152 0.929 . S
C1160 C1161 1.377 . S
C1160 C1162 1.384 . S
C1161 C1160 1.377 . S
C1161 C1167 1.390 . S
C1162 H1153 0.930 . S
C1162 C1160 1.384 . S
C1162 C1163 1.372 . S
C1163 C1162 1.372 . S
C1163 C1164 1.400 . S
C1163 C1168 1.490 . S
C1164 H1154 0.930 . S
C1164 C1163 1.400 . S
C1164 C1167 1.386 . S
H1165 C1181 0.930 . S
H1166 C1182 0.931 . S
C1167 H1155 0.929 . S
C1167 C1161 1.390 . S
C1167 C1164 1.386 . S
C1168 C1163 1.490 . S
C1168 C1170 1.395 . S
C1168 C1171 1.403 . S
H1169 C1175 0.930 . S
C1170 H1156 0.930 . S
C1170 C1168 1.395 . S
C1170 C1173 1.403 . S
C1171 C1168 1.403 . S
C1171 C1172 1.524 . S
C1171 C1175 1.400 . S
C1172 H1157 0.960 . S
C1172 H1158 0.960 . S
C1172 H1159 0.960 . S
C1172 C1171 1.524 . S
C1173 C1170 1.403 . S
C1173 C1174 1.392 . S
C1173 C1177 1.495 . S
C1174 C1173 1.392 . S
C1174 C1175 1.385 . S
C1174 C1176 1.478 . S
C1175 H1169 0.930 . S
C1175 C1171 1.400 . S
C1175 C1174 1.385 . S
C1176 C1174 1.478 . S
C1176 C1178 1.381 . S
C1176 C1182 1.383 . S
C1177 C1173 1.495 . S
C1177 H1183 0.959 . S
C1177 H1184 0.961 . S
C1177 H1185 0.960 . S
C1178 C1176 1.381 . S
C1178 C1179 1.394 . S
C1178 H1186 0.930 . S
C1179 C1178 1.394 . S
C1179 C1180 1.383 . S
C1179 H1187 0.929 . S
C1180 C1179 1.383 . S
C1180 C1181 1.377 . S
C1181 H1165 0.930 . S
C1181 C1180 1.377 . S
C1181 C1182 1.379 . S
C1182 H1166 0.931 . S
C1182 C1176 1.383 . S
C1182 C1181 1.379 . S
H1183 C1177 0.959 . S
H1184 C1177 0.961 . S
H1185 C1177 0.960 . S
H1186 C1178 0.930 . S
H1187 C1179 0.929 . S
H1188 C1196 0.929 . S
H1189 C1198 0.930 . S
H1190 C1200 0.930 . S
H1191 C1203 0.929 . S
H1192 C1206 0.930 . S
H1193 C1208 0.960 . S
H1194 C1208 0.960 . S
H1195 C1208 0.960 . S
C1196 H1188 0.929 . S
C1196 C1197 1.377 . S
C1196 C1198 1.384 . S
C1197 C1196 1.377 . S
C1197 C1203 1.390 . S
C1198 H1189 0.930 . S
C1198 C1196 1.384 . S
C1198 C1199 1.372 . S
C1199 C1198 1.372 . S
C1199 C1200 1.400 . S
C1199 C1204 1.490 . S
C1200 H1190 0.930 . S
C1200 C1199 1.400 . S
C1200 C1203 1.386 . S
H1201 C1217 0.930 . S
H1202 C1218 0.931 . S
C1203 H1191 0.929 . S
C1203 C1197 1.390 . S
C1203 C1200 1.386 . S
C1204 C1199 1.490 . S
C1204 C1206 1.395 . S
C1204 C1207 1.403 . S
H1205 C1211 0.930 . S
C1206 H1192 0.930 . S
C1206 C1204 1.395 . S
C1206 C1209 1.403 . S
C1207 C1204 1.403 . S
C1207 C1208 1.524 . S
C1207 C1211 1.400 . S
C1208 H1193 0.960 . S
C1208 H1194 0.960 . S
C1208 H1195 0.960 . S
C1208 C1207 1.524 . S
C1209 C1206 1.403 . S
C1209 C1210 1.392 . S
C1209 C1213 1.495 . S
C1210 C1209 1.392 . S
C1210 C1211 1.385 . S
C1210 C1212 1.478 . S
C1211 H1205 0.930 . S
C1211 C1207 1.400 . S
C1211 C1210 1.385 . S
C1212 C1210 1.478 . S
C1212 C1214 1.381 . S
C1212 C1218 1.383 . S
C1213 C1209 1.495 . S
C1213 H1219 0.959 . S
C1213 H1220 0.961 . S
C1213 H1221 0.960 . S
C1214 C1212 1.381 . S
C1214 C1215 1.394 . S
C1214 H1222 0.930 . S
C1215 C1214 1.394 . S
C1215 C1216 1.383 . S
C1215 H1223 0.929 . S
C1216 C1215 1.383 . S
C1216 C1217 1.377 . S
C1217 H1201 0.930 . S
C1217 C1216 1.377 . S
C1217 C1218 1.379 . S
C1218 H1202 0.931 . S
C1218 C1212 1.383 . S
C1218 C1217 1.379 . S
H1219 C1213 0.959 . S
H1220 C1213 0.961 . S
H1221 C1213 0.960 . S
H1222 C1214 0.930 . S
H1223 C1215 0.929 . S
H1224 C1232 0.929 . S
H1225 C1234 0.930 . S
H1226 C1236 0.930 . S
H1227 C1239 0.929 . S
H1228 C1242 0.930 . S
H1229 C1244 0.960 . S
H1230 C1244 0.960 . S
H1231 C1244 0.960 . S
C1232 H1224 0.929 . S
C1232 C1233 1.377 . S
C1232 C1234 1.384 . S
C1233 C1232 1.377 . S
C1233 C1239 1.390 . S
C1234 H1225 0.930 . S
C1234 C1232 1.384 . S
C1234 C1235 1.372 . S
C1235 C1234 1.372 . S
C1235 C1236 1.400 . S
C1235 C1240 1.490 . S
C1236 H1226 0.930 . S
C1236 C1235 1.400 . S
C1236 C1239 1.386 . S
H1237 C1253 0.930 . S
H1238 C1254 0.931 . S
C1239 H1227 0.929 . S
C1239 C1233 1.390 . S
C1239 C1236 1.386 . S
C1240 C1235 1.490 . S
C1240 C1242 1.395 . S
C1240 C1243 1.403 . S
H1241 C1247 0.930 . S
C1242 H1228 0.930 . S
C1242 C1240 1.395 . S
C1242 C1245 1.403 . S
C1243 C1240 1.403 . S
C1243 C1244 1.524 . S
C1243 C1247 1.400 . S
C1244 H1229 0.960 . S
C1244 H1230 0.960 . S
C1244 H1231 0.960 . S
C1244 C1243 1.524 . S
C1245 C1242 1.403 . S
C1245 C1246 1.392 . S
C1245 C1249 1.495 . S
C1246 C1245 1.392 . S
C1246 C1247 1.385 . S
C1246 C1248 1.478 . S
C1247 H1241 0.930 . S
C1247 C1243 1.400 . S
C1247 C1246 1.385 . S
C1248 C1246 1.478 . S
C1248 C1250 1.381 . S
C1248 C1254 1.383 . S
C1249 C1245 1.495 . S
C1249 H1255 0.959 . S
C1249 H1256 0.961 . S
C1249 H1257 0.960 . S
C1250 C1248 1.381 . S
C1250 C1251 1.394 . S
C1250 H1258 0.930 . S
C1251 C1250 1.394 . S
C1251 C1252 1.383 . S
C1251 H1259 0.929 . S
C1252 C1251 1.383 . S
C1252 C1253 1.377 . S
C1253 H1237 0.930 . S
C1253 C1252 1.377 . S
C1253 C1254 1.379 . S
C1254 H1238 0.931 . S
C1254 C1248 1.383 . S
C1254 C1253 1.379 . S
H1255 C1249 0.959 . S
H1256 C1249 0.961 . S
H1257 C1249 0.960 . S
H1258 C1250 0.930 . S
H1259 C1251 0.929 . S
H1260 C1268 0.929 . S
H1261 C1270 0.930 . S
H1262 C1272 0.930 . S
H1263 C1275 0.929 . S
H1264 C1278 0.930 . S
H1265 C1280 0.960 . S
H1266 C1280 0.960 . S
H1267 C1280 0.960 . S
C1268 H1260 0.929 . S
C1268 C1269 1.377 . S
C1268 C1270 1.384 . S
C1269 C1268 1.377 . S
C1269 C1275 1.390 . S
C1270 H1261 0.930 . S
C1270 C1268 1.384 . S
C1270 C1271 1.372 . S
C1271 C1270 1.372 . S
C1271 C1272 1.400 . S
C1271 C1276 1.490 . S
C1272 H1262 0.930 . S
C1272 C1271 1.400 . S
C1272 C1275 1.386 . S
H1273 C1289 0.930 . S
H1274 C1290 0.931 . S
C1275 H1263 0.929 . S
C1275 C1269 1.390 . S
C1275 C1272 1.386 . S
C1276 C1271 1.490 . S
C1276 C1278 1.395 . S
C1276 C1279 1.403 . S
H1277 C1283 0.930 . S
C1278 H1264 0.930 . S
C1278 C1276 1.395 . S
C1278 C1281 1.403 . S
C1279 C1276 1.403 . S
C1279 C1280 1.524 . S
C1279 C1283 1.400 . S
C1280 H1265 0.960 . S
C1280 H1266 0.960 . S
C1280 H1267 0.960 . S
C1280 C1279 1.524 . S
C1281 C1278 1.403 . S
C1281 C1282 1.392 . S
C1281 C1285 1.495 . S
C1282 C1281 1.392 . S
C1282 C1283 1.385 . S
C1282 C1284 1.478 . S
C1283 H1277 0.930 . S
C1283 C1279 1.400 . S
C1283 C1282 1.385 . S
C1284 C1282 1.478 . S
C1284 C1286 1.381 . S
C1284 C1290 1.383 . S
C1285 C1281 1.495 . S
C1285 H1291 0.959 . S
C1285 H1292 0.961 . S
C1285 H1293 0.960 . S
C1286 C1284 1.381 . S
C1286 C1287 1.394 . S
C1286 H1294 0.930 . S
C1287 C1286 1.394 . S
C1287 C1288 1.383 . S
C1287 H1295 0.929 . S
C1288 C1287 1.383 . S
C1288 C1289 1.377 . S
C1289 H1273 0.930 . S
C1289 C1288 1.377 . S
C1289 C1290 1.379 . S
C1290 H1274 0.931 . S
C1290 C1284 1.383 . S
C1290 C1289 1.379 . S
H1291 C1285 0.959 . S
H1292 C1285 0.961 . S
H1293 C1285 0.960 . S
H1294 C1286 0.930 . S
H1295 C1287 0.929 . S
H1296 C1304 0.929 . S
H1297 C1306 0.930 . S
H1298 C1308 0.930 . S
H1299 C1311 0.929 . S
H1300 C1314 0.930 . S
H1301 C1316 0.960 . S
H1302 C1316 0.960 . S
H1303 C1316 0.960 . S
C1304 H1296 0.929 . S
C1304 C1305 1.377 . S
C1304 C1306 1.384 . S
C1305 C1304 1.377 . S
C1305 C1311 1.390 . S
C1306 H1297 0.930 . S
C1306 C1304 1.384 . S
C1306 C1307 1.372 . S
C1307 C1306 1.372 . S
C1307 C1308 1.400 . S
C1307 C1312 1.490 . S
C1308 H1298 0.930 . S
C1308 C1307 1.400 . S
C1308 C1311 1.386 . S
H1309 C1325 0.930 . S
H1310 C1326 0.931 . S
C1311 H1299 0.929 . S
C1311 C1305 1.390 . S
C1311 C1308 1.386 . S
C1312 C1307 1.490 . S
C1312 C1314 1.395 . S
C1312 C1315 1.403 . S
H1313 C1319 0.930 . S
C1314 H1300 0.930 . S
C1314 C1312 1.395 . S
C1314 C1317 1.403 . S
C1315 C1312 1.403 . S
C1315 C1316 1.524 . S
C1315 C1319 1.400 . S
C1316 H1301 0.960 . S
C1316 H1302 0.960 . S
C1316 H1303 0.960 . S
C1316 C1315 1.524 . S
C1317 C1314 1.403 . S
C1317 C1318 1.392 . S
C1317 C1321 1.495 . S
C1318 C1317 1.392 . S
C1318 C1319 1.385 . S
C1318 C1320 1.478 . S
C1319 H1313 0.930 . S
C1319 C1315 1.400 . S
C1319 C1318 1.385 . S
C1320 C1318 1.478 . S
C1320 C1322 1.381 . S
C1320 C1326 1.383 . S
C1321 C1317 1.495 . S
C1321 H1327 0.959 . S
C1321 H1328 0.961 . S
C1321 H1329 0.960 . S
C1322 C1320 1.381 . S
C1322 C1323 1.394 . S
C1322 H1330 0.930 . S
C1323 C1322 1.394 . S
C1323 C1324 1.383 . S
C1323 H1331 0.929 . S
C1324 C1323 1.383 . S
C1324 C1325 1.377 . S
C1325 H1309 0.930 . S
C1325 C1324 1.377 . S
C1325 C1326 1.379 . S
C1326 H1310 0.931 . S
C1326 C1320 1.383 . S
C1326 C1325 1.379 . S
H1327 C1321 0.959 . S
H1328 C1321 0.961 . S
H1329 C1321 0.960 . S
H1330 C1322 0.930 . S
H1331 C1323 0.929 . S
H1332 C1340 0.929 . S
H1333 C1342 0.930 . S
H1334 C1344 0.930 . S
H1335 C1347 0.929 . S
H1336 C1350 0.930 . S
H1337 C1352 0.960 . S
H1338 C1352 0.960 . S
H1339 C1352 0.960 . S
C1340 H1332 0.929 . S
C1340 C1341 1.377 . S
C1340 C1342 1.384 . S
C1341 C1340 1.377 . S
C1341 C1347 1.390 . S
C1342 H1333 0.930 . S
C1342 C1340 1.384 . S
C1342 C1343 1.372 . S
C1343 C1342 1.372 . S
C1343 C1344 1.400 . S
C1343 C1348 1.490 . S
C1344 H1334 0.930 . S
C1344 C1343 1.400 . S
C1344 C1347 1.386 . S
H1345 C1361 0.930 . S
H1346 C1362 0.931 . S
C1347 H1335 0.929 . S
C1347 C1341 1.390 . S
C1347 C1344 1.386 . S
C1348 C1343 1.490 . S
C1348 C1350 1.395 . S
C1348 C1351 1.403 . S
H1349 C1355 0.930 . S
C1350 H1336 0.930 . S
C1350 C1348 1.395 . S
C1350 C1353 1.403 . S
C1351 C1348 1.403 . S
C1351 C1352 1.524 . S
C1351 C1355 1.400 . S
C1352 H1337 0.960 . S
C1352 H1338 0.960 . S
C1352 H1339 0.960 . S
C1352 C1351 1.524 . S
C1353 C1350 1.403 . S
C1353 C1354 1.392 . S
C1353 C1357 1.495 . S
C1354 C1353 1.392 . S
C1354 C1355 1.385 . S
C1354 C1356 1.478 . S
C1355 H1349 0.930 . S
C1355 C1351 1.400 . S
C1355 C1354 1.385 . S
C1356 C1354 1.478 . S
C1356 C1358 1.381 . S
C1356 C1362 1.383 . S
C1357 C1353 1.495 . S
C1357 H1363 0.959 . S
C1357 H1364 0.961 . S
C1357 H1365 0.960 . S
C1358 C1356 1.381 . S
C1358 C1359 1.394 . S
C1358 H1366 0.930 . S
C1359 C1358 1.394 . S
C1359 C1360 1.383 . S
C1359 H1367 0.929 . S
C1360 C1359 1.383 . S
C1360 C1361 1.377 . S
C1361 H1345 0.930 . S
C1361 C1360 1.377 . S
C1361 C1362 1.379 . S
C1362 H1346 0.931 . S
C1362 C1356 1.383 . S
C1362 C1361 1.379 . S
H1363 C1357 0.959 . S
H1364 C1357 0.961 . S
H1365 C1357 0.960 . S
H1366 C1358 0.930 . S
H1367 C1359 0.929 . S
H1368 C1376 0.929 . S
H1369 C1378 0.930 . S
H1370 C1380 0.930 . S
H1371 C1383 0.929 . S
H1372 C1386 0.930 . S
H1373 C1388 0.960 . S
H1374 C1388 0.960 . S
H1375 C1388 0.960 . S
C1376 H1368 0.929 . S
C1376 C1377 1.377 . S
C1376 C1378 1.384 . S
C1377 C1376 1.377 . S
C1377 C1383 1.390 . S
C1378 H1369 0.930 . S
C1378 C1376 1.384 . S
C1378 C1379 1.372 . S
C1379 C1378 1.372 . S
C1379 C1380 1.400 . S
C1379 C1384 1.490 . S
C1380 H1370 0.930 . S
C1380 C1379 1.400 . S
C1380 C1383 1.386 . S
H1381 C1397 0.930 . S
H1382 C1398 0.931 . S
C1383 H1371 0.929 . S
C1383 C1377 1.390 . S
C1383 C1380 1.386 . S
C1384 C1379 1.490 . S
C1384 C1386 1.395 . S
C1384 C1387 1.403 . S
H1385 C1391 0.930 . S
C1386 H1372 0.930 . S
C1386 C1384 1.395 . S
C1386 C1389 1.403 . S
C1387 C1384 1.403 . S
C1387 C1388 1.524 . S
C1387 C1391 1.400 . S
C1388 H1373 0.960 . S
C1388 H1374 0.960 . S
C1388 H1375 0.960 . S
C1388 C1387 1.524 . S
C1389 C1386 1.403 . S
C1389 C1390 1.392 . S
C1389 C1393 1.495 . S
C1390 C1389 1.392 . S
C1390 C1391 1.385 . S
C1390 C1392 1.478 . S
C1391 H1385 0.930 . S
C1391 C1387 1.400 . S
C1391 C1390 1.385 . S
C1392 C1390 1.478 . S
C1392 C1394 1.381 . S
C1392 C1398 1.383 . S
C1393 C1389 1.495 . S
C1393 H1399 0.959 . S
C1393 H1400 0.961 . S
C1393 H1401 0.960 . S
C1394 C1392 1.381 . S
C1394 C1395 1.394 . S
C1394 H1402 0.930 . S
C1395 C1394 1.394 . S
C1395 C1396 1.383 . S
C1395 H1403 0.929 . S
C1396 C1395 1.383 . S
C1396 C1397 1.377 . S
C1397 H1381 0.930 . S
C1397 C1396 1.377 . S
C1397 C1398 1.379 . S
C1398 H1382 0.931 . S
C1398 C1392 1.383 . S
C1398 C1397 1.379 . S
H1399 C1393 0.959 . S
H1400 C1393 0.961 . S
H1401 C1393 0.960 . S
H1402 C1394 0.930 . S
H1403 C1395 0.929 . S
H1404 C1412 0.929 . S
H1405 C1414 0.930 . S
H1406 C1416 0.930 . S
H1407 C1419 0.929 . S
H1408 C1422 0.930 . S
H1409 C1424 0.960 . S
H1410 C1424 0.960 . S
H1411 C1424 0.960 . S
C1412 H1404 0.929 . S
C1412 C1413 1.377 . S
C1412 C1414 1.384 . S
C1413 C1412 1.377 . S
C1413 C1419 1.390 . S
C1414 H1405 0.930 . S
C1414 C1412 1.384 . S
C1414 C1415 1.372 . S
C1415 C1414 1.372 . S
C1415 C1416 1.400 . S
C1415 C1420 1.490 . S
C1416 H1406 0.930 . S
C1416 C1415 1.400 . S
C1416 C1419 1.386 . S
H1417 C1433 0.930 . S
H1418 C1434 0.931 . S
C1419 H1407 0.929 . S
C1419 C1413 1.390 . S
C1419 C1416 1.386 . S
C1420 C1415 1.490 . S
C1420 C1422 1.395 . S
C1420 C1423 1.403 . S
H1421 C1427 0.930 . S
C1422 H1408 0.930 . S
C1422 C1420 1.395 . S
C1422 C1425 1.403 . S
C1423 C1420 1.403 . S
C1423 C1424 1.524 . S
C1423 C1427 1.400 . S
C1424 H1409 0.960 . S
C1424 H1410 0.960 . S
C1424 H1411 0.960 . S
C1424 C1423 1.524 . S
C1425 C1422 1.403 . S
C1425 C1426 1.392 . S
C1425 C1429 1.495 . S
C1426 C1425 1.392 . S
C1426 C1427 1.385 . S
C1426 C1428 1.478 . S
C1427 H1421 0.930 . S
C1427 C1423 1.400 . S
C1427 C1426 1.385 . S
C1428 C1426 1.478 . S
C1428 C1430 1.381 . S
C1428 C1434 1.383 . S
C1429 C1425 1.495 . S
C1429 H1435 0.959 . S
C1429 H1436 0.961 . S
C1429 H1437 0.960 . S
C1430 C1428 1.381 . S
C1430 C1431 1.394 . S
C1430 H1438 0.930 . S
C1431 C1430 1.394 . S
C1431 C1432 1.383 . S
C1431 H1439 0.929 . S
C1432 C1431 1.383 . S
C1432 C1433 1.377 . S
C1433 H1417 0.930 . S
C1433 C1432 1.377 . S
C1433 C1434 1.379 . S
C1434 H1418 0.931 . S
C1434 C1428 1.383 . S
C1434 C1433 1.379 . S
H1435 C1429 0.959 . S
H1436 C1429 0.961 . S
H1437 C1429 0.960 . S
H1438 C1430 0.930 . S
H1439 C1431 0.929 . S
H1440 C1448 0.929 . S
H1441 C1450 0.930 . S
H1442 C1452 0.930 . S
H1443 C1455 0.929 . S
H1444 C1458 0.930 . S
H1445 C1460 0.960 . S
H1446 C1460 0.960 . S
H1447 C1460 0.960 . S
C1448 H1440 0.929 . S
C1448 C1449 1.377 . S
C1448 C1450 1.384 . S
C1449 C1448 1.377 . S
C1449 C1455 1.390 . S
C1450 H1441 0.930 . S
C1450 C1448 1.384 . S
C1450 C1451 1.372 . S
C1451 C1450 1.372 . S
C1451 C1452 1.400 . S
C1451 C1456 1.490 . S
C1452 H1442 0.930 . S
C1452 C1451 1.400 . S
C1452 C1455 1.386 . S
H1453 C1469 0.930 . S
H1454 C1470 0.931 . S
C1455 H1443 0.929 . S
C1455 C1449 1.390 . S
C1455 C1452 1.386 . S
C1456 C1451 1.490 . S
C1456 C1458 1.395 . S
C1456 C1459 1.403 . S
H1457 C1463 0.930 . S
C1458 H1444 0.930 . S
C1458 C1456 1.395 . S
C1458 C1461 1.403 . S
C1459 C1456 1.403 . S
C1459 C1460 1.524 . S
C1459 C1463 1.400 . S
C1460 H1445 0.960 . S
C1460 H1446 0.960 . S
C1460 H1447 0.960 . S
C1460 C1459 1.524 . S
C1461 C1458 1.403 . S
C1461 C1462 1.392 . S
C1461 C1465 1.495 . S
C1462 C1461 1.392 . S
C1462 C1463 1.385 . S
C1462 C1464 1.478 . S
C1463 H1457 0.930 . S
C1463 C1459 1.400 . S
C1463 C1462 1.385 . S
C1464 C1462 1.478 . S
C1464 C1466 1.381 . S
C1464 C1470 1.383 . S
C1465 C1461 1.495 . S
C1465 H1471 0.959 . S
C1465 H1472 0.961 . S
C1465 H1473 0.960 . S
C1466 C1464 1.381 . S
C1466 C1467 1.394 . S
C1466 H1474 0.930 . S
C1467 C1466 1.394 . S
C1467 C1468 1.383 . S
C1467 H1475 0.929 . S
C1468 C1467 1.383 . S
C1468 C1469 1.377 . S
C1469 H1453 0.930 . S
C1469 C1468 1.377 . S
C1469 C1470 1.379 . S
C1470 H1454 0.931 . S
C1470 C1464 1.383 . S
C1470 C1469 1.379 . S
H1471 C1465 0.959 . S
H1472 C1465 0.961 . S
H1473 C1465 0.960 . S
H1474 C1466 0.930 . S
H1475 C1467 0.929 . S
H1476 C1484 0.929 . S
H1477 C1486 0.930 . S
H1478 C1488 0.930 . S
H1479 C1491 0.929 . S
H1480 C1494 0.930 . S
H1481 C1496 0.960 . S
H1482 C1496 0.960 . S
H1483 C1496 0.960 . S
C1484 H1476 0.929 . S
C1484 C1485 1.377 . S
C1484 C1486 1.384 . S
C1485 C1484 1.377 . S
C1485 C1491 1.390 . S
C1486 H1477 0.930 . S
C1486 C1484 1.384 . S
C1486 C1487 1.372 . S
C1487 C1486 1.372 . S
C1487 C1488 1.400 . S
C1487 C1492 1.490 . S
C1488 H1478 0.930 . S
C1488 C1487 1.400 . S
C1488 C1491 1.386 . S
H1489 C1505 0.930 . S
H1490 C1506 0.931 . S
C1491 H1479 0.929 . S
C1491 C1485 1.390 . S
C1491 C1488 1.386 . S
C1492 C1487 1.490 . S
C1492 C1494 1.395 . S
C1492 C1495 1.403 . S
H1493 C1499 0.930 . S
C1494 H1480 0.930 . S
C1494 C1492 1.395 . S
C1494 C1497 1.403 . S
C1495 C1492 1.403 . S
C1495 C1496 1.524 . S
C1495 C1499 1.400 . S
C1496 H1481 0.960 . S
C1496 H1482 0.960 . S
C1496 H1483 0.960 . S
C1496 C1495 1.524 . S
C1497 C1494 1.403 . S
C1497 C1498 1.392 . S
C1497 C1501 1.495 . S
C1498 C1497 1.392 . S
C1498 C1499 1.385 . S
C1498 C1500 1.478 . S
C1499 H1493 0.930 . S
C1499 C1495 1.400 . S
C1499 C1498 1.385 . S
C1500 C1498 1.478 . S
C1500 C1502 1.381 . S
C1500 C1506 1.383 . S
C1501 C1497 1.495 . S
C1501 H1507 0.959 . S
C1501 H1508 0.961 . S
C1501 H1509 0.960 . S
C1502 C1500 1.381 . S
C1502 C1503 1.394 . S
C1502 H1510 0.930 . S
C1503 C1502 1.394 . S
C1503 C1504 1.383 . S
C1503 H1511 0.929 . S
C1504 C1503 1.383 . S
C1504 C1505 1.377 . S
C1505 H1489 0.930 . S
C1505 C1504 1.377 . S
C1505 C1506 1.379 . S
C1506 H1490 0.931 . S
C1506 C1500 1.383 . S
C1506 C1505 1.379 . S
H1507 C1501 0.959 . S
H1508 C1501 0.961 . S
H1509 C1501 0.960 . S
H1510 C1502 0.930 . S
H1511 C1503 0.929 . S
H1512 C1520 0.929 . S
H1513 C1522 0.930 . S
H1514 C1524 0.930 . S
H1515 C1527 0.929 . S
H1516 C1530 0.930 . S
H1517 C1532 0.960 . S
H1518 C1532 0.960 . S
H1519 C1532 0.960 . S
C1520 H1512 0.929 . S
C1520 C1521 1.377 . S
C1520 C1522 1.384 . S
C1521 C1520 1.377 . S
C1521 C1527 1.390 . S
C1522 H1513 0.930 . S
C1522 C1520 1.384 . S
C1522 C1523 1.372 . S
C1523 C1522 1.372 . S
C1523 C1524 1.400 . S
C1523 C1528 1.490 . S
C1524 H1514 0.930 . S
C1524 C1523 1.400 . S
C1524 C1527 1.386 . S
H1525 C1541 0.930 . S
H1526 C1542 0.931 . S
C1527 H1515 0.929 . S
C1527 C1521 1.390 . S
C1527 C1524 1.386 . S
C1528 C1523 1.490 . S
C1528 C1530 1.395 . S
C1528 C1531 1.403 . S
H1529 C1535 0.930 . S
C1530 H1516 0.930 . S
C1530 C1528 1.395 . S
C1530 C1533 1.403 . S
C1531 C1528 1.403 . S
C1531 C1532 1.524 . S
C1531 C1535 1.400 . S
C1532 H1517 0.960 . S
C1532 H1518 0.960 . S
C1532 H1519 0.960 . S
C1532 C1531 1.524 . S
C1533 C1530 1.403 . S
C1533 C1534 1.392 . S
C1533 C1537 1.495 . S
C1534 C1533 1.392 . S
C1534 C1535 1.385 . S
C1534 C1536 1.478 . S
C1535 H1529 0.930 . S
C1535 C1531 1.400 . S
C1535 C1534 1.385 . S
C1536 C1534 1.478 . S
C1536 C1538 1.381 . S
C1536 C1542 1.383 . S
C1537 C1533 1.495 . S
C1537 H1543 0.959 . S
C1537 H1544 0.961 . S
C1537 H1545 0.960 . S
C1538 C1536 1.381 . S
C1538 C1539 1.394 . S
C1538 H1546 0.930 . S
C1539 C1538 1.394 . S
C1539 C1540 1.383 . S
C1539 H1547 0.929 . S
C1540 C1539 1.383 . S
C1540 C1541 1.377 . S
C1541 H1525 0.930 . S
C1541 C1540 1.377 . S
C1541 C1542 1.379 . S
C1542 H1526 0.931 . S
C1542 C1536 1.383 . S
C1542 C1541 1.379 . S
H1543 C1537 0.959 . S
H1544 C1537 0.961 . S
H1545 C1537 0.960 . S
H1546 C1538 0.930 . S
H1547 C1539 0.929 . S
H1548 C1556 0.929 . S
H1549 C1558 0.930 . S
H1550 C1560 0.930 . S
H1551 C1563 0.929 . S
H1552 C1566 0.930 . S
H1553 C1568 0.960 . S
H1554 C1568 0.960 . S
H1555 C1568 0.960 . S
C1556 H1548 0.929 . S
C1556 C1557 1.377 . S
C1556 C1558 1.384 . S
C1557 C1556 1.377 . S
C1557 C1563 1.390 . S
C1558 H1549 0.930 . S
C1558 C1556 1.384 . S
C1558 C1559 1.372 . S
C1559 C1558 1.372 . S
C1559 C1560 1.400 . S
C1559 C1564 1.490 . S
C1560 H1550 0.930 . S
C1560 C1559 1.400 . S
C1560 C1563 1.386 . S
H1561 C1577 0.930 . S
H1562 C1578 0.931 . S
C1563 H1551 0.929 . S
C1563 C1557 1.390 . S
C1563 C1560 1.386 . S
C1564 C1559 1.490 . S
C1564 C1566 1.395 . S
C1564 C1567 1.403 . S
H1565 C1571 0.930 . S
C1566 H1552 0.930 . S
C1566 C1564 1.395 . S
C1566 C1569 1.403 . S
C1567 C1564 1.403 . S
C1567 C1568 1.524 . S
C1567 C1571 1.400 . S
C1568 H1553 0.960 . S
C1568 H1554 0.960 . S
C1568 H1555 0.960 . S
C1568 C1567 1.524 . S
C1569 C1566 1.403 . S
C1569 C1570 1.392 . S
C1569 C1573 1.495 . S
C1570 C1569 1.392 . S
C1570 C1571 1.385 . S
C1570 C1572 1.478 . S
C1571 H1565 0.930 . S
C1571 C1567 1.400 . S
C1571 C1570 1.385 . S
C1572 C1570 1.478 . S
C1572 C1574 1.381 . S
C1572 C1578 1.383 . S
C1573 C1569 1.495 . S
C1573 H1579 0.959 . S
C1573 H1580 0.961 . S
C1573 H1581 0.960 . S
C1574 C1572 1.381 . S
C1574 C1575 1.394 . S
C1574 H1582 0.930 . S
C1575 C1574 1.394 . S
C1575 C1576 1.383 . S
C1575 H1583 0.929 . S
C1576 C1575 1.383 . S
C1576 C1577 1.377 . S
C1577 H1561 0.930 . S
C1577 C1576 1.377 . S
C1577 C1578 1.379 . S
C1578 H1562 0.931 . S
C1578 C1572 1.383 . S
C1578 C1577 1.379 . S
H1579 C1573 0.959 . S
H1580 C1573 0.961 . S
H1581 C1573 0.960 . S
H1582 C1574 0.930 . S
H1583 C1575 0.929 . S
H1584 C1592 0.929 . S
H1585 C1594 0.930 . S
H1586 C1596 0.930 . S
H1587 C1599 0.929 . S
H1588 C1602 0.930 . S
H1589 C1604 0.960 . S
H1590 C1604 0.960 . S
H1591 C1604 0.960 . S
C1592 H1584 0.929 . S
C1592 C1593 1.377 . S
C1592 C1594 1.384 . S
C1593 C1592 1.377 . S
C1593 C1599 1.390 . S
C1594 H1585 0.930 . S
C1594 C1592 1.384 . S
C1594 C1595 1.372 . S
C1595 C1594 1.372 . S
C1595 C1596 1.400 . S
C1595 C1600 1.490 . S
C1596 H1586 0.930 . S
C1596 C1595 1.400 . S
C1596 C1599 1.386 . S
H1597 C1613 0.930 . S
H1598 C1614 0.931 . S
C1599 H1587 0.929 . S
C1599 C1593 1.390 . S
C1599 C1596 1.386 . S
C1600 C1595 1.490 . S
C1600 C1602 1.395 . S
C1600 C1603 1.403 . S
H1601 C1607 0.930 . S
C1602 H1588 0.930 . S
C1602 C1600 1.395 . S
C1602 C1605 1.403 . S
C1603 C1600 1.403 . S
C1603 C1604 1.524 . S
C1603 C1607 1.400 . S
C1604 H1589 0.960 . S
C1604 H1590 0.960 . S
C1604 H1591 0.960 . S
C1604 C1603 1.524 . S
C1605 C1602 1.403 . S
C1605 C1606 1.392 . S
C1605 C1609 1.495 . S
C1606 C1605 1.392 . S
C1606 C1607 1.385 . S
C1606 C1608 1.478 . S
C1607 H1601 0.930 . S
C1607 C1603 1.400 . S
C1607 C1606 1.385 . S
C1608 C1606 1.478 . S
C1608 C1610 1.381 . S
C1608 C1614 1.383 . S
C1609 C1605 1.495 . S
C1609 H1615 0.959 . S
C1609 H1616 0.961 . S
C1609 H1617 0.960 . S
C1610 C1608 1.381 . S
C1610 C1611 1.394 . S
C1610 H1618 0.930 . S
C1611 C1610 1.394 . S
C1611 C1612 1.383 . S
C1611 H1619 0.929 . S
C1612 C1611 1.383 . S
C1612 C1613 1.377 . S
C1613 H1597 0.930 . S
C1613 C1612 1.377 . S
C1613 C1614 1.379 . S
C1614 H1598 0.931 . S
C1614 C1608 1.383 . S
C1614 C1613 1.379 . S
H1615 C1609 0.959 . S
H1616 C1609 0.961 . S
H1617 C1609 0.960 . S
H1618 C1610 0.930 . S
H1619 C1611 0.929 . S
H1620 C1628 0.929 . S
H1621 C1630 0.930 . S
H1622 C1632 0.930 . S
H1623 C1635 0.929 . S
H1624 C1638 0.930 . S
H1625 C1640 0.960 . S
H1626 C1640 0.960 . S
H1627 C1640 0.960 . S
C1628 H1620 0.929 . S
C1628 C1629 1.377 . S
C1628 C1630 1.384 . S
C1629 C1628 1.377 . S
C1629 C1635 1.390 . S
C1630 H1621 0.930 . S
C1630 C1628 1.384 . S
C1630 C1631 1.372 . S
C1631 C1630 1.372 . S
C1631 C1632 1.400 . S
C1631 C1636 1.490 . S
C1632 H1622 0.930 . S
C1632 C1631 1.400 . S
C1632 C1635 1.386 . S
H1633 C1649 0.930 . S
H1634 C1650 0.931 . S
C1635 H1623 0.929 . S
C1635 C1629 1.390 . S
C1635 C1632 1.386 . S
C1636 C1631 1.490 . S
C1636 C1638 1.395 . S
C1636 C1639 1.403 . S
H1637 C1643 0.930 . S
C1638 H1624 0.930 . S
C1638 C1636 1.395 . S
C1638 C1641 1.403 . S
C1639 C1636 1.403 . S
C1639 C1640 1.524 . S
C1639 C1643 1.400 . S
C1640 H1625 0.960 . S
C1640 H1626 0.960 . S
C1640 H1627 0.960 . S
C1640 C1639 1.524 . S
C1641 C1638 1.403 . S
C1641 C1642 1.392 . S
C1641 C1645 1.495 . S
C1642 C1641 1.392 . S
C1642 C1643 1.385 . S
C1642 C1644 1.478 . S
C1643 H1637 0.930 . S
C1643 C1639 1.400 . S
C1643 C1642 1.385 . S
C1644 C1642 1.478 . S
C1644 C1646 1.381 . S
C1644 C1650 1.383 . S
C1645 C1641 1.495 . S
C1645 H1651 0.959 . S
C1645 H1652 0.961 . S
C1645 H1653 0.960 . S
C1646 C1644 1.381 . S
C1646 C1647 1.394 . S
C1646 H1654 0.930 . S
C1647 C1646 1.394 . S
C1647 C1648 1.383 . S
C1647 H1655 0.929 . S
C1648 C1647 1.383 . S
C1648 C1649 1.377 . S
C1649 H1633 0.930 . S
C1649 C1648 1.377 . S
C1649 C1650 1.379 . S
C1650 H1634 0.931 . S
C1650 C1644 1.383 . S
C1650 C1649 1.379 . S
H1651 C1645 0.959 . S
H1652 C1645 0.961 . S
H1653 C1645 0.960 . S
H1654 C1646 0.930 . S
H1655 C1647 0.929 . S
H1656 C1664 0.929 . S
H1657 C1666 0.930 . S
H1658 C1668 0.930 . S
H1659 C1671 0.929 . S
H1660 C1674 0.930 . S
H1661 C1676 0.960 . S
H1662 C1676 0.960 . S
H1663 C1676 0.960 . S
C1664 H1656 0.929 . S
C1664 C1665 1.377 . S
C1664 C1666 1.384 . S
C1665 C1664 1.377 . S
C1665 C1671 1.390 . S
C1666 H1657 0.930 . S
C1666 C1664 1.384 . S
C1666 C1667 1.372 . S
C1667 C1666 1.372 . S
C1667 C1668 1.400 . S
C1667 C1672 1.490 . S
C1668 H1658 0.930 . S
C1668 C1667 1.400 . S
C1668 C1671 1.386 . S
H1669 C1685 0.930 . S
H1670 C1686 0.931 . S
C1671 H1659 0.929 . S
C1671 C1665 1.390 . S
C1671 C1668 1.386 . S
C1672 C1667 1.490 . S
C1672 C1674 1.395 . S
C1672 C1675 1.403 . S
H1673 C1679 0.930 . S
C1674 H1660 0.930 . S
C1674 C1672 1.395 . S
C1674 C1677 1.403 . S
C1675 C1672 1.403 . S
C1675 C1676 1.524 . S
C1675 C1679 1.400 . S
C1676 H1661 0.960 . S
C1676 H1662 0.960 . S
C1676 H1663 0.960 . S
C1676 C1675 1.524 . S
C1677 C1674 1.403 . S
C1677 C1678 1.392 . S
C1677 C1681 1.495 . S
C1678 C1677 1.392 . S
C1678 C1679 1.385 . S
C1678 C1680 1.478 . S
C1679 H1673 0.930 . S
C1679 C1675 1.400 . S
C1679 C1678 1.385 . S
C1680 C1678 1.478 . S
C1680 C1682 1.381 . S
C1680 C1686 1.383 . S
C1681 C1677 1.495 . S
C1681 H1687 0.959 . S
C1681 H1688 0.961 . S
C1681 H1689 0.960 . S
C1682 C1680 1.381 . S
C1682 C1683 1.394 . S
C1682 H1690 0.930 . S
C1683 C1682 1.394 . S
C1683 C1684 1.383 . S
C1683 H1691 0.929 . S
C1684 C1683 1.383 . S
C1684 C1685 1.377 . S
C1685 H1669 0.930 . S
C1685 C1684 1.377 . S
C1685 C1686 1.379 . S
C1686 H1670 0.931 . S
C1686 C1680 1.383 . S
C1686 C1685 1.379 . S
H1687 C1681 0.959 . S
H1688 C1681 0.961 . S
H1689 C1681 0.960 . S
H1690 C1682 0.930 . S
H1691 C1683 0.929 . S
H1692 C1700 0.929 . S
H1693 C1702 0.930 . S
H1694 C1704 0.930 . S
H1695 C1707 0.929 . S
H1696 C1710 0.930 . S
H1697 C1712 0.960 . S
H1698 C1712 0.960 . S
H1699 C1712 0.960 . S
C1700 H1692 0.929 . S
C1700 C1701 1.377 . S
C1700 C1702 1.384 . S
C1701 C1700 1.377 . S
C1701 C1707 1.390 . S
C1702 H1693 0.930 . S
C1702 C1700 1.384 . S
C1702 C1703 1.372 . S
C1703 C1702 1.372 . S
C1703 C1704 1.400 . S
C1703 C1708 1.490 . S
C1704 H1694 0.930 . S
C1704 C1703 1.400 . S
C1704 C1707 1.386 . S
H1705 C1721 0.930 . S
H1706 C1722 0.931 . S
C1707 H1695 0.929 . S
C1707 C1701 1.390 . S
C1707 C1704 1.386 . S
C1708 C1703 1.490 . S
C1708 C1710 1.395 . S
C1708 C1711 1.403 . S
H1709 C1715 0.930 . S
C1710 H1696 0.930 . S
C1710 C1708 1.395 . S
C1710 C1713 1.403 . S
C1711 C1708 1.403 . S
C1711 C1712 1.524 . S
C1711 C1715 1.400 . S
C1712 H1697 0.960 . S
C1712 H1698 0.960 . S
C1712 H1699 0.960 . S
C1712 C1711 1.524 . S
C1713 C1710 1.403 . S
C1713 C1714 1.392 . S
C1713 C1717 1.495 . S
C1714 C1713 1.392 . S
C1714 C1715 1.385 . S
C1714 C1716 1.478 . S
C1715 H1709 0.930 . S
C1715 C1711 1.400 . S
C1715 C1714 1.385 . S
C1716 C1714 1.478 . S
C1716 C1718 1.381 . S
C1716 C1722 1.383 . S
C1717 C1713 1.495 . S
C1717 H1723 0.959 . S
C1717 H1724 0.961 . S
C1717 H1725 0.960 . S
C1718 C1716 1.381 . S
C1718 C1719 1.394 . S
C1718 H1726 0.930 . S
C1719 C1718 1.394 . S
C1719 C1720 1.383 . S
C1719 H1727 0.929 . S
C1720 C1719 1.383 . S
C1720 C1721 1.377 . S
C1721 H1705 0.930 . S
C1721 C1720 1.377 . S
C1721 C1722 1.379 . S
C1722 H1706 0.931 . S
C1722 C1716 1.383 . S
C1722 C1721 1.379 . S
H1723 C1717 0.959 . S
H1724 C1717 0.961 . S
H1725 C1717 0.960 . S
H1726 C1718 0.930 . S
H1727 C1719 0.929 . S
H1728 C1736 0.929 . S
H1729 C1738 0.930 . S
H1730 C1740 0.930 . S
H1731 C1743 0.929 . S
H1732 C1746 0.930 . S
H1733 C1748 0.960 . S
H1734 C1748 0.960 . S
H1735 C1748 0.960 . S
C1736 H1728 0.929 . S
C1736 C1737 1.377 . S
C1736 C1738 1.384 . S
C1737 C1736 1.377 . S
C1737 C1743 1.390 . S
C1738 H1729 0.930 . S
C1738 C1736 1.384 . S
C1738 C1739 1.372 . S
C1739 C1738 1.372 . S
C1739 C1740 1.400 . S
C1739 C1744 1.490 . S
C1740 H1730 0.930 . S
C1740 C1739 1.400 . S
C1740 C1743 1.386 . S
H1741 C1757 0.930 . S
H1742 C1758 0.931 . S
C1743 H1731 0.929 . S
C1743 C1737 1.390 . S
C1743 C1740 1.386 . S
C1744 C1739 1.490 . S
C1744 C1746 1.395 . S
C1744 C1747 1.403 . S
H1745 C1751 0.930 . S
C1746 H1732 0.930 . S
C1746 C1744 1.395 . S
C1746 C1749 1.403 . S
C1747 C1744 1.403 . S
C1747 C1748 1.524 . S
C1747 C1751 1.400 . S
C1748 H1733 0.960 . S
C1748 H1734 0.960 . S
C1748 H1735 0.960 . S
C1748 C1747 1.524 . S
C1749 C1746 1.403 . S
C1749 C1750 1.392 . S
C1749 C1753 1.495 . S
C1750 C1749 1.392 . S
C1750 C1751 1.385 . S
C1750 C1752 1.478 . S
C1751 H1745 0.930 . S
C1751 C1747 1.400 . S
C1751 C1750 1.385 . S
C1752 C1750 1.478 . S
C1752 C1754 1.381 . S
C1752 C1758 1.383 . S
C1753 C1749 1.495 . S
C1753 H1759 0.959 . S
C1753 H1760 0.961 . S
C1753 H1761 0.960 . S
C1754 C1752 1.381 . S
C1754 C1755 1.394 . S
C1754 H1762 0.930 . S
C1755 C1754 1.394 . S
C1755 C1756 1.383 . S
C1755 H1763 0.929 . S
C1756 C1755 1.383 . S
C1756 C1757 1.377 . S
C1757 H1741 0.930 . S
C1757 C1756 1.377 . S
C1757 C1758 1.379 . S
C1758 H1742 0.931 . S
C1758 C1752 1.383 . S
C1758 C1757 1.379 . S
H1759 C1753 0.959 . S
H1760 C1753 0.961 . S
H1761 C1753 0.960 . S
H1762 C1754 0.930 . S
H1763 C1755 0.929 . S
H1764 C1772 0.929 . S
H1765 C1774 0.930 . S
H1766 C1776 0.930 . S
H1767 C1779 0.929 . S
H1768 C1782 0.930 . S
H1769 C1784 0.960 . S
H1770 C1784 0.960 . S
H1771 C1784 0.960 . S
C1772 H1764 0.929 . S
C1772 C1773 1.377 . S
C1772 C1774 1.384 . S
C1773 C1772 1.377 . S
C1773 C1779 1.390 . S
C1774 H1765 0.930 . S
C1774 C1772 1.384 . S
C1774 C1775 1.372 . S
C1775 C1774 1.372 . S
C1775 C1776 1.400 . S
C1775 C1780 1.490 . S
C1776 H1766 0.930 . S
C1776 C1775 1.400 . S
C1776 C1779 1.386 . S
H1777 C1793 0.930 . S
H1778 C1794 0.931 . S
C1779 H1767 0.929 . S
C1779 C1773 1.390 . S
C1779 C1776 1.386 . S
C1780 C1775 1.490 . S
C1780 C1782 1.395 . S
C1780 C1783 1.403 . S
H1781 C1787 0.930 . S
C1782 H1768 0.930 . S
C1782 C1780 1.395 . S
C1782 C1785 1.403 . S
C1783 C1780 1.403 . S
C1783 C1784 1.524 . S
C1783 C1787 1.400 . S
C1784 H1769 0.960 . S
C1784 H1770 0.960 . S
C1784 H1771 0.960 . S
C1784 C1783 1.524 . S
C1785 C1782 1.403 . S
C1785 C1786 1.392 . S
C1785 C1789 1.495 . S
C1786 C1785 1.392 . S
C1786 C1787 1.385 . S
C1786 C1788 1.478 . S
C1787 H1781 0.930 . S
C1787 C1783 1.400 . S
C1787 C1786 1.385 . S
C1788 C1786 1.478 . S
C1788 C1790 1.381 . S
C1788 C1794 1.383 . S
C1789 C1785 1.495 . S
C1789 H1795 0.959 . S
C1789 H1796 0.961 . S
C1789 H1797 0.960 . S
C1790 C1788 1.381 . S
C1790 C1791 1.394 . S
C1790 H1798 0.930 . S
C1791 C1790 1.394 . S
C1791 C1792 1.383 . S
C1791 H1799 0.929 . S
C1792 C1791 1.383 . S
C1792 C1793 1.377 . S
C1793 H1777 0.930 . S
C1793 C1792 1.377 . S
C1793 C1794 1.379 . S
C1794 H1778 0.931 . S
C1794 C1788 1.383 . S
C1794 C1793 1.379 . S
H1795 C1789 0.959 . S
H1796 C1789 0.961 . S
H1797 C1789 0.960 . S
H1798 C1790 0.930 . S
H1799 C1791 0.929 . S
H1800 C1808 0.929 . S
H1801 C1810 0.930 . S
H1802 C1812 0.930 . S
H1803 C1815 0.929 . S
H1804 C1818 0.930 . S
H1805 C1820 0.960 . S
H1806 C1820 0.960 . S
H1807 C1820 0.960 . S
C1808 H1800 0.929 . S
C1808 C1809 1.377 . S
C1808 C1810 1.384 . S
C1809 C1808 1.377 . S
C1809 C1815 1.390 . S
C1810 H1801 0.930 . S
C1810 C1808 1.384 . S
C1810 C1811 1.372 . S
C1811 C1810 1.372 . S
C1811 C1812 1.400 . S
C1811 C1816 1.490 . S
C1812 H1802 0.930 . S
C1812 C1811 1.400 . S
C1812 C1815 1.386 . S
H1813 C1829 0.930 . S
H1814 C1830 0.931 . S
C1815 H1803 0.929 . S
C1815 C1809 1.390 . S
C1815 C1812 1.386 . S
C1816 C1811 1.490 . S
C1816 C1818 1.395 . S
C1816 C1819 1.403 . S
H1817 C1823 0.930 . S
C1818 H1804 0.930 . S
C1818 C1816 1.395 . S
C1818 C1821 1.403 . S
C1819 C1816 1.403 . S
C1819 C1820 1.524 . S
C1819 C1823 1.400 . S
C1820 H1805 0.960 . S
C1820 H1806 0.960 . S
C1820 H1807 0.960 . S
C1820 C1819 1.524 . S
C1821 C1818 1.403 . S
C1821 C1822 1.392 . S
C1821 C1825 1.495 . S
C1822 C1821 1.392 . S
C1822 C1823 1.385 . S
C1822 C1824 1.478 . S
C1823 H1817 0.930 . S
C1823 C1819 1.400 . S
C1823 C1822 1.385 . S
C1824 C1822 1.478 . S
C1824 C1826 1.381 . S
C1824 C1830 1.383 . S
C1825 C1821 1.495 . S
C1825 H1831 0.959 . S
C1825 H1832 0.961 . S
C1825 H1833 0.960 . S
C1826 C1824 1.381 . S
C1826 C1827 1.394 . S
C1826 H1834 0.930 . S
C1827 C1826 1.394 . S
C1827 C1828 1.383 . S
C1827 H1835 0.929 . S
C1828 C1827 1.383 . S
C1828 C1829 1.377 . S
C1829 H1813 0.930 . S
C1829 C1828 1.377 . S
C1829 C1830 1.379 . S
C1830 H1814 0.931 . S
C1830 C1824 1.383 . S
C1830 C1829 1.379 . S
H1831 C1825 0.959 . S
H1832 C1825 0.961 . S
H1833 C1825 0.960 . S
H1834 C1826 0.930 . S
H1835 C1827 0.929 . S
H1836 C1844 0.929 . S
H1837 C1846 0.930 . S
H1838 C1848 0.930 . S
H1839 C1851 0.929 . S
H1840 C1854 0.930 . S
H1841 C1856 0.960 . S
H1842 C1856 0.960 . S
H1843 C1856 0.960 . S
C1844 H1836 0.929 . S
C1844 C1845 1.377 . S
C1844 C1846 1.384 . S
C1845 C1844 1.377 . S
C1845 C1851 1.390 . S
C1846 H1837 0.930 . S
C1846 C1844 1.384 . S
C1846 C1847 1.372 . S
C1847 C1846 1.372 . S
C1847 C1848 1.400 . S
C1847 C1852 1.490 . S
C1848 H1838 0.930 . S
C1848 C1847 1.400 . S
C1848 C1851 1.386 . S
H1849 C1865 0.930 . S
H1850 C1866 0.931 . S
C1851 H1839 0.929 . S
C1851 C1845 1.390 . S
C1851 C1848 1.386 . S
C1852 C1847 1.490 . S
C1852 C1854 1.395 . S
C1852 C1855 1.403 . S
H1853 C1859 0.930 . S
C1854 H1840 0.930 . S
C1854 C1852 1.395 . S
C1854 C1857 1.403 . S
C1855 C1852 1.403 . S
C1855 C1856 1.524 . S
C1855 C1859 1.400 . S
C1856 H1841 0.960 . S
C1856 H1842 0.960 . S
C1856 H1843 0.960 . S
C1856 C1855 1.524 . S
C1857 C1854 1.403 . S
C1857 C1858 1.392 . S
C1857 C1861 1.495 . S
C1858 C1857 1.392 . S
C1858 C1859 1.385 . S
C1858 C1860 1.478 . S
C1859 H1853 0.930 . S
C1859 C1855 1.400 . S
C1859 C1858 1.385 . S
C1860 C1858 1.478 . S
C1860 C1862 1.381 . S
C1860 C1866 1.383 . S
C1861 C1857 1.495 . S
C1861 H1867 0.959 . S
C1861 H1868 0.961 . S
C1861 H1869 0.960 . S
C1862 C1860 1.381 . S
C1862 C1863 1.394 . S
C1862 H1870 0.930 . S
C1863 C1862 1.394 . S
C1863 C1864 1.383 . S
C1863 H1871 0.929 . S
C1864 C1863 1.383 . S
C1864 C1865 1.377 . S
C1865 H1849 0.930 . S
C1865 C1864 1.377 . S
C1865 C1866 1.379 . S
C1866 H1850 0.931 . S
C1866 C1860 1.383 . S
C1866 C1865 1.379 . S
H1867 C1861 0.959 . S
H1868 C1861 0.961 . S
H1869 C1861 0.960 . S
H1870 C1862 0.930 . S
H1871 C1863 0.929 . S
H1872 C1880 0.929 . S
H1873 C1882 0.930 . S
H1874 C1884 0.930 . S
H1875 C1887 0.929 . S
H1876 C1890 0.930 . S
H1877 C1892 0.960 . S
H1878 C1892 0.960 . S
H1879 C1892 0.960 . S
C1880 H1872 0.929 . S
C1880 C1881 1.377 . S
C1880 C1882 1.384 . S
C1881 C1880 1.377 . S
C1881 C1887 1.390 . S
C1882 H1873 0.930 . S
C1882 C1880 1.384 . S
C1882 C1883 1.372 . S
C1883 C1882 1.372 . S
C1883 C1884 1.400 . S
C1883 C1888 1.490 . S
C1884 H1874 0.930 . S
C1884 C1883 1.400 . S
C1884 C1887 1.386 . S
H1885 C1901 0.930 . S
H1886 C1902 0.931 . S
C1887 H1875 0.929 . S
C1887 C1881 1.390 . S
C1887 C1884 1.386 . S
C1888 C1883 1.490 . S
C1888 C1890 1.395 . S
C1888 C1891 1.403 . S
H1889 C1895 0.930 . S
C1890 H1876 0.930 . S
C1890 C1888 1.395 . S
C1890 C1893 1.403 . S
C1891 C1888 1.403 . S
C1891 C1892 1.524 . S
C1891 C1895 1.400 . S
C1892 H1877 0.960 . S
C1892 H1878 0.960 . S
C1892 H1879 0.960 . S
C1892 C1891 1.524 . S
C1893 C1890 1.403 . S
C1893 C1894 1.392 . S
C1893 C1897 1.495 . S
C1894 C1893 1.392 . S
C1894 C1895 1.385 . S
C1894 C1896 1.478 . S
C1895 H1889 0.930 . S
C1895 C1891 1.400 . S
C1895 C1894 1.385 . S
C1896 C1894 1.478 . S
C1896 C1898 1.381 . S
C1896 C1902 1.383 . S
C1897 C1893 1.495 . S
C1897 H1903 0.959 . S
C1897 H1904 0.961 . S
C1897 H1905 0.960 . S
C1898 C1896 1.381 . S
C1898 C1899 1.394 . S
C1898 H1906 0.930 . S
C1899 C1898 1.394 . S
C1899 C1900 1.383 . S
C1899 H1907 0.929 . S
C1900 C1899 1.383 . S
C1900 C1901 1.377 . S
C1901 H1885 0.930 . S
C1901 C1900 1.377 . S
C1901 C1902 1.379 . S
C1902 H1886 0.931 . S
C1902 C1896 1.383 . S
C1902 C1901 1.379 . S
H1903 C1897 0.959 . S
H1904 C1897 0.961 . S
H1905 C1897 0.960 . S
H1906 C1898 0.930 . S
H1907 C1899 0.929 . S
H1908 C1916 0.929 . S
H1909 C1918 0.930 . S
H1910 C1920 0.930 . S
H1911 C1923 0.929 . S
H1912 C1926 0.930 . S
H1913 C1928 0.960 . S
H1914 C1928 0.960 . S
H1915 C1928 0.960 . S
C1916 H1908 0.929 . S
C1916 C1917 1.377 . S
C1916 C1918 1.384 . S
C1917 C1916 1.377 . S
C1917 C1923 1.390 . S
C1918 H1909 0.930 . S
C1918 C1916 1.384 . S
C1918 C1919 1.372 . S
C1919 C1918 1.372 . S
C1919 C1920 1.400 . S
C1919 C1924 1.490 . S
C1920 H1910 0.930 . S
C1920 C1919 1.400 . S
C1920 C1923 1.386 . S
H1921 C1937 0.930 . S
H1922 C1938 0.931 . S
C1923 H1911 0.929 . S
C1923 C1917 1.390 . S
C1923 C1920 1.386 . S
C1924 C1919 1.490 . S
C1924 C1926 1.395 . S
C1924 C1927 1.403 . S
H1925 C1931 0.930 . S
C1926 H1912 0.930 . S
C1926 C1924 1.395 . S
C1926 C1929 1.403 . S
C1927 C1924 1.403 . S
C1927 C1928 1.524 . S
C1927 C1931 1.400 . S
C1928 H1913 0.960 . S
C1928 H1914 0.960 . S
C1928 H1915 0.960 . S
C1928 C1927 1.524 . S
C1929 C1926 1.403 . S
C1929 C1930 1.392 . S
C1929 C1933 1.495 . S
C1930 C1929 1.392 . S
C1930 C1931 1.385 . S
C1930 C1932 1.478 . S
C1931 H1925 0.930 . S
C1931 C1927 1.400 . S
C1931 C1930 1.385 . S
C1932 C1930 1.478 . S
C1932 C1934 1.381 . S
C1932 C1938 1.383 . S
C1933 C1929 1.495 . S
C1933 H1939 0.959 . S
C1933 H1940 0.961 . S
C1933 H1941 0.960 . S
C1934 C1932 1.381 . S
C1934 C1935 1.394 . S
C1934 H1942 0.930 . S
C1935 C1934 1.394 . S
C1935 C1936 1.383 . S
C1935 H1943 0.929 . S
C1936 C1935 1.383 . S
C1936 C1937 1.377 . S
C1937 H1921 0.930 . S
C1937 C1936 1.377 . S
C1937 C1938 1.379 . S
C1938 H1922 0.931 . S
C1938 C1932 1.383 . S
C1938 C1937 1.379 . S
H1939 C1933 0.959 . S
H1940 C1933 0.961 . S
H1941 C1933 0.960 . S
H1942 C1934 0.930 . S
H1943 C1935 0.929 . S
H1944 C1952 0.929 . S
H1945 C1954 0.930 . S
H1946 C1956 0.930 . S
H1947 C1959 0.929 . S
H1948 C1962 0.930 . S
H1949 C1964 0.960 . S
H1950 C1964 0.960 . S
H1951 C1964 0.960 . S
C1952 H1944 0.929 . S
C1952 C1953 1.377 . S
C1952 C1954 1.384 . S
C1953 C1952 1.377 . S
C1953 C1959 1.390 . S
C1954 H1945 0.930 . S
C1954 C1952 1.384 . S
C1954 C1955 1.372 . S
C1955 C1954 1.372 . S
C1955 C1956 1.400 . S
C1955 C1960 1.490 . S
C1956 H1946 0.930 . S
C1956 C1955 1.400 . S
C1956 C1959 1.386 . S
H1957 C1973 0.930 . S
H1958 C1974 0.931 . S
C1959 H1947 0.929 . S
C1959 C1953 1.390 . S
C1959 C1956 1.386 . S
C1960 C1955 1.490 . S
C1960 C1962 1.395 . S
C1960 C1963 1.403 . S
H1961 C1967 0.930 . S
C1962 H1948 0.930 . S
C1962 C1960 1.395 . S
C1962 C1965 1.403 . S
C1963 C1960 1.403 . S
C1963 C1964 1.524 . S
C1963 C1967 1.400 . S
C1964 H1949 0.960 . S
C1964 H1950 0.960 . S
C1964 H1951 0.960 . S
C1964 C1963 1.524 . S
C1965 C1962 1.403 . S
C1965 C1966 1.392 . S
C1965 C1969 1.495 . S
C1966 C1965 1.392 . S
C1966 C1967 1.385 . S
C1966 C1968 1.478 . S
C1967 H1961 0.930 . S
C1967 C1963 1.400 . S
C1967 C1966 1.385 . S
C1968 C1966 1.478 . S
C1968 C1970 1.381 . S
C1968 C1974 1.383 . S
C1969 C1965 1.495 . S
C1969 H1975 0.959 . S
C1969 H1976 0.961 . S
C1969 H1977 0.960 . S
C1970 C1968 1.381 . S
C1970 C1971 1.394 . S
C1970 H1978 0.930 . S
C1971 C1970 1.394 . S
C1971 C1972 1.383 . S
C1971 H1979 0.929 . S
C1972 C1971 1.383 . S
C1972 C1973 1.377 . S
C1973 H1957 0.930 . S
C1973 C1972 1.377 . S
C1973 C1974 1.379 . S
C1974 H1958 0.931 . S
C1974 C1968 1.383 . S
C1974 C1973 1.379 . S
H1975 C1969 0.959 . S
H1976 C1969 0.961 . S
H1977 C1969 0.960 . S
H1978 C1970 0.930 . S
H1979 C1971 0.929 . S
H1980 C1988 0.929 . S
H1981 C1990 0.930 . S
H1982 C1992 0.930 . S
H1983 C1995 0.929 . S
H1984 C1998 0.930 . S
H1985 C2000 0.960 . S
H1986 C2000 0.960 . S
H1987 C2000 0.960 . S
C1988 H1980 0.929 . S
C1988 C1989 1.377 . S
C1988 C1990 1.384 . S
C1989 C1988 1.377 . S
C1989 C1995 1.390 . S
C1990 H1981 0.930 . S
C1990 C1988 1.384 . S
C1990 C1991 1.372 . S
C1991 C1990 1.372 . S
C1991 C1992 1.400 . S
C1991 C1996 1.490 . S
C1992 H1982 0.930 . S
C1992 C1991 1.400 . S
C1992 C1995 1.386 . S
H1993 C2009 0.930 . S
H1994 C2010 0.931 . S
C1995 H1983 0.929 . S
C1995 C1989 1.390 . S
C1995 C1992 1.386 . S
C1996 C1991 1.490 . S
C1996 C1998 1.395 . S
C1996 C1999 1.403 . S
H1997 C2003 0.930 . S
C1998 H1984 0.930 . S
C1998 C1996 1.395 . S
C1998 C2001 1.403 . S
C1999 C1996 1.403 . S
C1999 C2000 1.524 . S
C1999 C2003 1.400 . S
C2000 H1985 0.960 . S
C2000 H1986 0.960 . S
C2000 H1987 0.960 . S
C2000 C1999 1.524 . S
C2001 C1998 1.403 . S
C2001 C2002 1.392 . S
C2001 C2005 1.495 . S
C2002 C2001 1.392 . S
C2002 C2003 1.385 . S
C2002 C2004 1.478 . S
C2003 H1997 0.930 . S
C2003 C1999 1.400 . S
C2003 C2002 1.385 . S
C2004 C2002 1.478 . S
C2004 C2006 1.381 . S
C2004 C2010 1.383 . S
C2005 C2001 1.495 . S
C2005 H2011 0.959 . S
C2005 H2012 0.961 . S
C2005 H2013 0.960 . S
C2006 C2004 1.381 . S
C2006 C2007 1.394 . S
C2006 H2014 0.930 . S
C2007 C2006 1.394 . S
C2007 C2008 1.383 . S
C2007 H2015 0.929 . S
C2008 C2007 1.383 . S
C2008 C2009 1.377 . S
C2009 H1993 0.930 . S
C2009 C2008 1.377 . S
C2009 C2010 1.379 . S
C2010 H1994 0.931 . S
C2010 C2004 1.383 . S
C2010 C2009 1.379 . S
H2011 C2005 0.959 . S
H2012 C2005 0.961 . S
H2013 C2005 0.960 . S
H2014 C2006 0.930 . S
H2015 C2007 0.929 . S
H2016 C2024 0.929 . S
H2017 C2026 0.930 . S
H2018 C2028 0.930 . S
H2019 C2031 0.929 . S
H2020 C2034 0.930 . S
H2021 C2036 0.960 . S
H2022 C2036 0.960 . S
H2023 C2036 0.960 . S
C2024 H2016 0.929 . S
C2024 C2025 1.377 . S
C2024 C2026 1.384 . S
C2025 C2024 1.377 . S
C2025 C2031 1.390 . S
C2026 H2017 0.930 . S
C2026 C2024 1.384 . S
C2026 C2027 1.372 . S
C2027 C2026 1.372 . S
C2027 C2028 1.400 . S
C2027 C2032 1.490 . S
C2028 H2018 0.930 . S
C2028 C2027 1.400 . S
C2028 C2031 1.386 . S
H2029 C2045 0.930 . S
H2030 C2046 0.931 . S
C2031 H2019 0.929 . S
C2031 C2025 1.390 . S
C2031 C2028 1.386 . S
C2032 C2027 1.490 . S
C2032 C2034 1.395 . S
C2032 C2035 1.403 . S
H2033 C2039 0.930 . S
C2034 H2020 0.930 . S
C2034 C2032 1.395 . S
C2034 C2037 1.403 . S
C2035 C2032 1.403 . S
C2035 C2036 1.524 . S
C2035 C2039 1.400 . S
C2036 H2021 0.960 . S
C2036 H2022 0.960 . S
C2036 H2023 0.960 . S
C2036 C2035 1.524 . S
C2037 C2034 1.403 . S
C2037 C2038 1.392 . S
C2037 C2041 1.495 . S
C2038 C2037 1.392 . S
C2038 C2039 1.385 . S
C2038 C2040 1.478 . S
C2039 H2033 0.930 . S
C2039 C2035 1.400 . S
C2039 C2038 1.385 . S
C2040 C2038 1.478 . S
C2040 C2042 1.381 . S
C2040 C2046 1.383 . S
C2041 C2037 1.495 . S
C2041 H2047 0.959 . S
C2041 H2048 0.961 . S
C2041 H2049 0.960 . S
C2042 C2040 1.381 . S
C2042 C2043 1.394 . S
C2042 H2050 0.930 . S
C2043 C2042 1.394 . S
C2043 C2044 1.383 . S
C2043 H2051 0.929 . S
C2044 C2043 1.383 . S
C2044 C2045 1.377 . S
C2045 H2029 0.930 . S
C2045 C2044 1.377 . S
C2045 C2046 1.379 . S
C2046 H2030 0.931 . S
C2046 C2040 1.383 . S
C2046 C2045 1.379 . S
H2047 C2041 0.959 . S
H2048 C2041 0.961 . S
H2049 C2041 0.960 . S
H2050 C2042 0.930 . S
H2051 C2043 0.929 . S
H2052 C2060 0.929 . S
H2053 C2062 0.930 . S
H2054 C2064 0.930 . S
H2055 C2067 0.929 . S
H2056 C2070 0.930 . S
H2057 C2072 0.960 . S
H2058 C2072 0.960 . S
H2059 C2072 0.960 . S
C2060 H2052 0.929 . S
C2060 C2061 1.377 . S
C2060 C2062 1.384 . S
C2061 C2060 1.377 . S
C2061 C2067 1.390 . S
C2062 H2053 0.930 . S
C2062 C2060 1.384 . S
C2062 C2063 1.372 . S
C2063 C2062 1.372 . S
C2063 C2064 1.400 . S
C2063 C2068 1.490 . S
C2064 H2054 0.930 . S
C2064 C2063 1.400 . S
C2064 C2067 1.386 . S
H2065 C2081 0.930 . S
H2066 C2082 0.931 . S
C2067 H2055 0.929 . S
C2067 C2061 1.390 . S
C2067 C2064 1.386 . S
C2068 C2063 1.490 . S
C2068 C2070 1.395 . S
C2068 C2071 1.403 . S
H2069 C2075 0.930 . S
C2070 H2056 0.930 . S
C2070 C2068 1.395 . S
C2070 C2073 1.403 . S
C2071 C2068 1.403 . S
C2071 C2072 1.524 . S
C2071 C2075 1.400 . S
C2072 H2057 0.960 . S
C2072 H2058 0.960 . S
C2072 H2059 0.960 . S
C2072 C2071 1.524 . S
C2073 C2070 1.403 . S
C2073 C2074 1.392 . S
C2073 C2077 1.495 . S
C2074 C2073 1.392 . S
C2074 C2075 1.385 . S
C2074 C2076 1.478 . S
C2075 H2069 0.930 . S
C2075 C2071 1.400 . S
C2075 C2074 1.385 . S
C2076 C2074 1.478 . S
C2076 C2078 1.381 . S
C2076 C2082 1.383 . S
C2077 C2073 1.495 . S
C2077 H2083 0.959 . S
C2077 H2084 0.961 . S
C2077 H2085 0.960 . S
C2078 C2076 1.381 . S
C2078 C2079 1.394 . S
C2078 H2086 0.930 . S
C2079 C2078 1.394 . S
C2079 C2080 1.383 . S
C2079 H2087 0.929 . S
C2080 C2079 1.383 . S
C2080 C2081 1.377 . S
C2081 H2065 0.930 . S
C2081 C2080 1.377 . S
C2081 C2082 1.379 . S
C2082 H2066 0.931 . S
C2082 C2076 1.383 . S
C2082 C2081 1.379 . S
H2083 C2077 0.959 . S
H2084 C2077 0.961 . S
H2085 C2077 0.960 . S
H2086 C2078 0.930 . S
H2087 C2079 0.929 . S
H2088 C2096 0.929 . S
H2089 C2098 0.930 . S
H2090 C2100 0.930 . S
H2091 C2103 0.929 . S
H2092 C2106 0.930 . S
H2093 C2108 0.960 . S
H2094 C2108 0.960 . S
H2095 C2108 0.960 . S
C2096 H2088 0.929 . S
C2096 C2097 1.377 . S
C2096 C2098 1.384 . S
C2097 C2096 1.377 . S
C2097 C2103 1.390 . S
C2098 H2089 0.930 . S
C2098 C2096 1.384 . S
C2098 C2099 1.372 . S
C2099 C2098 1.372 . S
C2099 C2100 1.400 . S
C2099 C2104 1.490 . S
C2100 H2090 0.930 . S
C2100 C2099 1.400 . S
C2100 C2103 1.386 . S
H2101 C2117 0.930 . S
H2102 C2118 0.931 . S
C2103 H2091 0.929 . S
C2103 C2097 1.390 . S
C2103 C2100 1.386 . S
C2104 C2099 1.490 . S
C2104 C2106 1.395 . S
C2104 C2107 1.403 . S
H2105 C2111 0.930 . S
C2106 H2092 0.930 . S
C2106 C2104 1.395 . S
C2106 C2109 1.403 . S
C2107 C2104 1.403 . S
C2107 C2108 1.524 . S
C2107 C2111 1.400 . S
C2108 H2093 0.960 . S
C2108 H2094 0.960 . S
C2108 H2095 0.960 . S
C2108 C2107 1.524 . S
C2109 C2106 1.403 . S
C2109 C2110 1.392 . S
C2109 C2113 1.495 . S
C2110 C2109 1.392 . S
C2110 C2111 1.385 . S
C2110 C2112 1.478 . S
C2111 H2105 0.930 . S
C2111 C2107 1.400 . S
C2111 C2110 1.385 . S
C2112 C2110 1.478 . S
C2112 C2114 1.381 . S
C2112 C2118 1.383 . S
C2113 C2109 1.495 . S
C2113 H2119 0.959 . S
C2113 H2120 0.961 . S
C2113 H2121 0.960 . S
C2114 C2112 1.381 . S
C2114 C2115 1.394 . S
C2114 H2122 0.930 . S
C2115 C2114 1.394 . S
C2115 C2116 1.383 . S
C2115 H2123 0.929 . S
C2116 C2115 1.383 . S
C2116 C2117 1.377 . S
C2117 H2101 0.930 . S
C2117 C2116 1.377 . S
C2117 C2118 1.379 . S
C2118 H2102 0.931 . S
C2118 C2112 1.383 . S
C2118 C2117 1.379 . S
H2119 C2113 0.959 . S
H2120 C2113 0.961 . S
H2121 C2113 0.960 . S
H2122 C2114 0.930 . S
H2123 C2115 0.929 . S
H2124 C2132 0.929 . S
H2125 C2134 0.930 . S
H2126 C2136 0.930 . S
H2127 C2139 0.929 . S
H2128 C2142 0.930 . S
H2129 C2144 0.960 . S
H2130 C2144 0.960 . S
H2131 C2144 0.960 . S
C2132 H2124 0.929 . S
C2132 C2133 1.377 . S
C2132 C2134 1.384 . S
C2133 C2132 1.377 . S
C2133 C2139 1.390 . S
C2134 H2125 0.930 . S
C2134 C2132 1.384 . S
C2134 C2135 1.372 . S
C2135 C2134 1.372 . S
C2135 C2136 1.400 . S
C2135 C2140 1.490 . S
C2136 H2126 0.930 . S
C2136 C2135 1.400 . S
C2136 C2139 1.386 . S
H2137 C2153 0.930 . S
H2138 C2154 0.931 . S
C2139 H2127 0.929 . S
C2139 C2133 1.390 . S
C2139 C2136 1.386 . S
C2140 C2135 1.490 . S
C2140 C2142 1.395 . S
C2140 C2143 1.403 . S
H2141 C2147 0.930 . S
C2142 H2128 0.930 . S
C2142 C2140 1.395 . S
C2142 C2145 1.403 . S
C2143 C2140 1.403 . S
C2143 C2144 1.524 . S
C2143 C2147 1.400 . S
C2144 H2129 0.960 . S
C2144 H2130 0.960 . S
C2144 H2131 0.960 . S
C2144 C2143 1.524 . S
C2145 C2142 1.403 . S
C2145 C2146 1.392 . S
C2145 C2149 1.495 . S
C2146 C2145 1.392 . S
C2146 C2147 1.385 . S
C2146 C2148 1.478 . S
C2147 H2141 0.930 . S
C2147 C2143 1.400 . S
C2147 C2146 1.385 . S
C2148 C2146 1.478 . S
C2148 C2150 1.381 . S
C2148 C2154 1.383 . S
C2149 C2145 1.495 . S
C2149 H2155 0.959 . S
C2149 H2156 0.961 . S
C2149 H2157 0.960 . S
C2150 C2148 1.381 . S
C2150 C2151 1.394 . S
C2150 H2158 0.930 . S
C2151 C2150 1.394 . S
C2151 C2152 1.383 . S
C2151 H2159 0.929 . S
C2152 C2151 1.383 . S
C2152 C2153 1.377 . S
C2153 H2137 0.930 . S
C2153 C2152 1.377 . S
C2153 C2154 1.379 . S
C2154 H2138 0.931 . S
C2154 C2148 1.383 . S
C2154 C2153 1.379 . S
H2155 C2149 0.959 . S
H2156 C2149 0.961 . S
H2157 C2149 0.960 . S
H2158 C2150 0.930 . S
H2159 C2151 0.929 . S
H2160 C2168 0.929 . S
H2161 C2170 0.930 . S
H2162 C2172 0.930 . S
H2163 C2175 0.929 . S
H2164 C2178 0.930 . S
H2165 C2180 0.960 . S
H2166 C2180 0.960 . S
H2167 C2180 0.960 . S
C2168 H2160 0.929 . S
C2168 C2169 1.377 . S
C2168 C2170 1.384 . S
C2169 C2168 1.377 . S
C2169 C2175 1.390 . S
C2170 H2161 0.930 . S
C2170 C2168 1.384 . S
C2170 C2171 1.372 . S
C2171 C2170 1.372 . S
C2171 C2172 1.400 . S
C2171 C2176 1.490 . S
C2172 H2162 0.930 . S
C2172 C2171 1.400 . S
C2172 C2175 1.386 . S
H2173 C2189 0.930 . S
H2174 C2190 0.931 . S
C2175 H2163 0.929 . S
C2175 C2169 1.390 . S
C2175 C2172 1.386 . S
C2176 C2171 1.490 . S
C2176 C2178 1.395 . S
C2176 C2179 1.403 . S
H2177 C2183 0.930 . S
C2178 H2164 0.930 . S
C2178 C2176 1.395 . S
C2178 C2181 1.403 . S
C2179 C2176 1.403 . S
C2179 C2180 1.524 . S
C2179 C2183 1.400 . S
C2180 H2165 0.960 . S
C2180 H2166 0.960 . S
C2180 H2167 0.960 . S
C2180 C2179 1.524 . S
C2181 C2178 1.403 . S
C2181 C2182 1.392 . S
C2181 C2185 1.495 . S
C2182 C2181 1.392 . S
C2182 C2183 1.385 . S
C2182 C2184 1.478 . S
C2183 H2177 0.930 . S
C2183 C2179 1.400 . S
C2183 C2182 1.385 . S
C2184 C2182 1.478 . S
C2184 C2186 1.381 . S
C2184 C2190 1.383 . S
C2185 C2181 1.495 . S
C2185 H2191 0.959 . S
C2185 H2192 0.961 . S
C2185 H2193 0.960 . S
C2186 C2184 1.381 . S
C2186 C2187 1.394 . S
C2186 H2194 0.930 . S
C2187 C2186 1.394 . S
C2187 C2188 1.383 . S
C2187 H2195 0.929 . S
C2188 C2187 1.383 . S
C2188 C2189 1.377 . S
C2189 H2173 0.930 . S
C2189 C2188 1.377 . S
C2189 C2190 1.379 . S
C2190 H2174 0.931 . S
C2190 C2184 1.383 . S
C2190 C2189 1.379 . S
H2191 C2185 0.959 . S
H2192 C2185 0.961 . S
H2193 C2185 0.960 . S
H2194 C2186 0.930 . S
H2195 C2187 0.929 . S
H2196 C2204 0.929 . S
H2197 C2206 0.930 . S
H2198 C2208 0.930 . S
H2199 C2211 0.929 . S
H2200 C2214 0.930 . S
H2201 C2216 0.960 . S
H2202 C2216 0.960 . S
H2203 C2216 0.960 . S
C2204 H2196 0.929 . S
C2204 C2205 1.377 . S
C2204 C2206 1.384 . S
C2205 C2204 1.377 . S
C2205 C2211 1.390 . S
C2206 H2197 0.930 . S
C2206 C2204 1.384 . S
C2206 C2207 1.372 . S
C2207 C2206 1.372 . S
C2207 C2208 1.400 . S
C2207 C2212 1.490 . S
C2208 H2198 0.930 . S
C2208 C2207 1.400 . S
C2208 C2211 1.386 . S
H2209 C2225 0.930 . S
H2210 C2226 0.931 . S
C2211 H2199 0.929 . S
C2211 C2205 1.390 . S
C2211 C2208 1.386 . S
C2212 C2207 1.490 . S
C2212 C2214 1.395 . S
C2212 C2215 1.403 . S
H2213 C2219 0.930 . S
C2214 H2200 0.930 . S
C2214 C2212 1.395 . S
C2214 C2217 1.403 . S
C2215 C2212 1.403 . S
C2215 C2216 1.524 . S
C2215 C2219 1.400 . S
C2216 H2201 0.960 . S
C2216 H2202 0.960 . S
C2216 H2203 0.960 . S
C2216 C2215 1.524 . S
C2217 C2214 1.403 . S
C2217 C2218 1.392 . S
C2217 C2221 1.495 . S
C2218 C2217 1.392 . S
C2218 C2219 1.385 . S
C2218 C2220 1.478 . S
C2219 H2213 0.930 . S
C2219 C2215 1.400 . S
C2219 C2218 1.385 . S
C2220 C2218 1.478 . S
C2220 C2222 1.381 . S
C2220 C2226 1.383 . S
C2221 C2217 1.495 . S
C2221 H2227 0.959 . S
C2221 H2228 0.961 . S
C2221 H2229 0.960 . S
C2222 C2220 1.381 . S
C2222 C2223 1.394 . S
C2222 H2230 0.930 . S
C2223 C2222 1.394 . S
C2223 C2224 1.383 . S
C2223 H2231 0.929 . S
C2224 C2223 1.383 . S
C2224 C2225 1.377 . S
C2225 H2209 0.930 . S
C2225 C2224 1.377 . S
C2225 C2226 1.379 . S
C2226 H2210 0.931 . S
C2226 C2220 1.383 . S
C2226 C2225 1.379 . S
H2227 C2221 0.959 . S
H2228 C2221 0.961 . S
H2229 C2221 0.960 . S
H2230 C2222 0.930 . S
H2231 C2223 0.929 . S
H2232 C2240 0.929 . S
H2233 C2242 0.930 . S
H2234 C2244 0.930 . S
H2235 C2247 0.929 . S
H2236 C2250 0.930 . S
H2237 C2252 0.960 . S
H2238 C2252 0.960 . S
H2239 C2252 0.960 . S
C2240 H2232 0.929 . S
C2240 C2241 1.377 . S
C2240 C2242 1.384 . S
C2241 C2240 1.377 . S
C2241 C2247 1.390 . S
C2242 H2233 0.930 . S
C2242 C2240 1.384 . S
C2242 C2243 1.372 . S
C2243 C2242 1.372 . S
C2243 C2244 1.400 . S
C2243 C2248 1.490 . S
C2244 H2234 0.930 . S
C2244 C2243 1.400 . S
C2244 C2247 1.386 . S
H2245 C2261 0.930 . S
H2246 C2262 0.931 . S
C2247 H2235 0.929 . S
C2247 C2241 1.390 . S
C2247 C2244 1.386 . S
C2248 C2243 1.490 . S
C2248 C2250 1.395 . S
C2248 C2251 1.403 . S
H2249 C2255 0.930 . S
C2250 H2236 0.930 . S
C2250 C2248 1.395 . S
C2250 C2253 1.403 . S
C2251 C2248 1.403 . S
C2251 C2252 1.524 . S
C2251 C2255 1.400 . S
C2252 H2237 0.960 . S
C2252 H2238 0.960 . S
C2252 H2239 0.960 . S
C2252 C2251 1.524 . S
C2253 C2250 1.403 . S
C2253 C2254 1.392 . S
C2253 C2257 1.495 . S
C2254 C2253 1.392 . S
C2254 C2255 1.385 . S
C2254 C2256 1.478 . S
C2255 H2249 0.930 . S
C2255 C2251 1.400 . S
C2255 C2254 1.385 . S
C2256 C2254 1.478 . S
C2256 C2258 1.381 . S
C2256 C2262 1.383 . S
C2257 C2253 1.495 . S
C2257 H2263 0.959 . S
C2257 H2264 0.961 . S
C2257 H2265 0.960 . S
C2258 C2256 1.381 . S
C2258 C2259 1.394 . S
C2258 H2266 0.930 . S
C2259 C2258 1.394 . S
C2259 C2260 1.383 . S
C2259 H2267 0.929 . S
C2260 C2259 1.383 . S
C2260 C2261 1.377 . S
C2261 H2245 0.930 . S
C2261 C2260 1.377 . S
C2261 C2262 1.379 . S
C2262 H2246 0.931 . S
C2262 C2256 1.383 . S
C2262 C2261 1.379 . S
H2263 C2257 0.959 . S
H2264 C2257 0.961 . S
H2265 C2257 0.960 . S
H2266 C2258 0.930 . S
H2267 C2259 0.929 . S
H2268 C2276 0.929 . S
H2269 C2278 0.930 . S
H2270 C2280 0.930 . S
H2271 C2283 0.929 . S
H2272 C2286 0.930 . S
H2273 C2288 0.960 . S
H2274 C2288 0.960 . S
H2275 C2288 0.960 . S
C2276 H2268 0.929 . S
C2276 C2277 1.377 . S
C2276 C2278 1.384 . S
C2277 C2276 1.377 . S
C2277 C2283 1.390 . S
C2278 H2269 0.930 . S
C2278 C2276 1.384 . S
C2278 C2279 1.372 . S
C2279 C2278 1.372 . S
C2279 C2280 1.400 . S
C2279 C2284 1.490 . S
C2280 H2270 0.930 . S
C2280 C2279 1.400 . S
C2280 C2283 1.386 . S
H2281 C2297 0.930 . S
H2282 C2298 0.931 . S
C2283 H2271 0.929 . S
C2283 C2277 1.390 . S
C2283 C2280 1.386 . S
C2284 C2279 1.490 . S
C2284 C2286 1.395 . S
C2284 C2287 1.403 . S
H2285 C2291 0.930 . S
C2286 H2272 0.930 . S
C2286 C2284 1.395 . S
C2286 C2289 1.403 . S
C2287 C2284 1.403 . S
C2287 C2288 1.524 . S
C2287 C2291 1.400 . S
C2288 H2273 0.960 . S
C2288 H2274 0.960 . S
C2288 H2275 0.960 . S
C2288 C2287 1.524 . S
C2289 C2286 1.403 . S
C2289 C2290 1.392 . S
C2289 C2293 1.495 . S
C2290 C2289 1.392 . S
C2290 C2291 1.385 . S
C2290 C2292 1.478 . S
C2291 H2285 0.930 . S
C2291 C2287 1.400 . S
C2291 C2290 1.385 . S
C2292 C2290 1.478 . S
C2292 C2294 1.381 . S
C2292 C2298 1.383 . S
C2293 C2289 1.495 . S
C2293 H2299 0.959 . S
C2293 H2300 0.961 . S
C2293 H2301 0.960 . S
C2294 C2292 1.381 . S
C2294 C2295 1.394 . S
C2294 H2302 0.930 . S
C2295 C2294 1.394 . S
C2295 C2296 1.383 . S
C2295 H2303 0.929 . S
C2296 C2295 1.383 . S
C2296 C2297 1.377 . S
C2297 H2281 0.930 . S
C2297 C2296 1.377 . S
C2297 C2298 1.379 . S
C2298 H2282 0.931 . S
C2298 C2292 1.383 . S
C2298 C2297 1.379 . S
H2299 C2293 0.959 . S
H2300 C2293 0.961 . S
H2301 C2293 0.960 . S
H2302 C2294 0.930 . S
H2303 C2295 0.929 . S
H2304 C2312 0.929 . S
H2305 C2314 0.930 . S
H2306 C2316 0.930 . S
H2307 C2319 0.929 . S
H2308 C2322 0.930 . S
H2309 C2324 0.960 . S
H2310 C2324 0.960 . S
H2311 C2324 0.960 . S
C2312 H2304 0.929 . S
C2312 C2313 1.377 . S
C2312 C2314 1.384 . S
C2313 C2312 1.377 . S
C2313 C2319 1.390 . S
C2314 H2305 0.930 . S
C2314 C2312 1.384 . S
C2314 C2315 1.372 . S
C2315 C2314 1.372 . S
C2315 C2316 1.400 . S
C2315 C2320 1.490 . S
C2316 H2306 0.930 . S
C2316 C2315 1.400 . S
C2316 C2319 1.386 . S
H2317 C2333 0.930 . S
H2318 C2334 0.931 . S
C2319 H2307 0.929 . S
C2319 C2313 1.390 . S
C2319 C2316 1.386 . S
C2320 C2315 1.490 . S
C2320 C2322 1.395 . S
C2320 C2323 1.403 . S
H2321 C2327 0.930 . S
C2322 H2308 0.930 . S
C2322 C2320 1.395 . S
C2322 C2325 1.403 . S
C2323 C2320 1.403 . S
C2323 C2324 1.524 . S
C2323 C2327 1.400 . S
C2324 H2309 0.960 . S
C2324 H2310 0.960 . S
C2324 H2311 0.960 . S
C2324 C2323 1.524 . S
C2325 C2322 1.403 . S
C2325 C2326 1.392 . S
C2325 C2329 1.495 . S
C2326 C2325 1.392 . S
C2326 C2327 1.385 . S
C2326 C2328 1.478 . S
C2327 H2321 0.930 . S
C2327 C2323 1.400 . S
C2327 C2326 1.385 . S
C2328 C2326 1.478 . S
C2328 C2330 1.381 . S
C2328 C2334 1.383 . S
C2329 C2325 1.495 . S
C2329 H2335 0.959 . S
C2329 H2336 0.961 . S
C2329 H2337 0.960 . S
C2330 C2328 1.381 . S
C2330 C2331 1.394 . S
C2330 H2338 0.930 . S
C2331 C2330 1.394 . S
C2331 C2332 1.383 . S
C2331 H2339 0.929 . S
C2332 C2331 1.383 . S
C2332 C2333 1.377 . S
C2333 H2317 0.930 . S
C2333 C2332 1.377 . S
C2333 C2334 1.379 . S
C2334 H2318 0.931 . S
C2334 C2328 1.383 . S
C2334 C2333 1.379 . S
H2335 C2329 0.959 . S
H2336 C2329 0.961 . S
H2337 C2329 0.960 . S
H2338 C2330 0.930 . S
H2339 C2331 0.929 . S
H2340 C2348 0.929 . S
H2341 C2350 0.930 . S
H2342 C2352 0.930 . S
H2343 C2355 0.929 . S
H2344 C2358 0.930 . S
H2345 C2360 0.960 . S
H2346 C2360 0.960 . S
H2347 C2360 0.960 . S
C2348 H2340 0.929 . S
C2348 C2349 1.377 . S
C2348 C2350 1.384 . S
C2349 C2348 1.377 . S
C2349 C2355 1.390 . S
C2350 H2341 0.930 . S
C2350 C2348 1.384 . S
C2350 C2351 1.372 . S
C2351 C2350 1.372 . S
C2351 C2352 1.400 . S
C2351 C2356 1.490 . S
C2352 H2342 0.930 . S
C2352 C2351 1.400 . S
C2352 C2355 1.386 . S
H2353 C2369 0.930 . S
H2354 C2370 0.931 . S
C2355 H2343 0.929 . S
C2355 C2349 1.390 . S
C2355 C2352 1.386 . S
C2356 C2351 1.490 . S
C2356 C2358 1.395 . S
C2356 C2359 1.403 . S
H2357 C2363 0.930 . S
C2358 H2344 0.930 . S
C2358 C2356 1.395 . S
C2358 C2361 1.403 . S
C2359 C2356 1.403 . S
C2359 C2360 1.524 . S
C2359 C2363 1.400 . S
C2360 H2345 0.960 . S
C2360 H2346 0.960 . S
C2360 H2347 0.960 . S
C2360 C2359 1.524 . S
C2361 C2358 1.403 . S
C2361 C2362 1.392 . S
C2361 C2365 1.495 . S
C2362 C2361 1.392 . S
C2362 C2363 1.385 . S
C2362 C2364 1.478 . S
C2363 H2357 0.930 . S
C2363 C2359 1.400 . S
C2363 C2362 1.385 . S
C2364 C2362 1.478 . S
C2364 C2366 1.381 . S
C2364 C2370 1.383 . S
C2365 C2361 1.495 . S
C2365 H2371 0.959 . S
C2365 H2372 0.961 . S
C2365 H2373 0.960 . S
C2366 C2364 1.381 . S
C2366 C2367 1.394 . S
C2366 H2374 0.930 . S
C2367 C2366 1.394 . S
C2367 C2368 1.383 . S
C2367 H2375 0.929 . S
C2368 C2367 1.383 . S
C2368 C2369 1.377 . S
C2369 H2353 0.930 . S
C2369 C2368 1.377 . S
C2369 C2370 1.379 . S
C2370 H2354 0.931 . S
C2370 C2364 1.383 . S
C2370 C2369 1.379 . S
H2371 C2365 0.959 . S
H2372 C2365 0.961 . S
H2373 C2365 0.960 . S
H2374 C2366 0.930 . S
H2375 C2367 0.929 . S
H2376 C2384 0.929 . S
H2377 C2386 0.930 . S
H2378 C2388 0.930 . S
H2379 C2391 0.929 . S
H2380 C2394 0.930 . S
H2381 C2396 0.960 . S
H2382 C2396 0.960 . S
H2383 C2396 0.960 . S
C2384 H2376 0.929 . S
C2384 C2385 1.377 . S
C2384 C2386 1.384 . S
C2385 C2384 1.377 . S
C2385 C2391 1.390 . S
C2386 H2377 0.930 . S
C2386 C2384 1.384 . S
C2386 C2387 1.372 . S
C2387 C2386 1.372 . S
C2387 C2388 1.400 . S
C2387 C2392 1.490 . S
C2388 H2378 0.930 . S
C2388 C2387 1.400 . S
C2388 C2391 1.386 . S
H2389 C2405 0.930 . S
H2390 C2406 0.931 . S
C2391 H2379 0.929 . S
C2391 C2385 1.390 . S
C2391 C2388 1.386 . S
C2392 C2387 1.490 . S
C2392 C2394 1.395 . S
C2392 C2395 1.403 . S
H2393 C2399 0.930 . S
C2394 H2380 0.930 . S
C2394 C2392 1.395 . S
C2394 C2397 1.403 . S
C2395 C2392 1.403 . S
C2395 C2396 1.524 . S
C2395 C2399 1.400 . S
C2396 H2381 0.960 . S
C2396 H2382 0.960 . S
C2396 H2383 0.960 . S
C2396 C2395 1.524 . S
C2397 C2394 1.403 . S
C2397 C2398 1.392 . S
C2397 C2401 1.495 . S
C2398 C2397 1.392 . S
C2398 C2399 1.385 . S
C2398 C2400 1.478 . S
C2399 H2393 0.930 . S
C2399 C2395 1.400 . S
C2399 C2398 1.385 . S
C2400 C2398 1.478 . S
C2400 C2402 1.381 . S
C2400 C2406 1.383 . S
C2401 C2397 1.495 . S
C2401 H2407 0.959 . S
C2401 H2408 0.961 . S
C2401 H2409 0.960 . S
C2402 C2400 1.381 . S
C2402 C2403 1.394 . S
C2402 H2410 0.930 . S
C2403 C2402 1.394 . S
C2403 C2404 1.383 . S
C2403 H2411 0.929 . S
C2404 C2403 1.383 . S
C2404 C2405 1.377 . S
C2405 H2389 0.930 . S
C2405 C2404 1.377 . S
C2405 C2406 1.379 . S
C2406 H2390 0.931 . S
C2406 C2400 1.383 . S
C2406 C2405 1.379 . S
H2407 C2401 0.959 . S
H2408 C2401 0.961 . S
H2409 C2401 0.960 . S
H2410 C2402 0.930 . S
H2411 C2403 0.929 . S
H2412 C2420 0.929 . S
H2413 C2422 0.930 . S
H2414 C2424 0.930 . S
H2415 C2427 0.929 . S
H2416 C2430 0.930 . S
H2417 C2432 0.960 . S
H2418 C2432 0.960 . S
H2419 C2432 0.960 . S
C2420 H2412 0.929 . S
C2420 C2421 1.377 . S
C2420 C2422 1.384 . S
C2421 C2420 1.377 . S
C2421 C2427 1.390 . S
C2422 H2413 0.930 . S
C2422 C2420 1.384 . S
C2422 C2423 1.372 . S
C2423 C2422 1.372 . S
C2423 C2424 1.400 . S
C2423 C2428 1.490 . S
C2424 H2414 0.930 . S
C2424 C2423 1.400 . S
C2424 C2427 1.386 . S
H2425 C2441 0.930 . S
H2426 C2442 0.931 . S
C2427 H2415 0.929 . S
C2427 C2421 1.390 . S
C2427 C2424 1.386 . S
C2428 C2423 1.490 . S
C2428 C2430 1.395 . S
C2428 C2431 1.403 . S
H2429 C2435 0.930 . S
C2430 H2416 0.930 . S
C2430 C2428 1.395 . S
C2430 C2433 1.403 . S
C2431 C2428 1.403 . S
C2431 C2432 1.524 . S
C2431 C2435 1.400 . S
C2432 H2417 0.960 . S
C2432 H2418 0.960 . S
C2432 H2419 0.960 . S
C2432 C2431 1.524 . S
C2433 C2430 1.403 . S
C2433 C2434 1.392 . S
C2433 C2437 1.495 . S
C2434 C2433 1.392 . S
C2434 C2435 1.385 . S
C2434 C2436 1.478 . S
C2435 H2429 0.930 . S
C2435 C2431 1.400 . S
C2435 C2434 1.385 . S
C2436 C2434 1.478 . S
C2436 C2438 1.381 . S
C2436 C2442 1.383 . S
C2437 C2433 1.495 . S
C2437 H2443 0.959 . S
C2437 H2444 0.961 . S
C2437 H2445 0.960 . S
C2438 C2436 1.381 . S
C2438 C2439 1.394 . S
C2438 H2446 0.930 . S
C2439 C2438 1.394 . S
C2439 C2440 1.383 . S
C2439 H2447 0.929 . S
C2440 C2439 1.383 . S
C2440 C2441 1.377 . S
C2441 H2425 0.930 . S
C2441 C2440 1.377 . S
C2441 C2442 1.379 . S
C2442 H2426 0.931 . S
C2442 C2436 1.383 . S
C2442 C2441 1.379 . S
H2443 C2437 0.959 . S
H2444 C2437 0.961 . S
H2445 C2437 0.960 . S
H2446 C2438 0.930 . S
H2447 C2439 0.929 . S
H2448 C2456 0.929 . S
H2449 C2458 0.930 . S
H2450 C2460 0.930 . S
H2451 C2463 0.929 . S
H2452 C2466 0.930 . S
H2453 C2468 0.960 . S
H2454 C2468 0.960 . S
H2455 C2468 0.960 . S
C2456 H2448 0.929 . S
C2456 C2457 1.377 . S
C2456 C2458 1.384 . S
C2457 C2456 1.377 . S
C2457 C2463 1.390 . S
C2458 H2449 0.930 . S
C2458 C2456 1.384 . S
C2458 C2459 1.372 . S
C2459 C2458 1.372 . S
C2459 C2460 1.400 . S
C2459 C2464 1.490 . S
C2460 H2450 0.930 . S
C2460 C2459 1.400 . S
C2460 C2463 1.386 . S
H2461 C2477 0.930 . S
H2462 C2478 0.931 . S
C2463 H2451 0.929 . S
C2463 C2457 1.390 . S
C2463 C2460 1.386 . S
C2464 C2459 1.490 . S
C2464 C2466 1.395 . S
C2464 C2467 1.403 . S
H2465 C2471 0.930 . S
C2466 H2452 0.930 . S
C2466 C2464 1.395 . S
C2466 C2469 1.403 . S
C2467 C2464 1.403 . S
C2467 C2468 1.524 . S
C2467 C2471 1.400 . S
C2468 H2453 0.960 . S
C2468 H2454 0.960 . S
C2468 H2455 0.960 . S
C2468 C2467 1.524 . S
C2469 C2466 1.403 . S
C2469 C2470 1.392 . S
C2469 C2473 1.495 . S
C2470 C2469 1.392 . S
C2470 C2471 1.385 . S
C2470 C2472 1.478 . S
C2471 H2465 0.930 . S
C2471 C2467 1.400 . S
C2471 C2470 1.385 . S
C2472 C2470 1.478 . S
C2472 C2474 1.381 . S
C2472 C2478 1.383 . S
C2473 C2469 1.495 . S
C2473 H2479 0.959 . S
C2473 H2480 0.961 . S
C2473 H2481 0.960 . S
C2474 C2472 1.381 . S
C2474 C2475 1.394 . S
C2474 H2482 0.930 . S
C2475 C2474 1.394 . S
C2475 C2476 1.383 . S
C2475 H2483 0.929 . S
C2476 C2475 1.383 . S
C2476 C2477 1.377 . S
C2477 H2461 0.930 . S
C2477 C2476 1.377 . S
C2477 C2478 1.379 . S
C2478 H2462 0.931 . S
C2478 C2472 1.383 . S
C2478 C2477 1.379 . S
H2479 C2473 0.959 . S
H2480 C2473 0.961 . S
H2481 C2473 0.960 . S
H2482 C2474 0.930 . S
H2483 C2475 0.929 . S
H2484 C2492 0.929 . S
H2485 C2494 0.930 . S
H2486 C2496 0.930 . S
H2487 C2499 0.929 . S
H2488 C2502 0.930 . S
H2489 C2504 0.960 . S
H2490 C2504 0.960 . S
H2491 C2504 0.960 . S
C2492 H2484 0.929 . S
C2492 C2493 1.377 . S
C2492 C2494 1.384 . S
C2493 C2492 1.377 . S
C2493 C2499 1.390 . S
C2494 H2485 0.930 . S
C2494 C2492 1.384 . S
C2494 C2495 1.372 . S
C2495 C2494 1.372 . S
C2495 C2496 1.400 . S
C2495 C2500 1.490 . S
C2496 H2486 0.930 . S
C2496 C2495 1.400 . S
C2496 C2499 1.386 . S
H2497 C2513 0.930 . S
H2498 C2514 0.931 . S
C2499 H2487 0.929 . S
C2499 C2493 1.390 . S
C2499 C2496 1.386 . S
C2500 C2495 1.490 . S
C2500 C2502 1.395 . S
C2500 C2503 1.403 . S
H2501 C2507 0.930 . S
C2502 H2488 0.930 . S
C2502 C2500 1.395 . S
C2502 C2505 1.403 . S
C2503 C2500 1.403 . S
C2503 C2504 1.524 . S
C2503 C2507 1.400 . S
C2504 H2489 0.960 . S
C2504 H2490 0.960 . S
C2504 H2491 0.960 . S
C2504 C2503 1.524 . S
C2505 C2502 1.403 . S
C2505 C2506 1.392 . S
C2505 C2509 1.495 . S
C2506 C2505 1.392 . S
C2506 C2507 1.385 . S
C2506 C2508 1.478 . S
C2507 H2501 0.930 . S
C2507 C2503 1.400 . S
C2507 C2506 1.385 . S
C2508 C2506 1.478 . S
C2508 C2510 1.381 . S
C2508 C2514 1.383 . S
C2509 C2505 1.495 . S
C2509 H2515 0.959 . S
C2509 H2516 0.961 . S
C2509 H2517 0.960 . S
C2510 C2508 1.381 . S
C2510 C2511 1.394 . S
C2510 H2518 0.930 . S
C2511 C2510 1.394 . S
C2511 C2512 1.383 . S
C2511 H2519 0.929 . S
C2512 C2511 1.383 . S
C2512 C2513 1.377 . S
C2513 H2497 0.930 . S
C2513 C2512 1.377 . S
C2513 C2514 1.379 . S
C2514 H2498 0.931 . S
C2514 C2508 1.383 . S
C2514 C2513 1.379 . S
H2515 C2509 0.959 . S
H2516 C2509 0.961 . S
H2517 C2509 0.960 . S
H2518 C2510 0.930 . S
H2519 C2511 0.929 . S
H2520 C2528 0.929 . S
H2521 C2530 0.930 . S
H2522 C2532 0.930 . S
H2523 C2535 0.929 . S
H2524 C2538 0.930 . S
H2525 C2540 0.960 . S
H2526 C2540 0.960 . S
H2527 C2540 0.960 . S
C2528 H2520 0.929 . S
C2528 C2529 1.377 . S
C2528 C2530 1.384 . S
C2529 C2528 1.377 . S
C2529 C2535 1.390 . S
C2530 H2521 0.930 . S
C2530 C2528 1.384 . S
C2530 C2531 1.372 . S
C2531 C2530 1.372 . S
C2531 C2532 1.400 . S
C2531 C2536 1.490 . S
C2532 H2522 0.930 . S
C2532 C2531 1.400 . S
C2532 C2535 1.386 . S
H2533 C2549 0.930 . S
H2534 C2550 0.931 . S
C2535 H2523 0.929 . S
C2535 C2529 1.390 . S
C2535 C2532 1.386 . S
C2536 C2531 1.490 . S
C2536 C2538 1.395 . S
C2536 C2539 1.403 . S
H2537 C2543 0.930 . S
C2538 H2524 0.930 . S
C2538 C2536 1.395 . S
C2538 C2541 1.403 . S
C2539 C2536 1.403 . S
C2539 C2540 1.524 . S
C2539 C2543 1.400 . S
C2540 H2525 0.960 . S
C2540 H2526 0.960 . S
C2540 H2527 0.960 . S
C2540 C2539 1.524 . S
C2541 C2538 1.403 . S
C2541 C2542 1.392 . S
C2541 C2545 1.495 . S
C2542 C2541 1.392 . S
C2542 C2543 1.385 . S
C2542 C2544 1.478 . S
C2543 H2537 0.930 . S
C2543 C2539 1.400 . S
C2543 C2542 1.385 . S
C2544 C2542 1.478 . S
C2544 C2546 1.381 . S
C2544 C2550 1.383 . S
C2545 C2541 1.495 . S
C2545 H2551 0.959 . S
C2545 H2552 0.961 . S
C2545 H2553 0.960 . S
C2546 C2544 1.381 . S
C2546 C2547 1.394 . S
C2546 H2554 0.930 . S
C2547 C2546 1.394 . S
C2547 C2548 1.383 . S
C2547 H2555 0.929 . S
C2548 C2547 1.383 . S
C2548 C2549 1.377 . S
C2549 H2533 0.930 . S
C2549 C2548 1.377 . S
C2549 C2550 1.379 . S
C2550 H2534 0.931 . S
C2550 C2544 1.383 . S
C2550 C2549 1.379 . S
H2551 C2545 0.959 . S
H2552 C2545 0.961 . S
H2553 C2545 0.960 . S
H2554 C2546 0.930 . S
H2555 C2547 0.929 . S
H2556 C2564 0.929 . S
H2557 C2566 0.930 . S
H2558 C2568 0.930 . S
H2559 C2571 0.929 . S
H2560 C2574 0.930 . S
H2561 C2576 0.960 . S
H2562 C2576 0.960 . S
H2563 C2576 0.960 . S
C2564 H2556 0.929 . S
C2564 C2565 1.377 . S
C2564 C2566 1.384 . S
C2565 C2564 1.377 . S
C2565 C2571 1.390 . S
C2566 H2557 0.930 . S
C2566 C2564 1.384 . S
C2566 C2567 1.372 . S
C2567 C2566 1.372 . S
C2567 C2568 1.400 . S
C2567 C2572 1.490 . S
C2568 H2558 0.930 . S
C2568 C2567 1.400 . S
C2568 C2571 1.386 . S
H2569 C2585 0.930 . S
H2570 C2586 0.931 . S
C2571 H2559 0.929 . S
C2571 C2565 1.390 . S
C2571 C2568 1.386 . S
C2572 C2567 1.490 . S
C2572 C2574 1.395 . S
C2572 C2575 1.403 . S
H2573 C2579 0.930 . S
C2574 H2560 0.930 . S
C2574 C2572 1.395 . S
C2574 C2577 1.403 . S
C2575 C2572 1.403 . S
C2575 C2576 1.524 . S
C2575 C2579 1.400 . S
C2576 H2561 0.960 . S
C2576 H2562 0.960 . S
C2576 H2563 0.960 . S
C2576 C2575 1.524 . S
C2577 C2574 1.403 . S
C2577 C2578 1.392 . S
C2577 C2581 1.495 . S
C2578 C2577 1.392 . S
C2578 C2579 1.385 . S
C2578 C2580 1.478 . S
C2579 H2573 0.930 . S
C2579 C2575 1.400 . S
C2579 C2578 1.385 . S
C2580 C2578 1.478 . S
C2580 C2582 1.381 . S
C2580 C2586 1.383 . S
C2581 C2577 1.495 . S
C2581 H2587 0.959 . S
C2581 H2588 0.961 . S
C2581 H2589 0.960 . S
C2582 C2580 1.381 . S
C2582 C2583 1.394 . S
C2582 H2590 0.930 . S
C2583 C2582 1.394 . S
C2583 C2584 1.383 . S
C2583 H2591 0.929 . S
C2584 C2583 1.383 . S
C2584 C2585 1.377 . S
C2585 H2569 0.930 . S
C2585 C2584 1.377 . S
C2585 C2586 1.379 . S
C2586 H2570 0.931 . S
C2586 C2580 1.383 . S
C2586 C2585 1.379 . S
H2587 C2581 0.959 . S
H2588 C2581 0.961 . S
H2589 C2581 0.960 . S
H2590 C2582 0.930 . S
H2591 C2583 0.929 . S
C892 C689 1.391 . S
C873 C74 1.324 . S
C928 C694 0.668 . S
C909 C142 0.932 . S
C964 C695 1.400 . S
C945 C231 1.338 . S
C981 C322 1.333 . S
C1000 C699 1.423 . S
C1017 C406 0.954 . S
C1036 C702 0.652 . S
C1072 C703 1.414 . S
C1053 C494 1.334 . S
C1089 C562 1.347 . S
C1108 C680 1.436 . S
C1125 C651 1.326 . S
C1144 C696 1.420 . S
C1180 C734 1.416 . S
C1161 C58 1.350 . S
C1197 C151 1.386 . S
C1216 C760 1.413 . S
C1252 C712 2.413 . S
C1233 C224 2.336 . S
C1288 C767 1.303 . S
C1269 C315 1.282 . S
C1305 C399 1.293 . S
C1324 C721 1.348 . S
C1360 C763 1.447 . S
C1341 C478 1.344 . S
C1377 C571 1.376 . S
C1396 C727 1.437 . S
C1413 C644 2.315 . S
C1432 C758 2.399 . S
C1449 C67 2.322 . S
C1468 C766 2.393 . S
C1485 C392 1.385 . S
C1504 C753 1.398 . S
C1540 C731 2.415 . S
C1521 C487 2.340 . S
C1576 C759 1.286 . S
C1557 C578 1.283 . S
C1593 C658 1.346 . S
C1612 C726 1.449 . S
C1629 C238 1.342 . S
C1648 C744 1.408 . S
C1684 C735 1.454 . S
C1665 C308 1.388 . S
C1701 C158 1.288 . S
C1720 C728 1.301 . S
C1737 C662 1.314 . S
C1756 C790 1.315 . S
C1773 C394 0.948 . S
C1792 C785 0.517 . S
C1828 C799 1.311 . S
C1809 C483 1.293 . S
C1864 C776 1.427 . S
C1845 C574 1.311 . S
C1881 C154 0.954 . S
C1900 C792 0.493 . S
C1936 C791 1.296 . S
C1917 C242 1.289 . S
C1953 C310 1.300 . S
C1972 C795 1.392 . S
C1989 C63 1.303 . S
C2008 C798 1.350 . S
C2025 C646 1.349 . S
C2044 C824 1.436 . S
C2080 C840 1.405 . S
C2061 C403 1.409 . S
C2097 C476 2.340 . S
C2116 C822 2.452 . S
C2133 C567 1.302 . S
C2152 C855 1.300 . S
C2188 C831 1.315 . S
C2169 C147 1.272 . S
C2205 C226 1.373 . S
C2224 C849 1.418 . S
C2260 C827 1.404 . S
C2241 C319 1.354 . S
C2296 C862 2.445 . S
C2277 C56 2.357 . S
C2332 C854 2.447 . S
C2313 C655 2.354 . S
C2349 C140 1.420 . S
C2368 C859 1.407 . S
C2385 C235 2.337 . S
C2404 C830 2.443 . S
C2440 C863 1.307 . S
C2421 C326 1.295 . S
C2457 C70 1.365 . S
C2476 C817 1.461 . S
C2493 C490 1.357 . S
C2512 C856 1.453 . S
C2548 C808 1.377 . S
C2529 C560 1.368 . S
C2584 C823 1.253 . S
C2565 C410 1.275 . S
