# Generated by pormake.
# Topology scu, (8,4)-cn, num edge types: 1
# Building blocks:
#     Node 0, Type 0, BuildingBlock: VETTIZ_charged_sbu_0, # of connection points: 8
#     Node 1, Type 1, BuildingBlock: KOZSID_clean_sbu_0, # of connection points: 4
#     Node 2, Type 1, BuildingBlock: KOZSID_clean_sbu_0, # of connection points: 4
#     Edge 3, Type (0, 1), BuildingBlock: FUNLAD_clean_linker_1, # of connection points: 2
#     Edge 4, Type (0, 1), BuildingBlock: FUNLAD_clean_linker_1, # of connection points: 2
#     Edge 5, Type (0, 1), BuildingBlock: FUNLAD_clean_linker_1, # of connection points: 2
#     Edge 6, Type (0, 1), BuildingBlock: FUNLAD_clean_linker_1, # of connection points: 2
#     Edge 7, Type (0, 1), BuildingBlock: FUNLAD_clean_linker_1, # of connection points: 2
#     Edge 8, Type (0, 1), BuildingBlock: FUNLAD_clean_linker_1, # of connection points: 2
#     Edge 9, Type (0, 1), BuildingBlock: FUNLAD_clean_linker_1, # of connection points: 2
#     Edge 10, Type (0, 1), BuildingBlock: FUNLAD_clean_linker_1, # of connection points: 2
# Relax obj value: 0.002
# Max RMSD: 0.027
# Mean RMSD: 0.015
data_MOF--net-scu--node1-VETTIZ_charged_sbu_0--node2-KOZSID_clean_sbu_0--edge1-FUNLAD_clean_linker_1
_symmetry_space_group_name_H-M    P1
_symmetry_Int_Tables_number       1
_symmetry_cell_setting            triclinic
loop_
_symmetry_equiv_pos_as_xyz
'x, y, z'
_cell_length_a     29.896811
_cell_length_b     29.357996
_cell_length_c     21.468059
_cell_angle_alpha  86.152892
_cell_angle_beta   85.532863
_cell_angle_gamma 90.917688
loop_
_atom_site_label
_atom_site_type_symbol
_atom_site_fract_x
_atom_site_fract_y
_atom_site_fract_z
_atom_type_partial_charge
Fe0 Fe 0.00275 1.00857 0.07931 0.0
O1 O 0.96338 0.01508 0.00797 0.0
Fe2 Fe 0.0954 0.95288 0.01409 0.0
Fe3 Fe 0.91998 0.06462 1.0008 0.0
O4 O 0.05108 1.00146 0.01102 0.0
O5 O 0.05162 1.00184 1.00426 0.0
O6 O 0.96371 0.01478 1.00091 0.0
Fe7 Fe 0.01255 1.00896 0.93241 0.0
C8 C 0.90265 0.01588 0.12972 0.0
O9 O 0.01588 0.07789 0.0742 0.0
O10 O 0.94667 0.10327 0.06778 0.0
O11 O 0.07097 1.00338 0.87131 0.0
O12 O 0.12766 0.99025 0.93793 0.0
O13 O 0.1175 0.9899 0.08427 0.0
O14 O 0.0522 1.00266 0.14476 0.0
O15 O 0.9551 0.1052 0.93058 0.0
O16 O 0.0248 0.07931 0.92371 0.0
C17 C 0.09586 1.00111 0.13563 0.0
O18 O 1.00113 0.93864 0.9328 0.0
O19 O 0.06962 0.9135 0.94909 0.0
O20 O 0.94489 0.0157 0.14158 0.0
O21 O 0.8879 0.02627 0.07544 0.0
C22 C 0.98666 0.10815 0.08346 0.0
C23 C 0.9964 0.11009 0.9117 0.0
C24 C 0.91925 0.01868 0.87689 0.0
O25 O 0.89772 0.02933 0.9288 0.0
O26 O 0.96286 0.01589 0.86757 0.0
C27 C 0.11309 1.00181 0.88369 0.0
O28 O 0.05931 0.91267 0.08532 0.0
O29 O 0.98967 0.93895 0.08941 0.0
C30 C 0.03134 0.90845 0.92823 0.0
C31 C 0.01752 0.90798 0.10236 0.0
C32 C 0.03722 0.57243 0.40387 0.0
C33 C 0.08076 0.58188 0.37725 0.0
C34 C 0.10903 0.55682 0.41182 0.0
C35 C 0.08181 0.53317 0.45725 0.0
N36 N 0.03764 0.54107 0.45369 0.0
Co37 Co 0.98744 0.51006 0.50927 0.0
N38 N 0.02994 0.4746 0.56099 0.0
C39 C 0.07485 0.48117 0.55765 0.0
C40 C 0.09539 0.45749 0.60406 0.0
C41 C 0.06162 0.43352 0.63861 0.0
C42 C 0.02236 0.44234 0.60953 0.0
N43 N 0.93727 0.47709 0.56323 0.0
C44 C 0.93798 0.44273 0.60938 0.0
C45 C 0.89447 0.42925 0.63199 0.0
C46 C 0.86587 0.45492 0.59863 0.0
C47 C 0.89292 0.48261 0.55749 0.0
N48 N 0.94496 0.54717 0.45918 0.0
C49 C 0.89966 0.5447 0.46737 0.0
C50 C 0.87876 0.57183 0.42478 0.0
C51 C 0.91265 0.59394 0.38803 0.0
C52 C 0.95277 0.58028 0.41152 0.0
N53 N 0.98647 0.46002 0.45039 0.0
C54 C 0.98296 0.38743 0.3694 0.0
C55 C 0.94514 0.41273 0.38535 0.0
C56 C 0.94752 0.44825 0.42521 0.0
C57 C 0.02311 0.39945 0.39475 0.0
C58 C 0.02406 0.43561 0.43478 0.0
N59 N 0.98799 0.56038 0.56814 0.0
C60 C 0.9469 0.61018 0.63698 0.0
C61 C 0.98585 0.63427 0.64772 0.0
C62 C 0.02639 0.62022 0.61818 0.0
C63 C 0.02666 0.58352 0.57896 0.0
C64 C 0.9486 0.57416 0.59751 0.0
H65 H 0.05852 0.57471 0.55759 0.0
H66 H 0.91722 0.55843 0.59113 0.0
H67 H 0.91706 0.46537 0.43525 0.0
H68 H 0.05546 0.44309 0.45311 0.0
C69 C 0.09699 0.50693 0.50749 0.0
C70 C 0.99748 0.5979 0.38526 0.0
C71 C 0.97867 0.41971 0.62964 0.0
C72 C 0.87773 0.51436 0.51302 0.0
H73 H 0.09204 0.60549 0.33828 0.0
H74 H 0.14533 0.55712 0.40587 0.0
H75 H 0.13077 0.45738 0.61161 0.0
H76 H 0.06587 0.41216 0.68064 0.0
H77 H 0.88369 0.40307 0.66799 0.0
H78 H 0.82955 0.45309 0.60321 0.0
H79 H 0.8431 0.57429 0.41989 0.0
H80 H 0.90781 0.61644 0.34739 0.0
H81 H 0.91322 0.40494 0.36731 0.0
H82 H 0.05363 0.38116 0.38468 0.0
H83 H 0.91465 0.61944 0.65864 0.0
H84 H 0.05792 0.63693 0.62516 0.0
C85 C 0.43778 0.96057 0.59178 0.0
C86 C 0.42521 0.91654 0.61541 0.0
C87 C 0.45406 0.88763 0.58662 0.0
C88 C 0.48291 0.91542 0.54795 0.0
N89 N 0.47509 0.96041 0.55153 0.0
Co90 Co 0.50884 0.01212 0.50248 0.0
N91 N 0.54586 0.96936 0.45088 0.0
C92 C 0.5415 0.92327 0.45456 0.0
C93 C 0.57316 0.90235 0.41787 0.0
C94 C 0.60034 0.93679 0.39038 0.0
C95 C 0.58346 0.97758 0.41116 0.0
N96 N 0.54339 0.06376 0.45435 0.0
C97 C 0.58197 0.06331 0.4166 0.0
C98 C 0.59659 0.10732 0.39583 0.0
C99 C 0.56762 0.13648 0.42379 0.0
C100 C 0.53684 0.10884 0.45941 0.0
N101 N 0.47111 0.05495 0.55312 0.0
C102 C 0.47384 0.10115 0.54693 0.0
C103 C 0.44054 0.1221 0.58061 0.0
C104 C 0.41401 0.0875 0.60893 0.0
C105 C 0.43321 0.04663 0.59224 0.0
N106 N 0.55524 1.01097 0.56426 0.0
C107 C 0.62997 0.01282 0.63675 0.0
C108 C 0.60466 0.05171 0.62647 0.0
C109 C 0.56792 0.05018 0.59007 0.0
C110 C 0.61572 0.97225 0.61327 0.0
C111 C 0.57828 0.97201 0.57807 0.0
N112 N 0.46231 0.01328 0.44074 0.0
C113 C 0.40544 0.05406 0.38627 0.0
C114 C 0.38572 0.01302 0.37148 0.0
C115 C 0.40689 0.97251 0.38816 0.0
C116 C 0.4447 0.97335 0.42246 0.0
C117 C 0.44367 0.05338 0.42013 0.0
H118 H 0.45827 0.94108 0.4352 0.0
H119 H 0.45695 0.0857 0.43009 0.0
H120 H 0.55099 0.08143 0.58225 0.0
H121 H 0.56917 0.94001 0.56164 0.0
C122 C 0.51299 0.90026 0.50133 0.0
C123 C 0.41211 1.00097 0.60765 0.0
C124 C 0.60682 0.02251 0.40024 0.0
C125 C 0.50462 0.12401 0.50312 0.0
H126 H 0.39712 0.90623 0.6485 0.0
H127 H 0.45265 0.85067 0.5909 0.0
H128 H 0.57822 0.86606 0.41551 0.0
H129 H 0.63058 0.93068 0.3621 0.0
H130 H 0.62607 0.11741 0.36531 0.0
H131 H 0.57001 0.1734 0.42092 0.0
H132 H 0.43436 0.15833 0.58085 0.0
H133 H 0.38264 0.09325 0.63496 0.0
H134 H 0.61395 0.08367 0.64499 0.0
H135 H 0.63305 0.94066 0.62223 0.0
H136 H 0.39177 0.08667 0.37193 0.0
H137 H 0.39349 0.93993 0.37639 0.0
H138 H 0.03391 0.15137 0.12947 0.0
C139 C 0.99921 0.14804 0.11828 0.0
H140 H 0.93399 0.17387 0.13188 0.0
H141 H 0.96542 0.26437 0.384 0.0
H142 H 0.91795 0.19913 0.42184 0.0
H143 H 0.89863 0.1404 0.3509 0.0
H144 H 0.92715 0.14622 0.24186 0.0
C145 C 0.96918 0.17816 0.14002 0.0
C146 C 0.98136 0.21433 0.18247 0.0
C147 C 0.96366 0.21118 0.246 0.0
C148 C 0.97403 0.24572 0.28675 0.0
C149 C 0.95743 0.24019 0.35048 0.0
C150 C 0.93041 0.20265 0.373 0.0
C151 C 0.91959 0.16954 0.3331 0.0
C152 C 0.93609 0.17343 0.27046 0.0
H153 H 0.94406 0.34195 0.31423 0.0
C154 C 0.97772 0.3489 0.32768 0.0
H155 H 0.04526 0.32825 0.31512 0.0
H156 H 0.01899 0.23286 0.06299 0.0
H157 H 0.06667 0.29798 0.02514 0.0
H158 H 0.08489 0.35745 0.09554 0.0
H159 H 0.05553 0.35222 0.20438 0.0
C160 C 0.01071 0.32197 0.30558 0.0
C161 C 1.00122 0.28433 0.26374 0.0
C162 C 0.01934 0.28717 0.20037 0.0
C163 C 0.0092 0.25245 0.15971 0.0
C164 C 0.02645 0.25744 0.09625 0.0
C165 C 0.05365 0.29486 0.07376 0.0
C166 C 0.06388 0.32836 0.1134 0.0
C167 C 0.04689 0.32487 0.17587 0.0
H168 H 0.84013 0.98169 0.16843 0.0
C169 C 0.86749 1.00359 0.18019 0.0
H170 H 0.88659 0.05222 0.24157 0.0
H171 H 0.676 0.08888 0.28258 0.0
H172 H 0.70394 0.15934 0.22667 0.0
H173 H 0.78406 0.16942 0.19037 0.0
H174 H 0.83657 0.10884 0.20918 0.0
C175 C 0.86191 0.02647 0.23223 0.0
C176 C 0.81699 0.02459 0.26828 0.0
C177 C 0.78715 0.06117 0.25974 0.0
C178 C 0.7411 0.05582 0.28218 0.0
C179 C 0.7115 0.09166 0.26868 0.0
C180 C 0.72706 0.1322 0.23616 0.0
C181 C 0.77214 0.13784 0.21561 0.0
C182 C 0.80193 0.10276 0.22672 0.0
H183 H 0.67185 0.05534 0.40141 0.0
C184 C 0.65351 0.02798 0.38214 0.0
H185 H 0.65821 0.98647 0.30233 0.0
H186 H 0.86668 0.95087 0.3004 0.0
H187 H 0.83987 0.88185 0.3619 0.0
H188 H 0.76077 0.87345 0.40407 0.0
H189 H 0.70795 0.93381 0.3848 0.0
C190 C 0.6764 1.00641 0.3331 0.0
C191 C 0.72538 0.01459 0.31567 0.0
C192 C 0.75609 0.97947 0.3284 0.0
C193 C 0.80181 0.98436 0.30436 0.0
C194 C 0.83155 0.94851 0.31704 0.0
C195 C 0.81665 0.90891 0.3525 0.0
C196 C 0.7721 0.90418 0.37623 0.0
C197 C 0.74205 0.93896 0.36456 0.0
H198 H 0.96518 0.86446 0.15769 0.0
C199 C 1.00068 0.86661 0.14221 0.0
H200 H 0.06357 0.83594 0.14868 0.0
H201 H 0.02834 0.71893 0.40279 0.0
H202 H 0.07933 0.77793 0.43073 0.0
H203 H 0.09972 0.84471 0.35768 0.0
H204 H 0.06935 0.8532 0.25628 0.0
C205 C 0.02777 0.83305 0.16201 0.0
C206 C 0.01192 0.79387 0.20788 0.0
C207 C 0.02991 0.7892 0.26735 0.0
C208 C 0.01796 0.75059 0.30986 0.0
C209 C 0.03637 0.74733 0.36876 0.0
C210 C 0.06563 0.78098 0.38546 0.0
C211 C 0.07714 0.8186 0.3443 0.0
C212 C 0.05957 0.8229 0.28603 0.0
H213 H 0.03459 0.64147 0.31207 0.0
C214 C 0.00381 0.63747 0.34206 0.0
H215 H 0.9472 0.6786 0.37187 0.0
H216 H 0.97249 0.78965 0.09729 0.0
H217 H 0.91953 0.73189 0.07154 0.0
H218 H 0.89785 0.66626 0.14606 0.0
H219 H 0.92877 0.65818 0.24734 0.0
C220 C 0.9757 0.67553 0.3381 0.0
C221 C 0.98803 0.71626 0.2933 0.0
C222 C 0.96944 0.72118 0.23441 0.0
C223 C 0.98159 0.75964 0.19154 0.0
C224 C 0.96357 0.76222 0.13237 0.0
C225 C 0.93341 0.729 0.11669 0.0
C226 C 0.92116 0.69204 0.15869 0.0
C227 C 0.93905 0.68787 0.21674 0.0
H228 H 0.10705 0.02582 0.22926 0.0
C229 C 0.12342 0.01295 0.1872 0.0
H230 H 0.18488 0.99637 0.13942 0.0
H231 H 0.32595 0.11038 0.25588 0.0
H232 H 0.31679 0.15814 0.1612 0.0
H233 H 0.25332 0.14502 0.09726 0.0
H234 H 0.19863 0.08393 0.12753 0.0
C235 C 0.1684 1.00828 0.18204 0.0
C236 C 0.19901 0.02264 0.22905 0.0
C237 C 0.23008 0.0592 0.21181 0.0
C238 C 0.26638 0.06713 0.24909 0.0
C239 C 0.29756 0.10307 0.22957 0.0
C240 C 0.29271 0.13074 0.17531 0.0
C241 C 0.25701 0.12332 0.13926 0.0
C242 C 0.22599 0.08802 0.15702 0.0
H243 H 0.33747 0.97995 0.31465 0.0
C244 C 0.34394 1.01081 0.33815 0.0
H245 H 0.31729 0.07448 0.36185 0.0
H246 H 0.1439 0.95153 0.27836 0.0
H247 H 0.15014 0.90756 0.37694 0.0
H248 H 0.21097 0.9238 0.44393 0.0
H249 H 0.26641 0.98397 0.41246 0.0
C250 C 0.31269 0.04339 0.33826 0.0
C251 C 0.27158 0.03854 0.30375 0.0
C252 C 0.23843 1.00442 0.32384 0.0
C253 C 0.20244 0.99599 0.28603 0.0
C254 C 0.17128 0.96012 0.30575 0.0
C255 C 0.17453 0.9345 0.3622 0.0
C256 C 0.20884 0.94361 0.39992 0.0
C257 C 0.24055 0.97807 0.38117 0.0
H258 H 0.05073 0.84077 0.89899 0.0
C259 C 0.02471 0.86608 0.89542 0.0
H260 H 0.96736 0.88481 0.84936 0.0
H261 H 0.01694 0.77032 0.61439 0.0
H262 H 0.01922 0.8481 0.56846 0.0
H263 H 0.01057 0.91316 0.63501 0.0
H264 H 0.99928 0.90096 0.74784 0.0
C265 C 0.99226 0.85887 0.85682 0.0
C266 C 0.99426 0.81871 0.81642 0.0
C267 C 1.00091 0.82624 0.75023 0.0
C268 C 0.00672 0.78859 0.71169 0.0
C269 C 0.013 0.79749 0.64589 0.0
C270 C 0.01428 0.842 0.61885 0.0
C271 C 0.00935 0.87863 0.65632 0.0
C272 C 0.0028 0.87108 0.72116 0.0
H273 H 0.94947 0.67652 0.7163 0.0
C274 C 0.9818 0.67279 0.69038 0.0
H275 H 0.04631 0.70346 0.67042 0.0
H276 H 0.9758 0.79086 0.94006 0.0
H277 H 0.97688 0.71325 0.9863 0.0
H278 H 0.9923 0.6488 0.92057 0.0
H279 H 0.00651 0.66131 0.80806 0.0
C280 C 0.01432 0.70397 0.69784 0.0
C281 C 0.00619 0.74312 0.73897 0.0
C282 C 0.99914 0.73552 0.80514 0.0
C283 C 0.99219 0.77311 0.84359 0.0
C284 C 0.9832 0.76397 0.90901 0.0
C285 C 0.98326 0.71953 0.93615 0.0
C286 C 0.99186 0.68321 0.89909 0.0
C287 C 0.99971 0.69088 0.83441 0.0
H288 H 0.16717 0.04585 0.83649 0.0
C289 C 0.1481 0.01438 0.83323 0.0
H290 H 0.14722 0.95022 0.79532 0.0
H291 H 0.30395 0.07574 0.61392 0.0
H292 H 0.24234 0.12131 0.57919 0.0
H293 H 0.16505 0.10654 0.62609 0.0
H294 H 0.14888 0.04619 0.70817 0.0
C295 C 0.16402 0.98342 0.79434 0.0
C296 C 0.20959 0.98969 0.76057 0.0
C297 C 0.2184 0.02469 0.71211 0.0
C298 C 0.26297 0.03293 0.68458 0.0
C299 C 0.27082 0.06823 0.63657 0.0
C300 C 0.23574 0.09451 0.61607 0.0
C301 C 0.19222 0.08621 0.64251 0.0
C302 C 0.18342 0.05167 0.68985 0.0
H303 H 0.34823 0.96474 0.61759 0.0
C304 C 0.36666 0.99407 0.63169 0.0
H305 H 0.36515 0.0395 0.70713 0.0
H306 H 0.20434 0.91781 0.84961 0.0
H307 H 0.26558 0.87088 0.88131 0.0
H308 H 0.34258 0.88515 0.83314 0.0
H309 H 0.35878 0.9466 0.75291 0.0
C310 C 0.34576 0.01731 0.68055 0.0
C311 C 0.29862 1.00604 0.70526 0.0
C312 C 0.28955 0.9698 0.75173 0.0
C313 C 0.24503 0.96149 0.77926 0.0
C314 C 0.23728 0.92551 0.82648 0.0
C315 C 0.2722 0.8983 0.84531 0.0
C316 C 0.31556 0.90634 0.81823 0.0
C317 C 0.32437 0.94172 0.77216 0.0
H318 H 0.04572 0.15478 0.85149 0.0
C319 C 0.01097 0.15165 0.87047 0.0
H320 H 0.94697 0.18144 0.87314 0.0
H321 H 0.00871 0.38285 0.78125 0.0
H322 H 0.00351 0.3902 0.89326 0.0
H323 H 0.9933 0.32229 0.96735 0.0
H324 H 0.98915 0.24629 0.92985 0.0
C325 C 0.98157 0.18401 0.85343 0.0
C326 C 0.9934 0.22452 0.80809 0.0
C327 C 0.9953 0.26895 0.83021 0.0
C328 C 1.00022 0.3084 0.78717 0.0
C329 C 0.00363 0.35191 0.81137 0.0
C330 C 1.001 0.35662 0.8757 0.0
C331 C 0.99535 0.31835 0.91745 0.0
C332 C 0.99275 0.27496 0.89528 0.0
H333 H 0.94302 0.36959 0.69611 0.0
C334 C 0.97462 0.3783 0.66967 0.0
H335 H 0.03734 0.34644 0.64238 0.0
H336 H 0.99035 0.14511 0.74888 0.0
H337 H 0.99471 0.13751 0.63687 0.0
H338 H 0.00274 0.20545 0.56251 0.0
H339 H 0.00616 0.2815 0.5996 0.0
C340 C 0.00802 0.34505 0.67562 0.0
C341 C 0.00231 0.30373 0.72149 0.0
C342 C 1.00118 0.25918 0.69937 0.0
C343 C 0.99662 0.21973 0.74249 0.0
C344 C 0.99421 0.17607 0.71853 0.0
C345 C 0.9966 0.17121 0.65427 0.0
C346 C 1.00114 0.20947 0.61239 0.0
C347 C 0.00328 0.25297 0.63437 0.0
H348 H 0.90583 0.98993 0.78662 0.0
C349 C 0.89144 1.00874 0.82496 0.0
H350 H 0.83428 0.0407 0.86446 0.0
H351 H 0.763 0.03013 0.58366 0.0
H352 H 0.82945 0.07462 0.54316 0.0
H353 H 0.88986 0.09017 0.61135 0.0
H354 H 0.88461 0.06092 0.71998 0.0
C355 C 0.84841 0.02204 0.82579 0.0
C356 C 0.81605 1.00799 0.78087 0.0
C357 C 0.81976 0.02561 0.71742 0.0
C358 C 0.7844 0.01755 0.67837 0.0
C359 C 0.78875 0.03553 0.61531 0.0
C360 C 0.82666 0.06113 0.59153 0.0
C361 C 0.86071 0.06983 0.6299 0.0
C362 C 0.85737 0.0526 0.69221 0.0
H363 H 0.6705 0.04092 0.70785 0.0
C364 C 0.66993 0.01531 0.67357 0.0
H365 H 0.70806 0.96522 0.6279 0.0
H366 H 0.80021 0.96524 0.8981 0.0
H367 H 0.73389 0.92063 0.93787 0.0
H368 H 0.67224 0.90803 0.87056 0.0
H369 H 0.67659 0.94 0.76303 0.0
C370 C 0.70602 0.98897 0.66462 0.0
C371 C 0.74501 0.9931 0.70325 0.0
C372 C 0.74219 0.97383 0.76573 0.0
C373 C 0.77772 0.98119 0.80448 0.0
C374 C 0.77394 0.96139 0.86679 0.0
C375 C 0.73615 0.93546 0.89015 0.0
C376 C 0.70146 0.92836 0.85226 0.0
C377 C 0.7043 0.9471 0.7907 0.0
loop_
_geom_bond_atom_site_label_1
_geom_bond_atom_site_label_2
_geom_bond_distance
_geom_bond_site_symmetry_2
_ccdc_geom_bond_type
Fe0 O1 1.886 1_565 S
Fe0 O4 1.715 1_655 S
Fe0 O9 2.077 1_565 S
Fe0 O14 1.935 1_665 S
Fe0 O20 2.077 . S
Fe0 O29 1.935 . S
O1 Fe0 1.886 1_545 S
O1 Fe3 1.715 1_554 S
Fe2 O4 1.886 . S
Fe2 O5 1.715 1_554 S
Fe2 O12 1.935 1_554 S
Fe2 O13 2.077 . S
Fe2 O19 1.935 1_554 S
Fe2 O28 2.077 . S
Fe3 O1 1.715 1_556 S
Fe3 O6 1.886 . S
Fe3 O10 1.935 1_556 S
Fe3 O15 2.077 . S
Fe3 O21 1.935 1_556 S
Fe3 O25 2.077 . S
O4 Fe0 1.715 1_455 S
O4 Fe2 1.886 . S
O5 Fe2 1.715 1_556 S
O5 Fe7 1.886 1_565 S
O6 Fe3 1.886 . S
O6 Fe7 1.715 1_655 S
Fe7 O5 1.886 1_545 S
Fe7 O6 1.715 1_455 S
Fe7 O11 2.077 . S
Fe7 O16 1.935 . S
Fe7 O18 2.077 1_545 S
Fe7 O26 1.935 1_445 S
C8 O20 1.381 1_545 S
C8 O21 1.421 . S
O9 Fe0 2.077 1_545 S
O9 C22 1.381 . S
O10 Fe3 1.935 1_554 S
O10 C22 1.421 . S
O11 Fe7 2.077 . S
O11 C27 1.381 1_545 S
O12 Fe2 1.935 1_556 S
O12 C27 1.421 . S
O13 Fe2 2.077 . S
O13 C17 1.381 . S
O14 Fe0 1.935 1_445 S
O14 C17 1.421 1_545 S
O15 Fe3 2.077 . S
O15 C23 1.381 . S
O16 Fe7 1.935 . S
O16 C23 1.421 1_455 S
C17 O13 1.381 . S
C17 O14 1.421 1_565 S
O18 Fe7 2.077 1_565 S
O18 C30 1.381 . S
O19 Fe2 1.935 1_556 S
O19 C30 1.421 . S
O20 Fe0 2.077 . S
O20 C8 1.381 1_565 S
O21 Fe3 1.935 1_554 S
O21 C8 1.421 . S
C22 O9 1.381 . S
C22 O10 1.421 . S
C23 O15 1.381 . S
C23 O16 1.421 1_655 S
C24 O25 1.381 . S
C24 O26 1.421 1_545 S
O25 Fe3 2.077 . S
O25 C24 1.381 . S
O26 Fe7 1.935 1_665 S
O26 C24 1.421 1_565 S
C27 O11 1.381 1_565 S
C27 O12 1.421 . S
O28 Fe2 2.077 . S
O28 C31 1.381 . S
O29 Fe0 1.935 . S
O29 C31 1.421 1_655 S
C30 O18 1.381 . S
C30 O19 1.421 . S
C31 O28 1.381 . S
C31 O29 1.421 1_455 S
C32 C33 1.443 . S
C32 N36 1.376 . S
C32 C70 1.404 . S
C33 C32 1.443 . S
C33 C34 1.340 . S
C33 H73 0.951 . S
C34 C33 1.340 . S
C34 C35 1.439 . S
C34 H74 0.950 . S
C35 C34 1.439 . S
C35 N36 1.374 . S
C35 C69 1.395 . S
N36 C32 1.376 . S
N36 C35 1.374 . S
N36 Co37 2.008 . S
Co37 N36 2.008 . S
Co37 N38 1.995 . S
Co37 N43 2.008 1_455 S
Co37 N48 1.995 1_455 S
Co37 N53 2.282 . S
Co37 N59 2.282 1_455 S
N38 Co37 1.995 . S
N38 C39 1.376 . S
N38 C42 1.383 . S
C39 N38 1.376 . S
C39 C40 1.446 . S
C39 C69 1.391 . S
C40 C39 1.446 . S
C40 C41 1.339 . S
C40 H75 0.949 . S
C41 C40 1.339 . S
C41 C42 1.439 . S
C41 H76 0.950 . S
C42 N38 1.383 . S
C42 C41 1.439 . S
C42 C71 1.383 1_455 S
N43 Co37 2.008 1_655 S
N43 C44 1.376 . S
N43 C47 1.374 . S
C44 N43 1.376 . S
C44 C45 1.443 . S
C44 C71 1.398 . S
C45 C44 1.443 . S
C45 C46 1.340 . S
C45 H77 0.951 . S
C46 C45 1.340 . S
C46 C47 1.439 . S
C46 H78 0.950 . S
C47 N43 1.374 . S
C47 C46 1.439 . S
C47 C72 1.395 . S
N48 Co37 1.995 1_655 S
N48 C49 1.376 . S
N48 C52 1.383 . S
C49 N48 1.376 . S
C49 C50 1.446 . S
C49 C72 1.391 . S
C50 C49 1.446 . S
C50 C51 1.339 . S
C50 H79 0.949 . S
C51 C50 1.339 . S
C51 C52 1.439 . S
C51 H80 0.950 . S
C52 N48 1.383 . S
C52 C51 1.439 . S
C52 C70 1.378 1_655 S
N53 Co37 2.282 . S
N53 C56 1.332 1_455 S
N53 C58 1.332 . S
C54 C55 1.375 1_455 S
C54 C57 1.400 . S
C55 C54 1.375 1_655 S
C55 C56 1.382 . S
C55 H81 0.950 . S
C56 N53 1.332 1_655 S
C56 C55 1.382 . S
C56 H67 0.952 . S
C57 C54 1.400 . S
C57 C58 1.382 . S
C57 H82 0.950 . S
C58 N53 1.332 . S
C58 C57 1.382 . S
C58 H68 0.948 . S
N59 Co37 2.282 1_655 S
N59 C63 1.332 1_655 S
N59 C64 1.332 . S
C60 C61 1.395 . S
C60 C64 1.382 . S
C60 H83 0.950 . S
C61 C60 1.395 . S
C61 C62 1.380 1_655 S
C62 C61 1.380 1_455 S
C62 C63 1.382 . S
C62 H84 0.950 . S
C63 N59 1.332 1_455 S
C63 C62 1.382 . S
C63 H65 0.952 . S
C64 N59 1.332 . S
C64 C60 1.382 . S
C64 H66 0.948 . S
H65 C63 0.952 . S
H66 C64 0.948 . S
H67 C56 0.952 . S
H68 C58 0.948 . S
C69 C35 1.395 . S
C69 C39 1.391 . S
C70 C32 1.404 . S
C70 C52 1.378 1_455 S
C71 C42 1.383 1_655 S
C71 C44 1.398 . S
C72 C47 1.395 . S
C72 C49 1.391 . S
H73 C33 0.951 . S
H74 C34 0.950 . S
H75 C40 0.949 . S
H76 C41 0.950 . S
H77 C45 0.951 . S
H78 C46 0.950 . S
H79 C50 0.949 . S
H80 C51 0.950 . S
H81 C55 0.950 . S
H82 C57 0.950 . S
H83 C60 0.950 . S
H84 C62 0.950 . S
C85 C86 1.443 . S
C85 N89 1.376 . S
C85 C123 1.397 . S
C86 C85 1.443 . S
C86 C87 1.340 . S
C86 H126 0.951 . S
C87 C86 1.340 . S
C87 C88 1.439 . S
C87 H127 0.950 . S
C88 C87 1.439 . S
C88 N89 1.374 . S
C88 C122 1.395 . S
N89 C85 1.376 . S
N89 C88 1.374 . S
N89 Co90 2.007 1_565 S
Co90 N89 2.007 1_545 S
Co90 N91 1.993 1_545 S
Co90 N96 2.009 . S
Co90 N101 1.996 . S
Co90 N106 2.282 1_545 S
Co90 N112 2.282 . S
N91 Co90 1.993 1_565 S
N91 C92 1.376 . S
N91 C95 1.383 . S
C92 N91 1.376 . S
C92 C93 1.446 . S
C92 C122 1.391 . S
C93 C92 1.446 . S
C93 C94 1.339 . S
C93 H128 0.949 . S
C94 C93 1.339 . S
C94 C95 1.439 . S
C94 H129 0.950 . S
C95 N91 1.383 . S
C95 C94 1.439 . S
C95 C124 1.377 1_565 S
N96 Co90 2.009 . S
N96 C97 1.376 . S
N96 C100 1.374 . S
C97 N96 1.376 . S
C97 C98 1.443 . S
C97 C124 1.405 . S
C98 C97 1.443 . S
C98 C99 1.340 . S
C98 H130 0.951 . S
C99 C98 1.340 . S
C99 C100 1.439 . S
C99 H131 0.950 . S
C100 N96 1.374 . S
C100 C99 1.439 . S
C100 C125 1.395 . S
N101 Co90 1.996 . S
N101 C102 1.376 . S
N101 C105 1.383 . S
C102 N101 1.376 . S
C102 C103 1.446 . S
C102 C125 1.391 . S
C103 C102 1.446 . S
C103 C104 1.339 . S
C103 H132 0.949 . S
C104 C103 1.339 . S
C104 C105 1.439 . S
C104 H133 0.950 . S
C105 N101 1.383 . S
C105 C104 1.439 . S
C105 C123 1.384 1_545 S
N106 Co90 2.282 1_565 S
N106 C109 1.332 1_565 S
N106 C111 1.332 . S
C107 C108 1.381 1_565 S
C107 C110 1.393 . S
C108 C107 1.381 1_545 S
C108 C109 1.382 . S
C108 H134 0.950 . S
C109 N106 1.332 1_545 S
C109 C108 1.382 . S
C109 H120 0.952 . S
C110 C107 1.393 . S
C110 C111 1.382 . S
C110 H135 0.950 . S
C111 N106 1.332 . S
C111 C110 1.382 . S
C111 H121 0.948 . S
N112 Co90 2.282 . S
N112 C116 1.332 1_545 S
N112 C117 1.332 . S
C113 C114 1.401 . S
C113 C117 1.382 . S
C113 H136 0.950 . S
C114 C113 1.401 . S
C114 C115 1.373 1_545 S
C115 C114 1.373 1_565 S
C115 C116 1.382 . S
C115 H137 0.950 . S
C116 N112 1.332 1_565 S
C116 C115 1.382 . S
C116 H118 0.952 . S
C117 N112 1.332 . S
C117 C113 1.382 . S
C117 H119 0.948 . S
H118 C116 0.952 . S
H119 C117 0.948 . S
H120 C109 0.952 . S
H121 C111 0.948 . S
C122 C88 1.395 . S
C122 C92 1.391 . S
C123 C85 1.397 . S
C123 C105 1.384 1_565 S
C124 C95 1.377 1_545 S
C124 C97 1.405 . S
C125 C100 1.395 . S
C125 C102 1.391 . S
H126 C86 0.951 . S
H127 C87 0.950 . S
H128 C93 0.949 . S
H129 C94 0.950 . S
H130 C98 0.951 . S
H131 C99 0.950 . S
H132 C103 0.949 . S
H133 C104 0.950 . S
H134 C108 0.950 . S
H135 C110 0.950 . S
H136 C113 0.950 . S
H137 C115 0.950 . S
H138 C139 0.951 . S
C139 H138 0.951 . S
C139 C145 1.265 1_455 S
H140 C145 0.950 . S
H141 C149 0.949 . S
H142 C150 0.950 . S
H143 C151 0.951 . S
H144 C152 0.951 . S
C145 C139 1.265 1_655 S
C145 H140 0.950 . S
C145 C146 1.478 . S
C146 C145 1.478 . S
C146 C147 1.397 . S
C146 C163 1.394 1_655 S
C147 C146 1.397 . S
C147 C148 1.438 . S
C147 C152 1.429 . S
C148 C147 1.438 . S
C148 C149 1.428 . S
C148 C161 1.394 1_655 S
C149 H141 0.949 . S
C149 C148 1.428 . S
C149 C150 1.345 . S
C150 H142 0.950 . S
C150 C149 1.345 . S
C150 C151 1.424 . S
C151 H143 0.951 . S
C151 C150 1.424 . S
C151 C152 1.347 . S
C152 H144 0.951 . S
C152 C147 1.429 . S
C152 C151 1.347 . S
H153 C154 0.951 . S
C154 H153 0.951 . S
C154 C160 1.265 1_655 S
H155 C160 0.950 . S
H156 C164 0.949 . S
H157 C165 0.950 . S
H158 C166 0.951 . S
H159 C167 0.951 . S
C160 C154 1.265 1_455 S
C160 H155 0.950 . S
C160 C161 1.478 . S
C161 C148 1.394 1_455 S
C161 C160 1.478 . S
C161 C162 1.397 . S
C162 C161 1.397 . S
C162 C163 1.438 . S
C162 C167 1.429 . S
C163 C146 1.394 1_455 S
C163 C162 1.438 . S
C163 C164 1.428 . S
C164 H156 0.949 . S
C164 C163 1.428 . S
C164 C165 1.345 . S
C165 H157 0.950 . S
C165 C164 1.345 . S
C165 C166 1.424 . S
C166 H158 0.951 . S
C166 C165 1.424 . S
C166 C167 1.347 . S
C167 H159 0.951 . S
C167 C162 1.429 . S
C167 C166 1.347 . S
H168 C169 0.951 . S
C169 H168 0.951 . S
C169 C175 1.268 . S
H170 C175 0.947 1_545 S
H171 C179 0.949 . S
H172 C180 0.950 . S
H173 C181 0.951 . S
H174 C182 0.951 . S
C175 C169 1.268 . S
C175 H170 0.947 1_565 S
C175 C176 1.478 . S
C176 C175 1.478 . S
C176 C177 1.397 1_565 S
C176 C193 1.394 . S
C177 C176 1.397 1_545 S
C177 C178 1.438 . S
C177 C182 1.429 . S
C178 C177 1.438 . S
C178 C179 1.428 . S
C178 C191 1.394 1_545 S
C179 H171 0.949 . S
C179 C178 1.428 . S
C179 C180 1.345 . S
C180 H172 0.950 . S
C180 C179 1.345 . S
C180 C181 1.424 . S
C181 H173 0.951 . S
C181 C180 1.424 . S
C181 C182 1.347 . S
C182 H174 0.951 . S
C182 C177 1.429 . S
C182 C181 1.347 . S
H183 C184 0.951 1_545 S
C184 H183 0.951 1_565 S
C184 C190 1.265 . S
H185 C190 0.950 . S
H186 C194 0.949 . S
H187 C195 0.950 . S
H188 C196 0.951 . S
H189 C197 0.951 . S
C190 C184 1.265 . S
C190 H185 0.950 . S
C190 C191 1.478 . S
C191 C178 1.394 1_565 S
C191 C190 1.478 . S
C191 C192 1.397 . S
C192 C191 1.397 . S
C192 C193 1.438 . S
C192 C197 1.429 . S
C193 C176 1.394 . S
C193 C192 1.438 . S
C193 C194 1.428 . S
C194 H186 0.949 . S
C194 C193 1.428 . S
C194 C195 1.345 . S
C195 H187 0.950 . S
C195 C194 1.345 . S
C195 C196 1.424 . S
C196 H188 0.951 . S
C196 C195 1.424 . S
C196 C197 1.347 . S
C197 H189 0.951 . S
C197 C192 1.429 . S
C197 C196 1.347 . S
H198 C199 0.951 . S
C199 H198 0.951 . S
C199 C205 1.265 1_655 S
H200 C205 0.950 . S
H201 C209 0.949 . S
H202 C210 0.950 . S
H203 C211 0.951 . S
H204 C212 0.951 . S
C205 C199 1.265 1_455 S
C205 H200 0.950 . S
C205 C206 1.478 . S
C206 C205 1.478 . S
C206 C207 1.397 . S
C206 C223 1.394 1_455 S
C207 C206 1.397 . S
C207 C208 1.438 . S
C207 C212 1.429 . S
C208 C207 1.438 . S
C208 C209 1.428 . S
C208 C221 1.394 1_455 S
C209 H201 0.949 . S
C209 C208 1.428 . S
C209 C210 1.345 . S
C210 H202 0.950 . S
C210 C209 1.345 . S
C210 C211 1.424 . S
C211 H203 0.951 . S
C211 C210 1.424 . S
C211 C212 1.347 . S
C212 H204 0.951 . S
C212 C207 1.429 . S
C212 C211 1.347 . S
H213 C214 0.951 . S
C214 H213 0.951 . S
C214 C220 1.265 1_455 S
H215 C220 0.950 . S
H216 C224 0.949 . S
H217 C225 0.950 . S
H218 C226 0.951 . S
H219 C227 0.951 . S
C220 C214 1.265 1_655 S
C220 H215 0.950 . S
C220 C221 1.478 . S
C221 C208 1.394 1_655 S
C221 C220 1.478 . S
C221 C222 1.397 . S
C222 C221 1.397 . S
C222 C223 1.438 . S
C222 C227 1.429 . S
C223 C206 1.394 1_655 S
C223 C222 1.438 . S
C223 C224 1.428 . S
C224 H216 0.949 . S
C224 C223 1.428 . S
C224 C225 1.345 . S
C225 H217 0.950 . S
C225 C224 1.345 . S
C225 C226 1.424 . S
C226 H218 0.951 . S
C226 C225 1.424 . S
C226 C227 1.347 . S
C227 H219 0.951 . S
C227 C222 1.429 . S
C227 C226 1.347 . S
H228 C229 0.950 1_545 S
C229 H228 0.950 1_565 S
C229 C235 1.265 . S
H230 C235 0.950 . S
H231 C239 0.949 . S
H232 C240 0.950 . S
H233 C241 0.951 . S
H234 C242 0.951 . S
C235 C229 1.265 . S
C235 H230 0.950 . S
C235 C236 1.478 . S
C236 C235 1.478 . S
C236 C237 1.397 1_565 S
C236 C253 1.394 . S
C237 C236 1.397 1_545 S
C237 C238 1.438 . S
C237 C242 1.429 . S
C238 C237 1.438 . S
C238 C239 1.428 . S
C238 C251 1.394 . S
C239 H231 0.949 . S
C239 C238 1.428 . S
C239 C240 1.345 . S
C240 H232 0.950 . S
C240 C239 1.345 . S
C240 C241 1.424 . S
C241 H233 0.951 . S
C241 C240 1.424 . S
C241 C242 1.347 . S
C242 H234 0.951 . S
C242 C237 1.429 . S
C242 C241 1.347 . S
H243 C244 0.951 . S
C244 H243 0.951 . S
C244 C250 1.265 1_565 S
H245 C250 0.950 . S
H246 C254 0.949 . S
H247 C255 0.950 . S
H248 C256 0.951 . S
H249 C257 0.951 . S
C250 C244 1.265 1_545 S
C250 H245 0.950 . S
C250 C251 1.478 . S
C251 C238 1.394 . S
C251 C250 1.478 . S
C251 C252 1.397 1_545 S
C252 C251 1.397 1_565 S
C252 C253 1.438 . S
C252 C257 1.429 . S
C253 C236 1.394 . S
C253 C252 1.438 . S
C253 C254 1.428 . S
C254 H246 0.949 . S
C254 C253 1.428 . S
C254 C255 1.345 . S
C255 H247 0.950 . S
C255 C254 1.345 . S
C255 C256 1.424 . S
C256 H248 0.951 . S
C256 C255 1.424 . S
C256 C257 1.347 . S
C257 H249 0.951 . S
C257 C252 1.429 . S
C257 C256 1.347 . S
H258 C259 0.951 . S
C259 H258 0.951 . S
C259 C265 1.265 1_455 S
H260 C265 0.950 . S
H261 C269 0.949 . S
H262 C270 0.950 . S
H263 C271 0.951 . S
H264 C272 0.951 . S
C265 C259 1.265 1_655 S
C265 H260 0.950 . S
C265 C266 1.478 . S
C266 C265 1.478 . S
C266 C267 1.397 . S
C266 C283 1.394 . S
C267 C266 1.397 . S
C267 C268 1.438 1_655 S
C267 C272 1.429 . S
C268 C267 1.438 1_455 S
C268 C269 1.428 . S
C268 C281 1.394 . S
C269 H261 0.949 . S
C269 C268 1.428 . S
C269 C270 1.345 . S
C270 H262 0.950 . S
C270 C269 1.345 . S
C270 C271 1.424 1_455 S
C271 H263 0.951 . S
C271 C270 1.424 1_655 S
C271 C272 1.347 . S
C272 H264 0.951 . S
C272 C267 1.429 . S
C272 C271 1.347 . S
H273 C274 0.951 . S
C274 H273 0.951 . S
C274 C280 1.265 1_655 S
H275 C280 0.950 . S
H276 C284 0.949 . S
H277 C285 0.950 . S
H278 C286 0.951 . S
H279 C287 0.951 . S
C280 C274 1.265 1_455 S
C280 H275 0.950 . S
C280 C281 1.478 . S
C281 C268 1.394 . S
C281 C280 1.478 . S
C281 C282 1.397 . S
C282 C281 1.397 . S
C282 C283 1.438 1_455 S
C282 C287 1.429 . S
C283 C266 1.394 . S
C283 C282 1.438 1_655 S
C283 C284 1.428 . S
C284 H276 0.949 . S
C284 C283 1.428 . S
C284 C285 1.345 . S
C285 H277 0.950 . S
C285 C284 1.345 . S
C285 C286 1.424 1_655 S
C286 H278 0.951 . S
C286 C285 1.424 1_455 S
C286 C287 1.347 . S
C287 H279 0.951 . S
C287 C282 1.429 . S
C287 C286 1.347 . S
H288 C289 0.952 . S
C289 H288 0.952 . S
C289 C295 1.265 . S
H290 C295 0.950 . S
H291 C299 0.949 . S
H292 C300 0.950 . S
H293 C301 0.951 . S
H294 C302 0.951 . S
C295 C289 1.265 . S
C295 H290 0.950 . S
C295 C296 1.478 . S
C296 C295 1.478 . S
C296 C297 1.397 . S
C296 C313 1.394 1_545 S
C297 C296 1.397 . S
C297 C298 1.438 . S
C297 C302 1.429 . S
C298 C297 1.438 . S
C298 C299 1.428 . S
C298 C311 1.402 . S
C299 H291 0.949 . S
C299 C298 1.428 . S
C299 C300 1.345 . S
C300 H292 0.950 . S
C300 C299 1.345 . S
C300 C301 1.424 . S
C301 H293 0.951 . S
C301 C300 1.424 . S
C301 C302 1.347 . S
C302 H294 0.951 . S
C302 C297 1.429 . S
C302 C301 1.347 . S
H303 C304 0.952 . S
C304 H303 0.952 . S
C304 C310 1.265 1_545 S
H305 C310 0.950 . S
H306 C314 0.949 . S
H307 C315 0.950 . S
H308 C316 0.951 . S
H309 C317 0.951 . S
C310 C304 1.265 1_565 S
C310 H305 0.950 . S
C310 C311 1.477 1_565 S
C311 C298 1.402 . S
C311 C310 1.477 1_545 S
C311 C312 1.389 1_545 S
C312 C311 1.389 1_565 S
C312 C313 1.438 . S
C312 C317 1.429 . S
C313 C296 1.394 1_565 S
C313 C312 1.438 . S
C313 C314 1.428 . S
C314 H306 0.949 . S
C314 C313 1.428 . S
C314 C315 1.345 . S
C315 H307 0.950 . S
C315 C314 1.345 . S
C315 C316 1.424 . S
C316 H308 0.951 . S
C316 C315 1.424 . S
C316 C317 1.347 . S
C317 H309 0.951 . S
C317 C312 1.429 . S
C317 C316 1.347 . S
H318 C319 0.951 . S
C319 H318 0.951 . S
C319 C325 1.265 1_455 S
H320 C325 0.950 . S
H321 C329 0.949 . S
H322 C330 0.950 . S
H323 C331 0.951 . S
H324 C332 0.951 . S
C325 C319 1.265 1_655 S
C325 H320 0.950 . S
C325 C326 1.478 . S
C326 C325 1.478 . S
C326 C327 1.397 . S
C326 C343 1.394 1_655 S
C327 C326 1.397 . S
C327 C328 1.438 1_655 S
C327 C332 1.429 . S
C328 C327 1.438 1_455 S
C328 C329 1.428 . S
C328 C341 1.394 . S
C329 H321 0.949 . S
C329 C328 1.428 . S
C329 C330 1.345 1_455 S
C330 H322 0.950 . S
C330 C329 1.345 1_655 S
C330 C331 1.424 . S
C331 H323 0.951 . S
C331 C330 1.424 . S
C331 C332 1.347 . S
C332 H324 0.951 . S
C332 C327 1.429 . S
C332 C331 1.347 . S
H333 C334 0.951 . S
C334 H333 0.951 . S
C334 C340 1.265 1_655 S
H335 C340 0.950 . S
H336 C344 0.949 1_655 S
H337 C345 0.950 . S
H338 C346 0.951 . S
H339 C347 0.951 . S
C340 C334 1.265 1_455 S
C340 H335 0.950 . S
C340 C341 1.478 . S
C341 C328 1.394 . S
C341 C340 1.478 . S
C341 C342 1.397 . S
C342 C341 1.397 . S
C342 C343 1.438 . S
C342 C347 1.429 . S
C343 C326 1.394 1_455 S
C343 C342 1.438 . S
C343 C344 1.428 . S
C344 H336 0.949 1_455 S
C344 C343 1.428 . S
C344 C345 1.345 . S
C345 H337 0.950 . S
C345 C344 1.345 . S
C345 C346 1.424 . S
C346 H338 0.951 . S
C346 C345 1.424 . S
C346 C347 1.347 . S
C347 H339 0.951 . S
C347 C342 1.429 . S
C347 C346 1.347 . S
H348 C349 0.951 . S
C349 H348 0.951 . S
C349 C355 1.265 1_565 S
H350 C355 0.950 . S
H351 C359 0.949 . S
H352 C360 0.950 . S
H353 C361 0.951 . S
H354 C362 0.951 . S
C355 C349 1.265 1_545 S
C355 H350 0.950 . S
C355 C356 1.478 . S
C356 C355 1.478 . S
C356 C357 1.397 . S
C356 C373 1.394 . S
C357 C356 1.397 . S
C357 C358 1.438 1_545 S
C357 C362 1.429 . S
C358 C357 1.438 1_565 S
C358 C359 1.428 . S
C358 C371 1.394 . S
C359 H351 0.949 . S
C359 C358 1.428 . S
C359 C360 1.345 . S
C360 H352 0.950 . S
C360 C359 1.345 . S
C360 C361 1.424 1_565 S
C361 H353 0.951 . S
C361 C360 1.424 1_545 S
C361 C362 1.347 . S
C362 H354 0.951 . S
C362 C357 1.429 . S
C362 C361 1.347 . S
H363 C364 0.951 . S
C364 H363 0.951 . S
C364 C370 1.265 1_545 S
H365 C370 0.950 . S
H366 C374 0.949 . S
H367 C375 0.950 . S
H368 C376 0.951 . S
H369 C377 0.951 . S
C370 C364 1.265 1_565 S
C370 H365 0.950 . S
C370 C371 1.478 . S
C371 C358 1.394 . S
C371 C370 1.478 . S
C371 C372 1.397 . S
C372 C371 1.397 . S
C372 C373 1.438 1_565 S
C372 C377 1.429 . S
C373 C356 1.394 . S
C373 C372 1.438 1_545 S
C373 C374 1.428 . S
C374 H366 0.949 . S
C374 C373 1.428 . S
C374 C375 1.345 . S
C375 H367 0.950 . S
C375 C374 1.345 . S
C375 C376 1.422 1_545 S
C376 H368 0.951 . S
C376 C375 1.422 1_565 S
C376 C377 1.349 . S
C377 H369 0.951 . S
C377 C372 1.429 . S
C377 C376 1.349 . S
C139 C22 1.415 1_455 S
C154 C54 1.412 1_655 S
C169 C8 1.511 1_565 S
C184 C124 1.557 1_565 S
C199 C31 1.520 1_655 S
C214 C70 1.551 . S
C229 C17 1.358 . S
C244 C114 1.408 1_565 S
C259 C30 1.339 . S
C274 C61 1.417 . S
C289 C27 1.510 1_545 S
C304 C123 1.554 1_545 S
C334 C71 1.552 . S
C319 C23 1.525 1_455 S
C349 C24 1.415 1_565 S
C364 C107 1.419 1_545 S
