# Generated by pormake.
# Topology ibd, (4,6)-cn, num edge types: 1
# Building blocks:
#     Node 0, Type 0, BuildingBlock: CEKHIL_clean_sbu_0, # of connection points: 4
#     Node 1, Type 0, BuildingBlock: CEKHIL_clean_sbu_0, # of connection points: 4
#     Node 2, Type 0, BuildingBlock: CEKHIL_clean_sbu_0, # of connection points: 4
#     Node 3, Type 0, BuildingBlock: CEKHIL_clean_sbu_0, # of connection points: 4
#     Node 4, Type 0, BuildingBlock: CEKHIL_clean_sbu_0, # of connection points: 4
#     Node 5, Type 0, BuildingBlock: CEKHIL_clean_sbu_0, # of connection points: 4
#     Node 6, Type 0, BuildingBlock: CEKHIL_clean_sbu_0, # of connection points: 4
#     Node 7, Type 0, BuildingBlock: CEKHIL_clean_sbu_0, # of connection points: 4
#     Node 8, Type 0, BuildingBlock: CEKHIL_clean_sbu_0, # of connection points: 4
#     Node 9, Type 0, BuildingBlock: CEKHIL_clean_sbu_0, # of connection points: 4
#     Node 10, Type 0, BuildingBlock: CEKHIL_clean_sbu_0, # of connection points: 4
#     Node 11, Type 0, BuildingBlock: CEKHIL_clean_sbu_0, # of connection points: 4
#     Node 12, Type 0, BuildingBlock: CEKHIL_clean_sbu_0, # of connection points: 4
#     Node 13, Type 0, BuildingBlock: CEKHIL_clean_sbu_0, # of connection points: 4
#     Node 14, Type 0, BuildingBlock: CEKHIL_clean_sbu_0, # of connection points: 4
#     Node 15, Type 0, BuildingBlock: CEKHIL_clean_sbu_0, # of connection points: 4
#     Node 16, Type 0, BuildingBlock: CEKHIL_clean_sbu_0, # of connection points: 4
#     Node 17, Type 0, BuildingBlock: CEKHIL_clean_sbu_0, # of connection points: 4
#     Node 18, Type 0, BuildingBlock: CEKHIL_clean_sbu_0, # of connection points: 4
#     Node 19, Type 0, BuildingBlock: CEKHIL_clean_sbu_0, # of connection points: 4
#     Node 20, Type 0, BuildingBlock: CEKHIL_clean_sbu_0, # of connection points: 4
#     Node 21, Type 0, BuildingBlock: CEKHIL_clean_sbu_0, # of connection points: 4
#     Node 22, Type 0, BuildingBlock: CEKHIL_clean_sbu_0, # of connection points: 4
#     Node 23, Type 0, BuildingBlock: CEKHIL_clean_sbu_0, # of connection points: 4
#     Node 24, Type 1, BuildingBlock: IZENUY_clean_sbu_0, # of connection points: 6
#     Node 25, Type 1, BuildingBlock: IZENUY_clean_sbu_0, # of connection points: 6
#     Node 26, Type 1, BuildingBlock: IZENUY_clean_sbu_0, # of connection points: 6
#     Node 27, Type 1, BuildingBlock: IZENUY_clean_sbu_0, # of connection points: 6
#     Node 28, Type 1, BuildingBlock: IZENUY_clean_sbu_0, # of connection points: 6
#     Node 29, Type 1, BuildingBlock: IZENUY_clean_sbu_0, # of connection points: 6
#     Node 30, Type 1, BuildingBlock: IZENUY_clean_sbu_0, # of connection points: 6
#     Node 31, Type 1, BuildingBlock: IZENUY_clean_sbu_0, # of connection points: 6
#     Node 32, Type 1, BuildingBlock: IZENUY_clean_sbu_0, # of connection points: 6
#     Node 33, Type 1, BuildingBlock: IZENUY_clean_sbu_0, # of connection points: 6
#     Node 34, Type 1, BuildingBlock: IZENUY_clean_sbu_0, # of connection points: 6
#     Node 35, Type 1, BuildingBlock: IZENUY_clean_sbu_0, # of connection points: 6
#     Node 36, Type 1, BuildingBlock: IZENUY_clean_sbu_0, # of connection points: 6
#     Node 37, Type 1, BuildingBlock: IZENUY_clean_sbu_0, # of connection points: 6
#     Node 38, Type 1, BuildingBlock: IZENUY_clean_sbu_0, # of connection points: 6
#     Node 39, Type 1, BuildingBlock: IZENUY_clean_sbu_0, # of connection points: 6
#     Edge 40, Type (0, 1), None
#     Edge 41, Type (0, 1), None
#     Edge 42, Type (0, 1), None
#     Edge 43, Type (0, 1), None
#     Edge 44, Type (0, 1), None
#     Edge 45, Type (0, 1), None
#     Edge 46, Type (0, 1), None
#     Edge 47, Type (0, 1), None
#     Edge 48, Type (0, 1), None
#     Edge 49, Type (0, 1), None
#     Edge 50, Type (0, 1), None
#     Edge 51, Type (0, 1), None
#     Edge 52, Type (0, 1), None
#     Edge 53, Type (0, 1), None
#     Edge 54, Type (0, 1), None
#     Edge 55, Type (0, 1), None
#     Edge 56, Type (0, 1), None
#     Edge 57, Type (0, 1), None
#     Edge 58, Type (0, 1), None
#     Edge 59, Type (0, 1), None
#     Edge 60, Type (0, 1), None
#     Edge 61, Type (0, 1), None
#     Edge 62, Type (0, 1), None
#     Edge 63, Type (0, 1), None
#     Edge 64, Type (0, 1), None
#     Edge 65, Type (0, 1), None
#     Edge 66, Type (0, 1), None
#     Edge 67, Type (0, 1), None
#     Edge 68, Type (0, 1), None
#     Edge 69, Type (0, 1), None
#     Edge 70, Type (0, 1), None
#     Edge 71, Type (0, 1), None
#     Edge 72, Type (0, 1), None
#     Edge 73, Type (0, 1), None
#     Edge 74, Type (0, 1), None
#     Edge 75, Type (0, 1), None
#     Edge 76, Type (0, 1), None
#     Edge 77, Type (0, 1), None
#     Edge 78, Type (0, 1), None
#     Edge 79, Type (0, 1), None
#     Edge 80, Type (0, 1), None
#     Edge 81, Type (0, 1), None
#     Edge 82, Type (0, 1), None
#     Edge 83, Type (0, 1), None
#     Edge 84, Type (0, 1), None
#     Edge 85, Type (0, 1), None
#     Edge 86, Type (0, 1), None
#     Edge 87, Type (0, 1), None
#     Edge 88, Type (0, 1), None
#     Edge 89, Type (0, 1), None
#     Edge 90, Type (0, 1), None
#     Edge 91, Type (0, 1), None
#     Edge 92, Type (0, 1), None
#     Edge 93, Type (0, 1), None
#     Edge 94, Type (0, 1), None
#     Edge 95, Type (0, 1), None
#     Edge 96, Type (0, 1), None
#     Edge 97, Type (0, 1), None
#     Edge 98, Type (0, 1), None
#     Edge 99, Type (0, 1), None
#     Edge 100, Type (0, 1), None
#     Edge 101, Type (0, 1), None
#     Edge 102, Type (0, 1), None
#     Edge 103, Type (0, 1), None
#     Edge 104, Type (0, 1), None
#     Edge 105, Type (0, 1), None
#     Edge 106, Type (0, 1), None
#     Edge 107, Type (0, 1), None
#     Edge 108, Type (0, 1), None
#     Edge 109, Type (0, 1), None
#     Edge 110, Type (0, 1), None
#     Edge 111, Type (0, 1), None
#     Edge 112, Type (0, 1), None
#     Edge 113, Type (0, 1), None
#     Edge 114, Type (0, 1), None
#     Edge 115, Type (0, 1), None
#     Edge 116, Type (0, 1), None
#     Edge 117, Type (0, 1), None
#     Edge 118, Type (0, 1), None
#     Edge 119, Type (0, 1), None
#     Edge 120, Type (0, 1), None
#     Edge 121, Type (0, 1), None
#     Edge 122, Type (0, 1), None
#     Edge 123, Type (0, 1), None
#     Edge 124, Type (0, 1), None
#     Edge 125, Type (0, 1), None
#     Edge 126, Type (0, 1), None
#     Edge 127, Type (0, 1), None
#     Edge 128, Type (0, 1), None
#     Edge 129, Type (0, 1), None
#     Edge 130, Type (0, 1), None
#     Edge 131, Type (0, 1), None
#     Edge 132, Type (0, 1), None
#     Edge 133, Type (0, 1), None
#     Edge 134, Type (0, 1), None
#     Edge 135, Type (0, 1), None
# Relax obj value: 0.306
# Max RMSD: 0.287
# Mean RMSD: 0.259
data_MOF--net-ibd--node1-CEKHIL_clean_sbu_0--node2-IZENUY_clean_sbu_0--edge1-none
_symmetry_space_group_name_H-M    P1
_symmetry_Int_Tables_number       1
_symmetry_cell_setting            triclinic
loop_
_symmetry_equiv_pos_as_xyz
'x, y, z'
_cell_length_a     22.446687
_cell_length_b     22.447058
_cell_length_c     22.478569
_cell_angle_alpha  91.188863
_cell_angle_beta   91.184562
_cell_angle_gamma 91.557266
loop_
_atom_site_label
_atom_site_type_symbol
_atom_site_fract_x
_atom_site_fract_y
_atom_site_fract_z
_atom_type_partial_charge
Co0 Co 0.99827 0.26754 0.37402 0.0
O1 O 0.99993 0.3223 0.30909 0.0
O2 O 0.92151 0.26652 0.33367 0.0
C3 C 0.0495 0.32811 0.44356 0.0
O4 O 0.96789 0.21006 0.43671 0.0
Co5 Co 0.09949 0.21253 0.4356 0.0
O6 O 0.04304 0.17985 0.4931 0.0
C7 C 0.08118 0.18264 0.31196 0.0
C8 C 0.9448 0.30469 0.2983 0.0
C9 C 0.98755 0.18202 0.48153 0.0
O10 O 0.02811 0.20311 0.31777 0.0
O11 O 0.1199 0.18476 0.35397 0.0
O12 O 0.9924 0.33362 0.43335 0.0
O13 O 0.07355 0.28911 0.41001 0.0
Co14 Co 0.98417 0.7599 0.6372 0.0
O15 O 0.92648 0.74667 0.69842 0.0
O16 O 0.96988 0.83371 0.67765 0.0
C17 C 0.93775 0.70643 0.56387 0.0
O18 O 0.04087 0.79765 0.57968 0.0
Co19 Co 0.05678 0.66291 0.57222 0.0
O20 O 0.06414 0.72754 0.51288 0.0
C21 C 0.06832 0.68475 0.70179 0.0
C22 C 0.93295 0.80384 0.70957 0.0
C23 C 0.05878 0.782 0.52849 0.0
O24 O 0.04937 0.73803 0.6949 0.0
O25 O 0.06963 0.64613 0.6592 0.0
O26 O 0.92092 0.76023 0.57678 0.0
O27 O 0.9785 0.68549 0.59771 0.0
Co28 Co 0.49827 0.76765 0.87402 0.0
O29 O 0.49995 0.82243 0.80912 0.0
O30 O 0.42152 0.76666 0.83367 0.0
C31 C 0.54953 0.82817 0.94359 0.0
O32 O 0.46785 0.71014 0.93668 0.0
Co33 Co 0.5994 0.71258 0.93554 0.0
O34 O 0.54299 0.67982 0.99302 0.0
C35 C 0.58116 0.6827 0.81194 0.0
C36 C 0.44482 0.80484 0.79832 0.0
C37 C 0.4875 0.68202 0.98147 0.0
O38 O 0.52811 0.70322 0.81774 0.0
O39 O 0.61987 0.68478 0.85396 0.0
O40 O 0.49243 0.8337 0.9334 0.0
O41 O 0.57356 0.7892 0.91001 0.0
Co42 Co 0.48421 0.25996 0.13714 0.0
O43 O 0.42644 0.24685 0.1983 0.0
O44 O 0.47001 0.33382 0.17755 0.0
C45 C 0.43776 0.20654 0.06379 0.0
O46 O 0.54104 0.29757 0.07966 0.0
Co47 Co 0.5567 0.16283 0.07222 0.0
O48 O 0.56403 0.22741 0.01281 0.0
C49 C 0.56828 0.18471 0.20179 0.0
C50 C 0.43299 0.30402 0.20944 0.0
C51 C 0.55876 0.28188 0.02841 0.0
O52 O 0.54933 0.238 0.19491 0.0
O53 O 0.56959 0.1461 0.1592 0.0
O54 O 0.42102 0.26038 0.07666 0.0
O55 O 0.47845 0.18554 0.09766 0.0
Co56 Co 0.99866 0.77444 0.12215 0.0
O57 O 0.01177 0.8322 0.06099 0.0
O58 O 0.92479 0.78866 0.08176 0.0
C59 C 0.0521 0.82088 0.19549 0.0
O60 O 0.96105 0.71762 0.17963 0.0
Co61 Co 0.0958 0.70194 0.18703 0.0
O62 O 0.03123 0.69456 0.24644 0.0
C63 C 0.07389 0.69037 0.05747 0.0
C64 C 0.9546 0.82566 0.04986 0.0
C65 C 0.97675 0.69984 0.23086 0.0
O66 O 0.0206 0.70932 0.06437 0.0
O67 O 0.11251 0.68906 0.10005 0.0
O68 O 0.99825 0.83763 0.18263 0.0
O69 O 0.07308 0.7802 0.16161 0.0
Co70 Co 0.49105 0.76041 0.38524 0.0
O71 O 0.43627 0.75875 0.45015 0.0
O72 O 0.49207 0.83716 0.42559 0.0
C73 C 0.43052 0.70917 0.31566 0.0
O74 O 0.54856 0.7908 0.32257 0.0
Co75 Co 0.54608 0.65922 0.32369 0.0
O76 O 0.57883 0.71565 0.26621 0.0
C77 C 0.57598 0.67749 0.4473 0.0
C78 C 0.45388 0.81387 0.46095 0.0
C79 C 0.57665 0.77114 0.27778 0.0
O80 O 0.55547 0.73055 0.44151 0.0
O81 O 0.57388 0.63878 0.40528 0.0
O82 O 0.425 0.76627 0.32587 0.0
O83 O 0.46948 0.68512 0.34924 0.0
Co84 Co 0.4987 0.27446 0.62207 0.0
O85 O 0.51193 0.33216 0.56087 0.0
O86 O 0.42489 0.28874 0.58163 0.0
C87 C 0.55216 0.32088 0.6954 0.0
O88 O 0.46097 0.21773 0.67958 0.0
Co89 Co 0.59572 0.20187 0.68703 0.0
O90 O 0.53109 0.19451 0.74639 0.0
C91 C 0.57388 0.19031 0.55747 0.0
C92 C 0.45476 0.32568 0.54973 0.0
C93 C 0.47662 0.19985 0.73078 0.0
O94 O 0.52059 0.20927 0.56435 0.0
O95 O 0.61249 0.18901 0.60005 0.0
O96 O 0.49835 0.33769 0.6825 0.0
O97 O 0.57311 0.28014 0.66156 0.0
Co98 Co 0.99118 0.2604 0.88523 0.0
O99 O 0.93644 0.25869 0.95017 0.0
O100 O 0.99219 0.33714 0.9256 0.0
C101 C 0.93062 0.20917 0.81569 0.0
O102 O 0.04865 0.2908 0.82253 0.0
Co103 Co 0.04623 0.15918 0.8236 0.0
O104 O 0.07892 0.21566 0.76614 0.0
C105 C 0.07608 0.17748 0.94727 0.0
C106 C 0.95403 0.31383 0.96097 0.0
C107 C 0.07672 0.27115 0.77772 0.0
O108 O 0.05563 0.23056 0.94146 0.0
O109 O 0.07395 0.13877 0.90525 0.0
O110 O 0.92509 0.26626 0.82592 0.0
O111 O 0.96964 0.18511 0.84922 0.0
Co112 Co 0.38487 0.99803 0.22912 0.0
O113 O 0.45306 0.00751 0.17797 0.0
O114 O 0.42015 0.9214 0.2116 0.0
C115 C 0.32014 0.05889 0.1795 0.0
O116 O 0.31826 0.96262 0.27761 0.0
Co117 Co 0.31953 0.09669 0.3016 0.0
O118 O 0.26316 0.03199 0.32181 0.0
C119 C 0.44166 0.06132 0.33597 0.0
C120 C 0.45866 0.94978 0.1802 0.0
C121 C 0.27447 0.97807 0.30926 0.0
O122 O 0.43852 0.01391 0.30213 0.0
O123 O 0.40111 0.10019 0.33757 0.0
O124 O 0.32964 0.00465 0.16097 0.0
O125 O 0.35231 0.07567 0.22498 0.0
Co126 Co 0.26623 0.12908 0.52647 0.0
O127 O 0.26273 0.0707 0.58856 0.0
O128 O 0.3408 0.08927 0.53227 0.0
C129 C 0.21762 0.20746 0.57082 0.0
O130 O 0.2993 0.18429 0.46414 0.0
Co131 Co 0.16898 0.17859 0.45571 0.0
O132 O 0.22782 0.22104 0.40784 0.0
C133 C 0.17588 0.05439 0.45926 0.0
C134 C 0.31633 0.05694 0.5721 0.0
C135 C 0.28255 0.21694 0.42172 0.0
O136 O 0.23225 0.06479 0.46929 0.0
O137 O 0.13875 0.09579 0.45843 0.0
O138 O 0.2738 0.19834 0.58359 0.0
O139 O 0.19275 0.16704 0.53741 0.0
Co140 Co 0.12959 0.99244 0.73283 0.0
O141 O 0.18801 0.99603 0.67078 0.0
O142 O 0.16942 0.91788 0.72695 0.0
C143 C 0.05123 0.04108 0.68849 0.0
O144 O 0.07432 0.95929 0.79507 0.0
Co145 Co 0.08003 0.08951 0.80375 0.0
O146 O 0.03788 0.0306 0.85178 0.0
C147 C 0.20422 0.08275 0.80008 0.0
C148 C 0.20177 0.94241 0.68717 0.0
C149 C 0.04185 0.97591 0.83769 0.0
O150 O 0.19384 0.02637 0.79006 0.0
O151 O 0.16279 0.11985 0.80093 0.0
O152 O 0.06037 0.98492 0.67566 0.0
O153 O 0.09161 0.06593 0.72197 0.0
Co154 Co 0.26059 0.87379 0.03012 0.0
O155 O 0.25111 0.80561 0.08126 0.0
O156 O 0.33722 0.83852 0.04762 0.0
C157 C 0.19974 0.93853 0.07974 0.0
O158 O 0.296 0.9404 0.98163 0.0
Co159 Co 0.16192 0.93913 0.95765 0.0
O160 O 0.22661 0.99553 0.93749 0.0
C161 C 0.19728 0.81699 0.92328 0.0
C162 C 0.30885 0.80002 0.07903 0.0
C163 C 0.28054 0.98421 0.95002 0.0
O164 O 0.2447 0.82014 0.95711 0.0
O165 O 0.15841 0.85755 0.92169 0.0
O166 O 0.25398 0.92903 0.09826 0.0
O167 O 0.18295 0.90635 0.03427 0.0
Co168 Co 0.26869 0.38067 0.99942 0.0
O169 O 0.33455 0.32758 1.0009 0.0
O170 O 0.27343 0.34093 0.9236 0.0
C171 C 0.3187 0.45729 0.04739 0.0
O172 O 0.19968 0.43044 0.97114 0.0
Co173 Co 0.20554 0.43617 0.10497 0.0
O174 O 0.18203 0.49526 0.044 0.0
C175 C 0.1957 0.30692 0.08386 0.0
C176 C 0.31842 0.31408 0.94609 0.0
C177 C 0.17954 0.48 0.98901 0.0
O178 O 0.21557 0.31492 0.03094 0.0
O179 O 0.19013 0.34943 0.12195 0.0
O180 O 0.32402 0.44875 0.99014 0.0
O181 O 0.28415 0.41978 0.0735 0.0
Co182 Co 0.76971 0.12684 0.99466 0.0
O183 O 0.82955 0.06891 0.0131 0.0
O184 O 0.78814 0.08452 0.92425 0.0
C185 C 0.81077 0.20686 0.04583 0.0
O186 O 0.71213 0.17667 0.94962 0.0
Co187 Co 0.68852 0.19197 0.08031 0.0
O188 O 0.68701 0.24844 0.01209 0.0
C189 C 0.67912 0.06099 0.06586 0.0
C190 C 0.82416 0.05461 0.95649 0.0
C191 C 0.69413 0.22879 0.95923 0.0
O192 O 0.70586 0.06574 0.0158 0.0
O193 O 0.67201 0.10573 0.10101 0.0
O194 O 0.83005 0.19157 0.99356 0.0
O195 O 0.77065 0.17172 0.06715 0.0
Co196 Co 0.13184 0.48896 0.2646 0.0
O197 O 0.18982 0.42917 0.24616 0.0
O198 O 0.17416 0.47057 0.33501 0.0
C199 C 0.05185 0.44785 0.21341 0.0
O200 O 0.08196 0.54651 0.30963 0.0
Co201 Co 0.06667 0.57011 0.17895 0.0
O202 O 0.01017 0.57156 0.24716 0.0
C203 C 0.19765 0.57957 0.19341 0.0
C204 C 0.2041 0.43457 0.30277 0.0
C205 C 0.02982 0.56444 0.30002 0.0
O206 O 0.1929 0.55284 0.24347 0.0
O207 O 0.1529 0.58664 0.15825 0.0
O208 O 0.06715 0.42858 0.26569 0.0
O209 O 0.08697 0.48799 0.1921 0.0
Co210 Co 0.76878 0.88066 0.49945 0.0
O211 O 0.83465 0.82756 0.50097 0.0
O212 O 0.77356 0.84091 0.42364 0.0
C213 C 0.81876 0.9573 0.54744 0.0
O214 O 0.69979 0.93043 0.47112 0.0
Co215 Co 0.70558 0.93617 0.60497 0.0
O216 O 0.68204 0.99523 0.54398 0.0
C217 C 0.69573 0.80693 0.58385 0.0
C218 C 0.81855 0.81406 0.44614 0.0
C219 C 0.67959 0.97997 0.48899 0.0
O220 O 0.71563 0.81492 0.53095 0.0
O221 O 0.69014 0.84943 0.62195 0.0
O222 O 0.82412 0.94874 0.49019 0.0
O223 O 0.7842 0.91979 0.57352 0.0
Co224 Co 0.878 0.98998 0.25983 0.0
O225 O 0.93111 0.92412 0.25835 0.0
O226 O 0.91775 0.98525 0.33565 0.0
C227 C 0.80139 0.93995 0.21187 0.0
O228 O 0.82823 0.05898 0.28811 0.0
Co229 Co 0.82249 0.0531 0.15428 0.0
O230 O 0.7634 0.07661 0.21525 0.0
C231 C 0.95174 0.06296 0.17539 0.0
C232 C 0.9446 0.94026 0.31317 0.0
C233 C 0.77866 0.0791 0.27024 0.0
O234 O 0.94375 0.04311 0.22831 0.0
O235 O 0.90923 0.06853 0.13729 0.0
O236 O 0.80993 0.93463 0.26912 0.0
O237 O 0.8389 0.97451 0.18576 0.0
Co238 Co 0.26967 0.62688 0.4947 0.0
O239 O 0.32944 0.56887 0.51312 0.0
O240 O 0.28808 0.58456 0.42427 0.0
C241 C 0.31077 0.70687 0.54591 0.0
O242 O 0.21216 0.67679 0.44966 0.0
Co243 Co 0.18851 0.69203 0.58038 0.0
O244 O 0.18701 0.74852 0.51218 0.0
C245 C 0.17907 0.56105 0.56585 0.0
C246 C 0.32404 0.55458 0.45651 0.0
C247 C 0.19414 0.72889 0.45931 0.0
O248 O 0.20577 0.56583 0.51578 0.0
O249 O 0.172 0.60578 0.60105 0.0
O250 O 0.33007 0.69156 0.49365 0.0
O251 O 0.27062 0.67174 0.5672 0.0
Co252 Co 0.37799 0.48993 0.7598 0.0
O253 O 0.43111 0.42407 0.75828 0.0
O254 O 0.41774 0.48515 0.83562 0.0
C255 C 0.30138 0.43993 0.7118 0.0
O256 O 0.3282 0.5589 0.78813 0.0
Co257 Co 0.32248 0.55312 0.65429 0.0
O258 O 0.2634 0.57664 0.71527 0.0
C259 C 0.45172 0.56298 0.6754 0.0
C260 C 0.4446 0.44017 0.81311 0.0
C261 C 0.27865 0.57909 0.77026 0.0
O262 O 0.44373 0.54309 0.72831 0.0
O263 O 0.40921 0.56855 0.63731 0.0
O264 O 0.30992 0.43457 0.76905 0.0
O265 O 0.33888 0.47451 0.68572 0.0
Co266 Co 0.63183 0.98906 0.76458 0.0
O267 O 0.68986 0.92931 0.74616 0.0
O268 O 0.67414 0.97069 0.83501 0.0
C269 C 0.55186 0.94794 0.71335 0.0
O270 O 0.58188 0.04657 0.8096 0.0
Co271 Co 0.56666 0.0702 0.6789 0.0
O272 O 0.51013 0.07164 0.74708 0.0
C273 C 0.69763 0.07965 0.69341 0.0
C274 C 0.70413 0.93473 0.80277 0.0
C275 C 0.52975 0.06452 0.79995 0.0
O276 O 0.69286 0.05298 0.74349 0.0
O277 O 0.65291 0.0867 0.65822 0.0
O278 O 0.56716 0.92865 0.76562 0.0
O279 O 0.58698 0.9881 0.69207 0.0
Co280 Co 0.76618 0.62895 0.0266 0.0
O281 O 0.76286 0.57065 0.08876 0.0
O282 O 0.84078 0.58916 0.03225 0.0
C283 C 0.71766 0.70737 0.07103 0.0
O284 O 0.79906 0.68407 0.96411 0.0
Co285 Co 0.66854 0.67844 0.95624 0.0
O286 O 0.72723 0.72156 0.90877 0.0
C287 C 0.67574 0.55421 0.95939 0.0
C288 C 0.81642 0.55688 0.07218 0.0
C289 C 0.78205 0.71715 0.92214 0.0
O290 O 0.7321 0.56462 0.96952 0.0
O291 O 0.63855 0.59556 0.95862 0.0
O292 O 0.77389 0.6983 0.08365 0.0
O293 O 0.69273 0.66688 0.03777 0.0
Co294 Co 0.88484 0.49805 0.72913 0.0
O295 O 0.95304 0.50755 0.67798 0.0
O296 O 0.92013 0.42143 0.71161 0.0
C297 C 0.82011 0.55891 0.67951 0.0
O298 O 0.81824 0.46262 0.7776 0.0
Co299 Co 0.81949 0.59668 0.80163 0.0
O300 O 0.76316 0.53196 0.82188 0.0
C301 C 0.94164 0.56135 0.83596 0.0
C302 C 0.95863 0.44982 0.6802 0.0
C303 C 0.77447 0.47804 0.8093 0.0
O304 O 0.9385 0.51394 0.80214 0.0
O305 O 0.90109 0.60022 0.83756 0.0
O306 O 0.82962 0.50468 0.66098 0.0
O307 O 0.85228 0.57568 0.72499 0.0
Co308 Co 0.76058 0.3738 0.53014 0.0
O309 O 0.75111 0.30562 0.5813 0.0
O310 O 0.83721 0.33853 0.54765 0.0
C311 C 0.69971 0.43854 0.57975 0.0
O312 O 0.79598 0.44039 0.48164 0.0
Co313 Co 0.66191 0.43911 0.45765 0.0
O314 O 0.72661 0.49547 0.43741 0.0
C315 C 0.69727 0.31697 0.42331 0.0
C316 C 0.80885 0.30004 0.57907 0.0
C317 C 0.78053 0.48417 0.44996 0.0
O318 O 0.74469 0.32013 0.45714 0.0
O319 O 0.6584 0.35752 0.42171 0.0
O320 O 0.75396 0.42904 0.59827 0.0
O321 O 0.68294 0.40635 0.53428 0.0
Co322 Co 0.62968 0.4925 0.23265 0.0
O323 O 0.68802 0.4959 0.17053 0.0
O324 O 0.66948 0.41792 0.22694 0.0
C325 C 0.55127 0.54105 0.18826 0.0
O326 O 0.57451 0.45953 0.29507 0.0
Co327 Co 0.58016 0.58996 0.3032 0.0
O328 O 0.53737 0.5312 0.35086 0.0
C329 C 0.70438 0.5829 0.29991 0.0
C330 C 0.70179 0.44233 0.18706 0.0
C331 C 0.54164 0.47642 0.33726 0.0
O332 O 0.69398 0.52654 0.28979 0.0
O333 O 0.66301 0.62006 0.30071 0.0
O334 O 0.56037 0.48485 0.17557 0.0
O335 O 0.59173 0.56596 0.22159 0.0
Fe336 Fe 0.13683 0.06616 0.18605 0.0
Fe337 Fe 0.08139 0.17727 0.12961 0.0
O338 O 0.13724 0.12143 0.12962 0.0
Fe339 Fe 0.19252 0.12183 0.0732 0.0
O340 O 0.19783 0.04101 0.06718 0.0
O341 O 0.13544 0.00363 0.13222 0.0
O342 O 0.05528 0.06065 0.18962 0.0
C343 C 0.01268 0.08085 0.15897 0.0
C344 C 0.26174 0.0858 0.16804 0.0
O345 O 0.02127 0.12126 0.12127 0.0
C346 C 0.17782 0.24598 0.10026 0.0
O347 O 0.13913 0.12254 0.24646 0.0
O348 O 0.07061 0.17973 0.20928 0.0
O349 O 0.25504 0.1232 0.12703 0.0
O350 O 0.21765 0.06082 0.19207 0.0
C351 C 0.09822 0.15977 0.00609 0.0
O352 O 0.1374 0.2374 0.13796 0.0
O353 O 0.19804 0.20337 0.06964 0.0
C354 C 0.09888 0.16048 0.25314 0.0
O355 O 0.07895 0.18805 0.04995 0.0
O356 O 0.13616 0.11953 0.01278 0.0
C357 C 0.17284 0.99693 0.0912 0.0
Fe358 Fe 0.06865 0.81838 0.36635 0.0
Fe359 Fe 0.11242 0.94028 0.32562 0.0
O360 O 0.11932 0.88039 0.37448 0.0
Fe361 Fe 0.17697 0.8817 0.42959 0.0
O362 O 0.20431 0.81244 0.40098 0.0
O363 O 0.12028 0.76249 0.39541 0.0
O364 O 0.09268 0.80337 0.29064 0.0
C365 C 0.08297 0.84075 0.25033 0.0
C366 C 0.07533 0.82778 0.48614 0.0
O367 O 0.08095 0.89559 0.26302 0.0
C368 C 0.15474 0.99826 0.43284 0.0
O369 O 0.00631 0.86248 0.33832 0.0
O370 O 0.0391 0.95467 0.35338 0.0
O371 O 0.13017 0.84341 0.48472 0.0
O372 O 0.04189 0.83064 0.44055 0.0
C373 C 0.23185 0.93279 0.32781 0.0
O374 O 0.14294 0.99719 0.37778 0.0
O375 O 0.15547 0.95146 0.46243 0.0
C376 C 0.99664 0.91762 0.34341 0.0
O377 O 0.18505 0.9277 0.2961 0.0
O378 O 0.23148 0.92107 0.38286 0.0
C379 C 0.17537 0.76475 0.40845 0.0
Fe380 Fe 0.37532 0.93224 0.69035 0.0
Fe381 Fe 0.32649 0.8834 0.56892 0.0
O382 O 0.37868 0.88004 0.62964 0.0
Fe383 Fe 0.43404 0.82467 0.62964 0.0
O384 O 0.40926 0.79546 0.69995 0.0
O385 O 0.40308 0.88183 0.74662 0.0
O386 O 0.29872 0.90838 0.70554 0.0
C387 C 0.25634 0.91415 0.66797 0.0
C388 C 0.49664 0.92675 0.6817 0.0
O389 O 0.26528 0.91142 0.61292 0.0
C390 C 0.43217 0.84761 0.51186 0.0
O391 O 0.34732 0.99345 0.64634 0.0
O392 O 0.35038 0.95999 0.55372 0.0
O393 O 0.49163 0.87168 0.66874 0.0
O394 O 0.45178 0.95995 0.67939 0.0
C395 C 0.33196 0.76209 0.57757 0.0
O396 O 0.37691 0.85562 0.51265 0.0
O397 O 0.46327 0.84945 0.55933 0.0
C398 C 0.34461 1.00238 0.59129 0.0
O399 O 0.29877 0.80694 0.57988 0.0
O400 O 0.38703 0.76708 0.59055 0.0
C401 C 0.41109 0.82657 0.74742 0.0
Fe402 Fe 0.44028 0.18998 0.89291 0.0
Fe403 Fe 0.37692 0.08167 0.8297 0.0
O404 O 0.37824 0.13933 0.8848 0.0
Fe405 Fe 0.31836 0.14628 0.93367 0.0
O406 O 0.304 0.2196 0.90589 0.0
O407 O 0.3962 0.25234 0.92095 0.0
O408 O 0.42802 0.21673 0.81872 0.0
C409 C 0.43084 0.18328 0.77312 0.0
C410 C 0.41791 0.17568 0.00894 0.0
O411 O 0.4152 0.12845 0.77456 0.0
C412 C 0.32581 0.02685 0.93149 0.0
O413 O 0.49615 0.13834 0.86384 0.0
O414 O 0.44617 0.05432 0.85829 0.0
O415 O 0.36307 0.17774 0.99625 0.0
O416 O 0.45527 0.16595 0.96862 0.0
C417 C 0.26036 0.10392 0.82647 0.0
O418 O 0.33755 0.02719 0.87645 0.0
O419 O 0.33092 0.07365 0.9632 0.0
C420 C 0.49387 0.08325 0.85081 0.0
O421 O 0.30715 0.10317 0.79687 0.0
O422 O 0.26143 0.11576 0.88152 0.0
C423 C 0.34107 0.26204 0.91585 0.0
Fe424 Fe 0.56866 0.31827 0.86625 0.0
Fe425 Fe 0.61241 0.44021 0.82561 0.0
O426 O 0.61932 0.38029 0.87443 0.0
Fe427 Fe 0.67696 0.38156 0.92954 0.0
O428 O 0.70431 0.31233 0.90088 0.0
O429 O 0.62029 0.26236 0.89529 0.0
O430 O 0.59273 0.30332 0.79054 0.0
C431 C 0.58301 0.34072 0.75025 0.0
C432 C 0.57532 0.32763 0.98604 0.0
O433 O 0.58098 0.39555 0.76298 0.0
C434 C 0.65469 0.4981 0.93289 0.0
O435 O 0.50632 0.36238 0.83822 0.0
O436 O 0.53908 0.45456 0.85336 0.0
O437 O 0.63015 0.34325 0.98463 0.0
O438 O 0.54188 0.33046 0.94044 0.0
C439 C 0.73185 0.43275 0.82782 0.0
O440 O 0.6429 0.49708 0.87783 0.0
O441 O 0.65544 0.45128 0.96243 0.0
C442 C 0.49663 0.41751 0.84334 0.0
O443 O 0.68506 0.42767 0.7961 0.0
O444 O 0.73147 0.42098 0.88285 0.0
C445 C 0.67537 0.26463 0.90835 0.0
Fe446 Fe 0.82659 0.38339 0.06887 0.0
Fe447 Fe 0.87532 0.43211 0.19038 0.0
O448 O 0.87872 0.37996 0.12963 0.0
Fe449 Fe 0.93406 0.32458 0.12964 0.0
O450 O 0.96335 0.34936 0.05936 0.0
O451 O 0.87703 0.35562 0.01263 0.0
O452 O 0.85055 0.45998 0.05376 0.0
C453 C 0.84474 0.50234 0.09135 0.0
C454 C 0.83197 0.26207 0.07749 0.0
O455 O 0.84735 0.49335 0.1464 0.0
C456 C 0.91106 0.32641 0.24741 0.0
O457 O 0.76536 0.41141 0.11285 0.0
O458 O 0.79871 0.40821 0.20549 0.0
O459 O 0.88704 0.26702 0.0905 0.0
O460 O 0.79881 0.30695 0.07976 0.0
C461 C 0.99664 0.42664 0.18177 0.0
O462 O 0.90305 0.38167 0.24663 0.0
O463 O 0.90923 0.29534 0.19992 0.0
C464 C 0.75636 0.41403 0.16789 0.0
O465 O 0.95178 0.45983 0.17948 0.0
O466 O 0.99165 0.37157 0.16878 0.0
C467 C 0.93228 0.34756 0.01187 0.0
Fe468 Fe 0.81842 0.64626 0.43366 0.0
Fe469 Fe 0.94039 0.68991 0.39302 0.0
O470 O 0.87833 0.63929 0.38484 0.0
Fe471 Fe 0.87703 0.58165 0.32972 0.0
O472 O 0.80731 0.6032 0.29684 0.0
O473 O 0.76152 0.61579 0.38145 0.0
O474 O 0.80412 0.71959 0.4059 0.0
C475 C 0.8412 0.76202 0.41592 0.0
C476 C 0.82581 0.52681 0.43145 0.0
O477 O 0.89632 0.75228 0.42106 0.0
C478 C 0.99396 0.58317 0.3509 0.0
O479 O 0.86309 0.67766 0.49629 0.0
O480 O 0.95532 0.66583 0.46873 0.0
O481 O 0.83759 0.52717 0.37642 0.0
O482 O 0.8309 0.5736 0.46318 0.0
C483 C 0.93101 0.68326 0.27322 0.0
O484 O 0.99626 0.63825 0.36396 0.0
O485 O 0.94624 0.55426 0.35837 0.0
C486 C 0.91792 0.67557 0.50902 0.0
O487 O 0.92821 0.7167 0.31884 0.0
O488 O 0.91535 0.62844 0.27463 0.0
C489 C 0.76049 0.60397 0.3264 0.0
Fe490 Fe 0.9302 0.82817 0.87971 0.0
Fe491 Fe 0.82215 0.88421 0.93437 0.0
O492 O 0.87586 0.88273 0.87969 0.0
Fe493 Fe 0.87465 0.93643 0.82499 0.0
O494 O 0.94396 0.96555 0.85245 0.0
O495 O 0.98949 0.8803 0.8496 0.0
O496 O 0.95784 0.85248 0.95196 0.0
C497 C 0.9264 0.8498 0.99705 0.0
C498 C 0.90876 0.83204 0.76236 0.0
O499 O 0.86988 0.84979 0.99186 0.0
C500 C 0.75813 0.91172 0.82909 0.0
O501 O 0.87782 0.76909 0.90985 0.0
O502 O 0.79277 0.81499 0.90697 0.0
O503 O 0.90895 0.88856 0.76756 0.0
O504 O 0.90583 0.80059 0.80743 0.0
C505 C 0.84724 1.00064 0.93019 0.0
O506 O 0.76491 0.9166 0.88545 0.0
O507 O 0.80293 0.90903 0.79672 0.0
C508 C 0.82061 0.76771 0.9062 0.0
O509 O 0.84982 0.95586 0.96258 0.0
O510 O 0.84242 0.99383 0.87384 0.0
C511 C 0.99112 0.9375 0.85342 0.0
Fe512 Fe 0.87416 0.07177 0.69059 0.0
Fe513 Fe 0.83226 0.12848 0.575 0.0
O514 O 0.88141 0.12737 0.63697 0.0
Fe515 Fe 0.9387 0.18168 0.6449 0.0
O516 O 0.90978 0.20951 0.71393 0.0
O517 O 0.90591 0.12127 0.75374 0.0
O518 O 0.80079 0.09661 0.70992 0.0
C519 C 0.75788 0.09642 0.67266 0.0
C520 C 0.99434 0.07264 0.67684 0.0
O521 O 0.76763 0.09765 0.61678 0.0
C522 C 0.94654 0.16111 0.52783 0.0
O523 O 0.84147 0.01456 0.63643 0.0
O524 O 0.85462 0.05593 0.54968 0.0
O525 O 0.99226 0.12971 0.68155 0.0
O526 O 0.94656 0.04218 0.6731 0.0
C527 C 0.83795 0.24581 0.60037 0.0
O528 O 0.88954 0.16117 0.52322 0.0
O529 O 0.97103 0.15663 0.57766 0.0
C530 C 0.84365 0.01054 0.57965 0.0
O531 O 0.80569 0.19974 0.59724 0.0
O532 O 0.89455 0.24183 0.60769 0.0
C533 C 0.90916 0.17844 0.75945 0.0
Fe534 Fe 0.6137 0.06652 0.33549 0.0
Fe535 Fe 0.6921 0.14494 0.42377 0.0
O536 O 0.6262 0.13241 0.37963 0.0
Fe537 Fe 0.57119 0.18741 0.37963 0.0
O538 O 0.58638 0.20393 0.30332 0.0
O539 O 0.58065 0.10902 0.27307 0.0
O540 O 0.68113 0.07686 0.29686 0.0
C541 C 0.7323 0.09267 0.31409 0.0
C542 C 0.49927 0.08286 0.36082 0.0
O543 O 0.74289 0.11149 0.36747 0.0
C544 C 0.59369 0.17573 0.49726 0.0
O545 O 0.64717 0.01574 0.39177 0.0
O546 O 0.68178 0.0775 0.46238 0.0
O547 O 0.50923 0.13801 0.35666 0.0
O548 O 0.54198 0.04872 0.36743 0.0
C549 C 0.67573 0.25936 0.39848 0.0
O550 O 0.64958 0.17797 0.48619 0.0
O551 O 0.55467 0.17222 0.45593 0.0
C552 C 0.66602 0.02632 0.44514 0.0
O553 O 0.70988 0.21666 0.39184 0.0
O554 O 0.62057 0.24939 0.4026 0.0
C555 C 0.58288 0.16491 0.26199 0.0
Fe556 Fe 0.57706 0.81993 0.11443 0.0
Fe557 Fe 0.68696 0.88447 0.06872 0.0
O558 O 0.63135 0.87724 0.12234 0.0
Fe559 Fe 0.63022 0.92641 0.1843 0.0
O560 O 0.55896 0.95296 0.16203 0.0
O561 O 0.51689 0.86409 0.15163 0.0
O562 O 0.54921 0.84883 0.0454 0.0
C563 C 0.58028 0.84951 0.99987 0.0
C564 C 0.5976 0.81215 0.23149 0.0
O565 O 0.63745 0.85272 0.00557 0.0
C566 C 0.74817 0.91503 0.17966 0.0
O567 O 0.62905 0.76638 0.0778 0.0
O568 O 0.71656 0.81208 0.08623 0.0
O569 O 0.59752 0.86915 0.23609 0.0
O570 O 0.60212 0.78765 0.18167 0.0
C571 C 0.66232 1.00075 0.08662 0.0
O572 O 0.74416 0.91718 0.12287 0.0
O573 O 0.70277 0.90407 0.20963 0.0
C574 C 0.68611 0.7643 0.08255 0.0
O575 O 0.66213 0.95783 0.04937 0.0
O576 O 0.66105 0.99103 0.1425 0.0
C577 C 0.51289 0.92069 0.15892 0.0
Fe578 Fe 0.43871 0.68165 0.14481 0.0
Fe579 Fe 0.33223 0.62845 0.07496 0.0
O580 O 0.3814 0.62735 0.13692 0.0
Fe581 Fe 0.37418 0.57174 0.19054 0.0
O582 O 0.44657 0.54215 0.17303 0.0
O583 O 0.49227 0.62967 0.18144 0.0
O584 O 0.47099 0.65658 0.07756 0.0
C585 C 0.44649 0.66104 0.02774 0.0
C586 C 0.40918 0.67844 0.25938 0.0
O587 O 0.38949 0.66115 0.02316 0.0
C588 C 0.25789 0.59637 0.17265 0.0
O589 O 0.39454 0.7418 0.10761 0.0
O590 O 0.30567 0.69971 0.09723 0.0
O591 O 0.40593 0.62126 0.25368 0.0
O592 O 0.40981 0.7095 0.21385 0.0
C593 C 0.34363 0.51051 0.07961 0.0
O594 O 0.26761 0.59762 0.11677 0.0
O595 O 0.30081 0.59658 0.2099 0.0
C596 C 0.33794 0.74578 0.10029 0.0
O597 O 0.35458 0.5559 0.04963 0.0
O598 O 0.34148 0.51453 0.13639 0.0
C599 C 0.49435 0.57261 0.1767 0.0
Fe600 Fe 0.11369 0.56654 0.8355 0.0
Fe601 Fe 0.19209 0.64496 0.92377 0.0
O602 O 0.12619 0.63244 0.87963 0.0
Fe603 Fe 0.07119 0.68744 0.87963 0.0
O604 O 0.08638 0.70395 0.80332 0.0
O605 O 0.08065 0.60905 0.77307 0.0
O606 O 0.18113 0.57687 0.79688 0.0
C607 C 0.23229 0.59267 0.81411 0.0
C608 C 0.99925 0.58289 0.86081 0.0
O609 O 0.24288 0.6115 0.86748 0.0
C610 C 0.09368 0.67578 0.99726 0.0
O611 O 0.14714 0.51577 0.89179 0.0
O612 O 0.18176 0.57753 0.96239 0.0
O613 O 0.00922 0.63804 0.85666 0.0
O614 O 0.04196 0.54875 0.86743 0.0
C615 C 0.17573 0.75938 0.89847 0.0
O616 O 0.14957 0.67801 0.98619 0.0
O617 O 0.05467 0.67226 0.95594 0.0
C618 C 0.16599 0.52636 0.94516 0.0
O619 O 0.20987 0.71668 0.89183 0.0
O620 O 0.12057 0.74942 0.90259 0.0
C621 C 0.08289 0.66493 0.762 0.0
Fe622 Fe 0.18692 0.38453 0.56865 0.0
Fe623 Fe 0.07702 0.31998 0.61437 0.0
O624 O 0.13132 0.37729 0.62228 0.0
Fe625 Fe 0.13021 0.42644 0.68425 0.0
O626 O 0.20276 0.40408 0.70956 0.0
O627 O 0.24413 0.41722 0.6228 0.0
O628 O 0.21651 0.31213 0.58614 0.0
C629 C 0.18605 0.26436 0.58243 0.0
C630 C 0.16228 0.50081 0.58659 0.0
O631 O 0.12899 0.26644 0.57771 0.0
C632 C 0.01288 0.42073 0.65893 0.0
O633 O 0.1374 0.35278 0.50551 0.0
O634 O 0.04916 0.3489 0.54535 0.0
O635 O 0.16104 0.49107 0.64246 0.0
O636 O 0.16207 0.45789 0.54932 0.0
C637 C 0.09765 0.31217 0.73144 0.0
O638 O 0.01687 0.36414 0.65159 0.0
O639 O 0.05895 0.453 0.66201 0.0
C640 C 0.08023 0.34951 0.49982 0.0
O641 O 0.10209 0.28768 0.6816 0.0
O642 O 0.09753 0.36917 0.73603 0.0
C643 C 0.24815 0.41503 0.67958 0.0
Fe644 Fe 0.69248 0.62183 0.57319 0.0
Fe645 Fe 0.63681 0.56619 0.68606 0.0
O646 O 0.63721 0.62145 0.62962 0.0
Fe647 Fe 0.58137 0.6773 0.62962 0.0
O648 O 0.57892 0.68808 0.54996 0.0
O649 O 0.6361 0.61955 0.51278 0.0
O650 O 0.69778 0.54101 0.56716 0.0
C651 C 0.67281 0.49693 0.59121 0.0
C652 C 0.67781 0.74599 0.60025 0.0
O653 O 0.63543 0.50364 0.63225 0.0
C654 C 0.59886 0.66051 0.75314 0.0
O655 O 0.75502 0.6232 0.627 0.0
O656 O 0.71763 0.56086 0.69209 0.0
O657 O 0.63739 0.73742 0.63795 0.0
O658 O 0.69802 0.70338 0.56962 0.0
C659 C 0.51266 0.58088 0.65899 0.0
O660 O 0.6391 0.62257 0.74646 0.0
O661 O 0.57059 0.67977 0.70928 0.0
C662 C 0.76171 0.58581 0.66803 0.0
O663 O 0.55526 0.56067 0.68962 0.0
O664 O 0.52124 0.6213 0.62129 0.0
C665 C 0.59816 0.6598 0.5061 0.0
Fe666 Fe 0.43043 0.3284 0.37959 0.0
Fe667 Fe 0.37453 0.43651 0.32493 0.0
O668 O 0.37594 0.3828 0.37961 0.0
Fe669 Fe 0.32223 0.38409 0.4343 0.0
O670 O 0.29303 0.31481 0.40684 0.0
O671 O 0.37822 0.26917 0.4097 0.0
O672 O 0.4061 0.30078 0.30732 0.0
C673 C 0.40884 0.33223 0.26224 0.0
C674 C 0.42657 0.34988 0.49694 0.0
O675 O 0.40892 0.38875 0.26745 0.0
C676 C 0.34705 0.50058 0.4302 0.0
O677 O 0.48957 0.3807 0.34946 0.0
O678 O 0.44378 0.46581 0.35235 0.0
O679 O 0.37005 0.34974 0.49174 0.0
O680 O 0.45802 0.35274 0.45186 0.0
C681 C 0.25808 0.41153 0.32908 0.0
O682 O 0.3422 0.4938 0.37383 0.0
O683 O 0.34971 0.45579 0.46257 0.0
C684 C 0.49102 0.43791 0.35314 0.0
O685 O 0.30287 0.40893 0.2967 0.0
O686 O 0.26488 0.41637 0.38544 0.0
C687 C 0.32101 0.26761 0.40591 0.0
loop_
_geom_bond_atom_site_label_1
_geom_bond_atom_site_label_2
_geom_bond_distance
_geom_bond_site_symmetry_2
_ccdc_geom_bond_type
Co0 O1 2.216 1_655 S
Co0 O2 2.091 . S
Co0 O4 2.004 . S
Co0 O10 2.021 1_655 S
Co0 O12 2.137 . S
Co0 O13 2.244 1_655 S
O1 Co0 2.216 1_455 S
O1 C8 1.247 1_455 S
O2 Co0 2.091 . S
O2 C8 1.261 . S
C3 O12 1.247 1_455 S
C3 O13 1.272 . S
O4 Co0 2.004 . S
O4 C9 1.259 . S
Co5 O6 2.061 . S
Co5 O11 2.052 . S
Co5 O13 2.135 . S
O6 Co5 2.061 . S
O6 C9 1.235 1_455 S
C7 O10 1.238 . S
C7 O11 1.241 . S
C8 O1 1.247 1_655 S
C8 O2 1.261 . S
C9 O4 1.259 . S
C9 O6 1.235 1_655 S
O10 Co0 2.021 1_455 S
O10 C7 1.238 . S
O11 Co5 2.052 . S
O11 C7 1.241 . S
O12 Co0 2.137 . S
O12 C3 1.247 1_655 S
O13 Co0 2.244 1_455 S
O13 C3 1.272 . S
O13 Co5 2.135 . S
Co14 O15 2.216 . S
Co14 O16 2.091 . S
Co14 O18 2.004 1_655 S
Co14 O24 2.021 1_655 S
Co14 O26 2.137 . S
Co14 O27 2.244 . S
O15 Co14 2.216 . S
O15 C22 1.247 . S
O16 Co14 2.091 . S
O16 C22 1.261 . S
C17 O26 1.247 . S
C17 O27 1.272 . S
O18 Co14 2.004 1_455 S
O18 C23 1.259 . S
Co19 O20 2.061 . S
Co19 O25 2.052 . S
Co19 O27 2.135 1_455 S
O20 Co19 2.061 . S
O20 C23 1.235 . S
C21 O24 1.238 . S
C21 O25 1.241 . S
C22 O15 1.247 . S
C22 O16 1.261 . S
C23 O18 1.259 . S
C23 O20 1.235 . S
O24 Co14 2.021 1_455 S
O24 C21 1.238 . S
O25 Co19 2.052 . S
O25 C21 1.241 . S
O26 Co14 2.137 . S
O26 C17 1.247 . S
O27 Co14 2.244 . S
O27 C17 1.272 . S
O27 Co19 2.135 1_655 S
Co28 O29 2.216 . S
Co28 O30 2.091 . S
Co28 O32 2.004 . S
Co28 O38 2.021 . S
Co28 O40 2.137 . S
Co28 O41 2.244 . S
O29 Co28 2.216 . S
O29 C36 1.247 . S
O30 Co28 2.091 . S
O30 C36 1.261 . S
C31 O40 1.247 . S
C31 O41 1.272 . S
O32 Co28 2.004 . S
O32 C37 1.259 . S
Co33 O34 2.061 . S
Co33 O39 2.052 . S
Co33 O41 2.135 . S
O34 Co33 2.061 . S
O34 C37 1.235 . S
C35 O38 1.238 . S
C35 O39 1.241 . S
C36 O29 1.247 . S
C36 O30 1.261 . S
C37 O32 1.259 . S
C37 O34 1.235 . S
O38 Co28 2.021 . S
O38 C35 1.238 . S
O39 Co33 2.052 . S
O39 C35 1.241 . S
O40 Co28 2.137 . S
O40 C31 1.247 . S
O41 Co28 2.244 . S
O41 C31 1.272 . S
O41 Co33 2.135 . S
Co42 O43 2.216 . S
Co42 O44 2.091 . S
Co42 O46 2.004 . S
Co42 O52 2.021 . S
Co42 O54 2.137 . S
Co42 O55 2.244 . S
O43 Co42 2.216 . S
O43 C50 1.247 . S
O44 Co42 2.091 . S
O44 C50 1.261 . S
C45 O54 1.247 . S
C45 O55 1.272 . S
O46 Co42 2.004 . S
O46 C51 1.259 . S
Co47 O48 2.061 . S
Co47 O53 2.052 . S
Co47 O55 2.135 . S
O48 Co47 2.061 . S
O48 C51 1.235 . S
C49 O52 1.238 . S
C49 O53 1.241 . S
C50 O43 1.247 . S
C50 O44 1.261 . S
C51 O46 1.259 . S
C51 O48 1.235 . S
O52 Co42 2.021 . S
O52 C49 1.238 . S
O53 Co47 2.052 . S
O53 C49 1.241 . S
O54 Co42 2.137 . S
O54 C45 1.247 . S
O55 Co42 2.244 . S
O55 C45 1.272 . S
O55 Co47 2.135 . S
Co56 O57 2.216 1_655 S
Co56 O58 2.091 . S
Co56 O60 2.004 . S
Co56 O66 2.021 1_655 S
Co56 O68 2.137 . S
Co56 O69 2.244 1_655 S
O57 Co56 2.216 1_455 S
O57 C64 1.247 1_455 S
O58 Co56 2.091 . S
O58 C64 1.261 . S
C59 O68 1.247 1_455 S
C59 O69 1.272 . S
O60 Co56 2.004 . S
O60 C65 1.259 . S
Co61 O62 2.061 . S
Co61 O67 2.052 . S
Co61 O69 2.135 . S
O62 Co61 2.061 . S
O62 C65 1.235 1_455 S
C63 O66 1.238 . S
C63 O67 1.241 . S
C64 O57 1.247 1_655 S
C64 O58 1.261 . S
C65 O60 1.259 . S
C65 O62 1.235 1_655 S
O66 Co56 2.021 1_455 S
O66 C63 1.238 . S
O67 Co61 2.052 . S
O67 C63 1.241 . S
O68 Co56 2.137 . S
O68 C59 1.247 1_655 S
O69 Co56 2.244 1_455 S
O69 C59 1.272 . S
O69 Co61 2.135 . S
Co70 O71 2.216 . S
Co70 O72 2.091 . S
Co70 O74 2.004 . S
Co70 O80 2.021 . S
Co70 O82 2.137 . S
Co70 O83 2.244 . S
O71 Co70 2.216 . S
O71 C78 1.247 . S
O72 Co70 2.091 . S
O72 C78 1.261 . S
C73 O82 1.247 . S
C73 O83 1.272 . S
O74 Co70 2.004 . S
O74 C79 1.259 . S
Co75 O76 2.061 . S
Co75 O81 2.052 . S
Co75 O83 2.135 . S
O76 Co75 2.061 . S
O76 C79 1.235 . S
C77 O80 1.238 . S
C77 O81 1.241 . S
C78 O71 1.247 . S
C78 O72 1.261 . S
C79 O74 1.259 . S
C79 O76 1.235 . S
O80 Co70 2.021 . S
O80 C77 1.238 . S
O81 Co75 2.052 . S
O81 C77 1.241 . S
O82 Co70 2.137 . S
O82 C73 1.247 . S
O83 Co70 2.244 . S
O83 C73 1.272 . S
O83 Co75 2.135 . S
Co84 O85 2.216 . S
Co84 O86 2.091 . S
Co84 O88 2.004 . S
Co84 O94 2.021 . S
Co84 O96 2.137 . S
Co84 O97 2.244 . S
O85 Co84 2.216 . S
O85 C92 1.247 . S
O86 Co84 2.091 . S
O86 C92 1.261 . S
C87 O96 1.247 . S
C87 O97 1.272 . S
O88 Co84 2.004 . S
O88 C93 1.259 . S
Co89 O90 2.061 . S
Co89 O95 2.052 . S
Co89 O97 2.135 . S
O90 Co89 2.061 . S
O90 C93 1.235 . S
C91 O94 1.238 . S
C91 O95 1.241 . S
C92 O85 1.247 . S
C92 O86 1.261 . S
C93 O88 1.259 . S
C93 O90 1.235 . S
O94 Co84 2.021 . S
O94 C91 1.238 . S
O95 Co89 2.052 . S
O95 C91 1.241 . S
O96 Co84 2.137 . S
O96 C87 1.247 . S
O97 Co84 2.244 . S
O97 C87 1.272 . S
O97 Co89 2.135 . S
Co98 O99 2.216 . S
Co98 O100 2.091 . S
Co98 O102 2.004 1_655 S
Co98 O108 2.021 1_655 S
Co98 O110 2.137 . S
Co98 O111 2.244 . S
O99 Co98 2.216 . S
O99 C106 1.247 . S
O100 Co98 2.091 . S
O100 C106 1.261 . S
C101 O110 1.247 . S
C101 O111 1.272 . S
O102 Co98 2.004 1_455 S
O102 C107 1.259 . S
Co103 O104 2.061 . S
Co103 O109 2.052 . S
Co103 O111 2.135 1_455 S
O104 Co103 2.061 . S
O104 C107 1.235 . S
C105 O108 1.238 . S
C105 O109 1.241 . S
C106 O99 1.247 . S
C106 O100 1.261 . S
C107 O102 1.259 . S
C107 O104 1.235 . S
O108 Co98 2.021 1_455 S
O108 C105 1.238 . S
O109 Co103 2.052 . S
O109 C105 1.241 . S
O110 Co98 2.137 . S
O110 C101 1.247 . S
O111 Co98 2.244 . S
O111 C101 1.272 . S
O111 Co103 2.135 1_655 S
Co112 O113 2.216 1_565 S
Co112 O114 2.091 . S
Co112 O116 2.004 . S
Co112 O122 2.021 1_565 S
Co112 O124 2.137 . S
Co112 O125 2.244 1_565 S
O113 Co112 2.216 1_545 S
O113 C120 1.247 1_545 S
O114 Co112 2.091 . S
O114 C120 1.261 . S
C115 O124 1.247 1_545 S
C115 O125 1.272 . S
O116 Co112 2.004 . S
O116 C121 1.259 . S
Co117 O118 2.061 . S
Co117 O123 2.052 . S
Co117 O125 2.135 . S
O118 Co117 2.061 . S
O118 C121 1.235 1_545 S
C119 O122 1.238 . S
C119 O123 1.241 . S
C120 O113 1.247 1_565 S
C120 O114 1.261 . S
C121 O116 1.259 . S
C121 O118 1.235 1_565 S
O122 Co112 2.021 1_545 S
O122 C119 1.238 . S
O123 Co117 2.052 . S
O123 C119 1.241 . S
O124 Co112 2.137 . S
O124 C115 1.247 1_565 S
O125 Co112 2.244 1_545 S
O125 C115 1.272 . S
O125 Co117 2.135 . S
Co126 O127 2.216 . S
Co126 O128 2.091 . S
Co126 O130 2.004 . S
Co126 O136 2.021 . S
Co126 O138 2.137 . S
Co126 O139 2.244 . S
O127 Co126 2.216 . S
O127 C134 1.247 . S
O128 Co126 2.091 . S
O128 C134 1.261 . S
C129 O138 1.247 . S
C129 O139 1.272 . S
O130 Co126 2.004 . S
O130 C135 1.259 . S
Co131 O132 2.061 . S
Co131 O137 2.052 . S
Co131 O139 2.135 . S
O132 Co131 2.061 . S
O132 C135 1.235 . S
C133 O136 1.238 . S
C133 O137 1.241 . S
C134 O127 1.247 . S
C134 O128 1.261 . S
C135 O130 1.259 . S
C135 O132 1.235 . S
O136 Co126 2.021 . S
O136 C133 1.238 . S
O137 Co131 2.052 . S
O137 C133 1.241 . S
O138 Co126 2.137 . S
O138 C129 1.247 . S
O139 Co126 2.244 . S
O139 C129 1.272 . S
O139 Co131 2.135 . S
Co140 O141 2.216 1_565 S
Co140 O142 2.091 . S
Co140 O144 2.004 . S
Co140 O150 2.021 1_565 S
Co140 O152 2.137 . S
Co140 O153 2.244 1_565 S
O141 Co140 2.216 1_545 S
O141 C148 1.247 1_545 S
O142 Co140 2.091 . S
O142 C148 1.261 . S
C143 O152 1.247 1_545 S
C143 O153 1.272 . S
O144 Co140 2.004 . S
O144 C149 1.259 . S
Co145 O146 2.061 . S
Co145 O151 2.052 . S
Co145 O153 2.135 . S
O146 Co145 2.061 . S
O146 C149 1.235 1_545 S
C147 O150 1.238 . S
C147 O151 1.241 . S
C148 O141 1.247 1_565 S
C148 O142 1.261 . S
C149 O144 1.259 . S
C149 O146 1.235 1_565 S
O150 Co140 2.021 1_545 S
O150 C147 1.238 . S
O151 Co145 2.052 . S
O151 C147 1.241 . S
O152 Co140 2.137 . S
O152 C143 1.247 1_565 S
O153 Co140 2.244 1_545 S
O153 C143 1.272 . S
O153 Co145 2.135 . S
Co154 O155 2.216 . S
Co154 O156 2.091 . S
Co154 O158 2.004 1_554 S
Co154 O164 2.021 1_554 S
Co154 O166 2.137 . S
Co154 O167 2.244 . S
O155 Co154 2.216 . S
O155 C162 1.247 . S
O156 Co154 2.091 . S
O156 C162 1.261 . S
C157 O166 1.247 . S
C157 O167 1.272 . S
O158 Co154 2.004 1_556 S
O158 C163 1.259 . S
Co159 O160 2.061 . S
Co159 O165 2.052 . S
Co159 O167 2.135 1_556 S
O160 Co159 2.061 . S
O160 C163 1.235 . S
C161 O164 1.238 . S
C161 O165 1.241 . S
C162 O155 1.247 . S
C162 O156 1.261 . S
C163 O158 1.259 . S
C163 O160 1.235 . S
O164 Co154 2.021 1_556 S
O164 C161 1.238 . S
O165 Co159 2.052 . S
O165 C161 1.241 . S
O166 Co154 2.137 . S
O166 C157 1.247 . S
O167 Co154 2.244 . S
O167 C157 1.272 . S
O167 Co159 2.135 1_554 S
Co168 O169 2.216 1_556 S
Co168 O170 2.091 . S
Co168 O172 2.004 . S
Co168 O178 2.021 1_556 S
Co168 O180 2.137 . S
Co168 O181 2.244 1_556 S
O169 Co168 2.216 1_554 S
O169 C176 1.247 1_554 S
O170 Co168 2.091 . S
O170 C176 1.261 . S
C171 O180 1.247 1_554 S
C171 O181 1.272 . S
O172 Co168 2.004 . S
O172 C177 1.259 . S
Co173 O174 2.061 . S
Co173 O179 2.052 . S
Co173 O181 2.135 . S
O174 Co173 2.061 . S
O174 C177 1.235 1_554 S
C175 O178 1.238 . S
C175 O179 1.241 . S
C176 O169 1.247 1_556 S
C176 O170 1.261 . S
C177 O172 1.259 . S
C177 O174 1.235 1_556 S
O178 Co168 2.021 1_554 S
O178 C175 1.238 . S
O179 Co173 2.052 . S
O179 C175 1.241 . S
O180 Co168 2.137 . S
O180 C171 1.247 1_556 S
O181 Co168 2.244 1_554 S
O181 C171 1.272 . S
O181 Co173 2.135 . S
Co182 O183 2.216 1_556 S
Co182 O184 2.091 . S
Co182 O186 2.004 . S
Co182 O192 2.021 1_556 S
Co182 O194 2.137 . S
Co182 O195 2.244 1_556 S
O183 Co182 2.216 1_554 S
O183 C190 1.247 1_554 S
O184 Co182 2.091 . S
O184 C190 1.261 . S
C185 O194 1.247 1_554 S
C185 O195 1.272 . S
O186 Co182 2.004 . S
O186 C191 1.259 . S
Co187 O188 2.061 . S
Co187 O193 2.052 . S
Co187 O195 2.135 . S
O188 Co187 2.061 . S
O188 C191 1.235 1_554 S
C189 O192 1.238 . S
C189 O193 1.241 . S
C190 O183 1.247 1_556 S
C190 O184 1.261 . S
C191 O186 1.259 . S
C191 O188 1.235 1_556 S
O192 Co182 2.021 1_554 S
O192 C189 1.238 . S
O193 Co187 2.052 . S
O193 C189 1.241 . S
O194 Co182 2.137 . S
O194 C185 1.247 1_556 S
O195 Co182 2.244 1_554 S
O195 C185 1.272 . S
O195 Co187 2.135 . S
Co196 O197 2.216 . S
Co196 O198 2.091 . S
Co196 O200 2.004 . S
Co196 O206 2.021 . S
Co196 O208 2.137 . S
Co196 O209 2.244 . S
O197 Co196 2.216 . S
O197 C204 1.247 . S
O198 Co196 2.091 . S
O198 C204 1.261 . S
C199 O208 1.247 . S
C199 O209 1.272 . S
O200 Co196 2.004 . S
O200 C205 1.259 . S
Co201 O202 2.061 . S
Co201 O207 2.052 . S
Co201 O209 2.135 . S
O202 Co201 2.061 . S
O202 C205 1.235 . S
C203 O206 1.238 . S
C203 O207 1.241 . S
C204 O197 1.247 . S
C204 O198 1.261 . S
C205 O200 1.259 . S
C205 O202 1.235 . S
O206 Co196 2.021 . S
O206 C203 1.238 . S
O207 Co201 2.052 . S
O207 C203 1.241 . S
O208 Co196 2.137 . S
O208 C199 1.247 . S
O209 Co196 2.244 . S
O209 C199 1.272 . S
O209 Co201 2.135 . S
Co210 O211 2.216 . S
Co210 O212 2.091 . S
Co210 O214 2.004 . S
Co210 O220 2.021 . S
Co210 O222 2.137 . S
Co210 O223 2.244 . S
O211 Co210 2.216 . S
O211 C218 1.247 . S
O212 Co210 2.091 . S
O212 C218 1.261 . S
C213 O222 1.247 . S
C213 O223 1.272 . S
O214 Co210 2.004 . S
O214 C219 1.259 . S
Co215 O216 2.061 . S
Co215 O221 2.052 . S
Co215 O223 2.135 . S
O216 Co215 2.061 . S
O216 C219 1.235 . S
C217 O220 1.238 . S
C217 O221 1.241 . S
C218 O211 1.247 . S
C218 O212 1.261 . S
C219 O214 1.259 . S
C219 O216 1.235 . S
O220 Co210 2.021 . S
O220 C217 1.238 . S
O221 Co215 2.052 . S
O221 C217 1.241 . S
O222 Co210 2.137 . S
O222 C213 1.247 . S
O223 Co210 2.244 . S
O223 C213 1.272 . S
O223 Co215 2.135 . S
Co224 O225 2.216 . S
Co224 O226 2.091 . S
Co224 O228 2.004 1_565 S
Co224 O234 2.021 1_565 S
Co224 O236 2.137 . S
Co224 O237 2.244 . S
O225 Co224 2.216 . S
O225 C232 1.247 . S
O226 Co224 2.091 . S
O226 C232 1.261 . S
C227 O236 1.247 . S
C227 O237 1.272 . S
O228 Co224 2.004 1_545 S
O228 C233 1.259 . S
Co229 O230 2.061 . S
Co229 O235 2.052 . S
Co229 O237 2.135 1_545 S
O230 Co229 2.061 . S
O230 C233 1.235 . S
C231 O234 1.238 . S
C231 O235 1.241 . S
C232 O225 1.247 . S
C232 O226 1.261 . S
C233 O228 1.259 . S
C233 O230 1.235 . S
O234 Co224 2.021 1_545 S
O234 C231 1.238 . S
O235 Co229 2.052 . S
O235 C231 1.241 . S
O236 Co224 2.137 . S
O236 C227 1.247 . S
O237 Co224 2.244 . S
O237 C227 1.272 . S
O237 Co229 2.135 1_565 S
Co238 O239 2.216 . S
Co238 O240 2.091 . S
Co238 O242 2.004 . S
Co238 O248 2.021 . S
Co238 O250 2.137 . S
Co238 O251 2.244 . S
O239 Co238 2.216 . S
O239 C246 1.247 . S
O240 Co238 2.091 . S
O240 C246 1.261 . S
C241 O250 1.247 . S
C241 O251 1.272 . S
O242 Co238 2.004 . S
O242 C247 1.259 . S
Co243 O244 2.061 . S
Co243 O249 2.052 . S
Co243 O251 2.135 . S
O244 Co243 2.061 . S
O244 C247 1.235 . S
C245 O248 1.238 . S
C245 O249 1.241 . S
C246 O239 1.247 . S
C246 O240 1.261 . S
C247 O242 1.259 . S
C247 O244 1.235 . S
O248 Co238 2.021 . S
O248 C245 1.238 . S
O249 Co243 2.052 . S
O249 C245 1.241 . S
O250 Co238 2.137 . S
O250 C241 1.247 . S
O251 Co238 2.244 . S
O251 C241 1.272 . S
O251 Co243 2.135 . S
Co252 O253 2.216 . S
Co252 O254 2.091 . S
Co252 O256 2.004 . S
Co252 O262 2.021 . S
Co252 O264 2.137 . S
Co252 O265 2.244 . S
O253 Co252 2.216 . S
O253 C260 1.247 . S
O254 Co252 2.091 . S
O254 C260 1.261 . S
C255 O264 1.247 . S
C255 O265 1.272 . S
O256 Co252 2.004 . S
O256 C261 1.259 . S
Co257 O258 2.061 . S
Co257 O263 2.052 . S
Co257 O265 2.135 . S
O258 Co257 2.061 . S
O258 C261 1.235 . S
C259 O262 1.238 . S
C259 O263 1.241 . S
C260 O253 1.247 . S
C260 O254 1.261 . S
C261 O256 1.259 . S
C261 O258 1.235 . S
O262 Co252 2.021 . S
O262 C259 1.238 . S
O263 Co257 2.052 . S
O263 C259 1.241 . S
O264 Co252 2.137 . S
O264 C255 1.247 . S
O265 Co252 2.244 . S
O265 C255 1.272 . S
O265 Co257 2.135 . S
Co266 O267 2.216 . S
Co266 O268 2.091 . S
Co266 O270 2.004 1_565 S
Co266 O276 2.021 1_565 S
Co266 O278 2.137 . S
Co266 O279 2.244 . S
O267 Co266 2.216 . S
O267 C274 1.247 . S
O268 Co266 2.091 . S
O268 C274 1.261 . S
C269 O278 1.247 . S
C269 O279 1.272 . S
O270 Co266 2.004 1_545 S
O270 C275 1.259 . S
Co271 O272 2.061 . S
Co271 O277 2.052 . S
Co271 O279 2.135 1_545 S
O272 Co271 2.061 . S
O272 C275 1.235 . S
C273 O276 1.238 . S
C273 O277 1.241 . S
C274 O267 1.247 . S
C274 O268 1.261 . S
C275 O270 1.259 . S
C275 O272 1.235 . S
O276 Co266 2.021 1_545 S
O276 C273 1.238 . S
O277 Co271 2.052 . S
O277 C273 1.241 . S
O278 Co266 2.137 . S
O278 C269 1.247 . S
O279 Co266 2.244 . S
O279 C269 1.272 . S
O279 Co271 2.135 1_565 S
Co280 O281 2.216 . S
Co280 O282 2.091 . S
Co280 O284 2.004 1_554 S
Co280 O290 2.021 1_554 S
Co280 O292 2.137 . S
Co280 O293 2.244 . S
O281 Co280 2.216 . S
O281 C288 1.247 . S
O282 Co280 2.091 . S
O282 C288 1.261 . S
C283 O292 1.247 . S
C283 O293 1.272 . S
O284 Co280 2.004 1_556 S
O284 C289 1.259 . S
Co285 O286 2.061 . S
Co285 O291 2.052 . S
Co285 O293 2.135 1_556 S
O286 Co285 2.061 . S
O286 C289 1.235 . S
C287 O290 1.238 . S
C287 O291 1.241 . S
C288 O281 1.247 . S
C288 O282 1.261 . S
C289 O284 1.259 . S
C289 O286 1.235 . S
O290 Co280 2.021 1_556 S
O290 C287 1.238 . S
O291 Co285 2.052 . S
O291 C287 1.241 . S
O292 Co280 2.137 . S
O292 C283 1.247 . S
O293 Co280 2.244 . S
O293 C283 1.272 . S
O293 Co285 2.135 1_554 S
Co294 O295 2.216 . S
Co294 O296 2.091 . S
Co294 O298 2.004 . S
Co294 O304 2.021 . S
Co294 O306 2.137 . S
Co294 O307 2.244 . S
O295 Co294 2.216 . S
O295 C302 1.247 . S
O296 Co294 2.091 . S
O296 C302 1.261 . S
C297 O306 1.247 . S
C297 O307 1.272 . S
O298 Co294 2.004 . S
O298 C303 1.259 . S
Co299 O300 2.061 . S
Co299 O305 2.052 . S
Co299 O307 2.135 . S
O300 Co299 2.061 . S
O300 C303 1.235 . S
C301 O304 1.238 . S
C301 O305 1.241 . S
C302 O295 1.247 . S
C302 O296 1.261 . S
C303 O298 1.259 . S
C303 O300 1.235 . S
O304 Co294 2.021 . S
O304 C301 1.238 . S
O305 Co299 2.052 . S
O305 C301 1.241 . S
O306 Co294 2.137 . S
O306 C297 1.247 . S
O307 Co294 2.244 . S
O307 C297 1.272 . S
O307 Co299 2.135 . S
Co308 O309 2.216 . S
Co308 O310 2.091 . S
Co308 O312 2.004 . S
Co308 O318 2.021 . S
Co308 O320 2.137 . S
Co308 O321 2.244 . S
O309 Co308 2.216 . S
O309 C316 1.247 . S
O310 Co308 2.091 . S
O310 C316 1.261 . S
C311 O320 1.247 . S
C311 O321 1.272 . S
O312 Co308 2.004 . S
O312 C317 1.259 . S
Co313 O314 2.061 . S
Co313 O319 2.052 . S
Co313 O321 2.135 . S
O314 Co313 2.061 . S
O314 C317 1.235 . S
C315 O318 1.238 . S
C315 O319 1.241 . S
C316 O309 1.247 . S
C316 O310 1.261 . S
C317 O312 1.259 . S
C317 O314 1.235 . S
O318 Co308 2.021 . S
O318 C315 1.238 . S
O319 Co313 2.052 . S
O319 C315 1.241 . S
O320 Co308 2.137 . S
O320 C311 1.247 . S
O321 Co308 2.244 . S
O321 C311 1.272 . S
O321 Co313 2.135 . S
Co322 O323 2.216 . S
Co322 O324 2.091 . S
Co322 O326 2.004 . S
Co322 O332 2.021 . S
Co322 O334 2.137 . S
Co322 O335 2.244 . S
O323 Co322 2.216 . S
O323 C330 1.247 . S
O324 Co322 2.091 . S
O324 C330 1.261 . S
C325 O334 1.247 . S
C325 O335 1.272 . S
O326 Co322 2.004 . S
O326 C331 1.259 . S
Co327 O328 2.061 . S
Co327 O333 2.052 . S
Co327 O335 2.135 . S
O328 Co327 2.061 . S
O328 C331 1.235 . S
C329 O332 1.238 . S
C329 O333 1.241 . S
C330 O323 1.247 . S
C330 O324 1.261 . S
C331 O326 1.259 . S
C331 O328 1.235 . S
O332 Co322 2.021 . S
O332 C329 1.238 . S
O333 Co327 2.052 . S
O333 C329 1.241 . S
O334 Co322 2.137 . S
O334 C325 1.247 . S
O335 Co322 2.244 . S
O335 C325 1.272 . S
O335 Co327 2.135 . S
Fe336 O338 1.918 . S
Fe336 O341 1.997 . S
Fe336 O342 2.002 . S
Fe336 O347 1.976 . S
Fe336 O350 1.996 . S
Fe337 O338 1.918 . S
Fe337 O345 1.997 . S
Fe337 O348 1.996 . S
Fe337 O352 1.976 . S
Fe337 O355 2.002 . S
O338 Fe336 1.918 . S
O338 Fe337 1.918 . S
O338 Fe339 1.918 . S
Fe339 O338 1.918 . S
Fe339 O340 2.002 . S
Fe339 O349 1.976 . S
Fe339 O353 1.996 . S
Fe339 O356 1.997 . S
O340 Fe339 2.002 . S
O340 C357 1.286 1_545 S
O341 Fe336 1.997 . S
O341 C357 1.234 1_545 S
O342 Fe336 2.002 . S
O342 C343 1.295 1_455 S
C343 O342 1.295 1_655 S
C343 O345 1.235 1_655 S
C344 O349 1.287 . S
C344 O350 1.255 . S
O345 Fe337 1.997 . S
O345 C343 1.235 1_455 S
C346 O352 1.287 . S
C346 O353 1.255 . S
O347 Fe336 1.976 . S
O347 C354 1.287 . S
O348 Fe337 1.996 . S
O348 C354 1.255 . S
O349 Fe339 1.976 . S
O349 C344 1.287 . S
O350 Fe336 1.996 . S
O350 C344 1.255 . S
C351 O355 1.295 1_556 S
C351 O356 1.235 1_556 S
O352 Fe337 1.976 . S
O352 C346 1.287 . S
O353 Fe339 1.996 . S
O353 C346 1.255 . S
C354 O347 1.287 . S
C354 O348 1.255 . S
O355 Fe337 2.002 . S
O355 C351 1.295 1_554 S
O356 Fe339 1.997 . S
O356 C351 1.235 1_554 S
C357 O340 1.286 1_565 S
C357 O341 1.234 1_565 S
Fe358 O360 1.918 . S
Fe358 O363 1.997 . S
Fe358 O364 2.002 . S
Fe358 O369 1.976 . S
Fe358 O372 1.996 . S
Fe359 O360 1.918 . S
Fe359 O367 1.997 . S
Fe359 O370 1.996 . S
Fe359 O374 1.976 1_565 S
Fe359 O377 2.002 . S
O360 Fe358 1.918 . S
O360 Fe359 1.918 . S
O360 Fe361 1.918 . S
Fe361 O360 1.918 . S
Fe361 O362 2.002 . S
Fe361 O371 1.976 . S
Fe361 O375 1.996 . S
Fe361 O378 1.997 . S
O362 Fe361 2.002 . S
O362 C379 1.295 . S
O363 Fe358 1.997 . S
O363 C379 1.235 . S
O364 Fe358 2.002 . S
O364 C365 1.295 . S
C365 O364 1.295 . S
C365 O367 1.235 . S
C366 O371 1.287 . S
C366 O372 1.255 . S
O367 Fe359 1.997 . S
O367 C365 1.235 . S
C368 O374 1.287 . S
C368 O375 1.255 1_545 S
O369 Fe358 1.976 . S
O369 C376 1.287 1_455 S
O370 Fe359 1.996 . S
O370 C376 1.255 1_455 S
O371 Fe361 1.976 . S
O371 C366 1.287 . S
O372 Fe358 1.996 . S
O372 C366 1.255 . S
C373 O377 1.295 . S
C373 O378 1.235 . S
O374 Fe359 1.976 1_545 S
O374 C368 1.287 . S
O375 Fe361 1.996 . S
O375 C368 1.255 1_565 S
C376 O369 1.287 1_655 S
C376 O370 1.255 1_655 S
O377 Fe359 2.002 . S
O377 C373 1.295 . S
O378 Fe361 1.997 . S
O378 C373 1.235 . S
C379 O362 1.295 . S
C379 O363 1.235 . S
Fe380 O382 1.918 . S
Fe380 O385 1.997 . S
Fe380 O386 2.002 . S
Fe380 O391 1.976 1_565 S
Fe380 O394 1.996 . S
Fe381 O382 1.918 . S
Fe381 O389 1.997 . S
Fe381 O392 1.996 . S
Fe381 O396 1.976 . S
Fe381 O399 2.002 . S
O382 Fe380 1.918 . S
O382 Fe381 1.918 . S
O382 Fe383 1.918 . S
Fe383 O382 1.918 . S
Fe383 O384 2.002 . S
Fe383 O393 1.976 . S
Fe383 O397 1.996 . S
Fe383 O400 1.997 . S
O384 Fe383 2.002 . S
O384 C401 1.295 . S
O385 Fe380 1.997 . S
O385 C401 1.235 . S
O386 Fe380 2.002 . S
O386 C387 1.295 . S
C387 O386 1.295 . S
C387 O389 1.235 . S
C388 O393 1.287 . S
C388 O394 1.255 . S
O389 Fe381 1.997 . S
O389 C387 1.235 . S
C390 O396 1.287 . S
C390 O397 1.255 . S
O391 Fe380 1.976 1_545 S
O391 C398 1.287 . S
O392 Fe381 1.996 . S
O392 C398 1.255 1_565 S
O393 Fe383 1.976 . S
O393 C388 1.287 . S
O394 Fe380 1.996 . S
O394 C388 1.255 . S
C395 O399 1.295 . S
C395 O400 1.235 . S
O396 Fe381 1.976 . S
O396 C390 1.287 . S
O397 Fe383 1.996 . S
O397 C390 1.255 . S
C398 O391 1.287 . S
C398 O392 1.255 1_545 S
O399 Fe381 2.002 . S
O399 C395 1.295 . S
O400 Fe383 1.997 . S
O400 C395 1.235 . S
C401 O384 1.295 . S
C401 O385 1.235 . S
Fe402 O404 1.918 . S
Fe402 O407 1.997 . S
Fe402 O408 2.002 . S
Fe402 O413 1.976 . S
Fe402 O416 1.996 . S
Fe403 O404 1.918 . S
Fe403 O411 1.997 . S
Fe403 O414 1.996 . S
Fe403 O418 1.969 1_545 S
Fe403 O421 2.002 . S
O404 Fe402 1.918 . S
O404 Fe403 1.918 . S
O404 Fe405 1.918 . S
Fe405 O404 1.918 . S
Fe405 O406 2.002 . S
Fe405 O415 1.976 1_556 S
Fe405 O419 1.996 . S
Fe405 O422 1.997 . S
O406 Fe405 2.002 . S
O406 C423 1.295 . S
O407 Fe402 1.997 . S
O407 C423 1.235 . S
O408 Fe402 2.002 . S
O408 C409 1.295 . S
C409 O408 1.295 . S
C409 O411 1.235 . S
C410 O415 1.287 . S
C410 O416 1.255 1_554 S
O411 Fe403 1.997 . S
O411 C409 1.235 . S
C412 O418 1.287 . S
C412 O419 1.255 1_565 S
O413 Fe402 1.976 . S
O413 C420 1.287 . S
O414 Fe403 1.996 . S
O414 C420 1.255 . S
O415 Fe405 1.976 1_554 S
O415 C410 1.287 . S
O416 Fe402 1.996 . S
O416 C410 1.255 1_556 S
C417 O421 1.295 . S
C417 O422 1.235 . S
O418 Fe403 1.969 1_565 S
O418 C412 1.287 . S
O419 Fe405 1.996 . S
O419 C412 1.255 1_545 S
C420 O413 1.287 . S
C420 O414 1.255 . S
O421 Fe403 2.002 . S
O421 C417 1.295 . S
O422 Fe405 1.997 . S
O422 C417 1.235 . S
C423 O406 1.295 . S
C423 O407 1.235 . S
Fe424 O426 1.918 . S
Fe424 O429 1.997 . S
Fe424 O430 2.002 . S
Fe424 O435 1.976 . S
Fe424 O438 1.996 . S
Fe425 O426 1.918 . S
Fe425 O433 1.997 . S
Fe425 O436 1.996 . S
Fe425 O440 1.976 . S
Fe425 O443 2.002 . S
O426 Fe424 1.918 . S
O426 Fe425 1.918 . S
O426 Fe427 1.918 . S
Fe427 O426 1.918 . S
Fe427 O428 2.002 . S
Fe427 O437 1.976 1_556 S
Fe427 O441 1.996 . S
Fe427 O444 1.997 . S
O428 Fe427 2.002 . S
O428 C445 1.295 . S
O429 Fe424 1.997 . S
O429 C445 1.235 . S
O430 Fe424 2.002 . S
O430 C431 1.295 . S
C431 O430 1.295 . S
C431 O433 1.235 . S
C432 O437 1.287 . S
C432 O438 1.255 1_554 S
O433 Fe425 1.997 . S
O433 C431 1.235 . S
C434 O440 1.287 . S
C434 O441 1.255 . S
O435 Fe424 1.976 . S
O435 C442 1.287 . S
O436 Fe425 1.996 . S
O436 C442 1.255 . S
O437 Fe427 1.976 1_554 S
O437 C432 1.287 . S
O438 Fe424 1.996 . S
O438 C432 1.255 1_556 S
C439 O443 1.295 . S
C439 O444 1.235 . S
O440 Fe425 1.976 . S
O440 C434 1.287 . S
O441 Fe427 1.996 . S
O441 C434 1.255 . S
C442 O435 1.287 . S
C442 O436 1.255 . S
O443 Fe425 2.002 . S
O443 C439 1.295 . S
O444 Fe427 1.997 . S
O444 C439 1.235 . S
C445 O428 1.295 . S
C445 O429 1.235 . S
Fe446 O448 1.918 . S
Fe446 O451 1.997 . S
Fe446 O452 2.002 . S
Fe446 O457 1.976 . S
Fe446 O460 1.996 . S
Fe447 O448 1.918 . S
Fe447 O455 1.997 . S
Fe447 O458 1.996 . S
Fe447 O462 1.976 . S
Fe447 O465 2.002 . S
O448 Fe446 1.918 . S
O448 Fe447 1.918 . S
O448 Fe449 1.918 . S
Fe449 O448 1.918 . S
Fe449 O450 2.002 . S
Fe449 O459 1.976 . S
Fe449 O463 1.996 . S
Fe449 O466 1.987 1_655 S
O450 Fe449 2.002 . S
O450 C467 1.295 1_554 S
O451 Fe446 1.997 . S
O451 C467 1.235 1_554 S
O452 Fe446 2.002 . S
O452 C453 1.295 . S
C453 O452 1.295 . S
C453 O455 1.235 . S
C454 O459 1.287 . S
C454 O460 1.255 . S
O455 Fe447 1.997 . S
O455 C453 1.235 . S
C456 O462 1.287 . S
C456 O463 1.255 . S
O457 Fe446 1.976 . S
O457 C464 1.287 . S
O458 Fe447 1.996 . S
O458 C464 1.255 . S
O459 Fe449 1.976 . S
O459 C454 1.287 . S
O460 Fe446 1.996 . S
O460 C454 1.255 . S
C461 O465 1.295 1_455 S
C461 O466 1.236 . S
O462 Fe447 1.976 . S
O462 C456 1.287 . S
O463 Fe449 1.996 . S
O463 C456 1.255 . S
C464 O457 1.287 . S
C464 O458 1.255 . S
O465 Fe447 2.002 . S
O465 C461 1.295 1_655 S
O466 Fe449 1.987 1_455 S
O466 C461 1.236 . S
C467 O450 1.295 1_556 S
C467 O451 1.235 1_556 S
Fe468 O470 1.918 . S
Fe468 O473 1.997 . S
Fe468 O474 2.002 . S
Fe468 O479 1.976 . S
Fe468 O482 1.996 . S
Fe469 O470 1.918 . S
Fe469 O477 1.997 . S
Fe469 O480 1.996 . S
Fe469 O484 1.965 1_655 S
Fe469 O487 2.002 . S
O470 Fe468 1.918 . S
O470 Fe469 1.918 . S
O470 Fe471 1.918 . S
Fe471 O470 1.918 . S
Fe471 O472 2.002 . S
Fe471 O481 1.976 . S
Fe471 O485 1.996 . S
Fe471 O488 1.997 . S
O472 Fe471 2.002 . S
O472 C489 1.295 . S
O473 Fe468 1.997 . S
O473 C489 1.235 . S
O474 Fe468 2.002 . S
O474 C475 1.295 . S
C475 O474 1.295 . S
C475 O477 1.235 . S
C476 O481 1.287 . S
C476 O482 1.255 . S
O477 Fe469 1.997 . S
O477 C475 1.235 . S
C478 O484 1.288 . S
C478 O485 1.255 1_455 S
O479 Fe468 1.976 . S
O479 C486 1.287 . S
O480 Fe469 1.996 . S
O480 C486 1.255 . S
O481 Fe471 1.976 . S
O481 C476 1.287 . S
O482 Fe468 1.996 . S
O482 C476 1.255 . S
C483 O487 1.295 . S
C483 O488 1.235 . S
O484 Fe469 1.965 1_455 S
O484 C478 1.288 . S
O485 Fe471 1.996 . S
O485 C478 1.255 1_655 S
C486 O479 1.287 . S
C486 O480 1.255 . S
O487 Fe469 2.002 . S
O487 C483 1.295 . S
O488 Fe471 1.997 . S
O488 C483 1.235 . S
C489 O472 1.295 . S
C489 O473 1.235 . S
Fe490 O492 1.918 . S
Fe490 O495 1.997 1_655 S
Fe490 O496 2.002 . S
Fe490 O501 1.976 . S
Fe490 O504 1.996 . S
Fe491 O492 1.918 . S
Fe491 O499 1.997 1_556 S
Fe491 O502 1.996 . S
Fe491 O506 1.976 . S
Fe491 O509 2.002 . S
O492 Fe490 1.918 . S
O492 Fe491 1.918 . S
O492 Fe493 1.918 . S
Fe493 O492 1.918 . S
Fe493 O494 2.002 . S
Fe493 O503 1.976 . S
Fe493 O507 1.996 . S
Fe493 O510 1.996 1_565 S
O494 Fe493 2.002 . S
O494 C511 1.295 1_655 S
O495 Fe490 1.997 1_455 S
O495 C511 1.235 . S
O496 Fe490 2.002 . S
O496 C497 1.295 1_556 S
C497 O496 1.295 1_554 S
C497 O499 1.235 . S
C498 O503 1.287 . S
C498 O504 1.255 . S
O499 Fe491 1.997 1_554 S
O499 C497 1.235 . S
C500 O506 1.287 . S
C500 O507 1.255 . S
O501 Fe490 1.976 . S
O501 C508 1.287 . S
O502 Fe491 1.996 . S
O502 C508 1.255 . S
O503 Fe493 1.976 . S
O503 C498 1.287 . S
O504 Fe490 1.996 . S
O504 C498 1.255 . S
C505 O509 1.295 1_545 S
C505 O510 1.235 . S
O506 Fe491 1.976 . S
O506 C500 1.287 . S
O507 Fe493 1.996 . S
O507 C500 1.255 . S
C508 O501 1.287 . S
C508 O502 1.255 . S
O509 Fe491 2.002 . S
O509 C505 1.295 1_565 S
O510 Fe493 1.996 1_545 S
O510 C505 1.235 . S
C511 O494 1.295 1_455 S
C511 O495 1.235 . S
Fe512 O514 1.918 . S
Fe512 O517 1.997 . S
Fe512 O518 2.002 . S
Fe512 O523 1.976 1_545 S
Fe512 O526 1.996 . S
Fe513 O514 1.918 . S
Fe513 O521 1.997 . S
Fe513 O524 1.996 . S
Fe513 O528 1.976 . S
Fe513 O531 2.002 . S
O514 Fe512 1.918 . S
O514 Fe513 1.918 . S
O514 Fe515 1.918 . S
Fe515 O514 1.918 . S
Fe515 O516 2.002 . S
Fe515 O525 1.976 1_655 S
Fe515 O529 1.996 . S
Fe515 O532 1.997 . S
O516 Fe515 2.002 . S
O516 C533 1.295 . S
O517 Fe512 1.997 . S
O517 C533 1.235 . S
O518 Fe512 2.002 . S
O518 C519 1.295 . S
C519 O518 1.295 . S
C519 O521 1.235 . S
C520 O525 1.287 . S
C520 O526 1.255 1_455 S
O521 Fe513 1.997 . S
O521 C519 1.235 . S
C522 O528 1.287 . S
C522 O529 1.255 . S
O523 Fe512 1.976 1_565 S
O523 C530 1.287 . S
O524 Fe513 1.996 . S
O524 C530 1.255 1_545 S
O525 Fe515 1.976 1_455 S
O525 C520 1.287 . S
O526 Fe512 1.996 . S
O526 C520 1.255 1_655 S
C527 O531 1.295 . S
C527 O532 1.235 . S
O528 Fe513 1.976 . S
O528 C522 1.287 . S
O529 Fe515 1.996 . S
O529 C522 1.255 . S
C530 O523 1.287 . S
C530 O524 1.255 1_565 S
O531 Fe513 2.002 . S
O531 C527 1.295 . S
O532 Fe515 1.997 . S
O532 C527 1.235 . S
C533 O516 1.295 . S
C533 O517 1.235 . S
Fe534 O536 1.918 . S
Fe534 O539 1.997 . S
Fe534 O540 2.002 . S
Fe534 O545 1.976 . S
Fe534 O548 1.996 . S
Fe535 O536 1.918 . S
Fe535 O543 1.997 . S
Fe535 O546 1.996 . S
Fe535 O550 1.976 . S
Fe535 O553 2.002 . S
O536 Fe534 1.918 . S
O536 Fe535 1.918 . S
O536 Fe537 1.918 . S
Fe537 O536 1.918 . S
Fe537 O538 2.002 . S
Fe537 O547 1.976 . S
Fe537 O551 1.996 . S
Fe537 O554 1.997 . S
O538 Fe537 2.002 . S
O538 C555 1.295 . S
O539 Fe534 1.997 . S
O539 C555 1.235 . S
O540 Fe534 2.002 . S
O540 C541 1.295 . S
C541 O540 1.295 . S
C541 O543 1.235 . S
C542 O547 1.287 . S
C542 O548 1.255 . S
O543 Fe535 1.997 . S
O543 C541 1.235 . S
C544 O550 1.287 . S
C544 O551 1.255 . S
O545 Fe534 1.976 . S
O545 C552 1.288 . S
O546 Fe535 1.996 . S
O546 C552 1.263 . S
O547 Fe537 1.976 . S
O547 C542 1.287 . S
O548 Fe534 1.996 . S
O548 C542 1.255 . S
C549 O553 1.295 . S
C549 O554 1.235 . S
O550 Fe535 1.976 . S
O550 C544 1.287 . S
O551 Fe537 1.996 . S
O551 C544 1.255 . S
C552 O545 1.288 . S
C552 O546 1.263 . S
O553 Fe535 2.002 . S
O553 C549 1.295 . S
O554 Fe537 1.997 . S
O554 C549 1.235 . S
C555 O538 1.295 . S
C555 O539 1.235 . S
Fe556 O558 1.918 . S
Fe556 O561 1.997 . S
Fe556 O562 2.002 . S
Fe556 O567 1.976 . S
Fe556 O570 1.996 . S
Fe557 O558 1.918 . S
Fe557 O565 1.997 1_554 S
Fe557 O568 1.996 . S
Fe557 O572 1.976 . S
Fe557 O575 2.002 . S
O558 Fe556 1.918 . S
O558 Fe557 1.918 . S
O558 Fe559 1.918 . S
Fe559 O558 1.918 . S
Fe559 O560 2.002 . S
Fe559 O569 1.976 . S
Fe559 O573 1.996 . S
Fe559 O576 2.003 . S
O560 Fe559 2.002 . S
O560 C577 1.295 . S
O561 Fe556 1.997 . S
O561 C577 1.235 . S
O562 Fe556 2.002 . S
O562 C563 1.295 1_554 S
C563 O562 1.295 1_556 S
C563 O565 1.235 . S
C564 O569 1.287 . S
C564 O570 1.255 . S
O565 Fe557 1.997 1_556 S
O565 C563 1.235 . S
C566 O572 1.287 . S
C566 O573 1.255 . S
O567 Fe556 1.976 . S
O567 C574 1.287 . S
O568 Fe557 1.996 . S
O568 C574 1.255 . S
O569 Fe559 1.976 . S
O569 C564 1.287 . S
O570 Fe556 1.996 . S
O570 C564 1.255 . S
C571 O575 1.295 1_545 S
C571 O576 1.235 1_545 S
O572 Fe557 1.976 . S
O572 C566 1.287 . S
O573 Fe559 1.996 . S
O573 C566 1.255 . S
C574 O567 1.287 . S
C574 O568 1.255 . S
O575 Fe557 2.002 . S
O575 C571 1.295 1_565 S
O576 Fe559 2.003 . S
O576 C571 1.235 1_565 S
C577 O560 1.295 . S
C577 O561 1.235 . S
Fe578 O580 1.918 . S
Fe578 O583 1.997 . S
Fe578 O584 2.002 . S
Fe578 O589 1.976 . S
Fe578 O592 1.996 . S
Fe579 O580 1.918 . S
Fe579 O587 1.997 . S
Fe579 O590 1.996 . S
Fe579 O594 1.976 . S
Fe579 O597 2.002 . S
O580 Fe578 1.918 . S
O580 Fe579 1.918 . S
O580 Fe581 1.918 . S
Fe581 O580 1.918 . S
Fe581 O582 2.002 . S
Fe581 O591 1.976 . S
Fe581 O595 1.996 . S
Fe581 O598 1.997 . S
O582 Fe581 2.002 . S
O582 C599 1.295 . S
O583 Fe578 1.997 . S
O583 C599 1.235 . S
O584 Fe578 2.002 . S
O584 C585 1.295 . S
C585 O584 1.295 . S
C585 O587 1.235 . S
C586 O591 1.287 . S
C586 O592 1.255 . S
O587 Fe579 1.997 . S
O587 C585 1.235 . S
C588 O594 1.287 . S
C588 O595 1.255 . S
O589 Fe578 1.976 . S
O589 C596 1.287 . S
O590 Fe579 1.996 . S
O590 C596 1.255 . S
O591 Fe581 1.976 . S
O591 C586 1.287 . S
O592 Fe578 1.996 . S
O592 C586 1.255 . S
C593 O597 1.295 . S
C593 O598 1.235 . S
O594 Fe579 1.976 . S
O594 C588 1.287 . S
O595 Fe581 1.996 . S
O595 C588 1.255 . S
C596 O589 1.287 . S
C596 O590 1.255 . S
O597 Fe579 2.002 . S
O597 C593 1.295 . S
O598 Fe581 1.997 . S
O598 C593 1.235 . S
C599 O582 1.295 . S
C599 O583 1.235 . S
Fe600 O602 1.918 . S
Fe600 O605 1.997 . S
Fe600 O606 2.002 . S
Fe600 O611 1.976 . S
Fe600 O614 1.996 . S
Fe601 O602 1.918 . S
Fe601 O609 1.997 . S
Fe601 O612 1.996 . S
Fe601 O616 1.976 1_556 S
Fe601 O619 2.002 . S
O602 Fe600 1.918 . S
O602 Fe601 1.918 . S
O602 Fe603 1.918 . S
Fe603 O602 1.918 . S
Fe603 O604 2.002 . S
Fe603 O613 1.976 1_455 S
Fe603 O617 1.996 . S
Fe603 O620 1.997 . S
O604 Fe603 2.002 . S
O604 C621 1.295 . S
O605 Fe600 1.997 . S
O605 C621 1.235 . S
O606 Fe600 2.002 . S
O606 C607 1.295 . S
C607 O606 1.295 . S
C607 O609 1.235 . S
C608 O613 1.287 . S
C608 O614 1.255 1_655 S
O609 Fe601 1.997 . S
O609 C607 1.235 . S
C610 O616 1.287 . S
C610 O617 1.255 1_554 S
O611 Fe600 1.976 . S
O611 C618 1.287 . S
O612 Fe601 1.996 . S
O612 C618 1.255 . S
O613 Fe603 1.976 1_655 S
O613 C608 1.287 . S
O614 Fe600 1.996 . S
O614 C608 1.255 1_455 S
C615 O619 1.295 . S
C615 O620 1.235 . S
O616 Fe601 1.976 1_554 S
O616 C610 1.287 . S
O617 Fe603 1.996 . S
O617 C610 1.255 1_556 S
C618 O611 1.287 . S
C618 O612 1.255 . S
O619 Fe601 2.002 . S
O619 C615 1.295 . S
O620 Fe603 1.997 . S
O620 C615 1.235 . S
C621 O604 1.295 . S
C621 O605 1.235 . S
Fe622 O624 1.918 . S
Fe622 O627 1.997 . S
Fe622 O628 2.002 . S
Fe622 O633 1.976 . S
Fe622 O636 1.996 . S
Fe623 O624 1.918 . S
Fe623 O631 1.997 . S
Fe623 O634 1.996 . S
Fe623 O638 1.976 . S
Fe623 O641 2.002 . S
O624 Fe622 1.918 . S
O624 Fe623 1.918 . S
O624 Fe625 1.918 . S
Fe625 O624 1.918 . S
Fe625 O626 2.002 . S
Fe625 O635 1.976 . S
Fe625 O639 1.996 . S
Fe625 O642 1.997 . S
O626 Fe625 2.002 . S
O626 C643 1.295 . S
O627 Fe622 1.997 . S
O627 C643 1.235 . S
O628 Fe622 2.002 . S
O628 C629 1.295 . S
C629 O628 1.295 . S
C629 O631 1.235 . S
C630 O635 1.287 . S
C630 O636 1.255 . S
O631 Fe623 1.997 . S
O631 C629 1.235 . S
C632 O638 1.285 1_655 S
C632 O639 1.240 1_655 S
O633 Fe622 1.976 . S
O633 C640 1.287 . S
O634 Fe623 1.996 . S
O634 C640 1.255 . S
O635 Fe625 1.976 . S
O635 C630 1.287 . S
O636 Fe622 1.996 . S
O636 C630 1.255 . S
C637 O641 1.295 . S
C637 O642 1.235 . S
O638 Fe623 1.976 . S
O638 C632 1.285 1_455 S
O639 Fe625 1.996 . S
O639 C632 1.240 1_455 S
C640 O633 1.287 . S
C640 O634 1.255 . S
O641 Fe623 2.002 . S
O641 C637 1.295 . S
O642 Fe625 1.997 . S
O642 C637 1.235 . S
C643 O626 1.295 . S
C643 O627 1.235 . S
Fe644 O646 1.918 . S
Fe644 O649 1.997 . S
Fe644 O650 2.002 . S
Fe644 O655 1.976 . S
Fe644 O658 1.996 . S
Fe645 O646 1.918 . S
Fe645 O653 1.997 . S
Fe645 O656 1.996 . S
Fe645 O660 1.976 . S
Fe645 O663 2.002 . S
O646 Fe644 1.918 . S
O646 Fe645 1.918 . S
O646 Fe647 1.918 . S
Fe647 O646 1.918 . S
Fe647 O648 2.002 . S
Fe647 O657 1.976 . S
Fe647 O661 1.996 . S
Fe647 O664 1.997 . S
O648 Fe647 2.002 . S
O648 C665 1.295 . S
O649 Fe644 1.997 . S
O649 C665 1.235 . S
O650 Fe644 2.002 . S
O650 C651 1.295 . S
C651 O650 1.295 . S
C651 O653 1.235 . S
C652 O657 1.287 . S
C652 O658 1.255 . S
O653 Fe645 1.997 . S
O653 C651 1.235 . S
C654 O660 1.287 . S
C654 O661 1.255 . S
O655 Fe644 1.976 . S
O655 C662 1.287 . S
O656 Fe645 1.996 . S
O656 C662 1.255 . S
O657 Fe647 1.976 . S
O657 C652 1.287 . S
O658 Fe644 1.996 . S
O658 C652 1.255 . S
C659 O663 1.295 . S
C659 O664 1.235 . S
O660 Fe645 1.976 . S
O660 C654 1.287 . S
O661 Fe647 1.996 . S
O661 C654 1.255 . S
C662 O655 1.287 . S
C662 O656 1.255 . S
O663 Fe645 2.002 . S
O663 C659 1.295 . S
O664 Fe647 1.997 . S
O664 C659 1.235 . S
C665 O648 1.295 . S
C665 O649 1.235 . S
Fe666 O668 1.918 . S
Fe666 O671 1.997 . S
Fe666 O672 2.002 . S
Fe666 O677 1.976 . S
Fe666 O680 1.996 . S
Fe667 O668 1.918 . S
Fe667 O675 1.997 . S
Fe667 O678 1.996 . S
Fe667 O682 1.976 . S
Fe667 O685 2.002 . S
O668 Fe666 1.918 . S
O668 Fe667 1.918 . S
O668 Fe669 1.918 . S
Fe669 O668 1.918 . S
Fe669 O670 2.002 . S
Fe669 O679 1.976 . S
Fe669 O683 1.996 . S
Fe669 O686 1.997 . S
O670 Fe669 2.002 . S
O670 C687 1.295 . S
O671 Fe666 1.997 . S
O671 C687 1.235 . S
O672 Fe666 2.002 . S
O672 C673 1.295 . S
C673 O672 1.295 . S
C673 O675 1.235 . S
C674 O679 1.287 . S
C674 O680 1.255 . S
O675 Fe667 1.997 . S
O675 C673 1.235 . S
C676 O682 1.287 . S
C676 O683 1.255 . S
O677 Fe666 1.976 . S
O677 C684 1.287 . S
O678 Fe667 1.996 . S
O678 C684 1.255 . S
O679 Fe669 1.976 . S
O679 C674 1.287 . S
O680 Fe666 1.996 . S
O680 C674 1.255 . S
C681 O685 1.295 . S
C681 O686 1.235 . S
O682 Fe667 1.976 . S
O682 C676 1.287 . S
O683 Fe669 1.996 . S
O683 C676 1.255 . S
C684 O677 1.287 . S
C684 O678 1.255 . S
O685 Fe667 2.002 . S
O685 C681 1.295 . S
O686 Fe669 1.997 . S
O686 C681 1.235 . S
C687 O670 1.295 . S
C687 O671 1.235 . S
C354 C7 1.535 . S
C23 C366 1.548 . S
C401 C36 1.279 . S
C410 C45 1.392 . S
C365 C59 1.374 . S
C78 C390 1.309 . S
C409 C93 1.464 . S
C105 C351 1.562 . S
C115 C344 1.550 . S
C368 C133 1.409 . S
C387 C148 1.370 . S
C412 C163 1.474 . S
C373 C121 1.303 . S
C398 C134 1.372 . S
C147 C417 1.405 . S
C357 C157 1.507 . S
C175 C346 1.499 . S
C191 C445 1.481 . S
C461 C199 1.355 . S
C475 C218 1.274 . S
C231 C343 1.547 . S
C241 C395 1.351 . S
C478 C205 1.516 . S
C442 C260 1.349 . S
C498 C22 1.108 . S
C522 C9 1.334 . S
C49 C555 1.394 . S
C31 C563 1.247 . S
C101 C533 1.241 . S
C91 C544 1.406 . S
C564 C79 1.362 . S
C64 C497 1.138 . S
C274 C500 1.099 . S
C530 C213 1.215 . S
C541 C233 1.420 . S
C571 C189 1.398 . S
C519 C273 1.383 . S
C552 C219 1.337 1_545 S
C566 C227 1.222 . S
C190 C505 1.123 . S
C508 C289 1.120 . S
C162 C596 1.320 . S
C608 C301 1.284 . S
C129 C629 1.331 . S
C511 C149 1.214 . S
C549 C315 1.259 . S
C632 C302 1.261 . S
C325 C599 1.304 . S
C35 C654 1.546 . S
C51 C432 1.489 . S
C456 C8 1.286 . S
C17 C486 1.383 . S
C87 C431 1.347 . S
C106 C467 1.279 . S
C483 C65 1.465 . S
C665 C77 1.531 . S
C662 C297 1.517 . S
C434 C287 1.416 . S
C464 C330 1.442 . S
C317 C476 1.440 . S
C439 C303 1.357 . S
C288 C453 1.344 . S
C489 C329 1.359 . S
C311 C651 1.523 . S
C652 C217 1.501 . S
C247 C379 1.513 . S
C388 C269 1.319 . S
C176 C423 1.290 . S
C659 C259 1.522 . S
C454 C185 1.357 . S
C420 C275 1.535 . S
C376 C232 1.314 . S
C50 C673 1.141 . S
C37 C585 1.347 1_556 S
C21 C621 1.425 . S
C640 C3 1.186 . S
C586 C73 1.196 . S
C63 C610 1.412 . S
C637 C107 1.381 . S
C92 C674 1.124 . S
C681 C204 1.179 . S
C171 C593 1.212 . S
C261 C607 1.403 . S
C630 C245 1.387 . S
C588 C203 1.354 . S
C177 C618 1.343 . S
C643 C255 1.224 . S
C676 C246 1.137 . S
C687 C135 1.159 . S
C527 C316 1.368 . S
C119 C542 1.266 . S
C283 C574 1.332 . S
C684 C331 1.201 . S
C615 C161 1.263 . S
C577 C120 1.296 . S
C520 C143 1.303 . S
