# Generated by pormake.
# Topology iac, (4,6)-cn, num edge types: 1
# Building blocks:
#     Node 0, Type 0, BuildingBlock: NAHDIM_clean_sbu_0, # of connection points: 4
#     Node 1, Type 0, BuildingBlock: NAHDIM_clean_sbu_0, # of connection points: 4
#     Node 2, Type 0, BuildingBlock: NAHDIM_clean_sbu_0, # of connection points: 4
#     Node 3, Type 0, BuildingBlock: NAHDIM_clean_sbu_0, # of connection points: 4
#     Node 4, Type 0, BuildingBlock: NAHDIM_clean_sbu_0, # of connection points: 4
#     Node 5, Type 0, BuildingBlock: NAHDIM_clean_sbu_0, # of connection points: 4
#     Node 6, Type 0, BuildingBlock: NAHDIM_clean_sbu_0, # of connection points: 4
#     Node 7, Type 0, BuildingBlock: NAHDIM_clean_sbu_0, # of connection points: 4
#     Node 8, Type 0, BuildingBlock: NAHDIM_clean_sbu_0, # of connection points: 4
#     Node 9, Type 0, BuildingBlock: NAHDIM_clean_sbu_0, # of connection points: 4
#     Node 10, Type 0, BuildingBlock: NAHDIM_clean_sbu_0, # of connection points: 4
#     Node 11, Type 0, BuildingBlock: NAHDIM_clean_sbu_0, # of connection points: 4
#     Node 12, Type 0, BuildingBlock: NAHDIM_clean_sbu_0, # of connection points: 4
#     Node 13, Type 0, BuildingBlock: NAHDIM_clean_sbu_0, # of connection points: 4
#     Node 14, Type 0, BuildingBlock: NAHDIM_clean_sbu_0, # of connection points: 4
#     Node 15, Type 0, BuildingBlock: NAHDIM_clean_sbu_0, # of connection points: 4
#     Node 16, Type 0, BuildingBlock: NAHDIM_clean_sbu_0, # of connection points: 4
#     Node 17, Type 0, BuildingBlock: NAHDIM_clean_sbu_0, # of connection points: 4
#     Node 18, Type 0, BuildingBlock: NAHDIM_clean_sbu_0, # of connection points: 4
#     Node 19, Type 0, BuildingBlock: NAHDIM_clean_sbu_0, # of connection points: 4
#     Node 20, Type 0, BuildingBlock: NAHDIM_clean_sbu_0, # of connection points: 4
#     Node 21, Type 0, BuildingBlock: NAHDIM_clean_sbu_0, # of connection points: 4
#     Node 22, Type 0, BuildingBlock: NAHDIM_clean_sbu_0, # of connection points: 4
#     Node 23, Type 0, BuildingBlock: NAHDIM_clean_sbu_0, # of connection points: 4
#     Node 24, Type 1, BuildingBlock: VOLQOD_clean_sbu_1, # of connection points: 6
#     Node 25, Type 1, BuildingBlock: VOLQOD_clean_sbu_1, # of connection points: 6
#     Node 26, Type 1, BuildingBlock: VOLQOD_clean_sbu_1, # of connection points: 6
#     Node 27, Type 1, BuildingBlock: VOLQOD_clean_sbu_1, # of connection points: 6
#     Node 28, Type 1, BuildingBlock: VOLQOD_clean_sbu_1, # of connection points: 6
#     Node 29, Type 1, BuildingBlock: VOLQOD_clean_sbu_1, # of connection points: 6
#     Node 30, Type 1, BuildingBlock: VOLQOD_clean_sbu_1, # of connection points: 6
#     Node 31, Type 1, BuildingBlock: VOLQOD_clean_sbu_1, # of connection points: 6
#     Node 32, Type 1, BuildingBlock: VOLQOD_clean_sbu_1, # of connection points: 6
#     Node 33, Type 1, BuildingBlock: VOLQOD_clean_sbu_1, # of connection points: 6
#     Node 34, Type 1, BuildingBlock: VOLQOD_clean_sbu_1, # of connection points: 6
#     Node 35, Type 1, BuildingBlock: VOLQOD_clean_sbu_1, # of connection points: 6
#     Node 36, Type 1, BuildingBlock: VOLQOD_clean_sbu_1, # of connection points: 6
#     Node 37, Type 1, BuildingBlock: VOLQOD_clean_sbu_1, # of connection points: 6
#     Node 38, Type 1, BuildingBlock: VOLQOD_clean_sbu_1, # of connection points: 6
#     Node 39, Type 1, BuildingBlock: VOLQOD_clean_sbu_1, # of connection points: 6
#     Edge 40, Type (0, 1), None
#     Edge 41, Type (0, 1), None
#     Edge 42, Type (0, 1), None
#     Edge 43, Type (0, 1), None
#     Edge 44, Type (0, 1), None
#     Edge 45, Type (0, 1), None
#     Edge 46, Type (0, 1), None
#     Edge 47, Type (0, 1), None
#     Edge 48, Type (0, 1), None
#     Edge 49, Type (0, 1), None
#     Edge 50, Type (0, 1), None
#     Edge 51, Type (0, 1), None
#     Edge 52, Type (0, 1), None
#     Edge 53, Type (0, 1), None
#     Edge 54, Type (0, 1), None
#     Edge 55, Type (0, 1), None
#     Edge 56, Type (0, 1), None
#     Edge 57, Type (0, 1), None
#     Edge 58, Type (0, 1), None
#     Edge 59, Type (0, 1), None
#     Edge 60, Type (0, 1), None
#     Edge 61, Type (0, 1), None
#     Edge 62, Type (0, 1), None
#     Edge 63, Type (0, 1), None
#     Edge 64, Type (0, 1), None
#     Edge 65, Type (0, 1), None
#     Edge 66, Type (0, 1), None
#     Edge 67, Type (0, 1), None
#     Edge 68, Type (0, 1), None
#     Edge 69, Type (0, 1), None
#     Edge 70, Type (0, 1), None
#     Edge 71, Type (0, 1), None
#     Edge 72, Type (0, 1), None
#     Edge 73, Type (0, 1), None
#     Edge 74, Type (0, 1), None
#     Edge 75, Type (0, 1), None
#     Edge 76, Type (0, 1), None
#     Edge 77, Type (0, 1), None
#     Edge 78, Type (0, 1), None
#     Edge 79, Type (0, 1), None
#     Edge 80, Type (0, 1), None
#     Edge 81, Type (0, 1), None
#     Edge 82, Type (0, 1), None
#     Edge 83, Type (0, 1), None
#     Edge 84, Type (0, 1), None
#     Edge 85, Type (0, 1), None
#     Edge 86, Type (0, 1), None
#     Edge 87, Type (0, 1), None
#     Edge 88, Type (0, 1), None
#     Edge 89, Type (0, 1), None
#     Edge 90, Type (0, 1), None
#     Edge 91, Type (0, 1), None
#     Edge 92, Type (0, 1), None
#     Edge 93, Type (0, 1), None
#     Edge 94, Type (0, 1), None
#     Edge 95, Type (0, 1), None
#     Edge 96, Type (0, 1), None
#     Edge 97, Type (0, 1), None
#     Edge 98, Type (0, 1), None
#     Edge 99, Type (0, 1), None
#     Edge 100, Type (0, 1), None
#     Edge 101, Type (0, 1), None
#     Edge 102, Type (0, 1), None
#     Edge 103, Type (0, 1), None
#     Edge 104, Type (0, 1), None
#     Edge 105, Type (0, 1), None
#     Edge 106, Type (0, 1), None
#     Edge 107, Type (0, 1), None
#     Edge 108, Type (0, 1), None
#     Edge 109, Type (0, 1), None
#     Edge 110, Type (0, 1), None
#     Edge 111, Type (0, 1), None
#     Edge 112, Type (0, 1), None
#     Edge 113, Type (0, 1), None
#     Edge 114, Type (0, 1), None
#     Edge 115, Type (0, 1), None
#     Edge 116, Type (0, 1), None
#     Edge 117, Type (0, 1), None
#     Edge 118, Type (0, 1), None
#     Edge 119, Type (0, 1), None
#     Edge 120, Type (0, 1), None
#     Edge 121, Type (0, 1), None
#     Edge 122, Type (0, 1), None
#     Edge 123, Type (0, 1), None
#     Edge 124, Type (0, 1), None
#     Edge 125, Type (0, 1), None
#     Edge 126, Type (0, 1), None
#     Edge 127, Type (0, 1), None
#     Edge 128, Type (0, 1), None
#     Edge 129, Type (0, 1), None
#     Edge 130, Type (0, 1), None
#     Edge 131, Type (0, 1), None
#     Edge 132, Type (0, 1), None
#     Edge 133, Type (0, 1), None
#     Edge 134, Type (0, 1), None
#     Edge 135, Type (0, 1), None
# Relax obj value: 0.317
# Max RMSD: 0.291
# Mean RMSD: 0.181
data_MOF--net-iac--node1-NAHDIM_clean_sbu_0--node2-VOLQOD_clean_sbu_1--edge1-none
_symmetry_space_group_name_H-M    P1
_symmetry_Int_Tables_number       1
_symmetry_cell_setting            triclinic
loop_
_symmetry_equiv_pos_as_xyz
'x, y, z'
_cell_length_a     27.915976
_cell_length_b     27.871328
_cell_length_c     26.825494
_cell_angle_alpha  89.105545
_cell_angle_beta   89.327074
_cell_angle_gamma 90.19317
loop_
_atom_site_label
_atom_site_type_symbol
_atom_site_fract_x
_atom_site_fract_y
_atom_site_fract_z
_atom_type_partial_charge
C0 C 0.90677 0.17576 0.15449 0.0
O1 O 0.91325 0.14131 0.1224 0.0
O2 O -0.01265 0.15849 0.06079 0.0
Zn3 Zn -0.00899 0.2173 0.10437 0.0
O4 O -0.01277 0.28072 0.06747 0.0
C5 C 0.06223 0.23017 0.18397 0.0
O6 O 0.02584 0.23208 0.21531 0.0
O7 O 0.9358 0.21122 0.15477 0.0
C8 C 0.00714 0.29193 0.02601 0.0
O9 O 0.02901 0.25923 -0.00048 0.0
C10 C 0.96898 0.15034 0.01848 0.0
O11 O 0.95156 0.18552 -0.00879 0.0
O12 O 0.05517 0.22161 0.1382 0.0
C13 C 0.05778 0.69558 0.28581 0.0
O14 O 0.03538 0.65409 0.28544 0.0
O15 O 0.97897 0.678 0.39725 0.0
Zn16 Zn -0.01865 0.73587 0.35195 0.0
O17 O -0.01821 0.79837 0.38808 0.0
C18 C 0.91536 0.74353 0.26603 0.0
O19 O 0.95216 0.74047 0.23534 0.0
O20 O 0.03997 0.73105 0.30891 0.0
C21 C 0.97823 0.80554 0.43456 0.0
O22 O 0.97767 0.76913 0.46622 0.0
C23 C 0.01346 0.65819 0.42035 0.0
O24 O 0.05635 0.67768 0.41901 0.0
O25 O 0.92113 0.74001 0.31279 0.0
C26 C 0.40677 0.67576 0.6545 0.0
O27 O 0.41325 0.64131 0.6224 0.0
O28 O 0.48735 0.65849 0.56079 0.0
Zn29 Zn 0.49102 0.7173 0.60437 0.0
O30 O 0.48724 0.78072 0.56747 0.0
C31 C 0.56223 0.73017 0.68397 0.0
O32 O 0.52584 0.73207 0.71531 0.0
O33 O 0.4358 0.71122 0.65477 0.0
C34 C 0.50714 0.79193 0.52601 0.0
O35 O 0.52899 0.75923 0.49951 0.0
C36 C 0.46897 0.65034 0.51848 0.0
O37 O 0.45155 0.68552 0.49122 0.0
O38 O 0.55517 0.72161 0.6382 0.0
C39 C 0.55778 0.19558 0.78581 0.0
O40 O 0.53538 0.1541 0.78544 0.0
O41 O 0.47897 0.178 0.89725 0.0
Zn42 Zn 0.48135 0.23587 0.85195 0.0
O43 O 0.48179 0.29837 0.88808 0.0
C44 C 0.41536 0.24353 0.76603 0.0
O45 O 0.45216 0.24047 0.73534 0.0
O46 O 0.53996 0.23105 0.80891 0.0
C47 C 0.47823 0.30554 0.93456 0.0
O48 O 0.47767 0.26913 -0.03378 0.0
C49 C 0.51346 0.15819 0.92035 0.0
O50 O 0.55635 0.17768 0.91901 0.0
O51 O 0.42113 0.24001 0.81279 0.0
C52 C 0.17559 0.90219 0.19694 0.0
O53 O 0.17713 0.92503 0.15377 0.0
O54 O 0.07958 -0.02613 0.16558 0.0
Zn55 Zn 0.11525 -0.02036 0.22936 0.0
O56 O 0.06899 -0.01874 0.28755 0.0
C57 C 0.18132 0.0504 0.26883 0.0
O58 O 0.1732 0.0282 0.31163 0.0
O59 O 0.15322 0.92001 0.23381 0.0
C60 C 0.05681 0.01888 0.31056 0.0
O61 O 0.07425 0.06075 0.29634 0.0
C62 C 0.03604 0.96095 0.16215 0.0
O63 O 0.00926 0.95529 0.20237 0.0
O64 O 0.16031 0.03641 0.22975 0.0
C65 C 0.16025 0.91831 0.52099 0.0
O66 O 0.17265 0.89721 0.56293 0.0
O67 O 0.23215 0.8228 0.54428 0.0
Zn68 Zn 0.23888 0.86293 0.48103 0.0
O69 O 0.2368 0.82093 0.42023 0.0
C70 C 0.32489 0.91091 0.44093 0.0
O71 O 0.31139 0.89499 0.39751 0.0
O72 O 0.18336 0.9095 0.48097 0.0
C73 C 0.26955 0.79449 0.4018 0.0
O74 O 0.31131 0.79091 0.42355 0.0
C75 C 0.21936 0.77905 0.54836 0.0
O76 O 0.21331 0.75332 0.50833 0.0
O77 O 0.30013 0.9014 0.48003 0.0
C78 C 0.29846 0.05939 0.68855 0.0
O79 O 0.32295 0.04781 0.64848 0.0
O80 O 0.38262 -0.02598 0.66829 0.0
Zn81 Zn 0.34268 -0.02558 0.73147 0.0
O82 O 0.38437 -0.02323 0.79272 0.0
C83 C 0.31837 0.87667 0.73562 0.0
O84 O 0.36297 0.87384 0.72004 0.0
O85 O 0.30132 0.03356 0.72796 0.0
C86 C 0.4094 0.94415 0.81376 0.0
O87 O 0.41289 0.90132 0.79474 0.0
C88 C 0.42761 -0.01948 0.66413 0.0
O89 O 0.4542 -0.01693 0.70403 0.0
O90 O 0.29889 0.91741 0.73914 0.0
C91 C 0.3005 0.03785 0.01373 0.0
O92 O 0.27709 0.0328 0.05624 0.0
O93 O 0.22196 0.14398 0.03724 0.0
Zn94 Zn 0.22064 0.09898 -0.02241 0.0
O95 O 0.21761 0.13592 0.91288 0.0
C96 C 0.13714 0.04708 0.93945 0.0
O97 O 0.14588 0.07173 0.89826 0.0
O98 O 0.2823 0.06175 -0.02217 0.0
C99 C 0.22099 0.18072 0.90446 0.0
O100 O 0.22962 0.21007 0.94112 0.0
C101 C 0.26119 0.15789 0.05647 0.0
O102 O 0.30219 0.14378 0.03742 0.0
O103 O 0.16349 0.05299 -0.02243 0.0
C104 C 0.66025 0.41831 0.02099 0.0
O105 O 0.67265 0.39721 0.06293 0.0
O106 O 0.73215 0.3228 0.04428 0.0
Zn107 Zn 0.73888 0.36293 -0.01897 0.0
O108 O 0.7368 0.32093 0.92022 0.0
C109 C 0.82489 0.41091 0.94093 0.0
O110 O 0.81139 0.39498 0.89751 0.0
O111 O 0.68336 0.4095 -0.01903 0.0
C112 C 0.76955 0.29449 0.9018 0.0
O113 O 0.81131 0.29091 0.92355 0.0
C114 C 0.71936 0.27905 0.04836 0.0
O115 O 0.71331 0.25332 0.00833 0.0
O116 O 0.80013 0.4014 -0.01997 0.0
C117 C 0.79847 0.55939 0.18855 0.0
O118 O 0.82295 0.54781 0.14848 0.0
O119 O 0.88262 0.47402 0.16828 0.0
Zn120 Zn 0.84268 0.47442 0.23147 0.0
O121 O 0.88436 0.47676 0.29272 0.0
C122 C 0.81837 0.37667 0.23562 0.0
O123 O 0.86297 0.37384 0.22004 0.0
O124 O 0.80132 0.53356 0.22796 0.0
C125 C 0.9094 0.44415 0.31375 0.0
O126 O 0.91289 0.40132 0.29474 0.0
C127 C 0.92761 0.48052 0.16413 0.0
O128 O 0.9542 0.48307 0.20403 0.0
O129 O 0.79889 0.41741 0.23914 0.0
C130 C 0.8005 0.53784 0.51373 0.0
O131 O 0.77709 0.5328 0.55624 0.0
O132 O 0.72196 0.64398 0.53724 0.0
Zn133 Zn 0.72064 0.59898 0.47759 0.0
O134 O 0.71761 0.63592 0.41288 0.0
C135 C 0.63714 0.54708 0.43946 0.0
O136 O 0.64588 0.57173 0.39826 0.0
O137 O 0.7823 0.56174 0.47783 0.0
C138 C 0.72099 0.68072 0.40446 0.0
O139 O 0.72963 0.71007 0.44112 0.0
C140 C 0.76119 0.65789 0.55647 0.0
O141 O 0.80219 0.64378 0.53742 0.0
O142 O 0.66349 0.55299 0.47757 0.0
C143 C 0.67559 0.40219 0.69694 0.0
O144 O 0.67713 0.42502 0.65377 0.0
O145 O 0.57958 0.47387 0.66558 0.0
Zn146 Zn 0.61525 0.47964 0.72936 0.0
O147 O 0.56899 0.48126 0.78755 0.0
C148 C 0.68132 0.5504 0.76883 0.0
O149 O 0.6732 0.5282 0.81163 0.0
O150 O 0.65322 0.42001 0.73381 0.0
C151 C 0.55681 0.51888 0.81056 0.0
O152 O 0.57425 0.56075 0.79634 0.0
C153 C 0.53604 0.46095 0.66216 0.0
O154 O 0.50926 0.45529 0.70238 0.0
O155 O 0.66031 0.53641 0.72975 0.0
C156 C 0.06955 0.75697 0.79157 0.0
O157 O 0.04854 0.79871 0.78561 0.0
O158 O -0.01244 0.66436 0.90506 0.0
Zn159 Zn -0.01009 0.7244 0.86205 0.0
O160 O -0.00957 0.78275 0.90579 0.0
C161 C 0.91212 0.69024 0.7951 0.0
O162 O 0.93374 0.64854 0.79316 0.0
O163 O 0.05049 0.72449 0.8195 0.0
C164 C 0.02405 0.80355 0.92914 0.0
O165 O 0.06795 0.78688 0.92727 0.0
C166 C 0.95365 0.6451 0.93081 0.0
O167 O 0.91142 0.66554 0.93339 0.0
O168 O 0.93033 0.7245 0.81969 0.0
C169 C 0.89076 0.24598 0.63933 0.0
O170 O 0.88858 0.25507 0.59122 0.0
O171 O -0.01271 0.17077 0.57084 0.0
Zn172 Zn -0.01301 0.23054 0.61072 0.0
O173 O -0.01632 0.28884 0.56347 0.0
C174 C 0.06448 0.19468 0.67616 0.0
O175 O 0.04168 0.15357 0.68094 0.0
O176 O 0.92999 0.23185 0.65784 0.0
C177 C 0.96617 0.32777 0.57974 0.0
O178 O 0.95485 0.33074 0.62725 0.0
C179 C 0.02339 0.1526 0.54865 0.0
O180 O 0.06526 0.17416 0.54927 0.0
O181 O 0.04692 0.2291 0.65037 0.0
C182 C 0.56955 0.25697 0.29157 0.0
O183 O 0.54854 0.29871 0.28561 0.0
O184 O 0.48756 0.16436 0.40506 0.0
Zn185 Zn 0.48991 0.2244 0.36205 0.0
O186 O 0.49042 0.28276 0.40579 0.0
C187 C 0.41212 0.19024 0.2951 0.0
O188 O 0.43374 0.14854 0.29316 0.0
O189 O 0.55049 0.22449 0.3195 0.0
C190 C 0.52405 0.30355 0.42914 0.0
O191 O 0.56795 0.28688 0.42727 0.0
C192 C 0.45365 0.1451 0.43081 0.0
O193 O 0.41142 0.16554 0.43339 0.0
O194 O 0.43033 0.2245 0.31969 0.0
C195 C 0.39076 0.74599 0.13933 0.0
O196 O 0.38858 0.75507 0.09123 0.0
O197 O 0.48729 0.67077 0.07084 0.0
Zn198 Zn 0.48699 0.73054 0.11072 0.0
O199 O 0.48368 0.78884 0.06348 0.0
C200 C 0.56448 0.69468 0.17616 0.0
O201 O 0.54168 0.65357 0.18094 0.0
O202 O 0.42999 0.73186 0.15784 0.0
C203 C 0.46617 0.82777 0.07974 0.0
O204 O 0.45485 0.83074 0.12725 0.0
C205 C 0.52339 0.65261 0.04865 0.0
O206 O 0.56527 0.67416 0.04927 0.0
O207 O 0.54692 0.72911 0.15037 0.0
C208 C 0.79795 0.06369 0.76923 0.0
O209 O 0.83035 0.05847 0.80387 0.0
O210 O 0.88267 -0.0158 0.66752 0.0
Zn211 Zn 0.84364 -0.0205 0.72882 0.0
O212 O 0.89152 -0.01395 0.78402 0.0
C213 C 0.78609 0.89593 0.69263 0.0
O214 O 0.77664 0.92021 0.65161 0.0
O215 O 0.79607 0.03391 0.73376 0.0
C216 C 0.8807 -0.03368 0.82533 0.0
O217 O 0.841 0.94101 0.82913 0.0
C218 C 0.91532 0.95381 0.65801 0.0
O219 O 0.92309 0.91756 0.68867 0.0
O220 O 0.8108 0.91482 0.72709 0.0
C221 C 0.81946 0.02667 0.44661 0.0
O222 O 0.7965 0.02127 0.40463 0.0
O223 O 0.73282 0.12423 0.54893 0.0
Zn224 Zn 0.73951 0.08645 0.48615 0.0
O225 O 0.73842 0.12946 0.42507 0.0
C226 C 0.66483 0.01806 0.52455 0.0
O227 O 0.68817 0.0128 0.56647 0.0
O228 O 0.80068 0.04977 0.48256 0.0
C229 C 0.77305 0.15355 0.40565 0.0
O230 O 0.81506 0.15411 0.42713 0.0
C231 C 0.70841 0.16249 0.55283 0.0
O232 O 0.69033 0.18322 0.51305 0.0
O233 O 0.68219 0.04345 0.48861 0.0
C234 C 0.6888 0.90265 0.24814 0.0
O235 O 0.70359 0.93177 0.28275 0.0
O236 O 0.57838 -0.01768 0.15699 0.0
Zn237 Zn 0.61009 -0.03035 0.22136 0.0
O238 O 0.56024 0.95646 0.27407 0.0
C239 C 0.67345 0.04533 0.19752 0.0
O240 O 0.67736 0.02245 0.15526 0.0
O241 O 0.65383 0.91376 0.22013 0.0
C242 C 0.57775 0.96097 0.31693 0.0
O243 O 0.62238 -0.02482 0.32078 0.0
C244 C 0.54259 0.01025 0.1542 0.0
O245 O 0.52282 0.0273 0.19485 0.0
O246 O 0.6475 0.0283 0.23283 0.0
C247 C 0.64132 0.9167 0.93844 0.0
O248 O 0.64578 0.88491 0.90316 0.0
O249 O 0.72244 0.82617 0.03159 0.0
Zn250 Zn 0.72859 0.87225 -0.02465 0.0
O251 O 0.73278 0.83214 0.91437 0.0
C252 C 0.80432 0.93237 0.02227 0.0
O253 O 0.77278 0.94978 0.05377 0.0
O254 O 0.67263 0.91868 -0.02751 0.0
C255 C 0.70706 0.79528 0.9063 0.0
O256 O 0.67341 0.78199 0.93828 0.0
C257 C 0.75595 0.79689 0.04201 0.0
O258 O 0.79484 0.79548 0.01407 0.0
O259 O 0.79151 0.90432 -0.01222 0.0
C260 C 0.31946 0.52667 0.94661 0.0
O261 O 0.2965 0.52127 0.90463 0.0
O262 O 0.23282 0.62423 0.04893 0.0
Zn263 Zn 0.23951 0.58645 -0.01385 0.0
O264 O 0.23842 0.62946 0.92508 0.0
C265 C 0.16483 0.51806 0.02455 0.0
O266 O 0.18817 0.5128 0.06647 0.0
O267 O 0.30068 0.54977 -0.01744 0.0
C268 C 0.27305 0.65355 0.90565 0.0
O269 O 0.31506 0.65411 0.92713 0.0
C270 C 0.20841 0.66249 0.05283 0.0
O271 O 0.19033 0.68322 0.01305 0.0
O272 O 0.18219 0.54345 -0.01139 0.0
C273 C 0.1888 0.40265 0.74814 0.0
O274 O 0.2036 0.43177 0.78275 0.0
O275 O 0.07838 0.48233 0.65699 0.0
Zn276 Zn 0.11009 0.46965 0.72135 0.0
O277 O 0.06024 0.45646 0.77407 0.0
C278 C 0.17345 0.54533 0.69752 0.0
O279 O 0.17736 0.52245 0.65526 0.0
O280 O 0.15383 0.41376 0.72013 0.0
C281 C 0.07775 0.46096 0.81693 0.0
O282 O 0.12239 0.47517 0.82078 0.0
C283 C 0.04259 0.51025 0.6542 0.0
O284 O 0.02282 0.5273 0.69485 0.0
O285 O 0.1475 0.5283 0.73283 0.0
C286 C 0.14132 0.4167 0.43844 0.0
O287 O 0.14578 0.38491 0.40316 0.0
O288 O 0.22244 0.32617 0.53159 0.0
Zn289 Zn 0.22859 0.37225 0.47535 0.0
O290 O 0.23278 0.33214 0.41437 0.0
C291 C 0.30432 0.43237 0.52228 0.0
O292 O 0.27278 0.44978 0.55377 0.0
O293 O 0.17263 0.41868 0.47249 0.0
C294 C 0.20706 0.29528 0.4063 0.0
O295 O 0.17341 0.28199 0.43828 0.0
C296 C 0.25595 0.29688 0.54201 0.0
O297 O 0.29484 0.29548 0.51408 0.0
O298 O 0.29151 0.40432 0.48778 0.0
C299 C 0.29796 0.56369 0.26923 0.0
O300 O 0.33036 0.55848 0.30386 0.0
O301 O 0.38268 0.4842 0.16752 0.0
Zn302 Zn 0.34364 0.4795 0.22882 0.0
O303 O 0.39152 0.48605 0.28402 0.0
C304 C 0.28609 0.39593 0.19263 0.0
O305 O 0.27664 0.42021 0.15161 0.0
O306 O 0.29607 0.53391 0.23376 0.0
C307 C 0.3807 0.46632 0.32533 0.0
O308 O 0.34099 0.44101 0.32913 0.0
C309 C 0.41532 0.45381 0.15801 0.0
O310 O 0.42309 0.41756 0.18867 0.0
O311 O 0.3108 0.41482 0.22709 0.0
O312 O 0.96913 0.08757 0.95898 0.0
Zn313 Zn -0.01446 0.02102 0.93211 0.0
O314 O 0.97729 -0.02756 -0.01502 0.0
Zn315 Zn 0.03739 0.94336 0.00267 0.0
Zn316 Zn 0.94363 -0.00118 0.04134 0.0
Zn317 Zn 0.9361 0.92221 0.96532 0.0
O318 O 0.0453 0.8758 -0.02795 0.0
O319 O 0.9699 0.86296 0.95058 0.0
O320 O 0.05707 0.02949 0.91701 0.0
O321 O 0.08975 -0.01232 -0.02058 0.0
O322 O 0.04233 0.94414 0.07711 0.0
O323 O 0.97423 -0.02349 0.10523 0.0
O324 O 0.87186 -0.01727 0.03804 0.0
O325 O 0.94362 0.0034 0.87164 0.0
O326 O 0.88331 0.90872 0.01209 0.0
O327 O 0.90481 0.93969 0.90319 0.0
C328 C 0.96272 0.10012 0.00412 0.0
C329 C 0.01296 0.84926 0.95318 0.0
C330 C 0.01533 0.95812 0.11265 0.0
C331 C 0.09291 0.01861 0.94419 0.0
C332 C 0.85563 0.94136 0.02744 0.0
C333 C 0.91176 -0.02964 0.86862 0.0
O334 O 0.95448 0.06956 0.0389 0.0
O335 O 0.19908 0.65763 0.13983 0.0
Zn336 Zn 0.19709 0.66825 0.21367 0.0
O337 O 0.23045 0.72837 0.22712 0.0
Zn338 Zn 0.29083 0.71747 0.26181 0.0
Zn339 Zn 0.23981 0.76407 0.16421 0.0
Zn340 Zn 0.19196 0.76656 0.26972 0.0
O341 O 0.29493 0.75339 0.32821 0.0
O342 O 0.21921 0.77625 0.33603 0.0
O343 O 0.23501 0.61242 0.24002 0.0
O344 O 0.29743 0.64716 0.27607 0.0
O345 O 0.34625 0.73207 0.21421 0.0
O346 O 0.30934 0.76335 0.14808 0.0
O347 O 0.21497 0.8326 0.16633 0.0
O348 O 0.12787 0.66812 0.24189 0.0
O349 O 0.18305 0.83124 0.24245 0.0
O350 O 0.12831 0.73906 0.27862 0.0
C351 C 0.20431 0.68481 0.10162 0.0
C352 C 0.26103 0.7724 0.35338 0.0
C353 C 0.34696 0.74864 0.16961 0.0
C354 C 0.27418 0.60994 0.26368 0.0
C355 C 0.19318 0.85319 0.20204 0.0
C356 C 0.10689 0.70088 0.26676 0.0
O357 O 0.21316 0.72939 0.10525 0.0
O358 O 0.49461 0.85464 0.46717 0.0
Zn359 Zn 0.47864 0.91951 0.4364 0.0
O360 O 0.49122 -0.02976 0.48523 0.0
Zn361 Zn 0.43232 0.00327 0.50384 0.0
Zn362 Zn 0.52546 0.94547 0.54369 0.0
Zn363 Zn 0.53184 0.01679 0.45428 0.0
O364 O 0.42933 0.0732 0.4757 0.0
O365 O 0.50235 0.07885 0.44278 0.0
O366 O 0.40762 0.91523 0.42317 0.0
O367 O 0.37677 -0.03466 0.47888 0.0
O368 O 0.42428 -0.00081 0.57845 0.0
O369 O 0.49022 0.96361 0.60699 0.0
O370 O 0.59623 -0.03159 0.5454 0.0
O371 O 0.51713 0.92883 0.37147 0.0
O372 O 0.59103 0.0265 0.48837 0.0
O373 O 0.55511 -0.004 0.39034 0.0
C374 C 0.50873 0.8425 0.51054 0.0
C375 C 0.46188 0.09699 0.45208 0.0
C376 C 0.44931 -0.01741 0.61418 0.0
C377 C 0.37193 0.93312 0.44626 0.0
C378 C 0.61471 0.00337 0.52042 0.0
C379 C 0.54731 0.96202 0.36107 0.0
O380 O 0.52087 0.87332 0.54269 0.0
O381 O 0.24186 0.23763 0.84165 0.0
Zn382 Zn 0.26276 0.26735 0.77592 0.0
O383 O 0.24032 0.22856 0.7204 0.0
Zn384 Zn 0.29301 0.2127 0.67431 0.0
Zn385 Zn 0.20558 0.1714 0.74408 0.0
Zn386 Zn 0.1966 0.26636 0.68387 0.0
O387 O 0.28827 0.24699 0.60653 0.0
O388 O 0.2163 0.27894 0.61583 0.0
O389 O 0.33429 0.2629 0.77688 0.0
O390 O 0.35634 0.22864 0.7057 0.0
O391 O 0.29562 0.14112 0.66644 0.0
O392 O 0.24303 0.11336 0.72329 0.0
O393 O 0.13586 0.1682 0.71815 0.0
O394 O 0.23968 0.33732 0.77263 0.0
O395 O 0.13364 0.23937 0.68047 0.0
O396 O 0.18869 0.32907 0.71073 0.0
C397 C 0.2216 0.1978 0.85255 0.0
C398 C 0.25324 0.27131 0.58971 0.0
C399 C 0.27639 0.1067 0.69137 0.0
C400 C 0.36643 0.24681 0.74754 0.0
C401 C 0.11344 0.20071 0.69383 0.0
C402 C 0.2078 0.35429 0.74368 0.0
O403 O 0.20643 0.16969 0.81913 0.0
O404 O -0.00126 -0.01518 0.36503 0.0
Zn405 Zn 0.96112 0.96039 0.42509 0.0
O406 O -0.00668 -0.01911 0.48578 0.0
Zn407 Zn 0.00746 0.92594 0.52994 0.0
Zn408 Zn 0.05115 0.01835 0.4706 0.0
Zn409 Zn 0.95136 0.02216 0.52085 0.0
O410 O 0.97073 0.92724 0.59601 0.0
O411 O 0.93341 -0.00335 0.58586 0.0
O412 O 0.96482 0.88826 0.42177 0.0
O413 O -0.00803 0.86398 0.49572 0.0
O414 O 0.07843 0.92216 0.54074 0.0
O415 O 0.10855 -0.02241 0.48815 0.0
O416 O 0.05256 0.08323 0.50622 0.0
O417 O 0.89054 -0.01653 0.42221 0.0
O418 O 0.97691 0.08591 0.53201 0.0
O419 O 0.89065 0.02946 0.48886 0.0
C420 C 0.03444 0.01312 0.35971 0.0
C421 C 0.94209 0.95938 0.61142 0.0
C422 C 0.11375 0.94201 0.51799 0.0
C423 C 0.97729 0.85504 0.45211 0.0
C424 C 0.01771 0.1052 0.52686 0.0
C425 C 0.86942 0.01205 0.45202 0.0
O426 O 0.05622 0.03051 0.39677 0.0
O427 O 0.35713 0.70129 0.721 0.0
Zn428 Zn 0.30052 0.72531 0.76064 0.0
O429 O 0.24012 0.71411 0.72592 0.0
Zn430 Zn 0.20687 0.77446 0.70982 0.0
Zn431 Zn 0.25244 0.67681 0.66557 0.0
Zn432 Zn 0.19879 0.67761 0.76969 0.0
O433 O 0.13922 0.77868 0.74226 0.0
O434 O 0.13665 0.70831 0.78201 0.0
O435 O 0.31368 0.79545 0.75751 0.0
O436 O 0.24796 0.83073 0.72825 0.0
O437 O 0.20523 0.78248 0.63497 0.0
O438 O 0.23343 0.71433 0.604 0.0
O439 O 0.21932 0.61205 0.6681 0.0
O440 O 0.30016 0.69711 0.83248 0.0
O441 O 0.18504 0.61429 0.74317 0.0
O442 O 0.22688 0.66597 0.83516 0.0
C443 C 0.36019 0.67963 0.67974 0.0
C444 C 0.11731 0.74778 0.77001 0.0
C445 C 0.21726 0.75665 0.59813 0.0
C446 C 0.29094 0.8326 0.74343 0.0
C447 C 0.19449 0.59267 0.70313 0.0
C448 C 0.26653 0.6745 0.85566 0.0
O449 O 0.32318 0.66687 0.65603 0.0
O450 O 0.54746 0.01879 0.06787 0.0
Zn451 Zn 0.53755 0.01897 -0.00533 0.0
O452 O 0.47672 -0.0135 -0.01605 0.0
Zn453 Zn 0.48783 0.92491 0.95213 0.0
Zn454 Zn 0.44126 -0.02226 0.04682 0.0
Zn455 Zn 0.43796 0.02593 0.94207 0.0
O456 O 0.4497 0.92049 0.88788 0.0
O457 O 0.42838 -0.00317 0.87694 0.0
O458 O 0.5933 -0.02018 -0.03077 0.0
O459 O 0.55745 0.9176 0.93437 0.0
O460 O 0.47632 0.87015 0.00234 0.0
O461 O 0.44576 0.90867 0.06741 0.0
O462 O 0.37132 -0.00058 0.04373 0.0
O463 O 0.53851 0.08743 0.96468 0.0
O464 O 0.37265 0.03474 -0.03089 0.0
O465 O 0.46612 0.0899 0.93112 0.0
C466 C 0.52011 0.01674 0.10605 0.0
C467 C 0.43128 0.95417 0.8616 0.0
C468 C 0.4614 0.87059 0.04748 0.0
C469 C 0.59514 0.94052 0.94576 0.0
C470 C 0.35044 0.02233 0.00872 0.0
C471 C 0.50573 0.10975 0.941 0.0
O472 O 0.47523 0.0096 0.10295 0.0
O473 O 0.12171 0.21642 0.24441 0.0
Zn474 Zn 0.18438 0.20308 0.27873 0.0
O475 O 0.23855 0.22067 0.23411 0.0
Zn476 Zn 0.27661 0.16427 0.21643 0.0
Zn477 Zn 0.21593 0.25459 0.17398 0.0
Zn478 Zn 0.27951 0.26261 0.27039 0.0
O479 O 0.34369 0.1643 0.24878 0.0
O480 O 0.34326 0.23601 0.28356 0.0
O481 O 0.18272 0.13153 0.29 0.0
O482 O 0.23886 0.10523 0.23739 0.0
O483 O 0.28154 0.15879 0.14137 0.0
O484 O 0.23433 0.21703 0.11257 0.0
O485 O 0.24134 0.32512 0.1705 0.0
O486 O 0.18459 0.23885 0.34464 0.0
O487 O 0.28848 0.32398 0.23664 0.0
O488 O 0.25189 0.28053 0.33473 0.0
C489 C 0.11154 0.23403 0.2018 0.0
C490 C 0.36424 0.197 0.27383 0.0
C491 C 0.26041 0.18028 0.10559 0.0
C492 C 0.20408 0.09761 0.26766 0.0
C493 C 0.271 0.34569 0.19942 0.0
C494 C 0.21485 0.26944 0.35998 0.0
O495 O 0.14369 0.2508 0.17219 0.0
O496 O 0.49874 0.48482 0.86503 0.0
Zn497 Zn 0.46112 0.46039 0.92509 0.0
O498 O 0.49332 0.48089 -0.01422 0.0
Zn499 Zn 0.50746 0.42594 0.02995 0.0
Zn500 Zn 0.55115 0.51835 -0.0294 0.0
Zn501 Zn 0.45136 0.52217 0.02085 0.0
O502 O 0.47074 0.42724 0.09601 0.0
O503 O 0.43341 0.49665 0.08586 0.0
O504 O 0.46482 0.38826 0.92177 0.0
O505 O 0.49197 0.36398 -0.00428 0.0
O506 O 0.57844 0.42216 0.04074 0.0
O507 O 0.60856 0.47759 -0.01185 0.0
O508 O 0.55256 0.58324 0.00622 0.0
O509 O 0.39054 0.48347 0.92221 0.0
O510 O 0.47691 0.58591 0.03202 0.0
O511 O 0.39065 0.52946 -0.01113 0.0
C512 C 0.53444 0.51313 0.85971 0.0
C513 C 0.44209 0.45938 0.11142 0.0
C514 C 0.61375 0.44201 0.01799 0.0
C515 C 0.47729 0.35505 0.95211 0.0
C516 C 0.51772 0.6052 0.02686 0.0
C517 C 0.36943 0.51205 0.95202 0.0
O518 O 0.55622 0.53051 0.89677 0.0
O519 O 0.85713 0.20129 0.22099 0.0
Zn520 Zn 0.80052 0.22531 0.26064 0.0
O521 O 0.74012 0.21411 0.22591 0.0
Zn522 Zn 0.70686 0.27446 0.20982 0.0
Zn523 Zn 0.75244 0.17681 0.16557 0.0
Zn524 Zn 0.69879 0.17761 0.26969 0.0
O525 O 0.63922 0.27868 0.24226 0.0
O526 O 0.63665 0.20832 0.28201 0.0
O527 O 0.81368 0.29545 0.25751 0.0
O528 O 0.74796 0.33073 0.22825 0.0
O529 O 0.70523 0.28248 0.13497 0.0
O530 O 0.73343 0.21433 0.104 0.0
O531 O 0.71932 0.11205 0.1681 0.0
O532 O 0.80016 0.19711 0.33248 0.0
O533 O 0.68504 0.11429 0.24317 0.0
O534 O 0.72688 0.16597 0.33516 0.0
C535 C 0.86019 0.17963 0.17973 0.0
C536 C 0.61731 0.24778 0.27001 0.0
C537 C 0.71726 0.25665 0.09813 0.0
C538 C 0.79094 0.3326 0.24343 0.0
C539 C 0.69449 0.09267 0.20313 0.0
C540 C 0.76653 0.1745 0.35566 0.0
O541 O 0.82318 0.16687 0.15602 0.0
O542 O 0.04746 0.51879 0.56787 0.0
Zn543 Zn 0.03755 0.51897 0.49467 0.0
O544 O 0.97672 0.4865 0.48395 0.0
Zn545 Zn -0.01217 0.4249 0.45213 0.0
Zn546 Zn 0.94126 0.47774 0.54682 0.0
Zn547 Zn 0.93796 0.52593 0.44207 0.0
O548 O 0.9497 0.42049 0.38788 0.0
O549 O 0.92838 0.49683 0.37694 0.0
O550 O 0.0933 0.47982 0.46923 0.0
O551 O 0.05745 0.4176 0.43437 0.0
O552 O 0.97632 0.37015 0.50234 0.0
O553 O 0.94576 0.40867 0.56741 0.0
O554 O 0.87132 0.49942 0.54373 0.0
O555 O 0.03851 0.58743 0.46468 0.0
O556 O 0.87265 0.53474 0.46911 0.0
O557 O 0.96612 0.5899 0.43112 0.0
C558 C 0.02011 0.51674 0.60605 0.0
C559 C 0.93128 0.45417 0.36159 0.0
C560 C 0.96139 0.37059 0.54748 0.0
C561 C 0.09514 0.44052 0.44576 0.0
C562 C 0.85044 0.52232 0.50872 0.0
C563 C 0.00573 0.60975 0.44099 0.0
O564 O 0.97523 0.5096 0.60294 0.0
O565 O 0.74187 0.73763 0.34165 0.0
Zn566 Zn 0.76276 0.76735 0.27592 0.0
O567 O 0.74032 0.72856 0.2204 0.0
Zn568 Zn 0.79301 0.7127 0.17431 0.0
Zn569 Zn 0.70559 0.6714 0.24408 0.0
Zn570 Zn 0.69661 0.76637 0.18387 0.0
O571 O 0.78827 0.74699 0.10653 0.0
O572 O 0.7163 0.77894 0.11583 0.0
O573 O 0.83429 0.7629 0.27688 0.0
O574 O 0.85634 0.72864 0.2057 0.0
O575 O 0.79562 0.64112 0.16644 0.0
O576 O 0.74303 0.61336 0.22329 0.0
O577 O 0.63586 0.6682 0.21815 0.0
O578 O 0.73968 0.83732 0.27263 0.0
O579 O 0.63364 0.73937 0.18047 0.0
O580 O 0.68869 0.82907 0.21073 0.0
C581 C 0.72161 0.6978 0.35255 0.0
C582 C 0.75325 0.77131 0.08971 0.0
C583 C 0.77639 0.6067 0.19137 0.0
C584 C 0.86643 0.74681 0.24754 0.0
C585 C 0.61344 0.70071 0.19383 0.0
C586 C 0.7078 0.85429 0.24368 0.0
O587 O 0.70644 0.66969 0.31913 0.0
O588 O 0.69908 0.15762 0.63983 0.0
Zn589 Zn 0.69708 0.16825 0.71367 0.0
O590 O 0.73044 0.22837 0.72712 0.0
Zn591 Zn 0.79083 0.21747 0.76181 0.0
Zn592 Zn 0.7398 0.26407 0.66421 0.0
Zn593 Zn 0.69196 0.26656 0.76972 0.0
O594 O 0.79493 0.25338 0.82821 0.0
O595 O 0.71921 0.27625 0.83603 0.0
O596 O 0.73501 0.11242 0.74002 0.0
O597 O 0.79742 0.14716 0.77607 0.0
O598 O 0.84624 0.23207 0.71421 0.0
O599 O 0.80934 0.26335 0.64808 0.0
O600 O 0.71497 0.3326 0.66633 0.0
O601 O 0.62787 0.16812 0.74189 0.0
O602 O 0.68305 0.33124 0.74245 0.0
O603 O 0.62831 0.23906 0.77862 0.0
C604 C 0.70431 0.18481 0.60162 0.0
C605 C 0.76102 0.27239 0.85338 0.0
C606 C 0.84696 0.24863 0.66961 0.0
C607 C 0.77417 0.10994 0.76368 0.0
C608 C 0.69318 0.35319 0.70204 0.0
C609 C 0.60689 0.20088 0.76676 0.0
O610 O 0.71315 0.22939 0.60525 0.0
O611 O 0.62171 0.71642 0.74441 0.0
Zn612 Zn 0.68438 0.70308 0.77873 0.0
O613 O 0.73855 0.72067 0.73411 0.0
Zn614 Zn 0.77661 0.66427 0.71643 0.0
Zn615 Zn 0.71593 0.75459 0.67398 0.0
Zn616 Zn 0.77951 0.76261 0.77039 0.0
O617 O 0.84369 0.6643 0.74878 0.0
O618 O 0.84326 0.73601 0.78356 0.0
O619 O 0.68272 0.63153 0.79 0.0
O620 O 0.73886 0.60523 0.73739 0.0
O621 O 0.78154 0.65879 0.64137 0.0
O622 O 0.73433 0.71703 0.61257 0.0
O623 O 0.74134 0.82512 0.6705 0.0
O624 O 0.6846 0.73885 0.84464 0.0
O625 O 0.78848 0.82398 0.73664 0.0
O626 O 0.75189 0.78053 0.83473 0.0
C627 C 0.61154 0.73403 0.7018 0.0
C628 C 0.86424 0.697 0.77383 0.0
C629 C 0.76041 0.68028 0.60559 0.0
C630 C 0.70408 0.59761 0.76766 0.0
C631 C 0.771 0.84569 0.69942 0.0
C632 C 0.71485 0.76944 0.85998 0.0
O633 O 0.64369 0.7508 0.6722 0.0
O634 O 0.46913 0.58757 0.45898 0.0
Zn635 Zn 0.48554 0.52102 0.43211 0.0
O636 O 0.47728 0.47244 0.48498 0.0
Zn637 Zn 0.53739 0.44336 0.50267 0.0
Zn638 Zn 0.44363 0.49882 0.54134 0.0
Zn639 Zn 0.4361 0.42221 0.46532 0.0
O640 O 0.5453 0.3758 0.47206 0.0
O641 O 0.4699 0.36296 0.45058 0.0
O642 O 0.55706 0.52949 0.41702 0.0
O643 O 0.58975 0.48768 0.47942 0.0
O644 O 0.54233 0.44414 0.57711 0.0
O645 O 0.47423 0.47651 0.60523 0.0
O646 O 0.37186 0.48273 0.53804 0.0
O647 O 0.44362 0.5034 0.37165 0.0
O648 O 0.38331 0.40872 0.51209 0.0
O649 O 0.4048 0.43969 0.40319 0.0
C650 C 0.46272 0.60012 0.50412 0.0
C651 C 0.51295 0.34926 0.45318 0.0
C652 C 0.51533 0.45812 0.61265 0.0
C653 C 0.59291 0.51862 0.44419 0.0
C654 C 0.35563 0.44136 0.52744 0.0
C655 C 0.41175 0.47036 0.36862 0.0
O656 O 0.45448 0.56956 0.5389 0.0
O657 O -0.00539 0.35464 -0.03283 0.0
Zn658 Zn 0.97864 0.4195 0.9364 0.0
O659 O -0.00878 0.47024 -0.01477 0.0
Zn660 Zn 0.93232 0.50327 0.00384 0.0
Zn661 Zn 0.02546 0.44547 0.04369 0.0
Zn662 Zn 0.03185 0.51679 0.95428 0.0
O663 O 0.92933 0.5732 -0.0243 0.0
O664 O 0.00235 0.57885 0.94278 0.0
O665 O 0.90762 0.41522 0.92317 0.0
O666 O 0.87677 0.46534 -0.02112 0.0
O667 O 0.92428 0.49919 0.07845 0.0
O668 O -0.00978 0.46361 0.10699 0.0
O669 O 0.09624 0.46841 0.0454 0.0
O670 O 0.01714 0.42883 0.87147 0.0
O671 O 0.09103 0.52649 -0.01164 0.0
O672 O 0.05511 0.49599 0.89033 0.0
C673 C 0.00873 0.3425 0.01054 0.0
C674 C 0.96188 0.59699 0.95208 0.0
C675 C 0.94931 0.48259 0.11418 0.0
C676 C 0.87193 0.43312 0.94626 0.0
C677 C 0.11471 0.50337 0.02042 0.0
C678 C 0.04731 0.46202 0.86107 0.0
O679 O 0.02087 0.37331 0.04269 0.0
loop_
_geom_bond_atom_site_label_1
_geom_bond_atom_site_label_2
_geom_bond_distance
_geom_bond_site_symmetry_2
_ccdc_geom_bond_type
C0 O1 1.160 . S
C0 O7 1.185 . S
O1 C0 1.160 . S
O2 Zn3 1.899 . S
O2 C10 1.287 . S
Zn3 O2 1.899 . S
Zn3 O4 2.032 1_455 S
Zn3 O7 2.086 1_455 S
Zn3 O12 1.977 . S
O4 Zn3 2.032 1_655 S
O4 C8 1.278 1_655 S
C5 O6 1.203 . S
C5 O12 1.267 . S
O6 C5 1.203 . S
O7 C0 1.185 . S
O7 Zn3 2.086 1_655 S
C8 O4 1.278 1_455 S
C8 O9 1.211 . S
O9 C8 1.211 . S
C10 O2 1.287 . S
C10 O11 1.273 . S
O11 C10 1.273 . S
O12 Zn3 1.977 . S
O12 C5 1.267 . S
C13 O14 1.160 . S
C13 O20 1.185 . S
O14 C13 1.160 . S
O15 Zn16 1.899 . S
O15 C23 1.289 . S
Zn16 O15 1.899 . S
Zn16 O17 2.032 . S
Zn16 O20 2.086 . S
Zn16 O25 1.977 1_455 S
O17 Zn16 2.032 . S
O17 C21 1.278 1_455 S
C18 O19 1.203 . S
C18 O25 1.267 . S
O19 C18 1.203 . S
O20 C13 1.185 . S
O20 Zn16 2.086 . S
C21 O17 1.278 1_655 S
C21 O22 1.211 . S
O22 C21 1.211 . S
C23 O15 1.289 . S
C23 O24 1.266 1_455 S
O24 C23 1.266 1_655 S
O25 Zn16 1.977 1_655 S
O25 C18 1.267 . S
C26 O27 1.160 . S
C26 O33 1.185 . S
O27 C26 1.160 . S
O28 Zn29 1.899 . S
O28 C36 1.284 . S
Zn29 O28 1.899 . S
Zn29 O30 2.032 . S
Zn29 O33 2.086 . S
Zn29 O38 1.977 . S
O30 Zn29 2.032 . S
O30 C34 1.278 . S
C31 O32 1.203 . S
C31 O38 1.267 . S
O32 C31 1.203 . S
O33 C26 1.185 . S
O33 Zn29 2.086 . S
C34 O30 1.278 . S
C34 O35 1.211 . S
O35 C34 1.211 . S
C36 O28 1.284 . S
C36 O37 1.273 . S
O37 C36 1.273 . S
O38 Zn29 1.977 . S
O38 C31 1.267 . S
C39 O40 1.160 . S
C39 O46 1.185 . S
O40 C39 1.160 . S
O41 Zn42 1.899 . S
O41 C49 1.284 . S
Zn42 O41 1.899 . S
Zn42 O43 2.032 . S
Zn42 O46 2.086 . S
Zn42 O51 1.977 . S
O43 Zn42 2.032 . S
O43 C47 1.278 . S
C44 O45 1.203 . S
C44 O51 1.267 . S
O45 C44 1.203 . S
O46 C39 1.185 . S
O46 Zn42 2.086 . S
C47 O43 1.278 . S
C47 O48 1.211 . S
O48 C47 1.211 . S
C49 O41 1.284 . S
C49 O50 1.273 . S
O50 C49 1.273 . S
O51 Zn42 1.977 . S
O51 C44 1.267 . S
C52 O53 1.160 . S
C52 O59 1.185 . S
O53 C52 1.160 . S
O54 Zn55 1.899 . S
O54 C62 1.284 . S
Zn55 O54 1.899 . S
Zn55 O56 2.032 1_545 S
Zn55 O59 2.086 1_545 S
Zn55 O64 1.977 . S
O56 Zn55 2.032 1_565 S
O56 C60 1.278 1_565 S
C57 O58 1.203 . S
C57 O64 1.267 . S
O58 C57 1.203 . S
O59 C52 1.185 . S
O59 Zn55 2.086 1_565 S
C60 O56 1.278 1_545 S
C60 O61 1.211 . S
O61 C60 1.211 . S
C62 O54 1.284 . S
C62 O63 1.273 . S
O63 C62 1.273 . S
O64 Zn55 1.977 . S
O64 C57 1.267 . S
C65 O66 1.160 . S
C65 O72 1.185 . S
O66 C65 1.160 . S
O67 Zn68 1.899 . S
O67 C75 1.284 . S
Zn68 O67 1.899 . S
Zn68 O69 2.032 . S
Zn68 O72 2.086 . S
Zn68 O77 1.977 . S
O69 Zn68 2.032 . S
O69 C73 1.278 . S
C70 O71 1.203 . S
C70 O77 1.267 . S
O71 C70 1.203 . S
O72 C65 1.185 . S
O72 Zn68 2.086 . S
C73 O69 1.278 . S
C73 O74 1.211 . S
O74 C73 1.211 . S
C75 O67 1.284 . S
C75 O76 1.273 . S
O76 C75 1.273 . S
O77 Zn68 1.977 . S
O77 C70 1.267 . S
C78 O79 1.160 . S
C78 O85 1.185 . S
O79 C78 1.160 . S
O80 Zn81 1.899 . S
O80 C88 1.284 1_545 S
Zn81 O80 1.899 . S
Zn81 O82 2.032 . S
Zn81 O85 2.086 . S
Zn81 O90 1.977 1_545 S
O82 Zn81 2.032 . S
O82 C86 1.278 1_545 S
C83 O84 1.203 . S
C83 O90 1.267 . S
O84 C83 1.203 . S
O85 C78 1.185 . S
O85 Zn81 2.086 . S
C86 O82 1.278 1_565 S
C86 O87 1.211 . S
O87 C86 1.211 . S
C88 O80 1.284 1_565 S
C88 O89 1.273 . S
O89 C88 1.273 . S
O90 Zn81 1.977 1_565 S
O90 C83 1.267 . S
C91 O92 1.160 . S
C91 O98 1.185 . S
O92 C91 1.160 . S
O93 Zn94 1.899 . S
O93 C101 1.284 . S
Zn94 O93 1.899 . S
Zn94 O95 2.032 1_554 S
Zn94 O98 2.086 . S
Zn94 O103 1.977 . S
O95 Zn94 2.032 1_556 S
O95 C99 1.278 . S
C96 O97 1.203 . S
C96 O103 1.267 . S
O97 C96 1.203 . S
O98 C91 1.185 . S
O98 Zn94 2.086 . S
C99 O95 1.278 . S
C99 O100 1.211 . S
O100 C99 1.211 . S
C101 O93 1.284 . S
C101 O102 1.273 . S
O102 C101 1.273 . S
O103 Zn94 1.977 . S
O103 C96 1.267 . S
C104 O105 1.160 . S
C104 O111 1.185 . S
O105 C104 1.160 . S
O106 Zn107 1.899 . S
O106 C114 1.284 . S
Zn107 O106 1.899 . S
Zn107 O108 2.032 1_554 S
Zn107 O111 2.086 . S
Zn107 O116 1.977 . S
O108 Zn107 2.032 1_556 S
O108 C112 1.278 . S
C109 O110 1.203 . S
C109 O116 1.267 . S
O110 C109 1.203 . S
O111 C104 1.185 . S
O111 Zn107 2.086 . S
C112 O108 1.278 . S
C112 O113 1.211 . S
O113 C112 1.211 . S
C114 O106 1.284 . S
C114 O115 1.273 . S
O115 C114 1.273 . S
O116 Zn107 1.977 . S
O116 C109 1.267 . S
C117 O118 1.160 . S
C117 O124 1.185 . S
O118 C117 1.160 . S
O119 Zn120 1.899 . S
O119 C127 1.284 . S
Zn120 O119 1.899 . S
Zn120 O121 2.032 . S
Zn120 O124 2.086 . S
Zn120 O129 1.977 . S
O121 Zn120 2.032 . S
O121 C125 1.278 . S
C122 O123 1.203 . S
C122 O129 1.267 . S
O123 C122 1.203 . S
O124 C117 1.185 . S
O124 Zn120 2.086 . S
C125 O121 1.278 . S
C125 O126 1.211 . S
O126 C125 1.211 . S
C127 O119 1.284 . S
C127 O128 1.273 . S
O128 C127 1.273 . S
O129 Zn120 1.977 . S
O129 C122 1.267 . S
C130 O131 1.160 . S
C130 O137 1.185 . S
O131 C130 1.160 . S
O132 Zn133 1.899 . S
O132 C140 1.284 . S
Zn133 O132 1.899 . S
Zn133 O134 2.032 . S
Zn133 O137 2.086 . S
Zn133 O142 1.977 . S
O134 Zn133 2.032 . S
O134 C138 1.278 . S
C135 O136 1.203 . S
C135 O142 1.267 . S
O136 C135 1.203 . S
O137 C130 1.185 . S
O137 Zn133 2.086 . S
C138 O134 1.278 . S
C138 O139 1.211 . S
O139 C138 1.211 . S
C140 O132 1.284 . S
C140 O141 1.273 . S
O141 C140 1.273 . S
O142 Zn133 1.977 . S
O142 C135 1.267 . S
C143 O144 1.160 . S
C143 O150 1.185 . S
O144 C143 1.160 . S
O145 Zn146 1.899 . S
O145 C153 1.284 . S
Zn146 O145 1.899 . S
Zn146 O147 2.032 . S
Zn146 O150 2.086 . S
Zn146 O155 1.977 . S
O147 Zn146 2.032 . S
O147 C151 1.278 . S
C148 O149 1.203 . S
C148 O155 1.267 . S
O149 C148 1.203 . S
O150 C143 1.185 . S
O150 Zn146 2.086 . S
C151 O147 1.278 . S
C151 O152 1.211 . S
O152 C151 1.211 . S
C153 O145 1.284 . S
C153 O154 1.273 . S
O154 C153 1.273 . S
O155 Zn146 1.977 . S
O155 C148 1.267 . S
C156 O157 1.160 . S
C156 O163 1.185 . S
O157 C156 1.160 . S
O158 Zn159 1.899 . S
O158 C166 1.284 1_455 S
Zn159 O158 1.899 . S
Zn159 O160 2.032 . S
Zn159 O163 2.086 . S
Zn159 O168 1.977 1_455 S
O160 Zn159 2.032 . S
O160 C164 1.278 1_455 S
C161 O162 1.203 . S
C161 O168 1.267 . S
O162 C161 1.203 . S
O163 C156 1.185 . S
O163 Zn159 2.086 . S
C164 O160 1.278 1_655 S
C164 O165 1.211 . S
O165 C164 1.211 . S
C166 O158 1.284 1_655 S
C166 O167 1.273 . S
O167 C166 1.273 . S
O168 Zn159 1.977 1_655 S
O168 C161 1.267 . S
C169 O170 1.160 . S
C169 O176 1.185 . S
O170 C169 1.160 . S
O171 Zn172 1.899 . S
O171 C179 1.284 . S
Zn172 O171 1.899 . S
Zn172 O173 2.032 1_455 S
Zn172 O176 2.086 1_455 S
Zn172 O181 1.977 . S
O173 Zn172 2.032 1_655 S
O173 C177 1.278 1_655 S
C174 O175 1.203 . S
C174 O181 1.267 . S
O175 C174 1.203 . S
O176 C169 1.185 . S
O176 Zn172 2.086 1_655 S
C177 O173 1.278 1_455 S
C177 O178 1.211 . S
O178 C177 1.211 . S
C179 O171 1.284 . S
C179 O180 1.273 . S
O180 C179 1.273 . S
O181 Zn172 1.977 . S
O181 C174 1.267 . S
C182 O183 1.160 . S
C182 O189 1.185 . S
O183 C182 1.160 . S
O184 Zn185 1.899 . S
O184 C192 1.284 . S
Zn185 O184 1.899 . S
Zn185 O186 2.032 . S
Zn185 O189 2.086 . S
Zn185 O194 1.977 . S
O186 Zn185 2.032 . S
O186 C190 1.278 . S
C187 O188 1.203 . S
C187 O194 1.267 . S
O188 C187 1.203 . S
O189 C182 1.185 . S
O189 Zn185 2.086 . S
C190 O186 1.278 . S
C190 O191 1.211 . S
O191 C190 1.211 . S
C192 O184 1.284 . S
C192 O193 1.273 . S
O193 C192 1.273 . S
O194 Zn185 1.977 . S
O194 C187 1.267 . S
C195 O196 1.160 . S
C195 O202 1.185 . S
O196 C195 1.160 . S
O197 Zn198 1.899 . S
O197 C205 1.284 . S
Zn198 O197 1.899 . S
Zn198 O199 2.032 . S
Zn198 O202 2.086 . S
Zn198 O207 1.977 . S
O199 Zn198 2.032 . S
O199 C203 1.278 . S
C200 O201 1.203 . S
C200 O207 1.267 . S
O201 C200 1.203 . S
O202 C195 1.185 . S
O202 Zn198 2.086 . S
C203 O199 1.278 . S
C203 O204 1.211 . S
O204 C203 1.211 . S
C205 O197 1.284 . S
C205 O206 1.273 . S
O206 C205 1.273 . S
O207 Zn198 1.977 . S
O207 C200 1.267 . S
C208 O209 1.160 . S
C208 O215 1.185 . S
O209 C208 1.160 . S
O210 Zn211 1.899 . S
O210 C218 1.284 . S
Zn211 O210 1.899 . S
Zn211 O212 2.032 . S
Zn211 O215 2.086 . S
Zn211 O220 1.977 1_545 S
O212 Zn211 2.032 . S
O212 C216 1.278 . S
C213 O214 1.203 . S
C213 O220 1.267 . S
O214 C213 1.203 . S
O215 C208 1.185 . S
O215 Zn211 2.086 . S
C216 O212 1.278 . S
C216 O217 1.211 1_545 S
O217 C216 1.211 1_565 S
C218 O210 1.284 . S
C218 O219 1.273 1_545 S
O219 C218 1.273 1_565 S
O220 Zn211 1.977 1_565 S
O220 C213 1.267 . S
C221 O222 1.160 . S
C221 O228 1.185 . S
O222 C221 1.160 . S
O223 Zn224 1.899 . S
O223 C231 1.284 . S
Zn224 O223 1.899 . S
Zn224 O225 2.032 . S
Zn224 O228 2.086 . S
Zn224 O233 1.977 . S
O225 Zn224 2.032 . S
O225 C229 1.278 . S
C226 O227 1.203 . S
C226 O233 1.267 . S
O227 C226 1.203 . S
O228 C221 1.185 . S
O228 Zn224 2.086 . S
C229 O225 1.278 . S
C229 O230 1.211 . S
O230 C229 1.211 . S
C231 O223 1.284 . S
C231 O232 1.273 . S
O232 C231 1.273 . S
O233 Zn224 1.977 . S
O233 C226 1.267 . S
C234 O235 1.160 . S
C234 O241 1.185 . S
O235 C234 1.160 . S
O236 Zn237 1.899 . S
O236 C244 1.284 1_565 S
Zn237 O236 1.899 . S
Zn237 O238 2.032 . S
Zn237 O241 2.086 . S
Zn237 O246 1.977 1_565 S
O238 Zn237 2.032 . S
O238 C242 1.278 1_565 S
C239 O240 1.203 . S
C239 O246 1.267 . S
O240 C239 1.203 . S
O241 C234 1.185 . S
O241 Zn237 2.086 . S
C242 O238 1.278 1_545 S
C242 O243 1.211 . S
O243 C242 1.211 . S
C244 O236 1.284 1_545 S
C244 O245 1.273 . S
O245 C244 1.273 . S
O246 Zn237 1.977 1_545 S
O246 C239 1.267 . S
C247 O248 1.160 . S
C247 O254 1.185 1_554 S
O248 C247 1.160 . S
O249 Zn250 1.899 . S
O249 C257 1.284 . S
Zn250 O249 1.899 . S
Zn250 O251 2.032 1_554 S
Zn250 O254 2.086 1_554 S
Zn250 O259 1.977 1_554 S
O251 Zn250 2.032 1_556 S
O251 C255 1.278 . S
C252 O253 1.203 . S
C252 O259 1.267 1_554 S
O253 C252 1.203 . S
O254 C247 1.185 1_556 S
O254 Zn250 2.086 1_556 S
C255 O251 1.278 . S
C255 O256 1.211 . S
O256 C255 1.211 . S
C257 O249 1.284 . S
C257 O258 1.273 . S
O258 C257 1.273 . S
O259 Zn250 1.977 1_556 S
O259 C252 1.267 1_556 S
C260 O261 1.160 . S
C260 O267 1.185 1_554 S
O261 C260 1.160 . S
O262 Zn263 1.899 . S
O262 C270 1.284 . S
Zn263 O262 1.899 . S
Zn263 O264 2.032 1_554 S
Zn263 O267 2.086 1_554 S
Zn263 O272 1.977 1_554 S
O264 Zn263 2.032 1_556 S
O264 C268 1.278 . S
C265 O266 1.203 . S
C265 O272 1.267 1_554 S
O266 C265 1.203 . S
O267 C260 1.185 1_556 S
O267 Zn263 2.086 1_556 S
C268 O264 1.278 . S
C268 O269 1.211 . S
O269 C268 1.211 . S
C270 O262 1.284 . S
C270 O271 1.273 . S
O271 C270 1.273 . S
O272 Zn263 1.977 1_556 S
O272 C265 1.267 1_556 S
C273 O274 1.160 . S
C273 O280 1.185 . S
O274 C273 1.160 . S
O275 Zn276 1.899 . S
O275 C283 1.284 . S
Zn276 O275 1.899 . S
Zn276 O277 2.032 . S
Zn276 O280 2.086 . S
Zn276 O285 1.977 . S
O277 Zn276 2.032 . S
O277 C281 1.278 . S
C278 O279 1.203 . S
C278 O285 1.267 . S
O279 C278 1.203 . S
O280 C273 1.185 . S
O280 Zn276 2.086 . S
C281 O277 1.278 . S
C281 O282 1.211 . S
O282 C281 1.211 . S
C283 O275 1.284 . S
C283 O284 1.273 . S
O284 C283 1.273 . S
O285 Zn276 1.977 . S
O285 C278 1.267 . S
C286 O287 1.160 . S
C286 O293 1.185 . S
O287 C286 1.160 . S
O288 Zn289 1.899 . S
O288 C296 1.284 . S
Zn289 O288 1.899 . S
Zn289 O290 2.032 . S
Zn289 O293 2.086 . S
Zn289 O298 1.977 . S
O290 Zn289 2.032 . S
O290 C294 1.278 . S
C291 O292 1.203 . S
C291 O298 1.267 . S
O292 C291 1.203 . S
O293 C286 1.185 . S
O293 Zn289 2.086 . S
C294 O290 1.278 . S
C294 O295 1.211 . S
O295 C294 1.211 . S
C296 O288 1.284 . S
C296 O297 1.273 . S
O297 C296 1.273 . S
O298 Zn289 1.977 . S
O298 C291 1.267 . S
C299 O300 1.160 . S
C299 O306 1.185 . S
O300 C299 1.160 . S
O301 Zn302 1.899 . S
O301 C309 1.284 . S
Zn302 O301 1.899 . S
Zn302 O303 2.032 . S
Zn302 O306 2.086 . S
Zn302 O311 1.977 . S
O303 Zn302 2.032 . S
O303 C307 1.278 . S
C304 O305 1.203 . S
C304 O311 1.267 . S
O305 C304 1.203 . S
O306 C299 1.185 . S
O306 Zn302 2.086 . S
C307 O303 1.278 . S
C307 O308 1.211 . S
O308 C307 1.211 . S
C309 O301 1.284 . S
C309 O310 1.273 . S
O310 C309 1.273 . S
O311 Zn302 1.977 . S
O311 C304 1.267 . S
O312 Zn313 1.953 1_554 S
O312 C328 1.225 1_455 S
Zn313 O312 1.953 1_556 S
Zn313 O314 1.949 1_556 S
Zn313 O320 1.919 . S
Zn313 O325 1.924 1_455 S
O314 Zn313 1.949 1_554 S
O314 Zn315 1.923 1_545 S
O314 Zn316 1.950 1_455 S
O314 Zn317 1.945 1_444 S
Zn315 O314 1.923 1_565 S
Zn315 O318 1.933 . S
Zn315 O321 1.941 1_565 S
Zn315 O322 1.965 . S
Zn316 O314 1.950 1_655 S
Zn316 O323 1.938 . S
Zn316 O324 1.906 1_545 S
Zn316 O334 1.953 . S
Zn317 O314 1.945 1_666 S
Zn317 O319 1.932 . S
Zn317 O326 1.977 . S
Zn317 O327 1.910 1_565 S
O318 Zn315 1.933 . S
O318 C329 1.226 1_554 S
O319 Zn317 1.932 . S
O319 C329 1.307 1_655 S
O320 Zn313 1.919 . S
O320 C331 1.253 . S
O321 Zn315 1.941 1_545 S
O321 C331 1.283 1_554 S
O322 Zn315 1.965 . S
O322 C330 1.303 . S
O323 Zn316 1.938 . S
O323 C330 1.247 1_645 S
O324 Zn316 1.906 1_565 S
O324 C332 1.304 . S
O325 Zn313 1.924 1_655 S
O325 C333 1.311 . S
O326 Zn317 1.977 . S
O326 C332 1.272 1_556 S
O327 Zn317 1.910 1_545 S
O327 C333 1.231 . S
C328 O312 1.225 1_655 S
C328 O334 1.298 . S
C329 O318 1.226 1_556 S
C329 O319 1.307 1_455 S
C330 O322 1.303 . S
C330 O323 1.247 1_465 S
C331 O320 1.253 . S
C331 O321 1.283 1_556 S
C332 O324 1.304 . S
C332 O326 1.272 1_554 S
C333 O325 1.311 . S
C333 O327 1.231 . S
O334 Zn316 1.953 . S
O334 C328 1.298 . S
O335 Zn336 1.953 . S
O335 C351 1.225 . S
Zn336 O335 1.953 . S
Zn336 O337 1.949 . S
Zn336 O343 1.919 . S
Zn336 O348 1.924 . S
O337 Zn336 1.949 . S
O337 Zn338 1.923 . S
O337 Zn339 1.950 . S
O337 Zn340 1.945 . S
Zn338 O337 1.923 . S
Zn338 O341 1.933 . S
Zn338 O344 1.941 . S
Zn338 O345 1.965 . S
Zn339 O337 1.950 . S
Zn339 O346 1.938 . S
Zn339 O347 1.906 . S
Zn339 O357 1.953 . S
Zn340 O337 1.945 . S
Zn340 O342 1.932 . S
Zn340 O349 1.977 . S
Zn340 O350 1.910 . S
O341 Zn338 1.933 . S
O341 C352 1.226 . S
O342 Zn340 1.932 . S
O342 C352 1.307 . S
O343 Zn336 1.919 . S
O343 C354 1.253 . S
O344 Zn338 1.941 . S
O344 C354 1.283 . S
O345 Zn338 1.965 . S
O345 C353 1.303 . S
O346 Zn339 1.938 . S
O346 C353 1.247 . S
O347 Zn339 1.906 . S
O347 C355 1.304 . S
O348 Zn336 1.924 . S
O348 C356 1.311 . S
O349 Zn340 1.977 . S
O349 C355 1.272 . S
O350 Zn340 1.910 . S
O350 C356 1.231 . S
C351 O335 1.225 . S
C351 O357 1.298 . S
C352 O341 1.226 . S
C352 O342 1.307 . S
C353 O345 1.303 . S
C353 O346 1.247 . S
C354 O343 1.253 . S
C354 O344 1.283 . S
C355 O347 1.304 . S
C355 O349 1.272 . S
C356 O348 1.311 . S
C356 O350 1.231 . S
O357 Zn339 1.953 . S
O357 C351 1.298 . S
O358 Zn359 1.953 . S
O358 C374 1.225 . S
Zn359 O358 1.953 . S
Zn359 O360 1.949 1_565 S
Zn359 O366 1.919 . S
Zn359 O371 1.924 . S
O360 Zn359 1.949 1_545 S
O360 Zn361 1.923 . S
O360 Zn362 1.950 1_545 S
O360 Zn363 1.945 . S
Zn361 O360 1.923 . S
Zn361 O364 1.933 . S
Zn361 O367 1.941 . S
Zn361 O368 1.965 . S
Zn362 O360 1.950 1_565 S
Zn362 O369 1.938 1_565 S
Zn362 O370 1.906 1_565 S
Zn362 O380 1.953 . S
Zn363 O360 1.945 . S
Zn363 O365 1.932 . S
Zn363 O372 1.977 . S
Zn363 O373 1.910 . S
O364 Zn361 1.933 . S
O364 C375 1.226 . S
O365 Zn363 1.932 . S
O365 C375 1.307 . S
O366 Zn359 1.919 . S
O366 C377 1.253 . S
O367 Zn361 1.941 . S
O367 C377 1.283 1_545 S
O368 Zn361 1.965 . S
O368 C376 1.303 . S
O369 Zn362 1.938 1_545 S
O369 C376 1.247 . S
O370 Zn362 1.906 1_545 S
O370 C378 1.304 . S
O371 Zn359 1.924 . S
O371 C379 1.311 . S
O372 Zn363 1.977 . S
O372 C378 1.272 . S
O373 Zn363 1.910 . S
O373 C379 1.231 1_545 S
C374 O358 1.225 . S
C374 O380 1.298 . S
C375 O364 1.226 . S
C375 O365 1.307 . S
C376 O368 1.303 . S
C376 O369 1.247 . S
C377 O366 1.253 . S
C377 O367 1.283 1_565 S
C378 O370 1.304 . S
C378 O372 1.272 . S
C379 O371 1.311 . S
C379 O373 1.231 1_565 S
O380 Zn362 1.953 . S
O380 C374 1.298 . S
O381 Zn382 1.953 . S
O381 C397 1.225 . S
Zn382 O381 1.953 . S
Zn382 O383 1.949 . S
Zn382 O389 1.919 . S
Zn382 O394 1.924 . S
O383 Zn382 1.949 . S
O383 Zn384 1.923 . S
O383 Zn385 1.950 . S
O383 Zn386 1.945 . S
Zn384 O383 1.923 . S
Zn384 O387 1.933 . S
Zn384 O390 1.941 . S
Zn384 O391 1.965 . S
Zn385 O383 1.950 . S
Zn385 O392 1.938 . S
Zn385 O393 1.906 . S
Zn385 O403 1.953 . S
Zn386 O383 1.945 . S
Zn386 O388 1.932 . S
Zn386 O395 1.977 . S
Zn386 O396 1.910 . S
O387 Zn384 1.933 . S
O387 C398 1.226 . S
O388 Zn386 1.932 . S
O388 C398 1.307 . S
O389 Zn382 1.919 . S
O389 C400 1.253 . S
O390 Zn384 1.941 . S
O390 C400 1.283 . S
O391 Zn384 1.965 . S
O391 C399 1.303 . S
O392 Zn385 1.938 . S
O392 C399 1.247 . S
O393 Zn385 1.906 . S
O393 C401 1.304 . S
O394 Zn382 1.924 . S
O394 C402 1.311 . S
O395 Zn386 1.977 . S
O395 C401 1.272 . S
O396 Zn386 1.910 . S
O396 C402 1.231 . S
C397 O381 1.225 . S
C397 O403 1.298 . S
C398 O387 1.226 . S
C398 O388 1.307 . S
C399 O391 1.303 . S
C399 O392 1.247 . S
C400 O389 1.253 . S
C400 O390 1.283 . S
C401 O393 1.304 . S
C401 O395 1.272 . S
C402 O394 1.311 . S
C402 O396 1.231 . S
O403 Zn385 1.953 . S
O403 C397 1.298 . S
O404 Zn405 1.953 1_445 S
O404 C420 1.225 . S
Zn405 O404 1.953 1_665 S
Zn405 O406 1.949 1_665 S
Zn405 O412 1.919 . S
Zn405 O417 1.924 1_565 S
O406 Zn405 1.949 1_445 S
O406 Zn407 1.923 1_545 S
O406 Zn408 1.950 . S
O406 Zn409 1.945 1_455 S
Zn407 O406 1.923 1_565 S
Zn407 O410 1.940 . S
Zn407 O413 1.941 . S
Zn407 O414 1.965 . S
Zn408 O406 1.950 . S
Zn408 O415 1.938 . S
Zn408 O416 1.906 . S
Zn408 O426 1.953 . S
Zn409 O406 1.945 1_655 S
Zn409 O411 1.932 . S
Zn409 O418 1.977 . S
Zn409 O419 1.910 . S
O410 Zn407 1.940 . S
O410 C421 1.215 1_455 S
O411 Zn409 1.932 . S
O411 C421 1.307 1_545 S
O412 Zn405 1.919 . S
O412 C423 1.253 . S
O413 Zn407 1.941 . S
O413 C423 1.283 1_455 S
O414 Zn407 1.965 . S
O414 C422 1.303 . S
O415 Zn408 1.938 . S
O415 C422 1.247 1_545 S
O416 Zn408 1.906 . S
O416 C424 1.304 . S
O417 Zn405 1.924 1_545 S
O417 C425 1.311 . S
O418 Zn409 1.977 . S
O418 C424 1.272 1_655 S
O419 Zn409 1.910 . S
O419 C425 1.231 . S
C420 O404 1.225 . S
C420 O426 1.298 . S
C421 O410 1.215 1_655 S
C421 O411 1.307 1_565 S
C422 O414 1.303 . S
C422 O415 1.247 1_565 S
C423 O412 1.253 . S
C423 O413 1.283 1_655 S
C424 O416 1.304 . S
C424 O418 1.272 1_455 S
C425 O417 1.311 . S
C425 O419 1.231 . S
O426 Zn408 1.953 . S
O426 C420 1.298 . S
O427 Zn428 1.953 . S
O427 C443 1.225 . S
Zn428 O427 1.953 . S
Zn428 O429 1.949 . S
Zn428 O435 1.919 . S
Zn428 O440 1.924 . S
O429 Zn428 1.949 . S
O429 Zn430 1.923 . S
O429 Zn431 1.950 . S
O429 Zn432 1.945 . S
Zn430 O429 1.923 . S
Zn430 O433 1.933 . S
Zn430 O436 1.941 . S
Zn430 O437 1.965 . S
Zn431 O429 1.950 . S
Zn431 O438 1.938 . S
Zn431 O439 1.906 . S
Zn431 O449 1.953 . S
Zn432 O429 1.945 . S
Zn432 O434 1.932 . S
Zn432 O441 1.977 . S
Zn432 O442 1.910 . S
O433 Zn430 1.933 . S
O433 C444 1.226 . S
O434 Zn432 1.932 . S
O434 C444 1.307 . S
O435 Zn428 1.919 . S
O435 C446 1.253 . S
O436 Zn430 1.941 . S
O436 C446 1.283 . S
O437 Zn430 1.965 . S
O437 C445 1.303 . S
O438 Zn431 1.938 . S
O438 C445 1.247 . S
O439 Zn431 1.906 . S
O439 C447 1.304 . S
O440 Zn428 1.924 . S
O440 C448 1.311 . S
O441 Zn432 1.977 . S
O441 C447 1.272 . S
O442 Zn432 1.910 . S
O442 C448 1.231 . S
C443 O427 1.225 . S
C443 O449 1.298 . S
C444 O433 1.226 . S
C444 O434 1.307 . S
C445 O437 1.303 . S
C445 O438 1.247 . S
C446 O435 1.253 . S
C446 O436 1.283 . S
C447 O439 1.304 . S
C447 O441 1.272 . S
C448 O440 1.311 . S
C448 O442 1.231 . S
O449 Zn431 1.953 . S
O449 C443 1.298 . S
O450 Zn451 1.953 . S
O450 C466 1.225 . S
Zn451 O450 1.953 . S
Zn451 O452 1.949 . S
Zn451 O458 1.919 1_544 S
Zn451 O463 1.924 . S
O452 Zn451 1.949 . S
O452 Zn453 1.923 1_544 S
O452 Zn454 1.950 . S
O452 Zn455 1.945 1_554 S
Zn453 O452 1.923 1_566 S
Zn453 O456 1.933 . S
Zn453 O459 1.941 . S
Zn453 O460 1.965 1_556 S
Zn454 O452 1.950 . S
Zn454 O461 1.938 1_545 S
Zn454 O462 1.906 . S
Zn454 O472 1.953 . S
Zn455 O452 1.945 1_556 S
Zn455 O457 1.932 . S
Zn455 O464 1.977 . S
Zn455 O465 1.910 . S
O456 Zn453 1.933 . S
O456 C467 1.226 . S
O457 Zn455 1.932 . S
O457 C467 1.307 1_545 S
O458 Zn451 1.919 1_566 S
O458 C469 1.253 . S
O459 Zn453 1.941 . S
O459 C469 1.283 . S
O460 Zn453 1.965 1_554 S
O460 C468 1.303 . S
O461 Zn454 1.938 1_565 S
O461 C468 1.247 . S
O462 Zn454 1.906 . S
O462 C470 1.304 . S
O463 Zn451 1.924 . S
O463 C471 1.311 1_554 S
O464 Zn455 1.977 . S
O464 C470 1.272 1_556 S
O465 Zn455 1.910 . S
O465 C471 1.231 . S
C466 O450 1.225 . S
C466 O472 1.298 . S
C467 O456 1.226 . S
C467 O457 1.307 1_565 S
C468 O460 1.303 . S
C468 O461 1.247 . S
C469 O458 1.253 . S
C469 O459 1.283 . S
C470 O462 1.304 . S
C470 O464 1.272 1_554 S
C471 O463 1.311 1_556 S
C471 O465 1.231 . S
O472 Zn454 1.953 . S
O472 C466 1.298 . S
O473 Zn474 1.953 . S
O473 C489 1.225 . S
Zn474 O473 1.953 . S
Zn474 O475 1.949 . S
Zn474 O481 1.919 . S
Zn474 O486 1.924 . S
O475 Zn474 1.949 . S
O475 Zn476 1.923 . S
O475 Zn477 1.950 . S
O475 Zn478 1.945 . S
Zn476 O475 1.923 . S
Zn476 O479 1.933 . S
Zn476 O482 1.941 . S
Zn476 O483 1.965 . S
Zn477 O475 1.950 . S
Zn477 O484 1.938 . S
Zn477 O485 1.906 . S
Zn477 O495 1.953 . S
Zn478 O475 1.945 . S
Zn478 O480 1.932 . S
Zn478 O487 1.977 . S
Zn478 O488 1.910 . S
O479 Zn476 1.933 . S
O479 C490 1.226 . S
O480 Zn478 1.932 . S
O480 C490 1.307 . S
O481 Zn474 1.919 . S
O481 C492 1.253 . S
O482 Zn476 1.941 . S
O482 C492 1.283 . S
O483 Zn476 1.965 . S
O483 C491 1.303 . S
O484 Zn477 1.938 . S
O484 C491 1.247 . S
O485 Zn477 1.906 . S
O485 C493 1.304 . S
O486 Zn474 1.924 . S
O486 C494 1.311 . S
O487 Zn478 1.977 . S
O487 C493 1.272 . S
O488 Zn478 1.910 . S
O488 C494 1.231 . S
C489 O473 1.225 . S
C489 O495 1.298 . S
C490 O479 1.226 . S
C490 O480 1.307 . S
C491 O483 1.303 . S
C491 O484 1.247 . S
C492 O481 1.253 . S
C492 O482 1.283 . S
C493 O485 1.304 . S
C493 O487 1.272 . S
C494 O486 1.311 . S
C494 O488 1.231 . S
O495 Zn477 1.953 . S
O495 C489 1.298 . S
O496 Zn497 1.953 . S
O496 C512 1.225 . S
Zn497 O496 1.953 . S
Zn497 O498 1.949 1_556 S
Zn497 O504 1.919 . S
Zn497 O509 1.924 . S
O498 Zn497 1.949 1_554 S
O498 Zn499 1.923 . S
O498 Zn500 1.950 1_554 S
O498 Zn501 1.945 . S
Zn499 O498 1.923 . S
Zn499 O502 1.933 . S
Zn499 O505 1.941 . S
Zn499 O506 1.965 . S
Zn500 O498 1.950 1_556 S
Zn500 O507 1.938 1_556 S
Zn500 O508 1.906 1_556 S
Zn500 O518 1.953 . S
Zn501 O498 1.945 . S
Zn501 O503 1.932 . S
Zn501 O510 1.977 . S
Zn501 O511 1.910 . S
O502 Zn499 1.933 . S
O502 C513 1.226 . S
O503 Zn501 1.932 . S
O503 C513 1.307 . S
O504 Zn497 1.919 . S
O504 C515 1.253 . S
O505 Zn499 1.941 . S
O505 C515 1.283 1_554 S
O506 Zn499 1.965 . S
O506 C514 1.303 . S
O507 Zn500 1.938 1_554 S
O507 C514 1.247 . S
O508 Zn500 1.906 1_554 S
O508 C516 1.304 . S
O509 Zn497 1.924 . S
O509 C517 1.311 . S
O510 Zn501 1.977 . S
O510 C516 1.272 . S
O511 Zn501 1.910 . S
O511 C517 1.231 1_554 S
C512 O496 1.225 . S
C512 O518 1.298 . S
C513 O502 1.226 . S
C513 O503 1.307 . S
C514 O506 1.303 . S
C514 O507 1.247 . S
C515 O504 1.253 . S
C515 O505 1.283 1_556 S
C516 O508 1.304 . S
C516 O510 1.272 . S
C517 O509 1.311 . S
C517 O511 1.231 1_556 S
O518 Zn500 1.953 . S
O518 C512 1.298 . S
O519 Zn520 1.953 . S
O519 C535 1.225 . S
Zn520 O519 1.953 . S
Zn520 O521 1.949 . S
Zn520 O527 1.919 . S
Zn520 O532 1.924 . S
O521 Zn520 1.949 . S
O521 Zn522 1.923 . S
O521 Zn523 1.950 . S
O521 Zn524 1.945 . S
Zn522 O521 1.923 . S
Zn522 O525 1.933 . S
Zn522 O528 1.941 . S
Zn522 O529 1.965 . S
Zn523 O521 1.950 . S
Zn523 O530 1.938 . S
Zn523 O531 1.906 . S
Zn523 O541 1.953 . S
Zn524 O521 1.945 . S
Zn524 O526 1.932 . S
Zn524 O533 1.977 . S
Zn524 O534 1.910 . S
O525 Zn522 1.933 . S
O525 C536 1.226 . S
O526 Zn524 1.932 . S
O526 C536 1.307 . S
O527 Zn520 1.919 . S
O527 C538 1.253 . S
O528 Zn522 1.941 . S
O528 C538 1.283 . S
O529 Zn522 1.965 . S
O529 C537 1.303 . S
O530 Zn523 1.938 . S
O530 C537 1.247 . S
O531 Zn523 1.906 . S
O531 C539 1.304 . S
O532 Zn520 1.924 . S
O532 C540 1.311 . S
O533 Zn524 1.977 . S
O533 C539 1.272 . S
O534 Zn524 1.910 . S
O534 C540 1.231 . S
C535 O519 1.225 . S
C535 O541 1.298 . S
C536 O525 1.226 . S
C536 O526 1.307 . S
C537 O529 1.303 . S
C537 O530 1.247 . S
C538 O527 1.253 . S
C538 O528 1.283 . S
C539 O531 1.304 . S
C539 O533 1.272 . S
C540 O532 1.311 . S
C540 O534 1.231 . S
O541 Zn523 1.953 . S
O541 C535 1.298 . S
O542 Zn543 1.953 . S
O542 C558 1.225 . S
Zn543 O542 1.953 . S
Zn543 O544 1.943 1_455 S
Zn543 O550 1.919 . S
Zn543 O555 1.924 . S
O544 Zn543 1.943 1_655 S
O544 Zn545 1.923 1_655 S
O544 Zn546 1.953 . S
O544 Zn547 1.947 . S
Zn545 O544 1.923 1_455 S
Zn545 O548 1.933 1_455 S
Zn545 O551 1.941 . S
Zn545 O552 1.965 1_455 S
Zn546 O544 1.953 . S
Zn546 O553 1.938 . S
Zn546 O554 1.906 . S
Zn546 O564 1.953 1_655 S
Zn547 O544 1.947 . S
Zn547 O549 1.932 . S
Zn547 O556 1.977 . S
Zn547 O557 1.911 . S
O548 Zn545 1.933 1_655 S
O548 C559 1.226 . S
O549 Zn547 1.932 . S
O549 C559 1.307 . S
O550 Zn543 1.919 . S
O550 C561 1.253 . S
O551 Zn545 1.941 . S
O551 C561 1.283 . S
O552 Zn545 1.965 1_655 S
O552 C560 1.303 . S
O553 Zn546 1.938 . S
O553 C560 1.247 . S
O554 Zn546 1.906 . S
O554 C562 1.304 . S
O555 Zn543 1.924 . S
O555 C563 1.311 . S
O556 Zn547 1.977 . S
O556 C562 1.272 . S
O557 Zn547 1.911 . S
O557 C563 1.229 1_655 S
C558 O542 1.225 . S
C558 O564 1.298 . S
C559 O548 1.226 . S
C559 O549 1.307 . S
C560 O552 1.303 . S
C560 O553 1.247 . S
C561 O550 1.253 . S
C561 O551 1.283 . S
C562 O554 1.304 . S
C562 O556 1.272 . S
C563 O555 1.311 . S
C563 O557 1.229 1_455 S
O564 Zn546 1.953 1_455 S
O564 C558 1.298 . S
O565 Zn566 1.953 . S
O565 C581 1.225 . S
Zn566 O565 1.953 . S
Zn566 O567 1.949 . S
Zn566 O573 1.919 . S
Zn566 O578 1.924 . S
O567 Zn566 1.949 . S
O567 Zn568 1.923 . S
O567 Zn569 1.950 . S
O567 Zn570 1.945 . S
Zn568 O567 1.923 . S
Zn568 O571 1.933 . S
Zn568 O574 1.941 . S
Zn568 O575 1.965 . S
Zn569 O567 1.950 . S
Zn569 O576 1.938 . S
Zn569 O577 1.906 . S
Zn569 O587 1.953 . S
Zn570 O567 1.945 . S
Zn570 O572 1.932 . S
Zn570 O579 1.977 . S
Zn570 O580 1.910 . S
O571 Zn568 1.933 . S
O571 C582 1.226 . S
O572 Zn570 1.932 . S
O572 C582 1.307 . S
O573 Zn566 1.919 . S
O573 C584 1.253 . S
O574 Zn568 1.941 . S
O574 C584 1.283 . S
O575 Zn568 1.965 . S
O575 C583 1.303 . S
O576 Zn569 1.938 . S
O576 C583 1.247 . S
O577 Zn569 1.906 . S
O577 C585 1.304 . S
O578 Zn566 1.924 . S
O578 C586 1.311 . S
O579 Zn570 1.977 . S
O579 C585 1.272 . S
O580 Zn570 1.910 . S
O580 C586 1.231 . S
C581 O565 1.225 . S
C581 O587 1.298 . S
C582 O571 1.226 . S
C582 O572 1.307 . S
C583 O575 1.303 . S
C583 O576 1.247 . S
C584 O573 1.253 . S
C584 O574 1.283 . S
C585 O577 1.304 . S
C585 O579 1.272 . S
C586 O578 1.311 . S
C586 O580 1.231 . S
O587 Zn569 1.953 . S
O587 C581 1.298 . S
O588 Zn589 1.953 . S
O588 C604 1.225 . S
Zn589 O588 1.953 . S
Zn589 O590 1.949 . S
Zn589 O596 1.919 . S
Zn589 O601 1.924 . S
O590 Zn589 1.949 . S
O590 Zn591 1.923 . S
O590 Zn592 1.950 . S
O590 Zn593 1.945 . S
Zn591 O590 1.923 . S
Zn591 O594 1.933 . S
Zn591 O597 1.941 . S
Zn591 O598 1.965 . S
Zn592 O590 1.950 . S
Zn592 O599 1.938 . S
Zn592 O600 1.906 . S
Zn592 O610 1.953 . S
Zn593 O590 1.945 . S
Zn593 O595 1.932 . S
Zn593 O602 1.977 . S
Zn593 O603 1.910 . S
O594 Zn591 1.933 . S
O594 C605 1.226 . S
O595 Zn593 1.932 . S
O595 C605 1.307 . S
O596 Zn589 1.919 . S
O596 C607 1.253 . S
O597 Zn591 1.941 . S
O597 C607 1.283 . S
O598 Zn591 1.965 . S
O598 C606 1.303 . S
O599 Zn592 1.938 . S
O599 C606 1.247 . S
O600 Zn592 1.906 . S
O600 C608 1.304 . S
O601 Zn589 1.924 . S
O601 C609 1.311 . S
O602 Zn593 1.977 . S
O602 C608 1.272 . S
O603 Zn593 1.910 . S
O603 C609 1.231 . S
C604 O588 1.225 . S
C604 O610 1.298 . S
C605 O594 1.226 . S
C605 O595 1.307 . S
C606 O598 1.303 . S
C606 O599 1.247 . S
C607 O596 1.253 . S
C607 O597 1.283 . S
C608 O600 1.304 . S
C608 O602 1.272 . S
C609 O601 1.311 . S
C609 O603 1.231 . S
O610 Zn592 1.953 . S
O610 C604 1.298 . S
O611 Zn612 1.953 . S
O611 C627 1.225 . S
Zn612 O611 1.953 . S
Zn612 O613 1.949 . S
Zn612 O619 1.919 . S
Zn612 O624 1.924 . S
O613 Zn612 1.949 . S
O613 Zn614 1.923 . S
O613 Zn615 1.950 . S
O613 Zn616 1.945 . S
Zn614 O613 1.923 . S
Zn614 O617 1.933 . S
Zn614 O620 1.941 . S
Zn614 O621 1.965 . S
Zn615 O613 1.950 . S
Zn615 O622 1.938 . S
Zn615 O623 1.906 . S
Zn615 O633 1.953 . S
Zn616 O613 1.945 . S
Zn616 O618 1.932 . S
Zn616 O625 1.977 . S
Zn616 O626 1.910 . S
O617 Zn614 1.933 . S
O617 C628 1.226 . S
O618 Zn616 1.932 . S
O618 C628 1.307 . S
O619 Zn612 1.919 . S
O619 C630 1.253 . S
O620 Zn614 1.941 . S
O620 C630 1.283 . S
O621 Zn614 1.965 . S
O621 C629 1.303 . S
O622 Zn615 1.938 . S
O622 C629 1.247 . S
O623 Zn615 1.906 . S
O623 C631 1.304 . S
O624 Zn612 1.924 . S
O624 C632 1.311 . S
O625 Zn616 1.977 . S
O625 C631 1.272 . S
O626 Zn616 1.910 . S
O626 C632 1.231 . S
C627 O611 1.225 . S
C627 O633 1.298 . S
C628 O617 1.226 . S
C628 O618 1.307 . S
C629 O621 1.303 . S
C629 O622 1.247 . S
C630 O619 1.253 . S
C630 O620 1.283 . S
C631 O623 1.304 . S
C631 O625 1.272 . S
C632 O624 1.311 . S
C632 O626 1.231 . S
O633 Zn615 1.953 . S
O633 C627 1.298 . S
O634 Zn635 1.953 . S
O634 C650 1.225 . S
Zn635 O634 1.953 . S
Zn635 O636 1.949 . S
Zn635 O642 1.919 . S
Zn635 O647 1.924 . S
O636 Zn635 1.949 . S
O636 Zn637 1.923 . S
O636 Zn638 1.950 . S
O636 Zn639 1.945 . S
Zn637 O636 1.923 . S
Zn637 O640 1.933 . S
Zn637 O643 1.941 . S
Zn637 O644 1.965 . S
Zn638 O636 1.950 . S
Zn638 O645 1.938 . S
Zn638 O646 1.906 . S
Zn638 O656 1.953 . S
Zn639 O636 1.945 . S
Zn639 O641 1.932 . S
Zn639 O648 1.977 . S
Zn639 O649 1.910 . S
O640 Zn637 1.933 . S
O640 C651 1.226 . S
O641 Zn639 1.932 . S
O641 C651 1.307 . S
O642 Zn635 1.919 . S
O642 C653 1.253 . S
O643 Zn637 1.941 . S
O643 C653 1.283 . S
O644 Zn637 1.965 . S
O644 C652 1.303 . S
O645 Zn638 1.938 . S
O645 C652 1.247 . S
O646 Zn638 1.906 . S
O646 C654 1.304 . S
O647 Zn635 1.924 . S
O647 C655 1.311 . S
O648 Zn639 1.977 . S
O648 C654 1.272 . S
O649 Zn639 1.910 . S
O649 C655 1.231 . S
C650 O634 1.225 . S
C650 O656 1.298 . S
C651 O640 1.226 . S
C651 O641 1.307 . S
C652 O644 1.303 . S
C652 O645 1.247 . S
C653 O642 1.253 . S
C653 O643 1.283 . S
C654 O646 1.304 . S
C654 O648 1.272 . S
C655 O647 1.311 . S
C655 O649 1.231 . S
O656 Zn638 1.953 . S
O656 C650 1.298 . S
O657 Zn658 1.953 1_454 S
O657 C673 1.225 . S
Zn658 O657 1.953 1_656 S
Zn658 O659 1.949 1_656 S
Zn658 O665 1.919 . S
Zn658 O670 1.924 1_655 S
O659 Zn658 1.949 1_454 S
O659 Zn660 1.923 1_455 S
O659 Zn661 1.950 . S
O659 Zn662 1.945 1_554 S
Zn660 O659 1.923 1_655 S
Zn660 O663 1.933 . S
Zn660 O666 1.941 . S
Zn660 O667 1.965 . S
Zn661 O659 1.950 . S
Zn661 O668 1.938 . S
Zn661 O669 1.906 . S
Zn661 O679 1.953 . S
Zn662 O659 1.945 1_556 S
Zn662 O664 1.932 . S
Zn662 O671 1.983 . S
Zn662 O672 1.910 . S
O663 Zn660 1.933 . S
O663 C674 1.226 1_554 S
O664 Zn662 1.932 . S
O664 C674 1.307 1_455 S
O665 Zn658 1.919 . S
O665 C676 1.253 . S
O666 Zn660 1.941 . S
O666 C676 1.283 1_554 S
O667 Zn660 1.965 . S
O667 C675 1.303 . S
O668 Zn661 1.938 . S
O668 C675 1.247 1_455 S
O669 Zn661 1.906 . S
O669 C677 1.304 . S
O670 Zn658 1.924 1_455 S
O670 C678 1.311 . S
O671 Zn662 1.983 . S
O671 C677 1.256 1_556 S
O672 Zn662 1.910 . S
O672 C678 1.231 . S
C673 O657 1.225 . S
C673 O679 1.298 . S
C674 O663 1.226 1_556 S
C674 O664 1.307 1_655 S
C675 O667 1.303 . S
C675 O668 1.247 1_655 S
C676 O665 1.253 . S
C676 O666 1.283 1_556 S
C677 O669 1.304 . S
C677 O671 1.256 1_554 S
C678 O670 1.311 . S
C678 O672 1.231 . S
O679 Zn661 1.953 . S
O679 C673 1.298 . S
C328 C10 1.488 1_655 S
C13 C356 1.514 . S
C34 C374 1.202 . S
C400 C44 1.680 . S
C21 C423 1.479 . S
C443 C26 1.141 . S
C471 C49 1.766 . S
C5 C489 1.444 . S
C62 C330 1.568 1_545 S
C73 C352 1.142 . S
C376 C88 1.592 1_545 S
C397 C99 1.161 . S
C60 C420 1.192 . S
C445 C75 1.566 . S
C467 C86 1.150 . S
C491 C101 1.566 . S
C331 C96 1.292 1_556 S
C514 C104 1.172 . S
C122 C538 1.355 . S
C562 C130 1.044 . S
C57 C492 1.329 . S
C377 C70 1.313 . S
C117 C583 1.141 . S
C608 C143 0.988 . S
C164 C329 1.542 1_655 S
C606 C169 1.563 . S
C192 C375 1.387 . S
C200 C585 1.121 . S
C424 C179 1.396 . S
C536 C182 1.404 . S
C468 C203 1.755 . S
C628 C161 1.317 . S
C333 C216 1.576 . S
C231 C604 1.668 . S
C379 C242 1.611 1_565 S
C257 C582 1.655 . S
C218 C421 1.682 1_545 S
C229 C540 1.602 . S
C466 C244 1.651 . S
C255 C632 1.578 . S
C252 C332 1.452 . S
C260 C517 1.704 1_554 S
C278 C447 1.451 . S
C286 C561 1.486 . S
C631 C213 1.398 . S
C378 C226 1.518 . S
C402 C273 1.630 . S
C354 C299 1.480 . S
C36 C650 1.488 . S
C609 C39 1.514 . S
C673 C8 1.201 . S
C18 C584 1.680 . S
C47 C515 1.479 . S
C535 C0 1.141 . S
C563 C23 1.778 . S
C627 C31 1.444 . S
C652 C153 1.568 . S
C112 C605 1.142 . S
C127 C675 1.593 . S
C581 C138 1.161 . S
C512 C151 1.192 . S
C114 C537 1.566 . S
C559 C125 1.149 . S
C140 C629 1.566 . S
C653 C135 1.292 . S
C422 C65 1.172 . S
C446 C83 1.356 . S
C91 C470 1.045 . S
C630 C148 1.329 . S
C109 C676 1.313 1_554 S
C399 C78 1.139 . S
C355 C52 0.987 . S
C190 C651 1.542 . S
C353 C195 1.562 . S
C674 C166 1.387 . S
C174 C401 1.120 . S
C205 C516 1.396 . S
C156 C444 1.404 . S
C177 C560 1.755 1_455 S
C187 C490 1.317 . S
C655 C307 1.576 . S
C270 C351 1.667 . S
C678 C281 1.612 . S
C296 C398 1.655 . S
C309 C513 1.682 . S
C448 C268 1.602 . S
C283 C558 1.651 . S
C494 C294 1.578 . S
C654 C291 1.452 . S
C425 C221 1.704 . S
C239 C539 1.451 . S
C469 C247 1.486 1_556 S
C493 C304 1.398 . S
C265 C677 1.518 . S
C586 C234 1.631 . S
C607 C208 1.480 . S
