# Generated by pormake.
# Topology ant, (3,6)-cn, num edge types: 1
# Building blocks:
#     Node 0, Type 0, BuildingBlock: OLANEW_clean_sbu_2, # of connection points: 3
#     Node 1, Type 0, BuildingBlock: OLANEW_clean_sbu_2, # of connection points: 3
#     Node 2, Type 0, BuildingBlock: OLANEW_clean_sbu_2, # of connection points: 3
#     Node 3, Type 0, BuildingBlock: OLANEW_clean_sbu_2, # of connection points: 3
#     Node 4, Type 0, BuildingBlock: OLANEW_clean_sbu_2, # of connection points: 3
#     Node 5, Type 0, BuildingBlock: OLANEW_clean_sbu_2, # of connection points: 3
#     Node 6, Type 0, BuildingBlock: OLANEW_clean_sbu_2, # of connection points: 3
#     Node 7, Type 0, BuildingBlock: OLANEW_clean_sbu_2, # of connection points: 3
#     Node 8, Type 1, BuildingBlock: MIDCAF_clean_sbu_0, # of connection points: 6
#     Node 9, Type 1, BuildingBlock: MIDCAF_clean_sbu_0, # of connection points: 6
#     Node 10, Type 1, BuildingBlock: MIDCAF_clean_sbu_0, # of connection points: 6
#     Node 11, Type 1, BuildingBlock: MIDCAF_clean_sbu_0, # of connection points: 6
#     Edge 12, Type (0, 1), BuildingBlock: XUDNAN_clean_linker_2, # of connection points: 2
#     Edge 13, Type (0, 1), BuildingBlock: XUDNAN_clean_linker_2, # of connection points: 2
#     Edge 14, Type (0, 1), BuildingBlock: XUDNAN_clean_linker_2, # of connection points: 2
#     Edge 15, Type (0, 1), BuildingBlock: XUDNAN_clean_linker_2, # of connection points: 2
#     Edge 16, Type (0, 1), BuildingBlock: XUDNAN_clean_linker_2, # of connection points: 2
#     Edge 17, Type (0, 1), BuildingBlock: XUDNAN_clean_linker_2, # of connection points: 2
#     Edge 18, Type (0, 1), BuildingBlock: XUDNAN_clean_linker_2, # of connection points: 2
#     Edge 19, Type (0, 1), BuildingBlock: XUDNAN_clean_linker_2, # of connection points: 2
#     Edge 20, Type (0, 1), BuildingBlock: XUDNAN_clean_linker_2, # of connection points: 2
#     Edge 21, Type (0, 1), BuildingBlock: XUDNAN_clean_linker_2, # of connection points: 2
#     Edge 22, Type (0, 1), BuildingBlock: XUDNAN_clean_linker_2, # of connection points: 2
#     Edge 23, Type (0, 1), BuildingBlock: XUDNAN_clean_linker_2, # of connection points: 2
#     Edge 24, Type (0, 1), BuildingBlock: XUDNAN_clean_linker_2, # of connection points: 2
#     Edge 25, Type (0, 1), BuildingBlock: XUDNAN_clean_linker_2, # of connection points: 2
#     Edge 26, Type (0, 1), BuildingBlock: XUDNAN_clean_linker_2, # of connection points: 2
#     Edge 27, Type (0, 1), BuildingBlock: XUDNAN_clean_linker_2, # of connection points: 2
#     Edge 28, Type (0, 1), BuildingBlock: XUDNAN_clean_linker_2, # of connection points: 2
#     Edge 29, Type (0, 1), BuildingBlock: XUDNAN_clean_linker_2, # of connection points: 2
#     Edge 30, Type (0, 1), BuildingBlock: XUDNAN_clean_linker_2, # of connection points: 2
#     Edge 31, Type (0, 1), BuildingBlock: XUDNAN_clean_linker_2, # of connection points: 2
#     Edge 32, Type (0, 1), BuildingBlock: XUDNAN_clean_linker_2, # of connection points: 2
#     Edge 33, Type (0, 1), BuildingBlock: XUDNAN_clean_linker_2, # of connection points: 2
#     Edge 34, Type (0, 1), BuildingBlock: XUDNAN_clean_linker_2, # of connection points: 2
#     Edge 35, Type (0, 1), BuildingBlock: XUDNAN_clean_linker_2, # of connection points: 2
# Relax obj value: 0.058
# Max RMSD: 0.137
# Mean RMSD: 0.094
data_MOF--net-ant--node1-OLANEW_clean_sbu_2--node2-MIDCAF_clean_sbu_0--edge1-XUDNAN_clean_linker_2
_symmetry_space_group_name_H-M    P1
_symmetry_Int_Tables_number       1
_symmetry_cell_setting            triclinic
loop_
_symmetry_equiv_pos_as_xyz
'x, y, z'
_cell_length_a     31.43164
_cell_length_b     31.336476
_cell_length_c     72.884593
_cell_angle_alpha  93.17172
_cell_angle_beta   93.908751
_cell_angle_gamma 89.879691
loop_
_atom_site_label
_atom_site_type_symbol
_atom_site_fract_x
_atom_site_fract_y
_atom_site_fract_z
_atom_type_partial_charge
O0 O 0.15863 0.19855 0.05527 0.0
Cd1 Cd 0.18539 0.20378 0.08776 0.0
O2 O 0.22202 0.21005 0.04563 0.0
Cd3 Cd 0.23733 0.24831 0.07104 0.0
O4 O 0.22087 0.31442 0.07874 0.0
C5 C 0.21458 0.33842 0.06529 0.0
O6 O 0.22002 0.32246 0.04856 0.0
C7 C 0.18348 0.19832 0.04222 0.0
C8 C 0.20293 0.12091 0.09828 0.0
O9 O 0.16495 0.13585 0.09737 0.0
O10 O 0.23355 0.14538 0.09474 0.0
O11 O 0.12269 0.78696 0.30503 0.0
Cd12 Cd 0.14218 0.82711 0.33446 0.0
O13 O 0.08827 0.84026 0.29236 0.0
Cd14 Cd 0.06876 0.86406 0.31903 0.0
O15 O 0.00515 0.84723 0.32674 0.0
C16 C 0.98591 0.81916 0.31592 0.0
O17 O 0.00558 0.80278 0.30184 0.0
C18 C 0.10509 0.80348 0.29084 0.0
C19 C 0.23123 0.82579 0.34077 0.0
O20 O 0.20807 0.80086 0.34926 0.0
O21 O 0.21257 0.85157 0.32982 0.0
O22 O 0.73224 0.67574 0.54543 0.0
Cd23 Cd 0.76345 0.67989 0.57736 0.0
O24 O 0.67589 0.71076 0.55424 0.0
Cd25 Cd 0.7096 0.743 0.57802 0.0
O26 O 0.70744 0.81167 0.58411 0.0
C27 C 0.7125 0.83607 0.57103 0.0
O28 O 0.72308 0.8192 0.55507 0.0
C29 C 0.69407 0.68824 0.54207 0.0
C30 C 0.73402 0.60584 0.59171 0.0
O31 O 0.71135 0.63983 0.59122 0.0
O32 O 0.77209 0.60738 0.58654 0.0
O33 O 0.61235 0.28322 0.80265 0.0
Cd34 Cd 0.6196 0.29366 0.83628 0.0
O35 O 0.59474 0.35052 0.79988 0.0
Cd36 Cd 0.57129 0.35227 0.82722 0.0
O37 O 0.50858 0.33212 0.83438 0.0
C38 C 0.49456 0.29603 0.82774 0.0
O39 O 0.51973 0.27092 0.81834 0.0
C40 C 0.60529 0.31466 0.79256 0.0
C41 C 0.70568 0.30451 0.84788 0.0
O42 O 0.68777 0.26768 0.84716 0.0
O43 O 0.68269 0.33661 0.84339 0.0
O44 O 0.04162 0.75024 0.94745 0.0
Cd45 Cd 0.02402 0.78328 0.91838 0.0
O46 O 0.10528 0.73193 0.93908 0.0
Cd47 Cd 0.08237 0.73034 0.91008 0.0
O48 O 0.06074 0.67189 0.8944 0.0
C49 C 0.0541 0.64223 0.90509 0.0
O50 O 0.05865 0.65104 0.92296 0.0
C51 C 0.07877 0.73592 0.95147 0.0
C52 C 0.06224 0.86394 0.91852 0.0
O53 O 0.02474 0.85964 0.92408 0.0
O54 O 0.08159 0.83016 0.91288 0.0
O55 O 0.65477 0.80563 0.19573 0.0
Cd56 Cd 0.65995 0.8005 0.16266 0.0
O57 O 0.63654 0.73786 0.19384 0.0
Cd58 Cd 0.60881 0.74205 0.16567 0.0
O59 O 0.55422 0.75367 0.14638 0.0
C60 C 0.52652 0.77979 0.15221 0.0
O61 O 0.53362 0.79895 0.16863 0.0
C62 C 0.64967 0.77089 0.20349 0.0
C63 C 0.74457 0.77678 0.15954 0.0
O64 O 0.73298 0.81601 0.15934 0.0
O65 O 0.71563 0.74826 0.16018 0.0
O66 O 0.48355 0.29653 0.47253 0.0
Cd67 Cd 0.44115 0.34414 0.4537 0.0
O68 O 0.50093 0.26436 0.44665 0.0
Cd69 Cd 0.53561 0.21634 0.43124 0.0
O70 O 0.56785 0.16194 0.41898 0.0
C71 C 0.54675 0.13348 0.40918 0.0
O72 O 0.50545 0.1384 0.40595 0.0
C73 C 0.50403 0.26746 0.46412 0.0
C74 C 0.49588 0.40152 0.43973 0.0
O75 O 0.47694 0.41135 0.4544 0.0
O76 O 0.48837 0.3648 0.43154 0.0
O77 O 0.17428 0.34874 0.71007 0.0
Cd78 Cd 0.18969 0.38162 0.68209 0.0
O79 O 0.13986 0.30038 0.69228 0.0
Cd80 Cd 0.09812 0.24686 0.68266 0.0
O81 O 0.04111 0.22739 0.6654 0.0
C82 C 0.01421 0.25715 0.6627 0.0
O83 O 0.02244 0.2953 0.67052 0.0
C84 C 0.1545 0.31337 0.70833 0.0
C85 C 0.26946 0.34854 0.67608 0.0
O86 O 0.26508 0.38347 0.68576 0.0
O87 O 0.23595 0.33049 0.66819 0.0
Zn88 Zn 0.18213 0.67986 0.1399 0.0
Zn89 Zn 0.07847 0.76962 0.10526 0.0
Zn90 Zn 0.13329 0.72579 0.12241 0.0
C91 C 0.09425 0.70321 0.08085 0.0
C92 C 0.15006 0.82163 0.11054 0.0
O93 O 0.10846 0.71714 0.15012 0.0
O94 O 0.16514 0.69033 0.16495 0.0
C95 C 0.14973 0.62613 0.11226 0.0
O96 O 0.11959 0.69367 0.09471 0.0
O97 O 0.06919 0.73447 0.0823 0.0
O98 O 0.11226 0.82153 0.10353 0.0
O99 O 0.16484 0.78836 0.11845 0.0
O100 O 0.16559 0.62379 0.12851 0.0
O101 O 0.13911 0.66298 0.10629 0.0
O102 O 0.19516 0.75938 0.1247 0.0
O103 O 0.23581 0.705 0.13278 0.0
C104 C 0.23225 0.74252 0.12746 0.0
O105 O 0.07562 0.73418 0.13902 0.0
O106 O 0.0326 0.7738 0.12176 0.0
C107 C 0.1277 0.70472 0.16511 0.0
C108 C 0.03988 0.75398 0.1362 0.0
Zn109 Zn 0.55556 0.67908 0.34508 0.0
Zn110 Zn 0.68028 0.75796 0.39593 0.0
Zn111 Zn 0.61719 0.74311 0.37521 0.0
C112 C 0.629 0.83384 0.39281 0.0
C113 C 0.71535 0.74816 0.36406 0.0
O114 O 0.601 0.67934 0.38486 0.0
O115 O 0.5709 0.63514 0.36238 0.0
C116 C 0.53464 0.77039 0.36414 0.0
O117 O 0.601 0.80868 0.38431 0.0
O118 O 0.66458 0.81907 0.39855 0.0
O119 O 0.72789 0.7471 0.3808 0.0
O120 O 0.67512 0.74815 0.35925 0.0
O121 O 0.54287 0.73466 0.35669 0.0
O122 O 0.56402 0.78848 0.37469 0.0
O123 O 0.63818 0.73394 0.34661 0.0
O124 O 0.59802 0.68963 0.32742 0.0
C125 C 0.62934 0.71503 0.33055 0.0
O126 O 0.6198 0.70399 0.40033 0.0
O127 O 0.6774 0.72489 0.41752 0.0
C128 C 0.58726 0.64207 0.3786 0.0
C129 C 0.64404 0.70258 0.41533 0.0
Zn130 Zn 0.56851 0.25411 0.60267 0.0
Zn131 Zn 0.65621 0.17254 0.63775 0.0
Zn132 Zn 0.62576 0.22447 0.61858 0.0
C133 C 0.71963 0.22348 0.62198 0.0
C134 C 0.62617 0.12167 0.61108 0.0
O135 O 0.56972 0.23842 0.63581 0.0
O136 O 0.51701 0.23786 0.61431 0.0
C137 C 0.63381 0.31555 0.60866 0.0
O138 O 0.68954 0.25086 0.61976 0.0
O139 O 0.71155 0.18696 0.62748 0.0
O140 O 0.62934 0.11837 0.62829 0.0
O141 O 0.6271 0.15913 0.60458 0.0
O142 O 0.59367 0.31188 0.60826 0.0
O143 O 0.65732 0.28254 0.61116 0.0
O144 O 0.61197 0.18729 0.59153 0.0
O145 O 0.57155 0.23425 0.57723 0.0
C146 C 0.593 0.20037 0.57663 0.0
O147 O 0.60597 0.2325 0.64763 0.0
O148 O 0.6501 0.1912 0.66353 0.0
C149 C 0.52931 0.23844 0.63111 0.0
C150 C 0.6223 0.22016 0.66323 0.0
Zn151 Zn 0.06397 0.18362 0.85334 0.0
Zn152 Zn 0.16328 0.29258 0.89165 0.0
Zn153 Zn 0.1097 0.24389 0.87063 0.0
C154 C 0.14692 0.22852 0.91332 0.0
C155 C 0.08839 0.3403 0.88315 0.0
O156 O 0.13574 0.2307 0.84338 0.0
O157 O 0.08903 0.18502 0.82935 0.0
C158 C 0.09767 0.14538 0.88291 0.0
O159 O 0.12425 0.21826 0.89829 0.0
O160 O 0.17076 0.26098 0.91437 0.0
O161 O 0.12454 0.34222 0.89184 0.0
O162 O 0.07554 0.30542 0.87431 0.0
O163 O 0.07732 0.13417 0.86796 0.0
O164 O 0.1095 0.18456 0.88631 0.0
O165 O 0.04588 0.27326 0.8669 0.0
O166 O 0.01025 0.21446 0.85742 0.0
C167 C 0.01034 0.25359 0.86263 0.0
O168 O 0.16688 0.2528 0.85491 0.0
O169 O 0.2091 0.29229 0.87459 0.0
C170 C 0.1218 0.20802 0.82892 0.0
C171 C 0.20248 0.27252 0.8591 0.0
H172 H 0.1882 0.37821 0.09705 0.0
H173 H 0.20871 0.39994 0.04002 0.0
H174 H 0.18537 0.47479 0.04474 0.0
H175 H 0.09349 0.44696 0.10008 0.0
H176 H 0.10853 0.46557 0.12346 0.0
H177 H 0.1237 0.41279 0.11522 0.0
H178 H 0.20313 0.43029 0.12455 0.0
H179 H 0.18808 0.48276 0.133 0.0
H180 H 0.22695 0.47687 0.11596 0.0
H181 H 0.16546 0.54908 0.05646 0.0
H182 H 0.15438 0.61641 0.07477 0.0
H183 H 0.14398 0.54532 0.12347 0.0
C184 C 0.18749 0.39859 0.08551 0.0
C185 C 0.20027 0.38319 0.06817 0.0
C186 C 0.19893 0.41096 0.05343 0.0
C187 C 0.18553 0.4535 0.05594 0.0
C188 C 0.17306 0.46767 0.07321 0.0
C189 C 0.17386 0.44099 0.08773 0.0
C190 C 0.16096 0.46455 0.10515 0.0
C191 C 0.11918 0.44638 0.11134 0.0
C192 C 0.19693 0.46357 0.12056 0.0
C193 C 0.15445 0.50902 0.09836 0.0
C194 C 0.16087 0.51014 0.07984 0.0
C195 C 0.15951 0.54841 0.07089 0.0
C196 C 0.15271 0.5866 0.08131 0.0
C197 C 0.1476 0.58623 0.10039 0.0
C198 C 0.14731 0.54667 0.10882 0.0
H199 H 0.93403 0.84925 0.34249 0.0
H200 H 0.93868 0.75709 0.29597 0.0
H201 H 0.86598 0.73276 0.30108 0.0
H202 H 0.88104 0.78304 0.37101 0.0
H203 H 0.84958 0.82548 0.38086 0.0
H204 H 0.90062 0.83725 0.37258 0.0
H205 H 0.86484 0.89272 0.35135 0.0
H206 H 0.81356 0.88071 0.35946 0.0
H207 H 0.82125 0.8763 0.33515 0.0
H208 H 0.79415 0.71457 0.31301 0.0
H209 H 0.73168 0.70382 0.33144 0.0
H210 H 0.77397 0.80991 0.36877 0.0
C211 C 0.91967 0.82422 0.33326 0.0
C212 C 0.94205 0.80517 0.31883 0.0
C213 C 0.92213 0.7723 0.30713 0.0
C214 C 0.88075 0.75832 0.30986 0.0
C215 C 0.85957 0.77776 0.32426 0.0
C216 C 0.87842 0.81006 0.33573 0.0
C217 C 0.84995 0.82438 0.35076 0.0
C218 C 0.87159 0.81708 0.36993 0.0
C219 C 0.83661 0.87131 0.34907 0.0
C220 C 0.81259 0.79452 0.3462 0.0
C221 C 0.8183 0.76798 0.3308 0.0
C222 C 0.78895 0.73576 0.32487 0.0
C223 C 0.7534 0.73007 0.33525 0.0
C224 C 0.74777 0.75673 0.35116 0.0
C225 C 0.77735 0.78961 0.35643 0.0
H226 H 0.76172 0.53941 0.61335 0.0
H227 H 0.66066 0.57905 0.57438 0.0
H228 H 0.6292 0.50714 0.57323 0.0
H229 H 0.77408 0.43198 0.59629 0.0
H230 H 0.77865 0.4082 0.61829 0.0
H231 H 0.79497 0.46283 0.61652 0.0
H232 H 0.74396 0.48835 0.64128 0.0
H233 H 0.72839 0.43366 0.64352 0.0
H234 H 0.68845 0.47341 0.63839 0.0
H235 H 0.61261 0.43202 0.57352 0.0
H236 H 0.59876 0.35845 0.58101 0.0
H237 H 0.70435 0.36493 0.62279 0.0
C238 C 0.73272 0.53276 0.6048 0.0
C239 C 0.71355 0.56446 0.59384 0.0
C240 C 0.67551 0.55517 0.58292 0.0
C241 C 0.65768 0.51437 0.58204 0.0
C242 C 0.67766 0.4835 0.59257 0.0
C243 C 0.71331 0.49225 0.60429 0.0
C244 C 0.7258 0.45328 0.61508 0.0
C245 C 0.77108 0.43819 0.61131 0.0
C246 C 0.72138 0.46274 0.6358 0.0
C247 C 0.69241 0.42112 0.60702 0.0
C248 C 0.66564 0.43962 0.59386 0.0
C249 C 0.6327 0.41731 0.58404 0.0
C250 C 0.62522 0.37548 0.5884 0.0
C251 C 0.65002 0.3563 0.60267 0.0
C252 C 0.68502 0.37887 0.6118 0.0
H253 H 0.7602 0.24357 0.86083 0.0
H254 H 0.75591 0.37575 0.84599 0.0
H255 H 0.83434 0.38073 0.85176 0.0
H256 H 0.84846 0.2562 0.89706 0.0
H257 H 0.87032 0.20465 0.89074 0.0
H258 H 0.81368 0.21358 0.88766 0.0
H259 H 0.81497 0.18908 0.85311 0.0
H260 H 0.87142 0.18006 0.85611 0.0
H261 H 0.85061 0.21516 0.8389 0.0
H262 H 0.91504 0.36789 0.8558 0.0
H263 H 0.98827 0.33776 0.85738 0.0
H264 H 0.93739 0.21555 0.87028 0.0
C265 C 0.77556 0.27386 0.85912 0.0
C266 C 0.75192 0.30926 0.85299 0.0
C267 C 0.77338 0.34822 0.85078 0.0
C268 C 0.81791 0.35138 0.85406 0.0
C269 C 0.8404 0.31548 0.85975 0.0
C270 C 0.81972 0.27759 0.86241 0.0
C271 C 0.85093 0.24265 0.86729 0.0
C272 C 0.84552 0.22846 0.88685 0.0
C273 C 0.84672 0.20453 0.853 0.0
C274 C 0.89248 0.26622 0.86632 0.0
C275 C 0.88612 0.30836 0.86221 0.0
C276 C 0.92033 0.33515 0.85938 0.0
C277 C 0.96186 0.31801 0.86042 0.0
C278 C 0.96851 0.2746 0.86411 0.0
C279 C 0.93334 0.24897 0.86749 0.0
H280 H 0.05795 0.57131 0.92491 0.0
H281 H 0.03392 0.61205 0.86925 0.0
H282 H 0.02695 0.53623 0.85777 0.0
H283 H 0.12494 0.48849 0.91307 0.0
H284 H 0.1086 0.4539 0.93025 0.0
H285 H 0.10447 0.51083 0.93402 0.0
H286 H 0.02397 0.50297 0.93894 0.0
H287 H 0.02781 0.44584 0.935 0.0
H288 H 0.98941 0.4756 0.92135 0.0
H289 H 0.03202 0.45532 0.85218 0.0
H290 H 0.05348 0.37917 0.85295 0.0
H291 H 0.07354 0.39315 0.91229 0.0
C292 C 0.05007 0.5645 0.91034 0.0
C293 C 0.04599 0.59761 0.89799 0.0
C294 C 0.03688 0.58715 0.87898 0.0
C295 C 0.03266 0.54419 0.87236 0.0
C296 C 0.03762 0.51222 0.88495 0.0
C297 C 0.04626 0.52209 0.90356 0.0
C298 C 0.05551 0.48252 0.91407 0.0
C299 C 0.10106 0.48404 0.92338 0.0
C300 C 0.02216 0.47638 0.92817 0.0
C301 C 0.0513 0.44864 0.89849 0.0
C302 C 0.04047 0.46609 0.88178 0.0
C303 C 0.03933 0.44119 0.86524 0.0
C304 C 0.05105 0.39787 0.86579 0.0
C305 C 0.06358 0.38015 0.88274 0.0
C306 C 0.06249 0.40565 0.89924 0.0
H307 H 0.81141 0.8296 0.15517 0.0
H308 H 0.78101 0.69796 0.16455 0.0
H309 H 0.85788 0.68003 0.16564 0.0
H310 H 0.88971 0.80627 0.12474 0.0
H311 H 0.92264 0.85161 0.13254 0.0
H312 H 0.86615 0.85376 0.1348 0.0
H313 H 0.8802 0.87225 0.16987 0.0
H314 H 0.93692 0.86912 0.1677 0.0
H315 H 0.91228 0.83688 0.18376 0.0
H316 H 0.93838 0.67578 0.16305 0.0
H317 H 0.01143 0.68382 0.15272 0.0
H318 H 0.98739 0.81812 0.14551 0.0
C319 C 0.82085 0.79707 0.15769 0.0
C320 C 0.79026 0.76524 0.15985 0.0
C321 C 0.80396 0.72291 0.16285 0.0
C322 C 0.84757 0.71253 0.16368 0.0
C323 C 0.87701 0.74489 0.1616 0.0
C324 C 0.86399 0.78623 0.15851 0.0
C325 C 0.90099 0.81436 0.15481 0.0
C326 C 0.89449 0.83252 0.13559 0.0
C327 C 0.908 0.85027 0.16994 0.0
C328 C 0.93685 0.78221 0.1557 0.0
C329 C 0.92281 0.74244 0.16003 0.0
C330 C 0.94985 0.70694 0.15995 0.0
C331 C 0.99141 0.71179 0.15426 0.0
C332 C 0.00484 0.75164 0.1485 0.0
C333 C 0.97797 0.7875 0.15017 0.0
H334 H 0.50191 0.4874 0.44808 0.0
H335 H 0.55306 0.38497 0.41365 0.0
H336 H 0.59522 0.43745 0.39854 0.0
H337 H 0.4832 0.55594 0.41451 0.0
H338 H 0.49719 0.60443 0.42803 0.0
H339 H 0.4793 0.55867 0.43913 0.0
H340 H 0.54922 0.5595 0.46067 0.0
H341 H 0.56531 0.60634 0.4497 0.0
H342 H 0.59998 0.56056 0.45055 0.0
H343 H 0.62106 0.49994 0.38371 0.0
H344 H 0.6258 0.56849 0.36894 0.0
H345 H 0.55712 0.63136 0.41225 0.0
C346 C 0.52305 0.47593 0.43777 0.0
C347 C 0.52449 0.43219 0.43209 0.0
C348 C 0.5516 0.41839 0.41823 0.0
C349 C 0.57597 0.44791 0.4097 0.0
C350 C 0.57296 0.49102 0.41526 0.0
C351 C 0.54723 0.50505 0.429 0.0
C352 C 0.5448 0.55337 0.43053 0.0
C353 C 0.49838 0.56898 0.42787 0.0
C354 C 0.56615 0.57094 0.44897 0.0
C355 C 0.57068 0.56424 0.41466 0.0
C356 C 0.58783 0.52779 0.40646 0.0
C357 C 0.60891 0.52881 0.39031 0.0
C358 C 0.61137 0.56776 0.38201 0.0
C359 C 0.59272 0.60497 0.38983 0.0
C360 C 0.57316 0.60356 0.40657 0.0
H361 H 0.94363 0.30812 0.66101 0.0
H362 H 0.99339 0.18798 0.63904 0.0
H363 H 0.92495 0.17437 0.62091 0.0
H364 H 0.8439 0.2697 0.66825 0.0
H365 H 0.81523 0.31751 0.6624 0.0
H366 H 0.87013 0.321 0.67097 0.0
H367 H 0.88832 0.35958 0.64187 0.0
H368 H 0.83326 0.35579 0.6332 0.0
H369 H 0.87463 0.3346 0.61937 0.0
H370 H 0.85017 0.1706 0.60766 0.0
H371 H 0.7718 0.17111 0.60377 0.0
H372 H 0.76878 0.29241 0.63519 0.0
C373 C 0.94048 0.27938 0.65207 0.0
C374 C 0.97399 0.24931 0.65127 0.0
C375 C 0.96824 0.21157 0.63978 0.0
C376 C 0.92962 0.20378 0.62931 0.0
C377 C 0.89716 0.23408 0.63047 0.0
C378 C 0.90204 0.27093 0.6417 0.0
C379 C 0.86057 0.29566 0.64231 0.0
C380 C 0.84664 0.30125 0.66215 0.0
C381 C 0.86444 0.33898 0.63367 0.0
C382 C 0.83095 0.26595 0.63037 0.0
C383 C 0.85317 0.23135 0.6232 0.0
C384 C 0.8326 0.19784 0.61292 0.0
C385 C 0.78809 0.19855 0.6107 0.0
C386 C 0.7645 0.23217 0.61894 0.0
C387 C 0.7862 0.26718 0.62824 0.0
H388 H 0.29223 0.28291 0.65225 0.0
H389 H 0.34253 0.37029 0.69672 0.0
H390 H 0.41413 0.33957 0.69396 0.0
H391 H 0.36588 0.19096 0.66275 0.0
H392 H 0.37078 0.17734 0.63863 0.0
H393 H 0.3219 0.20025 0.64626 0.0
H394 H 0.32708 0.26081 0.62369 0.0
H395 H 0.37552 0.23791 0.61591 0.0
H396 H 0.37488 0.29282 0.62469 0.0
H397 H 0.48094 0.30893 0.68327 0.0
H398 H 0.53807 0.28365 0.66399 0.0
H399 H 0.44623 0.21341 0.62731 0.0
C400 C 0.31819 0.29493 0.66164 0.0
C401 C 0.31191 0.32899 0.67468 0.0
C402 C 0.34669 0.34435 0.68656 0.0
C403 C 0.38739 0.32676 0.68525 0.0
C404 C 0.39275 0.29365 0.67207 0.0
C405 C 0.35912 0.27783 0.66046 0.0
C406 C 0.37442 0.24595 0.64599 0.0
C407 C 0.35722 0.20095 0.64857 0.0
C408 C 0.36228 0.26026 0.62643 0.0
C409 C 0.42209 0.24834 0.65061 0.0
C410 C 0.43189 0.27512 0.66603 0.0
C411 C 0.47378 0.28657 0.67162 0.0
C412 C 0.50635 0.27149 0.6608 0.0
C413 C 0.49699 0.2452 0.64471 0.0
C414 C 0.45441 0.2325 0.6399 0.0
H415 H 0.45581 0.82041 0.16421 0.0
H416 H 0.50218 0.74794 0.11722 0.0
H417 H 0.42958 0.74709 0.10202 0.0
H418 H 0.36764 0.76314 0.16724 0.0
H419 H 0.33314 0.80652 0.1739 0.0
H420 H 0.38965 0.81138 0.17876 0.0
H421 H 0.38935 0.88104 0.16109 0.0
H422 H 0.33253 0.87598 0.156 0.0
H423 H 0.36741 0.88041 0.13757 0.0
H424 H 0.3517 0.74164 0.09474 0.0
H425 H 0.2753 0.72679 0.09725 0.0
H426 H 0.27834 0.80138 0.14902 0.0
C427 C 0.45102 0.80572 0.15043 0.0
C428 C 0.48475 0.78455 0.14184 0.0
C429 C 0.47692 0.76466 0.12402 0.0
C430 C 0.4358 0.76431 0.11521 0.0
C431 C 0.40291 0.78431 0.12432 0.0
C432 C 0.41012 0.80482 0.14154 0.0
C433 C 0.36859 0.81783 0.14968 0.0
C434 C 0.36454 0.79852 0.16848 0.0
C435 C 0.36423 0.86672 0.15117 0.0
C436 C 0.33682 0.79836 0.13506 0.0
C437 C 0.35725 0.78072 0.12018 0.0
C438 C 0.33525 0.75647 0.10599 0.0
C439 C 0.29186 0.74835 0.10747 0.0
C440 C 0.27115 0.76415 0.12305 0.0
C441 C 0.29336 0.79069 0.13664 0.0
H442 H 0.43052 0.34786 0.83913 0.0
H443 H 0.45613 0.21823 0.81883 0.0
H444 H 0.37974 0.20019 0.82003 0.0
H445 H 0.35823 0.32282 0.87101 0.0
H446 H 0.32458 0.3685 0.86702 0.0
H447 H 0.3802 0.37088 0.86292 0.0
H448 H 0.36002 0.39145 0.8294 0.0
H449 H 0.30415 0.38821 0.83336 0.0
H450 H 0.3252 0.35699 0.81455 0.0
H451 H 0.30043 0.19568 0.82554 0.0
H452 H 0.22915 0.20338 0.83807 0.0
H453 H 0.25718 0.33607 0.85399 0.0
C454 C 0.42014 0.31568 0.83486 0.0
C455 C 0.44927 0.28446 0.82891 0.0
C456 C 0.4343 0.24274 0.82341 0.0
C457 C 0.39093 0.23228 0.82391 0.0
C458 C 0.36293 0.26408 0.82969 0.0
C459 C 0.37713 0.3049 0.8351 0.0
C460 C 0.34153 0.33276 0.84181 0.0
C461 C 0.35175 0.34969 0.86187 0.0
C462 C 0.33219 0.36953 0.82901 0.0
C463 C 0.30541 0.30077 0.84023 0.0
C464 C 0.31784 0.26155 0.83277 0.0
C465 C 0.29023 0.22642 0.83115 0.0
C466 C 0.24972 0.23109 0.83815 0.0
C467 C 0.2379 0.27035 0.84687 0.0
C468 C 0.26543 0.30585 0.84719 0.0
H469 H 0.28982 0.83368 0.37098 0.0
H470 H 0.27727 0.80647 0.31187 0.0
H471 H 0.35504 0.79625 0.3116 0.0
H472 H 0.39202 0.89343 0.37031 0.0
H473 H 0.41364 0.87424 0.39185 0.0
H474 H 0.35681 0.8808 0.38777 0.0
H475 H 0.34496 0.80157 0.39465 0.0
H476 H 0.40161 0.79504 0.39893 0.0
H477 H 0.37252 0.76015 0.38202 0.0
H478 H 0.43143 0.78542 0.3174 0.0
H479 H 0.50494 0.77212 0.32914 0.0
H480 H 0.47226 0.80884 0.38469 0.0
C481 C 0.30377 0.82582 0.35804 0.0
C482 C 0.2779 0.82094 0.34137 0.0
C483 C 0.29682 0.81073 0.32467 0.0
C484 C 0.34086 0.80493 0.3244 0.0
C485 C 0.3657 0.81051 0.34091 0.0
C486 C 0.34819 0.82098 0.35745 0.0
C487 C 0.38287 0.82479 0.37311 0.0
C488 C 0.38652 0.87106 0.38125 0.0
C489 C 0.37501 0.7935 0.38805 0.0
C490 C 0.42206 0.81261 0.36288 0.0
C491 C 0.4111 0.80531 0.34426 0.0
C492 C 0.44064 0.79187 0.33187 0.0
C493 C 0.48239 0.7847 0.33867 0.0
C494 C 0.49445 0.79056 0.35773 0.0
C495 C 0.46417 0.80564 0.37 0.0
H496 H 0.67245 0.87621 0.59918 0.0
H497 H 0.72527 0.89893 0.54709 0.0
H498 H 0.70081 0.97407 0.54963 0.0
H499 H 0.57857 0.94144 0.59241 0.0
H500 H 0.57965 0.9602 0.61627 0.0
H501 H 0.6006 0.90819 0.6101 0.0
H502 H 0.67356 0.92838 0.62727 0.0
H503 H 0.65234 0.97985 0.63387 0.0
H504 H 0.70038 0.97632 0.62171 0.0
H505 H 0.67326 0.04815 0.55903 0.0
H506 H 0.65077 0.11448 0.57555 0.0
H507 H 0.61235 0.04039 0.62018 0.0
C508 C 0.67905 0.8969 0.58829 0.0
C509 C 0.70079 0.88172 0.57295 0.0
C510 C 0.70861 0.90991 0.55899 0.0
C511 C 0.69461 0.95253 0.56025 0.0
C512 C 0.67244 0.96617 0.57543 0.0
C513 C 0.66493 0.93912 0.58922 0.0
C514 C 0.64174 0.96156 0.60442 0.0
C515 C 0.59751 0.94165 0.60588 0.0
C516 C 0.66862 0.96154 0.6229 0.0
C517 C 0.63813 0.00582 0.59731 0.0
C518 C 0.65563 0.00799 0.58049 0.0
C519 C 0.65884 0.04663 0.57204 0.0
C520 C 0.6455 0.08415 0.58143 0.0
C521 C 0.62928 0.08253 0.59905 0.0
C522 C 0.6241 0.04261 0.60663 0.0
H523 H 0.16523 0.05474 0.07875 0.0
H524 H 0.25585 0.08526 0.12496 0.0
H525 H 0.2607 0.00809 0.13141 0.0
H526 H 0.10781 0.97865 0.0978 0.0
H527 H 0.10012 0.94419 0.07721 0.0
H528 H 0.1085 0.0004 0.07543 0.0
H529 H 0.17277 0.98417 0.05562 0.0
H530 H 0.16458 0.92767 0.0574 0.0
H531 H 0.21579 0.95126 0.06439 0.0
H532 H 0.24675 0.9273 0.13478 0.0
H533 H 0.21624 0.85402 0.13439 0.0
H534 H 0.13938 0.87893 0.0845 0.0
C535 C 0.18665 0.04497 0.09003 0.0
C536 C 0.21 0.07543 0.10144 0.0
C537 C 0.23787 0.06196 0.11605 0.0
C538 C 0.24082 0.01832 0.11976 0.0
C539 C 0.21664 0.98884 0.10833 0.0
C540 C 0.19073 0.00183 0.09355 0.0
C541 C 0.16635 0.96495 0.08374 0.0
C542 C 0.11786 0.97251 0.08356 0.0
C543 C 0.18075 0.95652 0.06413 0.0
C544 C 0.18038 0.92943 0.09592 0.0
C545 C 0.2099 0.9432 0.10991 0.0
C546 C 0.22429 0.91609 0.12365 0.0
C547 C 0.20702 0.87448 0.12331 0.0
C548 C 0.17551 0.86091 0.10942 0.0
C549 C 0.16348 0.88837 0.09529 0.0
H550 H 0.50887 0.05944 0.3941 0.0
H551 H 0.63177 0.11571 0.41245 0.0
H552 H 0.66581 0.04553 0.408 0.0
H553 H 0.52123 0.96602 0.41638 0.0
H554 H 0.49598 0.9309 0.39845 0.0
H555 H 0.48132 0.98643 0.4002 0.0
H556 H 0.49964 0.99513 0.36648 0.0
H557 H 0.51359 0.9393 0.36452 0.0
H558 H 0.55152 0.97933 0.35944 0.0
H559 H 0.68473 0.96995 0.40615 0.0
H560 H 0.69027 0.89216 0.40389 0.0
H561 H 0.55565 0.88206 0.38587 0.0
C562 C 0.5431 0.05718 0.39671 0.0
C563 C 0.56766 0.09299 0.40371 0.0
C564 C 0.61229 0.08871 0.40715 0.0
C565 C 0.63196 0.049 0.40463 0.0
C566 C 0.60661 0.01404 0.39847 0.0
C567 C 0.56334 0.01765 0.39421 0.0
C568 C 0.54335 0.97423 0.38889 0.0
C569 C 0.50842 0.9638 0.40175 0.0
C570 C 0.526 0.97186 0.36862 0.0
C571 C 0.58185 0.94555 0.39172 0.0
C572 C 0.61793 0.96951 0.39708 0.0
C573 C 0.65696 0.95082 0.40162 0.0
C574 C 0.65953 0.90638 0.40043 0.0
C575 C 0.62331 0.88074 0.39466 0.0
C576 C 0.58389 0.90071 0.39021 0.0
H577 H 0.02722 0.9418 0.9277 0.0
H578 H 0.14109 0.88293 0.90731 0.0
H579 H 0.17053 0.95426 0.903 0.0
H580 H 0.01379 0.01577 0.89649 0.0
H581 H 0.99604 0.05871 0.9116 0.0
H582 H 0.98873 0.00435 0.91721 0.0
H583 H 0.02988 0.02059 0.94892 0.0
H584 H 0.0378 0.07516 0.94318 0.0
H585 H 0.08296 0.04263 0.94985 0.0
H586 H 0.18208 0.02968 0.89579 0.0
H587 H 0.17132 0.10128 0.88364 0.0
H588 H 0.05003 0.11179 0.90812 0.0
C589 C 0.05891 0.94397 0.92286 0.0
C590 C 0.08192 0.90676 0.91793 0.0
C591 C 0.12294 0.91094 0.9113 0.0
C592 C 0.14011 0.9514 0.90895 0.0
C593 C 0.11618 0.98748 0.91353 0.0
C594 C 0.07648 0.98416 0.92044 0.0
C595 C 0.05474 0.02733 0.92189 0.0
C596 C 0.01077 0.02645 0.91114 0.0
C597 C 0.05113 0.0423 0.94217 0.0
C598 C 0.08651 0.0546 0.91307 0.0
C599 C 0.12267 0.03147 0.90914 0.0
C600 C 0.15455 0.04846 0.89927 0.0
C601 C 0.14835 0.08919 0.89251 0.0
C602 C 0.1104 0.112 0.89544 0.0
C603 C 0.07991 0.09528 0.90637 0.0
H604 H 0.22906 0.17563 0.01265 0.0
H605 H 0.10056 0.20167 0.02832 0.0
H606 H 0.0744 0.19702 0.99555 0.0
H607 H 0.23011 0.23742 0.97731 0.0
H608 H 0.25904 0.20237 0.96215 0.0
H609 H 0.26565 0.19746 0.98656 0.0
H610 H 0.24396 0.1175 0.98225 0.0
H611 H 0.23721 0.12228 0.95766 0.0
H612 H 0.19401 0.10279 0.96993 0.0
H613 H 0.06434 0.20089 0.96129 0.0
H614 H 0.0725 0.21853 0.92904 0.0
H615 H 0.20778 0.19284 0.93591 0.0
C616 C 0.19522 0.17902 0.00918 0.0
C617 C 0.16681 0.18875 0.02299 0.0
C618 C 0.1228 0.19353 0.01797 0.0
C619 C 0.10762 0.19079 -0.00062 0.0
C620 C 0.13669 0.18224 0.98603 0.0
C621 C 0.17954 0.17591 0.99074 0.0
C622 C 0.20497 0.17196 0.97383 0.0
C623 C 0.24207 0.20426 0.97505 0.0
C624 C 0.221 0.1259 0.97074 0.0
C625 C 0.17076 0.18209 0.95911 0.0
C626 C 0.13112 0.18557 0.96624 0.0
C627 C 0.09501 0.19727 0.95549 0.0
C628 C 0.09987 0.2071 0.9372 0.0
C629 C 0.14069 0.20648 0.93016 0.0
C630 C 0.17624 0.19273 0.94104 0.0
H631 H 0.07961 0.83253 0.25687 0.0
H632 H 0.12357 0.71912 0.28408 0.0
H633 H 0.11851 0.67801 0.25424 0.0
H634 H 0.00691 0.7752 0.22018 0.0
H635 H 0.02068 0.8107 0.20288 0.0
H636 H 0.0203 0.83014 0.22664 0.0
H637 H 0.09862 0.85556 0.22618 0.0
H638 H 0.09891 0.83692 0.20243 0.0
H639 H 0.13867 0.81803 0.21906 0.0
H640 H 0.11692 0.65121 0.22203 0.0
H641 H 0.12837 0.64254 0.189 0.0
H642 H 0.08648 0.77263 0.18156 0.0
C643 C 0.08746 0.79885 0.25657 0.0
C644 C 0.10186 0.77899 0.27284 0.0
C645 C 0.11249 0.73506 0.27184 0.0
C646 C 0.10922 0.71129 0.25497 0.0
C647 C 0.09504 0.73179 0.2392 0.0
C648 C 0.08457 0.77464 0.23977 0.0
C649 C 0.07518 0.78994 0.2205 0.0
C650 C 0.02796 0.80223 0.21737 0.0
C651 C 0.10463 0.82729 0.21683 0.0
C652 C 0.08507 0.74974 0.209 0.0
C653 C 0.09478 0.71623 0.22017 0.0
C654 C 0.10864 0.67687 0.21311 0.0
C655 C 0.11498 0.67223 0.19434 0.0
C656 C 0.10784 0.70679 0.18283 0.0
C657 C 0.09092 0.74545 0.19004 0.0
H658 H 0.72336 0.64365 0.51201 0.0
H659 H 0.61405 0.71448 0.53055 0.0
H660 H 0.57985 0.70807 0.49915 0.0
H661 H 0.73215 0.69215 0.47289 0.0
H662 H 0.74683 0.64583 0.45892 0.0
H663 H 0.75741 0.64699 0.48341 0.0
H664 H 0.71514 0.57643 0.48413 0.0
H665 H 0.7026 0.57569 0.45958 0.0
H666 H 0.66041 0.57362 0.47506 0.0
H667 H 0.56372 0.70652 0.46535 0.0
H668 H 0.57098 0.71574 0.43228 0.0
H669 H 0.6902 0.64665 0.43532 0.0
C670 C 0.69164 0.65657 0.50958 0.0
C671 C 0.6714 0.67934 0.52377 0.0
C672 C 0.63018 0.69656 0.51995 0.0
C673 C 0.61025 0.6928 0.50215 0.0
C674 C 0.63153 0.67111 0.48832 0.0
C675 C 0.67126 0.65303 0.49186 0.0
C676 C 0.68999 0.63677 0.47421 0.0
C677 C 0.73415 0.65667 0.47225 0.0
C678 C 0.69216 0.58771 0.47318 0.0
C679 C 0.65666 0.65234 0.46015 0.0
C680 C 0.62223 0.67038 0.46855 0.0
C681 C 0.58988 0.69148 0.45857 0.0
C682 C 0.59399 0.69624 0.43975 0.0
C683 C 0.63075 0.68113 0.43137 0.0
C684 C 0.66123 0.65713 0.44143 0.0
H685 H 0.60683 0.23938 0.77162 0.0
H686 H 0.60551 0.37718 0.76783 0.0
H687 H 0.60453 0.36777 0.73394 0.0
H688 H 0.67488 0.215 0.73556 0.0
H689 H 0.64656 0.16708 0.72718 0.0
H690 H 0.64603 0.18489 0.75107 0.0
H691 H 0.56337 0.18515 0.74819 0.0
H692 H 0.56367 0.16771 0.72422 0.0
H693 H 0.53573 0.21579 0.73088 0.0
H694 H 0.60752 0.3435 0.70071 0.0
H695 H 0.61496 0.3057 0.67038 0.0
H696 H 0.61123 0.18402 0.69573 0.0
C697 C 0.60652 0.2676 0.76368 0.0
C698 C 0.6065 0.30903 0.77235 0.0
C699 C 0.60561 0.34513 0.76146 0.0
C700 C 0.60489 0.34012 0.74221 0.0
C701 C 0.6046 0.29883 0.73409 0.0
C702 C 0.60531 0.26319 0.74446 0.0
C703 C 0.60538 0.22237 0.73235 0.0
C704 C 0.64562 0.19579 0.7368 0.0
C705 C 0.5646 0.19622 0.73401 0.0
C706 C 0.60586 0.24065 0.71358 0.0
C707 C 0.60499 0.28482 0.71487 0.0
C708 C 0.60741 0.30893 0.69947 0.0
C709 C 0.61138 0.28728 0.68233 0.0
C710 C 0.61217 0.24211 0.68073 0.0
C711 C 0.60941 0.21859 0.69656 0.0
H712 H 0.02445 0.71598 0.9774 0.0
H713 H 0.15879 0.72345 0.96764 0.0
H714 H 0.17743 0.70043 -0.00091 0.0
H715 H 0.03093 0.7583 0.02194 0.0
H716 H 0.9914 0.72362 0.03005 0.0
H717 H 0.98952 0.73511 0.00616 0.0
H718 H 0.99129 0.65376 0.99735 0.0
H719 H 0.99411 0.6422 0.02137 0.0
H720 H 0.03428 0.62168 0.00674 0.0
H721 H 0.18126 0.68717 0.03266 0.0
H722 H 0.16996 0.68937 0.06584 0.0
H723 H 0.03336 0.68581 0.05335 0.0
C724 C 0.0578 0.71233 0.98181 0.0
C725 C 0.0902 0.72163 0.97014 0.0
C726 C 0.13345 0.71637 0.97637 0.0
C727 C 0.14432 0.703 0.99414 0.0
C728 C 0.11153 0.69409 0.00533 0.0
C729 C 0.06913 0.69838 -0.00065 0.0
C730 C 0.04001 0.69019 0.01447 0.0
C731 C 0.01133 0.72913 0.01839 0.0
C732 C 0.01335 0.64954 0.00969 0.0
C733 C 0.0727 0.68357 0.03028 0.0
C734 C 0.11379 0.68479 0.02462 0.0
C735 C 0.1493 0.68468 0.03717 0.0
C736 C 0.14262 0.68542 0.05601 0.0
C737 C 0.1008 0.68602 0.06208 0.0
C738 C 0.06559 0.68347 0.049 0.0
H739 H 0.64167 0.70151 0.22408 0.0
H740 H 0.6781 0.83541 0.22833 0.0
H741 H 0.69004 0.83199 0.26208 0.0
H742 H 0.58208 0.70502 0.26184 0.0
H743 H 0.59682 0.65259 0.26904 0.0
H744 H 0.59783 0.66424 0.24523 0.0
H745 H 0.67717 0.64094 0.2456 0.0
H746 H 0.67638 0.62962 0.26956 0.0
H747 H 0.71554 0.66594 0.26232 0.0
H748 H 0.68843 0.81639 0.29556 0.0
H749 H 0.66895 0.79106 0.32542 0.0
H750 H 0.6364 0.66703 0.29891 0.0
C751 C 0.65297 0.72996 0.23203 0.0
C752 C 0.65902 0.76869 0.22357 0.0
C753 C 0.67331 0.80531 0.23452 0.0
C754 C 0.68049 0.80361 0.25369 0.0
C755 C 0.67373 0.76496 0.26162 0.0
C756 C 0.66036 0.72877 0.25109 0.0
C757 C 0.65097 0.69242 0.26297 0.0
C758 C 0.60416 0.67775 0.25957 0.0
C759 C 0.68187 0.65502 0.25992 0.0
C760 C 0.65942 0.71427 0.28185 0.0
C761 C 0.67328 0.75586 0.28088 0.0
C762 C 0.67858 0.78357 0.29654 0.0
C763 C 0.66769 0.76887 0.31346 0.0
C764 C 0.65168 0.72694 0.31447 0.0
C765 C 0.64924 0.69901 0.29858 0.0
H766 H 0.57582 0.2872 0.4851 0.0
H767 H 0.48968 0.18304 0.46809 0.0
H768 H 0.52271 0.13997 0.49272 0.0
H769 H 0.67099 0.21551 0.5028 0.0
H770 H 0.68402 0.25507 0.52122 0.0
H771 H 0.66334 0.27146 0.49901 0.0
H772 H 0.60281 0.31319 0.51448 0.0
H773 H 0.62341 0.29734 0.53651 0.0
H774 H 0.56875 0.28547 0.52885 0.0
H775 H 0.54559 0.12122 0.52459 0.0
H776 H 0.55923 0.12781 0.55846 0.0
H777 H 0.6395 0.23743 0.55337 0.0
C778 C 0.56572 0.25442 0.48604 0.0
C779 C 0.53075 0.238 0.47482 0.0
C780 C 0.517 0.19566 0.47651 0.0
C781 C 0.53569 0.17103 0.49043 0.0
C782 C 0.56884 0.18892 0.5021 0.0
C783 C 0.58471 0.2293 0.49961 0.0
C784 C 0.6156 0.24418 0.51547 0.0
C785 C 0.6612 0.24667 0.50925 0.0
C786 C 0.60176 0.28751 0.52434 0.0
C787 C 0.61132 0.20803 0.52817 0.0
C788 C 0.58484 0.17589 0.52015 0.0
C789 C 0.5681 0.14482 0.53075 0.0
C790 C 0.57623 0.14842 0.55 0.0
C791 C 0.60143 0.18236 0.55826 0.0
C792 C 0.62174 0.21015 0.5471 0.0
H793 H 0.16358 0.34281 0.74423 0.0
H794 H 0.13925 0.22705 0.70964 0.0
H795 H 0.1386 0.18544 0.73741 0.0
H796 H 0.23378 0.29397 0.77932 0.0
H797 H 0.21355 0.32648 0.79795 0.0
H798 H 0.21419 0.34701 0.77534 0.0
H799 H 0.13287 0.36185 0.77493 0.0
H800 H 0.1323 0.34239 0.79766 0.0
H801 H 0.09714 0.31914 0.77922 0.0
H802 H 0.13657 0.15747 0.76884 0.0
H803 H 0.12578 0.14633 0.80145 0.0
H804 H 0.15481 0.27975 0.81563 0.0
C805 C 0.15811 0.30867 0.74246 0.0
C806 C 0.1506 0.28831 0.72473 0.0
C807 C 0.14371 0.24361 0.72303 0.0
C808 C 0.14413 0.21958 0.73874 0.0
C809 C 0.15207 0.24069 0.75599 0.0
C810 C 0.15873 0.28428 0.75793 0.0
C811 C 0.16407 0.29973 0.77802 0.0
C812 C 0.20908 0.31787 0.78294 0.0
C813 C 0.12953 0.3327 0.78273 0.0
C814 C 0.15786 0.2582 0.78714 0.0
C815 C 0.15179 0.2244 0.77417 0.0
C816 C 0.14188 0.18352 0.77912 0.0
C817 C 0.13594 0.17748 0.79766 0.0
C818 C 0.13991 0.21212 0.811 0.0
C819 C 0.15275 0.25253 0.80578 0.0
loop_
_geom_bond_atom_site_label_1
_geom_bond_atom_site_label_2
_geom_bond_distance
_geom_bond_site_symmetry_2
_ccdc_geom_bond_type
O0 Cd1 2.300 . S
O0 C7 1.275 . S
Cd1 O0 2.300 . S
Cd1 O9 2.381 . S
Cd1 O10 2.378 . S
O2 Cd3 2.385 . S
O2 C7 1.255 . S
Cd3 O2 2.385 . S
Cd3 O4 2.317 . S
O4 Cd3 2.317 . S
O4 C5 1.232 . S
C5 O4 1.232 . S
C5 O6 1.218 . S
O6 C5 1.218 . S
C7 O0 1.275 . S
C7 O2 1.255 . S
C8 O9 1.258 . S
C8 O10 1.256 . S
O9 Cd1 2.381 . S
O9 C8 1.258 . S
O10 Cd1 2.378 . S
O10 C8 1.256 . S
O11 Cd12 2.300 . S
O11 C18 1.275 . S
Cd12 O11 2.300 . S
Cd12 O20 2.381 . S
Cd12 O21 2.378 . S
O13 Cd14 2.385 . S
O13 C18 1.255 . S
Cd14 O13 2.385 . S
Cd14 O15 2.317 . S
O15 Cd14 2.317 . S
O15 C16 1.232 . S
C16 O15 1.232 . S
C16 O17 1.218 1_455 S
O17 C16 1.218 1_655 S
C18 O11 1.275 . S
C18 O13 1.255 . S
C19 O20 1.258 . S
C19 O21 1.256 . S
O20 Cd12 2.381 . S
O20 C19 1.258 . S
O21 Cd12 2.378 . S
O21 C19 1.256 . S
O22 Cd23 2.300 . S
O22 C29 1.275 . S
Cd23 O22 2.300 . S
Cd23 O31 2.381 . S
Cd23 O32 2.378 . S
O24 Cd25 2.385 . S
O24 C29 1.255 . S
Cd25 O24 2.385 . S
Cd25 O26 2.317 . S
O26 Cd25 2.317 . S
O26 C27 1.232 . S
C27 O26 1.232 . S
C27 O28 1.218 . S
O28 C27 1.218 . S
C29 O22 1.275 . S
C29 O24 1.255 . S
C30 O31 1.258 . S
C30 O32 1.256 . S
O31 Cd23 2.381 . S
O31 C30 1.258 . S
O32 Cd23 2.378 . S
O32 C30 1.256 . S
O33 Cd34 2.300 . S
O33 C40 1.275 . S
Cd34 O33 2.300 . S
Cd34 O42 2.381 . S
Cd34 O43 2.378 . S
O35 Cd36 2.385 . S
O35 C40 1.255 . S
Cd36 O35 2.385 . S
Cd36 O37 2.317 . S
O37 Cd36 2.317 . S
O37 C38 1.232 . S
C38 O37 1.232 . S
C38 O39 1.218 . S
O39 C38 1.218 . S
C40 O33 1.275 . S
C40 O35 1.255 . S
C41 O42 1.258 . S
C41 O43 1.256 . S
O42 Cd34 2.381 . S
O42 C41 1.258 . S
O43 Cd34 2.378 . S
O43 C41 1.256 . S
O44 Cd45 2.300 . S
O44 C51 1.275 . S
Cd45 O44 2.300 . S
Cd45 O53 2.381 . S
Cd45 O54 2.378 . S
O46 Cd47 2.385 . S
O46 C51 1.255 . S
Cd47 O46 2.385 . S
Cd47 O48 2.317 . S
O48 Cd47 2.317 . S
O48 C49 1.232 . S
C49 O48 1.232 . S
C49 O50 1.218 . S
O50 C49 1.218 . S
C51 O44 1.275 . S
C51 O46 1.255 . S
C52 O53 1.258 . S
C52 O54 1.256 . S
O53 Cd45 2.381 . S
O53 C52 1.258 . S
O54 Cd45 2.378 . S
O54 C52 1.256 . S
O55 Cd56 2.300 . S
O55 C62 1.275 . S
Cd56 O55 2.300 . S
Cd56 O64 2.381 . S
Cd56 O65 2.378 . S
O57 Cd58 2.385 . S
O57 C62 1.255 . S
Cd58 O57 2.385 . S
Cd58 O59 2.317 . S
O59 Cd58 2.317 . S
O59 C60 1.232 . S
C60 O59 1.232 . S
C60 O61 1.218 . S
O61 C60 1.218 . S
C62 O55 1.275 . S
C62 O57 1.255 . S
C63 O64 1.258 . S
C63 O65 1.256 . S
O64 Cd56 2.381 . S
O64 C63 1.258 . S
O65 Cd56 2.378 . S
O65 C63 1.256 . S
O66 Cd67 2.300 . S
O66 C73 1.275 . S
Cd67 O66 2.300 . S
Cd67 O75 2.381 . S
Cd67 O76 2.378 . S
O68 Cd69 2.385 . S
O68 C73 1.255 . S
Cd69 O68 2.385 . S
Cd69 O70 2.317 . S
O70 Cd69 2.317 . S
O70 C71 1.232 . S
C71 O70 1.232 . S
C71 O72 1.218 . S
O72 C71 1.218 . S
C73 O66 1.275 . S
C73 O68 1.255 . S
C74 O75 1.258 . S
C74 O76 1.256 . S
O75 Cd67 2.381 . S
O75 C74 1.258 . S
O76 Cd67 2.378 . S
O76 C74 1.256 . S
O77 Cd78 2.300 . S
O77 C84 1.275 . S
Cd78 O77 2.300 . S
Cd78 O86 2.381 . S
Cd78 O87 2.378 . S
O79 Cd80 2.385 . S
O79 C84 1.255 . S
Cd80 O79 2.385 . S
Cd80 O81 2.317 . S
O81 Cd80 2.317 . S
O81 C82 1.232 . S
C82 O81 1.232 . S
C82 O83 1.218 . S
O83 C82 1.218 . S
C84 O77 1.275 . S
C84 O79 1.255 . S
C85 O86 1.258 . S
C85 O87 1.256 . S
O86 Cd78 2.381 . S
O86 C85 1.258 . S
O87 Cd78 2.378 . S
O87 C85 1.256 . S
Zn88 O94 1.920 . S
Zn88 O100 1.898 . S
Zn88 O103 1.905 . S
Zn89 O97 1.905 . S
Zn89 O98 1.898 . S
Zn89 O106 1.920 . S
Zn90 O93 2.080 . S
Zn90 O96 2.114 . S
Zn90 O99 2.120 . S
Zn90 O101 2.120 . S
Zn90 O102 2.114 . S
Zn90 O105 2.080 . S
C91 O96 1.166 . S
C91 O97 1.182 . S
C92 O98 1.167 . S
C92 O99 1.299 . S
O93 Zn90 2.080 . S
O93 C107 1.305 . S
O94 Zn88 1.920 . S
O94 C107 1.234 . S
C95 O100 1.167 . S
C95 O101 1.299 . S
O96 Zn90 2.114 . S
O96 C91 1.166 . S
O97 Zn89 1.905 . S
O97 C91 1.182 . S
O98 Zn89 1.898 . S
O98 C92 1.167 . S
O99 Zn90 2.120 . S
O99 C92 1.299 . S
O100 Zn88 1.898 . S
O100 C95 1.167 . S
O101 Zn90 2.120 . S
O101 C95 1.299 . S
O102 Zn90 2.114 . S
O102 C104 1.166 . S
O103 Zn88 1.905 . S
O103 C104 1.182 . S
C104 O102 1.166 . S
C104 O103 1.182 . S
O105 Zn90 2.080 . S
O105 C108 1.305 . S
O106 Zn89 1.920 . S
O106 C108 1.234 . S
C107 O93 1.305 . S
C107 O94 1.234 . S
C108 O105 1.305 . S
C108 O106 1.234 . S
Zn109 O115 1.920 . S
Zn109 O121 1.898 . S
Zn109 O124 1.905 . S
Zn110 O118 1.905 . S
Zn110 O119 1.898 . S
Zn110 O127 1.920 . S
Zn111 O114 2.080 . S
Zn111 O117 2.114 . S
Zn111 O120 2.120 . S
Zn111 O122 2.120 . S
Zn111 O123 2.114 . S
Zn111 O126 2.080 . S
C112 O117 1.166 . S
C112 O118 1.182 . S
C113 O119 1.167 . S
C113 O120 1.299 . S
O114 Zn111 2.080 . S
O114 C128 1.305 . S
O115 Zn109 1.920 . S
O115 C128 1.234 . S
C116 O121 1.167 . S
C116 O122 1.299 . S
O117 Zn111 2.114 . S
O117 C112 1.166 . S
O118 Zn110 1.905 . S
O118 C112 1.182 . S
O119 Zn110 1.898 . S
O119 C113 1.167 . S
O120 Zn111 2.120 . S
O120 C113 1.299 . S
O121 Zn109 1.898 . S
O121 C116 1.167 . S
O122 Zn111 2.120 . S
O122 C116 1.299 . S
O123 Zn111 2.114 . S
O123 C125 1.166 . S
O124 Zn109 1.905 . S
O124 C125 1.182 . S
C125 O123 1.166 . S
C125 O124 1.182 . S
O126 Zn111 2.080 . S
O126 C129 1.305 . S
O127 Zn110 1.920 . S
O127 C129 1.234 . S
C128 O114 1.305 . S
C128 O115 1.234 . S
C129 O126 1.305 . S
C129 O127 1.234 . S
Zn130 O136 1.920 . S
Zn130 O142 1.898 . S
Zn130 O145 1.905 . S
Zn131 O139 1.905 . S
Zn131 O140 1.898 . S
Zn131 O148 1.920 . S
Zn132 O135 2.080 . S
Zn132 O138 2.114 . S
Zn132 O141 2.120 . S
Zn132 O143 2.120 . S
Zn132 O144 2.114 . S
Zn132 O147 2.080 . S
C133 O138 1.166 . S
C133 O139 1.182 . S
C134 O140 1.167 . S
C134 O141 1.299 . S
O135 Zn132 2.080 . S
O135 C149 1.305 . S
O136 Zn130 1.920 . S
O136 C149 1.234 . S
C137 O142 1.167 . S
C137 O143 1.299 . S
O138 Zn132 2.114 . S
O138 C133 1.166 . S
O139 Zn131 1.905 . S
O139 C133 1.182 . S
O140 Zn131 1.898 . S
O140 C134 1.167 . S
O141 Zn132 2.120 . S
O141 C134 1.299 . S
O142 Zn130 1.898 . S
O142 C137 1.167 . S
O143 Zn132 2.120 . S
O143 C137 1.299 . S
O144 Zn132 2.114 . S
O144 C146 1.166 . S
O145 Zn130 1.905 . S
O145 C146 1.182 . S
C146 O144 1.166 . S
C146 O145 1.182 . S
O147 Zn132 2.080 . S
O147 C150 1.305 . S
O148 Zn131 1.920 . S
O148 C150 1.234 . S
C149 O135 1.305 . S
C149 O136 1.234 . S
C150 O147 1.305 . S
C150 O148 1.234 . S
Zn151 O157 1.920 . S
Zn151 O163 1.898 . S
Zn151 O166 1.905 . S
Zn152 O160 1.905 . S
Zn152 O161 1.898 . S
Zn152 O169 1.920 . S
Zn153 O156 2.080 . S
Zn153 O159 2.114 . S
Zn153 O162 2.120 . S
Zn153 O164 2.120 . S
Zn153 O165 2.114 . S
Zn153 O168 2.080 . S
C154 O159 1.166 . S
C154 O160 1.182 . S
C155 O161 1.167 . S
C155 O162 1.299 . S
O156 Zn153 2.080 . S
O156 C170 1.305 . S
O157 Zn151 1.920 . S
O157 C170 1.234 . S
C158 O163 1.167 . S
C158 O164 1.299 . S
O159 Zn153 2.114 . S
O159 C154 1.166 . S
O160 Zn152 1.905 . S
O160 C154 1.182 . S
O161 Zn152 1.898 . S
O161 C155 1.167 . S
O162 Zn153 2.120 . S
O162 C155 1.299 . S
O163 Zn151 1.898 . S
O163 C158 1.167 . S
O164 Zn153 2.120 . S
O164 C158 1.299 . S
O165 Zn153 2.114 . S
O165 C167 1.166 . S
O166 Zn151 1.905 . S
O166 C167 1.182 . S
C167 O165 1.166 . S
C167 O166 1.182 . S
O168 Zn153 2.080 . S
O168 C171 1.305 . S
O169 Zn152 1.920 . S
O169 C171 1.234 . S
C170 O156 1.305 . S
C170 O157 1.234 . S
C171 O168 1.305 . S
C171 O169 1.234 . S
H172 C184 0.930 . S
H173 C186 0.930 . S
H174 C187 0.930 . S
H175 C191 0.959 . S
H176 C191 0.959 . S
H177 C191 0.961 . S
H178 C192 0.960 . S
H179 C192 0.961 . S
H180 C192 0.959 . S
H181 C195 0.929 . S
H182 C196 0.931 . S
H183 C198 0.930 . S
C184 H172 0.930 . S
C184 C185 1.399 . S
C184 C189 1.399 . S
C185 C184 1.399 . S
C185 C186 1.376 . S
C186 H173 0.930 . S
C186 C185 1.376 . S
C186 C187 1.388 . S
C187 H174 0.930 . S
C187 C186 1.388 . S
C187 C188 1.390 . S
C188 C187 1.390 . S
C188 C189 1.394 . S
C188 C194 1.465 . S
C189 C184 1.399 . S
C189 C188 1.394 . S
C189 C190 1.516 . S
C190 C189 1.516 . S
C190 C191 1.502 . S
C190 C192 1.561 . S
C190 C193 1.526 . S
C191 H175 0.959 . S
C191 H176 0.959 . S
C191 H177 0.961 . S
C191 C190 1.502 . S
C192 H178 0.960 . S
C192 H179 0.961 . S
C192 H180 0.959 . S
C192 C190 1.561 . S
C193 C190 1.526 . S
C193 C194 1.396 . S
C193 C198 1.390 . S
C194 C188 1.465 . S
C194 C193 1.396 . S
C194 C195 1.399 . S
C195 H181 0.929 . S
C195 C194 1.399 . S
C195 C196 1.385 . S
C196 H182 0.931 . S
C196 C195 1.385 . S
C196 C197 1.389 . S
C197 C196 1.389 . S
C197 C198 1.387 . S
C198 H183 0.930 . S
C198 C193 1.390 . S
C198 C197 1.387 . S
H199 C211 0.930 . S
H200 C213 0.930 . S
H201 C214 0.930 . S
H202 C218 0.959 . S
H203 C218 0.959 . S
H204 C218 0.961 . S
H205 C219 0.960 . S
H206 C219 0.961 . S
H207 C219 0.959 . S
H208 C222 0.929 . S
H209 C223 0.931 . S
H210 C225 0.930 . S
C211 H199 0.930 . S
C211 C212 1.399 . S
C211 C216 1.399 . S
C212 C211 1.399 . S
C212 C213 1.376 . S
C213 H200 0.930 . S
C213 C212 1.376 . S
C213 C214 1.388 . S
C214 H201 0.930 . S
C214 C213 1.388 . S
C214 C215 1.390 . S
C215 C214 1.390 . S
C215 C216 1.394 . S
C215 C221 1.465 . S
C216 C211 1.399 . S
C216 C215 1.394 . S
C216 C217 1.516 . S
C217 C216 1.516 . S
C217 C218 1.502 . S
C217 C219 1.561 . S
C217 C220 1.526 . S
C218 H202 0.959 . S
C218 H203 0.959 . S
C218 H204 0.961 . S
C218 C217 1.502 . S
C219 H205 0.960 . S
C219 H206 0.961 . S
C219 H207 0.959 . S
C219 C217 1.561 . S
C220 C217 1.526 . S
C220 C221 1.396 . S
C220 C225 1.390 . S
C221 C215 1.465 . S
C221 C220 1.396 . S
C221 C222 1.399 . S
C222 H208 0.929 . S
C222 C221 1.399 . S
C222 C223 1.385 . S
C223 H209 0.931 . S
C223 C222 1.385 . S
C223 C224 1.389 . S
C224 C223 1.389 . S
C224 C225 1.387 . S
C225 H210 0.930 . S
C225 C220 1.390 . S
C225 C224 1.387 . S
H226 C238 0.930 . S
H227 C240 0.930 . S
H228 C241 0.930 . S
H229 C245 0.959 . S
H230 C245 0.959 . S
H231 C245 0.961 . S
H232 C246 0.960 . S
H233 C246 0.961 . S
H234 C246 0.959 . S
H235 C249 0.929 . S
H236 C250 0.931 . S
H237 C252 0.930 . S
C238 H226 0.930 . S
C238 C239 1.399 . S
C238 C243 1.399 . S
C239 C238 1.399 . S
C239 C240 1.376 . S
C240 H227 0.930 . S
C240 C239 1.376 . S
C240 C241 1.388 . S
C241 H228 0.930 . S
C241 C240 1.388 . S
C241 C242 1.390 . S
C242 C241 1.390 . S
C242 C243 1.394 . S
C242 C248 1.465 . S
C243 C238 1.399 . S
C243 C242 1.394 . S
C243 C244 1.516 . S
C244 C243 1.516 . S
C244 C245 1.502 . S
C244 C246 1.561 . S
C244 C247 1.526 . S
C245 H229 0.959 . S
C245 H230 0.959 . S
C245 H231 0.961 . S
C245 C244 1.502 . S
C246 H232 0.960 . S
C246 H233 0.961 . S
C246 H234 0.959 . S
C246 C244 1.561 . S
C247 C244 1.526 . S
C247 C248 1.396 . S
C247 C252 1.390 . S
C248 C242 1.465 . S
C248 C247 1.396 . S
C248 C249 1.399 . S
C249 H235 0.929 . S
C249 C248 1.399 . S
C249 C250 1.385 . S
C250 H236 0.931 . S
C250 C249 1.385 . S
C250 C251 1.389 . S
C251 C250 1.389 . S
C251 C252 1.387 . S
C252 H237 0.930 . S
C252 C247 1.390 . S
C252 C251 1.387 . S
H253 C265 0.930 . S
H254 C267 0.930 . S
H255 C268 0.930 . S
H256 C272 0.959 . S
H257 C272 0.959 . S
H258 C272 0.961 . S
H259 C273 0.960 . S
H260 C273 0.961 . S
H261 C273 0.959 . S
H262 C276 0.929 . S
H263 C277 0.931 . S
H264 C279 0.930 . S
C265 H253 0.930 . S
C265 C266 1.399 . S
C265 C270 1.399 . S
C266 C265 1.399 . S
C266 C267 1.376 . S
C267 H254 0.930 . S
C267 C266 1.376 . S
C267 C268 1.388 . S
C268 H255 0.930 . S
C268 C267 1.388 . S
C268 C269 1.390 . S
C269 C268 1.390 . S
C269 C270 1.394 . S
C269 C275 1.465 . S
C270 C265 1.399 . S
C270 C269 1.394 . S
C270 C271 1.516 . S
C271 C270 1.516 . S
C271 C272 1.502 . S
C271 C273 1.561 . S
C271 C274 1.526 . S
C272 H256 0.959 . S
C272 H257 0.959 . S
C272 H258 0.961 . S
C272 C271 1.502 . S
C273 H259 0.960 . S
C273 H260 0.961 . S
C273 H261 0.959 . S
C273 C271 1.561 . S
C274 C271 1.526 . S
C274 C275 1.396 . S
C274 C279 1.390 . S
C275 C269 1.465 . S
C275 C274 1.396 . S
C275 C276 1.399 . S
C276 H262 0.929 . S
C276 C275 1.399 . S
C276 C277 1.385 . S
C277 H263 0.931 . S
C277 C276 1.385 . S
C277 C278 1.389 . S
C278 C277 1.389 . S
C278 C279 1.387 . S
C279 H264 0.930 . S
C279 C274 1.390 . S
C279 C278 1.387 . S
H280 C292 0.930 . S
H281 C294 0.930 . S
H282 C295 0.930 . S
H283 C299 0.959 . S
H284 C299 0.959 . S
H285 C299 0.961 . S
H286 C300 0.960 . S
H287 C300 0.961 . S
H288 C300 0.959 . S
H289 C303 0.929 . S
H290 C304 0.931 . S
H291 C306 0.930 . S
C292 H280 0.930 . S
C292 C293 1.399 . S
C292 C297 1.399 . S
C293 C292 1.399 . S
C293 C294 1.376 . S
C294 H281 0.930 . S
C294 C293 1.376 . S
C294 C295 1.388 . S
C295 H282 0.930 . S
C295 C294 1.388 . S
C295 C296 1.390 . S
C296 C295 1.390 . S
C296 C297 1.394 . S
C296 C302 1.465 . S
C297 C292 1.399 . S
C297 C296 1.394 . S
C297 C298 1.516 . S
C298 C297 1.516 . S
C298 C299 1.502 . S
C298 C300 1.561 . S
C298 C301 1.526 . S
C299 H283 0.959 . S
C299 H284 0.959 . S
C299 H285 0.961 . S
C299 C298 1.502 . S
C300 H286 0.960 . S
C300 H287 0.961 . S
C300 H288 0.959 . S
C300 C298 1.561 . S
C301 C298 1.526 . S
C301 C302 1.396 . S
C301 C306 1.390 . S
C302 C296 1.465 . S
C302 C301 1.396 . S
C302 C303 1.399 . S
C303 H289 0.929 . S
C303 C302 1.399 . S
C303 C304 1.385 . S
C304 H290 0.931 . S
C304 C303 1.385 . S
C304 C305 1.389 . S
C305 C304 1.389 . S
C305 C306 1.387 . S
C306 H291 0.930 . S
C306 C301 1.390 . S
C306 C305 1.387 . S
H307 C319 0.930 . S
H308 C321 0.930 . S
H309 C322 0.930 . S
H310 C326 0.959 . S
H311 C326 0.959 . S
H312 C326 0.961 . S
H313 C327 0.960 . S
H314 C327 0.961 . S
H315 C327 0.959 . S
H316 C330 0.929 . S
H317 C331 0.931 . S
H318 C333 0.930 . S
C319 H307 0.930 . S
C319 C320 1.399 . S
C319 C324 1.399 . S
C320 C319 1.399 . S
C320 C321 1.376 . S
C321 H308 0.930 . S
C321 C320 1.376 . S
C321 C322 1.388 . S
C322 H309 0.930 . S
C322 C321 1.388 . S
C322 C323 1.390 . S
C323 C322 1.390 . S
C323 C324 1.394 . S
C323 C329 1.465 . S
C324 C319 1.399 . S
C324 C323 1.394 . S
C324 C325 1.516 . S
C325 C324 1.516 . S
C325 C326 1.502 . S
C325 C327 1.561 . S
C325 C328 1.526 . S
C326 H310 0.959 . S
C326 H311 0.959 . S
C326 H312 0.961 . S
C326 C325 1.502 . S
C327 H313 0.960 . S
C327 H314 0.961 . S
C327 H315 0.959 . S
C327 C325 1.561 . S
C328 C325 1.526 . S
C328 C329 1.396 . S
C328 C333 1.390 . S
C329 C323 1.465 . S
C329 C328 1.396 . S
C329 C330 1.399 . S
C330 H316 0.929 . S
C330 C329 1.399 . S
C330 C331 1.385 . S
C331 H317 0.931 . S
C331 C330 1.385 . S
C331 C332 1.389 . S
C332 C331 1.389 . S
C332 C333 1.387 . S
C333 H318 0.930 . S
C333 C328 1.390 . S
C333 C332 1.387 . S
H334 C346 0.930 . S
H335 C348 0.930 . S
H336 C349 0.930 . S
H337 C353 0.959 . S
H338 C353 0.959 . S
H339 C353 0.961 . S
H340 C354 0.960 . S
H341 C354 0.961 . S
H342 C354 0.959 . S
H343 C357 0.929 . S
H344 C358 0.931 . S
H345 C360 0.930 . S
C346 H334 0.930 . S
C346 C347 1.399 . S
C346 C351 1.399 . S
C347 C346 1.399 . S
C347 C348 1.376 . S
C348 H335 0.930 . S
C348 C347 1.376 . S
C348 C349 1.388 . S
C349 H336 0.930 . S
C349 C348 1.388 . S
C349 C350 1.390 . S
C350 C349 1.390 . S
C350 C351 1.394 . S
C350 C356 1.465 . S
C351 C346 1.399 . S
C351 C350 1.394 . S
C351 C352 1.516 . S
C352 C351 1.516 . S
C352 C353 1.502 . S
C352 C354 1.561 . S
C352 C355 1.526 . S
C353 H337 0.959 . S
C353 H338 0.959 . S
C353 H339 0.961 . S
C353 C352 1.502 . S
C354 H340 0.960 . S
C354 H341 0.961 . S
C354 H342 0.959 . S
C354 C352 1.561 . S
C355 C352 1.526 . S
C355 C356 1.396 . S
C355 C360 1.390 . S
C356 C350 1.465 . S
C356 C355 1.396 . S
C356 C357 1.399 . S
C357 H343 0.929 . S
C357 C356 1.399 . S
C357 C358 1.385 . S
C358 H344 0.931 . S
C358 C357 1.385 . S
C358 C359 1.389 . S
C359 C358 1.389 . S
C359 C360 1.387 . S
C360 H345 0.930 . S
C360 C355 1.390 . S
C360 C359 1.387 . S
H361 C373 0.930 . S
H362 C375 0.930 . S
H363 C376 0.930 . S
H364 C380 0.959 . S
H365 C380 0.959 . S
H366 C380 0.961 . S
H367 C381 0.960 . S
H368 C381 0.961 . S
H369 C381 0.959 . S
H370 C384 0.929 . S
H371 C385 0.931 . S
H372 C387 0.930 . S
C373 H361 0.930 . S
C373 C374 1.399 . S
C373 C378 1.399 . S
C374 C373 1.399 . S
C374 C375 1.376 . S
C375 H362 0.930 . S
C375 C374 1.376 . S
C375 C376 1.388 . S
C376 H363 0.930 . S
C376 C375 1.388 . S
C376 C377 1.390 . S
C377 C376 1.390 . S
C377 C378 1.394 . S
C377 C383 1.465 . S
C378 C373 1.399 . S
C378 C377 1.394 . S
C378 C379 1.516 . S
C379 C378 1.516 . S
C379 C380 1.502 . S
C379 C381 1.561 . S
C379 C382 1.526 . S
C380 H364 0.959 . S
C380 H365 0.959 . S
C380 H366 0.961 . S
C380 C379 1.502 . S
C381 H367 0.960 . S
C381 H368 0.961 . S
C381 H369 0.959 . S
C381 C379 1.561 . S
C382 C379 1.526 . S
C382 C383 1.396 . S
C382 C387 1.390 . S
C383 C377 1.465 . S
C383 C382 1.396 . S
C383 C384 1.399 . S
C384 H370 0.929 . S
C384 C383 1.399 . S
C384 C385 1.385 . S
C385 H371 0.931 . S
C385 C384 1.385 . S
C385 C386 1.389 . S
C386 C385 1.389 . S
C386 C387 1.387 . S
C387 H372 0.930 . S
C387 C382 1.390 . S
C387 C386 1.387 . S
H388 C400 0.930 . S
H389 C402 0.930 . S
H390 C403 0.930 . S
H391 C407 0.959 . S
H392 C407 0.959 . S
H393 C407 0.961 . S
H394 C408 0.960 . S
H395 C408 0.961 . S
H396 C408 0.959 . S
H397 C411 0.929 . S
H398 C412 0.931 . S
H399 C414 0.930 . S
C400 H388 0.930 . S
C400 C401 1.399 . S
C400 C405 1.399 . S
C401 C400 1.399 . S
C401 C402 1.376 . S
C402 H389 0.930 . S
C402 C401 1.376 . S
C402 C403 1.388 . S
C403 H390 0.930 . S
C403 C402 1.388 . S
C403 C404 1.390 . S
C404 C403 1.390 . S
C404 C405 1.394 . S
C404 C410 1.465 . S
C405 C400 1.399 . S
C405 C404 1.394 . S
C405 C406 1.516 . S
C406 C405 1.516 . S
C406 C407 1.502 . S
C406 C408 1.561 . S
C406 C409 1.526 . S
C407 H391 0.959 . S
C407 H392 0.959 . S
C407 H393 0.961 . S
C407 C406 1.502 . S
C408 H394 0.960 . S
C408 H395 0.961 . S
C408 H396 0.959 . S
C408 C406 1.561 . S
C409 C406 1.526 . S
C409 C410 1.396 . S
C409 C414 1.390 . S
C410 C404 1.465 . S
C410 C409 1.396 . S
C410 C411 1.399 . S
C411 H397 0.929 . S
C411 C410 1.399 . S
C411 C412 1.385 . S
C412 H398 0.931 . S
C412 C411 1.385 . S
C412 C413 1.389 . S
C413 C412 1.389 . S
C413 C414 1.387 . S
C414 H399 0.930 . S
C414 C409 1.390 . S
C414 C413 1.387 . S
H415 C427 0.930 . S
H416 C429 0.930 . S
H417 C430 0.930 . S
H418 C434 0.959 . S
H419 C434 0.959 . S
H420 C434 0.961 . S
H421 C435 0.960 . S
H422 C435 0.961 . S
H423 C435 0.959 . S
H424 C438 0.929 . S
H425 C439 0.931 . S
H426 C441 0.930 . S
C427 H415 0.930 . S
C427 C428 1.399 . S
C427 C432 1.399 . S
C428 C427 1.399 . S
C428 C429 1.376 . S
C429 H416 0.930 . S
C429 C428 1.376 . S
C429 C430 1.388 . S
C430 H417 0.930 . S
C430 C429 1.388 . S
C430 C431 1.390 . S
C431 C430 1.390 . S
C431 C432 1.394 . S
C431 C437 1.465 . S
C432 C427 1.399 . S
C432 C431 1.394 . S
C432 C433 1.516 . S
C433 C432 1.516 . S
C433 C434 1.502 . S
C433 C435 1.561 . S
C433 C436 1.526 . S
C434 H418 0.959 . S
C434 H419 0.959 . S
C434 H420 0.961 . S
C434 C433 1.502 . S
C435 H421 0.960 . S
C435 H422 0.961 . S
C435 H423 0.959 . S
C435 C433 1.561 . S
C436 C433 1.526 . S
C436 C437 1.396 . S
C436 C441 1.390 . S
C437 C431 1.465 . S
C437 C436 1.396 . S
C437 C438 1.399 . S
C438 H424 0.929 . S
C438 C437 1.399 . S
C438 C439 1.385 . S
C439 H425 0.931 . S
C439 C438 1.385 . S
C439 C440 1.389 . S
C440 C439 1.389 . S
C440 C441 1.387 . S
C441 H426 0.930 . S
C441 C436 1.390 . S
C441 C440 1.387 . S
H442 C454 0.930 . S
H443 C456 0.930 . S
H444 C457 0.930 . S
H445 C461 0.959 . S
H446 C461 0.959 . S
H447 C461 0.961 . S
H448 C462 0.960 . S
H449 C462 0.961 . S
H450 C462 0.959 . S
H451 C465 0.929 . S
H452 C466 0.931 . S
H453 C468 0.930 . S
C454 H442 0.930 . S
C454 C455 1.399 . S
C454 C459 1.399 . S
C455 C454 1.399 . S
C455 C456 1.376 . S
C456 H443 0.930 . S
C456 C455 1.376 . S
C456 C457 1.388 . S
C457 H444 0.930 . S
C457 C456 1.388 . S
C457 C458 1.390 . S
C458 C457 1.390 . S
C458 C459 1.394 . S
C458 C464 1.465 . S
C459 C454 1.399 . S
C459 C458 1.394 . S
C459 C460 1.516 . S
C460 C459 1.516 . S
C460 C461 1.502 . S
C460 C462 1.561 . S
C460 C463 1.526 . S
C461 H445 0.959 . S
C461 H446 0.959 . S
C461 H447 0.961 . S
C461 C460 1.502 . S
C462 H448 0.960 . S
C462 H449 0.961 . S
C462 H450 0.959 . S
C462 C460 1.561 . S
C463 C460 1.526 . S
C463 C464 1.396 . S
C463 C468 1.390 . S
C464 C458 1.465 . S
C464 C463 1.396 . S
C464 C465 1.399 . S
C465 H451 0.929 . S
C465 C464 1.399 . S
C465 C466 1.385 . S
C466 H452 0.931 . S
C466 C465 1.385 . S
C466 C467 1.389 . S
C467 C466 1.389 . S
C467 C468 1.387 . S
C468 H453 0.930 . S
C468 C463 1.390 . S
C468 C467 1.387 . S
H469 C481 0.930 . S
H470 C483 0.930 . S
H471 C484 0.930 . S
H472 C488 0.959 . S
H473 C488 0.959 . S
H474 C488 0.961 . S
H475 C489 0.960 . S
H476 C489 0.961 . S
H477 C489 0.959 . S
H478 C492 0.929 . S
H479 C493 0.931 . S
H480 C495 0.930 . S
C481 H469 0.930 . S
C481 C482 1.399 . S
C481 C486 1.399 . S
C482 C481 1.399 . S
C482 C483 1.376 . S
C483 H470 0.930 . S
C483 C482 1.376 . S
C483 C484 1.388 . S
C484 H471 0.930 . S
C484 C483 1.388 . S
C484 C485 1.390 . S
C485 C484 1.390 . S
C485 C486 1.394 . S
C485 C491 1.465 . S
C486 C481 1.399 . S
C486 C485 1.394 . S
C486 C487 1.516 . S
C487 C486 1.516 . S
C487 C488 1.502 . S
C487 C489 1.561 . S
C487 C490 1.526 . S
C488 H472 0.959 . S
C488 H473 0.959 . S
C488 H474 0.961 . S
C488 C487 1.502 . S
C489 H475 0.960 . S
C489 H476 0.961 . S
C489 H477 0.959 . S
C489 C487 1.561 . S
C490 C487 1.526 . S
C490 C491 1.396 . S
C490 C495 1.390 . S
C491 C485 1.465 . S
C491 C490 1.396 . S
C491 C492 1.399 . S
C492 H478 0.929 . S
C492 C491 1.399 . S
C492 C493 1.385 . S
C493 H479 0.931 . S
C493 C492 1.385 . S
C493 C494 1.389 . S
C494 C493 1.389 . S
C494 C495 1.387 . S
C495 H480 0.930 . S
C495 C490 1.390 . S
C495 C494 1.387 . S
H496 C508 0.930 . S
H497 C510 0.930 . S
H498 C511 0.930 . S
H499 C515 0.959 . S
H500 C515 0.959 . S
H501 C515 0.961 . S
H502 C516 0.960 . S
H503 C516 0.961 . S
H504 C516 0.959 . S
H505 C519 0.929 . S
H506 C520 0.931 . S
H507 C522 0.930 . S
C508 H496 0.930 . S
C508 C509 1.399 . S
C508 C513 1.399 . S
C509 C508 1.399 . S
C509 C510 1.376 . S
C510 H497 0.930 . S
C510 C509 1.376 . S
C510 C511 1.388 . S
C511 H498 0.930 . S
C511 C510 1.388 . S
C511 C512 1.390 . S
C512 C511 1.390 . S
C512 C513 1.394 . S
C512 C518 1.465 1_565 S
C513 C508 1.399 . S
C513 C512 1.394 . S
C513 C514 1.516 . S
C514 C513 1.516 . S
C514 C515 1.502 . S
C514 C516 1.561 . S
C514 C517 1.526 1_565 S
C515 H499 0.959 . S
C515 H500 0.959 . S
C515 H501 0.961 . S
C515 C514 1.502 . S
C516 H502 0.960 . S
C516 H503 0.961 . S
C516 H504 0.959 . S
C516 C514 1.561 . S
C517 C514 1.526 1_545 S
C517 C518 1.396 . S
C517 C522 1.390 . S
C518 C512 1.465 1_545 S
C518 C517 1.396 . S
C518 C519 1.399 . S
C519 H505 0.929 . S
C519 C518 1.399 . S
C519 C520 1.385 . S
C520 H506 0.931 . S
C520 C519 1.385 . S
C520 C521 1.389 . S
C521 C520 1.389 . S
C521 C522 1.387 . S
C522 H507 0.930 . S
C522 C517 1.390 . S
C522 C521 1.387 . S
H523 C535 0.930 . S
H524 C537 0.930 . S
H525 C538 0.930 . S
H526 C542 0.959 . S
H527 C542 0.959 . S
H528 C542 0.961 . S
H529 C543 0.960 . S
H530 C543 0.961 . S
H531 C543 0.959 . S
H532 C546 0.929 . S
H533 C547 0.931 . S
H534 C549 0.930 . S
C535 H523 0.930 . S
C535 C536 1.399 . S
C535 C540 1.399 1_545 S
C536 C535 1.399 . S
C536 C537 1.376 . S
C537 H524 0.930 . S
C537 C536 1.376 . S
C537 C538 1.388 . S
C538 H525 0.930 . S
C538 C537 1.388 . S
C538 C539 1.390 1_545 S
C539 C538 1.390 1_565 S
C539 C540 1.394 . S
C539 C545 1.465 . S
C540 C535 1.399 1_565 S
C540 C539 1.394 . S
C540 C541 1.516 . S
C541 C540 1.516 . S
C541 C542 1.502 . S
C541 C543 1.561 . S
C541 C544 1.526 . S
C542 H526 0.959 . S
C542 H527 0.959 . S
C542 H528 0.961 . S
C542 C541 1.502 . S
C543 H529 0.960 . S
C543 H530 0.961 . S
C543 H531 0.959 . S
C543 C541 1.561 . S
C544 C541 1.526 . S
C544 C545 1.396 . S
C544 C549 1.390 . S
C545 C539 1.465 . S
C545 C544 1.396 . S
C545 C546 1.399 . S
C546 H532 0.929 . S
C546 C545 1.399 . S
C546 C547 1.385 . S
C547 H533 0.931 . S
C547 C546 1.385 . S
C547 C548 1.389 . S
C548 C547 1.389 . S
C548 C549 1.387 . S
C549 H534 0.930 . S
C549 C544 1.390 . S
C549 C548 1.387 . S
H550 C562 0.930 . S
H551 C564 0.930 . S
H552 C565 0.930 . S
H553 C569 0.959 . S
H554 C569 0.959 . S
H555 C569 0.961 1_545 S
H556 C570 0.954 1_545 S
H557 C570 0.966 . S
H558 C570 0.958 1_545 S
H559 C573 0.929 . S
H560 C574 0.931 . S
H561 C576 0.930 . S
C562 H550 0.930 . S
C562 C563 1.399 . S
C562 C567 1.399 . S
C563 C562 1.399 . S
C563 C564 1.376 . S
C564 H551 0.930 . S
C564 C563 1.376 . S
C564 C565 1.388 . S
C565 H552 0.930 . S
C565 C564 1.388 . S
C565 C566 1.390 . S
C566 C565 1.390 . S
C566 C567 1.394 . S
C566 C572 1.465 1_545 S
C567 C562 1.399 . S
C567 C566 1.394 . S
C567 C568 1.516 1_545 S
C568 C567 1.516 1_565 S
C568 C569 1.502 . S
C568 C570 1.563 . S
C568 C571 1.526 . S
C569 H553 0.959 . S
C569 H554 0.959 . S
C569 H555 0.961 1_565 S
C569 C568 1.502 . S
C570 H556 0.954 1_565 S
C570 H557 0.966 . S
C570 H558 0.958 1_565 S
C570 C568 1.563 . S
C571 C568 1.526 . S
C571 C572 1.396 . S
C571 C576 1.390 . S
C572 C566 1.465 1_565 S
C572 C571 1.396 . S
C572 C573 1.399 . S
C573 H559 0.929 . S
C573 C572 1.399 . S
C573 C574 1.385 . S
C574 H560 0.931 . S
C574 C573 1.385 . S
C574 C575 1.389 . S
C575 C574 1.389 . S
C575 C576 1.387 . S
C576 H561 0.930 . S
C576 C571 1.390 . S
C576 C575 1.387 . S
H577 C589 0.930 . S
H578 C591 0.930 . S
H579 C592 0.930 . S
H580 C596 0.959 . S
H581 C596 0.959 . S
H582 C596 0.961 . S
H583 C597 0.960 . S
H584 C597 0.961 . S
H585 C597 0.959 . S
H586 C600 0.929 . S
H587 C601 0.931 . S
H588 C603 0.930 . S
C589 H577 0.930 . S
C589 C590 1.399 . S
C589 C594 1.399 . S
C590 C589 1.399 . S
C590 C591 1.376 . S
C591 H578 0.930 . S
C591 C590 1.376 . S
C591 C592 1.388 . S
C592 H579 0.930 . S
C592 C591 1.388 . S
C592 C593 1.390 . S
C593 C592 1.390 . S
C593 C594 1.394 . S
C593 C599 1.465 1_565 S
C594 C589 1.399 . S
C594 C593 1.394 . S
C594 C595 1.516 1_565 S
C595 C594 1.516 1_545 S
C595 C596 1.502 . S
C595 C597 1.561 . S
C595 C598 1.526 . S
C596 H580 0.959 . S
C596 H581 0.959 . S
C596 H582 0.961 . S
C596 C595 1.502 . S
C597 H583 0.960 . S
C597 H584 0.961 . S
C597 H585 0.959 . S
C597 C595 1.561 . S
C598 C595 1.526 . S
C598 C599 1.396 . S
C598 C603 1.390 . S
C599 C593 1.465 1_545 S
C599 C598 1.396 . S
C599 C600 1.399 . S
C600 H586 0.929 . S
C600 C599 1.399 . S
C600 C601 1.385 . S
C601 H587 0.931 . S
C601 C600 1.385 . S
C601 C602 1.389 . S
C602 C601 1.389 . S
C602 C603 1.387 . S
C603 H588 0.930 . S
C603 C598 1.390 . S
C603 C602 1.387 . S
H604 C616 0.930 . S
H605 C618 0.930 . S
H606 C619 0.930 . S
H607 C623 0.959 . S
H608 C623 0.959 . S
H609 C623 0.961 . S
H610 C624 0.960 . S
H611 C624 0.961 . S
H612 C624 0.959 . S
H613 C627 0.929 . S
H614 C628 0.931 . S
H615 C630 0.930 . S
C616 H604 0.930 . S
C616 C617 1.399 . S
C616 C621 1.399 1_554 S
C617 C616 1.399 . S
C617 C618 1.376 . S
C618 H605 0.930 . S
C618 C617 1.376 . S
C618 C619 1.388 . S
C619 H606 0.930 . S
C619 C618 1.388 . S
C619 C620 1.390 1_554 S
C620 C619 1.390 1_556 S
C620 C621 1.394 . S
C620 C626 1.465 . S
C621 C616 1.399 1_556 S
C621 C620 1.394 . S
C621 C622 1.516 . S
C622 C621 1.516 . S
C622 C623 1.502 . S
C622 C624 1.561 . S
C622 C625 1.526 . S
C623 H607 0.959 . S
C623 H608 0.959 . S
C623 H609 0.961 . S
C623 C622 1.502 . S
C624 H610 0.960 . S
C624 H611 0.961 . S
C624 H612 0.959 . S
C624 C622 1.561 . S
C625 C622 1.526 . S
C625 C626 1.396 . S
C625 C630 1.390 . S
C626 C620 1.465 . S
C626 C625 1.396 . S
C626 C627 1.399 . S
C627 H613 0.929 . S
C627 C626 1.399 . S
C627 C628 1.385 . S
C628 H614 0.931 . S
C628 C627 1.385 . S
C628 C629 1.389 . S
C629 C628 1.389 . S
C629 C630 1.387 . S
C630 H615 0.930 . S
C630 C625 1.390 . S
C630 C629 1.387 . S
H631 C643 0.930 . S
H632 C645 0.930 . S
H633 C646 0.930 . S
H634 C650 0.959 . S
H635 C650 0.959 . S
H636 C650 0.961 . S
H637 C651 0.960 . S
H638 C651 0.961 . S
H639 C651 0.959 . S
H640 C654 0.929 . S
H641 C655 0.931 . S
H642 C657 0.930 . S
C643 H631 0.930 . S
C643 C644 1.399 . S
C643 C648 1.399 . S
C644 C643 1.399 . S
C644 C645 1.376 . S
C645 H632 0.930 . S
C645 C644 1.376 . S
C645 C646 1.388 . S
C646 H633 0.930 . S
C646 C645 1.388 . S
C646 C647 1.390 . S
C647 C646 1.390 . S
C647 C648 1.394 . S
C647 C653 1.465 . S
C648 C643 1.399 . S
C648 C647 1.394 . S
C648 C649 1.516 . S
C649 C648 1.516 . S
C649 C650 1.502 . S
C649 C651 1.561 . S
C649 C652 1.526 . S
C650 H634 0.959 . S
C650 H635 0.959 . S
C650 H636 0.961 . S
C650 C649 1.502 . S
C651 H637 0.960 . S
C651 H638 0.961 . S
C651 H639 0.959 . S
C651 C649 1.561 . S
C652 C649 1.526 . S
C652 C653 1.396 . S
C652 C657 1.390 . S
C653 C647 1.465 . S
C653 C652 1.396 . S
C653 C654 1.399 . S
C654 H640 0.929 . S
C654 C653 1.399 . S
C654 C655 1.385 . S
C655 H641 0.931 . S
C655 C654 1.385 . S
C655 C656 1.389 . S
C656 C655 1.389 . S
C656 C657 1.387 . S
C657 H642 0.930 . S
C657 C652 1.390 . S
C657 C656 1.387 . S
H658 C670 0.930 . S
H659 C672 0.930 . S
H660 C673 0.930 . S
H661 C677 0.959 . S
H662 C677 0.959 . S
H663 C677 0.961 . S
H664 C678 0.960 . S
H665 C678 0.961 . S
H666 C678 0.959 . S
H667 C681 0.929 . S
H668 C682 0.931 . S
H669 C684 0.930 . S
C670 H658 0.930 . S
C670 C671 1.399 . S
C670 C675 1.399 . S
C671 C670 1.399 . S
C671 C672 1.376 . S
C672 H659 0.930 . S
C672 C671 1.376 . S
C672 C673 1.388 . S
C673 H660 0.930 . S
C673 C672 1.388 . S
C673 C674 1.390 . S
C674 C673 1.390 . S
C674 C675 1.394 . S
C674 C680 1.465 . S
C675 C670 1.399 . S
C675 C674 1.394 . S
C675 C676 1.516 . S
C676 C675 1.516 . S
C676 C677 1.502 . S
C676 C678 1.561 . S
C676 C679 1.526 . S
C677 H661 0.959 . S
C677 H662 0.959 . S
C677 H663 0.961 . S
C677 C676 1.502 . S
C678 H664 0.960 . S
C678 H665 0.961 . S
C678 H666 0.959 . S
C678 C676 1.561 . S
C679 C676 1.526 . S
C679 C680 1.396 . S
C679 C684 1.390 . S
C680 C674 1.465 . S
C680 C679 1.396 . S
C680 C681 1.399 . S
C681 H667 0.929 . S
C681 C680 1.399 . S
C681 C682 1.385 . S
C682 H668 0.931 . S
C682 C681 1.385 . S
C682 C683 1.389 . S
C683 C682 1.389 . S
C683 C684 1.387 . S
C684 H669 0.930 . S
C684 C679 1.390 . S
C684 C683 1.387 . S
H685 C697 0.930 . S
H686 C699 0.930 . S
H687 C700 0.930 . S
H688 C704 0.959 . S
H689 C704 0.959 . S
H690 C704 0.961 . S
H691 C705 0.960 . S
H692 C705 0.961 . S
H693 C705 0.959 . S
H694 C708 0.929 . S
H695 C709 0.931 . S
H696 C711 0.930 . S
C697 H685 0.930 . S
C697 C698 1.399 . S
C697 C702 1.399 . S
C698 C697 1.399 . S
C698 C699 1.376 . S
C699 H686 0.930 . S
C699 C698 1.376 . S
C699 C700 1.388 . S
C700 H687 0.930 . S
C700 C699 1.388 . S
C700 C701 1.390 . S
C701 C700 1.390 . S
C701 C702 1.394 . S
C701 C707 1.465 . S
C702 C697 1.399 . S
C702 C701 1.394 . S
C702 C703 1.516 . S
C703 C702 1.516 . S
C703 C704 1.502 . S
C703 C705 1.561 . S
C703 C706 1.526 . S
C704 H688 0.959 . S
C704 H689 0.959 . S
C704 H690 0.961 . S
C704 C703 1.502 . S
C705 H691 0.960 . S
C705 H692 0.961 . S
C705 H693 0.959 . S
C705 C703 1.561 . S
C706 C703 1.526 . S
C706 C707 1.396 . S
C706 C711 1.390 . S
C707 C701 1.465 . S
C707 C706 1.396 . S
C707 C708 1.399 . S
C708 H694 0.929 . S
C708 C707 1.399 . S
C708 C709 1.385 . S
C709 H695 0.931 . S
C709 C708 1.385 . S
C709 C710 1.389 . S
C710 C709 1.389 . S
C710 C711 1.387 . S
C711 H696 0.930 . S
C711 C706 1.390 . S
C711 C710 1.387 . S
H712 C724 0.930 . S
H713 C726 0.930 . S
H714 C727 0.925 1_554 S
H715 C731 0.966 . S
H716 C731 0.963 . S
H717 C731 0.970 . S
H718 C732 0.960 . S
H719 C732 0.961 . S
H720 C732 0.959 . S
H721 C735 0.929 . S
H722 C736 0.931 . S
H723 C738 0.930 . S
C724 H712 0.930 . S
C724 C725 1.399 . S
C724 C729 1.399 1_556 S
C725 C724 1.399 . S
C725 C726 1.376 . S
C726 H713 0.930 . S
C726 C725 1.376 . S
C726 C727 1.388 . S
C727 H714 0.925 1_556 S
C727 C726 1.388 . S
C727 C728 1.390 1_556 S
C728 C727 1.390 1_554 S
C728 C729 1.394 . S
C728 C734 1.465 . S
C729 C724 1.399 1_554 S
C729 C728 1.394 . S
C729 C730 1.516 . S
C730 C729 1.516 . S
C730 C731 1.482 1_455 S
C730 C732 1.561 . S
C730 C733 1.526 . S
C731 H715 0.966 . S
C731 H716 0.963 . S
C731 H717 0.970 . S
C731 C730 1.482 1_655 S
C732 H718 0.960 . S
C732 H719 0.961 . S
C732 H720 0.959 . S
C732 C730 1.561 . S
C733 C730 1.526 . S
C733 C734 1.396 . S
C733 C738 1.390 . S
C734 C728 1.465 . S
C734 C733 1.396 . S
C734 C735 1.399 . S
C735 H721 0.929 . S
C735 C734 1.399 . S
C735 C736 1.385 . S
C736 H722 0.931 . S
C736 C735 1.385 . S
C736 C737 1.389 . S
C737 C736 1.389 . S
C737 C738 1.387 . S
C738 H723 0.930 . S
C738 C733 1.390 . S
C738 C737 1.387 . S
H739 C751 0.930 . S
H740 C753 0.930 . S
H741 C754 0.930 . S
H742 C758 0.959 . S
H743 C758 0.959 . S
H744 C758 0.961 . S
H745 C759 0.960 . S
H746 C759 0.961 . S
H747 C759 0.959 . S
H748 C762 0.929 . S
H749 C763 0.931 . S
H750 C765 0.930 . S
C751 H739 0.930 . S
C751 C752 1.399 . S
C751 C756 1.399 . S
C752 C751 1.399 . S
C752 C753 1.376 . S
C753 H740 0.930 . S
C753 C752 1.376 . S
C753 C754 1.388 . S
C754 H741 0.930 . S
C754 C753 1.388 . S
C754 C755 1.390 . S
C755 C754 1.390 . S
C755 C756 1.394 . S
C755 C761 1.465 . S
C756 C751 1.399 . S
C756 C755 1.394 . S
C756 C757 1.516 . S
C757 C756 1.516 . S
C757 C758 1.502 . S
C757 C759 1.561 . S
C757 C760 1.526 . S
C758 H742 0.959 . S
C758 H743 0.959 . S
C758 H744 0.961 . S
C758 C757 1.502 . S
C759 H745 0.960 . S
C759 H746 0.961 . S
C759 H747 0.959 . S
C759 C757 1.561 . S
C760 C757 1.526 . S
C760 C761 1.396 . S
C760 C765 1.390 . S
C761 C755 1.465 . S
C761 C760 1.396 . S
C761 C762 1.399 . S
C762 H748 0.929 . S
C762 C761 1.399 . S
C762 C763 1.385 . S
C763 H749 0.931 . S
C763 C762 1.385 . S
C763 C764 1.389 . S
C764 C763 1.389 . S
C764 C765 1.387 . S
C765 H750 0.930 . S
C765 C760 1.390 . S
C765 C764 1.387 . S
H766 C778 0.930 . S
H767 C780 0.930 . S
H768 C781 0.930 . S
H769 C785 0.959 . S
H770 C785 0.959 . S
H771 C785 0.961 . S
H772 C786 0.960 . S
H773 C786 0.961 . S
H774 C786 0.959 . S
H775 C789 0.929 . S
H776 C790 0.931 . S
H777 C792 0.930 . S
C778 H766 0.930 . S
C778 C779 1.399 . S
C778 C783 1.399 . S
C779 C778 1.399 . S
C779 C780 1.376 . S
C780 H767 0.930 . S
C780 C779 1.376 . S
C780 C781 1.388 . S
C781 H768 0.930 . S
C781 C780 1.388 . S
C781 C782 1.390 . S
C782 C781 1.390 . S
C782 C783 1.394 . S
C782 C788 1.465 . S
C783 C778 1.399 . S
C783 C782 1.394 . S
C783 C784 1.516 . S
C784 C783 1.516 . S
C784 C785 1.502 . S
C784 C786 1.561 . S
C784 C787 1.526 . S
C785 H769 0.959 . S
C785 H770 0.959 . S
C785 H771 0.961 . S
C785 C784 1.502 . S
C786 H772 0.960 . S
C786 H773 0.961 . S
C786 H774 0.959 . S
C786 C784 1.561 . S
C787 C784 1.526 . S
C787 C788 1.396 . S
C787 C792 1.390 . S
C788 C782 1.465 . S
C788 C787 1.396 . S
C788 C789 1.399 . S
C789 H775 0.929 . S
C789 C788 1.399 . S
C789 C790 1.385 . S
C790 H776 0.931 . S
C790 C789 1.385 . S
C790 C791 1.389 . S
C791 C790 1.389 . S
C791 C792 1.387 . S
C792 H777 0.930 . S
C792 C787 1.390 . S
C792 C791 1.387 . S
H793 C805 0.930 . S
H794 C807 0.930 . S
H795 C808 0.930 . S
H796 C812 0.959 . S
H797 C812 0.959 . S
H798 C812 0.961 . S
H799 C813 0.960 . S
H800 C813 0.961 . S
H801 C813 0.959 . S
H802 C816 0.929 . S
H803 C817 0.931 . S
H804 C819 0.930 . S
C805 H793 0.930 . S
C805 C806 1.399 . S
C805 C810 1.399 . S
C806 C805 1.399 . S
C806 C807 1.376 . S
C807 H794 0.930 . S
C807 C806 1.376 . S
C807 C808 1.388 . S
C808 H795 0.930 . S
C808 C807 1.388 . S
C808 C809 1.390 . S
C809 C808 1.390 . S
C809 C810 1.394 . S
C809 C815 1.465 . S
C810 C805 1.399 . S
C810 C809 1.394 . S
C810 C811 1.516 . S
C811 C810 1.516 . S
C811 C812 1.502 . S
C811 C813 1.561 . S
C811 C814 1.526 . S
C812 H796 0.959 . S
C812 H797 0.959 . S
C812 H798 0.961 . S
C812 C811 1.502 . S
C813 H799 0.960 . S
C813 H800 0.961 . S
C813 H801 0.959 . S
C813 C811 1.561 . S
C814 C811 1.526 . S
C814 C815 1.396 . S
C814 C819 1.390 . S
C815 C809 1.465 . S
C815 C814 1.396 . S
C815 C816 1.399 . S
C816 H802 0.929 . S
C816 C815 1.399 . S
C816 C817 1.385 . S
C817 H803 0.931 . S
C817 C816 1.385 . S
C817 C818 1.389 . S
C818 C817 1.389 . S
C818 C819 1.387 . S
C819 H804 0.930 . S
C819 C814 1.390 . S
C819 C818 1.387 . S
C197 C95 1.473 . S
C185 C5 1.405 . S
C224 C113 1.544 . S
C212 C16 1.399 1_655 S
C239 C30 1.414 . S
C251 C137 1.249 . S
C278 C167 1.241 1_655 S
C266 C41 1.272 . S
C305 C155 1.338 . S
C293 C49 1.212 . S
C320 C63 1.247 . S
C332 C108 1.251 1_655 S
C347 C74 1.582 . S
C359 C128 1.489 . S
C374 C82 1.323 1_655 S
C386 C133 1.399 . S
C401 C85 1.280 . S
C413 C149 1.214 . S
C428 C60 1.357 . S
C440 C104 1.419 . S
C467 C171 1.537 . S
C455 C38 1.455 . S
C494 C116 1.123 . S
C482 C19 1.292 . S
C509 C27 1.399 . S
C521 C134 1.466 . S
C536 C8 1.446 . S
C548 C92 1.367 . S
C575 C112 1.217 . S
C563 C71 1.029 . S
C602 C158 1.476 . S
C590 C52 1.590 . S
C629 C154 1.307 . S
C617 C7 1.486 . S
C656 C107 1.380 . S
C644 C18 1.428 . S
C671 C29 1.469 . S
C683 C129 1.281 . S
C698 C40 1.493 . S
C710 C150 1.478 . S
C737 C91 1.303 . S
C725 C51 1.416 . S
C752 C62 1.424 . S
C764 C125 1.426 . S
C791 C146 1.379 . S
C779 C73 1.522 . S
C818 C170 1.312 . S
C806 C84 1.408 . S
