# Generated by pormake.
# Topology gar, (4,6)-cn, num edge types: 1
# Building blocks:
#     Node 0, Type 0, BuildingBlock: TATPOV_clean_sbu_0, # of connection points: 4
#     Node 1, Type 0, BuildingBlock: TATPOV_clean_sbu_0, # of connection points: 4
#     Node 2, Type 0, BuildingBlock: TATPOV_clean_sbu_0, # of connection points: 4
#     Node 3, Type 0, BuildingBlock: TATPOV_clean_sbu_0, # of connection points: 4
#     Node 4, Type 0, BuildingBlock: TATPOV_clean_sbu_0, # of connection points: 4
#     Node 5, Type 0, BuildingBlock: TATPOV_clean_sbu_0, # of connection points: 4
#     Node 6, Type 0, BuildingBlock: TATPOV_clean_sbu_0, # of connection points: 4
#     Node 7, Type 0, BuildingBlock: TATPOV_clean_sbu_0, # of connection points: 4
#     Node 8, Type 0, BuildingBlock: TATPOV_clean_sbu_0, # of connection points: 4
#     Node 9, Type 0, BuildingBlock: TATPOV_clean_sbu_0, # of connection points: 4
#     Node 10, Type 0, BuildingBlock: TATPOV_clean_sbu_0, # of connection points: 4
#     Node 11, Type 0, BuildingBlock: TATPOV_clean_sbu_0, # of connection points: 4
#     Node 12, Type 0, BuildingBlock: TATPOV_clean_sbu_0, # of connection points: 4
#     Node 13, Type 0, BuildingBlock: TATPOV_clean_sbu_0, # of connection points: 4
#     Node 14, Type 0, BuildingBlock: TATPOV_clean_sbu_0, # of connection points: 4
#     Node 15, Type 0, BuildingBlock: TATPOV_clean_sbu_0, # of connection points: 4
#     Node 16, Type 0, BuildingBlock: TATPOV_clean_sbu_0, # of connection points: 4
#     Node 17, Type 0, BuildingBlock: TATPOV_clean_sbu_0, # of connection points: 4
#     Node 18, Type 0, BuildingBlock: TATPOV_clean_sbu_0, # of connection points: 4
#     Node 19, Type 0, BuildingBlock: TATPOV_clean_sbu_0, # of connection points: 4
#     Node 20, Type 0, BuildingBlock: TATPOV_clean_sbu_0, # of connection points: 4
#     Node 21, Type 0, BuildingBlock: TATPOV_clean_sbu_0, # of connection points: 4
#     Node 22, Type 0, BuildingBlock: TATPOV_clean_sbu_0, # of connection points: 4
#     Node 23, Type 0, BuildingBlock: TATPOV_clean_sbu_0, # of connection points: 4
#     Node 24, Type 1, BuildingBlock: NUHQIS_clean_sbu_0, # of connection points: 6
#     Node 25, Type 1, BuildingBlock: NUHQIS_clean_sbu_0, # of connection points: 6
#     Node 26, Type 1, BuildingBlock: NUHQIS_clean_sbu_0, # of connection points: 6
#     Node 27, Type 1, BuildingBlock: NUHQIS_clean_sbu_0, # of connection points: 6
#     Node 28, Type 1, BuildingBlock: NUHQIS_clean_sbu_0, # of connection points: 6
#     Node 29, Type 1, BuildingBlock: NUHQIS_clean_sbu_0, # of connection points: 6
#     Node 30, Type 1, BuildingBlock: NUHQIS_clean_sbu_0, # of connection points: 6
#     Node 31, Type 1, BuildingBlock: NUHQIS_clean_sbu_0, # of connection points: 6
#     Node 32, Type 1, BuildingBlock: NUHQIS_clean_sbu_0, # of connection points: 6
#     Node 33, Type 1, BuildingBlock: NUHQIS_clean_sbu_0, # of connection points: 6
#     Node 34, Type 1, BuildingBlock: NUHQIS_clean_sbu_0, # of connection points: 6
#     Node 35, Type 1, BuildingBlock: NUHQIS_clean_sbu_0, # of connection points: 6
#     Node 36, Type 1, BuildingBlock: NUHQIS_clean_sbu_0, # of connection points: 6
#     Node 37, Type 1, BuildingBlock: NUHQIS_clean_sbu_0, # of connection points: 6
#     Node 38, Type 1, BuildingBlock: NUHQIS_clean_sbu_0, # of connection points: 6
#     Node 39, Type 1, BuildingBlock: NUHQIS_clean_sbu_0, # of connection points: 6
#     Edge 40, Type (0, 1), BuildingBlock: TEMPAE_clean_linker_10, # of connection points: 2
#     Edge 41, Type (0, 1), BuildingBlock: TEMPAE_clean_linker_10, # of connection points: 2
#     Edge 42, Type (0, 1), BuildingBlock: TEMPAE_clean_linker_10, # of connection points: 2
#     Edge 43, Type (0, 1), BuildingBlock: TEMPAE_clean_linker_10, # of connection points: 2
#     Edge 44, Type (0, 1), BuildingBlock: TEMPAE_clean_linker_10, # of connection points: 2
#     Edge 45, Type (0, 1), BuildingBlock: TEMPAE_clean_linker_10, # of connection points: 2
#     Edge 46, Type (0, 1), BuildingBlock: TEMPAE_clean_linker_10, # of connection points: 2
#     Edge 47, Type (0, 1), BuildingBlock: TEMPAE_clean_linker_10, # of connection points: 2
#     Edge 48, Type (0, 1), BuildingBlock: TEMPAE_clean_linker_10, # of connection points: 2
#     Edge 49, Type (0, 1), BuildingBlock: TEMPAE_clean_linker_10, # of connection points: 2
#     Edge 50, Type (0, 1), BuildingBlock: TEMPAE_clean_linker_10, # of connection points: 2
#     Edge 51, Type (0, 1), BuildingBlock: TEMPAE_clean_linker_10, # of connection points: 2
#     Edge 52, Type (0, 1), BuildingBlock: TEMPAE_clean_linker_10, # of connection points: 2
#     Edge 53, Type (0, 1), BuildingBlock: TEMPAE_clean_linker_10, # of connection points: 2
#     Edge 54, Type (0, 1), BuildingBlock: TEMPAE_clean_linker_10, # of connection points: 2
#     Edge 55, Type (0, 1), BuildingBlock: TEMPAE_clean_linker_10, # of connection points: 2
#     Edge 56, Type (0, 1), BuildingBlock: TEMPAE_clean_linker_10, # of connection points: 2
#     Edge 57, Type (0, 1), BuildingBlock: TEMPAE_clean_linker_10, # of connection points: 2
#     Edge 58, Type (0, 1), BuildingBlock: TEMPAE_clean_linker_10, # of connection points: 2
#     Edge 59, Type (0, 1), BuildingBlock: TEMPAE_clean_linker_10, # of connection points: 2
#     Edge 60, Type (0, 1), BuildingBlock: TEMPAE_clean_linker_10, # of connection points: 2
#     Edge 61, Type (0, 1), BuildingBlock: TEMPAE_clean_linker_10, # of connection points: 2
#     Edge 62, Type (0, 1), BuildingBlock: TEMPAE_clean_linker_10, # of connection points: 2
#     Edge 63, Type (0, 1), BuildingBlock: TEMPAE_clean_linker_10, # of connection points: 2
#     Edge 64, Type (0, 1), BuildingBlock: TEMPAE_clean_linker_10, # of connection points: 2
#     Edge 65, Type (0, 1), BuildingBlock: TEMPAE_clean_linker_10, # of connection points: 2
#     Edge 66, Type (0, 1), BuildingBlock: TEMPAE_clean_linker_10, # of connection points: 2
#     Edge 67, Type (0, 1), BuildingBlock: TEMPAE_clean_linker_10, # of connection points: 2
#     Edge 68, Type (0, 1), BuildingBlock: TEMPAE_clean_linker_10, # of connection points: 2
#     Edge 69, Type (0, 1), BuildingBlock: TEMPAE_clean_linker_10, # of connection points: 2
#     Edge 70, Type (0, 1), BuildingBlock: TEMPAE_clean_linker_10, # of connection points: 2
#     Edge 71, Type (0, 1), BuildingBlock: TEMPAE_clean_linker_10, # of connection points: 2
#     Edge 72, Type (0, 1), BuildingBlock: TEMPAE_clean_linker_10, # of connection points: 2
#     Edge 73, Type (0, 1), BuildingBlock: TEMPAE_clean_linker_10, # of connection points: 2
#     Edge 74, Type (0, 1), BuildingBlock: TEMPAE_clean_linker_10, # of connection points: 2
#     Edge 75, Type (0, 1), BuildingBlock: TEMPAE_clean_linker_10, # of connection points: 2
#     Edge 76, Type (0, 1), BuildingBlock: TEMPAE_clean_linker_10, # of connection points: 2
#     Edge 77, Type (0, 1), BuildingBlock: TEMPAE_clean_linker_10, # of connection points: 2
#     Edge 78, Type (0, 1), BuildingBlock: TEMPAE_clean_linker_10, # of connection points: 2
#     Edge 79, Type (0, 1), BuildingBlock: TEMPAE_clean_linker_10, # of connection points: 2
#     Edge 80, Type (0, 1), BuildingBlock: TEMPAE_clean_linker_10, # of connection points: 2
#     Edge 81, Type (0, 1), BuildingBlock: TEMPAE_clean_linker_10, # of connection points: 2
#     Edge 82, Type (0, 1), BuildingBlock: TEMPAE_clean_linker_10, # of connection points: 2
#     Edge 83, Type (0, 1), BuildingBlock: TEMPAE_clean_linker_10, # of connection points: 2
#     Edge 84, Type (0, 1), BuildingBlock: TEMPAE_clean_linker_10, # of connection points: 2
#     Edge 85, Type (0, 1), BuildingBlock: TEMPAE_clean_linker_10, # of connection points: 2
#     Edge 86, Type (0, 1), BuildingBlock: TEMPAE_clean_linker_10, # of connection points: 2
#     Edge 87, Type (0, 1), BuildingBlock: TEMPAE_clean_linker_10, # of connection points: 2
#     Edge 88, Type (0, 1), BuildingBlock: TEMPAE_clean_linker_10, # of connection points: 2
#     Edge 89, Type (0, 1), BuildingBlock: TEMPAE_clean_linker_10, # of connection points: 2
#     Edge 90, Type (0, 1), BuildingBlock: TEMPAE_clean_linker_10, # of connection points: 2
#     Edge 91, Type (0, 1), BuildingBlock: TEMPAE_clean_linker_10, # of connection points: 2
#     Edge 92, Type (0, 1), BuildingBlock: TEMPAE_clean_linker_10, # of connection points: 2
#     Edge 93, Type (0, 1), BuildingBlock: TEMPAE_clean_linker_10, # of connection points: 2
#     Edge 94, Type (0, 1), BuildingBlock: TEMPAE_clean_linker_10, # of connection points: 2
#     Edge 95, Type (0, 1), BuildingBlock: TEMPAE_clean_linker_10, # of connection points: 2
#     Edge 96, Type (0, 1), BuildingBlock: TEMPAE_clean_linker_10, # of connection points: 2
#     Edge 97, Type (0, 1), BuildingBlock: TEMPAE_clean_linker_10, # of connection points: 2
#     Edge 98, Type (0, 1), BuildingBlock: TEMPAE_clean_linker_10, # of connection points: 2
#     Edge 99, Type (0, 1), BuildingBlock: TEMPAE_clean_linker_10, # of connection points: 2
#     Edge 100, Type (0, 1), BuildingBlock: TEMPAE_clean_linker_10, # of connection points: 2
#     Edge 101, Type (0, 1), BuildingBlock: TEMPAE_clean_linker_10, # of connection points: 2
#     Edge 102, Type (0, 1), BuildingBlock: TEMPAE_clean_linker_10, # of connection points: 2
#     Edge 103, Type (0, 1), BuildingBlock: TEMPAE_clean_linker_10, # of connection points: 2
#     Edge 104, Type (0, 1), BuildingBlock: TEMPAE_clean_linker_10, # of connection points: 2
#     Edge 105, Type (0, 1), BuildingBlock: TEMPAE_clean_linker_10, # of connection points: 2
#     Edge 106, Type (0, 1), BuildingBlock: TEMPAE_clean_linker_10, # of connection points: 2
#     Edge 107, Type (0, 1), BuildingBlock: TEMPAE_clean_linker_10, # of connection points: 2
#     Edge 108, Type (0, 1), BuildingBlock: TEMPAE_clean_linker_10, # of connection points: 2
#     Edge 109, Type (0, 1), BuildingBlock: TEMPAE_clean_linker_10, # of connection points: 2
#     Edge 110, Type (0, 1), BuildingBlock: TEMPAE_clean_linker_10, # of connection points: 2
#     Edge 111, Type (0, 1), BuildingBlock: TEMPAE_clean_linker_10, # of connection points: 2
#     Edge 112, Type (0, 1), BuildingBlock: TEMPAE_clean_linker_10, # of connection points: 2
#     Edge 113, Type (0, 1), BuildingBlock: TEMPAE_clean_linker_10, # of connection points: 2
#     Edge 114, Type (0, 1), BuildingBlock: TEMPAE_clean_linker_10, # of connection points: 2
#     Edge 115, Type (0, 1), BuildingBlock: TEMPAE_clean_linker_10, # of connection points: 2
#     Edge 116, Type (0, 1), BuildingBlock: TEMPAE_clean_linker_10, # of connection points: 2
#     Edge 117, Type (0, 1), BuildingBlock: TEMPAE_clean_linker_10, # of connection points: 2
#     Edge 118, Type (0, 1), BuildingBlock: TEMPAE_clean_linker_10, # of connection points: 2
#     Edge 119, Type (0, 1), BuildingBlock: TEMPAE_clean_linker_10, # of connection points: 2
#     Edge 120, Type (0, 1), BuildingBlock: TEMPAE_clean_linker_10, # of connection points: 2
#     Edge 121, Type (0, 1), BuildingBlock: TEMPAE_clean_linker_10, # of connection points: 2
#     Edge 122, Type (0, 1), BuildingBlock: TEMPAE_clean_linker_10, # of connection points: 2
#     Edge 123, Type (0, 1), BuildingBlock: TEMPAE_clean_linker_10, # of connection points: 2
#     Edge 124, Type (0, 1), BuildingBlock: TEMPAE_clean_linker_10, # of connection points: 2
#     Edge 125, Type (0, 1), BuildingBlock: TEMPAE_clean_linker_10, # of connection points: 2
#     Edge 126, Type (0, 1), BuildingBlock: TEMPAE_clean_linker_10, # of connection points: 2
#     Edge 127, Type (0, 1), BuildingBlock: TEMPAE_clean_linker_10, # of connection points: 2
#     Edge 128, Type (0, 1), BuildingBlock: TEMPAE_clean_linker_10, # of connection points: 2
#     Edge 129, Type (0, 1), BuildingBlock: TEMPAE_clean_linker_10, # of connection points: 2
#     Edge 130, Type (0, 1), BuildingBlock: TEMPAE_clean_linker_10, # of connection points: 2
#     Edge 131, Type (0, 1), BuildingBlock: TEMPAE_clean_linker_10, # of connection points: 2
#     Edge 132, Type (0, 1), BuildingBlock: TEMPAE_clean_linker_10, # of connection points: 2
#     Edge 133, Type (0, 1), BuildingBlock: TEMPAE_clean_linker_10, # of connection points: 2
#     Edge 134, Type (0, 1), BuildingBlock: TEMPAE_clean_linker_10, # of connection points: 2
#     Edge 135, Type (0, 1), BuildingBlock: TEMPAE_clean_linker_10, # of connection points: 2
# Relax obj value: 0.227
# Max RMSD: 0.329
# Mean RMSD: 0.161
data_MOF--net-gar--node1-TATPOV_clean_sbu_0--node2-NUHQIS_clean_sbu_0--edge1-TEMPAE_clean_linker_10
_symmetry_space_group_name_H-M    P1
_symmetry_Int_Tables_number       1
_symmetry_cell_setting            triclinic
loop_
_symmetry_equiv_pos_as_xyz
'x, y, z'
_cell_length_a     58.419006
_cell_length_b     60.451248
_cell_length_c     58.198863
_cell_angle_alpha  93.912285
_cell_angle_beta   97.607423
_cell_angle_gamma 102.94309
loop_
_atom_site_label
_atom_site_type_symbol
_atom_site_fract_x
_atom_site_fract_y
_atom_site_fract_z
_atom_type_partial_charge
Zn0 Zn 0.05567 0.28701 0.43865 0.0
Zn1 Zn 0.0863 0.29134 0.41059 0.0
O2 O 0.09055 0.32626 0.43148 0.0
O3 O 0.0663 0.31851 0.45714 0.0
O4 O 0.11902 0.2936 0.39219 0.0
O5 O 0.05848 0.25699 0.45207 0.0
O6 O 0.08505 0.25795 0.42867 0.0
C7 C 0.08081 0.33342 0.44858 0.0
C8 C 0.03145 0.28733 0.39117 0.0
O9 O 0.05257 0.28858 0.38579 0.0
O10 O 0.02876 0.28587 0.41232 0.0
C11 C 0.12307 0.2965 0.37099 0.0
O12 O 0.10527 0.29918 0.35598 0.0
C13 C 0.07309 0.24728 0.4437 0.0
Zn14 Zn 0.05637 0.76683 0.67556 0.0
Zn15 Zn 0.0599 0.79945 0.64747 0.0
O16 O 0.02762 0.79943 0.6668 0.0
O17 O 0.02784 0.77224 0.68991 0.0
O18 O 0.06419 0.83132 0.62725 0.0
O19 O 0.09009 0.77832 0.69323 0.0
O20 O 0.09543 0.80491 0.66921 0.0
C21 C 1.01812 0.78772 0.68263 0.0
C22 C 0.05468 0.74466 0.6296 0.0
O23 O 0.05756 0.76587 0.62479 0.0
O24 O 0.05208 0.74045 0.65026 0.0
C25 C 0.05246 0.84736 0.62702 0.0
O26 O 0.0347 0.84482 0.63905 0.0
C27 C 0.10399 0.79474 0.68602 0.0
Zn28 Zn 0.555 0.7878 0.93681 0.0
Zn29 Zn 0.58611 0.79252 0.90933 0.0
O30 O 0.58957 0.82743 0.93028 0.0
O31 O 0.56482 0.81922 0.95542 0.0
O32 O 0.61903 0.79485 0.89109 0.0
O33 O 0.55765 0.7578 0.95028 0.0
O34 O 0.58455 0.75892 0.92723 0.0
C35 C 0.57933 0.83436 0.94713 0.0
C36 C 0.53153 0.78801 0.88904 0.0
O37 O 0.55281 0.7895 0.88405 0.0
O38 O 0.52847 0.78648 0.91009 0.0
C39 C 0.62384 0.79996 0.87059 0.0
O40 O 0.60699 0.80549 0.85648 0.0
C41 C 0.57236 0.74812 0.94204 0.0
Zn42 Zn 0.55603 0.26853 0.17633 0.0
Zn43 Zn 0.5595 0.30071 0.14776 0.0
O44 O 0.52706 0.30082 0.16676 0.0
O45 O 0.52729 0.27393 0.19023 0.0
O46 O 0.56359 0.33241 0.1271 0.0
O47 O 0.58965 0.28011 0.19422 0.0
O48 O 0.59516 0.30625 0.16972 0.0
C49 C 0.51746 0.2892 0.18259 0.0
C50 C 0.55392 0.24573 0.13057 0.0
O51 O 0.55675 0.26682 0.1254 0.0
O52 O 0.55171 0.24189 0.15139 0.0
C53 C 0.5515 0.34817 0.12638 0.0
O54 O 0.53351 0.34546 0.13812 0.0
C55 C 0.60364 0.29633 0.18683 0.0
Zn56 Zn 0.16859 0.87769 0.13045 0.0
Zn57 Zn 0.13524 0.86948 0.16029 0.0
O58 O 0.1231 0.88886 0.1369 0.0
O59 O 0.14941 0.89725 0.11307 0.0
O60 O 0.10964 0.86437 0.18048 0.0
O61 O 0.1606 0.84312 0.12197 0.0
O62 O 0.13453 0.83776 0.14638 0.0
C63 C 0.12982 0.89859 0.11946 0.0
C64 C 0.18719 0.89158 0.17955 0.0
O65 O 0.16571 0.88405 0.18244 0.0
O66 O 0.19279 0.8911 0.15922 0.0
C67 C 0.10727 0.84881 0.19419 0.0
O68 O 0.12265 0.83592 0.19603 0.0
C69 C 0.1454 0.8298 0.13145 0.0
Zn70 Zn 0.48363 0.71384 0.42198 0.0
Zn71 Zn 0.51596 0.72789 0.39263 0.0
O72 O 0.51777 0.75645 0.41377 0.0
O73 O 0.49359 0.74573 0.43906 0.0
O74 O 0.54112 0.73802 0.37282 0.0
O75 O 0.50153 0.69011 0.43143 0.0
O76 O 0.52784 0.70311 0.40883 0.0
C77 C 0.50838 0.76113 0.43145 0.0
C78 C 0.46347 0.71104 0.37306 0.0
O79 O 0.48498 0.71813 0.37004 0.0
O80 O 0.45843 0.70789 0.3933 0.0
C81 C 0.54133 0.75378 0.35943 0.0
O82 O 0.52371 0.76408 0.3575 0.0
C83 C 0.52059 0.68957 0.4235 0.0
Zn84 Zn 0.66468 0.39131 0.63994 0.0
Zn85 Zn 0.63256 0.3747 0.66846 0.0
O86 O 0.62031 0.40032 0.6548 0.0
O87 O 0.64605 0.41525 0.63248 0.0
O88 O 0.60789 0.36354 0.68819 0.0
O89 O 0.65527 0.35986 0.62144 0.0
O90 O 0.63019 0.34735 0.6454 0.0
C91 C 0.62716 0.41498 0.64105 0.0
C92 C 0.68509 0.3912 0.6882 0.0
O93 O 0.66362 0.3832 0.69083 0.0
O94 O 0.69014 0.39621 0.66838 0.0
C95 C 0.60652 0.34612 0.6994 0.0
O96 O 0.62275 0.33423 0.69894 0.0
C97 C 0.64009 0.34384 0.62775 0.0
Zn98 Zn 0.98439 0.2053 0.91247 0.0
Zn99 Zn 1.01837 0.21871 0.88522 0.0
O100 O 1.01707 0.24827 0.90316 0.0
O101 O 0.98946 0.23869 0.92535 0.0
O102 O 0.04369 0.22939 0.86587 0.0
O103 O 1.00462 0.18516 0.92692 0.0
O104 O 0.03201 0.19681 0.90494 0.0
C105 C 1.00489 0.25385 0.91818 0.0
C106 C 0.96725 0.19591 0.86301 0.0
O107 O 0.98872 0.20521 0.86134 0.0
O108 O 0.96103 0.19352 0.88292 0.0
C109 C 0.04242 0.24495 0.85247 0.0
O110 O 0.02362 0.25363 0.85068 0.0
C111 C 0.02452 0.18477 0.92069 0.0
Zn112 Zn 0.55402 0.11345 0.32584 0.0
Zn113 Zn 0.49489 0.13479 0.31305 0.0
O114 O 0.51002 0.15222 0.34545 0.0
O115 O 0.53664 0.13865 0.33152 0.0
O116 O 0.46063 0.13592 0.30756 0.0
O117 O 0.53515 0.13278 0.30681 0.0
O118 O 0.51097 0.14656 0.28459 0.0
C119 C 0.52995 0.14712 0.34923 0.0
C120 C 0.50488 0.0826 0.31833 0.0
O121 O 0.49628 0.10025 0.31534 0.0
O122 O 0.52734 0.08409 0.32306 0.0
C123 C 0.44591 0.1258 0.3199 0.0
O124 O 0.45336 0.11435 0.33659 0.0
C125 C 0.53033 0.14028 0.28735 0.0
Zn126 Zn 0.32001 0.19845 0.52118 0.0
Zn127 Zn 0.34882 0.17208 0.52288 0.0
O128 O 0.35007 0.19019 0.48901 0.0
O129 O 0.32567 0.21275 0.49161 0.0
O130 O 0.37837 0.15265 0.52535 0.0
O131 O 0.33026 0.21653 0.55287 0.0
O132 O 0.35265 0.19202 0.55845 0.0
C133 C 0.33948 0.20511 0.47988 0.0
C134 C 0.29281 0.15163 0.51915 0.0
O135 O 0.31374 0.14743 0.52061 0.0
O136 O 0.29115 0.17213 0.51863 0.0
C137 C 0.39805 0.15662 0.51645 0.0
O138 O 0.40174 0.17404 0.50399 0.0
C139 C 0.34401 0.20841 0.56678 0.0
Zn140 Zn 0.18419 0.09811 0.87346 0.0
Zn141 Zn 0.20647 0.06789 0.85613 0.0
O142 O 0.19772 0.05514 0.88635 0.0
O143 O 0.18328 0.08203 0.90245 0.0
O144 O 0.22408 0.04611 0.84361 0.0
O145 O 0.15774 0.08763 0.84582 0.0
O146 O 0.17783 0.06479 0.83109 0.0
C147 C 0.18927 0.06319 0.90323 0.0
C148 C 0.23012 0.11927 0.86378 0.0
O149 O 0.2305 0.09866 0.85806 0.0
O150 O 0.21202 0.12378 0.87102 0.0
C151 C 0.2421 0.04261 0.85629 0.0
O152 O 0.24859 0.05329 0.87739 0.0
C153 C 0.15974 0.07338 0.82963 0.0
Zn154 Zn 0.35128 0.85716 0.02741 0.0
Zn155 Zn 0.31993 0.88266 0.02846 0.0
O156 O 0.30969 0.86351 0.99607 0.0
O157 O 0.33367 0.84012 0.99731 0.0
O158 O 0.29559 0.90163 0.03035 0.0
O159 O 0.34501 0.84589 0.05805 0.0
O160 O 0.31759 0.86557 0.05803 0.0
C161 C 0.31675 0.84707 0.98658 0.0
C162 C 0.37247 0.90492 0.02884 0.0
O163 O 0.35145 0.90681 0.03052 0.0
O164 O 0.37691 0.88539 0.02657 0.0
C165 C 0.29862 0.91608 0.04808 0.0
O166 O 0.31735 0.91809 0.06401 0.0
C167 C 0.32906 0.85219 0.06773 0.0
Zn168 Zn 0.32381 0.38899 0.03233 0.0
Zn169 Zn 0.29571 0.41541 0.0304 0.0
O170 O 0.29133 0.39521 0.99472 0.0
O171 O 0.3135 0.37064 1.00095 0.0
O172 O 0.26474 0.43285 0.03038 0.0
O173 O 0.31926 0.37465 0.06212 0.0
O174 O 0.29509 0.39742 0.06438 0.0
C175 C 0.29989 0.37861 0.98672 0.0
C176 C 0.35138 0.4358 0.03327 0.0
O177 O 0.33065 0.44044 0.03225 0.0
O178 O 0.35251 0.41516 0.03384 0.0
C179 C 0.25699 0.44699 0.01721 0.0
O180 O 0.2689 0.45349 1.00024 0.0
C181 C 0.30553 0.38253 0.07375 0.0
Zn182 Zn 0.77469 0.23661 0.02528 0.0
Zn183 Zn 0.80621 0.20993 0.02432 0.0
O184 O 0.81037 0.22852 0.99635 0.0
O185 O 0.78562 0.25105 0.99723 0.0
O186 O 0.83038 0.19095 0.02253 0.0
O187 O 0.79018 0.24892 0.05812 0.0
O188 O 0.81575 0.22721 0.05712 0.0
C189 C 0.80118 0.24388 0.98764 0.0
C190 C 0.75284 0.18841 0.01894 0.0
O191 O 0.77426 0.18656 0.0205 0.0
O192 O 0.74832 0.20796 0.02027 0.0
C193 C 0.82542 0.17194 0.00999 0.0
O194 O 0.80396 0.16431 0.9982 0.0
C195 C 0.80744 0.24187 0.06807 0.0
Zn196 Zn 0.08475 0.46872 0.23031 0.0
Zn197 Zn 0.12538 0.45454 0.2332 0.0
O198 O 0.11086 0.4423 0.26147 0.0
O199 O 0.07674 0.45246 0.25799 0.0
O200 O 0.15614 0.44481 0.23585 0.0
O201 O 0.07418 0.45127 0.19883 0.0
O202 O 0.10819 0.44101 0.2004 0.0
C203 C 0.09124 0.44255 0.26864 0.0
C204 C 0.12672 0.50575 0.23678 0.0
O205 O 0.13685 0.4892 0.23665 0.0
O206 O 0.10423 0.50182 0.2343 0.0
C207 C 0.17288 0.45454 0.22544 0.0
O208 O 0.16939 0.47036 0.21188 0.0
C209 C 0.08772 0.44088 0.18955 0.0
Zn210 Zn 0.82574 0.8906 0.53344 0.0
Zn211 Zn 0.79817 0.91761 0.53169 0.0
O212 O 0.79332 0.89734 0.49574 0.0
O213 O 0.81524 0.87254 0.50191 0.0
O214 O 0.76863 0.93706 0.5323 0.0
O215 O 0.82073 0.87604 0.56307 0.0
O216 O 0.79709 0.89929 0.56561 0.0
C217 C 0.80172 0.88061 0.48769 0.0
C218 C 0.85416 0.93701 0.53481 0.0
O219 O 0.83357 0.94194 0.53375 0.0
O220 O 0.85495 0.91627 0.53525 0.0
C221 C 0.7565 0.94547 0.51611 0.0
O222 O 0.76175 0.94318 0.49495 0.0
C223 C 0.80719 0.88408 0.57481 0.0
Zn224 Zn 0.93113 0.98543 0.18618 0.0
Zn225 Zn 0.90882 0.01669 0.20166 0.0
O226 O 0.932 0.01532 0.2302 0.0
O227 O 0.95098 0.99002 0.21856 0.0
O228 O 0.89205 0.03982 0.2125 0.0
O229 O 0.94214 1.00562 0.16182 0.0
O230 O 0.92533 0.03166 0.1759 0.0
C231 C 0.94764 1.00392 0.2344 0.0
C232 C 0.88156 0.96711 0.18611 0.0
O233 O 0.88255 0.98738 0.19446 0.0
O234 O 0.89989 0.96197 0.17999 0.0
C235 C 0.88278 0.03801 0.23103 0.0
O236 O 0.88378 0.02032 0.24272 0.0
C237 C 0.93785 0.02524 0.16167 0.0
Zn238 Zn 0.28189 0.73448 0.51821 0.0
Zn239 Zn 0.31297 0.70811 0.51877 0.0
O240 O 0.31752 0.72582 0.48989 0.0
O241 O 0.29391 0.74945 0.49096 0.0
O242 O 0.33736 0.68915 0.51896 0.0
O243 O 0.29519 0.74725 0.55129 0.0
O244 O 0.32136 0.72612 0.55155 0.0
C245 C 0.30898 0.74162 0.48124 0.0
C246 C 0.25978 0.68629 0.51184 0.0
O247 O 0.2812 0.68429 0.5145 0.0
O248 O 0.25543 0.70591 0.51229 0.0
C249 C 0.33643 0.67471 0.50172 0.0
O250 O 0.31938 0.67239 0.48394 0.0
C251 C 0.31234 0.74059 0.56196 0.0
Zn252 Zn 0.438 0.48095 0.68074 0.0
Zn253 Zn 0.41701 0.51443 0.6932 0.0
O254 O 0.44068 0.51497 0.72209 0.0
O255 O 0.45763 0.48711 0.71327 0.0
O256 O 0.40113 0.53907 0.70234 0.0
O257 O 0.4494 0.49849 0.65466 0.0
O258 O 0.43275 0.52599 0.66545 0.0
C259 C 0.45538 0.50289 0.7277 0.0
C260 C 0.38848 0.46451 0.68165 0.0
O261 O 0.39019 0.48534 0.68858 0.0
O262 O 0.40635 0.45824 0.67582 0.0
C263 C 0.38662 0.536 0.71692 0.0
O264 O 0.38167 0.51625 0.72553 0.0
C265 C 0.44502 0.51783 0.65204 0.0
Zn266 Zn 0.57205 0.97702 0.71965 0.0
Zn267 Zn 0.62835 0.95214 0.73466 0.0
O268 O 0.61118 0.94191 0.76255 0.0
O269 O 0.58838 0.95652 0.73964 0.0
O270 O 0.66189 0.94964 0.74249 0.0
O271 O 0.58724 0.94982 0.71505 0.0
O272 O 0.61334 0.93435 0.70254 0.0
C273 C 0.59287 0.94986 0.75961 0.0
C274 C 0.62215 1.00546 0.72802 0.0
O275 O 0.62926 0.98711 0.73164 0.0
O276 O 0.60006 1.00524 0.72249 0.0
C277 C 0.67523 0.9633 0.75897 0.0
O278 O 0.66652 0.97846 0.77001 0.0
C279 C 0.59412 0.94063 0.69782 0.0
Zn280 Zn 0.8178 0.69713 0.02044 0.0
Zn281 Zn 0.8461 0.67016 0.0224 0.0
O282 O 0.84812 0.68844 0.98861 0.0
O283 O 0.82404 0.71138 0.99087 0.0
O284 O 0.87474 0.64964 0.02483 0.0
O285 O 0.82802 0.715 0.05232 0.0
O286 O 0.8499 0.69009 0.05814 0.0
C287 C 0.83789 0.70355 0.97935 0.0
C288 C 0.78998 0.6505 0.01814 0.0
O289 O 0.81078 0.64602 0.01977 0.0
O290 O 0.78861 0.67108 0.01761 0.0
C291 C 0.89365 0.65196 0.01475 0.0
O292 O 0.89718 0.6683 1.00093 0.0
C293 C 0.84142 0.70665 0.06639 0.0
Zn294 Zn 0.0639 0.60724 0.81581 0.0
Zn295 Zn 0.02483 0.62372 0.80695 0.0
O296 O 0.03748 0.63596 0.84129 0.0
O297 O 0.0704 0.62379 0.84771 0.0
O298 O 0.9948 0.63458 0.80016 0.0
O299 O 0.07756 0.62445 0.79076 0.0
O300 O 0.04507 0.637 0.78242 0.0
C301 C 0.05623 0.6349 0.85468 0.0
C302 C 0.02098 0.57182 0.80352 0.0
O303 O 1.012 0.58908 0.80188 0.0
O304 O 0.04323 0.57468 0.80928 0.0
C305 C 0.97686 0.6252 0.80919 0.0
O306 O 0.97887 0.60945 0.82331 0.0
C307 C 0.06592 0.63614 0.77887 0.0
Zn308 Zn 0.86307 0.35128 0.53375 0.0
Zn309 Zn 0.83219 0.378 0.53654 0.0
O310 O 0.82065 0.35979 0.50408 0.0
O311 O 0.8446 0.33649 0.5028 0.0
O312 O 0.80846 0.39709 0.5401 0.0
O313 O 0.85581 0.33855 0.56378 0.0
O314 O 0.83063 0.36053 0.56558 0.0
C315 C 0.82737 0.34386 0.4933 0.0
C316 C 0.88461 0.39963 0.53673 0.0
O317 O 0.8636 0.40164 0.53814 0.0
O318 O 0.88893 0.38003 0.53447 0.0
C319 C 0.80733 0.41388 0.52836 0.0
O320 O 0.82164 0.41864 0.51282 0.0
C321 C 0.84094 0.34588 0.5743 0.0
Zn322 Zn 0.68049 0.59945 0.37059 0.0
Zn323 Zn 0.70211 0.56982 0.3508 0.0
O324 O 0.69061 0.55408 0.37855 0.0
O325 O 0.67627 0.57976 0.39686 0.0
O326 O 0.71979 0.54857 0.33738 0.0
O327 O 0.65537 0.59217 0.34167 0.0
O328 O 0.67471 0.56951 0.32533 0.0
C329 C 0.681 0.56031 0.39546 0.0
C330 C 0.72763 0.6205 0.36411 0.0
O331 O 0.72708 0.60019 0.35621 0.0
O332 O 0.70966 0.62495 0.37171 0.0
C333 C 0.73695 0.54414 0.35062 0.0
O334 O 0.74219 0.55359 0.37226 0.0
C335 C 0.65723 0.57894 0.32452 0.0
Tb336 Tb 0.04242 0.0473 0.02242 0.0
Eu337 Eu 0.09239 0.05359 0.05947 0.0
C338 C 0.08427 0.02665 0.00902 0.0
C339 C 0.0494 0.01332 0.0577 0.0
C340 C 0.98598 0.05783 0.99604 0.0
C341 C 0.95019 0.06771 0.97804 0.0
C342 C 0.96749 0.05504 0.97734 0.0
C343 C 0.98729 0.07368 0.01519 0.0
C344 C 0.97 0.08617 0.01601 0.0
C345 C 0.95114 0.08315 0.99756 0.0
C346 C 1.00368 0.04402 0.99605 0.0
O347 O 0.03677 0.06378 0.05488 0.0
O348 O 0.07459 0.07898 0.07526 0.0
O349 O 0.10005 0.07637 0.031 0.0
O350 O 0.0625 0.08232 0.02473 0.0
C351 C 0.05158 0.07775 0.07156 0.0
O352 O 0.11051 0.03776 0.08659 0.0
O353 O 0.12915 0.06922 0.07497 0.0
O354 O 0.09178 0.02619 0.03119 0.0
O355 O 0.06774 0.0374 1.00205 0.0
O356 O 0.04382 0.01475 0.03543 0.0
O357 O 0.06044 0.03191 0.07095 0.0
C358 C 0.08513 0.08827 0.02295 0.0
O359 O 0.0243 0.05434 0.9911 0.0
O360 O 1.00591 0.03268 0.0142 0.0
C361 C 0.15039 0.04067 0.08292 0.0
C362 C 0.18318 0.01422 0.07446 0.0
C363 C 0.17621 0.01634 0.0966 0.0
C364 C 0.15998 0.02945 0.10077 0.0
C365 C 0.15751 0.03886 0.06088 0.0
C366 C 0.17391 0.02594 0.05678 0.0
C367 C 0.13101 0.05182 0.08667 0.0
H368 H 0.93577 0.06503 0.96361 0.0
H369 H 0.96627 0.04291 0.96238 0.0
H370 H 1.00158 0.07616 0.02964 0.0
H371 H 0.97139 0.09822 0.03107 0.0
H372 H 0.18322 1.00778 0.1107 0.0
H373 H 0.15445 0.03036 0.11779 0.0
H374 H 0.14996 0.04694 0.04665 0.0
H375 H 0.1788 0.02462 0.03955 0.0
Tb376 Tb 0.33893 0.817 0.28311 0.0
Eu377 Eu 0.29358 0.77223 0.26338 0.0
C378 C 0.2866 0.82319 0.27396 0.0
C379 C 0.31594 0.78328 0.31753 0.0
C380 C 0.38192 0.8751 0.29656 0.0
C381 C 0.38242 0.9142 0.31035 0.0
C382 C 0.37264 0.89072 0.30934 0.0
C383 C 0.40072 0.88347 0.28437 0.0
C384 C 0.41041 0.9069 0.2853 0.0
C385 C 0.40165 0.92253 0.29861 0.0
C386 C 0.37399 0.85017 0.29747 0.0
O387 O 0.35334 0.78902 0.27028 0.0
O388 O 0.32455 0.75771 0.27517 0.0
O389 O 0.31008 0.78609 0.23293 0.0
O390 O 0.32598 0.82324 0.24803 0.0
C391 C 0.34666 0.76737 0.27369 0.0
O392 O 0.2786 0.74188 0.23899 0.0
O393 O 0.25663 0.75382 0.26214 0.0
O394 O 0.27996 0.80377 0.26063 0.0
O395 O 0.30735 0.82942 0.2874 0.0
O396 O 0.33534 0.79581 0.31169 0.0
O397 O 0.29634 0.77571 0.30249 0.0
C398 C 0.31804 0.8077 0.23017 0.0
O399 O 0.35693 0.84286 0.30944 0.0
O400 O 0.37186 0.83715 0.27813 0.0
C401 C 0.2456 0.71472 0.24738 0.0
C402 C 0.22214 0.66864 0.2477 0.0
C403 C 0.21315 0.68235 0.23193 0.0
C404 C 0.22478 0.70514 0.23179 0.0
C405 C 0.25459 0.70134 0.26345 0.0
C406 C 0.24286 0.67842 0.26367 0.0
C407 C 0.25777 0.73844 0.24573 0.0
H408 H 0.37514 0.92583 0.32057 0.0
H409 H 0.35822 0.88484 0.31902 0.0
H410 H 0.40844 0.87183 0.27465 0.0
H411 H 0.42543 0.9127 0.27633 0.0
H412 H 0.19702 0.67546 0.21971 0.0
H413 H 0.2176 0.71527 0.2193 0.0
H414 H 0.27073 0.70852 0.27558 0.0
H415 H 0.25026 0.66825 0.27594 0.0
Tb416 Tb 0.56185 0.03142 0.50789 0.0
Eu417 Eu 0.59548 0.0727 0.54375 0.0
C418 C 0.57122 0.02497 0.56156 0.0
C419 C 0.5388 0.07238 0.52743 0.0
C420 C 0.53185 0.97467 0.47826 0.0
C421 C 0.5354 0.94054 0.49665 0.0
C422 C 0.53889 0.96421 0.49791 0.0
C423 C 0.52136 0.96135 0.45735 0.0
C424 C 0.51803 0.93769 0.456 0.0
C425 C 0.52505 0.92703 0.47562 0.0
C426 C 0.53617 0.99949 0.47926 0.0
O427 O 0.58012 0.05585 0.48681 0.0
O428 O 0.58589 0.08816 0.51122 0.0
O429 O 0.62095 0.05127 0.53168 0.0
O430 O 0.59409 0.01782 0.51752 0.0
C431 C 0.58303 0.07797 0.49024 0.0
O432 O 0.6277 0.10001 0.55021 0.0
O433 O 0.60535 0.09339 0.57721 0.0
O434 O 0.58805 0.04374 0.56549 0.0
O435 O 0.5574 0.01878 0.54143 0.0
O436 O 0.53836 0.0558 0.51104 0.0
O437 O 0.55793 0.07956 0.54353 0.0
C438 C 0.61645 0.02917 0.52455 0.0
O439 O 0.52852 1.00933 0.49632 0.0
O440 O 0.55765 1.00999 0.47695 0.0
C441 C 0.62444 0.13151 0.57422 0.0
C442 C 0.62709 0.17862 0.58061 0.0
C443 C 0.60536 0.16321 0.57166 0.0
C444 C 0.60408 0.13984 0.5684 0.0
C445 C 0.64615 0.14676 0.58293 0.0
C446 C 0.6475 0.17014 0.58607 0.0
C447 C 0.6234 0.10708 0.57054 0.0
H448 H 0.54082 0.93284 0.5121 0.0
H449 H 0.54723 0.97438 0.51415 0.0
H450 H 0.51606 0.96926 0.442 0.0
H451 H 0.51046 0.92782 0.43942 0.0
H452 H 0.58928 0.16915 0.56754 0.0
H453 H 0.58718 0.12827 0.5614 0.0
H454 H 0.66208 0.14058 0.58722 0.0
H455 H 0.66457 0.18158 0.59261 0.0
Tb456 Tb 0.2946 0.2869 0.76777 0.0
Eu457 Eu 0.35078 0.29708 0.78783 0.0
C458 C 0.32875 0.33204 0.75876 0.0
C459 C 0.33008 0.27298 0.7338 0.0
C460 C 0.22936 0.28381 0.76094 0.0
C461 C 0.18783 0.28427 0.7512 0.0
C462 C 0.2092 0.28181 0.74429 0.0
C463 C 0.22839 0.2897 0.78447 0.0
C464 C 0.207 0.29196 0.79143 0.0
C465 C 0.18627 0.28855 0.77495 0.0
C466 C 0.2504 0.27748 0.75384 0.0
O467 O 0.30416 0.25499 0.77432 0.0
O468 O 0.3312 0.26915 0.80614 0.0
O469 O 0.33593 0.3167 0.81515 0.0
O470 O 0.29618 0.29969 0.80515 0.0
C471 C 0.31527 0.25214 0.79448 0.0
O472 O 0.38096 0.28289 0.79926 0.0
O473 O 0.38516 0.31964 0.80192 0.0
O474 O 0.3469 0.32269 0.76251 0.0
O475 O 0.30812 0.32289 0.76473 0.0
O476 O 0.3094 0.27786 0.73606 0.0
O477 O 0.34738 0.27688 0.75187 0.0
C478 C 0.314 0.31295 0.82005 0.0
O479 O 0.26553 0.29322 0.74582 0.0
O480 O 0.26098 0.26595 0.76815 0.0
C481 C 0.41798 0.30521 0.79459 0.0
C482 C 0.46074 0.30863 0.77644 0.0
C483 C 0.46015 0.30666 0.8003 0.0
C484 C 0.43889 0.30496 0.80929 0.0
C485 C 0.41837 0.30704 0.77076 0.0
C486 C 0.43961 0.30879 0.76175 0.0
C487 C 0.39574 0.30285 0.80413 0.0
H488 H 0.1723 0.28196 0.73804 0.0
H489 H 0.20972 0.27742 0.72603 0.0
H490 H 0.24384 0.29142 0.79759 0.0
H491 H 0.20644 0.29504 0.80988 0.0
H492 H 0.47607 0.30623 0.81198 0.0
H493 H 0.43875 0.30334 0.82771 0.0
H494 H 0.40226 0.30714 0.75919 0.0
H495 H 0.43956 0.31062 0.74336 0.0
Tb496 Tb 0.07192 0.0337 0.50681 0.0
Eu497 Eu 0.07658 0.05983 0.55741 0.0
C498 C 0.12335 0.06195 0.53196 0.0
C499 C 0.07588 1.0045 0.55241 0.0
C500 C 0.05656 0.01329 0.4433 0.0
C501 C 0.03934 0.03296 0.41301 0.0
C502 C 0.05091 0.03322 0.43565 0.0
C503 C 0.05027 0.99311 0.42824 0.0
C504 C 0.03855 0.99279 0.4057 0.0
C505 C 0.03305 0.01272 0.39785 0.0
C506 C 0.06899 0.01311 0.46682 0.0
O507 O 0.03415 0.03124 0.5106 0.0
O508 O 0.03808 0.0394 0.55005 0.0
O509 O 0.07323 0.08821 0.53342 0.0
O510 O 0.07018 0.0689 0.49742 0.0
C511 C 0.02463 0.03109 0.53 0.0
O512 O 0.06205 0.0794 0.58249 0.0
O513 O 0.09702 0.0726 0.59142 0.0
O514 O 0.11293 0.07231 0.54659 0.0
O515 O 0.11093 0.0436 0.51846 0.0
O516 O 0.07229 1.00512 0.52946 0.0
O517 O 0.07994 0.02375 0.56627 0.0
C518 C 0.07174 0.08826 0.51053 0.0
O519 O 0.08527 0.03133 0.47524 0.0
O520 O 0.05571 1.00562 0.48218 0.0
C521 C 0.07546 0.07661 0.62219 0.0
C522 C 0.0759 0.07167 0.66986 0.0
C523 C 0.07295 0.09209 0.66101 0.0
C524 C 0.07282 0.09455 0.63734 0.0
C525 C 0.0763 0.05552 0.63054 0.0
C526 C 0.07653 0.05307 0.65427 0.0
C527 C 0.08029 0.08114 0.59868 0.0
H528 H 0.03506 0.04849 0.40743 0.0
H529 H 0.05548 0.04895 0.44714 0.0
H530 H 0.05451 0.97759 0.43392 0.0
H531 H 0.03408 0.97703 0.39428 0.0
H532 H 0.07208 0.10658 0.67261 0.0
H533 H 0.072 0.11089 0.63111 0.0
H534 H 0.0782 0.04142 0.61901 0.0
H535 H 0.07894 0.03718 0.66059 0.0
Tb536 Tb 0.31379 0.77167 0.77834 0.0
Eu537 Eu 0.33461 0.82514 0.77229 0.0
C538 C 0.31248 0.80943 0.81743 0.0
C539 C 0.2784 0.80106 0.7565 0.0
C540 C 0.30615 0.70908 0.77707 0.0
C541 C 0.31324 0.67274 0.7876 0.0
C542 C 0.30587 0.69269 0.79302 0.0
C543 C 0.31399 0.70533 0.75565 0.0
C544 C 0.32107 0.68533 0.75013 0.0
C545 C 0.32073 0.66884 0.76602 0.0
C546 C 0.29829 0.72997 0.7829 0.0
O547 O 0.3322 0.77022 0.74834 0.0
O548 O 0.33459 0.80649 0.73768 0.0
O549 O 0.36808 0.81192 0.78137 0.0
O550 O 0.35122 0.77899 0.79627 0.0
C551 C 0.3357 0.78525 0.73314 0.0
O552 O 0.33266 0.85512 0.75385 0.0
O553 O 0.35973 0.85774 0.78376 0.0
O554 O 0.32959 0.82333 0.80961 0.0
O555 O 0.30068 0.79035 0.80511 0.0
O556 O 0.28457 0.78133 0.75599 0.0
O557 O 0.29396 0.81976 0.7663 0.0
C558 C 0.37031 0.79455 0.79336 0.0
O559 O 0.31197 0.74448 0.79938 0.0
O560 O 0.29099 0.74014 0.76532 0.0
C561 C 0.34147 0.88845 0.77958 0.0
C562 C 0.32343 0.92436 0.79757 0.0
C563 C 0.33279 0.92564 0.77649 0.0
C564 C 0.34174 0.90778 0.76757 0.0
C565 C 0.33256 0.8873 0.80082 0.0
C566 C 0.32377 0.90514 0.8098 0.0
C567 C 0.34878 0.86881 0.76921 0.0
H568 H 0.3128 0.66023 0.8001 0.0
H569 H 0.29995 0.69532 0.80965 0.0
H570 H 0.31465 0.71783 0.74314 0.0
H571 H 0.32712 0.68287 0.73353 0.0
H572 H 0.33252 0.94009 0.76653 0.0
H573 H 0.34834 0.90882 0.75103 0.0
H574 H 0.33199 0.87241 0.8103 0.0
H575 H 0.31703 0.90378 0.82624 0.0
Tb576 Tb 0.57718 0.03775 0.05628 0.0
Eu577 Eu 0.55592 0.0486 0.00586 0.0
C578 C 0.57282 1.00006 0.01233 0.0
C579 C 0.61058 0.06346 0.02438 0.0
C580 C 0.59959 0.04619 0.11859 0.0
C581 C 0.59926 0.05086 0.16016 0.0
C582 C 0.59953 0.03704 0.14002 0.0
C583 C 0.60148 0.06966 0.11777 0.0
C584 C 0.60091 0.08343 0.13783 0.0
C585 C 0.59853 0.0739 0.15901 0.0
C586 C 0.59275 0.03086 0.097 0.0
O587 O 0.56659 0.07069 0.06459 0.0
O588 O 0.5607 0.08278 0.0282 0.0
O589 O 0.5259 0.04158 0.02652 0.0
O590 O 0.54129 0.01663 0.0472 0.0
C591 C 0.56305 0.08697 0.05114 0.0
O592 O 0.55658 0.06938 0.97672 0.0
O593 O 0.52782 0.03939 0.97589 0.0
O594 O 0.55888 0.01105 1.00014 0.0
O595 O 0.58412 1.00935 0.03333 0.0
O596 O 0.60449 0.06348 0.04521 0.0
O597 O 0.59519 0.05353 0.0062 0.0
C598 C 0.52294 0.02421 0.0388 0.0
O599 O 0.57027 0.02715 0.08864 0.0
O600 O 0.60612 0.03512 0.08082 0.0
C601 C 0.54203 0.04682 0.94086 0.0
C602 C 0.54775 0.02577 0.89818 0.0
C603 C 0.52521 0.02826 0.90212 0.0
C604 C 0.5224 0.03881 0.92333 0.0
C605 C 0.56462 0.04465 0.93679 0.0
C606 C 0.56746 0.03434 0.91556 0.0
C607 C 0.53844 0.05512 0.96405 0.0
H608 H 0.59813 0.04315 0.17637 0.0
H609 H 0.59808 0.01895 0.14093 0.0
H610 H 0.6016 0.07701 0.10132 0.0
H611 H 0.60047 0.10106 0.13627 0.0
H612 H 0.50978 0.02186 0.8889 0.0
H613 H 0.50481 0.04013 0.92631 0.0
H614 H 0.57997 0.05032 0.95024 0.0
H615 H 0.58496 0.03233 0.91305 0.0
Tb616 Tb 0.33359 0.31745 0.28989 0.0
Eu617 Eu 0.30769 0.26896 0.26277 0.0
C618 C 0.33257 0.27284 0.3184 0.0
C619 C 0.36347 0.29281 0.25799 0.0
C620 C 0.34657 0.37916 0.29997 0.0
C621 C 0.32232 0.40665 0.30335 0.0
C622 C 0.33375 0.39084 0.31321 0.0
C623 C 0.35005 0.38552 0.27764 0.0
C624 C 0.33874 0.40144 0.26783 0.0
C625 C 0.32368 0.41118 0.28011 0.0
C626 C 0.35208 0.35787 0.30761 0.0
O627 O 0.32245 0.32643 0.25404 0.0
O628 O 0.29923 0.29269 0.23534 0.0
O629 O 0.2795 0.27627 0.28442 0.0
O630 O 0.29608 0.31376 0.29716 0.0
C631 C 0.30891 0.31462 0.23507 0.0
O632 O 0.31178 0.23758 0.24518 0.0
O633 O 0.27645 0.24176 0.2482 0.0
O634 O 0.3219 0.25989 0.29899 0.0
O635 O 0.33905 0.2953 0.31827 0.0
O636 O 0.36395 0.30574 0.27745 0.0
O637 O 0.34304 0.27924 0.24813 0.0
C638 C 0.27823 0.29546 0.29589 0.0
O639 O 0.33499 0.34425 0.31549 0.0
O640 O 0.36182 0.3466 0.29345 0.0
C641 C 0.28498 0.2056 0.25292 0.0
C642 C 0.29639 0.16997 0.27718 0.0
C643 C 0.2959 0.16924 0.25288 0.0
C644 C 0.29021 0.18696 0.24085 0.0
C645 C 0.28228 0.20485 0.27649 0.0
C646 C 0.28768 0.18698 0.28848 0.0
C647 C 0.28931 0.22757 0.24302 0.0
H648 H 0.3108 0.41378 0.31329 0.0
H649 H 0.33091 0.38635 0.3305 0.0
H650 H 0.36005 0.37706 0.26701 0.0
H651 H 0.34053 0.40497 0.25008 0.0
H652 H 0.30255 0.15649 0.24355 0.0
H653 H 0.29254 0.18733 0.2227 0.0
H654 H 0.27834 0.21914 0.28619 0.0
H655 H 0.28731 0.1877 0.30706 0.0
Tb656 Tb 0.56874 0.53349 1.00406 0.0
Eu657 Eu 0.57299 0.55969 0.05455 0.0
C658 C 0.62006 0.56157 0.02978 0.0
C659 C 0.57276 0.50442 0.04982 0.0
C660 C 0.55525 0.5144 0.94016 0.0
C661 C 0.55623 0.50993 0.89862 0.0
C662 C 0.56657 0.5091 0.92147 0.0
C663 C 0.53352 0.52076 0.93582 0.0
C664 C 0.52306 0.52142 0.91292 0.0
C665 C 0.53433 0.51598 0.89412 0.0
C666 C 0.56664 0.51344 0.96395 0.0
O667 O 0.5308 0.53038 0.00765 0.0
O668 O 0.53454 0.53921 0.047 0.0
O669 O 0.57051 0.58818 0.03058 0.0
O670 O 0.56705 0.56875 0.9946 0.0
C671 C 0.5212 0.53053 0.027 0.0
O672 O 0.5581 0.57984 0.07871 0.0
O673 O 0.59253 0.57225 0.08898 0.0
O674 O 0.60959 0.57199 0.0443 0.0
O675 O 0.60766 0.54327 0.01618 0.0
O676 O 0.56926 0.50495 0.02683 0.0
O677 O 0.57653 0.5237 0.0636 0.0
C678 C 0.56897 0.58821 0.0077 0.0
O679 O 0.58302 0.53136 0.97291 0.0
O680 O 0.55274 0.50593 0.97884 0.0
C681 C 0.56997 0.57733 0.11876 0.0
C682 C 0.56864 0.57418 0.16646 0.0
C683 C 0.5646 0.59366 0.15626 0.0
C684 C 0.56538 0.59524 0.13257 0.0
C685 C 0.57169 0.55698 0.12835 0.0
C686 C 0.57106 0.55543 0.15209 0.0
C687 C 0.57579 0.58131 0.09545 0.0
H688 H 0.56516 0.50542 0.88445 0.0
H689 H 0.58339 0.50424 0.92456 0.0
H690 H 0.52465 0.52515 0.95009 0.0
H691 H 0.50627 0.52633 0.9099 0.0
H692 H 0.56234 0.60821 0.16688 0.0
H693 H 0.56379 0.61098 0.12534 0.0
H694 H 0.57503 0.54287 0.11785 0.0
H695 H 0.57435 0.54025 0.15946 0.0
Tb696 Tb 0.81254 0.2738 0.28388 0.0
Eu697 Eu 0.83391 0.32675 0.27654 0.0
C698 C 0.81225 0.31248 0.32202 0.0
C699 C 0.7775 0.30271 0.26042 0.0
C700 C 0.80525 0.21224 0.28989 0.0
C701 C 0.79859 0.17131 0.29084 0.0
C702 C 0.79073 0.19139 0.29352 0.0
C703 C 0.82792 0.21302 0.28406 0.0
C704 C 0.83579 0.19299 0.28135 0.0
C705 C 0.82108 0.17188 0.28444 0.0
C706 C 0.79628 0.23293 0.29108 0.0
O707 O 0.83095 0.27101 0.25409 0.0
O708 O 0.83461 0.30718 0.24272 0.0
O709 O 0.86729 0.31341 0.286 0.0
O710 O 0.85024 0.28062 0.30112 0.0
C711 C 0.83526 0.28575 0.23873 0.0
O712 O 0.83275 0.35593 0.25662 0.0
O713 O 0.85836 0.35975 0.2879 0.0
O714 O 0.82974 0.3257 0.31409 0.0
O715 O 0.79951 0.29395 0.30946 0.0
O716 O 0.78342 0.28287 0.2608 0.0
O717 O 0.79319 0.32151 0.26988 0.0
C718 C 0.86941 0.29599 0.29799 0.0
O719 O 0.80761 0.24893 0.30741 0.0
O720 O 0.79211 0.24107 0.27121 0.0
C721 C 0.8398 0.38985 0.28111 0.0
C722 C 0.82012 0.42577 0.29607 0.0
C723 C 0.83182 0.4271 0.27638 0.0
C724 C 0.84157 0.40922 0.26895 0.0
C725 C 0.82852 0.38865 0.30099 0.0
C726 C 0.81891 0.40649 0.30847 0.0
C727 C 0.84803 0.37019 0.27222 0.0
H728 H 0.78699 0.15533 0.29356 0.0
H729 H 0.77318 0.19059 0.29805 0.0
H730 H 0.83928 0.22906 0.28109 0.0
H731 H 0.85306 0.19394 0.27609 0.0
H732 H 0.83281 0.44163 0.26633 0.0
H733 H 0.85001 0.41028 0.25343 0.0
H734 H 0.82679 0.37372 0.31052 0.0
H735 H 0.81037 0.4051 0.32391 0.0
Tb736 Tb 0.08447 0.53951 0.55614 0.0
Eu737 Eu 0.06173 0.54818 0.5057 0.0
C738 C 0.07809 0.50003 0.51344 0.0
C739 C 0.11631 0.56476 0.52355 0.0
C740 C 0.11428 0.5519 0.61624 0.0
C741 C 0.13245 0.59132 0.63136 0.0
C742 C 0.12635 0.57403 0.61287 0.0
C743 C 0.10943 0.54699 0.63843 0.0
C744 C 0.11513 0.56425 0.65677 0.0
C745 C 0.12616 0.58682 0.65339 0.0
C746 C 0.10319 0.53496 0.59639 0.0
O747 O 0.07342 0.5723 0.56365 0.0
O748 O 0.06489 0.58278 0.52679 0.0
O749 O 0.0317 0.54057 0.52632 0.0
O750 O 0.04867 0.51806 0.54949 0.0
C751 C 0.06823 0.58772 0.54974 0.0
O752 O 0.064 0.56537 0.474 0.0
O753 O 0.03287 0.53881 0.47642 0.0
O754 O 0.06323 0.51033 0.50176 0.0
O755 O 0.09067 0.51034 0.53358 0.0
O756 O 0.1101 0.5661 0.54421 0.0
O757 O 0.10112 0.55302 0.50611 0.0
C758 C 0.02978 0.52432 0.54012 0.0
O759 O 0.08048 0.5332 0.59048 0.0
O760 O 0.1143 0.53535 0.57832 0.0
C761 C 0.05012 0.53669 0.44297 0.0
C762 C 0.05637 0.50507 0.40814 0.0
C763 C 0.03878 0.51748 0.40387 0.0
C764 C 0.03553 0.53311 0.42131 0.0
C765 C 0.06793 0.5246 0.44704 0.0
C766 C 0.07096 0.50885 0.42984 0.0
C767 C 0.04544 0.55063 0.46257 0.0
H768 H 0.14118 0.60835 0.62812 0.0
H769 H 0.13004 0.57824 0.59572 0.0
H770 H 0.0998 0.53011 0.64124 0.0
H771 H 0.10934 0.56001 0.67317 0.0
H772 H 0.02729 0.51478 0.38721 0.0
H773 H 0.02145 0.54202 0.41807 0.0
H774 H 0.07926 0.52702 0.46375 0.0
H775 H 0.08486 0.49978 0.43344 0.0
Tb776 Tb 0.79374 0.78533 0.26919 0.0
Eu777 Eu 0.85055 0.79707 0.28756 0.0
C778 C 0.82614 0.83084 0.25864 0.0
C779 C 0.82849 0.7719 0.23401 0.0
C780 C 0.72832 0.78043 0.26499 0.0
C781 C 0.68663 0.78086 0.25654 0.0
C782 C 0.70763 0.77814 0.24893 0.0
C783 C 0.72813 0.78663 0.28863 0.0
C784 C 0.70711 0.78917 0.29629 0.0
C785 C 0.68594 0.78572 0.2804 0.0
C786 C 0.74921 0.77438 0.25714 0.0
O787 O 0.80493 0.75423 0.27591 0.0
O788 O 0.83264 0.76909 0.30704 0.0
O789 O 0.83607 0.81627 0.31564 0.0
O790 O 0.79627 0.7991 0.30646 0.0
C791 C 0.81638 0.75189 0.29609 0.0
O792 O 0.88232 0.78444 0.29684 0.0
O793 O 0.88437 0.82084 0.30104 0.0
O794 O 0.84476 0.82211 0.26211 0.0
O795 O 0.80585 0.82124 0.26501 0.0
O796 O 0.80765 0.77618 0.23687 0.0
O797 O 0.84631 0.7765 0.25164 0.0
C798 C 0.81429 0.81255 0.32098 0.0
O799 O 0.76337 0.79001 0.24796 0.0
O800 O 0.76093 0.7637 0.27144 0.0
C801 C 0.91791 0.80912 0.29121 0.0
C802 C 0.95993 0.81699 0.27117 0.0
C803 C 0.96072 0.81475 0.29515 0.0
C804 C 0.93985 0.81085 0.30507 0.0
C805 C 0.91693 0.81126 0.26729 0.0
C806 C 0.93779 0.81519 0.25733 0.0
C807 C 0.89617 0.80487 0.30184 0.0
H808 H 0.67077 0.77851 0.24381 0.0
H809 H 0.70752 0.77349 0.2306 0.0
H810 H 0.74396 0.78857 0.30132 0.0
H811 H 0.70722 0.79269 0.3148 0.0
H812 H 0.97743 0.81574 0.3062 0.0
H813 H 0.94083 0.80911 0.32356 0.0
H814 H 0.90006 0.80993 0.25636 0.0
H815 H 0.93662 0.8171 0.23888 0.0
Tb816 Tb 0.84589 0.31275 0.79084 0.0
Eu817 Eu 0.80103 0.26787 0.76986 0.0
C818 C 0.79427 0.31915 0.77843 0.0
C819 C 0.81938 0.28014 0.82409 0.0
C820 C 0.89283 0.36863 0.80484 0.0
C821 C 0.92327 0.40269 0.82007 0.0
C822 C 0.91119 0.38045 0.82225 0.0
C823 C 0.88667 0.37927 0.78502 0.0
C824 C 0.89883 0.40165 0.78278 0.0
C825 C 0.91719 0.41365 0.8004 0.0
C826 C 0.88052 0.34536 0.80819 0.0
O827 O 0.8583 0.28216 0.79664 0.0
O828 O 0.83482 0.2564 0.76746 0.0
O829 O 0.80688 0.2901 0.741 0.0
O830 O 0.84578 0.30919 0.75328 0.0
C831 C 0.85428 0.26327 0.78268 0.0
O832 O 0.78327 0.24114 0.74187 0.0
O833 O 0.76679 0.24557 0.7727 0.0
O834 O 0.7856 0.2974 0.78019 0.0
O835 O 0.81694 0.32767 0.77809 0.0
O836 O 0.82788 0.30125 0.81982 0.0
O837 O 0.81186 0.26339 0.80734 0.0
C838 C 0.82716 0.30239 0.73688 0.0
O839 O 0.85921 0.34269 0.81362 0.0
O840 O 0.88205 0.32891 0.7932 0.0
C841 C 0.75589 0.2088 0.75119 0.0
C842 C 0.73374 0.1618 0.74767 0.0
C843 C 0.73107 0.17455 0.72857 0.0
C844 C 0.74203 0.19775 0.73033 0.0
C845 C 0.75914 0.19616 0.77023 0.0
C846 C 0.74813 0.17283 0.76848 0.0
C847 C 0.76535 0.23368 0.75274 0.0
H848 H 0.93758 0.41124 0.83375 0.0
H849 H 0.91623 0.37243 0.83763 0.0
H850 H 0.87247 0.37033 0.77141 0.0
H851 H 0.89366 0.40966 0.76747 0.0
H852 H 0.71983 0.16679 0.71242 0.0
H853 H 0.73919 0.20724 0.71549 0.0
H854 H 0.76983 0.20435 0.78651 0.0
H855 H 0.75076 0.16348 0.78345 0.0
Tb856 Tb 0.83511 0.81823 0.79105 0.0
Eu857 Eu 0.8085 0.76982 0.76352 0.0
C858 C 0.83433 0.77286 0.81858 0.0
C859 C 0.86553 0.79236 0.7603 0.0
C860 C 0.84673 0.87953 0.80991 0.0
C861 C 0.83224 0.90937 0.82925 0.0
C862 C 0.84371 0.89144 0.83041 0.0
C863 C 0.83976 0.88694 0.78827 0.0
C864 C 0.82847 0.90492 0.78712 0.0
C865 C 0.82374 0.91571 0.80753 0.0
C866 C 0.85405 0.85782 0.81115 0.0
O867 O 0.82348 0.82748 0.75536 0.0
O868 O 0.79983 0.79393 0.73656 0.0
O869 O 0.77861 0.77942 0.7812 0.0
O870 O 0.79779 0.81501 0.79875 0.0
C871 C 0.80982 0.81581 0.73635 0.0
O872 O 0.80626 0.74335 0.73527 0.0
O873 O 0.7814 0.73773 0.75962 0.0
O874 O 0.82339 0.76015 0.79915 0.0
O875 O 0.8411 0.7953 0.81858 0.0
O876 O 0.86567 0.8075 0.77794 0.0
O877 O 0.8456 0.77715 0.75199 0.0
C878 C 0.77855 0.79784 0.79478 0.0
O879 O 0.84006 0.84217 0.82032 0.0
O880 O 0.86021 0.84941 0.7924 0.0
C881 C 0.79897 0.70744 0.74934 0.0
C882 C 0.8268 0.67686 0.76354 0.0
C883 C 0.82382 0.68176 0.7402 0.0
C884 C 0.80995 0.69685 0.73315 0.0
C885 C 0.80005 0.70081 0.77209 0.0
C886 C 0.81376 0.6856 0.77908 0.0
C887 C 0.79099 0.72825 0.74383 0.0
H888 H 0.82891 0.9175 0.84524 0.0
H889 H 0.84898 0.886 0.84727 0.0
H890 H 0.84174 0.87803 0.77214 0.0
H891 H 0.82185 0.9092 0.77011 0.0
H892 H 0.83369 0.67541 0.72778 0.0
H893 H 0.80941 0.70168 0.71553 0.0
H894 H 0.7917 0.70854 0.78501 0.0
H895 H 0.81527 0.68176 0.79706 0.0
Tb896 Tb 0.55138 0.54311 0.512 0.0
Eu897 Eu 0.60476 0.55297 0.54446 0.0
C898 C 0.58752 0.51425 0.49985 0.0
C899 C 0.56107 0.51392 0.55222 0.0
C900 C 0.49365 0.55551 0.49134 0.0
C901 C 0.45236 0.55771 0.4885 0.0
C902 C 0.46937 0.545 0.4861 0.0
C903 C 0.5007 0.57883 0.49932 0.0
C904 C 0.48376 0.59152 0.50168 0.0
C905 C 0.45939 0.58117 0.49613 0.0
C906 C 0.51154 0.54217 0.48853 0.0
O907 O 0.55682 0.57393 0.53571 0.0
O908 O 0.58106 0.56603 0.56651 0.0
O909 O 0.60197 0.58268 0.52402 0.0
O910 O 0.57961 0.55913 0.49362 0.0
C911 C 0.56349 0.57492 0.55829 0.0
O912 O 0.62877 0.54802 0.57487 0.0
O913 O 0.64249 0.56933 0.54896 0.0
O914 O 0.60489 0.52932 0.51309 0.0
O915 O 0.56494 0.51472 0.49887 0.0
O916 O 0.5462 0.52517 0.5427 0.0
O917 O 0.58358 0.51857 0.54981 0.0
C918 C 0.59345 0.57899 0.5018 0.0
O919 O 0.53176 0.55356 0.48373 0.0
O920 O 0.51457 0.52835 0.50429 0.0
C921 C 0.66517 0.54435 0.56373 0.0
C922 C 0.69644 0.51559 0.55812 0.0
C923 C 0.69518 0.52547 0.5804 0.0
C924 C 0.67962 0.53973 0.58317 0.0
C925 C 0.66653 0.53458 0.5415 0.0
C926 C 0.68211 0.52055 0.53873 0.0
C927 C 0.64767 0.55812 0.56657 0.0
H928 H 0.43371 0.54928 0.48392 0.0
H929 H 0.46357 0.52702 0.47998 0.0
H930 H 0.51934 0.58732 0.50371 0.0
H931 H 0.48976 0.60945 0.50798 0.0
H932 H 0.70584 0.52182 0.59572 0.0
H933 H 0.67862 0.54687 0.6005 0.0
H934 H 0.6554 0.53765 0.5262 0.0
H935 H 0.68303 0.51363 0.52134 0.0
Tb936 Tb 0.0551 0.52317 1.00343 0.0
Eu937 Eu 0.08425 0.5589 0.0477 0.0
C938 C 0.05872 0.50781 0.05425 0.0
C939 C 0.03021 0.56249 0.02636 0.0
C940 C 0.02814 0.47006 0.96525 0.0
C941 C 1.00385 0.43282 0.94923 0.0
C942 C 1.00663 0.45637 0.95354 0.0
C943 C 0.04695 0.46 0.97255 0.0
C944 C 0.04426 0.43649 0.96811 0.0
C945 C 0.02262 0.42258 0.95653 0.0
C946 C 0.03026 0.49451 0.97111 0.0
O947 O 0.07366 0.5519 0.98761 0.0
O948 O 0.08161 0.58013 0.01786 0.0
O949 O 0.11062 0.53731 0.03856 0.0
O950 O 0.08911 0.51166 0.00812 0.0
C951 C 0.0791 0.57351 0.99564 0.0
O952 O 0.11711 0.58358 0.06236 0.0
O953 O 0.08937 0.57384 0.08368 0.0
O954 O 0.0642 0.5291 0.0632 0.0
O955 O 0.0574 0.50223 0.03196 0.0
O956 O 0.02935 0.54457 0.01127 0.0
O957 O 0.04945 0.57075 0.04192 0.0
C958 C 0.10898 0.51961 0.02313 0.0
O959 O 0.0229 0.49969 0.99052 0.0
O960 O 0.05047 0.50814 0.96902 0.0
C961 C 0.11169 0.61195 0.08912 0.0
C962 C 0.11743 0.65917 0.09965 0.0
C963 C 0.09529 0.64544 0.08907 0.0
C964 C 0.09249 0.62204 0.08371 0.0
C965 C 0.13364 0.62544 0.10006 0.0
C966 C 0.13653 0.64888 0.10526 0.0
C967 C 0.10952 0.58778 0.08194 0.0
H968 H 0.98684 0.42259 0.94059 0.0
H969 H 0.99183 0.46385 0.94807 0.0
H970 H 0.06365 0.47027 0.98185 0.0
H971 H 0.05919 0.42924 0.97369 0.0
H972 H 0.08016 0.65278 0.08482 0.0
H973 H 0.07543 0.6119 0.07505 0.0
H974 H 0.1487 0.61792 0.10408 0.0
H975 H 0.15389 0.65901 0.11308 0.0
C976 C 0.02887 0.15245 0.94376 0.0
C977 C 0.03943 0.17096 0.93253 0.0
C978 C 0.04275 0.14026 0.95678 0.0
C979 C 0.06787 0.14705 0.95897 0.0
C980 C 0.07864 0.1652 0.94696 0.0
C981 C 0.06423 0.17689 0.9337 0.0
C982 C 0.03046 0.12065 0.96894 0.0
C983 C 0.1053 0.17308 0.94908 0.0
C984 C 0.08995 0.1284 0.01583 0.0
C985 C 0.0921 0.10659 0.00843 0.0
C986 C 0.08544 0.1435 0.99957 0.0
C987 C 0.08232 0.13611 0.9755 0.0
C988 C 0.08768 0.11528 0.96818 0.0
C989 C 0.09267 0.10069 0.9849 0.0
C990 C 0.08063 0.16591 0.00813 0.0
C991 C 0.0848 0.10686 0.94272 0.0
H992 H 1.00969 0.14766 0.94263 0.0
H993 H 0.07244 0.19127 0.92506 0.0
H994 H 0.03699 0.10517 0.96483 0.0
H995 H 0.03457 0.12506 0.9881 0.0
H996 H 1.01084 0.11642 0.96389 0.0
H997 H 0.11069 0.18406 0.93524 0.0
H998 H 0.11238 0.18308 0.96624 0.0
H999 H 0.11369 0.15835 0.94822 0.0
H1000 H 0.08934 0.13274 0.03411 0.0
H1001 H 0.09408 0.08361 0.97929 0.0
H1002 H 0.06115 0.16415 0.00657 0.0
H1003 H 0.08783 0.1796 0.99747 0.0
H1004 H 0.08851 0.17116 0.02668 0.0
H1005 H 0.06571 0.09929 0.93625 0.0
H1006 H 0.09481 0.09354 0.93991 0.0
H1007 H 0.09086 0.12105 0.93219 0.0
C1008 C 0.22904 0.89419 0.19683 0.0
C1009 C 0.20613 0.896 0.19999 0.0
C1010 C 0.24454 0.88923 0.21518 0.0
C1011 C 0.23705 0.8867 0.23723 0.0
C1012 C 0.21598 0.89297 0.2415 0.0
C1013 C 0.20041 0.89714 0.22265 0.0
C1014 C 0.26724 0.88333 0.20996 0.0
C1015 C 0.20848 0.89248 0.26531 0.0
C1016 C 0.24881 0.83216 0.25757 0.0
C1017 C 0.27162 0.83974 0.27043 0.0
C1018 C 0.23651 0.84756 0.24818 0.0
C1019 C 0.24699 0.87128 0.25238 0.0
C1020 C 0.26862 0.87915 0.26786 0.0
C1021 C 0.2809 0.86322 0.27655 0.0
C1022 C 0.21336 0.83819 0.23192 0.0
C1023 C 0.27978 0.90424 0.274 0.0
H1024 H 0.23389 0.89395 0.17948 0.0
H1025 H 0.18303 0.89936 0.2254 0.0
H1026 H 0.28228 0.89171 0.22371 0.0
H1027 H 0.2653 0.86461 0.20968 0.0
H1028 H 0.27174 0.88855 0.19286 0.0
H1029 H 0.19646 0.90408 0.26756 0.0
H1030 H 0.19874 0.87494 0.26745 0.0
H1031 H 0.22416 0.89746 0.27923 0.0
H1032 H 0.24122 0.81402 0.25336 0.0
H1033 H 0.29837 0.86925 0.28686 0.0
H1034 H 0.21531 0.84308 0.21411 0.0
H1035 H 0.19905 0.84544 0.23781 0.0
H1036 H 0.20759 0.8193 0.23086 0.0
H1037 H 0.29351 0.90978 0.26278 0.0
H1038 H 0.28882 0.90749 0.29236 0.0
H1039 H 0.26653 0.9148 0.27161 0.0
C1040 C 0.50507 0.79037 0.46263 0.0
C1041 C 0.51349 0.78496 0.44198 0.0
C1042 C 0.50785 0.81317 0.4714 0.0
C1043 C 0.51901 0.83082 0.45903 0.0
C1044 C 0.52838 0.82545 0.43872 0.0
C1045 C 0.52564 0.80258 0.43052 0.0
C1046 C 0.49807 0.81834 0.49338 0.0
C1047 C 0.54029 0.84386 0.42497 0.0
C1048 C 0.50201 0.88754 0.46062 0.0
C1049 C 0.52236 0.90199 0.47375 0.0
C1050 C 0.50029 0.86411 0.4565 0.0
C1051 C 0.51926 0.85489 0.46603 0.0
C1052 C 0.53926 0.86914 0.48042 0.0
C1053 C 0.54066 0.8926 0.48398 0.0
C1054 C 0.47868 0.84942 0.441 0.0
C1055 C 0.55967 0.85981 0.49112 0.0
H1056 H 0.49586 0.77682 0.47169 0.0
H1057 H 0.53225 0.79855 0.41458 0.0
H1058 H 0.51157 0.83114 0.50562 0.0
H1059 H 0.48251 0.82579 0.48907 0.0
H1060 H 0.49241 0.80283 0.50234 0.0
H1061 H 0.54775 0.83683 0.41028 0.0
H1062 H 0.52721 0.85336 0.41781 0.0
H1063 H 0.55484 0.85629 0.43646 0.0
H1064 H 0.48758 0.89464 0.45312 0.0
H1065 H 0.55653 0.90369 0.49402 0.0
H1066 H 0.4707 0.83454 0.44984 0.0
H1067 H 0.48401 0.84269 0.42481 0.0
H1068 H 0.4649 0.85899 0.4361 0.0
H1069 H 0.55297 0.84419 0.49951 0.0
H1070 H 0.5723 0.87245 0.5043 0.0
H1071 H 0.56951 0.85497 0.47728 0.0
C1072 C 0.58453 0.32063 0.72556 0.0
C1073 C 0.58616 0.3391 0.71204 0.0
C1074 C 0.56494 0.31385 0.73724 0.0
C1075 C 0.54661 0.32577 0.73518 0.0
C1076 C 0.54819 0.34441 0.72158 0.0
C1077 C 0.56795 0.35087 0.71024 0.0
C1078 C 0.56381 0.29396 0.75174 0.0
C1079 C 0.52893 0.3575 0.71887 0.0
C1080 C 0.48402 0.29974 0.74531 0.0
C1081 C 0.48341 0.31116 0.76694 0.0
C1082 C 0.50487 0.30348 0.73523 0.0
C1083 C 0.5256 0.31895 0.74713 0.0
C1084 C 0.52541 0.32973 0.76944 0.0
C1085 C 0.50427 0.32575 0.77906 0.0
C1086 C 0.50442 0.29169 0.71139 0.0
C1087 C 0.54719 0.34633 0.78264 0.0
H1088 H 0.59855 0.31148 0.72703 0.0
H1089 H 0.569 0.36513 0.69978 0.0
H1090 H 0.56254 0.29949 0.77 0.0
H1091 H 0.54763 0.28039 0.74504 0.0
H1092 H 0.5796 0.28659 0.75168 0.0
H1093 H 0.53288 0.37155 0.70759 0.0
H1094 H 0.51171 0.3458 0.7112 0.0
H1095 H 0.52672 0.36488 0.73619 0.0
H1096 H 0.46804 0.28811 0.73608 0.0
H1097 H 0.50387 0.33477 0.79569 0.0
H1098 H 0.51952 0.28336 0.71144 0.0
H1099 H 0.50643 0.30449 0.69856 0.0
H1100 H 0.4876 0.27862 0.70544 0.0
H1101 H 0.56291 0.33884 0.78323 0.0
H1102 H 0.54487 0.35132 0.80076 0.0
H1103 H 0.55103 0.36197 0.77351 0.0
C1104 C 0.07958 0.879 0.60674 0.0
C1105 C 0.05765 0.86932 0.61404 0.0
C1106 C 0.08388 0.9005 0.59668 0.0
C1107 C 0.06594 0.91326 0.59319 0.0
C1108 C 0.04374 0.90326 0.60011 0.0
C1109 C 0.04006 0.88209 0.61032 0.0
C1110 C 0.108 0.90984 0.5901 0.0
C1111 C 0.02355 0.91509 0.59686 0.0
C1112 C 0.07959 0.97956 0.58708 0.0
C1113 C 0.07455 0.98119 0.56284 0.0
C1114 C 0.07759 0.95811 0.59689 0.0
C1115 C 0.07003 0.93681 0.58258 0.0
C1116 C 0.06503 0.93836 0.5581 0.0
C1117 C 0.0674 0.96004 0.54873 0.0
C1118 C 0.08342 0.95829 0.62292 0.0
C1119 C 0.0566 0.91688 0.54158 0.0
H1120 H 0.09371 0.87008 0.60941 0.0
H1121 H 0.02291 0.87546 0.61555 0.0
H1122 H 0.10621 0.91259 0.57136 0.0
H1123 H 0.11617 0.92668 0.60012 0.0
H1124 H 0.12014 0.89828 0.59349 0.0
H1125 H 1.00709 0.90509 0.60224 0.0
H1126 H 0.02874 0.93202 0.60721 0.0
H1127 H 0.0196 0.91808 0.5783 0.0
H1128 H 0.08508 0.99524 0.59865 0.0
H1129 H 0.0632 0.96032 0.53007 0.0
H1130 H 0.09677 0.94811 0.62714 0.0
H1131 H 0.06724 0.95021 0.63007 0.0
H1132 H 0.09044 0.97584 0.63178 0.0
H1133 H 0.06952 0.90598 0.54394 0.0
H1134 H 0.05418 0.92049 0.52307 0.0
H1135 H 0.03942 0.90694 0.54555 0.0
C1136 C 0.49104 0.79693 0.88094 0.0
C1137 C 0.50972 0.78954 0.87193 0.0
C1138 C 0.46949 0.79762 0.86693 0.0
C1139 C 0.46551 0.7905 0.84271 0.0
C1140 C 0.48431 0.78325 0.83321 0.0
C1141 C 0.5061 0.78302 0.84775 0.0
C1142 C 0.45075 0.80591 0.87831 0.0
C1143 C 0.48121 0.77528 0.80766 0.0
C1144 C 0.39877 0.77326 0.81493 0.0
C1145 C 0.39504 0.79287 0.80462 0.0
C1146 C 0.42154 0.77187 0.82624 0.0
C1147 C 0.44163 0.79063 0.82789 0.0
C1148 C 0.43803 0.81034 0.81721 0.0
C1149 C 0.41515 0.81116 0.80574 0.0
C1150 C 0.42396 0.75032 0.83693 0.0
C1151 C 0.45832 0.83104 0.81855 0.0
H1152 H 0.49323 0.80234 0.8994 0.0
H1153 H 0.51997 0.77715 0.84026 0.0
H1154 H 0.44601 0.82034 0.8695 0.0
H1155 H 0.43436 0.79207 0.87646 0.0
H1156 H 0.45667 0.81163 0.89713 0.0
H1157 H 0.49732 0.77058 0.80261 0.0
H1158 H 0.46595 0.76023 0.80331 0.0
H1159 H 0.47704 0.78885 0.79708 0.0
H1160 H 0.38376 0.75885 0.81431 0.0
H1161 H 0.41294 0.82652 0.79807 0.0
H1162 H 0.42798 0.75388 0.85618 0.0
H1163 H 0.439 0.74424 0.83103 0.0
H1164 H 0.40754 0.73647 0.8324 0.0
H1165 H 0.46413 0.83835 0.83697 0.0
H1166 H 0.45335 0.84447 0.80818 0.0
H1167 H 0.47377 0.82615 0.81221 0.0
C1168 C 0.53538 0.20469 0.11251 0.0
C1169 C 0.55373 0.2247 0.11378 0.0
C1170 C 0.53658 0.18307 0.10168 0.0
C1171 C 0.55713 0.18023 0.09213 0.0
C1172 C 0.57573 0.2004 0.09315 0.0
C1173 C 0.57381 0.22205 0.10368 0.0
C1174 C 0.51581 0.16294 0.10102 0.0
C1175 C 0.59834 0.19895 0.08398 0.0
C1176 C 0.56836 0.11823 0.08592 0.0
C1177 C 0.56156 0.11079 0.06188 0.0
C1178 C 0.56744 0.14044 0.09573 0.0
C1179 C 0.55911 0.15633 0.0816 0.0
C1180 C 0.55202 0.14881 0.05739 0.0
C1181 C 0.55352 0.1267 0.04799 0.0
C1182 C 0.57568 0.14701 0.12145 0.0
C1183 C 0.5424 0.16414 0.04121 0.0
H1184 H 0.51998 0.20581 0.12067 0.0
H1185 H 0.5887 0.2367 0.10511 0.0
H1186 H 0.51024 0.15439 0.08302 0.0
H1187 H 0.52116 0.15026 0.1122 0.0
H1188 H 0.50032 0.16797 0.10717 0.0
H1189 H 0.61089 0.2159 0.08508 0.0
H1190 H 0.60722 0.1875 0.09413 0.0
H1191 H 0.59428 0.19141 0.06557 0.0
H1192 H 0.57473 0.1067 0.09724 0.0
H1193 H 0.54804 0.12177 0.02948 0.0
H1194 H 0.5612 0.15163 0.12985 0.0
H1195 H 0.59074 0.16229 0.1241 0.0
H1196 H 0.58144 0.13309 0.13038 0.0
H1197 H 0.52658 0.16854 0.04726 0.0
H1198 H 0.53729 0.15609 0.02297 0.0
H1199 H 0.5559 0.18035 0.04149 0.0
C1200 C 0.14968 0.30173 0.33883 0.0
C1201 C 0.14713 0.29684 0.362 0.0
C1202 C 0.1709 0.30189 0.32901 0.0
C1203 C 0.19119 0.29696 0.34217 0.0
C1204 C 0.18895 0.2921 0.36566 0.0
C1205 C 0.16735 0.29213 0.37517 0.0
C1206 C 0.17148 0.30728 0.30413 0.0
C1207 C 0.20951 0.28666 0.38085 0.0
C1208 C 0.23746 0.27643 0.30744 0.0
C1209 C 0.25604 0.29614 0.30785 0.0
C1210 C 0.217 0.27639 0.31865 0.0
C1211 C 0.21413 0.29654 0.33108 0.0
C1212 C 0.23286 0.3165 0.33166 0.0
C1213 C 0.25321 0.31606 0.32031 0.0
C1214 C 0.19818 0.25449 0.31703 0.0
C1215 C 0.23135 0.33862 0.34426 0.0
H1216 H 0.13477 0.30549 0.32797 0.0
H1217 H 0.16631 0.28825 0.39295 0.0
H1218 H 0.18641 0.32211 0.30339 0.0
H1219 H 0.17463 0.29259 0.29353 0.0
H1220 H 0.1547 0.31119 0.29609 0.0
H1221 H 0.20561 0.28361 0.39869 0.0
H1222 H 0.21393 0.27125 0.37285 0.0
H1223 H 0.22548 0.30091 0.38212 0.0
H1224 H 0.23885 0.2607 0.29824 0.0
H1225 H 0.26701 0.33156 0.32122 0.0
H1226 H 0.18111 0.25677 0.30783 0.0
H1227 H 0.1952 0.25006 0.33476 0.0
H1228 H 0.20304 0.24 0.30763 0.0
H1229 H 0.21548 0.34401 0.33611 0.0
H1230 H 0.24735 0.35252 0.344 0.0
H1231 H 0.2292 0.3362 0.36265 0.0
C1232 C 0.95885 0.0333 0.12779 0.0
C1233 C 0.95045 0.04156 0.14726 0.0
C1234 C 0.97543 0.04767 0.11695 0.0
C1235 C 0.98397 0.07091 0.12598 0.0
C1236 C 0.974 0.07982 0.14436 0.0
C1237 C 0.95724 0.06497 0.15482 0.0
C1238 C 0.985 0.03749 0.09684 0.0
C1239 C 0.98213 0.10452 0.15415 0.0
C1240 C 0.04543 0.08342 0.11237 0.0
C1241 C 0.04049 0.08813 0.0893 0.0
C1242 C 0.02778 0.08157 0.12676 0.0
C1243 C 1.00507 0.0845 0.11754 0.0
C1244 C 1.00201 0.09396 0.09613 0.0
C1245 C 0.01992 0.09565 0.08212 0.0
C1246 C 0.03213 0.07255 0.15007 0.0
C1247 C 0.97857 0.09862 0.08621 0.0
H1248 H 0.95332 0.01527 0.12173 0.0
H1249 H 0.95074 0.07145 0.1699 0.0
H1250 H 0.98347 0.04753 0.08169 0.0
H1251 H 1.00411 0.038 0.10201 0.0
H1252 H 0.97545 0.0195 0.09118 0.0
H1253 H 0.96784 0.11031 0.16195 0.0
H1254 H 0.99753 0.10648 0.16813 0.0
H1255 H 0.98776 0.1158 0.14066 0.0
H1256 H 0.06155 0.07798 0.11807 0.0
H1257 H 1.01659 0.10019 0.0645 0.0
H1258 H 0.02448 0.05386 0.14823 0.0
H1259 H 0.02339 0.08053 0.16308 0.0
H1260 H 0.05143 0.0757 0.15673 0.0
H1261 H 0.96747 0.0831 0.07545 0.0
H1262 H 0.98129 0.11268 0.07478 0.0
H1263 H 0.96869 0.10314 0.10016 0.0
C1264 C 0.3074 0.76848 0.45067 0.0
C1265 C 0.31451 0.74927 0.45854 0.0
C1266 C 0.30935 0.77427 0.42799 0.0
C1267 C 0.31853 0.76045 0.41271 0.0
C1268 C 0.32672 0.74161 0.42081 0.0
C1269 C 0.32469 0.73628 0.4437 0.0
C1270 C 0.30075 0.7947 0.42011 0.0
C1271 C 0.33665 0.72651 0.40499 0.0
C1272 C 0.29743 0.76165 0.34833 0.0
C1273 C 0.31677 0.77681 0.34169 0.0
C1274 C 0.29805 0.75569 0.37126 0.0
C1275 C 0.31845 0.76521 0.38798 0.0
C1276 C 0.33818 0.78021 0.38131 0.0
C1277 C 0.33712 0.78579 0.35826 0.0
C1278 C 0.27671 0.73948 0.3777 0.0
C1279 C 0.3602 0.79076 0.39866 0.0
H1280 H 0.29967 0.77871 0.46208 0.0
H1281 H 0.33016 0.72137 0.44961 0.0
H1282 H 0.31482 0.80627 0.41267 0.0
H1283 H 0.28518 0.78899 0.40616 0.0
H1284 H 0.29551 0.80451 0.43456 0.0
H1285 H 0.34392 0.71362 0.41443 0.0
H1286 H 0.32244 0.71746 0.39071 0.0
H1287 H 0.35093 0.73693 0.3968 0.0
H1288 H 0.28171 0.75447 0.33564 0.0
H1289 H 0.35223 0.79746 0.35334 0.0
H1290 H 0.26888 0.74839 0.39084 0.0
H1291 H 0.28218 0.72496 0.3857 0.0
H1292 H 0.26277 0.73264 0.3624 0.0
H1293 H 0.35568 0.80174 0.4126 0.0
H1294 H 0.37444 0.80125 0.39043 0.0
H1295 H 0.36724 0.77725 0.40713 0.0
C1296 C 0.59968 0.94535 0.6565 0.0
C1297 C 0.58528 0.94471 0.67397 0.0
C1298 C 0.59385 0.95464 0.6357 0.0
C1299 C 0.57315 0.96327 0.63246 0.0
C1300 C 0.55729 0.96031 0.64896 0.0
C1301 C 0.56358 0.95105 0.66959 0.0
C1302 C 0.61109 0.95729 0.61833 0.0
C1303 C 0.53488 0.96899 0.64598 0.0
C1304 C 0.58066 0.01746 0.60278 0.0
C1305 C 0.56916 1.00947 0.58008 0.0
C1306 C 0.58149 1.00259 0.62006 0.0
C1307 C 0.5706 0.9791 0.61448 0.0
C1308 C 0.55816 0.971 0.59186 0.0
C1309 C 0.55752 0.98635 0.57488 0.0
C1310 C 0.5947 0.01196 0.64413 0.0
C1311 C 0.54631 0.94607 0.58538 0.0
H1312 H 0.61635 0.94022 0.65972 0.0
H1313 H 0.55215 0.95006 0.68291 0.0
H1314 H 0.6015 0.95291 0.60026 0.0
H1315 H 0.62116 0.97536 0.61984 0.0
H1316 H 0.62399 0.94642 0.62137 0.0
H1317 H 0.52242 0.96154 0.65781 0.0
H1318 H 0.53957 0.98782 0.65 0.0
H1319 H 0.52564 0.96508 0.62775 0.0
H1320 H 0.58949 0.03535 0.60698 0.0
H1321 H 0.54863 0.98006 0.55735 0.0
H1322 H 0.60998 1.00406 0.64824 0.0
H1323 H 0.58288 1.00764 0.65741 0.0
H1324 H 0.60152 0.03078 0.64575 0.0
H1325 H 0.56004 0.936 0.58563 0.0
H1326 H 0.53548 0.94292 0.56777 0.0
H1327 H 0.53473 0.93964 0.59829 0.0
C1328 C 0.29259 0.38165 0.94196 0.0
C1329 C 0.29652 0.36896 0.96098 0.0
C1330 C 0.29375 0.37335 0.91851 0.0
C1331 C 0.29891 0.35165 0.91335 0.0
C1332 C 0.302 0.33856 0.93242 0.0
C1333 C 0.30087 0.34724 0.9555 0.0
C1334 C 0.29023 0.38824 0.89925 0.0
C1335 C 0.30733 0.3154 0.92859 0.0
C1336 C 0.28691 0.31953 0.85047 0.0
C1337 C 0.30961 0.32358 0.84344 0.0
C1338 C 0.28305 0.32888 0.87252 0.0
C1339 C 0.30222 0.34291 0.88861 0.0
C1340 C 0.32507 0.34731 0.88142 0.0
C1341 C 0.32843 0.33775 0.85934 0.0
C1342 C 0.25832 0.32335 0.87878 0.0
C1343 C 0.34631 0.36194 0.89736 0.0
H1344 H 0.28958 0.39852 0.94546 0.0
H1345 H 0.30404 0.33696 0.9696 0.0
H1346 H 0.3071 0.39367 0.89214 0.0
H1347 H 0.27671 0.3785 0.88475 0.0
H1348 H 0.28457 0.40371 0.90536 0.0
H1349 H 0.30799 0.30663 0.94474 0.0
H1350 H 0.29363 0.3044 0.91499 0.0
H1351 H 0.32469 0.31724 0.92226 0.0
H1352 H 0.272 0.30877 0.83878 0.0
H1353 H 0.34612 0.34133 0.85463 0.0
H1354 H 0.2531 0.33929 0.88402 0.0
H1355 H 0.25796 0.31314 0.89392 0.0
H1356 H 0.24496 0.31359 0.86411 0.0
H1357 H 0.34276 0.3787 0.9026 0.0
H1358 H 0.36266 0.36489 0.88907 0.0
H1359 H 0.34961 0.35363 0.91349 0.0
C1360 C 0.98018 0.99577 0.26266 0.0
C1361 C 0.96134 1.00648 0.25805 0.0
C1362 C 0.99266 0.99745 0.28526 0.0
C1363 C 0.98599 1.00999 0.30364 0.0
C1364 C 0.96723 0.02109 0.29907 0.0
C1365 C 0.95518 0.01927 0.2763 0.0
C1366 C 1.01273 0.98554 0.28953 0.0
C1367 C 0.95954 0.03449 0.3183 0.0
C1368 C 1.00092 0.99471 0.36496 0.0
C1369 C 0.02082 0.01231 0.37385 0.0
C1370 C 0.98937 0.9938 0.34212 0.0
C1371 C 0.99807 0.01083 0.32785 0.0
C1372 C 1.01814 0.02868 0.33674 0.0
C1373 C 0.02924 0.02926 0.35973 0.0
C1374 C 0.96783 0.97466 0.33329 0.0
C1375 C 0.02797 0.04703 0.32192 0.0
H1376 H 0.9851 0.98594 0.24863 0.0
H1377 H 0.94062 0.02757 0.27292 0.0
H1378 H 0.02919 0.99789 0.29808 0.0
H1379 H 1.00831 0.97225 0.30153 0.0
H1380 H 1.01638 0.97734 0.27318 0.0
H1381 H 0.94503 0.04263 0.31169 0.0
H1382 H 0.95328 0.02304 0.33144 0.0
H1383 H 0.97482 0.04797 0.32735 0.0
H1384 H 0.99425 0.98174 0.37598 0.0
H1385 H 0.04478 0.04274 0.36655 0.0
H1386 H 0.97105 0.96471 0.31781 0.0
H1387 H 0.95228 0.98178 0.32772 0.0
H1388 H 0.96326 0.96286 0.34669 0.0
H1389 H 0.03309 0.03919 0.30617 0.0
H1390 H 0.04375 0.05969 0.33147 0.0
H1391 H 1.01414 0.05614 0.31589 0.0
C1392 C 0.30586 0.75868 0.59958 0.0
C1393 C 0.32021 0.74818 0.58711 0.0
C1394 C 0.31154 0.76429 0.62372 0.0
C1395 C 0.33239 0.75972 0.63578 0.0
C1396 C 0.34743 0.7498 0.62327 0.0
C1397 C 0.34103 0.74391 0.59907 0.0
C1398 C 0.29483 0.77459 0.6364 0.0
C1399 C 0.37006 0.74516 0.63549 0.0
C1400 C 0.34961 0.79354 0.69514 0.0
C1401 C 0.33897 0.77766 0.70934 0.0
C1402 C 0.34941 0.78737 0.67141 0.0
C1403 C 0.33779 0.76496 0.66156 0.0
C1404 C 0.3283 0.74851 0.67612 0.0
C1405 C 0.32921 0.75502 0.69991 0.0
C1406 C 0.36027 0.80527 0.65661 0.0
C1407 C 0.31545 0.72452 0.6663 0.0
H1408 H 0.28967 0.76194 0.59058 0.0
H1409 H 0.35224 0.73586 0.58955 0.0
H1410 H 0.28829 0.76347 0.6497 0.0
H1411 H 0.30436 0.79144 0.64567 0.0
H1412 H 0.27925 0.7769 0.62445 0.0
H1413 H 0.38061 0.73884 0.62308 0.0
H1414 H 0.38117 0.76092 0.6458 0.0
H1415 H 0.36578 0.73224 0.64788 0.0
H1416 H 0.35745 0.81101 0.70242 0.0
H1417 H 0.32087 0.7427 0.71076 0.0
H1418 H 0.34594 0.81082 0.6457 0.0
H1419 H 0.37076 0.79818 0.64467 0.0
H1420 H 0.37198 0.8205 0.66738 0.0
H1421 H 0.2983 0.72487 0.65571 0.0
H1422 H 0.31173 0.7131 0.68021 0.0
H1423 H 0.32598 0.71715 0.65463 0.0
C1424 C 0.56331 0.96804 0.77554 0.0
C1425 C 0.58126 0.95611 0.77923 0.0
C1426 C 0.55483 0.97754 0.79435 0.0
C1427 C 0.56447 0.97488 0.81731 0.0
C1428 C 0.58133 0.96144 0.82109 0.0
C1429 C 0.58957 0.95221 0.80194 0.0
C1430 C 0.53676 0.9917 0.78967 0.0
C1431 C 0.59181 0.95806 0.84537 0.0
C1432 C 0.56937 0.02257 0.86449 0.0
C1433 C 0.55075 0.01341 0.87645 0.0
C1434 C 0.5737 0.01031 0.84492 0.0
C1435 C 0.55909 0.98831 0.83727 0.0
C1436 C 0.53992 0.97915 0.84898 0.0
C1437 C 0.53592 0.99189 0.86847 0.0
C1438 C 0.59418 0.02072 0.83269 0.0
C1439 C 0.5241 0.95571 0.84131 0.0
H1440 H 0.55663 0.97088 0.75798 0.0
H1441 H 0.6033 0.94281 0.80484 0.0
H1442 H 0.52222 0.9869 0.80017 0.0
H1443 H 0.54541 1.00997 0.79489 0.0
H1444 H 0.52892 0.98976 0.77097 0.0
H1445 H 0.60246 0.94497 0.84528 0.0
H1446 H 0.6035 0.97442 0.85391 0.0
H1447 H 0.57756 0.95289 0.85613 0.0
H1448 H 0.58067 0.03932 0.87058 0.0
H1449 H 0.52168 0.98471 0.87793 0.0
H1450 H 0.58774 0.02131 0.81399 0.0
H1451 H 0.60734 1.01 0.83363 0.0
H1452 H 0.60335 0.03829 0.84046 0.0
H1453 H 0.5167 0.95437 0.82257 0.0
H1454 H 0.50917 0.95162 0.8515 0.0
H1455 H 0.5347 0.94267 0.84341 0.0
C1456 C 0.32 0.36202 0.10787 0.0
C1457 C 0.30369 0.3744 0.09831 0.0
C1458 C 0.31971 0.35358 0.13012 0.0
C1459 C 0.30242 0.35691 0.14419 0.0
C1460 C 0.28577 0.36941 0.13486 0.0
C1461 C 0.28671 0.37809 0.11245 0.0
C1462 C 0.33826 0.34098 0.13863 0.0
C1463 C 0.26691 0.37383 0.14866 0.0
C1464 C 0.29185 0.314 0.19152 0.0
C1465 C 0.30553 0.32616 0.21231 0.0
C1466 C 0.28988 0.32396 0.16992 0.0
C1467 C 0.30198 0.34693 0.16817 0.0
C1468 C 0.31535 0.35947 0.18922 0.0
C1469 C 0.31688 0.34915 0.21065 0.0
C1470 C 0.27502 0.30957 0.14866 0.0
C1471 C 0.32854 0.38391 0.18905 0.0
H1472 H 0.33353 0.3589 0.09786 0.0
H1473 H 0.27393 0.38754 0.10594 0.0
H1474 H 0.34834 0.34942 0.15566 0.0
H1475 H 0.32954 0.32328 0.14137 0.0
H1476 H 0.35103 0.34025 0.12621 0.0
H1477 H 0.25282 0.37985 0.13785 0.0
H1478 H 0.25859 0.35819 0.15624 0.0
H1479 H 0.27521 0.38712 0.1633 0.0
H1480 H 0.28279 0.29635 0.19197 0.0
H1481 H 0.3275 0.35914 0.22616 0.0
H1482 H 0.28663 0.3065 0.13575 0.0
H1483 H 0.2622 0.31874 0.14027 0.0
H1484 H 0.26502 0.29282 0.15289 0.0
H1485 H 0.34113 0.38503 0.17624 0.0
H1486 H 0.3386 0.39141 0.20642 0.0
H1487 H 0.31578 0.39434 0.18353 0.0
C1488 C 0.28545 0.94661 0.07042 0.0
C1489 C 0.28132 0.9303 0.05106 0.0
C1490 C 0.26928 0.96012 0.07377 0.0
C1491 C 0.24837 0.95726 0.0574 0.0
C1492 C 0.24408 0.94087 0.03778 0.0
C1493 C 0.26062 0.9276 0.03483 0.0
C1494 C 0.27456 0.97745 0.09488 0.0
C1495 C 0.22197 0.9373 0.01997 0.0
C1496 C 0.19725 0.97814 0.07851 0.0
C1497 C 0.19964 0.99945 0.0697 0.0
C1498 C 0.21266 0.96404 0.07425 0.0
C1499 C 0.23104 0.97145 0.06094 0.0
C1500 C 0.23341 0.99282 0.05177 0.0
C1501 C 0.21768 1.00654 0.05623 0.0
C1502 C 0.2094 0.9413 0.08419 0.0
C1503 C 0.25282 1.00138 0.03758 0.0
H1504 H 0.30139 0.94887 0.08307 0.0
H1505 H 0.25725 0.91503 0.01983 0.0
H1506 H 0.27519 0.99475 0.08933 0.0
H1507 H 0.26014 0.97364 0.10568 0.0
H1508 H 0.2917 0.97771 0.10587 0.0
H1509 H 0.22126 0.9239 1.00567 0.0
H1510 H 0.20594 0.93234 0.02851 0.0
H1511 H 0.22118 0.95346 0.0123 0.0
H1512 H 0.18317 0.97235 0.08864 0.0
H1513 H 0.21982 0.02305 0.04954 0.0
H1514 H 0.22537 0.94107 0.09674 0.0
H1515 H 0.20745 0.9274 0.07009 0.0
H1516 H 0.19359 0.93759 0.09327 0.0
H1517 H 0.27045 1.00349 0.04839 0.0
H1518 H 0.25171 0.01798 0.03096 0.0
H1519 H 0.25183 0.98874 0.02253 0.0
C1520 C 0.76412 0.61363 0.02989 0.0
C1521 C 0.76661 0.63289 0.01727 0.0
C1522 C 0.74124 0.59993 0.03193 0.0
C1523 C 0.72005 0.60527 0.021 0.0
C1524 C 0.72267 0.62408 0.00746 0.0
C1525 C 0.74553 0.63749 0.00591 0.0
C1526 C 0.73973 0.58021 0.04661 0.0
C1527 C 0.70114 0.63068 0.99515 0.0
C1528 C 0.65777 0.5631 0.011 0.0
C1529 C 0.6463 0.57124 0.02851 0.0
C1530 C 0.68177 0.57334 0.00882 0.0
C1531 C 0.69517 0.59232 0.02453 0.0
C1532 C 0.68386 0.60016 0.04259 0.0
C1533 C 0.65987 0.58973 0.04429 0.0
C1534 C 0.69257 0.56423 0.98916 0.0
C1535 C 0.69694 0.62015 0.05992 0.0
H1536 H 0.77996 0.60988 0.03909 0.0
H1537 H 0.74688 0.65218 0.99604 0.0
H1538 H 0.73174 0.58393 0.06228 0.0
H1539 H 0.72798 0.56451 0.03675 0.0
H1540 H 0.75745 0.57689 0.05235 0.0
H1541 H 0.70598 0.64473 0.98406 0.0
H1542 H 0.68932 0.61576 0.98406 0.0
H1543 H 0.6908 0.63625 0.00819 0.0
H1544 H 0.64781 0.54899 0.99854 0.0
H1545 H 0.65162 0.59639 0.05797 0.0
H1546 H 0.70988 0.56062 0.99597 0.0
H1547 H 0.69609 0.57729 0.97675 0.0
H1548 H 0.6808 0.5484 0.9795 0.0
H1549 H 0.71419 0.61722 0.06794 0.0
H1550 H 0.68655 0.62322 0.07398 0.0
H1551 H 0.70089 0.6358 0.05083 0.0
C1552 C 0.7467 0.52012 0.31831 0.0
C1553 C 0.7504 0.52813 0.34201 0.0
C1554 C 0.7588 0.50436 0.31006 0.0
C1555 C 0.7748 0.4963 0.32595 0.0
C1556 C 0.77889 0.50459 0.34983 0.0
C1557 C 0.76671 0.52049 0.35756 0.0
C1558 C 0.75414 0.49602 0.28444 0.0
C1559 C 0.7957 0.49622 0.3673 0.0
C1560 C 0.78604 0.43822 0.31037 0.0
C1561 C 0.80849 0.444 0.30331 0.0
C1562 C 0.77489 0.45509 0.31773 0.0
C1563 C 0.78636 0.47835 0.31781 0.0
C1564 C 0.80886 0.48435 0.3104 0.0
C1565 C 0.8197 0.46708 0.30327 0.0
C1566 C 0.75087 0.44803 0.32551 0.0
C1567 C 0.82155 0.509 0.3102 0.0
H1568 H 0.73423 0.52607 0.30617 0.0
H1569 H 0.76965 0.5266 0.3759 0.0
H1570 H 0.77112 0.49863 0.27727 0.0
H1571 H 0.74594 0.47743 0.28201 0.0
H1572 H 0.74214 0.50487 0.2742 0.0
H1573 H 0.79761 0.50503 0.38508 0.0
H1574 H 0.78913 0.47762 0.36805 0.0
H1575 H 0.81351 0.49888 0.36182 0.0
H1576 H 0.77707 0.42041 0.31 0.0
H1577 H 0.83714 0.47165 0.29801 0.0
H1578 H 0.73763 0.45498 0.3146 0.0
H1579 H 0.75184 0.45519 0.34378 0.0
H1580 H 0.74439 0.42919 0.32442 0.0
H1581 H 0.8101 0.5179 0.29935 0.0
H1582 H 0.83866 0.51079 0.30333 0.0
H1583 H 0.82514 0.51778 0.32812 0.0
C1584 C 0.92493 0.41827 0.52886 0.0
C1585 C 0.90417 0.4201 0.53767 0.0
C1586 C 0.94395 0.43728 0.52991 0.0
C1587 C 0.94234 0.45859 0.54044 0.0
C1588 C 0.92139 0.46063 0.54927 0.0
C1589 C 0.9024 0.44136 0.54758 0.0
C1590 C 0.96584 0.4345 0.5199 0.0
C1591 C 0.91925 0.483 0.56093 0.0
C1592 C 1.00317 0.49718 0.56091 0.0
C1593 C 1.00607 0.51051 0.54227 0.0
C1594 C 0.98173 0.48132 0.5614 0.0
C1595 C 0.963 0.47842 0.54253 0.0
C1596 C 0.96538 0.49273 0.52429 0.0
C1597 C 0.98687 0.5088 0.5245 0.0
C1598 C 0.97966 0.46673 0.58142 0.0
C1599 C 0.94594 0.48994 0.50371 0.0
H1600 H 0.9263 0.40193 0.52098 0.0
H1601 H 0.8864 0.44281 0.55449 0.0
H1602 H 0.96986 0.44688 0.50692 0.0
H1603 H 0.98139 0.43816 0.53394 0.0
H1604 H 0.96378 0.41702 0.51134 0.0
H1605 H 0.9015 0.4819 0.56629 0.0
H1606 H 0.93301 0.48834 0.5766 0.0
H1607 H 0.92246 0.49656 0.54902 0.0
H1608 H 1.01793 0.49867 0.57481 0.0
H1609 H 0.98907 0.51903 0.51 0.0
H1610 H 0.98011 0.44905 0.57536 0.0
H1611 H 0.96248 0.46594 0.58786 0.0
H1612 H 0.99435 0.47324 0.59616 0.0
H1613 H 0.94461 0.47366 0.493 0.0
H1614 H 0.94937 0.50411 0.49249 0.0
H1615 H 0.9285 0.48904 0.50961 0.0
C1616 C 0.41332 0.13993 0.298 0.0
C1617 C 0.4209 0.12774 0.31598 0.0
C1618 C 0.39016 0.14309 0.29465 0.0
C1619 C 0.37405 0.1338 0.30962 0.0
C1620 C 0.38129 0.12086 0.32738 0.0
C1621 C 0.40471 0.11801 0.3304 0.0
C1622 C 0.38315 0.15698 0.27541 0.0
C1623 C 0.3646 0.1106 0.34359 0.0
C1624 C 0.32837 0.16866 0.30956 0.0
C1625 C 0.3113 0.157 0.29082 0.0
C1626 C 0.34779 0.1599 0.31786 0.0
C1627 C 0.35023 0.13903 0.3071 0.0
C1628 C 0.33156 0.12582 0.29029 0.0
C1629 C 0.31224 0.13498 0.28233 0.0
C1630 C 0.36711 0.17438 0.33611 0.0
C1631 C 0.33321 0.10321 0.27882 0.0
H1632 H 0.42564 0.14738 0.28669 0.0
H1633 H 0.41041 0.10849 0.34429 0.0
H1634 H 0.36715 0.14695 0.26364 0.0
H1635 H 0.37859 0.17249 0.283 0.0
H1636 H 0.39756 0.16237 0.26484 0.0
H1637 H 0.37148 0.09788 0.35366 0.0
H1638 H 0.36227 0.12432 0.35609 0.0
H1639 H 0.34681 0.10226 0.33374 0.0
H1640 H 0.32801 0.18574 0.31622 0.0
H1641 H 0.29884 0.12567 0.2682 0.0
H1642 H 0.38273 0.18182 0.3278 0.0
H1643 H 0.37301 0.16385 0.34954 0.0
H1644 H 0.36117 0.18858 0.34482 0.0
H1645 H 0.34517 0.10627 0.26546 0.0
H1646 H 0.31556 0.09302 0.2701 0.0
H1647 H 0.34084 0.0931 0.29171 0.0
C1648 C 0.41726 0.12436 0.53332 0.0
C1649 C 0.41751 0.14266 0.51935 0.0
C1650 C 0.43609 0.11237 0.53555 0.0
C1651 C 0.45622 0.11836 0.52361 0.0
C1652 C 0.4564 0.1367 0.5095 0.0
C1653 C 0.43754 0.14833 0.50763 0.0
C1654 C 0.43443 0.09315 0.55086 0.0
C1655 C 0.47677 0.14425 0.49616 0.0
C1656 C 0.51736 0.10245 0.54311 0.0
C1657 C 0.51735 0.08373 0.52709 0.0
C1658 C 0.49782 0.11332 0.54252 0.0
C1659 C 0.47694 0.10571 0.52553 0.0
C1660 C 0.47676 0.0867 0.50946 0.0
C1661 C 0.49655 0.07619 0.51039 0.0
C1662 C 0.49972 0.13339 0.56011 0.0
C1663 C 0.45556 0.0775 0.49083 0.0
H1664 H 0.40237 0.11939 0.54266 0.0
H1665 H 0.43865 0.16219 0.49667 0.0
H1666 H 0.43473 0.07717 0.54046 0.0
H1667 H 0.45007 0.09693 0.56481 0.0
H1668 H 0.41801 0.09027 0.55904 0.0
H1669 H 0.47467 0.15872 0.48593 0.0
H1670 H 0.49374 0.1495 0.50839 0.0
H1671 H 0.47822 0.12982 0.48403 0.0
H1672 H 0.53291 0.10889 0.55619 0.0
H1673 H 0.4957 0.06192 0.49773 0.0
H1674 H 0.48433 0.13021 0.56976 0.0
H1675 H 0.49918 0.14885 0.55101 0.0
H1676 H 0.51636 0.1369 0.57283 0.0
H1677 H 0.43912 0.07324 0.49886 0.0
H1678 H 0.45721 0.06203 0.48035 0.0
H1679 H 0.45348 0.09075 0.47895 0.0
C1680 C 0.74631 0.66209 0.36612 0.0
C1681 C 0.7476 0.63944 0.36096 0.0
C1682 C 0.76176 0.68015 0.35814 0.0
C1683 C 0.77907 0.67544 0.3449 0.0
C1684 C 0.78212 0.65292 0.34178 0.0
C1685 C 0.76626 0.63511 0.34978 0.0
C1686 C 0.75801 0.70397 0.36198 0.0
C1687 C 0.80081 0.64733 0.3283 0.0
C1688 C 0.78879 0.71418 0.29707 0.0
C1689 C 0.80902 0.7308 0.30735 0.0
C1690 C 0.77952 0.69554 0.30879 0.0
C1691 C 0.79093 0.69329 0.33125 0.0
C1692 C 0.81219 0.70923 0.34115 0.0
C1693 C 0.82092 0.72794 0.32913 0.0
C1694 C 0.75675 0.67892 0.2976 0.0
C1695 C 0.82509 0.70712 0.36484 0.0
H1696 H 0.73218 0.66566 0.37504 0.0
H1697 H 0.76764 0.61769 0.34601 0.0
H1698 H 0.77518 0.71644 0.36799 0.0
H1699 H 0.75017 0.70896 0.34525 0.0
H1700 H 0.74589 0.70523 0.37495 0.0
H1701 H 0.80406 0.63028 0.33142 0.0
H1702 H 0.79484 0.6473 0.30939 0.0
H1703 H 0.81781 0.66037 0.33303 0.0
H1704 H 0.77954 0.71619 0.28021 0.0
H1705 H 0.83669 0.74065 0.33711 0.0
H1706 H 0.74245 0.67986 0.30816 0.0
H1707 H 0.75913 0.6612 0.29704 0.0
H1708 H 0.7508 0.68245 0.27958 0.0
H1709 H 0.81505 0.71197 0.3785 0.0
H1710 H 0.84331 0.71835 0.36821 0.0
H1711 H 0.8263 0.68923 0.36656 0.0
C1712 C 1.01445 0.5294 0.80402 0.0
C1713 C 1.0052 0.5485 0.79982 0.0
C1714 C 0.99946 0.50746 0.80229 0.0
C1715 C 0.9746 0.50451 0.79612 0.0
C1716 C 0.96521 0.52359 0.79111 0.0
C1717 C 0.9806 0.54534 0.79306 0.0
C1718 C 1.01016 0.48756 0.80785 0.0
C1719 C 0.93883 0.52113 0.78436 0.0
C1720 C 0.93802 0.44384 0.77762 0.0
C1721 C 0.93024 0.43746 0.79853 0.0
C1722 C 0.95202 0.4658 0.77636 0.0
C1723 C 0.95838 0.48171 0.7965 0.0
C1724 C 0.94995 0.47557 0.81744 0.0
C1725 C 0.93596 0.45359 0.81817 0.0
C1726 C 0.96056 0.47177 0.75369 0.0
C1727 C 0.95618 0.49206 0.83927 0.0
H1728 H 0.0334 0.53162 0.80922 0.0
H1729 H 0.97324 0.55996 0.78968 0.0
H1730 H 1.00382 0.48049 0.8236 0.0
H1731 H 1.00433 0.47372 0.79332 0.0
H1732 H 0.02989 0.49247 0.81106 0.0
H1733 H 0.93454 0.53731 0.77931 0.0
H1734 H 0.93168 0.50769 0.7696 0.0
H1735 H 0.92953 0.51576 0.7992 0.0
H1736 H 0.93381 0.43143 0.76242 0.0
H1737 H 0.92963 0.44893 0.83427 0.0
H1738 H 0.9802 0.47474 0.75586 0.0
H1739 H 0.95596 0.48781 0.74871 0.0
H1740 H 0.95277 0.45807 0.73925 0.0
H1741 H 0.97571 0.49657 0.8448 0.0
H1742 H 0.94755 0.48489 0.85391 0.0
H1743 H 0.95072 0.50809 0.83579 0.0
C1744 C 0.12432 0.93001 0.09525 0.0
C1745 C 0.11452 0.91153 0.10693 0.0
C1746 C 0.11008 0.94383 0.08549 0.0
C1747 C 0.08549 0.93865 0.08716 0.0
C1748 C 0.07529 0.91914 0.09761 0.0
C1749 C 0.09001 0.90593 0.10763 0.0
C1750 C 0.12161 0.96473 0.07468 0.0
C1751 C 0.04906 0.91284 0.09918 0.0
C1752 C 0.06065 0.99091 0.08956 0.0
C1753 C 0.05222 0.99148 0.06597 0.0
C1754 C 0.07041 0.97304 0.09693 0.0
C1755 C 0.07118 0.9551 0.08035 0.0
C1756 C 0.06033 0.95431 0.05699 0.0
C1757 C 0.05098 0.97264 0.05001 0.0
C1758 C 0.08177 0.97445 0.12204 0.0
C1759 C 0.06033 0.9351 0.03901 0.0
H1760 H 0.14327 0.93431 0.0947 0.0
H1761 H 0.08236 0.89138 0.11634 0.0
H1762 H 0.11131 0.96582 0.05753 0.0
H1763 H 0.12186 0.98028 0.08611 0.0
H1764 H 0.14015 0.9648 0.07221 0.0
H1765 H 0.04344 0.8955 0.10479 0.0
H1766 H 0.04488 0.92528 0.11193 0.0
H1767 H 0.03841 0.91356 0.0821 0.0
H1768 H 0.06129 1.00529 0.10203 0.0
H1769 H 0.0443 0.97289 0.03177 0.0
H1770 H 0.10134 0.97752 0.12294 0.0
H1771 H 0.07561 0.95814 0.12946 0.0
H1772 H 0.07778 0.98842 0.13307 0.0
H1773 H 0.0784 0.93719 0.0342 0.0
H1774 H 0.04764 0.93488 0.02294 0.0
H1775 H 0.05573 0.91837 0.04611 0.0
C1776 C 0.92467 0.18685 0.8451 0.0
C1777 C 0.9487 0.1924 0.84227 0.0
C1778 C 0.90737 0.19211 0.82872 0.0
C1779 C 0.91439 0.20286 0.80909 0.0
C1780 C 0.93762 0.20416 0.80396 0.0
C1781 C 0.95472 0.19915 0.82081 0.0
C1782 C 0.88248 0.18949 0.83435 0.0
C1783 C 0.94523 0.2139 0.78226 0.0
C1784 C 0.86642 0.22629 0.77498 0.0
C1785 C 0.87102 0.24832 0.7866 0.0
C1786 C 0.88124 0.21148 0.78093 0.0
C1787 C 0.90067 0.21881 0.7992 0.0
C1788 C 0.906 0.24144 0.81007 0.0
C1789 C 0.8913 0.2559 0.80345 0.0
C1790 C 0.87532 0.18783 0.76826 0.0
C1791 C 0.92659 0.25021 0.82963 0.0
H1792 H 0.91967 0.18078 0.86125 0.0
H1793 H 0.97313 0.20266 0.81805 0.0
H1794 H 0.8801 0.20639 0.84089 0.0
H1795 H 0.8692 0.18309 0.81852 0.0
H1796 H 0.87885 0.17762 0.8479 0.0
H1797 H 0.96093 0.20811 0.77761 0.0
H1798 H 0.93053 0.20893 0.76734 0.0
H1799 H 0.95014 0.23281 0.7853 0.0
H1800 H 0.85093 0.22036 0.76172 0.0
H1801 H 0.89532 0.27302 0.81224 0.0
H1802 H 0.86172 0.17651 0.77649 0.0
H1803 H 0.8911 0.18041 0.76877 0.0
H1804 H 0.86764 0.18803 0.74978 0.0
H1805 H 0.92441 0.23962 0.84439 0.0
H1806 H 0.9281 0.26823 0.83624 0.0
H1807 H 0.94353 0.24905 0.82356 0.0
C1808 C 0.65047 0.31464 0.60101 0.0
C1809 C 0.63531 0.32046 0.61597 0.0
C1810 C 0.6482 0.29184 0.59254 0.0
C1811 C 0.63025 0.27457 0.59907 0.0
C1812 C 0.61395 0.28052 0.6129 0.0
C1813 C 0.61673 0.3034 0.62126 0.0
C1814 C 0.66593 0.28611 0.57783 0.0
C1815 C 0.59437 0.2626 0.61998 0.0
C1816 C 0.61585 0.21439 0.56876 0.0
C1817 C 0.62838 0.20339 0.58479 0.0
C1818 C 0.61647 0.23767 0.57298 0.0
C1819 C 0.63004 0.25019 0.59363 0.0
C1820 C 0.64298 0.23926 0.60969 0.0
C1821 C 0.6419 0.21599 0.60513 0.0
C1822 C 0.6024 0.24879 0.55552 0.0
C1823 C 0.6577 0.25208 0.63193 0.0
H1824 H 0.66484 0.32774 0.59679 0.0
H1825 H 0.60477 0.3078 0.6326 0.0
H1826 H 0.67787 0.27722 0.58807 0.0
H1827 H 0.6567 0.27436 0.56224 0.0
H1828 H 0.67699 0.30157 0.57206 0.0
H1829 H 0.58165 0.27023 0.62856 0.0
H1830 H 0.58442 0.25095 0.60457 0.0
H1831 H 0.60223 0.25211 0.63229 0.0
H1832 H 0.60562 0.20481 0.55285 0.0
H1833 H 0.6513 0.20753 0.61778 0.0
H1834 H 0.6143 0.2636 0.5496 0.0
H1835 H 0.5889 0.25537 0.56385 0.0
H1836 H 0.59321 0.23679 0.54004 0.0
H1837 H 0.67079 0.26709 0.62787 0.0
H1838 H 0.66743 0.24126 0.64214 0.0
H1839 H 0.64605 0.25854 0.64299 0.0
C1840 C 0.56135 0.77625 0.32991 0.0
C1841 C 0.56169 0.76067 0.34668 0.0
C1842 C 0.58064 0.78262 0.31772 0.0
C1843 C 0.60073 0.7733 0.32259 0.0
C1844 C 0.60126 0.7578 0.3397 0.0
C1845 C 0.58173 0.75163 0.35145 0.0
C1846 C 0.57944 0.79908 0.29947 0.0
C1847 C 0.62241 0.74757 0.3455 0.0
C1848 C 0.64278 0.7678 0.27954 0.0
C1849 C 0.66295 0.78497 0.28903 0.0
C1850 C 0.62183 0.76475 0.28944 0.0
C1851 C 0.62107 0.77905 0.30947 0.0
C1852 C 0.64088 0.79718 0.3184 0.0
C1853 C 0.66156 0.79997 0.30801 0.0
C1854 C 0.60104 0.7453 0.27933 0.0
C1855 C 0.64072 0.81279 0.33973 0.0
H1856 H 0.54593 0.7833 0.32613 0.0
H1857 H 0.58223 0.73969 0.36448 0.0
H1858 H 0.59487 0.81398 0.3035 0.0
H1859 H 0.58042 0.79065 0.2822 0.0
H1860 H 0.56285 0.80529 0.29822 0.0
H1861 H 0.62027 0.73626 0.35972 0.0
H1862 H 0.62508 0.73749 0.32984 0.0
H1863 H 0.63877 0.76132 0.35085 0.0
H1864 H 0.64371 0.75592 0.26508 0.0
H1865 H 0.67691 0.81352 0.31519 0.0
H1866 H 0.5843 0.75121 0.27723 0.0
H1867 H 0.59908 0.73182 0.29144 0.0
H1868 H 0.60335 0.73759 0.26215 0.0
H1869 H 0.62433 0.81929 0.33799 0.0
H1870 H 0.65639 0.82755 0.34288 0.0
H1871 H 0.64082 0.8031 0.35525 0.0
C1872 C 0.05497 0.21017 0.46069 0.0
C1873 C 0.0743 0.22323 0.45134 0.0
C1874 C 0.05482 0.18839 0.46901 0.0
C1875 C 0.07476 0.17847 0.46895 0.0
C1876 C 0.09444 0.19144 0.4595 0.0
C1877 C 0.09391 0.21315 0.45071 0.0
C1878 C 0.03297 0.17592 0.47805 0.0
C1879 C 0.11649 0.18252 0.45911 0.0
C1880 C 0.08023 0.13255 0.5132 0.0
C1881 C 0.07255 0.1112 0.49949 0.0
C1882 C 0.08169 0.154 0.50358 0.0
C1883 C 0.07492 0.15514 0.47926 0.0
C1884 C 0.06706 0.13363 0.46529 0.0
C1885 C 0.06627 0.11238 0.47532 0.0
C1886 C 0.09064 0.17571 0.51972 0.0
C1887 C 0.05902 0.133 0.43952 0.0
H1888 H 0.03943 0.21702 0.46145 0.0
H1889 H 0.1092 0.22248 0.44389 0.0
H1890 H 0.02656 0.15848 0.46886 0.0
H1891 H 0.03741 0.17409 0.49685 0.0
H1892 H 1.0183 0.18489 0.47581 0.0
H1893 H 0.13038 0.19416 0.45146 0.0
H1894 H 0.12391 0.18022 0.47712 0.0
H1895 H 0.112 0.16555 0.44889 0.0
H1896 H 0.08547 0.13261 0.53177 0.0
H1897 H 0.06031 0.09651 0.46407 0.0
H1898 H 0.07629 0.18495 0.5202 0.0
H1899 H 0.10551 0.18711 0.51314 0.0
H1900 H 0.09687 0.17246 0.53777 0.0
H1901 H 0.04386 0.14126 0.43657 0.0
H1902 H 0.05347 0.11532 0.43076 0.0
H1903 H 0.07357 0.14283 0.43122 0.0
C1904 C 0.64869 0.30991 0.18528 0.0
C1905 C 0.62989 0.30177 0.19771 0.0
C1906 C 0.67296 0.31139 0.19473 0.0
C1907 C 0.67914 0.30491 0.21746 0.0
C1908 C 0.66025 0.29753 0.23032 0.0
C1909 C 0.63628 0.29588 0.22036 0.0
C1910 C 0.69201 0.31913 0.17996 0.0
C1911 C 0.66528 0.29076 0.25462 0.0
C1912 C 0.73706 0.28448 0.2356 0.0
C1913 C 0.75258 0.30368 0.24899 0.0
C1914 C 0.71377 0.28489 0.2249 0.0
C1915 C 0.70494 0.3049 0.22758 0.0
C1916 C 0.72053 0.32438 0.24101 0.0
C1917 C 0.74391 0.3236 0.25127 0.0
C1918 C 0.69846 0.26364 0.21075 0.0
C1919 C 0.71235 0.3461 0.24492 0.0
H1920 H 0.6444 0.31423 0.16771 0.0
H1921 H 0.62228 0.28952 0.23041 0.0
H1922 H 0.70605 0.33344 0.18962 0.0
H1923 H 0.70057 0.30496 0.17605 0.0
H1924 H 0.68484 0.32471 0.16326 0.0
H1925 H 0.64906 0.28688 0.26307 0.0
H1926 H 0.67277 0.27545 0.25399 0.0
H1927 H 0.67873 0.30465 0.26564 0.0
H1928 H 0.74315 0.26892 0.23336 0.0
H1929 H 0.75533 0.33866 0.26145 0.0
H1930 H 0.69206 0.26765 0.19306 0.0
H1931 H 0.68256 0.25717 0.21906 0.0
H1932 H 0.7081 0.24986 0.20905 0.0
H1933 H 0.70647 0.35195 0.22796 0.0
H1934 H 0.72652 0.36 0.25512 0.0
H1935 H 0.69682 0.34285 0.25438 0.0
C1936 C 0.59564 0.87901 0.94846 0.0
C1937 C 0.58156 0.85969 0.95649 0.0
C1938 C 0.5957 0.90206 0.9569 0.0
C1939 C 0.58111 0.90671 0.97376 0.0
C1940 C 0.567 0.88727 0.98183 0.0
C1941 C 0.56751 0.86464 0.97342 0.0
C1942 C 0.61143 0.92161 0.94759 0.0
C1943 C 0.55077 0.89032 0.99932 0.0
C1944 C 0.59214 0.9651 0.01304 0.0
C1945 C 0.57564 0.97651 1.00208 0.0
C1946 C 0.5946 0.94323 1.00381 0.0
C1947 C 0.58013 0.93143 0.98289 0.0
C1948 C 0.56356 0.94293 0.97169 0.0
C1949 C 0.56166 0.96491 0.98113 0.0
C1950 C 0.6128 0.93258 0.01673 0.0
C1951 C 0.54727 0.93173 0.9497 0.0
H1952 H 0.60657 0.87619 0.9354 0.0
H1953 H 0.55625 0.85053 0.9801 0.0
H1954 H 0.60034 0.93168 0.93797 0.0
H1955 H 0.62305 0.93323 0.96223 0.0
H1956 H 0.62273 0.91571 0.93571 0.0
H1957 H 0.54069 0.87379 1.00396 0.0
H1958 H 0.56126 0.90036 0.01547 0.0
H1959 H 0.53791 0.90005 0.99219 0.0
H1960 H 0.60331 0.97332 0.02907 0.0
H1961 H 0.54875 0.97293 0.97209 0.0
H1962 H 0.62455 0.92779 1.00472 0.0
H1963 H 0.60374 0.91669 0.0234 0.0
H1964 H 0.62394 0.9442 0.03166 0.0
H1965 H 0.55785 0.92739 0.93631 0.0
H1966 H 0.53587 0.94279 0.94243 0.0
H1967 H 0.53568 0.91552 0.95332 0.0
C1968 C 0.98051 0.80471 0.6853 0.0
C1969 C 0.99586 0.79087 0.69337 0.0
C1970 C 0.95956 0.80598 0.69552 0.0
C1971 C 0.9532 0.79329 0.7146 0.0
C1972 C 0.96881 0.7796 0.72285 0.0
C1973 C 0.98936 0.77857 0.71237 0.0
C1974 C 0.94398 0.82087 0.68564 0.0
C1975 C 0.96372 0.76567 0.74293 0.0
C1976 C 0.90996 0.80881 0.75646 0.0
C1977 C 0.88818 0.79264 0.74888 0.0
C1978 C 0.93068 0.80953 0.74542 0.0
C1979 C 0.9304 0.7938 0.72583 0.0
C1980 C 0.90843 0.77754 0.71804 0.0
C1981 C 0.88803 0.77717 0.72942 0.0
C1982 C 0.95314 0.82722 0.75496 0.0
C1983 C 0.90642 0.76022 0.69753 0.0
H1984 H 0.98463 0.81438 0.67077 0.0
H1985 H 1.00051 0.76775 0.71931 0.0
H1986 H 0.92589 0.81028 0.67896 0.0
H1987 H 0.94217 0.83356 0.69956 0.0
H1988 H 0.95112 0.83004 0.67126 0.0
H1989 H 0.97758 0.7562 0.74787 0.0
H1990 H 0.96253 0.77695 0.75837 0.0
H1991 H 0.94632 0.75321 0.73827 0.0
H1992 H 0.91091 0.82112 0.77119 0.0
H1993 H 0.87171 0.76455 0.72286 0.0
H1994 H 0.95929 0.83759 0.74097 0.0
H1995 H 0.96742 0.81868 0.76117 0.0
H1996 H 0.95067 0.83879 0.76961 0.0
H1997 H 0.91159 0.769 0.68222 0.0
H1998 H 0.88815 0.74929 0.69272 0.0
H1999 H 0.91886 0.74911 0.70166 0.0
C2000 C 0.18117 0.06028 0.94361 0.0
C2001 C 0.18251 0.04928 0.92208 0.0
C2002 C 0.16723 0.04893 0.9589 0.0
C2003 C 0.15419 0.02613 0.95223 0.0
C2004 C 0.15829 0.014 0.93211 0.0
C2005 C 0.17255 0.0258 0.91715 0.0
C2006 C 0.16401 0.06238 0.98064 0.0
C2007 C 0.14554 0.98945 0.92481 0.0
C2008 C 0.11734 1.00944 0.99906 0.0
C2009 C 0.09803 0.01894 0.99185 0.0
C2010 C 0.1347 1.00858 0.98472 0.0
C2011 C 0.13273 0.01778 0.96308 0.0
C2012 C 0.11163 0.02433 0.95448 0.0
C2013 C 0.09442 0.02466 0.96896 0.0
C2014 C 0.15616 0.99985 0.99351 0.0
C2015 C 0.10852 0.03379 0.93119 0.0
H2016 H 0.18933 0.07835 0.94758 0.0
H2017 H 0.17381 0.01718 0.90056 0.0
H2018 H 0.14614 0.06614 0.97819 0.0
H2019 H 0.16518 0.05239 0.99586 0.0
H2020 H 0.17753 0.07882 0.98469 0.0
H2021 H 0.15678 0.98042 0.91554 0.0
H2022 H 0.1405 0.98022 0.93989 0.0
H2023 H 0.1291 0.98884 0.91257 0.0
H2024 H 0.11985 1.00423 0.0165 0.0
H2025 H 0.07924 0.03144 0.96301 0.0
H2026 H 0.17217 0.0142 0.9971 0.0
H2027 H 0.15943 0.98758 0.97998 0.0
H2028 H 0.15401 0.99132 0.00968 0.0
H2029 H 0.12064 0.05095 0.93221 0.0
H2030 H 0.09004 0.03544 0.92591 0.0
H2031 H 0.11313 0.0227 0.91743 0.0
C2032 C 0.84639 0.32089 0.60607 0.0
C2033 C 0.83694 0.33863 0.59751 0.0
C2034 C 0.84439 0.31494 0.6287 0.0
C2035 C 0.8328 0.32713 0.64319 0.0
C2036 C 0.82286 0.3448 0.63457 0.0
C2037 C 0.82496 0.35028 0.61178 0.0
C2038 C 0.85493 0.29578 0.63721 0.0
C2039 C 0.81042 0.35819 0.64959 0.0
C2040 C 0.81042 0.29884 0.69469 0.0
C2041 C 0.8287 0.30899 0.71302 0.0
C2042 C 0.81144 0.30474 0.67193 0.0
C2043 C 0.83113 0.32132 0.66738 0.0
C2044 C 0.84952 0.33187 0.68582 0.0
C2045 C 0.84814 0.3255 0.70844 0.0
C2046 C 0.79156 0.29302 0.65269 0.0
C2047 C 0.8707 0.34979 0.68162 0.0
H2048 H 0.8556 0.31175 0.59515 0.0
H2049 H 0.8177 0.36408 0.60534 0.0
H2050 H 0.86892 0.30238 0.65248 0.0
H2051 H 0.84104 0.28254 0.643 0.0
H2052 H 0.86285 0.28764 0.62356 0.0
H2053 H 0.80335 0.37119 0.64015 0.0
H2054 H 0.7955 0.3465 0.65577 0.0
H2055 H 0.82296 0.36694 0.66526 0.0
H2056 H 0.79533 0.28604 0.69804 0.0
H2057 H 0.86224 0.33356 0.72253 0.0
H2058 H 0.7987 0.28368 0.63931 0.0
H2059 H 0.78361 0.30586 0.64393 0.0
H2060 H 0.77729 0.28076 0.65921 0.0
H2061 H 0.88059 0.34235 0.66933 0.0
H2062 H 0.88306 0.35691 0.69796 0.0
H2063 H 0.86467 0.36397 0.67344 0.0
C2064 C 0.56449 0.14235 0.37631 0.0
C2065 C 0.54075 0.14394 0.37269 0.0
C2066 C 0.57411 0.13491 0.39687 0.0
C2067 C 0.55944 0.12858 0.41394 0.0
C2068 C 0.53593 0.13169 0.41107 0.0
C2069 C 0.52688 0.13954 0.39045 0.0
C2070 C 0.5994 0.13229 0.39952 0.0
C2071 C 0.51974 0.12501 0.42891 0.0
C2072 C 0.5699 0.07982 0.44808 0.0
C2073 C 0.57998 0.09118 0.47012 0.0
C2074 C 0.56348 0.09191 0.42957 0.0
C2075 C 0.56757 0.11597 0.43314 0.0
C2076 C 0.57876 0.12766 0.45502 0.0
C2077 C 0.58471 0.11509 0.47335 0.0
C2078 C 0.55149 0.07884 0.40644 0.0
C2079 C 0.58378 0.15333 0.45927 0.0
H2080 H 0.57527 0.146 0.36261 0.0
H2081 H 0.50849 0.14073 0.38762 0.0
H2082 H 0.60888 0.13903 0.41728 0.0
H2083 H 0.59938 0.11392 0.39708 0.0
H2084 H 0.60944 0.14121 0.38656 0.0
H2085 H 0.50302 0.13088 0.42538 0.0
H2086 H 0.51512 0.10616 0.42874 0.0
H2087 H 0.52884 0.13219 0.44668 0.0
H2088 H 0.56607 0.06136 0.44549 0.0
H2089 H 0.59257 0.12398 0.49035 0.0
H2090 H 0.56159 0.08501 0.39235 0.0
H2091 H 0.5334 0.0818 0.40215 0.0
H2092 H 0.54994 0.06019 0.40646 0.0
H2093 H 0.59343 0.16134 0.44563 0.0
H2094 H 0.59444 0.15991 0.47662 0.0
H2095 H 0.56678 0.15877 0.4582 0.0
C2096 C 0.84434 0.7388 0.0983 0.0
C2097 C 0.84477 0.71584 0.09227 0.0
C2098 C 0.84313 0.74753 0.12139 0.0
C2099 C 0.84164 0.73313 0.13975 0.0
C2100 C 0.84254 0.70998 0.13398 0.0
C2101 C 0.84425 0.70174 0.11067 0.0
C2102 C 0.84283 0.77232 0.12595 0.0
C2103 C 0.8407 0.69353 0.15234 0.0
C2104 C 0.85466 0.76104 0.2045 0.0
C2105 C 0.83192 0.76153 0.21008 0.0
C2106 C 0.85804 0.75185 0.18219 0.0
C2107 C 0.83832 0.74222 0.16443 0.0
C2108 C 0.81532 0.74235 0.17012 0.0
C2109 C 0.81247 0.75201 0.19239 0.0
C2110 C 0.883 0.75283 0.1775 0.0
C2111 C 0.79347 0.73226 0.15249 0.0
H2112 H 0.84448 0.75009 0.08461 0.0
H2113 H 0.84395 0.68391 0.10665 0.0
H2114 H 0.82537 0.77369 0.13067 0.0
H2115 H 0.85661 0.78063 0.14091 0.0
H2116 H 0.84599 0.78186 0.11057 0.0
H2117 H 0.84281 0.67651 0.14581 0.0
H2118 H 0.85443 0.70041 0.16775 0.0
H2119 H 0.82312 0.69141 0.15827 0.0
H2120 H 0.87006 0.76824 0.21754 0.0
H2121 H 0.79473 0.75195 0.19599 0.0
H2122 H 0.88661 0.76305 0.16268 0.0
H2123 H 0.88498 0.73542 0.17241 0.0
H2124 H 0.89655 0.7605 0.19288 0.0
H2125 H 0.79371 0.7421 0.13708 0.0
H2126 H 0.77679 0.73228 0.1597 0.0
H2127 H 0.79338 0.71445 0.14633 0.0
C2128 C 0.14723 0.05724 0.78809 0.0
C2129 C 0.14213 0.06828 0.8081 0.0
C2130 C 0.13267 0.05549 0.76658 0.0
C2131 C 0.11237 0.06474 0.76514 0.0
C2132 C 0.10605 0.07422 0.7856 0.0
C2133 C 0.12113 0.07605 0.80686 0.0
C2134 C 0.14009 0.04533 0.74512 0.0
C2135 C 0.08424 0.08379 0.7848 0.0
C2136 C 0.09956 0.08897 0.70807 0.0
C2137 C 0.08216 0.07099 0.69527 0.0
C2138 C 0.10871 0.0875 0.73121 0.0
C2139 C 0.10013 0.06759 0.7419 0.0
C2140 C 0.08161 0.04988 0.72955 0.0
C2141 C 0.07295 0.0517 0.70622 0.0
C2142 C 0.1286 0.10672 0.7437 0.0
C2143 C 0.07172 0.02861 0.74058 0.0
H2144 H 0.16332 0.05104 0.78891 0.0
H2145 H 0.11688 0.0843 0.82233 0.0
H2146 H 0.12487 0.03273 0.7347 0.0
H2147 H 0.146 0.05903 0.73395 0.0
H2148 H 0.15486 0.03681 0.7495 0.0
H2149 H 0.07954 0.08679 0.80244 0.0
H2150 H 0.08755 0.10028 0.77707 0.0
H2151 H 0.06882 0.07209 0.77363 0.0
H2152 H 0.10706 0.10375 0.69959 0.0
H2153 H 0.05939 0.03783 0.69639 0.0
H2154 H 0.1451 0.10054 0.74735 0.0
H2155 H 0.12419 0.11261 0.76068 0.0
H2156 H 0.13227 0.12156 0.73336 0.0
H2157 H 0.08496 0.01799 0.74224 0.0
H2158 H 0.05503 0.01822 0.73009 0.0
H2159 H 0.0682 0.03307 0.75838 0.0
C2160 C 0.80137 0.34634 0.45595 0.0
C2161 C 0.81739 0.3358 0.46858 0.0
C2162 C 0.79549 0.34167 0.4316 0.0
C2163 C 0.80611 0.32635 0.41969 0.0
C2164 C 0.82085 0.31443 0.43256 0.0
C2165 C 0.82616 0.31918 0.45681 0.0
C2166 C 0.77918 0.35425 0.41853 0.0
C2167 C 0.8326 0.29797 0.42059 0.0
C2168 C 0.78998 0.30376 0.35569 0.0
C2169 C 0.80811 0.31783 0.34615 0.0
C2170 C 0.78798 0.30724 0.37941 0.0
C2171 C 0.80471 0.32497 0.3939 0.0
C2172 C 0.82219 0.33997 0.38406 0.0
C2173 C 0.82356 0.33631 0.36031 0.0
C2174 C 0.76875 0.29124 0.38917 0.0
C2175 C 0.84047 0.35905 0.39888 0.0
H2176 H 0.79432 0.35905 0.46489 0.0
H2177 H 0.8383 0.31069 0.4664 0.0
H2178 H 0.78985 0.36806 0.4101 0.0
H2179 H 0.76653 0.34262 0.40456 0.0
H2180 H 0.76896 0.36203 0.43027 0.0
H2181 H 0.84185 0.28863 0.43316 0.0
H2182 H 0.81929 0.28535 0.40803 0.0
H2183 H 0.84583 0.30749 0.41059 0.0
H2184 H 0.77779 0.28958 0.34483 0.0
H2185 H 0.83749 0.34744 0.35309 0.0
H2186 H 0.76031 0.30085 0.40115 0.0
H2187 H 0.77667 0.27923 0.39937 0.0
H2188 H 0.75479 0.28112 0.37518 0.0
H2189 H 0.83165 0.36977 0.40926 0.0
H2190 H 0.85179 0.37016 0.38828 0.0
H2191 H 0.85213 0.35174 0.41133 0.0
C2192 C 0.56586 0.13136 0.27332 0.0
C2193 C 0.54414 0.13756 0.26832 0.0
C2194 C 0.57743 0.12463 0.25543 0.0
C2195 C 0.567 0.12412 0.232 0.0
C2196 C 0.54612 0.13223 0.22682 0.0
C2197 C 0.53488 0.13887 0.24513 0.0
C2198 C 0.59971 0.11621 0.2617 0.0
C2199 C 0.53464 0.13217 0.202 0.0
C2200 C 0.60151 0.11044 0.18402 0.0
C2201 C 0.59191 0.0869 0.17867 0.0
C2202 C 0.5935 0.12298 0.20122 0.0
C2203 C 0.57562 0.11163 0.21339 0.0
C2204 C 0.56607 0.08788 0.20822 0.0
C2205 C 0.57422 0.07588 0.19088 0.0
C2206 C 0.60397 0.14832 0.20625 0.0
C2207 C 0.54702 0.07511 0.22087 0.0
H2208 H 0.57331 0.13071 0.29127 0.0
H2209 H 0.51819 0.14386 0.24121 0.0
H2210 H 0.59546 0.09735 0.25817 0.0
H2211 H 0.61334 0.12327 0.25089 0.0
H2212 H 0.6074 0.12085 0.28037 0.0
H2213 H 0.52102 0.14243 0.20083 0.0
H2214 H 0.54816 0.13894 0.19095 0.0
H2215 H 0.52589 0.11437 0.19474 0.0
H2216 H 0.61521 0.11908 0.1747 0.0
H2217 H 0.56615 0.05786 0.18644 0.0
H2218 H 0.61217 0.15248 0.2248 0.0
H2219 H 0.58971 0.15769 0.20333 0.0
H2220 H 0.61764 0.15459 0.19514 0.0
H2221 H 0.55347 0.07712 0.23987 0.0
H2222 H 0.54159 0.05659 0.21483 0.0
H2223 H 0.53109 0.08229 0.21821 0.0
C2224 C 0.82257 0.72299 0.94476 0.0
C2225 C 0.83984 0.71189 0.95486 0.0
C2226 C 0.82297 0.73185 0.92271 0.0
C2227 C 0.84136 0.7303 0.90938 0.0
C2228 C 0.85894 0.71904 0.91922 0.0
C2229 C 0.85792 0.70992 0.94145 0.0
C2230 C 0.80339 0.74303 0.91364 0.0
C2231 C 0.87916 0.71686 0.90632 0.0
C2232 C 0.8283 0.7381 0.84278 0.0
C2233 C 0.83808 0.76154 0.84146 0.0
C2234 C 0.82991 0.72772 0.86417 0.0
C2235 C 0.84183 0.74064 0.88557 0.0
C2236 C 0.85234 0.76415 0.88421 0.0
C2237 C 0.85026 0.77416 0.86262 0.0
C2238 C 0.81803 0.70283 0.86393 0.0
C2239 C 0.86552 0.77906 0.90588 0.0
H2240 H 0.80819 0.72476 0.9542 0.0
H2241 H 0.87156 0.70162 0.94844 0.0
H2242 H 0.81101 0.76113 0.91138 0.0
H2243 H 0.79437 0.73447 0.89628 0.0
H2244 H 0.78987 0.74242 0.92547 0.0
H2245 H 0.89147 0.70783 0.91583 0.0
H2246 H 0.87212 0.70748 0.88885 0.0
H2247 H 0.88933 0.73407 0.90358 0.0
H2248 H 0.81873 0.72776 0.82702 0.0
H2249 H 0.85802 0.79218 0.86245 0.0
H2250 H 0.80308 0.7011 0.87413 0.0
H2251 H 0.83073 0.69358 0.87236 0.0
H2252 H 0.81103 0.69451 0.84598 0.0
H2253 H 0.85288 0.7811 0.91806 0.0
H2254 H 0.87468 0.79625 0.90197 0.0
H2255 H 0.87887 0.77088 0.91497 0.0
C2256 C 0.83723 0.13589 0.99876 0.0
C2257 C 0.84374 0.15875 0.00831 0.0
C2258 C 0.8544 0.1232 0.9969 0.0
C2259 C 0.87869 0.13373 1.00446 0.0
C2260 C 0.88539 0.15683 0.01402 0.0
C2261 C 0.86781 0.16902 0.01599 0.0
C2262 C 0.84656 0.0985 0.98695 0.0
C2263 C 0.91114 0.1687 0.02205 0.0
C2264 C 0.92201 0.09668 0.01943 0.0
C2265 C 0.93232 0.09581 0.99905 0.0
C2266 C 0.90439 0.10879 0.02134 0.0
C2267 C 0.8971 0.12053 1.00251 0.0
C2268 C 0.90746 0.11973 0.98189 0.0
C2269 C 0.92486 0.10722 0.98034 0.0
C2270 C 0.89355 0.10899 0.0435 0.0
C2271 C 0.90036 0.13228 0.96158 0.0
H2272 H 0.81865 0.12782 0.99291 0.0
H2273 H 0.87298 0.18672 0.02328 0.0
H2274 H 0.85485 0.09589 0.97121 0.0
H2275 H 0.85258 0.08749 0.99982 0.0
H2276 H 0.82695 0.09277 0.98215 0.0
H2277 H 0.91342 0.18683 0.02874 0.0
H2278 H 0.91891 0.15979 0.03603 0.0
H2279 H 0.92144 0.16803 0.00741 0.0
H2280 H 0.9276 0.08765 0.03382 0.0
H2281 H 0.93299 0.10674 0.96467 0.0
H2282 H 0.87403 0.10215 0.03947 0.0
H2283 H 0.89668 0.12676 0.05162 0.0
H2284 H 0.90098 0.09872 0.05638 0.0
H2285 H 0.88104 0.12614 0.95523 0.0
H2286 H 0.91021 0.13003 0.94685 0.0
H2287 H 0.90373 0.15077 0.96725 0.0
C2288 C 0.37707 0.4753 0.02643 0.0
C2289 C 0.37497 0.45311 0.0333 0.0
C2290 C 0.39973 0.48978 0.02475 0.0
C2291 C 0.42112 0.48214 0.02998 0.0
C2292 C 0.41898 0.45997 0.03728 0.0
C2293 C 0.39639 0.44606 0.03887 0.0
C2294 C 0.40077 0.51323 0.01706 0.0
C2295 C 0.44073 0.45063 0.04321 0.0
C2296 C 0.48025 0.5069 0.00697 0.0
C2297 C 0.49482 0.51993 0.02677 0.0
C2298 C 0.45618 0.49545 0.00743 0.0
C2299 C 0.4458 0.4969 0.02815 0.0
C2300 C 0.4602 0.51066 0.04792 0.0
C2301 C 0.48421 0.52177 0.04704 0.0
C2302 C 0.44206 0.48104 0.98584 0.0
C2303 C 0.45045 0.51309 0.07047 0.0
H2304 H 0.36102 0.48121 0.02188 0.0
H2305 H 0.39561 0.42917 0.04437 0.0
H2306 H 0.41282 0.5263 0.03022 0.0
H2307 H 0.40823 0.51457 1.0005 0.0
H2308 H 0.38299 0.51719 0.01442 0.0
H2309 H 0.43628 0.43308 0.04858 0.0
H2310 H 0.4502 0.45036 0.02792 0.0
H2311 H 0.45321 0.46186 0.05757 0.0
H2312 H 0.48786 0.50509 0.99114 0.0
H2313 H 0.49486 0.53169 0.06257 0.0
H2314 H 0.42472 0.48558 0.98151 0.0
H2315 H 0.43826 0.46279 0.9891 0.0
H2316 H 0.45164 0.48307 0.97057 0.0
H2317 H 0.43314 0.51789 0.06725 0.0
H2318 H 0.46278 0.52609 0.08353 0.0
H2319 H 0.44725 0.49648 0.07797 0.0
C2320 C 0.3854 0.57708 0.71984 0.0
C2321 C 0.37598 0.5547 0.72457 0.0
C2322 C 0.37583 0.59511 0.72732 0.0
C2323 C 0.35616 0.59059 0.73954 0.0
C2324 C 0.34645 0.56802 0.74424 0.0
C2325 C 0.3566 0.55034 0.73683 0.0
C2326 C 0.38683 0.61901 0.72221 0.0
C2327 C 0.32527 0.56257 0.75695 0.0
C2328 C 0.34537 0.64091 0.77557 0.0
C2329 C 0.3285 0.64781 0.76004 0.0
C2330 C 0.3542 0.62196 0.76932 0.0
C2331 C 0.34569 0.60955 0.74715 0.0
C2332 C 0.32804 0.61601 0.73174 0.0
C2333 C 0.31976 0.63517 0.73833 0.0
C2334 C 0.37322 0.61572 0.78609 0.0
C2335 C 0.31832 0.603 0.70809 0.0
H2336 H 0.40048 0.58058 0.7105 0.0
H2337 H 0.34919 0.53305 0.74045 0.0
H2338 H 0.37346 0.62586 0.71135 0.0
H2339 H 0.39262 0.63043 0.73871 0.0
H2340 H 0.40239 0.61969 0.71296 0.0
H2341 H 0.31976 0.5441 0.75911 0.0
H2342 H 0.32946 0.57233 0.77443 0.0
H2343 H 0.31002 0.56784 0.74728 0.0
H2344 H 0.35225 0.65081 0.79228 0.0
H2345 H 0.3065 0.64039 0.72644 0.0
H2346 H 0.38984 0.6178 0.77834 0.0
H2347 H 0.36773 0.59756 0.78932 0.0
H2348 H 0.3771 0.62645 0.80305 0.0
H2349 H 0.33266 0.60456 0.69714 0.0
H2350 H 0.30353 0.60932 0.69885 0.0
H2351 H 0.31182 0.58459 0.70989 0.0
C2352 C 0.24387 0.64398 0.51073 0.0
C2353 C 0.23977 0.66589 0.50937 0.0
C2354 C 0.22493 0.62494 0.51062 0.0
C2355 C 0.20148 0.62799 0.50923 0.0
C2356 C 0.19717 0.64988 0.50673 0.0
C2357 C 0.21634 0.66852 0.50677 0.0
C2358 C 0.23014 0.60179 0.51306 0.0
C2359 C 0.1724 0.65386 0.50523 0.0
C2360 C 0.14557 0.58021 0.49732 0.0
C2361 C 0.13959 0.57851 0.5198 0.0
C2362 C 0.16652 0.59533 0.49364 0.0
C2363 C 0.18164 0.60905 0.51288 0.0
C2364 C 0.1763 0.60645 0.5357 0.0
C2365 C 0.15539 0.59118 0.53887 0.0
C2366 C 0.17183 0.59746 0.4691 0.0
C2367 C 0.19194 0.62078 0.5567 0.0
H2368 H 0.2619 0.64176 0.51256 0.0
H2369 H 0.21294 0.68534 0.50548 0.0
H2370 H 0.22736 0.5967 0.53063 0.0
H2371 H 0.21779 0.58871 0.50013 0.0
H2372 H 0.24869 0.6017 0.51074 0.0
H2373 H 0.17188 0.67157 0.50162 0.0
H2374 H 0.16012 0.64185 0.49132 0.0
H2375 H 0.16562 0.65061 0.52191 0.0
H2376 H 0.13353 0.57033 0.48252 0.0
H2377 H 0.15106 0.58978 0.55634 0.0
H2378 H 0.19071 0.59753 0.46829 0.0
H2379 H 0.16886 0.6139 0.46349 0.0
H2380 H 0.16035 0.5834 0.45658 0.0
H2381 H 0.2107 0.61984 0.5568 0.0
H2382 H 0.18635 0.61532 0.57336 0.0
H2383 H 0.19127 0.63891 0.55586 0.0
C2384 C 0.71498 0.97686 0.78394 0.0
C2385 C 0.69969 0.96112 0.76661 0.0
C2386 C 0.73765 0.97396 0.79241 0.0
C2387 C 0.745 0.95478 0.78345 0.0
C2388 C 0.72994 0.93928 0.76542 0.0
C2389 C 0.70752 0.9427 0.75716 0.0
C2390 C 0.7534 0.99097 0.81141 0.0
C2391 C 0.73713 0.91856 0.75542 0.0
C2392 C 0.80755 0.94644 0.78925 0.0
C2393 C 0.80662 0.93044 0.80566 0.0
C2394 C 0.78827 0.95627 0.78326 0.0
C2395 C 0.76762 0.94971 0.79378 0.0
C2396 C 0.76747 0.93516 0.81183 0.0
C2397 C 0.78703 0.92574 0.8176 0.0
C2398 C 0.78926 0.97211 0.76427 0.0
C2399 C 0.74577 0.92769 0.82346 0.0
H2400 H 0.70911 0.99127 0.79116 0.0
H2401 H 0.69586 0.93052 0.7437 0.0
H2402 H 0.75503 0.98284 0.82788 0.0
H2403 H 0.77155 0.99647 0.80691 0.0
H2404 H 0.74627 1.0063 0.81453 0.0
H2405 H 0.72371 0.90866 0.74087 0.0
H2406 H 0.75436 0.92378 0.74893 0.0
H2407 H 0.73957 0.90716 0.76925 0.0
H2408 H 0.82282 0.9503 0.7802 0.0
H2409 H 0.78611 0.91322 0.83014 0.0
H2410 H 0.78141 0.98664 0.76871 0.0
H2411 H 0.77872 0.9627 0.74782 0.0
H2412 H 0.80777 0.97888 0.7611 0.0
H2413 H 0.73862 0.94252 0.82856 0.0
H2414 H 0.74964 0.91894 0.8392 0.0
H2415 H 0.73166 0.91572 0.811 0.0
C2416 C 0.72652 0.95959 0.54056 0.0
C2417 C 0.73631 0.95786 0.51969 0.0
C2418 C 0.70734 0.97074 0.54254 0.0
C2419 C 0.6971 0.98087 0.52338 0.0
C2420 C 0.70707 0.97926 0.50246 0.0
C2421 C 0.72601 0.96802 0.50092 0.0
C2422 C 0.69784 0.97155 0.56534 0.0
C2423 C 0.69764 0.98949 0.48133 0.0
C2424 C 0.63301 0.99295 0.51827 0.0
C2425 C 0.63709 0.0167 0.52469 0.0
C2426 C 0.65189 0.98125 0.5183 0.0
C2427 C 0.67625 0.99309 0.52485 0.0
C2428 C 0.68045 0.01702 0.53151 0.0
C2429 C 0.66123 0.02829 0.5314 0.0
C2430 C 0.64566 0.95595 0.51104 0.0
C2431 C 0.70555 0.031 0.53858 0.0
H2432 H 0.7337 0.95205 0.55539 0.0
H2433 H 0.73282 0.96724 0.48453 0.0
H2434 H 0.69956 0.98954 0.57212 0.0
H2435 H 0.67864 0.96303 0.56258 0.0
H2436 H 0.70729 0.96313 0.57869 0.0
H2437 H 0.70715 0.9872 0.46634 0.0
H2438 H 0.67847 0.9815 0.47592 0.0
H2439 H 0.69934 1.008 0.48566 0.0
H2440 H 0.61482 0.98329 0.5131 0.0
H2441 H 0.66528 0.04647 0.53652 0.0
H2442 H 0.65351 0.94694 0.52489 0.0
H2443 H 0.65333 0.95247 0.49511 0.0
H2444 H 0.62615 0.94874 0.50746 0.0
H2445 H 0.71467 0.02369 0.55311 0.0
H2446 H 0.70625 0.04911 0.54413 0.0
H2447 H 0.71563 0.03038 0.52377 0.0
C2448 C 0.356 0.45068 0.70448 0.0
C2449 C 0.36796 0.4468 0.68578 0.0
C2450 C 0.34346 0.43232 0.71475 0.0
C2451 C 0.34259 0.40977 0.70571 0.0
C2452 C 0.35135 0.40596 0.68461 0.0
C2453 C 0.36419 0.42458 0.67498 0.0
C2454 C 0.33404 0.43714 0.73702 0.0
C2455 C 0.34987 0.38215 0.67386 0.0
C2456 C 0.35414 0.36735 0.74796 0.0
C2457 C 0.33154 0.35301 0.74685 0.0
C2458 C 0.35764 0.38637 0.73532 0.0
C2459 C 0.33809 0.39092 0.72081 0.0
C2460 C 0.31506 0.37686 0.72008 0.0
C2461 C 0.31202 0.35809 0.73328 0.0
C2462 C 0.38247 0.40123 0.73703 0.0
C2463 C 0.29386 0.38092 0.70458 0.0
H2464 H 0.35864 0.46785 0.71278 0.0
H2465 H 0.37302 0.42156 0.66021 0.0
H2466 H 0.31698 0.42489 0.73779 0.0
H2467 H 0.347 0.4352 0.75208 0.0
H2468 H 0.33139 0.45477 0.73892 0.0
H2469 H 0.35296 0.38205 0.65543 0.0
H2470 H 0.3636 0.37499 0.68381 0.0
H2471 H 0.33227 0.37079 0.67462 0.0
H2472 H 0.36921 0.36357 0.75862 0.0
H2473 H 0.29452 0.34688 0.73226 0.0
H2474 H 0.38246 0.41935 0.74158 0.0
H2475 H 0.38877 0.40001 0.71992 0.0
H2476 H 0.39534 0.39621 0.7503 0.0
H2477 H 0.29416 0.39936 0.70516 0.0
H2478 H 0.27684 0.37165 0.70954 0.0
H2479 H 0.29443 0.37482 0.6863 0.0
C2480 C 0.16623 0.53378 0.24207 0.0
C2481 C 0.14134 0.52954 0.2397 0.0
C2482 C 0.18034 0.55614 0.24438 0.0
C2483 C 0.16933 0.57475 0.24433 0.0
C2484 C 0.14427 0.57063 0.24226 0.0
C2485 C 0.13058 0.54809 0.23997 0.0
C2486 C 0.207 0.55983 0.24651 0.0
C2487 C 0.13188 0.59004 0.24211 0.0
C2488 C 0.20562 0.63439 0.26778 0.0
C2489 C 0.20983 0.64421 0.24713 0.0
C2490 C 0.19272 0.61168 0.26718 0.0
C2491 C 0.18393 0.5985 0.24544 0.0
C2492 C 0.18864 0.60817 0.22459 0.0
C2493 C 0.20153 0.63087 0.22569 0.0
C2494 C 0.18806 0.60195 0.28978 0.0
C2495 C 0.17977 0.59464 0.20106 0.0
H2496 H 0.17476 0.5196 0.24193 0.0
H2497 H 0.1114 0.54501 0.23821 0.0
H2498 H 0.21333 0.5684 0.23148 0.0
H2499 H 0.21571 0.57121 0.26251 0.0
H2500 H 0.21285 0.54358 0.24709 0.0
H2501 H 0.11234 0.58401 0.24123 0.0
H2502 H 0.13893 0.60209 0.25802 0.0
H2503 H 0.13548 0.59969 0.22692 0.0
H2504 H 0.21185 0.64466 0.28438 0.0
H2505 H 0.20509 0.63824 0.2097 0.0
H2506 H 0.19443 0.58604 0.29101 0.0
H2507 H 0.16866 0.59741 0.29027 0.0
H2508 H 0.19688 0.61411 0.30525 0.0
H2509 H 0.18638 0.57882 0.20033 0.0
H2510 H 0.18547 0.60449 0.18654 0.0
H2511 H 0.16007 0.58943 0.19831 0.0
C2512 C 0.52569 0.65672 0.44554 0.0
C2513 C 0.5351 0.67398 0.43222 0.0
C2514 C 0.53959 0.64259 0.45508 0.0
C2515 C 0.56356 0.64596 0.45136 0.0
C2516 C 0.57311 0.66312 0.43765 0.0
C2517 C 0.5587 0.67692 0.42813 0.0
C2518 C 0.52865 0.62423 0.46941 0.0
C2519 C 0.59862 0.66719 0.43347 0.0
C2520 C 0.59685 0.62029 0.49807 0.0
C2521 C 0.5933 0.59805 0.48744 0.0
C2522 C 0.5894 0.63712 0.48564 0.0
C2523 C 0.57832 0.6314 0.46218 0.0
C2524 C 0.57754 0.60983 0.45065 0.0
C2525 C 0.58513 0.59337 0.46346 0.0
C2526 C 0.59092 0.66012 0.4984 0.0
C2527 C 0.56615 0.60317 0.42556 0.0
H2528 H 0.50744 0.65431 0.44866 0.0
H2529 H 0.56611 0.69034 0.41792 0.0
H2530 H 0.53039 0.60732 0.4622 0.0
H2531 H 0.53818 0.6275 0.48756 0.0
H2532 H 0.50953 0.6234 0.46987 0.0
H2533 H 0.6029 0.68035 0.42127 0.0
H2534 H 0.61068 0.67284 0.45024 0.0
H2535 H 0.60238 0.65112 0.4263 0.0
H2536 H 0.60342 0.62405 0.51656 0.0
H2537 H 0.58286 0.57626 0.45509 0.0
H2538 H 0.57322 0.66074 0.503 0.0
H2539 H 0.59604 0.674 0.48723 0.0
H2540 H 0.60392 0.66339 0.51472 0.0
H2541 H 0.54654 0.59921 0.42459 0.0
H2542 H 0.57117 0.58787 0.418 0.0
H2543 H 0.5712 0.61737 0.41473 0.0
C2544 C 0.69966 0.38843 0.72999 0.0
C2545 C 0.70429 0.39034 0.70708 0.0
C2546 C 0.71559 0.38153 0.74664 0.0
C2547 C 0.73605 0.37573 0.73986 0.0
C2548 C 0.74187 0.37975 0.71741 0.0
C2549 C 0.72606 0.38739 0.70139 0.0
C2550 C 0.70944 0.37858 0.77079 0.0
C2551 C 0.76342 0.37359 0.70938 0.0
C2552 C 0.78509 0.35751 0.77746 0.0
C2553 C 0.77759 0.33371 0.77294 0.0
C2554 C 0.77071 0.37163 0.76856 0.0
C2555 C 0.74885 0.36163 0.75415 0.0
C2556 C 0.74061 0.33757 0.75078 0.0
C2557 C 0.75496 0.32391 0.76054 0.0
C2558 C 0.77959 0.39718 0.77344 0.0
C2559 C 0.71752 0.32617 0.73526 0.0
H2560 H 0.68301 0.39108 0.73457 0.0
H2561 H 0.72979 0.38895 0.68374 0.0
H2562 H 0.70099 0.36041 0.7719 0.0
H2563 H 0.72565 0.38344 0.78409 0.0
H2564 H 0.69681 0.38896 0.77505 0.0
H2565 H 0.76653 0.37963 0.69219 0.0
H2566 H 0.77956 0.38097 0.72224 0.0
H2567 H 0.76094 0.35477 0.70787 0.0
H2568 H 0.80251 0.36511 0.78732 0.0
H2569 H 0.74913 0.30551 0.75697 0.0
H2570 H 0.76477 0.40545 0.77569 0.0
H2571 H 0.78781 0.40408 0.75851 0.0
H2572 H 0.79321 0.40193 0.7893 0.0
H2573 H 0.70264 0.33265 0.7409 0.0
H2574 H 0.71321 0.30732 0.73531 0.0
H2575 H 0.71869 0.33027 0.71708 0.0
C2576 C 0.99134 0.28561 0.93815 0.0
C2577 C 1.00814 0.27825 0.92631 0.0
C2578 C 0.99339 0.30893 0.94426 0.0
C2579 C 1.0128 0.32519 0.93859 0.0
C2580 C 0.03018 0.31781 0.9273 0.0
C2581 C 0.02758 0.29446 0.92119 0.0
C2582 C 0.97442 0.3162 0.95614 0.0
C2583 C 0.05129 0.33463 0.92121 0.0
C2584 C 1.00721 0.38567 0.93099 0.0
C2585 C 0.01961 0.3975 0.95219 0.0
C2586 C 1.00445 0.36206 0.92656 0.0
C2587 C 1.01454 0.34999 0.94363 0.0
C2588 C 0.02694 0.36175 0.96512 0.0
C2589 C 0.02922 0.38534 0.96919 0.0
C2590 C 0.99101 0.35007 0.90346 0.0
C2591 C 0.03805 0.34945 0.98368 0.0
H2592 H 0.97623 0.27321 0.94209 0.0
H2593 H 0.04072 0.28891 0.91217 0.0
H2594 H 0.98257 0.32718 0.97255 0.0
H2595 H 0.96517 0.32649 0.94474 0.0
H2596 H 0.96101 0.30142 0.96025 0.0
H2597 H 0.06382 0.32604 0.91347 0.0
H2598 H 0.04511 0.34578 0.90858 0.0
H2599 H 0.06104 0.34581 0.937 0.0
H2600 H 1.0 0.39495 0.91765 0.0
H2601 H 0.03846 0.39426 0.98578 0.0
H2602 H 0.97642 0.33576 0.90633 0.0
H2603 H 1.00307 0.34268 0.8937 0.0
H2604 H 0.98332 0.36174 0.89249 0.0
H2605 H 0.02433 0.33545 0.98859 0.0
H2606 H 0.04676 0.36103 0.99961 0.0
H2607 H 0.05151 0.34158 0.9768 0.0
C2608 C 0.08344 0.82715 0.22172 0.0
C2609 C 0.08656 0.84453 0.20684 0.0
C2610 C 0.06332 0.82236 0.23298 0.0
C2611 C 0.04593 0.83524 0.22922 0.0
C2612 C 0.04913 0.85298 0.21446 0.0
C2613 C 0.06941 0.85744 0.20348 0.0
C2614 C 0.06053 0.80337 0.2487 0.0
C2615 C 0.03095 0.86707 0.20999 0.0
C2616 C 0.98282 0.80995 0.239 0.0
C2617 C 0.98214 0.82128 0.26066 0.0
C2618 C 1.00357 0.81412 0.2287 0.0
C2619 C 0.02415 0.82997 0.24037 0.0
C2620 C 0.02369 0.84127 0.26236 0.0
C2621 C 1.00267 0.83683 0.27221 0.0
C2622 C 1.00339 0.80173 0.20522 0.0
C2623 C 0.04529 0.85831 0.2753 0.0
H2624 H 0.09661 0.81711 0.22443 0.0
H2625 H 0.07166 0.8709 0.19201 0.0
H2626 H 0.05847 0.81003 0.26636 0.0
H2627 H 0.0442 0.79003 0.24185 0.0
H2628 H 0.07594 0.79534 0.25025 0.0
H2629 H 0.03631 0.88051 0.19836 0.0
H2630 H 1.0136 0.85586 0.20187 0.0
H2631 H 0.02822 0.87533 0.22669 0.0
H2632 H 0.96713 0.79767 0.23014 0.0
H2633 H 1.00219 0.84586 0.28882 0.0
H2634 H 1.01754 0.79213 0.20634 0.0
H2635 H 1.00724 0.81424 0.19232 0.0
H2636 H 0.98606 0.78963 0.19865 0.0
H2637 H 0.06066 0.85031 0.2778 0.0
H2638 H 0.04227 0.86499 0.29263 0.0
H2639 H 0.05019 0.87288 0.2649 0.0
C2640 C 0.57833 0.3799 0.10586 0.0
C2641 C 0.55644 0.37 0.11311 0.0
C2642 C 0.58232 0.40126 0.09548 0.0
C2643 C 0.5641 0.41366 0.09163 0.0
C2644 C 0.54195 0.40343 0.09852 0.0
C2645 C 0.53857 0.38241 0.10902 0.0
C2646 C 0.60642 0.41083 0.08896 0.0
C2647 C 0.52148 0.41487 0.09492 0.0
C2648 C 0.57672 0.47984 0.08477 0.0
C2649 C 0.57173 0.48122 0.06047 0.0
C2650 C 0.57503 0.45852 0.09483 0.0
C2651 C 0.56786 0.43709 0.08073 0.0
C2652 C 0.56291 0.43839 0.05619 0.0
C2653 C 0.56496 0.45994 0.04657 0.0
C2654 C 0.58078 0.45901 0.1209 0.0
C2655 C 0.55489 0.41675 0.03987 0.0
H2656 H 0.59267 0.37127 0.10878 0.0
H2657 H 0.52143 0.37562 0.11418 0.0
H2658 H 0.60465 0.41339 0.07017 0.0
H2659 H 0.61431 0.4278 0.09883 0.0
H2660 H 0.61878 0.39953 0.09259 0.0
H2661 H 0.50509 0.40473 0.1003 0.0
H2662 H 0.52635 0.43189 0.10508 0.0
H2663 H 0.51755 0.41761 0.07629 0.0
H2664 H 0.58194 0.4956 0.0962 0.0
H2665 H 0.56081 0.46002 0.02788 0.0
H2666 H 0.59434 0.44911 0.12534 0.0
H2667 H 0.56463 0.45078 0.12803 0.0
H2668 H 0.5875 0.47665 0.12959 0.0
H2669 H 0.56804 0.40612 0.04247 0.0
H2670 H 0.55249 0.42016 0.02129 0.0
H2671 H 0.53779 0.40663 0.04382 0.0
C2672 C 1.00538 0.2828 0.35016 0.0
C2673 C 1.0094 0.28906 0.37442 0.0
C2674 C 0.98345 0.2833 0.33599 0.0
C2675 C 0.96488 0.29056 0.34593 0.0
C2676 C 0.96925 0.29739 0.37022 0.0
C2677 C 0.99094 0.29644 0.38386 0.0
C2678 C 0.97995 0.27561 0.31034 0.0
C2679 C 0.9508 0.30569 0.38208 0.0
C2680 C 0.91441 0.31214 0.31006 0.0
C2681 C 0.89416 0.29398 0.30893 0.0
C2682 C 0.93734 0.31099 0.32119 0.0
C2683 C 0.94087 0.29107 0.33149 0.0
C2684 C 0.92063 0.27245 0.32982 0.0
C2685 C 0.89782 0.27416 0.31887 0.0
C2686 C 0.95776 0.33158 0.32255 0.0
C2687 C 0.92295 0.25067 0.34008 0.0
H2688 H 0.01906 0.27694 0.34232 0.0
H2689 H 0.9934 0.30166 0.40239 0.0
H2690 H 0.96452 0.26073 0.30598 0.0
H2691 H 0.97585 0.28941 0.30005 0.0
H2692 H 0.99586 0.27078 0.30495 0.0
H2693 H 0.95699 0.31112 0.40092 0.0
H2694 H 0.9461 0.32031 0.37362 0.0
H2695 H 0.93433 0.29194 0.38024 0.0
H2696 H 0.91228 0.32765 0.30267 0.0
H2697 H 0.88272 0.25983 0.31821 0.0
H2698 H 0.973 0.32663 0.31583 0.0
H2699 H 0.96388 0.33861 0.34102 0.0
H2700 H 0.9528 0.34523 0.31253 0.0
H2701 H 0.93782 0.24454 0.33387 0.0
H2702 H 0.90641 0.23695 0.33551 0.0
H2703 H 0.92715 0.25394 0.35934 0.0
C2704 C 0.07553 0.72187 0.60287 0.0
C2705 C 0.05509 0.72398 0.61261 0.0
C2706 C 0.07799 0.70051 0.59214 0.0
C2707 C 0.05958 0.6801 0.59051 0.0
C2708 C 0.03869 0.68239 0.59971 0.0
C2709 C 0.03694 0.70373 0.61077 0.0
C2710 C 0.10096 0.69959 0.58345 0.0
C2711 C 1.01819 0.66193 0.59857 0.0
C2712 C 0.05772 0.62708 0.54626 0.0
C2713 C 0.06608 0.61139 0.56022 0.0
C2714 C 0.05562 0.64901 0.55565 0.0
C2715 C 0.06223 0.65645 0.57993 0.0
C2716 C 0.07073 0.64069 0.5941 0.0
C2717 C 0.07251 0.6188 0.58429 0.0
C2718 C 0.04594 0.66423 0.5394 0.0
C2719 C 0.07845 0.64708 0.61988 0.0
H2720 H 0.09028 0.7367 0.60476 0.0
H2721 H 0.02129 0.70443 0.61866 0.0
H2722 H 0.10995 0.68836 0.5938 0.0
H2723 H 0.09738 0.69209 0.56503 0.0
H2724 H 0.11322 0.71673 0.58475 0.0
H2725 H 1.00245 0.6665 0.60466 0.0
H2726 H 1.01293 0.65366 0.58043 0.0
H2727 H 0.0237 0.64917 0.60955 0.0
H2728 H 0.05254 0.62216 0.52772 0.0
H2729 H 0.07921 0.60747 0.59566 0.0
H2730 H 0.05917 0.68069 0.54007 0.0
H2731 H 0.02976 0.66814 0.54509 0.0
H2732 H 0.0414 0.65634 0.52108 0.0
H2733 H 0.09522 0.66054 0.6227 0.0
H2734 H 0.08146 0.63229 0.62915 0.0
H2735 H 0.06501 0.65419 0.62774 0.0
C2736 C 0.66694 0.79251 0.87341 0.0
C2737 C 0.64775 0.79991 0.8614 0.0
C2738 C 0.68841 0.7923 0.8637 0.0
C2739 C 0.69157 0.7997 0.84119 0.0
C2740 C 0.67233 0.80732 0.82922 0.0
C2741 C 0.65122 0.80729 0.83921 0.0
C2742 C 0.70782 0.78393 0.87761 0.0
C2743 C 0.67393 0.81552 0.80544 0.0
C2744 C 0.75469 0.81783 0.82121 0.0
C2745 C 0.75622 0.79874 0.80646 0.0
C2746 C 0.73438 0.81828 0.83263 0.0
C2747 C 0.71436 0.79917 0.82984 0.0
C2748 C 0.71588 0.77986 0.81505 0.0
C2749 C 0.73632 0.77989 0.80379 0.0
C2750 C 0.73435 0.83951 0.84777 0.0
C2751 C 0.69566 0.7589 0.81098 0.0
H2752 H 0.66519 0.78666 0.89041 0.0
H2753 H 0.63712 0.81317 0.82925 0.0
H2754 H 0.71116 0.7689 0.86773 0.0
H2755 H 0.7246 0.79738 0.88041 0.0
H2756 H 0.70331 0.77908 0.89482 0.0
H2757 H 0.65794 0.82136 0.79832 0.0
H2758 H 0.68979 0.82982 0.80633 0.0
H2759 H 0.6761 0.80158 0.79311 0.0
H2760 H 0.76952 0.83263 0.82394 0.0
H2761 H 0.73667 0.7648 0.79281 0.0
H2762 H 0.73184 0.83522 0.86565 0.0
H2763 H 0.71923 0.84667 0.84082 0.0
H2764 H 0.75109 0.85284 0.84879 0.0
H2765 H 0.69199 0.75255 0.82788 0.0
H2766 H 0.69944 0.74494 0.79975 0.0
H2767 H 0.67927 0.76326 0.8026 0.0
C2768 C 0.46216 0.55578 0.63895 0.0
C2769 C 0.45685 0.53187 0.63528 0.0
C2770 C 0.47791 0.56913 0.62625 0.0
C2771 C 0.48831 0.55822 0.60953 0.0
C2772 C 0.48124 0.53422 0.6043 0.0
C2773 C 0.46567 0.52133 0.61734 0.0
C2774 C 0.48471 0.5947 0.6319 0.0
C2775 C 0.49145 0.52194 0.58611 0.0
C2776 C 0.52462 0.58293 0.56472 0.0
C2777 C 0.54686 0.57957 0.57404 0.0
C2778 C 0.50543 0.57856 0.57721 0.0
C2779 C 0.50885 0.571 0.5996 0.0
C2780 C 0.53208 0.57109 0.61039 0.0
C2781 C 0.55088 0.57544 0.59746 0.0
C2782 C 0.48116 0.57932 0.56511 0.0
C2783 C 0.53663 0.56361 0.63448 0.0
H2784 H 0.45529 0.56401 0.65277 0.0
H2785 H 0.46128 0.50288 0.6142 0.0
H2786 H 0.50278 0.59982 0.64221 0.0
H2787 H 0.48523 0.60337 0.61571 0.0
H2788 H 0.47219 0.60078 0.64217 0.0
H2789 H 0.48246 0.50353 0.58268 0.0
H2790 H 0.48986 0.52984 0.5695 0.0
H2791 H 0.51064 0.52343 0.59206 0.0
H2792 H 0.52152 0.58684 0.54687 0.0
H2793 H 0.56816 0.57336 0.60504 0.0
H2794 H 0.46892 0.58163 0.57762 0.0
H2795 H 0.4733 0.56305 0.55393 0.0
H2796 H 0.48251 0.59335 0.55364 0.0
H2797 H 0.52647 0.57103 0.6465 0.0
H2798 H 0.5558 0.56859 0.6419 0.0
H2799 H 0.53067 0.54475 0.63353 0.0
C2800 C 0.79294 0.26457 0.95295 0.0
C2801 C 0.80686 0.25171 0.96508 0.0
C2802 C 0.7961 0.26984 0.93034 0.0
C2803 C 0.81381 0.26233 0.91971 0.0
C2804 C 0.82861 0.25019 0.93218 0.0
C2805 C 0.82487 0.24491 0.95471 0.0
C2806 C 0.77988 0.28271 0.91751 0.0
C2807 C 0.84793 0.24223 0.92149 0.0
C2808 C 0.80431 0.25474 0.85365 0.0
C2809 C 0.81835 0.27529 0.84851 0.0
C2810 C 0.80291 0.25018 0.87679 0.0
C2811 C 0.81612 0.26644 0.89518 0.0
C2812 C 0.83075 0.28698 0.89012 0.0
C2813 C 0.83156 0.29123 0.86682 0.0
C2814 C 0.78692 0.22818 0.88156 0.0
C2815 C 0.84534 0.30455 0.90929 0.0
H2816 H 0.77895 0.26986 0.96078 0.0
H2817 H 0.83576 0.23505 0.964 0.0
H2818 H 0.79051 0.29815 0.91134 0.0
H2819 H 0.76922 0.27183 0.9019 0.0
H2820 H 0.76754 0.28802 0.92855 0.0
H2821 H 0.85899 0.23445 0.93409 0.0
H2822 H 0.83986 0.22942 0.90636 0.0
H2823 H 0.85965 0.25675 0.91491 0.0
H2824 H 0.79405 0.24236 0.83957 0.0
H2825 H 0.84268 0.30704 0.86298 0.0
H2826 H 0.77293 0.23198 0.8913 0.0
H2827 H 0.79729 0.21851 0.89263 0.0
H2828 H 0.7782 0.21713 0.8653 0.0
H2829 H 0.83343 0.31126 0.91983 0.0
H2830 H 0.85673 0.3191 0.9024 0.0
H2831 H 0.85685 0.29658 0.92119 0.0
C2832 C 0.0574 0.42734 0.15456 0.0
C2833 C 0.08143 0.43335 0.1645 0.0
C2834 C 0.05056 0.43091 0.13139 0.0
C2835 C 0.06821 0.44125 0.11852 0.0
C2836 C 0.09245 0.44285 0.12699 0.0
C2837 C 0.09886 0.43871 0.15009 0.0
C2838 C 0.0245 0.42731 0.12219 0.0
C2839 C 0.11178 0.45271 0.11323 0.0
C2840 C 0.05574 0.46699 0.06177 0.0
C2841 C 0.05715 0.4897 0.07016 0.0
C2842 C 0.05809 0.45047 0.07718 0.0
C2843 C 0.06226 0.45698 0.10145 0.0
C2844 C 0.06234 0.47958 0.10993 0.0
C2845 C 0.05961 0.49556 0.09418 0.0
C2846 C 0.05726 0.42653 0.06728 0.0
C2847 C 0.06643 0.48734 0.13573 0.0
H2848 H 0.04389 0.42245 0.16557 0.0
H2849 H 0.11749 0.44286 0.15762 0.0
H2850 H 0.01891 0.44347 0.12552 0.0
H2851 H 0.02093 0.42235 0.10311 0.0
H2852 H 1.01353 0.41397 0.13099 0.0
H2853 H 0.12894 0.44875 0.12001 0.0
H2854 H 0.10675 0.44607 0.09457 0.0
H2855 H 0.11437 0.47154 0.11441 0.0
H2856 H 0.0537 0.46224 0.04318 0.0
H2857 H 0.06043 0.51296 0.1008 0.0
H2858 H 0.05141 0.4137 0.07936 0.0
H2859 H 0.07528 0.42553 0.06393 0.0
H2860 H 0.04515 0.422 0.05039 0.0
H2861 H 0.06596 0.50551 0.13929 0.0
H2862 H 0.08398 0.4852 0.14387 0.0
H2863 H 0.05264 0.4768 0.14439 0.0
C2864 C 0.79441 0.88326 0.44273 0.0
C2865 C 0.79821 0.87074 0.46194 0.0
C2866 C 0.79544 0.87465 0.41932 0.0
C2867 C 0.80034 0.85279 0.41435 0.0
C2868 C 0.80334 0.8399 0.4336 0.0
C2869 C 0.80233 0.84887 0.45662 0.0
C2870 C 0.79201 0.88936 0.39989 0.0
C2871 C 0.80842 0.8166 0.43002 0.0
C2872 C 0.78765 0.81982 0.3517 0.0
C2873 C 0.81026 0.82352 0.34443 0.0
C2874 C 0.78406 0.82955 0.37371 0.0
C2875 C 0.8034 0.84363 0.38959 0.0
C2876 C 0.82616 0.84763 0.38219 0.0
C2877 C 0.82925 0.83772 0.36013 0.0
C2878 C 0.7594 0.8244 0.38015 0.0
C2879 C 0.8476 0.86226 0.39787 0.0
H2880 H 0.79159 0.90023 0.44605 0.0
H2881 H 0.80539 0.83869 0.47083 0.0
H2882 H 0.80884 0.89448 0.39265 0.0
H2883 H 0.77833 0.87958 0.38552 0.0
H2884 H 0.78657 0.905 0.40585 0.0
H2885 H 0.80912 0.80805 0.44631 0.0
H2886 H 0.79456 0.80554 0.41661 0.0
H2887 H 0.82569 0.81817 0.42356 0.0
H2888 H 0.77259 0.80906 0.3402 0.0
H2889 H 0.84688 0.84104 0.35527 0.0
H2890 H 0.75438 0.8405 0.3852 0.0
H2891 H 0.75903 0.81442 0.39547 0.0
H2892 H 0.74589 0.81455 0.36565 0.0
H2893 H 0.84428 0.87916 0.4029 0.0
H2894 H 0.86387 0.86486 0.38947 0.0
H2895 H 0.85089 0.85414 0.41414 0.0
C2896 C 0.46833 0.52548 0.76669 0.0
C2897 C 0.46887 0.50657 0.75155 0.0
C2898 C 0.47965 0.5284 0.78986 0.0
C2899 C 0.49162 0.51192 0.7981 0.0
C2900 C 0.49268 0.49306 0.78281 0.0
C2901 C 0.48137 0.49066 0.75966 0.0
C2902 C 0.47837 0.54885 0.80563 0.0
C2903 C 0.5052 0.47508 0.79106 0.0
C2904 C 0.53657 0.52621 0.85344 0.0
C2905 C 0.5231 0.51604 0.8698 0.0
C2906 C 0.52643 0.52538 0.83008 0.0
C2907 C 0.50234 0.51394 0.82295 0.0
C2908 C 0.48856 0.50393 0.83948 0.0
C2909 C 0.4991 0.50518 0.86276 0.0
C2910 C 0.54156 0.53649 0.81299 0.0
C2911 C 0.46283 0.49146 0.83247 0.0
H2912 H 0.4588 0.53792 0.76053 0.0
H2913 H 0.48183 0.47599 0.7481 0.0
H2914 H 0.46845 0.54312 0.81998 0.0
H2915 H 0.4965 0.55832 0.81372 0.0
H2916 H 0.46946 0.56073 0.79618 0.0
H2917 H 0.50501 0.46183 0.77679 0.0
H2918 H 0.52393 0.48308 0.79859 0.0
H2919 H 0.49651 0.46663 0.80505 0.0
H2920 H 0.55506 0.53483 0.85895 0.0
H2921 H 0.48874 0.49711 0.87535 0.0
H2922 H 0.53307 0.54894 0.80414 0.0
H2923 H 0.54305 0.5234 0.79931 0.0
H2924 H 0.55974 0.54546 0.82153 0.0
H2925 H 0.45256 0.50291 0.82412 0.0
H2926 H 0.45447 0.48505 0.84754 0.0
H2927 H 0.46148 0.47676 0.81944 0.0
C2928 C 0.83696 0.24391 0.10422 0.0
C2929 C 0.81632 0.24921 0.09309 0.0
C2930 C 0.84423 0.24937 0.12836 0.0
C2931 C 0.83028 0.25997 0.14163 0.0
C2932 C 0.80966 0.26566 0.1304 0.0
C2933 C 0.80309 0.26041 0.10629 0.0
C2934 C 0.86658 0.24351 0.13971 0.0
C2935 C 0.79414 0.27679 0.14393 0.0
C2936 C 0.82799 0.25517 0.20578 0.0
C2937 C 0.83865 0.27766 0.21518 0.0
C2938 C 0.82662 0.2486 0.18195 0.0
C2939 C 0.83656 0.26482 0.16736 0.0
C2940 C 0.8493 0.28689 0.17723 0.0
C2941 C 0.84997 0.29314 0.201 0.0
C2942 C 0.81268 0.22495 0.17208 0.0
C2943 C 0.86067 0.30449 0.16239 0.0
H2944 H 0.84731 0.23531 0.09412 0.0
H2945 H 0.78706 0.2645 0.09791 0.0
H2946 H 0.87851 0.25878 0.15017 0.0
H2947 H 0.86203 0.23038 0.15184 0.0
H2948 H 0.87639 0.2369 0.12674 0.0
H2949 H 0.77861 0.27997 0.13255 0.0
H2950 H 0.78751 0.26577 0.15727 0.0
H2951 H 0.80463 0.29331 0.15323 0.0
H2952 H 0.81921 0.24314 0.21667 0.0
H2953 H 0.85853 0.31047 0.20829 0.0
H2954 H 0.8224 0.21716 0.15988 0.0
H2955 H 0.7955 0.22607 0.16208 0.0
H2956 H 0.80892 0.21351 0.18596 0.0
H2957 H 0.87021 0.29681 0.14991 0.0
H2958 H 0.87335 0.31917 0.17312 0.0
H2959 H 0.84668 0.31101 0.15209 0.0
C2960 C 0.06385 0.4291 0.29638 0.0
C2961 C 0.08723 0.43609 0.29191 0.0
C2962 C 0.05847 0.43301 0.31882 0.0
C2963 C 0.07687 0.44473 0.33664 0.0
C2964 C 0.10084 0.44784 0.3331 0.0
C2965 C 0.10582 0.4433 0.31057 0.0
C2966 C 0.03283 0.4279 0.3225 0.0
C2967 C 0.12101 0.45933 0.35207 0.0
C2968 C 0.0626 0.49579 0.36759 0.0
C2969 C 0.06036 0.4889 0.38976 0.0
C2970 C 0.06801 0.48145 0.3503 0.0
C2971 C 0.07097 0.4595 0.35526 0.0
C2972 C 0.06844 0.45229 0.37759 0.0
C2973 C 0.06318 0.46716 0.39465 0.0
C2974 C 0.07088 0.49004 0.32679 0.0
C2975 C 0.07076 0.4289 0.38353 0.0
H2976 H 0.04951 0.42294 0.28196 0.0
H2977 H 0.12397 0.44836 0.30717 0.0
H2978 H 0.03105 0.42235 0.3401 0.0
H2979 H 0.02608 0.4436 0.32119 0.0
H2980 H 0.02156 0.41444 0.30919 0.0
H2981 H 0.13825 0.45626 0.34826 0.0
H2982 H 0.12242 0.47801 0.35352 0.0
H2983 H 0.11772 0.45322 0.36915 0.0
H2984 H 0.06076 0.51272 0.36397 0.0
H2985 H 0.06123 0.46177 0.41182 0.0
H2986 H 0.05747 0.4789 0.31305 0.0
H2987 H 0.08872 0.4895 0.32253 0.0
H2988 H 0.06875 0.5078 0.32614 0.0
H2989 H 0.05299 0.41694 0.37956 0.0
H2990 H 0.07726 0.4291 0.40237 0.0
H2991 H 0.08293 0.42214 0.37336 0.0
C2992 C 0.82052 0.86205 0.60821 0.0
C2993 C 0.80518 0.87567 0.5993 0.0
C2994 C 0.82018 0.85346 0.63041 0.0
C2995 C 0.80388 0.85797 0.64516 0.0
C2996 C 0.78821 0.8717 0.63649 0.0
C2997 C 0.7891 0.8804 0.61405 0.0
C2998 C 0.83761 0.83939 0.6381 0.0
C2999 C 0.77025 0.87714 0.65095 0.0
C3000 C 0.79184 0.81578 0.69307 0.0
C3001 C 0.80665 0.82742 0.71355 0.0
C3002 C 0.79005 0.82569 0.67141 0.0
C3003 C 0.80349 0.84809 0.66924 0.0
C3004 C 0.81815 0.86009 0.68995 0.0
C3005 C 0.81947 0.84983 0.71146 0.0
C3006 C 0.77398 0.8118 0.6505 0.0
C3007 C 0.83317 0.88374 0.68928 0.0
H3008 H 0.83332 0.85802 0.59772 0.0
H3009 H 0.77702 0.89073 0.60804 0.0
H3010 H 0.84865 0.84734 0.65488 0.0
H3011 H 0.82787 0.82209 0.64106 0.0
H3012 H 0.84957 0.83762 0.62511 0.0
H3013 H 0.75918 0.88774 0.64218 0.0
H3014 H 0.75844 0.86107 0.65462 0.0
H3015 H 0.77947 0.88633 0.66799 0.0
H3016 H 0.78172 0.79855 0.69382 0.0
H3017 H 0.83115 0.85937 0.72665 0.0
H3018 H 0.78481 0.80761 0.63728 0.0
H3019 H 0.76194 0.82183 0.64233 0.0
H3020 H 0.76308 0.79562 0.65508 0.0
H3021 H 0.8468 0.88299 0.67785 0.0
H3022 H 0.8423 0.89168 0.70685 0.0
H3023 H 0.82203 0.89488 0.68174 0.0
C3024 C 0.77645 0.42405 0.55038 0.0
C3025 C 0.79067 0.42837 0.53278 0.0
C3026 C 0.76099 0.43793 0.55514 0.0
C3027 C 0.75964 0.45655 0.54196 0.0
C3028 C 0.77383 0.46093 0.5241 0.0
C3029 C 0.78919 0.44681 0.51974 0.0
C3030 C 0.74613 0.4327 0.57433 0.0
C3031 C 0.77278 0.48057 0.50959 0.0
C3032 C 0.70452 0.48027 0.53909 0.0
C3033 C 0.71242 0.50002 0.55484 0.0
C3034 C 0.71965 0.46593 0.53483 0.0
C3035 C 0.74325 0.47135 0.54673 0.0
C3036 C 0.75124 0.49102 0.56298 0.0
C3037 C 0.73573 0.50513 0.56684 0.0
C3038 C 0.71042 0.44508 0.51742 0.0
C3039 C 0.77629 0.49733 0.57602 0.0
H3040 H 0.77748 0.40986 0.56058 0.0
H3041 H 0.80007 0.45028 0.50611 0.0
H3042 H 0.75016 0.44762 0.58765 0.0
H3043 H 0.72699 0.42945 0.56714 0.0
H3044 H 0.7493 0.41762 0.58301 0.0
H3045 H 0.78495 0.48168 0.49635 0.0
H3046 H 0.7544 0.47867 0.50052 0.0
H3047 H 0.77757 0.49688 0.52101 0.0
H3048 H 0.6864 0.47598 0.53007 0.0
H3049 H 0.74202 0.52047 0.57885 0.0
H3050 H 0.71189 0.4295 0.52597 0.0
H3051 H 0.72138 0.44602 0.50317 0.0
H3052 H 0.69159 0.44328 0.50965 0.0
H3053 H 0.7799 0.48303 0.58577 0.0
H3054 H 0.77956 0.51286 0.58849 0.0
H3055 H 0.78915 0.5004 0.56349 0.0
C3056 C 0.26726 0.11476 0.53133 0.0
C3057 C 0.26958 0.13381 0.51842 0.0
C3058 C 0.24445 0.10098 0.53353 0.0
C3059 C 0.22315 0.10603 0.52248 0.0
C3060 C 0.2256 0.12463 0.50866 0.0
C3061 C 0.24839 0.13811 0.50693 0.0
C3062 C 0.24314 0.0815 0.5485 0.0
C3063 C 0.20396 0.13095 0.49622 0.0
C3064 C 0.16103 0.06352 0.51304 0.0
C3065 C 0.14954 0.07177 0.53048 0.0
C3066 C 0.18497 0.07384 0.51071 0.0
C3067 C 0.19832 0.09303 0.52618 0.0
C3068 C 0.18699 0.101 0.54416 0.0
C3069 C 0.16306 0.09047 0.54602 0.0
C3070 C 0.19579 0.06455 0.49115 0.0
C3071 C 0.19999 0.12122 0.56123 0.0
H3072 H 0.28317 0.11124 0.54064 0.0
H3073 H 0.24959 0.15265 0.49685 0.0
H3074 H 0.23518 0.08537 0.56415 0.0
H3075 H 0.23145 0.06565 0.53885 0.0
H3076 H 0.26092 0.07833 0.55428 0.0
H3077 H 0.20867 0.14484 0.48491 0.0
H3078 H 0.1922 0.11586 0.48532 0.0
H3079 H 0.1936 0.13661 0.50918 0.0
H3080 H 0.15111 0.04924 0.50077 0.0
H3081 H 0.15481 0.09724 0.55965 0.0
H3082 H 0.21316 0.06111 0.49803 0.0
H3083 H 0.19919 0.07744 0.47856 0.0
H3084 H 0.18408 0.04859 0.4817 0.0
H3085 H 0.2173 0.11848 0.56934 0.0
H3086 H 0.1896 0.12443 0.57525 0.0
H3087 H 0.20382 0.13673 0.55191 0.0
C3088 C 0.25013 0.01722 0.82413 0.0
C3089 C 0.25531 0.02644 0.84752 0.0
C3090 C 0.26206 1.00141 0.8157 0.0
C3091 C 0.27943 0.99454 0.83108 0.0
C3092 C 0.28498 1.00401 0.85462 0.0
C3093 C 0.2729 0.01993 0.86255 0.0
C3094 C 0.25581 0.99178 0.79042 0.0
C3095 C 0.30329 0.99694 0.87155 0.0
C3096 C 0.29119 0.93663 0.81567 0.0
C3097 C 0.31245 0.94251 0.80637 0.0
C3098 C 0.28041 0.95342 0.82397 0.0
C3099 C 0.29103 0.97668 0.82275 0.0
C3100 C 0.31245 0.98278 0.81335 0.0
C3101 C 0.32295 0.9656 0.8053 0.0
C3102 C 0.25756 0.94626 0.83389 0.0
C3103 C 0.3242 1.00744 0.81172 0.0
H3104 H 0.23666 0.02228 0.81237 0.0
H3105 H 0.27698 0.02699 0.88065 0.0
H3106 H 0.27203 0.99447 0.78198 0.0
H3107 H 0.24831 0.9731 0.7892 0.0
H3108 H 0.24268 0.99968 0.78051 0.0
H3109 H 0.30615 1.00653 0.88907 0.0
H3110 H 0.29752 0.97845 0.8734 0.0
H3111 H 0.3205 0.99968 0.86482 0.0
H3112 H 0.28274 0.91881 0.81615 0.0
H3113 H 0.3395 0.97025 0.79835 0.0
H3114 H 0.24314 0.9521 0.82345 0.0
H3115 H 0.25971 0.95441 0.85196 0.0
H3116 H 0.25193 0.92747 0.8341 0.0
H3117 H 0.31183 0.0155 0.80098 0.0
H3118 H 0.34082 1.00932 0.80394 0.0
H3119 H 0.32847 0.01698 0.82932 0.0
C3120 C 0.41153 0.92385 0.01855 0.0
C3121 C 0.39208 0.9253 0.02982 0.0
C3122 C 0.43127 0.94228 0.02053 0.0
C3123 C 0.43183 0.96252 0.03456 0.0
C3124 C 0.41201 0.96432 0.04558 0.0
C3125 C 0.39218 0.9457 0.04286 0.0
C3126 C 0.45182 0.93985 0.00806 0.0
C3127 C 0.41216 0.98551 0.06094 0.0
C3128 C 0.49509 0.99495 0.05635 0.0
C3129 C 0.49869 0.01101 0.04015 0.0
C3130 C 0.47278 0.98012 0.05582 0.0
C3131 C 0.45378 0.98115 0.03841 0.0
C3132 C 0.45697 0.99819 0.02284 0.0
C3133 C 0.47938 0.01306 0.02402 0.0
C3134 C 0.46996 0.96245 0.07302 0.0
C3135 C 0.43723 0.99968 1.00387 0.0
H3136 H 0.41136 0.90817 0.00824 0.0
H3137 H 0.37718 0.94678 0.05168 0.0
H3138 H 0.45636 0.95424 0.99734 0.0
H3139 H 0.46776 0.94043 0.02099 0.0
H3140 H 0.44786 0.9236 0.99655 0.0
H3141 H 0.39469 0.9849 0.06677 0.0
H3142 H 0.42586 0.98747 0.07655 0.0
H3143 H 0.41693 1.00089 0.05161 0.0
H3144 H 0.5099 0.9935 0.06905 0.0
H3145 H 0.48205 0.02547 0.01144 0.0
H3146 H 0.46839 0.94534 0.06387 0.0
H3147 H 0.45348 0.96187 0.08073 0.0
H3148 H 0.48531 0.96589 0.08732 0.0
H3149 H 0.43417 0.98495 0.99045 0.0
H3150 H 0.44151 0.01564 0.99528 0.0
H3151 H 0.42037 0.99879 0.01097 0.0
C3152 C 0.95179 0.64861 0.7888 0.0
C3153 C 0.95378 0.63133 0.80329 0.0
C3154 C 0.92998 0.65441 0.78286 0.0
C3155 C 0.90966 0.64261 0.79158 0.0
C3156 C 0.9115 0.62507 0.80612 0.0
C3157 C 0.93357 0.61966 0.81184 0.0
C3158 C 0.92871 0.6733 0.76736 0.0
C3159 C 0.8902 0.61214 0.81573 0.0
C3160 C 0.86114 0.67474 0.79313 0.0
C3161 C 0.84592 0.6656 0.77228 0.0
C3162 C 0.88141 0.6667 0.80014 0.0
C3163 C 0.88668 0.64916 0.7859 0.0
C3164 C 0.87085 0.6391 0.7654 0.0
C3165 C 0.85063 0.64746 0.75882 0.0
C3166 C 0.89783 0.67784 0.82215 0.0
C3167 C 0.87583 0.62023 0.74988 0.0
H3168 H 0.9673 0.65769 0.7821 0.0
H3169 H 0.93493 0.60622 0.82299 0.0
H3170 H 0.91533 0.66677 0.7516 0.0
H3171 H 0.92293 0.68721 0.7767 0.0
H3172 H 0.94607 0.68057 0.76177 0.0
H3173 H 0.89448 0.5986 0.82635 0.0
H3174 H 0.88327 0.62408 0.82672 0.0
H3175 H 0.87573 0.60415 0.80125 0.0
H3176 H 0.85791 0.68903 0.80346 0.0
H3177 H 0.8388 0.64017 0.74283 0.0
H3178 H 0.91482 0.68759 0.81761 0.0
H3179 H 0.90206 0.66473 0.83335 0.0
H3180 H 0.89004 0.68971 0.83238 0.0
H3181 H 0.89187 0.62697 0.74188 0.0
H3182 H 0.86076 0.61289 0.73571 0.0
H3183 H 0.87957 0.60637 0.76025 0.0
C3184 C 0.91179 0.61936 0.0323 0.0
C3185 C 0.91237 0.6372 0.01769 0.0
C3186 C 0.92986 0.60646 0.0344 0.0
C3187 C 0.94954 0.61102 0.02168 0.0
C3188 C 0.95006 0.62892 0.00694 0.0
C3189 C 0.93194 0.64144 1.00519 0.0
C3190 C 0.92788 0.58781 0.05043 0.0
C3191 C 0.97005 0.63505 0.99282 0.0
C3192 C 1.00988 0.59376 0.04093 0.0
C3193 C 1.00903 0.57425 0.02559 0.0
C3194 C 0.99087 0.60529 0.04021 0.0
C3195 C 0.96964 0.59762 0.02373 0.0
C3196 C 0.96855 0.57782 0.00832 0.0
C3197 C 0.98787 0.5666 0.0094 0.0
C3198 C 0.99375 0.62612 0.0571 0.0
C3199 C 0.94688 0.56851 0.99027 0.0
H3200 H 0.89722 0.61544 0.04224 0.0
H3201 H 0.93328 0.6549 0.99372 0.0
H3202 H 0.9274 0.57134 0.04048 0.0
H3203 H 0.94378 0.59154 0.06408 0.0
H3204 H 0.91175 0.58588 0.05899 0.0
H3205 H 0.96815 0.64916 0.982 0.0
H3206 H 0.98731 0.64024 1.0046 0.0
H3207 H 0.97068 0.61994 0.9812 0.0
H3208 H 0.02573 0.60032 0.05362 0.0
H3209 H 0.98638 0.55176 0.99726 0.0
H3210 H 0.97864 0.62391 0.06712 0.0
H3211 H 0.9935 0.64124 0.04737 0.0
H3212 H 1.01059 0.62961 0.06953 0.0
H3213 H 0.93069 0.56516 0.99875 0.0
H3214 H 0.94784 0.55249 0.9803 0.0
H3215 H 0.94493 0.58135 0.97787 0.0
C3216 C 0.24792 0.16081 0.86413 0.0
C3217 C 0.24926 0.13817 0.85899 0.0
C3218 C 0.26266 0.17879 0.85536 0.0
C3219 C 0.27929 0.17403 0.84129 0.0
C3220 C 0.28228 0.15151 0.83784 0.0
C3221 C 0.26714 0.13377 0.8467 0.0
C3222 C 0.25903 0.20263 0.85958 0.0
C3223 C 0.30023 0.14589 0.82336 0.0
C3224 C 0.28784 0.21413 0.79453 0.0
C3225 C 0.30818 0.23055 0.80492 0.0
C3226 C 0.27897 0.19497 0.80572 0.0
C3227 C 0.2909 0.19205 0.82772 0.0
C3228 C 0.31231 0.20776 0.8376 0.0
C3229 C 0.32064 0.22696 0.82612 0.0
C3230 C 0.25603 0.17858 0.79462 0.0
C3231 C 0.32574 0.20494 0.8608 0.0
H3232 H 0.23439 0.16441 0.87391 0.0
H3233 H 0.26849 0.11635 0.84286 0.0
H3234 H 0.27629 0.21499 0.8655 0.0
H3235 H 0.25104 0.20782 0.84303 0.0
H3236 H 0.24715 0.20383 0.87278 0.0
H3237 H 0.30347 0.12876 0.82599 0.0
H3238 H 0.29355 0.14611 0.80464 0.0
H3239 H 0.31736 0.15881 0.82763 0.0
H3240 H 0.27819 0.21673 0.77809 0.0
H3241 H 0.33654 0.23948 0.83413 0.0
H3242 H 0.24194 0.17949 0.80546 0.0
H3243 H 0.25824 0.1608 0.79371 0.0
H3244 H 0.2499 0.1824 0.77676 0.0
H3245 H 0.31601 0.20923 0.87496 0.0
H3246 H 0.34393 0.21622 0.86409 0.0
H3247 H 0.32708 0.18699 0.86171 0.0
C3248 C 0.49711 0.04005 0.31801 0.0
C3249 C 0.48829 0.05972 0.31603 0.0
C3250 C 0.48174 0.01828 0.31533 0.0
C3251 C 0.45687 0.01602 0.31063 0.0
C3252 C 0.44778 0.03578 0.30888 0.0
C3253 C 0.46359 0.05737 0.31155 0.0
C3254 C 0.49215 0.99763 0.31733 0.0
C3255 C 0.42138 0.03408 0.304 0.0
C3256 C 0.4211 0.95802 0.28205 0.0
C3257 C 0.41359 0.94724 0.30126 0.0
C3258 C 0.43448 0.98068 0.28472 0.0
C3259 C 0.44053 0.99289 0.30717 0.0
C3260 C 0.43224 0.98242 0.32649 0.0
C3261 C 0.41887 0.95972 0.32331 0.0
C3262 C 0.44284 0.99129 0.26364 0.0
C3263 C 0.43831 0.99486 0.3507 0.0
H3264 H 0.51613 0.0416 0.32147 0.0
H3265 H 0.45652 0.07241 0.31001 0.0
H3266 H 0.48502 0.98766 0.33119 0.0
H3267 H 0.48689 0.9863 0.30075 0.0
H3268 H 0.51185 1.0023 0.32138 0.0
H3269 H 0.41714 0.05111 0.3039 0.0
H3270 H 0.41386 0.02422 0.28685 0.0
H3271 H 0.41238 0.02476 0.31733 0.0
H3272 H 0.41679 0.94858 0.26491 0.0
H3273 H 0.41335 0.95146 0.33829 0.0
H3274 H 0.46251 0.99485 0.2656 0.0
H3275 H 0.43778 1.00783 0.26218 0.0
H3276 H 0.43533 0.98007 0.24722 0.0
H3277 H 0.45773 0.99811 0.35659 0.0
H3278 H 0.42891 0.98502 0.36352 0.0
H3279 H 0.43368 0.01168 0.35064 0.0
C3280 C 0.62072 0.4488 0.62132 0.0
C3281 C 0.61196 0.43043 0.6336 0.0
C3282 C 0.60571 0.46183 0.61152 0.0
C3283 C 0.58127 0.45618 0.61389 0.0
C3284 C 0.57262 0.43856 0.62748 0.0
C3285 C 0.58812 0.42587 0.63724 0.0
C3286 C 0.61583 0.48087 0.59751 0.0
C3287 C 0.54679 0.43207 0.63054 0.0
C3288 C 0.55688 0.50378 0.59161 0.0
C3289 C 0.55366 0.49679 0.56777 0.0
C3290 C 0.56248 0.48907 0.60791 0.0
C3291 C 0.56489 0.46723 0.5998 0.0
C3292 C 0.5574 0.45894 0.57601 0.0
C3293 C 0.55207 0.47405 0.56012 0.0
C3294 C 0.56942 0.4982 0.63324 0.0
C3295 C 0.55883 0.43542 0.5668 0.0
H3296 H 0.63919 0.45258 0.61877 0.0
H3297 H 0.58124 0.41171 0.64681 0.0
H3298 H 0.60806 0.47643 0.57885 0.0
H3299 H 0.61121 0.49691 0.60348 0.0
H3300 H 0.63548 0.48412 0.59888 0.0
H3301 H 0.54447 0.42345 0.64663 0.0
H3302 H 0.53893 0.44714 0.63125 0.0
H3303 H 0.53667 0.42001 0.61549 0.0
H3304 H 0.55808 0.52152 0.59735 0.0
H3305 H 0.54958 0.46885 0.54156 0.0
H3306 H 0.58897 0.50503 0.63698 0.0
H3307 H 0.5646 0.48456 0.64476 0.0
H3308 H 0.5608 0.51227 0.63752 0.0
H3309 H 0.57761 0.43547 0.56537 0.0
H3310 H 0.54807 0.43005 0.54927 0.0
H3311 H 0.55263 0.42267 0.57881 0.0
C3312 C 0.44859 0.71004 0.33058 0.0
C3313 C 0.44419 0.71037 0.35369 0.0
C3314 C 0.43208 0.71458 0.3128 0.0
C3315 C 0.41121 0.72034 0.31855 0.0
C3316 C 0.40585 0.71888 0.34151 0.0
C3317 C 0.42227 0.71354 0.35873 0.0
C3318 C 0.43783 0.71488 0.28829 0.0
C3319 C 0.38392 0.72519 0.34851 0.0
C3320 C 0.38766 0.76688 0.29086 0.0
C3321 C 0.36506 0.75479 0.27999 0.0
C3322 C 0.40361 0.75558 0.30223 0.0
C3323 C 0.39702 0.73154 0.30206 0.0
C3324 C 0.37526 0.71905 0.28897 0.0
C3325 C 0.35927 0.73089 0.27841 0.0
C3326 C 0.42651 0.76962 0.31626 0.0
C3327 C 0.36812 0.69335 0.28748 0.0
H3328 H 0.46539 0.70725 0.32654 0.0
H3329 H 0.41871 0.71375 0.37655 0.0
H3330 H 0.42158 0.7081 0.27532 0.0
H3331 H 0.44538 0.7327 0.28497 0.0
H3332 H 0.45108 0.70473 0.28553 0.0
H3333 H 0.38152 0.72156 0.36661 0.0
H3334 H 0.3853 0.74368 0.34726 0.0
H3335 H 0.3678 0.71575 0.33656 0.0
H3336 H 0.3922 0.78537 0.29216 0.0
H3337 H 0.34188 0.72148 0.26974 0.0
H3338 H 0.44185 0.76316 0.31177 0.0
H3339 H 0.42595 0.76817 0.3351 0.0
H3340 H 0.42963 0.78796 0.31334 0.0
H3341 H 0.38362 0.68587 0.28598 0.0
H3342 H 0.35404 0.68615 0.27238 0.0
H3343 H 0.36111 0.68807 0.30357 0.0
C3344 C 0.1212 0.79046 0.13318 0.0
C3345 C 0.14055 0.80484 0.12564 0.0
C3346 C 0.11676 0.76671 0.12858 0.0
C3347 C 0.13218 0.75713 0.11636 0.0
C3348 C 0.15162 0.77152 0.10852 0.0
C3349 C 0.15551 0.79525 0.11316 0.0
C3350 C 0.09569 0.75187 0.13697 0.0
C3351 C 0.16853 0.76183 0.09559 0.0
C3352 C 0.13469 0.69605 0.12475 0.0
C3353 C 0.12082 0.68424 0.10418 0.0
C3354 C 0.13862 0.71981 0.12889 0.0
C3355 C 0.1282 0.73199 0.11216 0.0
C3356 C 0.11396 0.72019 0.09149 0.0
C3357 C 0.11055 0.69646 0.08768 0.0
C3358 C 0.15397 0.73188 0.15112 0.0
C3359 C 0.10243 0.73263 0.07336 0.0
H3360 H 0.10948 0.79775 0.14274 0.0
H3361 H 0.17054 0.80626 0.10736 0.0
H3362 H 0.08401 0.74066 0.12209 0.0
H3363 H 0.10185 0.74064 0.1495 0.0
H3364 H 0.085 0.76206 0.1456 0.0
H3365 H 0.18258 0.77536 0.09037 0.0
H3366 H 0.17718 0.75092 0.10674 0.0
H3367 H 0.15863 0.75086 0.07972 0.0
H3368 H 0.14239 0.68669 0.13772 0.0
H3369 H 0.10013 0.68751 0.07157 0.0
H3370 H 0.14357 0.74103 0.16134 0.0
H3371 H 0.16916 0.74484 0.14696 0.0
H3372 H 0.16103 0.71992 0.16219 0.0
H3373 H 0.09097 0.74238 0.08132 0.0
H3374 H 0.09143 0.72085 0.05847 0.0
H3375 H 0.11626 0.74513 0.06658 0.0
C3376 C 0.08336 0.24607 0.844 0.0
C3377 C 0.06232 0.25361 0.83972 0.0
C3378 C 0.10254 0.25411 0.83231 0.0
C3379 C 0.10063 0.26998 0.81579 0.0
C3380 C 0.07951 0.27778 0.81142 0.0
C3381 C 0.06058 0.26953 0.8235 0.0
C3382 C 0.12484 0.24545 0.83754 0.0
C3383 C 0.07685 0.2946 0.79381 0.0
C3384 C 0.16037 0.30083 0.80206 0.0
C3385 C 0.16281 0.28668 0.78285 0.0
C3386 C 0.1395 0.2965 0.81218 0.0
C3387 C 0.12064 0.27768 0.80273 0.0
C3388 C 0.12232 0.26439 0.78233 0.0
C3389 C 0.14343 0.26898 0.7727 0.0
C3390 C 0.13831 0.31111 0.83388 0.0
C3391 C 0.10253 0.24425 0.77165 0.0
H3392 H 0.08492 0.23388 0.8566 0.0
H3393 H 0.04437 0.27543 0.82012 0.0
H3394 H 0.12817 0.2364 0.82154 0.0
H3395 H 0.1404 0.25998 0.84323 0.0
H3396 H 0.12367 0.23359 0.85134 0.0
H3397 H 0.05955 0.2995 0.79295 0.0
H3398 H 0.0914 0.31023 0.7982 0.0
H3399 H 0.0783 0.2871 0.77627 0.0
H3400 H 0.17511 0.31479 0.80974 0.0
H3401 H 0.14518 0.25776 0.75803 0.0
H3402 H 0.13953 0.30114 0.84913 0.0
H3403 H 0.12109 0.31615 0.83254 0.0
H3404 H 0.15297 0.32676 0.83719 0.0
H3405 H 0.10164 0.23027 0.78315 0.0
H3406 H 0.10523 0.23765 0.75417 0.0
H3407 H 0.08514 0.24895 0.77001 0.0
C3408 C 0.59277 0.71364 0.94877 0.0
C3409 C 0.57334 0.72396 0.94953 0.0
C3410 C 0.59303 0.69179 0.95735 0.0
C3411 C 0.57324 0.67891 0.96672 0.0
C3412 C 0.55349 0.68908 0.96694 0.0
C3413 C 0.5539 0.71097 0.9588 0.0
C3414 C 0.61491 0.68261 0.9568 0.0
C3415 C 0.53155 0.67674 0.97594 0.0
C3416 C 0.56387 0.61263 0.97261 0.0
C3417 C 0.57013 0.61124 0.99675 0.0
C3418 C 0.56497 0.63401 0.96275 0.0
C3419 C 0.57311 0.65543 0.97684 0.0
C3420 C 0.57987 0.65408 1.00112 0.0
C3421 C 0.57811 0.63253 0.01058 0.0
C3422 C 0.55694 0.63361 0.937 0.0
C3423 C 0.5891 0.67567 0.0174 0.0
H3424 H 0.60813 0.72289 0.94198 0.0
H3425 H 0.53848 0.71798 0.95966 0.0
H3426 H 0.62228 0.68011 0.97476 0.0
H3427 H 0.6102 0.6657 0.94645 0.0
H3428 H 0.62889 0.69419 0.94921 0.0
H3429 H 0.51704 0.68592 0.97383 0.0
H3430 H 0.52493 0.65937 0.9666 0.0
H3431 H 0.53597 0.67472 0.99469 0.0
H3432 H 0.55769 0.59684 0.96127 0.0
H3433 H 0.58335 0.63244 0.02913 0.0
H3434 H 0.57157 0.64336 0.92875 0.0
H3435 H 0.54193 0.64207 0.93416 0.0
H3436 H 0.55118 0.61598 0.92812 0.0
H3437 H 0.60406 0.68698 0.01085 0.0
H3438 H 0.59529 0.67224 0.03539 0.0
H3439 H 0.57491 0.6851 0.01801 0.0
C3440 C 0.14882 0.80885 0.68414 0.0
C3441 C 0.13025 0.80012 0.69664 0.0
C3442 C 0.17316 0.81033 0.69319 0.0
C3443 C 0.17963 0.80327 0.71557 0.0
C3444 C 0.16098 0.79528 0.72852 0.0
C3445 C 0.13692 0.79364 0.71895 0.0
C3446 C 0.19198 0.81873 0.67837 0.0
C3447 C 0.16636 0.78785 0.75248 0.0
C3448 C 0.23788 0.78303 0.73188 0.0
C3449 C 0.25336 0.80203 0.74559 0.0
C3450 C 0.21446 0.78345 0.72166 0.0
C3451 C 0.2055 0.80327 0.72519 0.0
C3452 C 0.22105 0.82255 0.73894 0.0
C3453 C 0.24455 0.82177 0.74872 0.0
C3454 C 0.19915 0.76242 0.70712 0.0
C3455 C 0.21269 0.84403 0.74373 0.0
H3456 H 0.14428 0.81363 0.66681 0.0
H3457 H 0.12309 0.78683 0.72901 0.0
H3458 H 0.20599 0.83293 0.68823 0.0
H3459 H 0.20063 0.80478 0.67386 0.0
H3460 H 0.18456 0.82469 0.66199 0.0
H3461 H 0.15029 0.78356 0.76109 0.0
H3462 H 0.17396 0.77264 0.7512 0.0
H3463 H 0.17985 0.80156 0.76371 0.0
H3464 H 0.24411 0.76762 0.729 0.0
H3465 H 0.25596 0.83666 0.75918 0.0
H3466 H 0.19246 0.76685 0.6897 0.0
H3467 H 0.18344 0.75552 0.71552 0.0
H3468 H 0.20891 0.74882 0.70477 0.0
H3469 H 0.20653 0.85031 0.72709 0.0
H3470 H 0.22686 0.85782 0.75412 0.0
H3471 H 0.19732 0.84031 0.75337 0.0
C3472 C 0.09725 0.37789 0.44904 0.0
C3473 C 0.08368 0.35883 0.45793 0.0
C3474 C 0.09776 0.40107 0.45737 0.0
C3475 C 0.08433 0.40608 0.47516 0.0
C3476 C 0.07076 0.38691 0.48412 0.0
C3477 C 0.07072 0.36414 0.4757 0.0
C3478 C 0.11295 0.42032 0.44715 0.0
C3479 C 0.05568 0.39038 0.50258 0.0
C3480 C 0.0974 0.46507 0.51373 0.0
C3481 C 0.08042 0.47628 0.50341 0.0
C3482 C 0.09936 0.44302 0.50447 0.0
C3483 C 0.08387 0.43092 0.48424 0.0
C3484 C 0.06685 0.44227 0.47366 0.0
C3485 C 0.06546 0.46439 0.48309 0.0
C3486 C 0.11815 0.43254 0.51658 0.0
C3487 C 0.0495 0.43074 0.45245 0.0
H3488 H 0.10738 0.37477 0.43537 0.0
H3489 H 0.05989 0.35022 0.48304 0.0
H3490 H 0.1028 0.43321 0.4423 0.0
H3491 H 0.12832 0.42901 0.46046 0.0
H3492 H 0.11975 0.41423 0.43154 0.0
H3493 H 0.04601 0.37401 0.50793 0.0
H3494 H 0.06698 0.4007 0.51821 0.0
H3495 H 0.04251 0.40002 0.496 0.0
H3496 H 0.10934 0.47356 0.52922 0.0
H3497 H 0.0522 0.4723 0.47452 0.0
H3498 H 0.12929 0.42777 0.50392 0.0
H3499 H 0.10961 0.41666 0.52361 0.0
H3500 H 0.12983 0.44427 0.53113 0.0
H3501 H 0.05907 0.42479 0.43892 0.0
H3502 H 0.03872 0.44219 0.44485 0.0
H3503 H 0.03731 0.41546 0.45724 0.0
C3504 C 0.48057 0.3072 0.18563 0.0
C3505 C 0.49484 0.29211 0.19279 0.0
C3506 C 0.45948 0.30854 0.19555 0.0
C3507 C 0.4518 0.29454 0.21331 0.0
C3508 C 0.46624 0.27947 0.22056 0.0
C3509 C 0.48703 0.27849 0.21048 0.0
C3510 C 0.44523 0.325 0.18686 0.0
C3511 C 0.45965 0.26399 0.23913 0.0
C3512 C 0.40839 0.30845 0.2557 0.0
C3513 C 0.38619 0.29356 0.24659 0.0
C3514 C 0.42931 0.30938 0.24495 0.0
C3515 C 0.42883 0.2951 0.22418 0.0
C3516 C 0.40643 0.28017 0.21484 0.0
C3517 C 0.38581 0.27962 0.2259 0.0
C3518 C 0.45219 0.32568 0.25608 0.0
C3519 C 0.40422 0.26438 0.19305 0.0
H3520 H 0.48575 0.31795 0.17215 0.0
H3521 H 0.49727 0.26662 0.21666 0.0
H3522 H 0.42696 0.31552 0.17921 0.0
H3523 H 0.44364 0.33689 0.20164 0.0
H3524 H 0.45335 0.3351 0.17351 0.0
H3525 H 0.47257 0.25333 0.24324 0.0
H3526 H 0.45868 0.27429 0.25534 0.0
H3527 H 0.4418 0.25256 0.23335 0.0
H3528 H 0.40952 0.31956 0.27143 0.0
H3529 H 0.36918 0.26801 0.2182 0.0
H3530 H 0.45948 0.3369 0.24317 0.0
H3531 H 0.46558 0.31597 0.26181 0.0
H3532 H 0.4498 0.33649 0.27137 0.0
H3533 H 0.41041 0.27432 0.17879 0.0
H3534 H 0.38567 0.25446 0.18716 0.0
H3535 H 0.41575 0.25227 0.19624 0.0
C3536 C 0.66584 0.55208 0.43243 0.0
C3537 C 0.67186 0.54389 0.41157 0.0
C3538 C 0.65172 0.5375 0.44531 0.0
C3539 C 0.64346 0.51399 0.43712 0.0
C3540 C 0.65145 0.50521 0.41729 0.0
C3541 C 0.66559 0.52034 0.40465 0.0
C3542 C 0.64434 0.54775 0.46681 0.0
C3543 C 0.64389 0.48027 0.40829 0.0
C3544 C 0.61598 0.49325 0.487 0.0
C3545 C 0.59479 0.50038 0.48174 0.0
C3546 C 0.63087 0.49257 0.47009 0.0
C3547 C 0.6245 0.49999 0.44818 0.0
C3548 C 0.60086 0.50184 0.44144 0.0
C3549 C 0.58601 0.50185 0.45849 0.0
C3550 C 0.6551 0.4881 0.47689 0.0
C3551 C 0.59284 0.50826 0.41764 0.0
H3552 H 0.67107 0.57022 0.43802 0.0
H3553 H 0.67034 0.51388 0.38854 0.0
H3554 H 0.6248 0.54581 0.46423 0.0
H3555 H 0.64913 0.5388 0.48208 0.0
H3556 H 0.65293 0.56619 0.47101 0.0
H3557 H 0.6586 0.4747 0.40107 0.0
H3558 H 0.63825 0.46923 0.42196 0.0
H3559 H 0.62879 0.47771 0.39388 0.0
H3560 H 0.62241 0.49134 0.50494 0.0
H3561 H 0.56932 0.50679 0.45429 0.0
H3562 H 0.66863 0.50453 0.48008 0.0
H3563 H 0.65971 0.47772 0.46249 0.0
H3564 H 0.65598 0.47912 0.4929 0.0
H3565 H 0.59987 0.52684 0.41708 0.0
H3566 H 0.57315 0.50446 0.41354 0.0
H3567 H 0.59977 0.49903 0.40402 0.0
C3568 C 0.30667 0.85054 0.10185 0.0
C3569 C 0.32504 0.84505 0.09101 0.0
C3570 C 0.30374 0.84475 0.12445 0.0
C3571 C 0.31972 0.83345 0.13649 0.0
C3572 C 0.33814 0.82774 0.12557 0.0
C3573 C 0.34048 0.83348 0.10296 0.0
C3574 C 0.28372 0.85085 0.13552 0.0
C3575 C 0.35568 0.81588 0.13791 0.0
C3576 C 0.32975 0.83662 0.20249 0.0
C3577 C 0.31755 0.81473 0.20629 0.0
C3578 C 0.32998 0.84323 0.17986 0.0
C3579 C 0.3175 0.82765 0.16062 0.0
C3580 C 0.30448 0.80583 0.16439 0.0
C3581 C 0.30478 0.79957 0.18718 0.0
C3582 C 0.34425 0.86659 0.17649 0.0
C3583 C 0.29072 0.78886 0.14432 0.0
H3584 H 0.29466 0.85948 0.09274 0.0
H3585 H 0.35481 0.82924 0.09482 0.0
H3586 H 0.27232 0.83529 0.14071 0.0
H3587 H 0.29101 0.86261 0.1516 0.0
H3588 H 0.27247 0.85912 0.12362 0.0
H3589 H 0.36905 0.81269 0.12698 0.0
H3590 H 0.36517 0.8264 0.15421 0.0
H3591 H 0.34616 0.7993 0.1429 0.0
H3592 H 0.33959 0.84847 0.21716 0.0
H3593 H 0.29503 0.78273 0.18997 0.0
H3594 H 0.33299 0.87576 0.16579 0.0
H3595 H 0.35907 0.86483 0.16694 0.0
H3596 H 0.3518 0.87715 0.19331 0.0
H3597 H 0.27875 0.79683 0.13296 0.0
H3598 H 0.27992 0.77337 0.15031 0.0
H3599 H 0.30322 0.78355 0.1335 0.0
C3600 C 0.04083 0.63639 0.89216 0.0
C3601 C 0.05977 0.64254 0.87966 0.0
C3602 C 0.04526 0.63287 0.91574 0.0
C3603 C 0.06908 0.63586 0.92664 0.0
C3604 C 0.08788 0.64666 0.91531 0.0
C3605 C 0.08301 0.64962 0.89167 0.0
C3606 C 0.02464 0.6222 0.92759 0.0
C3607 C 0.11341 0.6514 0.92682 0.0
C3608 C 0.07925 0.61323 0.98561 0.0
C3609 C 0.07996 0.59069 0.97872 0.0
C3610 C 0.07627 0.62857 0.969 0.0
C3611 C 0.0742 0.62114 0.94508 0.0
C3612 C 0.07606 0.59871 0.93819 0.0
C3613 C 0.07899 0.58386 0.95509 0.0
C3614 C 0.07516 0.65251 0.97708 0.0
C3615 C 0.07411 0.58999 0.91283 0.0
H3616 H 0.0228 0.63124 0.88291 0.0
H3617 H 0.09762 0.65496 0.88202 0.0
H3618 H 0.02782 0.62845 0.94637 0.0
H3619 H 1.00777 0.62581 0.91933 0.0
H3620 H 0.02251 0.60341 0.92617 0.0
H3621 H 0.12498 0.66464 0.91844 0.0
H3622 H 0.11512 0.65705 0.94563 0.0
H3623 H 0.11986 0.63552 0.92522 0.0
H3624 H 0.08013 0.61867 1.00391 0.0
H3625 H 0.07978 0.56657 0.94965 0.0
H3626 H 0.0612 0.6582 0.96578 0.0
H3627 H 0.09241 0.66437 0.9761 0.0
H3628 H 0.0717 0.65399 0.99538 0.0
H3629 H 0.07586 0.57208 0.91056 0.0
H3630 H 0.08816 0.60079 0.9047 0.0
H3631 H 0.05667 0.59084 0.9032 0.0
C3632 C 0.34744 0.24057 0.59871 0.0
C3633 C 0.34755 0.21755 0.59262 0.0
C3634 C 0.34622 0.24924 0.6218 0.0
C3635 C 0.34434 0.23469 0.64002 0.0
C3636 C 0.34494 0.21148 0.63417 0.0
C3637 C 0.3467 0.20332 0.61088 0.0
C3638 C 0.34627 0.27411 0.6265 0.0
C3639 C 0.34265 0.1949 0.65239 0.0
C3640 C 0.35667 0.262 0.70485 0.0
C3641 C 0.33386 0.26271 0.71003 0.0
C3642 C 0.36032 0.25293 0.68262 0.0
C3643 C 0.34077 0.24365 0.66458 0.0
C3644 C 0.31769 0.24399 0.66988 0.0
C3645 C 0.3146 0.25355 0.69207 0.0
C3646 C 0.38535 0.25369 0.6783 0.0
C3647 C 0.29602 0.23423 0.65192 0.0
H3648 H 0.34781 0.25194 0.58508 0.0
H3649 H 0.34612 0.18543 0.60675 0.0
H3650 H 0.32877 0.27568 0.63093 0.0
H3651 H 0.35989 0.28215 0.64168 0.0
H3652 H 0.34988 0.28374 0.61127 0.0
H3653 H 0.34469 0.17786 0.64584 0.0
H3654 H 0.35619 0.2016 0.66799 0.0
H3655 H 0.32495 0.19287 0.65805 0.0
H3656 H 0.37192 0.26895 0.71814 0.0
H3657 H 0.29681 0.25367 0.69539 0.0
H3658 H 0.38935 0.26404 0.66366 0.0
H3659 H 0.38717 0.23624 0.6731 0.0
H3660 H 0.39873 0.26109 0.69388 0.0
H3661 H 0.29665 0.24423 0.63663 0.0
H3662 H 0.27923 0.23435 0.65887 0.0
H3663 H 0.2958 0.21642 0.64565 0.0
C3664 C 0.64446 0.56529 0.2824 0.0
C3665 C 0.63958 0.57517 0.30313 0.0
C3666 C 0.62909 0.56366 0.26144 0.0
C3667 C 0.60818 0.57183 0.26129 0.0
C3668 C 0.60238 0.58051 0.28239 0.0
C3669 C 0.61828 0.58227 0.30309 0.0
C3670 C 0.63598 0.55442 0.23923 0.0
C3671 C 0.57998 0.58893 0.28292 0.0
C3672 C 0.591 0.59408 0.20424 0.0
C3673 C 0.57465 0.57496 0.19206 0.0
C3674 C 0.60093 0.59375 0.22738 0.0
C3675 C 0.59422 0.57383 0.23867 0.0
C3676 C 0.57638 0.55509 0.22711 0.0
C3677 C 0.5669 0.5558 0.20379 0.0
C3678 C 0.62003 0.61406 0.23905 0.0
C3679 C 0.56843 0.53378 0.23884 0.0
H3680 H 0.66082 0.55966 0.28233 0.0
H3681 H 0.61424 0.58962 0.31914 0.0
H3682 H 0.6211 0.54087 0.22961 0.0
H3683 H 0.6398 0.56829 0.22774 0.0
H3684 H 0.65193 0.5473 0.24257 0.0
H3685 H 0.57625 0.5918 0.30098 0.0
H3686 H 0.58181 0.60526 0.27495 0.0
H3687 H 0.56451 0.57655 0.27257 0.0
H3688 H 0.59735 0.60881 0.19519 0.0
H3689 H 0.5541 0.54107 0.19446 0.0
H3690 H 0.6374 0.6093 0.24154 0.0
H3691 H 0.61628 0.61935 0.25651 0.0
H3692 H 0.62165 0.62892 0.22863 0.0
H3693 H 0.58239 0.52396 0.23972 0.0
H3694 H 0.55167 0.52263 0.22921 0.0
H3695 H 0.56577 0.53817 0.25696 0.0
C3696 C 0.29316 0.84835 0.94742 0.0
C3697 C 0.30784 0.83791 0.96191 0.0
C3698 C 0.28885 0.84263 0.92313 0.0
C3699 C 0.29976 0.82636 0.9132 0.0
C3700 C 0.31302 0.81453 0.92792 0.0
C3701 C 0.3167 0.8203 0.95204 0.0
C3702 C 0.274 0.8551 0.90803 0.0
C3703 C 0.32507 0.79712 0.91813 0.0
C3704 C 0.28799 0.8017 0.84973 0.0
C3705 C 0.30723 0.81511 0.84107 0.0
C3706 C 0.28429 0.80605 0.87284 0.0
C3707 C 0.30045 0.82393 0.88769 0.0
C3708 C 0.31925 0.8381 0.8787 0.0
C3709 C 0.32229 0.83362 0.85551 0.0
C3710 C 0.26371 0.79093 0.88163 0.0
C3711 C 0.33704 0.85726 0.89394 0.0
H3712 H 0.28604 0.86182 0.95487 0.0
H3713 H 0.32778 0.81184 0.96307 0.0
H3714 H 0.28582 0.86833 0.8999 0.0
H3715 H 0.26209 0.84323 0.89375 0.0
H3716 H 0.26306 0.86363 0.91826 0.0
H3717 H 0.3329 0.78798 0.93191 0.0
H3718 H 0.31231 0.78437 0.90523 0.0
H3719 H 0.33951 0.8058 0.90894 0.0
H3720 H 0.27608 0.78753 0.83862 0.0
H3721 H 0.3371 0.84421 0.84899 0.0
H3722 H 0.25453 0.80129 0.89204 0.0
H3723 H 0.2704 0.77919 0.8932 0.0
H3724 H 0.25059 0.78052 0.86714 0.0
H3725 H 0.32775 0.86878 0.90265 0.0
H3726 H 0.34976 0.86753 0.88394 0.0
H3727 H 0.34727 0.85009 0.90781 0.0
C3728 C 0.09891 0.65743 0.76062 0.0
C3729 C 0.07533 0.64486 0.75831 0.0
C3730 C 0.11158 0.65766 0.74176 0.0
C3731 C 0.10068 0.64388 0.72086 0.0
C3732 C 0.07589 0.6339 0.71758 0.0
C3733 C 0.06337 0.6349 0.7364 0.0
C3734 C 0.13732 0.6704 0.74531 0.0
C3735 C 0.06335 0.61916 0.6955 0.0
C3736 C 0.12301 0.62655 0.66638 0.0
C3737 C 0.12785 0.60559 0.67196 0.0
C3738 C 0.11742 0.64132 0.68335 0.0
C3739 C 0.11545 0.63431 0.7058 0.0
C3740 C 0.12346 0.61483 0.71225 0.0
C3741 C 0.13035 0.60116 0.69537 0.0
C3742 C 0.11189 0.66346 0.67678 0.0
C3743 C 0.1224 0.60692 0.73627 0.0
H3744 H 0.10803 0.66544 0.77762 0.0
H3745 H 0.04509 0.62523 0.73476 0.0
H3746 H 0.14832 0.6605 0.7553 0.0
H3747 H 0.14398 0.67343 0.72853 0.0
H3748 H 0.13971 0.68707 0.75573 0.0
H3749 H 0.04381 0.61405 0.69516 0.0
H3750 H 0.06689 0.62829 0.68 0.0
H3751 H 0.07014 0.60346 0.69398 0.0
H3752 H 0.12183 0.63076 0.64855 0.0
H3753 H 0.13567 0.58583 0.70015 0.0
H3754 H 0.11703 0.67673 0.69189 0.0
H3755 H 0.09255 0.66085 0.67097 0.0
H3756 H 0.12131 0.66983 0.66229 0.0
H3757 H 0.13327 0.62043 0.74965 0.0
H3758 H 0.12898 0.59118 0.73822 0.0
H3759 H 0.10381 0.60346 0.73991 0.0
C3760 C 0.35811 0.21045 0.44111 0.0
C3761 C 0.34103 0.21348 0.45538 0.0
C3762 C 0.35863 0.21934 0.41876 0.0
C3763 C 0.34149 0.23142 0.40967 0.0
C3764 C 0.32411 0.2341 0.42388 0.0
C3765 C 0.32422 0.22545 0.44604 0.0
C3766 C 0.37768 0.21579 0.40481 0.0
C3767 C 0.30499 0.24615 0.41559 0.0
C3768 C 0.34985 0.27437 0.36208 0.0
C3769 C 0.33651 0.26175 0.34138 0.0
C3770 C 0.3525 0.26458 0.38374 0.0
C3771 C 0.3413 0.24137 0.38566 0.0
C3772 C 0.32806 0.22846 0.36476 0.0
C3773 C 0.32605 0.23856 0.34322 0.0
C3774 C 0.36711 0.27939 0.40487 0.0
C3775 C 0.31538 0.2039 0.36526 0.0
H3776 H 0.3713 0.20137 0.44748 0.0
H3777 H 0.31057 0.22806 0.45614 0.0
H3778 H 0.36948 0.2041 0.38888 0.0
H3779 H 0.38673 0.23222 0.39911 0.0
H3780 H 0.39117 0.20838 0.41484 0.0
H3781 H 0.29226 0.24643 0.42813 0.0
H3782 H 0.31318 0.264 0.41287 0.0
H3783 H 0.29495 0.2376 0.39859 0.0
H3784 H 0.35822 0.29218 0.36147 0.0
H3785 H 0.31562 0.22824 0.32781 0.0
H3786 H 0.38034 0.27071 0.41336 0.0
H3787 H 0.3554 0.28219 0.41777 0.0
H3788 H 0.37661 0.29626 0.40046 0.0
H3789 H 0.3285 0.19372 0.3703 0.0
H3790 H 0.30483 0.19627 0.34816 0.0
H3791 H 0.30328 0.20257 0.37854 0.0
C3792 C 0.35332 0.64502 0.48239 0.0
C3793 C 0.35437 0.6608 0.50156 0.0
C3794 C 0.37028 0.63189 0.48183 0.0
C3795 C 0.38877 0.63456 0.50091 0.0
C3796 C 0.38988 0.65036 0.52037 0.0
C3797 C 0.37267 0.66329 0.52047 0.0
C3798 C 0.36851 0.61523 0.46075 0.0
C3799 C 0.40933 0.6537 0.54103 0.0
C3800 C 0.42085 0.58657 0.50748 0.0
C3801 C 0.44146 0.59497 0.49782 0.0
C3802 C 0.40367 0.59937 0.50884 0.0
C3803 C 0.40715 0.62107 0.50027 0.0
C3804 C 0.42801 0.6297 0.49067 0.0
C3805 C 0.44489 0.61656 0.48956 0.0
C3806 C 0.38172 0.58963 0.51931 0.0
C3807 C 0.43236 0.65273 0.48129 0.0
H3808 H 0.33925 0.64295 0.46771 0.0
H3809 H 0.37363 0.67542 0.53537 0.0
H3810 H 0.38482 0.61975 0.45257 0.0
H3811 H 0.36717 0.59777 0.46609 0.0
H3812 H 0.35289 0.61497 0.44749 0.0
H3813 H 0.40745 0.66638 0.55498 0.0
H3814 H 0.40918 0.63725 0.54844 0.0
H3815 H 0.42692 0.65955 0.53539 0.0
H3816 H 0.41826 0.57003 0.51417 0.0
H3817 H 0.46064 0.62304 0.48181 0.0
H3818 H 0.36564 0.58782 0.50619 0.0
H3819 H 0.38021 0.60146 0.53417 0.0
H3820 H 0.38189 0.5727 0.52556 0.0
H3821 H 0.41805 0.65285 0.46676 0.0
H3822 H 0.44973 0.6572 0.47486 0.0
H3823 H 0.4319 0.66617 0.49507 0.0
C3824 C 0.8803 0.97659 0.52889 0.0
C3825 C 0.87792 0.95411 0.53501 0.0
C3826 C 0.90308 0.99101 0.52752 0.0
C3827 C 0.9243 0.98301 0.53229 0.0
C3828 C 0.92188 0.96052 0.53881 0.0
C3829 C 0.89918 0.94667 0.5401 0.0
C3830 C 0.90443 0.01479 0.52065 0.0
C3831 C 0.94344 0.9508 0.54422 0.0
C3832 C 0.98353 1.00816 0.50966 0.0
C3833 C 0.99821 0.02059 0.52971 0.0
C3834 C 0.9594 0.99679 0.50996 0.0
C3835 C 0.94909 0.9977 0.53077 0.0
C3836 C 0.96362 0.01085 0.55083 0.0
C3837 C 0.98769 0.0219 0.55009 0.0
C3838 C 0.94514 0.98304 0.48806 0.0
C3839 C 0.95395 0.01267 0.57349 0.0
H3840 H 0.86439 0.98282 0.52474 0.0
H3841 H 0.89817 0.92955 0.54501 0.0
H3842 H 0.91654 0.02742 0.53417 0.0
H3843 H 0.91196 0.01661 0.50416 0.0
H3844 H 0.88674 0.01896 0.51822 0.0
H3845 H 0.93878 0.93304 0.54901 0.0
H3846 H 0.95288 0.95091 0.52888 0.0
H3847 H 0.95603 0.96154 0.55882 0.0
H3848 H 0.99108 1.00675 0.49374 0.0
H3849 H 0.99843 0.03134 0.56582 0.0
H3850 H 0.92791 0.98786 0.48404 0.0
H3851 H 0.94112 0.96465 0.49075 0.0
H3852 H 0.95472 0.98544 0.47282 0.0
H3853 H 0.93675 0.01774 0.5706 0.0
H3854 H 0.96641 0.02523 0.58686 0.0
H3855 H 0.95053 0.99578 0.58041 0.0
C3856 C 0.87169 0.07527 0.22738 0.0
C3857 C 0.87207 0.05624 0.23981 0.0
C3858 C 0.86254 0.0932 0.23584 0.0
C3859 C 0.85352 0.09207 0.25723 0.0
C3860 C 0.8535 0.07279 0.26972 0.0
C3861 C 0.86281 0.05507 0.26085 0.0
C3862 C 0.86283 0.1135 0.22201 0.0
C3863 C 0.84392 0.07104 0.29255 0.0
C3864 C 0.85226 0.14934 0.28704 0.0
C3865 C 0.82875 0.15047 0.27967 0.0
C3866 C 0.86034 0.12999 0.28062 0.0
C3867 C 0.84449 0.11136 0.26655 0.0
C3868 C 0.82048 0.112 0.25987 0.0
C3869 C 0.8129 0.13159 0.26648 0.0
C3870 C 0.88607 0.12988 0.28812 0.0
C3871 C 0.80308 0.09244 0.24486 0.0
H3872 H 0.87878 0.0763 0.21109 0.0
H3873 H 0.86303 0.04041 0.27053 0.0
H3874 H 0.84456 0.116 0.21777 0.0
H3875 H 0.87375 0.12921 0.23257 0.0
H3876 H 0.87012 0.11154 0.2055 0.0
H3877 H 0.84461 0.05463 0.2998 0.0
H3878 H 0.85433 0.08524 0.30549 0.0
H3879 H 0.82523 0.07267 0.29016 0.0
H3880 H 0.86446 0.16377 0.29753 0.0
H3881 H 0.79477 0.13247 0.26051 0.0
H3882 H 0.89523 0.12978 0.27259 0.0
H3883 H 0.88738 0.1142 0.29654 0.0
H3884 H 0.89561 0.14497 0.30044 0.0
H3885 H 0.80823 0.09101 0.22724 0.0
H3886 H 0.78459 0.09471 0.24302 0.0
H3887 H 0.80347 0.0761 0.25232 0.0
C3888 C 0.73747 0.14589 0.01476 0.0
C3889 C 0.73309 0.16781 0.01628 0.0
C3890 C 0.71888 0.12639 0.01373 0.0
C3891 C 0.69549 0.12897 0.0144 0.0
C3892 C 0.69086 0.15098 0.01509 0.0
C3893 C 0.70969 0.1701 0.01596 0.0
C3894 C 0.72439 0.10314 0.01277 0.0
C3895 C 0.66613 0.15444 0.01588 0.0
C3896 C 0.63953 0.08169 0.99911 0.0
C3897 C 0.63406 0.0773 0.02136 0.0
C3898 C 0.66042 0.09746 0.99644 0.0
C3899 C 0.67602 0.10907 0.01648 0.0
C3900 C 0.67134 0.10356 0.0389 0.0
C3901 C 0.65045 0.08771 0.04106 0.0
C3902 C 0.66501 0.10271 0.97225 0.0
C3903 C 0.68757 0.11552 0.06072 0.0
H3904 H 0.75548 0.14396 0.01482 0.0
H3905 H 0.70609 0.18694 0.01697 0.0
H3906 H 0.72205 0.09584 0.02952 0.0
H3907 H 0.71189 0.09132 0.99885 0.0
H3908 H 0.74286 0.10386 0.00958 0.0
H3909 H 0.66533 0.17256 0.01505 0.0
H3910 H 0.65347 0.14394 1.00118 0.0
H3911 H 0.66003 0.14877 0.03225 0.0
H3912 H 0.62705 0.07356 0.9838 0.0
H3913 H 0.64653 0.08418 0.05832 0.0
H3914 H 0.68382 0.10341 0.97044 0.0
H3915 H 0.66172 0.11971 0.96911 0.0
H3916 H 0.65334 0.08987 0.95859 0.0
H3917 H 0.70627 0.11522 0.05946 0.0
H3918 H 0.68268 0.10766 0.07663 0.0
H3919 H 0.68663 0.13368 0.06271 0.0
C3920 C 0.19998 0.43238 0.24451 0.0
C3921 C 0.19653 0.44934 0.23006 0.0
C3922 C 0.22252 0.42815 0.25036 0.0
C3923 C 0.24214 0.44119 0.24154 0.0
C3924 C 0.23875 0.45801 0.22654 0.0
C3925 C 0.21594 0.4619 0.22096 0.0
C3926 C 0.22539 0.40994 0.26634 0.0
C3927 C 0.25928 0.47218 0.2168 0.0
C3928 C 0.30008 0.4411 0.27904 0.0
C3929 C 0.30642 0.42263 0.26776 0.0
C3930 C 0.28007 0.44857 0.26972 0.0
C3931 C 0.26616 0.43728 0.24864 0.0
C3932 C 0.27365 0.41996 0.23617 0.0
C3933 C 0.2937 0.41282 0.24589 0.0
C3934 C 0.27277 0.46728 0.28342 0.0
C3935 C 0.2594 0.40761 0.21355 0.0
H3936 H 0.18508 0.42254 0.25155 0.0
H3937 H 0.21342 0.47506 0.20979 0.0
H3938 H 0.23329 0.39712 0.25777 0.0
H3939 H 0.23773 0.41771 0.28248 0.0
H3940 H 0.20824 0.401 0.27128 0.0
H3941 H 0.25346 0.48371 0.20438 0.0
H3942 H 0.27233 0.48268 0.23124 0.0
H3943 H 0.26864 0.46095 0.20776 0.0
H3944 H 0.31008 0.44896 0.29575 0.0
H3945 H 0.29832 0.3984 0.2371 0.0
H3946 H 0.25691 0.45978 0.29136 0.0
H3947 H 0.26781 0.47981 0.27181 0.0
H3948 H 0.28712 0.47643 0.29757 0.0
H3949 H 0.24238 0.3969 0.21702 0.0
H3950 H 0.26904 0.39642 0.2048 0.0
H3951 H 0.25499 0.41998 0.20146 0.0
C3952 C 0.22932 0.47338 1.00545 0.0
C3953 C 0.23481 0.45669 0.01987 0.0
C3954 C 0.20912 0.48289 0.00645 0.0
C3955 C 0.19288 0.47594 0.02225 0.0
C3956 C 0.19818 0.45909 0.03696 0.0
C3957 C 0.21876 0.44985 0.03568 0.0
C3958 C 0.20518 0.50066 0.99033 0.0
C3959 C 0.1819 0.45066 0.05414 0.0
C3960 C 0.15222 0.51701 0.03781 0.0
C3961 C 0.13028 0.50811 0.02305 0.0
C3962 C 0.17211 0.50671 0.03802 0.0
C3963 C 0.17083 0.48648 0.02324 0.0
C3964 C 0.14864 0.47723 0.0085 0.0
C3965 C 0.12905 0.48797 0.00853 0.0
C3966 C 0.19484 0.51781 0.05407 0.0
C3967 C 0.14556 0.45583 0.99238 0.0
H3968 H 0.24103 0.47926 0.99304 0.0
H3969 H 0.22213 0.43709 0.04703 0.0
H3970 H 0.18771 0.49467 0.97901 0.0
H3971 H 0.20479 0.51666 1.00065 0.0
H3972 H 0.21922 0.50457 0.97908 0.0
H3973 H 0.18792 0.43756 0.0643 0.0
H3974 H 0.1809 0.46516 0.06643 0.0
H3975 H 0.16365 0.44326 0.04481 0.0
H3976 H 0.15403 0.53238 0.0493 0.0
H3977 H 0.11257 0.48042 0.99703 0.0
H3978 H 0.20937 0.52321 0.04367 0.0
H3979 H 0.20014 0.50537 0.06561 0.0
H3980 H 0.19317 0.53296 0.06506 0.0
H3981 H 0.15801 0.45898 0.97948 0.0
H3982 H 0.12716 0.44987 0.98286 0.0
H3983 H 0.15 0.44201 1.00243 0.0
C3984 C 0.84863 0.95083 0.20747 0.0
C3985 C 0.86136 0.94843 0.189 0.0
C3986 C 0.83655 0.93156 0.21676 0.0
C3987 C 0.8369 0.90959 0.20695 0.0
C3988 C 0.84632 0.90722 0.18597 0.0
C3989 C 0.8587 0.92674 0.17733 0.0
C3990 C 0.8264 0.93485 0.23894 0.0
C3991 C 0.8461 0.88405 0.17439 0.0
C3992 C 0.8503 0.86691 0.24815 0.0
C3993 C 0.82811 0.85177 0.24675 0.0
C3994 C 0.85306 0.88616 0.23583 0.0
C3995 C 0.83318 0.89011 0.22132 0.0
C3996 C 0.81058 0.87511 0.22016 0.0
C3997 C 0.80826 0.85614 0.23308 0.0
C3998 C 0.87744 0.90199 0.23801 0.0
C3999 C 0.7891 0.87848 0.20457 0.0
H4000 H 0.85036 0.96759 0.21642 0.0
H4001 H 0.8681 0.92484 0.16272 0.0
H4002 H 0.80969 0.92184 0.23903 0.0
H4003 H 0.83935 0.9329 0.254 0.0
H4004 H 0.82286 0.9521 0.24144 0.0
H4005 H 0.84935 0.88493 0.15606 0.0
H4006 H 0.8603 0.87727 0.18406 0.0
H4007 H 0.82888 0.87184 0.17466 0.0
H4008 H 0.86561 0.86365 0.25888 0.0
H4009 H 0.7911 0.84428 0.23182 0.0
H4010 H 0.87656 0.91979 0.24302 0.0
H4011 H 0.88396 0.90165 0.22096 0.0
H4012 H 0.89062 0.89722 0.25115 0.0
H4013 H 0.78841 0.8967 0.20557 0.0
H4014 H 0.77228 0.86825 0.20907 0.0
H4015 H 0.79024 0.87308 0.18623 0.0
C4016 C 0.63303 0.04767 0.72523 0.0
C4017 C 0.64 0.02766 0.73075 0.0
C4018 C 0.64951 0.06887 0.72831 0.0
C4019 C 0.67359 0.07023 0.73729 0.0
C4020 C 0.68081 0.05012 0.74278 0.0
C4021 C 0.66398 0.02909 0.73931 0.0
C4022 C 0.64111 0.08988 0.72204 0.0
C4023 C 0.70628 0.05085 0.75249 0.0
C4024 C 0.71795 0.12303 0.72542 0.0
C4025 C 0.72047 0.13746 0.74602 0.0
C4026 C 0.70336 0.10085 0.72262 0.0
C4027 C 0.69106 0.09277 0.74091 0.0
C4028 C 0.69434 0.10685 0.76213 0.0
C4029 C 0.70895 0.12903 0.76441 0.0
C4030 C 0.70042 0.08637 0.69975 0.0
C4031 C 0.68167 0.09882 0.78211 0.0
H4032 H 0.61462 0.04683 0.71849 0.0
H4033 H 0.66964 0.01379 0.74354 0.0
H4034 H 0.64444 0.1024 0.73766 0.0
H4035 H 0.65125 0.0982 0.70887 0.0
H4036 H 0.62186 0.0859 0.71495 0.0
H4037 H 0.709 0.03371 0.75605 0.0
H4038 H 0.71818 0.05786 0.74005 0.0
H4039 H 0.71177 0.06237 0.76892 0.0
H4040 H 0.72712 0.12923 0.71127 0.0
H4041 H 0.71057 0.14007 0.7803 0.0
H4042 H 0.68176 0.08322 0.69096 0.0
H4043 H 0.70412 0.06952 0.70282 0.0
H4044 H 0.71233 0.09458 0.68781 0.0
H4045 H 0.66224 0.09662 0.77703 0.0
H4046 H 0.6876 0.11104 0.79807 0.0
H4047 H 0.68471 0.08198 0.78629 0.0
loop_
_geom_bond_atom_site_label_1
_geom_bond_atom_site_label_2
_geom_bond_distance
_geom_bond_site_symmetry_2
_ccdc_geom_bond_type
Zn0 O3 2.031 . S
Zn0 O5 2.049 . S
Zn0 O10 2.067 . S
Zn1 O2 1.962 . S
Zn1 O4 1.986 . S
Zn1 O6 1.996 . S
Zn1 O9 1.943 . S
O2 Zn1 1.962 . S
O2 C7 1.254 . S
O3 Zn0 2.031 . S
O3 C7 1.269 . S
O4 Zn1 1.986 . S
O4 C11 1.262 . S
O5 Zn0 2.049 . S
O5 C13 1.260 . S
O6 Zn1 1.996 . S
O6 C13 1.257 . S
C7 O2 1.254 . S
C7 O3 1.269 . S
C8 O9 1.249 . S
C8 O10 1.270 . S
O9 Zn1 1.943 . S
O9 C8 1.249 . S
O10 Zn0 2.067 . S
O10 C8 1.270 . S
C11 O4 1.262 . S
C11 O12 1.232 . S
O12 C11 1.232 . S
C13 O5 1.260 . S
C13 O6 1.257 . S
Zn14 O17 2.031 . S
Zn14 O19 2.049 . S
Zn14 O24 2.067 . S
Zn15 O16 1.962 . S
Zn15 O18 1.986 . S
Zn15 O20 1.996 . S
Zn15 O23 1.943 . S
O16 Zn15 1.962 . S
O16 C21 1.254 . S
O17 Zn14 2.031 . S
O17 C21 1.269 . S
O18 Zn15 1.986 . S
O18 C25 1.262 . S
O19 Zn14 2.049 . S
O19 C27 1.260 . S
O20 Zn15 1.996 . S
O20 C27 1.257 . S
C21 O16 1.254 . S
C21 O17 1.269 . S
C22 O23 1.249 . S
C22 O24 1.270 . S
O23 Zn15 1.943 . S
O23 C22 1.249 . S
O24 Zn14 2.067 . S
O24 C22 1.270 . S
C25 O18 1.262 . S
C25 O26 1.232 . S
O26 C25 1.232 . S
C27 O19 1.260 . S
C27 O20 1.257 . S
Zn28 O31 2.031 . S
Zn28 O33 2.049 . S
Zn28 O38 2.067 . S
Zn29 O30 1.962 . S
Zn29 O32 1.986 . S
Zn29 O34 1.996 . S
Zn29 O37 1.943 . S
O30 Zn29 1.962 . S
O30 C35 1.254 . S
O31 Zn28 2.031 . S
O31 C35 1.269 . S
O32 Zn29 1.986 . S
O32 C39 1.262 . S
O33 Zn28 2.049 . S
O33 C41 1.260 . S
O34 Zn29 1.996 . S
O34 C41 1.257 . S
C35 O30 1.254 . S
C35 O31 1.269 . S
C36 O37 1.249 . S
C36 O38 1.270 . S
O37 Zn29 1.943 . S
O37 C36 1.249 . S
O38 Zn28 2.067 . S
O38 C36 1.270 . S
C39 O32 1.262 . S
C39 O40 1.232 . S
O40 C39 1.232 . S
C41 O33 1.260 . S
C41 O34 1.257 . S
Zn42 O45 2.031 . S
Zn42 O47 2.049 . S
Zn42 O52 2.067 . S
Zn43 O44 1.962 . S
Zn43 O46 1.986 . S
Zn43 O48 1.996 . S
Zn43 O51 1.943 . S
O44 Zn43 1.962 . S
O44 C49 1.254 . S
O45 Zn42 2.031 . S
O45 C49 1.269 . S
O46 Zn43 1.986 . S
O46 C53 1.262 . S
O47 Zn42 2.049 . S
O47 C55 1.260 . S
O48 Zn43 1.996 . S
O48 C55 1.257 . S
C49 O44 1.254 . S
C49 O45 1.269 . S
C50 O51 1.249 . S
C50 O52 1.270 . S
O51 Zn43 1.943 . S
O51 C50 1.249 . S
O52 Zn42 2.067 . S
O52 C50 1.270 . S
C53 O46 1.262 . S
C53 O54 1.232 . S
O54 C53 1.232 . S
C55 O47 1.260 . S
C55 O48 1.257 . S
Zn56 O59 2.031 . S
Zn56 O61 2.049 . S
Zn56 O66 2.067 . S
Zn57 O58 1.962 . S
Zn57 O60 1.986 . S
Zn57 O62 1.996 . S
Zn57 O65 1.943 . S
O58 Zn57 1.962 . S
O58 C63 1.254 . S
O59 Zn56 2.031 . S
O59 C63 1.269 . S
O60 Zn57 1.986 . S
O60 C67 1.262 . S
O61 Zn56 2.049 . S
O61 C69 1.260 . S
O62 Zn57 1.996 . S
O62 C69 1.257 . S
C63 O58 1.254 . S
C63 O59 1.269 . S
C64 O65 1.249 . S
C64 O66 1.270 . S
O65 Zn57 1.943 . S
O65 C64 1.249 . S
O66 Zn56 2.067 . S
O66 C64 1.270 . S
C67 O60 1.262 . S
C67 O68 1.232 . S
O68 C67 1.232 . S
C69 O61 1.260 . S
C69 O62 1.257 . S
Zn70 O73 2.031 . S
Zn70 O75 2.049 . S
Zn70 O80 2.067 . S
Zn71 O72 1.962 . S
Zn71 O74 1.986 . S
Zn71 O76 1.996 . S
Zn71 O79 1.943 . S
O72 Zn71 1.962 . S
O72 C77 1.254 . S
O73 Zn70 2.031 . S
O73 C77 1.269 . S
O74 Zn71 1.986 . S
O74 C81 1.262 . S
O75 Zn70 2.049 . S
O75 C83 1.260 . S
O76 Zn71 1.996 . S
O76 C83 1.257 . S
C77 O72 1.254 . S
C77 O73 1.269 . S
C78 O79 1.249 . S
C78 O80 1.270 . S
O79 Zn71 1.943 . S
O79 C78 1.249 . S
O80 Zn70 2.067 . S
O80 C78 1.270 . S
C81 O74 1.262 . S
C81 O82 1.232 . S
O82 C81 1.232 . S
C83 O75 1.260 . S
C83 O76 1.257 . S
Zn84 O87 2.031 . S
Zn84 O89 2.049 . S
Zn84 O94 2.067 . S
Zn85 O86 1.962 . S
Zn85 O88 1.986 . S
Zn85 O90 1.996 . S
Zn85 O93 1.943 . S
O86 Zn85 1.962 . S
O86 C91 1.254 . S
O87 Zn84 2.031 . S
O87 C91 1.269 . S
O88 Zn85 1.986 . S
O88 C95 1.262 . S
O89 Zn84 2.049 . S
O89 C97 1.260 . S
O90 Zn85 1.996 . S
O90 C97 1.257 . S
C91 O86 1.254 . S
C91 O87 1.269 . S
C92 O93 1.249 . S
C92 O94 1.270 . S
O93 Zn85 1.943 . S
O93 C92 1.249 . S
O94 Zn84 2.067 . S
O94 C92 1.270 . S
C95 O88 1.262 . S
C95 O96 1.232 . S
O96 C95 1.232 . S
C97 O89 1.260 . S
C97 O90 1.257 . S
Zn98 O101 2.031 . S
Zn98 O103 2.049 . S
Zn98 O108 2.067 . S
Zn99 O100 1.962 . S
Zn99 O102 1.986 . S
Zn99 O104 1.996 . S
Zn99 O107 1.943 1_455 S
O100 Zn99 1.962 . S
O100 C105 1.254 . S
O101 Zn98 2.031 . S
O101 C105 1.269 1_655 S
O102 Zn99 1.986 . S
O102 C109 1.262 . S
O103 Zn98 2.049 . S
O103 C111 1.260 . S
O104 Zn99 1.996 . S
O104 C111 1.257 1_455 S
C105 O100 1.254 . S
C105 O101 1.269 1_455 S
C106 O107 1.249 . S
C106 O108 1.270 . S
O107 Zn99 1.943 1_655 S
O107 C106 1.249 . S
O108 Zn98 2.067 . S
O108 C106 1.270 . S
C109 O102 1.262 . S
C109 O110 1.232 . S
O110 C109 1.232 . S
C111 O103 1.260 . S
C111 O104 1.257 1_655 S
Zn112 O115 2.031 . S
Zn112 O117 2.049 . S
Zn112 O122 2.067 . S
Zn113 O114 1.962 . S
Zn113 O116 1.986 . S
Zn113 O118 1.996 . S
Zn113 O121 1.943 . S
O114 Zn113 1.962 . S
O114 C119 1.254 . S
O115 Zn112 2.031 . S
O115 C119 1.269 . S
O116 Zn113 1.986 . S
O116 C123 1.262 . S
O117 Zn112 2.049 . S
O117 C125 1.260 . S
O118 Zn113 1.996 . S
O118 C125 1.257 . S
C119 O114 1.254 . S
C119 O115 1.269 . S
C120 O121 1.249 . S
C120 O122 1.270 . S
O121 Zn113 1.943 . S
O121 C120 1.249 . S
O122 Zn112 2.067 . S
O122 C120 1.270 . S
C123 O116 1.262 . S
C123 O124 1.232 . S
O124 C123 1.232 . S
C125 O117 1.260 . S
C125 O118 1.257 . S
Zn126 O129 2.031 . S
Zn126 O131 2.049 . S
Zn126 O136 2.067 . S
Zn127 O128 1.962 . S
Zn127 O130 1.986 . S
Zn127 O132 1.996 . S
Zn127 O135 1.943 . S
O128 Zn127 1.962 . S
O128 C133 1.254 . S
O129 Zn126 2.031 . S
O129 C133 1.269 . S
O130 Zn127 1.986 . S
O130 C137 1.262 . S
O131 Zn126 2.049 . S
O131 C139 1.260 . S
O132 Zn127 1.996 . S
O132 C139 1.257 . S
C133 O128 1.254 . S
C133 O129 1.269 . S
C134 O135 1.249 . S
C134 O136 1.270 . S
O135 Zn127 1.943 . S
O135 C134 1.249 . S
O136 Zn126 2.067 . S
O136 C134 1.270 . S
C137 O130 1.262 . S
C137 O138 1.232 . S
O138 C137 1.232 . S
C139 O131 1.260 . S
C139 O132 1.257 . S
Zn140 O143 2.031 . S
Zn140 O145 2.049 . S
Zn140 O150 2.067 . S
Zn141 O142 1.962 . S
Zn141 O144 1.986 . S
Zn141 O146 1.996 . S
Zn141 O149 1.943 . S
O142 Zn141 1.962 . S
O142 C147 1.254 . S
O143 Zn140 2.031 . S
O143 C147 1.269 . S
O144 Zn141 1.986 . S
O144 C151 1.262 . S
O145 Zn140 2.049 . S
O145 C153 1.260 . S
O146 Zn141 1.996 . S
O146 C153 1.257 . S
C147 O142 1.254 . S
C147 O143 1.269 . S
C148 O149 1.249 . S
C148 O150 1.270 . S
O149 Zn141 1.943 . S
O149 C148 1.249 . S
O150 Zn140 2.067 . S
O150 C148 1.270 . S
C151 O144 1.262 . S
C151 O152 1.232 . S
O152 C151 1.232 . S
C153 O145 1.260 . S
C153 O146 1.257 . S
Zn154 O157 2.031 . S
Zn154 O159 2.049 . S
Zn154 O164 2.067 . S
Zn155 O156 1.962 . S
Zn155 O158 1.986 . S
Zn155 O160 1.996 . S
Zn155 O163 1.943 . S
O156 Zn155 1.962 . S
O156 C161 1.254 . S
O157 Zn154 2.031 . S
O157 C161 1.269 . S
O158 Zn155 1.986 . S
O158 C165 1.262 . S
O159 Zn154 2.049 . S
O159 C167 1.260 . S
O160 Zn155 1.996 . S
O160 C167 1.257 . S
C161 O156 1.254 . S
C161 O157 1.269 . S
C162 O163 1.249 . S
C162 O164 1.270 . S
O163 Zn155 1.943 . S
O163 C162 1.249 . S
O164 Zn154 2.067 . S
O164 C162 1.270 . S
C165 O158 1.262 . S
C165 O166 1.232 . S
O166 C165 1.232 . S
C167 O159 1.260 . S
C167 O160 1.257 . S
Zn168 O171 2.031 1_554 S
Zn168 O173 2.049 . S
Zn168 O178 2.067 . S
Zn169 O170 1.962 1_554 S
Zn169 O172 1.986 . S
Zn169 O174 1.996 . S
Zn169 O177 1.943 . S
O170 Zn169 1.962 1_556 S
O170 C175 1.254 . S
O171 Zn168 2.031 1_556 S
O171 C175 1.269 . S
O172 Zn169 1.986 . S
O172 C179 1.262 . S
O173 Zn168 2.049 . S
O173 C181 1.260 . S
O174 Zn169 1.996 . S
O174 C181 1.257 . S
C175 O170 1.254 . S
C175 O171 1.269 . S
C176 O177 1.249 . S
C176 O178 1.270 . S
O177 Zn169 1.943 . S
O177 C176 1.249 . S
O178 Zn168 2.067 . S
O178 C176 1.270 . S
C179 O172 1.262 . S
C179 O180 1.232 . S
O180 C179 1.232 . S
C181 O173 1.260 . S
C181 O174 1.257 . S
Zn182 O185 2.031 1_554 S
Zn182 O187 2.049 . S
Zn182 O192 2.067 . S
Zn183 O184 1.968 . S
Zn183 O186 1.983 1_556 S
Zn183 O188 1.991 1_556 S
Zn183 O191 1.942 . S
O184 Zn183 1.968 . S
O184 C189 1.254 . S
O185 Zn182 2.031 1_556 S
O185 C189 1.269 . S
O186 Zn183 1.983 1_554 S
O186 C193 1.280 . S
O187 Zn182 2.049 . S
O187 C195 1.260 . S
O188 Zn183 1.991 1_554 S
O188 C195 1.257 . S
C189 O184 1.254 . S
C189 O185 1.269 . S
C190 O191 1.249 . S
C190 O192 1.270 1_556 S
O191 Zn183 1.942 . S
O191 C190 1.249 . S
O192 Zn182 2.067 . S
O192 C190 1.270 1_554 S
C193 O186 1.280 . S
C193 O194 1.212 1_554 S
O194 C193 1.212 1_556 S
C195 O187 1.260 . S
C195 O188 1.257 . S
Zn196 O199 2.031 . S
Zn196 O201 2.049 . S
Zn196 O206 2.067 . S
Zn197 O198 1.962 . S
Zn197 O200 1.986 . S
Zn197 O202 1.996 . S
Zn197 O205 1.943 . S
O198 Zn197 1.962 . S
O198 C203 1.254 . S
O199 Zn196 2.031 . S
O199 C203 1.269 . S
O200 Zn197 1.986 . S
O200 C207 1.262 . S
O201 Zn196 2.049 . S
O201 C209 1.260 . S
O202 Zn197 1.996 . S
O202 C209 1.257 . S
C203 O198 1.254 . S
C203 O199 1.269 . S
C204 O205 1.249 . S
C204 O206 1.270 . S
O205 Zn197 1.943 . S
O205 C204 1.249 . S
O206 Zn196 2.067 . S
O206 C204 1.270 . S
C207 O200 1.262 . S
C207 O208 1.232 . S
O208 C207 1.232 . S
C209 O201 1.260 . S
C209 O202 1.257 . S
Zn210 O213 2.031 . S
Zn210 O215 2.049 . S
Zn210 O220 2.067 . S
Zn211 O212 1.962 . S
Zn211 O214 1.986 . S
Zn211 O216 1.996 . S
Zn211 O219 1.943 . S
O212 Zn211 1.962 . S
O212 C217 1.254 . S
O213 Zn210 2.031 . S
O213 C217 1.269 . S
O214 Zn211 1.986 . S
O214 C221 1.262 . S
O215 Zn210 2.049 . S
O215 C223 1.260 . S
O216 Zn211 1.996 . S
O216 C223 1.257 . S
C217 O212 1.254 . S
C217 O213 1.269 . S
C218 O219 1.249 . S
C218 O220 1.270 . S
O219 Zn211 1.943 . S
O219 C218 1.249 . S
O220 Zn210 2.067 . S
O220 C218 1.270 . S
C221 O214 1.262 . S
C221 O222 1.232 . S
O222 C221 1.232 . S
C223 O215 1.260 . S
C223 O216 1.257 . S
Zn224 O227 2.031 . S
Zn224 O229 2.049 . S
Zn224 O234 2.067 . S
Zn225 O226 1.962 . S
Zn225 O228 1.986 . S
Zn225 O230 1.996 . S
Zn225 O233 1.943 1_545 S
O226 Zn225 1.962 . S
O226 C231 1.254 . S
O227 Zn224 2.031 . S
O227 C231 1.269 1_565 S
O228 Zn225 1.986 . S
O228 C235 1.262 . S
O229 Zn224 2.049 . S
O229 C237 1.260 . S
O230 Zn225 1.996 . S
O230 C237 1.257 1_545 S
C231 O226 1.254 . S
C231 O227 1.269 1_545 S
C232 O233 1.249 . S
C232 O234 1.270 . S
O233 Zn225 1.943 1_565 S
O233 C232 1.249 . S
O234 Zn224 2.067 . S
O234 C232 1.270 . S
C235 O228 1.262 . S
C235 O236 1.232 . S
O236 C235 1.232 . S
C237 O229 1.260 . S
C237 O230 1.257 1_565 S
Zn238 O241 2.031 . S
Zn238 O243 2.049 . S
Zn238 O248 2.067 . S
Zn239 O240 1.962 . S
Zn239 O242 1.986 . S
Zn239 O244 1.996 . S
Zn239 O247 1.943 . S
O240 Zn239 1.962 . S
O240 C245 1.254 . S
O241 Zn238 2.031 . S
O241 C245 1.269 . S
O242 Zn239 1.986 . S
O242 C249 1.262 . S
O243 Zn238 2.049 . S
O243 C251 1.260 . S
O244 Zn239 1.996 . S
O244 C251 1.257 . S
C245 O240 1.254 . S
C245 O241 1.269 . S
C246 O247 1.249 . S
C246 O248 1.270 . S
O247 Zn239 1.943 . S
O247 C246 1.249 . S
O248 Zn238 2.067 . S
O248 C246 1.270 . S
C249 O242 1.262 . S
C249 O250 1.232 . S
O250 C249 1.232 . S
C251 O243 1.260 . S
C251 O244 1.257 . S
Zn252 O255 2.031 . S
Zn252 O257 2.049 . S
Zn252 O262 2.067 . S
Zn253 O254 1.962 . S
Zn253 O256 1.986 . S
Zn253 O258 1.996 . S
Zn253 O261 1.943 . S
O254 Zn253 1.962 . S
O254 C259 1.254 . S
O255 Zn252 2.031 . S
O255 C259 1.269 . S
O256 Zn253 1.986 . S
O256 C263 1.262 . S
O257 Zn252 2.049 . S
O257 C265 1.260 . S
O258 Zn253 1.996 . S
O258 C265 1.257 . S
C259 O254 1.254 . S
C259 O255 1.269 . S
C260 O261 1.249 . S
C260 O262 1.270 . S
O261 Zn253 1.943 . S
O261 C260 1.249 . S
O262 Zn252 2.067 . S
O262 C260 1.270 . S
C263 O256 1.262 . S
C263 O264 1.232 . S
O264 C263 1.232 . S
C265 O257 1.260 . S
C265 O258 1.257 . S
Zn266 O269 2.031 . S
Zn266 O271 2.049 . S
Zn266 O276 2.067 . S
Zn267 O268 1.962 . S
Zn267 O270 1.986 . S
Zn267 O272 1.996 . S
Zn267 O275 1.943 1_565 S
O268 Zn267 1.962 . S
O268 C273 1.254 1_565 S
O269 Zn266 2.031 . S
O269 C273 1.269 . S
O270 Zn267 1.986 . S
O270 C277 1.262 . S
O271 Zn266 2.049 . S
O271 C279 1.260 . S
O272 Zn267 1.996 . S
O272 C279 1.257 1_565 S
C273 O268 1.254 1_545 S
C273 O269 1.269 . S
C274 O275 1.249 . S
C274 O276 1.270 . S
O275 Zn267 1.943 1_545 S
O275 C274 1.249 . S
O276 Zn266 2.067 . S
O276 C274 1.270 . S
C277 O270 1.262 . S
C277 O278 1.232 . S
O278 C277 1.232 . S
C279 O271 1.260 . S
C279 O272 1.257 1_545 S
Zn280 O283 2.031 1_554 S
Zn280 O285 2.049 . S
Zn280 O290 2.067 . S
Zn281 O282 1.962 1_554 S
Zn281 O284 1.986 . S
Zn281 O286 1.996 . S
Zn281 O289 1.943 . S
O282 Zn281 1.962 1_556 S
O282 C287 1.254 . S
O283 Zn280 2.031 1_556 S
O283 C287 1.269 . S
O284 Zn281 1.986 . S
O284 C291 1.262 . S
O285 Zn280 2.049 . S
O285 C293 1.260 . S
O286 Zn281 1.996 . S
O286 C293 1.257 . S
C287 O282 1.254 . S
C287 O283 1.269 . S
C288 O289 1.249 . S
C288 O290 1.270 . S
O289 Zn281 1.943 . S
O289 C288 1.249 . S
O290 Zn280 2.067 . S
O290 C288 1.270 . S
C291 O284 1.262 . S
C291 O292 1.232 1_554 S
O292 C291 1.232 1_556 S
C293 O285 1.260 . S
C293 O286 1.257 . S
Zn294 O297 2.031 . S
Zn294 O299 2.049 . S
Zn294 O304 2.067 1_455 S
Zn295 O296 1.977 . S
Zn295 O298 1.971 1_455 S
Zn295 O300 2.021 . S
Zn295 O303 1.929 1_455 S
O296 Zn295 1.977 . S
O296 C301 1.254 . S
O297 Zn294 2.031 . S
O297 C301 1.269 . S
O298 Zn295 1.971 1_655 S
O298 C305 1.262 . S
O299 Zn294 2.049 . S
O299 C307 1.260 . S
O300 Zn295 2.021 . S
O300 C307 1.257 . S
C301 O296 1.254 . S
C301 O297 1.269 . S
C302 O303 1.249 . S
C302 O304 1.270 . S
O303 Zn295 1.929 1_655 S
O303 C302 1.249 . S
O304 Zn294 2.067 1_655 S
O304 C302 1.270 . S
C305 O298 1.262 . S
C305 O306 1.232 . S
O306 C305 1.232 . S
C307 O299 1.260 . S
C307 O300 1.257 . S
Zn308 O311 2.031 . S
Zn308 O313 2.049 . S
Zn308 O318 2.067 . S
Zn309 O310 1.962 . S
Zn309 O312 1.986 . S
Zn309 O314 1.996 . S
Zn309 O317 1.943 . S
O310 Zn309 1.962 . S
O310 C315 1.254 . S
O311 Zn308 2.031 . S
O311 C315 1.269 . S
O312 Zn309 1.986 . S
O312 C319 1.262 . S
O313 Zn308 2.049 . S
O313 C321 1.260 . S
O314 Zn309 1.996 . S
O314 C321 1.257 . S
C315 O310 1.254 . S
C315 O311 1.269 . S
C316 O317 1.249 . S
C316 O318 1.270 . S
O317 Zn309 1.943 . S
O317 C316 1.249 . S
O318 Zn308 2.067 . S
O318 C316 1.270 . S
C319 O312 1.262 . S
C319 O320 1.232 . S
O320 C319 1.232 . S
C321 O313 1.260 . S
C321 O314 1.257 . S
Zn322 O325 2.031 . S
Zn322 O327 2.049 . S
Zn322 O332 2.067 . S
Zn323 O324 1.962 . S
Zn323 O326 1.986 . S
Zn323 O328 1.996 . S
Zn323 O331 1.943 . S
O324 Zn323 1.962 . S
O324 C329 1.254 . S
O325 Zn322 2.031 . S
O325 C329 1.269 . S
O326 Zn323 1.986 . S
O326 C333 1.262 . S
O327 Zn322 2.049 . S
O327 C335 1.260 . S
O328 Zn323 1.996 . S
O328 C335 1.257 . S
C329 O324 1.254 . S
C329 O325 1.269 . S
C330 O331 1.249 . S
C330 O332 1.270 . S
O331 Zn323 1.943 . S
O331 C330 1.249 . S
O332 Zn322 2.067 . S
O332 C330 1.270 . S
C333 O326 1.262 . S
C333 O334 1.232 . S
O334 C333 1.232 . S
C335 O327 1.260 . S
C335 O328 1.257 . S
Tb336 C346 2.825 1_454 S
Tb336 O347 2.347 . S
Tb336 O350 2.366 . S
Tb336 O355 2.418 1_554 S
Tb336 O356 2.384 1_545 S
Tb336 O359 2.479 1_454 S
Tb336 O360 2.471 1_455 S
Eu337 O348 2.418 . S
Eu337 O349 2.384 . S
Eu337 O352 2.479 . S
Eu337 O353 2.471 . S
Eu337 O354 2.347 . S
Eu337 O357 2.366 . S
Eu337 C367 2.825 . S
C338 O354 1.259 1_556 S
C338 O355 1.265 . S
C339 O356 1.255 . S
C339 O357 1.265 1_565 S
C340 C342 1.380 . S
C340 C343 1.373 1_556 S
C340 C346 1.507 . S
C341 C342 1.384 . S
C341 C345 1.387 . S
C341 H368 0.930 . S
C342 C340 1.380 . S
C342 C341 1.384 . S
C342 H369 0.931 . S
C343 C340 1.373 1_554 S
C343 C344 1.390 1_554 S
C343 H370 0.932 . S
C344 C343 1.390 1_556 S
C344 C345 1.391 . S
C344 H371 0.930 1_556 S
C345 C341 1.387 . S
C345 C344 1.391 . S
C346 Tb336 2.825 1_656 S
C346 C340 1.507 . S
C346 O359 1.238 . S
C346 O360 1.247 1_556 S
O347 Tb336 2.347 . S
O347 C351 1.259 . S
O348 Eu337 2.418 . S
O348 C351 1.265 . S
O349 Eu337 2.384 . S
O349 C358 1.255 . S
O350 Tb336 2.366 . S
O350 C358 1.265 . S
C351 O347 1.259 . S
C351 O348 1.265 . S
O352 Eu337 2.479 . S
O352 C367 1.238 . S
O353 Eu337 2.471 . S
O353 C367 1.247 . S
O354 Eu337 2.347 . S
O354 C338 1.259 1_554 S
O355 Tb336 2.418 1_556 S
O355 C338 1.265 . S
O356 Tb336 2.384 1_565 S
O356 C339 1.255 . S
O357 Eu337 2.366 . S
O357 C339 1.265 1_545 S
C358 O349 1.255 . S
C358 O350 1.265 . S
O359 Tb336 2.479 1_656 S
O359 C346 1.238 . S
O360 Tb336 2.471 1_655 S
O360 C346 1.247 1_554 S
C361 C364 1.380 . S
C361 C365 1.374 . S
C361 C367 1.507 . S
C362 C363 1.387 . S
C362 C366 1.391 . S
C363 C362 1.387 . S
C363 C364 1.384 . S
C363 H372 0.930 . S
C364 C361 1.380 . S
C364 C363 1.384 . S
C364 H373 0.931 . S
C365 C361 1.374 . S
C365 C366 1.390 . S
C365 H374 0.930 . S
C366 C362 1.391 . S
C366 C365 1.390 . S
C366 H375 0.930 1_545 S
C367 Eu337 2.825 . S
C367 O352 1.238 . S
C367 O353 1.247 . S
C367 C361 1.507 . S
H368 C341 0.930 . S
H369 C342 0.931 . S
H370 C343 0.932 . S
H371 C344 0.930 1_554 S
H372 C363 0.930 . S
H373 C364 0.931 . S
H374 C365 0.930 . S
H375 C366 0.930 1_565 S
Tb376 C386 2.825 . S
Tb376 O387 2.347 . S
Tb376 O390 2.366 . S
Tb376 O395 2.418 . S
Tb376 O396 2.384 . S
Tb376 O399 2.479 . S
Tb376 O400 2.471 . S
Eu377 O388 2.418 . S
Eu377 O389 2.384 . S
Eu377 O392 2.479 . S
Eu377 O393 2.471 . S
Eu377 O394 2.347 . S
Eu377 O397 2.366 . S
Eu377 C407 2.825 . S
C378 O394 1.259 . S
C378 O395 1.265 . S
C379 O396 1.255 . S
C379 O397 1.265 . S
C380 C382 1.380 . S
C380 C383 1.374 . S
C380 C386 1.507 . S
C381 C382 1.384 . S
C381 C385 1.387 . S
C381 H408 0.930 . S
C382 C380 1.380 . S
C382 C381 1.384 . S
C382 H409 0.931 . S
C383 C380 1.374 . S
C383 C384 1.390 . S
C383 H410 0.930 . S
C384 C383 1.390 . S
C384 C385 1.391 . S
C384 H411 0.930 . S
C385 C381 1.387 . S
C385 C384 1.391 . S
C386 Tb376 2.825 . S
C386 C380 1.507 . S
C386 O399 1.238 . S
C386 O400 1.247 . S
O387 Tb376 2.347 . S
O387 C391 1.259 . S
O388 Eu377 2.418 . S
O388 C391 1.265 . S
O389 Eu377 2.384 . S
O389 C398 1.255 . S
O390 Tb376 2.366 . S
O390 C398 1.265 . S
C391 O387 1.259 . S
C391 O388 1.265 . S
O392 Eu377 2.479 . S
O392 C407 1.238 . S
O393 Eu377 2.471 . S
O393 C407 1.247 . S
O394 Eu377 2.347 . S
O394 C378 1.259 . S
O395 Tb376 2.418 . S
O395 C378 1.265 . S
O396 Tb376 2.384 . S
O396 C379 1.255 . S
O397 Eu377 2.366 . S
O397 C379 1.265 . S
C398 O389 1.255 . S
C398 O390 1.265 . S
O399 Tb376 2.479 . S
O399 C386 1.238 . S
O400 Tb376 2.471 . S
O400 C386 1.247 . S
C401 C404 1.380 . S
C401 C405 1.374 . S
C401 C407 1.507 . S
C402 C403 1.387 . S
C402 C406 1.391 . S
C403 C402 1.387 . S
C403 C404 1.384 . S
C403 H412 0.930 . S
C404 C401 1.380 . S
C404 C403 1.384 . S
C404 H413 0.931 . S
C405 C401 1.374 . S
C405 C406 1.390 . S
C405 H414 0.930 . S
C406 C402 1.391 . S
C406 C405 1.390 . S
C406 H415 0.930 . S
C407 Eu377 2.825 . S
C407 O392 1.238 . S
C407 O393 1.247 . S
C407 C401 1.507 . S
H408 C381 0.930 . S
H409 C382 0.931 . S
H410 C383 0.930 . S
H411 C384 0.930 . S
H412 C403 0.930 . S
H413 C404 0.931 . S
H414 C405 0.930 . S
H415 C406 0.930 . S
Tb416 C426 2.830 1_545 S
Tb416 O427 2.344 . S
Tb416 O430 2.368 1_545 S
Tb416 O435 2.419 1_545 S
Tb416 O436 2.380 . S
Tb416 O439 2.483 1_545 S
Tb416 O440 2.474 1_545 S
Eu417 O428 2.418 . S
Eu417 O429 2.384 . S
Eu417 O432 2.479 . S
Eu417 O433 2.471 . S
Eu417 O434 2.347 . S
Eu417 O437 2.366 . S
Eu417 C447 2.825 . S
C418 O434 1.259 . S
C418 O435 1.267 1_545 S
C419 O436 1.255 . S
C419 O437 1.265 . S
C420 C422 1.380 . S
C420 C423 1.374 . S
C420 C426 1.507 . S
C421 C422 1.384 . S
C421 C425 1.387 . S
C421 H448 0.930 . S
C422 C420 1.380 . S
C422 C421 1.384 . S
C422 H449 0.931 . S
C423 C420 1.374 . S
C423 C424 1.390 . S
C423 H450 0.930 . S
C424 C423 1.390 . S
C424 C425 1.391 . S
C424 H451 0.930 . S
C425 C421 1.387 . S
C425 C424 1.391 . S
C426 Tb416 2.830 1_565 S
C426 C420 1.507 . S
C426 O439 1.238 . S
C426 O440 1.247 . S
O427 Tb416 2.344 . S
O427 C431 1.259 . S
O428 Eu417 2.418 . S
O428 C431 1.265 . S
O429 Eu417 2.384 . S
O429 C438 1.255 . S
O430 Tb416 2.368 1_565 S
O430 C438 1.265 1_565 S
C431 O427 1.259 . S
C431 O428 1.265 . S
O432 Eu417 2.479 . S
O432 C447 1.238 . S
O433 Eu417 2.471 . S
O433 C447 1.247 . S
O434 Eu417 2.347 . S
O434 C418 1.259 . S
O435 Tb416 2.419 1_565 S
O435 C418 1.267 1_565 S
O436 Tb416 2.380 . S
O436 C419 1.255 . S
O437 Eu417 2.366 . S
O437 C419 1.265 . S
C438 O429 1.255 . S
C438 O430 1.265 1_545 S
O439 Tb416 2.483 1_565 S
O439 C426 1.238 . S
O440 Tb416 2.474 1_565 S
O440 C426 1.247 . S
C441 C444 1.380 . S
C441 C445 1.374 . S
C441 C447 1.507 . S
C442 C443 1.387 . S
C442 C446 1.391 . S
C443 C442 1.387 . S
C443 C444 1.384 . S
C443 H452 0.930 . S
C444 C441 1.380 . S
C444 C443 1.384 . S
C444 H453 0.931 . S
C445 C441 1.374 . S
C445 C446 1.390 . S
C445 H454 0.930 . S
C446 C442 1.391 . S
C446 C445 1.390 . S
C446 H455 0.930 . S
C447 Eu417 2.825 . S
C447 O432 1.238 . S
C447 O433 1.247 . S
C447 C441 1.507 . S
H448 C421 0.930 . S
H449 C422 0.931 . S
H450 C423 0.930 . S
H451 C424 0.930 . S
H452 C443 0.930 . S
H453 C444 0.931 . S
H454 C445 0.930 . S
H455 C446 0.930 . S
Tb456 C466 2.825 . S
Tb456 O467 2.347 . S
Tb456 O470 2.366 . S
Tb456 O475 2.418 . S
Tb456 O476 2.384 . S
Tb456 O479 2.479 . S
Tb456 O480 2.471 . S
Eu457 O468 2.418 . S
Eu457 O469 2.384 . S
Eu457 O472 2.479 . S
Eu457 O473 2.471 . S
Eu457 O474 2.347 . S
Eu457 O477 2.366 . S
Eu457 C487 2.825 . S
C458 O474 1.259 . S
C458 O475 1.265 . S
C459 O476 1.255 . S
C459 O477 1.265 . S
C460 C462 1.380 . S
C460 C463 1.374 . S
C460 C466 1.507 . S
C461 C462 1.384 . S
C461 C465 1.387 . S
C461 H488 0.930 . S
C462 C460 1.380 . S
C462 C461 1.384 . S
C462 H489 0.931 . S
C463 C460 1.374 . S
C463 C464 1.390 . S
C463 H490 0.930 . S
C464 C463 1.390 . S
C464 C465 1.391 . S
C464 H491 0.930 . S
C465 C461 1.387 . S
C465 C464 1.391 . S
C466 Tb456 2.825 . S
C466 C460 1.507 . S
C466 O479 1.238 . S
C466 O480 1.247 . S
O467 Tb456 2.347 . S
O467 C471 1.259 . S
O468 Eu457 2.418 . S
O468 C471 1.265 . S
O469 Eu457 2.384 . S
O469 C478 1.255 . S
O470 Tb456 2.366 . S
O470 C478 1.265 . S
C471 O467 1.259 . S
C471 O468 1.265 . S
O472 Eu457 2.479 . S
O472 C487 1.238 . S
O473 Eu457 2.471 . S
O473 C487 1.247 . S
O474 Eu457 2.347 . S
O474 C458 1.259 . S
O475 Tb456 2.418 . S
O475 C458 1.265 . S
O476 Tb456 2.384 . S
O476 C459 1.255 . S
O477 Eu457 2.366 . S
O477 C459 1.265 . S
C478 O469 1.255 . S
C478 O470 1.265 . S
O479 Tb456 2.479 . S
O479 C466 1.238 . S
O480 Tb456 2.471 . S
O480 C466 1.247 . S
C481 C484 1.380 . S
C481 C485 1.374 . S
C481 C487 1.507 . S
C482 C483 1.387 . S
C482 C486 1.391 . S
C483 C482 1.387 . S
C483 C484 1.384 . S
C483 H492 0.930 . S
C484 C481 1.380 . S
C484 C483 1.384 . S
C484 H493 0.931 . S
C485 C481 1.374 . S
C485 C486 1.390 . S
C485 H494 0.930 . S
C486 C482 1.391 . S
C486 C485 1.390 . S
C486 H495 0.930 . S
C487 Eu457 2.825 . S
C487 O472 1.238 . S
C487 O473 1.247 . S
C487 C481 1.507 . S
H488 C461 0.930 . S
H489 C462 0.931 . S
H490 C463 0.930 . S
H491 C464 0.930 . S
H492 C483 0.930 . S
H493 C484 0.931 . S
H494 C485 0.930 . S
H495 C486 0.930 . S
Tb496 C506 2.825 . S
Tb496 O507 2.347 . S
Tb496 O510 2.366 . S
Tb496 O515 2.418 . S
Tb496 O516 2.384 1_545 S
Tb496 O519 2.479 . S
Tb496 O520 2.471 . S
Eu497 O508 2.418 . S
Eu497 O509 2.384 . S
Eu497 O512 2.479 . S
Eu497 O513 2.471 . S
Eu497 O514 2.347 . S
Eu497 O517 2.366 . S
Eu497 C527 2.825 . S
C498 O514 1.259 . S
C498 O515 1.265 . S
C499 O516 1.255 . S
C499 O517 1.265 1_565 S
C500 C502 1.380 . S
C500 C503 1.374 1_455 S
C500 C506 1.507 . S
C501 C502 1.384 . S
C501 C505 1.387 1_455 S
C501 H528 0.930 . S
C502 C500 1.380 . S
C502 C501 1.384 . S
C502 H529 0.931 . S
C503 C500 1.374 1_655 S
C503 C504 1.390 . S
C503 H530 0.930 . S
C504 C503 1.390 . S
C504 C505 1.391 . S
C504 H531 0.930 . S
C505 C501 1.387 1_655 S
C505 C504 1.391 . S
C506 Tb496 2.825 . S
C506 C500 1.507 . S
C506 O519 1.238 . S
C506 O520 1.247 . S
O507 Tb496 2.347 . S
O507 C511 1.259 . S
O508 Eu497 2.418 . S
O508 C511 1.265 . S
O509 Eu497 2.384 . S
O509 C518 1.255 . S
O510 Tb496 2.366 . S
O510 C518 1.265 . S
C511 O507 1.259 . S
C511 O508 1.265 . S
O512 Eu497 2.479 . S
O512 C527 1.238 . S
O513 Eu497 2.471 . S
O513 C527 1.247 . S
O514 Eu497 2.347 . S
O514 C498 1.259 . S
O515 Tb496 2.418 . S
O515 C498 1.265 . S
O516 Tb496 2.384 1_565 S
O516 C499 1.255 . S
O517 Eu497 2.366 . S
O517 C499 1.265 1_545 S
C518 O509 1.255 . S
C518 O510 1.265 . S
O519 Tb496 2.479 . S
O519 C506 1.238 . S
O520 Tb496 2.471 . S
O520 C506 1.247 . S
C521 C524 1.380 . S
C521 C525 1.374 . S
C521 C527 1.507 . S
C522 C523 1.387 . S
C522 C526 1.391 . S
C523 C522 1.387 . S
C523 C524 1.384 . S
C523 H532 0.930 . S
C524 C521 1.380 . S
C524 C523 1.384 . S
C524 H533 0.931 . S
C525 C521 1.374 . S
C525 C526 1.390 . S
C525 H534 0.930 . S
C526 C522 1.391 . S
C526 C525 1.390 . S
C526 H535 0.930 . S
C527 Eu497 2.825 . S
C527 O512 1.238 . S
C527 O513 1.247 . S
C527 C521 1.507 . S
H528 C501 0.930 . S
H529 C502 0.931 . S
H530 C503 0.930 . S
H531 C504 0.930 . S
H532 C523 0.930 . S
H533 C524 0.931 . S
H534 C525 0.930 . S
H535 C526 0.930 . S
Tb536 C546 2.825 . S
Tb536 O547 2.347 . S
Tb536 O550 2.366 . S
Tb536 O555 2.418 . S
Tb536 O556 2.384 . S
Tb536 O559 2.479 . S
Tb536 O560 2.471 . S
Eu537 O548 2.418 . S
Eu537 O549 2.384 . S
Eu537 O552 2.479 . S
Eu537 O553 2.471 . S
Eu537 O554 2.347 . S
Eu537 O557 2.366 . S
Eu537 C567 2.825 . S
C538 O554 1.259 . S
C538 O555 1.265 . S
C539 O556 1.255 . S
C539 O557 1.265 . S
C540 C542 1.380 . S
C540 C543 1.374 . S
C540 C546 1.507 . S
C541 C542 1.384 . S
C541 C545 1.387 . S
C541 H568 0.930 . S
C542 C540 1.380 . S
C542 C541 1.384 . S
C542 H569 0.931 . S
C543 C540 1.374 . S
C543 C544 1.390 . S
C543 H570 0.930 . S
C544 C543 1.390 . S
C544 C545 1.391 . S
C544 H571 0.930 . S
C545 C541 1.387 . S
C545 C544 1.391 . S
C546 Tb536 2.825 . S
C546 C540 1.507 . S
C546 O559 1.238 . S
C546 O560 1.247 . S
O547 Tb536 2.347 . S
O547 C551 1.259 . S
O548 Eu537 2.418 . S
O548 C551 1.265 . S
O549 Eu537 2.384 . S
O549 C558 1.255 . S
O550 Tb536 2.366 . S
O550 C558 1.265 . S
C551 O547 1.259 . S
C551 O548 1.265 . S
O552 Eu537 2.479 . S
O552 C567 1.238 . S
O553 Eu537 2.471 . S
O553 C567 1.247 . S
O554 Eu537 2.347 . S
O554 C538 1.259 . S
O555 Tb536 2.418 . S
O555 C538 1.265 . S
O556 Tb536 2.384 . S
O556 C539 1.255 . S
O557 Eu537 2.366 . S
O557 C539 1.265 . S
C558 O549 1.255 . S
C558 O550 1.265 . S
O559 Tb536 2.479 . S
O559 C546 1.238 . S
O560 Tb536 2.471 . S
O560 C546 1.247 . S
C561 C564 1.380 . S
C561 C565 1.374 . S
C561 C567 1.507 . S
C562 C563 1.387 . S
C562 C566 1.391 . S
C563 C562 1.387 . S
C563 C564 1.384 . S
C563 H572 0.930 . S
C564 C561 1.380 . S
C564 C563 1.384 . S
C564 H573 0.931 . S
C565 C561 1.374 . S
C565 C566 1.390 . S
C565 H574 0.930 . S
C566 C562 1.391 . S
C566 C565 1.390 . S
C566 H575 0.930 . S
C567 Eu537 2.825 . S
C567 O552 1.238 . S
C567 O553 1.247 . S
C567 C561 1.507 . S
H568 C541 0.930 . S
H569 C542 0.931 . S
H570 C543 0.930 . S
H571 C544 0.930 . S
H572 C563 0.930 . S
H573 C564 0.931 . S
H574 C565 0.930 . S
H575 C566 0.930 . S
Tb576 C586 2.825 . S
Tb576 O587 2.347 . S
Tb576 O590 2.366 . S
Tb576 O595 2.418 1_545 S
Tb576 O596 2.384 . S
Tb576 O599 2.479 . S
Tb576 O600 2.471 . S
Eu577 O588 2.418 1_556 S
Eu577 O589 2.384 1_556 S
Eu577 O592 2.479 . S
Eu577 O593 2.471 . S
Eu577 O594 2.347 1_556 S
Eu577 O597 2.366 . S
Eu577 C607 2.825 . S
C578 O594 1.236 1_565 S
C578 O595 1.269 . S
C579 O596 1.255 . S
C579 O597 1.265 1_554 S
C580 C582 1.380 . S
C580 C583 1.374 . S
C580 C586 1.507 . S
C581 C582 1.384 . S
C581 C585 1.387 . S
C581 H608 0.930 1_545 S
C582 C580 1.380 . S
C582 C581 1.384 . S
C582 H609 0.931 1_545 S
C583 C580 1.374 . S
C583 C584 1.390 . S
C583 H610 0.930 . S
C584 C583 1.390 . S
C584 C585 1.391 . S
C584 H611 0.930 . S
C585 C581 1.387 . S
C585 C584 1.391 . S
C586 Tb576 2.825 . S
C586 C580 1.507 . S
C586 O599 1.238 . S
C586 O600 1.247 . S
O587 Tb576 2.347 . S
O587 C591 1.259 . S
O588 Eu577 2.418 1_554 S
O588 C591 1.265 . S
O589 Eu577 2.384 1_554 S
O589 C598 1.255 . S
O590 Tb576 2.366 . S
O590 C598 1.265 . S
C591 O587 1.259 . S
C591 O588 1.265 . S
O592 Eu577 2.479 . S
O592 C607 1.238 . S
O593 Eu577 2.471 . S
O593 C607 1.247 . S
O594 Eu577 2.347 1_554 S
O594 C578 1.236 1_545 S
O595 Tb576 2.418 1_565 S
O595 C578 1.269 . S
O596 Tb576 2.384 . S
O596 C579 1.255 . S
O597 Eu577 2.366 . S
O597 C579 1.265 1_556 S
C598 O589 1.255 . S
C598 O590 1.265 . S
O599 Tb576 2.479 . S
O599 C586 1.238 . S
O600 Tb576 2.471 . S
O600 C586 1.247 . S
C601 C604 1.380 . S
C601 C605 1.374 . S
C601 C607 1.507 . S
C602 C603 1.387 . S
C602 C606 1.391 . S
C603 C602 1.387 . S
C603 C604 1.384 . S
C603 H612 0.930 . S
C604 C601 1.380 . S
C604 C603 1.384 . S
C604 H613 0.931 . S
C605 C601 1.374 . S
C605 C606 1.390 . S
C605 H614 0.930 . S
C606 C602 1.391 . S
C606 C605 1.390 . S
C606 H615 0.930 . S
C607 Eu577 2.825 . S
C607 O592 1.238 . S
C607 O593 1.247 . S
C607 C601 1.507 . S
H608 C581 0.930 1_565 S
H609 C582 0.931 1_565 S
H610 C583 0.930 . S
H611 C584 0.930 . S
H612 C603 0.930 . S
H613 C604 0.931 . S
H614 C605 0.930 . S
H615 C606 0.930 . S
Tb616 C626 2.825 . S
Tb616 O627 2.347 . S
Tb616 O630 2.366 . S
Tb616 O635 2.418 . S
Tb616 O636 2.384 . S
Tb616 O639 2.479 . S
Tb616 O640 2.471 . S
Eu617 O628 2.418 . S
Eu617 O629 2.384 . S
Eu617 O632 2.479 . S
Eu617 O633 2.471 . S
Eu617 O634 2.347 . S
Eu617 O637 2.366 . S
Eu617 C647 2.825 . S
C618 O634 1.259 . S
C618 O635 1.265 . S
C619 O636 1.255 . S
C619 O637 1.265 . S
C620 C622 1.380 . S
C620 C623 1.374 . S
C620 C626 1.507 . S
C621 C622 1.384 . S
C621 C625 1.387 . S
C621 H648 0.930 . S
C622 C620 1.380 . S
C622 C621 1.384 . S
C622 H649 0.931 . S
C623 C620 1.374 . S
C623 C624 1.390 . S
C623 H650 0.930 . S
C624 C623 1.390 . S
C624 C625 1.391 . S
C624 H651 0.930 . S
C625 C621 1.387 . S
C625 C624 1.391 . S
C626 Tb616 2.825 . S
C626 C620 1.507 . S
C626 O639 1.238 . S
C626 O640 1.247 . S
O627 Tb616 2.347 . S
O627 C631 1.259 . S
O628 Eu617 2.418 . S
O628 C631 1.265 . S
O629 Eu617 2.384 . S
O629 C638 1.255 . S
O630 Tb616 2.366 . S
O630 C638 1.265 . S
C631 O627 1.259 . S
C631 O628 1.265 . S
O632 Eu617 2.479 . S
O632 C647 1.238 . S
O633 Eu617 2.471 . S
O633 C647 1.247 . S
O634 Eu617 2.347 . S
O634 C618 1.259 . S
O635 Tb616 2.418 . S
O635 C618 1.265 . S
O636 Tb616 2.384 . S
O636 C619 1.255 . S
O637 Eu617 2.366 . S
O637 C619 1.265 . S
C638 O629 1.255 . S
C638 O630 1.265 . S
O639 Tb616 2.479 . S
O639 C626 1.238 . S
O640 Tb616 2.471 . S
O640 C626 1.247 . S
C641 C644 1.380 . S
C641 C645 1.374 . S
C641 C647 1.507 . S
C642 C643 1.387 . S
C642 C646 1.391 . S
C643 C642 1.387 . S
C643 C644 1.384 . S
C643 H652 0.930 . S
C644 C641 1.380 . S
C644 C643 1.384 . S
C644 H653 0.931 . S
C645 C641 1.374 . S
C645 C646 1.390 . S
C645 H654 0.930 . S
C646 C642 1.391 . S
C646 C645 1.390 . S
C646 H655 0.930 . S
C647 Eu617 2.825 . S
C647 O632 1.238 . S
C647 O633 1.247 . S
C647 C641 1.507 . S
H648 C621 0.930 . S
H649 C622 0.931 . S
H650 C623 0.930 . S
H651 C624 0.930 . S
H652 C643 0.930 . S
H653 C644 0.931 . S
H654 C645 0.930 . S
H655 C646 0.930 . S
Tb656 C666 2.825 . S
Tb656 O667 2.347 1_556 S
Tb656 O670 2.366 . S
Tb656 O675 2.418 . S
Tb656 O676 2.384 1_556 S
Tb656 O679 2.479 . S
Tb656 O680 2.471 . S
Eu657 O668 2.418 . S
Eu657 O669 2.384 . S
Eu657 O672 2.479 . S
Eu657 O673 2.471 . S
Eu657 O674 2.347 . S
Eu657 O677 2.366 . S
Eu657 C687 2.825 . S
C658 O674 1.259 . S
C658 O675 1.265 1_554 S
C659 O676 1.255 . S
C659 O677 1.265 . S
C660 C662 1.380 . S
C660 C663 1.374 . S
C660 C666 1.507 . S
C661 C662 1.384 . S
C661 C665 1.387 . S
C661 H688 0.930 . S
C662 C660 1.380 . S
C662 C661 1.384 . S
C662 H689 0.931 . S
C663 C660 1.374 . S
C663 C664 1.390 . S
C663 H690 0.930 . S
C664 C663 1.390 . S
C664 C665 1.391 . S
C664 H691 0.930 . S
C665 C661 1.387 . S
C665 C664 1.391 . S
C666 Tb656 2.825 . S
C666 C660 1.507 . S
C666 O679 1.238 . S
C666 O680 1.247 . S
O667 Tb656 2.347 1_554 S
O667 C671 1.259 . S
O668 Eu657 2.418 . S
O668 C671 1.265 . S
O669 Eu657 2.384 . S
O669 C678 1.255 1_554 S
O670 Tb656 2.366 . S
O670 C678 1.265 . S
C671 O667 1.259 . S
C671 O668 1.265 . S
O672 Eu657 2.479 . S
O672 C687 1.238 . S
O673 Eu657 2.471 . S
O673 C687 1.247 . S
O674 Eu657 2.347 . S
O674 C658 1.259 . S
O675 Tb656 2.418 . S
O675 C658 1.265 1_556 S
O676 Tb656 2.384 1_554 S
O676 C659 1.255 . S
O677 Eu657 2.366 . S
O677 C659 1.265 . S
C678 O669 1.255 1_556 S
C678 O670 1.265 . S
O679 Tb656 2.479 . S
O679 C666 1.238 . S
O680 Tb656 2.471 . S
O680 C666 1.247 . S
C681 C684 1.380 . S
C681 C685 1.374 . S
C681 C687 1.507 . S
C682 C683 1.387 . S
C682 C686 1.391 . S
C683 C682 1.387 . S
C683 C684 1.384 . S
C683 H692 0.930 . S
C684 C681 1.380 . S
C684 C683 1.384 . S
C684 H693 0.931 . S
C685 C681 1.374 . S
C685 C686 1.390 . S
C685 H694 0.930 . S
C686 C682 1.391 . S
C686 C685 1.390 . S
C686 H695 0.930 . S
C687 Eu657 2.825 . S
C687 O672 1.238 . S
C687 O673 1.247 . S
C687 C681 1.507 . S
H688 C661 0.930 . S
H689 C662 0.931 . S
H690 C663 0.930 . S
H691 C664 0.930 . S
H692 C683 0.930 . S
H693 C684 0.931 . S
H694 C685 0.930 . S
H695 C686 0.930 . S
Tb696 C706 2.825 . S
Tb696 O707 2.347 . S
Tb696 O710 2.366 . S
Tb696 O715 2.418 . S
Tb696 O716 2.384 . S
Tb696 O719 2.479 . S
Tb696 O720 2.471 . S
Eu697 O708 2.418 . S
Eu697 O709 2.384 . S
Eu697 O712 2.479 . S
Eu697 O713 2.471 . S
Eu697 O714 2.347 . S
Eu697 O717 2.366 . S
Eu697 C727 2.825 . S
C698 O714 1.259 . S
C698 O715 1.265 . S
C699 O716 1.255 . S
C699 O717 1.265 . S
C700 C702 1.380 . S
C700 C703 1.374 . S
C700 C706 1.507 . S
C701 C702 1.384 . S
C701 C705 1.387 . S
C701 H728 0.930 . S
C702 C700 1.380 . S
C702 C701 1.384 . S
C702 H729 0.931 . S
C703 C700 1.374 . S
C703 C704 1.390 . S
C703 H730 0.930 . S
C704 C703 1.390 . S
C704 C705 1.391 . S
C704 H731 0.930 . S
C705 C701 1.387 . S
C705 C704 1.391 . S
C706 Tb696 2.825 . S
C706 C700 1.507 . S
C706 O719 1.238 . S
C706 O720 1.247 . S
O707 Tb696 2.347 . S
O707 C711 1.259 . S
O708 Eu697 2.418 . S
O708 C711 1.265 . S
O709 Eu697 2.384 . S
O709 C718 1.255 . S
O710 Tb696 2.366 . S
O710 C718 1.265 . S
C711 O707 1.259 . S
C711 O708 1.265 . S
O712 Eu697 2.479 . S
O712 C727 1.238 . S
O713 Eu697 2.471 . S
O713 C727 1.247 . S
O714 Eu697 2.347 . S
O714 C698 1.259 . S
O715 Tb696 2.418 . S
O715 C698 1.265 . S
O716 Tb696 2.384 . S
O716 C699 1.255 . S
O717 Eu697 2.366 . S
O717 C699 1.265 . S
C718 O709 1.255 . S
C718 O710 1.265 . S
O719 Tb696 2.479 . S
O719 C706 1.238 . S
O720 Tb696 2.471 . S
O720 C706 1.247 . S
C721 C724 1.380 . S
C721 C725 1.374 . S
C721 C727 1.507 . S
C722 C723 1.387 . S
C722 C726 1.391 . S
C723 C722 1.387 . S
C723 C724 1.384 . S
C723 H732 0.930 . S
C724 C721 1.380 . S
C724 C723 1.384 . S
C724 H733 0.931 . S
C725 C721 1.374 . S
C725 C726 1.390 . S
C725 H734 0.930 . S
C726 C722 1.391 . S
C726 C725 1.390 . S
C726 H735 0.930 . S
C727 Eu697 2.825 . S
C727 O712 1.238 . S
C727 O713 1.247 . S
C727 C721 1.507 . S
H728 C701 0.930 . S
H729 C702 0.931 . S
H730 C703 0.930 . S
H731 C704 0.930 . S
H732 C723 0.930 . S
H733 C724 0.931 . S
H734 C725 0.930 . S
H735 C726 0.930 . S
Tb736 C746 2.825 . S
Tb736 O747 2.347 . S
Tb736 O750 2.366 . S
Tb736 O755 2.418 . S
Tb736 O756 2.384 . S
Tb736 O759 2.479 . S
Tb736 O760 2.471 . S
Eu737 O748 2.418 . S
Eu737 O749 2.384 . S
Eu737 O752 2.479 . S
Eu737 O753 2.471 . S
Eu737 O754 2.347 . S
Eu737 O757 2.366 . S
Eu737 C767 2.825 . S
C738 O754 1.259 . S
C738 O755 1.265 . S
C739 O756 1.255 . S
C739 O757 1.265 . S
C740 C742 1.380 . S
C740 C743 1.374 . S
C740 C746 1.507 . S
C741 C742 1.384 . S
C741 C745 1.387 . S
C741 H768 0.930 . S
C742 C740 1.380 . S
C742 C741 1.384 . S
C742 H769 0.931 . S
C743 C740 1.374 . S
C743 C744 1.390 . S
C743 H770 0.930 . S
C744 C743 1.390 . S
C744 C745 1.391 . S
C744 H771 0.930 . S
C745 C741 1.387 . S
C745 C744 1.391 . S
C746 Tb736 2.825 . S
C746 C740 1.507 . S
C746 O759 1.238 . S
C746 O760 1.247 . S
O747 Tb736 2.347 . S
O747 C751 1.259 . S
O748 Eu737 2.418 . S
O748 C751 1.265 . S
O749 Eu737 2.384 . S
O749 C758 1.255 . S
O750 Tb736 2.366 . S
O750 C758 1.265 . S
C751 O747 1.259 . S
C751 O748 1.265 . S
O752 Eu737 2.479 . S
O752 C767 1.238 . S
O753 Eu737 2.471 . S
O753 C767 1.247 . S
O754 Eu737 2.347 . S
O754 C738 1.259 . S
O755 Tb736 2.418 . S
O755 C738 1.265 . S
O756 Tb736 2.384 . S
O756 C739 1.255 . S
O757 Eu737 2.366 . S
O757 C739 1.265 . S
C758 O749 1.255 . S
C758 O750 1.265 . S
O759 Tb736 2.479 . S
O759 C746 1.238 . S
O760 Tb736 2.471 . S
O760 C746 1.247 . S
C761 C764 1.380 . S
C761 C765 1.374 . S
C761 C767 1.507 . S
C762 C763 1.387 . S
C762 C766 1.391 . S
C763 C762 1.387 . S
C763 C764 1.384 . S
C763 H772 0.930 . S
C764 C761 1.380 . S
C764 C763 1.384 . S
C764 H773 0.931 . S
C765 C761 1.374 . S
C765 C766 1.390 . S
C765 H774 0.930 . S
C766 C762 1.391 . S
C766 C765 1.390 . S
C766 H775 0.930 . S
C767 Eu737 2.825 . S
C767 O752 1.238 . S
C767 O753 1.247 . S
C767 C761 1.507 . S
H768 C741 0.930 . S
H769 C742 0.931 . S
H770 C743 0.930 . S
H771 C744 0.930 . S
H772 C763 0.930 . S
H773 C764 0.931 . S
H774 C765 0.930 . S
H775 C766 0.930 . S
Tb776 C786 2.825 . S
Tb776 O787 2.347 . S
Tb776 O790 2.366 . S
Tb776 O795 2.418 . S
Tb776 O796 2.384 . S
Tb776 O799 2.479 . S
Tb776 O800 2.471 . S
Eu777 O788 2.418 . S
Eu777 O789 2.384 . S
Eu777 O792 2.479 . S
Eu777 O793 2.471 . S
Eu777 O794 2.347 . S
Eu777 O797 2.366 . S
Eu777 C807 2.825 . S
C778 O794 1.259 . S
C778 O795 1.265 . S
C779 O796 1.255 . S
C779 O797 1.265 . S
C780 C782 1.380 . S
C780 C783 1.374 . S
C780 C786 1.507 . S
C781 C782 1.384 . S
C781 C785 1.387 . S
C781 H808 0.930 . S
C782 C780 1.380 . S
C782 C781 1.384 . S
C782 H809 0.931 . S
C783 C780 1.374 . S
C783 C784 1.390 . S
C783 H810 0.930 . S
C784 C783 1.390 . S
C784 C785 1.391 . S
C784 H811 0.930 . S
C785 C781 1.387 . S
C785 C784 1.391 . S
C786 Tb776 2.825 . S
C786 C780 1.507 . S
C786 O799 1.238 . S
C786 O800 1.247 . S
O787 Tb776 2.347 . S
O787 C791 1.259 . S
O788 Eu777 2.418 . S
O788 C791 1.265 . S
O789 Eu777 2.384 . S
O789 C798 1.255 . S
O790 Tb776 2.366 . S
O790 C798 1.265 . S
C791 O787 1.259 . S
C791 O788 1.265 . S
O792 Eu777 2.479 . S
O792 C807 1.238 . S
O793 Eu777 2.471 . S
O793 C807 1.247 . S
O794 Eu777 2.347 . S
O794 C778 1.259 . S
O795 Tb776 2.418 . S
O795 C778 1.265 . S
O796 Tb776 2.384 . S
O796 C779 1.255 . S
O797 Eu777 2.366 . S
O797 C779 1.265 . S
C798 O789 1.255 . S
C798 O790 1.265 . S
O799 Tb776 2.479 . S
O799 C786 1.238 . S
O800 Tb776 2.471 . S
O800 C786 1.247 . S
C801 C804 1.380 . S
C801 C805 1.374 . S
C801 C807 1.507 . S
C802 C803 1.387 . S
C802 C806 1.391 . S
C803 C802 1.387 . S
C803 C804 1.384 . S
C803 H812 0.930 . S
C804 C801 1.380 . S
C804 C803 1.384 . S
C804 H813 0.931 . S
C805 C801 1.374 . S
C805 C806 1.390 . S
C805 H814 0.930 . S
C806 C802 1.391 . S
C806 C805 1.390 . S
C806 H815 0.930 . S
C807 Eu777 2.825 . S
C807 O792 1.238 . S
C807 O793 1.247 . S
C807 C801 1.507 . S
H808 C781 0.930 . S
H809 C782 0.931 . S
H810 C783 0.930 . S
H811 C784 0.930 . S
H812 C803 0.930 . S
H813 C804 0.931 . S
H814 C805 0.930 . S
H815 C806 0.930 . S
Tb816 C826 2.825 . S
Tb816 O827 2.347 . S
Tb816 O830 2.366 . S
Tb816 O835 2.418 . S
Tb816 O836 2.384 . S
Tb816 O839 2.479 . S
Tb816 O840 2.471 . S
Eu817 O828 2.418 . S
Eu817 O829 2.384 . S
Eu817 O832 2.479 . S
Eu817 O833 2.471 . S
Eu817 O834 2.347 . S
Eu817 O837 2.366 . S
Eu817 C847 2.825 . S
C818 O834 1.259 . S
C818 O835 1.265 . S
C819 O836 1.255 . S
C819 O837 1.265 . S
C820 C822 1.380 . S
C820 C823 1.374 . S
C820 C826 1.507 . S
C821 C822 1.384 . S
C821 C825 1.387 . S
C821 H848 0.930 . S
C822 C820 1.380 . S
C822 C821 1.384 . S
C822 H849 0.931 . S
C823 C820 1.374 . S
C823 C824 1.390 . S
C823 H850 0.930 . S
C824 C823 1.390 . S
C824 C825 1.391 . S
C824 H851 0.930 . S
C825 C821 1.387 . S
C825 C824 1.391 . S
C826 Tb816 2.825 . S
C826 C820 1.507 . S
C826 O839 1.238 . S
C826 O840 1.247 . S
O827 Tb816 2.347 . S
O827 C831 1.259 . S
O828 Eu817 2.418 . S
O828 C831 1.265 . S
O829 Eu817 2.384 . S
O829 C838 1.255 . S
O830 Tb816 2.366 . S
O830 C838 1.265 . S
C831 O827 1.259 . S
C831 O828 1.265 . S
O832 Eu817 2.479 . S
O832 C847 1.238 . S
O833 Eu817 2.471 . S
O833 C847 1.247 . S
O834 Eu817 2.347 . S
O834 C818 1.259 . S
O835 Tb816 2.418 . S
O835 C818 1.265 . S
O836 Tb816 2.384 . S
O836 C819 1.255 . S
O837 Eu817 2.366 . S
O837 C819 1.265 . S
C838 O829 1.255 . S
C838 O830 1.265 . S
O839 Tb816 2.479 . S
O839 C826 1.238 . S
O840 Tb816 2.471 . S
O840 C826 1.247 . S
C841 C844 1.380 . S
C841 C845 1.374 . S
C841 C847 1.507 . S
C842 C843 1.387 . S
C842 C846 1.391 . S
C843 C842 1.387 . S
C843 C844 1.384 . S
C843 H852 0.930 . S
C844 C841 1.380 . S
C844 C843 1.384 . S
C844 H853 0.931 . S
C845 C841 1.374 . S
C845 C846 1.390 . S
C845 H854 0.930 . S
C846 C842 1.391 . S
C846 C845 1.390 . S
C846 H855 0.930 . S
C847 Eu817 2.825 . S
C847 O832 1.238 . S
C847 O833 1.247 . S
C847 C841 1.507 . S
H848 C821 0.930 . S
H849 C822 0.931 . S
H850 C823 0.930 . S
H851 C824 0.930 . S
H852 C843 0.930 . S
H853 C844 0.931 . S
H854 C845 0.930 . S
H855 C846 0.930 . S
Tb856 C866 2.825 . S
Tb856 O867 2.347 . S
Tb856 O870 2.366 . S
Tb856 O875 2.418 . S
Tb856 O876 2.384 . S
Tb856 O879 2.479 . S
Tb856 O880 2.471 . S
Eu857 O868 2.418 . S
Eu857 O869 2.384 . S
Eu857 O872 2.479 . S
Eu857 O873 2.471 . S
Eu857 O874 2.347 . S
Eu857 O877 2.366 . S
Eu857 C887 2.825 . S
C858 O874 1.259 . S
C858 O875 1.265 . S
C859 O876 1.255 . S
C859 O877 1.265 . S
C860 C862 1.380 . S
C860 C863 1.374 . S
C860 C866 1.507 . S
C861 C862 1.384 . S
C861 C865 1.387 . S
C861 H888 0.930 . S
C862 C860 1.380 . S
C862 C861 1.384 . S
C862 H889 0.931 . S
C863 C860 1.374 . S
C863 C864 1.390 . S
C863 H890 0.930 . S
C864 C863 1.390 . S
C864 C865 1.391 . S
C864 H891 0.930 . S
C865 C861 1.387 . S
C865 C864 1.391 . S
C866 Tb856 2.825 . S
C866 C860 1.507 . S
C866 O879 1.238 . S
C866 O880 1.247 . S
O867 Tb856 2.347 . S
O867 C871 1.259 . S
O868 Eu857 2.418 . S
O868 C871 1.265 . S
O869 Eu857 2.384 . S
O869 C878 1.255 . S
O870 Tb856 2.366 . S
O870 C878 1.265 . S
C871 O867 1.259 . S
C871 O868 1.265 . S
O872 Eu857 2.479 . S
O872 C887 1.238 . S
O873 Eu857 2.471 . S
O873 C887 1.247 . S
O874 Eu857 2.347 . S
O874 C858 1.259 . S
O875 Tb856 2.418 . S
O875 C858 1.265 . S
O876 Tb856 2.384 . S
O876 C859 1.255 . S
O877 Eu857 2.366 . S
O877 C859 1.265 . S
C878 O869 1.255 . S
C878 O870 1.265 . S
O879 Tb856 2.479 . S
O879 C866 1.238 . S
O880 Tb856 2.471 . S
O880 C866 1.247 . S
C881 C884 1.380 . S
C881 C885 1.374 . S
C881 C887 1.507 . S
C882 C883 1.387 . S
C882 C886 1.391 . S
C883 C882 1.387 . S
C883 C884 1.384 . S
C883 H892 0.930 . S
C884 C881 1.380 . S
C884 C883 1.384 . S
C884 H893 0.931 . S
C885 C881 1.374 . S
C885 C886 1.390 . S
C885 H894 0.930 . S
C886 C882 1.391 . S
C886 C885 1.390 . S
C886 H895 0.930 . S
C887 Eu857 2.825 . S
C887 O872 1.238 . S
C887 O873 1.247 . S
C887 C881 1.507 . S
H888 C861 0.930 . S
H889 C862 0.931 . S
H890 C863 0.930 . S
H891 C864 0.930 . S
H892 C883 0.930 . S
H893 C884 0.931 . S
H894 C885 0.930 . S
H895 C886 0.930 . S
Tb896 C906 2.825 . S
Tb896 O907 2.347 . S
Tb896 O910 2.366 . S
Tb896 O915 2.418 . S
Tb896 O916 2.384 . S
Tb896 O919 2.479 . S
Tb896 O920 2.471 . S
Eu897 O908 2.418 . S
Eu897 O909 2.384 . S
Eu897 O912 2.479 . S
Eu897 O913 2.471 . S
Eu897 O914 2.347 . S
Eu897 O917 2.366 . S
Eu897 C927 2.825 . S
C898 O914 1.259 . S
C898 O915 1.265 . S
C899 O916 1.255 . S
C899 O917 1.265 . S
C900 C902 1.380 . S
C900 C903 1.374 . S
C900 C906 1.507 . S
C901 C902 1.384 . S
C901 C905 1.387 . S
C901 H928 0.930 . S
C902 C900 1.380 . S
C902 C901 1.384 . S
C902 H929 0.931 . S
C903 C900 1.374 . S
C903 C904 1.390 . S
C903 H930 0.930 . S
C904 C903 1.390 . S
C904 C905 1.391 . S
C904 H931 0.930 . S
C905 C901 1.387 . S
C905 C904 1.391 . S
C906 Tb896 2.825 . S
C906 C900 1.507 . S
C906 O919 1.238 . S
C906 O920 1.247 . S
O907 Tb896 2.347 . S
O907 C911 1.259 . S
O908 Eu897 2.418 . S
O908 C911 1.265 . S
O909 Eu897 2.384 . S
O909 C918 1.255 . S
O910 Tb896 2.366 . S
O910 C918 1.265 . S
C911 O907 1.259 . S
C911 O908 1.265 . S
O912 Eu897 2.479 . S
O912 C927 1.238 . S
O913 Eu897 2.471 . S
O913 C927 1.247 . S
O914 Eu897 2.347 . S
O914 C898 1.259 . S
O915 Tb896 2.418 . S
O915 C898 1.265 . S
O916 Tb896 2.384 . S
O916 C899 1.255 . S
O917 Eu897 2.366 . S
O917 C899 1.265 . S
C918 O909 1.255 . S
C918 O910 1.265 . S
O919 Tb896 2.479 . S
O919 C906 1.238 . S
O920 Tb896 2.471 . S
O920 C906 1.247 . S
C921 C924 1.380 . S
C921 C925 1.374 . S
C921 C927 1.507 . S
C922 C923 1.387 . S
C922 C926 1.391 . S
C923 C922 1.387 . S
C923 C924 1.384 . S
C923 H932 0.930 . S
C924 C921 1.380 . S
C924 C923 1.384 . S
C924 H933 0.931 . S
C925 C921 1.374 . S
C925 C926 1.390 . S
C925 H934 0.930 . S
C926 C922 1.391 . S
C926 C925 1.390 . S
C926 H935 0.930 . S
C927 Eu897 2.825 . S
C927 O912 1.238 . S
C927 O913 1.247 . S
C927 C921 1.507 . S
H928 C901 0.930 . S
H929 C902 0.931 . S
H930 C903 0.930 . S
H931 C904 0.930 . S
H932 C923 0.930 . S
H933 C924 0.931 . S
H934 C925 0.930 . S
H935 C926 0.930 . S
Tb936 C946 2.825 1_554 S
Tb936 O947 2.347 1_554 S
Tb936 O950 2.366 . S
Tb936 O955 2.418 . S
Tb936 O956 2.384 . S
Tb936 O959 2.479 . S
Tb936 O960 2.471 1_554 S
Eu937 O948 2.418 1_554 S
Eu937 O949 2.384 . S
Eu937 O952 2.479 . S
Eu937 O953 2.471 . S
Eu937 O954 2.347 . S
Eu937 O957 2.366 . S
Eu937 C967 2.825 . S
C938 O954 1.259 . S
C938 O955 1.265 . S
C939 O956 1.255 . S
C939 O957 1.265 . S
C940 C942 1.380 . S
C940 C943 1.374 . S
C940 C946 1.507 . S
C941 C942 1.384 . S
C941 C945 1.387 . S
C941 H968 0.930 . S
C942 C940 1.380 . S
C942 C941 1.384 . S
C942 H969 0.931 1_556 S
C943 C940 1.374 . S
C943 C944 1.390 . S
C943 H970 0.930 . S
C944 C943 1.390 . S
C944 C945 1.391 . S
C944 H971 0.930 . S
C945 C941 1.387 . S
C945 C944 1.391 . S
C946 Tb936 2.825 1_556 S
C946 C940 1.507 . S
C946 O959 1.238 1_556 S
C946 O960 1.247 . S
O947 Tb936 2.347 1_556 S
O947 C951 1.259 . S
O948 Eu937 2.418 1_556 S
O948 C951 1.265 . S
O949 Eu937 2.384 . S
O949 C958 1.255 . S
O950 Tb936 2.366 . S
O950 C958 1.265 . S
C951 O947 1.259 . S
C951 O948 1.265 . S
O952 Eu937 2.479 . S
O952 C967 1.238 . S
O953 Eu937 2.471 . S
O953 C967 1.247 . S
O954 Eu937 2.347 . S
O954 C938 1.259 . S
O955 Tb936 2.418 . S
O955 C938 1.265 . S
O956 Tb936 2.384 . S
O956 C939 1.255 . S
O957 Eu937 2.366 . S
O957 C939 1.265 . S
C958 O949 1.255 . S
C958 O950 1.265 . S
O959 Tb936 2.479 . S
O959 C946 1.238 1_554 S
O960 Tb936 2.471 1_556 S
O960 C946 1.247 . S
C961 C964 1.380 . S
C961 C965 1.374 . S
C961 C967 1.507 . S
C962 C963 1.387 . S
C962 C966 1.391 . S
C963 C962 1.387 . S
C963 C964 1.384 . S
C963 H972 0.930 . S
C964 C961 1.380 . S
C964 C963 1.384 . S
C964 H973 0.931 . S
C965 C961 1.374 . S
C965 C966 1.390 . S
C965 H974 0.930 . S
C966 C962 1.391 . S
C966 C965 1.390 . S
C966 H975 0.930 . S
C967 Eu937 2.825 . S
C967 O952 1.238 . S
C967 O953 1.247 . S
C967 C961 1.507 . S
H968 C941 0.930 . S
H969 C942 0.931 1_554 S
H970 C943 0.930 . S
H971 C944 0.930 . S
H972 C963 0.930 . S
H973 C964 0.931 . S
H974 C965 0.930 . S
H975 C966 0.930 . S
C976 C977 1.390 1_655 S
C976 C978 1.402 . S
C976 H992 0.931 . S
C977 C976 1.390 1_455 S
C977 C981 1.377 . S
C978 C976 1.402 . S
C978 C979 1.351 1_655 S
C978 C982 1.540 . S
C979 C978 1.351 1_455 S
C979 C980 1.410 . S
C979 C987 1.503 . S
C980 C979 1.410 . S
C980 C981 1.392 . S
C980 C983 1.511 . S
C981 C977 1.377 . S
C981 C980 1.392 . S
C981 H993 0.929 . S
C982 C978 1.540 . S
C982 H994 0.960 . S
C982 H995 0.962 1_655 S
C982 H996 0.960 . S
C983 C980 1.511 . S
C983 H997 0.961 . S
C983 H998 0.961 . S
C983 H999 0.961 . S
C984 C985 1.370 . S
C984 C986 1.363 1_554 S
C984 H1000 0.931 . S
C985 C984 1.370 . S
C985 C989 1.408 1_554 S
C986 C984 1.363 1_556 S
C986 C987 1.370 . S
C986 C990 1.524 . S
C987 C979 1.503 . S
C987 C986 1.370 . S
C987 C988 1.403 . S
C988 C987 1.403 . S
C988 C989 1.404 . S
C988 C991 1.539 1_455 S
C989 C985 1.408 1_556 S
C989 C988 1.404 . S
C989 H1001 0.930 . S
C990 C986 1.524 . S
C990 H1002 0.956 . S
C990 H1003 0.961 . S
C990 H1004 0.961 . S
C991 C988 1.539 1_655 S
C991 H1005 0.958 . S
C991 H1006 0.961 . S
C991 H1007 0.960 . S
H992 C976 0.931 . S
H993 C981 0.929 . S
H994 C982 0.960 . S
H995 C982 0.962 1_455 S
H996 C982 0.960 . S
H997 C983 0.961 . S
H998 C983 0.961 . S
H999 C983 0.961 . S
H1000 C984 0.931 . S
H1001 C989 0.930 . S
H1002 C990 0.956 . S
H1003 C990 0.961 . S
H1004 C990 0.961 . S
H1005 C991 0.958 . S
H1006 C991 0.961 . S
H1007 C991 0.960 . S
C1008 C1009 1.391 . S
C1008 C1010 1.394 . S
C1008 H1024 0.931 . S
C1009 C1008 1.391 . S
C1009 C1013 1.376 . S
C1010 C1008 1.394 . S
C1010 C1011 1.369 . S
C1010 C1014 1.531 . S
C1011 C1010 1.369 . S
C1011 C1012 1.410 . S
C1011 C1019 1.503 . S
C1012 C1011 1.410 . S
C1012 C1013 1.392 . S
C1012 C1015 1.511 . S
C1013 C1009 1.376 . S
C1013 C1012 1.392 . S
C1013 H1025 0.929 . S
C1014 C1010 1.531 . S
C1014 H1026 0.960 . S
C1014 H1027 0.962 . S
C1014 H1028 0.960 . S
C1015 C1012 1.511 . S
C1015 H1029 0.961 . S
C1015 H1030 0.961 . S
C1015 H1031 0.961 . S
C1016 C1017 1.370 . S
C1016 C1018 1.363 . S
C1016 H1032 0.931 . S
C1017 C1016 1.370 . S
C1017 C1021 1.408 . S
C1018 C1016 1.363 . S
C1018 C1019 1.370 . S
C1018 C1022 1.524 . S
C1019 C1011 1.503 . S
C1019 C1018 1.370 . S
C1019 C1020 1.403 . S
C1020 C1019 1.403 . S
C1020 C1021 1.404 . S
C1020 C1023 1.539 . S
C1021 C1017 1.408 . S
C1021 C1020 1.404 . S
C1021 H1033 0.930 . S
C1022 C1018 1.524 . S
C1022 H1034 0.956 . S
C1022 H1035 0.961 . S
C1022 H1036 0.961 . S
C1023 C1020 1.539 . S
C1023 H1037 0.958 . S
C1023 H1038 0.961 . S
C1023 H1039 0.960 . S
H1024 C1008 0.931 . S
H1025 C1013 0.929 . S
H1026 C1014 0.960 . S
H1027 C1014 0.962 . S
H1028 C1014 0.960 . S
H1029 C1015 0.961 . S
H1030 C1015 0.961 . S
H1031 C1015 0.961 . S
H1032 C1016 0.931 . S
H1033 C1021 0.930 . S
H1034 C1022 0.956 . S
H1035 C1022 0.961 . S
H1036 C1022 0.961 . S
H1037 C1023 0.958 . S
H1038 C1023 0.961 . S
H1039 C1023 0.960 . S
C1040 C1041 1.391 . S
C1040 C1042 1.394 . S
C1040 H1056 0.931 . S
C1041 C1040 1.391 . S
C1041 C1045 1.376 . S
C1042 C1040 1.394 . S
C1042 C1043 1.369 . S
C1042 C1046 1.531 . S
C1043 C1042 1.369 . S
C1043 C1044 1.410 . S
C1043 C1051 1.503 . S
C1044 C1043 1.410 . S
C1044 C1045 1.392 . S
C1044 C1047 1.511 . S
C1045 C1041 1.376 . S
C1045 C1044 1.392 . S
C1045 H1057 0.929 . S
C1046 C1042 1.531 . S
C1046 H1058 0.960 . S
C1046 H1059 0.962 . S
C1046 H1060 0.960 . S
C1047 C1044 1.511 . S
C1047 H1061 0.961 . S
C1047 H1062 0.961 . S
C1047 H1063 0.961 . S
C1048 C1049 1.370 . S
C1048 C1050 1.363 . S
C1048 H1064 0.931 . S
C1049 C1048 1.370 . S
C1049 C1053 1.408 . S
C1050 C1048 1.363 . S
C1050 C1051 1.370 . S
C1050 C1054 1.524 . S
C1051 C1043 1.503 . S
C1051 C1050 1.370 . S
C1051 C1052 1.403 . S
C1052 C1051 1.403 . S
C1052 C1053 1.404 . S
C1052 C1055 1.539 . S
C1053 C1049 1.408 . S
C1053 C1052 1.404 . S
C1053 H1065 0.930 . S
C1054 C1050 1.524 . S
C1054 H1066 0.956 . S
C1054 H1067 0.961 . S
C1054 H1068 0.961 . S
C1055 C1052 1.539 . S
C1055 H1069 0.958 . S
C1055 H1070 0.961 . S
C1055 H1071 0.960 . S
H1056 C1040 0.931 . S
H1057 C1045 0.929 . S
H1058 C1046 0.960 . S
H1059 C1046 0.962 . S
H1060 C1046 0.960 . S
H1061 C1047 0.961 . S
H1062 C1047 0.961 . S
H1063 C1047 0.961 . S
H1064 C1048 0.931 . S
H1065 C1053 0.930 . S
H1066 C1054 0.956 . S
H1067 C1054 0.961 . S
H1068 C1054 0.961 . S
H1069 C1055 0.958 . S
H1070 C1055 0.961 . S
H1071 C1055 0.960 . S
C1072 C1073 1.391 . S
C1072 C1074 1.394 . S
C1072 H1088 0.931 . S
C1073 C1072 1.391 . S
C1073 C1077 1.376 . S
C1074 C1072 1.394 . S
C1074 C1075 1.369 . S
C1074 C1078 1.531 . S
C1075 C1074 1.369 . S
C1075 C1076 1.410 . S
C1075 C1083 1.503 . S
C1076 C1075 1.410 . S
C1076 C1077 1.392 . S
C1076 C1079 1.511 . S
C1077 C1073 1.376 . S
C1077 C1076 1.392 . S
C1077 H1089 0.929 . S
C1078 C1074 1.531 . S
C1078 H1090 0.960 . S
C1078 H1091 0.962 . S
C1078 H1092 0.960 . S
C1079 C1076 1.511 . S
C1079 H1093 0.961 . S
C1079 H1094 0.961 . S
C1079 H1095 0.961 . S
C1080 C1081 1.370 . S
C1080 C1082 1.363 . S
C1080 H1096 0.931 . S
C1081 C1080 1.370 . S
C1081 C1085 1.408 . S
C1082 C1080 1.363 . S
C1082 C1083 1.370 . S
C1082 C1086 1.524 . S
C1083 C1075 1.503 . S
C1083 C1082 1.370 . S
C1083 C1084 1.403 . S
C1084 C1083 1.403 . S
C1084 C1085 1.404 . S
C1084 C1087 1.539 . S
C1085 C1081 1.408 . S
C1085 C1084 1.404 . S
C1085 H1097 0.930 . S
C1086 C1082 1.524 . S
C1086 H1098 0.956 . S
C1086 H1099 0.961 . S
C1086 H1100 0.961 . S
C1087 C1084 1.539 . S
C1087 H1101 0.958 . S
C1087 H1102 0.961 . S
C1087 H1103 0.960 . S
H1088 C1072 0.931 . S
H1089 C1077 0.929 . S
H1090 C1078 0.960 . S
H1091 C1078 0.962 . S
H1092 C1078 0.960 . S
H1093 C1079 0.961 . S
H1094 C1079 0.961 . S
H1095 C1079 0.961 . S
H1096 C1080 0.931 . S
H1097 C1085 0.930 . S
H1098 C1086 0.956 . S
H1099 C1086 0.961 . S
H1100 C1086 0.961 . S
H1101 C1087 0.958 . S
H1102 C1087 0.961 . S
H1103 C1087 0.960 . S
C1104 C1105 1.391 . S
C1104 C1106 1.394 . S
C1104 H1120 0.931 . S
C1105 C1104 1.391 . S
C1105 C1109 1.376 . S
C1106 C1104 1.394 . S
C1106 C1107 1.369 . S
C1106 C1110 1.531 . S
C1107 C1106 1.369 . S
C1107 C1108 1.410 . S
C1107 C1115 1.503 . S
C1108 C1107 1.410 . S
C1108 C1109 1.392 . S
C1108 C1111 1.511 . S
C1109 C1105 1.376 . S
C1109 C1108 1.392 . S
C1109 H1121 0.929 . S
C1110 C1106 1.531 . S
C1110 H1122 0.960 . S
C1110 H1123 0.962 . S
C1110 H1124 0.960 . S
C1111 C1108 1.511 . S
C1111 H1125 0.961 . S
C1111 H1126 0.961 . S
C1111 H1127 0.961 . S
C1112 C1113 1.370 . S
C1112 C1114 1.363 . S
C1112 H1128 0.931 . S
C1113 C1112 1.370 . S
C1113 C1117 1.408 . S
C1114 C1112 1.363 . S
C1114 C1115 1.370 . S
C1114 C1118 1.524 . S
C1115 C1107 1.503 . S
C1115 C1114 1.370 . S
C1115 C1116 1.403 . S
C1116 C1115 1.403 . S
C1116 C1117 1.404 . S
C1116 C1119 1.539 . S
C1117 C1113 1.408 . S
C1117 C1116 1.404 . S
C1117 H1129 0.930 . S
C1118 C1114 1.524 . S
C1118 H1130 0.956 . S
C1118 H1131 0.961 . S
C1118 H1132 0.961 . S
C1119 C1116 1.539 . S
C1119 H1133 0.958 . S
C1119 H1134 0.961 . S
C1119 H1135 0.960 . S
H1120 C1104 0.931 . S
H1121 C1109 0.929 . S
H1122 C1110 0.960 . S
H1123 C1110 0.962 . S
H1124 C1110 0.960 . S
H1125 C1111 0.961 . S
H1126 C1111 0.961 . S
H1127 C1111 0.961 . S
H1128 C1112 0.931 . S
H1129 C1117 0.930 . S
H1130 C1118 0.956 . S
H1131 C1118 0.961 . S
H1132 C1118 0.961 . S
H1133 C1119 0.958 . S
H1134 C1119 0.961 . S
H1135 C1119 0.960 . S
C1136 C1137 1.391 . S
C1136 C1138 1.394 . S
C1136 H1152 0.931 . S
C1137 C1136 1.391 . S
C1137 C1141 1.376 . S
C1138 C1136 1.394 . S
C1138 C1139 1.369 . S
C1138 C1142 1.531 . S
C1139 C1138 1.369 . S
C1139 C1140 1.410 . S
C1139 C1147 1.503 . S
C1140 C1139 1.410 . S
C1140 C1141 1.392 . S
C1140 C1143 1.511 . S
C1141 C1137 1.376 . S
C1141 C1140 1.392 . S
C1141 H1153 0.929 . S
C1142 C1138 1.531 . S
C1142 H1154 0.960 . S
C1142 H1155 0.962 . S
C1142 H1156 0.960 . S
C1143 C1140 1.511 . S
C1143 H1157 0.961 . S
C1143 H1158 0.961 . S
C1143 H1159 0.961 . S
C1144 C1145 1.370 . S
C1144 C1146 1.363 . S
C1144 H1160 0.931 . S
C1145 C1144 1.370 . S
C1145 C1149 1.408 . S
C1146 C1144 1.363 . S
C1146 C1147 1.370 . S
C1146 C1150 1.524 . S
C1147 C1139 1.503 . S
C1147 C1146 1.370 . S
C1147 C1148 1.403 . S
C1148 C1147 1.403 . S
C1148 C1149 1.404 . S
C1148 C1151 1.539 . S
C1149 C1145 1.408 . S
C1149 C1148 1.404 . S
C1149 H1161 0.930 . S
C1150 C1146 1.524 . S
C1150 H1162 0.956 . S
C1150 H1163 0.961 . S
C1150 H1164 0.961 . S
C1151 C1148 1.539 . S
C1151 H1165 0.958 . S
C1151 H1166 0.961 . S
C1151 H1167 0.960 . S
H1152 C1136 0.931 . S
H1153 C1141 0.929 . S
H1154 C1142 0.960 . S
H1155 C1142 0.962 . S
H1156 C1142 0.960 . S
H1157 C1143 0.961 . S
H1158 C1143 0.961 . S
H1159 C1143 0.961 . S
H1160 C1144 0.931 . S
H1161 C1149 0.930 . S
H1162 C1150 0.956 . S
H1163 C1150 0.961 . S
H1164 C1150 0.961 . S
H1165 C1151 0.958 . S
H1166 C1151 0.961 . S
H1167 C1151 0.960 . S
C1168 C1169 1.391 . S
C1168 C1170 1.394 . S
C1168 H1184 0.931 . S
C1169 C1168 1.391 . S
C1169 C1173 1.376 . S
C1170 C1168 1.394 . S
C1170 C1171 1.369 . S
C1170 C1174 1.531 . S
C1171 C1170 1.369 . S
C1171 C1172 1.410 . S
C1171 C1179 1.503 . S
C1172 C1171 1.410 . S
C1172 C1173 1.392 . S
C1172 C1175 1.511 . S
C1173 C1169 1.376 . S
C1173 C1172 1.392 . S
C1173 H1185 0.929 . S
C1174 C1170 1.531 . S
C1174 H1186 0.960 . S
C1174 H1187 0.962 . S
C1174 H1188 0.960 . S
C1175 C1172 1.511 . S
C1175 H1189 0.961 . S
C1175 H1190 0.961 . S
C1175 H1191 0.961 . S
C1176 C1177 1.370 . S
C1176 C1178 1.363 . S
C1176 H1192 0.931 . S
C1177 C1176 1.370 . S
C1177 C1181 1.408 . S
C1178 C1176 1.363 . S
C1178 C1179 1.370 . S
C1178 C1182 1.524 . S
C1179 C1171 1.503 . S
C1179 C1178 1.370 . S
C1179 C1180 1.403 . S
C1180 C1179 1.403 . S
C1180 C1181 1.404 . S
C1180 C1183 1.539 . S
C1181 C1177 1.408 . S
C1181 C1180 1.404 . S
C1181 H1193 0.930 . S
C1182 C1178 1.524 . S
C1182 H1194 0.956 . S
C1182 H1195 0.961 . S
C1182 H1196 0.961 . S
C1183 C1180 1.539 . S
C1183 H1197 0.958 . S
C1183 H1198 0.961 . S
C1183 H1199 0.960 . S
H1184 C1168 0.931 . S
H1185 C1173 0.929 . S
H1186 C1174 0.960 . S
H1187 C1174 0.962 . S
H1188 C1174 0.960 . S
H1189 C1175 0.961 . S
H1190 C1175 0.961 . S
H1191 C1175 0.961 . S
H1192 C1176 0.931 . S
H1193 C1181 0.930 . S
H1194 C1182 0.956 . S
H1195 C1182 0.961 . S
H1196 C1182 0.961 . S
H1197 C1183 0.958 . S
H1198 C1183 0.961 . S
H1199 C1183 0.960 . S
C1200 C1201 1.391 . S
C1200 C1202 1.394 . S
C1200 H1216 0.931 . S
C1201 C1200 1.391 . S
C1201 C1205 1.376 . S
C1202 C1200 1.394 . S
C1202 C1203 1.369 . S
C1202 C1206 1.531 . S
C1203 C1202 1.369 . S
C1203 C1204 1.410 . S
C1203 C1211 1.503 . S
C1204 C1203 1.410 . S
C1204 C1205 1.392 . S
C1204 C1207 1.511 . S
C1205 C1201 1.376 . S
C1205 C1204 1.392 . S
C1205 H1217 0.929 . S
C1206 C1202 1.531 . S
C1206 H1218 0.960 . S
C1206 H1219 0.962 . S
C1206 H1220 0.960 . S
C1207 C1204 1.511 . S
C1207 H1221 0.961 . S
C1207 H1222 0.961 . S
C1207 H1223 0.961 . S
C1208 C1209 1.370 . S
C1208 C1210 1.363 . S
C1208 H1224 0.931 . S
C1209 C1208 1.370 . S
C1209 C1213 1.408 . S
C1210 C1208 1.363 . S
C1210 C1211 1.370 . S
C1210 C1214 1.524 . S
C1211 C1203 1.503 . S
C1211 C1210 1.370 . S
C1211 C1212 1.403 . S
C1212 C1211 1.403 . S
C1212 C1213 1.404 . S
C1212 C1215 1.539 . S
C1213 C1209 1.408 . S
C1213 C1212 1.404 . S
C1213 H1225 0.930 . S
C1214 C1210 1.524 . S
C1214 H1226 0.956 . S
C1214 H1227 0.961 . S
C1214 H1228 0.961 . S
C1215 C1212 1.539 . S
C1215 H1229 0.958 . S
C1215 H1230 0.961 . S
C1215 H1231 0.960 . S
H1216 C1200 0.931 . S
H1217 C1205 0.929 . S
H1218 C1206 0.960 . S
H1219 C1206 0.962 . S
H1220 C1206 0.960 . S
H1221 C1207 0.961 . S
H1222 C1207 0.961 . S
H1223 C1207 0.961 . S
H1224 C1208 0.931 . S
H1225 C1213 0.930 . S
H1226 C1214 0.956 . S
H1227 C1214 0.961 . S
H1228 C1214 0.961 . S
H1229 C1215 0.958 . S
H1230 C1215 0.961 . S
H1231 C1215 0.960 . S
C1232 C1233 1.391 1_565 S
C1232 C1234 1.394 . S
C1232 H1248 0.931 . S
C1233 C1232 1.391 1_545 S
C1233 C1237 1.376 . S
C1234 C1232 1.394 . S
C1234 C1235 1.369 1_565 S
C1234 C1238 1.531 . S
C1235 C1234 1.369 1_545 S
C1235 C1236 1.410 . S
C1235 C1243 1.503 . S
C1236 C1235 1.410 . S
C1236 C1237 1.392 . S
C1236 C1239 1.511 . S
C1237 C1233 1.376 . S
C1237 C1236 1.392 . S
C1237 H1249 0.929 . S
C1238 C1234 1.531 . S
C1238 H1250 0.960 . S
C1238 H1251 0.962 . S
C1238 H1252 0.960 . S
C1239 C1236 1.511 . S
C1239 H1253 0.961 . S
C1239 H1254 0.961 . S
C1239 H1255 0.961 . S
C1240 C1241 1.370 . S
C1240 C1242 1.363 . S
C1240 H1256 0.931 . S
C1241 C1240 1.370 . S
C1241 C1245 1.408 . S
C1242 C1240 1.363 . S
C1242 C1243 1.370 1_455 S
C1242 C1246 1.524 . S
C1243 C1235 1.503 . S
C1243 C1242 1.370 1_655 S
C1243 C1244 1.403 . S
C1244 C1243 1.403 . S
C1244 C1245 1.404 1_655 S
C1244 C1247 1.539 . S
C1245 C1241 1.408 . S
C1245 C1244 1.404 1_455 S
C1245 H1257 0.930 . S
C1246 C1242 1.524 . S
C1246 H1258 0.956 . S
C1246 H1259 0.961 . S
C1246 H1260 0.961 . S
C1247 C1244 1.539 . S
C1247 H1261 0.958 1_545 S
C1247 H1262 0.961 . S
C1247 H1263 0.960 . S
H1248 C1232 0.931 . S
H1249 C1237 0.929 . S
H1250 C1238 0.960 . S
H1251 C1238 0.962 . S
H1252 C1238 0.960 . S
H1253 C1239 0.961 . S
H1254 C1239 0.961 . S
H1255 C1239 0.961 . S
H1256 C1240 0.931 . S
H1257 C1245 0.930 . S
H1258 C1246 0.956 . S
H1259 C1246 0.961 . S
H1260 C1246 0.961 . S
H1261 C1247 0.958 1_565 S
H1262 C1247 0.961 . S
H1263 C1247 0.960 . S
C1264 C1265 1.391 . S
C1264 C1266 1.394 . S
C1264 H1280 0.931 . S
C1265 C1264 1.391 . S
C1265 C1269 1.376 . S
C1266 C1264 1.394 . S
C1266 C1267 1.369 . S
C1266 C1270 1.531 . S
C1267 C1266 1.369 . S
C1267 C1268 1.410 . S
C1267 C1275 1.503 . S
C1268 C1267 1.410 . S
C1268 C1269 1.392 . S
C1268 C1271 1.511 . S
C1269 C1265 1.376 . S
C1269 C1268 1.392 . S
C1269 H1281 0.929 . S
C1270 C1266 1.531 . S
C1270 H1282 0.960 . S
C1270 H1283 0.962 . S
C1270 H1284 0.960 . S
C1271 C1268 1.511 . S
C1271 H1285 0.961 . S
C1271 H1286 0.961 . S
C1271 H1287 0.961 . S
C1272 C1273 1.370 . S
C1272 C1274 1.363 . S
C1272 H1288 0.931 . S
C1273 C1272 1.370 . S
C1273 C1277 1.408 . S
C1274 C1272 1.363 . S
C1274 C1275 1.370 . S
C1274 C1278 1.524 . S
C1275 C1267 1.503 . S
C1275 C1274 1.370 . S
C1275 C1276 1.403 . S
C1276 C1275 1.403 . S
C1276 C1277 1.404 . S
C1276 C1279 1.539 . S
C1277 C1273 1.408 . S
C1277 C1276 1.404 . S
C1277 H1289 0.930 . S
C1278 C1274 1.524 . S
C1278 H1290 0.956 . S
C1278 H1291 0.961 . S
C1278 H1292 0.961 . S
C1279 C1276 1.539 . S
C1279 H1293 0.958 . S
C1279 H1294 0.961 . S
C1279 H1295 0.960 . S
H1280 C1264 0.931 . S
H1281 C1269 0.929 . S
H1282 C1270 0.960 . S
H1283 C1270 0.962 . S
H1284 C1270 0.960 . S
H1285 C1271 0.961 . S
H1286 C1271 0.961 . S
H1287 C1271 0.961 . S
H1288 C1272 0.931 . S
H1289 C1277 0.930 . S
H1290 C1278 0.956 . S
H1291 C1278 0.961 . S
H1292 C1278 0.961 . S
H1293 C1279 0.958 . S
H1294 C1279 0.961 . S
H1295 C1279 0.960 . S
C1296 C1297 1.391 . S
C1296 C1298 1.394 . S
C1296 H1312 0.931 . S
C1297 C1296 1.391 . S
C1297 C1301 1.376 1_565 S
C1298 C1296 1.394 . S
C1298 C1299 1.335 1_565 S
C1298 C1302 1.531 . S
C1299 C1298 1.335 1_545 S
C1299 C1300 1.429 . S
C1299 C1307 1.522 . S
C1300 C1299 1.429 . S
C1300 C1301 1.392 . S
C1300 C1303 1.511 . S
C1301 C1297 1.376 1_545 S
C1301 C1300 1.392 . S
C1301 H1313 0.929 . S
C1302 C1298 1.531 . S
C1302 H1314 0.960 . S
C1302 H1315 0.962 . S
C1302 H1316 0.960 . S
C1303 C1300 1.511 . S
C1303 H1317 0.961 . S
C1303 H1318 0.961 . S
C1303 H1319 0.961 . S
C1304 C1305 1.370 . S
C1304 C1306 1.363 . S
C1304 H1320 0.931 . S
C1305 C1304 1.370 . S
C1305 C1309 1.408 . S
C1306 C1304 1.363 . S
C1306 C1307 1.370 . S
C1306 C1310 1.524 . S
C1307 C1299 1.522 . S
C1307 C1306 1.370 . S
C1307 C1308 1.403 1_545 S
C1308 C1307 1.403 1_565 S
C1308 C1309 1.404 1_565 S
C1308 C1311 1.539 . S
C1309 C1305 1.408 . S
C1309 C1308 1.404 1_545 S
C1309 H1321 0.930 1_545 S
C1310 C1306 1.524 . S
C1310 H1322 0.956 . S
C1310 H1323 0.961 . S
C1310 H1324 0.961 . S
C1311 C1308 1.539 . S
C1311 H1325 0.958 . S
C1311 H1326 0.961 . S
C1311 H1327 0.960 . S
H1312 C1296 0.931 . S
H1313 C1301 0.929 . S
H1314 C1302 0.960 . S
H1315 C1302 0.962 . S
H1316 C1302 0.960 . S
H1317 C1303 0.961 . S
H1318 C1303 0.961 . S
H1319 C1303 0.961 . S
H1320 C1304 0.931 . S
H1321 C1309 0.930 1_565 S
H1322 C1310 0.956 . S
H1323 C1310 0.961 . S
H1324 C1310 0.961 . S
H1325 C1311 0.958 . S
H1326 C1311 0.961 . S
H1327 C1311 0.960 . S
C1328 C1329 1.391 . S
C1328 C1330 1.394 . S
C1328 H1344 0.931 . S
C1329 C1328 1.391 . S
C1329 C1333 1.376 . S
C1330 C1328 1.394 . S
C1330 C1331 1.369 . S
C1330 C1334 1.531 . S
C1331 C1330 1.369 . S
C1331 C1332 1.410 . S
C1331 C1339 1.503 . S
C1332 C1331 1.410 . S
C1332 C1333 1.392 . S
C1332 C1335 1.511 . S
C1333 C1329 1.376 . S
C1333 C1332 1.392 . S
C1333 H1345 0.929 . S
C1334 C1330 1.531 . S
C1334 H1346 0.960 . S
C1334 H1347 0.962 . S
C1334 H1348 0.960 . S
C1335 C1332 1.511 . S
C1335 H1349 0.961 . S
C1335 H1350 0.961 . S
C1335 H1351 0.961 . S
C1336 C1337 1.370 . S
C1336 C1338 1.363 . S
C1336 H1352 0.931 . S
C1337 C1336 1.370 . S
C1337 C1341 1.408 . S
C1338 C1336 1.363 . S
C1338 C1339 1.370 . S
C1338 C1342 1.524 . S
C1339 C1331 1.503 . S
C1339 C1338 1.370 . S
C1339 C1340 1.403 . S
C1340 C1339 1.403 . S
C1340 C1341 1.404 . S
C1340 C1343 1.539 . S
C1341 C1337 1.408 . S
C1341 C1340 1.404 . S
C1341 H1353 0.930 . S
C1342 C1338 1.524 . S
C1342 H1354 0.956 . S
C1342 H1355 0.961 . S
C1342 H1356 0.961 . S
C1343 C1340 1.539 . S
C1343 H1357 0.958 . S
C1343 H1358 0.961 . S
C1343 H1359 0.960 . S
H1344 C1328 0.931 . S
H1345 C1333 0.929 . S
H1346 C1334 0.960 . S
H1347 C1334 0.962 . S
H1348 C1334 0.960 . S
H1349 C1335 0.961 . S
H1350 C1335 0.961 . S
H1351 C1335 0.961 . S
H1352 C1336 0.931 . S
H1353 C1341 0.930 . S
H1354 C1342 0.956 . S
H1355 C1342 0.961 . S
H1356 C1342 0.961 . S
H1357 C1343 0.958 . S
H1358 C1343 0.961 . S
H1359 C1343 0.960 . S
C1360 C1361 1.391 1_565 S
C1360 C1362 1.394 . S
C1360 H1376 0.931 . S
C1361 C1360 1.391 1_545 S
C1361 C1365 1.376 . S
C1362 C1360 1.394 . S
C1362 C1363 1.369 1_565 S
C1362 C1366 1.531 . S
C1363 C1362 1.369 1_545 S
C1363 C1364 1.410 . S
C1363 C1371 1.503 . S
C1364 C1363 1.410 . S
C1364 C1365 1.392 . S
C1364 C1367 1.511 . S
C1365 C1361 1.376 . S
C1365 C1364 1.392 . S
C1365 H1377 0.929 . S
C1366 C1362 1.531 . S
C1366 H1378 0.960 . S
C1366 H1379 0.962 . S
C1366 H1380 0.960 . S
C1367 C1364 1.511 . S
C1367 H1381 0.961 . S
C1367 H1382 0.962 1_655 S
C1367 H1383 0.961 1_655 S
C1368 C1369 1.370 . S
C1368 C1370 1.363 . S
C1368 H1384 0.931 . S
C1369 C1368 1.370 . S
C1369 C1373 1.408 1_655 S
C1370 C1368 1.363 . S
C1370 C1371 1.370 . S
C1370 C1374 1.524 . S
C1371 C1363 1.503 . S
C1371 C1370 1.370 . S
C1371 C1372 1.403 . S
C1372 C1371 1.403 . S
C1372 C1373 1.404 1_655 S
C1372 C1375 1.539 1_545 S
C1373 C1369 1.408 1_455 S
C1373 C1372 1.404 1_455 S
C1373 H1385 0.930 . S
C1374 C1370 1.524 . S
C1374 H1386 0.956 . S
C1374 H1387 0.961 . S
C1374 H1388 0.961 . S
C1375 C1372 1.539 1_565 S
C1375 H1389 0.958 . S
C1375 H1390 0.961 1_655 S
C1375 H1391 0.960 . S
H1376 C1360 0.931 . S
H1377 C1365 0.929 . S
H1378 C1366 0.960 . S
H1379 C1366 0.962 . S
H1380 C1366 0.960 . S
H1381 C1367 0.961 . S
H1382 C1367 0.962 1_455 S
H1383 C1367 0.961 1_455 S
H1384 C1368 0.931 . S
H1385 C1373 0.930 . S
H1386 C1374 0.956 . S
H1387 C1374 0.961 . S
H1388 C1374 0.961 . S
H1389 C1375 0.958 . S
H1390 C1375 0.961 1_455 S
H1391 C1375 0.960 . S
C1392 C1393 1.391 . S
C1392 C1394 1.394 . S
C1392 H1408 0.931 . S
C1393 C1392 1.391 . S
C1393 C1397 1.376 . S
C1394 C1392 1.394 . S
C1394 C1395 1.369 . S
C1394 C1398 1.531 . S
C1395 C1394 1.369 . S
C1395 C1396 1.410 . S
C1395 C1403 1.503 . S
C1396 C1395 1.410 . S
C1396 C1397 1.392 . S
C1396 C1399 1.511 . S
C1397 C1393 1.376 . S
C1397 C1396 1.392 . S
C1397 H1409 0.929 . S
C1398 C1394 1.531 . S
C1398 H1410 0.960 . S
C1398 H1411 0.962 . S
C1398 H1412 0.960 . S
C1399 C1396 1.511 . S
C1399 H1413 0.961 . S
C1399 H1414 0.961 . S
C1399 H1415 0.961 . S
C1400 C1401 1.370 . S
C1400 C1402 1.363 . S
C1400 H1416 0.931 . S
C1401 C1400 1.370 . S
C1401 C1405 1.408 . S
C1402 C1400 1.363 . S
C1402 C1403 1.370 . S
C1402 C1406 1.524 . S
C1403 C1395 1.503 . S
C1403 C1402 1.370 . S
C1403 C1404 1.403 . S
C1404 C1403 1.403 . S
C1404 C1405 1.404 . S
C1404 C1407 1.539 . S
C1405 C1401 1.408 . S
C1405 C1404 1.404 . S
C1405 H1417 0.930 . S
C1406 C1402 1.524 . S
C1406 H1418 0.956 . S
C1406 H1419 0.961 . S
C1406 H1420 0.961 . S
C1407 C1404 1.539 . S
C1407 H1421 0.958 . S
C1407 H1422 0.961 . S
C1407 H1423 0.960 . S
H1408 C1392 0.931 . S
H1409 C1397 0.929 . S
H1410 C1398 0.960 . S
H1411 C1398 0.962 . S
H1412 C1398 0.960 . S
H1413 C1399 0.961 . S
H1414 C1399 0.961 . S
H1415 C1399 0.961 . S
H1416 C1400 0.931 . S
H1417 C1405 0.930 . S
H1418 C1406 0.956 . S
H1419 C1406 0.961 . S
H1420 C1406 0.961 . S
H1421 C1407 0.958 . S
H1422 C1407 0.961 . S
H1423 C1407 0.960 . S
C1424 C1425 1.391 1_545 S
C1424 C1426 1.394 . S
C1424 H1440 0.931 . S
C1425 C1424 1.391 1_565 S
C1425 C1429 1.376 . S
C1426 C1424 1.394 . S
C1426 C1427 1.369 . S
C1426 C1430 1.531 . S
C1427 C1426 1.369 . S
C1427 C1428 1.410 . S
C1427 C1435 1.503 . S
C1428 C1427 1.410 . S
C1428 C1429 1.392 1_545 S
C1428 C1431 1.511 . S
C1429 C1425 1.376 . S
C1429 C1428 1.392 1_565 S
C1429 H1441 0.929 . S
C1430 C1426 1.531 . S
C1430 H1442 0.960 . S
C1430 H1443 0.962 . S
C1430 H1444 0.960 . S
C1431 C1428 1.511 . S
C1431 H1445 0.961 1_545 S
C1431 H1446 0.961 . S
C1431 H1447 0.961 1_545 S
C1432 C1433 1.370 . S
C1432 C1434 1.363 . S
C1432 H1448 0.931 . S
C1433 C1432 1.370 . S
C1433 C1437 1.408 . S
C1434 C1432 1.363 . S
C1434 C1435 1.370 . S
C1434 C1438 1.524 . S
C1435 C1427 1.503 . S
C1435 C1434 1.370 . S
C1435 C1436 1.403 . S
C1436 C1435 1.403 . S
C1436 C1437 1.404 . S
C1436 C1439 1.539 . S
C1437 C1433 1.408 . S
C1437 C1436 1.404 . S
C1437 H1449 0.930 . S
C1438 C1434 1.524 . S
C1438 H1450 0.956 . S
C1438 H1451 0.961 . S
C1438 H1452 0.961 . S
C1439 C1436 1.539 . S
C1439 H1453 0.958 . S
C1439 H1454 0.961 . S
C1439 H1455 0.943 1_545 S
H1440 C1424 0.931 . S
H1441 C1429 0.929 . S
H1442 C1430 0.960 . S
H1443 C1430 0.962 . S
H1444 C1430 0.960 . S
H1445 C1431 0.961 1_565 S
H1446 C1431 0.961 . S
H1447 C1431 0.961 1_565 S
H1448 C1432 0.931 . S
H1449 C1437 0.930 . S
H1450 C1438 0.956 . S
H1451 C1438 0.961 . S
H1452 C1438 0.961 . S
H1453 C1439 0.958 . S
H1454 C1439 0.961 . S
H1455 C1439 0.943 1_565 S
C1456 C1457 1.391 . S
C1456 C1458 1.394 . S
C1456 H1472 0.931 . S
C1457 C1456 1.391 . S
C1457 C1461 1.376 . S
C1458 C1456 1.394 . S
C1458 C1459 1.369 . S
C1458 C1462 1.531 . S
C1459 C1458 1.369 . S
C1459 C1460 1.410 . S
C1459 C1467 1.503 . S
C1460 C1459 1.410 . S
C1460 C1461 1.392 . S
C1460 C1463 1.511 . S
C1461 C1457 1.376 . S
C1461 C1460 1.392 . S
C1461 H1473 0.929 . S
C1462 C1458 1.531 . S
C1462 H1474 0.960 . S
C1462 H1475 0.962 . S
C1462 H1476 0.960 . S
C1463 C1460 1.511 . S
C1463 H1477 0.961 . S
C1463 H1478 0.961 . S
C1463 H1479 0.961 . S
C1464 C1465 1.370 . S
C1464 C1466 1.363 . S
C1464 H1480 0.931 . S
C1465 C1464 1.370 . S
C1465 C1469 1.408 . S
C1466 C1464 1.363 . S
C1466 C1467 1.370 . S
C1466 C1470 1.524 . S
C1467 C1459 1.503 . S
C1467 C1466 1.370 . S
C1467 C1468 1.403 . S
C1468 C1467 1.403 . S
C1468 C1469 1.404 . S
C1468 C1471 1.539 . S
C1469 C1465 1.408 . S
C1469 C1468 1.404 . S
C1469 H1481 0.930 . S
C1470 C1466 1.524 . S
C1470 H1482 0.956 . S
C1470 H1483 0.961 . S
C1470 H1484 0.961 . S
C1471 C1468 1.539 . S
C1471 H1485 0.958 . S
C1471 H1486 0.961 . S
C1471 H1487 0.960 . S
H1472 C1456 0.931 . S
H1473 C1461 0.929 . S
H1474 C1462 0.960 . S
H1475 C1462 0.962 . S
H1476 C1462 0.960 . S
H1477 C1463 0.961 . S
H1478 C1463 0.961 . S
H1479 C1463 0.961 . S
H1480 C1464 0.931 . S
H1481 C1469 0.930 . S
H1482 C1470 0.956 . S
H1483 C1470 0.961 . S
H1484 C1470 0.961 . S
H1485 C1471 0.958 . S
H1486 C1471 0.961 . S
H1487 C1471 0.960 . S
C1488 C1489 1.391 . S
C1488 C1490 1.394 . S
C1488 H1504 0.931 . S
C1489 C1488 1.391 . S
C1489 C1493 1.376 . S
C1490 C1488 1.394 . S
C1490 C1491 1.369 . S
C1490 C1494 1.531 . S
C1491 C1490 1.369 . S
C1491 C1492 1.410 . S
C1491 C1499 1.503 . S
C1492 C1491 1.410 . S
C1492 C1493 1.392 . S
C1492 C1495 1.511 . S
C1493 C1489 1.376 . S
C1493 C1492 1.392 . S
C1493 H1505 0.929 . S
C1494 C1490 1.531 . S
C1494 H1506 0.960 . S
C1494 H1507 0.962 . S
C1494 H1508 0.960 . S
C1495 C1492 1.511 . S
C1495 H1509 0.961 . S
C1495 H1510 0.961 . S
C1495 H1511 0.961 . S
C1496 C1497 1.370 . S
C1496 C1498 1.363 . S
C1496 H1512 0.931 . S
C1497 C1496 1.370 . S
C1497 C1501 1.408 . S
C1498 C1496 1.363 . S
C1498 C1499 1.370 . S
C1498 C1502 1.524 . S
C1499 C1491 1.503 . S
C1499 C1498 1.370 . S
C1499 C1500 1.403 . S
C1500 C1499 1.403 . S
C1500 C1501 1.404 . S
C1500 C1503 1.539 . S
C1501 C1497 1.408 . S
C1501 C1500 1.404 . S
C1501 H1513 0.930 1_565 S
C1502 C1498 1.524 . S
C1502 H1514 0.956 . S
C1502 H1515 0.961 . S
C1502 H1516 0.961 . S
C1503 C1500 1.539 . S
C1503 H1517 0.958 . S
C1503 H1518 0.961 . S
C1503 H1519 0.960 . S
H1504 C1488 0.931 . S
H1505 C1493 0.929 . S
H1506 C1494 0.960 . S
H1507 C1494 0.962 . S
H1508 C1494 0.960 . S
H1509 C1495 0.961 . S
H1510 C1495 0.961 . S
H1511 C1495 0.961 . S
H1512 C1496 0.931 . S
H1513 C1501 0.930 1_545 S
H1514 C1502 0.956 . S
H1515 C1502 0.961 . S
H1516 C1502 0.961 . S
H1517 C1503 0.958 . S
H1518 C1503 0.961 . S
H1519 C1503 0.960 . S
C1520 C1521 1.391 . S
C1520 C1522 1.394 . S
C1520 H1536 0.931 . S
C1521 C1520 1.391 . S
C1521 C1525 1.376 . S
C1522 C1520 1.394 . S
C1522 C1523 1.369 . S
C1522 C1526 1.531 . S
C1523 C1522 1.369 . S
C1523 C1524 1.410 . S
C1523 C1531 1.503 . S
C1524 C1523 1.410 . S
C1524 C1525 1.392 . S
C1524 C1527 1.511 . S
C1525 C1521 1.376 . S
C1525 C1524 1.392 . S
C1525 H1537 0.929 . S
C1526 C1522 1.531 . S
C1526 H1538 0.960 . S
C1526 H1539 0.962 1_554 S
C1526 H1540 0.960 . S
C1527 C1524 1.511 . S
C1527 H1541 0.961 . S
C1527 H1542 0.961 . S
C1527 H1543 0.961 . S
C1528 C1529 1.370 1_556 S
C1528 C1530 1.363 . S
C1528 H1544 0.931 . S
C1529 C1528 1.370 1_554 S
C1529 C1533 1.408 . S
C1530 C1528 1.363 . S
C1530 C1531 1.370 1_556 S
C1530 C1534 1.524 . S
C1531 C1523 1.503 . S
C1531 C1530 1.370 1_554 S
C1531 C1532 1.403 . S
C1532 C1531 1.403 . S
C1532 C1533 1.404 . S
C1532 C1535 1.539 . S
C1533 C1529 1.408 . S
C1533 C1532 1.404 . S
C1533 H1545 0.930 . S
C1534 C1530 1.524 . S
C1534 H1546 0.956 . S
C1534 H1547 0.961 . S
C1534 H1548 0.961 . S
C1535 C1532 1.539 . S
C1535 H1549 0.958 . S
C1535 H1550 0.961 . S
C1535 H1551 0.960 . S
H1536 C1520 0.931 . S
H1537 C1525 0.929 . S
H1538 C1526 0.960 . S
H1539 C1526 0.962 1_556 S
H1540 C1526 0.960 . S
H1541 C1527 0.961 . S
H1542 C1527 0.961 . S
H1543 C1527 0.961 . S
H1544 C1528 0.931 . S
H1545 C1533 0.930 . S
H1546 C1534 0.956 . S
H1547 C1534 0.961 . S
H1548 C1534 0.961 . S
H1549 C1535 0.958 . S
H1550 C1535 0.961 . S
H1551 C1535 0.960 . S
C1552 C1553 1.391 . S
C1552 C1554 1.394 . S
C1552 H1568 0.931 . S
C1553 C1552 1.391 . S
C1553 C1557 1.376 . S
C1554 C1552 1.394 . S
C1554 C1555 1.369 . S
C1554 C1558 1.531 . S
C1555 C1554 1.369 . S
C1555 C1556 1.410 . S
C1555 C1563 1.503 . S
C1556 C1555 1.410 . S
C1556 C1557 1.392 . S
C1556 C1559 1.511 . S
C1557 C1553 1.376 . S
C1557 C1556 1.392 . S
C1557 H1569 0.929 . S
C1558 C1554 1.531 . S
C1558 H1570 0.960 . S
C1558 H1571 0.962 . S
C1558 H1572 0.960 . S
C1559 C1556 1.511 . S
C1559 H1573 0.961 . S
C1559 H1574 0.961 . S
C1559 H1575 0.961 . S
C1560 C1561 1.370 . S
C1560 C1562 1.363 . S
C1560 H1576 0.931 . S
C1561 C1560 1.370 . S
C1561 C1565 1.408 . S
C1562 C1560 1.363 . S
C1562 C1563 1.370 . S
C1562 C1566 1.524 . S
C1563 C1555 1.503 . S
C1563 C1562 1.370 . S
C1563 C1564 1.403 . S
C1564 C1563 1.403 . S
C1564 C1565 1.404 . S
C1564 C1567 1.539 . S
C1565 C1561 1.408 . S
C1565 C1564 1.404 . S
C1565 H1577 0.930 . S
C1566 C1562 1.524 . S
C1566 H1578 0.956 . S
C1566 H1579 0.961 . S
C1566 H1580 0.961 . S
C1567 C1564 1.539 . S
C1567 H1581 0.958 . S
C1567 H1582 0.961 . S
C1567 H1583 0.960 . S
H1568 C1552 0.931 . S
H1569 C1557 0.929 . S
H1570 C1558 0.960 . S
H1571 C1558 0.962 . S
H1572 C1558 0.960 . S
H1573 C1559 0.961 . S
H1574 C1559 0.961 . S
H1575 C1559 0.961 . S
H1576 C1560 0.931 . S
H1577 C1565 0.930 . S
H1578 C1566 0.956 . S
H1579 C1566 0.961 . S
H1580 C1566 0.961 . S
H1581 C1567 0.958 . S
H1582 C1567 0.961 . S
H1583 C1567 0.960 . S
C1584 C1585 1.391 . S
C1584 C1586 1.394 . S
C1584 H1600 0.931 . S
C1585 C1584 1.391 . S
C1585 C1589 1.376 . S
C1586 C1584 1.394 . S
C1586 C1587 1.369 . S
C1586 C1590 1.531 . S
C1587 C1586 1.369 . S
C1587 C1588 1.410 . S
C1587 C1595 1.503 . S
C1588 C1587 1.410 . S
C1588 C1589 1.392 . S
C1588 C1591 1.511 . S
C1589 C1585 1.376 . S
C1589 C1588 1.392 . S
C1589 H1601 0.929 . S
C1590 C1586 1.531 . S
C1590 H1602 0.960 . S
C1590 H1603 0.962 . S
C1590 H1604 0.960 . S
C1591 C1588 1.511 . S
C1591 H1605 0.961 . S
C1591 H1606 0.961 . S
C1591 H1607 0.961 . S
C1592 C1593 1.370 . S
C1592 C1594 1.363 . S
C1592 H1608 0.931 . S
C1593 C1592 1.370 . S
C1593 C1597 1.408 . S
C1594 C1592 1.363 . S
C1594 C1595 1.370 . S
C1594 C1598 1.524 . S
C1595 C1587 1.503 . S
C1595 C1594 1.370 . S
C1595 C1596 1.403 . S
C1596 C1595 1.403 . S
C1596 C1597 1.404 . S
C1596 C1599 1.539 . S
C1597 C1593 1.408 . S
C1597 C1596 1.404 . S
C1597 H1609 0.930 . S
C1598 C1594 1.524 . S
C1598 H1610 0.956 . S
C1598 H1611 0.961 . S
C1598 H1612 0.961 . S
C1599 C1596 1.539 . S
C1599 H1613 0.958 . S
C1599 H1614 0.961 . S
C1599 H1615 0.960 . S
H1600 C1584 0.931 . S
H1601 C1589 0.929 . S
H1602 C1590 0.960 . S
H1603 C1590 0.962 . S
H1604 C1590 0.960 . S
H1605 C1591 0.961 . S
H1606 C1591 0.961 . S
H1607 C1591 0.961 . S
H1608 C1592 0.931 . S
H1609 C1597 0.930 . S
H1610 C1598 0.956 . S
H1611 C1598 0.961 . S
H1612 C1598 0.961 . S
H1613 C1599 0.958 . S
H1614 C1599 0.961 . S
H1615 C1599 0.960 . S
C1616 C1617 1.391 . S
C1616 C1618 1.394 . S
C1616 H1632 0.931 . S
C1617 C1616 1.391 . S
C1617 C1621 1.376 . S
C1618 C1616 1.394 . S
C1618 C1619 1.369 . S
C1618 C1622 1.531 . S
C1619 C1618 1.369 . S
C1619 C1620 1.410 . S
C1619 C1627 1.503 . S
C1620 C1619 1.410 . S
C1620 C1621 1.392 . S
C1620 C1623 1.511 . S
C1621 C1617 1.376 . S
C1621 C1620 1.392 . S
C1621 H1633 0.929 . S
C1622 C1618 1.531 . S
C1622 H1634 0.960 . S
C1622 H1635 0.962 . S
C1622 H1636 0.960 . S
C1623 C1620 1.511 . S
C1623 H1637 0.961 . S
C1623 H1638 0.961 . S
C1623 H1639 0.961 . S
C1624 C1625 1.370 . S
C1624 C1626 1.363 . S
C1624 H1640 0.931 . S
C1625 C1624 1.370 . S
C1625 C1629 1.408 . S
C1626 C1624 1.363 . S
C1626 C1627 1.370 . S
C1626 C1630 1.524 . S
C1627 C1619 1.503 . S
C1627 C1626 1.370 . S
C1627 C1628 1.403 . S
C1628 C1627 1.403 . S
C1628 C1629 1.404 . S
C1628 C1631 1.539 . S
C1629 C1625 1.408 . S
C1629 C1628 1.404 . S
C1629 H1641 0.930 . S
C1630 C1626 1.524 . S
C1630 H1642 0.956 . S
C1630 H1643 0.961 . S
C1630 H1644 0.961 . S
C1631 C1628 1.539 . S
C1631 H1645 0.958 . S
C1631 H1646 0.961 . S
C1631 H1647 0.960 . S
H1632 C1616 0.931 . S
H1633 C1621 0.929 . S
H1634 C1622 0.960 . S
H1635 C1622 0.962 . S
H1636 C1622 0.960 . S
H1637 C1623 0.961 . S
H1638 C1623 0.961 . S
H1639 C1623 0.961 . S
H1640 C1624 0.931 . S
H1641 C1629 0.930 . S
H1642 C1630 0.956 . S
H1643 C1630 0.961 . S
H1644 C1630 0.961 . S
H1645 C1631 0.958 . S
H1646 C1631 0.961 . S
H1647 C1631 0.960 . S
C1648 C1649 1.391 . S
C1648 C1650 1.394 . S
C1648 H1664 0.931 . S
C1649 C1648 1.391 . S
C1649 C1653 1.376 . S
C1650 C1648 1.394 . S
C1650 C1651 1.369 . S
C1650 C1654 1.531 . S
C1651 C1650 1.369 . S
C1651 C1652 1.410 . S
C1651 C1659 1.503 . S
C1652 C1651 1.410 . S
C1652 C1653 1.392 . S
C1652 C1655 1.511 . S
C1653 C1649 1.376 . S
C1653 C1652 1.392 . S
C1653 H1665 0.929 . S
C1654 C1650 1.531 . S
C1654 H1666 0.960 . S
C1654 H1667 0.962 . S
C1654 H1668 0.960 . S
C1655 C1652 1.511 . S
C1655 H1669 0.961 . S
C1655 H1670 0.961 . S
C1655 H1671 0.961 . S
C1656 C1657 1.370 . S
C1656 C1658 1.363 . S
C1656 H1672 0.931 . S
C1657 C1656 1.370 . S
C1657 C1661 1.408 . S
C1658 C1656 1.363 . S
C1658 C1659 1.370 . S
C1658 C1662 1.524 . S
C1659 C1651 1.503 . S
C1659 C1658 1.370 . S
C1659 C1660 1.403 . S
C1660 C1659 1.403 . S
C1660 C1661 1.404 . S
C1660 C1663 1.539 . S
C1661 C1657 1.408 . S
C1661 C1660 1.404 . S
C1661 H1673 0.930 . S
C1662 C1658 1.524 . S
C1662 H1674 0.956 . S
C1662 H1675 0.961 . S
C1662 H1676 0.961 . S
C1663 C1660 1.539 . S
C1663 H1677 0.958 . S
C1663 H1678 0.961 . S
C1663 H1679 0.960 . S
H1664 C1648 0.931 . S
H1665 C1653 0.929 . S
H1666 C1654 0.960 . S
H1667 C1654 0.962 . S
H1668 C1654 0.960 . S
H1669 C1655 0.961 . S
H1670 C1655 0.961 . S
H1671 C1655 0.961 . S
H1672 C1656 0.931 . S
H1673 C1661 0.930 . S
H1674 C1662 0.956 . S
H1675 C1662 0.961 . S
H1676 C1662 0.961 . S
H1677 C1663 0.958 . S
H1678 C1663 0.961 . S
H1679 C1663 0.960 . S
C1680 C1681 1.391 . S
C1680 C1682 1.394 . S
C1680 H1696 0.931 . S
C1681 C1680 1.391 . S
C1681 C1685 1.376 . S
C1682 C1680 1.394 . S
C1682 C1683 1.369 . S
C1682 C1686 1.531 . S
C1683 C1682 1.369 . S
C1683 C1684 1.410 . S
C1683 C1691 1.503 . S
C1684 C1683 1.410 . S
C1684 C1685 1.392 . S
C1684 C1687 1.511 . S
C1685 C1681 1.376 . S
C1685 C1684 1.392 . S
C1685 H1697 0.929 . S
C1686 C1682 1.531 . S
C1686 H1698 0.960 . S
C1686 H1699 0.962 . S
C1686 H1700 0.960 . S
C1687 C1684 1.511 . S
C1687 H1701 0.961 . S
C1687 H1702 0.961 . S
C1687 H1703 0.961 . S
C1688 C1689 1.370 . S
C1688 C1690 1.363 . S
C1688 H1704 0.931 . S
C1689 C1688 1.370 . S
C1689 C1693 1.408 . S
C1690 C1688 1.363 . S
C1690 C1691 1.370 . S
C1690 C1694 1.524 . S
C1691 C1683 1.503 . S
C1691 C1690 1.370 . S
C1691 C1692 1.403 . S
C1692 C1691 1.403 . S
C1692 C1693 1.404 . S
C1692 C1695 1.539 . S
C1693 C1689 1.408 . S
C1693 C1692 1.404 . S
C1693 H1705 0.930 . S
C1694 C1690 1.524 . S
C1694 H1706 0.956 . S
C1694 H1707 0.961 . S
C1694 H1708 0.961 . S
C1695 C1692 1.539 . S
C1695 H1709 0.958 . S
C1695 H1710 0.961 . S
C1695 H1711 0.960 . S
H1696 C1680 0.931 . S
H1697 C1685 0.929 . S
H1698 C1686 0.960 . S
H1699 C1686 0.962 . S
H1700 C1686 0.960 . S
H1701 C1687 0.961 . S
H1702 C1687 0.961 . S
H1703 C1687 0.961 . S
H1704 C1688 0.931 . S
H1705 C1693 0.930 . S
H1706 C1694 0.956 . S
H1707 C1694 0.961 . S
H1708 C1694 0.961 . S
H1709 C1695 0.958 . S
H1710 C1695 0.961 . S
H1711 C1695 0.960 . S
C1712 C1713 1.391 . S
C1712 C1714 1.394 . S
C1712 H1728 0.931 . S
C1713 C1712 1.391 . S
C1713 C1717 1.376 . S
C1714 C1712 1.394 . S
C1714 C1715 1.369 . S
C1714 C1718 1.531 . S
C1715 C1714 1.369 . S
C1715 C1716 1.410 . S
C1715 C1723 1.503 . S
C1716 C1715 1.410 . S
C1716 C1717 1.392 . S
C1716 C1719 1.511 . S
C1717 C1713 1.376 . S
C1717 C1716 1.392 . S
C1717 H1729 0.929 . S
C1718 C1714 1.531 . S
C1718 H1730 0.960 . S
C1718 H1731 0.962 . S
C1718 H1732 0.960 . S
C1719 C1716 1.511 . S
C1719 H1733 0.961 . S
C1719 H1734 0.961 . S
C1719 H1735 0.961 . S
C1720 C1721 1.370 . S
C1720 C1722 1.363 . S
C1720 H1736 0.931 . S
C1721 C1720 1.370 . S
C1721 C1725 1.408 . S
C1722 C1720 1.363 . S
C1722 C1723 1.370 . S
C1722 C1726 1.524 . S
C1723 C1715 1.503 . S
C1723 C1722 1.370 . S
C1723 C1724 1.403 . S
C1724 C1723 1.403 . S
C1724 C1725 1.404 . S
C1724 C1727 1.539 . S
C1725 C1721 1.408 . S
C1725 C1724 1.404 . S
C1725 H1737 0.930 . S
C1726 C1722 1.524 . S
C1726 H1738 0.956 . S
C1726 H1739 0.961 . S
C1726 H1740 0.961 . S
C1727 C1724 1.539 . S
C1727 H1741 0.958 . S
C1727 H1742 0.961 . S
C1727 H1743 0.960 . S
H1728 C1712 0.931 . S
H1729 C1717 0.929 . S
H1730 C1718 0.960 . S
H1731 C1718 0.962 . S
H1732 C1718 0.960 . S
H1733 C1719 0.961 . S
H1734 C1719 0.961 . S
H1735 C1719 0.961 . S
H1736 C1720 0.931 . S
H1737 C1725 0.930 . S
H1738 C1726 0.956 . S
H1739 C1726 0.961 . S
H1740 C1726 0.961 . S
H1741 C1727 0.958 . S
H1742 C1727 0.961 . S
H1743 C1727 0.960 . S
C1744 C1745 1.391 . S
C1744 C1746 1.394 . S
C1744 H1760 0.931 . S
C1745 C1744 1.391 . S
C1745 C1749 1.376 . S
C1746 C1744 1.394 . S
C1746 C1747 1.369 . S
C1746 C1750 1.531 . S
C1747 C1746 1.369 . S
C1747 C1748 1.410 . S
C1747 C1755 1.503 . S
C1748 C1747 1.410 . S
C1748 C1749 1.392 . S
C1748 C1751 1.511 . S
C1749 C1745 1.376 . S
C1749 C1748 1.392 . S
C1749 H1761 0.929 . S
C1750 C1746 1.531 . S
C1750 H1762 0.960 . S
C1750 H1763 0.962 . S
C1750 H1764 0.960 . S
C1751 C1748 1.511 . S
C1751 H1765 0.961 . S
C1751 H1766 0.961 . S
C1751 H1767 0.961 . S
C1752 C1753 1.370 . S
C1752 C1754 1.363 . S
C1752 H1768 0.931 . S
C1753 C1752 1.370 . S
C1753 C1757 1.408 . S
C1754 C1752 1.363 . S
C1754 C1755 1.370 . S
C1754 C1758 1.524 . S
C1755 C1747 1.503 . S
C1755 C1754 1.370 . S
C1755 C1756 1.403 . S
C1756 C1755 1.403 . S
C1756 C1757 1.404 . S
C1756 C1759 1.539 . S
C1757 C1753 1.408 . S
C1757 C1756 1.404 . S
C1757 H1769 0.930 . S
C1758 C1754 1.524 . S
C1758 H1770 0.956 . S
C1758 H1771 0.961 . S
C1758 H1772 0.961 . S
C1759 C1756 1.539 . S
C1759 H1773 0.958 . S
C1759 H1774 0.961 . S
C1759 H1775 0.960 . S
H1760 C1744 0.931 . S
H1761 C1749 0.929 . S
H1762 C1750 0.960 . S
H1763 C1750 0.962 . S
H1764 C1750 0.960 . S
H1765 C1751 0.961 . S
H1766 C1751 0.961 . S
H1767 C1751 0.961 . S
H1768 C1752 0.931 . S
H1769 C1757 0.930 . S
H1770 C1758 0.956 . S
H1771 C1758 0.961 . S
H1772 C1758 0.961 . S
H1773 C1759 0.958 . S
H1774 C1759 0.961 . S
H1775 C1759 0.960 . S
C1776 C1777 1.391 . S
C1776 C1778 1.394 . S
C1776 H1792 0.931 . S
C1777 C1776 1.391 . S
C1777 C1781 1.376 . S
C1778 C1776 1.394 . S
C1778 C1779 1.369 . S
C1778 C1782 1.531 . S
C1779 C1778 1.369 . S
C1779 C1780 1.410 . S
C1779 C1787 1.503 . S
C1780 C1779 1.410 . S
C1780 C1781 1.392 . S
C1780 C1783 1.511 . S
C1781 C1777 1.376 . S
C1781 C1780 1.392 . S
C1781 H1793 0.929 . S
C1782 C1778 1.531 . S
C1782 H1794 0.960 . S
C1782 H1795 0.962 . S
C1782 H1796 0.960 . S
C1783 C1780 1.511 . S
C1783 H1797 0.961 . S
C1783 H1798 0.961 . S
C1783 H1799 0.961 . S
C1784 C1785 1.370 . S
C1784 C1786 1.363 . S
C1784 H1800 0.931 . S
C1785 C1784 1.370 . S
C1785 C1789 1.408 . S
C1786 C1784 1.363 . S
C1786 C1787 1.370 . S
C1786 C1790 1.524 . S
C1787 C1779 1.503 . S
C1787 C1786 1.370 . S
C1787 C1788 1.403 . S
C1788 C1787 1.403 . S
C1788 C1789 1.404 . S
C1788 C1791 1.539 . S
C1789 C1785 1.408 . S
C1789 C1788 1.404 . S
C1789 H1801 0.930 . S
C1790 C1786 1.524 . S
C1790 H1802 0.956 . S
C1790 H1803 0.961 . S
C1790 H1804 0.961 . S
C1791 C1788 1.539 . S
C1791 H1805 0.958 . S
C1791 H1806 0.961 . S
C1791 H1807 0.960 . S
H1792 C1776 0.931 . S
H1793 C1781 0.929 . S
H1794 C1782 0.960 . S
H1795 C1782 0.962 . S
H1796 C1782 0.960 . S
H1797 C1783 0.961 . S
H1798 C1783 0.961 . S
H1799 C1783 0.961 . S
H1800 C1784 0.931 . S
H1801 C1789 0.930 . S
H1802 C1790 0.956 . S
H1803 C1790 0.961 . S
H1804 C1790 0.961 . S
H1805 C1791 0.958 . S
H1806 C1791 0.961 . S
H1807 C1791 0.960 . S
C1808 C1809 1.391 . S
C1808 C1810 1.394 . S
C1808 H1824 0.931 . S
C1809 C1808 1.391 . S
C1809 C1813 1.376 . S
C1810 C1808 1.394 . S
C1810 C1811 1.369 . S
C1810 C1814 1.531 . S
C1811 C1810 1.369 . S
C1811 C1812 1.410 . S
C1811 C1819 1.503 . S
C1812 C1811 1.410 . S
C1812 C1813 1.392 . S
C1812 C1815 1.511 . S
C1813 C1809 1.376 . S
C1813 C1812 1.392 . S
C1813 H1825 0.929 . S
C1814 C1810 1.531 . S
C1814 H1826 0.960 . S
C1814 H1827 0.962 . S
C1814 H1828 0.960 . S
C1815 C1812 1.511 . S
C1815 H1829 0.961 . S
C1815 H1830 0.961 . S
C1815 H1831 0.961 . S
C1816 C1817 1.370 . S
C1816 C1818 1.363 . S
C1816 H1832 0.931 . S
C1817 C1816 1.370 . S
C1817 C1821 1.408 . S
C1818 C1816 1.363 . S
C1818 C1819 1.370 . S
C1818 C1822 1.524 . S
C1819 C1811 1.503 . S
C1819 C1818 1.370 . S
C1819 C1820 1.403 . S
C1820 C1819 1.403 . S
C1820 C1821 1.404 . S
C1820 C1823 1.539 . S
C1821 C1817 1.408 . S
C1821 C1820 1.404 . S
C1821 H1833 0.930 . S
C1822 C1818 1.524 . S
C1822 H1834 0.956 . S
C1822 H1835 0.961 . S
C1822 H1836 0.961 . S
C1823 C1820 1.539 . S
C1823 H1837 0.958 . S
C1823 H1838 0.961 . S
C1823 H1839 0.960 . S
H1824 C1808 0.931 . S
H1825 C1813 0.929 . S
H1826 C1814 0.960 . S
H1827 C1814 0.962 . S
H1828 C1814 0.960 . S
H1829 C1815 0.961 . S
H1830 C1815 0.961 . S
H1831 C1815 0.961 . S
H1832 C1816 0.931 . S
H1833 C1821 0.930 . S
H1834 C1822 0.956 . S
H1835 C1822 0.961 . S
H1836 C1822 0.961 . S
H1837 C1823 0.958 . S
H1838 C1823 0.961 . S
H1839 C1823 0.960 . S
C1840 C1841 1.391 . S
C1840 C1842 1.394 . S
C1840 H1856 0.931 . S
C1841 C1840 1.391 . S
C1841 C1845 1.376 . S
C1842 C1840 1.394 . S
C1842 C1843 1.369 . S
C1842 C1846 1.531 . S
C1843 C1842 1.369 . S
C1843 C1844 1.410 . S
C1843 C1851 1.503 . S
C1844 C1843 1.410 . S
C1844 C1845 1.392 . S
C1844 C1847 1.511 . S
C1845 C1841 1.376 . S
C1845 C1844 1.392 . S
C1845 H1857 0.929 . S
C1846 C1842 1.531 . S
C1846 H1858 0.960 . S
C1846 H1859 0.962 . S
C1846 H1860 0.960 . S
C1847 C1844 1.511 . S
C1847 H1861 0.961 . S
C1847 H1862 0.961 . S
C1847 H1863 0.961 . S
C1848 C1849 1.370 . S
C1848 C1850 1.363 . S
C1848 H1864 0.931 . S
C1849 C1848 1.370 . S
C1849 C1853 1.408 . S
C1850 C1848 1.363 . S
C1850 C1851 1.370 . S
C1850 C1854 1.524 . S
C1851 C1843 1.503 . S
C1851 C1850 1.370 . S
C1851 C1852 1.403 . S
C1852 C1851 1.403 . S
C1852 C1853 1.404 . S
C1852 C1855 1.539 . S
C1853 C1849 1.408 . S
C1853 C1852 1.404 . S
C1853 H1865 0.930 . S
C1854 C1850 1.524 . S
C1854 H1866 0.956 . S
C1854 H1867 0.961 . S
C1854 H1868 0.961 . S
C1855 C1852 1.539 . S
C1855 H1869 0.958 . S
C1855 H1870 0.961 . S
C1855 H1871 0.960 . S
H1856 C1840 0.931 . S
H1857 C1845 0.929 . S
H1858 C1846 0.960 . S
H1859 C1846 0.962 . S
H1860 C1846 0.960 . S
H1861 C1847 0.961 . S
H1862 C1847 0.961 . S
H1863 C1847 0.961 . S
H1864 C1848 0.931 . S
H1865 C1853 0.930 . S
H1866 C1854 0.956 . S
H1867 C1854 0.961 . S
H1868 C1854 0.961 . S
H1869 C1855 0.958 . S
H1870 C1855 0.961 . S
H1871 C1855 0.960 . S
C1872 C1873 1.391 . S
C1872 C1874 1.394 . S
C1872 H1888 0.931 . S
C1873 C1872 1.391 . S
C1873 C1877 1.376 . S
C1874 C1872 1.394 . S
C1874 C1875 1.369 . S
C1874 C1878 1.531 . S
C1875 C1874 1.369 . S
C1875 C1876 1.410 . S
C1875 C1883 1.503 . S
C1876 C1875 1.410 . S
C1876 C1877 1.392 . S
C1876 C1879 1.511 . S
C1877 C1873 1.376 . S
C1877 C1876 1.392 . S
C1877 H1889 0.929 . S
C1878 C1874 1.531 . S
C1878 H1890 0.960 . S
C1878 H1891 0.962 . S
C1878 H1892 0.960 . S
C1879 C1876 1.511 . S
C1879 H1893 0.961 . S
C1879 H1894 0.961 . S
C1879 H1895 0.961 . S
C1880 C1881 1.370 . S
C1880 C1882 1.363 . S
C1880 H1896 0.931 . S
C1881 C1880 1.370 . S
C1881 C1885 1.408 . S
C1882 C1880 1.363 . S
C1882 C1883 1.370 . S
C1882 C1886 1.524 . S
C1883 C1875 1.503 . S
C1883 C1882 1.370 . S
C1883 C1884 1.403 . S
C1884 C1883 1.403 . S
C1884 C1885 1.404 . S
C1884 C1887 1.539 . S
C1885 C1881 1.408 . S
C1885 C1884 1.404 . S
C1885 H1897 0.930 . S
C1886 C1882 1.524 . S
C1886 H1898 0.956 . S
C1886 H1899 0.961 . S
C1886 H1900 0.961 . S
C1887 C1884 1.539 . S
C1887 H1901 0.958 . S
C1887 H1902 0.961 . S
C1887 H1903 0.960 . S
H1888 C1872 0.931 . S
H1889 C1877 0.929 . S
H1890 C1878 0.960 . S
H1891 C1878 0.962 . S
H1892 C1878 0.960 . S
H1893 C1879 0.961 . S
H1894 C1879 0.961 . S
H1895 C1879 0.961 . S
H1896 C1880 0.931 . S
H1897 C1885 0.930 . S
H1898 C1886 0.956 . S
H1899 C1886 0.961 . S
H1900 C1886 0.961 . S
H1901 C1887 0.958 . S
H1902 C1887 0.961 . S
H1903 C1887 0.960 . S
C1904 C1905 1.391 . S
C1904 C1906 1.394 . S
C1904 H1920 0.931 . S
C1905 C1904 1.391 . S
C1905 C1909 1.376 . S
C1906 C1904 1.394 . S
C1906 C1907 1.369 . S
C1906 C1910 1.531 . S
C1907 C1906 1.369 . S
C1907 C1908 1.410 . S
C1907 C1915 1.503 . S
C1908 C1907 1.410 . S
C1908 C1909 1.392 . S
C1908 C1911 1.511 . S
C1909 C1905 1.376 . S
C1909 C1908 1.392 . S
C1909 H1921 0.929 . S
C1910 C1906 1.531 . S
C1910 H1922 0.960 . S
C1910 H1923 0.962 . S
C1910 H1924 0.960 . S
C1911 C1908 1.511 . S
C1911 H1925 0.961 . S
C1911 H1926 0.961 . S
C1911 H1927 0.961 . S
C1912 C1913 1.370 . S
C1912 C1914 1.363 . S
C1912 H1928 0.931 . S
C1913 C1912 1.370 . S
C1913 C1917 1.408 . S
C1914 C1912 1.363 . S
C1914 C1915 1.370 . S
C1914 C1918 1.524 . S
C1915 C1907 1.503 . S
C1915 C1914 1.370 . S
C1915 C1916 1.403 . S
C1916 C1915 1.403 . S
C1916 C1917 1.404 . S
C1916 C1919 1.539 . S
C1917 C1913 1.408 . S
C1917 C1916 1.404 . S
C1917 H1929 0.930 . S
C1918 C1914 1.524 . S
C1918 H1930 0.956 . S
C1918 H1931 0.961 . S
C1918 H1932 0.961 . S
C1919 C1916 1.539 . S
C1919 H1933 0.958 . S
C1919 H1934 0.961 . S
C1919 H1935 0.960 . S
H1920 C1904 0.931 . S
H1921 C1909 0.929 . S
H1922 C1910 0.960 . S
H1923 C1910 0.962 . S
H1924 C1910 0.960 . S
H1925 C1911 0.961 . S
H1926 C1911 0.961 . S
H1927 C1911 0.961 . S
H1928 C1912 0.931 . S
H1929 C1917 0.930 . S
H1930 C1918 0.956 . S
H1931 C1918 0.961 . S
H1932 C1918 0.961 . S
H1933 C1919 0.958 . S
H1934 C1919 0.961 . S
H1935 C1919 0.960 . S
C1936 C1937 1.391 . S
C1936 C1938 1.394 . S
C1936 H1952 0.931 . S
C1937 C1936 1.391 . S
C1937 C1941 1.376 . S
C1938 C1936 1.394 . S
C1938 C1939 1.369 . S
C1938 C1942 1.531 . S
C1939 C1938 1.369 . S
C1939 C1940 1.410 . S
C1939 C1947 1.503 . S
C1940 C1939 1.410 . S
C1940 C1941 1.392 . S
C1940 C1943 1.511 . S
C1941 C1937 1.376 . S
C1941 C1940 1.392 . S
C1941 H1953 0.929 . S
C1942 C1938 1.531 . S
C1942 H1954 0.960 . S
C1942 H1955 0.962 . S
C1942 H1956 0.960 . S
C1943 C1940 1.511 . S
C1943 H1957 0.961 . S
C1943 H1958 0.961 . S
C1943 H1959 0.961 . S
C1944 C1945 1.370 . S
C1944 C1946 1.363 . S
C1944 H1960 0.931 1_556 S
C1945 C1944 1.370 . S
C1945 C1949 1.408 . S
C1946 C1944 1.363 . S
C1946 C1947 1.370 . S
C1946 C1950 1.524 . S
C1947 C1939 1.503 . S
C1947 C1946 1.370 . S
C1947 C1948 1.403 . S
C1948 C1947 1.403 . S
C1948 C1949 1.404 . S
C1948 C1951 1.539 . S
C1949 C1945 1.408 . S
C1949 C1948 1.404 . S
C1949 H1961 0.930 . S
C1950 C1946 1.524 . S
C1950 H1962 0.956 . S
C1950 H1963 0.961 . S
C1950 H1964 0.961 . S
C1951 C1948 1.539 . S
C1951 H1965 0.958 . S
C1951 H1966 0.961 . S
C1951 H1967 0.960 . S
H1952 C1936 0.931 . S
H1953 C1941 0.929 . S
H1954 C1942 0.960 . S
H1955 C1942 0.962 . S
H1956 C1942 0.960 . S
H1957 C1943 0.961 . S
H1958 C1943 0.961 . S
H1959 C1943 0.961 . S
H1960 C1944 0.931 1_554 S
H1961 C1949 0.930 . S
H1962 C1950 0.956 . S
H1963 C1950 0.961 . S
H1964 C1950 0.961 . S
H1965 C1951 0.958 . S
H1966 C1951 0.961 . S
H1967 C1951 0.960 . S
C1968 C1969 1.391 . S
C1968 C1970 1.394 . S
C1968 H1984 0.931 . S
C1969 C1968 1.391 . S
C1969 C1973 1.376 . S
C1970 C1968 1.394 . S
C1970 C1971 1.369 . S
C1970 C1974 1.531 . S
C1971 C1970 1.369 . S
C1971 C1972 1.410 . S
C1971 C1979 1.503 . S
C1972 C1971 1.410 . S
C1972 C1973 1.392 . S
C1972 C1975 1.511 . S
C1973 C1969 1.376 . S
C1973 C1972 1.392 . S
C1973 H1985 0.929 . S
C1974 C1970 1.531 . S
C1974 H1986 0.960 . S
C1974 H1987 0.962 . S
C1974 H1988 0.960 . S
C1975 C1972 1.511 . S
C1975 H1989 0.961 . S
C1975 H1990 0.961 . S
C1975 H1991 0.961 . S
C1976 C1977 1.370 . S
C1976 C1978 1.363 . S
C1976 H1992 0.931 . S
C1977 C1976 1.370 . S
C1977 C1981 1.408 . S
C1978 C1976 1.363 . S
C1978 C1979 1.370 . S
C1978 C1982 1.524 . S
C1979 C1971 1.503 . S
C1979 C1978 1.370 . S
C1979 C1980 1.403 . S
C1980 C1979 1.403 . S
C1980 C1981 1.404 . S
C1980 C1983 1.539 . S
C1981 C1977 1.408 . S
C1981 C1980 1.404 . S
C1981 H1993 0.930 . S
C1982 C1978 1.524 . S
C1982 H1994 0.956 . S
C1982 H1995 0.961 . S
C1982 H1996 0.961 . S
C1983 C1980 1.539 . S
C1983 H1997 0.958 . S
C1983 H1998 0.961 . S
C1983 H1999 0.960 . S
H1984 C1968 0.931 . S
H1985 C1973 0.929 . S
H1986 C1974 0.960 . S
H1987 C1974 0.962 . S
H1988 C1974 0.960 . S
H1989 C1975 0.961 . S
H1990 C1975 0.961 . S
H1991 C1975 0.961 . S
H1992 C1976 0.931 . S
H1993 C1981 0.930 . S
H1994 C1982 0.956 . S
H1995 C1982 0.961 . S
H1996 C1982 0.961 . S
H1997 C1983 0.958 . S
H1998 C1983 0.961 . S
H1999 C1983 0.960 . S
C2000 C2001 1.391 . S
C2000 C2002 1.394 . S
C2000 H2016 0.931 . S
C2001 C2000 1.391 . S
C2001 C2005 1.376 . S
C2002 C2000 1.394 . S
C2002 C2003 1.369 . S
C2002 C2006 1.531 . S
C2003 C2002 1.369 . S
C2003 C2004 1.410 . S
C2003 C2011 1.503 . S
C2004 C2003 1.410 . S
C2004 C2005 1.392 . S
C2004 C2007 1.511 . S
C2005 C2001 1.376 . S
C2005 C2004 1.392 . S
C2005 H2017 0.929 . S
C2006 C2002 1.531 . S
C2006 H2018 0.960 . S
C2006 H2019 0.962 . S
C2006 H2020 0.960 . S
C2007 C2004 1.511 . S
C2007 H2021 0.961 . S
C2007 H2022 0.961 . S
C2007 H2023 0.961 . S
C2008 C2009 1.370 . S
C2008 C2010 1.363 . S
C2008 H2024 0.931 . S
C2009 C2008 1.370 . S
C2009 C2013 1.408 . S
C2010 C2008 1.363 . S
C2010 C2011 1.370 . S
C2010 C2014 1.524 . S
C2011 C2003 1.503 . S
C2011 C2010 1.370 . S
C2011 C2012 1.403 . S
C2012 C2011 1.403 . S
C2012 C2013 1.404 . S
C2012 C2015 1.539 . S
C2013 C2009 1.408 . S
C2013 C2012 1.404 . S
C2013 H2025 0.930 . S
C2014 C2010 1.524 . S
C2014 H2026 0.956 . S
C2014 H2027 0.961 . S
C2014 H2028 0.961 . S
C2015 C2012 1.539 . S
C2015 H2029 0.958 . S
C2015 H2030 0.961 . S
C2015 H2031 0.960 . S
H2016 C2000 0.931 . S
H2017 C2005 0.929 . S
H2018 C2006 0.960 . S
H2019 C2006 0.962 . S
H2020 C2006 0.960 . S
H2021 C2007 0.961 . S
H2022 C2007 0.961 . S
H2023 C2007 0.961 . S
H2024 C2008 0.931 . S
H2025 C2013 0.930 . S
H2026 C2014 0.956 . S
H2027 C2014 0.961 . S
H2028 C2014 0.961 . S
H2029 C2015 0.958 . S
H2030 C2015 0.961 . S
H2031 C2015 0.960 . S
C2032 C2033 1.391 . S
C2032 C2034 1.394 . S
C2032 H2048 0.931 . S
C2033 C2032 1.391 . S
C2033 C2037 1.376 . S
C2034 C2032 1.394 . S
C2034 C2035 1.369 . S
C2034 C2038 1.531 . S
C2035 C2034 1.369 . S
C2035 C2036 1.410 . S
C2035 C2043 1.503 . S
C2036 C2035 1.410 . S
C2036 C2037 1.392 . S
C2036 C2039 1.511 . S
C2037 C2033 1.376 . S
C2037 C2036 1.392 . S
C2037 H2049 0.929 . S
C2038 C2034 1.531 . S
C2038 H2050 0.960 . S
C2038 H2051 0.962 . S
C2038 H2052 0.960 . S
C2039 C2036 1.511 . S
C2039 H2053 0.961 . S
C2039 H2054 0.961 . S
C2039 H2055 0.961 . S
C2040 C2041 1.370 . S
C2040 C2042 1.363 . S
C2040 H2056 0.931 . S
C2041 C2040 1.370 . S
C2041 C2045 1.408 . S
C2042 C2040 1.363 . S
C2042 C2043 1.370 . S
C2042 C2046 1.524 . S
C2043 C2035 1.503 . S
C2043 C2042 1.370 . S
C2043 C2044 1.403 . S
C2044 C2043 1.403 . S
C2044 C2045 1.404 . S
C2044 C2047 1.539 . S
C2045 C2041 1.408 . S
C2045 C2044 1.404 . S
C2045 H2057 0.930 . S
C2046 C2042 1.524 . S
C2046 H2058 0.956 . S
C2046 H2059 0.961 . S
C2046 H2060 0.961 . S
C2047 C2044 1.539 . S
C2047 H2061 0.958 . S
C2047 H2062 0.961 . S
C2047 H2063 0.960 . S
H2048 C2032 0.931 . S
H2049 C2037 0.929 . S
H2050 C2038 0.960 . S
H2051 C2038 0.962 . S
H2052 C2038 0.960 . S
H2053 C2039 0.961 . S
H2054 C2039 0.961 . S
H2055 C2039 0.961 . S
H2056 C2040 0.931 . S
H2057 C2045 0.930 . S
H2058 C2046 0.956 . S
H2059 C2046 0.961 . S
H2060 C2046 0.961 . S
H2061 C2047 0.958 . S
H2062 C2047 0.961 . S
H2063 C2047 0.960 . S
C2064 C2065 1.391 . S
C2064 C2066 1.394 . S
C2064 H2080 0.931 . S
C2065 C2064 1.391 . S
C2065 C2069 1.376 . S
C2066 C2064 1.394 . S
C2066 C2067 1.369 . S
C2066 C2070 1.531 . S
C2067 C2066 1.369 . S
C2067 C2068 1.410 . S
C2067 C2075 1.503 . S
C2068 C2067 1.410 . S
C2068 C2069 1.392 . S
C2068 C2071 1.511 . S
C2069 C2065 1.376 . S
C2069 C2068 1.392 . S
C2069 H2081 0.929 . S
C2070 C2066 1.531 . S
C2070 H2082 0.960 . S
C2070 H2083 0.962 . S
C2070 H2084 0.960 . S
C2071 C2068 1.511 . S
C2071 H2085 0.961 . S
C2071 H2086 0.961 . S
C2071 H2087 0.961 . S
C2072 C2073 1.370 . S
C2072 C2074 1.363 . S
C2072 H2088 0.931 . S
C2073 C2072 1.370 . S
C2073 C2077 1.408 . S
C2074 C2072 1.363 . S
C2074 C2075 1.370 . S
C2074 C2078 1.524 . S
C2075 C2067 1.503 . S
C2075 C2074 1.370 . S
C2075 C2076 1.403 . S
C2076 C2075 1.403 . S
C2076 C2077 1.404 . S
C2076 C2079 1.539 . S
C2077 C2073 1.408 . S
C2077 C2076 1.404 . S
C2077 H2089 0.930 . S
C2078 C2074 1.524 . S
C2078 H2090 0.956 . S
C2078 H2091 0.961 . S
C2078 H2092 0.961 . S
C2079 C2076 1.539 . S
C2079 H2093 0.958 . S
C2079 H2094 0.961 . S
C2079 H2095 0.960 . S
H2080 C2064 0.931 . S
H2081 C2069 0.929 . S
H2082 C2070 0.960 . S
H2083 C2070 0.962 . S
H2084 C2070 0.960 . S
H2085 C2071 0.961 . S
H2086 C2071 0.961 . S
H2087 C2071 0.961 . S
H2088 C2072 0.931 . S
H2089 C2077 0.930 . S
H2090 C2078 0.956 . S
H2091 C2078 0.961 . S
H2092 C2078 0.961 . S
H2093 C2079 0.958 . S
H2094 C2079 0.961 . S
H2095 C2079 0.960 . S
C2096 C2097 1.391 . S
C2096 C2098 1.394 . S
C2096 H2112 0.931 . S
C2097 C2096 1.391 . S
C2097 C2101 1.376 . S
C2098 C2096 1.394 . S
C2098 C2099 1.369 . S
C2098 C2102 1.531 . S
C2099 C2098 1.369 . S
C2099 C2100 1.410 . S
C2099 C2107 1.503 . S
C2100 C2099 1.410 . S
C2100 C2101 1.392 . S
C2100 C2103 1.511 . S
C2101 C2097 1.376 . S
C2101 C2100 1.392 . S
C2101 H2113 0.929 . S
C2102 C2098 1.531 . S
C2102 H2114 0.960 . S
C2102 H2115 0.962 . S
C2102 H2116 0.960 . S
C2103 C2100 1.511 . S
C2103 H2117 0.961 . S
C2103 H2118 0.961 . S
C2103 H2119 0.961 . S
C2104 C2105 1.370 . S
C2104 C2106 1.363 . S
C2104 H2120 0.931 . S
C2105 C2104 1.370 . S
C2105 C2109 1.408 . S
C2106 C2104 1.363 . S
C2106 C2107 1.370 . S
C2106 C2110 1.524 . S
C2107 C2099 1.503 . S
C2107 C2106 1.370 . S
C2107 C2108 1.403 . S
C2108 C2107 1.403 . S
C2108 C2109 1.404 . S
C2108 C2111 1.539 . S
C2109 C2105 1.408 . S
C2109 C2108 1.404 . S
C2109 H2121 0.930 . S
C2110 C2106 1.524 . S
C2110 H2122 0.956 . S
C2110 H2123 0.961 . S
C2110 H2124 0.961 . S
C2111 C2108 1.539 . S
C2111 H2125 0.958 . S
C2111 H2126 0.961 . S
C2111 H2127 0.960 . S
H2112 C2096 0.931 . S
H2113 C2101 0.929 . S
H2114 C2102 0.960 . S
H2115 C2102 0.962 . S
H2116 C2102 0.960 . S
H2117 C2103 0.961 . S
H2118 C2103 0.961 . S
H2119 C2103 0.961 . S
H2120 C2104 0.931 . S
H2121 C2109 0.930 . S
H2122 C2110 0.956 . S
H2123 C2110 0.961 . S
H2124 C2110 0.961 . S
H2125 C2111 0.958 . S
H2126 C2111 0.961 . S
H2127 C2111 0.960 . S
C2128 C2129 1.391 . S
C2128 C2130 1.394 . S
C2128 H2144 0.931 . S
C2129 C2128 1.391 . S
C2129 C2133 1.376 . S
C2130 C2128 1.394 . S
C2130 C2131 1.369 . S
C2130 C2134 1.531 . S
C2131 C2130 1.369 . S
C2131 C2132 1.410 . S
C2131 C2139 1.503 . S
C2132 C2131 1.410 . S
C2132 C2133 1.392 . S
C2132 C2135 1.511 . S
C2133 C2129 1.376 . S
C2133 C2132 1.392 . S
C2133 H2145 0.929 . S
C2134 C2130 1.531 . S
C2134 H2146 0.960 . S
C2134 H2147 0.962 . S
C2134 H2148 0.960 . S
C2135 C2132 1.511 . S
C2135 H2149 0.961 . S
C2135 H2150 0.961 . S
C2135 H2151 0.961 . S
C2136 C2137 1.370 . S
C2136 C2138 1.363 . S
C2136 H2152 0.931 . S
C2137 C2136 1.370 . S
C2137 C2141 1.408 . S
C2138 C2136 1.363 . S
C2138 C2139 1.370 . S
C2138 C2142 1.524 . S
C2139 C2131 1.503 . S
C2139 C2138 1.370 . S
C2139 C2140 1.403 . S
C2140 C2139 1.403 . S
C2140 C2141 1.404 . S
C2140 C2143 1.539 . S
C2141 C2137 1.408 . S
C2141 C2140 1.404 . S
C2141 H2153 0.930 . S
C2142 C2138 1.524 . S
C2142 H2154 0.956 . S
C2142 H2155 0.961 . S
C2142 H2156 0.961 . S
C2143 C2140 1.539 . S
C2143 H2157 0.958 1_545 S
C2143 H2158 0.961 . S
C2143 H2159 0.960 . S
H2144 C2128 0.931 . S
H2145 C2133 0.929 . S
H2146 C2134 0.960 . S
H2147 C2134 0.962 . S
H2148 C2134 0.960 . S
H2149 C2135 0.961 . S
H2150 C2135 0.961 . S
H2151 C2135 0.961 . S
H2152 C2136 0.931 . S
H2153 C2141 0.930 . S
H2154 C2142 0.956 . S
H2155 C2142 0.961 . S
H2156 C2142 0.961 . S
H2157 C2143 0.958 1_565 S
H2158 C2143 0.961 . S
H2159 C2143 0.960 . S
C2160 C2161 1.391 . S
C2160 C2162 1.394 . S
C2160 H2176 0.931 . S
C2161 C2160 1.391 . S
C2161 C2165 1.376 . S
C2162 C2160 1.394 . S
C2162 C2163 1.369 . S
C2162 C2166 1.531 . S
C2163 C2162 1.369 . S
C2163 C2164 1.410 . S
C2163 C2171 1.503 . S
C2164 C2163 1.410 . S
C2164 C2165 1.392 . S
C2164 C2167 1.511 . S
C2165 C2161 1.376 . S
C2165 C2164 1.392 . S
C2165 H2177 0.929 . S
C2166 C2162 1.531 . S
C2166 H2178 0.960 . S
C2166 H2179 0.962 . S
C2166 H2180 0.960 . S
C2167 C2164 1.511 . S
C2167 H2181 0.961 . S
C2167 H2182 0.961 . S
C2167 H2183 0.961 . S
C2168 C2169 1.370 . S
C2168 C2170 1.363 . S
C2168 H2184 0.931 . S
C2169 C2168 1.370 . S
C2169 C2173 1.408 . S
C2170 C2168 1.363 . S
C2170 C2171 1.370 . S
C2170 C2174 1.524 . S
C2171 C2163 1.503 . S
C2171 C2170 1.370 . S
C2171 C2172 1.403 . S
C2172 C2171 1.403 . S
C2172 C2173 1.404 . S
C2172 C2175 1.539 . S
C2173 C2169 1.408 . S
C2173 C2172 1.404 . S
C2173 H2185 0.930 . S
C2174 C2170 1.524 . S
C2174 H2186 0.956 . S
C2174 H2187 0.961 . S
C2174 H2188 0.961 . S
C2175 C2172 1.539 . S
C2175 H2189 0.958 . S
C2175 H2190 0.961 . S
C2175 H2191 0.960 . S
H2176 C2160 0.931 . S
H2177 C2165 0.929 . S
H2178 C2166 0.960 . S
H2179 C2166 0.962 . S
H2180 C2166 0.960 . S
H2181 C2167 0.961 . S
H2182 C2167 0.961 . S
H2183 C2167 0.961 . S
H2184 C2168 0.931 . S
H2185 C2173 0.930 . S
H2186 C2174 0.956 . S
H2187 C2174 0.961 . S
H2188 C2174 0.961 . S
H2189 C2175 0.958 . S
H2190 C2175 0.961 . S
H2191 C2175 0.960 . S
C2192 C2193 1.391 . S
C2192 C2194 1.394 . S
C2192 H2208 0.931 . S
C2193 C2192 1.391 . S
C2193 C2197 1.376 . S
C2194 C2192 1.394 . S
C2194 C2195 1.369 . S
C2194 C2198 1.531 . S
C2195 C2194 1.369 . S
C2195 C2196 1.410 . S
C2195 C2203 1.503 . S
C2196 C2195 1.410 . S
C2196 C2197 1.392 . S
C2196 C2199 1.511 . S
C2197 C2193 1.376 . S
C2197 C2196 1.392 . S
C2197 H2209 0.929 . S
C2198 C2194 1.531 . S
C2198 H2210 0.960 . S
C2198 H2211 0.962 . S
C2198 H2212 0.960 . S
C2199 C2196 1.511 . S
C2199 H2213 0.961 . S
C2199 H2214 0.961 . S
C2199 H2215 0.961 . S
C2200 C2201 1.370 . S
C2200 C2202 1.363 . S
C2200 H2216 0.931 . S
C2201 C2200 1.370 . S
C2201 C2205 1.408 1_545 S
C2202 C2200 1.363 . S
C2202 C2203 1.370 . S
C2202 C2206 1.524 . S
C2203 C2195 1.503 . S
C2203 C2202 1.370 . S
C2203 C2204 1.403 . S
C2204 C2203 1.403 . S
C2204 C2205 1.404 1_545 S
C2204 C2207 1.539 1_545 S
C2205 C2201 1.408 1_565 S
C2205 C2204 1.404 1_565 S
C2205 H2217 0.930 . S
C2206 C2202 1.524 . S
C2206 H2218 0.956 . S
C2206 H2219 0.961 . S
C2206 H2220 0.961 . S
C2207 C2204 1.539 1_565 S
C2207 H2221 0.958 . S
C2207 H2222 0.961 . S
C2207 H2223 0.960 1_565 S
H2208 C2192 0.931 . S
H2209 C2197 0.929 . S
H2210 C2198 0.960 . S
H2211 C2198 0.962 . S
H2212 C2198 0.960 . S
H2213 C2199 0.961 . S
H2214 C2199 0.961 . S
H2215 C2199 0.961 . S
H2216 C2200 0.931 . S
H2217 C2205 0.930 . S
H2218 C2206 0.956 . S
H2219 C2206 0.961 . S
H2220 C2206 0.961 . S
H2221 C2207 0.958 . S
H2222 C2207 0.961 . S
H2223 C2207 0.960 1_545 S
C2224 C2225 1.391 . S
C2224 C2226 1.394 . S
C2224 H2240 0.931 . S
C2225 C2224 1.391 . S
C2225 C2229 1.376 . S
C2226 C2224 1.394 . S
C2226 C2227 1.369 . S
C2226 C2230 1.531 . S
C2227 C2226 1.369 . S
C2227 C2228 1.410 . S
C2227 C2235 1.503 . S
C2228 C2227 1.410 . S
C2228 C2229 1.392 . S
C2228 C2231 1.511 . S
C2229 C2225 1.376 . S
C2229 C2228 1.392 . S
C2229 H2241 0.929 . S
C2230 C2226 1.531 . S
C2230 H2242 0.960 . S
C2230 H2243 0.962 . S
C2230 H2244 0.960 . S
C2231 C2228 1.511 . S
C2231 H2245 0.961 . S
C2231 H2246 0.961 . S
C2231 H2247 0.961 . S
C2232 C2233 1.370 . S
C2232 C2234 1.363 . S
C2232 H2248 0.931 . S
C2233 C2232 1.370 . S
C2233 C2237 1.408 . S
C2234 C2232 1.363 . S
C2234 C2235 1.370 . S
C2234 C2238 1.524 . S
C2235 C2227 1.503 . S
C2235 C2234 1.370 . S
C2235 C2236 1.403 . S
C2236 C2235 1.403 . S
C2236 C2237 1.404 . S
C2236 C2239 1.539 . S
C2237 C2233 1.408 . S
C2237 C2236 1.404 . S
C2237 H2249 0.930 . S
C2238 C2234 1.524 . S
C2238 H2250 0.956 . S
C2238 H2251 0.961 . S
C2238 H2252 0.961 . S
C2239 C2236 1.539 . S
C2239 H2253 0.958 . S
C2239 H2254 0.961 . S
C2239 H2255 0.960 . S
H2240 C2224 0.931 . S
H2241 C2229 0.929 . S
H2242 C2230 0.960 . S
H2243 C2230 0.962 . S
H2244 C2230 0.960 . S
H2245 C2231 0.961 . S
H2246 C2231 0.961 . S
H2247 C2231 0.961 . S
H2248 C2232 0.931 . S
H2249 C2237 0.930 . S
H2250 C2238 0.956 . S
H2251 C2238 0.961 . S
H2252 C2238 0.961 . S
H2253 C2239 0.958 . S
H2254 C2239 0.961 . S
H2255 C2239 0.960 . S
C2256 C2257 1.391 . S
C2256 C2258 1.394 . S
C2256 H2272 0.931 . S
C2257 C2256 1.391 . S
C2257 C2261 1.376 1_556 S
C2258 C2256 1.394 . S
C2258 C2259 1.369 . S
C2258 C2262 1.531 . S
C2259 C2258 1.369 . S
C2259 C2260 1.417 . S
C2259 C2267 1.503 . S
C2260 C2259 1.417 . S
C2260 C2261 1.388 1_556 S
C2260 C2263 1.508 1_556 S
C2261 C2257 1.376 1_554 S
C2261 C2260 1.388 1_554 S
C2261 H2273 0.929 . S
C2262 C2258 1.531 . S
C2262 H2274 0.960 . S
C2262 H2275 0.962 . S
C2262 H2276 0.960 . S
C2263 C2260 1.508 1_554 S
C2263 H2277 0.961 . S
C2263 H2278 0.961 . S
C2263 H2279 0.960 1_554 S
C2264 C2265 1.370 . S
C2264 C2266 1.363 . S
C2264 H2280 0.931 . S
C2265 C2264 1.370 . S
C2265 C2269 1.408 . S
C2266 C2264 1.363 . S
C2266 C2267 1.370 . S
C2266 C2270 1.524 1_556 S
C2267 C2259 1.503 . S
C2267 C2266 1.370 . S
C2267 C2268 1.403 . S
C2268 C2267 1.403 . S
C2268 C2269 1.404 . S
C2268 C2271 1.539 . S
C2269 C2265 1.408 . S
C2269 C2268 1.404 . S
C2269 H2281 0.930 . S
C2270 C2266 1.524 1_554 S
C2270 H2282 0.956 . S
C2270 H2283 0.961 . S
C2270 H2284 0.961 . S
C2271 C2268 1.539 . S
C2271 H2285 0.958 . S
C2271 H2286 0.961 . S
C2271 H2287 0.960 . S
H2272 C2256 0.931 . S
H2273 C2261 0.929 . S
H2274 C2262 0.960 . S
H2275 C2262 0.962 . S
H2276 C2262 0.960 . S
H2277 C2263 0.961 . S
H2278 C2263 0.961 . S
H2279 C2263 0.960 1_556 S
H2280 C2264 0.931 . S
H2281 C2269 0.930 . S
H2282 C2270 0.956 . S
H2283 C2270 0.961 . S
H2284 C2270 0.961 . S
H2285 C2271 0.958 . S
H2286 C2271 0.961 . S
H2287 C2271 0.960 . S
C2288 C2289 1.391 . S
C2288 C2290 1.394 . S
C2288 H2304 0.931 . S
C2289 C2288 1.391 . S
C2289 C2293 1.376 . S
C2290 C2288 1.394 . S
C2290 C2291 1.369 . S
C2290 C2294 1.531 . S
C2291 C2290 1.369 . S
C2291 C2292 1.410 . S
C2291 C2299 1.503 . S
C2292 C2291 1.410 . S
C2292 C2293 1.392 . S
C2292 C2295 1.511 . S
C2293 C2289 1.376 . S
C2293 C2292 1.392 . S
C2293 H2305 0.929 . S
C2294 C2290 1.531 . S
C2294 H2306 0.960 . S
C2294 H2307 0.962 . S
C2294 H2308 0.960 . S
C2295 C2292 1.511 . S
C2295 H2309 0.961 . S
C2295 H2310 0.961 . S
C2295 H2311 0.961 . S
C2296 C2297 1.370 . S
C2296 C2298 1.363 . S
C2296 H2312 0.931 1_554 S
C2297 C2296 1.370 . S
C2297 C2301 1.408 . S
C2298 C2296 1.363 . S
C2298 C2299 1.370 . S
C2298 C2302 1.524 1_554 S
C2299 C2291 1.503 . S
C2299 C2298 1.370 . S
C2299 C2300 1.403 . S
C2300 C2299 1.403 . S
C2300 C2301 1.404 . S
C2300 C2303 1.539 . S
C2301 C2297 1.408 . S
C2301 C2300 1.404 . S
C2301 H2313 0.930 . S
C2302 C2298 1.524 1_556 S
C2302 H2314 0.956 . S
C2302 H2315 0.961 . S
C2302 H2316 0.961 . S
C2303 C2300 1.539 . S
C2303 H2317 0.958 . S
C2303 H2318 0.961 . S
C2303 H2319 0.960 . S
H2304 C2288 0.931 . S
H2305 C2293 0.929 . S
H2306 C2294 0.960 . S
H2307 C2294 0.962 . S
H2308 C2294 0.960 . S
H2309 C2295 0.961 . S
H2310 C2295 0.961 . S
H2311 C2295 0.961 . S
H2312 C2296 0.931 1_556 S
H2313 C2301 0.930 . S
H2314 C2302 0.956 . S
H2315 C2302 0.961 . S
H2316 C2302 0.961 . S
H2317 C2303 0.958 . S
H2318 C2303 0.961 . S
H2319 C2303 0.960 . S
C2320 C2321 1.391 . S
C2320 C2322 1.394 . S
C2320 H2336 0.931 . S
C2321 C2320 1.391 . S
C2321 C2325 1.376 . S
C2322 C2320 1.394 . S
C2322 C2323 1.369 . S
C2322 C2326 1.531 . S
C2323 C2322 1.369 . S
C2323 C2324 1.410 . S
C2323 C2331 1.503 . S
C2324 C2323 1.410 . S
C2324 C2325 1.392 . S
C2324 C2327 1.511 . S
C2325 C2321 1.376 . S
C2325 C2324 1.392 . S
C2325 H2337 0.929 . S
C2326 C2322 1.531 . S
C2326 H2338 0.960 . S
C2326 H2339 0.962 . S
C2326 H2340 0.960 . S
C2327 C2324 1.511 . S
C2327 H2341 0.961 . S
C2327 H2342 0.961 . S
C2327 H2343 0.961 . S
C2328 C2329 1.370 . S
C2328 C2330 1.363 . S
C2328 H2344 0.931 . S
C2329 C2328 1.370 . S
C2329 C2333 1.408 . S
C2330 C2328 1.363 . S
C2330 C2331 1.370 . S
C2330 C2334 1.524 . S
C2331 C2323 1.503 . S
C2331 C2330 1.370 . S
C2331 C2332 1.403 . S
C2332 C2331 1.403 . S
C2332 C2333 1.404 . S
C2332 C2335 1.539 . S
C2333 C2329 1.408 . S
C2333 C2332 1.404 . S
C2333 H2345 0.930 . S
C2334 C2330 1.524 . S
C2334 H2346 0.956 . S
C2334 H2347 0.961 . S
C2334 H2348 0.961 . S
C2335 C2332 1.539 . S
C2335 H2349 0.958 . S
C2335 H2350 0.961 . S
C2335 H2351 0.960 . S
H2336 C2320 0.931 . S
H2337 C2325 0.929 . S
H2338 C2326 0.960 . S
H2339 C2326 0.962 . S
H2340 C2326 0.960 . S
H2341 C2327 0.961 . S
H2342 C2327 0.961 . S
H2343 C2327 0.961 . S
H2344 C2328 0.931 . S
H2345 C2333 0.930 . S
H2346 C2334 0.956 . S
H2347 C2334 0.961 . S
H2348 C2334 0.961 . S
H2349 C2335 0.958 . S
H2350 C2335 0.961 . S
H2351 C2335 0.960 . S
C2352 C2353 1.391 . S
C2352 C2354 1.394 . S
C2352 H2368 0.931 . S
C2353 C2352 1.391 . S
C2353 C2357 1.376 . S
C2354 C2352 1.394 . S
C2354 C2355 1.369 . S
C2354 C2358 1.531 . S
C2355 C2354 1.369 . S
C2355 C2356 1.410 . S
C2355 C2363 1.503 . S
C2356 C2355 1.410 . S
C2356 C2357 1.392 . S
C2356 C2359 1.511 . S
C2357 C2353 1.376 . S
C2357 C2356 1.392 . S
C2357 H2369 0.929 . S
C2358 C2354 1.531 . S
C2358 H2370 0.960 . S
C2358 H2371 0.962 . S
C2358 H2372 0.960 . S
C2359 C2356 1.511 . S
C2359 H2373 0.961 . S
C2359 H2374 0.961 . S
C2359 H2375 0.961 . S
C2360 C2361 1.370 . S
C2360 C2362 1.363 . S
C2360 H2376 0.931 . S
C2361 C2360 1.370 . S
C2361 C2365 1.408 . S
C2362 C2360 1.363 . S
C2362 C2363 1.370 . S
C2362 C2366 1.524 . S
C2363 C2355 1.503 . S
C2363 C2362 1.370 . S
C2363 C2364 1.403 . S
C2364 C2363 1.403 . S
C2364 C2365 1.404 . S
C2364 C2367 1.539 . S
C2365 C2361 1.408 . S
C2365 C2364 1.404 . S
C2365 H2377 0.930 . S
C2366 C2362 1.524 . S
C2366 H2378 0.956 . S
C2366 H2379 0.961 . S
C2366 H2380 0.961 . S
C2367 C2364 1.539 . S
C2367 H2381 0.958 . S
C2367 H2382 0.961 . S
C2367 H2383 0.960 . S
H2368 C2352 0.931 . S
H2369 C2357 0.929 . S
H2370 C2358 0.960 . S
H2371 C2358 0.962 . S
H2372 C2358 0.960 . S
H2373 C2359 0.961 . S
H2374 C2359 0.961 . S
H2375 C2359 0.961 . S
H2376 C2360 0.931 . S
H2377 C2365 0.930 . S
H2378 C2366 0.956 . S
H2379 C2366 0.961 . S
H2380 C2366 0.961 . S
H2381 C2367 0.958 . S
H2382 C2367 0.961 . S
H2383 C2367 0.960 . S
C2384 C2385 1.391 . S
C2384 C2386 1.394 . S
C2384 H2400 0.931 . S
C2385 C2384 1.391 . S
C2385 C2389 1.376 . S
C2386 C2384 1.394 . S
C2386 C2387 1.369 . S
C2386 C2390 1.531 . S
C2387 C2386 1.369 . S
C2387 C2388 1.410 . S
C2387 C2395 1.503 . S
C2388 C2387 1.410 . S
C2388 C2389 1.392 . S
C2388 C2391 1.511 . S
C2389 C2385 1.376 . S
C2389 C2388 1.392 . S
C2389 H2401 0.929 . S
C2390 C2386 1.531 . S
C2390 H2402 0.960 . S
C2390 H2403 0.962 . S
C2390 H2404 0.960 . S
C2391 C2388 1.511 . S
C2391 H2405 0.961 . S
C2391 H2406 0.961 . S
C2391 H2407 0.961 . S
C2392 C2393 1.370 . S
C2392 C2394 1.363 . S
C2392 H2408 0.931 . S
C2393 C2392 1.370 . S
C2393 C2397 1.408 . S
C2394 C2392 1.363 . S
C2394 C2395 1.370 . S
C2394 C2398 1.524 . S
C2395 C2387 1.503 . S
C2395 C2394 1.370 . S
C2395 C2396 1.403 . S
C2396 C2395 1.403 . S
C2396 C2397 1.404 . S
C2396 C2399 1.539 . S
C2397 C2393 1.408 . S
C2397 C2396 1.404 . S
C2397 H2409 0.930 . S
C2398 C2394 1.524 . S
C2398 H2410 0.956 . S
C2398 H2411 0.961 . S
C2398 H2412 0.961 . S
C2399 C2396 1.539 . S
C2399 H2413 0.958 . S
C2399 H2414 0.961 . S
C2399 H2415 0.960 . S
H2400 C2384 0.931 . S
H2401 C2389 0.929 . S
H2402 C2390 0.960 . S
H2403 C2390 0.962 . S
H2404 C2390 0.960 . S
H2405 C2391 0.961 . S
H2406 C2391 0.961 . S
H2407 C2391 0.961 . S
H2408 C2392 0.931 . S
H2409 C2397 0.930 . S
H2410 C2398 0.956 . S
H2411 C2398 0.961 . S
H2412 C2398 0.961 . S
H2413 C2399 0.958 . S
H2414 C2399 0.961 . S
H2415 C2399 0.960 . S
C2416 C2417 1.391 . S
C2416 C2418 1.394 . S
C2416 H2432 0.931 . S
C2417 C2416 1.391 . S
C2417 C2421 1.376 . S
C2418 C2416 1.394 . S
C2418 C2419 1.369 . S
C2418 C2422 1.531 . S
C2419 C2418 1.369 . S
C2419 C2420 1.410 . S
C2419 C2427 1.503 . S
C2420 C2419 1.410 . S
C2420 C2421 1.392 . S
C2420 C2423 1.511 1_565 S
C2421 C2417 1.376 . S
C2421 C2420 1.392 . S
C2421 H2433 0.929 . S
C2422 C2418 1.531 . S
C2422 H2434 0.960 . S
C2422 H2435 0.962 . S
C2422 H2436 0.960 . S
C2423 C2420 1.511 1_545 S
C2423 H2437 0.961 . S
C2423 H2438 0.961 . S
C2423 H2439 0.961 . S
C2424 C2425 1.370 . S
C2424 C2426 1.363 . S
C2424 H2440 0.931 . S
C2425 C2424 1.370 . S
C2425 C2429 1.408 . S
C2426 C2424 1.363 . S
C2426 C2427 1.370 . S
C2426 C2430 1.524 . S
C2427 C2419 1.503 . S
C2427 C2426 1.370 . S
C2427 C2428 1.403 . S
C2428 C2427 1.403 . S
C2428 C2429 1.404 . S
C2428 C2431 1.539 . S
C2429 C2425 1.408 . S
C2429 C2428 1.404 . S
C2429 H2441 0.930 . S
C2430 C2426 1.524 . S
C2430 H2442 0.956 . S
C2430 H2443 0.961 . S
C2430 H2444 0.961 . S
C2431 C2428 1.539 . S
C2431 H2445 0.958 . S
C2431 H2446 0.961 . S
C2431 H2447 0.960 . S
H2432 C2416 0.931 . S
H2433 C2421 0.929 . S
H2434 C2422 0.960 . S
H2435 C2422 0.962 . S
H2436 C2422 0.960 . S
H2437 C2423 0.961 . S
H2438 C2423 0.961 . S
H2439 C2423 0.961 . S
H2440 C2424 0.931 . S
H2441 C2429 0.930 . S
H2442 C2430 0.956 . S
H2443 C2430 0.961 . S
H2444 C2430 0.961 . S
H2445 C2431 0.958 . S
H2446 C2431 0.961 . S
H2447 C2431 0.960 . S
C2448 C2449 1.391 . S
C2448 C2450 1.394 . S
C2448 H2464 0.931 . S
C2449 C2448 1.391 . S
C2449 C2453 1.376 . S
C2450 C2448 1.394 . S
C2450 C2451 1.369 . S
C2450 C2454 1.531 . S
C2451 C2450 1.369 . S
C2451 C2452 1.410 . S
C2451 C2459 1.503 . S
C2452 C2451 1.410 . S
C2452 C2453 1.392 . S
C2452 C2455 1.511 . S
C2453 C2449 1.376 . S
C2453 C2452 1.392 . S
C2453 H2465 0.929 . S
C2454 C2450 1.531 . S
C2454 H2466 0.960 . S
C2454 H2467 0.962 . S
C2454 H2468 0.960 . S
C2455 C2452 1.511 . S
C2455 H2469 0.961 . S
C2455 H2470 0.961 . S
C2455 H2471 0.961 . S
C2456 C2457 1.370 . S
C2456 C2458 1.363 . S
C2456 H2472 0.931 . S
C2457 C2456 1.370 . S
C2457 C2461 1.408 . S
C2458 C2456 1.363 . S
C2458 C2459 1.370 . S
C2458 C2462 1.524 . S
C2459 C2451 1.503 . S
C2459 C2458 1.370 . S
C2459 C2460 1.403 . S
C2460 C2459 1.403 . S
C2460 C2461 1.404 . S
C2460 C2463 1.539 . S
C2461 C2457 1.408 . S
C2461 C2460 1.404 . S
C2461 H2473 0.930 . S
C2462 C2458 1.524 . S
C2462 H2474 0.956 . S
C2462 H2475 0.961 . S
C2462 H2476 0.961 . S
C2463 C2460 1.539 . S
C2463 H2477 0.958 . S
C2463 H2478 0.961 . S
C2463 H2479 0.960 . S
H2464 C2448 0.931 . S
H2465 C2453 0.929 . S
H2466 C2454 0.960 . S
H2467 C2454 0.962 . S
H2468 C2454 0.960 . S
H2469 C2455 0.961 . S
H2470 C2455 0.961 . S
H2471 C2455 0.961 . S
H2472 C2456 0.931 . S
H2473 C2461 0.930 . S
H2474 C2462 0.956 . S
H2475 C2462 0.961 . S
H2476 C2462 0.961 . S
H2477 C2463 0.958 . S
H2478 C2463 0.961 . S
H2479 C2463 0.960 . S
C2480 C2481 1.391 . S
C2480 C2482 1.394 . S
C2480 H2496 0.931 . S
C2481 C2480 1.391 . S
C2481 C2485 1.376 . S
C2482 C2480 1.394 . S
C2482 C2483 1.369 . S
C2482 C2486 1.531 . S
C2483 C2482 1.369 . S
C2483 C2484 1.410 . S
C2483 C2491 1.503 . S
C2484 C2483 1.410 . S
C2484 C2485 1.392 . S
C2484 C2487 1.511 . S
C2485 C2481 1.376 . S
C2485 C2484 1.392 . S
C2485 H2497 0.929 . S
C2486 C2482 1.531 . S
C2486 H2498 0.960 . S
C2486 H2499 0.962 . S
C2486 H2500 0.960 . S
C2487 C2484 1.511 . S
C2487 H2501 0.961 . S
C2487 H2502 0.961 . S
C2487 H2503 0.961 . S
C2488 C2489 1.370 . S
C2488 C2490 1.363 . S
C2488 H2504 0.931 . S
C2489 C2488 1.370 . S
C2489 C2493 1.408 . S
C2490 C2488 1.363 . S
C2490 C2491 1.370 . S
C2490 C2494 1.524 . S
C2491 C2483 1.503 . S
C2491 C2490 1.370 . S
C2491 C2492 1.403 . S
C2492 C2491 1.403 . S
C2492 C2493 1.404 . S
C2492 C2495 1.539 . S
C2493 C2489 1.408 . S
C2493 C2492 1.404 . S
C2493 H2505 0.930 . S
C2494 C2490 1.524 . S
C2494 H2506 0.956 . S
C2494 H2507 0.961 . S
C2494 H2508 0.961 . S
C2495 C2492 1.539 . S
C2495 H2509 0.958 . S
C2495 H2510 0.961 . S
C2495 H2511 0.960 . S
H2496 C2480 0.931 . S
H2497 C2485 0.929 . S
H2498 C2486 0.960 . S
H2499 C2486 0.962 . S
H2500 C2486 0.960 . S
H2501 C2487 0.961 . S
H2502 C2487 0.961 . S
H2503 C2487 0.961 . S
H2504 C2488 0.931 . S
H2505 C2493 0.930 . S
H2506 C2494 0.956 . S
H2507 C2494 0.961 . S
H2508 C2494 0.961 . S
H2509 C2495 0.958 . S
H2510 C2495 0.961 . S
H2511 C2495 0.960 . S
C2512 C2513 1.391 . S
C2512 C2514 1.394 . S
C2512 H2528 0.931 . S
C2513 C2512 1.391 . S
C2513 C2517 1.376 . S
C2514 C2512 1.394 . S
C2514 C2515 1.369 . S
C2514 C2518 1.531 . S
C2515 C2514 1.369 . S
C2515 C2516 1.410 . S
C2515 C2523 1.503 . S
C2516 C2515 1.410 . S
C2516 C2517 1.392 . S
C2516 C2519 1.511 . S
C2517 C2513 1.376 . S
C2517 C2516 1.392 . S
C2517 H2529 0.929 . S
C2518 C2514 1.531 . S
C2518 H2530 0.960 . S
C2518 H2531 0.962 . S
C2518 H2532 0.960 . S
C2519 C2516 1.511 . S
C2519 H2533 0.961 . S
C2519 H2534 0.961 . S
C2519 H2535 0.961 . S
C2520 C2521 1.370 . S
C2520 C2522 1.363 . S
C2520 H2536 0.931 . S
C2521 C2520 1.370 . S
C2521 C2525 1.408 . S
C2522 C2520 1.363 . S
C2522 C2523 1.370 . S
C2522 C2526 1.524 . S
C2523 C2515 1.503 . S
C2523 C2522 1.370 . S
C2523 C2524 1.403 . S
C2524 C2523 1.403 . S
C2524 C2525 1.404 . S
C2524 C2527 1.539 . S
C2525 C2521 1.408 . S
C2525 C2524 1.404 . S
C2525 H2537 0.930 . S
C2526 C2522 1.524 . S
C2526 H2538 0.956 . S
C2526 H2539 0.961 . S
C2526 H2540 0.961 . S
C2527 C2524 1.539 . S
C2527 H2541 0.958 . S
C2527 H2542 0.961 . S
C2527 H2543 0.960 . S
H2528 C2512 0.931 . S
H2529 C2517 0.929 . S
H2530 C2518 0.960 . S
H2531 C2518 0.962 . S
H2532 C2518 0.960 . S
H2533 C2519 0.961 . S
H2534 C2519 0.961 . S
H2535 C2519 0.961 . S
H2536 C2520 0.931 . S
H2537 C2525 0.930 . S
H2538 C2526 0.956 . S
H2539 C2526 0.961 . S
H2540 C2526 0.961 . S
H2541 C2527 0.958 . S
H2542 C2527 0.961 . S
H2543 C2527 0.960 . S
C2544 C2545 1.391 . S
C2544 C2546 1.394 . S
C2544 H2560 0.931 . S
C2545 C2544 1.391 . S
C2545 C2549 1.376 . S
C2546 C2544 1.394 . S
C2546 C2547 1.369 . S
C2546 C2550 1.531 . S
C2547 C2546 1.369 . S
C2547 C2548 1.410 . S
C2547 C2555 1.503 . S
C2548 C2547 1.410 . S
C2548 C2549 1.392 . S
C2548 C2551 1.511 . S
C2549 C2545 1.376 . S
C2549 C2548 1.392 . S
C2549 H2561 0.929 . S
C2550 C2546 1.531 . S
C2550 H2562 0.960 . S
C2550 H2563 0.962 . S
C2550 H2564 0.960 . S
C2551 C2548 1.511 . S
C2551 H2565 0.961 . S
C2551 H2566 0.961 . S
C2551 H2567 0.961 . S
C2552 C2553 1.370 . S
C2552 C2554 1.363 . S
C2552 H2568 0.931 . S
C2553 C2552 1.370 . S
C2553 C2557 1.408 . S
C2554 C2552 1.363 . S
C2554 C2555 1.370 . S
C2554 C2558 1.524 . S
C2555 C2547 1.503 . S
C2555 C2554 1.370 . S
C2555 C2556 1.403 . S
C2556 C2555 1.403 . S
C2556 C2557 1.404 . S
C2556 C2559 1.539 . S
C2557 C2553 1.408 . S
C2557 C2556 1.404 . S
C2557 H2569 0.930 . S
C2558 C2554 1.524 . S
C2558 H2570 0.956 . S
C2558 H2571 0.961 . S
C2558 H2572 0.961 . S
C2559 C2556 1.539 . S
C2559 H2573 0.958 . S
C2559 H2574 0.961 . S
C2559 H2575 0.960 . S
H2560 C2544 0.931 . S
H2561 C2549 0.929 . S
H2562 C2550 0.960 . S
H2563 C2550 0.962 . S
H2564 C2550 0.960 . S
H2565 C2551 0.961 . S
H2566 C2551 0.961 . S
H2567 C2551 0.961 . S
H2568 C2552 0.931 . S
H2569 C2557 0.930 . S
H2570 C2558 0.956 . S
H2571 C2558 0.961 . S
H2572 C2558 0.961 . S
H2573 C2559 0.958 . S
H2574 C2559 0.961 . S
H2575 C2559 0.960 . S
C2576 C2577 1.391 . S
C2576 C2578 1.394 . S
C2576 H2592 0.931 . S
C2577 C2576 1.391 . S
C2577 C2581 1.376 . S
C2578 C2576 1.394 . S
C2578 C2579 1.369 . S
C2578 C2582 1.531 . S
C2579 C2578 1.369 . S
C2579 C2580 1.410 . S
C2579 C2587 1.503 . S
C2580 C2579 1.410 . S
C2580 C2581 1.392 . S
C2580 C2583 1.511 . S
C2581 C2577 1.376 . S
C2581 C2580 1.392 . S
C2581 H2593 0.929 1_455 S
C2582 C2578 1.531 . S
C2582 H2594 0.960 . S
C2582 H2595 0.962 . S
C2582 H2596 0.960 . S
C2583 C2580 1.511 . S
C2583 H2597 0.961 1_455 S
C2583 H2598 0.959 . S
C2583 H2599 0.961 . S
C2584 C2585 1.370 . S
C2584 C2586 1.363 . S
C2584 H2600 0.931 1_455 S
C2585 C2584 1.370 . S
C2585 C2589 1.408 . S
C2586 C2584 1.363 . S
C2586 C2587 1.370 . S
C2586 C2590 1.524 1_455 S
C2587 C2579 1.503 . S
C2587 C2586 1.370 . S
C2587 C2588 1.403 . S
C2588 C2587 1.403 . S
C2588 C2589 1.404 . S
C2588 C2591 1.539 . S
C2589 C2585 1.408 . S
C2589 C2588 1.404 . S
C2589 H2601 0.930 . S
C2590 C2586 1.524 1_655 S
C2590 H2602 0.956 . S
C2590 H2603 0.961 . S
C2590 H2604 0.961 . S
C2591 C2588 1.539 . S
C2591 H2605 0.958 . S
C2591 H2606 0.961 . S
C2591 H2607 0.960 . S
H2592 C2576 0.931 . S
H2593 C2581 0.929 1_655 S
H2594 C2582 0.960 . S
H2595 C2582 0.962 . S
H2596 C2582 0.960 . S
H2597 C2583 0.961 1_655 S
H2598 C2583 0.959 . S
H2599 C2583 0.961 . S
H2600 C2584 0.931 1_655 S
H2601 C2589 0.930 . S
H2602 C2590 0.956 . S
H2603 C2590 0.961 . S
H2604 C2590 0.961 . S
H2605 C2591 0.958 . S
H2606 C2591 0.961 . S
H2607 C2591 0.960 . S
C2608 C2609 1.391 . S
C2608 C2610 1.394 . S
C2608 H2624 0.931 . S
C2609 C2608 1.391 . S
C2609 C2613 1.376 . S
C2610 C2608 1.394 . S
C2610 C2611 1.369 . S
C2610 C2614 1.531 . S
C2611 C2610 1.369 . S
C2611 C2612 1.410 . S
C2611 C2619 1.503 1_455 S
C2612 C2611 1.410 . S
C2612 C2613 1.392 . S
C2612 C2615 1.511 1_455 S
C2613 C2609 1.376 . S
C2613 C2612 1.392 . S
C2613 H2625 0.929 . S
C2614 C2610 1.531 . S
C2614 H2626 0.960 . S
C2614 H2627 0.962 . S
C2614 H2628 0.960 . S
C2615 C2612 1.511 1_655 S
C2615 H2629 0.961 . S
C2615 H2630 0.961 . S
C2615 H2631 0.961 . S
C2616 C2617 1.370 . S
C2616 C2618 1.363 . S
C2616 H2632 0.931 . S
C2617 C2616 1.370 . S
C2617 C2621 1.408 . S
C2618 C2616 1.363 . S
C2618 C2619 1.370 . S
C2618 C2622 1.524 . S
C2619 C2611 1.503 1_655 S
C2619 C2618 1.370 . S
C2619 C2620 1.403 . S
C2620 C2619 1.403 . S
C2620 C2621 1.404 . S
C2620 C2623 1.539 . S
C2621 C2617 1.408 . S
C2621 C2620 1.404 . S
C2621 H2633 0.930 . S
C2622 C2618 1.524 . S
C2622 H2634 0.956 1_655 S
C2622 H2635 0.961 . S
C2622 H2636 0.961 . S
C2623 C2620 1.539 . S
C2623 H2637 0.958 1_655 S
C2623 H2638 0.961 . S
C2623 H2639 0.949 1_655 S
H2624 C2608 0.931 . S
H2625 C2613 0.929 . S
H2626 C2614 0.960 . S
H2627 C2614 0.962 . S
H2628 C2614 0.960 . S
H2629 C2615 0.961 . S
H2630 C2615 0.961 . S
H2631 C2615 0.961 . S
H2632 C2616 0.931 . S
H2633 C2621 0.930 . S
H2634 C2622 0.956 1_455 S
H2635 C2622 0.961 . S
H2636 C2622 0.961 . S
H2637 C2623 0.958 1_455 S
H2638 C2623 0.961 . S
H2639 C2623 0.949 1_455 S
C2640 C2641 1.391 . S
C2640 C2642 1.394 . S
C2640 H2656 0.931 . S
C2641 C2640 1.391 . S
C2641 C2645 1.376 . S
C2642 C2640 1.394 . S
C2642 C2643 1.369 . S
C2642 C2646 1.531 . S
C2643 C2642 1.369 . S
C2643 C2644 1.410 . S
C2643 C2651 1.503 . S
C2644 C2643 1.410 . S
C2644 C2645 1.392 . S
C2644 C2647 1.511 . S
C2645 C2641 1.376 . S
C2645 C2644 1.392 . S
C2645 H2657 0.929 . S
C2646 C2642 1.531 . S
C2646 H2658 0.960 . S
C2646 H2659 0.962 . S
C2646 H2660 0.960 . S
C2647 C2644 1.511 . S
C2647 H2661 0.961 . S
C2647 H2662 0.961 . S
C2647 H2663 0.961 . S
C2648 C2649 1.370 . S
C2648 C2650 1.363 . S
C2648 H2664 0.931 . S
C2649 C2648 1.370 . S
C2649 C2653 1.408 . S
C2650 C2648 1.363 . S
C2650 C2651 1.370 . S
C2650 C2654 1.524 . S
C2651 C2643 1.503 . S
C2651 C2650 1.370 . S
C2651 C2652 1.403 . S
C2652 C2651 1.403 . S
C2652 C2653 1.404 . S
C2652 C2655 1.539 . S
C2653 C2649 1.408 . S
C2653 C2652 1.404 . S
C2653 H2665 0.930 . S
C2654 C2650 1.524 . S
C2654 H2666 0.956 . S
C2654 H2667 0.961 . S
C2654 H2668 0.961 . S
C2655 C2652 1.539 . S
C2655 H2669 0.958 . S
C2655 H2670 0.961 . S
C2655 H2671 0.960 . S
H2656 C2640 0.931 . S
H2657 C2645 0.929 . S
H2658 C2646 0.960 . S
H2659 C2646 0.962 . S
H2660 C2646 0.960 . S
H2661 C2647 0.961 . S
H2662 C2647 0.961 . S
H2663 C2647 0.961 . S
H2664 C2648 0.931 . S
H2665 C2653 0.930 . S
H2666 C2654 0.956 . S
H2667 C2654 0.961 . S
H2668 C2654 0.961 . S
H2669 C2655 0.958 . S
H2670 C2655 0.961 . S
H2671 C2655 0.960 . S
C2672 C2673 1.391 . S
C2672 C2674 1.394 . S
C2672 H2688 0.931 . S
C2673 C2672 1.391 . S
C2673 C2677 1.376 . S
C2674 C2672 1.394 . S
C2674 C2675 1.369 . S
C2674 C2678 1.531 . S
C2675 C2674 1.369 . S
C2675 C2676 1.410 . S
C2675 C2683 1.503 . S
C2676 C2675 1.410 . S
C2676 C2677 1.392 . S
C2676 C2679 1.511 . S
C2677 C2673 1.376 . S
C2677 C2676 1.392 . S
C2677 H2689 0.929 . S
C2678 C2674 1.531 . S
C2678 H2690 0.960 . S
C2678 H2691 0.962 . S
C2678 H2692 0.960 . S
C2679 C2676 1.511 . S
C2679 H2693 0.961 . S
C2679 H2694 0.961 . S
C2679 H2695 0.961 . S
C2680 C2681 1.370 . S
C2680 C2682 1.363 . S
C2680 H2696 0.931 . S
C2681 C2680 1.370 . S
C2681 C2685 1.408 . S
C2682 C2680 1.363 . S
C2682 C2683 1.370 . S
C2682 C2686 1.524 . S
C2683 C2675 1.503 . S
C2683 C2682 1.370 . S
C2683 C2684 1.403 . S
C2684 C2683 1.403 . S
C2684 C2685 1.404 . S
C2684 C2687 1.539 . S
C2685 C2681 1.408 . S
C2685 C2684 1.404 . S
C2685 H2697 0.930 . S
C2686 C2682 1.524 . S
C2686 H2698 0.956 . S
C2686 H2699 0.961 . S
C2686 H2700 0.961 . S
C2687 C2684 1.539 . S
C2687 H2701 0.958 . S
C2687 H2702 0.961 . S
C2687 H2703 0.960 . S
H2688 C2672 0.931 . S
H2689 C2677 0.929 . S
H2690 C2678 0.960 . S
H2691 C2678 0.962 . S
H2692 C2678 0.960 . S
H2693 C2679 0.961 . S
H2694 C2679 0.961 . S
H2695 C2679 0.961 . S
H2696 C2680 0.931 . S
H2697 C2685 0.930 . S
H2698 C2686 0.956 . S
H2699 C2686 0.961 . S
H2700 C2686 0.961 . S
H2701 C2687 0.958 . S
H2702 C2687 0.961 . S
H2703 C2687 0.960 . S
C2704 C2705 1.391 . S
C2704 C2706 1.394 . S
C2704 H2720 0.931 . S
C2705 C2704 1.391 . S
C2705 C2709 1.376 . S
C2706 C2704 1.394 . S
C2706 C2707 1.369 . S
C2706 C2710 1.531 . S
C2707 C2706 1.369 . S
C2707 C2708 1.410 . S
C2707 C2715 1.503 . S
C2708 C2707 1.410 . S
C2708 C2709 1.392 . S
C2708 C2711 1.511 1_455 S
C2709 C2705 1.376 . S
C2709 C2708 1.392 . S
C2709 H2721 0.929 . S
C2710 C2706 1.531 . S
C2710 H2722 0.960 . S
C2710 H2723 0.962 . S
C2710 H2724 0.960 . S
C2711 C2708 1.511 1_655 S
C2711 H2725 0.961 . S
C2711 H2726 0.961 . S
C2711 H2727 0.961 . S
C2712 C2713 1.370 . S
C2712 C2714 1.363 . S
C2712 H2728 0.931 . S
C2713 C2712 1.370 . S
C2713 C2717 1.408 . S
C2714 C2712 1.363 . S
C2714 C2715 1.370 . S
C2714 C2718 1.524 . S
C2715 C2707 1.503 . S
C2715 C2714 1.370 . S
C2715 C2716 1.403 . S
C2716 C2715 1.403 . S
C2716 C2717 1.404 . S
C2716 C2719 1.539 . S
C2717 C2713 1.408 . S
C2717 C2716 1.404 . S
C2717 H2729 0.930 . S
C2718 C2714 1.524 . S
C2718 H2730 0.956 . S
C2718 H2731 0.961 . S
C2718 H2732 0.961 . S
C2719 C2716 1.539 . S
C2719 H2733 0.958 . S
C2719 H2734 0.961 . S
C2719 H2735 0.960 . S
H2720 C2704 0.931 . S
H2721 C2709 0.929 . S
H2722 C2710 0.960 . S
H2723 C2710 0.962 . S
H2724 C2710 0.960 . S
H2725 C2711 0.961 . S
H2726 C2711 0.961 . S
H2727 C2711 0.961 . S
H2728 C2712 0.931 . S
H2729 C2717 0.930 . S
H2730 C2718 0.956 . S
H2731 C2718 0.961 . S
H2732 C2718 0.961 . S
H2733 C2719 0.958 . S
H2734 C2719 0.961 . S
H2735 C2719 0.960 . S
C2736 C2737 1.391 . S
C2736 C2738 1.394 . S
C2736 H2752 0.931 . S
C2737 C2736 1.391 . S
C2737 C2741 1.376 . S
C2738 C2736 1.394 . S
C2738 C2739 1.369 . S
C2738 C2742 1.531 . S
C2739 C2738 1.369 . S
C2739 C2740 1.410 . S
C2739 C2747 1.503 . S
C2740 C2739 1.410 . S
C2740 C2741 1.392 . S
C2740 C2743 1.511 . S
C2741 C2737 1.376 . S
C2741 C2740 1.392 . S
C2741 H2753 0.929 . S
C2742 C2738 1.531 . S
C2742 H2754 0.960 . S
C2742 H2755 0.962 . S
C2742 H2756 0.960 . S
C2743 C2740 1.511 . S
C2743 H2757 0.961 . S
C2743 H2758 0.961 . S
C2743 H2759 0.961 . S
C2744 C2745 1.370 . S
C2744 C2746 1.363 . S
C2744 H2760 0.931 . S
C2745 C2744 1.370 . S
C2745 C2749 1.408 . S
C2746 C2744 1.363 . S
C2746 C2747 1.370 . S
C2746 C2750 1.524 . S
C2747 C2739 1.503 . S
C2747 C2746 1.370 . S
C2747 C2748 1.403 . S
C2748 C2747 1.403 . S
C2748 C2749 1.404 . S
C2748 C2751 1.539 . S
C2749 C2745 1.408 . S
C2749 C2748 1.404 . S
C2749 H2761 0.930 . S
C2750 C2746 1.524 . S
C2750 H2762 0.956 . S
C2750 H2763 0.961 . S
C2750 H2764 0.961 . S
C2751 C2748 1.539 . S
C2751 H2765 0.958 . S
C2751 H2766 0.961 . S
C2751 H2767 0.960 . S
H2752 C2736 0.931 . S
H2753 C2741 0.929 . S
H2754 C2742 0.960 . S
H2755 C2742 0.962 . S
H2756 C2742 0.960 . S
H2757 C2743 0.961 . S
H2758 C2743 0.961 . S
H2759 C2743 0.961 . S
H2760 C2744 0.931 . S
H2761 C2749 0.930 . S
H2762 C2750 0.956 . S
H2763 C2750 0.961 . S
H2764 C2750 0.961 . S
H2765 C2751 0.958 . S
H2766 C2751 0.961 . S
H2767 C2751 0.960 . S
C2768 C2769 1.391 . S
C2768 C2770 1.394 . S
C2768 H2784 0.931 . S
C2769 C2768 1.391 . S
C2769 C2773 1.376 . S
C2770 C2768 1.394 . S
C2770 C2771 1.369 . S
C2770 C2774 1.531 . S
C2771 C2770 1.369 . S
C2771 C2772 1.410 . S
C2771 C2779 1.503 . S
C2772 C2771 1.410 . S
C2772 C2773 1.392 . S
C2772 C2775 1.511 . S
C2773 C2769 1.376 . S
C2773 C2772 1.392 . S
C2773 H2785 0.929 . S
C2774 C2770 1.531 . S
C2774 H2786 0.960 . S
C2774 H2787 0.962 . S
C2774 H2788 0.960 . S
C2775 C2772 1.511 . S
C2775 H2789 0.961 . S
C2775 H2790 0.961 . S
C2775 H2791 0.961 . S
C2776 C2777 1.370 . S
C2776 C2778 1.363 . S
C2776 H2792 0.931 . S
C2777 C2776 1.370 . S
C2777 C2781 1.408 . S
C2778 C2776 1.363 . S
C2778 C2779 1.370 . S
C2778 C2782 1.524 . S
C2779 C2771 1.503 . S
C2779 C2778 1.370 . S
C2779 C2780 1.403 . S
C2780 C2779 1.403 . S
C2780 C2781 1.404 . S
C2780 C2783 1.539 . S
C2781 C2777 1.408 . S
C2781 C2780 1.404 . S
C2781 H2793 0.930 . S
C2782 C2778 1.524 . S
C2782 H2794 0.956 . S
C2782 H2795 0.961 . S
C2782 H2796 0.961 . S
C2783 C2780 1.539 . S
C2783 H2797 0.958 . S
C2783 H2798 0.961 . S
C2783 H2799 0.960 . S
H2784 C2768 0.931 . S
H2785 C2773 0.929 . S
H2786 C2774 0.960 . S
H2787 C2774 0.962 . S
H2788 C2774 0.960 . S
H2789 C2775 0.961 . S
H2790 C2775 0.961 . S
H2791 C2775 0.961 . S
H2792 C2776 0.931 . S
H2793 C2781 0.930 . S
H2794 C2782 0.956 . S
H2795 C2782 0.961 . S
H2796 C2782 0.961 . S
H2797 C2783 0.958 . S
H2798 C2783 0.961 . S
H2799 C2783 0.960 . S
C2800 C2801 1.391 . S
C2800 C2802 1.394 . S
C2800 H2816 0.931 . S
C2801 C2800 1.391 . S
C2801 C2805 1.376 . S
C2802 C2800 1.394 . S
C2802 C2803 1.369 . S
C2802 C2806 1.531 . S
C2803 C2802 1.369 . S
C2803 C2804 1.410 . S
C2803 C2811 1.503 . S
C2804 C2803 1.410 . S
C2804 C2805 1.392 . S
C2804 C2807 1.511 . S
C2805 C2801 1.376 . S
C2805 C2804 1.392 . S
C2805 H2817 0.929 . S
C2806 C2802 1.531 . S
C2806 H2818 0.960 . S
C2806 H2819 0.962 . S
C2806 H2820 0.960 . S
C2807 C2804 1.511 . S
C2807 H2821 0.961 . S
C2807 H2822 0.961 . S
C2807 H2823 0.961 . S
C2808 C2809 1.370 . S
C2808 C2810 1.363 . S
C2808 H2824 0.931 . S
C2809 C2808 1.370 . S
C2809 C2813 1.408 . S
C2810 C2808 1.363 . S
C2810 C2811 1.370 . S
C2810 C2814 1.524 . S
C2811 C2803 1.503 . S
C2811 C2810 1.370 . S
C2811 C2812 1.403 . S
C2812 C2811 1.403 . S
C2812 C2813 1.404 . S
C2812 C2815 1.539 . S
C2813 C2809 1.408 . S
C2813 C2812 1.404 . S
C2813 H2825 0.930 . S
C2814 C2810 1.524 . S
C2814 H2826 0.956 . S
C2814 H2827 0.961 . S
C2814 H2828 0.961 . S
C2815 C2812 1.539 . S
C2815 H2829 0.958 . S
C2815 H2830 0.961 . S
C2815 H2831 0.960 . S
H2816 C2800 0.931 . S
H2817 C2805 0.929 . S
H2818 C2806 0.960 . S
H2819 C2806 0.962 . S
H2820 C2806 0.960 . S
H2821 C2807 0.961 . S
H2822 C2807 0.961 . S
H2823 C2807 0.961 . S
H2824 C2808 0.931 . S
H2825 C2813 0.930 . S
H2826 C2814 0.956 . S
H2827 C2814 0.961 . S
H2828 C2814 0.961 . S
H2829 C2815 0.958 . S
H2830 C2815 0.961 . S
H2831 C2815 0.960 . S
C2832 C2833 1.391 . S
C2832 C2834 1.394 . S
C2832 H2848 0.931 . S
C2833 C2832 1.391 . S
C2833 C2837 1.376 . S
C2834 C2832 1.394 . S
C2834 C2835 1.369 . S
C2834 C2838 1.531 . S
C2835 C2834 1.369 . S
C2835 C2836 1.410 . S
C2835 C2843 1.503 . S
C2836 C2835 1.410 . S
C2836 C2837 1.392 . S
C2836 C2839 1.511 . S
C2837 C2833 1.376 . S
C2837 C2836 1.392 . S
C2837 H2849 0.929 . S
C2838 C2834 1.531 . S
C2838 H2850 0.960 . S
C2838 H2851 0.962 . S
C2838 H2852 0.960 . S
C2839 C2836 1.511 . S
C2839 H2853 0.961 . S
C2839 H2854 0.961 . S
C2839 H2855 0.961 . S
C2840 C2841 1.370 . S
C2840 C2842 1.363 . S
C2840 H2856 0.931 . S
C2841 C2840 1.370 . S
C2841 C2845 1.408 . S
C2842 C2840 1.363 . S
C2842 C2843 1.370 . S
C2842 C2846 1.524 . S
C2843 C2835 1.503 . S
C2843 C2842 1.370 . S
C2843 C2844 1.403 . S
C2844 C2843 1.403 . S
C2844 C2845 1.404 . S
C2844 C2847 1.539 . S
C2845 C2841 1.408 . S
C2845 C2844 1.404 . S
C2845 H2857 0.930 . S
C2846 C2842 1.524 . S
C2846 H2858 0.956 . S
C2846 H2859 0.961 . S
C2846 H2860 0.961 . S
C2847 C2844 1.539 . S
C2847 H2861 0.958 . S
C2847 H2862 0.961 . S
C2847 H2863 0.960 . S
H2848 C2832 0.931 . S
H2849 C2837 0.929 . S
H2850 C2838 0.960 . S
H2851 C2838 0.962 . S
H2852 C2838 0.960 . S
H2853 C2839 0.961 . S
H2854 C2839 0.961 . S
H2855 C2839 0.961 . S
H2856 C2840 0.931 . S
H2857 C2845 0.930 . S
H2858 C2846 0.956 . S
H2859 C2846 0.961 . S
H2860 C2846 0.961 . S
H2861 C2847 0.958 . S
H2862 C2847 0.961 . S
H2863 C2847 0.960 . S
C2864 C2865 1.391 . S
C2864 C2866 1.394 . S
C2864 H2880 0.931 . S
C2865 C2864 1.391 . S
C2865 C2869 1.376 . S
C2866 C2864 1.394 . S
C2866 C2867 1.369 . S
C2866 C2870 1.531 . S
C2867 C2866 1.369 . S
C2867 C2868 1.410 . S
C2867 C2875 1.503 . S
C2868 C2867 1.410 . S
C2868 C2869 1.392 . S
C2868 C2871 1.511 . S
C2869 C2865 1.376 . S
C2869 C2868 1.392 . S
C2869 H2881 0.929 . S
C2870 C2866 1.531 . S
C2870 H2882 0.960 . S
C2870 H2883 0.962 . S
C2870 H2884 0.960 . S
C2871 C2868 1.511 . S
C2871 H2885 0.961 . S
C2871 H2886 0.961 . S
C2871 H2887 0.961 . S
C2872 C2873 1.370 . S
C2872 C2874 1.363 . S
C2872 H2888 0.931 . S
C2873 C2872 1.370 . S
C2873 C2877 1.408 . S
C2874 C2872 1.363 . S
C2874 C2875 1.370 . S
C2874 C2878 1.524 . S
C2875 C2867 1.503 . S
C2875 C2874 1.370 . S
C2875 C2876 1.403 . S
C2876 C2875 1.403 . S
C2876 C2877 1.404 . S
C2876 C2879 1.539 . S
C2877 C2873 1.408 . S
C2877 C2876 1.404 . S
C2877 H2889 0.930 . S
C2878 C2874 1.524 . S
C2878 H2890 0.956 . S
C2878 H2891 0.961 . S
C2878 H2892 0.961 . S
C2879 C2876 1.539 . S
C2879 H2893 0.958 . S
C2879 H2894 0.961 . S
C2879 H2895 0.960 . S
H2880 C2864 0.931 . S
H2881 C2869 0.929 . S
H2882 C2870 0.960 . S
H2883 C2870 0.962 . S
H2884 C2870 0.960 . S
H2885 C2871 0.961 . S
H2886 C2871 0.961 . S
H2887 C2871 0.961 . S
H2888 C2872 0.931 . S
H2889 C2877 0.930 . S
H2890 C2878 0.956 . S
H2891 C2878 0.961 . S
H2892 C2878 0.961 . S
H2893 C2879 0.958 . S
H2894 C2879 0.961 . S
H2895 C2879 0.960 . S
C2896 C2897 1.391 . S
C2896 C2898 1.394 . S
C2896 H2912 0.931 . S
C2897 C2896 1.391 . S
C2897 C2901 1.376 . S
C2898 C2896 1.394 . S
C2898 C2899 1.369 . S
C2898 C2902 1.531 . S
C2899 C2898 1.369 . S
C2899 C2900 1.410 . S
C2899 C2907 1.503 . S
C2900 C2899 1.410 . S
C2900 C2901 1.392 . S
C2900 C2903 1.511 . S
C2901 C2897 1.376 . S
C2901 C2900 1.392 . S
C2901 H2913 0.929 . S
C2902 C2898 1.531 . S
C2902 H2914 0.960 . S
C2902 H2915 0.962 . S
C2902 H2916 0.960 . S
C2903 C2900 1.511 . S
C2903 H2917 0.961 . S
C2903 H2918 0.961 . S
C2903 H2919 0.961 . S
C2904 C2905 1.370 . S
C2904 C2906 1.363 . S
C2904 H2920 0.931 . S
C2905 C2904 1.370 . S
C2905 C2909 1.408 . S
C2906 C2904 1.363 . S
C2906 C2907 1.370 . S
C2906 C2910 1.524 . S
C2907 C2899 1.503 . S
C2907 C2906 1.370 . S
C2907 C2908 1.403 . S
C2908 C2907 1.403 . S
C2908 C2909 1.404 . S
C2908 C2911 1.539 . S
C2909 C2905 1.408 . S
C2909 C2908 1.404 . S
C2909 H2921 0.930 . S
C2910 C2906 1.524 . S
C2910 H2922 0.956 . S
C2910 H2923 0.961 . S
C2910 H2924 0.961 . S
C2911 C2908 1.539 . S
C2911 H2925 0.958 . S
C2911 H2926 0.961 . S
C2911 H2927 0.960 . S
H2912 C2896 0.931 . S
H2913 C2901 0.929 . S
H2914 C2902 0.960 . S
H2915 C2902 0.962 . S
H2916 C2902 0.960 . S
H2917 C2903 0.961 . S
H2918 C2903 0.961 . S
H2919 C2903 0.961 . S
H2920 C2904 0.931 . S
H2921 C2909 0.930 . S
H2922 C2910 0.956 . S
H2923 C2910 0.961 . S
H2924 C2910 0.961 . S
H2925 C2911 0.958 . S
H2926 C2911 0.961 . S
H2927 C2911 0.960 . S
C2928 C2929 1.391 . S
C2928 C2930 1.394 . S
C2928 H2944 0.931 . S
C2929 C2928 1.391 . S
C2929 C2933 1.376 . S
C2930 C2928 1.394 . S
C2930 C2931 1.369 . S
C2930 C2934 1.531 . S
C2931 C2930 1.369 . S
C2931 C2932 1.410 . S
C2931 C2939 1.503 . S
C2932 C2931 1.410 . S
C2932 C2933 1.392 . S
C2932 C2935 1.511 . S
C2933 C2929 1.376 . S
C2933 C2932 1.392 . S
C2933 H2945 0.929 . S
C2934 C2930 1.531 . S
C2934 H2946 0.960 . S
C2934 H2947 0.962 . S
C2934 H2948 0.960 . S
C2935 C2932 1.511 . S
C2935 H2949 0.961 . S
C2935 H2950 0.961 . S
C2935 H2951 0.961 . S
C2936 C2937 1.370 . S
C2936 C2938 1.363 . S
C2936 H2952 0.931 . S
C2937 C2936 1.370 . S
C2937 C2941 1.408 . S
C2938 C2936 1.363 . S
C2938 C2939 1.370 . S
C2938 C2942 1.524 . S
C2939 C2931 1.503 . S
C2939 C2938 1.370 . S
C2939 C2940 1.403 . S
C2940 C2939 1.403 . S
C2940 C2941 1.404 . S
C2940 C2943 1.539 . S
C2941 C2937 1.408 . S
C2941 C2940 1.404 . S
C2941 H2953 0.930 . S
C2942 C2938 1.524 . S
C2942 H2954 0.956 . S
C2942 H2955 0.961 . S
C2942 H2956 0.961 . S
C2943 C2940 1.539 . S
C2943 H2957 0.958 . S
C2943 H2958 0.961 . S
C2943 H2959 0.960 . S
H2944 C2928 0.931 . S
H2945 C2933 0.929 . S
H2946 C2934 0.960 . S
H2947 C2934 0.962 . S
H2948 C2934 0.960 . S
H2949 C2935 0.961 . S
H2950 C2935 0.961 . S
H2951 C2935 0.961 . S
H2952 C2936 0.931 . S
H2953 C2941 0.930 . S
H2954 C2942 0.956 . S
H2955 C2942 0.961 . S
H2956 C2942 0.961 . S
H2957 C2943 0.958 . S
H2958 C2943 0.961 . S
H2959 C2943 0.960 . S
C2960 C2961 1.391 . S
C2960 C2962 1.394 . S
C2960 H2976 0.931 . S
C2961 C2960 1.391 . S
C2961 C2965 1.376 . S
C2962 C2960 1.394 . S
C2962 C2963 1.369 . S
C2962 C2966 1.531 . S
C2963 C2962 1.369 . S
C2963 C2964 1.410 . S
C2963 C2971 1.503 . S
C2964 C2963 1.410 . S
C2964 C2965 1.392 . S
C2964 C2967 1.511 . S
C2965 C2961 1.376 . S
C2965 C2964 1.392 . S
C2965 H2977 0.929 . S
C2966 C2962 1.531 . S
C2966 H2978 0.960 . S
C2966 H2979 0.962 . S
C2966 H2980 0.960 . S
C2967 C2964 1.511 . S
C2967 H2981 0.961 . S
C2967 H2982 0.961 . S
C2967 H2983 0.961 . S
C2968 C2969 1.370 . S
C2968 C2970 1.363 . S
C2968 H2984 0.931 . S
C2969 C2968 1.370 . S
C2969 C2973 1.408 . S
C2970 C2968 1.363 . S
C2970 C2971 1.370 . S
C2970 C2974 1.524 . S
C2971 C2963 1.503 . S
C2971 C2970 1.370 . S
C2971 C2972 1.403 . S
C2972 C2971 1.403 . S
C2972 C2973 1.404 . S
C2972 C2975 1.539 . S
C2973 C2969 1.408 . S
C2973 C2972 1.404 . S
C2973 H2985 0.930 . S
C2974 C2970 1.524 . S
C2974 H2986 0.956 . S
C2974 H2987 0.961 . S
C2974 H2988 0.961 . S
C2975 C2972 1.539 . S
C2975 H2989 0.958 . S
C2975 H2990 0.961 . S
C2975 H2991 0.960 . S
H2976 C2960 0.931 . S
H2977 C2965 0.929 . S
H2978 C2966 0.960 . S
H2979 C2966 0.962 . S
H2980 C2966 0.960 . S
H2981 C2967 0.961 . S
H2982 C2967 0.961 . S
H2983 C2967 0.961 . S
H2984 C2968 0.931 . S
H2985 C2973 0.930 . S
H2986 C2974 0.956 . S
H2987 C2974 0.961 . S
H2988 C2974 0.961 . S
H2989 C2975 0.958 . S
H2990 C2975 0.961 . S
H2991 C2975 0.960 . S
C2992 C2993 1.391 . S
C2992 C2994 1.394 . S
C2992 H3008 0.931 . S
C2993 C2992 1.391 . S
C2993 C2997 1.376 . S
C2994 C2992 1.394 . S
C2994 C2995 1.369 . S
C2994 C2998 1.531 . S
C2995 C2994 1.369 . S
C2995 C2996 1.410 . S
C2995 C3003 1.503 . S
C2996 C2995 1.410 . S
C2996 C2997 1.392 . S
C2996 C2999 1.511 . S
C2997 C2993 1.376 . S
C2997 C2996 1.392 . S
C2997 H3009 0.929 . S
C2998 C2994 1.531 . S
C2998 H3010 0.960 . S
C2998 H3011 0.962 . S
C2998 H3012 0.960 . S
C2999 C2996 1.511 . S
C2999 H3013 0.961 . S
C2999 H3014 0.961 . S
C2999 H3015 0.961 . S
C3000 C3001 1.370 . S
C3000 C3002 1.363 . S
C3000 H3016 0.931 . S
C3001 C3000 1.370 . S
C3001 C3005 1.408 . S
C3002 C3000 1.363 . S
C3002 C3003 1.370 . S
C3002 C3006 1.524 . S
C3003 C2995 1.503 . S
C3003 C3002 1.370 . S
C3003 C3004 1.403 . S
C3004 C3003 1.403 . S
C3004 C3005 1.404 . S
C3004 C3007 1.539 . S
C3005 C3001 1.408 . S
C3005 C3004 1.404 . S
C3005 H3017 0.930 . S
C3006 C3002 1.524 . S
C3006 H3018 0.956 . S
C3006 H3019 0.961 . S
C3006 H3020 0.961 . S
C3007 C3004 1.539 . S
C3007 H3021 0.958 . S
C3007 H3022 0.961 . S
C3007 H3023 0.960 . S
H3008 C2992 0.931 . S
H3009 C2997 0.929 . S
H3010 C2998 0.960 . S
H3011 C2998 0.962 . S
H3012 C2998 0.960 . S
H3013 C2999 0.961 . S
H3014 C2999 0.961 . S
H3015 C2999 0.961 . S
H3016 C3000 0.931 . S
H3017 C3005 0.930 . S
H3018 C3006 0.956 . S
H3019 C3006 0.961 . S
H3020 C3006 0.961 . S
H3021 C3007 0.958 . S
H3022 C3007 0.961 . S
H3023 C3007 0.960 . S
C3024 C3025 1.391 . S
C3024 C3026 1.394 . S
C3024 H3040 0.931 . S
C3025 C3024 1.391 . S
C3025 C3029 1.376 . S
C3026 C3024 1.394 . S
C3026 C3027 1.369 . S
C3026 C3030 1.531 . S
C3027 C3026 1.369 . S
C3027 C3028 1.410 . S
C3027 C3035 1.503 . S
C3028 C3027 1.410 . S
C3028 C3029 1.392 . S
C3028 C3031 1.511 . S
C3029 C3025 1.376 . S
C3029 C3028 1.392 . S
C3029 H3041 0.929 . S
C3030 C3026 1.531 . S
C3030 H3042 0.960 . S
C3030 H3043 0.962 . S
C3030 H3044 0.960 . S
C3031 C3028 1.511 . S
C3031 H3045 0.961 . S
C3031 H3046 0.961 . S
C3031 H3047 0.961 . S
C3032 C3033 1.370 . S
C3032 C3034 1.363 . S
C3032 H3048 0.931 . S
C3033 C3032 1.370 . S
C3033 C3037 1.408 . S
C3034 C3032 1.363 . S
C3034 C3035 1.370 . S
C3034 C3038 1.524 . S
C3035 C3027 1.503 . S
C3035 C3034 1.370 . S
C3035 C3036 1.403 . S
C3036 C3035 1.403 . S
C3036 C3037 1.404 . S
C3036 C3039 1.539 . S
C3037 C3033 1.408 . S
C3037 C3036 1.404 . S
C3037 H3049 0.930 . S
C3038 C3034 1.524 . S
C3038 H3050 0.956 . S
C3038 H3051 0.961 . S
C3038 H3052 0.961 . S
C3039 C3036 1.539 . S
C3039 H3053 0.958 . S
C3039 H3054 0.961 . S
C3039 H3055 0.960 . S
H3040 C3024 0.931 . S
H3041 C3029 0.929 . S
H3042 C3030 0.960 . S
H3043 C3030 0.962 . S
H3044 C3030 0.960 . S
H3045 C3031 0.961 . S
H3046 C3031 0.961 . S
H3047 C3031 0.961 . S
H3048 C3032 0.931 . S
H3049 C3037 0.930 . S
H3050 C3038 0.956 . S
H3051 C3038 0.961 . S
H3052 C3038 0.961 . S
H3053 C3039 0.958 . S
H3054 C3039 0.961 . S
H3055 C3039 0.960 . S
C3056 C3057 1.391 . S
C3056 C3058 1.394 . S
C3056 H3072 0.931 . S
C3057 C3056 1.391 . S
C3057 C3061 1.376 . S
C3058 C3056 1.394 . S
C3058 C3059 1.369 . S
C3058 C3062 1.531 . S
C3059 C3058 1.369 . S
C3059 C3060 1.410 . S
C3059 C3067 1.503 . S
C3060 C3059 1.410 . S
C3060 C3061 1.392 . S
C3060 C3063 1.511 . S
C3061 C3057 1.376 . S
C3061 C3060 1.392 . S
C3061 H3073 0.929 . S
C3062 C3058 1.531 . S
C3062 H3074 0.960 . S
C3062 H3075 0.962 . S
C3062 H3076 0.960 . S
C3063 C3060 1.511 . S
C3063 H3077 0.961 . S
C3063 H3078 0.961 . S
C3063 H3079 0.961 . S
C3064 C3065 1.370 . S
C3064 C3066 1.363 . S
C3064 H3080 0.931 . S
C3065 C3064 1.370 . S
C3065 C3069 1.408 . S
C3066 C3064 1.363 . S
C3066 C3067 1.370 . S
C3066 C3070 1.524 . S
C3067 C3059 1.503 . S
C3067 C3066 1.370 . S
C3067 C3068 1.403 . S
C3068 C3067 1.403 . S
C3068 C3069 1.404 . S
C3068 C3071 1.539 . S
C3069 C3065 1.408 . S
C3069 C3068 1.404 . S
C3069 H3081 0.930 . S
C3070 C3066 1.524 . S
C3070 H3082 0.956 . S
C3070 H3083 0.961 . S
C3070 H3084 0.961 . S
C3071 C3068 1.539 . S
C3071 H3085 0.958 . S
C3071 H3086 0.961 . S
C3071 H3087 0.960 . S
H3072 C3056 0.931 . S
H3073 C3061 0.929 . S
H3074 C3062 0.960 . S
H3075 C3062 0.962 . S
H3076 C3062 0.960 . S
H3077 C3063 0.961 . S
H3078 C3063 0.961 . S
H3079 C3063 0.961 . S
H3080 C3064 0.931 . S
H3081 C3069 0.930 . S
H3082 C3070 0.956 . S
H3083 C3070 0.961 . S
H3084 C3070 0.961 . S
H3085 C3071 0.958 . S
H3086 C3071 0.961 . S
H3087 C3071 0.960 . S
C3088 C3089 1.391 . S
C3088 C3090 1.394 1_545 S
C3088 H3104 0.931 . S
C3089 C3088 1.391 . S
C3089 C3093 1.376 . S
C3090 C3088 1.394 1_565 S
C3090 C3091 1.369 . S
C3090 C3094 1.531 . S
C3091 C3090 1.369 . S
C3091 C3092 1.410 . S
C3091 C3099 1.503 . S
C3092 C3091 1.410 . S
C3092 C3093 1.392 1_565 S
C3092 C3095 1.511 . S
C3093 C3089 1.376 . S
C3093 C3092 1.392 1_545 S
C3093 H3105 0.929 . S
C3094 C3090 1.531 . S
C3094 H3106 0.960 . S
C3094 H3107 0.962 . S
C3094 H3108 0.960 . S
C3095 C3092 1.511 . S
C3095 H3109 0.961 . S
C3095 H3110 0.961 . S
C3095 H3111 0.961 . S
C3096 C3097 1.370 . S
C3096 C3098 1.363 . S
C3096 H3112 0.931 . S
C3097 C3096 1.370 . S
C3097 C3101 1.408 . S
C3098 C3096 1.363 . S
C3098 C3099 1.370 . S
C3098 C3102 1.524 . S
C3099 C3091 1.503 . S
C3099 C3098 1.370 . S
C3099 C3100 1.403 . S
C3100 C3099 1.403 . S
C3100 C3101 1.404 . S
C3100 C3103 1.539 . S
C3101 C3097 1.408 . S
C3101 C3100 1.404 . S
C3101 H3113 0.930 . S
C3102 C3098 1.524 . S
C3102 H3114 0.956 . S
C3102 H3115 0.961 . S
C3102 H3116 0.961 . S
C3103 C3100 1.539 . S
C3103 H3117 0.958 . S
C3103 H3118 0.961 . S
C3103 H3119 0.960 . S
H3104 C3088 0.931 . S
H3105 C3093 0.929 . S
H3106 C3094 0.960 . S
H3107 C3094 0.962 . S
H3108 C3094 0.960 . S
H3109 C3095 0.961 . S
H3110 C3095 0.961 . S
H3111 C3095 0.961 . S
H3112 C3096 0.931 . S
H3113 C3101 0.930 . S
H3114 C3102 0.956 . S
H3115 C3102 0.961 . S
H3116 C3102 0.961 . S
H3117 C3103 0.958 . S
H3118 C3103 0.961 . S
H3119 C3103 0.960 . S
C3120 C3121 1.391 . S
C3120 C3122 1.394 . S
C3120 H3136 0.931 . S
C3121 C3120 1.391 . S
C3121 C3125 1.376 . S
C3122 C3120 1.394 . S
C3122 C3123 1.369 . S
C3122 C3126 1.545 . S
C3123 C3122 1.369 . S
C3123 C3124 1.410 . S
C3123 C3131 1.503 . S
C3124 C3123 1.410 . S
C3124 C3125 1.392 . S
C3124 C3127 1.511 . S
C3125 C3121 1.376 . S
C3125 C3124 1.392 . S
C3125 H3137 0.929 . S
C3126 C3122 1.545 . S
C3126 H3138 0.959 . S
C3126 H3139 0.954 1_554 S
C3126 H3140 0.955 1_554 S
C3127 C3124 1.511 . S
C3127 H3141 0.961 . S
C3127 H3142 0.961 . S
C3127 H3143 0.961 . S
C3128 C3129 1.370 1_565 S
C3128 C3130 1.363 . S
C3128 H3144 0.931 . S
C3129 C3128 1.370 1_545 S
C3129 C3133 1.408 . S
C3130 C3128 1.363 . S
C3130 C3131 1.370 . S
C3130 C3134 1.524 . S
C3131 C3123 1.503 . S
C3131 C3130 1.370 . S
C3131 C3132 1.403 . S
C3132 C3131 1.403 . S
C3132 C3133 1.404 1_565 S
C3132 C3135 1.539 1_565 S
C3133 C3129 1.408 . S
C3133 C3132 1.404 1_545 S
C3133 H3145 0.930 . S
C3134 C3130 1.524 . S
C3134 H3146 0.956 . S
C3134 H3147 0.961 . S
C3134 H3148 0.961 . S
C3135 C3132 1.539 1_545 S
C3135 H3149 0.958 . S
C3135 H3150 0.961 . S
C3135 H3151 0.960 1_545 S
H3136 C3120 0.931 . S
H3137 C3125 0.929 . S
H3138 C3126 0.959 . S
H3139 C3126 0.954 1_556 S
H3140 C3126 0.955 1_556 S
H3141 C3127 0.961 . S
H3142 C3127 0.961 . S
H3143 C3127 0.961 . S
H3144 C3128 0.931 . S
H3145 C3133 0.930 . S
H3146 C3134 0.956 . S
H3147 C3134 0.961 . S
H3148 C3134 0.961 . S
H3149 C3135 0.958 . S
H3150 C3135 0.961 . S
H3151 C3135 0.960 1_565 S
C3152 C3153 1.391 . S
C3152 C3154 1.394 . S
C3152 H3168 0.931 . S
C3153 C3152 1.391 . S
C3153 C3157 1.376 . S
C3154 C3152 1.394 . S
C3154 C3155 1.369 . S
C3154 C3158 1.531 . S
C3155 C3154 1.369 . S
C3155 C3156 1.410 . S
C3155 C3163 1.503 . S
C3156 C3155 1.410 . S
C3156 C3157 1.392 . S
C3156 C3159 1.511 . S
C3157 C3153 1.376 . S
C3157 C3156 1.392 . S
C3157 H3169 0.929 . S
C3158 C3154 1.531 . S
C3158 H3170 0.960 . S
C3158 H3171 0.962 . S
C3158 H3172 0.960 . S
C3159 C3156 1.511 . S
C3159 H3173 0.961 . S
C3159 H3174 0.961 . S
C3159 H3175 0.961 . S
C3160 C3161 1.370 . S
C3160 C3162 1.363 . S
C3160 H3176 0.931 . S
C3161 C3160 1.370 . S
C3161 C3165 1.408 . S
C3162 C3160 1.363 . S
C3162 C3163 1.370 . S
C3162 C3166 1.524 . S
C3163 C3155 1.503 . S
C3163 C3162 1.370 . S
C3163 C3164 1.403 . S
C3164 C3163 1.403 . S
C3164 C3165 1.404 . S
C3164 C3167 1.539 . S
C3165 C3161 1.408 . S
C3165 C3164 1.404 . S
C3165 H3177 0.930 . S
C3166 C3162 1.524 . S
C3166 H3178 0.956 . S
C3166 H3179 0.961 . S
C3166 H3180 0.961 . S
C3167 C3164 1.539 . S
C3167 H3181 0.958 . S
C3167 H3182 0.961 . S
C3167 H3183 0.960 . S
H3168 C3152 0.931 . S
H3169 C3157 0.929 . S
H3170 C3158 0.960 . S
H3171 C3158 0.962 . S
H3172 C3158 0.960 . S
H3173 C3159 0.961 . S
H3174 C3159 0.961 . S
H3175 C3159 0.961 . S
H3176 C3160 0.931 . S
H3177 C3165 0.930 . S
H3178 C3166 0.956 . S
H3179 C3166 0.961 . S
H3180 C3166 0.961 . S
H3181 C3167 0.958 . S
H3182 C3167 0.961 . S
H3183 C3167 0.960 . S
C3184 C3185 1.391 . S
C3184 C3186 1.394 . S
C3184 H3200 0.931 . S
C3185 C3184 1.391 . S
C3185 C3189 1.376 . S
C3186 C3184 1.394 . S
C3186 C3187 1.369 . S
C3186 C3190 1.531 . S
C3187 C3186 1.369 . S
C3187 C3188 1.410 . S
C3187 C3195 1.503 . S
C3188 C3187 1.410 . S
C3188 C3189 1.392 . S
C3188 C3191 1.511 . S
C3189 C3185 1.376 . S
C3189 C3188 1.392 . S
C3189 H3201 0.929 . S
C3190 C3186 1.531 . S
C3190 H3202 0.960 . S
C3190 H3203 0.962 . S
C3190 H3204 0.960 . S
C3191 C3188 1.511 . S
C3191 H3205 0.961 1_554 S
C3191 H3206 0.961 . S
C3191 H3207 0.961 . S
C3192 C3193 1.370 . S
C3192 C3194 1.363 . S
C3192 H3208 0.931 1_554 S
C3193 C3192 1.370 . S
C3193 C3197 1.408 . S
C3194 C3192 1.363 . S
C3194 C3195 1.370 . S
C3194 C3198 1.524 1_554 S
C3195 C3187 1.503 . S
C3195 C3194 1.370 . S
C3195 C3196 1.403 . S
C3196 C3195 1.403 . S
C3196 C3197 1.404 . S
C3196 C3199 1.539 . S
C3197 C3193 1.408 . S
C3197 C3196 1.404 . S
C3197 H3209 0.930 . S
C3198 C3194 1.524 1_556 S
C3198 H3210 0.956 . S
C3198 H3211 0.961 . S
C3198 H3212 0.961 . S
C3199 C3196 1.539 . S
C3199 H3213 0.958 . S
C3199 H3214 0.961 . S
C3199 H3215 0.960 . S
H3200 C3184 0.931 . S
H3201 C3189 0.929 . S
H3202 C3190 0.960 . S
H3203 C3190 0.962 . S
H3204 C3190 0.960 . S
H3205 C3191 0.961 1_556 S
H3206 C3191 0.961 . S
H3207 C3191 0.961 . S
H3208 C3192 0.931 1_556 S
H3209 C3197 0.930 . S
H3210 C3198 0.956 . S
H3211 C3198 0.961 . S
H3212 C3198 0.961 . S
H3213 C3199 0.958 . S
H3214 C3199 0.961 . S
H3215 C3199 0.960 . S
C3216 C3217 1.391 . S
C3216 C3218 1.394 . S
C3216 H3232 0.931 . S
C3217 C3216 1.391 . S
C3217 C3221 1.376 . S
C3218 C3216 1.394 . S
C3218 C3219 1.369 . S
C3218 C3222 1.531 . S
C3219 C3218 1.369 . S
C3219 C3220 1.410 . S
C3219 C3227 1.503 . S
C3220 C3219 1.410 . S
C3220 C3221 1.392 . S
C3220 C3223 1.511 . S
C3221 C3217 1.376 . S
C3221 C3220 1.392 . S
C3221 H3233 0.929 . S
C3222 C3218 1.531 . S
C3222 H3234 0.960 . S
C3222 H3235 0.962 . S
C3222 H3236 0.960 . S
C3223 C3220 1.511 . S
C3223 H3237 0.961 . S
C3223 H3238 0.961 . S
C3223 H3239 0.961 . S
C3224 C3225 1.370 . S
C3224 C3226 1.363 . S
C3224 H3240 0.931 . S
C3225 C3224 1.370 . S
C3225 C3229 1.408 . S
C3226 C3224 1.363 . S
C3226 C3227 1.370 . S
C3226 C3230 1.524 . S
C3227 C3219 1.503 . S
C3227 C3226 1.370 . S
C3227 C3228 1.403 . S
C3228 C3227 1.403 . S
C3228 C3229 1.404 . S
C3228 C3231 1.539 . S
C3229 C3225 1.408 . S
C3229 C3228 1.404 . S
C3229 H3241 0.930 . S
C3230 C3226 1.524 . S
C3230 H3242 0.956 . S
C3230 H3243 0.961 . S
C3230 H3244 0.961 . S
C3231 C3228 1.539 . S
C3231 H3245 0.958 . S
C3231 H3246 0.961 . S
C3231 H3247 0.960 . S
H3232 C3216 0.931 . S
H3233 C3221 0.929 . S
H3234 C3222 0.960 . S
H3235 C3222 0.962 . S
H3236 C3222 0.960 . S
H3237 C3223 0.961 . S
H3238 C3223 0.961 . S
H3239 C3223 0.961 . S
H3240 C3224 0.931 . S
H3241 C3229 0.930 . S
H3242 C3230 0.956 . S
H3243 C3230 0.961 . S
H3244 C3230 0.961 . S
H3245 C3231 0.958 . S
H3246 C3231 0.961 . S
H3247 C3231 0.960 . S
C3248 C3249 1.391 . S
C3248 C3250 1.394 1_545 S
C3248 H3264 0.931 . S
C3249 C3248 1.391 . S
C3249 C3253 1.376 . S
C3250 C3248 1.394 1_565 S
C3250 C3251 1.369 . S
C3250 C3254 1.531 . S
C3251 C3250 1.369 . S
C3251 C3252 1.410 1_565 S
C3251 C3259 1.503 . S
C3252 C3251 1.410 1_545 S
C3252 C3253 1.392 . S
C3252 C3255 1.511 . S
C3253 C3249 1.376 . S
C3253 C3252 1.392 . S
C3253 H3265 0.929 . S
C3254 C3250 1.531 . S
C3254 H3266 0.960 . S
C3254 H3267 0.962 . S
C3254 H3268 0.960 . S
C3255 C3252 1.511 . S
C3255 H3269 0.961 . S
C3255 H3270 0.961 1_545 S
C3255 H3271 0.961 . S
C3256 C3257 1.370 . S
C3256 C3258 1.363 . S
C3256 H3272 0.931 . S
C3257 C3256 1.370 . S
C3257 C3261 1.408 . S
C3258 C3256 1.363 . S
C3258 C3259 1.370 . S
C3258 C3262 1.524 . S
C3259 C3251 1.503 . S
C3259 C3258 1.370 . S
C3259 C3260 1.403 . S
C3260 C3259 1.403 . S
C3260 C3261 1.404 . S
C3260 C3263 1.539 . S
C3261 C3257 1.408 . S
C3261 C3260 1.404 . S
C3261 H3273 0.930 . S
C3262 C3258 1.524 . S
C3262 H3274 0.956 . S
C3262 H3275 0.961 . S
C3262 H3276 0.961 . S
C3263 C3260 1.539 . S
C3263 H3277 0.958 . S
C3263 H3278 0.961 . S
C3263 H3279 0.960 . S
H3264 C3248 0.931 . S
H3265 C3253 0.929 . S
H3266 C3254 0.960 . S
H3267 C3254 0.962 . S
H3268 C3254 0.960 . S
H3269 C3255 0.961 . S
H3270 C3255 0.961 1_565 S
H3271 C3255 0.961 . S
H3272 C3256 0.931 . S
H3273 C3261 0.930 . S
H3274 C3262 0.956 . S
H3275 C3262 0.961 . S
H3276 C3262 0.961 . S
H3277 C3263 0.958 . S
H3278 C3263 0.961 . S
H3279 C3263 0.960 . S
C3280 C3281 1.391 . S
C3280 C3282 1.394 . S
C3280 H3296 0.931 . S
C3281 C3280 1.391 . S
C3281 C3285 1.376 . S
C3282 C3280 1.394 . S
C3282 C3283 1.369 . S
C3282 C3286 1.531 . S
C3283 C3282 1.369 . S
C3283 C3284 1.410 . S
C3283 C3291 1.503 . S
C3284 C3283 1.410 . S
C3284 C3285 1.392 . S
C3284 C3287 1.511 . S
C3285 C3281 1.376 . S
C3285 C3284 1.392 . S
C3285 H3297 0.929 . S
C3286 C3282 1.531 . S
C3286 H3298 0.960 . S
C3286 H3299 0.962 . S
C3286 H3300 0.960 . S
C3287 C3284 1.511 . S
C3287 H3301 0.961 . S
C3287 H3302 0.961 . S
C3287 H3303 0.961 . S
C3288 C3289 1.370 . S
C3288 C3290 1.363 . S
C3288 H3304 0.931 . S
C3289 C3288 1.370 . S
C3289 C3293 1.408 . S
C3290 C3288 1.363 . S
C3290 C3291 1.370 . S
C3290 C3294 1.524 . S
C3291 C3283 1.503 . S
C3291 C3290 1.370 . S
C3291 C3292 1.403 . S
C3292 C3291 1.403 . S
C3292 C3293 1.404 . S
C3292 C3295 1.539 . S
C3293 C3289 1.408 . S
C3293 C3292 1.404 . S
C3293 H3305 0.930 . S
C3294 C3290 1.524 . S
C3294 H3306 0.956 . S
C3294 H3307 0.961 . S
C3294 H3308 0.961 . S
C3295 C3292 1.539 . S
C3295 H3309 0.958 . S
C3295 H3310 0.961 . S
C3295 H3311 0.960 . S
H3296 C3280 0.931 . S
H3297 C3285 0.929 . S
H3298 C3286 0.960 . S
H3299 C3286 0.962 . S
H3300 C3286 0.960 . S
H3301 C3287 0.961 . S
H3302 C3287 0.961 . S
H3303 C3287 0.961 . S
H3304 C3288 0.931 . S
H3305 C3293 0.930 . S
H3306 C3294 0.956 . S
H3307 C3294 0.961 . S
H3308 C3294 0.961 . S
H3309 C3295 0.958 . S
H3310 C3295 0.961 . S
H3311 C3295 0.960 . S
C3312 C3313 1.391 . S
C3312 C3314 1.394 . S
C3312 H3328 0.931 . S
C3313 C3312 1.391 . S
C3313 C3317 1.376 . S
C3314 C3312 1.394 . S
C3314 C3315 1.369 . S
C3314 C3318 1.531 . S
C3315 C3314 1.369 . S
C3315 C3316 1.410 . S
C3315 C3323 1.503 . S
C3316 C3315 1.410 . S
C3316 C3317 1.392 . S
C3316 C3319 1.511 . S
C3317 C3313 1.376 . S
C3317 C3316 1.392 . S
C3317 H3329 0.929 . S
C3318 C3314 1.531 . S
C3318 H3330 0.960 . S
C3318 H3331 0.962 . S
C3318 H3332 0.960 . S
C3319 C3316 1.511 . S
C3319 H3333 0.961 . S
C3319 H3334 0.961 . S
C3319 H3335 0.961 . S
C3320 C3321 1.370 . S
C3320 C3322 1.363 . S
C3320 H3336 0.931 . S
C3321 C3320 1.370 . S
C3321 C3325 1.408 . S
C3322 C3320 1.363 . S
C3322 C3323 1.370 . S
C3322 C3326 1.524 . S
C3323 C3315 1.503 . S
C3323 C3322 1.370 . S
C3323 C3324 1.403 . S
C3324 C3323 1.403 . S
C3324 C3325 1.404 . S
C3324 C3327 1.539 . S
C3325 C3321 1.408 . S
C3325 C3324 1.404 . S
C3325 H3337 0.930 . S
C3326 C3322 1.524 . S
C3326 H3338 0.956 . S
C3326 H3339 0.961 . S
C3326 H3340 0.961 . S
C3327 C3324 1.539 . S
C3327 H3341 0.958 . S
C3327 H3342 0.961 . S
C3327 H3343 0.960 . S
H3328 C3312 0.931 . S
H3329 C3317 0.929 . S
H3330 C3318 0.960 . S
H3331 C3318 0.962 . S
H3332 C3318 0.960 . S
H3333 C3319 0.961 . S
H3334 C3319 0.961 . S
H3335 C3319 0.961 . S
H3336 C3320 0.931 . S
H3337 C3325 0.930 . S
H3338 C3326 0.956 . S
H3339 C3326 0.961 . S
H3340 C3326 0.961 . S
H3341 C3327 0.958 . S
H3342 C3327 0.961 . S
H3343 C3327 0.960 . S
C3344 C3345 1.391 . S
C3344 C3346 1.394 . S
C3344 H3360 0.931 . S
C3345 C3344 1.391 . S
C3345 C3349 1.376 . S
C3346 C3344 1.394 . S
C3346 C3347 1.369 . S
C3346 C3350 1.531 . S
C3347 C3346 1.369 . S
C3347 C3348 1.410 . S
C3347 C3355 1.503 . S
C3348 C3347 1.410 . S
C3348 C3349 1.392 . S
C3348 C3351 1.511 . S
C3349 C3345 1.376 . S
C3349 C3348 1.392 . S
C3349 H3361 0.929 . S
C3350 C3346 1.531 . S
C3350 H3362 0.960 . S
C3350 H3363 0.962 . S
C3350 H3364 0.960 . S
C3351 C3348 1.511 . S
C3351 H3365 0.961 . S
C3351 H3366 0.961 . S
C3351 H3367 0.961 . S
C3352 C3353 1.370 . S
C3352 C3354 1.363 . S
C3352 H3368 0.931 . S
C3353 C3352 1.370 . S
C3353 C3357 1.408 . S
C3354 C3352 1.363 . S
C3354 C3355 1.370 . S
C3354 C3358 1.524 . S
C3355 C3347 1.503 . S
C3355 C3354 1.370 . S
C3355 C3356 1.403 . S
C3356 C3355 1.403 . S
C3356 C3357 1.404 . S
C3356 C3359 1.539 . S
C3357 C3353 1.408 . S
C3357 C3356 1.404 . S
C3357 H3369 0.930 . S
C3358 C3354 1.524 . S
C3358 H3370 0.956 . S
C3358 H3371 0.961 . S
C3358 H3372 0.961 . S
C3359 C3356 1.539 . S
C3359 H3373 0.958 . S
C3359 H3374 0.961 . S
C3359 H3375 0.960 . S
H3360 C3344 0.931 . S
H3361 C3349 0.929 . S
H3362 C3350 0.960 . S
H3363 C3350 0.962 . S
H3364 C3350 0.960 . S
H3365 C3351 0.961 . S
H3366 C3351 0.961 . S
H3367 C3351 0.961 . S
H3368 C3352 0.931 . S
H3369 C3357 0.930 . S
H3370 C3358 0.956 . S
H3371 C3358 0.961 . S
H3372 C3358 0.961 . S
H3373 C3359 0.958 . S
H3374 C3359 0.961 . S
H3375 C3359 0.960 . S
C3376 C3377 1.391 . S
C3376 C3378 1.394 . S
C3376 H3392 0.931 . S
C3377 C3376 1.391 . S
C3377 C3381 1.376 . S
C3378 C3376 1.394 . S
C3378 C3379 1.369 . S
C3378 C3382 1.531 . S
C3379 C3378 1.369 . S
C3379 C3380 1.410 . S
C3379 C3387 1.503 . S
C3380 C3379 1.410 . S
C3380 C3381 1.392 . S
C3380 C3383 1.511 . S
C3381 C3377 1.376 . S
C3381 C3380 1.392 . S
C3381 H3393 0.929 . S
C3382 C3378 1.531 . S
C3382 H3394 0.960 . S
C3382 H3395 0.962 . S
C3382 H3396 0.960 . S
C3383 C3380 1.511 . S
C3383 H3397 0.961 . S
C3383 H3398 0.961 . S
C3383 H3399 0.961 . S
C3384 C3385 1.370 . S
C3384 C3386 1.363 . S
C3384 H3400 0.931 . S
C3385 C3384 1.370 . S
C3385 C3389 1.408 . S
C3386 C3384 1.363 . S
C3386 C3387 1.370 . S
C3386 C3390 1.524 . S
C3387 C3379 1.503 . S
C3387 C3386 1.370 . S
C3387 C3388 1.403 . S
C3388 C3387 1.403 . S
C3388 C3389 1.404 . S
C3388 C3391 1.539 . S
C3389 C3385 1.408 . S
C3389 C3388 1.404 . S
C3389 H3401 0.930 . S
C3390 C3386 1.524 . S
C3390 H3402 0.956 . S
C3390 H3403 0.961 . S
C3390 H3404 0.961 . S
C3391 C3388 1.539 . S
C3391 H3405 0.958 . S
C3391 H3406 0.961 . S
C3391 H3407 0.960 . S
H3392 C3376 0.931 . S
H3393 C3381 0.929 . S
H3394 C3382 0.960 . S
H3395 C3382 0.962 . S
H3396 C3382 0.960 . S
H3397 C3383 0.961 . S
H3398 C3383 0.961 . S
H3399 C3383 0.961 . S
H3400 C3384 0.931 . S
H3401 C3389 0.930 . S
H3402 C3390 0.956 . S
H3403 C3390 0.961 . S
H3404 C3390 0.961 . S
H3405 C3391 0.958 . S
H3406 C3391 0.961 . S
H3407 C3391 0.960 . S
C3408 C3409 1.391 . S
C3408 C3410 1.394 . S
C3408 H3424 0.931 . S
C3409 C3408 1.391 . S
C3409 C3413 1.376 . S
C3410 C3408 1.394 . S
C3410 C3411 1.369 . S
C3410 C3414 1.531 . S
C3411 C3410 1.369 . S
C3411 C3412 1.410 . S
C3411 C3419 1.503 . S
C3412 C3411 1.410 . S
C3412 C3413 1.392 . S
C3412 C3415 1.511 . S
C3413 C3409 1.376 . S
C3413 C3412 1.392 . S
C3413 H3425 0.929 . S
C3414 C3410 1.531 . S
C3414 H3426 0.960 . S
C3414 H3427 0.962 . S
C3414 H3428 0.960 . S
C3415 C3412 1.511 . S
C3415 H3429 0.961 . S
C3415 H3430 0.961 . S
C3415 H3431 0.961 . S
C3416 C3417 1.370 . S
C3416 C3418 1.363 . S
C3416 H3432 0.931 . S
C3417 C3416 1.370 . S
C3417 C3421 1.408 . S
C3418 C3416 1.363 . S
C3418 C3419 1.370 . S
C3418 C3422 1.524 . S
C3419 C3411 1.503 . S
C3419 C3418 1.370 . S
C3419 C3420 1.403 . S
C3420 C3419 1.403 . S
C3420 C3421 1.404 . S
C3420 C3423 1.539 . S
C3421 C3417 1.408 . S
C3421 C3420 1.404 . S
C3421 H3433 0.930 . S
C3422 C3418 1.524 . S
C3422 H3434 0.956 . S
C3422 H3435 0.961 . S
C3422 H3436 0.961 . S
C3423 C3420 1.539 . S
C3423 H3437 0.949 1_556 S
C3423 H3438 0.961 . S
C3423 H3439 0.960 . S
H3424 C3408 0.931 . S
H3425 C3413 0.929 . S
H3426 C3414 0.960 . S
H3427 C3414 0.962 . S
H3428 C3414 0.960 . S
H3429 C3415 0.961 . S
H3430 C3415 0.961 . S
H3431 C3415 0.961 . S
H3432 C3416 0.931 . S
H3433 C3421 0.930 . S
H3434 C3422 0.956 . S
H3435 C3422 0.961 . S
H3436 C3422 0.961 . S
H3437 C3423 0.949 1_554 S
H3438 C3423 0.961 . S
H3439 C3423 0.960 . S
C3440 C3441 1.391 . S
C3440 C3442 1.394 . S
C3440 H3456 0.931 . S
C3441 C3440 1.391 . S
C3441 C3445 1.376 . S
C3442 C3440 1.394 . S
C3442 C3443 1.369 . S
C3442 C3446 1.531 . S
C3443 C3442 1.369 . S
C3443 C3444 1.410 . S
C3443 C3451 1.503 . S
C3444 C3443 1.410 . S
C3444 C3445 1.392 . S
C3444 C3447 1.511 . S
C3445 C3441 1.376 . S
C3445 C3444 1.392 . S
C3445 H3457 0.929 . S
C3446 C3442 1.531 . S
C3446 H3458 0.960 . S
C3446 H3459 0.962 . S
C3446 H3460 0.960 . S
C3447 C3444 1.511 . S
C3447 H3461 0.961 . S
C3447 H3462 0.961 . S
C3447 H3463 0.961 . S
C3448 C3449 1.370 . S
C3448 C3450 1.363 . S
C3448 H3464 0.931 . S
C3449 C3448 1.370 . S
C3449 C3453 1.408 . S
C3450 C3448 1.363 . S
C3450 C3451 1.370 . S
C3450 C3454 1.524 . S
C3451 C3443 1.503 . S
C3451 C3450 1.370 . S
C3451 C3452 1.403 . S
C3452 C3451 1.403 . S
C3452 C3453 1.404 . S
C3452 C3455 1.539 . S
C3453 C3449 1.408 . S
C3453 C3452 1.404 . S
C3453 H3465 0.930 . S
C3454 C3450 1.524 . S
C3454 H3466 0.956 . S
C3454 H3467 0.961 . S
C3454 H3468 0.961 . S
C3455 C3452 1.539 . S
C3455 H3469 0.958 . S
C3455 H3470 0.961 . S
C3455 H3471 0.960 . S
H3456 C3440 0.931 . S
H3457 C3445 0.929 . S
H3458 C3446 0.960 . S
H3459 C3446 0.962 . S
H3460 C3446 0.960 . S
H3461 C3447 0.961 . S
H3462 C3447 0.961 . S
H3463 C3447 0.961 . S
H3464 C3448 0.931 . S
H3465 C3453 0.930 . S
H3466 C3454 0.956 . S
H3467 C3454 0.961 . S
H3468 C3454 0.961 . S
H3469 C3455 0.958 . S
H3470 C3455 0.961 . S
H3471 C3455 0.960 . S
C3472 C3473 1.391 . S
C3472 C3474 1.394 . S
C3472 H3488 0.931 . S
C3473 C3472 1.391 . S
C3473 C3477 1.376 . S
C3474 C3472 1.394 . S
C3474 C3475 1.369 . S
C3474 C3478 1.531 . S
C3475 C3474 1.369 . S
C3475 C3476 1.410 . S
C3475 C3483 1.503 . S
C3476 C3475 1.410 . S
C3476 C3477 1.392 . S
C3476 C3479 1.511 . S
C3477 C3473 1.376 . S
C3477 C3476 1.392 . S
C3477 H3489 0.929 . S
C3478 C3474 1.531 . S
C3478 H3490 0.960 . S
C3478 H3491 0.962 . S
C3478 H3492 0.960 . S
C3479 C3476 1.511 . S
C3479 H3493 0.961 . S
C3479 H3494 0.961 . S
C3479 H3495 0.961 . S
C3480 C3481 1.370 . S
C3480 C3482 1.363 . S
C3480 H3496 0.931 . S
C3481 C3480 1.370 . S
C3481 C3485 1.408 . S
C3482 C3480 1.363 . S
C3482 C3483 1.370 . S
C3482 C3486 1.524 . S
C3483 C3475 1.503 . S
C3483 C3482 1.370 . S
C3483 C3484 1.403 . S
C3484 C3483 1.403 . S
C3484 C3485 1.404 . S
C3484 C3487 1.539 . S
C3485 C3481 1.408 . S
C3485 C3484 1.404 . S
C3485 H3497 0.930 . S
C3486 C3482 1.524 . S
C3486 H3498 0.956 . S
C3486 H3499 0.961 . S
C3486 H3500 0.961 . S
C3487 C3484 1.539 . S
C3487 H3501 0.958 . S
C3487 H3502 0.961 . S
C3487 H3503 0.960 . S
H3488 C3472 0.931 . S
H3489 C3477 0.929 . S
H3490 C3478 0.960 . S
H3491 C3478 0.962 . S
H3492 C3478 0.960 . S
H3493 C3479 0.961 . S
H3494 C3479 0.961 . S
H3495 C3479 0.961 . S
H3496 C3480 0.931 . S
H3497 C3485 0.930 . S
H3498 C3486 0.956 . S
H3499 C3486 0.961 . S
H3500 C3486 0.961 . S
H3501 C3487 0.958 . S
H3502 C3487 0.961 . S
H3503 C3487 0.960 . S
C3504 C3505 1.391 . S
C3504 C3506 1.394 . S
C3504 H3520 0.931 . S
C3505 C3504 1.391 . S
C3505 C3509 1.376 . S
C3506 C3504 1.394 . S
C3506 C3507 1.369 . S
C3506 C3510 1.531 . S
C3507 C3506 1.369 . S
C3507 C3508 1.410 . S
C3507 C3515 1.503 . S
C3508 C3507 1.410 . S
C3508 C3509 1.392 . S
C3508 C3511 1.511 . S
C3509 C3505 1.376 . S
C3509 C3508 1.392 . S
C3509 H3521 0.929 . S
C3510 C3506 1.531 . S
C3510 H3522 0.960 . S
C3510 H3523 0.962 . S
C3510 H3524 0.960 . S
C3511 C3508 1.511 . S
C3511 H3525 0.961 . S
C3511 H3526 0.961 . S
C3511 H3527 0.961 . S
C3512 C3513 1.370 . S
C3512 C3514 1.363 . S
C3512 H3528 0.931 . S
C3513 C3512 1.370 . S
C3513 C3517 1.408 . S
C3514 C3512 1.363 . S
C3514 C3515 1.370 . S
C3514 C3518 1.524 . S
C3515 C3507 1.503 . S
C3515 C3514 1.370 . S
C3515 C3516 1.403 . S
C3516 C3515 1.403 . S
C3516 C3517 1.404 . S
C3516 C3519 1.539 . S
C3517 C3513 1.408 . S
C3517 C3516 1.404 . S
C3517 H3529 0.930 . S
C3518 C3514 1.524 . S
C3518 H3530 0.956 . S
C3518 H3531 0.961 . S
C3518 H3532 0.961 . S
C3519 C3516 1.539 . S
C3519 H3533 0.958 . S
C3519 H3534 0.961 . S
C3519 H3535 0.960 . S
H3520 C3504 0.931 . S
H3521 C3509 0.929 . S
H3522 C3510 0.960 . S
H3523 C3510 0.962 . S
H3524 C3510 0.960 . S
H3525 C3511 0.961 . S
H3526 C3511 0.961 . S
H3527 C3511 0.961 . S
H3528 C3512 0.931 . S
H3529 C3517 0.930 . S
H3530 C3518 0.956 . S
H3531 C3518 0.961 . S
H3532 C3518 0.961 . S
H3533 C3519 0.958 . S
H3534 C3519 0.961 . S
H3535 C3519 0.960 . S
C3536 C3537 1.391 . S
C3536 C3538 1.394 . S
C3536 H3552 0.931 . S
C3537 C3536 1.391 . S
C3537 C3541 1.376 . S
C3538 C3536 1.394 . S
C3538 C3539 1.369 . S
C3538 C3542 1.531 . S
C3539 C3538 1.369 . S
C3539 C3540 1.410 . S
C3539 C3547 1.503 . S
C3540 C3539 1.410 . S
C3540 C3541 1.392 . S
C3540 C3543 1.511 . S
C3541 C3537 1.376 . S
C3541 C3540 1.392 . S
C3541 H3553 0.929 . S
C3542 C3538 1.531 . S
C3542 H3554 0.960 . S
C3542 H3555 0.962 . S
C3542 H3556 0.960 . S
C3543 C3540 1.511 . S
C3543 H3557 0.961 . S
C3543 H3558 0.961 . S
C3543 H3559 0.961 . S
C3544 C3545 1.370 . S
C3544 C3546 1.363 . S
C3544 H3560 0.931 . S
C3545 C3544 1.370 . S
C3545 C3549 1.408 . S
C3546 C3544 1.363 . S
C3546 C3547 1.370 . S
C3546 C3550 1.524 . S
C3547 C3539 1.503 . S
C3547 C3546 1.370 . S
C3547 C3548 1.403 . S
C3548 C3547 1.403 . S
C3548 C3549 1.404 . S
C3548 C3551 1.539 . S
C3549 C3545 1.408 . S
C3549 C3548 1.404 . S
C3549 H3561 0.930 . S
C3550 C3546 1.524 . S
C3550 H3562 0.956 . S
C3550 H3563 0.961 . S
C3550 H3564 0.961 . S
C3551 C3548 1.539 . S
C3551 H3565 0.958 . S
C3551 H3566 0.961 . S
C3551 H3567 0.960 . S
H3552 C3536 0.931 . S
H3553 C3541 0.929 . S
H3554 C3542 0.960 . S
H3555 C3542 0.962 . S
H3556 C3542 0.960 . S
H3557 C3543 0.961 . S
H3558 C3543 0.961 . S
H3559 C3543 0.961 . S
H3560 C3544 0.931 . S
H3561 C3549 0.930 . S
H3562 C3550 0.956 . S
H3563 C3550 0.961 . S
H3564 C3550 0.961 . S
H3565 C3551 0.958 . S
H3566 C3551 0.961 . S
H3567 C3551 0.960 . S
C3568 C3569 1.391 . S
C3568 C3570 1.394 . S
C3568 H3584 0.931 . S
C3569 C3568 1.391 . S
C3569 C3573 1.376 . S
C3570 C3568 1.394 . S
C3570 C3571 1.369 . S
C3570 C3574 1.531 . S
C3571 C3570 1.369 . S
C3571 C3572 1.410 . S
C3571 C3579 1.503 . S
C3572 C3571 1.410 . S
C3572 C3573 1.392 . S
C3572 C3575 1.511 . S
C3573 C3569 1.376 . S
C3573 C3572 1.392 . S
C3573 H3585 0.929 . S
C3574 C3570 1.531 . S
C3574 H3586 0.960 . S
C3574 H3587 0.962 . S
C3574 H3588 0.960 . S
C3575 C3572 1.511 . S
C3575 H3589 0.961 . S
C3575 H3590 0.961 . S
C3575 H3591 0.961 . S
C3576 C3577 1.370 . S
C3576 C3578 1.363 . S
C3576 H3592 0.931 . S
C3577 C3576 1.370 . S
C3577 C3581 1.408 . S
C3578 C3576 1.363 . S
C3578 C3579 1.370 . S
C3578 C3582 1.524 . S
C3579 C3571 1.503 . S
C3579 C3578 1.370 . S
C3579 C3580 1.403 . S
C3580 C3579 1.403 . S
C3580 C3581 1.404 . S
C3580 C3583 1.539 . S
C3581 C3577 1.408 . S
C3581 C3580 1.404 . S
C3581 H3593 0.930 . S
C3582 C3578 1.524 . S
C3582 H3594 0.956 . S
C3582 H3595 0.961 . S
C3582 H3596 0.961 . S
C3583 C3580 1.539 . S
C3583 H3597 0.958 . S
C3583 H3598 0.961 . S
C3583 H3599 0.960 . S
H3584 C3568 0.931 . S
H3585 C3573 0.929 . S
H3586 C3574 0.960 . S
H3587 C3574 0.962 . S
H3588 C3574 0.960 . S
H3589 C3575 0.961 . S
H3590 C3575 0.961 . S
H3591 C3575 0.961 . S
H3592 C3576 0.931 . S
H3593 C3581 0.930 . S
H3594 C3582 0.956 . S
H3595 C3582 0.961 . S
H3596 C3582 0.961 . S
H3597 C3583 0.958 . S
H3598 C3583 0.961 . S
H3599 C3583 0.960 . S
C3600 C3601 1.391 . S
C3600 C3602 1.394 . S
C3600 H3616 0.931 . S
C3601 C3600 1.391 . S
C3601 C3605 1.376 . S
C3602 C3600 1.394 . S
C3602 C3603 1.369 . S
C3602 C3606 1.531 . S
C3603 C3602 1.369 . S
C3603 C3604 1.410 . S
C3603 C3611 1.503 . S
C3604 C3603 1.410 . S
C3604 C3605 1.392 . S
C3604 C3607 1.511 . S
C3605 C3601 1.376 . S
C3605 C3604 1.392 . S
C3605 H3617 0.929 . S
C3606 C3602 1.531 . S
C3606 H3618 0.960 . S
C3606 H3619 0.962 1_455 S
C3606 H3620 0.960 . S
C3607 C3604 1.511 . S
C3607 H3621 0.961 . S
C3607 H3622 0.961 . S
C3607 H3623 0.961 . S
C3608 C3609 1.370 . S
C3608 C3610 1.363 . S
C3608 H3624 0.931 . S
C3609 C3608 1.370 . S
C3609 C3613 1.408 . S
C3610 C3608 1.363 . S
C3610 C3611 1.370 . S
C3610 C3614 1.524 . S
C3611 C3603 1.503 . S
C3611 C3610 1.370 . S
C3611 C3612 1.403 . S
C3612 C3611 1.403 . S
C3612 C3613 1.404 . S
C3612 C3615 1.539 . S
C3613 C3609 1.408 . S
C3613 C3612 1.404 . S
C3613 H3625 0.930 . S
C3614 C3610 1.524 . S
C3614 H3626 0.956 1_455 S
C3614 H3627 0.961 . S
C3614 H3628 0.961 . S
C3615 C3612 1.539 . S
C3615 H3629 0.958 . S
C3615 H3630 0.961 . S
C3615 H3631 0.960 . S
H3616 C3600 0.931 . S
H3617 C3605 0.929 . S
H3618 C3606 0.960 . S
H3619 C3606 0.962 1_655 S
H3620 C3606 0.960 . S
H3621 C3607 0.961 . S
H3622 C3607 0.961 . S
H3623 C3607 0.961 . S
H3624 C3608 0.931 . S
H3625 C3613 0.930 . S
H3626 C3614 0.956 1_655 S
H3627 C3614 0.961 . S
H3628 C3614 0.961 . S
H3629 C3615 0.958 . S
H3630 C3615 0.961 . S
H3631 C3615 0.960 . S
C3632 C3633 1.391 . S
C3632 C3634 1.394 . S
C3632 H3648 0.931 . S
C3633 C3632 1.391 . S
C3633 C3637 1.376 . S
C3634 C3632 1.394 . S
C3634 C3635 1.369 . S
C3634 C3638 1.531 . S
C3635 C3634 1.369 . S
C3635 C3636 1.410 . S
C3635 C3643 1.503 . S
C3636 C3635 1.410 . S
C3636 C3637 1.392 . S
C3636 C3639 1.511 . S
C3637 C3633 1.376 . S
C3637 C3636 1.392 . S
C3637 H3649 0.929 . S
C3638 C3634 1.531 . S
C3638 H3650 0.960 . S
C3638 H3651 0.962 . S
C3638 H3652 0.960 . S
C3639 C3636 1.511 . S
C3639 H3653 0.961 . S
C3639 H3654 0.961 . S
C3639 H3655 0.961 . S
C3640 C3641 1.370 . S
C3640 C3642 1.363 . S
C3640 H3656 0.931 . S
C3641 C3640 1.370 . S
C3641 C3645 1.408 . S
C3642 C3640 1.363 . S
C3642 C3643 1.370 . S
C3642 C3646 1.524 . S
C3643 C3635 1.503 . S
C3643 C3642 1.370 . S
C3643 C3644 1.403 . S
C3644 C3643 1.403 . S
C3644 C3645 1.404 . S
C3644 C3647 1.539 . S
C3645 C3641 1.408 . S
C3645 C3644 1.404 . S
C3645 H3657 0.930 . S
C3646 C3642 1.524 . S
C3646 H3658 0.956 . S
C3646 H3659 0.961 . S
C3646 H3660 0.961 . S
C3647 C3644 1.539 . S
C3647 H3661 0.958 . S
C3647 H3662 0.961 . S
C3647 H3663 0.960 . S
H3648 C3632 0.931 . S
H3649 C3637 0.929 . S
H3650 C3638 0.960 . S
H3651 C3638 0.962 . S
H3652 C3638 0.960 . S
H3653 C3639 0.961 . S
H3654 C3639 0.961 . S
H3655 C3639 0.961 . S
H3656 C3640 0.931 . S
H3657 C3645 0.930 . S
H3658 C3646 0.956 . S
H3659 C3646 0.961 . S
H3660 C3646 0.961 . S
H3661 C3647 0.958 . S
H3662 C3647 0.961 . S
H3663 C3647 0.960 . S
C3664 C3665 1.391 . S
C3664 C3666 1.394 . S
C3664 H3680 0.931 . S
C3665 C3664 1.391 . S
C3665 C3669 1.376 . S
C3666 C3664 1.394 . S
C3666 C3667 1.369 . S
C3666 C3670 1.531 . S
C3667 C3666 1.369 . S
C3667 C3668 1.410 . S
C3667 C3675 1.503 . S
C3668 C3667 1.410 . S
C3668 C3669 1.392 . S
C3668 C3671 1.511 . S
C3669 C3665 1.376 . S
C3669 C3668 1.392 . S
C3669 H3681 0.929 . S
C3670 C3666 1.531 . S
C3670 H3682 0.960 . S
C3670 H3683 0.962 . S
C3670 H3684 0.960 . S
C3671 C3668 1.511 . S
C3671 H3685 0.961 . S
C3671 H3686 0.961 . S
C3671 H3687 0.961 . S
C3672 C3673 1.370 . S
C3672 C3674 1.363 . S
C3672 H3688 0.931 . S
C3673 C3672 1.370 . S
C3673 C3677 1.408 . S
C3674 C3672 1.363 . S
C3674 C3675 1.370 . S
C3674 C3678 1.524 . S
C3675 C3667 1.503 . S
C3675 C3674 1.370 . S
C3675 C3676 1.403 . S
C3676 C3675 1.403 . S
C3676 C3677 1.404 . S
C3676 C3679 1.539 . S
C3677 C3673 1.408 . S
C3677 C3676 1.404 . S
C3677 H3689 0.930 . S
C3678 C3674 1.524 . S
C3678 H3690 0.956 . S
C3678 H3691 0.961 . S
C3678 H3692 0.961 . S
C3679 C3676 1.539 . S
C3679 H3693 0.958 . S
C3679 H3694 0.961 . S
C3679 H3695 0.960 . S
H3680 C3664 0.931 . S
H3681 C3669 0.929 . S
H3682 C3670 0.960 . S
H3683 C3670 0.962 . S
H3684 C3670 0.960 . S
H3685 C3671 0.961 . S
H3686 C3671 0.961 . S
H3687 C3671 0.961 . S
H3688 C3672 0.931 . S
H3689 C3677 0.930 . S
H3690 C3678 0.956 . S
H3691 C3678 0.961 . S
H3692 C3678 0.961 . S
H3693 C3679 0.958 . S
H3694 C3679 0.961 . S
H3695 C3679 0.960 . S
C3696 C3697 1.391 . S
C3696 C3698 1.394 . S
C3696 H3712 0.931 . S
C3697 C3696 1.391 . S
C3697 C3701 1.376 . S
C3698 C3696 1.394 . S
C3698 C3699 1.369 . S
C3698 C3702 1.531 . S
C3699 C3698 1.369 . S
C3699 C3700 1.410 . S
C3699 C3707 1.503 . S
C3700 C3699 1.410 . S
C3700 C3701 1.392 . S
C3700 C3703 1.511 . S
C3701 C3697 1.376 . S
C3701 C3700 1.392 . S
C3701 H3713 0.929 . S
C3702 C3698 1.531 . S
C3702 H3714 0.960 . S
C3702 H3715 0.962 . S
C3702 H3716 0.960 . S
C3703 C3700 1.511 . S
C3703 H3717 0.961 . S
C3703 H3718 0.961 . S
C3703 H3719 0.961 . S
C3704 C3705 1.370 . S
C3704 C3706 1.363 . S
C3704 H3720 0.931 . S
C3705 C3704 1.370 . S
C3705 C3709 1.408 . S
C3706 C3704 1.363 . S
C3706 C3707 1.370 . S
C3706 C3710 1.524 . S
C3707 C3699 1.503 . S
C3707 C3706 1.370 . S
C3707 C3708 1.403 . S
C3708 C3707 1.403 . S
C3708 C3709 1.404 . S
C3708 C3711 1.539 . S
C3709 C3705 1.408 . S
C3709 C3708 1.404 . S
C3709 H3721 0.930 . S
C3710 C3706 1.524 . S
C3710 H3722 0.956 . S
C3710 H3723 0.961 . S
C3710 H3724 0.961 . S
C3711 C3708 1.539 . S
C3711 H3725 0.958 . S
C3711 H3726 0.961 . S
C3711 H3727 0.960 . S
H3712 C3696 0.931 . S
H3713 C3701 0.929 . S
H3714 C3702 0.960 . S
H3715 C3702 0.962 . S
H3716 C3702 0.960 . S
H3717 C3703 0.961 . S
H3718 C3703 0.961 . S
H3719 C3703 0.961 . S
H3720 C3704 0.931 . S
H3721 C3709 0.930 . S
H3722 C3710 0.956 . S
H3723 C3710 0.961 . S
H3724 C3710 0.961 . S
H3725 C3711 0.958 . S
H3726 C3711 0.961 . S
H3727 C3711 0.960 . S
C3728 C3729 1.391 . S
C3728 C3730 1.394 . S
C3728 H3744 0.931 . S
C3729 C3728 1.391 . S
C3729 C3733 1.376 . S
C3730 C3728 1.394 . S
C3730 C3731 1.369 . S
C3730 C3734 1.531 . S
C3731 C3730 1.369 . S
C3731 C3732 1.410 . S
C3731 C3739 1.503 . S
C3732 C3731 1.410 . S
C3732 C3733 1.392 . S
C3732 C3735 1.511 1_455 S
C3733 C3729 1.376 . S
C3733 C3732 1.392 . S
C3733 H3745 0.929 . S
C3734 C3730 1.531 . S
C3734 H3746 0.960 . S
C3734 H3747 0.962 . S
C3734 H3748 0.960 . S
C3735 C3732 1.511 1_655 S
C3735 H3749 0.961 . S
C3735 H3750 0.961 . S
C3735 H3751 0.961 . S
C3736 C3737 1.370 . S
C3736 C3738 1.363 . S
C3736 H3752 0.931 . S
C3737 C3736 1.370 . S
C3737 C3741 1.408 1_455 S
C3738 C3736 1.363 . S
C3738 C3739 1.370 . S
C3738 C3742 1.524 . S
C3739 C3731 1.503 . S
C3739 C3738 1.370 . S
C3739 C3740 1.403 1_455 S
C3740 C3739 1.403 1_655 S
C3740 C3741 1.404 . S
C3740 C3743 1.539 . S
C3741 C3737 1.408 1_655 S
C3741 C3740 1.404 . S
C3741 H3753 0.930 . S
C3742 C3738 1.524 . S
C3742 H3754 0.956 . S
C3742 H3755 0.961 . S
C3742 H3756 0.961 . S
C3743 C3740 1.539 . S
C3743 H3757 0.958 . S
C3743 H3758 0.961 . S
C3743 H3759 0.960 . S
H3744 C3728 0.931 . S
H3745 C3733 0.929 . S
H3746 C3734 0.960 . S
H3747 C3734 0.962 . S
H3748 C3734 0.960 . S
H3749 C3735 0.961 . S
H3750 C3735 0.961 . S
H3751 C3735 0.961 . S
H3752 C3736 0.931 . S
H3753 C3741 0.930 . S
H3754 C3742 0.956 . S
H3755 C3742 0.961 . S
H3756 C3742 0.961 . S
H3757 C3743 0.958 . S
H3758 C3743 0.961 . S
H3759 C3743 0.960 . S
C3760 C3761 1.391 . S
C3760 C3762 1.394 . S
C3760 H3776 0.931 . S
C3761 C3760 1.391 . S
C3761 C3765 1.376 . S
C3762 C3760 1.394 . S
C3762 C3763 1.369 . S
C3762 C3766 1.531 . S
C3763 C3762 1.369 . S
C3763 C3764 1.410 . S
C3763 C3771 1.503 . S
C3764 C3763 1.410 . S
C3764 C3765 1.392 . S
C3764 C3767 1.511 . S
C3765 C3761 1.376 . S
C3765 C3764 1.392 . S
C3765 H3777 0.929 . S
C3766 C3762 1.531 . S
C3766 H3778 0.960 . S
C3766 H3779 0.962 . S
C3766 H3780 0.960 . S
C3767 C3764 1.511 . S
C3767 H3781 0.961 . S
C3767 H3782 0.961 . S
C3767 H3783 0.961 . S
C3768 C3769 1.370 . S
C3768 C3770 1.363 . S
C3768 H3784 0.931 . S
C3769 C3768 1.370 . S
C3769 C3773 1.408 . S
C3770 C3768 1.363 . S
C3770 C3771 1.370 . S
C3770 C3774 1.524 . S
C3771 C3763 1.503 . S
C3771 C3770 1.370 . S
C3771 C3772 1.403 . S
C3772 C3771 1.403 . S
C3772 C3773 1.404 . S
C3772 C3775 1.539 . S
C3773 C3769 1.408 . S
C3773 C3772 1.404 . S
C3773 H3785 0.930 . S
C3774 C3770 1.524 . S
C3774 H3786 0.956 . S
C3774 H3787 0.961 . S
C3774 H3788 0.961 . S
C3775 C3772 1.539 . S
C3775 H3789 0.958 . S
C3775 H3790 0.961 . S
C3775 H3791 0.960 . S
H3776 C3760 0.931 . S
H3777 C3765 0.929 . S
H3778 C3766 0.960 . S
H3779 C3766 0.962 . S
H3780 C3766 0.960 . S
H3781 C3767 0.961 . S
H3782 C3767 0.961 . S
H3783 C3767 0.961 . S
H3784 C3768 0.931 . S
H3785 C3773 0.930 . S
H3786 C3774 0.956 . S
H3787 C3774 0.961 . S
H3788 C3774 0.961 . S
H3789 C3775 0.958 . S
H3790 C3775 0.961 . S
H3791 C3775 0.960 . S
C3792 C3793 1.391 . S
C3792 C3794 1.394 . S
C3792 H3808 0.931 . S
C3793 C3792 1.391 . S
C3793 C3797 1.376 . S
C3794 C3792 1.394 . S
C3794 C3795 1.369 . S
C3794 C3798 1.531 . S
C3795 C3794 1.369 . S
C3795 C3796 1.410 . S
C3795 C3803 1.503 . S
C3796 C3795 1.410 . S
C3796 C3797 1.392 . S
C3796 C3799 1.511 . S
C3797 C3793 1.376 . S
C3797 C3796 1.392 . S
C3797 H3809 0.929 . S
C3798 C3794 1.531 . S
C3798 H3810 0.960 . S
C3798 H3811 0.962 . S
C3798 H3812 0.960 . S
C3799 C3796 1.511 . S
C3799 H3813 0.961 . S
C3799 H3814 0.961 . S
C3799 H3815 0.961 . S
C3800 C3801 1.370 . S
C3800 C3802 1.363 . S
C3800 H3816 0.931 . S
C3801 C3800 1.370 . S
C3801 C3805 1.408 . S
C3802 C3800 1.363 . S
C3802 C3803 1.370 . S
C3802 C3806 1.524 . S
C3803 C3795 1.503 . S
C3803 C3802 1.370 . S
C3803 C3804 1.403 . S
C3804 C3803 1.403 . S
C3804 C3805 1.404 . S
C3804 C3807 1.539 . S
C3805 C3801 1.408 . S
C3805 C3804 1.404 . S
C3805 H3817 0.930 . S
C3806 C3802 1.524 . S
C3806 H3818 0.956 . S
C3806 H3819 0.961 . S
C3806 H3820 0.961 . S
C3807 C3804 1.539 . S
C3807 H3821 0.958 . S
C3807 H3822 0.961 . S
C3807 H3823 0.960 . S
H3808 C3792 0.931 . S
H3809 C3797 0.929 . S
H3810 C3798 0.960 . S
H3811 C3798 0.962 . S
H3812 C3798 0.960 . S
H3813 C3799 0.961 . S
H3814 C3799 0.961 . S
H3815 C3799 0.961 . S
H3816 C3800 0.931 . S
H3817 C3805 0.930 . S
H3818 C3806 0.956 . S
H3819 C3806 0.961 . S
H3820 C3806 0.961 . S
H3821 C3807 0.958 . S
H3822 C3807 0.961 . S
H3823 C3807 0.960 . S
C3824 C3825 1.391 . S
C3824 C3826 1.394 . S
C3824 H3840 0.931 . S
C3825 C3824 1.391 . S
C3825 C3829 1.376 . S
C3826 C3824 1.394 . S
C3826 C3827 1.369 . S
C3826 C3830 1.531 . S
C3827 C3826 1.369 . S
C3827 C3828 1.410 . S
C3827 C3835 1.503 . S
C3828 C3827 1.410 . S
C3828 C3829 1.392 . S
C3828 C3831 1.511 . S
C3829 C3825 1.376 . S
C3829 C3828 1.392 . S
C3829 H3841 0.929 . S
C3830 C3826 1.531 . S
C3830 H3842 0.960 . S
C3830 H3843 0.962 1_565 S
C3830 H3844 0.960 . S
C3831 C3828 1.511 . S
C3831 H3845 0.961 . S
C3831 H3846 0.961 . S
C3831 H3847 0.961 . S
C3832 C3833 1.370 . S
C3832 C3834 1.363 1_545 S
C3832 H3848 0.931 . S
C3833 C3832 1.370 . S
C3833 C3837 1.408 1_545 S
C3834 C3832 1.363 1_565 S
C3834 C3835 1.370 . S
C3834 C3838 1.524 . S
C3835 C3827 1.503 . S
C3835 C3834 1.370 . S
C3835 C3836 1.403 . S
C3836 C3835 1.403 . S
C3836 C3837 1.404 . S
C3836 C3839 1.539 . S
C3837 C3833 1.408 1_565 S
C3837 C3836 1.404 . S
C3837 H3849 0.930 . S
C3838 C3834 1.524 . S
C3838 H3850 0.956 1_565 S
C3838 H3851 0.961 . S
C3838 H3852 0.961 1_565 S
C3839 C3836 1.539 . S
C3839 H3853 0.958 . S
C3839 H3854 0.961 . S
C3839 H3855 0.960 . S
H3840 C3824 0.931 . S
H3841 C3829 0.929 . S
H3842 C3830 0.960 . S
H3843 C3830 0.962 1_545 S
H3844 C3830 0.960 . S
H3845 C3831 0.961 . S
H3846 C3831 0.961 . S
H3847 C3831 0.961 . S
H3848 C3832 0.931 . S
H3849 C3837 0.930 . S
H3850 C3838 0.956 1_545 S
H3851 C3838 0.961 . S
H3852 C3838 0.961 1_545 S
H3853 C3839 0.958 . S
H3854 C3839 0.961 . S
H3855 C3839 0.960 . S
C3856 C3857 1.391 . S
C3856 C3858 1.394 . S
C3856 H3872 0.931 . S
C3857 C3856 1.391 . S
C3857 C3861 1.376 . S
C3858 C3856 1.394 . S
C3858 C3859 1.369 . S
C3858 C3862 1.531 . S
C3859 C3858 1.369 . S
C3859 C3860 1.410 . S
C3859 C3867 1.503 . S
C3860 C3859 1.410 . S
C3860 C3861 1.392 . S
C3860 C3863 1.511 . S
C3861 C3857 1.376 . S
C3861 C3860 1.392 . S
C3861 H3873 0.929 . S
C3862 C3858 1.531 . S
C3862 H3874 0.960 . S
C3862 H3875 0.962 . S
C3862 H3876 0.960 . S
C3863 C3860 1.511 . S
C3863 H3877 0.961 . S
C3863 H3878 0.961 . S
C3863 H3879 0.961 . S
C3864 C3865 1.370 . S
C3864 C3866 1.363 . S
C3864 H3880 0.931 . S
C3865 C3864 1.370 . S
C3865 C3869 1.408 . S
C3866 C3864 1.363 . S
C3866 C3867 1.370 . S
C3866 C3870 1.524 . S
C3867 C3859 1.503 . S
C3867 C3866 1.370 . S
C3867 C3868 1.403 . S
C3868 C3867 1.403 . S
C3868 C3869 1.404 . S
C3868 C3871 1.539 . S
C3869 C3865 1.408 . S
C3869 C3868 1.404 . S
C3869 H3881 0.930 . S
C3870 C3866 1.524 . S
C3870 H3882 0.956 . S
C3870 H3883 0.961 . S
C3870 H3884 0.961 . S
C3871 C3868 1.539 . S
C3871 H3885 0.958 . S
C3871 H3886 0.961 . S
C3871 H3887 0.960 . S
H3872 C3856 0.931 . S
H3873 C3861 0.929 . S
H3874 C3862 0.960 . S
H3875 C3862 0.962 . S
H3876 C3862 0.960 . S
H3877 C3863 0.961 . S
H3878 C3863 0.961 . S
H3879 C3863 0.961 . S
H3880 C3864 0.931 . S
H3881 C3869 0.930 . S
H3882 C3870 0.956 . S
H3883 C3870 0.961 . S
H3884 C3870 0.961 . S
H3885 C3871 0.958 . S
H3886 C3871 0.961 . S
H3887 C3871 0.960 . S
C3888 C3889 1.391 1_554 S
C3888 C3890 1.394 . S
C3888 H3904 0.931 . S
C3889 C3888 1.391 1_556 S
C3889 C3893 1.376 . S
C3890 C3888 1.394 . S
C3890 C3891 1.369 . S
C3890 C3894 1.531 . S
C3891 C3890 1.369 . S
C3891 C3892 1.410 1_554 S
C3891 C3899 1.503 . S
C3892 C3891 1.410 1_556 S
C3892 C3893 1.392 . S
C3892 C3895 1.511 . S
C3893 C3889 1.376 . S
C3893 C3892 1.392 . S
C3893 H3905 0.929 . S
C3894 C3890 1.531 . S
C3894 H3906 0.960 . S
C3894 H3907 0.962 . S
C3894 H3908 0.960 . S
C3895 C3892 1.511 . S
C3895 H3909 0.961 . S
C3895 H3910 0.961 . S
C3895 H3911 0.961 . S
C3896 C3897 1.370 1_556 S
C3896 C3898 1.363 . S
C3896 H3912 0.931 . S
C3897 C3896 1.370 1_554 S
C3897 C3901 1.408 . S
C3898 C3896 1.363 . S
C3898 C3899 1.370 1_556 S
C3898 C3902 1.524 . S
C3899 C3891 1.503 . S
C3899 C3898 1.370 1_554 S
C3899 C3900 1.403 . S
C3900 C3899 1.403 . S
C3900 C3901 1.404 . S
C3900 C3903 1.539 . S
C3901 C3897 1.408 . S
C3901 C3900 1.404 . S
C3901 H3913 0.930 . S
C3902 C3898 1.524 . S
C3902 H3914 0.956 . S
C3902 H3915 0.961 . S
C3902 H3916 0.961 . S
C3903 C3900 1.539 . S
C3903 H3917 0.958 . S
C3903 H3918 0.961 . S
C3903 H3919 0.960 . S
H3904 C3888 0.931 . S
H3905 C3893 0.929 . S
H3906 C3894 0.960 . S
H3907 C3894 0.962 . S
H3908 C3894 0.960 . S
H3909 C3895 0.961 . S
H3910 C3895 0.961 . S
H3911 C3895 0.961 . S
H3912 C3896 0.931 . S
H3913 C3901 0.930 . S
H3914 C3902 0.956 . S
H3915 C3902 0.961 . S
H3916 C3902 0.961 . S
H3917 C3903 0.958 . S
H3918 C3903 0.961 . S
H3919 C3903 0.960 . S
C3920 C3921 1.391 . S
C3920 C3922 1.394 . S
C3920 H3936 0.931 . S
C3921 C3920 1.391 . S
C3921 C3925 1.376 . S
C3922 C3920 1.394 . S
C3922 C3923 1.369 . S
C3922 C3926 1.531 . S
C3923 C3922 1.369 . S
C3923 C3924 1.410 . S
C3923 C3931 1.503 . S
C3924 C3923 1.410 . S
C3924 C3925 1.392 . S
C3924 C3927 1.511 . S
C3925 C3921 1.376 . S
C3925 C3924 1.392 . S
C3925 H3937 0.929 . S
C3926 C3922 1.531 . S
C3926 H3938 0.960 . S
C3926 H3939 0.962 . S
C3926 H3940 0.960 . S
C3927 C3924 1.511 . S
C3927 H3941 0.961 . S
C3927 H3942 0.961 . S
C3927 H3943 0.961 . S
C3928 C3929 1.370 . S
C3928 C3930 1.363 . S
C3928 H3944 0.931 . S
C3929 C3928 1.370 . S
C3929 C3933 1.408 . S
C3930 C3928 1.363 . S
C3930 C3931 1.370 . S
C3930 C3934 1.524 . S
C3931 C3923 1.503 . S
C3931 C3930 1.370 . S
C3931 C3932 1.403 . S
C3932 C3931 1.403 . S
C3932 C3933 1.404 . S
C3932 C3935 1.539 . S
C3933 C3929 1.408 . S
C3933 C3932 1.404 . S
C3933 H3945 0.930 . S
C3934 C3930 1.524 . S
C3934 H3946 0.956 . S
C3934 H3947 0.961 . S
C3934 H3948 0.961 . S
C3935 C3932 1.539 . S
C3935 H3949 0.958 . S
C3935 H3950 0.961 . S
C3935 H3951 0.960 . S
H3936 C3920 0.931 . S
H3937 C3925 0.929 . S
H3938 C3926 0.960 . S
H3939 C3926 0.962 . S
H3940 C3926 0.960 . S
H3941 C3927 0.961 . S
H3942 C3927 0.961 . S
H3943 C3927 0.961 . S
H3944 C3928 0.931 . S
H3945 C3933 0.930 . S
H3946 C3934 0.956 . S
H3947 C3934 0.961 . S
H3948 C3934 0.961 . S
H3949 C3935 0.958 . S
H3950 C3935 0.961 . S
H3951 C3935 0.960 . S
C3952 C3953 1.391 . S
C3952 C3954 1.394 . S
C3952 H3968 0.931 . S
C3953 C3952 1.391 . S
C3953 C3957 1.376 . S
C3954 C3952 1.394 . S
C3954 C3955 1.369 . S
C3954 C3958 1.531 1_554 S
C3955 C3954 1.369 . S
C3955 C3956 1.410 . S
C3955 C3963 1.503 . S
C3956 C3955 1.410 . S
C3956 C3957 1.392 . S
C3956 C3959 1.511 . S
C3957 C3953 1.376 . S
C3957 C3956 1.392 . S
C3957 H3969 0.929 . S
C3958 C3954 1.531 1_556 S
C3958 H3970 0.960 1_556 S
C3958 H3971 0.962 . S
C3958 H3972 0.960 . S
C3959 C3956 1.511 . S
C3959 H3973 0.961 . S
C3959 H3974 0.961 . S
C3959 H3975 0.961 . S
C3960 C3961 1.370 . S
C3960 C3962 1.363 . S
C3960 H3976 0.931 1_554 S
C3961 C3960 1.370 . S
C3961 C3965 1.408 . S
C3962 C3960 1.363 . S
C3962 C3963 1.370 . S
C3962 C3966 1.524 1_554 S
C3963 C3955 1.503 . S
C3963 C3962 1.370 . S
C3963 C3964 1.403 . S
C3964 C3963 1.403 . S
C3964 C3965 1.404 . S
C3964 C3967 1.539 . S
C3965 C3961 1.408 . S
C3965 C3964 1.404 . S
C3965 H3977 0.930 . S
C3966 C3962 1.524 1_556 S
C3966 H3978 0.956 . S
C3966 H3979 0.961 . S
C3966 H3980 0.961 . S
C3967 C3964 1.539 . S
C3967 H3981 0.958 . S
C3967 H3982 0.961 . S
C3967 H3983 0.960 . S
H3968 C3952 0.931 . S
H3969 C3957 0.929 . S
H3970 C3958 0.960 1_554 S
H3971 C3958 0.962 . S
H3972 C3958 0.960 . S
H3973 C3959 0.961 . S
H3974 C3959 0.961 . S
H3975 C3959 0.961 . S
H3976 C3960 0.931 1_556 S
H3977 C3965 0.930 . S
H3978 C3966 0.956 . S
H3979 C3966 0.961 . S
H3980 C3966 0.961 . S
H3981 C3967 0.958 . S
H3982 C3967 0.961 . S
H3983 C3967 0.960 . S
C3984 C3985 1.391 . S
C3984 C3986 1.394 . S
C3984 H4000 0.931 . S
C3985 C3984 1.391 . S
C3985 C3989 1.376 . S
C3986 C3984 1.394 . S
C3986 C3987 1.369 . S
C3986 C3990 1.531 . S
C3987 C3986 1.369 . S
C3987 C3988 1.410 . S
C3987 C3995 1.503 . S
C3988 C3987 1.410 . S
C3988 C3989 1.392 . S
C3988 C3991 1.511 . S
C3989 C3985 1.376 . S
C3989 C3988 1.392 . S
C3989 H4001 0.929 . S
C3990 C3986 1.531 . S
C3990 H4002 0.960 . S
C3990 H4003 0.962 . S
C3990 H4004 0.960 . S
C3991 C3988 1.511 . S
C3991 H4005 0.961 . S
C3991 H4006 0.961 . S
C3991 H4007 0.961 . S
C3992 C3993 1.370 . S
C3992 C3994 1.363 . S
C3992 H4008 0.931 . S
C3993 C3992 1.370 . S
C3993 C3997 1.408 . S
C3994 C3992 1.363 . S
C3994 C3995 1.370 . S
C3994 C3998 1.524 . S
C3995 C3987 1.503 . S
C3995 C3994 1.370 . S
C3995 C3996 1.403 . S
C3996 C3995 1.403 . S
C3996 C3997 1.404 . S
C3996 C3999 1.539 . S
C3997 C3993 1.408 . S
C3997 C3996 1.404 . S
C3997 H4009 0.930 . S
C3998 C3994 1.524 . S
C3998 H4010 0.956 . S
C3998 H4011 0.961 . S
C3998 H4012 0.961 . S
C3999 C3996 1.539 . S
C3999 H4013 0.958 . S
C3999 H4014 0.961 . S
C3999 H4015 0.960 . S
H4000 C3984 0.931 . S
H4001 C3989 0.929 . S
H4002 C3990 0.960 . S
H4003 C3990 0.962 . S
H4004 C3990 0.960 . S
H4005 C3991 0.961 . S
H4006 C3991 0.961 . S
H4007 C3991 0.961 . S
H4008 C3992 0.931 . S
H4009 C3997 0.930 . S
H4010 C3998 0.956 . S
H4011 C3998 0.961 . S
H4012 C3998 0.961 . S
H4013 C3999 0.958 . S
H4014 C3999 0.961 . S
H4015 C3999 0.960 . S
C4016 C4017 1.391 . S
C4016 C4018 1.394 . S
C4016 H4032 0.931 . S
C4017 C4016 1.391 . S
C4017 C4021 1.376 . S
C4018 C4016 1.394 . S
C4018 C4019 1.369 . S
C4018 C4022 1.531 . S
C4019 C4018 1.369 . S
C4019 C4020 1.410 . S
C4019 C4027 1.503 . S
C4020 C4019 1.410 . S
C4020 C4021 1.392 . S
C4020 C4023 1.511 . S
C4021 C4017 1.376 . S
C4021 C4020 1.392 . S
C4021 H4033 0.929 . S
C4022 C4018 1.531 . S
C4022 H4034 0.960 . S
C4022 H4035 0.962 . S
C4022 H4036 0.960 . S
C4023 C4020 1.511 . S
C4023 H4037 0.961 . S
C4023 H4038 0.961 . S
C4023 H4039 0.961 . S
C4024 C4025 1.370 . S
C4024 C4026 1.363 . S
C4024 H4040 0.931 . S
C4025 C4024 1.370 . S
C4025 C4029 1.408 . S
C4026 C4024 1.363 . S
C4026 C4027 1.370 . S
C4026 C4030 1.524 . S
C4027 C4019 1.503 . S
C4027 C4026 1.370 . S
C4027 C4028 1.403 . S
C4028 C4027 1.403 . S
C4028 C4029 1.404 . S
C4028 C4031 1.539 . S
C4029 C4025 1.408 . S
C4029 C4028 1.404 . S
C4029 H4041 0.930 . S
C4030 C4026 1.524 . S
C4030 H4042 0.956 . S
C4030 H4043 0.961 . S
C4030 H4044 0.961 . S
C4031 C4028 1.539 . S
C4031 H4045 0.958 . S
C4031 H4046 0.961 . S
C4031 H4047 0.960 . S
H4032 C4016 0.931 . S
H4033 C4021 0.929 . S
H4034 C4022 0.960 . S
H4035 C4022 0.962 . S
H4036 C4022 0.960 . S
H4037 C4023 0.961 . S
H4038 C4023 0.961 . S
H4039 C4023 0.961 . S
H4040 C4024 0.931 . S
H4041 C4029 0.930 . S
H4042 C4030 0.956 . S
H4043 C4030 0.961 . S
H4044 C4030 0.961 . S
H4045 C4031 0.958 . S
H4046 C4031 0.961 . S
H4047 C4031 0.960 . S
C977 C111 1.721 1_455 S
C985 C358 1.735 . S
C1009 C64 1.199 . S
C1017 C378 1.208 . S
C1041 C77 0.592 . S
C1049 C425 0.600 . S
C1081 C482 0.862 . S
C1073 C95 0.924 . S
C1105 C25 2.379 . S
C1113 C499 2.382 . S
C1145 C558 1.827 . S
C1137 C36 1.790 . S
C1177 C591 2.672 . S
C1169 C50 2.568 . S
C1201 C11 2.398 . S
C1209 C638 2.372 . S
C1241 C351 1.483 . S
C1233 C237 1.415 1_545 S
C1265 C245 1.338 . S
C1273 C379 1.318 . S
C1305 C418 0.486 . S
C1297 C279 0.675 1_565 S
C1337 C478 2.067 . S
C1329 C175 2.037 . S
C1361 C231 0.322 . S
C1369 C505 0.333 . S
C1401 C551 2.197 . S
C1393 C251 2.146 . S
C1433 C602 0.517 . S
C1425 C273 0.633 1_565 S
C1465 C631 2.259 . S
C1457 C181 2.147 . S
C1497 C362 1.695 1_565 S
C1489 C165 1.776 . S
C1521 C288 2.101 . S
C1529 C658 2.191 . S
C1561 C722 1.194 . S
C1553 C333 1.208 . S
C1593 C758 1.373 1_655 S
C1585 C316 1.389 . S
C1617 C123 1.298 . S
C1625 C642 1.303 . S
C1649 C137 2.455 . S
C1657 C419 2.457 . S
C1681 C330 1.303 . S
C1689 C791 1.378 . S
C1721 C825 0.329 . S
C1713 C302 0.414 . S
C1753 C339 1.858 . S
C1745 C63 1.829 . S
C1785 C831 1.297 . S
C1777 C106 1.311 . S
C1809 C97 0.764 . S
C1817 C442 0.715 . S
C1841 C81 0.889 . S
C1849 C785 0.964 . S
C1881 C518 2.547 . S
C1873 C13 2.488 . S
C1905 C55 1.731 . S
C1913 C699 1.834 . S
C1945 C578 2.676 1_556 S
C1937 C35 2.650 . S
C1977 C859 2.538 . S
C1969 C21 2.550 1_655 S
C2009 C338 1.543 . S
C2001 C147 1.527 . S
C2041 C838 1.517 . S
C2033 C321 1.464 . S
C2065 C119 0.650 . S
C2073 C431 0.578 . S
C2097 C293 2.002 . S
C2105 C779 2.195 . S
C2129 C153 0.500 . S
C2137 C522 0.455 . S
C2169 C698 2.315 . S
C2161 C315 2.322 . S
C2193 C125 0.535 . S
C2201 C585 0.603 . S
C2225 C287 2.358 . S
C2233 C858 2.361 . S
C2257 C193 1.693 1_556 S
C2265 C345 1.700 . S
C2289 C176 2.159 . S
C2297 C671 2.193 . S
C2321 C263 1.253 . S
C2329 C545 1.238 . S
C2353 C246 1.405 . S
C2361 C739 1.455 . S
C2393 C865 1.273 . S
C2385 C277 1.215 . S
C2417 C221 2.536 . S
C2425 C438 2.537 1_565 S
C2457 C458 1.462 . S
C2449 C260 1.467 . S
C2489 C402 0.484 . S
C2481 C204 0.504 . S
C2513 C83 1.747 . S
C2521 C918 1.747 . S
C2553 C818 1.211 . S
C2545 C92 1.155 . S
C2577 C105 0.587 . S
C2585 C945 0.605 . S
C2609 C67 0.928 . S
C2617 C802 0.866 . S
C2641 C53 2.375 . S
C2649 C659 2.376 . S
C2681 C718 1.826 . S
C2673 C8 1.769 1_655 S
C2713 C751 2.676 . S
C2705 C22 2.565 . S
C2745 C878 2.377 . S
C2737 C39 2.401 . S
C2777 C911 1.481 . S
C2769 C265 1.358 . S
C2801 C189 1.337 . S
C2809 C819 1.330 . S
C2841 C938 0.547 . S
C2833 C209 0.541 . S
C2873 C798 2.068 . S
C2865 C217 2.032 . S
C2905 C665 0.334 . S
C2897 C259 0.345 . S
C2929 C195 2.112 . S
C2937 C711 2.185 . S
C2969 C762 0.517 . S
C2961 C203 0.630 . S
C2993 C223 2.153 . S
C3001 C871 2.257 . S
C3033 C922 1.718 . S
C3025 C319 1.765 . S
C3057 C134 2.100 . S
C3065 C498 2.193 . S
C3097 C562 1.193 . S
C3089 C151 1.204 . S
C3129 C598 1.378 . S
C3121 C162 1.388 . S
C3161 C882 1.273 . S
C3153 C305 1.278 . S
C3185 C291 2.457 . S
C3193 C939 2.459 1_655 S
C3225 C471 1.380 . S
C3217 C148 1.313 . S
C3257 C385 0.298 . S
C3249 C120 0.484 . S
C3281 C91 1.836 . S
C3289 C899 1.866 . S
C3321 C391 1.266 . S
C3313 C78 1.313 . S
C3345 C69 0.648 . S
C3353 C962 0.690 . S
C3377 C109 0.977 . S
C3385 C465 0.917 . S
C3409 C41 2.448 . S
C3417 C678 2.551 . S
C3449 C539 1.836 . S
C3441 C27 1.733 . S
C3473 C7 2.641 . S
C3481 C738 2.656 . S
C3505 C49 2.550 . S
C3513 C619 2.526 . S
C3545 C898 1.545 . S
C3537 C329 1.529 . S
C3569 C167 1.452 . S
C3577 C398 1.511 . S
C3609 C951 0.601 . S
C3601 C301 0.609 . S
C3633 C139 2.004 . S
C3641 C459 2.197 . S
C3665 C335 0.504 . S
C3673 C682 0.455 . S
C3705 C538 2.315 . S
C3697 C161 2.324 1_556 S
C3729 C307 0.563 . S
C3737 C745 0.600 . S
C3769 C618 2.363 . S
C3761 C133 2.367 . S
C3801 C905 1.686 . S
C3793 C249 1.734 . S
C3833 C511 2.199 1_655 S
C3825 C218 2.156 . S
C3857 C235 1.180 . S
C3865 C705 1.262 . S
C3897 C579 1.443 . S
C3889 C190 1.370 . S
C3921 C207 1.282 . S
C3929 C625 1.248 . S
C3953 C179 2.535 . S
C3961 C958 2.540 . S
C3993 C778 1.464 . S
C3985 C232 1.449 . S
C4025 C842 0.479 . S
C4017 C274 0.394 . S
