# Generated by pormake.
# Topology gar, (4,6)-cn, num edge types: 1
# Building blocks:
#     Node 0, Type 0, BuildingBlock: GALJAG_clean_sbu_0, # of connection points: 4
#     Node 1, Type 0, BuildingBlock: GALJAG_clean_sbu_0, # of connection points: 4
#     Node 2, Type 0, BuildingBlock: GALJAG_clean_sbu_0, # of connection points: 4
#     Node 3, Type 0, BuildingBlock: GALJAG_clean_sbu_0, # of connection points: 4
#     Node 4, Type 0, BuildingBlock: GALJAG_clean_sbu_0, # of connection points: 4
#     Node 5, Type 0, BuildingBlock: GALJAG_clean_sbu_0, # of connection points: 4
#     Node 6, Type 0, BuildingBlock: GALJAG_clean_sbu_0, # of connection points: 4
#     Node 7, Type 0, BuildingBlock: GALJAG_clean_sbu_0, # of connection points: 4
#     Node 8, Type 0, BuildingBlock: GALJAG_clean_sbu_0, # of connection points: 4
#     Node 9, Type 0, BuildingBlock: GALJAG_clean_sbu_0, # of connection points: 4
#     Node 10, Type 0, BuildingBlock: GALJAG_clean_sbu_0, # of connection points: 4
#     Node 11, Type 0, BuildingBlock: GALJAG_clean_sbu_0, # of connection points: 4
#     Node 12, Type 0, BuildingBlock: GALJAG_clean_sbu_0, # of connection points: 4
#     Node 13, Type 0, BuildingBlock: GALJAG_clean_sbu_0, # of connection points: 4
#     Node 14, Type 0, BuildingBlock: GALJAG_clean_sbu_0, # of connection points: 4
#     Node 15, Type 0, BuildingBlock: GALJAG_clean_sbu_0, # of connection points: 4
#     Node 16, Type 0, BuildingBlock: GALJAG_clean_sbu_0, # of connection points: 4
#     Node 17, Type 0, BuildingBlock: GALJAG_clean_sbu_0, # of connection points: 4
#     Node 18, Type 0, BuildingBlock: GALJAG_clean_sbu_0, # of connection points: 4
#     Node 19, Type 0, BuildingBlock: GALJAG_clean_sbu_0, # of connection points: 4
#     Node 20, Type 0, BuildingBlock: GALJAG_clean_sbu_0, # of connection points: 4
#     Node 21, Type 0, BuildingBlock: GALJAG_clean_sbu_0, # of connection points: 4
#     Node 22, Type 0, BuildingBlock: GALJAG_clean_sbu_0, # of connection points: 4
#     Node 23, Type 0, BuildingBlock: GALJAG_clean_sbu_0, # of connection points: 4
#     Node 24, Type 1, BuildingBlock: KUMJIN_clean_sbu_1, # of connection points: 6
#     Node 25, Type 1, BuildingBlock: KUMJIN_clean_sbu_1, # of connection points: 6
#     Node 26, Type 1, BuildingBlock: KUMJIN_clean_sbu_1, # of connection points: 6
#     Node 27, Type 1, BuildingBlock: KUMJIN_clean_sbu_1, # of connection points: 6
#     Node 28, Type 1, BuildingBlock: KUMJIN_clean_sbu_1, # of connection points: 6
#     Node 29, Type 1, BuildingBlock: KUMJIN_clean_sbu_1, # of connection points: 6
#     Node 30, Type 1, BuildingBlock: KUMJIN_clean_sbu_1, # of connection points: 6
#     Node 31, Type 1, BuildingBlock: KUMJIN_clean_sbu_1, # of connection points: 6
#     Node 32, Type 1, BuildingBlock: KUMJIN_clean_sbu_1, # of connection points: 6
#     Node 33, Type 1, BuildingBlock: KUMJIN_clean_sbu_1, # of connection points: 6
#     Node 34, Type 1, BuildingBlock: KUMJIN_clean_sbu_1, # of connection points: 6
#     Node 35, Type 1, BuildingBlock: KUMJIN_clean_sbu_1, # of connection points: 6
#     Node 36, Type 1, BuildingBlock: KUMJIN_clean_sbu_1, # of connection points: 6
#     Node 37, Type 1, BuildingBlock: KUMJIN_clean_sbu_1, # of connection points: 6
#     Node 38, Type 1, BuildingBlock: KUMJIN_clean_sbu_1, # of connection points: 6
#     Node 39, Type 1, BuildingBlock: KUMJIN_clean_sbu_1, # of connection points: 6
#     Edge 40, Type (0, 1), None
#     Edge 41, Type (0, 1), None
#     Edge 42, Type (0, 1), None
#     Edge 43, Type (0, 1), None
#     Edge 44, Type (0, 1), None
#     Edge 45, Type (0, 1), None
#     Edge 46, Type (0, 1), None
#     Edge 47, Type (0, 1), None
#     Edge 48, Type (0, 1), None
#     Edge 49, Type (0, 1), None
#     Edge 50, Type (0, 1), None
#     Edge 51, Type (0, 1), None
#     Edge 52, Type (0, 1), None
#     Edge 53, Type (0, 1), None
#     Edge 54, Type (0, 1), None
#     Edge 55, Type (0, 1), None
#     Edge 56, Type (0, 1), None
#     Edge 57, Type (0, 1), None
#     Edge 58, Type (0, 1), None
#     Edge 59, Type (0, 1), None
#     Edge 60, Type (0, 1), None
#     Edge 61, Type (0, 1), None
#     Edge 62, Type (0, 1), None
#     Edge 63, Type (0, 1), None
#     Edge 64, Type (0, 1), None
#     Edge 65, Type (0, 1), None
#     Edge 66, Type (0, 1), None
#     Edge 67, Type (0, 1), None
#     Edge 68, Type (0, 1), None
#     Edge 69, Type (0, 1), None
#     Edge 70, Type (0, 1), None
#     Edge 71, Type (0, 1), None
#     Edge 72, Type (0, 1), None
#     Edge 73, Type (0, 1), None
#     Edge 74, Type (0, 1), None
#     Edge 75, Type (0, 1), None
#     Edge 76, Type (0, 1), None
#     Edge 77, Type (0, 1), None
#     Edge 78, Type (0, 1), None
#     Edge 79, Type (0, 1), None
#     Edge 80, Type (0, 1), None
#     Edge 81, Type (0, 1), None
#     Edge 82, Type (0, 1), None
#     Edge 83, Type (0, 1), None
#     Edge 84, Type (0, 1), None
#     Edge 85, Type (0, 1), None
#     Edge 86, Type (0, 1), None
#     Edge 87, Type (0, 1), None
#     Edge 88, Type (0, 1), None
#     Edge 89, Type (0, 1), None
#     Edge 90, Type (0, 1), None
#     Edge 91, Type (0, 1), None
#     Edge 92, Type (0, 1), None
#     Edge 93, Type (0, 1), None
#     Edge 94, Type (0, 1), None
#     Edge 95, Type (0, 1), None
#     Edge 96, Type (0, 1), None
#     Edge 97, Type (0, 1), None
#     Edge 98, Type (0, 1), None
#     Edge 99, Type (0, 1), None
#     Edge 100, Type (0, 1), None
#     Edge 101, Type (0, 1), None
#     Edge 102, Type (0, 1), None
#     Edge 103, Type (0, 1), None
#     Edge 104, Type (0, 1), None
#     Edge 105, Type (0, 1), None
#     Edge 106, Type (0, 1), None
#     Edge 107, Type (0, 1), None
#     Edge 108, Type (0, 1), None
#     Edge 109, Type (0, 1), None
#     Edge 110, Type (0, 1), None
#     Edge 111, Type (0, 1), None
#     Edge 112, Type (0, 1), None
#     Edge 113, Type (0, 1), None
#     Edge 114, Type (0, 1), None
#     Edge 115, Type (0, 1), None
#     Edge 116, Type (0, 1), None
#     Edge 117, Type (0, 1), None
#     Edge 118, Type (0, 1), None
#     Edge 119, Type (0, 1), None
#     Edge 120, Type (0, 1), None
#     Edge 121, Type (0, 1), None
#     Edge 122, Type (0, 1), None
#     Edge 123, Type (0, 1), None
#     Edge 124, Type (0, 1), None
#     Edge 125, Type (0, 1), None
#     Edge 126, Type (0, 1), None
#     Edge 127, Type (0, 1), None
#     Edge 128, Type (0, 1), None
#     Edge 129, Type (0, 1), None
#     Edge 130, Type (0, 1), None
#     Edge 131, Type (0, 1), None
#     Edge 132, Type (0, 1), None
#     Edge 133, Type (0, 1), None
#     Edge 134, Type (0, 1), None
#     Edge 135, Type (0, 1), None
# Relax obj value: 0.193
# Max RMSD: 0.217
# Mean RMSD: 0.152
data_MOF--net-gar--node1-GALJAG_clean_sbu_0--node2-KUMJIN_clean_sbu_1--edge1-none
_symmetry_space_group_name_H-M    P1
_symmetry_Int_Tables_number       1
_symmetry_cell_setting            triclinic
loop_
_symmetry_equiv_pos_as_xyz
'x, y, z'
_cell_length_a     29.761064
_cell_length_b     29.69493
_cell_length_c     27.193037
_cell_angle_alpha  99.828731
_cell_angle_beta   99.733464
_cell_angle_gamma 104.63782
loop_
_atom_site_label
_atom_site_type_symbol
_atom_site_fract_x
_atom_site_fract_y
_atom_site_fract_z
_atom_type_partial_charge
In0 In 0.12018 0.3892 0.3927 0.0
O1 O 0.19216 0.40657 0.34861 0.0
O2 O 0.19027 0.35257 0.38387 0.0
C3 C 1.01664 0.37017 0.34306 0.0
C4 C 0.10032 0.32809 0.45232 0.0
C5 C 0.11463 0.47056 0.46293 0.0
O6 O 0.04969 0.40784 0.34634 0.0
O7 O 1.0361 0.33952 0.35702 0.0
O8 O 0.1244 0.43454 0.47574 0.0
O9 O 0.11597 0.47008 0.41633 0.0
C10 C 0.21374 0.37471 0.3557 0.0
O11 O 0.12598 0.37083 0.47028 0.0
O12 O 0.08876 0.31528 0.40387 0.0
In13 In 0.07962 0.794 0.73383 0.0
O14 O 0.08068 0.84498 0.68149 0.0
O15 O 0.10721 0.87345 0.76237 0.0
C16 C 0.07371 0.70737 0.66846 0.0
C17 C 0.19307 0.82109 0.76252 0.0
C18 C 0.9735 0.79111 0.75302 0.0
O19 O 0.06941 0.74472 0.65376 0.0
O20 O 0.07675 0.71155 0.71635 0.0
O21 O 1.0088 0.78247 0.78127 0.0
O22 O 0.99149 0.80103 0.71495 0.0
C23 C 0.10321 0.88124 0.71754 0.0
O24 O 0.16438 0.81053 0.79294 0.0
O25 O 0.1651 0.8166 0.71952 0.0
In26 In 0.61852 0.88986 0.89014 0.0
O27 O 0.69011 0.90174 0.84493 0.0
O28 O 0.68802 0.85109 0.88537 0.0
C29 C 0.5163 0.88007 0.84549 0.0
C30 C 0.5826 0.81517 0.9266 0.0
C31 C 0.61742 0.97445 0.95994 0.0
O32 O 0.54624 0.87143 0.81886 0.0
O33 O 0.53758 0.89206 0.89187 0.0
O34 O 0.62572 0.93782 0.97331 0.0
O35 O 0.61947 0.97295 0.91319 0.0
C36 C 0.71098 0.86972 0.85445 0.0
O37 O 0.61552 0.8509 0.95447 0.0
O38 O 0.57321 0.81465 0.87936 0.0
In39 In 0.57901 0.29859 0.23049 0.0
O40 O 0.56986 0.24905 0.15078 0.0
O41 O 0.56863 0.21456 0.21252 0.0
C42 C 0.60476 0.38585 0.21792 0.0
C43 C 0.47487 0.299 0.25278 0.0
C44 C 0.69292 0.32317 0.25528 0.0
O45 O 0.57983 0.35109 0.1811 0.0
O46 O 0.60936 0.37695 0.26223 0.0
O47 O 0.66487 0.31818 0.28716 0.0
O48 O 0.66396 0.31512 0.21195 0.0
C49 C 0.5695 0.2106 0.16543 0.0
O50 O 0.51128 0.29246 0.28145 0.0
O51 O 0.49063 0.30505 0.21235 0.0
In52 In 0.13776 0.85556 0.15287 0.0
O53 O 0.09358 0.77007 0.09338 0.0
O54 O 0.14036 0.77034 0.15631 0.0
C55 C 0.1346 0.95862 0.12641 0.0
C56 C 0.06707 0.8317 0.20012 0.0
C57 C 0.22777 0.86377 0.21528 0.0
O58 O 0.13636 0.91987 0.0972 0.0
O59 O 0.13421 0.94559 0.16912 0.0
O60 O 0.19065 0.86637 0.23107 0.0
O61 O 0.22212 0.86256 0.16754 0.0
C62 C 0.10759 0.74166 0.11978 0.0
O63 O 0.10878 0.85581 0.22427 0.0
O64 O 0.05952 0.82856 0.15232 0.0
In65 In 0.5477 0.81454 0.48817 0.0
O66 O 0.56334 0.8063 0.40948 0.0
O67 O 0.62076 0.84309 0.47441 0.0
C68 C 0.46343 0.81981 0.42236 0.0
C69 C 0.56469 0.72252 0.52639 0.0
C70 C 0.56799 0.9187 0.53483 0.0
O71 O 0.49834 0.80942 0.4074 0.0
O72 O 0.46628 0.81915 0.46937 0.0
O73 O 0.5366 0.88499 0.54309 0.0
O74 O 0.59372 0.90015 0.51016 0.0
C75 C 0.60649 0.83127 0.42606 0.0
O76 O 0.53122 0.7423 0.53128 0.0
O77 O 0.58816 0.74748 0.50031 0.0
In78 In 0.63425 0.35494 0.64673 0.0
O79 O 0.61509 0.26917 0.59007 0.0
O80 O 0.61847 0.27035 0.66554 0.0
C81 C 0.6374 0.45958 0.62623 0.0
C82 C 0.54714 0.33049 0.6602 0.0
C83 C 0.72157 0.36419 0.70948 0.0
O84 O 0.64177 0.42256 0.59643 0.0
O85 O 0.63145 0.44412 0.66678 0.0
O86 O 0.68369 0.36363 0.72525 0.0
O87 O 0.71726 0.36554 0.66255 0.0
C88 C 0.6105 0.24135 0.6222 0.0
O89 O 0.58222 0.3546 0.69691 0.0
O90 O 0.5558 0.32631 0.61576 0.0
In91 In 0.04126 0.31382 0.98089 0.0
O92 O 1.02037 0.23267 0.01237 0.0
O93 O 0.08722 0.25416 0.00372 0.0
C94 C 0.06282 0.41836 0.03095 0.0
C95 C 0.09996 0.3303 0.91835 0.0
C96 C 0.95906 0.32073 0.91187 0.0
O97 O 1.0272 0.38509 0.03301 0.0
O98 O 0.09066 0.39877 0.01096 0.0
O99 O 0.99466 0.31062 0.89824 0.0
O100 O 0.96051 0.31938 0.95872 0.0
C101 C 0.05878 0.21959 0.01527 0.0
O102 O 0.05682 0.30553 0.90196 0.0
O103 O 0.11422 0.34267 0.96656 0.0
In104 In 0.43292 0.05931 0.37717 0.0
O105 O 0.49884 0.08544 0.35116 0.0
O106 O 0.43677 0.04071 0.29671 0.0
C107 C 0.48982 0.06057 0.46276 0.0
C108 C 0.37989 0.10439 0.33987 0.0
C109 C 0.37899 0.97392 0.34765 0.0
O110 O 0.483 0.03041 0.42203 0.0
O111 O 0.46495 0.0896 0.46235 0.0
O112 O 0.36611 1.00569 0.37424 0.0
O113 O 0.42023 0.9852 0.3396 0.0
C114 C 0.48071 0.06037 0.30665 0.0
O115 O 0.36154 0.06806 0.35558 0.0
O116 O 0.42349 0.12611 0.35975 0.0
In117 In 0.30457 0.24335 0.53826 0.0
O118 O 0.31737 0.312 0.61173 0.0
O119 O 0.30738 0.24407 0.62549 0.0
C120 C 0.31669 0.27298 0.43904 0.0
C121 C 0.37147 0.19816 0.56676 0.0
C122 C 0.21654 0.181 0.53429 0.0
O123 O 0.3347 0.29894 0.48421 0.0
O124 O 0.29115 0.23315 0.44323 0.0
O125 O 0.25288 0.16864 0.52733 0.0
O126 O 0.22205 0.22543 0.53749 0.0
C127 C 0.31661 0.28741 0.64618 0.0
O128 O 0.33339 0.17771 0.53352 0.0
O129 O 0.37935 0.24294 0.57849 0.0
In130 In 0.19106 0.12591 0.84242 0.0
O131 O 0.12162 0.10494 0.76875 0.0
O132 O 0.18858 0.13403 0.75635 0.0
C133 C 0.16043 0.1175 0.94254 0.0
C134 C 0.23322 0.05707 0.81315 0.0
C135 C 0.25566 0.21194 0.84281 0.0
O136 O 0.13394 0.10214 0.8974 0.0
O137 O 0.20189 0.13868 0.93812 0.0
O138 O 0.26589 0.17327 0.84249 0.0
O139 O 0.21378 0.20917 0.84968 0.0
C140 C 0.14538 0.11522 0.73505 0.0
O141 O 0.25423 0.09381 0.84819 0.0
O142 O 0.18884 0.05073 0.80137 0.0
In143 In 0.37703 0.99836 1.00259 0.0
O144 O 0.36489 0.92265 0.01314 0.0
O145 O 0.38285 0.98041 0.07814 0.0
C146 C 0.36842 0.95202 0.91057 0.0
C147 C 0.3409 0.05725 0.0483 0.0
C148 C 0.46293 0.05376 0.03119 0.0
O149 O 0.40679 0.96618 0.94356 0.0
O150 O 0.33371 0.96627 0.92151 0.0
O151 O 0.4303 0.06646 0.00633 0.0
O152 O 0.45237 1.01177 0.03789 0.0
C153 C 0.3763 0.93668 0.06096 0.0
O154 O 0.3757 0.07258 0.02922 0.0
O155 O 0.31647 1.01381 0.03082 0.0
In156 In 0.38637 0.42604 0.07657 0.0
O157 O 0.35155 0.36202 0.11584 0.0
O158 O 0.3937 0.42516 0.16571 0.0
C159 C 0.36963 0.38221 0.97132 0.0
C160 C 0.32025 0.47344 0.06139 0.0
C161 C 0.4756 0.49188 0.08758 0.0
O162 O 0.38107 0.36133 0.00672 0.0
O163 O 0.36762 0.42317 0.98915 0.0
O164 O 0.43683 0.50178 0.08561 0.0
O165 O 0.47099 0.44793 0.08669 0.0
C166 C 0.36668 0.3839 0.16233 0.0
O167 O 0.36022 0.49231 0.09192 0.0
O168 O 0.31178 0.42927 0.04401 0.0
In169 In 0.79629 0.17297 0.12977 0.0
O170 O 0.80251 0.12217 0.0649 0.0
O171 O 0.86278 0.1514 0.12941 0.0
C172 C 0.71127 0.12862 0.12924 0.0
C173 C 0.82216 0.25271 0.19697 0.0
C174 C 0.79107 0.21347 0.05467 0.0
O175 O 0.74345 0.10835 0.13953 0.0
O176 O 0.72424 0.17256 0.13196 0.0
O177 O 0.82833 0.22664 0.08945 0.0
O178 O 0.75889 0.1772 0.05578 0.0
C179 C 0.84612 0.12949 0.0828 0.0
O180 O 0.78951 0.24346 0.15803 0.0
O181 O 0.84073 0.21959 0.20502 0.0
In182 In 0.26426 0.63984 0.24971 0.0
O183 O 0.32439 0.63407 0.30604 0.0
O184 O 0.28134 0.57034 0.25184 0.0
C185 C 0.30132 0.72344 0.23644 0.0
C186 C 0.18304 0.60661 0.18409 0.0
C187 C 0.23404 0.66264 0.3312 0.0
O188 O 0.32547 0.69381 0.23559 0.0
O189 O 0.2572 0.70604 0.22875 0.0
O190 O 0.2221 0.62038 0.30531 0.0
O191 O 0.2651 0.69285 0.31866 0.0
C192 C 0.3124 0.58923 0.29328 0.0
O193 O 0.18797 0.63012 0.22838 0.0
O194 O 0.2199 0.59746 0.17201 0.0
In195 In 0.88993 0.91891 0.57816 0.0
O196 O 0.86185 0.85015 0.61501 0.0
O197 O 0.88718 0.9166 0.66503 0.0
C198 C 0.87042 0.87862 0.47188 0.0
C199 C 0.82539 0.96759 0.56572 0.0
C200 C 0.97897 0.98617 0.59054 0.0
O201 O 0.88484 0.85749 0.50573 0.0
O202 O 0.86649 0.91832 0.49146 0.0
O203 O 0.94011 0.99532 0.59058 0.0
O204 O 0.97484 0.94197 0.58703 0.0
C205 C 0.8682 0.87261 0.66084 0.0
O206 O 0.86483 0.98485 0.5974 0.0
O207 O 0.81618 0.92379 0.54564 0.0
In208 In 1.01145 0.04298 0.30161 0.0
O209 O 0.07643 0.0739 0.26177 0.0
O210 O 1.01 0.0419 0.21309 0.0
C211 C 0.05259 0.06253 0.4084 0.0
C212 C 0.9627 0.10675 0.3151 0.0
C213 C 0.94566 0.95366 0.28868 0.0
O214 O 0.07469 0.05123 0.37404 0.0
O215 O 1.01156 0.06311 0.38897 0.0
O216 O 0.93607 0.9925 0.28968 0.0
O217 O 0.98979 0.95809 0.2917 0.0
C218 C 0.05278 0.06433 0.21603 0.0
O219 O 0.94495 0.06672 0.28446 0.0
O220 O 1.00678 0.1169 0.33347 0.0
In221 In 0.2946 0.66512 0.62325 0.0
O222 O 0.30104 0.59997 0.57469 0.0
O223 O 0.36441 0.64855 0.62417 0.0
C224 C 0.21182 0.63684 0.64334 0.0
C225 C 0.33067 0.75103 0.68123 0.0
C226 C 0.26603 0.68247 0.53625 0.0
O227 O 0.24022 0.61149 0.64814 0.0
O228 O 0.23016 0.67926 0.642 0.0
O229 O 0.30848 0.70003 0.56143 0.0
O230 O 0.23946 0.65074 0.55189 0.0
C231 C 0.3458 0.61414 0.58554 0.0
O232 O 0.30778 0.74364 0.63609 0.0
O233 O 0.3378 0.71468 0.69655 0.0
In234 In 0.51201 0.54198 0.80002 0.0
O235 O 0.44489 0.56245 0.77593 0.0
O236 O 0.50387 0.61567 0.82686 0.0
C237 C 0.44382 0.45357 0.78972 0.0
C238 C 0.55869 0.56381 0.71787 0.0
C239 C 0.55305 0.56439 0.90618 0.0
O240 O 0.436 0.49337 0.79367 0.0
O241 O 0.48714 0.45648 0.78905 0.0
O242 O 0.57174 0.54524 0.87254 0.0
O243 O 0.51569 0.57287 0.88641 0.0
C244 C 0.46045 0.60366 0.80453 0.0
O245 O 0.581 0.56988 0.76363 0.0
O246 O 0.51485 0.54453 0.71345 0.0
In247 In 0.76753 0.13124 0.75233 0.0
O248 O 0.83489 0.12934 0.80005 0.0
O249 O 0.7864 0.06303 0.75606 0.0
C250 C 0.80123 0.21903 0.74876 0.0
C251 C 0.68574 0.10432 0.6871 0.0
C252 C 0.73775 0.14141 0.83462 0.0
O253 O 0.82206 0.18894 0.73231 0.0
O254 O 0.76117 0.20295 0.75768 0.0
O255 O 0.72146 0.10268 0.80155 0.0
O256 O 0.77366 0.17148 0.82926 0.0
C257 C 0.82199 0.08457 0.79275 0.0
O258 O 0.69237 0.12858 0.73123 0.0
O259 O 0.72127 0.0923 0.67461 0.0
In260 In 0.80628 0.74141 0.04042 0.0
O261 O 0.84127 0.68054 0.0341 0.0
O262 O 0.88264 0.74743 0.07977 0.0
C263 C 0.72076 0.67548 0.0388 0.0
C264 C 0.81763 0.78789 0.14676 0.0
C265 C 0.81402 0.77022 0.94139 0.0
O266 O 0.76023 0.66662 0.04264 0.0
O267 O 0.72294 0.71676 0.03011 0.0
O268 O 0.83078 0.7974 0.98598 0.0
O269 O 0.79175 0.7292 0.94593 0.0
C270 C 0.87839 0.70337 0.0679 0.0
O271 O 0.82272 0.81165 0.11199 0.0
O272 O 0.80311 0.744 0.12694 0.0
In273 In 0.92451 0.56604 0.88483 0.0
O274 O 0.85894 0.57264 0.91091 0.0
O275 O 0.90184 0.63147 0.88819 0.0
C276 C 0.87645 0.47753 0.84289 0.0
C277 C 0.96294 0.58035 0.80774 0.0
C278 C 0.98702 0.56154 0.96401 0.0
O279 O 0.8564 0.50716 0.86096 0.0
O280 O 0.92059 0.49258 0.84704 0.0
O281 O 0.97143 0.5289 0.92447 0.0
O282 O 0.96971 0.59627 0.96522 0.0
C283 C 0.86174 0.61133 0.8965 0.0
O284 O 0.98296 0.60307 0.8529 0.0
O285 O 0.91873 0.56251 0.80067 0.0
In286 In 0.86186 0.50007 0.48818 0.0
O287 O 0.82915 0.43648 0.51515 0.0
O288 O 0.85917 0.50206 0.57005 0.0
C289 C 0.87088 0.44184 0.40855 0.0
C290 C 0.81483 0.5616 0.47684 0.0
C291 C 0.94998 0.54692 0.53324 0.0
O292 O 0.90369 0.46003 0.44754 0.0
O293 O 0.83346 0.45471 0.40796 0.0
O294 O 0.92084 0.56846 0.51754 0.0
O295 O 0.93424 0.50256 0.52668 0.0
C296 C 0.84725 0.45719 0.56132 0.0
O297 O 0.85321 0.56486 0.46174 0.0
O298 O 0.79595 0.5217 0.48647 0.0
In299 In 0.68838 0.62942 0.34034 0.0
O300 O 0.75329 0.60009 0.34569 0.0
O301 O 0.68776 0.55386 0.30192 0.0
C302 C 0.74964 0.71829 0.34728 0.0
C303 C 0.64534 0.61515 0.23298 0.0
C304 C 0.65929 0.61909 0.43801 0.0
O305 O 0.76218 0.68185 0.35361 0.0
O306 O 0.70501 0.71201 0.34179 0.0
O307 O 0.63269 0.60106 0.39333 0.0
O308 O 0.69945 0.64355 0.434 0.0
C309 C 0.73235 0.56148 0.3133 0.0
O310 O 0.62045 0.61389 0.26707 0.0
O311 O 0.68888 0.62693 0.25372 0.0
Eu312 Eu 0.16311 0.14764 0.13201 0.0
C313 C 1.00885 0.94275 0.97929 0.0
N314 N 1.02795 0.98613 0.9624 0.0
C315 C 0.04179 0.90355 0.85867 0.0
C316 C 1.00541 0.86037 0.93016 0.0
C317 C 0.04313 0.984 0.91203 0.0
C318 C 1.02356 0.85573 0.8793 0.0
C319 C 0.9643 0.88954 0.05141 0.0
C320 C 0.98781 0.94211 0.03267 0.0
C321 C 0.9607 0.83035 0.01892 0.0
C322 C 0.97994 0.81522 0.96108 0.0
Eu323 Eu 0.04574 0.05101 0.03723 0.0
N324 N 0.99346 0.98455 0.06206 0.0
C325 C 0.94563 0.89792 0.09434 0.0
C326 C 0.96891 0.98607 0.10036 0.0
C327 C 0.94644 0.94475 0.11663 0.0
H328 H 0.05528 1.01994 0.90504 0.0
H329 H 0.92939 0.94958 0.14852 0.0
H330 H 0.17916 0.15941 0.27171 0.0
H331 H 0.23468 0.28984 0.00783 0.0
H332 H 0.96716 1.02016 0.12015 0.0
H333 H 0.92861 0.86826 0.10951 0.0
H334 H 0.16878 0.20571 0.00865 0.0
H335 H 0.05235 0.89487 0.82234 0.0
H336 H 0.94484 0.80119 0.03531 0.0
H337 H 0.97562 0.7782 0.94446 0.0
H338 H 0.11068 0.26188 0.32219 0.0
H339 H 1.02685 0.82194 0.86261 0.0
H340 H 0.26914 0.36617 0.0893 0.0
N341 N 0.21753 0.22038 0.2319 0.0
C342 C 0.22052 0.28184 0.21759 0.0
C343 C 0.13772 0.26303 0.29929 0.0
C344 C 0.19396 0.32173 0.24097 0.0
C345 C 0.18356 0.19628 0.26816 0.0
C346 C 0.15257 0.3116 0.27526 0.0
N347 N 0.1637 0.22861 0.09607 0.0
C348 C 0.18102 0.23405 0.04252 0.0
C349 C 0.23305 0.33578 0.15413 0.0
C350 C 0.19555 0.28832 0.16455 0.0
C351 C 0.24746 0.33359 0.09563 0.0
C352 C 0.22331 0.28616 0.04303 0.0
H353 H 0.13378 0.33793 0.28239 0.0
H354 H 0.20323 0.39892 0.2526 0.0
H355 H 0.25333 0.41153 0.18737 0.0
O356 O 0.20496 0.10552 0.10131 0.0
O357 O 0.11172 0.17858 0.07259 0.0
O358 O 0.0456 0.12725 0.01634 0.0
O359 O 0.22568 0.1451 0.18325 0.0
O360 O 0.17053 0.13406 0.04259 0.0
O361 O 0.09946 0.08133 0.98874 0.0
O362 O 1.00041 0.08628 0.06935 0.0
O363 O 0.0931 1.00305 0.06623 0.0
O364 O 0.14643 0.05755 0.1363 0.0
O365 O 0.97357 0.03474 0.99287 0.0
O366 O 0.05363 0.05132 0.12384 0.0
O367 O 0.10764 0.11836 0.17732 0.0
C368 C 0.07214 0.17283 0.03582 0.0
C369 C 0.26577 0.0889 0.1582 0.0
C370 C 0.34087 0.07961 0.0996 0.0
C371 C 0.39206 0.09784 0.14651 0.0
C372 C 0.30225 0.10726 0.21758 0.0
C373 C 0.39082 0.11492 0.20997 0.0
C374 C 0.28533 0.07507 0.10561 0.0
C375 C 0.14332 0.11063 0.99467 0.0
C376 C 0.2285 0.11012 0.14839 0.0
C377 C 0.21128 0.36881 0.2314 0.0
C378 C 0.23733 0.37601 0.19215 0.0
C379 C 0.12554 1.00951 0.10946 0.0
C380 C 0.93337 0.09143 0.01757 0.0
C381 C 0.87662 0.12608 0.04753 0.0
C382 C 0.87748 0.15238 0.00907 0.0
C383 C 0.9354 0.1172 0.97896 0.0
C384 C 0.90449 0.09613 0.05176 0.0
C385 C 0.90721 0.14808 0.97491 0.0
C386 C 0.07227 0.07906 0.17005 0.0
C387 C 0.96462 0.06387 0.02985 0.0
H388 H 0.42558 0.09724 0.13641 0.0
H389 H 0.28682 0.1172 0.25015 0.0
H390 H 0.42457 0.12628 0.23839 0.0
H391 H 0.25886 0.06367 0.06986 0.0
H392 H 0.85519 0.17579 0.00534 0.0
H393 H 0.95885 0.114 0.95299 0.0
H394 H 0.90407 0.07673 0.0823 0.0
H395 H 0.908 0.16821 0.94527 0.0
Eu396 Eu 0.30792 0.84355 0.36951 0.0
C397 C 0.44202 0.7914 0.21337 0.0
N398 N 0.45403 0.82735 0.25573 0.0
C399 C 0.53673 0.83506 0.25998 0.0
C400 C 0.47724 0.77572 0.19289 0.0
C401 C 0.50063 0.84661 0.28149 0.0
C402 C 0.52465 0.801 0.2142 0.0
C403 C 0.38322 0.74132 0.13914 0.0
C404 C 0.3963 0.77763 0.18412 0.0
C405 C 0.4165 0.71938 0.12375 0.0
C406 C 0.46422 0.73911 0.14854 0.0
Eu407 Eu 0.39227 0.86035 0.27398 0.0
N408 N 0.36784 0.80569 0.19397 0.0
C409 C 0.34042 0.73461 0.10576 0.0
C410 C 0.33297 0.80676 0.15512 0.0
C411 C 0.31936 0.77153 0.11029 0.0
H412 H 0.51041 0.87495 0.31547 0.0
H413 H 0.29327 0.77374 0.07918 0.0
H414 H 0.18943 0.80147 0.33118 0.0
H415 H 0.40632 1.02145 0.49832 0.0
H416 H 0.31631 0.83503 0.15716 0.0
H417 H 0.32807 0.70489 0.07294 0.0
H418 H 0.39861 0.94851 0.43526 0.0
H419 H 0.57372 0.85377 0.27732 0.0
H420 H 0.40703 0.69207 0.08869 0.0
H421 H 0.49086 0.72738 0.1317 0.0
H422 H 0.12121 0.80151 0.37122 0.0
H423 H 0.55193 0.79507 0.19471 0.0
H424 H 0.34281 1.02563 0.54481 0.0
N425 N 0.23846 0.85555 0.39161 0.0
C426 C 0.24434 0.88968 0.43413 0.0
C427 C 0.15598 0.82559 0.39015 0.0
C428 C 0.20681 0.89045 0.45874 0.0
C429 C 0.19429 0.82634 0.36697 0.0
C430 C 0.16317 0.85683 0.4374 0.0
N431 N 0.32563 0.9165 0.43426 0.0
C432 C 0.36816 0.95178 0.45067 0.0
C433 C 0.29477 0.95875 0.4984 0.0
C434 C 0.2887 0.9215 0.45556 0.0
C435 C 0.33752 0.99526 0.51374 0.0
C436 C 0.3735 0.99281 0.48788 0.0
H437 H 0.13449 0.85827 0.45611 0.0
H438 H 0.18543 0.92289 0.52416 0.0
H439 H 0.26227 0.98585 0.55795 0.0
O440 O 0.32987 0.81351 0.43314 0.0
O441 O 0.31517 0.9146 0.3541 0.0
O442 O 0.37893 0.89565 0.34376 0.0
O443 O 0.26049 0.77995 0.37946 0.0
O444 O 0.38308 0.83275 0.39894 0.0
O445 O 0.43679 0.85097 0.34755 0.0
O446 O 0.3858 0.92128 0.24217 0.0
O447 O 0.3664 0.78753 0.28287 0.0
O448 O 0.29299 0.78965 0.2936 0.0
O449 O 0.45576 0.91284 0.2674 0.0
O450 O 0.31425 0.86481 0.23987 0.0
O451 O 0.26182 0.8428 0.29248 0.0
C452 C 0.35416 0.92536 0.33944 0.0
C453 C 0.26762 0.77008 0.46239 0.0
C454 C 0.24655 0.71365 0.51197 0.0
C455 C 0.22705 0.74428 0.54127 0.0
C456 C 0.25271 0.80307 0.49404 0.0
C457 C 0.23025 0.78942 0.53216 0.0
C458 C 0.26575 0.72613 0.47225 0.0
C459 C 0.42544 0.8349 0.3878 0.0
C460 C 0.28923 0.78008 0.42123 0.0
C461 C 0.21405 0.92364 0.5046 0.0
C462 C 0.25767 0.95872 0.52387 0.0
C463 C 0.32107 0.76969 0.27087 0.0
C464 C 0.4297 0.9125 0.1809 0.0
C465 C 0.39685 0.91038 0.09353 0.0
C466 C 0.42761 0.88516 0.07725 0.0
C467 C 0.45851 0.88462 0.16446 0.0
C468 C 0.39764 0.92334 0.14505 0.0
C469 C 0.45725 0.87073 0.11264 0.0
C470 C 0.27083 0.8575 0.25069 0.0
C471 C 0.42871 0.92704 0.23448 0.0
H472 H 0.2145 0.73541 0.57455 0.0
H473 H 0.2617 0.83963 0.49244 0.0
H474 H 0.21881 0.81477 0.55696 0.0
H475 H 0.28298 0.70305 0.45175 0.0
H476 H 0.4312 0.87953 0.03801 0.0
H477 H 0.48434 0.8764 0.19143 0.0
H478 H 0.37545 0.94502 0.15754 0.0
H479 H 0.48121 0.85141 0.10031 0.0
Eu480 Eu 0.53206 0.0651 0.61889 0.0
C481 C 0.64509 0.16596 0.48176 0.0
N482 N 0.62894 0.11773 0.47124 0.0
C483 C 0.5952 0.11691 0.38607 0.0
C484 C 0.62674 0.19113 0.44841 0.0
C485 C 0.6073 0.09252 0.42304 0.0
C486 C 0.60066 0.16581 0.39978 0.0
C487 C 0.68664 0.23952 0.54367 0.0
C488 C 0.67616 0.18994 0.52807 0.0
C489 C 0.66553 0.26468 0.51194 0.0
C490 C 0.6336 0.23989 0.46553 0.0
Eu491 Eu 0.63657 0.08474 0.54225 0.0
N492 N 0.68569 0.1639 0.56307 0.0
C493 C 0.71117 0.26109 0.59408 0.0
C494 C 0.71535 0.18495 0.60982 0.0
C495 C 0.72724 0.23421 0.62687 0.0
H496 H 0.59868 0.05401 0.41392 0.0
H497 H 0.7475 0.25131 0.66541 0.0
H498 H 0.61282 0.08691 0.74801 0.0
H499 H 0.4101 0.89954 0.48752 0.0
H500 H 0.72545 0.16375 0.63549 0.0
H501 H 0.71938 0.2989 0.60701 0.0
H502 H 0.46699 0.9805 0.51057 0.0
H503 H 0.57982 0.0978 0.34762 0.0
H504 H 0.67079 0.30263 0.52469 0.0
H505 H 0.61415 0.25853 0.44314 0.0
H506 H 0.6452 0.0353 0.813 0.0
H507 H 0.58655 0.1838 0.37208 0.0
H508 H 0.37459 0.86554 0.54704 0.0
N509 N 0.5483 1.02859 0.69014 0.0
C510 C 0.51271 0.97541 0.67386 0.0
C511 C 0.61415 1.0166 0.78267 0.0
C512 C 0.53335 0.92219 0.73135 0.0
C513 C 0.59357 0.04955 0.739 0.0
C514 C 0.58643 0.95633 0.78115 0.0
N515 N 0.47817 0.98412 0.58991 0.0
C516 C 0.45698 0.96297 0.54031 0.0
C517 C 0.43747 0.90265 0.61297 0.0
C518 C 0.47242 0.95765 0.62578 0.0
C519 C 0.40656 0.89511 0.56322 0.0
C520 C 0.42358 0.918 0.527 0.0
H521 H 0.60304 0.93997 0.80812 0.0
H522 H 0.52359 0.90117 0.73063 0.0
H523 H 0.43961 0.81016 0.67352 0.0
O524 O 0.46126 0.06703 0.58565 0.0
O525 O 0.5504 0.99267 0.58321 0.0
O526 O 0.59949 1.00263 0.52517 0.0
O527 O 0.48454 0.08148 0.66838 0.0
O528 O 0.53393 0.09278 0.54797 0.0
O529 O 0.56348 0.04891 0.49408 0.0
O530 O 0.70344 0.07123 0.57212 0.0
O531 O 0.62018 0.15829 0.5802 0.0
O532 O 0.56736 0.15254 0.63279 0.0
O533 O 0.67751 0.0614 0.48901 0.0
O534 O 0.63012 0.05978 0.61241 0.0
O535 O 0.60432 0.10529 0.66741 0.0
C536 C 0.57297 0.97419 0.54908 0.0
C537 C 0.42102 0.11118 0.63387 0.0
C538 C 0.38753 0.17239 0.60569 0.0
C539 C 0.37443 0.18051 0.6531 0.0
C540 C 0.40367 0.11768 0.67848 0.0
C541 C 0.38029 0.15201 0.68786 0.0
C542 C 0.41057 0.13677 0.59575 0.0
C543 C 0.52798 0.06374 0.50476 0.0
C544 C 0.45007 0.07778 0.62945 0.0
C545 C 0.50164 0.86733 0.72129 0.0
C546 C 0.45705 0.84768 0.67427 0.0
C547 C 0.59812 0.18124 0.6111 0.0
C548 C 0.75072 0.0429 0.51688 0.0
C549 C 0.80644 0.99826 0.53634 0.0
C550 C 0.82504 1.00831 0.49384 0.0
C551 C 0.76839 0.05132 0.47362 0.0
C552 C 0.76965 1.0162 0.54834 0.0
C553 C 0.80572 0.03426 0.46239 0.0
C554 C 0.63944 0.09144 0.65372 0.0
C555 C 0.70954 0.05797 0.52609 0.0
H556 H 0.35912 0.20857 0.66389 0.0
H557 H 0.41001 0.0975 0.70728 0.0
H558 H 0.36827 0.15781 0.72319 0.0
H559 H 0.42149 0.13027 0.55979 0.0
H560 H 0.85441 0.99596 0.48459 0.0
H561 H 0.75322 0.07091 0.44846 0.0
H562 H 0.75492 1.00817 0.58078 0.0
H563 H 0.81946 0.04084 0.42908 0.0
Eu564 Eu 0.39192 0.30086 0.81709 0.0
C565 C 0.25044 0.38833 0.70668 0.0
N566 N 0.28559 0.41081 0.7495 0.0
C567 C 0.3082 0.4802 0.7152 0.0
C568 C 0.24522 0.41067 0.66461 0.0
C569 C 0.31301 0.45655 0.75492 0.0
C570 C 0.27505 0.45687 0.66963 0.0
C571 C 0.17574 0.32092 0.65183 0.0
C572 C 0.22028 0.34336 0.70511 0.0
C573 C 0.17714 0.34446 0.61211 0.0
C574 C 0.21116 0.38821 0.6185 0.0
Eu575 Eu 0.30075 0.36619 0.81105 0.0
N576 N 0.23035 0.31943 0.75242 0.0
C577 C 0.13383 0.26832 0.64505 0.0
C578 C 0.20343 0.27194 0.76674 0.0
C579 C 0.15446 0.23236 0.72644 0.0
H580 H 0.33876 0.47506 0.79013 0.0
H581 H 0.13567 0.20109 0.73847 0.0
H582 H 0.35263 0.19051 0.8368 0.0
H583 H 0.54057 0.48265 0.91243 0.0
H584 H 0.20729 0.2692 0.80548 0.0
H585 H 0.10543 0.25517 0.61032 0.0
H586 H 0.4944 0.42849 0.89408 0.0
H587 H 0.33042 0.5163 0.71958 0.0
H588 H 0.15088 0.32959 0.57643 0.0
H589 H 0.20959 0.40607 0.58691 0.0
H590 H 0.36394 0.1468 0.9047 0.0
H591 H 0.27205 0.47543 0.63874 0.0
H592 H 0.59185 0.40566 0.00713 0.0
N593 N 0.40433 0.25507 0.87883 0.0
C594 C 0.44127 0.27604 0.92044 0.0
C595 C 0.38536 0.18336 0.90999 0.0
C596 C 0.45052 0.25132 0.95953 0.0
C597 C 0.37822 0.20868 0.87209 0.0
C598 C 0.42107 0.20493 0.95407 0.0
N599 N 0.44966 0.35144 0.8865 0.0
C600 C 0.46676 0.40316 0.878 0.0
C601 C 0.51978 0.3413 0.97063 0.0
C602 C 0.46926 0.32216 0.92411 0.0
C603 C 0.55863 0.3966 0.97913 0.0
C604 C 0.52167 0.44296 0.91506 0.0
H605 H 0.42666 0.18471 0.98302 0.0
H606 H 0.49234 0.25276 0.03336 0.0
H607 H 0.54976 0.33012 0.04327 0.0
O608 O 0.46092 0.31522 0.80164 0.0
O609 O 0.37209 0.32358 0.89541 0.0
O610 O 0.36035 0.39302 0.88263 0.0
O611 O 0.4191 0.24155 0.78737 0.0
O612 O 0.41027 0.36675 0.78039 0.0
O613 O 0.37442 0.41711 0.82049 0.0
O614 O 0.26381 0.36598 0.87304 0.0
O615 O 0.31497 0.34142 0.72863 0.0
O616 O 0.34532 0.2786 0.73451 0.0
O617 O 0.26781 0.42278 0.83257 0.0
O618 O 0.28443 0.29755 0.84339 0.0
O619 O 0.31929 0.24732 0.80208 0.0
C620 C 0.36569 0.36485 0.91423 0.0
C621 C 0.47723 0.2631 0.73868 0.0
C622 C 0.51109 0.29193 0.67086 0.0
C623 C 0.50944 0.24495 0.64944 0.0
C624 C 0.48501 0.21918 0.72263 0.0
C625 C 0.50009 0.20993 0.67745 0.0
C626 C 0.49276 0.30051 0.71424 0.0
C627 C 0.40611 0.41014 0.79391 0.0
C628 C 0.45871 0.27121 0.78445 0.0
C629 C 0.48798 0.27203 0.00327 0.0
C630 C 0.52171 0.31596 0.00889 0.0
C631 C 0.32754 0.30466 0.7059 0.0
C632 C 0.19938 0.39794 0.86676 0.0
C633 C 0.12488 0.35818 0.88664 0.0
C634 C 0.10308 0.38875 0.86423 0.0
C635 C 0.17806 0.43049 0.84867 0.0
C636 C 0.1729 0.36248 0.88752 0.0
C637 C 0.12991 0.42509 0.8458 0.0
C638 C 0.28821 0.25414 0.82928 0.0
C639 C 0.24978 0.40302 0.86686 0.0
H640 H 0.5208 0.23655 0.61419 0.0
H641 H 0.4783 0.19174 0.74429 0.0
H642 H 0.50475 0.17563 0.66443 0.0
H643 H 0.49374 0.33682 0.73053 0.0
H644 H 0.06637 0.38695 0.86479 0.0
H645 H 0.1992 0.46079 0.83821 0.0
H646 H 0.18973 0.33934 0.90578 0.0
H647 H 0.11417 0.45043 0.83128 0.0
Eu648 Eu 0.1315 0.04033 0.56232 0.0
C649 C 1.0303 0.18215 0.66432 0.0
N650 N 1.01233 0.14365 0.62409 0.0
C651 C 0.93804 0.1239 0.6499 0.0
C652 C 1.00232 0.19276 0.69951 0.0
C653 C 0.96664 0.11525 0.61584 0.0
C654 C 0.95609 0.16233 0.69212 0.0
C655 C 0.09105 0.26427 0.71169 0.0
C656 C 0.0769 0.21005 0.67112 0.0
C657 C 0.06322 0.26716 0.74759 0.0
C658 C 1.02002 0.23223 0.74162 0.0
Eu659 Eu 0.06463 0.12882 0.57138 0.0
N660 N 0.11143 0.1872 0.64353 0.0
C661 C 0.14715 0.30266 0.72465 0.0
C662 C 0.16644 0.20382 0.64549 0.0
C663 C 0.20079 0.25834 0.6783 0.0
H664 H 0.95185 0.0863 0.58247 0.0
H665 H 0.23851 0.26713 0.68048 0.0
H666 H 0.24239 0.08038 0.54222 0.0
H667 H 0.95175 0.88894 0.46647 0.0
H668 H 0.18476 0.17902 0.63371 0.0
H669 H 0.15635 0.33609 0.75342 0.0
H670 H 1.00534 0.93582 0.48461 0.0
H671 H 0.90196 0.10104 0.64342 0.0
H672 H 0.07524 0.29653 0.78086 0.0
H673 H 0.99883 0.23733 0.7697 0.0
H674 H 0.28509 0.07083 0.47342 0.0
H675 H 0.93355 0.1688 0.71832 0.0
H676 H 1.02933 0.84009 0.37019 0.0
N677 N 0.17781 1.0281 0.50041 0.0
C678 C 0.15709 0.9914 0.45835 0.0
C679 C 0.24887 0.04879 0.46834 0.0
C680 C 0.1818 0.98276 0.419 0.0
C681 C 0.22397 0.0548 0.50687 0.0
C682 C 0.22756 1.01316 0.42411 0.0
N683 N 0.08188 0.98173 0.49253 0.0
C684 C 1.03033 0.96374 0.50092 0.0
C685 C 0.09289 0.91218 0.40778 0.0
C686 C 0.11139 0.96284 0.4546 0.0
C687 C 1.03794 0.87274 0.3989 0.0
C688 C 0.99118 0.90857 0.46345 0.0
H689 H 0.24768 1.00817 0.39494 0.0
H690 H 0.18166 0.94026 0.34586 0.0
H691 H 0.10598 0.88065 0.33673 0.0
O692 O 0.1193 0.97041 0.57583 0.0
O693 O 0.11023 0.06145 0.48504 0.0
O694 O 0.04018 0.07092 0.4973 0.0
O695 O 0.19174 1.01581 0.59476 0.0
O696 O 0.06569 1.02038 0.59908 0.0
O697 O 1.01477 0.05457 0.55819 0.0
O698 O 0.0725 0.17157 0.51489 0.0
O699 O 0.08981 0.11588 0.65394 0.0
O700 O 0.15341 0.08712 0.64567 0.0
O701 O 1.0109 0.16503 0.5484 0.0
O702 O 0.13347 0.15625 0.54237 0.0
O703 O 0.18288 0.11242 0.5674 0.0
C704 C 0.06905 0.06728 0.46597 0.0
C705 C 0.17039 0.9545 0.6403 0.0
C706 C 0.14098 0.91828 0.70675 0.0
C707 C 0.188 0.92116 0.72883 0.0
C708 C 0.21431 0.94699 0.65656 0.0
C709 C 0.22316 0.93102 0.70125 0.0
C710 C 0.13246 0.93701 0.66345 0.0
C711 C 1.02206 1.02362 0.58542 0.0
C712 C 0.16322 0.97459 0.59532 0.0
C713 C 0.16207 0.94451 0.37567 0.0
C714 C 0.11905 0.90967 0.37039 0.0
C715 C 0.12738 0.10382 0.67548 0.0
C716 C 1.03445 0.23186 0.50983 0.0
C717 C 0.06973 0.30382 0.48228 0.0
C718 C 1.0326 0.32206 0.49359 0.0
C719 C 0.99514 0.24847 0.51533 0.0
C720 C 0.0712 0.25917 0.49124 0.0
C721 C 0.99517 0.29419 0.50964 0.0
C722 C 0.17466 0.14659 0.54522 0.0
C723 C 1.03343 0.18335 0.51602 0.0
H724 H 0.19639 0.90997 0.76415 0.0
H725 H 0.24199 0.95444 0.63534 0.0
H726 H 0.25732 0.92626 0.71456 0.0
H727 H 0.09622 0.93538 0.64655 0.0
H728 H 1.03078 0.3564 0.48633 0.0
H729 H 0.96372 0.22532 0.52227 0.0
H730 H 0.09966 0.24514 0.48163 0.0
H731 H 0.96503 0.30703 0.51515 0.0
Eu732 Eu 0.36643 0.90342 0.75358 0.0
C733 C 0.29182 0.75917 0.89721 0.0
N734 N 0.33339 0.7938 0.90473 0.0
C735 C 0.35345 0.78993 0.99209 0.0
C736 C 0.27915 0.73954 0.93769 0.0
C737 C 0.36305 0.81176 0.95188 0.0
C738 C 0.31164 0.75304 0.9839 0.0
C739 C 0.21607 0.71255 0.84253 0.0
C740 C 0.26261 0.74125 0.84855 0.0
C741 C 0.2034 0.69345 0.88353 0.0
C742 C 0.23577 0.70486 0.93019 0.0
Eu743 Eu 0.35553 0.80767 0.83015 0.0
N744 N 0.27861 0.75355 0.80756 0.0
C745 C 0.18454 0.70413 0.79538 0.0
C746 C 0.25082 0.73462 0.75913 0.0
C747 C 0.20239 0.71219 0.75261 0.0
H748 H 0.39661 0.83843 0.9562 0.0
H749 H 0.17861 0.70351 0.71534 0.0
H750 H 0.34166 0.82472 0.62252 0.0
H751 H 0.53359 1.02452 0.88228 0.0
H752 H 0.26323 0.74396 0.72668 0.0
H753 H 0.14651 0.69206 0.79148 0.0
H754 H 0.45188 0.96869 0.86037 0.0
H755 H 0.37899 0.79892 0.02802 0.0
H756 H 0.17042 0.66741 0.87936 0.0
H757 H 0.22678 0.6873 0.9604 0.0
H758 H 0.39275 0.78555 0.56144 0.0
H759 H 0.30424 0.73319 0.01187 0.0
H760 H 0.56695 0.05947 0.82212 0.0
N761 N 0.4013 0.88772 0.68047 0.0
C762 C 0.45518 0.92132 0.69712 0.0
C763 C 0.41206 0.81733 0.59075 0.0
C764 C 0.50836 0.89541 0.64227 0.0
C765 C 0.37947 0.8418 0.6323 0.0
C766 C 0.47313 0.84166 0.59349 0.0
N767 N 0.44732 0.95757 0.7809 0.0
C768 C 0.46889 0.97897 0.83038 0.0
C769 C 0.52929 0.99518 0.75793 0.0
C770 C 0.47358 0.96243 0.74465 0.0
C771 C 0.53683 1.02787 0.80655 0.0
C772 C 0.51406 1.01187 0.84319 0.0
H773 H 0.48965 0.82149 0.56944 0.0
H774 H 0.52969 0.90408 0.64329 0.0
H775 H 0.62254 0.98584 0.70114 0.0
O776 O 0.36819 0.97611 0.78428 0.0
O777 O 0.44033 0.885 0.78563 0.0
O778 O 0.43238 0.85851 0.85853 0.0
O779 O 0.34538 0.94784 0.7021 0.0
O780 O 0.33756 0.9106 0.82417 0.0
O781 O 0.3847 0.88184 0.8764 0.0
O782 O 0.37461 0.74649 0.79183 0.0
O783 O 0.27793 0.8226 0.81251 0.0
O784 O 0.28023 0.86158 0.74584 0.0
O785 O 0.39549 0.77089 0.87409 0.0
O786 O 0.37559 0.80804 0.75586 0.0
O787 O 0.32507 0.83149 0.70448 0.0
C788 C 0.46052 0.87298 0.82788 0.0
C789 C 0.3189 1.01314 0.7392 0.0
C790 C 0.2583 0.0439 0.77243 0.0
C791 C 0.24895 0.05986 0.72698 0.0
C792 C 0.31101 0.03285 0.69651 0.0
C793 C 0.27643 0.05643 0.69069 0.0
C794 C 0.29436 1.02107 0.77901 0.0
C795 C 0.36382 0.91415 0.86826 0.0
C796 C 0.35264 0.98444 0.74018 0.0
C797 C 0.56403 0.92476 0.65306 0.0
C798 C 0.58453 0.97023 0.69956 0.0
C799 C 0.25323 0.83667 0.77441 0.0
C800 C 0.39523 0.69272 0.84044 0.0
C801 C 0.42779 0.62629 0.82582 0.0
C802 C 0.40298 0.6055 0.85981 0.0
C803 C 0.37044 0.67205 0.87442 0.0
C804 C 0.42405 0.66991 0.81635 0.0
C805 C 0.37453 0.62851 0.88414 0.0
C806 C 0.34302 0.79774 0.71505 0.0
C807 C 0.3972 0.74074 0.83448 0.0
H808 H 0.22083 0.0759 0.71945 0.0
H809 H 0.33026 1.0282 0.66647 0.0
H810 H 0.26995 0.07086 0.6571 0.0
H811 H 0.30183 1.00814 0.81354 0.0
H812 H 0.40666 0.57214 0.86848 0.0
H813 H 0.34918 0.69012 0.89442 0.0
H814 H 0.44452 0.68666 0.79145 0.0
H815 H 0.35644 0.61315 0.9113 0.0
Eu816 Eu 0.59444 0.13006 0.0148 0.0
C817 C 0.64183 1.00883 0.18882 0.0
N818 N 0.61039 0.99195 0.14289 0.0
C819 C 0.60432 0.91221 0.15001 0.0
C820 C 0.66031 0.97775 0.21389 0.0
C821 C 0.59611 0.94442 0.12044 0.0
C822 C 0.63711 0.92913 0.19719 0.0
C823 C 0.67525 0.07002 0.26654 0.0
C824 C 0.64687 0.05411 0.21603 0.0
C825 C 0.70391 0.04311 0.28535 0.0
C826 C 0.6957 0.99614 0.25894 0.0
Eu827 Eu 0.57255 0.04514 0.11177 0.0
N828 N 0.61553 0.07697 0.19823 0.0
C829 C 0.66796 0.10763 0.29914 0.0
C830 C 0.60304 0.10789 0.23278 0.0
C831 C 0.62936 0.12384 0.28286 0.0
H832 H 0.57203 0.93103 0.08322 0.0
H833 H 0.62004 0.14979 0.30847 0.0
H834 H 0.62533 0.25028 0.05381 0.0
H835 H 0.41806 1.02839 0.885 0.0
H836 H 0.57164 0.11923 0.22352 0.0
H837 H 0.68808 0.12055 0.33843 0.0
H838 H 0.4929 0.03609 0.94595 0.0
H839 H 0.58546 0.87459 0.13647 0.0
H840 H 0.72767 0.05576 0.32292 0.0
H841 H 0.71428 0.97328 0.27494 0.0
H842 H 0.62365 0.31755 0.0121 0.0
H843 H 0.64382 0.90479 0.22097 0.0
H844 H 0.41294 0.08966 0.83668 0.0
N845 N 0.57941 0.19789 0.98925 0.0
C846 C 0.54872 0.18992 0.94356 0.0
C847 C 0.6032 0.28156 0.99209 0.0
C848 C 0.54582 0.22742 0.91927 0.0
C849 C 0.60299 0.24358 0.01603 0.0
C850 C 0.57563 0.27272 0.94253 0.0
N851 N 0.52468 0.1087 0.94464 0.0
C852 C 0.48912 0.06621 0.93006 0.0
C853 C 0.48091 0.13781 0.87973 0.0
C854 C 0.51911 0.14473 0.92183 0.0
C855 C 0.4442 0.09539 0.86669 0.0
C856 C 0.44717 0.06062 0.89405 0.0
H857 H 0.57379 0.30123 0.9236 0.0
H858 H 0.51164 0.24781 0.85408 0.0
H859 H 0.4509 0.16944 0.82096 0.0
O860 O 0.64472 0.11227 0.97221 0.0
O861 O 0.52126 0.12049 0.02578 0.0
O862 O 0.54345 0.05943 0.04033 0.0
O863 O 0.65714 0.18562 0.01338 0.0
O864 O 0.5992 0.05304 0.97962 0.0
O865 O 0.59181 1.00466 0.03936 0.0
O866 O 0.50527 0.04448 0.13221 0.0
O867 O 0.64749 0.06094 0.10928 0.0
O868 O 0.63332 0.1271 0.09288 0.0
O869 O 0.52014 0.97751 0.10957 0.0
O870 O 0.56607 0.12379 0.14092 0.0
O871 O 0.59384 0.1766 0.09078 0.0
C872 C 0.51117 0.08132 0.04058 0.0
C873 C 0.67593 0.17179 0.93353 0.0
C874 C 0.70601 0.15897 0.85948 0.0
C875 C 0.67996 0.18612 0.83625 0.0
C876 C 0.65186 0.20136 0.91241 0.0
C877 C 0.65261 0.20754 0.86318 0.0
C878 C 0.70347 0.1509 0.90705 0.0
C879 C 0.60281 1.01328 0.99521 0.0
C880 C 0.66908 0.15702 0.97977 0.0
C881 C 0.51282 0.21908 0.87315 0.0
C882 C 0.47904 0.17463 0.8542 0.0
C883 C 0.66365 0.10295 0.10246 0.0
C884 C 0.50738 0.99944 0.19197 0.0
C885 C 0.50756 0.03838 0.27651 0.0
C886 C 0.53592 1.01201 0.29757 0.0
C887 C 0.53691 0.97418 0.21294 0.0
C888 C 0.4927 0.03128 0.22426 0.0
C889 C 0.55138 0.98047 0.2655 0.0
C890 C 0.57548 0.16748 0.13044 0.0
C891 C 0.49936 1.00111 0.13831 0.0
H892 H 0.68261 0.19276 0.79881 0.0
H893 H 0.63528 0.22182 0.93459 0.0
H894 H 0.63361 0.23001 0.84685 0.0
H895 H 0.72306 0.12866 0.92349 0.0
H896 H 0.54321 1.01334 0.33818 0.0
H897 H 0.54643 0.94762 0.18888 0.0
H898 H 0.46891 0.05028 0.20863 0.0
H899 H 0.57236 0.95915 0.28088 0.0
Eu900 Eu 0.28821 0.27585 0.25259 0.0
C901 C 0.48559 0.42531 0.39691 0.0
N902 N 0.44295 0.4041 0.41389 0.0
C903 C 0.52831 0.39279 0.51676 0.0
C904 C 0.56913 0.43132 0.44497 0.0
C905 C 0.4466 0.38893 0.46444 0.0
C906 C 0.57536 0.41309 0.49568 0.0
C907 C 0.53628 0.47273 0.32474 0.0
C908 C 0.48461 0.44709 0.3438 0.0
C909 C 0.59607 0.47801 0.35632 0.0
C910 C 0.61294 0.45874 0.41366 0.0
Eu911 Eu 0.37764 0.38355 0.33787 0.0
N912 N 0.44166 0.4413 0.31528 0.0
C913 C 0.52666 0.49274 0.28309 0.0
C914 C 0.43895 0.46797 0.279 0.0
C915 C 0.47953 0.49202 0.2626 0.0
H916 H 0.41124 0.3759 0.47231 0.0
H917 H 0.47383 0.51025 0.23188 0.0
H918 H 0.27365 0.26426 0.11438 0.0
H919 H 0.15363 0.19506 0.38039 0.0
H920 H 0.40437 0.46896 0.25992 0.0
H921 H 0.55565 0.51111 0.26791 0.0
H922 H 0.23202 0.26834 0.37926 0.0
H923 H 0.53801 0.3825 0.55304 0.0
H924 H 0.62449 0.4952 0.33978 0.0
H925 H 0.65023 0.4643 0.42979 0.0
H926 H 0.16383 0.3249 0.06682 0.0
H927 H 0.61016 0.41255 0.51285 0.0
H928 H 0.07724 0.15615 0.29987 0.0
N929 N 0.21572 0.22104 0.15427 0.0
C930 C 0.15466 0.21349 0.17025 0.0
C931 C 0.16537 0.29808 0.08969 0.0
C932 C 0.11189 0.23805 0.1492 0.0
C933 C 0.23687 0.25734 0.11874 0.0
C934 C 0.11728 0.2786 0.11346 0.0
N935 N 0.20768 0.26985 0.29154 0.0
C936 C 0.20504 0.25211 0.34482 0.0
C937 C 0.10312 0.19497 0.23454 0.0
C938 C 0.148 0.23557 0.22376 0.0
C939 C 0.10818 0.17986 0.29292 0.0
C940 C 0.15578 0.20647 0.34493 0.0
H941 H 0.08759 0.29278 0.10421 0.0
H942 H 1.03427 0.22266 0.13811 0.0
H943 H 1.027 0.1715 0.20335 0.0
O944 O 0.33646 0.2391 0.28297 0.0
O945 O 0.28902 0.34742 0.31766 0.0
O946 O 0.29137 0.35076 0.32042 0.0
O947 O 0.29782 0.21658 0.20112 0.0
O948 O 0.29799 0.26295 0.33942 0.0
O949 O 0.3548 0.33186 0.39136 0.0
O950 O 0.34187 0.43311 0.31377 0.0
O951 O 0.42992 0.34041 0.31251 0.0
O952 O 0.3763 0.28817 0.24259 0.0
O953 O 0.37971 0.44602 0.39519 0.0
O954 O 0.38422 0.37979 0.25355 0.0
O955 O 0.31273 0.33135 0.20441 0.0
C956 C 0.26824 0.37606 0.34797 0.0
C957 C 0.35886 0.18079 0.22685 0.0
C958 C 0.36312 0.10538 0.28715 0.0
C959 C 0.34399 0.0536 0.24082 0.0
C960 C 0.34064 0.14325 0.1677 0.0
C961 C 0.32884 0.05422 0.17717 0.0
C962 C 0.37087 0.16135 0.28011 0.0
C963 C 0.32374 0.28922 0.38679 0.0
C964 C 0.33321 0.21536 0.23631 0.0
C965 C 0.06584 0.21693 0.15912 0.0
C966 C 0.06157 0.18977 0.19797 0.0
C967 C 0.42417 0.30825 0.26946 0.0
C968 C 0.33986 0.50261 0.36984 0.0
C969 C 0.31576 0.56335 0.33381 0.0
C970 C 0.29226 0.57168 0.37375 0.0
C971 C 0.3171 0.51108 0.41004 0.0
C972 C 0.33909 0.52857 0.33164 0.0
C973 C 0.29238 0.54506 0.41129 0.0
C974 C 0.35364 0.36406 0.20886 0.0
C975 C 0.35324 0.4594 0.36025 0.0
H976 H 0.34161 1.01976 0.25153 0.0
H977 H 0.33183 0.1584 0.13461 0.0
H978 H 0.31635 1.01998 0.14928 0.0
H979 H 0.38214 0.18822 0.31564 0.0
H980 H 0.27381 0.59867 0.3761 0.0
H981 H 0.31607 0.48957 0.4385 0.0
H982 H 0.35503 0.52054 0.29937 0.0
H983 H 0.2736 0.55102 0.44145 0.0
Eu984 Eu 0.62895 0.5393 0.0615 0.0
C985 C 0.54725 0.6811 0.17765 0.0
N986 N 0.52459 0.6462 0.13459 0.0
C987 C 0.45586 0.62313 0.16959 0.0
C988 C 0.52541 0.68605 0.22009 0.0
C989 C 0.47884 0.61915 0.12919 0.0
C990 C 0.47957 0.65578 0.21548 0.0
C991 C 0.61402 0.75675 0.23136 0.0
C992 C 0.59212 0.71101 0.17915 0.0
C993 C 0.59098 0.75536 0.27148 0.0
C994 C 0.54796 0.72048 0.266 0.0
Eu995 Eu 0.56796 0.63293 0.07107 0.0
N996 N 0.61642 0.69971 0.13248 0.0
C997 C 0.66637 0.79873 0.23736 0.0
C998 C 0.66395 0.72587 0.11798 0.0
C999 C 0.70285 0.77557 0.15692 0.0
H1000 H 0.45975 0.59452 0.09346 0.0
H1001 H 0.73348 0.79426 0.1441 0.0
H1002 H 0.73791 0.57885 0.03962 0.0
H1003 H 0.45031 0.38291 0.97251 0.0
H1004 H 0.66675 0.722 0.07947 0.0
H1005 H 0.67921 0.82803 0.27134 0.0
H1006 H 0.50199 0.43212 0.98848 0.0
H1007 H 0.41981 0.60097 0.16531 0.0
H1008 H 0.60583 0.78198 0.30692 0.0
H1009 H 0.53056 0.7219 0.29794 0.0
H1010 H 0.78085 0.56718 0.97134 0.0
H1011 H 0.46141 0.65841 0.24674 0.0
H1012 H 0.52441 0.34012 0.86934 0.0
N1013 N 0.67266 0.52833 0.99758 0.0
C1014 C 0.65108 0.4917 0.95567 0.0
C1015 C 0.74396 0.54678 0.96586 0.0
C1016 C 0.67515 0.48292 0.91592 0.0
C1017 C 0.71903 0.55417 0.00397 0.0
C1018 C 0.72193 0.51095 0.92204 0.0
N1019 N 0.57747 0.48005 0.99357 0.0
C1020 C 0.52702 0.46025 0.00448 0.0
C1021 C 0.58616 0.41349 0.90494 0.0
C1022 C 0.6055 0.46292 0.95294 0.0
C1023 C 0.53255 0.37307 0.89767 0.0
C1024 C 0.48771 0.40504 0.9666 0.0
H1025 H 0.74233 0.50254 0.89457 0.0
H1026 H 0.67296 0.44256 0.8409 0.0
H1027 H 0.59624 0.3845 0.8313 0.0
O1028 O 0.61615 0.46959 0.07554 0.0
O1029 O 0.60729 0.55987 0.98361 0.0
O1030 O 0.54018 0.57971 0.9939 0.0
O1031 O 0.68902 0.51262 0.08906 0.0
O1032 O 0.56268 0.52292 0.0978 0.0
O1033 O 0.5149 0.55978 0.05589 0.0
O1034 O 0.58032 0.68833 0.03046 0.0
O1035 O 0.59117 0.61617 0.15175 0.0
O1036 O 0.65316 0.58531 0.14446 0.0
O1037 O 0.50955 0.66434 0.04716 0.0
O1038 O 0.63473 0.64607 0.03536 0.0
O1039 O 0.68356 0.61157 0.07841 0.0
C1040 C 0.56815 0.5695 0.96373 0.0
C1041 C 0.66967 0.45436 0.13753 0.0
C1042 C 0.64287 0.42196 0.20686 0.0
C1043 C 0.69004 0.42383 0.22731 0.0
C1044 C 0.71385 0.44705 0.15271 0.0
C1045 C 0.72426 0.43291 0.19826 0.0
C1046 C 0.63332 0.43973 0.1634 0.0
C1047 C 0.51995 0.52801 0.08298 0.0
C1048 C 0.66034 0.47244 0.09185 0.0
C1049 C 0.65404 0.44638 0.8714 0.0
C1050 C 0.6105 0.41244 0.86586 0.0
C1051 C 0.62794 0.60369 0.17367 0.0
C1052 C 0.52575 0.72841 1.0002 0.0
C1053 C 0.54754 0.78627 0.94899 0.0
C1054 C 0.50181 0.79225 0.94383 0.0
C1055 C 0.48047 0.73488 0.99541 0.0
C1056 C 0.5597 0.75501 0.97782 0.0
C1057 C 0.46886 0.76707 0.96763 0.0
C1058 C 0.67787 0.64237 0.05051 0.0
C1059 C 0.53791 0.69316 0.02684 0.0
H1060 H 0.6992 0.41312 0.26279 0.0
H1061 H 0.74072 0.45389 0.13038 0.0
H1062 H 0.75891 0.42898 0.21071 0.0
H1063 H 0.59692 0.43879 0.14808 0.0
H1064 H 0.49188 0.81705 0.92235 0.0
H1065 H 0.45411 0.71499 0.01277 0.0
H1066 H 0.59527 0.75096 0.98185 0.0
H1067 H 0.43413 0.77211 0.96453 0.0
Eu1068 Eu 0.87011 0.40537 0.25833 0.0
C1069 C 0.76684 0.29114 0.39684 0.0
N1070 N 0.81502 0.30717 0.40801 0.0
C1071 C 0.81407 0.33848 0.49385 0.0
C1072 C 0.74113 0.30883 0.43006 0.0
C1073 C 0.83926 0.32713 0.45709 0.0
C1074 C 0.76554 0.33347 0.47944 0.0
C1075 C 0.69377 0.24783 0.33519 0.0
C1076 C 0.74328 0.25903 0.35103 0.0
C1077 C 0.66821 0.26917 0.36624 0.0
C1078 C 0.69246 0.30152 0.41258 0.0
Eu1079 Eu 0.84871 0.29675 0.33688 0.0
N1080 N 0.76952 0.24786 0.31684 0.0
C1081 C 0.67266 0.22212 0.28513 0.0
C1082 C 0.74866 0.21595 0.27134 0.0
C1083 C 0.69959 0.20415 0.25368 0.0
H1084 H 0.87754 0.3345 0.46743 0.0
H1085 H 0.68265 0.18238 0.21572 0.0
H1086 H 0.84784 0.31933 0.13066 0.0
H1087 H 1.0269 0.54456 0.3803 0.0
H1088 H 0.76988 0.2034 0.24704 0.0
H1089 H 0.63516 0.21505 0.27111 0.0
H1090 H 0.95009 0.48066 0.36064 0.0
H1091 H 0.83162 0.35215 0.53309 0.0
H1092 H 0.63024 0.26315 0.35333 0.0
H1093 H 0.67333 0.32036 0.43501 0.0
H1094 H 0.89917 0.28373 0.06755 0.0
H1095 H 0.7471 0.34625 0.50744 0.0
H1096 H 0.06925 0.56439 0.32108 0.0
N1097 N 0.9062 0.38568 0.18658 0.0
C1098 C 0.95948 0.4209 0.20162 0.0
C1099 C 0.91777 0.31575 0.09671 0.0
C1100 C 1.01228 0.39663 0.14539 0.0
C1101 C 0.88506 0.33871 0.1393 0.0
C1102 C 0.97798 0.34208 0.09776 0.0
N1103 N 0.95021 0.46046 0.28326 0.0
C1104 C 0.96884 0.48775 0.331 0.0
C1105 C 1.0324 0.49734 0.25978 0.0
C1106 C 0.97743 0.46289 0.24794 0.0
C1107 C 0.03923 0.53257 0.3066 0.0
C1108 C 1.01202 0.5236 0.34229 0.0
H1109 H 0.99494 0.32322 0.07288 0.0
H1110 H 1.03338 0.40601 0.14576 0.0
H1111 H 0.12471 0.49076 0.20031 0.0
O1112 O 0.86409 0.4739 0.29491 0.0
O1113 O 0.94277 0.39065 0.29913 0.0
O1114 O 0.93142 0.3303 0.34527 0.0
O1115 O 0.85442 0.45529 0.21222 0.0
O1116 O 0.84423 0.39188 0.32725 0.0
O1117 O 0.88476 0.36835 0.38788 0.0
O1118 O 0.85992 0.22841 0.30717 0.0
O1119 O 0.77538 0.31198 0.29604 0.0
O1120 O 0.78237 0.36918 0.24752 0.0
O1121 O 0.87328 0.25706 0.39046 0.0
O1122 O 0.87166 0.31179 0.26774 0.0
O1123 O 0.82853 0.33533 0.20883 0.0
C1124 C 0.96061 0.36335 0.32789 0.0
C1125 C 0.82058 0.51487 0.247 0.0
C1126 C 0.7573 0.54481 0.27414 0.0
C1127 C 0.74737 0.55602 0.22598 0.0
C1128 C 0.81293 0.53137 0.20191 0.0
C1129 C 0.77656 0.55202 0.19161 0.0
C1130 C 0.79463 0.52432 0.28489 0.0
C1131 C 0.87346 0.40311 0.37104 0.0
C1132 C 0.8553 0.48751 0.25217 0.0
C1133 C 0.0672 0.42765 0.1543 0.0
C1134 C 0.08727 0.47379 0.20005 0.0
C1135 C 0.75313 0.33593 0.26677 0.0
C1136 C 0.88851 0.18215 0.36343 0.0
C1137 C 0.93302 0.12637 0.34502 0.0
C1138 C 0.92451 0.10944 0.38887 0.0
C1139 C 0.88132 0.16619 0.40795 0.0
C1140 C 0.91429 0.16218 0.33179 0.0
C1141 C 0.8991 0.1296 0.42039 0.0
C1142 C 0.83992 0.30068 0.2261 0.0
C1143 C 0.87433 0.22344 0.35345 0.0
H1144 H 0.71738 0.5685 0.21449 0.0
H1145 H 0.83358 0.52608 0.17334 0.0
H1146 H 0.76966 0.56302 0.15582 0.0
H1147 H 0.80235 0.51475 0.32146 0.0
H1148 H 0.93757 0.08076 0.39908 0.0
H1149 H 0.86242 0.18232 0.43327 0.0
H1150 H 0.92133 0.17565 0.29833 0.0
H1151 H 0.89366 0.11721 0.45473 0.0
Eu1152 Eu 0.08418 0.62156 0.51329 0.0
C1153 C 0.13445 0.49064 0.6756 0.0
N1154 N 0.09975 0.4789 0.63229 0.0
C1155 C 0.09421 0.39621 0.62486 0.0
C1156 C 0.15166 0.45549 0.69409 0.0
C1157 C 0.08103 0.43257 0.60541 0.0
C1158 C 0.12852 0.40796 0.67037 0.0
C1159 C 0.17515 0.54574 0.7563 0.0
C1160 C 0.14519 0.53533 0.70712 0.0
C1161 C 0.20104 0.51467 0.76902 0.0
C1162 C 0.18766 0.46844 0.73878 0.0
Eu1163 Eu 0.07094 0.54181 0.61135 0.0
N1164 N 0.11783 0.56365 0.69485 0.0
C1165 C 0.17089 0.58135 0.79406 0.0
C1166 C 0.10958 0.5945 0.73287 0.0
C1167 C 0.13458 0.60191 0.78273 0.0
H1168 H 0.05326 0.42338 0.57102 0.0
H1169 H 0.12537 0.6238 0.81192 0.0
H1170 H 0.13371 0.73952 0.55176 0.0
H1171 H 0.90487 0.52863 0.38649 0.0
H1172 H 0.08128 0.6108 0.72627 0.0
H1173 H 0.19072 0.58852 0.83325 0.0
H1174 H 0.97951 0.53291 0.44568 0.0
H1175 H 0.07708 0.35925 0.60563 0.0
H1176 H 0.2266 0.52384 0.80525 0.0
H1177 H 0.20258 0.44209 0.75229 0.0
H1178 H 0.13466 0.8091 0.51347 0.0
H1179 H 0.13561 0.3803 0.68839 0.0
H1180 H 0.90077 0.59494 0.34511 0.0
N1181 N 0.07516 0.69302 0.49438 0.0
C1182 C 0.03993 0.6889 0.45376 0.0
C1183 C 0.10867 0.77509 0.49542 0.0
C1184 C 0.04063 0.72678 0.42929 0.0
C1185 C 0.10737 0.73611 0.51771 0.0
C1186 C 0.07628 0.76927 0.44954 0.0
N1187 N 1.00985 0.60753 0.4531 0.0
C1188 C 0.97489 0.56489 0.43448 0.0
C1189 C 0.9685 0.64104 0.39134 0.0
C1190 C 1.00575 0.64555 0.43336 0.0
C1191 C 0.93114 0.59898 0.37556 0.0
C1192 C 0.93353 0.5614 0.39883 0.0
H1193 H 0.07576 0.79822 0.43102 0.0
H1194 H 1.00879 0.74964 0.36477 0.0
H1195 H 0.94234 0.67491 0.33304 0.0
O1196 O 0.10214 0.59464 0.44235 0.0
O1197 O 1.01474 0.60973 0.53416 0.0
O1198 O 1.02773 0.54119 0.53828 0.0
O1199 O 0.14563 0.66295 0.49319 0.0
O1200 O 0.09535 0.54725 0.48466 0.0
O1201 O 0.08932 0.49842 0.54228 0.0
O1202 O 1.00965 0.55402 0.63817 0.0
O1203 O 0.14551 0.57044 0.61083 0.0
O1204 O 0.14382 0.63968 0.58542 0.0
O1205 O 1.01816 0.4827 0.62405 0.0
O1206 O 0.0722 0.62168 0.64371 0.0
O1207 O 0.08797 0.67197 0.58786 0.0
C1208 C 1.00003 0.5683 0.54306 0.0
C1209 C 0.14536 0.6528 0.4068 0.0
C1210 C 0.20019 0.67673 0.35606 0.0
C1211 C 0.17078 0.70056 0.33213 0.0
C1212 C 0.11312 0.67185 0.37983 0.0
C1213 C 0.12684 0.69803 0.34428 0.0
C1214 C 0.18756 0.65316 0.39308 0.0
C1215 C 0.0998 0.50777 0.4989 0.0
C1216 C 0.1382 0.6326 0.44989 0.0
C1217 C 1.00692 0.72084 0.38436 0.0
C1218 C 0.96993 0.67846 0.36617 0.0
C1219 C 0.16339 0.61531 0.61467 0.0
C1220 C 1.00236 0.51391 0.70209 0.0
C1221 C 0.9877 0.55117 0.78076 0.0
C1222 C 1.01204 0.524 0.8067 0.0
C1223 C 1.02998 0.48979 0.72863 0.0
C1224 C 0.98147 0.54463 0.72834 0.0
C1225 C 1.03436 0.49472 0.78097 0.0
C1226 C 0.07754 0.6643 0.63163 0.0
C1227 C 0.99885 0.51184 0.64812 0.0
H1228 H 0.17981 0.717 0.30107 0.0
H1229 H 0.07719 0.66423 0.38367 0.0
H1230 H 0.10268 0.71414 0.32458 0.0
H1231 H 0.21026 0.63385 0.41029 0.0
H1232 H 1.01392 0.52558 0.84697 0.0
H1233 H 0.0469 0.46621 0.709 0.0
H1234 H 0.96059 0.56363 0.70797 0.0
H1235 H 0.0532 0.47447 0.80121 0.0
Eu1236 Eu 0.89146 0.80136 0.3189 0.0
C1237 C 0.75259 0.90077 0.21483 0.0
N1238 N 0.79031 0.9203 0.25555 0.0
C1239 C 0.81115 0.99237 0.22556 0.0
C1240 C 0.74368 0.92621 0.17658 0.0
C1241 C 0.81871 0.9658 0.26217 0.0
C1242 C 0.77412 0.97223 0.18224 0.0
C1243 C 0.67087 0.83914 0.16857 0.0
C1244 C 0.72453 0.85445 0.2099 0.0
C1245 C 0.67076 0.86316 0.12884 0.0
C1246 C 0.70629 0.90568 0.13282 0.0
Eu1247 Eu 0.80458 0.8697 0.3104 0.0
N1248 N 0.74728 0.82083 0.23914 0.0
C1249 C 0.63259 0.78316 0.15746 0.0
C1250 C 0.73099 0.76609 0.23886 0.0
C1251 C 0.67686 0.73111 0.20676 0.0
H1252 H 0.84691 0.98181 0.29599 0.0
H1253 H 0.6685 0.69347 0.20507 0.0
H1254 H 0.8504 0.69401 0.3459 0.0
H1255 H 0.05018 0.98147 0.40696 0.0
H1256 H 0.75639 0.74783 0.24887 0.0
H1257 H 0.59956 0.77308 0.12808 0.0
H1258 H 1.0018 0.92902 0.39031 0.0
H1259 H 0.834 1.02832 0.23066 0.0
H1260 H 0.64282 0.84895 0.09434 0.0
H1261 H 0.70294 0.92428 0.10201 0.0
H1262 H 0.86238 0.65379 0.41614 0.0
H1263 H 0.76878 0.99294 0.15375 0.0
H1264 H 0.09428 0.90683 0.5086 0.0
N1265 N 0.90357 0.7593 0.38443 0.0
C1266 C 0.94178 0.78074 0.42474 0.0
C1267 C 0.88384 0.69004 0.41976 0.0
C1268 C 0.95083 0.75767 0.46537 0.0
C1269 C 0.87645 0.71363 0.38044 0.0
C1270 C 0.92135 0.71218 0.46191 0.0
N1271 N 0.9546 0.85294 0.38437 0.0
C1272 C 0.97394 0.90378 0.37411 0.0
C1273 C 1.0218 0.84447 0.47271 0.0
C1274 C 0.97199 0.825 0.42506 0.0
C1275 C 0.06134 0.89857 0.48043 0.0
C1276 C 1.02873 0.94351 0.41223 0.0
H1277 H 0.93052 0.69275 0.4901 0.0
H1278 H 0.99383 0.75928 0.53867 0.0
H1279 H 0.05367 0.83367 0.54475 0.0
O1280 O 0.96034 0.79653 0.31502 0.0
O1281 O 0.86892 0.82075 0.39492 0.0
O1282 O 0.86305 0.89227 0.38369 0.0
O1283 O 0.90119 0.73581 0.27545 0.0
O1284 O 0.91299 0.86685 0.28176 0.0
O1285 O 0.87878 0.91833 0.3225 0.0
O1286 O 0.76474 0.86671 0.36966 0.0
O1287 O 0.81691 0.84399 0.22758 0.0
O1288 O 0.84737 0.78136 0.23527 0.0
O1289 O 0.76727 0.92365 0.32947 0.0
O1290 O 0.77449 0.80167 0.33962 0.0
O1291 O 0.81958 0.75236 0.31823 0.0
C1292 C 0.86544 0.86275 0.41452 0.0
C1293 C 0.97585 0.7477 0.24915 0.0
C1294 C 0.04205 0.79112 0.21889 0.0
C1295 C 0.06379 0.75493 0.22507 0.0
C1296 C 0.99549 0.70958 0.24917 0.0
C1297 C 0.03926 0.71304 0.2366 0.0
C1298 C 0.99718 0.78688 0.22967 0.0
C1299 C 0.90891 0.9105 0.29436 0.0
C1300 C 0.94712 0.75416 0.28646 0.0
C1301 C 0.98944 0.77786 0.50794 0.0
C1302 C 1.0244 0.81999 0.51145 0.0
C1303 C 0.82943 0.80674 0.20591 0.0
C1304 C 0.70083 0.8999 0.36823 0.0
C1305 C 0.62961 0.8621 0.39556 0.0
C1306 C 0.60973 0.89805 0.38361 0.0
C1307 C 0.68158 0.9371 0.35981 0.0
C1308 C 0.67494 0.8628 0.38762 0.0
C1309 C 0.6358 0.93554 0.36612 0.0
C1310 C 0.78442 0.76068 0.33825 0.0
C1311 C 0.75029 0.90366 0.36414 0.0
H1312 H 0.09995 0.75894 0.22172 0.0
H1313 H 0.97956 0.6792 0.26384 0.0
H1314 H 0.0556 0.6846 0.2392 0.0
H1315 H 0.98182 0.81627 0.2288 0.0
H1316 H 0.57539 0.89895 0.39136 0.0
H1317 H 0.70291 0.96864 0.35121 0.0
H1318 H 0.69056 0.83575 0.3987 0.0
H1319 H 0.6216 0.9648 0.36024 0.0
Eu1320 Eu 0.8042 0.34166 0.85878 0.0
C1321 C 0.93382 0.30158 0.68745 0.0
N1322 N 0.94702 0.33502 0.73208 0.0
C1323 C 1.0288 0.34873 0.72854 0.0
C1324 C 0.9682 0.28747 0.6643 0.0
C1325 C 0.99407 0.35495 0.75547 0.0
C1326 C 1.01546 0.31509 0.68206 0.0
C1327 C 0.87449 0.25703 0.61087 0.0
C1328 C 0.88746 0.28876 0.6595 0.0
C1329 C 0.90634 0.23336 0.59484 0.0
C1330 C 0.95395 0.24969 0.62124 0.0
Eu1331 Eu 0.88568 0.36227 0.75956 0.0
N1332 N 0.85868 0.31469 0.67469 0.0
C1333 C 0.83365 0.25591 0.57675 0.0
C1334 C 0.82335 0.31925 0.63847 0.0
C1335 C 0.81068 0.28991 0.58937 0.0
H1336 H 1.00442 0.38036 0.79185 0.0
H1337 H 0.78298 0.29353 0.56086 0.0
H1338 H 0.68466 0.30916 0.81927 0.0
H1339 H 0.90618 0.51846 0.9883 0.0
H1340 H 0.80566 0.34631 0.64567 0.0
H1341 H 0.82317 0.2334 0.53846 0.0
H1342 H 0.89802 0.44341 0.927 0.0
H1343 H 0.06577 0.36881 0.74402 0.0
H1344 H 0.89598 0.20681 0.55912 0.0
H1345 H 0.98008 0.23482 0.60716 0.0
H1346 H 0.6172 0.31147 0.85988 0.0
H1347 H 0.04196 0.30977 0.66075 0.0
H1348 H 0.8446 0.52401 0.03623 0.0
N1349 N 0.7363 0.35735 0.88291 0.0
C1350 C 0.74393 0.38885 0.92803 0.0
C1351 C 0.65277 0.33323 0.87961 0.0
C1352 C 0.7064 0.3918 0.95216 0.0
C1353 C 0.69092 0.33288 0.85622 0.0
C1354 C 0.66129 0.36163 0.92887 0.0
N1355 N 0.82504 0.4127 0.9272 0.0
C1356 C 0.86783 0.44773 0.94237 0.0
C1357 C 0.79605 0.45644 0.99231 0.0
C1358 C 0.789 0.41852 0.94979 0.0
C1359 C 0.83871 0.49288 0.00586 0.0
C1360 C 0.87365 0.48965 0.97876 0.0
H1361 H 0.63288 0.36292 0.94809 0.0
H1362 H 0.68611 0.42577 0.01779 0.0
H1363 H 0.76461 0.48576 0.05185 0.0
O1364 O 0.82447 0.29497 0.90576 0.0
O1365 O 0.81384 0.41368 0.84445 0.0
O1366 O 0.87974 0.39864 0.83334 0.0
O1367 O 0.75067 0.28033 0.86615 0.0
O1368 O 0.88127 0.33861 0.89221 0.0
O1369 O 0.92801 0.34391 0.83116 0.0
O1370 O 0.8751 0.42548 0.73555 0.0
O1371 O 0.86505 0.28597 0.75764 0.0
O1372 O 0.7995 0.29737 0.78044 0.0
O1373 O 0.94626 0.41837 0.75413 0.0
O1374 O 0.80736 0.36681 0.7309 0.0
O1375 O 0.75668 0.34075 0.78345 0.0
C1376 C 0.85363 0.42756 0.83164 0.0
C1377 C 0.76654 0.26935 0.9494 0.0
C1378 C 0.77832 0.24636 0.02819 0.0
C1379 C 0.74816 0.27133 0.04636 0.0
C1380 C 0.73333 0.29129 0.96536 0.0
C1381 C 0.72595 0.29461 0.01466 0.0
C1382 C 0.78924 0.24677 0.98121 0.0
C1383 C 0.92035 0.33448 0.87612 0.0
C1384 C 0.7801 0.27115 0.90129 0.0
C1385 C 0.71477 0.42455 0.99864 0.0
C1386 C 0.75933 0.45803 0.01806 0.0
C1387 C 0.8247 0.26884 0.76806 0.0
C1388 C 0.918 0.43116 0.67348 0.0
C1389 C 0.87879 0.43671 0.59124 0.0
C1390 C 0.90869 0.41381 0.56827 0.0
C1391 C 0.94508 0.40487 0.65011 0.0
C1392 C 0.88507 0.44702 0.64375 0.0
C1393 C 0.94026 0.3961 0.59744 0.0
C1394 C 0.76476 0.35844 0.74323 0.0
C1395 C 0.91791 0.43642 0.72739 0.0
H1396 H 0.73948 0.27012 0.08333 0.0
H1397 H 0.71063 0.30222 0.93891 0.0
H1398 H 0.70145 0.31285 0.02724 0.0
H1399 H 0.81314 0.22745 0.96832 0.0
H1400 H 0.90735 0.40938 0.52771 0.0
H1401 H 0.97141 0.39303 0.67233 0.0
H1402 H 0.86375 0.46691 0.66149 0.0
H1403 H 0.96235 0.37748 0.57967 0.0
Eu1404 Eu 0.78753 0.7651 0.75408 0.0
C1405 C 0.98377 0.91766 0.89352 0.0
N1406 N 0.94189 0.89425 0.91065 0.0
C1407 C 1.03008 0.88715 0.01354 0.0
C1408 C 0.06857 0.92834 0.94205 0.0
C1409 C 0.94694 0.87882 0.96113 0.0
C1410 C 0.07639 0.91038 0.99282 0.0
C1411 C 1.03221 0.96842 0.82187 0.0
C1412 C 0.98124 0.93978 0.84049 0.0
C1413 C 0.09269 0.97688 0.85375 0.0
C1414 C 0.11119 0.95835 0.91108 0.0
Eu1415 Eu 0.87474 0.87564 0.837 0.0
N1416 N 0.9378 0.93338 0.81263 0.0
C1417 C 1.02137 0.98855 0.78069 0.0
C1418 C 0.93397 0.9609 0.77726 0.0
C1419 C 0.97374 0.98635 0.76069 0.0
H1420 H 0.91213 0.86437 0.96951 0.0
H1421 H 0.96701 1.00489 0.73047 0.0
H1422 H 0.77848 0.75831 0.61299 0.0
H1423 H 0.64341 0.68609 0.87074 0.0
H1424 H 0.89904 0.96155 0.75891 0.0
H1425 H 0.04974 1.00836 0.76574 0.0
H1426 H 0.72511 0.75765 0.87523 0.0
H1427 H 0.04082 0.87724 0.04987 0.0
H1428 H 0.12043 0.99583 0.8375 0.0
H1429 H 0.14875 0.96596 0.92745 0.0
H1430 H 0.67511 0.82738 0.56821 0.0
H1431 H 0.11202 0.91283 0.01111 0.0
H1432 H 0.5698 0.651 0.78681 0.0
N1433 N 0.71807 0.71671 0.65134 0.0
C1434 C 0.65617 0.71001 0.66426 0.0
C1435 C 0.67443 0.7992 0.5896 0.0
C1436 C 0.61555 0.73663 0.64274 0.0
C1437 C 0.74203 0.75365 0.61777 0.0
C1438 C 0.62518 0.78068 0.61159 0.0
N1439 N 0.70523 0.76291 0.78788 0.0
C1440 C 0.69896 0.74358 0.83974 0.0
C1441 C 0.60087 0.69092 0.72479 0.0
C1442 C 0.64777 0.73149 0.71735 0.0
C1443 C 0.60214 0.67426 0.78218 0.0
C1444 C 0.6479 0.69863 0.83631 0.0
H1445 H 0.59786 0.79835 0.60469 0.0
H1446 H 0.53795 0.72403 0.62909 0.0
H1447 H 0.52566 0.66871 0.68969 0.0
O1448 O 0.8356 0.735 0.79824 0.0
O1449 O 0.78523 0.83842 0.81669 0.0
O1450 O 0.78826 0.84262 0.81988 0.0
O1451 O 0.78851 0.69188 0.72753 0.0
O1452 O 0.79424 0.75947 0.8427 0.0
O1453 O 0.85303 0.82694 0.89279 0.0
O1454 O 0.83969 0.92644 0.81785 0.0
O1455 O 0.92717 0.83263 0.81079 0.0
O1456 O 0.87453 0.77726 0.74162 0.0
O1457 O 0.88159 0.93896 0.89718 0.0
O1458 O 0.87782 0.87422 0.75266 0.0
O1459 O 0.8188 0.81127 0.69916 0.0
C1460 C 0.76538 0.86886 0.84662 0.0
C1461 C 0.79938 0.65425 0.79541 0.0
C1462 C 0.81968 0.61617 0.86385 0.0
C1463 C 0.78232 0.5749 0.83809 0.0
C1464 C 0.76124 0.61351 0.77055 0.0
C1465 C 0.75211 0.57425 0.79271 0.0
C1466 C 0.82581 0.65666 0.84366 0.0
C1467 C 0.82067 0.78573 0.88935 0.0
C1468 C 0.81602 0.69217 0.7696 0.0
C1469 C 0.56823 0.71613 0.65 0.0
C1470 C 0.56111 0.68679 0.68647 0.0
C1471 C 0.92209 0.79944 0.7686 0.0
C1472 C 0.84523 0.99886 0.87238 0.0
C1473 C 0.83001 0.0636 0.83684 0.0
C1474 C 0.817 0.08133 0.88209 0.0
C1475 C 0.83176 1.01587 0.91713 0.0
C1476 C 0.84368 1.02228 0.83199 0.0
C1477 C 0.81673 0.05676 0.92147 0.0
C1478 C 0.85391 0.8512 0.70609 0.0
C1479 C 0.85404 0.95312 0.86415 0.0
H1480 H 0.78005 0.54152 0.84913 0.0
H1481 H 0.73994 0.61105 0.73323 0.0
H1482 H 0.72431 0.54192 0.77253 0.0
H1483 H 0.85597 0.68775 0.86202 0.0
H1484 H 0.80578 0.11334 0.88661 0.0
H1485 H 0.83123 0.99667 0.94763 0.0
H1486 H 0.85173 1.00775 0.79624 0.0
H1487 H 0.80459 0.06923 0.95514 0.0
Eu1488 Eu 0.66661 0.64516 0.6251 0.0
C1489 C 0.51123 0.45016 0.48264 0.0
N1490 N 0.5332 0.49283 0.466 0.0
C1491 C 0.54176 0.40686 0.36165 0.0
C1492 C 0.50311 0.3662 0.4334 0.0
C1493 C 0.54775 0.48903 0.41507 0.0
C1494 C 0.52077 0.35974 0.38238 0.0
C1495 C 0.4634 0.39961 0.55464 0.0
C1496 C 0.48995 0.45136 0.53606 0.0
C1497 C 0.45666 0.33951 0.52225 0.0
C1498 C 0.4751 0.32237 0.46439 0.0
Eu1499 Eu 0.55448 0.55847 0.54207 0.0
N1500 N 0.49671 0.49446 0.56511 0.0
C1501 C 0.44385 0.40948 0.59659 0.0
C1502 C 0.47002 0.49742 0.60137 0.0
C1503 C 0.44547 0.4569 0.61756 0.0
H1504 H 0.56092 0.52436 0.40711 0.0
H1505 H 0.4274 0.46286 0.64838 0.0
H1506 H 0.67475 0.65297 0.76608 0.0
H1507 H 0.74489 0.79075 0.50945 0.0
H1508 H 0.46918 0.53215 0.6205 0.0
H1509 H 0.42505 0.38051 0.61155 0.0
H1510 H 0.67354 0.70881 0.50483 0.0
H1511 H 0.55142 0.39697 0.32498 0.0
H1512 H 0.43897 0.31108 0.53856 0.0
H1513 H 0.46867 0.28494 0.44775 0.0
H1514 H 0.60664 0.75669 0.81346 0.0
H1515 H 0.52027 0.32464 0.36466 0.0
H1516 H 0.78086 0.86397 0.59405 0.0
N1517 N 0.71598 0.71393 0.72814 0.0
C1518 C 0.72275 0.77628 0.71608 0.0
C1519 C 0.6346 0.75756 0.79182 0.0
C1520 C 0.69651 0.817 0.73859 0.0
C1521 C 0.67945 0.68968 0.76189 0.0
C1522 C 0.65294 0.80714 0.7703 0.0
N1523 N 0.66891 0.72817 0.59251 0.0
C1524 C 0.68776 0.73485 0.54046 0.0
C1525 C 0.74138 0.83234 0.65608 0.0
C1526 C 0.70092 0.78525 0.66345 0.0
C1527 C 0.75747 0.83151 0.59843 0.0
C1528 C 0.73263 0.78603 0.54399 0.0
H1529 H 0.63491 0.83417 0.77719 0.0
H1530 H 0.70895 0.89486 0.75258 0.0
H1531 H 0.76384 0.90759 0.69183 0.0
O1532 O 0.69348 0.59464 0.57957 0.0
O1533 O 0.59356 0.64745 0.56342 0.0
O1534 O 0.58943 0.64457 0.56029 0.0
O1535 O 0.74002 0.64368 0.64734 0.0
O1536 O 0.6705 0.63897 0.53623 0.0
O1537 O 0.60353 0.57913 0.48652 0.0
O1538 O 0.505 0.59451 0.56417 0.0
O1539 O 0.59693 0.506 0.56868 0.0
O1540 O 0.6532 0.55838 0.63774 0.0
O1541 O 0.49207 0.55489 0.48347 0.0
O1542 O 0.55609 0.55558 0.62628 0.0
O1543 O 0.62052 0.61307 0.6799 0.0
C1544 C 0.56381 0.66808 0.53413 0.0
C1545 C 0.77276 0.6289 0.57633 0.0
C1546 C 0.8086 0.60419 0.50739 0.0
C1547 C 0.84839 0.64427 0.52833 0.0
C1548 C 0.81188 0.66995 0.59597 0.0
C1549 C 0.84928 0.67809 0.57108 0.0
C1550 C 0.76981 0.59821 0.53031 0.0
C1551 C 0.64422 0.61209 0.48983 0.0
C1552 C 0.73717 0.61433 0.60549 0.0
C1553 C 0.71682 0.86457 0.73152 0.0
C1554 C 0.74587 0.87197 0.69486 0.0
C1555 C 0.63008 0.51099 0.61076 0.0
C1556 C 0.43454 0.59347 0.50919 0.0
C1557 C 0.37003 0.61017 0.54355 0.0
C1558 C 0.35697 0.62892 0.50088 0.0
C1559 C 0.42192 0.61209 0.46678 0.0
C1560 C 0.40911 0.593 0.54785 0.0
C1561 C 0.3835 0.63079 0.46325 0.0
C1562 C 0.57994 0.57864 0.67285 0.0
C1563 C 0.47844 0.58166 0.51788 0.0
H1564 H 0.88077 0.64601 0.51572 0.0
H1565 H 0.81478 0.69433 0.63163 0.0
H1566 H 0.88064 0.70825 0.58744 0.0
H1567 H 0.73999 0.56603 0.51612 0.0
H1568 H 0.3264 0.64218 0.49628 0.0
H1569 H 0.44277 0.61386 0.43775 0.0
H1570 H 0.42031 0.5804 0.58174 0.0
H1571 H 0.37403 0.64637 0.43125 0.0
Eu1572 Eu 1.02935 0.56471 0.11794 0.0
C1573 C 0.13371 0.67258 0.97846 0.0
N1574 N 0.11618 0.62408 0.96807 0.0
C1575 C 0.08017 0.6248 0.88342 0.0
C1576 C 0.1195 0.69901 0.94346 0.0
C1577 C 0.09295 0.59973 0.91977 0.0
C1578 C 0.09034 0.6742 0.89608 0.0
C1579 C 0.18271 0.74611 0.03698 0.0
C1580 C 0.16632 0.69603 0.02397 0.0
C1581 C 0.16861 0.77254 1.00229 0.0
C1582 C 0.13702 0.74898 0.95549 0.0
Eu1583 Eu 0.13273 0.58786 0.03706 0.0
N1584 N 0.17604 0.66999 0.05916 0.0
C1585 C 0.20973 0.76832 0.08612 0.0
C1586 C 0.20713 0.69142 0.10514 0.0
C1587 C 0.22104 0.74099 0.12089 0.0
H1588 H 0.08464 0.56129 0.90941 0.0
H1589 H 0.24139 0.75827 0.1593 0.0
H1590 H 0.11154 0.59056 0.24653 0.0
H1591 H 0.90008 0.39923 0.99362 0.0
H1592 H 0.21647 0.67027 0.1313 0.0
H1593 H 0.22336 0.80659 0.09662 0.0
H1594 H 0.95914 0.47929 0.01363 0.0
H1595 H 0.06398 0.60687 0.84476 0.0
H1596 H 0.18101 0.81121 0.01183 0.0
H1597 H 0.12654 0.76964 0.92878 0.0
H1598 H 0.14878 0.54172 0.3118 0.0
H1599 H 0.07972 0.69283 0.86722 0.0
H1600 H 0.87474 0.36152 0.05477 0.0
N1601 N 0.04815 0.5299 0.19031 0.0
C1602 C 1.01416 0.47604 0.17576 0.0
C1603 C 0.11734 0.52177 0.28243 0.0
C1604 C 0.03899 0.42518 0.23417 0.0
C1605 C 0.09405 0.55284 0.23821 0.0
C1606 C 0.0923 0.46136 0.28245 0.0
N1607 N 0.97553 0.48305 0.09262 0.0
C1608 C 0.95095 0.46194 0.04405 0.0
C1609 C 0.93979 0.40092 0.11757 0.0
C1610 C 0.97295 0.45655 0.12878 0.0
C1611 C 0.90589 0.39225 0.06945 0.0
C1612 C 0.91719 0.41719 0.03252 0.0
H1613 H 0.11116 0.44555 0.30863 0.0
H1614 H 1.03007 0.40404 0.23414 0.0
H1615 H 0.94783 0.31056 0.17987 0.0
O1616 O 0.95836 0.56692 0.08613 0.0
O1617 O 0.04568 0.49261 0.07889 0.0
O1618 O 0.09984 0.50408 0.02573 0.0
O1619 O 0.98421 0.58256 0.169 0.0
O1620 O 1.03423 0.59059 0.04679 0.0
O1621 O 0.06038 0.54783 0.98932 0.0
O1622 O 0.20437 0.58327 0.06463 0.0
O1623 O 0.11536 0.65861 0.07813 0.0
O1624 O 0.06107 0.65284 0.12893 0.0
O1625 O 0.17518 0.57101 0.98265 0.0
O1626 O 0.12901 0.56188 0.10774 0.0
O1627 O 0.10171 0.60519 0.16411 0.0
C1628 C 0.07003 0.47467 0.04653 0.0
C1629 C 0.92516 0.61693 0.13639 0.0
C1630 C 0.8949 0.67944 0.108 0.0
C1631 C 0.87864 0.68625 0.1536 0.0
C1632 C 0.90498 0.62203 0.17901 0.0
C1633 C 0.881 0.65585 0.18693 0.0
C1634 C 0.91823 0.64414 0.09919 0.0
C1635 C 1.02514 0.56066 0.00353 0.0
C1636 C 0.94962 0.58009 0.13086 0.0
C1637 C 1.00923 0.36985 0.22592 0.0
C1638 C 0.96392 0.34813 0.17957 0.0
C1639 C 0.09265 0.68154 0.10778 0.0
C1640 C 0.24514 0.54741 0.0071 0.0
C1641 C 0.29977 0.50169 0.02934 0.0
C1642 C 0.31669 0.50739 0.98483 0.0
C1643 C 0.26191 0.55154 0.96238 0.0
C1644 C 0.26416 0.52232 0.041 0.0
C1645 C 0.29742 0.53155 0.95133 0.0
C1646 C 0.13723 0.59274 0.1498 0.0
C1647 C 0.21181 0.57446 0.01855 0.0
H1648 H 0.86207 0.71368 0.16281 0.0
H1649 H 0.90799 0.59986 0.20651 0.0
H1650 H 0.86421 0.65832 0.21914 0.0
H1651 H 0.9303 0.63774 0.06391 0.0
H1652 H 0.34508 0.49335 0.97568 0.0
H1653 H 0.24824 0.57135 0.93641 0.0
H1654 H 0.2518 0.51915 0.07589 0.0
H1655 H 0.31031 0.53507 0.91687 0.0
loop_
_geom_bond_atom_site_label_1
_geom_bond_atom_site_label_2
_geom_bond_distance
_geom_bond_site_symmetry_2
_ccdc_geom_bond_type
In0 O1 2.294 . S
In0 O2 2.326 . S
In0 O6 2.266 . S
In0 O7 2.326 1_455 S
In0 O8 2.266 . S
In0 O9 2.326 . S
In0 O11 2.294 . S
In0 O12 2.326 . S
O1 In0 2.294 . S
O1 C10 1.240 . S
O2 In0 2.326 . S
O2 C10 1.252 . S
C3 O6 1.252 1_655 S
C3 O7 1.260 . S
C4 O11 1.240 . S
C4 O12 1.252 . S
C5 O8 1.252 . S
C5 O9 1.260 . S
O6 In0 2.266 . S
O6 C3 1.252 1_455 S
O7 In0 2.326 1_655 S
O7 C3 1.260 . S
O8 In0 2.266 . S
O8 C5 1.252 . S
O9 In0 2.326 . S
O9 C5 1.260 . S
C10 O1 1.240 . S
C10 O2 1.252 . S
O11 In0 2.294 . S
O11 C4 1.240 . S
O12 In0 2.326 . S
O12 C4 1.252 . S
In13 O14 2.294 . S
In13 O15 2.326 . S
In13 O19 2.266 . S
In13 O20 2.326 . S
In13 O21 2.266 . S
In13 O22 2.326 1_455 S
In13 O24 2.294 . S
In13 O25 2.326 . S
O14 In13 2.294 . S
O14 C23 1.240 . S
O15 In13 2.326 . S
O15 C23 1.252 . S
C16 O19 1.252 . S
C16 O20 1.260 . S
C17 O24 1.240 . S
C17 O25 1.252 . S
C18 O21 1.252 1_655 S
C18 O22 1.260 . S
O19 In13 2.266 . S
O19 C16 1.252 . S
O20 In13 2.326 . S
O20 C16 1.260 . S
O21 In13 2.266 . S
O21 C18 1.252 1_455 S
O22 In13 2.326 1_655 S
O22 C18 1.260 . S
C23 O14 1.240 . S
C23 O15 1.252 . S
O24 In13 2.294 . S
O24 C17 1.240 . S
O25 In13 2.326 . S
O25 C17 1.252 . S
In26 O27 2.294 . S
In26 O28 2.326 . S
In26 O32 2.266 . S
In26 O33 2.326 . S
In26 O34 2.266 . S
In26 O35 2.326 . S
In26 O37 2.294 . S
In26 O38 2.326 . S
O27 In26 2.294 . S
O27 C36 1.240 . S
O28 In26 2.326 . S
O28 C36 1.252 . S
C29 O32 1.252 . S
C29 O33 1.260 . S
C30 O37 1.240 . S
C30 O38 1.252 . S
C31 O34 1.252 . S
C31 O35 1.260 . S
O32 In26 2.266 . S
O32 C29 1.252 . S
O33 In26 2.326 . S
O33 C29 1.260 . S
O34 In26 2.266 . S
O34 C31 1.252 . S
O35 In26 2.326 . S
O35 C31 1.260 . S
C36 O27 1.240 . S
C36 O28 1.252 . S
O37 In26 2.294 . S
O37 C30 1.240 . S
O38 In26 2.326 . S
O38 C30 1.252 . S
In39 O40 2.294 . S
In39 O41 2.326 . S
In39 O45 2.266 . S
In39 O46 2.326 . S
In39 O47 2.266 . S
In39 O48 2.326 . S
In39 O50 2.294 . S
In39 O51 2.326 . S
O40 In39 2.294 . S
O40 C49 1.240 . S
O41 In39 2.326 . S
O41 C49 1.252 . S
C42 O45 1.252 . S
C42 O46 1.260 . S
C43 O50 1.240 . S
C43 O51 1.252 . S
C44 O47 1.252 . S
C44 O48 1.260 . S
O45 In39 2.266 . S
O45 C42 1.252 . S
O46 In39 2.326 . S
O46 C42 1.260 . S
O47 In39 2.266 . S
O47 C44 1.252 . S
O48 In39 2.326 . S
O48 C44 1.260 . S
C49 O40 1.240 . S
C49 O41 1.252 . S
O50 In39 2.294 . S
O50 C43 1.240 . S
O51 In39 2.326 . S
O51 C43 1.252 . S
In52 O53 2.294 . S
In52 O54 2.326 . S
In52 O58 2.266 . S
In52 O59 2.326 . S
In52 O60 2.266 . S
In52 O61 2.326 . S
In52 O63 2.294 . S
In52 O64 2.326 . S
O53 In52 2.294 . S
O53 C62 1.240 . S
O54 In52 2.326 . S
O54 C62 1.252 . S
C55 O58 1.252 . S
C55 O59 1.260 . S
C56 O63 1.240 . S
C56 O64 1.252 . S
C57 O60 1.252 . S
C57 O61 1.260 . S
O58 In52 2.266 . S
O58 C55 1.252 . S
O59 In52 2.326 . S
O59 C55 1.260 . S
O60 In52 2.266 . S
O60 C57 1.252 . S
O61 In52 2.326 . S
O61 C57 1.260 . S
C62 O53 1.240 . S
C62 O54 1.252 . S
O63 In52 2.294 . S
O63 C56 1.240 . S
O64 In52 2.326 . S
O64 C56 1.252 . S
In65 O66 2.294 . S
In65 O67 2.326 . S
In65 O71 2.266 . S
In65 O72 2.326 . S
In65 O73 2.266 . S
In65 O74 2.326 . S
In65 O76 2.294 . S
In65 O77 2.326 . S
O66 In65 2.294 . S
O66 C75 1.240 . S
O67 In65 2.326 . S
O67 C75 1.252 . S
C68 O71 1.252 . S
C68 O72 1.260 . S
C69 O76 1.240 . S
C69 O77 1.252 . S
C70 O73 1.252 . S
C70 O74 1.260 . S
O71 In65 2.266 . S
O71 C68 1.252 . S
O72 In65 2.326 . S
O72 C68 1.260 . S
O73 In65 2.266 . S
O73 C70 1.252 . S
O74 In65 2.326 . S
O74 C70 1.260 . S
C75 O66 1.240 . S
C75 O67 1.252 . S
O76 In65 2.294 . S
O76 C69 1.240 . S
O77 In65 2.326 . S
O77 C69 1.252 . S
In78 O79 2.294 . S
In78 O80 2.326 . S
In78 O84 2.266 . S
In78 O85 2.326 . S
In78 O86 2.266 . S
In78 O87 2.326 . S
In78 O89 2.294 . S
In78 O90 2.326 . S
O79 In78 2.294 . S
O79 C88 1.240 . S
O80 In78 2.326 . S
O80 C88 1.252 . S
C81 O84 1.252 . S
C81 O85 1.260 . S
C82 O89 1.240 . S
C82 O90 1.252 . S
C83 O86 1.252 . S
C83 O87 1.260 . S
O84 In78 2.266 . S
O84 C81 1.252 . S
O85 In78 2.326 . S
O85 C81 1.260 . S
O86 In78 2.266 . S
O86 C83 1.252 . S
O87 In78 2.326 . S
O87 C83 1.260 . S
C88 O79 1.240 . S
C88 O80 1.252 . S
O89 In78 2.294 . S
O89 C82 1.240 . S
O90 In78 2.326 . S
O90 C82 1.252 . S
In91 O92 2.294 1_556 S
In91 O93 2.326 1_455 S
In91 O97 2.266 1_556 S
In91 O98 2.326 . S
In91 O99 2.266 1_455 S
In91 O100 2.326 1_456 S
In91 O102 2.294 . S
In91 O103 2.326 1_556 S
O92 In91 2.294 1_554 S
O92 C101 1.240 . S
O93 In91 2.326 1_655 S
O93 C101 1.252 1_656 S
C94 O97 1.252 . S
C94 O98 1.260 1_554 S
C95 O102 1.240 . S
C95 O103 1.252 1_556 S
C96 O99 1.252 . S
C96 O100 1.260 1_556 S
O97 In91 2.266 1_554 S
O97 C94 1.252 . S
O98 In91 2.326 . S
O98 C94 1.260 1_556 S
O99 In91 2.266 1_655 S
O99 C96 1.252 . S
O100 In91 2.326 1_654 S
O100 C96 1.260 1_554 S
C101 O92 1.240 . S
C101 O93 1.252 1_454 S
O102 In91 2.294 . S
O102 C95 1.240 . S
O103 In91 2.326 1_554 S
O103 C95 1.252 1_554 S
In104 O105 2.294 . S
In104 O106 2.326 1_545 S
In104 O110 2.266 . S
In104 O111 2.326 . S
In104 O112 2.266 1_545 S
In104 O113 2.326 1_545 S
In104 O115 2.294 . S
In104 O116 2.326 . S
O105 In104 2.294 . S
O105 C114 1.240 . S
O106 In104 2.326 1_565 S
O106 C114 1.252 1_565 S
C107 O110 1.252 . S
C107 O111 1.260 . S
C108 O115 1.240 . S
C108 O116 1.252 . S
C109 O112 1.252 . S
C109 O113 1.260 . S
O110 In104 2.266 . S
O110 C107 1.252 . S
O111 In104 2.326 . S
O111 C107 1.260 . S
O112 In104 2.266 1_565 S
O112 C109 1.252 . S
O113 In104 2.326 1_565 S
O113 C109 1.260 . S
C114 O105 1.240 . S
C114 O106 1.252 1_545 S
O115 In104 2.294 . S
O115 C108 1.240 . S
O116 In104 2.326 . S
O116 C108 1.252 . S
In117 O118 2.294 . S
In117 O119 2.326 . S
In117 O123 2.266 . S
In117 O124 2.326 . S
In117 O125 2.266 . S
In117 O126 2.326 . S
In117 O128 2.294 . S
In117 O129 2.326 . S
O118 In117 2.294 . S
O118 C127 1.240 . S
O119 In117 2.326 . S
O119 C127 1.252 . S
C120 O123 1.252 . S
C120 O124 1.260 . S
C121 O128 1.240 . S
C121 O129 1.252 . S
C122 O125 1.252 . S
C122 O126 1.260 . S
O123 In117 2.266 . S
O123 C120 1.252 . S
O124 In117 2.326 . S
O124 C120 1.260 . S
O125 In117 2.266 . S
O125 C122 1.252 . S
O126 In117 2.326 . S
O126 C122 1.260 . S
C127 O118 1.240 . S
C127 O119 1.252 . S
O128 In117 2.294 . S
O128 C121 1.240 . S
O129 In117 2.326 . S
O129 C121 1.252 . S
In130 O131 2.294 . S
In130 O132 2.326 . S
In130 O136 2.266 . S
In130 O137 2.326 . S
In130 O138 2.266 . S
In130 O139 2.326 . S
In130 O141 2.294 . S
In130 O142 2.326 . S
O131 In130 2.294 . S
O131 C140 1.240 . S
O132 In130 2.326 . S
O132 C140 1.252 . S
C133 O136 1.252 . S
C133 O137 1.260 . S
C134 O141 1.240 . S
C134 O142 1.252 . S
C135 O138 1.252 . S
C135 O139 1.260 . S
O136 In130 2.266 . S
O136 C133 1.252 . S
O137 In130 2.326 . S
O137 C133 1.260 . S
O138 In130 2.266 . S
O138 C135 1.252 . S
O139 In130 2.326 . S
O139 C135 1.260 . S
C140 O131 1.240 . S
C140 O132 1.252 . S
O141 In130 2.294 . S
O141 C134 1.240 . S
O142 In130 2.326 . S
O142 C134 1.252 . S
In143 O144 2.296 . S
In143 O145 2.329 . S
In143 O149 2.264 1_554 S
In143 O150 2.323 1_554 S
In143 O151 2.265 1_565 S
In143 O152 2.325 . S
In143 O154 2.294 1_565 S
In143 O155 2.327 1_554 S
O144 In143 2.296 . S
O144 C153 1.240 . S
O145 In143 2.329 . S
O145 C153 1.252 . S
C146 O149 1.252 . S
C146 O150 1.260 . S
C147 O154 1.240 . S
C147 O155 1.252 1_544 S
C148 O151 1.252 . S
C148 O152 1.260 1_545 S
O149 In143 2.264 1_556 S
O149 C146 1.252 . S
O150 In143 2.323 1_556 S
O150 C146 1.260 . S
O151 In143 2.265 1_545 S
O151 C148 1.252 . S
O152 In143 2.325 . S
O152 C148 1.260 1_565 S
C153 O144 1.240 . S
C153 O145 1.252 . S
O154 In143 2.294 1_545 S
O154 C147 1.240 . S
O155 In143 2.327 1_556 S
O155 C147 1.252 1_566 S
In156 O157 2.294 . S
In156 O158 2.326 . S
In156 O162 2.266 . S
In156 O163 2.326 1_554 S
In156 O164 2.266 . S
In156 O165 2.326 . S
In156 O167 2.294 . S
In156 O168 2.326 . S
O157 In156 2.294 . S
O157 C166 1.240 . S
O158 In156 2.326 . S
O158 C166 1.252 . S
C159 O162 1.252 1_556 S
C159 O163 1.260 . S
C160 O167 1.240 . S
C160 O168 1.252 . S
C161 O164 1.252 . S
C161 O165 1.260 . S
O162 In156 2.266 . S
O162 C159 1.252 1_554 S
O163 In156 2.326 1_556 S
O163 C159 1.260 . S
O164 In156 2.266 . S
O164 C161 1.252 . S
O165 In156 2.326 . S
O165 C161 1.260 . S
C166 O157 1.240 . S
C166 O158 1.252 . S
O167 In156 2.294 . S
O167 C160 1.240 . S
O168 In156 2.326 . S
O168 C160 1.252 . S
In169 O170 2.294 . S
In169 O171 2.326 . S
In169 O175 2.266 . S
In169 O176 2.326 . S
In169 O177 2.266 . S
In169 O178 2.326 . S
In169 O180 2.294 . S
In169 O181 2.326 . S
O170 In169 2.294 . S
O170 C179 1.240 . S
O171 In169 2.326 . S
O171 C179 1.252 . S
C172 O175 1.252 . S
C172 O176 1.260 . S
C173 O180 1.240 . S
C173 O181 1.252 . S
C174 O177 1.252 . S
C174 O178 1.260 . S
O175 In169 2.266 . S
O175 C172 1.252 . S
O176 In169 2.326 . S
O176 C172 1.260 . S
O177 In169 2.266 . S
O177 C174 1.252 . S
O178 In169 2.326 . S
O178 C174 1.260 . S
C179 O170 1.240 . S
C179 O171 1.252 . S
O180 In169 2.294 . S
O180 C173 1.240 . S
O181 In169 2.326 . S
O181 C173 1.252 . S
In182 O183 2.294 . S
In182 O184 2.326 . S
In182 O188 2.266 . S
In182 O189 2.326 . S
In182 O190 2.266 . S
In182 O191 2.326 . S
In182 O193 2.294 . S
In182 O194 2.326 . S
O183 In182 2.294 . S
O183 C192 1.240 . S
O184 In182 2.326 . S
O184 C192 1.252 . S
C185 O188 1.252 . S
C185 O189 1.260 . S
C186 O193 1.240 . S
C186 O194 1.252 . S
C187 O190 1.252 . S
C187 O191 1.260 . S
O188 In182 2.266 . S
O188 C185 1.252 . S
O189 In182 2.326 . S
O189 C185 1.260 . S
O190 In182 2.266 . S
O190 C187 1.252 . S
O191 In182 2.326 . S
O191 C187 1.260 . S
C192 O183 1.240 . S
C192 O184 1.252 . S
O193 In182 2.294 . S
O193 C186 1.240 . S
O194 In182 2.326 . S
O194 C186 1.252 . S
In195 O196 2.294 . S
In195 O197 2.326 . S
In195 O201 2.266 . S
In195 O202 2.326 . S
In195 O203 2.266 . S
In195 O204 2.326 . S
In195 O206 2.294 . S
In195 O207 2.326 . S
O196 In195 2.294 . S
O196 C205 1.240 . S
O197 In195 2.326 . S
O197 C205 1.252 . S
C198 O201 1.252 . S
C198 O202 1.260 . S
C199 O206 1.240 . S
C199 O207 1.252 . S
C200 O203 1.252 . S
C200 O204 1.260 . S
O201 In195 2.266 . S
O201 C198 1.252 . S
O202 In195 2.326 . S
O202 C198 1.260 . S
O203 In195 2.266 . S
O203 C200 1.252 . S
O204 In195 2.326 . S
O204 C200 1.260 . S
C205 O196 1.240 . S
C205 O197 1.252 . S
O206 In195 2.294 . S
O206 C199 1.240 . S
O207 In195 2.326 . S
O207 C199 1.252 . S
In208 O209 2.294 1_655 S
In208 O210 2.326 . S
In208 O214 2.266 1_655 S
In208 O215 2.326 . S
In208 O216 2.266 1_545 S
In208 O217 2.326 1_545 S
In208 O219 2.294 . S
In208 O220 2.326 . S
O209 In208 2.294 1_455 S
O209 C218 1.240 1_455 S
O210 In208 2.326 . S
O210 C218 1.252 . S
C211 O214 1.252 1_655 S
C211 O215 1.260 . S
C212 O219 1.240 . S
C212 O220 1.252 . S
C213 O216 1.252 . S
C213 O217 1.260 . S
O214 In208 2.266 1_455 S
O214 C211 1.252 1_455 S
O215 In208 2.326 . S
O215 C211 1.260 . S
O216 In208 2.266 1_565 S
O216 C213 1.252 . S
O217 In208 2.326 1_565 S
O217 C213 1.260 . S
C218 O209 1.240 1_655 S
C218 O210 1.252 . S
O219 In208 2.294 . S
O219 C212 1.240 . S
O220 In208 2.326 . S
O220 C212 1.252 . S
In221 O222 2.294 . S
In221 O223 2.326 . S
In221 O227 2.266 . S
In221 O228 2.326 . S
In221 O229 2.266 . S
In221 O230 2.326 . S
In221 O232 2.294 . S
In221 O233 2.326 . S
O222 In221 2.294 . S
O222 C231 1.240 . S
O223 In221 2.326 . S
O223 C231 1.252 . S
C224 O227 1.252 . S
C224 O228 1.260 . S
C225 O232 1.240 . S
C225 O233 1.252 . S
C226 O229 1.252 . S
C226 O230 1.260 . S
O227 In221 2.266 . S
O227 C224 1.252 . S
O228 In221 2.326 . S
O228 C224 1.260 . S
O229 In221 2.266 . S
O229 C226 1.252 . S
O230 In221 2.326 . S
O230 C226 1.260 . S
C231 O222 1.240 . S
C231 O223 1.252 . S
O232 In221 2.294 . S
O232 C225 1.240 . S
O233 In221 2.326 . S
O233 C225 1.252 . S
In234 O235 2.294 . S
In234 O236 2.326 . S
In234 O240 2.266 . S
In234 O241 2.326 . S
In234 O242 2.266 . S
In234 O243 2.326 . S
In234 O245 2.294 . S
In234 O246 2.326 . S
O235 In234 2.294 . S
O235 C244 1.240 . S
O236 In234 2.326 . S
O236 C244 1.252 . S
C237 O240 1.252 . S
C237 O241 1.260 . S
C238 O245 1.240 . S
C238 O246 1.252 . S
C239 O242 1.252 . S
C239 O243 1.260 . S
O240 In234 2.266 . S
O240 C237 1.252 . S
O241 In234 2.326 . S
O241 C237 1.260 . S
O242 In234 2.266 . S
O242 C239 1.252 . S
O243 In234 2.326 . S
O243 C239 1.260 . S
C244 O235 1.240 . S
C244 O236 1.252 . S
O245 In234 2.294 . S
O245 C238 1.240 . S
O246 In234 2.326 . S
O246 C238 1.252 . S
In247 O248 2.294 . S
In247 O249 2.326 . S
In247 O253 2.266 . S
In247 O254 2.326 . S
In247 O255 2.266 . S
In247 O256 2.326 . S
In247 O258 2.294 . S
In247 O259 2.326 . S
O248 In247 2.294 . S
O248 C257 1.240 . S
O249 In247 2.326 . S
O249 C257 1.252 . S
C250 O253 1.252 . S
C250 O254 1.260 . S
C251 O258 1.240 . S
C251 O259 1.252 . S
C252 O255 1.252 . S
C252 O256 1.260 . S
O253 In247 2.266 . S
O253 C250 1.252 . S
O254 In247 2.326 . S
O254 C250 1.260 . S
O255 In247 2.266 . S
O255 C252 1.252 . S
O256 In247 2.326 . S
O256 C252 1.260 . S
C257 O248 1.240 . S
C257 O249 1.252 . S
O258 In247 2.294 . S
O258 C251 1.240 . S
O259 In247 2.326 . S
O259 C251 1.252 . S
In260 O261 2.294 . S
In260 O262 2.326 . S
In260 O266 2.266 . S
In260 O267 2.326 . S
In260 O268 2.266 1_554 S
In260 O269 2.326 1_554 S
In260 O271 2.294 . S
In260 O272 2.326 . S
O261 In260 2.294 . S
O261 C270 1.240 . S
O262 In260 2.326 . S
O262 C270 1.252 . S
C263 O266 1.252 . S
C263 O267 1.260 . S
C264 O271 1.240 . S
C264 O272 1.252 . S
C265 O268 1.252 . S
C265 O269 1.260 . S
O266 In260 2.266 . S
O266 C263 1.252 . S
O267 In260 2.326 . S
O267 C263 1.260 . S
O268 In260 2.266 1_556 S
O268 C265 1.252 . S
O269 In260 2.326 1_556 S
O269 C265 1.260 . S
C270 O261 1.240 . S
C270 O262 1.252 . S
O271 In260 2.294 . S
O271 C264 1.240 . S
O272 In260 2.326 . S
O272 C264 1.252 . S
In273 O274 2.294 . S
In273 O275 2.326 . S
In273 O279 2.266 . S
In273 O280 2.326 . S
In273 O281 2.266 . S
In273 O282 2.326 . S
In273 O284 2.294 . S
In273 O285 2.326 . S
O274 In273 2.294 . S
O274 C283 1.240 . S
O275 In273 2.326 . S
O275 C283 1.252 . S
C276 O279 1.252 . S
C276 O280 1.260 . S
C277 O284 1.240 . S
C277 O285 1.252 . S
C278 O281 1.252 . S
C278 O282 1.260 . S
O279 In273 2.266 . S
O279 C276 1.252 . S
O280 In273 2.326 . S
O280 C276 1.260 . S
O281 In273 2.266 . S
O281 C278 1.252 . S
O282 In273 2.326 . S
O282 C278 1.260 . S
C283 O274 1.240 . S
C283 O275 1.252 . S
O284 In273 2.294 . S
O284 C277 1.240 . S
O285 In273 2.326 . S
O285 C277 1.252 . S
In286 O287 2.294 . S
In286 O288 2.326 . S
In286 O292 2.266 . S
In286 O293 2.326 . S
In286 O294 2.266 . S
In286 O295 2.326 . S
In286 O297 2.294 . S
In286 O298 2.326 . S
O287 In286 2.294 . S
O287 C296 1.240 . S
O288 In286 2.326 . S
O288 C296 1.252 . S
C289 O292 1.252 . S
C289 O293 1.260 . S
C290 O297 1.240 . S
C290 O298 1.252 . S
C291 O294 1.252 . S
C291 O295 1.260 . S
O292 In286 2.266 . S
O292 C289 1.252 . S
O293 In286 2.326 . S
O293 C289 1.260 . S
O294 In286 2.266 . S
O294 C291 1.252 . S
O295 In286 2.326 . S
O295 C291 1.260 . S
C296 O287 1.240 . S
C296 O288 1.252 . S
O297 In286 2.294 . S
O297 C290 1.240 . S
O298 In286 2.326 . S
O298 C290 1.252 . S
In299 O300 2.294 . S
In299 O301 2.326 . S
In299 O305 2.266 . S
In299 O306 2.326 . S
In299 O307 2.266 . S
In299 O308 2.326 . S
In299 O310 2.294 . S
In299 O311 2.326 . S
O300 In299 2.294 . S
O300 C309 1.240 . S
O301 In299 2.326 . S
O301 C309 1.252 . S
C302 O305 1.252 . S
C302 O306 1.260 . S
C303 O310 1.240 . S
C303 O311 1.252 . S
C304 O307 1.252 . S
C304 O308 1.260 . S
O305 In299 2.266 . S
O305 C302 1.252 . S
O306 In299 2.326 . S
O306 C302 1.260 . S
O307 In299 2.266 . S
O307 C304 1.252 . S
O308 In299 2.326 . S
O308 C304 1.260 . S
C309 O300 1.240 . S
C309 O301 1.252 . S
O310 In299 2.294 . S
O310 C303 1.240 . S
O311 In299 2.326 . S
O311 C303 1.252 . S
Eu312 N341 2.600 . S
Eu312 N347 2.562 . S
Eu312 O356 2.462 . S
Eu312 O357 2.373 . S
Eu312 O359 2.432 . S
Eu312 O360 2.291 . S
Eu312 O364 2.335 . S
Eu312 O367 2.372 . S
Eu312 C376 2.787 . S
C313 N314 1.365 . S
C313 C316 1.405 . S
C313 C320 1.448 1_556 S
N314 C313 1.365 . S
N314 C317 1.319 . S
N314 Eu323 2.600 1_566 S
C315 C317 1.397 . S
C315 C318 1.367 . S
C315 H335 0.931 . S
C316 C313 1.405 . S
C316 C318 1.403 . S
C316 C322 1.439 . S
C317 N314 1.319 . S
C317 C315 1.397 . S
C317 H328 0.930 1_565 S
C318 C315 1.367 . S
C318 C316 1.403 . S
C318 H339 0.929 . S
C319 C320 1.430 . S
C319 C321 1.387 1_554 S
C319 C325 1.404 . S
C320 C313 1.448 1_554 S
C320 C319 1.430 . S
C320 N324 1.351 . S
C321 C319 1.387 1_556 S
C321 C322 1.374 . S
C321 H336 0.931 . S
C322 C316 1.439 . S
C322 C321 1.374 . S
C322 H337 0.931 . S
Eu323 N314 2.600 1_544 S
Eu323 N324 2.562 1_545 S
Eu323 O358 2.335 1_655 S
Eu323 O361 2.372 1_654 S
Eu323 O362 2.462 . S
Eu323 O363 2.373 1_645 S
Eu323 O365 2.432 1_554 S
Eu323 O366 2.291 1_655 S
Eu323 C387 2.787 . S
N324 C320 1.351 . S
N324 Eu323 2.562 1_565 S
N324 C326 1.325 . S
C325 C319 1.404 . S
C325 C327 1.366 . S
C325 H333 0.930 . S
C326 N324 1.325 . S
C326 C327 1.416 . S
C326 H332 0.929 . S
C327 C325 1.366 . S
C327 C326 1.416 . S
C327 H329 0.930 . S
H328 C317 0.930 1_545 S
H329 C327 0.930 . S
H330 C345 0.930 . S
H331 C352 0.930 . S
H332 C326 0.929 . S
H333 C325 0.930 . S
H334 C348 0.929 . S
H335 C315 0.931 . S
H336 C321 0.931 . S
H337 C322 0.931 . S
H338 C343 0.931 . S
H339 C318 0.929 . S
H340 C351 0.930 . S
N341 Eu312 2.600 . S
N341 C342 1.365 . S
N341 C345 1.319 . S
C342 N341 1.365 . S
C342 C344 1.405 . S
C342 C350 1.448 . S
C343 H338 0.931 . S
C343 C345 1.397 . S
C343 C346 1.367 . S
C344 C342 1.405 . S
C344 C346 1.403 . S
C344 C377 1.439 . S
C345 H330 0.930 . S
C345 N341 1.319 . S
C345 C343 1.397 . S
C346 C343 1.367 . S
C346 C344 1.403 . S
C346 H353 0.929 . S
N347 Eu312 2.562 . S
N347 C348 1.325 . S
N347 C350 1.351 . S
C348 H334 0.929 . S
C348 N347 1.325 . S
C348 C352 1.416 . S
C349 C350 1.430 . S
C349 C351 1.404 . S
C349 C378 1.387 . S
C350 C342 1.448 . S
C350 N347 1.351 . S
C350 C349 1.430 . S
C351 H340 0.930 . S
C351 C349 1.404 . S
C351 C352 1.366 . S
C352 H331 0.930 . S
C352 C348 1.416 . S
C352 C351 1.366 . S
H353 C346 0.929 . S
H354 C377 0.931 . S
H355 C378 0.931 . S
O356 Eu312 2.462 . S
O356 C376 1.252 . S
O357 Eu312 2.373 . S
O357 C368 1.249 . S
O358 Eu323 2.335 1_455 S
O358 C368 1.264 . S
O359 Eu312 2.432 . S
O359 C376 1.268 . S
O360 Eu312 2.291 . S
O360 C375 1.255 1_554 S
O361 Eu323 2.372 1_456 S
O361 C375 1.257 . S
O362 Eu323 2.462 . S
O362 C387 1.252 . S
O363 Eu323 2.373 1_465 S
O363 C379 1.249 . S
O364 Eu312 2.335 . S
O364 C379 1.264 1_545 S
O365 Eu323 2.432 1_556 S
O365 C387 1.268 1_556 S
O366 Eu323 2.291 1_455 S
O366 C386 1.255 . S
O367 Eu312 2.372 . S
O367 C386 1.257 . S
C368 O357 1.249 . S
C368 O358 1.264 . S
C369 C372 1.382 . S
C369 C374 1.390 . S
C369 C376 1.506 . S
C370 C371 1.398 . S
C370 C374 1.392 . S
C371 C370 1.398 . S
C371 C373 1.372 . S
C371 H388 0.931 . S
C372 C369 1.382 . S
C372 C373 1.390 . S
C372 H389 0.931 . S
C373 C371 1.372 . S
C373 C372 1.390 . S
C373 H390 0.929 . S
C374 C369 1.390 . S
C374 C370 1.392 . S
C374 H391 0.930 . S
C375 O360 1.255 1_556 S
C375 O361 1.257 . S
C376 Eu312 2.787 . S
C376 O356 1.252 . S
C376 O359 1.268 . S
C376 C369 1.506 . S
C377 C344 1.439 . S
C377 H354 0.931 . S
C377 C378 1.374 . S
C378 C349 1.387 . S
C378 H355 0.931 . S
C378 C377 1.374 . S
C379 O363 1.249 . S
C379 O364 1.264 1_565 S
C380 C383 1.382 1_554 S
C380 C384 1.390 . S
C380 C387 1.506 . S
C381 C382 1.398 1_554 S
C381 C384 1.392 . S
C382 C381 1.398 1_556 S
C382 C385 1.372 . S
C382 H392 0.931 . S
C383 C380 1.382 1_556 S
C383 C385 1.390 . S
C383 H393 0.931 . S
C384 C380 1.390 . S
C384 C381 1.392 . S
C384 H394 0.930 . S
C385 C382 1.372 . S
C385 C383 1.390 . S
C385 H395 0.929 . S
C386 O366 1.255 . S
C386 O367 1.257 . S
C387 Eu323 2.787 . S
C387 O362 1.252 . S
C387 O365 1.268 1_554 S
C387 C380 1.506 . S
H388 C371 0.931 . S
H389 C372 0.931 . S
H390 C373 0.929 . S
H391 C374 0.930 . S
H392 C382 0.931 . S
H393 C383 0.931 . S
H394 C384 0.930 . S
H395 C385 0.929 . S
Eu396 N425 2.600 . S
Eu396 N431 2.562 . S
Eu396 O440 2.462 . S
Eu396 O441 2.373 . S
Eu396 O443 2.432 . S
Eu396 O444 2.291 . S
Eu396 O448 2.335 . S
Eu396 O451 2.372 . S
Eu396 C460 2.787 . S
C397 N398 1.365 . S
C397 C400 1.405 . S
C397 C404 1.448 . S
N398 C397 1.365 . S
N398 C401 1.319 . S
N398 Eu407 2.600 . S
C399 C401 1.397 . S
C399 C402 1.367 . S
C399 H419 0.931 . S
C400 C397 1.405 . S
C400 C402 1.403 . S
C400 C406 1.439 . S
C401 N398 1.319 . S
C401 C399 1.397 . S
C401 H412 0.930 . S
C402 C399 1.367 . S
C402 C400 1.403 . S
C402 H423 0.929 . S
C403 C404 1.430 . S
C403 C405 1.387 . S
C403 C409 1.404 . S
C404 C397 1.448 . S
C404 C403 1.430 . S
C404 N408 1.351 . S
C405 C403 1.387 . S
C405 C406 1.374 . S
C405 H420 0.931 . S
C406 C400 1.439 . S
C406 C405 1.374 . S
C406 H421 0.931 . S
Eu407 N398 2.600 . S
Eu407 N408 2.562 . S
Eu407 O442 2.335 . S
Eu407 O445 2.372 . S
Eu407 O446 2.462 . S
Eu407 O447 2.373 . S
Eu407 O449 2.432 . S
Eu407 O450 2.291 . S
Eu407 C471 2.787 . S
N408 C404 1.351 . S
N408 Eu407 2.562 . S
N408 C410 1.325 . S
C409 C403 1.404 . S
C409 C411 1.366 . S
C409 H417 0.930 . S
C410 N408 1.325 . S
C410 C411 1.416 . S
C410 H416 0.929 . S
C411 C409 1.366 . S
C411 C410 1.416 . S
C411 H413 0.930 . S
H412 C401 0.930 . S
H413 C411 0.930 . S
H414 C429 0.930 . S
H415 C436 0.930 . S
H416 C410 0.929 . S
H417 C409 0.930 . S
H418 C432 0.929 . S
H419 C399 0.931 . S
H420 C405 0.931 . S
H421 C406 0.931 . S
H422 C427 0.931 . S
H423 C402 0.929 . S
H424 C435 0.930 . S
N425 Eu396 2.600 . S
N425 C426 1.365 . S
N425 C429 1.319 . S
C426 N425 1.365 . S
C426 C428 1.405 . S
C426 C434 1.448 . S
C427 H422 0.931 . S
C427 C429 1.397 . S
C427 C430 1.367 . S
C428 C426 1.405 . S
C428 C430 1.403 . S
C428 C461 1.439 . S
C429 H414 0.930 . S
C429 N425 1.319 . S
C429 C427 1.397 . S
C430 C427 1.367 . S
C430 C428 1.403 . S
C430 H437 0.929 . S
N431 Eu396 2.562 . S
N431 C432 1.325 . S
N431 C434 1.351 . S
C432 H418 0.929 . S
C432 N431 1.325 . S
C432 C436 1.416 . S
C433 C434 1.430 . S
C433 C435 1.404 . S
C433 C462 1.387 . S
C434 C426 1.448 . S
C434 N431 1.351 . S
C434 C433 1.430 . S
C435 H424 0.930 . S
C435 C433 1.404 . S
C435 C436 1.366 . S
C436 H415 0.930 . S
C436 C432 1.416 . S
C436 C435 1.366 . S
H437 C430 0.929 . S
H438 C461 0.931 1_545 S
H439 C462 0.931 1_545 S
O440 Eu396 2.462 . S
O440 C460 1.252 . S
O441 Eu396 2.373 . S
O441 C452 1.249 . S
O442 Eu407 2.335 . S
O442 C452 1.264 . S
O443 Eu396 2.432 . S
O443 C460 1.268 . S
O444 Eu396 2.291 . S
O444 C459 1.255 . S
O445 Eu407 2.372 . S
O445 C459 1.257 . S
O446 Eu407 2.462 . S
O446 C471 1.252 . S
O447 Eu407 2.373 . S
O447 C463 1.249 . S
O448 Eu396 2.335 . S
O448 C463 1.264 . S
O449 Eu407 2.432 . S
O449 C471 1.268 . S
O450 Eu407 2.291 . S
O450 C470 1.255 . S
O451 Eu396 2.372 . S
O451 C470 1.257 . S
C452 O441 1.249 . S
C452 O442 1.264 . S
C453 C456 1.382 . S
C453 C458 1.390 . S
C453 C460 1.506 . S
C454 C455 1.398 . S
C454 C458 1.392 . S
C455 C454 1.398 . S
C455 C457 1.372 . S
C455 H472 0.931 . S
C456 C453 1.382 . S
C456 C457 1.390 . S
C456 H473 0.931 . S
C457 C455 1.372 . S
C457 C456 1.390 . S
C457 H474 0.929 . S
C458 C453 1.390 . S
C458 C454 1.392 . S
C458 H475 0.930 . S
C459 O444 1.255 . S
C459 O445 1.257 . S
C460 Eu396 2.787 . S
C460 O440 1.252 . S
C460 O443 1.268 . S
C460 C453 1.506 . S
C461 C428 1.439 . S
C461 H438 0.931 1_565 S
C461 C462 1.374 . S
C462 C433 1.387 . S
C462 H439 0.931 1_565 S
C462 C461 1.374 . S
C463 O447 1.249 . S
C463 O448 1.264 . S
C464 C467 1.382 . S
C464 C468 1.390 . S
C464 C471 1.506 . S
C465 C466 1.398 . S
C465 C468 1.392 . S
C466 C465 1.398 . S
C466 C469 1.372 . S
C466 H476 0.931 . S
C467 C464 1.382 . S
C467 C469 1.390 . S
C467 H477 0.931 . S
C468 C464 1.390 . S
C468 C465 1.392 . S
C468 H478 0.930 . S
C469 C466 1.372 . S
C469 C467 1.390 . S
C469 H479 0.929 . S
C470 O450 1.255 . S
C470 O451 1.257 . S
C471 Eu407 2.787 . S
C471 O446 1.252 . S
C471 O449 1.268 . S
C471 C464 1.506 . S
H472 C455 0.931 . S
H473 C456 0.931 . S
H474 C457 0.929 . S
H475 C458 0.930 . S
H476 C466 0.931 . S
H477 C467 0.931 . S
H478 C468 0.930 . S
H479 C469 0.929 . S
Eu480 N509 2.600 . S
Eu480 N515 2.562 1_545 S
Eu480 O524 2.462 . S
Eu480 O525 2.373 1_545 S
Eu480 O527 2.432 . S
Eu480 O528 2.291 . S
Eu480 O532 2.335 . S
Eu480 O535 2.372 . S
Eu480 C544 2.787 . S
C481 N482 1.365 . S
C481 C484 1.405 . S
C481 C488 1.448 . S
N482 C481 1.365 . S
N482 C485 1.319 . S
N482 Eu491 2.600 . S
C483 C485 1.397 . S
C483 C486 1.367 . S
C483 H503 0.931 . S
C484 C481 1.405 . S
C484 C486 1.403 . S
C484 C490 1.439 . S
C485 N482 1.319 . S
C485 C483 1.397 . S
C485 H496 0.930 . S
C486 C483 1.367 . S
C486 C484 1.403 . S
C486 H507 0.929 . S
C487 C488 1.430 . S
C487 C489 1.387 . S
C487 C493 1.404 . S
C488 C481 1.448 . S
C488 C487 1.430 . S
C488 N492 1.351 . S
C489 C487 1.387 . S
C489 C490 1.374 . S
C489 H504 0.931 . S
C490 C484 1.439 . S
C490 C489 1.374 . S
C490 H505 0.931 . S
Eu491 N482 2.600 . S
Eu491 N492 2.562 . S
Eu491 O526 2.335 1_545 S
Eu491 O529 2.372 . S
Eu491 O530 2.462 . S
Eu491 O531 2.373 . S
Eu491 O533 2.432 . S
Eu491 O534 2.291 . S
Eu491 C555 2.787 . S
N492 C488 1.351 . S
N492 Eu491 2.562 . S
N492 C494 1.325 . S
C493 C487 1.404 . S
C493 C495 1.366 . S
C493 H501 0.930 . S
C494 N492 1.325 . S
C494 C495 1.416 . S
C494 H500 0.929 . S
C495 C493 1.366 . S
C495 C494 1.416 . S
C495 H497 0.930 . S
H496 C485 0.930 . S
H497 C495 0.930 . S
H498 C513 0.930 . S
H499 C520 0.930 . S
H500 C494 0.929 . S
H501 C493 0.930 . S
H502 C516 0.929 . S
H503 C483 0.931 . S
H504 C489 0.931 . S
H505 C490 0.931 . S
H506 C511 0.931 . S
H507 C486 0.929 . S
H508 C519 0.930 . S
N509 Eu480 2.600 . S
N509 C510 1.365 1_545 S
N509 C513 1.319 . S
C510 N509 1.365 1_565 S
C510 C512 1.405 . S
C510 C518 1.448 . S
C511 H506 0.931 . S
C511 C513 1.397 . S
C511 C514 1.367 1_545 S
C512 C510 1.405 . S
C512 C514 1.403 . S
C512 C545 1.439 . S
C513 H498 0.930 . S
C513 N509 1.319 . S
C513 C511 1.397 . S
C514 C511 1.367 1_565 S
C514 C512 1.403 . S
C514 H521 0.929 . S
N515 Eu480 2.562 1_565 S
N515 C516 1.325 . S
N515 C518 1.351 . S
C516 H502 0.929 . S
C516 N515 1.325 . S
C516 C520 1.416 . S
C517 C518 1.430 . S
C517 C519 1.404 . S
C517 C546 1.387 . S
C518 C510 1.448 . S
C518 N515 1.351 . S
C518 C517 1.430 . S
C519 H508 0.930 . S
C519 C517 1.404 . S
C519 C520 1.366 . S
C520 H499 0.930 . S
C520 C516 1.416 . S
C520 C519 1.366 . S
H521 C514 0.929 . S
H522 C545 0.931 . S
H523 C546 0.931 . S
O524 Eu480 2.462 . S
O524 C544 1.252 . S
O525 Eu480 2.373 1_565 S
O525 C536 1.249 . S
O526 Eu491 2.335 1_565 S
O526 C536 1.264 . S
O527 Eu480 2.432 . S
O527 C544 1.268 . S
O528 Eu480 2.291 . S
O528 C543 1.255 . S
O529 Eu491 2.372 . S
O529 C543 1.257 . S
O530 Eu491 2.462 . S
O530 C555 1.252 . S
O531 Eu491 2.373 . S
O531 C547 1.249 . S
O532 Eu480 2.335 . S
O532 C547 1.264 . S
O533 Eu491 2.432 . S
O533 C555 1.268 . S
O534 Eu491 2.291 . S
O534 C554 1.255 . S
O535 Eu480 2.372 . S
O535 C554 1.257 . S
C536 O525 1.249 . S
C536 O526 1.264 . S
C537 C540 1.382 . S
C537 C542 1.390 . S
C537 C544 1.506 . S
C538 C539 1.398 . S
C538 C542 1.392 . S
C539 C538 1.398 . S
C539 C541 1.372 . S
C539 H556 0.931 . S
C540 C537 1.382 . S
C540 C541 1.390 . S
C540 H557 0.931 . S
C541 C539 1.372 . S
C541 C540 1.390 . S
C541 H558 0.929 . S
C542 C537 1.390 . S
C542 C538 1.392 . S
C542 H559 0.930 . S
C543 O528 1.255 . S
C543 O529 1.257 . S
C544 Eu480 2.787 . S
C544 O524 1.252 . S
C544 O527 1.268 . S
C544 C537 1.506 . S
C545 C512 1.439 . S
C545 H522 0.931 . S
C545 C546 1.374 . S
C546 C517 1.387 . S
C546 H523 0.931 . S
C546 C545 1.374 . S
C547 O531 1.249 . S
C547 O532 1.264 . S
C548 C551 1.382 . S
C548 C552 1.390 . S
C548 C555 1.506 1_565 S
C549 C550 1.398 . S
C549 C552 1.392 . S
C550 C549 1.398 . S
C550 C553 1.372 . S
C550 H560 0.931 . S
C551 C548 1.382 . S
C551 C553 1.390 . S
C551 H561 0.931 . S
C552 C548 1.390 . S
C552 C549 1.392 . S
C552 H562 0.930 . S
C553 C550 1.372 . S
C553 C551 1.390 . S
C553 H563 0.929 . S
C554 O534 1.255 . S
C554 O535 1.257 . S
C555 Eu491 2.787 . S
C555 O530 1.252 . S
C555 O533 1.268 . S
C555 C548 1.506 1_545 S
H556 C539 0.931 . S
H557 C540 0.931 . S
H558 C541 0.929 . S
H559 C542 0.930 . S
H560 C550 0.931 . S
H561 C551 0.931 . S
H562 C552 0.930 . S
H563 C553 0.929 . S
Eu564 N593 2.600 . S
Eu564 N599 2.562 . S
Eu564 O608 2.462 . S
Eu564 O609 2.373 . S
Eu564 O611 2.432 . S
Eu564 O612 2.291 . S
Eu564 O616 2.335 . S
Eu564 O619 2.372 . S
Eu564 C628 2.787 . S
C565 N566 1.365 . S
C565 C568 1.405 . S
C565 C572 1.448 . S
N566 C565 1.365 . S
N566 C569 1.319 . S
N566 Eu575 2.600 . S
C567 C569 1.397 . S
C567 C570 1.367 . S
C567 H587 0.931 . S
C568 C565 1.405 . S
C568 C570 1.403 . S
C568 C574 1.439 . S
C569 N566 1.319 . S
C569 C567 1.397 . S
C569 H580 0.930 . S
C570 C567 1.367 . S
C570 C568 1.403 . S
C570 H591 0.929 . S
C571 C572 1.430 . S
C571 C573 1.387 . S
C571 C577 1.404 . S
C572 C565 1.448 . S
C572 C571 1.430 . S
C572 N576 1.351 . S
C573 C571 1.387 . S
C573 C574 1.374 . S
C573 H588 0.931 . S
C574 C568 1.439 . S
C574 C573 1.374 . S
C574 H589 0.931 . S
Eu575 N566 2.600 . S
Eu575 N576 2.562 . S
Eu575 O610 2.335 . S
Eu575 O613 2.372 . S
Eu575 O614 2.462 . S
Eu575 O615 2.373 . S
Eu575 O617 2.432 . S
Eu575 O618 2.291 . S
Eu575 C639 2.787 . S
N576 C572 1.351 . S
N576 Eu575 2.562 . S
N576 C578 1.325 . S
C577 C571 1.404 . S
C577 C579 1.366 . S
C577 H585 0.930 . S
C578 N576 1.325 . S
C578 C579 1.416 . S
C578 H584 0.929 . S
C579 C577 1.366 . S
C579 C578 1.416 . S
C579 H581 0.930 . S
H580 C569 0.930 . S
H581 C579 0.930 . S
H582 C597 0.930 . S
H583 C604 0.930 . S
H584 C578 0.929 . S
H585 C577 0.930 . S
H586 C600 0.929 . S
H587 C567 0.931 . S
H588 C573 0.931 . S
H589 C574 0.931 . S
H590 C595 0.931 . S
H591 C570 0.929 . S
H592 C603 0.930 1_554 S
N593 Eu564 2.600 . S
N593 C594 1.365 . S
N593 C597 1.319 . S
C594 N593 1.365 . S
C594 C596 1.405 . S
C594 C602 1.448 . S
C595 H590 0.931 . S
C595 C597 1.397 . S
C595 C598 1.367 . S
C596 C594 1.405 . S
C596 C598 1.403 . S
C596 C629 1.439 1_556 S
C597 H582 0.930 . S
C597 N593 1.319 . S
C597 C595 1.397 . S
C598 C595 1.367 . S
C598 C596 1.403 . S
C598 H605 0.929 . S
N599 Eu564 2.562 . S
N599 C600 1.325 . S
N599 C602 1.351 . S
C600 H586 0.929 . S
C600 N599 1.325 . S
C600 C604 1.416 . S
C601 C602 1.430 . S
C601 C603 1.404 . S
C601 C630 1.387 1_556 S
C602 C594 1.448 . S
C602 N599 1.351 . S
C602 C601 1.430 . S
C603 H592 0.930 1_556 S
C603 C601 1.404 . S
C603 C604 1.366 . S
C604 H583 0.930 . S
C604 C600 1.416 . S
C604 C603 1.366 . S
H605 C598 0.929 . S
H606 C629 0.931 . S
H607 C630 0.931 . S
O608 Eu564 2.462 . S
O608 C628 1.252 . S
O609 Eu564 2.373 . S
O609 C620 1.249 . S
O610 Eu575 2.335 . S
O610 C620 1.264 . S
O611 Eu564 2.432 . S
O611 C628 1.268 . S
O612 Eu564 2.291 . S
O612 C627 1.255 . S
O613 Eu575 2.372 . S
O613 C627 1.257 . S
O614 Eu575 2.462 . S
O614 C639 1.252 . S
O615 Eu575 2.373 . S
O615 C631 1.249 . S
O616 Eu564 2.335 . S
O616 C631 1.264 . S
O617 Eu575 2.432 . S
O617 C639 1.268 . S
O618 Eu575 2.291 . S
O618 C638 1.255 . S
O619 Eu564 2.372 . S
O619 C638 1.257 . S
C620 O609 1.249 . S
C620 O610 1.264 . S
C621 C624 1.382 . S
C621 C626 1.390 . S
C621 C628 1.506 . S
C622 C623 1.398 . S
C622 C626 1.392 . S
C623 C622 1.398 . S
C623 C625 1.372 . S
C623 H640 0.931 . S
C624 C621 1.382 . S
C624 C625 1.390 . S
C624 H641 0.931 . S
C625 C623 1.372 . S
C625 C624 1.390 . S
C625 H642 0.929 . S
C626 C621 1.390 . S
C626 C622 1.392 . S
C626 H643 0.930 . S
C627 O612 1.255 . S
C627 O613 1.257 . S
C628 Eu564 2.787 . S
C628 O608 1.252 . S
C628 O611 1.268 . S
C628 C621 1.506 . S
C629 C596 1.439 1_554 S
C629 H606 0.931 . S
C629 C630 1.374 . S
C630 C601 1.387 1_554 S
C630 H607 0.931 . S
C630 C629 1.374 . S
C631 O615 1.249 . S
C631 O616 1.264 . S
C632 C635 1.382 . S
C632 C636 1.390 . S
C632 C639 1.506 . S
C633 C634 1.398 . S
C633 C636 1.392 . S
C634 C633 1.398 . S
C634 C637 1.372 . S
C634 H644 0.931 . S
C635 C632 1.382 . S
C635 C637 1.390 . S
C635 H645 0.931 . S
C636 C632 1.390 . S
C636 C633 1.392 . S
C636 H646 0.930 . S
C637 C634 1.372 . S
C637 C635 1.390 . S
C637 H647 0.929 . S
C638 O618 1.255 . S
C638 O619 1.257 . S
C639 Eu575 2.787 . S
C639 O614 1.252 . S
C639 O617 1.268 . S
C639 C632 1.506 . S
H640 C623 0.931 . S
H641 C624 0.931 . S
H642 C625 0.929 . S
H643 C626 0.930 . S
H644 C634 0.931 . S
H645 C635 0.931 . S
H646 C636 0.930 . S
H647 C637 0.929 . S
Eu648 N677 2.600 . S
Eu648 N683 2.562 . S
Eu648 O692 2.462 . S
Eu648 O693 2.373 1_565 S
Eu648 O695 2.432 . S
Eu648 O696 2.291 . S
Eu648 O700 2.335 1_565 S
Eu648 O703 2.372 1_565 S
Eu648 C712 2.787 . S
C649 N650 1.365 1_455 S
C649 C652 1.405 1_455 S
C649 C656 1.448 . S
N650 C649 1.365 1_655 S
N650 C653 1.319 . S
N650 Eu659 2.600 1_655 S
C651 C653 1.397 . S
C651 C654 1.367 . S
C651 H671 0.931 . S
C652 C649 1.405 1_655 S
C652 C654 1.403 . S
C652 C658 1.439 1_655 S
C653 N650 1.319 . S
C653 C651 1.397 . S
C653 H664 0.930 . S
C654 C651 1.367 . S
C654 C652 1.403 . S
C654 H675 0.929 . S
C655 C656 1.430 . S
C655 C657 1.387 . S
C655 C661 1.404 . S
C656 C649 1.448 . S
C656 C655 1.430 . S
C656 N660 1.351 . S
C657 C655 1.387 . S
C657 C658 1.374 . S
C657 H672 0.931 . S
C658 C652 1.439 1_455 S
C658 C657 1.374 . S
C658 H673 0.931 . S
Eu659 N650 2.600 1_455 S
Eu659 N660 2.562 . S
Eu659 O694 2.335 . S
Eu659 O697 2.372 1_455 S
Eu659 O698 2.462 . S
Eu659 O699 2.373 . S
Eu659 O701 2.432 1_455 S
Eu659 O702 2.291 . S
Eu659 C723 2.787 . S
N660 C656 1.351 . S
N660 Eu659 2.562 . S
N660 C662 1.325 . S
C661 C655 1.404 . S
C661 C663 1.366 . S
C661 H669 0.930 . S
C662 N660 1.325 . S
C662 C663 1.416 . S
C662 H668 0.929 . S
C663 C661 1.366 . S
C663 C662 1.416 . S
C663 H665 0.930 . S
H664 C653 0.930 . S
H665 C663 0.930 . S
H666 C681 0.930 1_545 S
H667 C688 0.930 . S
H668 C662 0.929 . S
H669 C661 0.930 . S
H670 C684 0.929 1_655 S
H671 C651 0.931 . S
H672 C657 0.931 . S
H673 C658 0.931 . S
H674 C679 0.931 1_545 S
H675 C654 0.929 . S
H676 C687 0.930 . S
N677 Eu648 2.600 . S
N677 C678 1.365 . S
N677 C681 1.319 . S
C678 N677 1.365 . S
C678 C680 1.405 . S
C678 C686 1.448 . S
C679 H674 0.931 1_565 S
C679 C681 1.397 . S
C679 C682 1.367 . S
C680 C678 1.405 . S
C680 C682 1.403 . S
C680 C713 1.439 . S
C681 H666 0.930 1_565 S
C681 N677 1.319 . S
C681 C679 1.397 . S
C682 C679 1.367 . S
C682 C680 1.403 . S
C682 H689 0.929 . S
N683 Eu648 2.562 . S
N683 C684 1.325 . S
N683 C686 1.351 . S
C684 H670 0.929 1_455 S
C684 N683 1.325 . S
C684 C688 1.416 1_455 S
C685 C686 1.430 . S
C685 C687 1.404 1_455 S
C685 C714 1.387 . S
C686 C678 1.448 . S
C686 N683 1.351 . S
C686 C685 1.430 . S
C687 H676 0.930 . S
C687 C685 1.404 1_655 S
C687 C688 1.366 . S
C688 H667 0.930 . S
C688 C684 1.416 1_655 S
C688 C687 1.366 . S
H689 C682 0.929 . S
H690 C713 0.931 . S
H691 C714 0.931 . S
O692 Eu648 2.462 . S
O692 C712 1.252 . S
O693 Eu648 2.373 1_545 S
O693 C704 1.249 . S
O694 Eu659 2.335 . S
O694 C704 1.264 . S
O695 Eu648 2.432 . S
O695 C712 1.268 . S
O696 Eu648 2.291 . S
O696 C711 1.255 1_465 S
O697 Eu659 2.372 1_655 S
O697 C711 1.257 . S
O698 Eu659 2.462 . S
O698 C723 1.252 . S
O699 Eu659 2.373 . S
O699 C715 1.249 . S
O700 Eu648 2.335 1_545 S
O700 C715 1.264 . S
O701 Eu659 2.432 1_655 S
O701 C723 1.268 1_655 S
O702 Eu659 2.291 . S
O702 C722 1.255 . S
O703 Eu648 2.372 1_545 S
O703 C722 1.257 . S
C704 O693 1.249 . S
C704 O694 1.264 . S
C705 C708 1.382 . S
C705 C710 1.390 . S
C705 C712 1.506 . S
C706 C707 1.398 . S
C706 C710 1.392 . S
C707 C706 1.398 . S
C707 C709 1.372 . S
C707 H724 0.931 . S
C708 C705 1.382 . S
C708 C709 1.390 . S
C708 H725 0.931 . S
C709 C707 1.372 . S
C709 C708 1.390 . S
C709 H726 0.929 . S
C710 C705 1.390 . S
C710 C706 1.392 . S
C710 H727 0.930 . S
C711 O696 1.255 1_645 S
C711 O697 1.257 . S
C712 Eu648 2.787 . S
C712 O692 1.252 . S
C712 O695 1.268 . S
C712 C705 1.506 . S
C713 C680 1.439 . S
C713 H690 0.931 . S
C713 C714 1.374 . S
C714 C685 1.387 . S
C714 H691 0.931 . S
C714 C713 1.374 . S
C715 O699 1.249 . S
C715 O700 1.264 . S
C716 C719 1.382 1_455 S
C716 C720 1.390 . S
C716 C723 1.506 . S
C717 C718 1.398 1_455 S
C717 C720 1.392 . S
C718 C717 1.398 1_655 S
C718 C721 1.372 . S
C718 H728 0.931 . S
C719 C716 1.382 1_655 S
C719 C721 1.390 . S
C719 H729 0.931 . S
C720 C716 1.390 . S
C720 C717 1.392 . S
C720 H730 0.930 . S
C721 C718 1.372 . S
C721 C719 1.390 . S
C721 H731 0.929 . S
C722 O702 1.255 . S
C722 O703 1.257 . S
C723 Eu659 2.787 . S
C723 O698 1.252 . S
C723 O701 1.268 1_455 S
C723 C716 1.506 . S
H724 C707 0.931 . S
H725 C708 0.931 . S
H726 C709 0.929 . S
H727 C710 0.930 . S
H728 C718 0.931 . S
H729 C719 0.931 . S
H730 C720 0.930 . S
H731 C721 0.929 . S
Eu732 N761 2.600 . S
Eu732 N767 2.562 . S
Eu732 O776 2.462 . S
Eu732 O777 2.373 . S
Eu732 O779 2.432 . S
Eu732 O780 2.291 . S
Eu732 O784 2.335 . S
Eu732 O787 2.372 . S
Eu732 C796 2.787 . S
C733 N734 1.365 . S
C733 C736 1.405 . S
C733 C740 1.448 . S
N734 C733 1.365 . S
N734 C737 1.319 . S
N734 Eu743 2.600 . S
C735 C737 1.383 1_554 S
C735 C738 1.370 1_554 S
C735 H755 0.942 . S
C736 C733 1.405 . S
C736 C738 1.403 . S
C736 C742 1.439 . S
C737 N734 1.319 . S
C737 C735 1.383 1_556 S
C737 H748 0.930 . S
C738 C735 1.370 1_556 S
C738 C736 1.403 . S
C738 H759 0.929 1_556 S
C739 C740 1.430 . S
C739 C741 1.387 . S
C739 C745 1.404 . S
C740 C733 1.448 . S
C740 C739 1.430 . S
C740 N744 1.351 . S
C741 C739 1.387 . S
C741 C742 1.374 . S
C741 H756 0.931 . S
C742 C736 1.439 . S
C742 C741 1.374 . S
C742 H757 0.931 . S
Eu743 N734 2.600 . S
Eu743 N744 2.562 . S
Eu743 O778 2.335 . S
Eu743 O781 2.372 . S
Eu743 O782 2.462 . S
Eu743 O783 2.373 . S
Eu743 O785 2.432 . S
Eu743 O786 2.291 . S
Eu743 C807 2.787 . S
N744 C740 1.351 . S
N744 Eu743 2.562 . S
N744 C746 1.325 . S
C745 C739 1.404 . S
C745 C747 1.366 . S
C745 H753 0.930 . S
C746 N744 1.325 . S
C746 C747 1.416 . S
C746 H752 0.929 . S
C747 C745 1.366 . S
C747 C746 1.416 . S
C747 H749 0.930 . S
H748 C737 0.930 . S
H749 C747 0.930 . S
H750 C765 0.930 . S
H751 C772 0.930 . S
H752 C746 0.929 . S
H753 C745 0.930 . S
H754 C768 0.929 . S
H755 C735 0.942 . S
H756 C741 0.931 . S
H757 C742 0.931 . S
H758 C763 0.931 . S
H759 C738 0.929 1_554 S
H760 C771 0.930 . S
N761 Eu732 2.600 . S
N761 C762 1.365 . S
N761 C765 1.319 . S
C762 N761 1.365 . S
C762 C764 1.405 . S
C762 C770 1.448 . S
C763 H758 0.931 . S
C763 C765 1.397 . S
C763 C766 1.367 . S
C764 C762 1.405 . S
C764 C766 1.403 . S
C764 C797 1.439 . S
C765 H750 0.930 . S
C765 N761 1.319 . S
C765 C763 1.397 . S
C766 C763 1.367 . S
C766 C764 1.403 . S
C766 H773 0.929 . S
N767 Eu732 2.562 . S
N767 C768 1.325 . S
N767 C770 1.351 . S
C768 H754 0.929 . S
C768 N767 1.325 . S
C768 C772 1.416 1_565 S
C769 C770 1.430 . S
C769 C771 1.404 1_565 S
C769 C798 1.387 . S
C770 C762 1.448 . S
C770 N767 1.351 . S
C770 C769 1.430 . S
C771 H760 0.930 . S
C771 C769 1.404 1_545 S
C771 C772 1.366 . S
C772 H751 0.930 . S
C772 C768 1.416 1_545 S
C772 C771 1.366 . S
H773 C766 0.929 . S
H774 C797 0.931 . S
H775 C798 0.931 1_545 S
O776 Eu732 2.462 . S
O776 C796 1.252 . S
O777 Eu732 2.373 . S
O777 C788 1.249 . S
O778 Eu743 2.335 . S
O778 C788 1.264 . S
O779 Eu732 2.432 . S
O779 C796 1.268 . S
O780 Eu732 2.291 . S
O780 C795 1.255 . S
O781 Eu743 2.372 . S
O781 C795 1.257 . S
O782 Eu743 2.462 . S
O782 C807 1.252 . S
O783 Eu743 2.373 . S
O783 C799 1.249 . S
O784 Eu732 2.335 . S
O784 C799 1.264 . S
O785 Eu743 2.432 . S
O785 C807 1.268 . S
O786 Eu743 2.291 . S
O786 C806 1.255 . S
O787 Eu732 2.372 . S
O787 C806 1.257 . S
C788 O777 1.249 . S
C788 O778 1.264 . S
C789 C792 1.382 . S
C789 C794 1.390 . S
C789 C796 1.506 . S
C790 C791 1.398 . S
C790 C794 1.392 1_545 S
C791 C790 1.398 . S
C791 C793 1.372 1_545 S
C791 H808 0.931 . S
C792 C789 1.382 . S
C792 C793 1.390 . S
C792 H809 0.931 . S
C793 C791 1.372 1_565 S
C793 C792 1.390 . S
C793 H810 0.929 . S
C794 C789 1.390 . S
C794 C790 1.392 1_565 S
C794 H811 0.930 . S
C795 O780 1.255 . S
C795 O781 1.257 . S
C796 Eu732 2.787 . S
C796 O776 1.252 . S
C796 O779 1.268 . S
C796 C789 1.506 . S
C797 C764 1.439 . S
C797 H774 0.931 . S
C797 C798 1.374 . S
C798 C769 1.387 . S
C798 H775 0.931 1_565 S
C798 C797 1.374 . S
C799 O783 1.249 . S
C799 O784 1.264 . S
C800 C803 1.382 . S
C800 C804 1.390 . S
C800 C807 1.506 . S
C801 C802 1.398 . S
C801 C804 1.392 . S
C802 C801 1.398 . S
C802 C805 1.372 . S
C802 H812 0.931 . S
C803 C800 1.382 . S
C803 C805 1.390 . S
C803 H813 0.931 . S
C804 C800 1.390 . S
C804 C801 1.392 . S
C804 H814 0.930 . S
C805 C802 1.372 . S
C805 C803 1.390 . S
C805 H815 0.929 . S
C806 O786 1.255 . S
C806 O787 1.257 . S
C807 Eu743 2.787 . S
C807 O782 1.252 . S
C807 O785 1.268 . S
C807 C800 1.506 . S
H808 C791 0.931 . S
H809 C792 0.931 . S
H810 C793 0.929 . S
H811 C794 0.930 . S
H812 C802 0.931 . S
H813 C803 0.931 . S
H814 C804 0.930 . S
H815 C805 0.929 . S
Eu816 N845 2.600 . S
Eu816 N851 2.562 . S
Eu816 O860 2.462 . S
Eu816 O861 2.373 1_556 S
Eu816 O863 2.432 . S
Eu816 O864 2.291 . S
Eu816 O868 2.335 1_556 S
Eu816 O871 2.372 1_556 S
Eu816 C880 2.787 . S
C817 N818 1.365 1_545 S
C817 C820 1.405 1_545 S
C817 C824 1.448 . S
N818 C817 1.365 1_565 S
N818 C821 1.319 . S
N818 Eu827 2.600 1_565 S
C819 C821 1.397 . S
C819 C822 1.367 . S
C819 H839 0.931 . S
C820 C817 1.405 1_565 S
C820 C822 1.403 . S
C820 C826 1.439 1_565 S
C821 N818 1.319 . S
C821 C819 1.397 . S
C821 H832 0.930 . S
C822 C819 1.367 . S
C822 C820 1.403 . S
C822 H843 0.929 . S
C823 C824 1.430 . S
C823 C825 1.387 . S
C823 C829 1.404 . S
C824 C817 1.448 . S
C824 C823 1.430 . S
C824 N828 1.351 . S
C825 C823 1.387 . S
C825 C826 1.374 . S
C825 H840 0.931 . S
C826 C820 1.439 1_545 S
C826 C825 1.374 . S
C826 H841 0.931 1_545 S
Eu827 N818 2.600 1_545 S
Eu827 N828 2.562 . S
Eu827 O862 2.335 . S
Eu827 O865 2.372 1_545 S
Eu827 O866 2.462 . S
Eu827 O867 2.373 . S
Eu827 O869 2.432 1_545 S
Eu827 O870 2.291 . S
Eu827 C891 2.787 . S
N828 C824 1.351 . S
N828 Eu827 2.562 . S
N828 C830 1.325 . S
C829 C823 1.404 . S
C829 C831 1.366 . S
C829 H837 0.930 . S
C830 N828 1.325 . S
C830 C831 1.416 . S
C830 H836 0.929 . S
C831 C829 1.366 . S
C831 C830 1.416 . S
C831 H833 0.930 . S
H832 C821 0.930 . S
H833 C831 0.930 . S
H834 C849 0.930 1_554 S
H835 C856 0.930 1_565 S
H836 C830 0.929 . S
H837 C829 0.930 . S
H838 C852 0.929 . S
H839 C819 0.931 . S
H840 C825 0.931 . S
H841 C826 0.931 1_565 S
H842 C847 0.931 1_554 S
H843 C822 0.929 . S
H844 C855 0.930 . S
N845 Eu816 2.600 . S
N845 C846 1.365 . S
N845 C849 1.319 . S
C846 N845 1.365 . S
C846 C848 1.405 . S
C846 C854 1.448 . S
C847 H842 0.931 1_556 S
C847 C849 1.397 . S
C847 C850 1.367 . S
C848 C846 1.405 . S
C848 C850 1.403 . S
C848 C881 1.439 . S
C849 H834 0.930 1_556 S
C849 N845 1.319 . S
C849 C847 1.397 . S
C850 C847 1.367 . S
C850 C848 1.403 . S
C850 H857 0.929 . S
N851 Eu816 2.562 . S
N851 C852 1.325 . S
N851 C854 1.351 . S
C852 H838 0.929 . S
C852 N851 1.325 . S
C852 C856 1.416 . S
C853 C854 1.430 . S
C853 C855 1.404 . S
C853 C882 1.387 . S
C854 C846 1.448 . S
C854 N851 1.351 . S
C854 C853 1.430 . S
C855 H844 0.930 . S
C855 C853 1.404 . S
C855 C856 1.366 . S
C856 H835 0.930 1_545 S
C856 C852 1.416 . S
C856 C855 1.366 . S
H857 C850 0.929 . S
H858 C881 0.931 . S
H859 C882 0.931 . S
O860 Eu816 2.462 . S
O860 C880 1.252 . S
O861 Eu816 2.373 1_554 S
O861 C872 1.249 . S
O862 Eu827 2.335 . S
O862 C872 1.264 . S
O863 Eu816 2.432 . S
O863 C880 1.268 . S
O864 Eu816 2.291 . S
O864 C879 1.255 1_545 S
O865 Eu827 2.372 1_565 S
O865 C879 1.257 1_554 S
O866 Eu827 2.462 . S
O866 C891 1.252 . S
O867 Eu827 2.373 . S
O867 C883 1.249 . S
O868 Eu816 2.335 1_554 S
O868 C883 1.264 . S
O869 Eu827 2.432 1_565 S
O869 C891 1.268 1_565 S
O870 Eu827 2.291 . S
O870 C890 1.255 . S
O871 Eu816 2.372 1_554 S
O871 C890 1.257 . S
C872 O861 1.249 . S
C872 O862 1.264 . S
C873 C876 1.382 . S
C873 C878 1.390 . S
C873 C880 1.506 . S
C874 C875 1.398 . S
C874 C878 1.392 . S
C875 C874 1.398 . S
C875 C877 1.372 . S
C875 H892 0.931 . S
C876 C873 1.382 . S
C876 C877 1.390 . S
C876 H893 0.931 . S
C877 C875 1.372 . S
C877 C876 1.390 . S
C877 H894 0.929 . S
C878 C873 1.390 . S
C878 C874 1.392 . S
C878 H895 0.930 . S
C879 O864 1.255 1_565 S
C879 O865 1.257 1_556 S
C880 Eu816 2.787 . S
C880 O860 1.252 . S
C880 O863 1.268 . S
C880 C873 1.506 . S
C881 C848 1.439 . S
C881 H858 0.931 . S
C881 C882 1.374 . S
C882 C853 1.387 . S
C882 H859 0.931 . S
C882 C881 1.374 . S
C883 O867 1.249 . S
C883 O868 1.264 . S
C884 C887 1.382 . S
C884 C888 1.390 1_565 S
C884 C891 1.506 1_565 S
C885 C886 1.398 . S
C885 C888 1.392 1_565 S
C886 C885 1.398 . S
C886 C889 1.372 . S
C886 H896 0.931 . S
C887 C884 1.382 . S
C887 C889 1.390 . S
C887 H897 0.931 . S
C888 C884 1.390 1_545 S
C888 C885 1.392 1_545 S
C888 H898 0.930 . S
C889 C886 1.372 . S
C889 C887 1.390 . S
C889 H899 0.929 . S
C890 O870 1.255 . S
C890 O871 1.257 . S
C891 Eu827 2.787 . S
C891 O866 1.252 . S
C891 O869 1.268 1_545 S
C891 C884 1.506 1_545 S
H892 C875 0.931 . S
H893 C876 0.931 . S
H894 C877 0.929 . S
H895 C878 0.930 . S
H896 C886 0.931 . S
H897 C887 0.931 . S
H898 C888 0.930 . S
H899 C889 0.929 . S
Eu900 N929 2.600 . S
Eu900 N935 2.562 . S
Eu900 O944 2.462 . S
Eu900 O945 2.373 . S
Eu900 O947 2.432 . S
Eu900 O948 2.291 . S
Eu900 O952 2.335 . S
Eu900 O955 2.372 . S
Eu900 C964 2.787 . S
C901 N902 1.365 . S
C901 C904 1.405 . S
C901 C908 1.448 . S
N902 C901 1.365 . S
N902 C905 1.319 . S
N902 Eu911 2.600 . S
C903 C905 1.397 . S
C903 C906 1.367 . S
C903 H923 0.931 . S
C904 C901 1.405 . S
C904 C906 1.403 . S
C904 C910 1.439 . S
C905 N902 1.319 . S
C905 C903 1.397 . S
C905 H916 0.930 . S
C906 C903 1.367 . S
C906 C904 1.403 . S
C906 H927 0.929 . S
C907 C908 1.430 . S
C907 C909 1.387 . S
C907 C913 1.404 . S
C908 C901 1.448 . S
C908 C907 1.430 . S
C908 N912 1.351 . S
C909 C907 1.387 . S
C909 C910 1.374 . S
C909 H924 0.931 . S
C910 C904 1.439 . S
C910 C909 1.374 . S
C910 H925 0.931 . S
Eu911 N902 2.600 . S
Eu911 N912 2.562 . S
Eu911 O946 2.335 . S
Eu911 O949 2.372 . S
Eu911 O950 2.462 . S
Eu911 O951 2.373 . S
Eu911 O953 2.432 . S
Eu911 O954 2.291 . S
Eu911 C975 2.787 . S
N912 C908 1.351 . S
N912 Eu911 2.562 . S
N912 C914 1.325 . S
C913 C907 1.404 . S
C913 C915 1.366 . S
C913 H921 0.930 . S
C914 N912 1.325 . S
C914 C915 1.416 . S
C914 H920 0.929 . S
C915 C913 1.366 . S
C915 C914 1.416 . S
C915 H917 0.930 . S
H916 C905 0.930 . S
H917 C915 0.930 . S
H918 C933 0.930 . S
H919 C940 0.930 . S
H920 C914 0.929 . S
H921 C913 0.930 . S
H922 C936 0.929 . S
H923 C903 0.931 . S
H924 C909 0.931 . S
H925 C910 0.931 . S
H926 C931 0.931 . S
H927 C906 0.929 . S
H928 C939 0.930 . S
N929 Eu900 2.600 . S
N929 C930 1.365 . S
N929 C933 1.319 . S
C930 N929 1.365 . S
C930 C932 1.405 . S
C930 C938 1.448 . S
C931 H926 0.931 . S
C931 C933 1.397 . S
C931 C934 1.367 . S
C932 C930 1.405 . S
C932 C934 1.403 . S
C932 C965 1.439 . S
C933 H918 0.930 . S
C933 N929 1.319 . S
C933 C931 1.397 . S
C934 C931 1.367 . S
C934 C932 1.403 . S
C934 H941 0.929 . S
N935 Eu900 2.562 . S
N935 C936 1.325 . S
N935 C938 1.351 . S
C936 H922 0.929 . S
C936 N935 1.325 . S
C936 C940 1.416 . S
C937 C938 1.430 . S
C937 C939 1.404 . S
C937 C966 1.387 . S
C938 C930 1.448 . S
C938 N935 1.351 . S
C938 C937 1.430 . S
C939 H928 0.930 . S
C939 C937 1.404 . S
C939 C940 1.366 . S
C940 H919 0.930 . S
C940 C936 1.416 . S
C940 C939 1.366 . S
H941 C934 0.929 . S
H942 C965 0.931 . S
H943 C966 0.931 . S
O944 Eu900 2.462 . S
O944 C964 1.252 . S
O945 Eu900 2.373 . S
O945 C956 1.249 . S
O946 Eu911 2.335 . S
O946 C956 1.264 . S
O947 Eu900 2.432 . S
O947 C964 1.268 . S
O948 Eu900 2.291 . S
O948 C963 1.255 . S
O949 Eu911 2.372 . S
O949 C963 1.257 . S
O950 Eu911 2.462 . S
O950 C975 1.252 . S
O951 Eu911 2.373 . S
O951 C967 1.249 . S
O952 Eu900 2.335 . S
O952 C967 1.264 . S
O953 Eu911 2.432 . S
O953 C975 1.268 . S
O954 Eu911 2.291 . S
O954 C974 1.255 . S
O955 Eu900 2.372 . S
O955 C974 1.257 . S
C956 O945 1.249 . S
C956 O946 1.264 . S
C957 C960 1.382 . S
C957 C962 1.390 . S
C957 C964 1.506 . S
C958 C959 1.398 . S
C958 C962 1.392 . S
C959 C958 1.398 . S
C959 C961 1.372 . S
C959 H976 0.931 1_545 S
C960 C957 1.382 . S
C960 C961 1.390 . S
C960 H977 0.931 . S
C961 C959 1.372 . S
C961 C960 1.390 . S
C961 H978 0.929 . S
C962 C957 1.390 . S
C962 C958 1.392 . S
C962 H979 0.930 . S
C963 O948 1.255 . S
C963 O949 1.257 . S
C964 Eu900 2.787 . S
C964 O944 1.252 . S
C964 O947 1.268 . S
C964 C957 1.506 . S
C965 C932 1.439 . S
C965 H942 0.931 . S
C965 C966 1.374 . S
C966 C937 1.387 . S
C966 H943 0.931 . S
C966 C965 1.374 . S
C967 O951 1.249 . S
C967 O952 1.264 . S
C968 C971 1.382 . S
C968 C972 1.390 . S
C968 C975 1.506 . S
C969 C970 1.398 . S
C969 C972 1.392 . S
C970 C969 1.398 . S
C970 C973 1.372 . S
C970 H980 0.931 . S
C971 C968 1.382 . S
C971 C973 1.390 . S
C971 H981 0.931 . S
C972 C968 1.390 . S
C972 C969 1.392 . S
C972 H982 0.930 . S
C973 C970 1.372 . S
C973 C971 1.390 . S
C973 H983 0.929 . S
C974 O954 1.255 . S
C974 O955 1.257 . S
C975 Eu911 2.787 . S
C975 O950 1.252 . S
C975 O953 1.268 . S
C975 C968 1.506 . S
H976 C959 0.931 1_565 S
H977 C960 0.931 . S
H978 C961 0.929 . S
H979 C962 0.930 . S
H980 C970 0.931 . S
H981 C971 0.931 . S
H982 C972 0.930 . S
H983 C973 0.929 . S
Eu984 N1013 2.600 1_554 S
Eu984 N1019 2.562 1_554 S
Eu984 O1028 2.462 . S
Eu984 O1029 2.373 1_554 S
Eu984 O1031 2.432 . S
Eu984 O1032 2.291 . S
Eu984 O1036 2.335 . S
Eu984 O1039 2.372 . S
Eu984 C1048 2.787 . S
C985 N986 1.365 . S
C985 C988 1.405 . S
C985 C992 1.448 . S
N986 C985 1.365 . S
N986 C989 1.319 . S
N986 Eu995 2.600 . S
C987 C989 1.397 . S
C987 C990 1.367 . S
C987 H1007 0.931 . S
C988 C985 1.405 . S
C988 C990 1.403 . S
C988 C994 1.439 . S
C989 N986 1.319 . S
C989 C987 1.397 . S
C989 H1000 0.930 . S
C990 C987 1.367 . S
C990 C988 1.403 . S
C990 H1011 0.929 . S
C991 C992 1.430 . S
C991 C993 1.387 . S
C991 C997 1.404 . S
C992 C985 1.448 . S
C992 C991 1.430 . S
C992 N996 1.351 . S
C993 C991 1.387 . S
C993 C994 1.374 . S
C993 H1008 0.931 . S
C994 C988 1.439 . S
C994 C993 1.374 . S
C994 H1009 0.931 . S
Eu995 N986 2.600 . S
Eu995 N996 2.562 . S
Eu995 O1030 2.335 1_554 S
Eu995 O1033 2.372 . S
Eu995 O1034 2.462 . S
Eu995 O1035 2.373 . S
Eu995 O1037 2.432 . S
Eu995 O1038 2.291 . S
Eu995 C1059 2.787 . S
N996 C992 1.351 . S
N996 Eu995 2.562 . S
N996 C998 1.325 . S
C997 C991 1.404 . S
C997 C999 1.366 . S
C997 H1005 0.930 . S
C998 N996 1.325 . S
C998 C999 1.416 . S
C998 H1004 0.929 . S
C999 C997 1.366 . S
C999 C998 1.416 . S
C999 H1001 0.930 . S
H1000 C989 0.930 . S
H1001 C999 0.930 . S
H1002 C1017 0.930 1_554 S
H1003 C1024 0.930 . S
H1004 C998 0.929 . S
H1005 C997 0.930 . S
H1006 C1020 0.929 . S
H1007 C987 0.931 . S
H1008 C993 0.931 . S
H1009 C994 0.931 . S
H1010 C1015 0.931 . S
H1011 C990 0.929 . S
H1012 C1023 0.930 . S
N1013 Eu984 2.600 1_556 S
N1013 C1014 1.365 . S
N1013 C1017 1.319 . S
C1014 N1013 1.365 . S
C1014 C1016 1.405 . S
C1014 C1022 1.448 . S
C1015 H1010 0.931 . S
C1015 C1017 1.397 . S
C1015 C1018 1.367 . S
C1016 C1014 1.405 . S
C1016 C1018 1.403 . S
C1016 C1049 1.439 . S
C1017 H1002 0.930 1_556 S
C1017 N1013 1.319 . S
C1017 C1015 1.397 . S
C1018 C1015 1.367 . S
C1018 C1016 1.403 . S
C1018 H1025 0.929 . S
N1019 Eu984 2.562 1_556 S
N1019 C1020 1.325 . S
N1019 C1022 1.351 . S
C1020 H1006 0.929 . S
C1020 N1019 1.325 . S
C1020 C1024 1.416 . S
C1021 C1022 1.430 . S
C1021 C1023 1.404 . S
C1021 C1050 1.387 . S
C1022 C1014 1.448 . S
C1022 N1019 1.351 . S
C1022 C1021 1.430 . S
C1023 H1012 0.930 . S
C1023 C1021 1.404 . S
C1023 C1024 1.366 . S
C1024 H1003 0.930 . S
C1024 C1020 1.416 . S
C1024 C1023 1.366 . S
H1025 C1018 0.929 . S
H1026 C1049 0.931 . S
H1027 C1050 0.931 . S
O1028 Eu984 2.462 . S
O1028 C1048 1.252 . S
O1029 Eu984 2.373 1_556 S
O1029 C1040 1.249 . S
O1030 Eu995 2.335 1_556 S
O1030 C1040 1.264 . S
O1031 Eu984 2.432 . S
O1031 C1048 1.268 . S
O1032 Eu984 2.291 . S
O1032 C1047 1.255 . S
O1033 Eu995 2.372 . S
O1033 C1047 1.257 . S
O1034 Eu995 2.462 . S
O1034 C1059 1.252 . S
O1035 Eu995 2.373 . S
O1035 C1051 1.249 . S
O1036 Eu984 2.335 . S
O1036 C1051 1.264 . S
O1037 Eu995 2.432 . S
O1037 C1059 1.268 . S
O1038 Eu995 2.291 . S
O1038 C1058 1.255 . S
O1039 Eu984 2.372 . S
O1039 C1058 1.257 . S
C1040 O1029 1.249 . S
C1040 O1030 1.264 . S
C1041 C1044 1.382 . S
C1041 C1046 1.390 . S
C1041 C1048 1.506 . S
C1042 C1043 1.398 . S
C1042 C1046 1.392 . S
C1043 C1042 1.398 . S
C1043 C1045 1.372 . S
C1043 H1060 0.931 . S
C1044 C1041 1.382 . S
C1044 C1045 1.390 . S
C1044 H1061 0.931 . S
C1045 C1043 1.372 . S
C1045 C1044 1.390 . S
C1045 H1062 0.929 . S
C1046 C1041 1.390 . S
C1046 C1042 1.392 . S
C1046 H1063 0.930 . S
C1047 O1032 1.255 . S
C1047 O1033 1.257 . S
C1048 Eu984 2.787 . S
C1048 O1028 1.252 . S
C1048 O1031 1.268 . S
C1048 C1041 1.506 . S
C1049 C1016 1.439 . S
C1049 H1026 0.931 . S
C1049 C1050 1.374 . S
C1050 C1021 1.387 . S
C1050 H1027 0.931 . S
C1050 C1049 1.374 . S
C1051 O1035 1.249 . S
C1051 O1036 1.264 . S
C1052 C1055 1.382 . S
C1052 C1056 1.390 . S
C1052 C1059 1.506 1_556 S
C1053 C1054 1.398 . S
C1053 C1056 1.392 . S
C1054 C1053 1.398 . S
C1054 C1057 1.372 . S
C1054 H1064 0.931 . S
C1055 C1052 1.382 . S
C1055 C1057 1.390 . S
C1055 H1065 0.931 . S
C1056 C1052 1.390 . S
C1056 C1053 1.392 . S
C1056 H1066 0.930 . S
C1057 C1054 1.372 . S
C1057 C1055 1.390 . S
C1057 H1067 0.929 . S
C1058 O1038 1.255 . S
C1058 O1039 1.257 . S
C1059 Eu995 2.787 . S
C1059 O1034 1.252 . S
C1059 O1037 1.268 . S
C1059 C1052 1.506 1_554 S
H1060 C1043 0.931 . S
H1061 C1044 0.931 . S
H1062 C1045 0.929 . S
H1063 C1046 0.930 . S
H1064 C1054 0.931 . S
H1065 C1055 0.931 . S
H1066 C1056 0.930 . S
H1067 C1057 0.929 . S
Eu1068 N1097 2.600 . S
Eu1068 N1103 2.562 . S
Eu1068 O1112 2.462 . S
Eu1068 O1113 2.373 . S
Eu1068 O1115 2.432 . S
Eu1068 O1116 2.291 . S
Eu1068 O1120 2.335 . S
Eu1068 O1123 2.372 . S
Eu1068 C1132 2.787 . S
C1069 N1070 1.365 . S
C1069 C1072 1.405 . S
C1069 C1076 1.448 . S
N1070 C1069 1.365 . S
N1070 C1073 1.319 . S
N1070 Eu1079 2.600 . S
C1071 C1073 1.397 . S
C1071 C1074 1.367 . S
C1071 H1091 0.931 . S
C1072 C1069 1.405 . S
C1072 C1074 1.403 . S
C1072 C1078 1.439 . S
C1073 N1070 1.319 . S
C1073 C1071 1.397 . S
C1073 H1084 0.930 . S
C1074 C1071 1.367 . S
C1074 C1072 1.403 . S
C1074 H1095 0.929 . S
C1075 C1076 1.430 . S
C1075 C1077 1.387 . S
C1075 C1081 1.404 . S
C1076 C1069 1.448 . S
C1076 C1075 1.430 . S
C1076 N1080 1.351 . S
C1077 C1075 1.387 . S
C1077 C1078 1.374 . S
C1077 H1092 0.931 . S
C1078 C1072 1.439 . S
C1078 C1077 1.374 . S
C1078 H1093 0.931 . S
Eu1079 N1070 2.600 . S
Eu1079 N1080 2.562 . S
Eu1079 O1114 2.335 . S
Eu1079 O1117 2.372 . S
Eu1079 O1118 2.462 . S
Eu1079 O1119 2.373 . S
Eu1079 O1121 2.432 . S
Eu1079 O1122 2.291 . S
Eu1079 C1143 2.787 . S
N1080 C1076 1.351 . S
N1080 Eu1079 2.562 . S
N1080 C1082 1.325 . S
C1081 C1075 1.404 . S
C1081 C1083 1.366 . S
C1081 H1089 0.930 . S
C1082 N1080 1.325 . S
C1082 C1083 1.416 . S
C1082 H1088 0.929 . S
C1083 C1081 1.366 . S
C1083 C1082 1.416 . S
C1083 H1085 0.930 . S
H1084 C1073 0.930 . S
H1085 C1083 0.930 . S
H1086 C1101 0.930 . S
H1087 C1108 0.930 . S
H1088 C1082 0.929 . S
H1089 C1081 0.930 . S
H1090 C1104 0.929 . S
H1091 C1071 0.931 . S
H1092 C1077 0.931 . S
H1093 C1078 0.931 . S
H1094 C1099 0.931 . S
H1095 C1074 0.929 . S
H1096 C1107 0.930 . S
N1097 Eu1068 2.600 . S
N1097 C1098 1.365 . S
N1097 C1101 1.319 . S
C1098 N1097 1.365 . S
C1098 C1100 1.405 . S
C1098 C1106 1.448 . S
C1099 H1094 0.931 . S
C1099 C1101 1.397 . S
C1099 C1102 1.367 . S
C1100 C1098 1.405 . S
C1100 C1102 1.403 . S
C1100 C1133 1.439 . S
C1101 H1086 0.930 . S
C1101 N1097 1.319 . S
C1101 C1099 1.397 . S
C1102 C1099 1.367 . S
C1102 C1100 1.403 . S
C1102 H1109 0.929 . S
N1103 Eu1068 2.562 . S
N1103 C1104 1.325 . S
N1103 C1106 1.351 . S
C1104 H1090 0.929 . S
C1104 N1103 1.325 . S
C1104 C1108 1.416 . S
C1105 C1106 1.430 . S
C1105 C1107 1.404 . S
C1105 C1134 1.387 . S
C1106 C1098 1.448 . S
C1106 N1103 1.351 . S
C1106 C1105 1.430 . S
C1107 H1096 0.930 . S
C1107 C1105 1.404 . S
C1107 C1108 1.366 . S
C1108 H1087 0.930 . S
C1108 C1104 1.416 . S
C1108 C1107 1.366 . S
H1109 C1102 0.929 . S
H1110 C1133 0.931 . S
H1111 C1134 0.931 . S
O1112 Eu1068 2.462 . S
O1112 C1132 1.252 . S
O1113 Eu1068 2.373 . S
O1113 C1124 1.249 . S
O1114 Eu1079 2.335 . S
O1114 C1124 1.264 . S
O1115 Eu1068 2.432 . S
O1115 C1132 1.268 . S
O1116 Eu1068 2.291 . S
O1116 C1131 1.255 . S
O1117 Eu1079 2.372 . S
O1117 C1131 1.257 . S
O1118 Eu1079 2.462 . S
O1118 C1143 1.252 . S
O1119 Eu1079 2.373 . S
O1119 C1135 1.249 . S
O1120 Eu1068 2.335 . S
O1120 C1135 1.264 . S
O1121 Eu1079 2.432 . S
O1121 C1143 1.268 . S
O1122 Eu1079 2.291 . S
O1122 C1142 1.255 . S
O1123 Eu1068 2.372 . S
O1123 C1142 1.257 . S
C1124 O1113 1.249 . S
C1124 O1114 1.264 . S
C1125 C1128 1.382 . S
C1125 C1130 1.390 . S
C1125 C1132 1.506 . S
C1126 C1127 1.398 . S
C1126 C1130 1.392 . S
C1127 C1126 1.398 . S
C1127 C1129 1.372 . S
C1127 H1144 0.931 . S
C1128 C1125 1.382 . S
C1128 C1129 1.390 . S
C1128 H1145 0.931 . S
C1129 C1127 1.372 . S
C1129 C1128 1.390 . S
C1129 H1146 0.929 . S
C1130 C1125 1.390 . S
C1130 C1126 1.392 . S
C1130 H1147 0.930 . S
C1131 O1116 1.255 . S
C1131 O1117 1.257 . S
C1132 Eu1068 2.787 . S
C1132 O1112 1.252 . S
C1132 O1115 1.268 . S
C1132 C1125 1.506 . S
C1133 C1100 1.439 . S
C1133 H1110 0.931 . S
C1133 C1134 1.374 . S
C1134 C1105 1.387 . S
C1134 H1111 0.931 . S
C1134 C1133 1.374 . S
C1135 O1119 1.249 . S
C1135 O1120 1.264 . S
C1136 C1139 1.382 . S
C1136 C1140 1.390 . S
C1136 C1143 1.506 . S
C1137 C1138 1.398 . S
C1137 C1140 1.392 . S
C1138 C1137 1.398 . S
C1138 C1141 1.372 . S
C1138 H1148 0.931 . S
C1139 C1136 1.382 . S
C1139 C1141 1.390 . S
C1139 H1149 0.931 . S
C1140 C1136 1.390 . S
C1140 C1137 1.392 . S
C1140 H1150 0.930 . S
C1141 C1138 1.372 . S
C1141 C1139 1.390 . S
C1141 H1151 0.929 . S
C1142 O1122 1.255 . S
C1142 O1123 1.257 . S
C1143 Eu1079 2.787 . S
C1143 O1118 1.252 . S
C1143 O1121 1.268 . S
C1143 C1136 1.506 . S
H1144 C1127 0.931 . S
H1145 C1128 0.931 . S
H1146 C1129 0.929 . S
H1147 C1130 0.930 . S
H1148 C1138 0.931 . S
H1149 C1139 0.931 . S
H1150 C1140 0.930 . S
H1151 C1141 0.929 . S
Eu1152 N1181 2.600 1_455 S
Eu1152 N1187 2.562 1_455 S
Eu1152 O1196 2.462 . S
Eu1152 O1197 2.373 1_455 S
Eu1152 O1199 2.432 . S
Eu1152 O1200 2.291 . S
Eu1152 O1204 2.335 . S
Eu1152 O1207 2.372 . S
Eu1152 C1216 2.787 . S
C1153 N1154 1.365 . S
C1153 C1156 1.405 . S
C1153 C1160 1.448 . S
N1154 C1153 1.365 . S
N1154 C1157 1.319 . S
N1154 Eu1163 2.600 . S
C1155 C1157 1.397 . S
C1155 C1158 1.367 . S
C1155 H1175 0.931 . S
C1156 C1153 1.405 . S
C1156 C1158 1.403 . S
C1156 C1162 1.439 . S
C1157 N1154 1.319 . S
C1157 C1155 1.397 . S
C1157 H1168 0.930 . S
C1158 C1155 1.367 . S
C1158 C1156 1.403 . S
C1158 H1179 0.929 . S
C1159 C1160 1.430 . S
C1159 C1161 1.387 . S
C1159 C1165 1.404 . S
C1160 C1153 1.448 . S
C1160 C1159 1.430 . S
C1160 N1164 1.351 . S
C1161 C1159 1.387 . S
C1161 C1162 1.374 . S
C1161 H1176 0.931 . S
C1162 C1156 1.439 . S
C1162 C1161 1.374 . S
C1162 H1177 0.931 . S
Eu1163 N1154 2.600 . S
Eu1163 N1164 2.562 . S
Eu1163 O1198 2.335 1_455 S
Eu1163 O1201 2.372 . S
Eu1163 O1202 2.462 . S
Eu1163 O1203 2.373 . S
Eu1163 O1205 2.432 . S
Eu1163 O1206 2.291 . S
Eu1163 C1227 2.787 1_455 S
N1164 C1160 1.351 . S
N1164 Eu1163 2.562 . S
N1164 C1166 1.325 . S
C1165 C1159 1.404 . S
C1165 C1167 1.366 . S
C1165 H1173 0.930 . S
C1166 N1164 1.325 . S
C1166 C1167 1.416 . S
C1166 H1172 0.929 . S
C1167 C1165 1.366 . S
C1167 C1166 1.416 . S
C1167 H1169 0.930 . S
H1168 C1157 0.930 . S
H1169 C1167 0.930 . S
H1170 C1185 0.930 1_455 S
H1171 C1192 0.930 . S
H1172 C1166 0.929 . S
H1173 C1165 0.930 . S
H1174 C1188 0.929 . S
H1175 C1155 0.931 . S
H1176 C1161 0.931 . S
H1177 C1162 0.931 . S
H1178 C1183 0.931 . S
H1179 C1158 0.929 . S
H1180 C1191 0.930 . S
N1181 Eu1152 2.600 1_655 S
N1181 C1182 1.365 . S
N1181 C1185 1.319 . S
C1182 N1181 1.365 . S
C1182 C1184 1.405 . S
C1182 C1190 1.448 . S
C1183 H1178 0.931 . S
C1183 C1185 1.397 . S
C1183 C1186 1.367 . S
C1184 C1182 1.405 . S
C1184 C1186 1.403 . S
C1184 C1217 1.439 . S
C1185 H1170 0.930 1_655 S
C1185 N1181 1.319 . S
C1185 C1183 1.397 . S
C1186 C1183 1.367 . S
C1186 C1184 1.403 . S
C1186 H1193 0.929 . S
N1187 Eu1152 2.562 1_655 S
N1187 C1188 1.325 . S
N1187 C1190 1.351 . S
C1188 H1174 0.929 . S
C1188 N1187 1.325 . S
C1188 C1192 1.416 . S
C1189 C1190 1.430 . S
C1189 C1191 1.404 . S
C1189 C1218 1.387 . S
C1190 C1182 1.448 . S
C1190 N1187 1.351 . S
C1190 C1189 1.430 . S
C1191 H1180 0.930 . S
C1191 C1189 1.404 . S
C1191 C1192 1.366 . S
C1192 H1171 0.930 . S
C1192 C1188 1.416 . S
C1192 C1191 1.366 . S
H1193 C1186 0.929 . S
H1194 C1217 0.931 . S
H1195 C1218 0.931 . S
O1196 Eu1152 2.462 . S
O1196 C1216 1.252 . S
O1197 Eu1152 2.373 1_655 S
O1197 C1208 1.249 . S
O1198 Eu1163 2.335 1_655 S
O1198 C1208 1.264 . S
O1199 Eu1152 2.432 . S
O1199 C1216 1.268 . S
O1200 Eu1152 2.291 . S
O1200 C1215 1.255 . S
O1201 Eu1163 2.372 . S
O1201 C1215 1.257 . S
O1202 Eu1163 2.462 . S
O1202 C1227 1.252 1_455 S
O1203 Eu1163 2.373 . S
O1203 C1219 1.249 . S
O1204 Eu1152 2.335 . S
O1204 C1219 1.264 . S
O1205 Eu1163 2.432 . S
O1205 C1227 1.268 1_455 S
O1206 Eu1163 2.291 . S
O1206 C1226 1.255 . S
O1207 Eu1152 2.372 . S
O1207 C1226 1.257 . S
C1208 O1197 1.249 . S
C1208 O1198 1.264 . S
C1209 C1212 1.382 . S
C1209 C1214 1.390 . S
C1209 C1216 1.506 . S
C1210 C1211 1.398 . S
C1210 C1214 1.392 . S
C1211 C1210 1.398 . S
C1211 C1213 1.372 . S
C1211 H1228 0.931 . S
C1212 C1209 1.382 . S
C1212 C1213 1.390 . S
C1212 H1229 0.931 . S
C1213 C1211 1.372 . S
C1213 C1212 1.390 . S
C1213 H1230 0.929 . S
C1214 C1209 1.390 . S
C1214 C1210 1.392 . S
C1214 H1231 0.930 . S
C1215 O1200 1.255 . S
C1215 O1201 1.257 . S
C1216 Eu1152 2.787 . S
C1216 O1196 1.252 . S
C1216 O1199 1.268 . S
C1216 C1209 1.506 . S
C1217 C1184 1.439 . S
C1217 H1194 0.931 . S
C1217 C1218 1.374 . S
C1218 C1189 1.387 . S
C1218 H1195 0.931 . S
C1218 C1217 1.374 . S
C1219 O1203 1.249 . S
C1219 O1204 1.264 . S
C1220 C1223 1.382 . S
C1220 C1224 1.390 . S
C1220 C1227 1.506 . S
C1221 C1222 1.398 . S
C1221 C1224 1.392 . S
C1222 C1221 1.398 . S
C1222 C1225 1.372 . S
C1222 H1232 0.931 . S
C1223 C1220 1.382 . S
C1223 C1225 1.390 . S
C1223 H1233 0.931 . S
C1224 C1220 1.390 . S
C1224 C1221 1.392 . S
C1224 H1234 0.930 . S
C1225 C1222 1.372 . S
C1225 C1223 1.390 . S
C1225 H1235 0.929 . S
C1226 O1206 1.255 . S
C1226 O1207 1.257 . S
C1227 Eu1163 2.787 1_655 S
C1227 O1202 1.252 1_655 S
C1227 O1205 1.268 1_655 S
C1227 C1220 1.506 . S
H1228 C1211 0.931 . S
H1229 C1212 0.931 . S
H1230 C1213 0.929 . S
H1231 C1214 0.930 . S
H1232 C1222 0.931 . S
H1233 C1223 0.931 . S
H1234 C1224 0.930 . S
H1235 C1225 0.929 . S
Eu1236 N1265 2.600 . S
Eu1236 N1271 2.562 . S
Eu1236 O1280 2.462 . S
Eu1236 O1281 2.373 . S
Eu1236 O1283 2.432 . S
Eu1236 O1284 2.291 . S
Eu1236 O1288 2.335 . S
Eu1236 O1291 2.372 . S
Eu1236 C1300 2.787 . S
C1237 N1238 1.365 . S
C1237 C1240 1.405 . S
C1237 C1244 1.448 . S
N1238 C1237 1.365 . S
N1238 C1241 1.319 . S
N1238 Eu1247 2.600 . S
C1239 C1241 1.397 . S
C1239 C1242 1.367 . S
C1239 H1259 0.931 . S
C1240 C1237 1.405 . S
C1240 C1242 1.403 . S
C1240 C1246 1.439 . S
C1241 N1238 1.319 . S
C1241 C1239 1.397 . S
C1241 H1252 0.930 . S
C1242 C1239 1.367 . S
C1242 C1240 1.403 . S
C1242 H1263 0.929 . S
C1243 C1244 1.430 . S
C1243 C1245 1.387 . S
C1243 C1249 1.404 . S
C1244 C1237 1.448 . S
C1244 C1243 1.430 . S
C1244 N1248 1.351 . S
C1245 C1243 1.387 . S
C1245 C1246 1.374 . S
C1245 H1260 0.931 . S
C1246 C1240 1.439 . S
C1246 C1245 1.374 . S
C1246 H1261 0.931 . S
Eu1247 N1238 2.600 . S
Eu1247 N1248 2.562 . S
Eu1247 O1282 2.335 . S
Eu1247 O1285 2.372 . S
Eu1247 O1286 2.462 . S
Eu1247 O1287 2.373 . S
Eu1247 O1289 2.432 . S
Eu1247 O1290 2.291 . S
Eu1247 C1311 2.787 . S
N1248 C1244 1.351 . S
N1248 Eu1247 2.562 . S
N1248 C1250 1.325 . S
C1249 C1243 1.404 . S
C1249 C1251 1.366 . S
C1249 H1257 0.930 . S
C1250 N1248 1.325 . S
C1250 C1251 1.416 . S
C1250 H1256 0.929 . S
C1251 C1249 1.366 . S
C1251 C1250 1.416 . S
C1251 H1253 0.930 . S
H1252 C1241 0.930 . S
H1253 C1251 0.930 . S
H1254 C1269 0.930 . S
H1255 C1276 0.924 1_455 S
H1256 C1250 0.929 . S
H1257 C1249 0.930 . S
H1258 C1272 0.929 . S
H1259 C1239 0.931 . S
H1260 C1245 0.931 . S
H1261 C1246 0.931 . S
H1262 C1267 0.931 . S
H1263 C1242 0.929 . S
H1264 C1275 0.930 . S
N1265 Eu1236 2.600 . S
N1265 C1266 1.365 . S
N1265 C1269 1.319 . S
C1266 N1265 1.365 . S
C1266 C1268 1.405 . S
C1266 C1274 1.448 . S
C1267 H1262 0.931 . S
C1267 C1269 1.397 . S
C1267 C1270 1.367 . S
C1268 C1266 1.405 . S
C1268 C1270 1.403 . S
C1268 C1301 1.439 . S
C1269 H1254 0.930 . S
C1269 N1265 1.319 . S
C1269 C1267 1.397 . S
C1270 C1267 1.367 . S
C1270 C1268 1.403 . S
C1270 H1277 0.929 . S
N1271 Eu1236 2.562 . S
N1271 C1272 1.325 . S
N1271 C1274 1.351 . S
C1272 H1258 0.929 . S
C1272 N1271 1.325 . S
C1272 C1276 1.430 . S
C1273 C1274 1.430 . S
C1273 C1275 1.404 1_655 S
C1273 C1302 1.391 . S
C1274 C1266 1.448 . S
C1274 N1271 1.351 . S
C1274 C1273 1.430 . S
C1275 H1264 0.930 . S
C1275 C1273 1.404 1_455 S
C1275 C1276 1.358 1_455 S
C1276 H1255 0.924 1_655 S
C1276 C1272 1.430 . S
C1276 C1275 1.358 1_655 S
H1277 C1270 0.929 . S
H1278 C1301 0.931 . S
H1279 C1302 0.924 1_455 S
O1280 Eu1236 2.462 . S
O1280 C1300 1.252 . S
O1281 Eu1236 2.373 . S
O1281 C1292 1.249 . S
O1282 Eu1247 2.335 . S
O1282 C1292 1.264 . S
O1283 Eu1236 2.432 . S
O1283 C1300 1.268 . S
O1284 Eu1236 2.291 . S
O1284 C1299 1.255 . S
O1285 Eu1247 2.372 . S
O1285 C1299 1.257 . S
O1286 Eu1247 2.462 . S
O1286 C1311 1.252 . S
O1287 Eu1247 2.373 . S
O1287 C1303 1.249 . S
O1288 Eu1236 2.335 . S
O1288 C1303 1.264 . S
O1289 Eu1247 2.432 . S
O1289 C1311 1.268 . S
O1290 Eu1247 2.291 . S
O1290 C1310 1.255 . S
O1291 Eu1236 2.372 . S
O1291 C1310 1.257 . S
C1292 O1281 1.249 . S
C1292 O1282 1.264 . S
C1293 C1296 1.382 . S
C1293 C1298 1.390 . S
C1293 C1300 1.506 . S
C1294 C1295 1.398 . S
C1294 C1298 1.392 1_455 S
C1295 C1294 1.398 . S
C1295 C1297 1.372 1_455 S
C1295 H1312 0.931 . S
C1296 C1293 1.382 . S
C1296 C1297 1.390 . S
C1296 H1313 0.931 . S
C1297 C1295 1.372 1_655 S
C1297 C1296 1.390 . S
C1297 H1314 0.929 . S
C1298 C1293 1.390 . S
C1298 C1294 1.392 1_655 S
C1298 H1315 0.930 . S
C1299 O1284 1.255 . S
C1299 O1285 1.257 . S
C1300 Eu1236 2.787 . S
C1300 O1280 1.252 . S
C1300 O1283 1.268 . S
C1300 C1293 1.506 . S
C1301 C1268 1.439 . S
C1301 H1278 0.931 . S
C1301 C1302 1.378 . S
C1302 C1273 1.391 . S
C1302 H1279 0.924 1_655 S
C1302 C1301 1.378 . S
C1303 O1287 1.249 . S
C1303 O1288 1.264 . S
C1304 C1307 1.382 . S
C1304 C1308 1.390 . S
C1304 C1311 1.506 . S
C1305 C1306 1.398 . S
C1305 C1308 1.392 . S
C1306 C1305 1.398 . S
C1306 C1309 1.372 . S
C1306 H1316 0.931 . S
C1307 C1304 1.382 . S
C1307 C1309 1.390 . S
C1307 H1317 0.931 . S
C1308 C1304 1.390 . S
C1308 C1305 1.392 . S
C1308 H1318 0.930 . S
C1309 C1306 1.372 . S
C1309 C1307 1.390 . S
C1309 H1319 0.929 . S
C1310 O1290 1.255 . S
C1310 O1291 1.257 . S
C1311 Eu1247 2.787 . S
C1311 O1286 1.252 . S
C1311 O1289 1.268 . S
C1311 C1304 1.506 . S
H1312 C1295 0.931 . S
H1313 C1296 0.931 . S
H1314 C1297 0.929 . S
H1315 C1298 0.930 . S
H1316 C1306 0.931 . S
H1317 C1307 0.931 . S
H1318 C1308 0.930 . S
H1319 C1309 0.929 . S
Eu1320 N1349 2.600 . S
Eu1320 N1355 2.562 . S
Eu1320 O1364 2.462 . S
Eu1320 O1365 2.373 . S
Eu1320 O1367 2.432 . S
Eu1320 O1368 2.291 . S
Eu1320 O1372 2.335 . S
Eu1320 O1375 2.372 . S
Eu1320 C1384 2.787 . S
C1321 N1322 1.365 . S
C1321 C1324 1.405 . S
C1321 C1328 1.448 . S
N1322 C1321 1.365 . S
N1322 C1325 1.319 . S
N1322 Eu1331 2.600 . S
C1323 C1325 1.397 . S
C1323 C1326 1.367 . S
C1323 H1343 0.931 . S
C1324 C1321 1.405 . S
C1324 C1326 1.403 . S
C1324 C1330 1.439 . S
C1325 N1322 1.319 . S
C1325 C1323 1.397 . S
C1325 H1336 0.930 . S
C1326 C1323 1.367 . S
C1326 C1324 1.403 . S
C1326 H1347 0.929 . S
C1327 C1328 1.430 . S
C1327 C1329 1.387 . S
C1327 C1333 1.404 . S
C1328 C1321 1.448 . S
C1328 C1327 1.430 . S
C1328 N1332 1.351 . S
C1329 C1327 1.387 . S
C1329 C1330 1.374 . S
C1329 H1344 0.931 . S
C1330 C1324 1.439 . S
C1330 C1329 1.374 . S
C1330 H1345 0.931 . S
Eu1331 N1322 2.600 . S
Eu1331 N1332 2.562 . S
Eu1331 O1366 2.335 . S
Eu1331 O1369 2.372 . S
Eu1331 O1370 2.462 . S
Eu1331 O1371 2.373 . S
Eu1331 O1373 2.432 . S
Eu1331 O1374 2.291 . S
Eu1331 C1395 2.787 . S
N1332 C1328 1.351 . S
N1332 Eu1331 2.562 . S
N1332 C1334 1.325 . S
C1333 C1327 1.404 . S
C1333 C1335 1.366 . S
C1333 H1341 0.930 . S
C1334 N1332 1.325 . S
C1334 C1335 1.416 . S
C1334 H1340 0.929 . S
C1335 C1333 1.366 . S
C1335 C1334 1.416 . S
C1335 H1337 0.930 . S
H1336 C1325 0.930 . S
H1337 C1335 0.930 . S
H1338 C1353 0.930 . S
H1339 C1360 0.930 . S
H1340 C1334 0.929 . S
H1341 C1333 0.930 . S
H1342 C1356 0.929 . S
H1343 C1323 0.931 . S
H1344 C1329 0.931 . S
H1345 C1330 0.931 . S
H1346 C1351 0.931 . S
H1347 C1326 0.929 . S
H1348 C1359 0.930 . S
N1349 Eu1320 2.600 . S
N1349 C1350 1.365 . S
N1349 C1353 1.319 . S
C1350 N1349 1.365 . S
C1350 C1352 1.405 . S
C1350 C1358 1.448 . S
C1351 H1346 0.931 . S
C1351 C1353 1.397 . S
C1351 C1354 1.367 . S
C1352 C1350 1.405 . S
C1352 C1354 1.403 . S
C1352 C1385 1.439 1_556 S
C1353 H1338 0.930 . S
C1353 N1349 1.319 . S
C1353 C1351 1.397 . S
C1354 C1351 1.367 . S
C1354 C1352 1.403 . S
C1354 H1361 0.929 . S
N1355 Eu1320 2.562 . S
N1355 C1356 1.325 . S
N1355 C1358 1.351 . S
C1356 H1342 0.929 . S
C1356 N1355 1.325 . S
C1356 C1360 1.416 1_556 S
C1357 C1358 1.430 1_554 S
C1357 C1359 1.404 . S
C1357 C1386 1.387 . S
C1358 C1350 1.448 . S
C1358 N1355 1.351 . S
C1358 C1357 1.430 1_556 S
C1359 H1348 0.930 . S
C1359 C1357 1.404 . S
C1359 C1360 1.366 . S
C1360 H1339 0.930 . S
C1360 C1356 1.416 1_554 S
C1360 C1359 1.366 . S
H1361 C1354 0.929 . S
H1362 C1385 0.931 . S
H1363 C1386 0.931 . S
O1364 Eu1320 2.462 . S
O1364 C1384 1.252 . S
O1365 Eu1320 2.373 . S
O1365 C1376 1.249 . S
O1366 Eu1331 2.335 . S
O1366 C1376 1.264 . S
O1367 Eu1320 2.432 . S
O1367 C1384 1.268 . S
O1368 Eu1320 2.291 . S
O1368 C1383 1.255 . S
O1369 Eu1331 2.372 . S
O1369 C1383 1.257 . S
O1370 Eu1331 2.462 . S
O1370 C1395 1.252 . S
O1371 Eu1331 2.373 . S
O1371 C1387 1.249 . S
O1372 Eu1320 2.335 . S
O1372 C1387 1.264 . S
O1373 Eu1331 2.432 . S
O1373 C1395 1.268 . S
O1374 Eu1331 2.291 . S
O1374 C1394 1.255 . S
O1375 Eu1320 2.372 . S
O1375 C1394 1.257 . S
C1376 O1365 1.249 . S
C1376 O1366 1.264 . S
C1377 C1380 1.382 . S
C1377 C1382 1.390 1_556 S
C1377 C1384 1.506 . S
C1378 C1379 1.398 . S
C1378 C1382 1.392 . S
C1379 C1378 1.398 . S
C1379 C1381 1.372 . S
C1379 H1396 0.931 . S
C1380 C1377 1.382 . S
C1380 C1381 1.390 1_556 S
C1380 H1397 0.931 . S
C1381 C1379 1.372 . S
C1381 C1380 1.390 1_554 S
C1381 H1398 0.929 . S
C1382 C1377 1.390 1_554 S
C1382 C1378 1.392 . S
C1382 H1399 0.930 . S
C1383 O1368 1.255 . S
C1383 O1369 1.257 . S
C1384 Eu1320 2.787 . S
C1384 O1364 1.252 . S
C1384 O1367 1.268 . S
C1384 C1377 1.506 . S
C1385 C1352 1.439 1_554 S
C1385 H1362 0.931 . S
C1385 C1386 1.374 . S
C1386 C1357 1.387 . S
C1386 H1363 0.931 . S
C1386 C1385 1.374 . S
C1387 O1371 1.249 . S
C1387 O1372 1.264 . S
C1388 C1391 1.382 . S
C1388 C1392 1.390 . S
C1388 C1395 1.506 . S
C1389 C1390 1.398 . S
C1389 C1392 1.392 . S
C1390 C1389 1.398 . S
C1390 C1393 1.372 . S
C1390 H1400 0.931 . S
C1391 C1388 1.382 . S
C1391 C1393 1.390 . S
C1391 H1401 0.931 . S
C1392 C1388 1.390 . S
C1392 C1389 1.392 . S
C1392 H1402 0.930 . S
C1393 C1390 1.372 . S
C1393 C1391 1.390 . S
C1393 H1403 0.929 . S
C1394 O1374 1.255 . S
C1394 O1375 1.257 . S
C1395 Eu1331 2.787 . S
C1395 O1370 1.252 . S
C1395 O1373 1.268 . S
C1395 C1388 1.506 . S
H1396 C1379 0.931 . S
H1397 C1380 0.931 . S
H1398 C1381 0.929 . S
H1399 C1382 0.930 . S
H1400 C1390 0.931 . S
H1401 C1391 0.931 . S
H1402 C1392 0.930 . S
H1403 C1393 0.929 . S
Eu1404 N1433 2.600 . S
Eu1404 N1439 2.562 . S
Eu1404 O1448 2.462 . S
Eu1404 O1449 2.373 . S
Eu1404 O1451 2.432 . S
Eu1404 O1452 2.291 . S
Eu1404 O1456 2.335 . S
Eu1404 O1459 2.372 . S
Eu1404 C1468 2.787 . S
C1405 N1406 1.365 . S
C1405 C1408 1.405 . S
C1405 C1412 1.448 . S
N1406 C1405 1.365 . S
N1406 C1409 1.319 . S
N1406 Eu1415 2.600 . S
C1407 C1409 1.397 1_554 S
C1407 C1410 1.367 . S
C1407 H1427 0.931 . S
C1408 C1405 1.405 . S
C1408 C1410 1.403 1_556 S
C1408 C1414 1.439 1_655 S
C1409 N1406 1.319 . S
C1409 C1407 1.397 1_556 S
C1409 H1420 0.930 . S
C1410 C1407 1.367 . S
C1410 C1408 1.403 1_554 S
C1410 H1431 0.929 . S
C1411 C1412 1.430 . S
C1411 C1413 1.387 1_655 S
C1411 C1417 1.404 . S
C1412 C1405 1.448 . S
C1412 C1411 1.430 . S
C1412 N1416 1.351 . S
C1413 C1411 1.387 1_455 S
C1413 C1414 1.374 . S
C1413 H1428 0.931 . S
C1414 C1408 1.439 1_455 S
C1414 C1413 1.374 . S
C1414 H1429 0.931 . S
Eu1415 N1406 2.600 . S
Eu1415 N1416 2.562 . S
Eu1415 O1450 2.335 . S
Eu1415 O1453 2.372 . S
Eu1415 O1454 2.462 . S
Eu1415 O1455 2.373 . S
Eu1415 O1457 2.432 . S
Eu1415 O1458 2.291 . S
Eu1415 C1479 2.787 . S
N1416 C1412 1.351 . S
N1416 Eu1415 2.562 . S
N1416 C1418 1.325 . S
C1417 C1411 1.404 . S
C1417 C1419 1.366 . S
C1417 H1425 0.930 1_655 S
C1418 N1416 1.325 . S
C1418 C1419 1.416 . S
C1418 H1424 0.929 . S
C1419 C1417 1.366 . S
C1419 C1418 1.416 . S
C1419 H1421 0.930 . S
H1420 C1409 0.930 . S
H1421 C1419 0.930 . S
H1422 C1437 0.930 . S
H1423 C1444 0.930 . S
H1424 C1418 0.929 . S
H1425 C1417 0.930 1_455 S
H1426 C1440 0.929 . S
H1427 C1407 0.931 . S
H1428 C1413 0.931 . S
H1429 C1414 0.931 . S
H1430 C1435 0.931 . S
H1431 C1410 0.929 . S
H1432 C1443 0.930 . S
N1433 Eu1404 2.600 . S
N1433 C1434 1.365 . S
N1433 C1437 1.319 . S
C1434 N1433 1.365 . S
C1434 C1436 1.405 . S
C1434 C1442 1.448 . S
C1435 H1430 0.931 . S
C1435 C1437 1.397 . S
C1435 C1438 1.367 . S
C1436 C1434 1.405 . S
C1436 C1438 1.403 . S
C1436 C1469 1.439 . S
C1437 H1422 0.930 . S
C1437 N1433 1.319 . S
C1437 C1435 1.397 . S
C1438 C1435 1.367 . S
C1438 C1436 1.403 . S
C1438 H1445 0.929 . S
N1439 Eu1404 2.562 . S
N1439 C1440 1.325 . S
N1439 C1442 1.351 . S
C1440 H1426 0.929 . S
C1440 N1439 1.325 . S
C1440 C1444 1.416 . S
C1441 C1442 1.430 . S
C1441 C1443 1.404 . S
C1441 C1470 1.387 . S
C1442 C1434 1.448 . S
C1442 N1439 1.351 . S
C1442 C1441 1.430 . S
C1443 H1432 0.930 . S
C1443 C1441 1.404 . S
C1443 C1444 1.366 . S
C1444 H1423 0.930 . S
C1444 C1440 1.416 . S
C1444 C1443 1.366 . S
H1445 C1438 0.929 . S
H1446 C1469 0.931 . S
H1447 C1470 0.931 . S
O1448 Eu1404 2.462 . S
O1448 C1468 1.252 . S
O1449 Eu1404 2.373 . S
O1449 C1460 1.249 . S
O1450 Eu1415 2.335 . S
O1450 C1460 1.264 . S
O1451 Eu1404 2.432 . S
O1451 C1468 1.268 . S
O1452 Eu1404 2.291 . S
O1452 C1467 1.255 . S
O1453 Eu1415 2.372 . S
O1453 C1467 1.257 . S
O1454 Eu1415 2.462 . S
O1454 C1479 1.252 . S
O1455 Eu1415 2.373 . S
O1455 C1471 1.249 . S
O1456 Eu1404 2.335 . S
O1456 C1471 1.264 . S
O1457 Eu1415 2.432 . S
O1457 C1479 1.268 . S
O1458 Eu1415 2.291 . S
O1458 C1478 1.255 . S
O1459 Eu1404 2.372 . S
O1459 C1478 1.257 . S
C1460 O1449 1.249 . S
C1460 O1450 1.264 . S
C1461 C1464 1.382 . S
C1461 C1466 1.390 . S
C1461 C1468 1.506 . S
C1462 C1463 1.398 . S
C1462 C1466 1.392 . S
C1463 C1462 1.398 . S
C1463 C1465 1.372 . S
C1463 H1480 0.931 . S
C1464 C1461 1.382 . S
C1464 C1465 1.390 . S
C1464 H1481 0.931 . S
C1465 C1463 1.372 . S
C1465 C1464 1.390 . S
C1465 H1482 0.929 . S
C1466 C1461 1.390 . S
C1466 C1462 1.392 . S
C1466 H1483 0.930 . S
C1467 O1452 1.255 . S
C1467 O1453 1.257 . S
C1468 Eu1404 2.787 . S
C1468 O1448 1.252 . S
C1468 O1451 1.268 . S
C1468 C1461 1.506 . S
C1469 C1436 1.439 . S
C1469 H1446 0.931 . S
C1469 C1470 1.374 . S
C1470 C1441 1.387 . S
C1470 H1447 0.931 . S
C1470 C1469 1.374 . S
C1471 O1455 1.249 . S
C1471 O1456 1.264 . S
C1472 C1475 1.382 1_565 S
C1472 C1476 1.390 1_565 S
C1472 C1479 1.506 . S
C1473 C1474 1.398 . S
C1473 C1476 1.392 . S
C1474 C1473 1.398 . S
C1474 C1477 1.372 . S
C1474 H1484 0.931 . S
C1475 C1472 1.382 1_545 S
C1475 C1477 1.390 . S
C1475 H1485 0.931 . S
C1476 C1472 1.390 1_545 S
C1476 C1473 1.392 . S
C1476 H1486 0.930 1_545 S
C1477 C1474 1.372 . S
C1477 C1475 1.390 . S
C1477 H1487 0.929 . S
C1478 O1458 1.255 . S
C1478 O1459 1.257 . S
C1479 Eu1415 2.787 . S
C1479 O1454 1.252 . S
C1479 O1457 1.268 . S
C1479 C1472 1.506 . S
H1480 C1463 0.931 . S
H1481 C1464 0.931 . S
H1482 C1465 0.929 . S
H1483 C1466 0.930 . S
H1484 C1474 0.931 . S
H1485 C1475 0.931 . S
H1486 C1476 0.930 1_565 S
H1487 C1477 0.929 . S
Eu1488 N1517 2.600 . S
Eu1488 N1523 2.562 . S
Eu1488 O1532 2.462 . S
Eu1488 O1533 2.373 . S
Eu1488 O1535 2.432 . S
Eu1488 O1536 2.291 . S
Eu1488 O1540 2.335 . S
Eu1488 O1543 2.372 . S
Eu1488 C1552 2.787 . S
C1489 N1490 1.365 . S
C1489 C1492 1.405 . S
C1489 C1496 1.448 . S
N1490 C1489 1.365 . S
N1490 C1493 1.319 . S
N1490 Eu1499 2.600 . S
C1491 C1493 1.397 . S
C1491 C1494 1.367 . S
C1491 H1511 0.931 . S
C1492 C1489 1.405 . S
C1492 C1494 1.403 . S
C1492 C1498 1.439 . S
C1493 N1490 1.319 . S
C1493 C1491 1.397 . S
C1493 H1504 0.930 . S
C1494 C1491 1.367 . S
C1494 C1492 1.403 . S
C1494 H1515 0.929 . S
C1495 C1496 1.430 . S
C1495 C1497 1.387 . S
C1495 C1501 1.404 . S
C1496 C1489 1.448 . S
C1496 C1495 1.430 . S
C1496 N1500 1.351 . S
C1497 C1495 1.387 . S
C1497 C1498 1.374 . S
C1497 H1512 0.931 . S
C1498 C1492 1.439 . S
C1498 C1497 1.374 . S
C1498 H1513 0.931 . S
Eu1499 N1490 2.600 . S
Eu1499 N1500 2.562 . S
Eu1499 O1534 2.335 . S
Eu1499 O1537 2.372 . S
Eu1499 O1538 2.462 . S
Eu1499 O1539 2.373 . S
Eu1499 O1541 2.432 . S
Eu1499 O1542 2.291 . S
Eu1499 C1563 2.787 . S
N1500 C1496 1.351 . S
N1500 Eu1499 2.562 . S
N1500 C1502 1.325 . S
C1501 C1495 1.404 . S
C1501 C1503 1.366 . S
C1501 H1509 0.930 . S
C1502 N1500 1.325 . S
C1502 C1503 1.416 . S
C1502 H1508 0.929 . S
C1503 C1501 1.366 . S
C1503 C1502 1.416 . S
C1503 H1505 0.930 . S
H1504 C1493 0.930 . S
H1505 C1503 0.930 . S
H1506 C1521 0.930 . S
H1507 C1528 0.930 . S
H1508 C1502 0.929 . S
H1509 C1501 0.930 . S
H1510 C1524 0.929 . S
H1511 C1491 0.931 . S
H1512 C1497 0.931 . S
H1513 C1498 0.931 . S
H1514 C1519 0.931 . S
H1515 C1494 0.929 . S
H1516 C1527 0.930 . S
N1517 Eu1488 2.600 . S
N1517 C1518 1.365 . S
N1517 C1521 1.319 . S
C1518 N1517 1.365 . S
C1518 C1520 1.405 . S
C1518 C1526 1.448 . S
C1519 H1514 0.931 . S
C1519 C1521 1.397 . S
C1519 C1522 1.367 . S
C1520 C1518 1.405 . S
C1520 C1522 1.403 . S
C1520 C1553 1.439 . S
C1521 H1506 0.930 . S
C1521 N1517 1.319 . S
C1521 C1519 1.397 . S
C1522 C1519 1.367 . S
C1522 C1520 1.403 . S
C1522 H1529 0.929 . S
N1523 Eu1488 2.562 . S
N1523 C1524 1.325 . S
N1523 C1526 1.351 . S
C1524 H1510 0.929 . S
C1524 N1523 1.325 . S
C1524 C1528 1.416 . S
C1525 C1526 1.430 . S
C1525 C1527 1.404 . S
C1525 C1554 1.387 . S
C1526 C1518 1.448 . S
C1526 N1523 1.351 . S
C1526 C1525 1.430 . S
C1527 H1516 0.930 . S
C1527 C1525 1.404 . S
C1527 C1528 1.366 . S
C1528 H1507 0.930 . S
C1528 C1524 1.416 . S
C1528 C1527 1.366 . S
H1529 C1522 0.929 . S
H1530 C1553 0.931 . S
H1531 C1554 0.931 . S
O1532 Eu1488 2.462 . S
O1532 C1552 1.252 . S
O1533 Eu1488 2.373 . S
O1533 C1544 1.249 . S
O1534 Eu1499 2.335 . S
O1534 C1544 1.264 . S
O1535 Eu1488 2.432 . S
O1535 C1552 1.268 . S
O1536 Eu1488 2.291 . S
O1536 C1551 1.255 . S
O1537 Eu1499 2.372 . S
O1537 C1551 1.257 . S
O1538 Eu1499 2.462 . S
O1538 C1563 1.252 . S
O1539 Eu1499 2.373 . S
O1539 C1555 1.249 . S
O1540 Eu1488 2.335 . S
O1540 C1555 1.264 . S
O1541 Eu1499 2.432 . S
O1541 C1563 1.268 . S
O1542 Eu1499 2.291 . S
O1542 C1562 1.255 . S
O1543 Eu1488 2.372 . S
O1543 C1562 1.257 . S
C1544 O1533 1.249 . S
C1544 O1534 1.264 . S
C1545 C1548 1.382 . S
C1545 C1550 1.390 . S
C1545 C1552 1.506 . S
C1546 C1547 1.398 . S
C1546 C1550 1.392 . S
C1547 C1546 1.398 . S
C1547 C1549 1.372 . S
C1547 H1564 0.931 . S
C1548 C1545 1.382 . S
C1548 C1549 1.390 . S
C1548 H1565 0.931 . S
C1549 C1547 1.372 . S
C1549 C1548 1.390 . S
C1549 H1566 0.929 . S
C1550 C1545 1.390 . S
C1550 C1546 1.392 . S
C1550 H1567 0.930 . S
C1551 O1536 1.255 . S
C1551 O1537 1.257 . S
C1552 Eu1488 2.787 . S
C1552 O1532 1.252 . S
C1552 O1535 1.268 . S
C1552 C1545 1.506 . S
C1553 C1520 1.439 . S
C1553 H1530 0.931 . S
C1553 C1554 1.374 . S
C1554 C1525 1.387 . S
C1554 H1531 0.931 . S
C1554 C1553 1.374 . S
C1555 O1539 1.249 . S
C1555 O1540 1.264 . S
C1556 C1559 1.382 . S
C1556 C1560 1.390 . S
C1556 C1563 1.506 . S
C1557 C1558 1.398 . S
C1557 C1560 1.392 . S
C1558 C1557 1.398 . S
C1558 C1561 1.372 . S
C1558 H1568 0.931 . S
C1559 C1556 1.382 . S
C1559 C1561 1.390 . S
C1559 H1569 0.931 . S
C1560 C1556 1.390 . S
C1560 C1557 1.392 . S
C1560 H1570 0.930 . S
C1561 C1558 1.372 . S
C1561 C1559 1.390 . S
C1561 H1571 0.929 . S
C1562 O1542 1.255 . S
C1562 O1543 1.257 . S
C1563 Eu1499 2.787 . S
C1563 O1538 1.252 . S
C1563 O1541 1.268 . S
C1563 C1556 1.506 . S
H1564 C1547 0.931 . S
H1565 C1548 0.931 . S
H1566 C1549 0.929 . S
H1567 C1550 0.930 . S
H1568 C1558 0.931 . S
H1569 C1559 0.931 . S
H1570 C1560 0.930 . S
H1571 C1561 0.929 . S
Eu1572 N1601 2.599 1_455 S
Eu1572 N1607 2.560 1_455 S
Eu1572 O1616 2.459 1_455 S
Eu1572 O1617 2.374 . S
Eu1572 O1619 2.430 1_455 S
Eu1572 O1620 2.291 1_455 S
Eu1572 O1624 2.336 . S
Eu1572 O1627 2.374 . S
Eu1572 C1636 2.784 1_455 S
C1573 N1574 1.365 . S
C1573 C1576 1.405 . S
C1573 C1580 1.448 1_556 S
N1574 C1573 1.365 . S
N1574 C1577 1.319 . S
N1574 Eu1583 2.600 1_556 S
C1575 C1577 1.397 . S
C1575 C1578 1.367 . S
C1575 H1595 0.931 . S
C1576 C1573 1.405 . S
C1576 C1578 1.403 . S
C1576 C1582 1.439 . S
C1577 N1574 1.319 . S
C1577 C1575 1.397 . S
C1577 H1588 0.930 . S
C1578 C1575 1.367 . S
C1578 C1576 1.403 . S
C1578 H1599 0.929 . S
C1579 C1580 1.430 . S
C1579 C1581 1.387 1_554 S
C1579 C1585 1.404 . S
C1580 C1573 1.448 1_554 S
C1580 C1579 1.430 . S
C1580 N1584 1.351 . S
C1581 C1579 1.387 1_556 S
C1581 C1582 1.374 . S
C1581 H1596 0.931 . S
C1582 C1576 1.439 . S
C1582 C1581 1.374 . S
C1582 H1597 0.931 . S
Eu1583 N1574 2.600 1_554 S
Eu1583 N1584 2.562 . S
Eu1583 O1618 2.335 . S
Eu1583 O1621 2.372 1_554 S
Eu1583 O1622 2.462 . S
Eu1583 O1623 2.373 . S
Eu1583 O1625 2.432 1_554 S
Eu1583 O1626 2.291 . S
Eu1583 C1647 2.787 . S
N1584 C1580 1.351 . S
N1584 Eu1583 2.562 . S
N1584 C1586 1.325 . S
C1585 C1579 1.404 . S
C1585 C1587 1.366 . S
C1585 H1593 0.930 . S
C1586 N1584 1.325 . S
C1586 C1587 1.416 . S
C1586 H1592 0.929 . S
C1587 C1585 1.366 . S
C1587 C1586 1.416 . S
C1587 H1589 0.930 . S
H1588 C1577 0.930 . S
H1589 C1587 0.930 . S
H1590 C1605 0.930 . S
H1591 C1612 0.930 . S
H1592 C1586 0.929 . S
H1593 C1585 0.930 . S
H1594 C1608 0.929 . S
H1595 C1575 0.931 . S
H1596 C1581 0.931 . S
H1597 C1582 0.931 . S
H1598 C1603 0.931 . S
H1599 C1578 0.929 . S
H1600 C1611 0.930 . S
N1601 Eu1572 2.599 1_655 S
N1601 C1602 1.365 . S
N1601 C1605 1.319 1_655 S
C1602 N1601 1.365 . S
C1602 C1604 1.405 . S
C1602 C1610 1.448 . S
C1603 H1598 0.931 . S
C1603 C1605 1.397 . S
C1603 C1606 1.367 1_455 S
C1604 C1602 1.405 . S
C1604 C1606 1.403 . S
C1604 C1637 1.439 . S
C1605 H1590 0.930 . S
C1605 N1601 1.319 1_455 S
C1605 C1603 1.397 . S
C1606 C1603 1.367 1_655 S
C1606 C1604 1.403 . S
C1606 H1613 0.929 . S
N1607 Eu1572 2.560 1_655 S
N1607 C1608 1.325 . S
N1607 C1610 1.351 . S
C1608 H1594 0.929 . S
C1608 N1607 1.325 . S
C1608 C1612 1.416 . S
C1609 C1610 1.430 . S
C1609 C1611 1.404 . S
C1609 C1638 1.387 . S
C1610 C1602 1.448 . S
C1610 N1607 1.351 . S
C1610 C1609 1.430 . S
C1611 H1600 0.930 . S
C1611 C1609 1.404 . S
C1611 C1612 1.366 . S
C1612 H1591 0.930 . S
C1612 C1608 1.416 . S
C1612 C1611 1.366 . S
H1613 C1606 0.929 . S
H1614 C1637 0.931 . S
H1615 C1638 0.931 . S
O1616 Eu1572 2.459 1_655 S
O1616 C1636 1.252 . S
O1617 Eu1572 2.374 . S
O1617 C1628 1.249 . S
O1618 Eu1583 2.335 . S
O1618 C1628 1.264 . S
O1619 Eu1572 2.430 1_655 S
O1619 C1636 1.268 . S
O1620 Eu1572 2.291 1_655 S
O1620 C1635 1.255 1_554 S
O1621 Eu1583 2.372 1_556 S
O1621 C1635 1.257 1_455 S
O1622 Eu1583 2.462 . S
O1622 C1647 1.252 . S
O1623 Eu1583 2.373 . S
O1623 C1639 1.249 . S
O1624 Eu1572 2.336 . S
O1624 C1639 1.264 . S
O1625 Eu1583 2.432 1_556 S
O1625 C1647 1.268 1_556 S
O1626 Eu1583 2.291 . S
O1626 C1646 1.255 . S
O1627 Eu1572 2.374 . S
O1627 C1646 1.257 . S
C1628 O1617 1.249 . S
C1628 O1618 1.264 . S
C1629 C1632 1.382 . S
C1629 C1634 1.390 . S
C1629 C1636 1.506 . S
C1630 C1631 1.398 . S
C1630 C1634 1.392 . S
C1631 C1630 1.398 . S
C1631 C1633 1.372 . S
C1631 H1648 0.931 . S
C1632 C1629 1.382 . S
C1632 C1633 1.390 . S
C1632 H1649 0.931 . S
C1633 C1631 1.372 . S
C1633 C1632 1.390 . S
C1633 H1650 0.929 . S
C1634 C1629 1.390 . S
C1634 C1630 1.392 . S
C1634 H1651 0.930 . S
C1635 O1620 1.255 1_556 S
C1635 O1621 1.257 1_655 S
C1636 Eu1572 2.784 1_655 S
C1636 O1616 1.252 . S
C1636 O1619 1.268 . S
C1636 C1629 1.506 . S
C1637 C1604 1.439 . S
C1637 H1614 0.931 . S
C1637 C1638 1.374 . S
C1638 C1609 1.387 . S
C1638 H1615 0.931 . S
C1638 C1637 1.374 . S
C1639 O1623 1.249 . S
C1639 O1624 1.264 . S
C1640 C1643 1.382 1_554 S
C1640 C1644 1.390 . S
C1640 C1647 1.506 . S
C1641 C1642 1.398 1_554 S
C1641 C1644 1.392 . S
C1642 C1641 1.398 1_556 S
C1642 C1645 1.372 . S
C1642 H1652 0.931 . S
C1643 C1640 1.382 1_556 S
C1643 C1645 1.390 . S
C1643 H1653 0.931 . S
C1644 C1640 1.390 . S
C1644 C1641 1.392 . S
C1644 H1654 0.930 . S
C1645 C1642 1.372 . S
C1645 C1643 1.390 . S
C1645 H1655 0.929 . S
C1646 O1626 1.255 . S
C1646 O1627 1.257 . S
C1647 Eu1583 2.787 . S
C1647 O1622 1.252 . S
C1647 O1625 1.268 1_554 S
C1647 C1640 1.506 . S
H1648 C1631 0.931 . S
H1649 C1632 0.931 . S
H1650 C1633 0.929 . S
H1651 C1634 0.930 . S
H1652 C1642 0.931 . S
H1653 C1643 0.931 . S
H1654 C1644 0.930 . S
H1655 C1645 0.929 . S
C101 C368 3.454 . S
C57 C470 2.910 . S
C70 C536 2.449 . S
C622 C82 1.768 . S
C23 C706 1.768 . S
C788 C29 2.442 . S
C890 C49 2.880 . S
C10 C956 3.441 . S
C386 C218 2.725 1_455 S
C226 C454 1.268 . S
C554 C251 2.331 . S
C620 C159 1.847 . S
C211 C704 1.845 1_655 S
C806 C225 2.349 . S
C874 C252 1.263 . S
C974 C166 2.719 . S
C370 C147 2.730 . S
C263 C1058 2.500 . S
C1126 C309 2.466 . S
C1208 C291 0.886 . S
C108 C958 2.795 . S
C121 C538 2.459 . S
C302 C1310 2.499 . S
C1376 C276 0.889 . S
C379 C55 3.596 . S
C1383 C96 2.931 . S
C88 C547 2.814 . S
C75 C1305 1.678 . S
C717 C4 1.669 . S
C44 C1135 2.819 . S
C879 C31 2.966 . S
C1471 C18 3.597 . S
C375 C133 2.973 . S
C1389 C296 0.683 . S
C107 C543 1.861 . S
C264 C1303 2.117 . S
C140 C715 2.118 . S
C1131 C289 1.868 . S
C114 C885 0.693 1_545 S
C265 C1467 2.971 . S
C179 C381 2.424 . S
C161 C1047 2.374 . S
C244 C801 1.939 . S
C224 C1219 0.907 . S
C1473 C257 2.405 . S
C199 C549 1.926 . S
C627 C237 2.371 . S
C463 C185 0.915 . S
C69 C1544 3.433 . S
C1394 C83 2.891 . S
C94 C1628 2.475 . S
C56 C1294 1.760 . S
C42 C1042 1.791 . S
C1124 C3 2.455 . S
C1226 C16 2.898 . S
C1460 C36 3.438 . S
C1562 C238 2.720 . S
C174 C1378 1.254 . S
C1646 C186 2.345 . S
C1292 C198 1.842 . S
C1040 C239 1.841 . S
C173 C1142 2.339 . S
C1210 C187 1.254 . S
C205 C1478 2.722 . S
C1546 C290 2.786 . S
C122 C722 2.499 . S
C790 C134 2.433 . S
C872 C148 0.828 . S
C1462 C283 2.777 . S
C270 C1630 2.456 . S
C638 C135 2.498 . S
C452 C109 0.882 . S
C81 C1555 3.593 . S
C459 C68 2.960 . S
C62 C1639 2.818 . S
C95 C633 1.655 . S
C30 C1053 1.668 . S
C799 C17 2.821 . S
C5 C1215 2.964 . S
C43 C967 3.594 . S
C1551 C304 2.968 . S
C153 C465 0.658 . S
C1635 C278 1.872 . S
C127 C631 2.111 . S
C303 C1051 2.113 . S
C795 C146 1.902 . S
C277 C1221 0.690 . S
C963 C120 2.963 . S
C1557 C231 2.401 . S
C711 C200 2.374 1_545 S
C212 C1137 1.924 . S
C883 C172 0.885 . S
C192 C969 2.391 . S
C160 C1641 1.938 . S
C1299 C213 2.373 . S
C1387 C250 0.882 . S
