# Generated by pormake.
# Topology pyr, (3,6)-cn, num edge types: 1
# Building blocks:
#     Node 0, Type 0, BuildingBlock: OLANEW_clean_sbu_2, # of connection points: 3
#     Node 1, Type 0, BuildingBlock: OLANEW_clean_sbu_2, # of connection points: 3
#     Node 2, Type 0, BuildingBlock: OLANEW_clean_sbu_2, # of connection points: 3
#     Node 3, Type 0, BuildingBlock: OLANEW_clean_sbu_2, # of connection points: 3
#     Node 4, Type 0, BuildingBlock: OLANEW_clean_sbu_2, # of connection points: 3
#     Node 5, Type 0, BuildingBlock: OLANEW_clean_sbu_2, # of connection points: 3
#     Node 6, Type 0, BuildingBlock: OLANEW_clean_sbu_2, # of connection points: 3
#     Node 7, Type 0, BuildingBlock: OLANEW_clean_sbu_2, # of connection points: 3
#     Node 8, Type 1, BuildingBlock: BETFEN_clean_sbu_0, # of connection points: 6
#     Node 9, Type 1, BuildingBlock: BETFEN_clean_sbu_0, # of connection points: 6
#     Node 10, Type 1, BuildingBlock: BETFEN_clean_sbu_0, # of connection points: 6
#     Node 11, Type 1, BuildingBlock: BETFEN_clean_sbu_0, # of connection points: 6
#     Edge 12, Type (0, 1), BuildingBlock: XIVTED_clean_linker_0, # of connection points: 2
#     Edge 13, Type (0, 1), BuildingBlock: XIVTED_clean_linker_0, # of connection points: 2
#     Edge 14, Type (0, 1), BuildingBlock: XIVTED_clean_linker_0, # of connection points: 2
#     Edge 15, Type (0, 1), BuildingBlock: XIVTED_clean_linker_0, # of connection points: 2
#     Edge 16, Type (0, 1), BuildingBlock: XIVTED_clean_linker_0, # of connection points: 2
#     Edge 17, Type (0, 1), BuildingBlock: XIVTED_clean_linker_0, # of connection points: 2
#     Edge 18, Type (0, 1), BuildingBlock: XIVTED_clean_linker_0, # of connection points: 2
#     Edge 19, Type (0, 1), BuildingBlock: XIVTED_clean_linker_0, # of connection points: 2
#     Edge 20, Type (0, 1), BuildingBlock: XIVTED_clean_linker_0, # of connection points: 2
#     Edge 21, Type (0, 1), BuildingBlock: XIVTED_clean_linker_0, # of connection points: 2
#     Edge 22, Type (0, 1), BuildingBlock: XIVTED_clean_linker_0, # of connection points: 2
#     Edge 23, Type (0, 1), BuildingBlock: XIVTED_clean_linker_0, # of connection points: 2
#     Edge 24, Type (0, 1), BuildingBlock: XIVTED_clean_linker_0, # of connection points: 2
#     Edge 25, Type (0, 1), BuildingBlock: XIVTED_clean_linker_0, # of connection points: 2
#     Edge 26, Type (0, 1), BuildingBlock: XIVTED_clean_linker_0, # of connection points: 2
#     Edge 27, Type (0, 1), BuildingBlock: XIVTED_clean_linker_0, # of connection points: 2
#     Edge 28, Type (0, 1), BuildingBlock: XIVTED_clean_linker_0, # of connection points: 2
#     Edge 29, Type (0, 1), BuildingBlock: XIVTED_clean_linker_0, # of connection points: 2
#     Edge 30, Type (0, 1), BuildingBlock: XIVTED_clean_linker_0, # of connection points: 2
#     Edge 31, Type (0, 1), BuildingBlock: XIVTED_clean_linker_0, # of connection points: 2
#     Edge 32, Type (0, 1), BuildingBlock: XIVTED_clean_linker_0, # of connection points: 2
#     Edge 33, Type (0, 1), BuildingBlock: XIVTED_clean_linker_0, # of connection points: 2
#     Edge 34, Type (0, 1), BuildingBlock: XIVTED_clean_linker_0, # of connection points: 2
#     Edge 35, Type (0, 1), BuildingBlock: XIVTED_clean_linker_0, # of connection points: 2
# Relax obj value: 0.166
# Max RMSD: 0.291
# Mean RMSD: 0.144
data_MOF--net-pyr--node1-OLANEW_clean_sbu_2--node2-BETFEN_clean_sbu_0--edge1-XIVTED_clean_linker_0
_symmetry_space_group_name_H-M    P1
_symmetry_Int_Tables_number       1
_symmetry_cell_setting            triclinic
loop_
_symmetry_equiv_pos_as_xyz
'x, y, z'
_cell_length_a     39.920725
_cell_length_b     44.331704
_cell_length_c     40.414219
_cell_angle_alpha  94.079162
_cell_angle_beta   100.54817
_cell_angle_gamma 113.34415
loop_
_atom_site_label
_atom_site_type_symbol
_atom_site_fract_x
_atom_site_fract_y
_atom_site_fract_z
_atom_type_partial_charge
O0 O 0.46838 0.35163 0.21784 0.0
Cd1 Cd 0.47321 0.40847 0.22143 0.0
O2 O 0.41983 0.33673 0.24091 0.0
Cd3 Cd 0.37812 0.30345 0.26509 0.0
O4 O 0.34058 0.27816 0.29692 0.0
C5 C 0.32666 0.24672 0.29506 0.0
O6 O 0.33478 0.22889 0.27309 0.0
C7 C 0.44319 0.32929 0.22862 0.0
C8 C 0.40465 0.41203 0.1996 0.0
O9 O 0.41623 0.4098 0.23069 0.0
O10 O 0.42531 0.41216 0.17873 0.0
O11 O 0.27519 0.82081 0.78638 0.0
Cd12 Cd 0.23631 0.79765 0.72883 0.0
O13 O 0.23304 0.8282 0.81011 0.0
Cd14 Cd 0.19271 0.81774 0.76173 0.0
O15 O 0.16039 0.83579 0.72529 0.0
C16 C 0.17458 0.86718 0.72646 0.0
O17 O 0.20684 0.88517 0.74797 0.0
C18 C 0.26573 0.82932 0.81265 0.0
C19 C 0.27292 0.76742 0.6954 0.0
O20 O 0.27923 0.79798 0.69435 0.0
O21 O 0.24832 0.75083 0.71127 0.0
O22 O 0.70146 0.38783 0.86136 0.0
Cd23 Cd 0.6366 0.36828 0.82841 0.0
O24 O 0.69542 0.34828 0.8936 0.0
Cd25 Cd 0.63878 0.30818 0.87968 0.0
O26 O 0.60955 0.26041 0.8967 0.0
C27 C 0.59129 0.25932 0.91963 0.0
O28 O 0.58793 0.28634 0.93075 0.0
C29 C 0.7153 0.37571 0.88502 0.0
C30 C 0.62759 0.40905 0.78041 0.0
O31 O 0.63043 0.41753 0.81212 0.0
O32 O 0.62935 0.38154 0.77125 0.0
O33 O 0.91507 0.73621 0.33737 0.0
Cd34 Cd 0.88722 0.67635 0.31357 0.0
O35 O 0.86906 0.73188 0.36274 0.0
Cd36 Cd 0.83416 0.67856 0.35674 0.0
O37 O 0.79184 0.64985 0.38369 0.0
C38 C 0.78696 0.66771 0.40681 0.0
O39 O 0.80699 0.70006 0.41197 0.0
C40 C 0.8995 0.7496 0.35478 0.0
C41 C 0.9189 0.65586 0.26433 0.0
O42 O 0.89257 0.66537 0.2556 0.0
O43 O 0.93102 0.65696 0.29625 0.0
O44 O 0.67209 0.65255 0.68561 0.0
Cd45 Cd 0.63662 0.60807 0.71441 0.0
O46 O 0.6716 0.68746 0.72627 0.0
Cd47 Cd 0.67999 0.73501 0.75388 0.0
O48 O 0.67631 0.77311 0.78833 0.0
C49 C 0.65548 0.78757 0.77786 0.0
O50 O 0.63738 0.78018 0.7457 0.0
C51 C 0.68177 0.68238 0.69914 0.0
C52 C 0.68543 0.5926 0.76145 0.0
O53 O 0.67419 0.57848 0.73027 0.0
O54 O 0.67336 0.61398 0.77055 0.0
O55 O 0.79762 0.2259 0.33173 0.0
Cd56 Cd 0.83892 0.24959 0.38818 0.0
O57 O 0.75924 0.24948 0.33755 0.0
Cd58 Cd 0.7867 0.28074 0.38714 0.0
O59 O 0.76704 0.31109 0.41623 0.0
C60 C 0.73713 0.29547 0.42596 0.0
O61 O 0.72248 0.26277 0.42093 0.0
C62 C 0.76827 0.23014 0.32011 0.0
C63 C 0.86998 0.20554 0.40845 0.0
O64 O 0.88732 0.22985 0.39376 0.0
O65 O 0.83835 0.20249 0.41418 0.0
O66 O 0.46475 0.77472 0.25462 0.0
Cd67 Cd 0.42502 0.72597 0.27772 0.0
O68 O 0.4464 0.80914 0.27996 0.0
Cd69 Cd 0.40186 0.76723 0.29273 0.0
O70 O 0.35055 0.72746 0.26149 0.0
C71 C 0.3491 0.72572 0.22966 0.0
O72 O 0.37772 0.7466 0.21935 0.0
C73 C 0.46645 0.80395 0.26113 0.0
C74 C 0.45294 0.69472 0.32681 0.0
O75 O 0.44854 0.68576 0.29485 0.0
O76 O 0.44637 0.7198 0.33577 0.0
O77 O 0.17005 0.42477 0.78217 0.0
Cd78 Cd 0.17555 0.39677 0.7297 0.0
O79 O 0.1509 0.37897 0.80516 0.0
Cd80 Cd 0.15177 0.3444 0.76379 0.0
O81 O 0.13684 0.29699 0.73092 0.0
C82 C 0.10232 0.27696 0.72278 0.0
O83 O 0.07811 0.28607 0.7336 0.0
C84 C 0.15899 0.40994 0.80662 0.0
C85 C 0.23713 0.42966 0.70132 0.0
O86 O 0.20824 0.43618 0.69557 0.0
O87 O 0.23756 0.40864 0.72143 0.0
Pr88 Pr 0.97317 0.99057 0.53694 0.0
Pr89 Pr 0.05135 0.03863 0.53408 0.0
C90 C 0.9087 0.93729 0.53465 0.0
C91 C 0.88913 0.91185 0.55447 0.0
C92 C 0.87844 0.92042 0.58376 0.0
C93 C 0.85688 0.89565 0.60024 0.0
C94 C 0.84556 0.8618 0.58781 0.0
C95 C 0.85718 0.85339 0.55904 0.0
C96 C 0.87858 0.87814 0.54249 0.0
C97 C 1.00187 0.0492 0.58386 0.0
C98 C 0.04694 0.98463 0.58433 0.0
C99 C 0.11607 0.0901 0.53314 0.0
C100 C 0.13481 0.10651 0.5073 0.0
C101 C 0.12058 0.09259 0.47272 0.0
C102 C 0.13945 0.10771 0.44835 0.0
C103 C 0.17275 0.13703 0.45825 0.0
C104 C 0.18653 0.15107 0.49297 0.0
C105 C 0.16768 0.13587 0.5173 0.0
C106 C 0.0209 0.98068 0.48562 0.0
C107 C 0.97772 0.04862 0.49178 0.0
O108 O 0.93673 0.93505 0.52385 0.0
O109 O 0.91392 0.96797 0.544 0.0
O110 O 0.02051 0.03319 0.57725 0.0
O111 O 0.96681 0.03357 0.56833 0.0
O112 O 0.06653 0.01578 0.58141 0.0
O113 O 0.01197 0.96813 0.56676 0.0
O114 O 0.08569 0.0937 0.53591 0.0
O115 O 0.11301 0.0598 0.53456 0.0
O116 O 1.00346 0.9974 0.49329 0.0
O117 O 0.05586 0.99484 0.50157 0.0
O118 O 0.95677 0.01742 0.49355 0.0
O119 O 0.01335 0.06325 0.50796 0.0
H120 H 0.88598 0.94619 0.59356 0.0
H121 H 0.84811 0.90304 0.62209 0.0
H122 H 0.84954 0.82763 0.54911 0.0
H123 H 0.88633 0.87087 0.51989 0.0
H124 H 0.09507 0.06991 0.46464 0.0
H125 H 0.12789 0.09655 0.42178 0.0
H126 H 0.21234 0.1734 0.50143 0.0
H127 H 0.17901 0.14682 0.54395 0.0
Pr128 Pr 0.4909 0.01774 0.09058 0.0
Pr129 Pr 0.55342 0.01179 0.05569 0.0
C130 C 0.44829 0.01869 0.1343 0.0
C131 C 0.44692 0.04787 0.15258 0.0
C132 C 0.47553 0.07942 0.15381 0.0
C133 C 0.47368 0.10787 0.16866 0.0
C134 C 0.44305 0.10547 0.18256 0.0
C135 C 0.41447 0.07373 0.18154 0.0
C136 C 0.41642 0.04509 0.16661 0.0
C137 C 0.5113 0.06766 0.04942 0.0
C138 C 0.58053 0.06891 0.12117 0.0
C139 C 0.59777 0.00823 0.01419 0.0
C140 C 0.60072 0.98434 0.98903 0.0
C141 C 0.59234 0.95134 0.99401 0.0
C142 C 0.59682 0.92953 0.97029 0.0
C143 C 0.60944 0.9403 0.94112 0.0
C144 C 0.61705 0.97318 0.93596 0.0
C145 C 0.6128 0.99501 0.95977 0.0
C146 C 0.53741 0.97474 0.1084 0.0
C147 C 0.46242 0.96262 0.02081 0.0
O148 O 0.47988 0.01553 0.14342 0.0
O149 O 0.4357 0.01372 0.10116 0.0
O150 O 0.52426 0.04628 0.0538 0.0
O151 O 0.48566 0.06316 0.06644 0.0
O152 O 0.58766 0.0624 0.09157 0.0
O153 O 0.54816 0.05134 0.12862 0.0
O154 O 0.57056 0.01751 1.00526 0.0
O155 O 0.60347 1.00388 0.04607 0.0
O156 O 0.51338 0.97753 0.08527 0.0
O157 O 0.57117 0.9906 0.10425 0.0
O158 O 0.45257 0.97383 0.0469 0.0
O159 O 0.49773 0.97343 0.01817 0.0
H160 H 0.49898 0.08213 0.14252 0.0
H161 H 0.49573 0.13186 0.16822 0.0
H162 H 0.39059 0.07105 0.19211 0.0
H163 H 0.39391 0.02092 0.16555 0.0
H164 H 0.5826 0.94249 0.01629 0.0
H165 H 0.59028 0.9042 0.97469 0.0
H166 H 0.62715 0.98228 0.9139 0.0
H167 H 0.61937 0.02039 0.95553 0.0
Pr168 Pr 0.52806 0.58373 0.58101 0.0
Pr169 Pr 0.50936 0.50985 0.54167 0.0
C170 C 0.5284 0.6419 0.60563 0.0
C171 C 0.50051 0.65421 0.61131 0.0
C172 C 0.51235 0.68671 0.62795 0.0
C173 C 0.48602 0.69854 0.63398 0.0
C174 C 0.44738 0.67796 0.62349 0.0
C175 C 0.43569 0.64534 0.60668 0.0
C176 C 0.46208 0.63358 0.60059 0.0
C177 C 0.55828 0.54532 0.61644 0.0
C178 C 0.44647 0.51876 0.57999 0.0
C179 C 0.51313 0.45105 0.52995 0.0
C180 C 0.53283 0.43599 0.5118 0.0
C181 C 0.5168 0.40155 0.5011 0.0
C182 C 0.53762 0.38621 0.48872 0.0
C183 C 0.57502 0.40509 0.48718 0.0
C184 C 0.59029 0.4399 0.49641 0.0
C185 C 0.56933 0.4552 0.50846 0.0
C186 C 0.48879 0.54785 0.49589 0.0
C187 C 0.58688 0.57573 0.53715 0.0
O188 O 0.52816 0.63383 0.57377 0.0
O189 O 0.53267 0.62067 0.62504 0.0
O190 O 0.52595 0.53493 0.59732 0.0
O191 O 0.57627 0.57747 0.61906 0.0
O192 O 0.45791 0.49763 0.56621 0.0
O193 O 0.46568 0.55155 0.58428 0.0
O194 O 0.53445 0.4742 0.55605 0.0
O195 O 0.48676 0.45762 0.51175 0.0
O196 O 0.50253 0.55589 0.52744 0.0
O197 O 0.48391 0.5174 0.48649 0.0
O198 O 0.57457 0.59651 0.55018 0.0
O199 O 0.57007 0.54306 0.53586 0.0
H200 H 0.54197 0.70287 0.63648 0.0
H201 H 0.49594 0.72361 0.6474 0.0
H202 H 0.40617 0.629 0.59797 0.0
H203 H 0.45251 0.60843 0.58755 0.0
H204 H 0.48865 0.38635 0.50344 0.0
H205 H 0.52465 0.35946 0.4811 0.0
H206 H 0.61903 0.45526 0.4959 0.0
H207 H 0.58226 0.4819 0.51662 0.0
Pr208 Pr 0.03937 0.55968 0.01453 0.0
Pr209 Pr 0.0536 0.51404 0.06251 0.0
C210 C 0.01119 0.59268 0.97232 0.0
C211 C 0.97426 0.58892 0.95336 0.0
C212 C 0.97061 0.59666 0.92027 0.0
C213 C 0.93574 0.5924 0.90118 0.0
C214 C 0.90387 0.58046 0.91494 0.0
C215 C 0.90753 0.57268 0.94817 0.0
C216 C 0.94246 0.57665 0.96718 0.0
C217 C 0.11204 0.58641 0.05607 0.0
C218 C 0.0131 0.55912 0.08795 0.0
C219 C 0.08132 0.4807 0.10452 0.0
C220 C 0.11335 0.47158 0.11194 0.0
C221 C 0.12216 0.45448 0.08664 0.0
C222 C 0.15257 0.44596 0.09473 0.0
C223 C 0.17484 0.45451 0.12819 0.0
C224 C 0.16605 0.47191 0.15327 0.0
C225 C 0.1356 0.48023 0.14523 0.0
C226 C 0.97966 0.48947 0.02472 0.0
C227 C 0.07805 0.51335 0.98831 0.0
O228 O 0.0227 0.57078 0.96179 0.0
O229 O 0.01885 0.59992 1.00553 0.0
O230 O 0.08235 0.57034 0.06509 0.0
O231 O 0.10479 0.59155 0.02492 0.0
O232 O 0.03593 0.54523 0.09872 0.0
O233 O 1.00469 0.56194 0.05543 0.0
O234 O 0.08888 0.51221 0.11225 0.0
O235 O 0.05599 0.46617 0.07605 0.0
O236 O 0.00824 0.5035 0.01298 0.0
O237 O 0.98876 0.48574 0.05618 0.0
O238 O 0.05527 0.52735 0.97796 0.0
O239 O 0.08649 0.5101 0.02064 0.0
H240 H 0.99479 0.60593 0.90913 0.0
H241 H 0.93382 0.59892 0.87579 0.0
H242 H 0.88333 0.56315 0.95924 0.0
H243 H 0.94456 0.57 0.99252 0.0
H244 H 0.10555 0.4476 0.06067 0.0
H245 H 0.15832 0.43229 0.07487 0.0
H246 H 0.18296 0.47948 0.17912 0.0
H247 H 0.12946 0.49358 0.1651 0.0
H248 H 0.30613 0.27666 0.34435 0.0
H249 H 0.18651 0.10621 0.40444 0.0
H250 H 0.29182 0.18015 0.29818 0.0
H251 H 0.20638 0.20331 0.45378 0.0
H252 H 0.22225 0.13251 0.36339 0.0
H253 H 0.26721 0.24989 0.38295 0.0
C254 C 0.29474 0.24981 0.34226 0.0
C255 C 0.30235 0.23062 0.31802 0.0
C256 C 0.21874 0.14807 0.38316 0.0
C257 C 0.2577 0.19979 0.36224 0.0
C258 C 0.19813 0.13305 0.40647 0.0
C259 C 0.1935 0.1526 0.43262 0.0
C260 C 0.23478 0.18289 0.38595 0.0
C261 C 0.20966 0.18731 0.43432 0.0
C262 C 0.27252 0.23454 0.36435 0.0
C263 C 0.28676 0.19594 0.31651 0.0
N264 N 0.22959 0.20133 0.41132 0.0
N265 N 0.26522 0.18163 0.33836 0.0
H266 H 0.3391 0.83812 0.82656 0.0
H267 H 0.38635 0.93658 0.01472 0.0
H268 H 0.25632 0.85164 0.87385 0.0
H269 H 0.47036 0.93186 0.96326 0.0
H270 H 0.33758 0.89921 0.96632 0.0
H271 H 0.38645 0.8659 0.87941 0.0
C272 C 0.33075 0.84663 0.84814 0.0
C273 C 0.29369 0.84282 0.84561 0.0
C274 C 0.36668 0.90617 0.96572 0.0
C275 C 0.34793 0.87483 0.9062 0.0
C276 C 0.39462 0.92751 0.9934 0.0
C277 C 0.43262 0.9377 0.99298 0.0
C278 C 0.37674 0.89488 0.93737 0.0
C279 C 0.44148 0.92493 0.96465 0.0
C280 C 0.35787 0.86257 0.87831 0.0
C281 C 0.28457 0.85423 0.87452 0.0
N282 N 0.41376 0.90437 0.9379 0.0
N283 N 0.31156 0.86993 0.90352 0.0
H284 H 0.64917 0.47651 0.78997 0.0
H285 H 0.52075 0.47901 0.61831 0.0
H286 H 0.59097 0.38883 0.71327 0.0
H287 H 0.62415 0.5643 0.66396 0.0
H288 H 0.54063 0.44562 0.65642 0.0
H289 H 0.63518 0.50989 0.74806 0.0
C290 C 0.63352 0.46432 0.7643 0.0
C291 C 0.62113 0.42985 0.75505 0.0
C292 C 0.55906 0.47158 0.65789 0.0
C293 C 0.60449 0.46768 0.70739 0.0
C294 C 0.54783 0.49064 0.63612 0.0
C295 C 0.57094 0.52449 0.63796 0.0
C296 C 0.59319 0.48669 0.6823 0.0
C297 C 0.60542 0.53837 0.66192 0.0
C298 C 0.62573 0.48338 0.74042 0.0
C299 C 0.60114 0.41534 0.7214 0.0
N300 N 0.61533 0.51951 0.68348 0.0
N301 N 0.59295 0.43423 0.69891 0.0
H302 H 0.97204 0.63085 0.27482 0.0
H303 H 0.96334 0.5881 0.07622 0.0
H304 H 0.89963 0.65059 0.19455 0.0
H305 H 0.02792 0.5614 0.15721 0.0
H306 H 0.94064 0.61227 0.11877 0.0
H307 H 0.99432 0.60712 0.23183 0.0
C308 C 0.96092 0.63035 0.24815 0.0
C309 C 0.93388 0.64278 0.23836 0.0
C310 C 0.95971 0.60104 0.1272 0.0
C311 C 0.95926 0.61538 0.18877 0.0
C312 C 0.97267 0.58719 0.10289 0.0
C313 C 0.99764 0.57265 0.11307 0.0
C314 C 0.97189 0.6005 0.16198 0.0
C315 C 0.00871 0.57227 0.14805 0.0
C316 C 0.9736 0.61667 0.22356 0.0
C317 C 0.92049 0.64133 0.20333 0.0
N318 N 0.99586 0.58603 0.17116 0.0
N319 N 0.93328 0.62788 0.17983 0.0
H320 H 0.50265 0.31308 0.23696 0.0
H321 H 0.38095 0.11932 0.17502 0.0
H322 H 0.38188 0.26907 0.21679 0.0
H323 H 0.49955 0.16223 0.22119 0.0
H324 H 0.37961 0.17298 0.19147 0.0
H325 H 0.50151 0.25749 0.23151 0.0
C326 C 0.47588 0.29164 0.23169 0.0
C327 C 0.44234 0.29564 0.22763 0.0
C328 C 0.40581 0.1705 0.19832 0.0
C329 C 0.4407 0.23183 0.22096 0.0
C330 C 0.40657 0.13981 0.18911 0.0
C331 C 0.44054 0.13633 0.19629 0.0
C332 C 0.43929 0.19793 0.21457 0.0
C333 C 0.4729 0.16391 0.21435 0.0
C334 C 0.47522 0.2599 0.22872 0.0
C335 C 0.40841 0.26705 0.22081 0.0
N336 N 0.47155 0.19358 0.22249 0.0
N337 N 0.40841 0.23628 0.21734 0.0
H338 H 0.10494 0.83862 0.6826 0.0
H339 H 0.1168 0.0117 0.62692 0.0
H340 H 0.19925 0.93327 0.72184 0.0
H341 H 0.01821 0.91907 0.59283 0.0
H342 H 0.14736 0.98294 0.66155 0.0
H343 H 0.07281 0.86711 0.64875 0.0
C344 C 0.11893 0.86535 0.68404 0.0
C345 C 0.15486 0.88358 0.70509 0.0
C346 C 0.11899 0.96888 0.64661 0.0
C347 C 0.11826 0.9163 0.66654 0.0
C348 C 0.10147 0.98532 0.62682 0.0
C349 C 0.06486 0.96778 0.60691 0.0
C350 C 0.09989 0.93457 0.64643 0.0
C351 C 0.04644 0.93361 0.60784 0.0
C352 C 0.10053 0.8816 0.66479 0.0
C353 C 0.17159 0.91817 0.70601 0.0
N354 N 0.06422 0.91808 0.62718 0.0
N355 N 0.15317 0.93336 0.68702 0.0
H356 H 0.77139 0.43101 0.87104 0.0
H357 H 0.91747 0.44779 0.04317 0.0
H358 H 0.74945 0.36213 0.94314 0.0
H359 H 0.95327 0.49777 0.95983 0.0
H360 H 0.85344 0.42137 1.00869 0.0
H361 H 0.8363 0.46052 0.9048 0.0
C362 C 0.78015 0.42206 0.89384 0.0
C363 C 0.75487 0.39396 0.90417 0.0
C364 C 0.87523 0.43806 0.99784 0.0
C365 C 0.82869 0.42766 0.94287 0.0
C366 C 0.91181 0.4532 0.01755 0.0
C367 C 0.94074 0.47458 1.00412 0.0
C368 C 0.8673 0.44464 0.96451 0.0
C369 C 0.93175 0.48101 0.97091 0.0
C370 C 0.81717 0.43886 0.91301 0.0
C371 C 0.7678 0.38352 0.93397 0.0
N372 N 0.89571 0.4661 0.95216 0.0
N373 N 0.80363 0.40041 0.95222 0.0
H374 H 0.74158 0.60161 0.40518 0.0
H375 H 0.63378 0.64116 0.53938 0.0
H376 H 0.76865 0.70035 0.45545 0.0
H377 H 0.61403 0.54137 0.4984 0.0
H378 H 0.68389 0.66306 0.50922 0.0
H379 H 0.69494 0.57873 0.43912 0.0
C380 C 0.7378 0.61846 0.42336 0.0
C381 C 0.75902 0.65297 0.42736 0.0
C382 C 0.66876 0.63636 0.50697 0.0
C383 C 0.70572 0.62699 0.46624 0.0
C384 C 0.6401 0.62381 0.52424 0.0
C385 C 0.61949 0.58933 0.5214 0.0
C386 C 0.67681 0.61433 0.48644 0.0
C387 C 0.62914 0.56812 0.50142 0.0
C388 C 0.71122 0.60539 0.44277 0.0
C389 C 0.75295 0.6736 0.45139 0.0
N390 N 0.6569 0.58096 0.48454 0.0
N391 N 0.72683 0.66032 0.46976 0.0
H392 H 0.35351 0.41037 0.23706 0.0
H393 H 0.22564 0.45553 0.09012 0.0
H394 H 0.37474 0.42155 0.13668 0.0
H395 H 0.19807 0.43314 0.18657 0.0
H396 H 0.27992 0.44259 0.10626 0.0
H397 H 0.29628 0.41847 0.21882 0.0
C398 C 0.34607 0.41439 0.21113 0.0
C399 C 0.36903 0.41538 0.18839 0.0
C400 C 0.26192 0.44041 0.12385 0.0
C401 C 0.30354 0.4248 0.16734 0.0
C402 C 0.23076 0.44762 0.11456 0.0
C403 C 0.20726 0.44561 0.13706 0.0
C404 C 0.26978 0.43122 0.15593 0.0
C405 C 0.21573 0.43567 0.16862 0.0
C406 C 0.31335 0.419 0.20071 0.0
C407 C 0.35791 0.42063 0.15508 0.0
N408 N 0.24632 0.42899 0.17714 0.0
N409 N 0.32605 0.4253 0.14561 0.0
H410 H 0.5439 0.24633 0.96286 0.0
H411 H 0.56258 0.08004 1.00907 0.0
H412 H 0.60618 0.20379 0.91397 0.0
H413 H 0.48591 0.11559 0.04172 0.0
H414 H 0.58071 0.12538 0.97499 0.0
H415 H 0.52376 0.19872 0.99277 0.0
C416 C 0.5532 0.22687 0.95825 0.0
C417 C 0.57681 0.22915 0.93585 0.0
C418 C 0.55981 0.1231 0.98952 0.0
C419 C 0.55406 0.17441 0.97045 0.0
C420 C 0.54953 0.09731 1.00897 0.0
C421 C 0.52272 0.09412 0.02818 0.0
C422 C 0.5433 0.14588 0.98962 0.0
C423 C 0.50669 0.11713 0.02727 0.0
C424 C 0.54167 0.19962 0.97537 0.0
C425 C 0.58788 0.20304 0.93092 0.0
N426 N 0.5173 0.14202 1.00846 0.0
N427 N 0.57663 0.17686 0.94826 0.0
H428 H 0.86549 0.78765 0.37536 0.0
H429 H 0.05609 0.9442 0.46339 0.0
H430 H 0.97361 0.79394 0.36485 0.0
H431 H 0.94686 0.94442 0.45436 0.0
H432 H 0.027 0.88973 0.42688 0.0
H433 H 0.89504 0.84539 0.40334 0.0
C434 C 0.89549 0.80129 0.37867 0.0
C435 C 0.91714 0.78581 0.3679 0.0
C436 C 0.00942 0.90179 0.43263 0.0
C437 C 0.95135 0.85216 0.40045 0.0
C438 C 0.02599 0.93284 0.45353 0.0
C439 C 1.0038 0.94874 0.462 0.0
C440 C 0.97031 0.88635 0.42041 0.0
C441 C 0.96498 0.93297 0.44852 0.0
C442 C 0.91235 0.83435 0.39466 0.0
C443 C 0.95584 0.80488 0.3727 0.0
N444 N 0.94945 0.90254 0.42863 0.0
N445 N 0.9718 0.83697 0.38901 0.0
H446 H 0.26668 0.70348 0.69376 0.0
H447 H 0.44792 0.73937 0.61768 0.0
H448 H 0.32975 0.7971 0.66343 0.0
H449 H 0.38337 0.64489 0.64552 0.0
H450 H 0.40325 0.76014 0.63194 0.0
H451 H 0.30698 0.68054 0.67328 0.0
C452 C 0.2888 0.71914 0.68254 0.0
C453 C 0.29494 0.75232 0.68045 0.0
C454 C 0.39872 0.73481 0.63478 0.0
C455 C 0.34137 0.72628 0.65717 0.0
C456 C 0.42436 0.723 0.62683 0.0
C457 C 0.41951 0.69039 0.63058 0.0
C458 C 0.36801 0.71393 0.64671 0.0
C459 C 0.38806 0.6701 0.64197 0.0
C460 C 0.31185 0.70604 0.6709 0.0
C461 C 0.32403 0.77142 0.66564 0.0
N462 N 0.36364 0.68226 0.6498 0.0
N463 N 0.34628 0.75818 0.65476 0.0
H464 H 0.73337 0.74496 0.73027 0.0
H465 H 0.78691 0.80268 0.55662 0.0
H466 H 0.68301 0.68236 0.63198 0.0
H467 H 0.84719 0.86069 0.65609 0.0
H468 H 0.74632 0.75966 0.58357 0.0
H469 H 0.77215 0.78936 0.70325 0.0
C470 C 0.72984 0.7408 0.70292 0.0
C471 C 0.70433 0.71016 0.68325 0.0
C472 C 0.76844 0.78178 0.59953 0.0
C473 C 0.7495 0.76049 0.65227 0.0
C474 C 0.79186 0.80631 0.58416 0.0
C475 C 0.82076 0.83537 0.60408 0.0
C476 C 0.77372 0.78629 0.63515 0.0
C477 C 0.8251 0.83891 0.63964 0.0
C478 C 0.7524 0.76601 0.68755 0.0
C479 C 0.70221 0.70567 0.64808 0.0
N480 N 0.80186 0.81467 0.65402 0.0
N481 N 0.72444 0.73056 0.63372 0.0
H482 H 0.69825 0.22565 0.29335 0.0
H483 H 0.65657 0.09626 0.12715 0.0
H484 H 0.7798 0.19029 0.27213 0.0
H485 H 0.57077 0.10303 0.1746 0.0
H486 H 0.70445 0.13913 0.17308 0.0
H487 H 0.6538 0.18953 0.24211 0.0
C488 C 0.70701 0.21056 0.27776 0.0
C489 C 0.74274 0.21077 0.28728 0.0
C490 C 0.6751 0.13127 0.17321 0.0
C491 C 0.69182 0.16938 0.2285 0.0
C492 C 0.64782 0.10698 0.14703 0.0
C493 C 0.60971 0.09597 0.14727 0.0
C494 C 0.66402 0.14495 0.19932 0.0
C495 C 0.59985 0.11057 0.17363 0.0
C496 C 0.68151 0.18985 0.24857 0.0
C497 C 0.75244 0.1907 0.26591 0.0
N498 N 0.62685 0.13435 0.19857 0.0
N499 N 0.72702 0.17067 0.23749 0.0
H500 H 0.46231 0.63724 0.3151 0.0
H501 H 0.49286 0.61083 0.51093 0.0
H502 H 0.46419 0.70669 0.39663 0.0
H503 H 0.47326 0.53616 0.42658 0.0
H504 H 0.48689 0.64824 0.47051 0.0
H505 H 0.47178 0.60225 0.35656 0.0
C506 C 0.46508 0.64534 0.34177 0.0
C507 C 0.46239 0.67501 0.3523 0.0
C508 C 0.48388 0.62366 0.46085 0.0
C509 C 0.47298 0.63472 0.40011 0.0
C510 C 0.48736 0.60237 0.48395 0.0
C511 C 0.48366 0.57043 0.47212 0.0
C512 C 0.47688 0.61296 0.42566 0.0
C513 C 0.47621 0.56056 0.43682 0.0
C514 C 0.47029 0.62521 0.36546 0.0
C515 C 0.46608 0.68405 0.38729 0.0
N516 N 0.4732 0.58173 0.4149 0.0
N517 N 0.47109 0.66397 0.4099 0.0
H518 H 0.14984 0.39059 0.86852 0.0
H519 H 0.0805 0.52788 0.92384 0.0
H520 H 0.15314 0.46979 0.81117 0.0
H521 H 0.11176 0.46995 0.99468 0.0
H522 H 0.10433 0.50522 0.88135 0.0
H523 H 0.13374 0.41766 0.91417 0.0
C524 C 0.14748 0.41382 0.8656 0.0
C525 C 0.15281 0.42787 0.83583 0.0
C526 C 0.1062 0.49761 0.90625 0.0
C527 C 0.13381 0.45879 0.88797 0.0
C528 C 0.09245 0.51044 0.93053 0.0
C529 C 0.09396 0.50073 0.96291 0.0
C530 C 0.12113 0.47445 0.91408 0.0
C531 C 0.11001 0.47818 0.97008 0.0
C532 C 0.13832 0.42928 0.89174 0.0
C533 C 0.14942 0.45807 0.83363 0.0
N534 N 0.12263 0.46556 0.94577 0.0
N535 N 0.13974 0.47229 0.85914 0.0
H536 H 0.683 0.80348 0.84702 0.0
H537 H 0.59006 0.9313 0.87134 0.0
H538 H 0.61548 0.82492 0.76379 0.0
H539 H 0.64295 0.89797 0.95493 0.0
H540 H 0.60208 0.89489 0.83129 0.0
H541 H 0.67181 0.84067 0.8867 0.0
C542 C 0.66593 0.8161 0.83705 0.0
C543 C 0.65011 0.81103 0.802 0.0
C544 C 0.61097 0.89548 0.85839 0.0
C545 C 0.63713 0.85362 0.84737 0.0
C546 C 0.60426 0.91635 0.88125 0.0
C547 C 0.6155 0.91763 0.91651 0.0
C548 C 0.62929 0.87591 0.87087 0.0
C549 C 0.63342 0.89746 0.92795 0.0
C550 C 0.65946 0.83726 0.85976 0.0
C551 C 0.62819 0.82803 0.79059 0.0
N552 N 0.63988 0.87752 0.9052 0.0
N553 N 0.62236 0.84858 0.81322 0.0
H554 H 0.94012 0.20964 0.40778 0.0
H555 H 0.90301 0.03424 0.47039 0.0
H556 H 0.83564 0.14643 0.43076 0.0
H557 H 0.01341 0.10925 0.47323 0.0
H558 H 0.87591 0.07128 0.44731 0.0
H559 H 0.9656 0.16953 0.424 0.0
C560 C 0.92251 0.18731 0.41619 0.0
C561 C 0.88577 0.18148 0.41812 0.0
C562 C 0.90604 0.07949 0.45277 0.0
C563 C 0.91465 0.13536 0.43641 0.0
C564 C 0.92152 0.05828 0.4657 0.0
C565 C 0.96055 0.06874 0.47388 0.0
C566 C 0.92976 0.11123 0.44773 0.0
C567 C 0.98318 0.10024 0.46748 0.0
C568 C 0.93708 0.16444 0.42545 0.0
C569 C 0.86421 0.15206 0.42911 0.0
N570 N 0.96747 0.1204 0.45488 0.0
N571 N 0.87896 0.13008 0.43782 0.0
H572 H 0.28423 0.679 0.24127 0.0
H573 H 0.17875 0.62837 0.04362 0.0
H574 H 0.33692 0.71856 0.16024 0.0
H575 H 0.12842 0.58425 0.12404 0.0
H576 H 0.23796 0.65994 0.08572 0.0
H577 H 0.22767 0.64236 0.19853 0.0
C578 C 0.28398 0.67988 0.21451 0.0
C579 C 0.31529 0.70203 0.20435 0.0
C580 C 0.21402 0.6432 0.09413 0.0
C581 C 0.25063 0.66026 0.15528 0.0
C582 C 0.18027 0.62521 0.07011 0.0
C583 C 0.14868 0.60392 0.08045 0.0
C584 C 0.21605 0.6399 0.12873 0.0
C585 C 0.15212 0.60056 0.11504 0.0
C586 C 0.25169 0.65894 0.19011 0.0
C587 C 0.31341 0.702 0.16929 0.0
N588 N 0.18512 0.61852 0.13796 0.0
N589 N 0.28158 0.68161 0.14606 0.0
H590 H 0.25271 0.48384 0.66792 0.0
H591 H 0.41093 0.45532 0.59246 0.0
H592 H 0.29178 0.40887 0.69426 0.0
H593 H 0.40578 0.55095 0.60152 0.0
H594 H 0.35995 0.43435 0.62177 0.0
H595 H 0.30241 0.50581 0.6367 0.0
C596 C 0.27178 0.47207 0.66725 0.0
C597 C 0.26813 0.44451 0.68384 0.0
C598 C 0.36986 0.45988 0.6172 0.0
C599 C 0.32445 0.46912 0.64766 0.0
C600 C 0.39881 0.47185 0.60018 0.0
C601 C 0.41281 0.50503 0.59446 0.0
C602 C 0.35428 0.48101 0.6283 0.0
C603 C 0.39599 0.52524 0.60541 0.0
C604 C 0.30011 0.48464 0.64945 0.0
C605 C 0.29363 0.43025 0.68206 0.0
N606 N 0.36755 0.5129 0.62176 0.0
N607 N 0.32046 0.44253 0.66409 0.0
H608 H 0.71752 0.54995 0.74915 0.0
H609 H 0.85348 0.60095 0.93538 0.0
H610 H 0.71563 0.61883 0.82912 0.0
H611 H 0.87117 0.55209 0.84831 0.0
H612 H 0.79588 0.59932 0.89972 0.0
H613 H 0.76683 0.54219 0.78826 0.0
C614 C 0.7273 0.5633 0.775 0.0
C615 C 0.7128 0.58545 0.78575 0.0
C616 C 0.81224 0.58874 0.88851 0.0
C617 C 0.76919 0.5766 0.83064 0.0
C618 C 0.84495 0.58948 0.90887 0.0
C619 C 0.86723 0.57689 0.89465 0.0
C620 C 0.80166 0.57507 0.85379 0.0
C621 C 0.85506 0.56252 0.86013 0.0
C622 C 0.75548 0.55887 0.7973 0.0
C623 C 0.72626 0.60176 0.81966 0.0
N624 N 0.82318 0.56211 0.84085 0.0
N625 N 0.75388 0.59717 0.84085 0.0
H626 H 0.50163 0.87153 0.282 0.0
H627 H 0.47514 0.91639 0.09931 0.0
H628 H 0.47137 0.79583 0.19515 0.0
H629 H 0.57899 0.97806 0.17128 0.0
H630 H 0.46252 0.87462 0.13772 0.0
H631 H 0.52174 0.9144 0.24536 0.0
C632 C 0.49994 0.864 0.25543 0.0
C633 C 0.48529 0.83014 0.24164 0.0
C634 C 0.48799 0.89739 0.14503 0.0
C635 C 0.50637 0.87867 0.19965 0.0
C636 C 0.49505 0.92125 0.12335 0.0
C637 C 0.52818 0.95056 0.13223 0.0
C638 C 0.51364 0.90343 0.17619 0.0
C639 C 0.55321 0.95563 0.16357 0.0
C640 C 0.51122 0.88838 0.23462 0.0
C641 C 0.48308 0.82166 0.20691 0.0
N642 N 0.54525 0.93242 0.18471 0.0
N643 N 0.49276 0.84573 0.18693 0.0
H644 H 0.14442 0.24677 0.70016 0.0
H645 H 0.96331 0.08294 0.6036 0.0
H646 H 0.0302 0.23085 0.69861 0.0
H647 H 0.07587 0.09061 0.61294 0.0
H648 H 0.9884 0.13812 0.63731 0.0
H649 H 0.12108 0.19092 0.66702 0.0
C650 C 0.11449 0.23162 0.69282 0.0
C651 C 0.08925 0.2436 0.70221 0.0
C652 C 0.00776 0.12782 0.63219 0.0
C653 C 0.06243 0.17974 0.66437 0.0
C654 C 0.99339 0.09624 0.61293 0.0
C655 C 0.01753 0.08212 0.6056 0.0
C656 C 0.0467 0.14576 0.64417 0.0
C657 C 0.0563 0.10056 0.61823 0.0
C658 C 0.10121 0.19972 0.67399 0.0
C659 C 0.05078 0.22279 0.69205 0.0
N660 N 0.06974 0.13154 0.63685 0.0
N661 N 0.03863 0.19204 0.67372 0.0
H662 H 0.74984 0.36095 0.42543 0.0
H663 H 0.57512 0.34618 0.50381 0.0
H664 H 0.67649 0.27042 0.45426 0.0
H665 H 0.62977 0.4263 0.45059 0.0
H666 H 0.61579 0.32028 0.49079 0.0
H667 H 0.71086 0.38809 0.44087 0.0
C668 C 0.7258 0.34688 0.43536 0.0
C669 C 0.71633 0.31332 0.43846 0.0
C670 C 0.61881 0.34349 0.48189 0.0
C671 C 0.67158 0.34417 0.45596 0.0
C672 C 0.59533 0.3582 0.48904 0.0
C673 C 0.59875 0.38847 0.47813 0.0
C674 C 0.64626 0.35923 0.46397 0.0
C675 C 0.62631 0.4032 0.45989 0.0
C676 C 0.70343 0.36233 0.44393 0.0
C677 C 0.68476 0.29629 0.45132 0.0
N678 N 0.64904 0.38848 0.45346 0.0
N679 N 0.6635 0.31189 0.45955 0.0
loop_
_geom_bond_atom_site_label_1
_geom_bond_atom_site_label_2
_geom_bond_distance
_geom_bond_site_symmetry_2
_ccdc_geom_bond_type
O0 Cd1 2.300 . S
O0 C7 1.275 . S
Cd1 O0 2.300 . S
Cd1 O9 2.381 . S
Cd1 O10 2.378 . S
O2 Cd3 2.385 . S
O2 C7 1.255 . S
Cd3 O2 2.385 . S
Cd3 O4 2.317 . S
O4 Cd3 2.317 . S
O4 C5 1.232 . S
C5 O4 1.232 . S
C5 O6 1.218 . S
O6 C5 1.218 . S
C7 O0 1.275 . S
C7 O2 1.255 . S
C8 O9 1.258 . S
C8 O10 1.256 . S
O9 Cd1 2.381 . S
O9 C8 1.258 . S
O10 Cd1 2.378 . S
O10 C8 1.256 . S
O11 Cd12 2.300 . S
O11 C18 1.275 . S
Cd12 O11 2.300 . S
Cd12 O20 2.381 . S
Cd12 O21 2.378 . S
O13 Cd14 2.385 . S
O13 C18 1.255 . S
Cd14 O13 2.385 . S
Cd14 O15 2.317 . S
O15 Cd14 2.317 . S
O15 C16 1.232 . S
C16 O15 1.232 . S
C16 O17 1.218 . S
O17 C16 1.218 . S
C18 O11 1.275 . S
C18 O13 1.255 . S
C19 O20 1.258 . S
C19 O21 1.256 . S
O20 Cd12 2.381 . S
O20 C19 1.258 . S
O21 Cd12 2.378 . S
O21 C19 1.256 . S
O22 Cd23 2.300 . S
O22 C29 1.275 . S
Cd23 O22 2.300 . S
Cd23 O31 2.381 . S
Cd23 O32 2.378 . S
O24 Cd25 2.385 . S
O24 C29 1.255 . S
Cd25 O24 2.385 . S
Cd25 O26 2.317 . S
O26 Cd25 2.317 . S
O26 C27 1.232 . S
C27 O26 1.232 . S
C27 O28 1.218 . S
O28 C27 1.218 . S
C29 O22 1.275 . S
C29 O24 1.255 . S
C30 O31 1.258 . S
C30 O32 1.256 . S
O31 Cd23 2.381 . S
O31 C30 1.258 . S
O32 Cd23 2.378 . S
O32 C30 1.256 . S
O33 Cd34 2.300 . S
O33 C40 1.275 . S
Cd34 O33 2.300 . S
Cd34 O42 2.381 . S
Cd34 O43 2.378 . S
O35 Cd36 2.385 . S
O35 C40 1.255 . S
Cd36 O35 2.385 . S
Cd36 O37 2.317 . S
O37 Cd36 2.317 . S
O37 C38 1.232 . S
C38 O37 1.232 . S
C38 O39 1.218 . S
O39 C38 1.218 . S
C40 O33 1.275 . S
C40 O35 1.255 . S
C41 O42 1.258 . S
C41 O43 1.256 . S
O42 Cd34 2.381 . S
O42 C41 1.258 . S
O43 Cd34 2.378 . S
O43 C41 1.256 . S
O44 Cd45 2.300 . S
O44 C51 1.275 . S
Cd45 O44 2.300 . S
Cd45 O53 2.381 . S
Cd45 O54 2.378 . S
O46 Cd47 2.385 . S
O46 C51 1.255 . S
Cd47 O46 2.385 . S
Cd47 O48 2.317 . S
O48 Cd47 2.317 . S
O48 C49 1.232 . S
C49 O48 1.232 . S
C49 O50 1.218 . S
O50 C49 1.218 . S
C51 O44 1.275 . S
C51 O46 1.255 . S
C52 O53 1.258 . S
C52 O54 1.256 . S
O53 Cd45 2.381 . S
O53 C52 1.258 . S
O54 Cd45 2.378 . S
O54 C52 1.256 . S
O55 Cd56 2.300 . S
O55 C62 1.275 . S
Cd56 O55 2.300 . S
Cd56 O64 2.381 . S
Cd56 O65 2.378 . S
O57 Cd58 2.385 . S
O57 C62 1.255 . S
Cd58 O57 2.385 . S
Cd58 O59 2.317 . S
O59 Cd58 2.317 . S
O59 C60 1.232 . S
C60 O59 1.232 . S
C60 O61 1.218 . S
O61 C60 1.218 . S
C62 O55 1.275 . S
C62 O57 1.255 . S
C63 O64 1.258 . S
C63 O65 1.256 . S
O64 Cd56 2.381 . S
O64 C63 1.258 . S
O65 Cd56 2.378 . S
O65 C63 1.256 . S
O66 Cd67 2.300 . S
O66 C73 1.275 . S
Cd67 O66 2.300 . S
Cd67 O75 2.381 . S
Cd67 O76 2.378 . S
O68 Cd69 2.385 . S
O68 C73 1.255 . S
Cd69 O68 2.385 . S
Cd69 O70 2.317 . S
O70 Cd69 2.317 . S
O70 C71 1.232 . S
C71 O70 1.232 . S
C71 O72 1.218 . S
O72 C71 1.218 . S
C73 O66 1.275 . S
C73 O68 1.255 . S
C74 O75 1.258 . S
C74 O76 1.256 . S
O75 Cd67 2.381 . S
O75 C74 1.258 . S
O76 Cd67 2.378 . S
O76 C74 1.256 . S
O77 Cd78 2.300 . S
O77 C84 1.275 . S
Cd78 O77 2.300 . S
Cd78 O86 2.381 . S
Cd78 O87 2.378 . S
O79 Cd80 2.385 . S
O79 C84 1.255 . S
Cd80 O79 2.385 . S
Cd80 O81 2.317 . S
O81 Cd80 2.317 . S
O81 C82 1.232 . S
C82 O81 1.232 . S
C82 O83 1.218 . S
O83 C82 1.218 . S
C84 O77 1.275 . S
C84 O79 1.255 . S
C85 O86 1.258 . S
C85 O87 1.256 . S
O86 Cd78 2.381 . S
O86 C85 1.258 . S
O87 Cd78 2.378 . S
O87 C85 1.256 . S
Pr88 C90 2.880 . S
Pr88 O108 2.562 . S
Pr88 O109 2.490 . S
Pr88 O110 2.695 1_665 S
Pr88 O111 2.512 1_665 S
Pr88 O113 2.437 1_655 S
Pr88 O116 2.436 . S
Pr88 O118 2.438 1_565 S
Pr89 C99 2.880 . S
Pr89 O110 2.436 . S
Pr89 O112 2.438 1_545 S
Pr89 O114 2.562 . S
Pr89 O115 2.490 . S
Pr89 O116 2.695 1_445 S
Pr89 O117 2.512 1_545 S
Pr89 O119 2.437 1_455 S
C90 Pr88 2.880 . S
C90 C91 1.491 . S
C90 O108 1.254 . S
C90 O109 1.225 . S
C91 C90 1.491 . S
C91 C92 1.392 . S
C91 C96 1.356 . S
C92 C91 1.392 . S
C92 C93 1.368 . S
C92 H120 0.929 . S
C93 C92 1.368 . S
C93 C94 1.386 . S
C93 H121 0.929 . S
C94 C93 1.386 . S
C94 C95 1.373 . S
C95 C94 1.373 . S
C95 C96 1.409 . S
C95 H122 0.931 . S
C96 C91 1.356 . S
C96 C95 1.409 . S
C96 H123 0.930 . S
C97 O110 1.270 . S
C97 O111 1.248 . S
C98 O112 1.267 . S
C98 O113 1.278 . S
C99 Pr89 2.880 . S
C99 C100 1.491 . S
C99 O114 1.254 . S
C99 O115 1.225 . S
C100 C99 1.491 . S
C100 C101 1.392 . S
C100 C105 1.356 . S
C101 C100 1.392 . S
C101 C102 1.368 . S
C101 H124 0.929 . S
C102 C101 1.368 . S
C102 C103 1.386 . S
C102 H125 0.929 . S
C103 C102 1.386 . S
C103 C104 1.373 . S
C104 C103 1.373 . S
C104 C105 1.409 . S
C104 H126 0.931 . S
C105 C100 1.356 . S
C105 C104 1.409 . S
C105 H127 0.930 . S
C106 O116 1.270 . S
C106 O117 1.248 1_655 S
C107 O118 1.267 . S
C107 O119 1.278 . S
O108 Pr88 2.562 . S
O108 C90 1.254 . S
O109 Pr88 2.490 . S
O109 C90 1.225 . S
O110 Pr88 2.695 1_445 S
O110 Pr89 2.436 . S
O110 C97 1.270 . S
O111 Pr88 2.512 1_445 S
O111 C97 1.248 . S
O112 Pr89 2.438 1_565 S
O112 C98 1.267 . S
O113 Pr88 2.437 1_455 S
O113 C98 1.278 . S
O114 Pr89 2.562 . S
O114 C99 1.254 . S
O115 Pr89 2.490 . S
O115 C99 1.225 . S
O116 Pr88 2.436 . S
O116 Pr89 2.695 1_665 S
O116 C106 1.270 . S
O117 Pr89 2.512 1_565 S
O117 C106 1.248 1_455 S
O118 Pr88 2.438 1_545 S
O118 C107 1.267 . S
O119 Pr89 2.437 1_655 S
O119 C107 1.278 . S
H120 C92 0.929 . S
H121 C93 0.929 . S
H122 C95 0.931 . S
H123 C96 0.930 . S
H124 C101 0.929 . S
H125 C102 0.929 . S
H126 C104 0.931 . S
H127 C105 0.930 . S
Pr128 C130 2.880 . S
Pr128 O148 2.562 . S
Pr128 O149 2.490 . S
Pr128 O150 2.695 . S
Pr128 O151 2.512 . S
Pr128 O153 2.437 . S
Pr128 O156 2.436 . S
Pr128 O158 2.438 1_544 S
Pr129 C139 2.880 1_544 S
Pr129 O150 2.436 . S
Pr129 O152 2.438 . S
Pr129 O154 2.562 1_544 S
Pr129 O155 2.490 1_545 S
Pr129 O156 2.695 . S
Pr129 O157 2.512 1_545 S
Pr129 O159 2.437 1_545 S
C130 Pr128 2.880 . S
C130 C131 1.491 . S
C130 O148 1.254 . S
C130 O149 1.225 . S
C131 C130 1.491 . S
C131 C132 1.392 . S
C131 C136 1.356 . S
C132 C131 1.392 . S
C132 C133 1.368 . S
C132 H160 0.929 . S
C133 C132 1.368 . S
C133 C134 1.386 . S
C133 H161 0.929 . S
C134 C133 1.386 . S
C134 C135 1.373 . S
C135 C134 1.373 . S
C135 C136 1.409 . S
C135 H162 0.931 . S
C136 C131 1.356 . S
C136 C135 1.409 . S
C136 H163 0.930 . S
C137 O150 1.270 . S
C137 O151 1.248 . S
C138 O152 1.267 . S
C138 O153 1.278 . S
C139 Pr129 2.880 1_566 S
C139 C140 1.491 . S
C139 O154 1.254 . S
C139 O155 1.225 1_556 S
C140 C139 1.491 . S
C140 C141 1.392 . S
C140 C145 1.356 . S
C141 C140 1.392 . S
C141 C142 1.368 . S
C141 H164 0.929 . S
C142 C141 1.368 . S
C142 C143 1.386 . S
C142 H165 0.929 . S
C143 C142 1.386 . S
C143 C144 1.373 . S
C144 C143 1.373 . S
C144 C145 1.409 . S
C144 H166 0.931 . S
C145 C140 1.356 . S
C145 C144 1.409 . S
C145 H167 0.930 . S
C146 O156 1.270 1_565 S
C146 O157 1.248 . S
C147 O158 1.267 . S
C147 O159 1.278 1_556 S
O148 Pr128 2.562 . S
O148 C130 1.254 . S
O149 Pr128 2.490 . S
O149 C130 1.225 . S
O150 Pr128 2.695 . S
O150 Pr129 2.436 . S
O150 C137 1.270 . S
O151 Pr128 2.512 . S
O151 C137 1.248 . S
O152 Pr129 2.438 . S
O152 C138 1.267 . S
O153 Pr128 2.437 . S
O153 C138 1.278 . S
O154 Pr129 2.562 1_566 S
O154 C139 1.254 . S
O155 Pr129 2.490 1_565 S
O155 C139 1.225 1_554 S
O156 Pr128 2.436 . S
O156 Pr129 2.695 . S
O156 C146 1.270 1_545 S
O157 Pr129 2.512 1_565 S
O157 C146 1.248 . S
O158 Pr128 2.438 1_566 S
O158 C147 1.267 . S
O159 Pr129 2.437 1_565 S
O159 C147 1.278 1_554 S
H160 C132 0.929 . S
H161 C133 0.929 . S
H162 C135 0.931 . S
H163 C136 0.930 . S
H164 C141 0.929 . S
H165 C142 0.929 . S
H166 C144 0.931 . S
H167 C145 0.930 . S
Pr168 C170 2.880 . S
Pr168 O188 2.562 . S
Pr168 O189 2.490 . S
Pr168 O190 2.695 . S
Pr168 O191 2.512 . S
Pr168 O193 2.437 . S
Pr168 O196 2.436 . S
Pr168 O198 2.438 . S
Pr169 C179 2.880 . S
Pr169 O190 2.436 . S
Pr169 O192 2.438 . S
Pr169 O194 2.562 . S
Pr169 O195 2.490 . S
Pr169 O196 2.695 . S
Pr169 O197 2.512 . S
Pr169 O199 2.437 . S
C170 Pr168 2.880 . S
C170 C171 1.491 . S
C170 O188 1.254 . S
C170 O189 1.225 . S
C171 C170 1.491 . S
C171 C172 1.392 . S
C171 C176 1.356 . S
C172 C171 1.392 . S
C172 C173 1.368 . S
C172 H200 0.929 . S
C173 C172 1.368 . S
C173 C174 1.386 . S
C173 H201 0.929 . S
C174 C173 1.386 . S
C174 C175 1.373 . S
C175 C174 1.373 . S
C175 C176 1.409 . S
C175 H202 0.931 . S
C176 C171 1.356 . S
C176 C175 1.409 . S
C176 H203 0.930 . S
C177 O190 1.270 . S
C177 O191 1.248 . S
C178 O192 1.267 . S
C178 O193 1.278 . S
C179 Pr169 2.880 . S
C179 C180 1.491 . S
C179 O194 1.254 . S
C179 O195 1.225 . S
C180 C179 1.491 . S
C180 C181 1.392 . S
C180 C185 1.356 . S
C181 C180 1.392 . S
C181 C182 1.368 . S
C181 H204 0.929 . S
C182 C181 1.368 . S
C182 C183 1.386 . S
C182 H205 0.929 . S
C183 C182 1.386 . S
C183 C184 1.373 . S
C184 C183 1.373 . S
C184 C185 1.409 . S
C184 H206 0.931 . S
C185 C180 1.356 . S
C185 C184 1.409 . S
C185 H207 0.930 . S
C186 O196 1.270 . S
C186 O197 1.248 . S
C187 O198 1.267 . S
C187 O199 1.278 . S
O188 Pr168 2.562 . S
O188 C170 1.254 . S
O189 Pr168 2.490 . S
O189 C170 1.225 . S
O190 Pr168 2.695 . S
O190 Pr169 2.436 . S
O190 C177 1.270 . S
O191 Pr168 2.512 . S
O191 C177 1.248 . S
O192 Pr169 2.438 . S
O192 C178 1.267 . S
O193 Pr168 2.437 . S
O193 C178 1.278 . S
O194 Pr169 2.562 . S
O194 C179 1.254 . S
O195 Pr169 2.490 . S
O195 C179 1.225 . S
O196 Pr168 2.436 . S
O196 Pr169 2.695 . S
O196 C186 1.270 . S
O197 Pr169 2.512 . S
O197 C186 1.248 . S
O198 Pr168 2.438 . S
O198 C187 1.267 . S
O199 Pr169 2.437 . S
O199 C187 1.278 . S
H200 C172 0.929 . S
H201 C173 0.929 . S
H202 C175 0.931 . S
H203 C176 0.930 . S
H204 C181 0.929 . S
H205 C182 0.929 . S
H206 C184 0.931 . S
H207 C185 0.930 . S
Pr208 C210 2.880 1_455 S
Pr208 O228 2.562 1_455 S
Pr208 O229 2.490 . S
Pr208 O230 2.695 1_556 S
Pr208 O231 2.512 1_556 S
Pr208 O233 2.437 1_556 S
Pr208 O236 2.436 1_455 S
Pr208 O238 2.438 . S
Pr209 C219 2.880 . S
Pr209 O230 2.436 . S
Pr209 O232 2.438 1_455 S
Pr209 O234 2.562 . S
Pr209 O235 2.490 . S
Pr209 O236 2.695 1_454 S
Pr209 O237 2.512 1_454 S
Pr209 O239 2.437 1_554 S
C210 Pr208 2.880 1_655 S
C210 C211 1.491 . S
C210 O228 1.254 . S
C210 O229 1.225 1_655 S
C211 C210 1.491 . S
C211 C212 1.392 . S
C211 C216 1.356 . S
C212 C211 1.392 . S
C212 C213 1.368 . S
C212 H240 0.929 1_655 S
C213 C212 1.368 . S
C213 C214 1.386 . S
C213 H241 0.929 . S
C214 C213 1.386 . S
C214 C215 1.373 . S
C215 C214 1.373 . S
C215 C216 1.409 . S
C215 H242 0.931 . S
C216 C211 1.356 . S
C216 C215 1.409 . S
C216 H243 0.930 . S
C217 O230 1.270 . S
C217 O231 1.248 . S
C218 O232 1.267 . S
C218 O233 1.278 1_655 S
C219 Pr209 2.880 . S
C219 C220 1.491 . S
C219 O234 1.254 . S
C219 O235 1.225 . S
C220 C219 1.491 . S
C220 C221 1.392 . S
C220 C225 1.356 . S
C221 C220 1.392 . S
C221 C222 1.368 . S
C221 H244 0.929 . S
C222 C221 1.368 . S
C222 C223 1.386 . S
C222 H245 0.929 . S
C223 C222 1.386 . S
C223 C224 1.373 . S
C224 C223 1.373 . S
C224 C225 1.409 . S
C224 H246 0.931 . S
C225 C220 1.356 . S
C225 C224 1.409 . S
C225 H247 0.930 . S
C226 O236 1.270 . S
C226 O237 1.248 . S
C227 O238 1.267 . S
C227 O239 1.278 . S
O228 Pr208 2.562 1_655 S
O228 C210 1.254 . S
O229 Pr208 2.490 . S
O229 C210 1.225 1_455 S
O230 Pr208 2.695 1_554 S
O230 Pr209 2.436 . S
O230 C217 1.270 . S
O231 Pr208 2.512 1_554 S
O231 C217 1.248 . S
O232 Pr209 2.438 1_655 S
O232 C218 1.267 . S
O233 Pr208 2.437 1_554 S
O233 C218 1.278 1_455 S
O234 Pr209 2.562 . S
O234 C219 1.254 . S
O235 Pr209 2.490 . S
O235 C219 1.225 . S
O236 Pr208 2.436 1_655 S
O236 Pr209 2.695 1_656 S
O236 C226 1.270 . S
O237 Pr209 2.512 1_656 S
O237 C226 1.248 . S
O238 Pr208 2.438 . S
O238 C227 1.267 . S
O239 Pr209 2.437 1_556 S
O239 C227 1.278 . S
H240 C212 0.929 1_455 S
H241 C213 0.929 . S
H242 C215 0.931 . S
H243 C216 0.930 . S
H244 C221 0.929 . S
H245 C222 0.929 . S
H246 C224 0.931 . S
H247 C225 0.930 . S
H248 C254 0.930 . S
H249 C258 0.930 . S
H250 C263 0.929 . S
H251 C261 0.929 . S
H252 C256 0.929 . S
H253 C262 0.929 . S
C254 H248 0.930 . S
C254 C255 1.367 . S
C254 C262 1.378 . S
C255 C254 1.367 . S
C255 C263 1.433 . S
C256 H252 0.929 . S
C256 C258 1.378 . S
C256 C260 1.350 . S
C257 C260 1.463 . S
C257 C262 1.350 . S
C257 N265 1.427 . S
C258 H249 0.930 . S
C258 C256 1.378 . S
C258 C259 1.367 . S
C259 C258 1.367 . S
C259 C261 1.433 . S
C260 C256 1.350 . S
C260 C257 1.463 . S
C260 N264 1.427 . S
C261 H251 0.929 . S
C261 C259 1.433 . S
C261 N264 1.384 . S
C262 H253 0.929 . S
C262 C254 1.378 . S
C262 C257 1.350 . S
C263 H250 0.929 . S
C263 C255 1.433 . S
C263 N265 1.384 . S
N264 C260 1.427 . S
N264 C261 1.384 . S
N265 C257 1.427 . S
N265 C263 1.384 . S
H266 C272 0.930 . S
H267 C276 0.930 . S
H268 C281 0.929 . S
H269 C279 0.929 . S
H270 C274 0.929 . S
H271 C280 0.929 . S
C272 H266 0.930 . S
C272 C273 1.367 . S
C272 C280 1.378 . S
C273 C272 1.367 . S
C273 C281 1.433 . S
C274 H270 0.929 . S
C274 C276 1.378 . S
C274 C278 1.350 . S
C275 C278 1.463 . S
C275 C280 1.350 . S
C275 N283 1.427 . S
C276 H267 0.930 . S
C276 C274 1.378 . S
C276 C277 1.367 . S
C277 C276 1.367 . S
C277 C279 1.433 . S
C278 C274 1.350 . S
C278 C275 1.463 . S
C278 N282 1.427 . S
C279 H269 0.929 . S
C279 C277 1.433 . S
C279 N282 1.384 . S
C280 H271 0.929 . S
C280 C272 1.378 . S
C280 C275 1.350 . S
C281 H268 0.929 . S
C281 C273 1.433 . S
C281 N283 1.384 . S
N282 C278 1.427 . S
N282 C279 1.384 . S
N283 C275 1.427 . S
N283 C281 1.384 . S
H284 C290 0.930 . S
H285 C294 0.930 . S
H286 C299 0.929 . S
H287 C297 0.929 . S
H288 C292 0.929 . S
H289 C298 0.929 . S
C290 H284 0.930 . S
C290 C291 1.367 . S
C290 C298 1.378 . S
C291 C290 1.367 . S
C291 C299 1.433 . S
C292 H288 0.929 . S
C292 C294 1.378 . S
C292 C296 1.350 . S
C293 C296 1.463 . S
C293 C298 1.350 . S
C293 N301 1.427 . S
C294 H285 0.930 . S
C294 C292 1.378 . S
C294 C295 1.367 . S
C295 C294 1.367 . S
C295 C297 1.433 . S
C296 C292 1.350 . S
C296 C293 1.463 . S
C296 N300 1.427 . S
C297 H287 0.929 . S
C297 C295 1.433 . S
C297 N300 1.384 . S
C298 H289 0.929 . S
C298 C290 1.378 . S
C298 C293 1.350 . S
C299 H286 0.929 . S
C299 C291 1.433 . S
C299 N301 1.384 . S
N300 C296 1.427 . S
N300 C297 1.384 . S
N301 C293 1.427 . S
N301 C299 1.384 . S
H302 C308 0.930 . S
H303 C312 0.930 . S
H304 C317 0.929 . S
H305 C315 0.929 1_455 S
H306 C310 0.929 . S
H307 C316 0.929 . S
C308 H302 0.930 . S
C308 C309 1.367 . S
C308 C316 1.378 . S
C309 C308 1.367 . S
C309 C317 1.433 . S
C310 H306 0.929 . S
C310 C312 1.378 . S
C310 C314 1.350 . S
C311 C314 1.463 . S
C311 C316 1.350 . S
C311 N319 1.427 . S
C312 H303 0.930 . S
C312 C310 1.378 . S
C312 C313 1.367 . S
C313 C312 1.367 . S
C313 C315 1.433 . S
C314 C310 1.350 . S
C314 C311 1.463 . S
C314 N318 1.427 . S
C315 H305 0.929 1_655 S
C315 C313 1.433 . S
C315 N318 1.384 . S
C316 H307 0.929 . S
C316 C308 1.378 . S
C316 C311 1.350 . S
C317 H304 0.929 . S
C317 C309 1.433 . S
C317 N319 1.384 . S
N318 C314 1.427 . S
N318 C315 1.384 . S
N319 C311 1.427 . S
N319 C317 1.384 . S
H320 C326 0.930 . S
H321 C330 0.930 . S
H322 C335 0.929 . S
H323 C333 0.929 . S
H324 C328 0.929 . S
H325 C334 0.929 . S
C326 H320 0.930 . S
C326 C327 1.367 . S
C326 C334 1.378 . S
C327 C326 1.367 . S
C327 C335 1.433 . S
C328 H324 0.929 . S
C328 C330 1.378 . S
C328 C332 1.350 . S
C329 C332 1.463 . S
C329 C334 1.350 . S
C329 N337 1.427 . S
C330 H321 0.930 . S
C330 C328 1.378 . S
C330 C331 1.367 . S
C331 C330 1.367 . S
C331 C333 1.433 . S
C332 C328 1.350 . S
C332 C329 1.463 . S
C332 N336 1.427 . S
C333 H323 0.929 . S
C333 C331 1.433 . S
C333 N336 1.384 . S
C334 H325 0.929 . S
C334 C326 1.378 . S
C334 C329 1.350 . S
C335 H322 0.929 . S
C335 C327 1.433 . S
C335 N337 1.384 . S
N336 C332 1.427 . S
N336 C333 1.384 . S
N337 C329 1.427 . S
N337 C335 1.384 . S
H338 C344 0.930 . S
H339 C348 0.930 . S
H340 C353 0.929 . S
H341 C351 0.929 . S
H342 C346 0.929 . S
H343 C352 0.929 . S
C344 H338 0.930 . S
C344 C345 1.367 . S
C344 C352 1.378 . S
C345 C344 1.367 . S
C345 C353 1.433 . S
C346 H342 0.929 . S
C346 C348 1.378 . S
C346 C350 1.350 . S
C347 C350 1.463 . S
C347 C352 1.350 . S
C347 N355 1.427 . S
C348 H339 0.930 . S
C348 C346 1.378 . S
C348 C349 1.367 . S
C349 C348 1.367 . S
C349 C351 1.433 . S
C350 C346 1.350 . S
C350 C347 1.463 . S
C350 N354 1.427 . S
C351 H341 0.929 . S
C351 C349 1.433 . S
C351 N354 1.384 . S
C352 H343 0.929 . S
C352 C344 1.378 . S
C352 C347 1.350 . S
C353 H340 0.929 . S
C353 C345 1.433 . S
C353 N355 1.384 . S
N354 C350 1.427 . S
N354 C351 1.384 . S
N355 C347 1.427 . S
N355 C353 1.384 . S
H356 C362 0.930 . S
H357 C366 0.930 . S
H358 C371 0.929 . S
H359 C369 0.929 . S
H360 C364 0.929 . S
H361 C370 0.929 . S
C362 H356 0.930 . S
C362 C363 1.367 . S
C362 C370 1.378 . S
C363 C362 1.367 . S
C363 C371 1.433 . S
C364 H360 0.929 . S
C364 C366 1.378 . S
C364 C368 1.350 . S
C365 C368 1.463 . S
C365 C370 1.350 . S
C365 N373 1.427 . S
C366 H357 0.930 . S
C366 C364 1.378 . S
C366 C367 1.367 . S
C367 C366 1.367 . S
C367 C369 1.433 . S
C368 C364 1.350 . S
C368 C365 1.463 . S
C368 N372 1.427 . S
C369 H359 0.929 . S
C369 C367 1.433 . S
C369 N372 1.384 . S
C370 H361 0.929 . S
C370 C362 1.378 . S
C370 C365 1.350 . S
C371 H358 0.929 . S
C371 C363 1.433 . S
C371 N373 1.384 . S
N372 C368 1.427 . S
N372 C369 1.384 . S
N373 C365 1.427 . S
N373 C371 1.384 . S
H374 C380 0.930 . S
H375 C384 0.930 . S
H376 C389 0.929 . S
H377 C387 0.929 . S
H378 C382 0.929 . S
H379 C388 0.929 . S
C380 H374 0.930 . S
C380 C381 1.367 . S
C380 C388 1.378 . S
C381 C380 1.367 . S
C381 C389 1.433 . S
C382 H378 0.929 . S
C382 C384 1.378 . S
C382 C386 1.350 . S
C383 C386 1.463 . S
C383 C388 1.350 . S
C383 N391 1.427 . S
C384 H375 0.930 . S
C384 C382 1.378 . S
C384 C385 1.367 . S
C385 C384 1.367 . S
C385 C387 1.433 . S
C386 C382 1.350 . S
C386 C383 1.463 . S
C386 N390 1.427 . S
C387 H377 0.929 . S
C387 C385 1.433 . S
C387 N390 1.384 . S
C388 H379 0.929 . S
C388 C380 1.378 . S
C388 C383 1.350 . S
C389 H376 0.929 . S
C389 C381 1.433 . S
C389 N391 1.384 . S
N390 C386 1.427 . S
N390 C387 1.384 . S
N391 C383 1.427 . S
N391 C389 1.384 . S
H392 C398 0.930 . S
H393 C402 0.930 . S
H394 C407 0.929 . S
H395 C405 0.929 . S
H396 C400 0.929 . S
H397 C406 0.929 . S
C398 H392 0.930 . S
C398 C399 1.367 . S
C398 C406 1.378 . S
C399 C398 1.367 . S
C399 C407 1.433 . S
C400 H396 0.929 . S
C400 C402 1.378 . S
C400 C404 1.350 . S
C401 C404 1.463 . S
C401 C406 1.350 . S
C401 N409 1.427 . S
C402 H393 0.930 . S
C402 C400 1.378 . S
C402 C403 1.367 . S
C403 C402 1.367 . S
C403 C405 1.433 . S
C404 C400 1.350 . S
C404 C401 1.463 . S
C404 N408 1.427 . S
C405 H395 0.929 . S
C405 C403 1.433 . S
C405 N408 1.384 . S
C406 H397 0.929 . S
C406 C398 1.378 . S
C406 C401 1.350 . S
C407 H394 0.929 . S
C407 C399 1.433 . S
C407 N409 1.384 . S
N408 C404 1.427 . S
N408 C405 1.384 . S
N409 C401 1.427 . S
N409 C407 1.384 . S
H410 C416 0.930 . S
H411 C420 0.930 . S
H412 C425 0.929 . S
H413 C423 0.929 1_554 S
H414 C418 0.929 . S
H415 C424 0.929 . S
C416 H410 0.930 . S
C416 C417 1.367 . S
C416 C424 1.378 . S
C417 C416 1.367 . S
C417 C425 1.433 . S
C418 H414 0.929 . S
C418 C420 1.378 . S
C418 C422 1.350 . S
C419 C422 1.463 . S
C419 C424 1.350 . S
C419 N427 1.427 . S
C420 H411 0.930 . S
C420 C418 1.378 . S
C420 C421 1.367 . S
C421 C420 1.367 . S
C421 C423 1.433 . S
C422 C418 1.350 . S
C422 C419 1.463 . S
C422 N426 1.427 . S
C423 H413 0.929 1_556 S
C423 C421 1.433 . S
C423 N426 1.384 . S
C424 H415 0.929 . S
C424 C416 1.378 . S
C424 C419 1.350 . S
C425 H412 0.929 . S
C425 C417 1.433 . S
C425 N427 1.384 . S
N426 C422 1.427 . S
N426 C423 1.384 . S
N427 C419 1.427 . S
N427 C425 1.384 . S
H428 C434 0.930 . S
H429 C438 0.930 . S
H430 C443 0.929 . S
H431 C441 0.929 . S
H432 C436 0.929 . S
H433 C442 0.929 . S
C434 H428 0.930 . S
C434 C435 1.367 . S
C434 C442 1.378 . S
C435 C434 1.367 . S
C435 C443 1.433 . S
C436 H432 0.929 . S
C436 C438 1.378 . S
C436 C440 1.350 . S
C437 C440 1.463 . S
C437 C442 1.350 . S
C437 N445 1.427 . S
C438 H429 0.930 . S
C438 C436 1.378 . S
C438 C439 1.367 . S
C439 C438 1.367 . S
C439 C441 1.433 . S
C440 C436 1.350 . S
C440 C437 1.463 . S
C440 N444 1.427 . S
C441 H431 0.929 . S
C441 C439 1.433 . S
C441 N444 1.384 . S
C442 H433 0.929 . S
C442 C434 1.378 . S
C442 C437 1.350 . S
C443 H430 0.929 . S
C443 C435 1.433 . S
C443 N445 1.384 . S
N444 C440 1.427 . S
N444 C441 1.384 . S
N445 C437 1.427 . S
N445 C443 1.384 . S
H446 C452 0.930 . S
H447 C456 0.930 . S
H448 C461 0.929 . S
H449 C459 0.929 . S
H450 C454 0.929 . S
H451 C460 0.929 . S
C452 H446 0.930 . S
C452 C453 1.367 . S
C452 C460 1.378 . S
C453 C452 1.367 . S
C453 C461 1.433 . S
C454 H450 0.929 . S
C454 C456 1.378 . S
C454 C458 1.350 . S
C455 C458 1.463 . S
C455 C460 1.350 . S
C455 N463 1.427 . S
C456 H447 0.930 . S
C456 C454 1.378 . S
C456 C457 1.367 . S
C457 C456 1.367 . S
C457 C459 1.433 . S
C458 C454 1.350 . S
C458 C455 1.463 . S
C458 N462 1.427 . S
C459 H449 0.929 . S
C459 C457 1.433 . S
C459 N462 1.384 . S
C460 H451 0.929 . S
C460 C452 1.378 . S
C460 C455 1.350 . S
C461 H448 0.929 . S
C461 C453 1.433 . S
C461 N463 1.384 . S
N462 C458 1.427 . S
N462 C459 1.384 . S
N463 C455 1.427 . S
N463 C461 1.384 . S
H464 C470 0.930 . S
H465 C474 0.930 . S
H466 C479 0.929 . S
H467 C477 0.929 . S
H468 C472 0.929 . S
H469 C478 0.929 . S
C470 H464 0.930 . S
C470 C471 1.367 . S
C470 C478 1.378 . S
C471 C470 1.367 . S
C471 C479 1.433 . S
C472 H468 0.929 . S
C472 C474 1.378 . S
C472 C476 1.350 . S
C473 C476 1.463 . S
C473 C478 1.350 . S
C473 N481 1.427 . S
C474 H465 0.930 . S
C474 C472 1.378 . S
C474 C475 1.367 . S
C475 C474 1.367 . S
C475 C477 1.433 . S
C476 C472 1.350 . S
C476 C473 1.463 . S
C476 N480 1.427 . S
C477 H467 0.929 . S
C477 C475 1.433 . S
C477 N480 1.384 . S
C478 H469 0.929 . S
C478 C470 1.378 . S
C478 C473 1.350 . S
C479 H466 0.929 . S
C479 C471 1.433 . S
C479 N481 1.384 . S
N480 C476 1.427 . S
N480 C477 1.384 . S
N481 C473 1.427 . S
N481 C479 1.384 . S
H482 C488 0.930 . S
H483 C492 0.930 . S
H484 C497 0.929 . S
H485 C495 0.929 . S
H486 C490 0.929 . S
H487 C496 0.929 . S
C488 H482 0.930 . S
C488 C489 1.367 . S
C488 C496 1.378 . S
C489 C488 1.367 . S
C489 C497 1.433 . S
C490 H486 0.929 . S
C490 C492 1.378 . S
C490 C494 1.350 . S
C491 C494 1.463 . S
C491 C496 1.350 . S
C491 N499 1.427 . S
C492 H483 0.930 . S
C492 C490 1.378 . S
C492 C493 1.367 . S
C493 C492 1.367 . S
C493 C495 1.433 . S
C494 C490 1.350 . S
C494 C491 1.463 . S
C494 N498 1.427 . S
C495 H485 0.929 . S
C495 C493 1.433 . S
C495 N498 1.384 . S
C496 H487 0.929 . S
C496 C488 1.378 . S
C496 C491 1.350 . S
C497 H484 0.929 . S
C497 C489 1.433 . S
C497 N499 1.384 . S
N498 C494 1.427 . S
N498 C495 1.384 . S
N499 C491 1.427 . S
N499 C497 1.384 . S
H500 C506 0.930 . S
H501 C510 0.930 . S
H502 C515 0.929 . S
H503 C513 0.929 . S
H504 C508 0.929 . S
H505 C514 0.929 . S
C506 H500 0.930 . S
C506 C507 1.367 . S
C506 C514 1.378 . S
C507 C506 1.367 . S
C507 C515 1.433 . S
C508 H504 0.929 . S
C508 C510 1.378 . S
C508 C512 1.350 . S
C509 C512 1.463 . S
C509 C514 1.350 . S
C509 N517 1.427 . S
C510 H501 0.930 . S
C510 C508 1.378 . S
C510 C511 1.367 . S
C511 C510 1.367 . S
C511 C513 1.433 . S
C512 C508 1.350 . S
C512 C509 1.463 . S
C512 N516 1.427 . S
C513 H503 0.929 . S
C513 C511 1.433 . S
C513 N516 1.384 . S
C514 H505 0.929 . S
C514 C506 1.378 . S
C514 C509 1.350 . S
C515 H502 0.929 . S
C515 C507 1.433 . S
C515 N517 1.384 . S
N516 C512 1.427 . S
N516 C513 1.384 . S
N517 C509 1.427 . S
N517 C515 1.384 . S
H518 C524 0.930 . S
H519 C528 0.930 . S
H520 C533 0.929 . S
H521 C531 0.929 . S
H522 C526 0.929 . S
H523 C532 0.929 . S
C524 H518 0.930 . S
C524 C525 1.367 . S
C524 C532 1.378 . S
C525 C524 1.367 . S
C525 C533 1.433 . S
C526 H522 0.929 . S
C526 C528 1.378 . S
C526 C530 1.350 . S
C527 C530 1.463 . S
C527 C532 1.350 . S
C527 N535 1.427 . S
C528 H519 0.930 . S
C528 C526 1.378 . S
C528 C529 1.367 . S
C529 C528 1.367 . S
C529 C531 1.433 . S
C530 C526 1.350 . S
C530 C527 1.463 . S
C530 N534 1.427 . S
C531 H521 0.929 . S
C531 C529 1.433 . S
C531 N534 1.384 . S
C532 H523 0.929 . S
C532 C524 1.378 . S
C532 C527 1.350 . S
C533 H520 0.929 . S
C533 C525 1.433 . S
C533 N535 1.384 . S
N534 C530 1.427 . S
N534 C531 1.384 . S
N535 C527 1.427 . S
N535 C533 1.384 . S
H536 C542 0.930 . S
H537 C546 0.930 . S
H538 C551 0.929 . S
H539 C549 0.929 . S
H540 C544 0.929 . S
H541 C550 0.929 . S
C542 H536 0.930 . S
C542 C543 1.367 . S
C542 C550 1.378 . S
C543 C542 1.367 . S
C543 C551 1.433 . S
C544 H540 0.929 . S
C544 C546 1.378 . S
C544 C548 1.350 . S
C545 C548 1.463 . S
C545 C550 1.350 . S
C545 N553 1.427 . S
C546 H537 0.930 . S
C546 C544 1.378 . S
C546 C547 1.367 . S
C547 C546 1.367 . S
C547 C549 1.433 . S
C548 C544 1.350 . S
C548 C545 1.463 . S
C548 N552 1.427 . S
C549 H539 0.929 . S
C549 C547 1.433 . S
C549 N552 1.384 . S
C550 H541 0.929 . S
C550 C542 1.378 . S
C550 C545 1.350 . S
C551 H538 0.929 . S
C551 C543 1.433 . S
C551 N553 1.384 . S
N552 C548 1.427 . S
N552 C549 1.384 . S
N553 C545 1.427 . S
N553 C551 1.384 . S
H554 C560 0.930 . S
H555 C564 0.930 . S
H556 C569 0.929 . S
H557 C567 0.929 . S
H558 C562 0.929 . S
H559 C568 0.929 . S
C560 H554 0.930 . S
C560 C561 1.367 . S
C560 C568 1.378 . S
C561 C560 1.367 . S
C561 C569 1.433 . S
C562 H558 0.929 . S
C562 C564 1.378 . S
C562 C566 1.350 . S
C563 C566 1.463 . S
C563 C568 1.350 . S
C563 N571 1.427 . S
C564 H555 0.930 . S
C564 C562 1.378 . S
C564 C565 1.367 . S
C565 C564 1.367 . S
C565 C567 1.433 . S
C566 C562 1.350 . S
C566 C563 1.463 . S
C566 N570 1.427 . S
C567 H557 0.929 . S
C567 C565 1.433 . S
C567 N570 1.384 . S
C568 H559 0.929 . S
C568 C560 1.378 . S
C568 C563 1.350 . S
C569 H556 0.929 . S
C569 C561 1.433 . S
C569 N571 1.384 . S
N570 C566 1.427 . S
N570 C567 1.384 . S
N571 C563 1.427 . S
N571 C569 1.384 . S
H572 C578 0.930 . S
H573 C582 0.930 . S
H574 C587 0.929 . S
H575 C585 0.929 . S
H576 C580 0.929 . S
H577 C586 0.929 . S
C578 H572 0.930 . S
C578 C579 1.367 . S
C578 C586 1.378 . S
C579 C578 1.367 . S
C579 C587 1.433 . S
C580 H576 0.929 . S
C580 C582 1.378 . S
C580 C584 1.350 . S
C581 C584 1.463 . S
C581 C586 1.350 . S
C581 N589 1.427 . S
C582 H573 0.930 . S
C582 C580 1.378 . S
C582 C583 1.367 . S
C583 C582 1.367 . S
C583 C585 1.433 . S
C584 C580 1.350 . S
C584 C581 1.463 . S
C584 N588 1.427 . S
C585 H575 0.929 . S
C585 C583 1.433 . S
C585 N588 1.384 . S
C586 H577 0.929 . S
C586 C578 1.378 . S
C586 C581 1.350 . S
C587 H574 0.929 . S
C587 C579 1.433 . S
C587 N589 1.384 . S
N588 C584 1.427 . S
N588 C585 1.384 . S
N589 C581 1.427 . S
N589 C587 1.384 . S
H590 C596 0.930 . S
H591 C600 0.930 . S
H592 C605 0.929 . S
H593 C603 0.929 . S
H594 C598 0.929 . S
H595 C604 0.929 . S
C596 H590 0.930 . S
C596 C597 1.367 . S
C596 C604 1.378 . S
C597 C596 1.367 . S
C597 C605 1.433 . S
C598 H594 0.929 . S
C598 C600 1.378 . S
C598 C602 1.350 . S
C599 C602 1.463 . S
C599 C604 1.350 . S
C599 N607 1.427 . S
C600 H591 0.930 . S
C600 C598 1.378 . S
C600 C601 1.367 . S
C601 C600 1.367 . S
C601 C603 1.433 . S
C602 C598 1.350 . S
C602 C599 1.463 . S
C602 N606 1.427 . S
C603 H593 0.929 . S
C603 C601 1.433 . S
C603 N606 1.384 . S
C604 H595 0.929 . S
C604 C596 1.378 . S
C604 C599 1.350 . S
C605 H592 0.929 . S
C605 C597 1.433 . S
C605 N607 1.384 . S
N606 C602 1.427 . S
N606 C603 1.384 . S
N607 C599 1.427 . S
N607 C605 1.384 . S
H608 C614 0.930 . S
H609 C618 0.930 . S
H610 C623 0.929 . S
H611 C621 0.929 . S
H612 C616 0.929 . S
H613 C622 0.929 . S
C614 H608 0.930 . S
C614 C615 1.367 . S
C614 C622 1.378 . S
C615 C614 1.367 . S
C615 C623 1.433 . S
C616 H612 0.929 . S
C616 C618 1.378 . S
C616 C620 1.350 . S
C617 C620 1.463 . S
C617 C622 1.350 . S
C617 N625 1.427 . S
C618 H609 0.930 . S
C618 C616 1.378 . S
C618 C619 1.367 . S
C619 C618 1.367 . S
C619 C621 1.433 . S
C620 C616 1.350 . S
C620 C617 1.463 . S
C620 N624 1.427 . S
C621 H611 0.929 . S
C621 C619 1.433 . S
C621 N624 1.384 . S
C622 H613 0.929 . S
C622 C614 1.378 . S
C622 C617 1.350 . S
C623 H610 0.929 . S
C623 C615 1.433 . S
C623 N625 1.384 . S
N624 C620 1.427 . S
N624 C621 1.384 . S
N625 C617 1.427 . S
N625 C623 1.384 . S
H626 C632 0.930 . S
H627 C636 0.930 . S
H628 C641 0.929 . S
H629 C639 0.929 . S
H630 C634 0.929 . S
H631 C640 0.929 . S
C632 H626 0.930 . S
C632 C633 1.367 . S
C632 C640 1.378 . S
C633 C632 1.367 . S
C633 C641 1.433 . S
C634 H630 0.929 . S
C634 C636 1.378 . S
C634 C638 1.350 . S
C635 C638 1.463 . S
C635 C640 1.350 . S
C635 N643 1.427 . S
C636 H627 0.930 . S
C636 C634 1.378 . S
C636 C637 1.367 . S
C637 C636 1.367 . S
C637 C639 1.433 . S
C638 C634 1.350 . S
C638 C635 1.463 . S
C638 N642 1.427 . S
C639 H629 0.929 . S
C639 C637 1.433 . S
C639 N642 1.384 . S
C640 H631 0.929 . S
C640 C632 1.378 . S
C640 C635 1.350 . S
C641 H628 0.929 . S
C641 C633 1.433 . S
C641 N643 1.384 . S
N642 C638 1.427 . S
N642 C639 1.384 . S
N643 C635 1.427 . S
N643 C641 1.384 . S
H644 C650 0.930 . S
H645 C654 0.930 . S
H646 C659 0.929 . S
H647 C657 0.929 . S
H648 C652 0.929 . S
H649 C658 0.929 . S
C650 H644 0.930 . S
C650 C651 1.367 . S
C650 C658 1.378 . S
C651 C650 1.367 . S
C651 C659 1.433 . S
C652 H648 0.929 . S
C652 C654 1.378 . S
C652 C656 1.350 . S
C653 C656 1.463 . S
C653 C658 1.350 . S
C653 N661 1.427 . S
C654 H645 0.930 . S
C654 C652 1.378 . S
C654 C655 1.367 . S
C655 C654 1.367 . S
C655 C657 1.433 . S
C656 C652 1.350 . S
C656 C653 1.463 . S
C656 N660 1.427 . S
C657 H647 0.929 . S
C657 C655 1.433 . S
C657 N660 1.384 . S
C658 H649 0.929 . S
C658 C650 1.378 . S
C658 C653 1.350 . S
C659 H646 0.929 . S
C659 C651 1.433 . S
C659 N661 1.384 . S
N660 C656 1.427 . S
N660 C657 1.384 . S
N661 C653 1.427 . S
N661 C659 1.384 . S
H662 C668 0.930 . S
H663 C672 0.930 . S
H664 C677 0.929 . S
H665 C675 0.929 . S
H666 C670 0.929 . S
H667 C676 0.929 . S
C668 H662 0.930 . S
C668 C669 1.367 . S
C668 C676 1.378 . S
C669 C668 1.367 . S
C669 C677 1.433 . S
C670 H666 0.929 . S
C670 C672 1.378 . S
C670 C674 1.350 . S
C671 C674 1.463 . S
C671 C676 1.350 . S
C671 N679 1.427 . S
C672 H663 0.930 . S
C672 C670 1.378 . S
C672 C673 1.367 . S
C673 C672 1.367 . S
C673 C675 1.433 . S
C674 C670 1.350 . S
C674 C671 1.463 . S
C674 N678 1.427 . S
C675 H665 0.929 . S
C675 C673 1.433 . S
C675 N678 1.384 . S
C676 H667 0.929 . S
C676 C668 1.378 . S
C676 C671 1.350 . S
C677 H664 0.929 . S
C677 C669 1.433 . S
C677 N679 1.384 . S
N678 C674 1.427 . S
N678 C675 1.384 . S
N679 C671 1.427 . S
N679 C677 1.384 . S
C255 C5 0.879 . S
C259 C103 1.070 . S
C273 C18 1.503 . S
C277 C147 1.519 . S
C295 C177 2.080 . S
C291 C30 2.066 . S
C309 C41 2.434 . S
C313 C218 2.427 . S
C331 C134 0.975 . S
C327 C7 0.957 . S
C349 C98 2.589 . S
C345 C16 2.478 . S
C367 C226 1.192 . S
C363 C29 1.185 . S
C385 C187 1.802 . S
C381 C38 1.473 . S
C399 C8 1.083 . S
C403 C223 1.127 . S
C421 C137 2.197 1_556 S
C417 C27 2.070 . S
C435 C40 2.120 . S
C439 C106 2.102 . S
C453 C19 1.903 . S
C457 C174 1.872 . S
C475 C94 1.066 . S
C471 C51 0.944 . S
C489 C62 1.720 . S
C493 C138 1.691 . S
C507 C74 2.232 . S
C511 C186 2.260 . S
C525 C84 2.373 . S
C529 C227 2.394 . S
C543 C49 0.914 . S
C547 C143 1.143 . S
C565 C107 2.512 . S
C561 C63 2.499 . S
C583 C217 1.088 . S
C579 C71 1.015 . S
C601 C178 1.965 . S
C597 C85 2.037 . S
C615 C52 1.001 . S
C619 C214 1.060 . S
C637 C146 2.208 . S
C633 C73 2.308 . S
C655 C97 1.781 . S
C651 C82 1.709 . S
C669 C60 1.818 . S
C673 C183 1.945 . S
