# Generated by pormake.
# Topology soc, (4,6)-cn, num edge types: 1
# Building blocks:
#     Node 0, Type 0, BuildingBlock: ESEHIV_clean_sbu_0, # of connection points: 4
#     Node 1, Type 0, BuildingBlock: ESEHIV_clean_sbu_0, # of connection points: 4
#     Node 2, Type 0, BuildingBlock: ESEHIV_clean_sbu_0, # of connection points: 4
#     Node 3, Type 0, BuildingBlock: ESEHIV_clean_sbu_0, # of connection points: 4
#     Node 4, Type 0, BuildingBlock: ESEHIV_clean_sbu_0, # of connection points: 4
#     Node 5, Type 0, BuildingBlock: ESEHIV_clean_sbu_0, # of connection points: 4
#     Node 6, Type 0, BuildingBlock: ESEHIV_clean_sbu_0, # of connection points: 4
#     Node 7, Type 0, BuildingBlock: ESEHIV_clean_sbu_0, # of connection points: 4
#     Node 8, Type 0, BuildingBlock: ESEHIV_clean_sbu_0, # of connection points: 4
#     Node 9, Type 0, BuildingBlock: ESEHIV_clean_sbu_0, # of connection points: 4
#     Node 10, Type 0, BuildingBlock: ESEHIV_clean_sbu_0, # of connection points: 4
#     Node 11, Type 0, BuildingBlock: ESEHIV_clean_sbu_0, # of connection points: 4
#     Node 12, Type 1, BuildingBlock: INOVEN_clean_sbu_0, # of connection points: 6
#     Node 13, Type 1, BuildingBlock: INOVEN_clean_sbu_0, # of connection points: 6
#     Node 14, Type 1, BuildingBlock: INOVEN_clean_sbu_0, # of connection points: 6
#     Node 15, Type 1, BuildingBlock: INOVEN_clean_sbu_0, # of connection points: 6
#     Node 16, Type 1, BuildingBlock: INOVEN_clean_sbu_0, # of connection points: 6
#     Node 17, Type 1, BuildingBlock: INOVEN_clean_sbu_0, # of connection points: 6
#     Node 18, Type 1, BuildingBlock: INOVEN_clean_sbu_0, # of connection points: 6
#     Node 19, Type 1, BuildingBlock: INOVEN_clean_sbu_0, # of connection points: 6
#     Edge 20, Type (0, 1), BuildingBlock: AJUNOK_clean_linker_0, # of connection points: 2
#     Edge 21, Type (0, 1), BuildingBlock: AJUNOK_clean_linker_0, # of connection points: 2
#     Edge 22, Type (0, 1), BuildingBlock: AJUNOK_clean_linker_0, # of connection points: 2
#     Edge 23, Type (0, 1), BuildingBlock: AJUNOK_clean_linker_0, # of connection points: 2
#     Edge 24, Type (0, 1), BuildingBlock: AJUNOK_clean_linker_0, # of connection points: 2
#     Edge 25, Type (0, 1), BuildingBlock: AJUNOK_clean_linker_0, # of connection points: 2
#     Edge 26, Type (0, 1), BuildingBlock: AJUNOK_clean_linker_0, # of connection points: 2
#     Edge 27, Type (0, 1), BuildingBlock: AJUNOK_clean_linker_0, # of connection points: 2
#     Edge 28, Type (0, 1), BuildingBlock: AJUNOK_clean_linker_0, # of connection points: 2
#     Edge 29, Type (0, 1), BuildingBlock: AJUNOK_clean_linker_0, # of connection points: 2
#     Edge 30, Type (0, 1), BuildingBlock: AJUNOK_clean_linker_0, # of connection points: 2
#     Edge 31, Type (0, 1), BuildingBlock: AJUNOK_clean_linker_0, # of connection points: 2
#     Edge 32, Type (0, 1), BuildingBlock: AJUNOK_clean_linker_0, # of connection points: 2
#     Edge 33, Type (0, 1), BuildingBlock: AJUNOK_clean_linker_0, # of connection points: 2
#     Edge 34, Type (0, 1), BuildingBlock: AJUNOK_clean_linker_0, # of connection points: 2
#     Edge 35, Type (0, 1), BuildingBlock: AJUNOK_clean_linker_0, # of connection points: 2
#     Edge 36, Type (0, 1), BuildingBlock: AJUNOK_clean_linker_0, # of connection points: 2
#     Edge 37, Type (0, 1), BuildingBlock: AJUNOK_clean_linker_0, # of connection points: 2
#     Edge 38, Type (0, 1), BuildingBlock: AJUNOK_clean_linker_0, # of connection points: 2
#     Edge 39, Type (0, 1), BuildingBlock: AJUNOK_clean_linker_0, # of connection points: 2
#     Edge 40, Type (0, 1), BuildingBlock: AJUNOK_clean_linker_0, # of connection points: 2
#     Edge 41, Type (0, 1), BuildingBlock: AJUNOK_clean_linker_0, # of connection points: 2
#     Edge 42, Type (0, 1), BuildingBlock: AJUNOK_clean_linker_0, # of connection points: 2
#     Edge 43, Type (0, 1), BuildingBlock: AJUNOK_clean_linker_0, # of connection points: 2
#     Edge 44, Type (0, 1), BuildingBlock: AJUNOK_clean_linker_0, # of connection points: 2
#     Edge 45, Type (0, 1), BuildingBlock: AJUNOK_clean_linker_0, # of connection points: 2
#     Edge 46, Type (0, 1), BuildingBlock: AJUNOK_clean_linker_0, # of connection points: 2
#     Edge 47, Type (0, 1), BuildingBlock: AJUNOK_clean_linker_0, # of connection points: 2
#     Edge 48, Type (0, 1), BuildingBlock: AJUNOK_clean_linker_0, # of connection points: 2
#     Edge 49, Type (0, 1), BuildingBlock: AJUNOK_clean_linker_0, # of connection points: 2
#     Edge 50, Type (0, 1), BuildingBlock: AJUNOK_clean_linker_0, # of connection points: 2
#     Edge 51, Type (0, 1), BuildingBlock: AJUNOK_clean_linker_0, # of connection points: 2
#     Edge 52, Type (0, 1), BuildingBlock: AJUNOK_clean_linker_0, # of connection points: 2
#     Edge 53, Type (0, 1), BuildingBlock: AJUNOK_clean_linker_0, # of connection points: 2
#     Edge 54, Type (0, 1), BuildingBlock: AJUNOK_clean_linker_0, # of connection points: 2
#     Edge 55, Type (0, 1), BuildingBlock: AJUNOK_clean_linker_0, # of connection points: 2
#     Edge 56, Type (0, 1), BuildingBlock: AJUNOK_clean_linker_0, # of connection points: 2
#     Edge 57, Type (0, 1), BuildingBlock: AJUNOK_clean_linker_0, # of connection points: 2
#     Edge 58, Type (0, 1), BuildingBlock: AJUNOK_clean_linker_0, # of connection points: 2
#     Edge 59, Type (0, 1), BuildingBlock: AJUNOK_clean_linker_0, # of connection points: 2
#     Edge 60, Type (0, 1), BuildingBlock: AJUNOK_clean_linker_0, # of connection points: 2
#     Edge 61, Type (0, 1), BuildingBlock: AJUNOK_clean_linker_0, # of connection points: 2
#     Edge 62, Type (0, 1), BuildingBlock: AJUNOK_clean_linker_0, # of connection points: 2
#     Edge 63, Type (0, 1), BuildingBlock: AJUNOK_clean_linker_0, # of connection points: 2
#     Edge 64, Type (0, 1), BuildingBlock: AJUNOK_clean_linker_0, # of connection points: 2
#     Edge 65, Type (0, 1), BuildingBlock: AJUNOK_clean_linker_0, # of connection points: 2
#     Edge 66, Type (0, 1), BuildingBlock: AJUNOK_clean_linker_0, # of connection points: 2
#     Edge 67, Type (0, 1), BuildingBlock: AJUNOK_clean_linker_0, # of connection points: 2
# Relax obj value: 0.214
# Max RMSD: 0.365
# Mean RMSD: 0.194
data_MOF--net-soc--node1-ESEHIV_clean_sbu_0--node2-INOVEN_clean_sbu_0--edge1-AJUNOK_clean_linker_0
_symmetry_space_group_name_H-M    P1
_symmetry_Int_Tables_number       1
_symmetry_cell_setting            triclinic
loop_
_symmetry_equiv_pos_as_xyz
'x, y, z'
_cell_length_a     40.64984
_cell_length_b     38.738413
_cell_length_c     33.148137
_cell_angle_alpha  80.619001
_cell_angle_beta   80.888833
_cell_angle_gamma 65.327959
loop_
_atom_site_label
_atom_site_type_symbol
_atom_site_fract_x
_atom_site_fract_y
_atom_site_fract_z
_atom_type_partial_charge
Cu0 Cu 0.06016 0.0682 0.39289 0.0
N1 N 0.07691 0.0891 0.42719 0.0
N2 N 0.10652 0.12159 0.44252 0.0
C3 C 0.1057 0.09841 0.41681 0.0
C4 C 0.07753 0.12633 0.47066 0.0
C5 C 0.05902 0.1066 0.46081 0.0
O6 O 0.10373 0.03294 0.36129 0.0
C7 C 0.98861 0.12175 0.37391 0.0
O8 O 0.97836 0.09829 0.40053 0.0
H9 H 0.1244 0.09002 0.38959 0.0
H10 H 0.03284 0.10765 0.47504 0.0
N11 N 0.03747 0.03841 0.42311 0.0
N12 N 1.00972 0.99889 0.4326 0.0
C13 C 0.02593 0.01761 0.40503 0.0
C14 C 0.02848 0.03244 0.46376 0.0
C15 C 1.01083 1.00806 0.46971 0.0
C16 C 0.11814 0.99712 0.37403 0.0
O17 O 0.10306 0.98367 0.40711 0.0
H18 H 0.02874 0.01692 0.37209 0.0
H19 H 0.0341 0.04492 0.48729 0.0
O20 O 0.02273 0.11312 0.36379 0.0
H21 H 0.06877 0.14514 0.49464 0.0
H22 H 0.99966 0.99794 0.49872 0.0
Cu23 Cu 0.06075 0.06851 0.76001 0.0
N24 N 0.04112 0.04897 0.7272 0.0
N25 N 1.00481 0.02332 0.71273 0.0
C26 C 1.00951 0.04498 0.7376 0.0
C27 C 0.03455 0.01445 0.6849 0.0
C28 C 0.05676 0.03035 0.69384 0.0
O29 O 0.01883 0.10695 0.79029 0.0
C30 C 0.12621 1.00598 0.76626 0.0
O31 O 0.12779 0.01965 0.72745 0.0
H32 H 0.99107 0.0574 0.76351 0.0
H33 H 0.08313 0.02704 0.67812 0.0
N34 N 0.08655 0.09443 0.72823 0.0
N35 N 0.12226 0.1258 0.71727 0.0
C36 C 0.10855 0.10469 0.7448 0.0
C37 C 0.08639 0.10932 0.68852 0.0
C38 C 0.10831 0.12944 0.68178 0.0
C39 C 1.00577 0.14174 0.7738 0.0
O40 O 0.02166 0.15126 0.7389 0.0
H41 H 0.11338 0.09788 0.77692 0.0
H42 H 0.07039 0.10703 0.66675 0.0
O43 O 0.09791 0.02396 0.78993 0.0
H44 H 0.04097 0.99611 0.6609 0.0
H45 H 0.1133 0.14571 0.65349 0.0
Cu46 Cu 0.30648 0.09991 0.11531 0.0
N47 N 0.26249 0.10237 0.10176 0.0
N48 N 0.23585 0.07271 0.07471 0.0
C49 C 0.25698 0.07035 0.10329 0.0
C50 C 0.22487 0.1089 0.05667 0.0
C51 C 0.24128 0.12722 0.07346 0.0
O52 O 0.3303 0.04537 0.14203 0.0
C53 C 0.31384 0.15344 0.04803 0.0
O54 O 0.2878 0.17672 0.07178 0.0
H55 H 0.27312 0.04359 0.11974 0.0
H56 H 0.24155 0.15468 0.06138 0.0
N57 N 0.29646 0.13446 0.15391 0.0
N58 N 0.30131 0.17176 0.19542 0.0
C59 C 0.31864 0.14804 0.16598 0.0
C60 C 0.26421 0.15054 0.17617 0.0
C61 C 0.26721 0.17329 0.20202 0.0
C62 C 0.31459 0.03681 0.17677 0.0
O63 O 0.28713 0.06491 0.19347 0.0
H64 H 0.34686 0.14033 0.15399 0.0
H65 H 0.24027 0.14559 0.17408 0.0
O66 O 0.32898 0.11794 0.06198 0.0
H67 H 0.21072 0.11947 0.02925 0.0
H68 H 0.24606 0.18969 0.22405 0.0
Cu69 Cu 0.09822 0.32165 0.13965 0.0
N70 N 0.1158 0.3478 0.09336 0.0
N71 N 0.14999 0.35606 0.03518 0.0
C72 C 0.14782 0.33272 0.0696 0.0
C73 C 0.11846 0.38726 0.03726 0.0
C74 C 0.09745 0.38212 0.07305 0.0
O75 O 0.13047 0.31266 0.18564 0.0
C76 C 0.08679 0.28272 0.07753 0.0
O77 O 0.11045 0.29299 0.05302 0.0
H78 H 0.16782 0.30386 0.07547 0.0
H79 H 0.06993 0.4012 0.08247 0.0
N80 N 0.05099 0.35113 0.16378 0.0
N81 N 0.99531 0.36272 0.19856 0.0
C82 C 0.02378 0.33876 0.17532 0.0
C83 C 0.03963 0.38386 0.18079 0.0
C84 C 1.00572 0.39099 0.20214 0.0
C85 C 0.16498 0.30416 0.18215 0.0
O86 O 0.18413 0.29149 0.14788 0.0
H87 H 0.02565 0.31168 0.16837 0.0
H88 H 0.05584 0.40017 0.17994 0.0
O89 O 0.08446 0.28489 0.11636 0.0
H90 H 0.11049 0.4112 1.01362 0.0
H91 H 0.99128 0.41411 0.22104 0.0
Cu92 Cu 0.80924 0.02841 0.01762 0.0
N93 N 0.83462 0.04923 0.97592 0.0
N94 N 0.84288 0.09811 0.93631 0.0
C95 C 0.81947 0.0866 0.96209 0.0
C96 C 0.8741 0.06642 0.93306 0.0
C97 C 0.86893 0.03618 0.95767 0.0
O98 O 0.78857 0.06935 0.05368 0.0
C99 C 0.79992 0.98581 0.96712 0.0
O100 O 0.83539 0.97356 0.96614 0.0
H101 H 0.79228 0.10561 0.97289 0.0
H102 H 0.88907 1.00732 0.96301 0.0
N103 N 0.8356 0.98586 0.05258 0.0
N104 N 0.842 0.94612 0.11068 0.0
C105 C 0.81917 0.97665 0.08859 0.0
C106 C 0.87054 0.96055 0.05175 0.0
C107 C 0.87456 0.93589 0.08777 0.0
C108 C 0.81517 0.07335 0.06555 0.0
O109 O 0.84836 0.04881 0.05548 0.0
H110 H 0.7909 0.99285 0.09863 0.0
H111 H 0.8915 0.96011 0.02703 0.0
O112 O 0.77972 0.0122 0.98975 0.0
H113 H 0.89907 0.06533 0.91498 0.0
H114 H 0.89929 0.91196 0.09609 0.0
Cu115 Cu 0.03789 0.79955 0.01702 0.0
N116 N 1.01112 0.80651 0.97145 0.0
N117 N 0.97121 0.80927 0.92882 0.0
C118 C 0.97597 0.81323 0.96755 0.0
C119 C 1.00488 0.79879 0.90857 0.0
C120 C 0.02875 0.79743 0.93429 0.0
O121 O 1.01694 0.77591 0.06902 0.0
C122 C 0.10519 0.79838 0.96919 0.0
O123 O 0.08263 0.83328 0.95758 0.0
H124 H 0.95471 0.81948 0.99285 0.0
H125 H 0.0578 0.78774 0.92687 0.0
N126 N 0.03593 0.84395 0.03428 0.0
N127 N 0.05821 0.87366 0.06779 0.0
C128 C 0.06419 0.84129 0.05261 0.0
C129 C 1.01058 0.87967 0.0382 0.0
C130 C 0.02433 0.89812 0.05932 0.0
C131 C 0.98647 0.79684 0.08831 0.0
O132 O 0.96909 0.83203 0.07223 0.0
H133 H 0.08844 0.81523 0.05627 0.0
H134 H 0.98373 0.89102 0.0279 0.0
O135 O 0.09219 0.77678 0.99473 0.0
H136 H 1.01285 0.78972 0.8781 0.0
H137 H 1.01052 0.92687 0.06804 0.0
Cu138 Cu 0.56351 0.55948 0.9 0.0
N139 N 0.58267 0.579 0.93278 0.0
N140 N 0.61172 0.61248 0.9462 0.0
C141 C 0.60227 0.59936 0.91682 0.0
C142 C 0.59744 0.6002 0.98223 0.0
C143 C 0.5791 0.57962 0.97378 0.0
O144 O 0.60724 0.52676 0.86622 0.0
C145 C 0.49873 0.61059 0.85532 0.0
O146 O 0.50309 0.58317 0.83371 0.0
H147 H 0.60894 0.605 0.88416 0.0
H148 H 0.56329 0.56736 0.99584 0.0
N149 N 0.54254 0.52887 0.93209 0.0
N150 N 0.51308 0.49075 0.94341 0.0
C151 C 0.51892 0.51887 0.91827 0.0
C152 C 0.55156 0.50672 0.96781 0.0
C153 C 0.53293 0.48326 0.97513 0.0
C154 C 0.61843 0.4902 0.87 0.0
O155 O 0.59625 0.47456 0.88862 0.0
H156 H 0.50796 0.53026 0.88908 0.0
H157 H 0.5722 0.5055 0.98557 0.0
O158 O 0.52301 0.60575 0.87838 0.0
H159 H 0.59892 0.60695 1.01214 0.0
H160 H 0.5356 0.4608 1.00017 0.0
Cu161 Cu 0.56609 0.57185 0.25637 0.0
N162 N 0.54793 0.54945 0.22531 0.0
N163 N 0.51223 0.52218 0.21343 0.0
C164 C 0.51579 0.54668 0.23533 0.0
C165 C 0.54329 0.51006 0.18779 0.0
C166 C 0.56521 0.52695 0.19518 0.0
O167 O 0.52382 0.61249 0.28302 0.0
C168 C 0.63297 0.51113 0.26599 0.0
O169 O 0.63692 0.52359 0.22706 0.0
H170 H 0.49618 0.56188 0.25906 0.0
H171 H 0.59255 0.52148 0.18118 0.0
N172 N 0.59085 0.59804 0.2233 0.0
N173 N 0.62654 0.62947 0.21023 0.0
C174 C 0.61244 0.60951 0.23894 0.0
C175 C 0.59096 0.61135 0.18313 0.0
C176 C 0.61295 0.63137 0.175 0.0
C177 C 0.50459 0.637 0.25593 0.0
O178 O 0.51422 0.63025 0.21733 0.0
H179 H 0.61707 0.60393 0.2711 0.0
H180 H 0.5757 0.60738 0.16166 0.0
O181 O 0.60307 0.52882 0.28761 0.0
H182 H 0.55082 0.48866 0.16687 0.0
H183 H 0.61858 0.64605 0.1458 0.0
Cu184 Cu 0.79448 0.61745 0.61898 0.0
N185 N 0.8012 0.64381 0.56747 0.0
N186 N 0.81616 0.66413 0.50291 0.0
C187 C 0.82856 0.64015 0.53706 0.0
C188 C 0.78026 0.68351 0.5124 0.0
C189 C 0.77127 0.67107 0.55187 0.0
O190 O 0.78724 0.65204 0.66066 0.0
C191 C 0.76691 0.58433 0.5772 0.0
O192 O 0.80048 0.57624 0.56054 0.0
H193 H 0.85647 0.62002 0.53947 0.0
H194 H 0.74428 0.68055 0.56814 0.0
N195 N 0.83024 0.56941 0.63587 0.0
N196 N 0.84779 0.51085 0.67084 0.0
C197 C 0.82197 0.53883 0.64944 0.0
C198 C 0.86252 0.56052 0.64968 0.0
C199 C 0.8734 0.52441 0.67127 0.0
C200 C 0.80976 0.66805 0.65674 0.0
O201 O 0.83475 0.66143 0.62518 0.0
H202 H 0.79578 0.5386 0.64745 0.0
H203 H 0.87568 0.58005 0.64735 0.0
O204 O 0.75549 0.60353 0.60836 0.0
H205 H 0.76196 0.70578 0.49236 0.0
H206 H 0.89722 0.51019 0.68795 0.0
Cu207 Cu 0.59584 0.8287 0.62832 0.0
N208 N 0.63551 0.824 0.58384 0.0
N209 N 0.67593 0.82498 0.5268 0.0
C210 C 0.65944 0.80383 0.55297 0.0
C211 C 0.66109 0.85917 0.54165 0.0
C212 C 0.63739 0.85833 0.57544 0.0
O213 O 0.61085 0.85132 0.66827 0.0
C214 C 0.55963 0.82569 0.57412 0.0
O215 O 0.58808 0.79316 0.5789 0.0
H216 H 0.66388 0.77496 0.54907 0.0
H217 H 0.62073 0.88254 0.59225 0.0
N218 N 0.57007 0.8001 0.66406 0.0
N219 N 0.52024 0.79487 0.70394 0.0
C220 C 0.53271 0.81319 0.67035 0.0
C221 C 0.58122 0.77254 0.69555 0.0
C222 C 0.55109 0.76933 0.71968 0.0
C223 C 0.63984 0.82667 0.68367 0.0
O224 O 0.6533 0.79209 0.67217 0.0
H225 H 0.5147 0.83784 0.65242 0.0
H226 H 0.60917 0.75736 0.70234 0.0
O227 O 0.55695 0.85335 0.59291 0.0
H228 H 0.6659 0.88422 0.52809 0.0
H229 H 0.55191 0.75029 0.74766 0.0
Cu230 Cu 0.3152 0.52569 0.53072 0.0
N231 N 0.34094 0.54826 0.48815 0.0
N232 N 0.34467 0.59907 0.44491 0.0
C233 C 0.33651 0.58561 0.484 0.0
C234 C 0.35514 0.56874 0.42351 0.0
C235 C 0.35286 0.53791 0.44984 0.0
O236 O 0.2926 0.56564 0.56594 0.0
C237 C 0.29927 0.48236 0.48618 0.0
O238 O 0.33412 0.46235 0.48932 0.0
H239 H 0.32417 0.6038 0.50817 0.0
H240 H 0.35621 0.51107 0.44054 0.0
N241 N 0.33852 0.48131 0.56822 0.0
N242 N 0.34405 0.439 0.62551 0.0
C243 C 0.32218 0.47205 0.60502 0.0
C244 C 0.37199 0.453 0.56542 0.0
C245 C 0.37533 0.42697 0.60025 0.0
C246 C 0.31684 0.56697 0.58501 0.0
O247 O 0.35031 0.5411 0.58034 0.0
H248 H 0.2943 0.48887 0.61596 0.0
H249 H 0.39242 0.45109 0.53963 0.0
O250 O 0.28313 0.5133 0.5031 0.0
H251 H 0.36188 0.56938 0.39054 0.0
H252 H 0.3991 0.40098 0.60642 0.0
Cu253 Cu 0.51832 0.32182 0.5231 0.0
N254 N 0.56223 0.30057 0.48788 0.0
N255 N 0.61455 0.29673 0.44949 0.0
C256 C 0.58978 0.31273 0.48078 0.0
C257 C 0.60211 0.27377 0.4361 0.0
C258 C 0.57009 0.27616 0.45964 0.0
O259 O 0.53122 0.35415 0.5539 0.0
C260 C 0.46879 0.31171 0.47889 0.0
O261 O 0.49001 0.27686 0.49248 0.0
H262 H 0.59054 0.33474 0.49637 0.0
H263 H 0.55309 0.2622 0.45507 0.0
N264 N 0.50858 0.28809 0.56672 0.0
N265 N 0.48175 0.26949 0.6258 0.0
C266 C 0.48322 0.29937 0.59914 0.0
C267 C 0.52407 0.24973 0.57343 0.0
C268 C 0.50757 0.23822 0.60971 0.0
C269 C 0.55752 0.33385 0.57622 0.0
O270 O 0.57114 0.29654 0.5767 0.0
H271 H 0.4659 0.329 0.60287 0.0
H272 H 0.54589 0.23145 0.55343 0.0
O273 O 0.47552 0.33914 0.48823 0.0
H274 H 0.61488 0.25701 0.41047 0.0
H275 H 0.51455 0.20906 0.62352 0.0
Gd276 Gd 0.28711 0.31211 0.37023 0.0
Gd277 Gd 0.31422 0.3507 0.29876 0.0
C278 C 0.32691 0.26509 0.2931 0.0
C279 C 0.25153 0.28043 0.42329 0.0
C280 C 0.2304 0.25731 0.42463 0.0
C281 C 0.24115 0.22175 0.44859 0.0
C282 C 0.20024 0.26963 0.4022 0.0
C283 C 0.19199 0.21092 0.42762 0.0
C284 C 0.18107 0.24668 0.40385 0.0
C285 C 0.22218 0.19871 0.45001 0.0
C286 C 0.35062 0.31184 0.39182 0.0
C287 C 0.2738 0.39744 0.37822 0.0
C288 C 0.34886 0.38337 0.24635 0.0
C289 C 0.36987 0.40644 0.24408 0.0
C290 C 0.3682 0.43323 0.20981 0.0
C291 C 0.39226 0.4014 0.2746 0.0
C292 C 0.41116 0.45011 0.23618 0.0
C293 C 0.41286 0.42314 0.27064 0.0
C294 C 0.38866 0.45498 0.20587 0.0
C295 C 0.25748 0.33905 0.27746 0.0
O296 O 0.30327 0.26896 0.3257 0.0
O297 O 0.34131 0.29038 0.28122 0.0
O298 O 0.28625 0.26335 0.41166 0.0
O299 O 0.23724 0.31646 0.40823 0.0
O300 O 0.33128 0.29474 0.41283 0.0
O301 O 0.33723 0.32606 0.35773 0.0
O302 O 0.29305 0.39654 0.34203 0.0
O303 O 0.26386 0.36936 0.39366 0.0
O304 O 0.31381 0.40011 0.25717 0.0
O305 O 0.36394 0.34791 0.26281 0.0
O306 O 0.2842 0.34267 0.25344 0.0
O307 O 0.25889 0.34673 0.31355 0.0
H308 H 0.2644 0.21171 0.46611 0.0
H309 H 0.19134 0.29699 0.38358 0.0
H310 H 0.15738 0.25718 0.38703 0.0
H311 H 0.2312 0.17125 0.46847 0.0
H312 H 0.35125 0.43709 0.18588 0.0
H313 H 0.39428 0.38031 0.30095 0.0
H314 H 0.43075 0.41822 0.29392 0.0
H315 H 0.38705 0.47552 0.17902 0.0
Gd316 Gd 0.8135 0.34314 0.36603 0.0
Gd317 Gd 0.81177 0.2956 0.30045 0.0
C318 C 0.74881 0.31132 0.37656 0.0
C319 C 0.80562 0.38825 0.41947 0.0
C320 C 0.78161 0.41698 0.44721 0.0
C321 C 0.79005 0.41205 0.48772 0.0
C322 C 0.75469 0.45178 0.43248 0.0
C323 C 0.74894 0.47801 0.49665 0.0
C324 C 0.73848 0.482 0.45703 0.0
C325 C 0.77399 0.4422 0.51217 0.0
C326 C 0.8691 0.27238 0.36312 0.0
C327 C 0.86721 0.33859 0.28393 0.0
C328 C 0.82861 0.2375 0.26096 0.0
C329 C 0.8208 0.2172 0.23271 0.0
C330 C 0.79012 0.23381 0.21062 0.0
C331 C 0.8462 0.18014 0.22692 0.0
C332 C 0.81188 0.17668 0.17525 0.0
C333 C 0.84179 0.16003 0.19856 0.0
C334 C 0.78559 0.21346 0.18202 0.0
C335 C 0.75959 0.36794 0.28716 0.0
O336 O 0.76184 0.33329 0.38974 0.0
O337 O 0.76492 0.29175 0.34457 0.0
O338 O 0.81028 0.35246 0.42974 0.0
O339 O 0.80608 0.39855 0.37973 0.0
O340 O 0.8723 0.30203 0.37196 0.0
O341 O 0.83614 0.28109 0.35895 0.0
O342 O 0.86211 0.30812 0.27855 0.0
O343 O 0.84614 0.36143 0.3118 0.0
O344 O 0.81074 0.24063 0.29759 0.0
O345 O 0.83592 0.26717 0.24556 0.0
O346 O 0.76755 0.34089 0.26407 0.0
O347 O 0.78158 0.3554 0.3143 0.0
H348 H 0.81106 0.38565 0.49956 0.0
H349 H 0.74769 0.45642 0.40127 0.0
H350 H 0.71934 0.50922 0.44415 0.0
H351 H 0.78351 0.43826 0.54198 0.0
H352 H 0.77022 0.26248 0.21494 0.0
H353 H 0.86994 0.16693 0.24391 0.0
H354 H 0.86213 0.13151 0.19436 0.0
H355 H 0.76229 0.22675 0.1644 0.0
Gd356 Gd 0.82113 0.78119 0.2872 0.0
Gd357 Gd 0.85227 0.81648 0.33005 0.0
C358 C 0.77735 0.81217 0.37431 0.0
C359 C 0.78967 0.75001 0.25324 0.0
C360 C 0.76483 0.73236 0.25141 0.0
C361 C 0.7522 0.73653 0.21334 0.0
C362 C 0.75301 0.71265 0.28576 0.0
C363 C 0.71689 0.69995 0.24286 0.0
C364 C 0.72897 0.69644 0.28147 0.0
C365 C 0.72849 0.72038 0.20902 0.0
C366 C 0.81767 0.84904 0.24789 0.0
C367 C 0.89782 0.78072 0.24481 0.0
C368 C 0.8804 0.85334 0.36077 0.0
C369 C 0.90306 0.87457 0.35997 0.0
C370 C 0.93709 0.85544 0.37545 0.0
C371 C 0.88851 0.91453 0.35177 0.0
C372 C 0.93983 0.91601 0.3789 0.0
C373 C 0.90695 0.93514 0.36098 0.0
C374 C 0.95537 0.87601 0.38477 0.0
C375 C 0.85831 0.74838 0.36972 0.0
O376 O 0.78306 0.78818 0.34721 0.0
O377 O 0.79771 0.83213 0.36958 0.0
O378 O 0.77529 0.78628 0.25843 0.0
O379 O 0.82036 0.73005 0.26959 0.0
O380 O 0.82439 0.81932 0.23032 0.0
O381 O 0.81102 0.84308 0.28645 0.0
O382 O 0.89215 0.80515 0.27154 0.0
O383 O 0.87631 0.76212 0.24882 0.0
O384 O 0.89674 0.81674 0.35709 0.0
O385 O 0.84869 0.87012 0.34603 0.0
O386 O 0.85227 0.77814 0.38699 0.0
O387 O 0.86303 0.75443 0.3308 0.0
H388 H 0.76097 0.7521 0.18672 0.0
H389 H 0.76229 0.70985 0.31549 0.0
H390 H 0.7198 0.6813 0.30813 0.0
H391 H 0.71976 0.72327 0.17895 0.0
H392 H 0.94863 0.82468 0.38277 0.0
H393 H 0.86215 0.92999 0.34021 0.0
H394 H 0.89494 0.96604 0.35541 0.0
H395 H 0.98071 0.86073 0.39862 0.0
Gd396 Gd 0.29743 0.81859 0.28853 0.0
Gd397 Gd 0.33597 0.8336 0.35045 0.0
C398 C 0.32844 0.88482 0.26184 0.0
C399 C 0.24714 0.81497 0.25276 0.0
C400 C 0.22088 0.8317 0.22208 0.0
C401 C 0.22056 0.80745 0.19528 0.0
C402 C 0.19504 0.86967 0.22047 0.0
C403 C 0.1676 0.85796 0.16675 0.0
C404 C 0.16852 0.88276 0.19281 0.0
C405 C 0.19424 0.82039 0.1679 0.0
C406 C 0.36918 0.77092 0.27811 0.0
C407 C 0.3194 0.75591 0.36894 0.0
C408 C 0.37184 0.84123 0.40256 0.0
C409 C 0.3978 0.83173 0.43254 0.0
C410 C 0.38604 0.85054 0.46817 0.0
C411 C 0.43486 0.80949 0.42321 0.0
C412 C 0.4484 0.82751 0.48335 0.0
C413 C 0.46005 0.80751 0.44843 0.0
C414 C 0.41122 0.84849 0.49345 0.0
C415 C 0.26659 0.88552 0.34418 0.0
O416 O 0.30367 0.87257 0.25602 0.0
O417 O 0.34855 0.86941 0.29322 0.0
O418 O 0.28148 0.80129 0.2388 0.0
O419 O 0.24047 0.83078 0.28681 0.0
O420 O 0.34518 0.77452 0.25461 0.0
O421 O 0.35458 0.79508 0.30371 0.0
O422 O 0.33623 0.77552 0.37964 0.0
O423 O 0.30004 0.769 0.33698 0.0
O424 O 0.3403 0.83891 0.41352 0.0
O425 O 0.38421 0.83714 0.3638 0.0
O426 O 0.29342 0.89319 0.3493 0.0
O427 O 0.27742 0.84965 0.34425 0.0
H428 H 0.24018 0.77799 0.19631 0.0
H429 H 0.19494 0.88887 0.24093 0.0
H430 H 0.14857 0.91201 0.19207 0.0
H431 H 0.19402 0.80051 0.14854 0.0
H432 H 0.35751 0.86823 0.47546 0.0
H433 H 0.4445 0.79506 0.39559 0.0
H434 H 0.48873 0.79144 0.4399 0.0
H435 H 0.40175 0.8638 0.52045 0.0
Gd436 Gd 0.31448 0.81759 0.86581 0.0
Gd437 Gd 0.30035 0.79796 0.80026 0.0
C438 C 0.24714 0.79329 0.88455 0.0
C439 C 0.3205 0.85942 0.91421 0.0
C440 C 0.29425 0.88889 0.93962 0.0
C441 C 0.29077 0.88054 0.98247 0.0
C442 C 0.2744 0.92616 0.92185 0.0
C443 C 0.25447 0.9475 0.98953 0.0
C444 C 0.2546 0.95534 0.94677 0.0
C445 C 0.27078 0.90967 1.00729 0.0
C446 C 0.35672 0.74154 0.86282 0.0
C447 C 0.37275 0.81324 0.78258 0.0
C448 C 0.2804 0.77065 0.74769 0.0
C449 C 0.29096 0.74804 0.71369 0.0
C450 C 0.26295 0.74835 0.69408 0.0
C451 C 0.32714 0.72348 0.70356 0.0
C452 C 0.3063 0.69626 0.65718 0.0
C453 C 0.33486 0.69762 0.67507 0.0
C454 C 0.27047 0.72241 0.66629 0.0
C455 C 0.26082 0.87409 0.80441 0.0
O456 O 0.26247 0.81248 0.89832 0.0
O457 O 0.26052 0.78072 0.84822 0.0
O458 O 0.32381 0.82428 0.92596 0.0
O459 O 0.32085 0.86828 0.87436 0.0
O460 O 0.33982 0.75721 0.89602 0.0
O461 O 0.34985 0.76673 0.83239 0.0
O462 O 0.35514 0.79635 0.76865 0.0
O463 O 0.3601 0.82655 0.81893 0.0
O464 O 0.2825 0.80379 0.74059 0.0
O465 O 0.29014 0.75227 0.78346 0.0
O466 O 0.28357 0.85928 0.77376 0.0
O467 O 0.26433 0.84795 0.83376 0.0
H468 H 0.30542 0.85199 0.99688 0.0
H469 H 0.27599 0.9334 0.88883 0.0
H470 H 0.2425 0.98451 0.93263 0.0
H471 H 0.27119 0.90334 0.04033 0.0
H472 H 0.23488 0.76709 0.70219 0.0
H473 H 0.34891 0.72315 0.71896 0.0
H474 H 0.36268 0.67752 0.66859 0.0
H475 H 0.24776 0.72114 0.65431 0.0
Gd476 Gd 0.30239 0.28586 0.81232 0.0
Gd477 Gd 0.34578 0.31101 0.86271 0.0
C478 C 0.26168 0.32411 0.89585 0.0
C479 C 0.27871 0.24829 0.77648 0.0
C480 C 0.25507 0.22954 0.77285 0.0
C481 C 0.23944 0.23846 0.73584 0.0
C482 C 0.2474 0.2041 0.80411 0.0
C483 C 0.20915 0.19594 0.76007 0.0
C484 C 0.22432 0.18736 0.79774 0.0
C485 C 0.21674 0.22183 0.72943 0.0
C486 C 0.30488 0.353 0.77263 0.0
C487 C 0.38456 0.27724 0.77689 0.0
C488 C 0.37138 0.34602 0.89942 0.0
C489 C 0.39153 0.36881 0.90205 0.0
C490 C 0.41426 0.35689 0.93364 0.0
C491 C 0.38813 0.40191 0.87544 0.0
C492 C 0.43015 0.41104 0.9128 0.0
C493 C 0.40752 0.42303 0.88082 0.0
C494 C 0.43345 0.37783 0.93903 0.0
C495 C 0.34558 0.24225 0.89995 0.0
O496 O 0.26127 0.30425 0.86712 0.0
O497 O 0.28905 0.33418 0.89636 0.0
O498 O 0.26291 0.28534 0.77713 0.0
O499 O 0.30692 0.23108 0.79786 0.0
O500 O 0.28691 0.3356 0.76265 0.0
O501 O 0.31776 0.33543 0.80629 0.0
O502 O 0.38369 0.29884 0.80444 0.0
O503 O 0.35933 0.26351 0.77888 0.0
O504 O 0.39037 0.31115 0.88962 0.0
O505 O 0.33871 0.36264 0.88675 0.0
O506 O 0.36388 0.25913 0.91019 0.0
O507 O 0.33138 0.26111 0.86757 0.0
H508 H 0.24508 0.25824 0.71151 0.0
H509 H 0.25908 0.1973 0.83307 0.0
H510 H 0.21829 0.1679 0.82208 0.0
H511 H 0.20573 0.22866 0.70005 0.0
H512 H 0.417 0.33135 0.95443 0.0
H513 H 0.37053 0.41142 0.85094 0.0
H514 H 0.40456 0.44884 0.86049 0.0
H515 H 0.45103 0.36798 0.96358 0.0
Gd516 Gd 0.79374 0.31785 0.7953 0.0
Gd517 Gd 0.84073 0.32649 0.85486 0.0
C518 C 0.83147 0.38001 0.77064 0.0
C519 C 0.74379 0.32792 0.74935 0.0
C520 C 0.71482 0.33396 0.72304 0.0
C521 C 0.72179 0.31052 0.69184 0.0
C522 C 0.67987 0.36316 0.7289 0.0
C523 C 0.65916 0.34499 0.67317 0.0
C524 C 0.65257 0.36888 0.70406 0.0
C525 C 0.69435 0.31575 0.66752 0.0
C526 C 0.86246 0.2637 0.7932 0.0
C527 C 0.81443 0.25586 0.87356 0.0
C528 C 0.88483 0.32427 0.90498 0.0
C529 C 0.91278 0.31121 0.93464 0.0
C530 C 0.90926 0.33524 0.96402 0.0
C531 C 0.94422 0.27716 0.93218 0.0
C532 C 0.96914 0.29281 0.98637 0.0
C533 C 0.97183 0.26789 0.95799 0.0
C534 C 0.93697 0.32628 0.9894 0.0
C535 C 0.77059 0.37974 0.85519 0.0
O536 O 0.80568 0.36922 0.76495 0.0
O537 O 0.85231 0.36379 0.80093 0.0
O538 O 0.77855 0.31335 0.73658 0.0
O539 O 0.73636 0.33691 0.78713 0.0
O540 O 0.8346 0.25864 0.78533 0.0
O541 O 0.8535 0.29863 0.79754 0.0
O542 O 0.83757 0.27011 0.87932 0.0
O543 O 0.78978 0.27332 0.84688 0.0
O544 O 0.85085 0.32984 0.91693 0.0
O545 O 0.89479 0.31795 0.86636 0.0
O546 O 0.7981 0.3866 0.8603 0.0
O547 O 0.78115 0.3444 0.85279 0.0
H548 H 0.74836 0.28765 0.68661 0.0
H549 H 0.67372 0.38198 0.75243 0.0
H550 H 0.62644 0.39244 0.70885 0.0
H551 H 0.70069 0.29633 0.64459 0.0
H552 H 0.88543 0.36182 0.96642 0.0
H553 H 0.94771 0.25799 0.90992 0.0
H554 H 0.99546 0.24124 0.9554 0.0
H555 H 0.93367 0.34639 1.01046 0.0
Gd556 Gd 0.77785 0.81451 0.85138 0.0
Gd557 Gd 0.8086 0.85115 0.776 0.0
C558 C 0.81319 0.76783 0.77114 0.0
C559 C 0.73857 0.78877 0.90558 0.0
C560 C 0.7171 0.76624 0.90908 0.0
C561 C 0.70539 0.75377 0.94841 0.0
C562 C 0.7118 0.75347 0.8744 0.0
C563 C 0.68417 0.71448 0.91897 0.0
C564 C 0.6952 0.72774 0.87934 0.0
C565 C 0.68882 0.72821 0.95336 0.0
C566 C 0.84612 0.80449 0.86632 0.0
C567 C 0.77769 0.89522 0.85981 0.0
C568 C 0.83937 0.88829 0.7238 0.0
C569 C 0.85837 0.91291 0.72518 0.0
C570 C 0.86093 0.93819 0.69077 0.0
C571 C 0.87473 0.91081 0.76015 0.0
C572 C 0.89951 0.95623 0.72464 0.0
C573 C 0.89604 0.93135 0.75951 0.0
C574 C 0.8809 0.96006 0.69067 0.0
C575 C 0.74479 0.84876 0.76502 0.0
O576 O 0.78984 0.7734 0.80452 0.0
O577 O 0.83029 0.79089 0.75844 0.0
O578 O 0.7734 0.76971 0.89627 0.0
O579 O 0.72562 0.82328 0.88612 0.0
O580 O 0.8247 0.79186 0.89078 0.0
O581 O 0.8306 0.82071 0.83392 0.0
O582 O 0.7966 0.89221 0.82323 0.0
O583 O 0.76374 0.87023 0.87602 0.0
O584 O 0.80448 0.90249 0.73593 0.0
O585 O 0.85625 0.85209 0.73727 0.0
O586 O 0.77094 0.84648 0.73652 0.0
O587 O 0.75208 0.85546 0.79822 0.0
H588 H 0.7098 0.76316 0.97538 0.0
H589 H 0.72128 0.76262 0.84385 0.0
H590 H 0.69175 0.71753 0.8524 0.0
H591 H 0.67977 0.71904 0.98413 0.0
H592 H 0.84784 0.94069 0.66375 0.0
H593 H 0.87162 0.89266 0.78762 0.0
H594 H 0.91053 0.92674 0.78594 0.0
H595 H 0.88232 0.97944 0.66361 0.0
C596 C 0.14018 0.14945 0.47255 0.0
C597 C 0.12952 0.14218 0.43765 0.0
C598 C 0.16078 0.17127 0.46895 0.0
C599 C 0.17132 0.18681 0.43028 0.0
H600 H 0.13235 0.13827 0.50289 0.0
H601 H 0.1679 0.17666 0.49675 0.0
S602 S 0.15055 0.1761 0.3292 0.0
N603 N 0.13071 0.15267 0.36303 0.0
N604 N 0.17049 0.19264 0.35627 0.0
C605 C 0.16124 0.17941 0.39503 0.0
C606 C 0.14016 0.15726 0.39869 0.0
C607 C 0.96533 0.1936 0.36339 0.0
C608 C 0.95997 0.16016 0.3624 0.0
C609 C 0.93588 0.22973 0.36252 0.0
C610 C 0.8999 0.23395 0.36054 0.0
H611 H 0.99204 0.19166 0.36725 0.0
H612 H 0.94126 0.25447 0.36465 0.0
S613 S 0.87204 0.15543 0.35367 0.0
N614 N 0.9164 0.13388 0.35629 0.0
N615 N 0.86139 0.20128 0.35533 0.0
C616 C 0.89458 0.20087 0.35765 0.0
C617 C 0.92449 0.16418 0.35844 0.0
C618 C 1.01188 0.94781 0.39642 0.0
C619 C 0.9926 0.97644 0.42257 0.0
C620 C 0.99455 0.92831 0.38236 0.0
C621 C 0.9573 0.93744 0.39352 0.0
H622 H 0.04042 0.94087 0.38654 0.0
H623 H 1.01021 0.9064 0.36213 0.0
S624 S 0.89504 0.01107 0.46074 0.0
N625 N 0.93483 0.01365 0.45856 0.0
N626 N 0.9018 0.97677 0.43258 0.0
C627 C 0.9378 0.96606 0.41979 0.0
C628 C 0.95562 0.98561 0.4343 0.0
C629 C 0.16248 0.93243 0.35557 0.0
C630 C 0.15494 0.97116 0.35784 0.0
C631 C 0.19845 0.90488 0.34966 0.0
C632 C 0.2283 0.91485 0.34697 0.0
H633 H 0.14035 0.9231 0.35983 0.0
H634 H 0.20284 0.87542 0.34894 0.0
S635 S 0.22297 0.01221 0.35384 0.0
N636 N 0.18013 0.01789 0.35714 0.0
N637 N 0.24734 0.96651 0.34888 0.0
C638 C 0.22089 0.95367 0.34918 0.0
C639 C 0.18436 0.98172 0.3538 0.0
C640 C 0.17045 0.96231 0.81823 0.0
C641 C 0.1574 0.96992 0.77934 0.0
C642 C 0.20361 0.9309 0.82684 0.0
C643 C 0.22499 0.90646 0.79669 0.0
H644 H 0.15576 0.98144 0.84152 0.0
H645 H 0.21311 0.92642 0.85678 0.0
S646 S 0.1998 0.91061 0.69239 0.0
N647 N 0.16648 0.94733 0.71249 0.0
N648 N 0.22813 0.88996 0.72803 0.0
C649 C 0.21108 0.91289 0.75858 0.0
C650 C 0.17752 0.94412 0.75013 0.0
C651 C 0.13383 0.18247 0.7198 0.0
C652 C 0.14491 0.14278 0.72627 0.0
C653 C 0.15413 0.19962 0.73235 0.0
C654 C 0.18632 0.17744 0.75124 0.0
H655 H 0.10894 0.20024 0.70589 0.0
H656 H 0.14466 0.23045 0.72713 0.0
S657 S 0.22691 0.07189 0.77323 0.0
N658 N 0.18938 0.08162 0.7522 0.0
N659 N 0.22866 0.11354 0.7745 0.0
C660 C 0.19759 0.1376 0.75765 0.0
C661 C 0.17662 0.12032 0.74535 0.0
C662 C 0.96552 0.2098 0.78342 0.0
C663 C 0.97031 0.17111 0.7888 0.0
C664 C 0.93074 0.23973 0.78722 0.0
C665 C 0.89931 0.23214 0.79527 0.0
H666 H 0.98885 0.21708 0.7744 0.0
H667 H 0.92841 0.26897 0.7815 0.0
S668 S 0.89692 0.13582 0.81404 0.0
N669 N 0.94068 0.12698 0.80526 0.0
N670 N 0.87535 0.18282 0.81068 0.0
C671 C 0.9038 0.19352 0.8023 0.0
C672 C 0.93927 0.1631 0.79957 0.0
C673 C 0.97123 0.99511 0.68248 0.0
C674 C 0.97637 1.00932 0.7164 0.0
C675 C 0.94623 0.97849 0.68548 0.0
C676 C 0.92429 0.97615 0.72227 0.0
H677 H 0.98692 0.99634 0.65314 0.0
H678 H 0.94479 0.96659 0.65876 0.0
S679 S 0.92393 0.01194 0.81974 0.0
N680 N 0.95615 0.02044 0.78842 0.0
N681 N 0.90699 0.9923 0.79262 0.0
C682 C 0.92776 0.9917 0.75609 0.0
C683 C 0.95411 1.00769 0.75347 0.0
C684 C 0.31822 0.18083 0.2596 0.0
C685 C 0.31557 0.19081 0.21724 0.0
C686 C 0.32535 0.20336 0.28331 0.0
C687 C 0.32995 0.23689 0.26562 0.0
H688 H 0.31304 0.15636 0.27473 0.0
H689 H 0.32525 0.19557 0.31623 0.0
S690 S 0.32428 0.27574 0.1556 0.0
N691 N 0.31788 0.23598 0.15828 0.0
N692 N 0.33106 0.27879 0.20252 0.0
C693 C 0.3286 0.24639 0.22278 0.0
C694 C 0.32138 0.22326 0.19869 0.0
C695 C 0.96167 0.32077 0.22585 0.0
C696 C 0.96252 0.35744 0.21829 0.0
C697 C 0.93069 0.31505 0.24612 0.0
C698 C 0.89909 0.34558 0.26035 0.0
H699 H 0.98534 0.29596 0.21686 0.0
H700 H 0.93194 0.2862 0.25161 0.0
S701 S 0.88487 0.44764 0.24501 0.0
N702 N 0.92663 0.42525 0.22376 0.0
N703 N 0.86984 0.41405 0.26321 0.0
C704 C 0.89919 0.38232 0.25238 0.0
C705 C 0.93039 0.38834 0.23109 0.0
C706 C 0.85768 0.91096 0.17927 0.0
C707 C 0.8327 0.92751 0.14952 0.0
C708 C 0.8502 0.88976 0.21552 0.0
C709 C 0.81762 0.88418 0.22311 0.0
H710 H 0.88369 0.9133 0.17381 0.0
H711 H 0.87127 0.87525 0.23606 0.0
S712 S 0.74304 0.92175 0.15575 0.0
N713 N 0.77354 0.93746 0.13102 0.0
N714 N 0.75992 0.89768 0.19885 0.0
C715 C 0.79177 0.90216 0.19472 0.0
C716 C 0.7992 0.92373 0.15796 0.0
C717 C 0.12046 0.86465 0.07456 0.0
C718 C 0.08356 0.87819 0.08996 0.0
C719 C 0.14733 0.86051 0.09878 0.0
C720 C 0.13828 0.86974 0.13951 0.0
H721 H 0.12864 0.8557 0.04399 0.0
H722 H 0.17555 0.84851 0.08609 0.0
S723 S 0.04533 0.90789 0.19385 0.0
N724 N 0.03906 0.90234 0.14767 0.0
N725 N 0.08962 0.89457 0.1937 0.0
C726 C 0.10127 0.88525 0.15465 0.0
C727 C 0.07385 0.88949 0.12976 0.0
C728 C 0.20964 0.0382 0.04231 0.0
C729 C 0.23995 0.04064 0.05494 0.0
C730 C 0.21389 1.00745 0.02164 0.0
C731 C 0.24852 0.97847 1.01361 0.0
H732 H 0.18274 0.06026 0.04829 0.0
H733 H 0.19022 1.00639 1.01172 0.0
S734 S 0.33684 0.97416 0.03534 0.0
N735 N 0.30609 0.01332 0.05387 0.0
N736 N 0.31361 0.95531 1.01662 0.0
C737 C 0.27896 0.98102 0.02535 0.0
C738 C 0.27482 0.01221 0.04566 0.0
C739 C 0.20428 0.36252 0.99507 0.0
C740 C 0.17769 0.34746 1.00065 0.0
C741 C 0.2309 0.35531 0.96096 0.0
C742 C 0.23178 0.33305 0.93066 0.0
H743 H 0.20452 0.37989 0.01742 0.0
H744 H 0.25099 0.36729 0.95851 0.0
S745 S 0.16784 0.28655 0.93204 0.0
N746 N 0.15386 0.30892 0.97389 0.0
N747 N 0.20316 0.29552 0.90972 0.0
C748 C 0.20507 0.31779 0.93622 0.0
C749 C 0.17826 0.32492 0.97118 0.0
C750 C 0.8028 0.16191 0.90568 0.0
C751 C 0.83632 0.13721 0.92056 0.0
C752 C 0.79543 0.20044 0.89139 0.0
C753 C 0.82099 0.21602 0.8923 0.0
H754 H 0.78233 0.15114 0.90458 0.0
H755 H 0.7696 0.21802 0.87934 0.0
S756 S 0.91262 0.16309 0.92984 0.0
N757 N 0.89482 0.13108 0.93637 0.0
N758 N 0.88148 0.20295 0.91 0.0
C759 C 0.85443 0.19152 0.90796 0.0
C760 C 0.86199 0.15229 0.92187 0.0
C761 C 0.91114 0.80388 0.93897 0.0
C762 C 0.9389 0.8111 0.91267 0.0
C763 C 0.88158 0.80199 0.92342 0.0
C764 C 0.87808 0.80729 0.88078 0.0
H765 H 0.91263 0.7986 0.97184 0.0
H766 H 0.86127 0.79609 0.94528 0.0
S767 S 0.94248 0.82751 0.79829 0.0
N768 N 0.95933 0.82562 0.84111 0.0
N769 N 0.90527 0.81952 0.81267 0.0
C770 C 0.90519 0.81495 0.85416 0.0
C771 C 0.9351 0.81747 0.86986 0.0
C772 C 0.18601 0.30448 0.2525 0.0
C773 C 0.18261 0.3177 0.21019 0.0
C774 C 0.20771 0.31364 0.27577 0.0
C775 C 0.22669 0.33681 0.25801 0.0
H776 H 0.17341 0.28532 0.26725 0.0
H777 H 0.2113 0.30064 0.30712 0.0
S778 S 0.22465 0.38076 0.1489 0.0
N779 N 0.19906 0.35651 0.15258 0.0
N780 N 0.2381 0.37427 0.19502 0.0
C781 C 0.22188 0.35136 0.21613 0.0
C782 C 0.20045 0.34172 0.19274 0.0
C783 C 0.168 0.79774 0.96992 0.0
C784 C 0.14482 0.78709 0.95185 0.0
C785 C 0.20113 0.79847 0.94879 0.0
C786 C 0.21319 0.7887 0.90806 0.0
H787 H 0.15962 0.80734 1.00019 0.0
H788 H 0.21691 0.80793 0.96429 0.0
S789 S 0.16236 0.75937 0.8459 0.0
N790 N 0.13649 0.76715 0.89003 0.0
N791 N 0.19821 0.76754 0.85089 0.0
C792 C 0.19058 0.7771 0.88998 0.0
C793 C 0.15673 0.77669 0.9115 0.0
C794 C 0.29435 0.19994 0.98472 0.0
C795 C 0.3225 0.16966 1.00511 0.0
C796 C 0.30147 0.22053 0.9475 0.0
C797 C 0.3372 0.2124 0.92919 0.0
H798 H 0.26646 0.2089 0.99853 0.0
H799 H 0.27904 0.24488 0.93487 0.0
S800 S 0.4206 0.13488 0.96811 0.0
N801 N 0.3874 0.13113 1.00194 0.0
N802 N 0.40095 0.17072 0.93343 0.0
C803 C 0.3654 0.18118 0.9482 0.0
C804 C 0.35806 0.15957 0.9856 0.0
C805 C 0.02185 0.28959 0.07526 0.0
C806 C 0.05825 0.27785 0.05756 0.0
C807 C 0.99352 0.29326 0.05267 0.0
C808 C 1.00013 0.28526 1.01127 0.0
H809 H 1.01474 0.29788 0.1061 0.0
H810 H 0.966 0.30323 0.06764 0.0
S811 S 0.09078 0.25226 0.95065 0.0
N812 N 0.09927 0.25652 0.99624 0.0
N813 N 0.04649 0.26452 0.95399 0.0
C814 C 0.03657 0.27234 0.99371 0.0
C815 C 0.06535 0.2684 1.01669 0.0
C816 C 0.76745 0.94661 0.95357 0.0
C817 C 0.78573 0.97066 0.93873 0.0
C818 C 0.76288 0.92394 0.92735 0.0
C819 C 0.77649 0.92449 0.88533 0.0
H820 H 0.75876 0.94338 0.98608 0.0
H821 H 0.7503 0.90441 0.9407 0.0
S822 S 0.82339 0.98604 0.83132 0.0
N823 N 0.81539 0.9957 0.87946 0.0
N824 N 0.80626 0.95443 0.83004 0.0
C825 C 0.79285 0.95042 0.86995 0.0
C826 C 0.79768 0.97304 0.89669 0.0
C827 C 0.96568 0.80651 0.16316 0.0
C828 C 0.97072 0.78513 0.13028 0.0
C829 C 0.94389 0.80331 0.20028 0.0
C830 C 0.92495 0.7791 0.20669 0.0
H831 H 0.97771 0.82721 0.15957 0.0
H832 H 0.94074 0.82138 0.22357 0.0
S833 S 0.92736 0.71783 0.12964 0.0
N834 N 0.95415 0.73914 0.10662 0.0
N835 N 0.91305 0.7333 0.17547 0.0
C836 C 0.93007 0.75713 0.17412 0.0
C837 C 0.95276 0.76015 0.13635 0.0
C838 C 0.30377 0.99203 0.2365 0.0
C839 C 0.32224 0.99646 0.19732 0.0
C840 C 0.30665 0.95604 0.25648 0.0
C841 C 0.32789 0.92203 0.23881 0.0
H842 H 0.28628 0.01681 0.25217 0.0
H843 H 0.29168 0.95483 0.28613 0.0
S844 S 0.38346 0.9157 0.13786 0.0
N845 N 0.36398 0.9621 0.14216 0.0
N846 N 0.36909 0.89457 0.18006 0.0
C847 C 0.34719 0.92537 0.20007 0.0
C848 C 0.34445 0.96237 0.17939 0.0
C849 C 0.78036 0.12109 0.11671 0.0
C850 C 0.81106 0.10474 0.08882 0.0
C851 C 0.77973 0.14623 0.14344 0.0
C852 C 0.80975 0.15561 0.14294 0.0
H853 H 0.7576 0.11295 0.11935 0.0
H854 H 0.75645 0.15684 0.16596 0.0
S855 S 0.89411 0.12541 0.07131 0.0
N856 N 0.87035 0.10364 0.0591 0.0
N857 N 0.86897 0.1503 0.10926 0.0
C858 C 0.83944 0.14147 0.11337 0.0
C859 C 0.84012 0.11618 0.08632 0.0
C860 C 0.61972 0.66934 0.91006 0.0
C861 C 0.63045 0.63726 0.93949 0.0
C862 C 0.63777 0.69388 0.90291 0.0
C863 C 0.66724 0.6868 0.92479 0.0
H864 H 0.5968 0.67579 0.89309 0.0
H865 H 0.62811 0.71897 0.88085 0.0
S866 S 0.70831 0.6038 1.00133 0.0
N867 N 0.67352 0.59798 0.98829 0.0
N868 N 0.7083 0.64363 0.9744 0.0
C869 C 0.67896 0.65401 0.95328 0.0
C870 C 0.66029 0.62934 0.96079 0.0
C871 C 0.43991 0.65566 0.82592 0.0
C872 C 0.46322 0.64508 0.85723 0.0
C873 C 0.40548 0.6865 0.82825 0.0
C874 C 0.39225 0.70744 0.86258 0.0
H875 H 0.44841 0.64011 0.79915 0.0
H876 H 0.38894 0.69392 0.80299 0.0
S877 S 0.44252 0.69263 0.95254 0.0
N878 N 0.47051 0.65937 0.92333 0.0
N879 N 0.40585 0.71629 0.92799 0.0
C880 C 0.4152 0.69735 0.89407 0.0
C881 C 0.45058 0.66653 0.89132 0.0
C882 C 0.46925 0.46177 0.96653 0.0
C883 C 0.49304 0.47034 0.93523 0.0
C884 C 0.44828 0.44327 0.95871 0.0
C885 C 0.4507 0.43269 0.91937 0.0
H886 H 0.46652 0.46997 0.99699 0.0
H887 H 0.43002 0.43719 0.98356 0.0
S888 S 0.51184 0.44518 0.82813 0.0
N889 N 0.51989 0.46462 0.86422 0.0
N890 N 0.4802 0.4298 0.84956 0.0
C891 C 0.47484 0.44052 0.88796 0.0
C892 C 0.49619 0.45932 0.8959 0.0
C893 C 0.66684 0.42524 0.85745 0.0
C894 C 0.65757 0.46424 0.86054 0.0
C895 C 0.70321 0.3983 0.85521 0.0
C896 C 0.73218 0.40901 0.85571 0.0
H897 H 0.64564 0.41509 0.85795 0.0
H898 H 0.7085 0.36863 0.85434 0.0
S899 S 0.72326 0.50711 0.86435 0.0
N900 N 0.68092 0.51184 0.86469 0.0
N901 N 0.74908 0.4616 0.85967 0.0
C902 C 0.72348 0.44798 0.85815 0.0
C903 C 0.68635 0.47546 0.8606 0.0
C904 C 0.68711 0.46857 0.30486 0.0
C905 C 0.66045 0.47292 0.27968 0.0
C906 C 0.71889 0.43428 0.30833 0.0
C907 C 0.72535 0.40363 0.28595 0.0
H908 H 0.6843 0.4924 0.32028 0.0
H909 H 0.73906 0.43234 0.32735 0.0
S910 S 0.66251 0.40043 0.21773 0.0
N911 N 0.64175 0.44315 0.23397 0.0
N912 N 0.70078 0.37964 0.23973 0.0
C913 C 0.69808 0.40749 0.2619 0.0
C914 C 0.66589 0.44187 0.25891 0.0
C915 C 0.64151 0.68512 0.20475 0.0
C916 C 0.64989 0.64638 0.21747 0.0
C917 C 0.66269 0.70262 0.21443 0.0
C918 C 0.69305 0.6817 0.23671 0.0
H919 H 0.61806 0.70201 0.18802 0.0
H920 H 0.65535 0.73271 0.20431 0.0
S921 S 0.72694 0.57868 0.27491 0.0
N922 N 0.69041 0.58725 0.25247 0.0
N923 N 0.73106 0.61986 0.26984 0.0
C924 C 0.70171 0.6428 0.24937 0.0
C925 C 0.67994 0.62516 0.23984 0.0
C926 C 0.45551 0.69816 0.23114 0.0
C927 C 0.47205 0.67283 0.2649 0.0
C928 C 0.42349 0.73084 0.23631 0.0
C929 C 0.40656 0.74056 0.27546 0.0
H930 H 0.46675 0.69238 0.19988 0.0
H931 H 0.41129 0.7482 0.20914 0.0
S932 S 0.43845 0.68557 0.37457 0.0
N933 N 0.469 0.66067 0.33946 0.0
N934 N 0.40887 0.72306 0.3491 0.0
C935 C 0.42322 0.71672 0.30982 0.0
C936 C 0.45591 0.68268 0.30456 0.0
C937 C 0.48009 0.49005 0.18739 0.0
C938 C 0.48404 0.50779 0.21909 0.0
C939 C 0.45604 0.47206 0.19303 0.0
C940 C 0.43445 0.47156 0.2304 0.0
H941 H 0.49611 0.48947 0.15797 0.0
H942 H 0.45501 0.45759 0.1682 0.0
S943 S 0.43019 0.51729 0.32195 0.0
N944 N 0.46189 0.52533 0.28911 0.0
N945 N 0.41534 0.49311 0.29828 0.0
C946 C 0.4364 0.4907 0.26174 0.0
C947 C 0.46137 0.50861 0.2564 0.0
C948 C 0.82683 0.71874 0.67471 0.0
C949 C 0.80971 0.69304 0.68693 0.0
C950 C 0.82911 0.74156 0.70231 0.0
C951 C 0.81471 0.73962 0.74377 0.0
H952 H 0.83833 0.72168 0.6432 0.0
H953 H 0.84161 0.76151 0.69065 0.0
S954 S 0.76877 0.67545 0.7922 0.0
N955 N 0.77897 0.66634 0.74376 0.0
N956 N 0.78377 0.70829 0.79587 0.0
C957 C 0.7981 0.71343 0.7566 0.0
C958 C 0.79538 0.69054 0.72822 0.0
C959 C 0.47331 0.80224 0.76528 0.0
C960 C 0.4825 0.80271 0.72219 0.0
C961 C 0.43782 0.80722 0.78402 0.0
C962 C 0.40946 0.81187 0.76103 0.0
H963 H 0.49392 0.79786 0.7849 0.0
H964 H 0.43296 0.80609 0.8172 0.0
S965 S 0.4179 0.81686 0.64703 0.0
N966 N 0.45879 0.81036 0.65701 0.0
N967 N 0.39331 0.81792 0.69197 0.0
C968 C 0.41806 0.81294 0.71786 0.0
C969 C 0.454 0.80894 0.69862 0.0
C970 C 0.34952 0.37838 0.66899 0.0
C971 C 0.33563 0.41863 0.66426 0.0
C972 C 0.34099 0.35777 0.70522 0.0
C973 C 0.31952 0.37588 0.73964 0.0
H974 H 0.36591 0.36259 0.64368 0.0
H975 H 0.35003 0.32722 0.70551 0.0
S976 S 0.27529 0.48066 0.7438 0.0
N977 N 0.29811 0.47599 0.69764 0.0
N978 N 0.28312 0.43687 0.76587 0.0
C979 C 0.30554 0.41605 0.73569 0.0
C980 C 0.31346 0.43739 0.6982 0.0
C981 C 0.61366 0.34339 0.58083 0.0
C982 C 0.57771 0.34933 0.59698 0.0
C983 C 0.63895 0.34403 0.60495 0.0
C984 C 0.6299 0.34988 0.64691 0.0
H985 H 0.62317 0.33574 0.54982 0.0
H986 H 0.66634 0.33844 0.5908 0.0
S987 S 0.53887 0.36768 0.7042 0.0
N988 N 0.53399 0.36247 0.6573 0.0
N989 N 0.58125 0.36314 0.70303 0.0
C990 C 0.59346 0.35753 0.66306 0.0
C991 C 0.56759 0.35719 0.63815 0.0
C992 C 0.74848 0.57128 0.51639 0.0
C993 C 0.74606 0.56816 0.55955 0.0
C994 C 0.74549 0.54389 0.4961 0.0
C995 C 0.73993 0.51224 0.51826 0.0
H996 H 0.75664 0.5928 0.49807 0.0
H997 H 0.75125 0.54564 0.46296 0.0
S998 S 0.7218 0.49681 0.63158 0.0
N999 N 0.73108 0.5352 0.62371 0.0
N1000 N 0.72446 0.4839 0.58563 0.0
C1001 C 0.73279 0.51154 0.56135 0.0
C1002 C 0.73597 0.53956 0.58203 0.0
C1003 C 0.72513 0.83846 0.4804 0.0
C1004 C 0.70298 0.81738 0.49019 0.0
C1005 C 0.74794 0.83697 0.44327 0.0
C1006 C 0.75103 0.81367 0.41318 0.0
H1007 H 0.72486 0.8569 0.50179 0.0
H1008 H 0.76354 0.85439 0.43837 0.0
S1009 S 0.70264 0.74896 0.42372 0.0
N1010 N 0.68775 0.77029 0.46633 0.0
N1011 N 0.73153 0.76629 0.39743 0.0
C1012 C 0.73038 0.79095 0.42293 0.0
C1013 C 0.70646 0.7929 0.46098 0.0
C1014 C 0.32209 0.65368 0.39015 0.0
C1015 C 0.33738 0.63871 0.42786 0.0
C1016 C 0.31557 0.69148 0.37239 0.0
C1017 C 0.32452 0.71649 0.39086 0.0
H1018 H 0.31486 0.63601 0.37416 0.0
H1019 H 0.30401 0.70084 0.34326 0.0
S1020 S 0.36514 0.69165 0.49012 0.0
N1021 N 0.36071 0.65249 0.4835 0.0
N1022 N 0.34952 0.7227 0.44995 0.0
C1023 C 0.33968 0.7019 0.4288 0.0
C1024 C 0.34573 0.66347 0.44728 0.0
C1025 C 0.42954 0.28327 0.45721 0.0
C1026 C 0.4379 0.31561 0.4549 0.0
C1027 C 0.40266 0.28273 0.43548 0.0
C1028 C 0.3822 0.31422 0.4091 0.0
H1029 H 0.44373 0.25752 0.47669 0.0
H1030 H 0.39762 0.25695 0.43986 0.0
S1031 S 0.39082 0.40767 0.39233 0.0
N1032 N 0.42187 0.38124 0.42407 0.0
N1033 N 0.37117 0.38027 0.38332 0.0
C1034 C 0.38974 0.34726 0.40619 0.0
C1035 C 0.41739 0.34795 0.42896 0.0
C1036 C 0.68826 0.80401 0.73208 0.0
C1037 C 0.66078 0.83505 0.71173 0.0
C1038 C 0.71279 0.80923 0.7535 0.0
C1039 C 0.71122 0.84571 0.75617 0.0
H1040 H 0.6921 0.77492 0.73 0.0
H1041 H 0.73456 0.78414 0.76594 0.0
S1042 S 0.64369 0.937 0.71086 0.0
N1043 N 0.6325 0.90416 0.6979 0.0
N1044 N 0.67901 0.91376 0.73779 0.0
C1045 C 0.68297 0.8772 0.73774 0.0
C1046 C 0.65765 0.87196 0.71585 0.0
C1047 C 0.67274 0.30152 0.45656 0.0
C1048 C 0.64634 0.30416 0.43184 0.0
C1049 C 0.70555 0.30484 0.43891 0.0
C1050 C 0.71316 0.31071 0.39592 0.0
H1051 H 0.66852 0.29557 0.48958 0.0
H1052 H 0.72555 0.30153 0.45892 0.0
S1053 S 0.64977 0.32758 0.31866 0.0
N1054 N 0.628 0.31858 0.36283 0.0
N1055 N 0.6892 0.32433 0.32987 0.0
C1056 C 0.686 0.3156 0.37131 0.0
C1057 C 0.65276 0.31245 0.38918 0.0
C1058 C 0.82117 0.6797 0.42766 0.0
C1059 C 0.83598 0.67262 0.46544 0.0
C1060 C 0.8328 0.69957 0.39302 0.0
C1061 C 0.85938 0.71322 0.39535 0.0
H1062 H 0.79832 0.67265 0.42601 0.0
H1063 H 0.81807 0.70795 0.36608 0.0
S1064 S 0.90839 0.69974 0.48581 0.0
N1065 N 0.88034 0.67831 0.5018 0.0
N1066 N 0.90224 0.71557 0.43707 0.0
C1067 C 0.8766 0.70321 0.43172 0.0
C1068 C 0.86488 0.68294 0.46676 0.0
C1069 C 0.50234 0.86097 0.53932 0.0
C1070 C 0.53007 0.82635 0.55277 0.0
C1071 C 0.47531 0.86125 0.51751 0.0
C1072 C 0.47526 0.82692 0.50872 0.0
H1073 H 0.50196 0.88792 0.54487 0.0
H1074 H 0.45488 0.88847 0.50655 0.0
S1075 S 0.53866 0.72855 0.54155 0.0
N1076 N 0.55359 0.75649 0.5587 0.0
N1077 N 0.50272 0.75771 0.51798 0.0
C1078 C 0.50179 0.7922 0.52338 0.0
C1079 C 0.52922 0.79174 0.5454 0.0
C1080 C 0.29067 0.47508 0.41643 0.0
C1081 C 0.28167 0.47025 0.45901 0.0
C1082 C 0.28458 0.45404 0.38993 0.0
C1083 C 0.26986 0.42672 0.40506 0.0
H1084 H 0.3049 0.49328 0.40382 0.0
H1085 H 0.29408 0.45729 0.35769 0.0
S1086 S 0.23871 0.40628 0.51458 0.0
N1087 N 0.25492 0.4388 0.51522 0.0
N1088 N 0.24322 0.39903 0.46588 0.0
C1089 C 0.2583 0.42378 0.44757 0.0
C1090 C 0.26446 0.44545 0.47445 0.0
C1091 C 0.45 0.29863 0.69019 0.0
C1092 C 0.45793 0.27066 0.66362 0.0
C1093 C 0.42768 0.29941 0.72752 0.0
C1094 C 0.41164 0.27273 0.73957 0.0
H1095 H 0.46142 0.31989 0.68223 0.0
H1096 H 0.42206 0.32194 0.74643 0.0
S1097 S 0.42186 0.19533 0.67941 0.0
N1098 N 0.44674 0.21665 0.65121 0.0
N1099 N 0.40471 0.21825 0.72071 0.0
C1100 C 0.419 0.245 0.71288 0.0
C1101 C 0.44208 0.24394 0.67517 0.0
C1102 C 0.85413 0.46694 0.73521 0.0
C1103 C 0.84466 0.47734 0.69462 0.0
C1104 C 0.84989 0.4354 0.75932 0.0
C1105 C 0.836 0.41289 0.74388 0.0
H1106 H 0.8642 0.4838 0.74871 0.0
H1107 H 0.85707 0.429 0.79061 0.0
S1108 S 0.81007 0.42608 0.63833 0.0
N1109 N 0.82245 0.46148 0.63936 0.0
N1110 N 0.81448 0.40226 0.68463 0.0
C1111 C 0.8267 0.42279 0.70322 0.0
C1112 C 0.83103 0.45494 0.67865 0.0
C1113 C 0.33142 0.59542 0.637 0.0
C1114 C 0.31116 0.60054 0.60426 0.0
C1115 C 0.33155 0.62668 0.6525 0.0
C1116 C 0.31214 0.66403 0.63498 0.0
H1117 H 0.34723 0.56697 0.65084 0.0
H1118 H 0.34592 0.62154 0.6792 0.0
S1119 S 0.25876 0.69238 0.5453 0.0
N1120 N 0.27233 0.64552 0.55374 0.0
N1121 N 0.27559 0.7043 0.58038 0.0
C1122 C 0.29333 0.66942 0.60084 0.0
C1123 C 0.29185 0.63767 0.58625 0.0
loop_
_geom_bond_atom_site_label_1
_geom_bond_atom_site_label_2
_geom_bond_distance
_geom_bond_site_symmetry_2
_ccdc_geom_bond_type
Cu0 N1 1.999 . S
Cu0 O6 1.974 1_545 S
Cu0 N11 1.985 . S
Cu0 O20 1.943 1_455 S
N1 Cu0 1.999 . S
N1 C3 1.263 . S
N1 C5 1.389 . S
N2 C3 1.358 . S
N2 C4 1.400 . S
C3 N1 1.263 . S
C3 N2 1.358 . S
C3 H9 0.930 . S
C4 N2 1.400 . S
C4 C5 1.351 . S
C4 H21 0.930 . S
C5 N1 1.389 . S
C5 C4 1.351 . S
C5 H10 0.930 . S
O6 Cu0 1.974 1_565 S
O6 C16 1.282 . S
C7 O8 1.261 1_655 S
C7 O20 1.259 . S
O8 C7 1.261 1_455 S
H9 C3 0.930 . S
H10 C5 0.930 . S
N11 Cu0 1.985 . S
N11 C13 1.335 1_455 S
N11 C14 1.390 1_545 S
N12 C13 1.345 1_565 S
N12 C15 1.336 1_655 S
C13 N11 1.335 1_655 S
C13 N12 1.345 1_545 S
C13 H18 0.930 . S
C14 N11 1.390 1_565 S
C14 C15 1.346 . S
C14 H19 0.930 . S
C15 N12 1.336 1_455 S
C15 C14 1.346 . S
C15 H22 0.929 . S
C16 O6 1.282 . S
C16 O17 1.216 . S
O17 C16 1.216 . S
H18 C13 0.930 . S
H19 C14 0.930 . S
O20 Cu0 1.943 1_655 S
O20 C7 1.259 . S
H21 C4 0.930 . S
H22 C15 0.929 . S
Cu23 N24 1.999 . S
Cu23 O29 1.974 1_455 S
Cu23 N34 1.985 . S
Cu23 O43 1.959 . S
N24 Cu23 1.999 . S
N24 C26 1.263 1_455 S
N24 C28 1.389 . S
N25 C26 1.358 . S
N25 C27 1.400 1_545 S
C26 N24 1.263 1_655 S
C26 N25 1.358 . S
C26 H32 0.930 . S
C27 N25 1.400 1_565 S
C27 C28 1.351 1_665 S
C27 H44 0.930 . S
C28 N24 1.389 . S
C28 C27 1.351 1_445 S
C28 H33 0.930 1_545 S
O29 Cu23 1.974 1_655 S
O29 C39 1.282 . S
C30 O31 1.261 . S
C30 O43 1.251 . S
O31 C30 1.261 . S
H32 C26 0.930 . S
H33 C28 0.930 1_565 S
N34 Cu23 1.985 . S
N34 C36 1.335 . S
N34 C37 1.390 . S
N35 C36 1.345 . S
N35 C38 1.336 . S
C36 N34 1.335 . S
C36 N35 1.345 . S
C36 H41 0.930 . S
C37 N34 1.390 . S
C37 C38 1.346 . S
C37 H42 0.930 . S
C38 N35 1.336 . S
C38 C37 1.346 . S
C38 H45 0.929 . S
C39 O29 1.282 . S
C39 O40 1.216 . S
O40 C39 1.216 . S
H41 C36 0.930 . S
H42 C37 0.930 . S
O43 Cu23 1.959 . S
O43 C30 1.251 . S
H44 C27 0.930 . S
H45 C38 0.929 . S
Cu46 N47 1.999 . S
Cu46 O52 1.974 . S
Cu46 N57 1.985 . S
Cu46 O66 1.959 . S
N47 Cu46 1.999 . S
N47 C49 1.263 . S
N47 C51 1.389 . S
N48 C49 1.358 . S
N48 C50 1.400 . S
C49 N47 1.263 . S
C49 N48 1.358 . S
C49 H55 0.930 . S
C50 N48 1.400 . S
C50 C51 1.351 . S
C50 H67 0.930 1_554 S
C51 N47 1.389 . S
C51 C50 1.351 . S
C51 H56 0.930 . S
O52 Cu46 1.974 . S
O52 C62 1.282 . S
C53 O54 1.261 . S
C53 O66 1.251 . S
O54 C53 1.261 . S
H55 C49 0.930 . S
H56 C51 0.930 . S
N57 Cu46 1.985 . S
N57 C59 1.335 . S
N57 C60 1.390 . S
N58 C59 1.345 . S
N58 C61 1.336 . S
C59 N57 1.335 . S
C59 N58 1.345 . S
C59 H64 0.930 . S
C60 N57 1.390 . S
C60 C61 1.346 . S
C60 H65 0.930 . S
C61 N58 1.336 . S
C61 C60 1.346 . S
C61 H68 0.929 . S
C62 O52 1.282 . S
C62 O63 1.216 . S
O63 C62 1.216 . S
H64 C59 0.930 . S
H65 C60 0.930 . S
O66 Cu46 1.959 . S
O66 C53 1.251 . S
H67 C50 0.930 1_556 S
H68 C61 0.929 . S
Cu69 N70 1.999 . S
Cu69 O75 1.974 . S
Cu69 N80 1.985 . S
Cu69 O89 1.959 . S
N70 Cu69 1.999 . S
N70 C72 1.263 . S
N70 C74 1.389 . S
N71 C72 1.358 . S
N71 C73 1.400 1_554 S
C72 N70 1.263 . S
C72 N71 1.358 . S
C72 H78 0.930 . S
C73 N71 1.400 1_556 S
C73 C74 1.351 1_556 S
C73 H90 0.930 . S
C74 N70 1.389 . S
C74 C73 1.351 1_554 S
C74 H79 0.930 1_554 S
O75 Cu69 1.974 . S
O75 C85 1.282 . S
C76 O77 1.261 . S
C76 O89 1.251 . S
O77 C76 1.261 . S
H78 C72 0.930 . S
H79 C74 0.930 1_556 S
N80 Cu69 1.985 . S
N80 C82 1.335 . S
N80 C83 1.390 . S
N81 C82 1.357 . S
N81 C84 1.359 . S
C82 N80 1.335 . S
C82 N81 1.357 . S
C82 H87 0.944 . S
C83 N80 1.390 . S
C83 C84 1.346 . S
C83 H88 0.930 . S
C84 N81 1.359 . S
C84 C83 1.346 . S
C84 H91 0.929 . S
C85 O75 1.282 . S
C85 O86 1.216 . S
O86 C85 1.216 . S
H87 C82 0.944 . S
H88 C83 0.930 . S
O89 Cu69 1.959 . S
O89 C76 1.251 . S
H90 C73 0.930 . S
H91 C84 0.929 . S
Cu92 N93 1.999 1_554 S
Cu92 O98 1.974 . S
Cu92 N103 1.985 1_545 S
Cu92 O112 1.959 1_544 S
N93 Cu92 1.999 1_556 S
N93 C95 1.263 . S
N93 C97 1.389 . S
N94 C95 1.358 . S
N94 C96 1.400 . S
C95 N93 1.263 . S
C95 N94 1.358 . S
C95 H101 0.930 . S
C96 N94 1.400 . S
C96 C97 1.351 . S
C96 H113 0.930 . S
C97 N93 1.389 . S
C97 C96 1.351 . S
C97 H102 0.930 . S
O98 Cu92 1.974 . S
O98 C108 1.282 . S
C99 O100 1.261 . S
C99 O112 1.251 . S
O100 C99 1.261 . S
H101 C95 0.930 . S
H102 C97 0.930 . S
N103 Cu92 1.985 1_565 S
N103 C105 1.335 . S
N103 C106 1.390 . S
N104 C105 1.345 . S
N104 C107 1.336 . S
C105 N103 1.335 . S
C105 N104 1.345 . S
C105 H110 0.930 . S
C106 N103 1.390 . S
C106 C107 1.346 . S
C106 H111 0.930 . S
C107 N104 1.336 . S
C107 C106 1.346 . S
C107 H114 0.929 . S
C108 O98 1.282 . S
C108 O109 1.216 . S
O109 C108 1.216 . S
H110 C105 0.930 . S
H111 C106 0.930 . S
O112 Cu92 1.959 1_566 S
O112 C99 1.251 . S
H113 C96 0.930 . S
H114 C107 0.929 . S
Cu115 N116 1.999 1_454 S
Cu115 O121 1.974 1_455 S
Cu115 N126 1.985 . S
Cu115 O135 1.959 1_554 S
N116 Cu115 1.999 1_656 S
N116 C118 1.263 . S
N116 C120 1.389 . S
N117 C118 1.358 . S
N117 C119 1.400 . S
C118 N116 1.263 . S
C118 N117 1.358 . S
C118 H124 0.930 . S
C119 N117 1.400 . S
C119 C120 1.351 . S
C119 H136 0.930 . S
C120 N116 1.389 . S
C120 C119 1.351 . S
C120 H125 0.930 1_655 S
O121 Cu115 1.974 1_655 S
O121 C131 1.282 . S
C122 O123 1.261 . S
C122 O135 1.251 . S
O123 C122 1.261 . S
H124 C118 0.930 . S
H125 C120 0.930 1_455 S
N126 Cu115 1.985 . S
N126 C128 1.335 . S
N126 C129 1.390 . S
N127 C128 1.345 . S
N127 C130 1.336 . S
C128 N126 1.335 . S
C128 N127 1.345 . S
C128 H133 0.930 . S
C129 N126 1.390 . S
C129 C130 1.346 . S
C129 H134 0.930 1_455 S
C130 N127 1.336 . S
C130 C129 1.346 . S
C130 H137 0.929 . S
C131 O121 1.282 . S
C131 O132 1.216 . S
O132 C131 1.216 . S
H133 C128 0.930 . S
H134 C129 0.930 1_655 S
O135 Cu115 1.959 1_556 S
O135 C122 1.251 . S
H136 C119 0.930 . S
H137 C130 0.929 . S
Cu138 N139 1.999 . S
Cu138 O144 1.974 . S
Cu138 N149 1.985 . S
Cu138 O158 1.959 . S
N139 Cu138 1.999 . S
N139 C141 1.263 . S
N139 C143 1.389 . S
N140 C141 1.358 . S
N140 C142 1.400 . S
C141 N139 1.263 . S
C141 N140 1.358 . S
C141 H147 0.930 . S
C142 N140 1.400 . S
C142 C143 1.351 . S
C142 H159 0.930 . S
C143 N139 1.389 . S
C143 C142 1.351 . S
C143 H148 0.930 1_556 S
O144 Cu138 1.974 . S
O144 C154 1.282 . S
C145 O146 1.261 . S
C145 O158 1.251 . S
O146 C145 1.261 . S
H147 C141 0.930 . S
H148 C143 0.930 1_554 S
N149 Cu138 1.985 . S
N149 C151 1.335 . S
N149 C152 1.390 . S
N150 C151 1.345 . S
N150 C153 1.336 . S
C151 N149 1.335 . S
C151 N150 1.345 . S
C151 H156 0.930 . S
C152 N149 1.390 . S
C152 C153 1.346 . S
C152 H157 0.930 . S
C153 N150 1.336 . S
C153 C152 1.346 . S
C153 H160 0.929 . S
C154 O144 1.282 . S
C154 O155 1.216 . S
O155 C154 1.216 . S
H156 C151 0.930 . S
H157 C152 0.930 . S
O158 Cu138 1.959 . S
O158 C145 1.251 . S
H159 C142 0.930 . S
H160 C153 0.929 . S
Cu161 N162 1.999 . S
Cu161 O167 1.974 . S
Cu161 N172 1.985 . S
Cu161 O181 1.959 . S
N162 Cu161 1.999 . S
N162 C164 1.263 . S
N162 C166 1.389 . S
N163 C164 1.358 . S
N163 C165 1.400 . S
C164 N162 1.263 . S
C164 N163 1.358 . S
C164 H170 0.930 . S
C165 N163 1.400 . S
C165 C166 1.351 . S
C165 H182 0.930 . S
C166 N162 1.389 . S
C166 C165 1.351 . S
C166 H171 0.930 . S
O167 Cu161 1.974 . S
O167 C177 1.282 . S
C168 O169 1.261 . S
C168 O181 1.251 . S
O169 C168 1.261 . S
H170 C164 0.930 . S
H171 C166 0.930 . S
N172 Cu161 1.985 . S
N172 C174 1.335 . S
N172 C175 1.390 . S
N173 C174 1.345 . S
N173 C176 1.336 . S
C174 N172 1.335 . S
C174 N173 1.345 . S
C174 H179 0.930 . S
C175 N172 1.390 . S
C175 C176 1.346 . S
C175 H180 0.930 . S
C176 N173 1.336 . S
C176 C175 1.346 . S
C176 H183 0.929 . S
C177 O167 1.282 . S
C177 O178 1.216 . S
O178 C177 1.216 . S
H179 C174 0.930 . S
H180 C175 0.930 . S
O181 Cu161 1.959 . S
O181 C168 1.251 . S
H182 C165 0.930 . S
H183 C176 0.929 . S
Cu184 N185 1.999 . S
Cu184 O190 1.974 . S
Cu184 N195 1.985 . S
Cu184 O204 1.959 . S
N185 Cu184 1.999 . S
N185 C187 1.263 . S
N185 C189 1.389 . S
N186 C187 1.358 . S
N186 C188 1.400 . S
C187 N185 1.263 . S
C187 N186 1.358 . S
C187 H193 0.930 . S
C188 N186 1.400 . S
C188 C189 1.351 . S
C188 H205 0.930 . S
C189 N185 1.389 . S
C189 C188 1.351 . S
C189 H194 0.930 . S
O190 Cu184 1.974 . S
O190 C200 1.282 . S
C191 O192 1.261 . S
C191 O204 1.251 . S
O192 C191 1.261 . S
H193 C187 0.930 . S
H194 C189 0.930 . S
N195 Cu184 1.985 . S
N195 C197 1.335 . S
N195 C198 1.390 . S
N196 C197 1.345 . S
N196 C199 1.336 . S
C197 N195 1.335 . S
C197 N196 1.345 . S
C197 H202 0.930 . S
C198 N195 1.390 . S
C198 C199 1.346 . S
C198 H203 0.930 . S
C199 N196 1.336 . S
C199 C198 1.346 . S
C199 H206 0.929 . S
C200 O190 1.282 . S
C200 O201 1.216 . S
O201 C200 1.216 . S
H202 C197 0.930 . S
H203 C198 0.930 . S
O204 Cu184 1.959 . S
O204 C191 1.251 . S
H205 C188 0.930 . S
H206 C199 0.929 . S
Cu207 N208 1.999 . S
Cu207 O213 1.974 . S
Cu207 N218 1.985 . S
Cu207 O227 1.959 . S
N208 Cu207 1.999 . S
N208 C210 1.263 . S
N208 C212 1.389 . S
N209 C210 1.358 . S
N209 C211 1.400 . S
C210 N208 1.263 . S
C210 N209 1.358 . S
C210 H216 0.930 . S
C211 N209 1.400 . S
C211 C212 1.351 . S
C211 H228 0.930 . S
C212 N208 1.389 . S
C212 C211 1.351 . S
C212 H217 0.930 . S
O213 Cu207 1.974 . S
O213 C223 1.282 . S
C214 O215 1.261 . S
C214 O227 1.251 . S
O215 C214 1.261 . S
H216 C210 0.930 . S
H217 C212 0.930 . S
N218 Cu207 1.985 . S
N218 C220 1.335 . S
N218 C221 1.390 . S
N219 C220 1.345 . S
N219 C222 1.336 . S
C220 N218 1.335 . S
C220 N219 1.345 . S
C220 H225 0.930 . S
C221 N218 1.390 . S
C221 C222 1.346 . S
C221 H226 0.930 . S
C222 N219 1.336 . S
C222 C221 1.346 . S
C222 H229 0.929 . S
C223 O213 1.282 . S
C223 O224 1.216 . S
O224 C223 1.216 . S
H225 C220 0.930 . S
H226 C221 0.930 . S
O227 Cu207 1.959 . S
O227 C214 1.251 . S
H228 C211 0.930 . S
H229 C222 0.929 . S
Cu230 N231 1.999 . S
Cu230 O236 1.974 . S
Cu230 N241 1.985 . S
Cu230 O250 1.959 . S
N231 Cu230 1.999 . S
N231 C233 1.263 . S
N231 C235 1.389 . S
N232 C233 1.358 . S
N232 C234 1.400 . S
C233 N231 1.263 . S
C233 N232 1.358 . S
C233 H239 0.930 . S
C234 N232 1.400 . S
C234 C235 1.351 . S
C234 H251 0.930 . S
C235 N231 1.389 . S
C235 C234 1.351 . S
C235 H240 0.930 . S
O236 Cu230 1.974 . S
O236 C246 1.282 . S
C237 O238 1.261 . S
C237 O250 1.251 . S
O238 C237 1.261 . S
H239 C233 0.930 . S
H240 C235 0.930 . S
N241 Cu230 1.985 . S
N241 C243 1.335 . S
N241 C244 1.390 . S
N242 C243 1.345 . S
N242 C245 1.336 . S
C243 N241 1.335 . S
C243 N242 1.345 . S
C243 H248 0.930 . S
C244 N241 1.390 . S
C244 C245 1.346 . S
C244 H249 0.930 . S
C245 N242 1.336 . S
C245 C244 1.346 . S
C245 H252 0.929 . S
C246 O236 1.282 . S
C246 O247 1.216 . S
O247 C246 1.216 . S
H248 C243 0.930 . S
H249 C244 0.930 . S
O250 Cu230 1.959 . S
O250 C237 1.251 . S
H251 C234 0.930 . S
H252 C245 0.929 . S
Cu253 N254 1.999 . S
Cu253 O259 1.974 . S
Cu253 N264 1.985 . S
Cu253 O273 1.959 . S
N254 Cu253 1.999 . S
N254 C256 1.263 . S
N254 C258 1.389 . S
N255 C256 1.358 . S
N255 C257 1.400 . S
C256 N254 1.263 . S
C256 N255 1.358 . S
C256 H262 0.930 . S
C257 N255 1.400 . S
C257 C258 1.351 . S
C257 H274 0.930 . S
C258 N254 1.389 . S
C258 C257 1.351 . S
C258 H263 0.930 . S
O259 Cu253 1.974 . S
O259 C269 1.282 . S
C260 O261 1.261 . S
C260 O273 1.251 . S
O261 C260 1.261 . S
H262 C256 0.930 . S
H263 C258 0.930 . S
N264 Cu253 1.985 . S
N264 C266 1.335 . S
N264 C267 1.390 . S
N265 C266 1.345 . S
N265 C268 1.336 . S
C266 N264 1.335 . S
C266 N265 1.345 . S
C266 H271 0.930 . S
C267 N264 1.390 . S
C267 C268 1.346 . S
C267 H272 0.930 . S
C268 N265 1.336 . S
C268 C267 1.346 . S
C268 H275 0.929 . S
C269 O259 1.282 . S
C269 O270 1.216 . S
O270 C269 1.216 . S
H271 C266 0.930 . S
H272 C267 0.930 . S
O273 Cu253 1.959 . S
O273 C260 1.251 . S
H274 C257 0.930 . S
H275 C268 0.929 . S
Gd276 C279 2.818 . S
Gd276 O296 2.377 . S
Gd276 O298 2.448 . S
Gd276 O299 2.506 . S
Gd276 O300 2.435 . S
Gd276 O301 2.717 . S
Gd276 O303 2.395 . S
Gd276 O307 2.327 . S
Gd277 C288 2.818 . S
Gd277 O297 2.395 . S
Gd277 O301 2.327 . S
Gd277 O302 2.377 . S
Gd277 O304 2.448 . S
Gd277 O305 2.506 . S
Gd277 O306 2.435 . S
Gd277 O307 2.717 . S
C278 O296 1.240 . S
C278 O297 1.240 . S
C279 Gd276 2.818 . S
C279 C280 1.510 . S
C279 O298 1.249 . S
C279 O299 1.252 . S
C280 C279 1.510 . S
C280 C281 1.404 . S
C280 C282 1.352 . S
C281 C280 1.404 . S
C281 C285 1.389 . S
C281 H308 0.930 . S
C282 C280 1.352 . S
C282 C284 1.374 . S
C282 H309 0.931 . S
C283 C284 1.359 . S
C283 C285 1.364 . S
C284 C282 1.374 . S
C284 C283 1.359 . S
C284 H310 0.931 . S
C285 C281 1.389 . S
C285 C283 1.364 . S
C285 H311 0.931 . S
C286 O300 1.256 . S
C286 O301 1.257 . S
C287 O302 1.240 . S
C287 O303 1.240 . S
C288 Gd277 2.818 . S
C288 C289 1.510 . S
C288 O304 1.249 . S
C288 O305 1.252 . S
C289 C288 1.510 . S
C289 C290 1.404 . S
C289 C291 1.352 . S
C290 C289 1.404 . S
C290 C294 1.389 . S
C290 H312 0.930 . S
C291 C289 1.352 . S
C291 C293 1.374 . S
C291 H313 0.931 . S
C292 C293 1.359 . S
C292 C294 1.364 . S
C293 C291 1.374 . S
C293 C292 1.359 . S
C293 H314 0.931 . S
C294 C290 1.389 . S
C294 C292 1.364 . S
C294 H315 0.931 . S
C295 O306 1.256 . S
C295 O307 1.257 . S
O296 Gd276 2.377 . S
O296 C278 1.240 . S
O297 Gd277 2.395 . S
O297 C278 1.240 . S
O298 Gd276 2.448 . S
O298 C279 1.249 . S
O299 Gd276 2.506 . S
O299 C279 1.252 . S
O300 Gd276 2.435 . S
O300 C286 1.256 . S
O301 Gd276 2.717 . S
O301 Gd277 2.327 . S
O301 C286 1.257 . S
O302 Gd277 2.377 . S
O302 C287 1.240 . S
O303 Gd276 2.395 . S
O303 C287 1.240 . S
O304 Gd277 2.448 . S
O304 C288 1.249 . S
O305 Gd277 2.506 . S
O305 C288 1.252 . S
O306 Gd277 2.435 . S
O306 C295 1.256 . S
O307 Gd276 2.327 . S
O307 Gd277 2.717 . S
O307 C295 1.257 . S
H308 C281 0.930 . S
H309 C282 0.931 . S
H310 C284 0.931 . S
H311 C285 0.931 . S
H312 C290 0.930 . S
H313 C291 0.931 . S
H314 C293 0.931 . S
H315 C294 0.931 . S
Gd316 C319 2.818 . S
Gd316 O336 2.377 . S
Gd316 O338 2.448 . S
Gd316 O339 2.506 . S
Gd316 O340 2.435 . S
Gd316 O341 2.717 . S
Gd316 O343 2.395 . S
Gd316 O347 2.327 . S
Gd317 C328 2.818 . S
Gd317 O337 2.395 . S
Gd317 O341 2.327 . S
Gd317 O342 2.377 . S
Gd317 O344 2.448 . S
Gd317 O345 2.506 . S
Gd317 O346 2.435 . S
Gd317 O347 2.717 . S
C318 O336 1.240 . S
C318 O337 1.240 . S
C319 Gd316 2.818 . S
C319 C320 1.510 . S
C319 O338 1.249 . S
C319 O339 1.252 . S
C320 C319 1.510 . S
C320 C321 1.404 . S
C320 C322 1.352 . S
C321 C320 1.404 . S
C321 C325 1.389 . S
C321 H348 0.930 . S
C322 C320 1.352 . S
C322 C324 1.374 . S
C322 H349 0.931 . S
C323 C324 1.359 . S
C323 C325 1.364 . S
C324 C322 1.374 . S
C324 C323 1.359 . S
C324 H350 0.931 . S
C325 C321 1.389 . S
C325 C323 1.364 . S
C325 H351 0.931 . S
C326 O340 1.256 . S
C326 O341 1.257 . S
C327 O342 1.240 . S
C327 O343 1.240 . S
C328 Gd317 2.818 . S
C328 C329 1.510 . S
C328 O344 1.249 . S
C328 O345 1.252 . S
C329 C328 1.510 . S
C329 C330 1.404 . S
C329 C331 1.352 . S
C330 C329 1.404 . S
C330 C334 1.389 . S
C330 H352 0.930 . S
C331 C329 1.352 . S
C331 C333 1.374 . S
C331 H353 0.931 . S
C332 C333 1.359 . S
C332 C334 1.364 . S
C333 C331 1.374 . S
C333 C332 1.359 . S
C333 H354 0.931 . S
C334 C330 1.389 . S
C334 C332 1.364 . S
C334 H355 0.931 . S
C335 O346 1.256 . S
C335 O347 1.257 . S
O336 Gd316 2.377 . S
O336 C318 1.240 . S
O337 Gd317 2.395 . S
O337 C318 1.240 . S
O338 Gd316 2.448 . S
O338 C319 1.249 . S
O339 Gd316 2.506 . S
O339 C319 1.252 . S
O340 Gd316 2.435 . S
O340 C326 1.256 . S
O341 Gd316 2.717 . S
O341 Gd317 2.327 . S
O341 C326 1.257 . S
O342 Gd317 2.377 . S
O342 C327 1.240 . S
O343 Gd316 2.395 . S
O343 C327 1.240 . S
O344 Gd317 2.448 . S
O344 C328 1.249 . S
O345 Gd317 2.506 . S
O345 C328 1.252 . S
O346 Gd317 2.435 . S
O346 C335 1.256 . S
O347 Gd316 2.327 . S
O347 Gd317 2.717 . S
O347 C335 1.257 . S
H348 C321 0.930 . S
H349 C322 0.931 . S
H350 C324 0.931 . S
H351 C325 0.931 . S
H352 C330 0.930 . S
H353 C331 0.931 . S
H354 C333 0.931 . S
H355 C334 0.931 . S
Gd356 C359 2.818 . S
Gd356 O376 2.377 . S
Gd356 O378 2.448 . S
Gd356 O379 2.506 . S
Gd356 O380 2.435 . S
Gd356 O381 2.717 . S
Gd356 O383 2.395 . S
Gd356 O387 2.327 . S
Gd357 C368 2.818 . S
Gd357 O377 2.395 . S
Gd357 O381 2.327 . S
Gd357 O382 2.377 . S
Gd357 O384 2.448 . S
Gd357 O385 2.506 . S
Gd357 O386 2.435 . S
Gd357 O387 2.717 . S
C358 O376 1.240 . S
C358 O377 1.240 . S
C359 Gd356 2.818 . S
C359 C360 1.510 . S
C359 O378 1.249 . S
C359 O379 1.252 . S
C360 C359 1.510 . S
C360 C361 1.404 . S
C360 C362 1.352 . S
C361 C360 1.404 . S
C361 C365 1.389 . S
C361 H388 0.930 . S
C362 C360 1.352 . S
C362 C364 1.374 . S
C362 H389 0.931 . S
C363 C364 1.359 . S
C363 C365 1.364 . S
C364 C362 1.374 . S
C364 C363 1.359 . S
C364 H390 0.931 . S
C365 C361 1.389 . S
C365 C363 1.364 . S
C365 H391 0.931 . S
C366 O380 1.256 . S
C366 O381 1.257 . S
C367 O382 1.240 . S
C367 O383 1.240 . S
C368 Gd357 2.818 . S
C368 C369 1.510 . S
C368 O384 1.249 . S
C368 O385 1.252 . S
C369 C368 1.510 . S
C369 C370 1.404 . S
C369 C371 1.352 . S
C370 C369 1.404 . S
C370 C374 1.389 . S
C370 H392 0.930 . S
C371 C369 1.352 . S
C371 C373 1.374 . S
C371 H393 0.931 . S
C372 C373 1.359 . S
C372 C374 1.364 . S
C373 C371 1.374 . S
C373 C372 1.359 . S
C373 H394 0.931 . S
C374 C370 1.389 . S
C374 C372 1.364 . S
C374 H395 0.931 . S
C375 O386 1.256 . S
C375 O387 1.257 . S
O376 Gd356 2.377 . S
O376 C358 1.240 . S
O377 Gd357 2.395 . S
O377 C358 1.240 . S
O378 Gd356 2.448 . S
O378 C359 1.249 . S
O379 Gd356 2.506 . S
O379 C359 1.252 . S
O380 Gd356 2.435 . S
O380 C366 1.256 . S
O381 Gd356 2.717 . S
O381 Gd357 2.327 . S
O381 C366 1.257 . S
O382 Gd357 2.377 . S
O382 C367 1.240 . S
O383 Gd356 2.395 . S
O383 C367 1.240 . S
O384 Gd357 2.448 . S
O384 C368 1.249 . S
O385 Gd357 2.506 . S
O385 C368 1.252 . S
O386 Gd357 2.435 . S
O386 C375 1.256 . S
O387 Gd356 2.327 . S
O387 Gd357 2.717 . S
O387 C375 1.257 . S
H388 C361 0.930 . S
H389 C362 0.931 . S
H390 C364 0.931 . S
H391 C365 0.931 . S
H392 C370 0.930 . S
H393 C371 0.931 . S
H394 C373 0.931 . S
H395 C374 0.931 . S
Gd396 C399 2.818 . S
Gd396 O416 2.377 . S
Gd396 O418 2.448 . S
Gd396 O419 2.506 . S
Gd396 O420 2.435 . S
Gd396 O421 2.717 . S
Gd396 O423 2.395 . S
Gd396 O427 2.327 . S
Gd397 C408 2.818 . S
Gd397 O417 2.395 . S
Gd397 O421 2.327 . S
Gd397 O422 2.377 . S
Gd397 O424 2.448 . S
Gd397 O425 2.506 . S
Gd397 O426 2.435 . S
Gd397 O427 2.717 . S
C398 O416 1.240 . S
C398 O417 1.240 . S
C399 Gd396 2.818 . S
C399 C400 1.510 . S
C399 O418 1.249 . S
C399 O419 1.252 . S
C400 C399 1.510 . S
C400 C401 1.404 . S
C400 C402 1.352 . S
C401 C400 1.404 . S
C401 C405 1.389 . S
C401 H428 0.930 . S
C402 C400 1.352 . S
C402 C404 1.374 . S
C402 H429 0.931 . S
C403 C404 1.359 . S
C403 C405 1.364 . S
C404 C402 1.374 . S
C404 C403 1.359 . S
C404 H430 0.931 . S
C405 C401 1.389 . S
C405 C403 1.364 . S
C405 H431 0.931 . S
C406 O420 1.256 . S
C406 O421 1.257 . S
C407 O422 1.240 . S
C407 O423 1.240 . S
C408 Gd397 2.818 . S
C408 C409 1.510 . S
C408 O424 1.249 . S
C408 O425 1.252 . S
C409 C408 1.510 . S
C409 C410 1.404 . S
C409 C411 1.352 . S
C410 C409 1.404 . S
C410 C414 1.389 . S
C410 H432 0.930 . S
C411 C409 1.352 . S
C411 C413 1.374 . S
C411 H433 0.931 . S
C412 C413 1.359 . S
C412 C414 1.364 . S
C413 C411 1.374 . S
C413 C412 1.359 . S
C413 H434 0.931 . S
C414 C410 1.389 . S
C414 C412 1.364 . S
C414 H435 0.931 . S
C415 O426 1.256 . S
C415 O427 1.257 . S
O416 Gd396 2.377 . S
O416 C398 1.240 . S
O417 Gd397 2.395 . S
O417 C398 1.240 . S
O418 Gd396 2.448 . S
O418 C399 1.249 . S
O419 Gd396 2.506 . S
O419 C399 1.252 . S
O420 Gd396 2.435 . S
O420 C406 1.256 . S
O421 Gd396 2.717 . S
O421 Gd397 2.327 . S
O421 C406 1.257 . S
O422 Gd397 2.377 . S
O422 C407 1.240 . S
O423 Gd396 2.395 . S
O423 C407 1.240 . S
O424 Gd397 2.448 . S
O424 C408 1.249 . S
O425 Gd397 2.506 . S
O425 C408 1.252 . S
O426 Gd397 2.435 . S
O426 C415 1.256 . S
O427 Gd396 2.327 . S
O427 Gd397 2.717 . S
O427 C415 1.257 . S
H428 C401 0.930 . S
H429 C402 0.931 . S
H430 C404 0.931 . S
H431 C405 0.931 . S
H432 C410 0.930 . S
H433 C411 0.931 . S
H434 C413 0.931 . S
H435 C414 0.931 . S
Gd436 C439 2.818 . S
Gd436 O456 2.377 . S
Gd436 O458 2.448 . S
Gd436 O459 2.506 . S
Gd436 O460 2.435 . S
Gd436 O461 2.717 . S
Gd436 O463 2.395 . S
Gd436 O467 2.327 . S
Gd437 C448 2.818 . S
Gd437 O457 2.395 . S
Gd437 O461 2.327 . S
Gd437 O462 2.377 . S
Gd437 O464 2.448 . S
Gd437 O465 2.506 . S
Gd437 O466 2.435 . S
Gd437 O467 2.717 . S
C438 O456 1.240 . S
C438 O457 1.240 . S
C439 Gd436 2.818 . S
C439 C440 1.510 . S
C439 O458 1.249 . S
C439 O459 1.252 . S
C440 C439 1.510 . S
C440 C441 1.404 . S
C440 C442 1.352 . S
C441 C440 1.404 . S
C441 C445 1.389 . S
C441 H468 0.930 . S
C442 C440 1.352 . S
C442 C444 1.374 . S
C442 H469 0.931 . S
C443 C444 1.359 . S
C443 C445 1.364 . S
C444 C442 1.374 . S
C444 C443 1.359 . S
C444 H470 0.931 . S
C445 C441 1.389 . S
C445 C443 1.364 . S
C445 H471 0.931 1_556 S
C446 O460 1.256 . S
C446 O461 1.257 . S
C447 O462 1.240 . S
C447 O463 1.240 . S
C448 Gd437 2.818 . S
C448 C449 1.510 . S
C448 O464 1.249 . S
C448 O465 1.252 . S
C449 C448 1.510 . S
C449 C450 1.404 . S
C449 C451 1.352 . S
C450 C449 1.404 . S
C450 C454 1.389 . S
C450 H472 0.930 . S
C451 C449 1.352 . S
C451 C453 1.374 . S
C451 H473 0.931 . S
C452 C453 1.359 . S
C452 C454 1.364 . S
C453 C451 1.374 . S
C453 C452 1.359 . S
C453 H474 0.931 . S
C454 C450 1.389 . S
C454 C452 1.364 . S
C454 H475 0.931 . S
C455 O466 1.256 . S
C455 O467 1.257 . S
O456 Gd436 2.377 . S
O456 C438 1.240 . S
O457 Gd437 2.395 . S
O457 C438 1.240 . S
O458 Gd436 2.448 . S
O458 C439 1.249 . S
O459 Gd436 2.506 . S
O459 C439 1.252 . S
O460 Gd436 2.435 . S
O460 C446 1.256 . S
O461 Gd436 2.717 . S
O461 Gd437 2.327 . S
O461 C446 1.257 . S
O462 Gd437 2.377 . S
O462 C447 1.240 . S
O463 Gd436 2.395 . S
O463 C447 1.240 . S
O464 Gd437 2.448 . S
O464 C448 1.249 . S
O465 Gd437 2.506 . S
O465 C448 1.252 . S
O466 Gd437 2.435 . S
O466 C455 1.256 . S
O467 Gd436 2.327 . S
O467 Gd437 2.717 . S
O467 C455 1.257 . S
H468 C441 0.930 . S
H469 C442 0.931 . S
H470 C444 0.931 . S
H471 C445 0.931 1_554 S
H472 C450 0.930 . S
H473 C451 0.931 . S
H474 C453 0.931 . S
H475 C454 0.931 . S
Gd476 C479 2.818 . S
Gd476 O496 2.377 . S
Gd476 O498 2.448 . S
Gd476 O499 2.506 . S
Gd476 O500 2.435 . S
Gd476 O501 2.717 . S
Gd476 O503 2.395 . S
Gd476 O507 2.327 . S
Gd477 C488 2.818 . S
Gd477 O497 2.395 . S
Gd477 O501 2.327 . S
Gd477 O502 2.377 . S
Gd477 O504 2.448 . S
Gd477 O505 2.506 . S
Gd477 O506 2.435 . S
Gd477 O507 2.717 . S
C478 O496 1.240 . S
C478 O497 1.240 . S
C479 Gd476 2.818 . S
C479 C480 1.510 . S
C479 O498 1.249 . S
C479 O499 1.252 . S
C480 C479 1.510 . S
C480 C481 1.404 . S
C480 C482 1.352 . S
C481 C480 1.404 . S
C481 C485 1.389 . S
C481 H508 0.930 . S
C482 C480 1.352 . S
C482 C484 1.374 . S
C482 H509 0.931 . S
C483 C484 1.359 . S
C483 C485 1.364 . S
C484 C482 1.374 . S
C484 C483 1.359 . S
C484 H510 0.931 . S
C485 C481 1.389 . S
C485 C483 1.364 . S
C485 H511 0.931 . S
C486 O500 1.256 . S
C486 O501 1.257 . S
C487 O502 1.240 . S
C487 O503 1.240 . S
C488 Gd477 2.818 . S
C488 C489 1.510 . S
C488 O504 1.249 . S
C488 O505 1.252 . S
C489 C488 1.510 . S
C489 C490 1.404 . S
C489 C491 1.352 . S
C490 C489 1.404 . S
C490 C494 1.389 . S
C490 H512 0.930 . S
C491 C489 1.352 . S
C491 C493 1.374 . S
C491 H513 0.931 . S
C492 C493 1.359 . S
C492 C494 1.364 . S
C493 C491 1.374 . S
C493 C492 1.359 . S
C493 H514 0.931 . S
C494 C490 1.389 . S
C494 C492 1.364 . S
C494 H515 0.931 . S
C495 O506 1.256 . S
C495 O507 1.257 . S
O496 Gd476 2.377 . S
O496 C478 1.240 . S
O497 Gd477 2.395 . S
O497 C478 1.240 . S
O498 Gd476 2.448 . S
O498 C479 1.249 . S
O499 Gd476 2.506 . S
O499 C479 1.252 . S
O500 Gd476 2.435 . S
O500 C486 1.256 . S
O501 Gd476 2.717 . S
O501 Gd477 2.327 . S
O501 C486 1.257 . S
O502 Gd477 2.377 . S
O502 C487 1.240 . S
O503 Gd476 2.395 . S
O503 C487 1.240 . S
O504 Gd477 2.448 . S
O504 C488 1.249 . S
O505 Gd477 2.506 . S
O505 C488 1.252 . S
O506 Gd477 2.435 . S
O506 C495 1.256 . S
O507 Gd476 2.327 . S
O507 Gd477 2.717 . S
O507 C495 1.257 . S
H508 C481 0.930 . S
H509 C482 0.931 . S
H510 C484 0.931 . S
H511 C485 0.931 . S
H512 C490 0.930 . S
H513 C491 0.931 . S
H514 C493 0.931 . S
H515 C494 0.931 . S
Gd516 C519 2.818 . S
Gd516 O536 2.377 . S
Gd516 O538 2.448 . S
Gd516 O539 2.506 . S
Gd516 O540 2.435 . S
Gd516 O541 2.717 . S
Gd516 O543 2.395 . S
Gd516 O547 2.327 . S
Gd517 C528 2.818 . S
Gd517 O537 2.395 . S
Gd517 O541 2.327 . S
Gd517 O542 2.377 . S
Gd517 O544 2.448 . S
Gd517 O545 2.506 . S
Gd517 O546 2.435 . S
Gd517 O547 2.717 . S
C518 O536 1.240 . S
C518 O537 1.240 . S
C519 Gd516 2.818 . S
C519 C520 1.510 . S
C519 O538 1.249 . S
C519 O539 1.252 . S
C520 C519 1.510 . S
C520 C521 1.404 . S
C520 C522 1.352 . S
C521 C520 1.404 . S
C521 C525 1.389 . S
C521 H548 0.930 . S
C522 C520 1.352 . S
C522 C524 1.374 . S
C522 H549 0.931 . S
C523 C524 1.359 . S
C523 C525 1.364 . S
C524 C522 1.374 . S
C524 C523 1.359 . S
C524 H550 0.931 . S
C525 C521 1.389 . S
C525 C523 1.364 . S
C525 H551 0.931 . S
C526 O540 1.256 . S
C526 O541 1.257 . S
C527 O542 1.240 . S
C527 O543 1.240 . S
C528 Gd517 2.818 . S
C528 C529 1.510 . S
C528 O544 1.249 . S
C528 O545 1.252 . S
C529 C528 1.510 . S
C529 C530 1.404 . S
C529 C531 1.352 . S
C530 C529 1.404 . S
C530 C534 1.389 . S
C530 H552 0.930 . S
C531 C529 1.352 . S
C531 C533 1.374 . S
C531 H553 0.931 . S
C532 C533 1.359 . S
C532 C534 1.364 . S
C533 C531 1.374 . S
C533 C532 1.359 . S
C533 H554 0.931 . S
C534 C530 1.389 . S
C534 C532 1.364 . S
C534 H555 0.931 1_556 S
C535 O546 1.256 . S
C535 O547 1.257 . S
O536 Gd516 2.377 . S
O536 C518 1.240 . S
O537 Gd517 2.395 . S
O537 C518 1.240 . S
O538 Gd516 2.448 . S
O538 C519 1.249 . S
O539 Gd516 2.506 . S
O539 C519 1.252 . S
O540 Gd516 2.435 . S
O540 C526 1.256 . S
O541 Gd516 2.717 . S
O541 Gd517 2.327 . S
O541 C526 1.257 . S
O542 Gd517 2.377 . S
O542 C527 1.240 . S
O543 Gd516 2.395 . S
O543 C527 1.240 . S
O544 Gd517 2.448 . S
O544 C528 1.249 . S
O545 Gd517 2.506 . S
O545 C528 1.252 . S
O546 Gd517 2.435 . S
O546 C535 1.256 . S
O547 Gd516 2.327 . S
O547 Gd517 2.717 . S
O547 C535 1.257 . S
H548 C521 0.930 . S
H549 C522 0.931 . S
H550 C524 0.931 . S
H551 C525 0.931 . S
H552 C530 0.930 . S
H553 C531 0.931 . S
H554 C533 0.931 . S
H555 C534 0.931 1_554 S
Gd556 C559 2.818 . S
Gd556 O576 2.377 . S
Gd556 O578 2.448 . S
Gd556 O579 2.506 . S
Gd556 O580 2.435 . S
Gd556 O581 2.717 . S
Gd556 O583 2.395 . S
Gd556 O587 2.327 . S
Gd557 C568 2.818 . S
Gd557 O577 2.395 . S
Gd557 O581 2.327 . S
Gd557 O582 2.377 . S
Gd557 O584 2.448 . S
Gd557 O585 2.506 . S
Gd557 O586 2.435 . S
Gd557 O587 2.717 . S
C558 O576 1.240 . S
C558 O577 1.240 . S
C559 Gd556 2.818 . S
C559 C560 1.510 . S
C559 O578 1.249 . S
C559 O579 1.252 . S
C560 C559 1.510 . S
C560 C561 1.404 . S
C560 C562 1.352 . S
C561 C560 1.404 . S
C561 C565 1.389 . S
C561 H588 0.930 . S
C562 C560 1.352 . S
C562 C564 1.374 . S
C562 H589 0.931 . S
C563 C564 1.359 . S
C563 C565 1.364 . S
C564 C562 1.374 . S
C564 C563 1.359 . S
C564 H590 0.931 . S
C565 C561 1.389 . S
C565 C563 1.364 . S
C565 H591 0.931 . S
C566 O580 1.256 . S
C566 O581 1.257 . S
C567 O582 1.240 . S
C567 O583 1.240 . S
C568 Gd557 2.818 . S
C568 C569 1.510 . S
C568 O584 1.249 . S
C568 O585 1.252 . S
C569 C568 1.510 . S
C569 C570 1.404 . S
C569 C571 1.352 . S
C570 C569 1.404 . S
C570 C574 1.389 . S
C570 H592 0.930 . S
C571 C569 1.352 . S
C571 C573 1.374 . S
C571 H593 0.931 . S
C572 C573 1.359 . S
C572 C574 1.364 . S
C573 C571 1.374 . S
C573 C572 1.359 . S
C573 H594 0.931 . S
C574 C570 1.389 . S
C574 C572 1.364 . S
C574 H595 0.931 . S
C575 O586 1.256 . S
C575 O587 1.257 . S
O576 Gd556 2.377 . S
O576 C558 1.240 . S
O577 Gd557 2.395 . S
O577 C558 1.240 . S
O578 Gd556 2.448 . S
O578 C559 1.249 . S
O579 Gd556 2.506 . S
O579 C559 1.252 . S
O580 Gd556 2.435 . S
O580 C566 1.256 . S
O581 Gd556 2.717 . S
O581 Gd557 2.327 . S
O581 C566 1.257 . S
O582 Gd557 2.377 . S
O582 C567 1.240 . S
O583 Gd556 2.395 . S
O583 C567 1.240 . S
O584 Gd557 2.448 . S
O584 C568 1.249 . S
O585 Gd557 2.506 . S
O585 C568 1.252 . S
O586 Gd557 2.435 . S
O586 C575 1.256 . S
O587 Gd556 2.327 . S
O587 Gd557 2.717 . S
O587 C575 1.257 . S
H588 C561 0.930 . S
H589 C562 0.931 . S
H590 C564 0.931 . S
H591 C565 0.931 . S
H592 C570 0.930 . S
H593 C571 0.931 . S
H594 C573 0.931 . S
H595 C574 0.931 . S
C596 C597 1.369 . S
C596 C598 1.419 . S
C596 H600 0.930 . S
C597 C596 1.369 . S
C597 C606 1.429 . S
C598 C596 1.419 . S
C598 C599 1.363 . S
C598 H601 0.929 . S
C599 C598 1.363 . S
C599 C605 1.428 . S
H600 C596 0.930 . S
H601 C598 0.929 . S
S602 N603 1.613 . S
S602 N604 1.610 . S
N603 S602 1.613 . S
N603 C606 1.350 . S
N604 S602 1.610 . S
N604 C605 1.351 . S
C605 C599 1.428 . S
C605 N604 1.351 . S
C605 C606 1.434 . S
C606 C597 1.429 . S
C606 N603 1.350 . S
C606 C605 1.434 . S
C607 C608 1.369 . S
C607 C609 1.419 . S
C607 H611 0.930 . S
C608 C607 1.369 . S
C608 C617 1.429 . S
C609 C607 1.419 . S
C609 C610 1.363 . S
C609 H612 0.929 . S
C610 C609 1.363 . S
C610 C616 1.428 . S
H611 C607 0.930 . S
H612 C609 0.929 . S
S613 N614 1.613 . S
S613 N615 1.610 . S
N614 S613 1.613 . S
N614 C617 1.350 . S
N615 S613 1.610 . S
N615 C616 1.351 . S
C616 C610 1.428 . S
C616 N615 1.351 . S
C616 C617 1.434 . S
C617 C608 1.429 . S
C617 N614 1.350 . S
C617 C616 1.434 . S
C618 C619 1.369 . S
C618 C620 1.419 . S
C618 H622 0.930 1_655 S
C619 C618 1.369 . S
C619 C628 1.429 . S
C620 C618 1.419 . S
C620 C621 1.363 . S
C620 H623 0.929 1_655 S
C621 C620 1.363 . S
C621 C627 1.428 . S
H622 C618 0.930 1_455 S
H623 C620 0.929 1_455 S
S624 N625 1.613 . S
S624 N626 1.610 . S
N625 S624 1.613 . S
N625 C628 1.350 . S
N626 S624 1.610 . S
N626 C627 1.351 . S
C627 C621 1.428 . S
C627 N626 1.351 . S
C627 C628 1.434 . S
C628 C619 1.429 . S
C628 N625 1.350 . S
C628 C627 1.434 . S
C629 C630 1.369 . S
C629 C631 1.419 . S
C629 H633 0.930 . S
C630 C629 1.369 . S
C630 C639 1.429 . S
C631 C629 1.419 . S
C631 C632 1.363 . S
C631 H634 0.929 . S
C632 C631 1.363 . S
C632 C638 1.428 . S
H633 C629 0.930 . S
H634 C631 0.929 . S
S635 N636 1.613 . S
S635 N637 1.610 . S
N636 S635 1.613 . S
N636 C639 1.350 . S
N637 S635 1.610 . S
N637 C638 1.351 . S
C638 C632 1.428 . S
C638 N637 1.351 . S
C638 C639 1.434 . S
C639 C630 1.429 . S
C639 N636 1.350 . S
C639 C638 1.434 . S
C640 C641 1.369 . S
C640 C642 1.419 . S
C640 H644 0.930 . S
C641 C640 1.369 . S
C641 C650 1.429 . S
C642 C640 1.419 . S
C642 C643 1.363 . S
C642 H645 0.929 . S
C643 C642 1.363 . S
C643 C649 1.428 . S
H644 C640 0.930 . S
H645 C642 0.929 . S
S646 N647 1.613 . S
S646 N648 1.610 . S
N647 S646 1.613 . S
N647 C650 1.350 . S
N648 S646 1.610 . S
N648 C649 1.351 . S
C649 C643 1.428 . S
C649 N648 1.351 . S
C649 C650 1.434 . S
C650 C641 1.429 . S
C650 N647 1.350 . S
C650 C649 1.434 . S
C651 C652 1.369 . S
C651 C653 1.419 . S
C651 H655 0.930 . S
C652 C651 1.369 . S
C652 C661 1.429 . S
C653 C651 1.419 . S
C653 C654 1.363 . S
C653 H656 0.929 . S
C654 C653 1.363 . S
C654 C660 1.428 . S
H655 C651 0.930 . S
H656 C653 0.929 . S
S657 N658 1.613 . S
S657 N659 1.610 . S
N658 S657 1.613 . S
N658 C661 1.350 . S
N659 S657 1.610 . S
N659 C660 1.351 . S
C660 C654 1.428 . S
C660 N659 1.351 . S
C660 C661 1.434 . S
C661 C652 1.429 . S
C661 N658 1.350 . S
C661 C660 1.434 . S
C662 C663 1.369 . S
C662 C664 1.419 . S
C662 H666 0.930 . S
C663 C662 1.369 . S
C663 C672 1.429 . S
C664 C662 1.419 . S
C664 C665 1.363 . S
C664 H667 0.929 . S
C665 C664 1.363 . S
C665 C671 1.428 . S
H666 C662 0.930 . S
H667 C664 0.929 . S
S668 N669 1.613 . S
S668 N670 1.610 . S
N669 S668 1.613 . S
N669 C672 1.350 . S
N670 S668 1.610 . S
N670 C671 1.351 . S
C671 C665 1.428 . S
C671 N670 1.351 . S
C671 C672 1.434 . S
C672 C663 1.429 . S
C672 N669 1.350 . S
C672 C671 1.434 . S
C673 C674 1.369 . S
C673 C675 1.419 . S
C673 H677 0.930 . S
C674 C673 1.369 . S
C674 C683 1.429 1_545 S
C675 C673 1.419 . S
C675 C676 1.363 1_545 S
C675 H678 0.929 . S
C676 C675 1.363 1_565 S
C676 C682 1.428 . S
H677 C673 0.930 . S
H678 C675 0.929 . S
S679 N680 1.613 . S
S679 N681 1.610 . S
N680 S679 1.613 . S
N680 C683 1.350 . S
N681 S679 1.610 . S
N681 C682 1.351 . S
C682 C676 1.428 . S
C682 N681 1.351 . S
C682 C683 1.434 . S
C683 C674 1.429 1_565 S
C683 N680 1.350 . S
C683 C682 1.434 . S
C684 C685 1.369 . S
C684 C686 1.419 . S
C684 H688 0.930 . S
C685 C684 1.369 . S
C685 C694 1.429 . S
C686 C684 1.419 . S
C686 C687 1.363 . S
C686 H689 0.929 . S
C687 C686 1.363 . S
C687 C693 1.428 . S
H688 C684 0.930 . S
H689 C686 0.929 . S
S690 N691 1.613 . S
S690 N692 1.610 . S
N691 S690 1.613 . S
N691 C694 1.350 . S
N692 S690 1.610 . S
N692 C693 1.351 . S
C693 C687 1.428 . S
C693 N692 1.351 . S
C693 C694 1.434 . S
C694 C685 1.429 . S
C694 N691 1.350 . S
C694 C693 1.434 . S
C695 C696 1.369 . S
C695 C697 1.419 . S
C695 H699 0.930 . S
C696 C695 1.369 . S
C696 C705 1.429 . S
C697 C695 1.419 . S
C697 C698 1.363 . S
C697 H700 0.929 . S
C698 C697 1.363 . S
C698 C704 1.428 . S
H699 C695 0.930 . S
H700 C697 0.929 . S
S701 N702 1.613 . S
S701 N703 1.610 . S
N702 S701 1.613 . S
N702 C705 1.350 . S
N703 S701 1.610 . S
N703 C704 1.351 . S
C704 C698 1.428 . S
C704 N703 1.351 . S
C704 C705 1.434 . S
C705 C696 1.429 . S
C705 N702 1.350 . S
C705 C704 1.434 . S
C706 C707 1.369 . S
C706 C708 1.419 . S
C706 H710 0.930 . S
C707 C706 1.369 . S
C707 C716 1.429 . S
C708 C706 1.419 . S
C708 C709 1.363 . S
C708 H711 0.929 . S
C709 C708 1.363 . S
C709 C715 1.428 . S
H710 C706 0.930 . S
H711 C708 0.929 . S
S712 N713 1.613 . S
S712 N714 1.610 . S
N713 S712 1.613 . S
N713 C716 1.350 . S
N714 S712 1.610 . S
N714 C715 1.351 . S
C715 C709 1.428 . S
C715 N714 1.351 . S
C715 C716 1.434 . S
C716 C707 1.429 . S
C716 N713 1.350 . S
C716 C715 1.434 . S
C717 C718 1.369 . S
C717 C719 1.419 . S
C717 H721 0.930 . S
C718 C717 1.369 . S
C718 C727 1.429 . S
C719 C717 1.419 . S
C719 C720 1.363 . S
C719 H722 0.929 . S
C720 C719 1.363 . S
C720 C726 1.428 . S
H721 C717 0.930 . S
H722 C719 0.929 . S
S723 N724 1.613 . S
S723 N725 1.610 . S
N724 S723 1.613 . S
N724 C727 1.350 . S
N725 S723 1.610 . S
N725 C726 1.351 . S
C726 C720 1.428 . S
C726 N725 1.351 . S
C726 C727 1.434 . S
C727 C718 1.429 . S
C727 N724 1.350 . S
C727 C726 1.434 . S
C728 C729 1.369 . S
C728 C730 1.431 . S
C728 H732 0.930 . S
C729 C728 1.369 . S
C729 C738 1.429 1_545 S
C730 C728 1.431 . S
C730 C731 1.352 1_545 S
C730 H733 0.928 . S
C731 C730 1.352 1_565 S
C731 C737 1.428 . S
H732 C728 0.930 . S
H733 C730 0.928 . S
S734 N735 1.613 1_556 S
S734 N736 1.610 . S
N735 S734 1.613 1_554 S
N735 C738 1.350 . S
N736 S734 1.610 . S
N736 C737 1.351 1_556 S
C737 C731 1.428 . S
C737 N736 1.351 1_554 S
C737 C738 1.434 . S
C738 C729 1.429 1_565 S
C738 N735 1.350 . S
C738 C737 1.434 . S
C739 C740 1.369 . S
C739 C741 1.419 . S
C739 H743 0.930 . S
C740 C739 1.369 . S
C740 C749 1.429 . S
C741 C739 1.419 . S
C741 C742 1.363 . S
C741 H744 0.929 . S
C742 C741 1.363 . S
C742 C748 1.428 . S
H743 C739 0.930 . S
H744 C741 0.929 . S
S745 N746 1.613 . S
S745 N747 1.610 . S
N746 S745 1.613 . S
N746 C749 1.350 . S
N747 S745 1.610 . S
N747 C748 1.351 . S
C748 C742 1.428 . S
C748 N747 1.351 . S
C748 C749 1.434 . S
C749 C740 1.429 . S
C749 N746 1.350 . S
C749 C748 1.434 . S
C750 C751 1.369 . S
C750 C752 1.419 . S
C750 H754 0.930 . S
C751 C750 1.369 . S
C751 C760 1.429 . S
C752 C750 1.419 . S
C752 C753 1.363 . S
C752 H755 0.929 . S
C753 C752 1.363 . S
C753 C759 1.428 . S
H754 C750 0.930 . S
H755 C752 0.929 . S
S756 N757 1.613 . S
S756 N758 1.610 . S
N757 S756 1.613 . S
N757 C760 1.350 . S
N758 S756 1.610 . S
N758 C759 1.351 . S
C759 C753 1.428 . S
C759 N758 1.351 . S
C759 C760 1.434 . S
C760 C751 1.429 . S
C760 N757 1.350 . S
C760 C759 1.434 . S
C761 C762 1.369 . S
C761 C763 1.419 . S
C761 H765 0.930 . S
C762 C761 1.369 . S
C762 C771 1.429 . S
C763 C761 1.419 . S
C763 C764 1.363 . S
C763 H766 0.929 . S
C764 C763 1.363 . S
C764 C770 1.428 . S
H765 C761 0.930 . S
H766 C763 0.929 . S
S767 N768 1.613 . S
S767 N769 1.610 . S
N768 S767 1.613 . S
N768 C771 1.350 . S
N769 S767 1.610 . S
N769 C770 1.351 . S
C770 C764 1.428 . S
C770 N769 1.351 . S
C770 C771 1.434 . S
C771 C762 1.429 . S
C771 N768 1.350 . S
C771 C770 1.434 . S
C772 C773 1.369 . S
C772 C774 1.419 . S
C772 H776 0.930 . S
C773 C772 1.369 . S
C773 C782 1.429 . S
C774 C772 1.419 . S
C774 C775 1.363 . S
C774 H777 0.929 . S
C775 C774 1.363 . S
C775 C781 1.428 . S
H776 C772 0.930 . S
H777 C774 0.929 . S
S778 N779 1.613 . S
S778 N780 1.610 . S
N779 S778 1.613 . S
N779 C782 1.350 . S
N780 S778 1.610 . S
N780 C781 1.351 . S
C781 C775 1.428 . S
C781 N780 1.351 . S
C781 C782 1.434 . S
C782 C773 1.429 . S
C782 N779 1.350 . S
C782 C781 1.434 . S
C783 C784 1.369 . S
C783 C785 1.419 . S
C783 H787 0.930 . S
C784 C783 1.369 . S
C784 C793 1.429 . S
C785 C783 1.419 . S
C785 C786 1.363 . S
C785 H788 0.929 . S
C786 C785 1.363 . S
C786 C792 1.428 . S
H787 C783 0.930 . S
H788 C785 0.929 . S
S789 N790 1.613 . S
S789 N791 1.610 . S
N790 S789 1.613 . S
N790 C793 1.350 . S
N791 S789 1.610 . S
N791 C792 1.351 . S
C792 C786 1.428 . S
C792 N791 1.351 . S
C792 C793 1.434 . S
C793 C784 1.429 . S
C793 N790 1.350 . S
C793 C792 1.434 . S
C794 C795 1.369 1_556 S
C794 C796 1.419 . S
C794 H798 0.930 . S
C795 C794 1.369 1_554 S
C795 C804 1.429 1_554 S
C796 C794 1.419 . S
C796 C797 1.363 . S
C796 H799 0.929 . S
C797 C796 1.363 . S
C797 C803 1.428 . S
H798 C794 0.930 . S
H799 C796 0.929 . S
S800 N801 1.613 1_556 S
S800 N802 1.610 . S
N801 S800 1.613 1_554 S
N801 C804 1.350 1_554 S
N802 S800 1.610 . S
N802 C803 1.351 . S
C803 C797 1.428 . S
C803 N802 1.351 . S
C803 C804 1.434 . S
C804 C795 1.429 1_556 S
C804 N801 1.350 1_556 S
C804 C803 1.434 . S
C805 C806 1.369 1_655 S
C805 C807 1.419 . S
C805 H809 0.930 . S
C806 C805 1.369 1_455 S
C806 C815 1.429 1_554 S
C807 C805 1.419 . S
C807 C808 1.363 . S
C807 H810 0.929 . S
C808 C807 1.363 . S
C808 C814 1.428 1_554 S
H809 C805 0.930 . S
H810 C807 0.929 . S
S811 N812 1.613 . S
S811 N813 1.610 . S
N812 S811 1.613 . S
N812 C815 1.350 . S
N813 S811 1.610 . S
N813 C814 1.351 1_455 S
C814 C808 1.428 1_556 S
C814 N813 1.351 1_655 S
C814 C815 1.434 1_655 S
C815 C806 1.429 1_556 S
C815 N812 1.350 . S
C815 C814 1.434 1_455 S
C816 C817 1.369 . S
C816 C818 1.419 . S
C816 H820 0.930 . S
C817 C816 1.369 . S
C817 C826 1.429 . S
C818 C816 1.419 . S
C818 C819 1.363 . S
C818 H821 0.929 . S
C819 C818 1.363 . S
C819 C825 1.428 . S
H820 C816 0.930 . S
H821 C818 0.929 . S
S822 N823 1.613 . S
S822 N824 1.610 . S
N823 S822 1.613 . S
N823 C826 1.350 . S
N824 S822 1.610 . S
N824 C825 1.351 . S
C825 C819 1.428 . S
C825 N824 1.351 . S
C825 C826 1.434 . S
C826 C817 1.429 . S
C826 N823 1.350 . S
C826 C825 1.434 . S
C827 C828 1.369 . S
C827 C829 1.419 . S
C827 H831 0.930 . S
C828 C827 1.369 . S
C828 C837 1.429 . S
C829 C827 1.419 . S
C829 C830 1.363 . S
C829 H832 0.929 . S
C830 C829 1.363 . S
C830 C836 1.428 . S
H831 C827 0.930 . S
H832 C829 0.929 . S
S833 N834 1.613 . S
S833 N835 1.610 . S
N834 S833 1.613 . S
N834 C837 1.350 . S
N835 S833 1.610 . S
N835 C836 1.351 . S
C836 C830 1.428 . S
C836 N835 1.351 . S
C836 C837 1.434 . S
C837 C828 1.429 . S
C837 N834 1.350 . S
C837 C836 1.434 . S
C838 C839 1.369 1_565 S
C838 C840 1.419 . S
C838 H842 0.930 1_565 S
C839 C838 1.369 1_545 S
C839 C848 1.429 1_545 S
C840 C838 1.419 . S
C840 C841 1.363 . S
C840 H843 0.929 . S
C841 C840 1.363 . S
C841 C847 1.428 . S
H842 C838 0.930 1_545 S
H843 C840 0.929 . S
S844 N845 1.613 . S
S844 N846 1.610 . S
N845 S844 1.613 . S
N845 C848 1.350 . S
N846 S844 1.610 . S
N846 C847 1.351 . S
C847 C841 1.428 . S
C847 N846 1.351 . S
C847 C848 1.434 . S
C848 C839 1.429 1_565 S
C848 N845 1.350 . S
C848 C847 1.434 . S
C849 C850 1.369 . S
C849 C851 1.419 . S
C849 H853 0.930 . S
C850 C849 1.369 . S
C850 C859 1.429 . S
C851 C849 1.419 . S
C851 C852 1.363 . S
C851 H854 0.929 . S
C852 C851 1.363 . S
C852 C858 1.428 . S
H853 C849 0.930 . S
H854 C851 0.929 . S
S855 N856 1.613 . S
S855 N857 1.610 . S
N856 S855 1.613 . S
N856 C859 1.350 . S
N857 S855 1.610 . S
N857 C858 1.351 . S
C858 C852 1.428 . S
C858 N857 1.351 . S
C858 C859 1.434 . S
C859 C850 1.429 . S
C859 N856 1.350 . S
C859 C858 1.434 . S
C860 C861 1.369 . S
C860 C862 1.419 . S
C860 H864 0.930 . S
C861 C860 1.369 . S
C861 C870 1.429 . S
C862 C860 1.419 . S
C862 C863 1.363 . S
C862 H865 0.929 . S
C863 C862 1.363 . S
C863 C869 1.428 . S
H864 C860 0.930 . S
H865 C862 0.929 . S
S866 N867 1.613 . S
S866 N868 1.610 . S
N867 S866 1.613 . S
N867 C870 1.350 . S
N868 S866 1.610 . S
N868 C869 1.351 . S
C869 C863 1.428 . S
C869 N868 1.351 . S
C869 C870 1.434 . S
C870 C861 1.429 . S
C870 N867 1.350 . S
C870 C869 1.434 . S
C871 C872 1.369 . S
C871 C873 1.419 . S
C871 H875 0.930 . S
C872 C871 1.369 . S
C872 C881 1.429 . S
C873 C871 1.419 . S
C873 C874 1.363 . S
C873 H876 0.929 . S
C874 C873 1.363 . S
C874 C880 1.428 . S
H875 C871 0.930 . S
H876 C873 0.929 . S
S877 N878 1.613 . S
S877 N879 1.610 . S
N878 S877 1.613 . S
N878 C881 1.350 . S
N879 S877 1.610 . S
N879 C880 1.351 . S
C880 C874 1.428 . S
C880 N879 1.351 . S
C880 C881 1.434 . S
C881 C872 1.429 . S
C881 N878 1.350 . S
C881 C880 1.434 . S
C882 C883 1.369 . S
C882 C884 1.419 . S
C882 H886 0.930 . S
C883 C882 1.369 . S
C883 C892 1.429 . S
C884 C882 1.419 . S
C884 C885 1.363 . S
C884 H887 0.929 . S
C885 C884 1.363 . S
C885 C891 1.428 . S
H886 C882 0.930 . S
H887 C884 0.929 . S
S888 N889 1.613 . S
S888 N890 1.610 . S
N889 S888 1.613 . S
N889 C892 1.350 . S
N890 S888 1.610 . S
N890 C891 1.351 . S
C891 C885 1.428 . S
C891 N890 1.351 . S
C891 C892 1.434 . S
C892 C883 1.429 . S
C892 N889 1.350 . S
C892 C891 1.434 . S
C893 C894 1.369 . S
C893 C895 1.419 . S
C893 H897 0.930 . S
C894 C893 1.369 . S
C894 C903 1.429 . S
C895 C893 1.419 . S
C895 C896 1.363 . S
C895 H898 0.929 . S
C896 C895 1.363 . S
C896 C902 1.428 . S
H897 C893 0.930 . S
H898 C895 0.929 . S
S899 N900 1.613 . S
S899 N901 1.610 . S
N900 S899 1.613 . S
N900 C903 1.350 . S
N901 S899 1.610 . S
N901 C902 1.351 . S
C902 C896 1.428 . S
C902 N901 1.351 . S
C902 C903 1.434 . S
C903 C894 1.429 . S
C903 N900 1.350 . S
C903 C902 1.434 . S
C904 C905 1.369 . S
C904 C906 1.419 . S
C904 H908 0.930 . S
C905 C904 1.369 . S
C905 C914 1.429 . S
C906 C904 1.419 . S
C906 C907 1.363 . S
C906 H909 0.929 . S
C907 C906 1.363 . S
C907 C913 1.428 . S
H908 C904 0.930 . S
H909 C906 0.929 . S
S910 N911 1.613 . S
S910 N912 1.610 . S
N911 S910 1.613 . S
N911 C914 1.350 . S
N912 S910 1.610 . S
N912 C913 1.351 . S
C913 C907 1.428 . S
C913 N912 1.351 . S
C913 C914 1.434 . S
C914 C905 1.429 . S
C914 N911 1.350 . S
C914 C913 1.434 . S
C915 C916 1.369 . S
C915 C917 1.419 . S
C915 H919 0.930 . S
C916 C915 1.369 . S
C916 C925 1.429 . S
C917 C915 1.419 . S
C917 C918 1.363 . S
C917 H920 0.929 . S
C918 C917 1.363 . S
C918 C924 1.428 . S
H919 C915 0.930 . S
H920 C917 0.929 . S
S921 N922 1.613 . S
S921 N923 1.610 . S
N922 S921 1.613 . S
N922 C925 1.350 . S
N923 S921 1.610 . S
N923 C924 1.351 . S
C924 C918 1.428 . S
C924 N923 1.351 . S
C924 C925 1.434 . S
C925 C916 1.429 . S
C925 N922 1.350 . S
C925 C924 1.434 . S
C926 C927 1.369 . S
C926 C928 1.419 . S
C926 H930 0.930 . S
C927 C926 1.369 . S
C927 C936 1.429 . S
C928 C926 1.419 . S
C928 C929 1.363 . S
C928 H931 0.929 . S
C929 C928 1.363 . S
C929 C935 1.428 . S
H930 C926 0.930 . S
H931 C928 0.929 . S
S932 N933 1.613 . S
S932 N934 1.610 . S
N933 S932 1.613 . S
N933 C936 1.350 . S
N934 S932 1.610 . S
N934 C935 1.351 . S
C935 C929 1.428 . S
C935 N934 1.351 . S
C935 C936 1.434 . S
C936 C927 1.429 . S
C936 N933 1.350 . S
C936 C935 1.434 . S
C937 C938 1.369 . S
C937 C939 1.419 . S
C937 H941 0.930 . S
C938 C937 1.369 . S
C938 C947 1.429 . S
C939 C937 1.419 . S
C939 C940 1.363 . S
C939 H942 0.929 . S
C940 C939 1.363 . S
C940 C946 1.428 . S
H941 C937 0.930 . S
H942 C939 0.929 . S
S943 N944 1.613 . S
S943 N945 1.610 . S
N944 S943 1.613 . S
N944 C947 1.350 . S
N945 S943 1.610 . S
N945 C946 1.351 . S
C946 C940 1.428 . S
C946 N945 1.351 . S
C946 C947 1.434 . S
C947 C938 1.429 . S
C947 N944 1.350 . S
C947 C946 1.434 . S
C948 C949 1.369 . S
C948 C950 1.419 . S
C948 H952 0.930 . S
C949 C948 1.369 . S
C949 C958 1.429 . S
C950 C948 1.419 . S
C950 C951 1.363 . S
C950 H953 0.929 . S
C951 C950 1.363 . S
C951 C957 1.428 . S
H952 C948 0.930 . S
H953 C950 0.929 . S
S954 N955 1.613 . S
S954 N956 1.610 . S
N955 S954 1.613 . S
N955 C958 1.350 . S
N956 S954 1.610 . S
N956 C957 1.351 . S
C957 C951 1.428 . S
C957 N956 1.351 . S
C957 C958 1.434 . S
C958 C949 1.429 . S
C958 N955 1.350 . S
C958 C957 1.434 . S
C959 C960 1.369 . S
C959 C961 1.419 . S
C959 H963 0.930 . S
C960 C959 1.369 . S
C960 C969 1.429 . S
C961 C959 1.419 . S
C961 C962 1.363 . S
C961 H964 0.929 . S
C962 C961 1.363 . S
C962 C968 1.428 . S
H963 C959 0.930 . S
H964 C961 0.929 . S
S965 N966 1.613 . S
S965 N967 1.610 . S
N966 S965 1.613 . S
N966 C969 1.350 . S
N967 S965 1.610 . S
N967 C968 1.351 . S
C968 C962 1.428 . S
C968 N967 1.351 . S
C968 C969 1.434 . S
C969 C960 1.429 . S
C969 N966 1.350 . S
C969 C968 1.434 . S
C970 C971 1.369 . S
C970 C972 1.419 . S
C970 H974 0.930 . S
C971 C970 1.369 . S
C971 C980 1.429 . S
C972 C970 1.419 . S
C972 C973 1.363 . S
C972 H975 0.929 . S
C973 C972 1.363 . S
C973 C979 1.428 . S
H974 C970 0.930 . S
H975 C972 0.929 . S
S976 N977 1.613 . S
S976 N978 1.610 . S
N977 S976 1.613 . S
N977 C980 1.350 . S
N978 S976 1.610 . S
N978 C979 1.351 . S
C979 C973 1.428 . S
C979 N978 1.351 . S
C979 C980 1.434 . S
C980 C971 1.429 . S
C980 N977 1.350 . S
C980 C979 1.434 . S
C981 C982 1.369 . S
C981 C983 1.419 . S
C981 H985 0.930 . S
C982 C981 1.369 . S
C982 C991 1.429 . S
C983 C981 1.419 . S
C983 C984 1.363 . S
C983 H986 0.929 . S
C984 C983 1.363 . S
C984 C990 1.428 . S
H985 C981 0.930 . S
H986 C983 0.929 . S
S987 N988 1.613 . S
S987 N989 1.610 . S
N988 S987 1.613 . S
N988 C991 1.350 . S
N989 S987 1.610 . S
N989 C990 1.351 . S
C990 C984 1.428 . S
C990 N989 1.351 . S
C990 C991 1.434 . S
C991 C982 1.429 . S
C991 N988 1.350 . S
C991 C990 1.434 . S
C992 C993 1.369 . S
C992 C994 1.419 . S
C992 H996 0.930 . S
C993 C992 1.369 . S
C993 C1002 1.429 . S
C994 C992 1.419 . S
C994 C995 1.363 . S
C994 H997 0.929 . S
C995 C994 1.363 . S
C995 C1001 1.428 . S
H996 C992 0.930 . S
H997 C994 0.929 . S
S998 N999 1.613 . S
S998 N1000 1.610 . S
N999 S998 1.613 . S
N999 C1002 1.350 . S
N1000 S998 1.610 . S
N1000 C1001 1.351 . S
C1001 C995 1.428 . S
C1001 N1000 1.351 . S
C1001 C1002 1.434 . S
C1002 C993 1.429 . S
C1002 N999 1.350 . S
C1002 C1001 1.434 . S
C1003 C1004 1.369 . S
C1003 C1005 1.419 . S
C1003 H1007 0.930 . S
C1004 C1003 1.369 . S
C1004 C1013 1.429 . S
C1005 C1003 1.419 . S
C1005 C1006 1.363 . S
C1005 H1008 0.929 . S
C1006 C1005 1.363 . S
C1006 C1012 1.428 . S
H1007 C1003 0.930 . S
H1008 C1005 0.929 . S
S1009 N1010 1.613 . S
S1009 N1011 1.610 . S
N1010 S1009 1.613 . S
N1010 C1013 1.350 . S
N1011 S1009 1.610 . S
N1011 C1012 1.351 . S
C1012 C1006 1.428 . S
C1012 N1011 1.351 . S
C1012 C1013 1.434 . S
C1013 C1004 1.429 . S
C1013 N1010 1.350 . S
C1013 C1012 1.434 . S
C1014 C1015 1.369 . S
C1014 C1016 1.419 . S
C1014 H1018 0.930 . S
C1015 C1014 1.369 . S
C1015 C1024 1.429 . S
C1016 C1014 1.419 . S
C1016 C1017 1.363 . S
C1016 H1019 0.929 . S
C1017 C1016 1.363 . S
C1017 C1023 1.428 . S
H1018 C1014 0.930 . S
H1019 C1016 0.929 . S
S1020 N1021 1.613 . S
S1020 N1022 1.610 . S
N1021 S1020 1.613 . S
N1021 C1024 1.350 . S
N1022 S1020 1.610 . S
N1022 C1023 1.351 . S
C1023 C1017 1.428 . S
C1023 N1022 1.351 . S
C1023 C1024 1.434 . S
C1024 C1015 1.429 . S
C1024 N1021 1.350 . S
C1024 C1023 1.434 . S
C1025 C1026 1.369 . S
C1025 C1027 1.419 . S
C1025 H1029 0.930 . S
C1026 C1025 1.369 . S
C1026 C1035 1.429 . S
C1027 C1025 1.419 . S
C1027 C1028 1.363 . S
C1027 H1030 0.929 . S
C1028 C1027 1.363 . S
C1028 C1034 1.428 . S
H1029 C1025 0.930 . S
H1030 C1027 0.929 . S
S1031 N1032 1.613 . S
S1031 N1033 1.610 . S
N1032 S1031 1.613 . S
N1032 C1035 1.350 . S
N1033 S1031 1.610 . S
N1033 C1034 1.351 . S
C1034 C1028 1.428 . S
C1034 N1033 1.351 . S
C1034 C1035 1.434 . S
C1035 C1026 1.429 . S
C1035 N1032 1.350 . S
C1035 C1034 1.434 . S
C1036 C1037 1.369 . S
C1036 C1038 1.419 . S
C1036 H1040 0.930 . S
C1037 C1036 1.369 . S
C1037 C1046 1.429 . S
C1038 C1036 1.419 . S
C1038 C1039 1.363 . S
C1038 H1041 0.929 . S
C1039 C1038 1.363 . S
C1039 C1045 1.428 . S
H1040 C1036 0.930 . S
H1041 C1038 0.929 . S
S1042 N1043 1.613 . S
S1042 N1044 1.610 . S
N1043 S1042 1.613 . S
N1043 C1046 1.350 . S
N1044 S1042 1.610 . S
N1044 C1045 1.351 . S
C1045 C1039 1.428 . S
C1045 N1044 1.351 . S
C1045 C1046 1.434 . S
C1046 C1037 1.429 . S
C1046 N1043 1.350 . S
C1046 C1045 1.434 . S
C1047 C1048 1.369 . S
C1047 C1049 1.419 . S
C1047 H1051 0.930 . S
C1048 C1047 1.369 . S
C1048 C1057 1.429 . S
C1049 C1047 1.419 . S
C1049 C1050 1.363 . S
C1049 H1052 0.929 . S
C1050 C1049 1.363 . S
C1050 C1056 1.428 . S
H1051 C1047 0.930 . S
H1052 C1049 0.929 . S
S1053 N1054 1.613 . S
S1053 N1055 1.610 . S
N1054 S1053 1.613 . S
N1054 C1057 1.350 . S
N1055 S1053 1.610 . S
N1055 C1056 1.351 . S
C1056 C1050 1.428 . S
C1056 N1055 1.351 . S
C1056 C1057 1.434 . S
C1057 C1048 1.429 . S
C1057 N1054 1.350 . S
C1057 C1056 1.434 . S
C1058 C1059 1.369 . S
C1058 C1060 1.419 . S
C1058 H1062 0.930 . S
C1059 C1058 1.369 . S
C1059 C1068 1.429 . S
C1060 C1058 1.419 . S
C1060 C1061 1.363 . S
C1060 H1063 0.929 . S
C1061 C1060 1.363 . S
C1061 C1067 1.428 . S
H1062 C1058 0.930 . S
H1063 C1060 0.929 . S
S1064 N1065 1.613 . S
S1064 N1066 1.610 . S
N1065 S1064 1.613 . S
N1065 C1068 1.350 . S
N1066 S1064 1.610 . S
N1066 C1067 1.351 . S
C1067 C1061 1.428 . S
C1067 N1066 1.351 . S
C1067 C1068 1.434 . S
C1068 C1059 1.429 . S
C1068 N1065 1.350 . S
C1068 C1067 1.434 . S
C1069 C1070 1.369 . S
C1069 C1071 1.419 . S
C1069 H1073 0.930 . S
C1070 C1069 1.369 . S
C1070 C1079 1.429 . S
C1071 C1069 1.419 . S
C1071 C1072 1.363 . S
C1071 H1074 0.929 . S
C1072 C1071 1.363 . S
C1072 C1078 1.428 . S
H1073 C1069 0.930 . S
H1074 C1071 0.929 . S
S1075 N1076 1.613 . S
S1075 N1077 1.610 . S
N1076 S1075 1.613 . S
N1076 C1079 1.350 . S
N1077 S1075 1.610 . S
N1077 C1078 1.351 . S
C1078 C1072 1.428 . S
C1078 N1077 1.351 . S
C1078 C1079 1.434 . S
C1079 C1070 1.429 . S
C1079 N1076 1.350 . S
C1079 C1078 1.434 . S
C1080 C1081 1.369 . S
C1080 C1082 1.419 . S
C1080 H1084 0.930 . S
C1081 C1080 1.369 . S
C1081 C1090 1.429 . S
C1082 C1080 1.419 . S
C1082 C1083 1.363 . S
C1082 H1085 0.929 . S
C1083 C1082 1.363 . S
C1083 C1089 1.428 . S
H1084 C1080 0.930 . S
H1085 C1082 0.929 . S
S1086 N1087 1.613 . S
S1086 N1088 1.610 . S
N1087 S1086 1.613 . S
N1087 C1090 1.350 . S
N1088 S1086 1.610 . S
N1088 C1089 1.351 . S
C1089 C1083 1.428 . S
C1089 N1088 1.351 . S
C1089 C1090 1.434 . S
C1090 C1081 1.429 . S
C1090 N1087 1.350 . S
C1090 C1089 1.434 . S
C1091 C1092 1.369 . S
C1091 C1093 1.419 . S
C1091 H1095 0.930 . S
C1092 C1091 1.369 . S
C1092 C1101 1.429 . S
C1093 C1091 1.419 . S
C1093 C1094 1.363 . S
C1093 H1096 0.929 . S
C1094 C1093 1.363 . S
C1094 C1100 1.428 . S
H1095 C1091 0.930 . S
H1096 C1093 0.929 . S
S1097 N1098 1.613 . S
S1097 N1099 1.610 . S
N1098 S1097 1.613 . S
N1098 C1101 1.350 . S
N1099 S1097 1.610 . S
N1099 C1100 1.351 . S
C1100 C1094 1.428 . S
C1100 N1099 1.351 . S
C1100 C1101 1.434 . S
C1101 C1092 1.429 . S
C1101 N1098 1.350 . S
C1101 C1100 1.434 . S
C1102 C1103 1.369 . S
C1102 C1104 1.419 . S
C1102 H1106 0.930 . S
C1103 C1102 1.369 . S
C1103 C1112 1.429 . S
C1104 C1102 1.419 . S
C1104 C1105 1.363 . S
C1104 H1107 0.929 . S
C1105 C1104 1.363 . S
C1105 C1111 1.428 . S
H1106 C1102 0.930 . S
H1107 C1104 0.929 . S
S1108 N1109 1.613 . S
S1108 N1110 1.610 . S
N1109 S1108 1.613 . S
N1109 C1112 1.350 . S
N1110 S1108 1.610 . S
N1110 C1111 1.351 . S
C1111 C1105 1.428 . S
C1111 N1110 1.351 . S
C1111 C1112 1.434 . S
C1112 C1103 1.429 . S
C1112 N1109 1.350 . S
C1112 C1111 1.434 . S
C1113 C1114 1.369 . S
C1113 C1115 1.419 . S
C1113 H1117 0.930 . S
C1114 C1113 1.369 . S
C1114 C1123 1.429 . S
C1115 C1113 1.419 . S
C1115 C1116 1.363 . S
C1115 H1118 0.929 . S
C1116 C1115 1.363 . S
C1116 C1122 1.428 . S
H1117 C1113 0.930 . S
H1118 C1115 0.929 . S
S1119 N1120 1.613 . S
S1119 N1121 1.610 . S
N1120 S1119 1.613 . S
N1120 C1123 1.350 . S
N1121 S1119 1.610 . S
N1121 C1122 1.351 . S
C1122 C1116 1.428 . S
C1122 N1121 1.351 . S
C1122 C1123 1.434 . S
C1123 C1114 1.429 . S
C1123 N1120 1.350 . S
C1123 C1122 1.434 . S
C599 C283 1.308 . S
C597 N2 1.282 . S
C610 C326 2.376 . S
C608 C7 2.384 . S
C621 C372 1.871 . S
C619 N12 1.718 . S
C630 C16 1.833 . S
C632 C415 1.902 . S
C643 C455 2.511 . S
C641 C30 2.490 1_565 S
C654 C483 1.568 . S
C652 N35 1.524 . S
C663 C39 2.117 . S
C665 C526 2.083 . S
C676 C572 1.180 . S
C674 N25 1.140 . S
C687 C278 1.324 . S
C685 N58 1.299 . S
C696 N81 2.102 1_655 S
C698 C327 2.057 . S
C709 C366 1.496 . S
C707 N104 1.476 . S
C718 N127 1.465 . S
C720 C403 1.373 . S
C731 C443 1.126 1_554 S
C729 N48 1.262 . S
C742 C478 1.480 . S
C740 N71 1.404 1_556 S
C751 N94 1.743 . S
C753 C527 1.688 . S
C764 C566 1.802 . S
C762 N117 1.810 . S
C773 C85 2.668 . S
C775 C295 2.504 . S
C784 C122 2.610 . S
C786 C438 2.572 . S
C795 C53 2.303 . S
C797 C495 2.203 . S
C808 C532 1.486 1_554 S
C806 C76 1.574 . S
C819 C567 2.108 . S
C817 C99 2.125 . S
C830 C367 2.033 . S
C828 C131 2.094 . S
C841 C398 2.160 . S
C839 C62 2.189 . S
C850 C108 1.364 . S
C852 C332 1.317 . S
C863 C563 1.383 . S
C861 N140 1.371 . S
C872 C145 2.380 . S
C874 C446 2.360 . S
C885 C492 1.715 . S
C883 N150 1.536 . S
C894 C154 1.840 . S
C896 C535 1.906 . S
C907 C335 2.519 . S
C905 C168 2.497 . S
C916 N173 1.356 . S
C918 C363 1.416 . S
C929 C406 2.084 . S
C927 C177 2.123 . S
C940 C292 1.236 . S
C938 N163 1.162 . S
C951 C558 1.752 . S
C949 C200 1.723 . S
C962 C447 2.323 . S
C960 N219 2.391 . S
C971 N242 1.744 . S
C973 C486 1.764 . S
C984 C523 1.561 . S
C982 C269 1.711 . S
C995 C323 1.384 . S
C993 C191 1.489 . S
C1004 N209 1.658 . S
C1006 C358 1.738 . S
C1015 N232 2.014 . S
C1017 C407 1.966 . S
C1026 C260 2.412 . S
C1028 C286 2.331 . S
C1037 C223 2.376 . S
C1039 C575 2.221 . S
C1048 N255 2.208 . S
C1050 C318 2.163 . S
C1059 N186 1.927 . S
C1061 C375 1.797 . S
C1072 C412 1.232 . S
C1070 C214 1.303 . S
C1083 C287 1.814 . S
C1081 C237 1.830 . S
C1094 C487 1.708 . S
C1092 N265 1.617 . S
C1105 C518 1.782 . S
C1103 N196 1.790 . S
C1116 C452 1.065 . S
C1114 C246 1.109 . S
