# Generated by pormake.
# Topology gar, (4,6)-cn, num edge types: 1
# Building blocks:
#     Node 0, Type 0, BuildingBlock: NAHDIM_clean_sbu_0, # of connection points: 4
#     Node 1, Type 0, BuildingBlock: NAHDIM_clean_sbu_0, # of connection points: 4
#     Node 2, Type 0, BuildingBlock: NAHDIM_clean_sbu_0, # of connection points: 4
#     Node 3, Type 0, BuildingBlock: NAHDIM_clean_sbu_0, # of connection points: 4
#     Node 4, Type 0, BuildingBlock: NAHDIM_clean_sbu_0, # of connection points: 4
#     Node 5, Type 0, BuildingBlock: NAHDIM_clean_sbu_0, # of connection points: 4
#     Node 6, Type 0, BuildingBlock: NAHDIM_clean_sbu_0, # of connection points: 4
#     Node 7, Type 0, BuildingBlock: NAHDIM_clean_sbu_0, # of connection points: 4
#     Node 8, Type 0, BuildingBlock: NAHDIM_clean_sbu_0, # of connection points: 4
#     Node 9, Type 0, BuildingBlock: NAHDIM_clean_sbu_0, # of connection points: 4
#     Node 10, Type 0, BuildingBlock: NAHDIM_clean_sbu_0, # of connection points: 4
#     Node 11, Type 0, BuildingBlock: NAHDIM_clean_sbu_0, # of connection points: 4
#     Node 12, Type 0, BuildingBlock: NAHDIM_clean_sbu_0, # of connection points: 4
#     Node 13, Type 0, BuildingBlock: NAHDIM_clean_sbu_0, # of connection points: 4
#     Node 14, Type 0, BuildingBlock: NAHDIM_clean_sbu_0, # of connection points: 4
#     Node 15, Type 0, BuildingBlock: NAHDIM_clean_sbu_0, # of connection points: 4
#     Node 16, Type 0, BuildingBlock: NAHDIM_clean_sbu_0, # of connection points: 4
#     Node 17, Type 0, BuildingBlock: NAHDIM_clean_sbu_0, # of connection points: 4
#     Node 18, Type 0, BuildingBlock: NAHDIM_clean_sbu_0, # of connection points: 4
#     Node 19, Type 0, BuildingBlock: NAHDIM_clean_sbu_0, # of connection points: 4
#     Node 20, Type 0, BuildingBlock: NAHDIM_clean_sbu_0, # of connection points: 4
#     Node 21, Type 0, BuildingBlock: NAHDIM_clean_sbu_0, # of connection points: 4
#     Node 22, Type 0, BuildingBlock: NAHDIM_clean_sbu_0, # of connection points: 4
#     Node 23, Type 0, BuildingBlock: NAHDIM_clean_sbu_0, # of connection points: 4
#     Node 24, Type 1, BuildingBlock: HISSIN_clean_sbu_0, # of connection points: 6
#     Node 25, Type 1, BuildingBlock: HISSIN_clean_sbu_0, # of connection points: 6
#     Node 26, Type 1, BuildingBlock: HISSIN_clean_sbu_0, # of connection points: 6
#     Node 27, Type 1, BuildingBlock: HISSIN_clean_sbu_0, # of connection points: 6
#     Node 28, Type 1, BuildingBlock: HISSIN_clean_sbu_0, # of connection points: 6
#     Node 29, Type 1, BuildingBlock: HISSIN_clean_sbu_0, # of connection points: 6
#     Node 30, Type 1, BuildingBlock: HISSIN_clean_sbu_0, # of connection points: 6
#     Node 31, Type 1, BuildingBlock: HISSIN_clean_sbu_0, # of connection points: 6
#     Node 32, Type 1, BuildingBlock: HISSIN_clean_sbu_0, # of connection points: 6
#     Node 33, Type 1, BuildingBlock: HISSIN_clean_sbu_0, # of connection points: 6
#     Node 34, Type 1, BuildingBlock: HISSIN_clean_sbu_0, # of connection points: 6
#     Node 35, Type 1, BuildingBlock: HISSIN_clean_sbu_0, # of connection points: 6
#     Node 36, Type 1, BuildingBlock: HISSIN_clean_sbu_0, # of connection points: 6
#     Node 37, Type 1, BuildingBlock: HISSIN_clean_sbu_0, # of connection points: 6
#     Node 38, Type 1, BuildingBlock: HISSIN_clean_sbu_0, # of connection points: 6
#     Node 39, Type 1, BuildingBlock: HISSIN_clean_sbu_0, # of connection points: 6
#     Edge 40, Type (0, 1), BuildingBlock: KIFKEQ_clean_linker_1, # of connection points: 2
#     Edge 41, Type (0, 1), BuildingBlock: KIFKEQ_clean_linker_1, # of connection points: 2
#     Edge 42, Type (0, 1), BuildingBlock: KIFKEQ_clean_linker_1, # of connection points: 2
#     Edge 43, Type (0, 1), BuildingBlock: KIFKEQ_clean_linker_1, # of connection points: 2
#     Edge 44, Type (0, 1), BuildingBlock: KIFKEQ_clean_linker_1, # of connection points: 2
#     Edge 45, Type (0, 1), BuildingBlock: KIFKEQ_clean_linker_1, # of connection points: 2
#     Edge 46, Type (0, 1), BuildingBlock: KIFKEQ_clean_linker_1, # of connection points: 2
#     Edge 47, Type (0, 1), BuildingBlock: KIFKEQ_clean_linker_1, # of connection points: 2
#     Edge 48, Type (0, 1), BuildingBlock: KIFKEQ_clean_linker_1, # of connection points: 2
#     Edge 49, Type (0, 1), BuildingBlock: KIFKEQ_clean_linker_1, # of connection points: 2
#     Edge 50, Type (0, 1), BuildingBlock: KIFKEQ_clean_linker_1, # of connection points: 2
#     Edge 51, Type (0, 1), BuildingBlock: KIFKEQ_clean_linker_1, # of connection points: 2
#     Edge 52, Type (0, 1), BuildingBlock: KIFKEQ_clean_linker_1, # of connection points: 2
#     Edge 53, Type (0, 1), BuildingBlock: KIFKEQ_clean_linker_1, # of connection points: 2
#     Edge 54, Type (0, 1), BuildingBlock: KIFKEQ_clean_linker_1, # of connection points: 2
#     Edge 55, Type (0, 1), BuildingBlock: KIFKEQ_clean_linker_1, # of connection points: 2
#     Edge 56, Type (0, 1), BuildingBlock: KIFKEQ_clean_linker_1, # of connection points: 2
#     Edge 57, Type (0, 1), BuildingBlock: KIFKEQ_clean_linker_1, # of connection points: 2
#     Edge 58, Type (0, 1), BuildingBlock: KIFKEQ_clean_linker_1, # of connection points: 2
#     Edge 59, Type (0, 1), BuildingBlock: KIFKEQ_clean_linker_1, # of connection points: 2
#     Edge 60, Type (0, 1), BuildingBlock: KIFKEQ_clean_linker_1, # of connection points: 2
#     Edge 61, Type (0, 1), BuildingBlock: KIFKEQ_clean_linker_1, # of connection points: 2
#     Edge 62, Type (0, 1), BuildingBlock: KIFKEQ_clean_linker_1, # of connection points: 2
#     Edge 63, Type (0, 1), BuildingBlock: KIFKEQ_clean_linker_1, # of connection points: 2
#     Edge 64, Type (0, 1), BuildingBlock: KIFKEQ_clean_linker_1, # of connection points: 2
#     Edge 65, Type (0, 1), BuildingBlock: KIFKEQ_clean_linker_1, # of connection points: 2
#     Edge 66, Type (0, 1), BuildingBlock: KIFKEQ_clean_linker_1, # of connection points: 2
#     Edge 67, Type (0, 1), BuildingBlock: KIFKEQ_clean_linker_1, # of connection points: 2
#     Edge 68, Type (0, 1), BuildingBlock: KIFKEQ_clean_linker_1, # of connection points: 2
#     Edge 69, Type (0, 1), BuildingBlock: KIFKEQ_clean_linker_1, # of connection points: 2
#     Edge 70, Type (0, 1), BuildingBlock: KIFKEQ_clean_linker_1, # of connection points: 2
#     Edge 71, Type (0, 1), BuildingBlock: KIFKEQ_clean_linker_1, # of connection points: 2
#     Edge 72, Type (0, 1), BuildingBlock: KIFKEQ_clean_linker_1, # of connection points: 2
#     Edge 73, Type (0, 1), BuildingBlock: KIFKEQ_clean_linker_1, # of connection points: 2
#     Edge 74, Type (0, 1), BuildingBlock: KIFKEQ_clean_linker_1, # of connection points: 2
#     Edge 75, Type (0, 1), BuildingBlock: KIFKEQ_clean_linker_1, # of connection points: 2
#     Edge 76, Type (0, 1), BuildingBlock: KIFKEQ_clean_linker_1, # of connection points: 2
#     Edge 77, Type (0, 1), BuildingBlock: KIFKEQ_clean_linker_1, # of connection points: 2
#     Edge 78, Type (0, 1), BuildingBlock: KIFKEQ_clean_linker_1, # of connection points: 2
#     Edge 79, Type (0, 1), BuildingBlock: KIFKEQ_clean_linker_1, # of connection points: 2
#     Edge 80, Type (0, 1), BuildingBlock: KIFKEQ_clean_linker_1, # of connection points: 2
#     Edge 81, Type (0, 1), BuildingBlock: KIFKEQ_clean_linker_1, # of connection points: 2
#     Edge 82, Type (0, 1), BuildingBlock: KIFKEQ_clean_linker_1, # of connection points: 2
#     Edge 83, Type (0, 1), BuildingBlock: KIFKEQ_clean_linker_1, # of connection points: 2
#     Edge 84, Type (0, 1), BuildingBlock: KIFKEQ_clean_linker_1, # of connection points: 2
#     Edge 85, Type (0, 1), BuildingBlock: KIFKEQ_clean_linker_1, # of connection points: 2
#     Edge 86, Type (0, 1), BuildingBlock: KIFKEQ_clean_linker_1, # of connection points: 2
#     Edge 87, Type (0, 1), BuildingBlock: KIFKEQ_clean_linker_1, # of connection points: 2
#     Edge 88, Type (0, 1), BuildingBlock: KIFKEQ_clean_linker_1, # of connection points: 2
#     Edge 89, Type (0, 1), BuildingBlock: KIFKEQ_clean_linker_1, # of connection points: 2
#     Edge 90, Type (0, 1), BuildingBlock: KIFKEQ_clean_linker_1, # of connection points: 2
#     Edge 91, Type (0, 1), BuildingBlock: KIFKEQ_clean_linker_1, # of connection points: 2
#     Edge 92, Type (0, 1), BuildingBlock: KIFKEQ_clean_linker_1, # of connection points: 2
#     Edge 93, Type (0, 1), BuildingBlock: KIFKEQ_clean_linker_1, # of connection points: 2
#     Edge 94, Type (0, 1), BuildingBlock: KIFKEQ_clean_linker_1, # of connection points: 2
#     Edge 95, Type (0, 1), BuildingBlock: KIFKEQ_clean_linker_1, # of connection points: 2
#     Edge 96, Type (0, 1), BuildingBlock: KIFKEQ_clean_linker_1, # of connection points: 2
#     Edge 97, Type (0, 1), BuildingBlock: KIFKEQ_clean_linker_1, # of connection points: 2
#     Edge 98, Type (0, 1), BuildingBlock: KIFKEQ_clean_linker_1, # of connection points: 2
#     Edge 99, Type (0, 1), BuildingBlock: KIFKEQ_clean_linker_1, # of connection points: 2
#     Edge 100, Type (0, 1), BuildingBlock: KIFKEQ_clean_linker_1, # of connection points: 2
#     Edge 101, Type (0, 1), BuildingBlock: KIFKEQ_clean_linker_1, # of connection points: 2
#     Edge 102, Type (0, 1), BuildingBlock: KIFKEQ_clean_linker_1, # of connection points: 2
#     Edge 103, Type (0, 1), BuildingBlock: KIFKEQ_clean_linker_1, # of connection points: 2
#     Edge 104, Type (0, 1), BuildingBlock: KIFKEQ_clean_linker_1, # of connection points: 2
#     Edge 105, Type (0, 1), BuildingBlock: KIFKEQ_clean_linker_1, # of connection points: 2
#     Edge 106, Type (0, 1), BuildingBlock: KIFKEQ_clean_linker_1, # of connection points: 2
#     Edge 107, Type (0, 1), BuildingBlock: KIFKEQ_clean_linker_1, # of connection points: 2
#     Edge 108, Type (0, 1), BuildingBlock: KIFKEQ_clean_linker_1, # of connection points: 2
#     Edge 109, Type (0, 1), BuildingBlock: KIFKEQ_clean_linker_1, # of connection points: 2
#     Edge 110, Type (0, 1), BuildingBlock: KIFKEQ_clean_linker_1, # of connection points: 2
#     Edge 111, Type (0, 1), BuildingBlock: KIFKEQ_clean_linker_1, # of connection points: 2
#     Edge 112, Type (0, 1), BuildingBlock: KIFKEQ_clean_linker_1, # of connection points: 2
#     Edge 113, Type (0, 1), BuildingBlock: KIFKEQ_clean_linker_1, # of connection points: 2
#     Edge 114, Type (0, 1), BuildingBlock: KIFKEQ_clean_linker_1, # of connection points: 2
#     Edge 115, Type (0, 1), BuildingBlock: KIFKEQ_clean_linker_1, # of connection points: 2
#     Edge 116, Type (0, 1), BuildingBlock: KIFKEQ_clean_linker_1, # of connection points: 2
#     Edge 117, Type (0, 1), BuildingBlock: KIFKEQ_clean_linker_1, # of connection points: 2
#     Edge 118, Type (0, 1), BuildingBlock: KIFKEQ_clean_linker_1, # of connection points: 2
#     Edge 119, Type (0, 1), BuildingBlock: KIFKEQ_clean_linker_1, # of connection points: 2
#     Edge 120, Type (0, 1), BuildingBlock: KIFKEQ_clean_linker_1, # of connection points: 2
#     Edge 121, Type (0, 1), BuildingBlock: KIFKEQ_clean_linker_1, # of connection points: 2
#     Edge 122, Type (0, 1), BuildingBlock: KIFKEQ_clean_linker_1, # of connection points: 2
#     Edge 123, Type (0, 1), BuildingBlock: KIFKEQ_clean_linker_1, # of connection points: 2
#     Edge 124, Type (0, 1), BuildingBlock: KIFKEQ_clean_linker_1, # of connection points: 2
#     Edge 125, Type (0, 1), BuildingBlock: KIFKEQ_clean_linker_1, # of connection points: 2
#     Edge 126, Type (0, 1), BuildingBlock: KIFKEQ_clean_linker_1, # of connection points: 2
#     Edge 127, Type (0, 1), BuildingBlock: KIFKEQ_clean_linker_1, # of connection points: 2
#     Edge 128, Type (0, 1), BuildingBlock: KIFKEQ_clean_linker_1, # of connection points: 2
#     Edge 129, Type (0, 1), BuildingBlock: KIFKEQ_clean_linker_1, # of connection points: 2
#     Edge 130, Type (0, 1), BuildingBlock: KIFKEQ_clean_linker_1, # of connection points: 2
#     Edge 131, Type (0, 1), BuildingBlock: KIFKEQ_clean_linker_1, # of connection points: 2
#     Edge 132, Type (0, 1), BuildingBlock: KIFKEQ_clean_linker_1, # of connection points: 2
#     Edge 133, Type (0, 1), BuildingBlock: KIFKEQ_clean_linker_1, # of connection points: 2
#     Edge 134, Type (0, 1), BuildingBlock: KIFKEQ_clean_linker_1, # of connection points: 2
#     Edge 135, Type (0, 1), BuildingBlock: KIFKEQ_clean_linker_1, # of connection points: 2
# Relax obj value: 0.189
# Max RMSD: 0.283
# Mean RMSD: 0.168
data_MOF--net-gar--node1-NAHDIM_clean_sbu_0--node2-HISSIN_clean_sbu_0--edge1-KIFKEQ_clean_linker_1
_symmetry_space_group_name_H-M    P1
_symmetry_Int_Tables_number       1
_symmetry_cell_setting            triclinic
loop_
_symmetry_equiv_pos_as_xyz
'x, y, z'
_cell_length_a     61.254898
_cell_length_b     59.859147
_cell_length_c     57.168678
_cell_angle_alpha  100.78255
_cell_angle_beta   93.530601
_cell_angle_gamma 101.0354
loop_
_atom_site_label
_atom_site_type_symbol
_atom_site_fract_x
_atom_site_fract_y
_atom_site_fract_z
_atom_type_partial_charge
C0 C 0.14376 0.32252 0.37031 0.0
O1 O 0.14388 0.33163 0.39309 0.0
O2 O 0.09193 0.28156 0.39152 0.0
Zn3 Zn 0.0962 0.30572 0.3711 0.0
O4 O 0.09297 0.33626 0.39006 0.0
C5 C 0.06008 0.27923 0.33353 0.0
O6 O 0.05815 0.26164 0.3445 0.0
O7 O 0.12589 0.31016 0.35859 0.0
C8 C 0.07449 0.33883 0.39792 0.0
O9 O 0.05747 0.32104 0.39364 0.0
C10 C 0.09781 0.28793 0.41388 0.0
O11 O 0.10721 0.30978 0.42269 0.0
O12 O 0.07409 0.29794 0.34225 0.0
C13 C 0.97143 0.75349 0.66258 0.0
O14 O 0.96855 0.74288 0.64001 0.0
O15 O 0.02221 0.74136 0.63781 0.0
Zn16 Zn 0.01773 0.77224 0.65488 0.0
O17 O 0.01878 0.79522 0.6331 0.0
C18 C 0.06216 0.7823 0.67678 0.0
O19 O 0.06591 0.77486 0.65458 0.0
O20 O 0.98986 0.76715 0.67116 0.0
C21 C 0.03025 0.79336 0.61528 0.0
O22 O 0.04056 0.77594 0.61084 0.0
C23 C 1.0125 0.73055 0.61748 0.0
O24 O 0.99862 0.73992 0.60593 0.0
O25 O 0.04244 0.78386 0.68127 0.0
C26 C 0.6437 0.81139 0.86701 0.0
O27 O 0.62773 0.79265 0.86116 0.0
O28 O 0.60925 0.80013 0.91901 0.0
Zn29 Zn 0.61301 0.82405 0.89852 0.0
O30 O 0.60971 0.85471 0.91669 0.0
C31 C 0.57557 0.79557 0.86568 0.0
O32 O 0.57734 0.7793 0.87783 0.0
O33 O 0.64182 0.82742 0.88425 0.0
C34 C 0.59137 0.85575 0.92557 0.0
O35 O 0.57623 0.83655 0.92379 0.0
C36 C 0.61502 0.80459 0.94138 0.0
O37 O 0.62511 0.82578 0.95202 0.0
O38 O 0.5889 0.81518 0.87149 0.0
C39 C 0.47672 0.26233 0.17959 0.0
O40 O 0.47726 0.25229 0.15721 0.0
O41 O 0.52796 0.25358 0.15971 0.0
Zn42 Zn 0.52329 0.2836 0.17846 0.0
O43 O 0.52561 0.30724 0.1575 0.0
C44 C 0.54313 0.28211 0.22363 0.0
O45 O 0.52537 0.26532 0.22131 0.0
O46 O 0.49357 0.27707 0.19077 0.0
C47 C 0.5449 0.31781 0.15427 0.0
O48 O 0.56259 0.31373 0.16557 0.0
C49 C 0.54733 0.24918 0.15801 0.0
O50 O 0.56491 0.26502 0.16824 0.0
O51 O 0.54613 0.29356 0.20706 0.0
C52 C 0.06398 0.83076 0.1471 0.0
O53 O 0.06015 0.82697 0.12369 0.0
O54 O 0.09922 0.78861 0.1226 0.0
Zn55 Zn 0.10739 0.82287 0.13602 0.0
O56 O 0.11085 0.84073 0.10955 0.0
C57 C 0.15051 0.81673 0.14883 0.0
O58 O 0.14601 0.80298 0.1276 0.0
O59 O 0.0834 0.83098 0.15644 0.0
C60 C 0.11767 0.8328 0.0897 0.0
O61 O 0.12286 0.81223 0.08608 0.0
C62 C 0.08555 0.77832 0.10446 0.0
O63 O 0.07494 0.79047 0.09257 0.0
O64 O 0.13633 0.82848 0.15663 0.0
C65 C 0.57127 0.77794 0.42598 0.0
O66 O 0.57489 0.77652 0.4485 0.0
O67 O 0.52755 0.777 0.46757 0.0
Zn68 Zn 0.52818 0.79029 0.43782 0.0
O69 O 0.53329 0.82493 0.44729 0.0
C70 C 0.4999 0.78175 0.39512 0.0
O71 O 0.5192 0.78965 0.38769 0.0
O72 O 0.5531 0.78278 0.41865 0.0
C73 C 0.51772 0.83608 0.44616 0.0
O74 O 0.49724 0.82475 0.43837 0.0
C75 C 0.53799 0.78935 0.48705 0.0
O76 O 0.54913 0.81044 0.48721 0.0
O77 O 0.49933 0.77923 0.41668 0.0
C78 C 0.57351 0.31156 0.66521 0.0
O79 O 0.5855 0.29559 0.66558 0.0
O80 O 0.59338 0.28456 0.61445 0.0
Zn81 Zn 0.60073 0.31873 0.62867 0.0
O82 O 0.60031 0.33597 0.60188 0.0
C83 C 0.6444 0.31293 0.64015 0.0
O84 O 0.63916 0.29825 0.6195 0.0
O85 O 0.5773 0.32505 0.65055 0.0
C86 C 0.61663 0.34128 0.58986 0.0
O87 O 0.63634 0.33751 0.59626 0.0
C88 C 0.58815 0.27582 0.59233 0.0
O89 O 0.58628 0.28951 0.57718 0.0
O90 O 0.63067 0.32535 0.64777 0.0
C91 C 0.06563 0.31447 0.92514 0.0
O92 O 0.06477 0.33339 0.94067 0.0
O93 O 0.01855 0.28148 0.96273 0.0
Zn94 Zn 0.02044 0.29937 0.93636 0.0
O95 O 0.0203 0.33253 0.95039 0.0
C96 C 0.97477 0.28531 0.91593 0.0
O97 O 0.9707 0.28941 0.93846 0.0
O98 O 0.04883 0.29762 0.92086 0.0
C99 C 1.01115 0.33873 0.96921 0.0
O100 O 1.0006 0.32286 0.97992 0.0
C101 C 0.03384 0.28876 0.98004 0.0
O102 O 0.04977 0.30667 0.97928 0.0
O103 O 0.99487 0.28756 0.91095 0.0
C104 C 0.37196 0.06805 0.28014 0.0
O105 O 0.3757 0.04931 0.26629 0.0
O106 O 0.41746 0.04221 0.28428 0.0
Zn107 Zn 0.40156 0.05454 0.31177 0.0
O108 O 0.42504 0.07135 0.33836 0.0
C109 C 0.3883 1.01612 0.33599 0.0
O110 O 0.40838 0.02308 0.34755 0.0
O111 O 0.38187 0.07457 0.30122 0.0
C112 C 0.42118 0.07689 0.36 0.0
O113 O 0.40042 0.07334 0.36538 0.0
C114 C 0.43227 0.03051 0.2873 0.0
O115 O 0.43714 0.02671 0.30872 0.0
O116 O 0.3821 0.02731 0.32087 0.0
C117 C 0.33776 0.18239 0.51043 0.0
O118 O 0.34441 0.20446 0.5098 0.0
O119 O 0.30242 0.21816 0.53979 0.0
Zn120 Zn 0.29583 0.19586 0.50766 0.0
O121 O 0.30182 0.21204 0.4797 0.0
C122 C 0.25796 0.15621 0.49778 0.0
O123 O 0.27346 0.14419 0.49252 0.0
O124 O 0.31691 0.17395 0.50891 0.0
C125 C 0.28627 0.21743 0.46748 0.0
O126 O 0.26582 0.21327 0.47371 0.0
C127 C 0.2889 0.2299 0.54939 0.0
O128 O 0.26972 0.22915 0.53731 0.0
O129 O 0.26361 0.17821 0.50432 0.0
C130 C 0.22147 0.98636 0.76722 0.0
O131 O 0.23115 0.99867 0.75253 0.0
O132 O 0.17095 0.02395 0.7428 0.0
Zn133 Zn 0.18959 0.02658 0.77835 0.0
O134 O 0.16734 0.02825 0.80825 0.0
C135 C 0.20499 0.07945 0.78011 0.0
O136 O 0.18322 0.07656 0.77573 0.0
O137 O 0.20578 0.99437 0.77854 0.0
C138 C 0.17315 0.03922 0.83023 0.0
O139 O 0.19391 0.05084 0.83542 0.0
C140 C 0.15296 0.03135 0.73813 0.0
O141 O 0.14306 0.04004 0.75642 0.0
O142 O 0.21263 0.06123 0.78281 0.0
C143 C 0.25371 0.97931 0.01516 0.0
O144 O 0.25354 0.9578 0.01726 0.0
O145 O 0.30106 0.95884 0.03656 0.0
Zn146 Zn 0.30041 0.97555 1.00876 0.0
O147 O 0.29781 0.95047 0.97794 0.0
C148 C 0.34805 0.98442 1.01404 0.0
O149 O 0.34156 0.96192 1.01254 0.0
O150 O 0.27215 0.99148 1.01092 0.0
C151 C 0.30982 0.95279 0.96074 0.0
O152 O 0.32309 0.97297 0.96134 0.0
C153 C 0.29568 0.93684 0.03399 0.0
O154 O 0.28795 0.92418 1.01271 0.0
O155 O 0.33283 0.99628 1.01265 0.0
C156 C 0.28554 0.42123 0.04973 0.0
O157 O 0.27878 0.39964 0.05208 0.0
O158 O 0.32273 0.3908 0.07636 0.0
Zn159 Zn 0.32653 0.40562 0.04719 0.0
O160 O 0.31805 0.38294 0.01532 0.0
C161 C 0.36793 0.43966 0.06382 0.0
O162 O 0.35643 0.44734 0.08113 0.0
O163 O 0.30613 0.42852 0.04782 0.0
C164 C 0.32863 0.36748 1.00667 0.0
O165 O 0.34563 0.36405 0.01972 0.0
C166 C 0.33806 0.38258 0.08566 0.0
O167 O 0.35664 0.38245 0.07536 0.0
O168 O 0.35859 0.4222 0.04768 0.0
C169 C 0.87425 0.11777 0.04459 0.0
O170 O 0.87632 0.1396 0.0553 0.0
O171 O 0.8285 0.14391 0.07442 0.0
Zn172 Zn 0.82656 0.12185 0.04163 0.0
O173 O 0.8257 0.14103 0.0159 0.0
C174 C 0.78218 0.09849 0.05329 0.0
O175 O 0.79119 0.10666 0.07543 0.0
O176 O 0.85446 0.10576 0.03757 0.0
C177 C 0.80892 0.15048 1.01389 0.0
O178 O 0.79358 0.14789 0.02882 0.0
C179 C 0.83363 0.16598 0.07712 0.0
O180 O 0.84033 0.17508 0.05893 0.0
O181 O 0.7945 0.10073 0.03625 0.0
C182 C 0.24035 0.52268 0.2658 0.0
O183 O 0.22397 0.52889 0.27751 0.0
O184 O 0.21064 0.55373 0.21707 0.0
Zn185 Zn 0.23514 0.5605 0.24365 0.0
O186 O 0.22271 0.57357 0.27358 0.0
C187 C 0.26388 0.59035 0.21812 0.0
O188 O 0.24972 0.58041 0.19917 0.0
O189 O 0.24686 0.53273 0.249 0.0
C190 C 0.2081 0.58602 0.27361 0.0
O191 O 0.20181 0.59192 0.25363 0.0
C192 C 0.19226 0.53976 0.21726 0.0
O193 O 0.18999 0.52735 0.23396 0.0
O194 O 0.26066 0.58432 0.23799 0.0
C195 C 0.80024 0.94084 0.5283 0.0
O196 O 0.81511 0.93904 0.51281 0.0
O197 O 0.82394 0.89614 0.57576 0.0
Zn198 Zn 0.82427 0.91052 0.54605 0.0
O199 O 0.81777 0.88669 0.51477 0.0
C200 C 0.87241 0.9278 0.55659 0.0
O201 O 0.87099 0.91055 0.56802 0.0
O202 O 0.80078 0.93017 0.54554 0.0
C203 C 0.83152 0.87478 0.50597 0.0
O204 O 0.85067 0.8763 0.51846 0.0
C205 C 0.80763 0.88142 0.58022 0.0
O206 O 0.78972 0.87446 0.56474 0.0
O207 O 0.85473 0.93113 0.54611 0.0
C208 C 0.9012 0.10736 0.28432 0.0
O209 O 0.89293 0.09576 0.30023 0.0
O210 O 0.95 0.06161 0.23825 0.0
Zn211 Zn 0.93227 0.06684 0.2717 0.0
O212 O 0.95505 0.07081 0.30495 0.0
C213 C 0.91516 1.01333 0.26528 0.0
O214 O 0.9356 1.01405 0.25922 0.0
O215 O 0.91606 0.09897 0.27189 0.0
C216 C 0.95058 0.0584 0.32104 0.0
O217 O 0.93137 0.04347 0.31749 0.0
C218 C 0.96916 0.07228 0.23335 0.0
O219 O 0.98092 0.08888 0.25031 0.0
O220 O 0.90894 0.03303 0.27063 0.0
C221 C 0.36923 0.61568 0.54638 0.0
O222 O 0.37117 0.63782 0.55583 0.0
O223 O 0.32461 0.64318 0.57593 0.0
Zn224 Zn 0.3214 0.61942 0.54388 0.0
O225 O 0.32091 0.63715 0.51679 0.0
C226 C 0.27376 0.60589 0.55135 0.0
O227 O 0.27994 0.62514 0.5676 0.0
O228 O 0.34943 0.60326 0.54034 0.0
C229 C 0.30541 0.64822 0.5143 0.0
O230 O 0.29047 0.64853 0.52979 0.0
C231 C 0.33045 0.66515 0.57783 0.0
O232 O 0.33711 0.67331 0.5591 0.0
O233 O 0.28887 0.59808 0.53964 0.0
C234 C 0.41421 0.61438 0.7702 0.0
O235 O 0.4318 0.61744 0.75822 0.0
O236 O 0.44959 0.56553 0.74264 0.0
Zn237 Zn 0.43038 0.56572 0.7753 0.0
O238 O 0.45282 0.57066 0.80922 0.0
C239 C 0.39898 0.51337 0.75795 0.0
O240 O 0.39758 0.51685 0.73593 0.0
O241 O 0.4102 0.5952 0.77847 0.0
C242 C 0.45507 0.55368 0.81973 0.0
O243 O 0.44443 0.53277 0.8089 0.0
C244 C 0.45554 0.54825 0.72898 0.0
O245 O 0.45022 0.5278 0.73475 0.0
O246 O 0.40996 0.53029 0.7745 0.0
C247 C 0.73958 0.02017 0.768 0.0
O248 O 0.73709 0.03993 0.78097 0.0
O249 O 0.69322 0.02715 0.7074 0.0
Zn250 Zn 0.71152 0.036 0.73935 0.0
O251 O 0.69075 0.04141 0.76466 0.0
C252 C 0.74427 0.07118 0.72367 0.0
O253 O 0.74018 0.0574 0.70243 0.0
O254 O 0.72891 1.01304 0.7473 0.0
C255 C 0.68911 0.06168 0.77496 0.0
O256 O 0.70141 0.07991 0.76909 0.0
C257 C 0.68542 0.04415 0.70258 0.0
O258 O 0.69029 0.06408 0.71796 0.0
O259 O 0.734 0.06539 0.74094 0.0
C260 C 0.83315 0.6851 1.00897 0.0
O261 O 0.84031 0.70409 1.00092 0.0
O262 O 0.7908 0.72248 0.03824 0.0
Zn263 Zn 0.79041 0.69974 1.00676 0.0
O264 O 0.7982 0.71542 0.97861 0.0
C265 C 0.75508 0.65737 0.99577 0.0
O266 O 0.77184 0.64655 0.99442 0.0
O267 O 0.81262 0.67967 1.01224 0.0
C268 C 0.78299 0.71878 0.96425 0.0
O269 O 0.76202 0.71305 0.96845 0.0
C270 C 0.80853 0.73528 0.05003 0.0
O271 O 0.8276 0.73563 0.04065 0.0
O272 O 0.75914 0.67949 1.0001 0.0
C273 C 0.89412 0.59139 0.81823 0.0
O274 O 0.91517 0.60135 0.81815 0.0
O275 O 0.92849 0.54999 0.79223 0.0
Zn276 Zn 0.91146 0.55022 0.82117 0.0
O277 O 0.93279 0.5593 0.85088 0.0
C278 C 0.88537 0.50577 0.79966 0.0
O279 O 0.88789 0.51452 0.78033 0.0
O280 O 0.8892 0.57034 0.82027 0.0
C281 C 0.94452 0.54434 0.85316 0.0
O282 O 0.94171 0.52536 0.83651 0.0
C283 C 0.94883 0.56004 0.79299 0.0
O284 O 0.95951 0.57206 0.81346 0.0
O285 O 0.89412 0.51806 0.8198 0.0
C286 C 0.74769 0.47459 0.51729 0.0
O287 O 0.74639 0.45242 0.51714 0.0
O288 O 0.79557 0.45156 0.53796 0.0
Zn289 Zn 0.79446 0.4698 0.5112 0.0
O290 O 0.79092 0.44609 0.47936 0.0
C291 C 0.83896 0.48981 0.49677 0.0
O292 O 0.82906 0.47992 0.47529 0.0
O293 O 0.76676 0.4867 0.51469 0.0
C294 C 0.80368 0.43142 0.47746 0.0
O295 O 0.81801 0.43209 0.49578 0.0
C296 C 0.78623 0.43027 0.53605 0.0
O297 O 0.77374 0.41921 0.51624 0.0
O298 O 0.82713 0.49006 0.51451 0.0
C299 C 0.70362 0.4764 0.27696 0.0
O300 O 0.68181 0.46916 0.27324 0.0
O301 O 0.67181 0.52505 0.24687 0.0
Zn302 Zn 0.69106 0.52844 0.2823 0.0
O303 O 0.66952 0.52789 0.31312 0.0
C304 C 0.70754 0.58046 0.27797 0.0
O305 O 0.68764 0.57595 0.26611 0.0
O306 O 0.71104 0.4989 0.2808 0.0
C307 C 0.66718 0.54525 0.32952 0.0
O308 O 0.67811 0.56598 0.32796 0.0
C309 C 0.65357 0.53198 0.24207 0.0
O310 O 0.64365 0.54078 0.26028 0.0
O311 O 0.71322 0.56382 0.28703 0.0
Eu312 Eu 0.07633 0.07498 0.03525 0.0
Eu313 Eu 0.04994 0.02112 0.01713 0.0
C314 C 0.08157 0.04703 0.98019 0.0
C315 C 0.08671 0.13858 0.06186 0.0
C316 C 0.06434 0.13558 0.06693 0.0
C317 C 0.08931 0.18014 0.06826 0.0
C318 C 0.05417 0.1547 0.07146 0.0
C319 C 0.09942 0.16098 0.06362 0.0
C320 C 0.06629 0.17702 0.07091 0.0
C321 C 0.09541 0.11849 0.05072 0.0
O322 O 0.08585 0.01769 0.02558 0.0
O323 O 0.10443 0.05559 0.0386 0.0
C324 C 0.10452 0.03329 0.03263 0.0
O325 O 0.05864 0.0676 0.06825 0.0
O326 O 0.03025 0.99326 0.98926 0.0
O327 O 0.03949 0.98642 0.02411 0.0
O328 O 0.0394 0.02996 0.05553 0.0
C329 C 0.04435 0.0494 0.07208 0.0
O330 O 0.04058 0.07848 0.02576 0.0
O331 O 0.02181 0.04046 1.01423 0.0
O332 O 0.06701 0.02882 0.98368 0.0
O333 O 0.09612 0.10252 0.06332 0.0
O334 O 0.08714 0.10973 0.02858 0.0
O335 O 0.08685 0.06615 0.99708 0.0
C336 C 0.04115 0.95786 0.9911 0.0
C337 C 0.0621 0.96211 0.98223 0.0
C338 C 0.0445 0.91826 0.99117 0.0
C339 C 0.07465 0.94481 0.97894 0.0
C340 C 0.03194 0.93556 0.99436 0.0
C341 C 0.06652 0.92315 0.98481 0.0
C342 C 0.03151 0.97743 1.00193 0.0
C343 C 0.02184 0.06282 0.01935 0.0
H344 H 0.0543 0.1183 0.06561 0.0
H345 H 0.09903 0.19708 0.06747 0.0
H346 H 0.03646 0.15184 0.07356 0.0
H347 H 0.11668 0.16351 0.05963 0.0
H348 H 0.06954 0.97934 0.97975 0.0
H349 H 0.03773 0.9019 0.99609 0.0
H350 H 0.09141 0.94901 0.97373 0.0
H351 H 1.01589 0.93208 1.00142 0.0
Eu352 Eu 0.33792 0.80849 0.25487 0.0
Eu353 Eu 0.30893 0.79592 0.29977 0.0
C354 C 0.28506 0.80486 0.25218 0.0
C355 C 0.3521 0.83441 0.20136 0.0
C356 C 0.33226 0.84287 0.2022 0.0
C357 C 0.35934 0.84955 0.16545 0.0
C358 C 0.32594 0.85452 0.18471 0.0
C359 C 0.36565 0.83789 0.18298 0.0
C360 C 0.33935 0.8579 0.16604 0.0
C361 C 0.35817 0.82134 0.21922 0.0
O362 O 0.30617 0.76237 0.27336 0.0
O363 O 0.33693 0.77051 0.2527 0.0
C364 C 0.32087 0.75575 0.2592 0.0
O365 O 0.36328 0.80965 0.28561 0.0
O366 O 0.28004 0.77686 0.31349 0.0
O367 O 0.30548 0.8019 0.33799 0.0
O368 O 0.34163 0.78531 0.30572 0.0
C369 C 0.36123 0.79591 0.30117 0.0
O370 O 0.32624 0.8404 0.27214 0.0
O371 O 0.32651 0.83341 0.30995 0.0
O372 O 0.28585 0.80886 0.27564 0.0
O373 O 0.3626 0.833 0.24125 0.0
O374 O 0.34527 0.80098 0.21774 0.0
O375 O 0.30169 0.79876 0.24095 0.0
C376 C 0.28865 0.76861 0.35133 0.0
C377 C 0.30517 0.7552 0.34965 0.0
C378 C 0.27519 0.75155 0.38438 0.0
C379 C 0.30685 0.74024 0.36546 0.0
C380 C 0.27359 0.76657 0.36863 0.0
C381 C 0.29198 0.73837 0.38314 0.0
C382 C 0.28769 0.78544 0.33582 0.0
C383 C 0.32754 0.84789 0.29532 0.0
H384 H 0.32153 0.8402 0.21624 0.0
H385 H 0.37018 0.85212 0.1515 0.0
H386 H 0.31031 0.86043 0.18553 0.0
H387 H 0.38101 0.83145 0.1821 0.0
H388 H 0.31692 0.75655 0.33632 0.0
H389 H 0.26366 0.75073 0.39796 0.0
H390 H 0.31979 0.73015 0.36386 0.0
H391 H 0.26081 0.77688 0.37021 0.0
Eu392 Eu 0.58533 0.05853 0.50424 0.0
Eu393 Eu 0.54115 0.05402 0.53507 0.0
C394 C 0.58747 0.04701 0.55694 0.0
C395 C 0.64064 0.04712 0.48784 0.0
C396 C 0.64062 0.03512 0.50672 0.0
C397 C 0.67608 0.03709 0.47816 0.0
C398 C 0.65822 0.02428 0.51137 0.0
C399 C 0.65844 0.04804 0.47357 0.0
C400 C 0.6762 0.02512 0.49717 0.0
C401 C 0.62207 0.05868 0.48342 0.0
O402 O 0.56247 0.08971 0.54857 0.0
O403 O 0.58018 0.09508 0.51522 0.0
C404 C 0.57316 0.10341 0.53567 0.0
O405 O 0.55606 0.0589 0.47828 0.0
O406 O 0.52438 0.06315 0.5671 0.0
O407 O 0.50576 0.03962 0.53579 0.0
O408 O 0.53391 0.07287 0.5061 0.0
C409 C 0.53909 0.06868 0.48402 0.0
O410 O 0.57404 0.02091 0.50561 0.0
O411 O 0.53702 0.02086 0.50783 0.0
O412 O 0.56582 0.03873 0.55456 0.0
O413 O 0.60302 0.04484 0.47453 0.0
O414 O 0.61963 0.07511 0.50097 0.0
O415 O 0.59681 0.05993 0.54262 0.0
C416 C 0.48763 0.06703 0.55634 0.0
C417 C 0.49311 0.08924 0.55094 0.0
C418 C 0.44861 0.07003 0.55553 0.0
C419 C 0.47646 0.10172 0.54776 0.0
C420 C 0.46533 0.05759 0.55884 0.0
C421 C 0.45398 0.09212 0.54968 0.0
C422 C 0.50462 0.0527 0.55643 0.0
C423 C 0.55314 1.00986 0.50252 0.0
H424 H 0.62694 0.03413 0.51789 0.0
H425 H 0.68977 0.03827 0.46703 0.0
H426 H 0.65758 1.01495 0.52591 0.0
H427 H 0.65875 0.05726 0.45896 0.0
H428 H 0.51017 0.09664 0.54843 0.0
H429 H 0.43147 0.06228 0.5573 0.0
H430 H 0.4811 0.11852 0.54292 0.0
H431 H 0.46077 0.04035 0.56269 0.0
Eu432 Eu 0.28368 0.30318 0.77615 0.0
Eu433 Eu 0.33289 0.291 0.77991 0.0
C434 C 0.28813 0.25022 0.78134 0.0
C435 C 0.22597 0.31223 0.7897 0.0
C436 C 0.22777 0.30302 0.81039 0.0
C437 C 0.19019 0.32083 0.79967 0.0
C438 C 0.21085 0.30274 0.82569 0.0
C439 C 0.20711 0.32106 0.78436 0.0
C440 C 0.19193 0.31177 0.82056 0.0
C441 C 0.24404 0.31333 0.77409 0.0
O442 O 0.32622 0.29355 0.74126 0.0
O443 O 0.28809 0.28612 0.7388 0.0
C444 C 0.30668 0.28747 0.72852 0.0
O445 O 0.30675 0.33514 0.76721 0.0
O446 O 0.35584 0.26883 0.7673 0.0
O447 O 0.36708 0.29801 0.79703 0.0
O448 O 0.34048 0.33083 0.7832 0.0
C449 C 0.32813 0.3439 0.7746 0.0
O450 O 0.29497 0.31353 0.81552 0.0
O451 O 0.32347 0.29392 0.81771 0.0
O452 O 0.30895 0.25526 0.77583 0.0
O453 O 0.2623 0.32843 0.7829 0.0
O454 O 0.24809 0.29343 0.76378 0.0
O455 O 0.27666 0.26692 0.7858 0.0
C456 C 0.39385 0.2883 0.77101 0.0
C457 C 0.39436 0.28541 0.7461 0.0
C458 C 0.43399 0.30324 0.77635 0.0
C459 C 0.41458 0.29107 0.73641 0.0
C460 C 0.41378 0.29738 0.78602 0.0
C461 C 0.43468 0.29993 0.7514 0.0
C462 C 0.37285 0.28171 0.78164 0.0
C463 C 0.30956 0.30587 0.82799 0.0
H464 H 0.24237 0.29628 0.81481 0.0
H465 H 0.17569 0.32763 0.7951 0.0
H466 H 0.21279 0.2959 0.84177 0.0
H467 H 0.20553 0.32824 0.76844 0.0
H468 H 0.37922 0.27853 0.73406 0.0
H469 H 0.44906 0.31037 0.78844 0.0
H470 H 0.41449 0.28795 0.71712 0.0
H471 H 0.41374 0.29985 0.80529 0.0
Eu472 Eu 0.0556 0.07368 0.53827 0.0
Eu473 Eu 0.06757 0.0251 0.51318 0.0
C474 C 0.1014 0.07284 0.51335 0.0
C475 C 0.05539 0.13663 0.54702 0.0
C476 C 0.07657 0.14162 0.5388 0.0
C477 C 0.0457 0.16929 0.53215 0.0
C478 C 0.0821 0.15995 0.52695 0.0
C479 C 0.04017 0.15091 0.5441 0.0
C480 C 0.0665 0.17355 0.52286 0.0
C481 C 0.04815 0.11479 0.55532 0.0
O482 O 0.08576 0.03276 0.55123 0.0
O483 O 0.06674 0.05894 0.57058 0.0
C484 C 0.08089 0.04481 0.57139 0.0
O485 O 0.02396 0.04734 0.53791 0.0
O486 O 0.09134 1.00234 0.50606 0.0
O487 O 0.05687 0.99035 0.49104 0.0
O488 O 0.03907 1.01498 0.53474 0.0
C489 C 0.02233 0.0254 0.53891 0.0
O490 O 0.04843 0.07232 0.49778 0.0
O491 O 0.04456 0.03327 0.48397 0.0
O492 O 0.09261 0.05206 0.5007 0.0
O493 O 0.03385 0.09884 0.54031 0.0
O494 O 0.06391 0.1063 0.56463 0.0
O495 O 0.09159 0.08243 0.53114 0.0
C496 C 0.0739 0.96422 0.50707 0.0
C497 C 0.06763 0.96622 0.53042 0.0
C498 C 0.07377 0.92342 0.50543 0.0
C499 C 0.06421 0.94697 0.54113 0.0
C500 C 0.07707 0.9428 0.49462 0.0
C501 C 0.06716 0.9253 0.52878 0.0
C502 C 0.07582 0.98445 0.49579 0.0
C503 C 0.04156 0.05374 0.48047 0.0
H504 H 0.08858 0.13077 0.5406 0.0
H505 H 0.03328 0.17939 0.52912 0.0
H506 H 0.09839 0.16303 0.52036 0.0
H507 H 0.02365 0.14717 0.55005 0.0
H508 H 0.06496 0.98264 0.54023 0.0
H509 H 0.07637 0.90702 0.49554 0.0
H510 H 0.05868 0.94898 0.5589 0.0
H511 H 0.08185 0.94101 0.47654 0.0
Eu512 Eu 0.33328 0.81122 0.77179 0.0
Eu513 Eu 0.28649 0.78033 0.78003 0.0
C514 C 0.31452 0.81999 0.82303 0.0
C515 C 0.39451 0.8277 0.77326 0.0
C516 C 0.39454 0.81027 0.78653 0.0
C517 C 0.43465 0.83239 0.77271 0.0
C518 C 0.41433 0.80371 0.79263 0.0
C519 C 0.4146 0.8387 0.76622 0.0
C520 C 0.43468 0.81487 0.78609 0.0
C521 C 0.37313 0.83328 0.76629 0.0
O522 O 0.27587 0.81389 0.77135 0.0
O523 O 0.31009 0.83751 0.77089 0.0
C524 C 0.28803 0.83477 0.77065 0.0
O525 O 0.31622 0.79574 0.73455 0.0
O526 O 0.26521 0.76302 0.80341 0.0
O527 O 0.25339 0.76034 0.7661 0.0
O528 O 0.29478 0.76383 0.74382 0.0
C529 C 0.30526 0.77412 0.72822 0.0
O530 O 0.34233 0.77548 0.77367 0.0
O531 O 0.31133 0.75687 0.78787 0.0
O532 O 0.29483 0.80882 0.81273 0.0
O533 O 0.36055 0.81763 0.74946 0.0
O534 O 0.36193 0.83995 0.78401 0.0
O535 O 0.33254 0.81819 0.81211 0.0
C536 C 0.22703 0.76201 0.79368 0.0
C537 C 0.2232 0.78429 0.7933 0.0
C538 C 0.18766 0.74831 0.79641 0.0
C539 C 0.20146 0.78812 0.7927 0.0
C540 C 0.20942 0.74441 0.79662 0.0
C541 C 0.1833 0.7697 0.79262 0.0
C542 C 0.24822 0.75624 0.78696 0.0
C543 C 0.3318 0.75708 0.78128 0.0
H544 H 0.3792 0.80167 0.79222 0.0
H545 H 0.45011 0.84147 0.76762 0.0
H546 H 0.41362 0.78984 0.80248 0.0
H547 H 0.41479 0.85215 0.75587 0.0
H548 H 0.23674 0.79814 0.79128 0.0
H549 H 0.17407 0.73396 0.79703 0.0
H550 H 0.19884 0.8048 0.78977 0.0
H551 H 0.21222 0.72718 0.79724 0.0
Eu552 Eu 0.56669 0.04186 0.06045 0.0
Eu553 Eu 0.56299 0.06362 1.01246 0.0
C554 C 0.56134 0.09364 0.06449 0.0
C555 C 0.55522 0.01939 0.11721 0.0
C556 C 0.53347 0.02351 0.11579 0.0
C557 C 0.54931 1.00638 0.15441 0.0
C558 C 0.51971 0.01918 0.13367 0.0
C559 C 0.56306 1.01069 0.13646 0.0
C560 C 0.52753 1.01069 0.15323 0.0
C561 C 0.56969 0.02404 0.09856 0.0
O562 O 0.59901 0.05919 0.01671 0.0
O563 O 0.60159 0.06169 0.05724 0.0
C564 C 0.61121 0.06263 0.03736 0.0
O565 O 0.5771 0.01685 0.03131 0.0
O566 O 0.57482 0.09153 0.99377 0.0
O567 O 0.54634 0.06426 0.97787 0.0
O568 O 0.55941 0.02523 0.99852 0.0
C569 C 0.56877 1.01114 1.00887 0.0
O570 O 0.53006 0.03026 0.04582 0.0
O571 O 0.52778 0.05827 0.02393 0.0
O572 O 0.57046 0.09322 0.04434 0.0
O573 O 0.56255 1.01174 0.07719 0.0
O574 O 0.5773 0.04591 0.0984 0.0
O575 O 0.55372 0.0744 0.07172 0.0
C576 C 0.57044 0.08036 0.95197 0.0
C577 C 0.57544 0.05929 0.94067 0.0
C578 C 0.58655 0.09893 0.921 0.0
C579 C 0.58591 0.05806 0.91962 0.0
C580 C 0.57588 0.1001 0.94195 0.0
C581 C 0.59177 0.07793 0.90975 0.0
C582 C 0.56073 0.08234 0.97486 0.0
C583 C 0.51805 0.04154 0.03418 0.0
H584 H 0.52723 0.03026 0.10096 0.0
H585 H 0.5557 0.9997 0.16919 0.0
H586 H 0.50316 0.02305 0.13248 0.0
H587 H 0.57982 1.00734 0.13766 0.0
H588 H 0.57163 0.04393 0.94835 0.0
H589 H 0.59081 0.11445 0.91366 0.0
H590 H 0.59005 0.04175 0.91147 0.0
H591 H 0.57222 0.11651 0.95055 0.0
Eu592 Eu 0.33273 0.32256 0.2932 0.0
Eu593 Eu 0.29691 0.27779 0.26035 0.0
C594 C 0.31955 0.3206 0.23785 0.0
C595 C 0.35603 0.38424 0.32316 0.0
C596 C 0.34402 0.39223 0.34209 0.0
C597 C 0.3534 0.41843 0.30693 0.0
C598 C 0.33556 0.41232 0.34251 0.0
C599 C 0.36185 0.39834 0.30649 0.0
C600 C 0.33912 0.42484 0.32414 0.0
C601 C 0.35893 0.3599 0.31851 0.0
O602 O 0.32831 0.26436 0.26557 0.0
O603 O 0.35317 0.29953 0.27345 0.0
C604 C 0.34866 0.27678 0.26708 0.0
O605 O 0.33045 0.29437 0.31468 0.0
O606 O 0.28756 0.25124 0.22768 0.0
O607 O 0.26413 0.25441 0.25431 0.0
O608 O 0.29566 0.27344 0.29867 0.0
C609 C 0.31215 0.27924 0.31592 0.0
O610 O 0.29843 0.32656 0.30222 0.0
O611 O 0.27897 0.30743 0.26646 0.0
O612 O 0.3143 0.29792 0.23498 0.0
O613 O 0.34495 0.34546 0.32773 0.0
O614 O 0.36168 0.35101 0.2965 0.0
O615 O 0.32217 0.33396 0.2593 0.0
C616 C 0.26722 0.21667 0.23532 0.0
C617 C 0.26928 0.2093 0.25711 0.0
C618 C 0.27108 0.17871 0.21417 0.0
C619 C 0.27293 0.18711 0.25747 0.0
C620 C 0.26729 0.20095 0.2138 0.0
C621 C 0.27479 0.17192 0.23608 0.0
C622 C 0.26914 0.24149 0.23518 0.0
C623 C 0.28033 0.32158 0.28722 0.0
H624 H 0.3397 0.38204 0.35555 0.0
H625 H 0.3565 0.42775 0.29255 0.0
H626 H 0.32502 0.41721 0.35631 0.0
H627 H 0.37144 0.39291 0.29195 0.0
H628 H 0.26959 0.22115 0.27402 0.0
H629 H 0.27223 0.16728 0.1974 0.0
H630 H 0.27603 0.1826 0.27468 0.0
H631 H 0.26586 0.20638 0.19682 0.0
Eu632 Eu 0.55635 0.57273 0.04156 0.0
Eu633 Eu 0.56703 0.52312 0.01669 0.0
C634 C 0.60155 0.57016 0.0155 0.0
C635 C 0.55922 0.63641 0.05173 0.0
C636 C 0.57821 0.63833 0.03915 0.0
C637 C 0.55473 0.67435 0.04542 0.0
C638 C 0.58533 0.65793 0.02963 0.0
C639 C 0.54766 0.65465 0.05512 0.0
C640 C 0.57339 0.67593 0.03214 0.0
C641 C 0.55059 0.61448 0.05919 0.0
O642 O 0.58563 0.53104 0.0546 0.0
O643 O 0.56729 0.5579 0.07386 0.0
C644 C 0.58115 0.54351 0.07472 0.0
O645 O 0.52443 0.54744 0.04258 0.0
O646 O 0.58986 0.49919 1.01026 0.0
O647 O 0.55553 0.4885 0.99455 0.0
O648 O 0.53797 0.51395 0.03793 0.0
C649 C 0.52201 0.52531 0.04308 0.0
O650 O 0.54749 0.57077 1.00119 0.0
O651 O 0.5453 0.53196 0.98676 0.0
O652 O 0.59262 0.54911 1.0036 0.0
O653 O 0.53617 0.59934 0.04353 0.0
O654 O 0.56561 0.60497 0.06836 0.0
O655 O 0.59205 0.5804 0.03319 0.0
C656 C 0.5713 0.46062 1.01035 0.0
C657 C 0.55002 0.44653 1.01 0.0
C658 C 0.5867 0.43786 0.03577 0.0
C659 C 0.54702 0.42884 0.02303 0.0
C660 C 0.58972 0.4556 0.02274 0.0
C661 C 0.56522 0.42474 0.03659 0.0
C662 C 0.5739 0.48172 0.9999 0.0
C663 C 0.54152 0.55228 0.98359 0.0
H664 H 0.58722 0.62435 0.03611 0.0
H665 H 0.54509 0.68786 0.04749 0.0
H666 H 0.59998 0.65876 0.01987 0.0
H667 H 0.53283 0.65334 0.06458 0.0
H668 H 0.53548 0.44967 1.00039 0.0
H669 H 0.60106 0.43517 0.04609 0.0
H670 H 0.53034 0.41869 0.02292 0.0
H671 H 0.60634 0.46601 0.0232 0.0
Eu672 Eu 0.83308 0.31188 0.27069 0.0
Eu673 Eu 0.78701 0.28061 0.28062 0.0
C674 C 0.8141 0.32129 0.32281 0.0
C675 C 0.89197 0.32548 0.25454 0.0
C676 C 0.89321 0.30218 0.25335 0.0
C677 C 0.93056 0.33398 0.24596 0.0
C678 C 0.91334 0.29508 0.24994 0.0
C679 C 0.91044 0.34116 0.2499 0.0
C680 C 0.93257 0.31114 0.24723 0.0
C681 C 0.87224 0.33367 0.26298 0.0
O682 O 0.77698 0.31548 0.27541 0.0
O683 O 0.80997 0.33823 0.2694 0.0
C684 C 0.78836 0.33585 0.27222 0.0
O685 O 0.81741 0.29341 0.23393 0.0
O686 O 0.76486 0.2628 0.30298 0.0
O687 O 0.75326 0.26268 0.26628 0.0
O688 O 0.7952 0.26269 0.24465 0.0
C689 C 0.8062 0.27191 0.22865 0.0
O690 O 0.84293 0.27676 0.27568 0.0
O691 O 0.8104 0.25515 0.28423 0.0
O692 O 0.80132 0.30044 0.31758 0.0
O693 O 0.85468 0.32897 0.24741 0.0
O694 O 0.86727 0.32937 0.28381 0.0
O695 O 0.82605 0.32971 0.30699 0.0
C696 C 0.72706 0.26407 0.29443 0.0
C697 C 0.72207 0.28532 0.29141 0.0
C698 C 0.69043 0.25309 0.30769 0.0
C699 C 0.70105 0.28999 0.29546 0.0
C700 C 0.71144 0.24832 0.30335 0.0
C701 C 0.68467 0.27357 0.30286 0.0
C702 C 0.7478 0.25768 0.28671 0.0
C703 C 0.83174 0.25697 0.28041 0.0
H704 H 0.87896 0.28976 0.25653 0.0
H705 H 0.94483 0.34666 0.24322 0.0
H706 H 0.91407 0.27742 0.25124 0.0
H707 H 0.90962 0.35917 0.2504 0.0
H708 H 0.73404 0.29779 0.28473 0.0
H709 H 0.67838 0.24028 0.31385 0.0
H710 H 0.69725 0.30581 0.29124 0.0
H711 H 0.71518 0.23196 0.30607 0.0
Eu712 Eu 0.05866 0.52841 0.5405 0.0
Eu713 Eu 0.05653 0.54747 0.4906 0.0
C714 C 0.04931 0.57918 0.53942 0.0
C715 C 0.04923 0.51798 0.6029 0.0
C716 C 0.02592 0.51578 0.60177 0.0
C717 C 0.05156 0.52912 0.6462 0.0
C718 C 1.01552 0.52007 0.62271 0.0
C719 C 0.06195 0.52458 0.62525 0.0
C720 C 0.02825 0.5269 0.6451 0.0
C721 C 0.06058 0.51437 0.58098 0.0
O722 O 0.09214 0.56118 0.50832 0.0
O723 O 0.094 0.53264 0.52937 0.0
C724 C 0.10404 0.54974 0.51985 0.0
O725 O 0.05246 0.49691 0.51072 0.0
O726 O 0.06184 0.57659 0.47242 0.0
O727 O 0.04919 0.54168 0.45184 0.0
O728 O 0.06873 0.51412 0.48192 0.0
C729 C 0.06132 0.4955 0.49035 0.0
O730 O 0.02198 0.52948 0.5334 0.0
O731 O 0.02065 0.52947 0.4931 0.0
O732 O 0.0425 0.57211 0.51666 0.0
O733 O 0.04837 0.50221 0.56162 0.0
O734 O 0.07408 0.5326 0.57696 0.0
O735 O 0.05977 0.5669 0.55125 0.0
C736 C 0.07341 0.56768 0.43425 0.0
C737 C 0.09489 0.56346 0.43847 0.0
C738 C 0.08405 0.58138 0.39846 0.0
C739 C 0.11089 0.56815 0.42274 0.0
C740 C 0.06805 0.57668 0.41424 0.0
C741 C 0.10563 0.57712 0.40253 0.0
C742 C 0.05685 0.56342 0.45113 0.0
C743 C 1.01048 0.52716 0.5125 0.0
H744 H 1.01572 0.51101 0.58473 0.0
H745 H 0.06172 0.53423 0.66327 0.0
H746 H 0.99755 0.51851 0.62137 0.0
H747 H 0.07996 0.52645 0.62647 0.0
H748 H 0.09929 0.55667 0.45401 0.0
H749 H 0.07943 0.588 0.3829 0.0
H750 H 0.12744 0.56496 0.42652 0.0
H751 H 0.05152 0.58008 0.41084 0.0
Eu752 Eu 0.78847 0.8045 0.277 0.0
Eu753 Eu 0.83778 0.79166 0.28057 0.0
C754 C 0.79285 0.75091 0.28137 0.0
C755 C 0.73005 0.80659 0.29146 0.0
C756 C 0.73383 0.7962 0.31098 0.0
C757 C 0.69126 0.80381 0.29922 0.0
C758 C 0.71654 0.79001 0.32479 0.0
C759 C 0.70867 0.8102 0.28551 0.0
C760 C 0.69511 0.79388 0.31915 0.0
C761 C 0.74854 0.81372 0.27756 0.0
O762 O 0.82699 0.78342 0.24107 0.0
O763 O 0.79661 0.80048 0.23868 0.0
C764 C 0.81159 0.78997 0.22854 0.0
O765 O 0.81236 0.83992 0.27927 0.0
O766 O 0.86093 0.76939 0.26824 0.0
O767 O 0.87176 0.79849 0.2979 0.0
O768 O 0.84541 0.82841 0.27214 0.0
C769 C 0.83359 0.84492 0.27505 0.0
O770 O 0.79565 0.80232 0.31564 0.0
O771 O 0.8337 0.80908 0.31795 0.0
O772 O 0.81463 0.75858 0.28739 0.0
O773 O 0.76625 0.82738 0.29004 0.0
O774 O 0.75358 0.7971 0.26196 0.0
O775 O 0.78058 0.76488 0.2744 0.0
C776 C 0.89788 0.79021 0.27076 0.0
C777 C 0.90143 0.81167 0.26355 0.0
C778 C 0.93162 0.78238 0.25377 0.0
C779 C 0.91998 0.81849 0.25159 0.0
C780 C 0.91309 0.77564 0.26587 0.0
C781 C 0.93524 0.80386 0.2464 0.0
C782 C 0.87785 0.78254 0.28239 0.0
C783 C 0.81518 0.80836 0.3283 0.0
H784 H 0.75021 0.79305 0.31566 0.0
H785 H 0.67493 0.80715 0.2946 0.0
H786 H 0.7199 0.78214 0.33986 0.0
H787 H 0.70549 0.81814 0.27043 0.0
H788 H 0.88977 0.82312 0.26703 0.0
H789 H 0.94282 0.77052 0.24972 0.0
H790 H 0.92239 0.83525 0.24648 0.0
H791 H 0.91047 0.75892 0.2711 0.0
Eu792 Eu 0.82622 0.29063 0.74555 0.0
Eu793 Eu 0.79894 0.28804 0.79374 0.0
C794 C 0.77451 0.29423 0.74531 0.0
C795 C 0.83978 0.31111 0.68967 0.0
C796 C 0.8227 0.32363 0.69336 0.0
C797 C 0.84597 0.32526 0.65298 0.0
C798 C 0.8173 0.3369 0.67705 0.0
C799 C 0.8514 0.31197 0.66939 0.0
C800 C 0.82888 0.33792 0.65665 0.0
C801 C 0.84516 0.29723 0.70709 0.0
O802 O 0.79014 0.25271 0.7695 0.0
O803 O 0.82077 0.25302 0.74812 0.0
C804 C 0.80313 0.24181 0.75613 0.0
O805 O 0.8522 0.29349 0.77642 0.0
O806 O 0.77067 0.27388 0.81195 0.0
O807 O 0.7986 0.29928 0.8322 0.0
O808 O 0.82934 0.27328 0.79893 0.0
C809 C 0.84934 0.28176 0.79367 0.0
O810 O 0.81782 0.32532 0.75854 0.0
O811 O 0.81951 0.32439 0.79823 0.0
O812 O 0.77635 0.30059 0.76876 0.0
O813 O 0.85294 0.30913 0.7285 0.0
O814 O 0.82983 0.27897 0.70772 0.0
O815 O 0.78951 0.2846 0.73409 0.0
C816 C 0.78218 0.26924 0.8506 0.0
C817 C 0.79804 0.25507 0.84889 0.0
C818 C 0.77128 0.2563 0.88679 0.0
C819 C 0.80073 0.24184 0.86618 0.0
C820 C 0.76871 0.26965 0.86953 0.0
C821 C 0.7875 0.24238 0.88548 0.0
C822 C 0.78039 0.28424 0.8332 0.0
C823 C 0.82073 0.33606 0.78095 0.0
H824 H 0.81346 0.32308 0.70888 0.0
H825 H 0.85533 0.32584 0.63756 0.0
H826 H 0.80382 0.3461 0.68025 0.0
H827 H 0.86464 0.30243 0.66628 0.0
H828 H 0.8086 0.25454 0.83438 0.0
H829 H 0.76053 0.25686 0.90114 0.0
H830 H 0.81356 0.23161 0.86469 0.0
H831 H 0.75634 0.28045 0.87109 0.0
Eu832 Eu 0.83126 0.8172 0.78581 0.0
Eu833 Eu 0.79641 0.77094 0.75444 0.0
C834 C 0.81431 0.81436 0.73035 0.0
C835 C 0.85195 0.87853 0.8182 0.0
C836 C 0.83119 0.88124 0.82618 0.0
C837 C 0.86007 0.91906 0.815 0.0
C838 C 0.82463 0.90243 0.82774 0.0
C839 C 0.86671 0.89781 0.81354 0.0
C840 C 0.8386 0.92125 0.82116 0.0
C841 C 0.85658 0.85516 0.81104 0.0
O842 O 0.82935 0.7601 0.75938 0.0
O843 O 0.85242 0.79606 0.76493 0.0
C844 C 0.84907 0.77335 0.75944 0.0
O845 O 0.83056 0.78944 0.80784 0.0
O846 O 0.78867 0.74032 0.72546 0.0
O847 O 0.76335 0.74815 0.7486 0.0
O848 O 0.79557 0.76848 0.79325 0.0
C849 C 0.81244 0.77448 0.81 0.0
O850 O 0.79678 0.82 0.79512 0.0
O851 O 0.77706 0.79945 0.75999 0.0
O852 O 0.80921 0.79161 0.72731 0.0
O853 O 0.84521 0.83894 0.82046 0.0
O854 O 0.85733 0.84828 0.78812 0.0
O855 O 0.81905 0.8277 0.7519 0.0
C856 C 0.76834 0.70934 0.74003 0.0
C857 C 0.76336 0.70662 0.76318 0.0
C858 C 0.78329 0.67419 0.73518 0.0
C859 C 0.76964 0.68874 0.77273 0.0
C860 C 0.77697 0.69209 0.72559 0.0
C861 C 0.78094 0.67327 0.75931 0.0
C862 C 0.7698 0.7322 0.73333 0.0
C863 C 0.77841 0.81409 0.78043 0.0
H864 H 0.81935 0.8666 0.82969 0.0
H865 H 0.87122 0.93339 0.81002 0.0
H866 H 0.80787 0.90342 0.83223 0.0
H867 H 0.88276 0.89603 0.80732 0.0
H868 H 0.75646 0.71942 0.77475 0.0
H869 H 0.79193 0.66247 0.72439 0.0
H870 H 0.76722 0.68811 0.79123 0.0
H871 H 0.78088 0.69373 0.70768 0.0
Eu872 Eu 0.57205 0.57325 0.53754 0.0
Eu873 Eu 0.54547 0.51991 0.51735 0.0
C874 C 0.57834 0.54663 0.48208 0.0
C875 C 0.58488 0.6375 0.56526 0.0
C876 C 0.56253 0.6393 0.56143 0.0
C877 C 0.59464 0.6783 0.58425 0.0
C878 C 0.55652 0.66077 0.56764 0.0
C879 C 0.60072 0.65681 0.57765 0.0
C880 C 0.57274 0.68082 0.57807 0.0
C881 C 0.59205 0.61637 0.55409 0.0
O882 O 0.58125 0.51595 0.52502 0.0
O883 O 0.59949 0.55316 0.54212 0.0
C884 C 0.59971 0.5311 0.53418 0.0
O885 O 0.55293 0.56535 0.5696 0.0
O886 O 0.52536 0.49332 0.48863 0.0
O887 O 0.53499 0.4845 0.52241 0.0
O888 O 0.53548 0.52717 0.55616 0.0
C889 C 0.53936 0.54644 0.57297 0.0
O890 O 0.53655 0.57745 0.52726 0.0
O891 O 0.51745 0.53954 0.51612 0.0
O892 O 0.56262 0.52885 0.48435 0.0
O893 O 0.59138 0.60016 0.56662 0.0
O894 O 0.58417 0.60808 0.53175 0.0
O895 O 0.58419 0.56493 0.49992 0.0
C896 C 0.53667 0.45776 0.48788 0.0
C897 C 0.52731 0.43484 0.48903 0.0
C898 C 0.57057 0.44585 0.47539 0.0
C899 C 0.53997 0.41771 0.48462 0.0
C900 C 0.55789 0.46296 0.4798 0.0
C901 C 0.56225 0.42341 0.47923 0.0
C902 C 0.52687 0.47664 0.50008 0.0
C903 C 0.51764 0.56192 0.52119 0.0
H904 H 0.55001 0.62443 0.55214 0.0
H905 H 0.60744 0.69321 0.59285 0.0
H906 H 0.53953 0.66184 0.56236 0.0
H907 H 0.618 0.65558 0.58106 0.0
H908 H 0.51103 0.43061 0.49542 0.0
H909 H 0.58757 0.4507 0.47103 0.0
H910 H 0.53306 0.40068 0.48796 0.0
H911 H 0.56543 0.48066 0.47893 0.0
Eu912 Eu 0.08107 0.55847 0.03969 0.0
Eu913 Eu 0.03303 0.55665 0.06383 0.0
C914 C 0.07658 0.54954 0.09233 0.0
C915 C 0.13705 0.5448 0.02493 0.0
C916 C 0.1314 0.52313 0.03147 0.0
C917 C 0.17538 0.53989 0.02281 0.0
C918 C 0.14764 0.5099 0.03365 0.0
C919 C 0.15909 0.55307 0.02055 0.0
C920 C 0.16986 0.51818 0.02948 0.0
C921 C 0.12036 0.55937 0.02401 0.0
O922 O 0.04333 0.59182 0.05494 0.0
O923 O 0.08086 0.59427 0.06049 0.0
C924 C 0.06367 0.60427 0.05965 0.0
O925 O 0.05793 0.56776 1.0126 0.0
O926 O 1.01363 0.57389 0.08971 0.0
O927 O 0.99822 0.54111 0.06623 0.0
O928 O 0.02504 0.54919 0.02392 0.0
C929 C 0.03651 0.55832 1.00811 0.0
O930 O 0.06176 0.52168 0.02836 0.0
O931 O 0.03734 0.5196 0.05741 0.0
O932 O 0.06014 0.56079 0.09392 0.0
O933 O 0.10158 0.54967 1.01079 0.0
O934 O 0.11719 0.57124 0.04464 0.0
O935 O 0.08365 0.54226 0.07171 0.0
C936 C 0.97626 0.56977 0.074 0.0
C937 C 0.96813 0.56658 0.0498 0.0
C938 C 0.95102 0.59601 0.08463 0.0
C939 C 0.95157 0.57797 0.04311 0.0
C940 C 0.96744 0.58443 0.09135 0.0
C941 C 0.943 0.593 0.06042 0.0
C942 C 0.99495 0.55928 0.0811 0.0
C943 C 0.04737 0.50967 0.03987 0.0
H944 H 0.1145 0.5166 0.03523 0.0
H945 H 0.19227 0.54665 0.01924 0.0
H946 H 0.1429 0.49342 0.03913 0.0
H947 H 0.16375 0.56984 0.01562 0.0
H948 H 0.97487 0.55567 0.03596 0.0
H949 H 0.94462 0.60737 0.09837 0.0
H950 H 0.94594 0.57554 0.0243 0.0
H951 H 0.97356 0.58725 0.11008 0.0
H952 H 0.9995 0.25925 0.99379 0.0
H953 H 0.06944 0.2911 1.01181 0.0
H954 H 1.0017 0.23611 0.02441 0.0
H955 H 0.07208 0.26725 0.04129 0.0
H956 H 0.07747 0.22339 0.09197 0.0
H957 H 0.06457 0.25467 0.07682 0.0
H958 H 1.01674 0.2035 0.02549 0.0
H959 H 0.02893 0.17278 0.0412 0.0
C960 C 1.01531 0.26135 1.00439 0.0
C961 C 0.03441 0.2766 1.00014 0.0
C962 C 1.0166 0.24811 0.02193 0.0
C963 C 0.03714 0.24948 0.03517 0.0
C964 C 0.05588 0.26585 0.0318 0.0
C965 C 0.05447 0.27938 1.01461 0.0
C966 C 0.06364 0.21901 0.07804 0.0
C967 C 0.05444 0.19569 0.06752 0.0
C968 C 0.05636 0.23687 0.06921 0.0
C969 C 0.04006 0.23166 0.04942 0.0
C970 C 0.02923 0.20835 0.04077 0.0
C971 C 0.03627 0.19059 0.04982 0.0
H972 H 0.18196 0.79095 0.13827 0.0
H973 H 0.16491 0.84245 0.19395 0.0
H974 H 0.21429 0.78903 0.16395 0.0
H975 H 0.19782 0.84093 0.21957 0.0
H976 H 0.24403 0.80991 0.26651 0.0
H977 H 0.21169 0.81421 0.24172 0.0
H978 H 0.25025 0.81227 0.18081 0.0
H979 H 0.28211 0.80738 0.20518 0.0
C980 C 0.18525 0.80208 0.15591 0.0
C981 C 0.17088 0.81687 0.16407 0.0
C982 C 0.20387 0.80104 0.17061 0.0
C983 C 0.20864 0.81487 0.19377 0.0
C984 C 0.19441 0.82987 0.2019 0.0
C985 C 0.17569 0.83087 0.18717 0.0
C986 C 0.24553 0.81041 0.24783 0.0
C987 C 0.26549 0.80799 0.23774 0.0
C988 C 0.22709 0.81302 0.23368 0.0
C989 C 0.22839 0.81339 0.20927 0.0
C990 C 0.24856 0.81155 0.19942 0.0
C991 C 0.26685 0.80879 0.21345 0.0
H992 H 0.55605 0.8636 0.47043 0.0
H993 H 0.49067 0.86612 0.4393 0.0
H994 H 0.56428 0.90561 0.48367 0.0
H995 H 0.4992 0.90835 0.45186 0.0
H996 H 0.51313 0.9801 0.50138 0.0
H997 H 0.50448 0.93811 0.48744 0.0
H998 H 0.572 0.94052 0.46839 0.0
H999 H 0.58086 0.9824 0.48309 0.0
C1000 C 0.5435 0.87317 0.46623 0.0
C1001 C 0.5227 0.86159 0.45384 0.0
C1002 C 0.54827 0.89727 0.4737 0.0
C1003 C 0.53243 0.91034 0.46875 0.0
C1004 C 0.51165 0.89874 0.45624 0.0
C1005 C 0.5068 0.87458 0.44895 0.0
C1006 C 0.52611 0.97166 0.49418 0.0
C1007 C 0.5477 0.98452 0.49343 0.0
C1008 C 0.52112 0.94761 0.48605 0.0
C1009 C 0.53756 0.93596 0.47683 0.0
C1010 C 0.55906 0.94891 0.47578 0.0
C1011 C 0.56411 0.97293 0.48409 0.0
H1012 H 0.54759 0.34434 0.67196 0.0
H1013 H 0.55704 0.28062 0.69237 0.0
H1014 H 0.5154 0.34429 0.69509 0.0
H1015 H 0.52455 0.28008 0.71465 0.0
H1016 H 0.47512 0.2921 0.76724 0.0
H1017 H 0.51001 0.29808 0.74902 0.0
H1018 H 0.47781 0.32328 0.69275 0.0
H1019 H 0.4433 0.31877 0.71187 0.0
C1020 C 0.54282 0.33036 0.68141 0.0
C1021 C 0.55482 0.31246 0.68029 0.0
C1022 C 0.5243 0.33025 0.69455 0.0
C1023 C 0.51731 0.31214 0.70669 0.0
C1024 C 0.52964 0.29451 0.70589 0.0
C1025 C 0.54822 0.29473 0.69295 0.0
C1026 C 0.47558 0.29943 0.75129 0.0
C1027 C 0.45631 0.30483 0.74098 0.0
C1028 C 0.49554 0.30255 0.74064 0.0
C1029 C 0.4967 0.31094 0.71926 0.0
C1030 C 0.47762 0.31697 0.70931 0.0
C1031 C 0.45769 0.31404 0.72009 0.0
H1032 H 0.02083 0.8367 0.62587 0.0
H1033 H 0.04758 0.79118 0.57231 0.0
H1034 H 0.02974 0.86793 0.60378 0.0
H1035 H 0.05638 0.82246 0.55024 0.0
H1036 H 0.04635 0.88053 0.50802 0.0
H1037 H 0.03641 0.84769 0.52785 0.0
H1038 H 0.0671 0.8911 0.59526 0.0
H1039 H 0.07766 0.92368 0.57551 0.0
C1040 C 0.02837 0.83329 0.60927 0.0
C1041 C 0.03364 0.81156 0.60089 0.0
C1042 C 0.03359 0.85119 0.59673 0.0
C1043 C 0.04391 0.8476 0.57546 0.0
C1044 C 0.04838 0.82562 0.56658 0.0
C1045 C 0.04342 0.80779 0.57926 0.0
C1046 C 0.05134 0.88296 0.52698 0.0
C1047 C 0.06264 0.90479 0.54022 0.0
C1048 C 0.04553 0.8642 0.53832 0.0
C1049 C 0.05072 0.86703 0.5631 0.0
C1050 C 0.06249 0.88863 0.57621 0.0
C1051 C 0.06851 0.90726 0.56488 0.0
H1052 H 0.53685 0.76265 0.85828 0.0
H1053 H 0.57112 0.82208 0.8326 0.0
H1054 H 0.50261 0.76308 0.83423 0.0
H1055 H 0.53693 0.82251 0.80875 0.0
H1056 H 0.47124 0.81079 0.76124 0.0
H1057 H 0.50614 0.80109 0.77547 0.0
H1058 H 0.48014 0.79469 0.84296 0.0
H1059 H 0.4459 0.80503 0.82931 0.0
C1060 C 0.53723 0.77541 0.84706 0.0
C1061 C 0.55647 0.79263 0.84766 0.0
C1062 C 0.51765 0.77568 0.83337 0.0
C1063 C 0.51714 0.79302 0.81994 0.0
C1064 C 0.53691 0.80892 0.81889 0.0
C1065 C 0.55641 0.80878 0.83271 0.0
C1066 C 0.47305 0.80738 0.77913 0.0
C1067 C 0.45575 0.80859 0.7941 0.0
C1068 C 0.49289 0.80163 0.78714 0.0
C1069 C 0.4956 0.79677 0.81012 0.0
C1070 C 0.47824 0.79772 0.82491 0.0
C1071 C 0.45862 0.80371 0.81707 0.0
H1072 H 0.58596 0.23563 0.1459 0.0
H1073 H 0.51439 0.21084 0.14103 0.0
H1074 H 0.58993 0.19757 0.12432 0.0
H1075 H 0.51844 0.17293 0.11946 0.0
H1076 H 0.53808 0.10167 0.10348 0.0
H1077 H 0.53531 0.13931 0.12717 0.0
H1078 H 0.5786 0.17415 0.08239 0.0
H1079 H 0.58149 0.1367 0.05878 0.0
C1080 C 0.57111 0.22208 0.14026 0.0
C1081 C 0.54987 0.22624 0.14508 0.0
C1082 C 0.57338 0.20036 0.12787 0.0
C1083 C 0.55448 0.18237 0.12029 0.0
C1084 C 0.53329 0.18644 0.12534 0.0
C1085 C 0.53099 0.2082 0.13752 0.0
C1086 C 0.54707 0.11736 0.09877 0.0
C1087 C 0.55995 0.11623 0.07924 0.0
C1088 C 0.5454 0.13886 0.11225 0.0
C1089 C 0.55675 0.15957 0.10657 0.0
C1090 C 0.56987 0.15843 0.08728 0.0
C1091 C 0.57138 0.13698 0.07368 0.0
H1092 H 0.14487 0.32288 0.32309 0.0
H1093 H 0.18751 0.33402 0.38901 0.0
H1094 H 0.17753 0.32921 0.30124 0.0
H1095 H 0.22038 0.33912 0.36698 0.0
H1096 H 0.27746 0.35578 0.32517 0.0
H1097 H 0.24392 0.36128 0.34444 0.0
H1098 H 0.20403 0.30739 0.28866 0.0
H1099 H 0.23724 0.30267 0.26906 0.0
C1100 C 0.1613 0.32659 0.33288 0.0
C1101 C 0.16374 0.32759 0.35766 0.0
C1102 C 0.18002 0.3302 0.32035 0.0
C1103 C 0.20161 0.33438 0.33225 0.0
C1104 C 0.20402 0.33624 0.35725 0.0
C1105 C 0.18523 0.33308 0.36988 0.0
C1106 C 0.26141 0.34556 0.31676 0.0
C1107 C 0.25998 0.32858 0.29579 0.0
C1108 C 0.24223 0.34856 0.3279 0.0
C1109 C 0.22132 0.33448 0.31839 0.0
C1110 C 0.21978 0.31872 0.29644 0.0
C1111 C 0.23889 0.31594 0.28517 0.0
H1112 H 0.95146 0.04068 0.1895 0.0
H1113 H 1.01013 0.09207 0.2212 0.0
H1114 H 0.96857 0.03459 0.15147 0.0
H1115 H 0.02717 0.08579 0.18416 0.0
H1116 H 0.04924 0.08733 0.1098 0.0
H1117 H 0.03076 0.09185 0.1463 0.0
H1118 H 0.99436 0.02086 0.1256 0.0
H1119 H 1.01271 0.0166 0.08846 0.0
C1120 C 0.96799 0.05069 0.18861 0.0
C1121 C 0.97902 0.06707 0.20909 0.0
C1122 C 0.97802 0.04712 0.16654 0.0
C1123 C 0.99959 0.05979 0.16378 0.0
C1124 C 1.01051 0.07586 0.18448 0.0
C1125 C 1.00058 0.07939 0.20628 0.0
C1126 C 0.03743 0.07248 0.11288 0.0
C1127 C 0.033 0.05146 0.09561 0.0
C1128 C 0.02668 0.07505 0.1343 0.0
C1129 C 1.01077 0.05673 0.13995 0.0
C1130 C 1.00618 0.03568 0.12253 0.0
C1131 C 1.017 0.03311 0.10099 0.0
H1132 H 0.33286 0.65101 0.47823 0.0
H1133 H 0.27468 0.67372 0.50524 0.0
H1134 H 0.32972 0.6713 0.44519 0.0
H1135 H 0.27185 0.69424 0.4727 0.0
H1136 H 0.25876 0.70941 0.39931 0.0
H1137 H 0.26234 0.68659 0.42994 0.0
H1138 H 0.33405 0.71064 0.43753 0.0
H1139 H 0.33046 0.73337 0.40677 0.0
C1140 C 0.31946 0.66038 0.47718 0.0
C1141 C 0.304 0.6607 0.49436 0.0
C1142 C 0.31772 0.67207 0.4583 0.0
C1143 C 0.30045 0.68429 0.45621 0.0
C1144 C 0.2851 0.68465 0.47349 0.0
C1145 C 0.28684 0.67301 0.49229 0.0
C1146 C 0.27529 0.70984 0.40754 0.0
C1147 C 0.2943 0.72332 0.40071 0.0
C1148 C 0.27735 0.69678 0.42511 0.0
C1149 C 0.29848 0.69693 0.43635 0.0
C1150 C 0.31756 0.70993 0.42907 0.0
C1151 C 0.31549 0.72296 0.41144 0.0
H1152 H 0.67714 0.07943 0.68237 0.0
H1153 H 0.66178 1.0045 0.67241 0.0
H1154 H 0.65333 0.07708 0.64601 0.0
H1155 H 0.63749 1.00226 0.63576 0.0
H1156 H 0.57543 0.02217 0.59174 0.0
H1157 H 0.59965 0.01859 0.62611 0.0
H1158 H 0.65611 0.05906 0.6009 0.0
H1159 H 0.63239 0.06255 0.56675 0.0
C1160 C 0.66865 0.06244 0.6724 0.0
C1161 C 0.67133 0.04213 0.68016 0.0
C1162 C 0.6551 0.06112 0.65157 0.0
C1163 C 0.64371 0.0395 0.63818 0.0
C1164 C 0.64613 0.01911 0.64592 0.0
C1165 C 0.66007 0.0204 0.6667 0.0
C1166 C 0.59305 0.03008 0.59343 0.0
C1167 C 0.60189 0.04299 0.57675 0.0
C1168 C 0.60688 0.02789 0.61296 0.0
C1169 C 0.6296 0.03873 0.61609 0.0
C1170 C 0.63856 0.05076 0.59892 0.0
C1171 C 0.6249 0.05278 0.57942 0.0
H1172 H 0.30209 0.37824 0.97202 0.0
H1173 H 0.34381 0.32992 0.98338 0.0
H1174 H 0.29665 0.36152 0.9295 0.0
H1175 H 0.33751 0.31229 0.94082 0.0
H1176 H 0.34458 0.30644 0.86039 0.0
H1177 H 0.34777 0.31933 0.90369 0.0
H1178 H 0.28004 0.33038 0.89894 0.0
H1179 H 0.27735 0.31857 0.85558 0.0
C1180 C 0.30977 0.36371 0.9655 0.0
C1181 C 0.32348 0.35551 0.98114 0.0
C1182 C 0.30653 0.35397 0.94101 0.0
C1183 C 0.31666 0.33549 0.93146 0.0
C1184 C 0.32978 0.32678 0.94731 0.0
C1185 C 0.33326 0.33676 0.97181 0.0
C1186 C 0.33032 0.31146 0.86864 0.0
C1187 C 0.31079 0.31167 0.8545 0.0
C1188 C 0.33208 0.31876 0.89356 0.0
C1189 C 0.31422 0.32612 0.90504 0.0
C1190 C 0.29437 0.32542 0.89084 0.0
C1191 C 0.29275 0.31849 0.86592 0.0
H1192 H 0.98924 0.09159 0.3442 0.0
H1193 H 0.94712 0.02691 0.35036 0.0
H1194 H 1.01173 0.09148 0.38161 0.0
H1195 H 0.96903 0.02685 0.38699 0.0
H1196 H 0.02213 0.01857 0.44191 0.0
H1197 H 1.00262 0.02072 0.4042 0.0
H1198 H 1.01417 0.0953 0.42576 0.0
H1199 H 0.03398 0.0931 0.46375 0.0
C1200 C 0.98473 0.07728 0.35326 0.0
C1201 C 0.96605 0.05924 0.34362 0.0
C1202 C 0.99763 0.07726 0.37503 0.0
C1203 C 0.99266 0.05902 0.3879 0.0
C1204 C 0.97408 0.0411 0.37798 0.0
C1205 C 0.9612 0.04125 0.35665 0.0
C1206 C 0.02066 0.03555 0.43881 0.0
C1207 C 0.02986 0.0556 0.45651 0.0
C1208 C 1.00917 0.03681 0.41691 0.0
C1209 C 1.00627 0.05822 0.41132 0.0
C1210 C 1.01589 0.0784 0.42882 0.0
C1211 C 0.02728 0.07711 0.45092 0.0
H1212 H 0.33627 0.71251 0.58511 0.0
H1213 H 0.31786 0.6551 0.62073 0.0
H1214 H 0.32916 0.73928 0.61999 0.0
H1215 H 0.31149 0.68203 0.65608 0.0
H1216 H 0.28039 0.73129 0.70706 0.0
H1217 H 0.28655 0.70559 0.67086 0.0
H1218 H 0.34185 0.75813 0.6599 0.0
H1219 H 0.33514 0.78413 0.69579 0.0
C1220 C 0.33097 0.70559 0.60051 0.0
C1221 C 0.32765 0.68156 0.60001 0.0
C1222 C 0.32696 0.72104 0.62066 0.0
C1223 C 0.31961 0.71299 0.64102 0.0
C1224 C 0.31669 0.68896 0.64065 0.0
C1225 C 0.32057 0.67346 0.62042 0.0
C1226 C 0.29368 0.73752 0.69675 0.0
C1227 C 0.30722 0.75987 0.70439 0.0
C1228 C 0.2974 0.72261 0.67607 0.0
C1229 C 0.31493 0.72949 0.66244 0.0
C1230 C 0.32805 0.75216 0.66969 0.0
C1231 C 0.3242 0.76717 0.69033 0.0
H1232 H 0.67805 0.10199 0.79702 0.0
H1233 H 0.66519 0.02802 0.79486 0.0
H1234 H 0.65276 0.10679 0.82804 0.0
H1235 H 0.64051 0.0329 0.82629 0.0
H1236 H 0.58275 0.04525 0.86832 0.0
H1237 H 0.60493 0.04212 0.83428 0.0
H1238 H 0.65156 0.10489 0.86961 0.0
H1239 H 0.62907 0.10822 0.90331 0.0
C1240 C 0.66988 0.08678 0.80321 0.0
C1241 C 0.67363 0.06464 0.79353 0.0
C1242 C 0.65546 0.08954 0.82104 0.0
C1243 C 0.64461 0.07023 0.82962 0.0
C1244 C 0.64829 0.04809 0.81979 0.0
C1245 C 0.66258 0.04531 0.80189 0.0
C1246 C 0.59769 0.0584 0.86867 0.0
C1247 C 0.60426 0.07692 0.88841 0.0
C1248 C 0.61042 0.0566 0.84926 0.0
C1249 C 0.6301 0.07316 0.84932 0.0
C1250 C 0.63634 0.09201 0.86884 0.0
C1251 C 0.6235 0.09391 0.88817 0.0
H1252 H 0.3066 0.38899 0.11705 0.0
H1253 H 0.36378 0.35722 0.1058 0.0
H1254 H 0.30281 0.37533 0.15468 0.0
H1255 H 0.35985 0.3435 0.14323 0.0
H1256 H 0.32633 0.2985 0.19365 0.0
H1257 H 0.33102 0.31427 0.15763 0.0
H1258 H 0.32463 0.38146 0.19646 0.0
H1259 H 0.32005 0.36565 0.23296 0.0
C1260 C 0.31832 0.37906 0.12256 0.0
C1261 C 0.33543 0.37409 0.10833 0.0
C1262 C 0.31625 0.37142 0.1442 0.0
C1263 C 0.33103 0.35835 0.1519 0.0
C1264 C 0.34811 0.3534 0.13768 0.0
C1265 C 0.35038 0.3613 0.11625 0.0
C1266 C 0.32592 0.31667 0.19463 0.0
C1267 C 0.32277 0.33081 0.21623 0.0
C1268 C 0.32875 0.32572 0.17396 0.0
C1269 C 0.32823 0.3491 0.1742 0.0
C1270 C 0.32498 0.36332 0.19573 0.0
C1271 C 0.32248 0.35432 0.21663 0.0
H1272 H 0.24457 0.0224 1.01037 0.0
H1273 H 0.21409 0.95682 0.02699 0.0
H1274 H 0.20917 0.03558 0.01499 0.0
H1275 H 0.1794 0.96996 0.03219 0.0
H1276 H 0.11236 0.98926 0.01727 0.0
H1277 H 0.14791 0.97735 1.01266 0.0
H1278 H 0.18305 0.04789 0.04133 0.0
H1279 H 0.1473 0.05992 0.04536 0.0
C1280 C 0.23045 1.0108 0.01509 0.0
C1281 C 0.23245 0.98842 0.01813 0.0
C1282 C 0.21004 0.01841 0.0179 0.0
C1283 C 0.19097 1.00389 0.02386 0.0
C1284 C 0.19323 0.98165 0.0271 0.0
C1285 C 0.21344 0.9741 0.02425 0.0
C1286 C 0.1276 1.00228 0.02287 0.0
C1287 C 0.12664 0.02561 0.03194 0.0
C1288 C 0.14822 0.9954 0.02025 0.0
C1289 C 0.1688 1.01153 0.02663 0.0
C1290 C 0.16781 0.03486 0.03586 0.0
C1291 C 0.14715 0.04176 0.03845 0.0
H1292 H 0.74086 0.61037 0.99137 0.0
H1293 H 0.71655 0.67418 0.99737 0.0
H1294 H 0.70309 0.58908 0.99344 0.0
H1295 H 0.67876 0.65281 0.99894 0.0
H1296 H 0.62406 0.61394 0.03642 0.0
H1297 H 0.66006 0.63437 0.02854 0.0
H1298 H 0.66481 0.57569 0.97363 0.0
H1299 H 0.62848 0.55489 0.98171 0.0
C1300 C 0.72742 0.61982 0.99278 0.0
C1301 C 0.7318 0.64404 0.99448 0.0
C1302 C 0.70573 0.60756 0.99383 0.0
C1303 C 0.68791 0.61925 0.99658 0.0
C1304 C 0.69217 0.64332 0.99726 0.0
C1305 C 0.71383 0.65557 0.99624 0.0
C1306 C 0.63256 0.60535 0.02248 0.0
C1307 C 0.62325 0.58271 1.00968 0.0
C1308 C 0.65325 0.6172 0.01787 0.0
C1309 C 0.66533 0.60676 1.00036 0.0
C1310 C 0.65601 0.58417 0.98736 0.0
C1311 C 0.63515 0.57229 0.99192 0.0
H1312 H 0.75117 0.47883 0.28528 0.0
H1313 H 0.68908 0.42876 0.26704 0.0
H1314 H 0.7713 0.44668 0.28436 0.0
H1315 H 0.70868 0.3973 0.26561 0.0
H1316 H 0.74393 0.33926 0.27892 0.0
H1317 H 0.72569 0.37221 0.28079 0.0
H1318 H 0.78722 0.41493 0.26833 0.0
H1319 H 0.80558 0.38176 0.26703 0.0
C1320 C 0.74161 0.46115 0.281 0.0
C1321 C 0.71798 0.45725 0.27637 0.0
C1322 C 0.75332 0.44228 0.28036 0.0
C1323 C 0.74216 0.41834 0.27512 0.0
C1324 C 0.71862 0.41477 0.27033 0.0
C1325 C 0.70708 0.43339 0.27097 0.0
C1326 C 0.75377 0.35554 0.27643 0.0
C1327 C 0.77661 0.35695 0.27259 0.0
C1328 C 0.74306 0.37494 0.27737 0.0
C1329 C 0.75435 0.39729 0.27452 0.0
C1330 C 0.77732 0.3987 0.27084 0.0
C1331 C 0.78805 0.37923 0.2699 0.0
H1332 H 0.86786 0.48624 0.46242 0.0
H1333 H 0.86729 0.51044 0.53832 0.0
H1334 H 0.90827 0.49525 0.46679 0.0
H1335 H 0.90827 0.52057 0.5427 0.0
H1336 H 0.98258 0.51452 0.5461 0.0
H1337 H 0.94177 0.50684 0.54306 0.0
H1338 H 0.94056 0.52319 0.47257 0.0
H1339 H 0.98111 0.5298 0.47527 0.0
C1340 C 0.87633 0.4939 0.48011 0.0
C1341 C 0.86401 0.49764 0.49999 0.0
C1342 C 0.89979 0.49926 0.48262 0.0
C1343 C 0.91204 0.50887 0.50512 0.0
C1344 C 0.89971 0.51294 0.52506 0.0
C1345 C 0.87608 0.50735 0.52255 0.0
C1346 C 0.97359 0.51639 0.52989 0.0
C1347 C 0.98536 0.52259 0.51084 0.0
C1348 C 0.95004 0.51216 0.52821 0.0
C1349 C 0.9374 0.51418 0.50749 0.0
C1350 C 0.94932 0.5208 0.48865 0.0
C1351 C 0.97279 0.52476 0.49023 0.0
H1352 H 0.35283 0.10031 0.30686 0.0
H1353 H 0.35435 0.06432 0.23418 0.0
H1354 H 0.32572 0.12106 0.29287 0.0
H1355 H 0.32719 0.08526 0.2202 0.0
H1356 H 0.30693 0.1564 0.21043 0.0
H1357 H 0.32817 0.12786 0.21891 0.0
H1358 H 0.28561 0.11227 0.27368 0.0
H1359 H 0.26401 0.14058 0.26494 0.0
C1360 C 0.34736 0.09682 0.28791 0.0
C1361 C 0.35573 0.08074 0.27161 0.0
C1362 C 0.33167 0.10851 0.27994 0.0
C1363 C 0.32422 0.10454 0.2555 0.0
C1364 C 0.33265 0.08856 0.23914 0.0
C1365 C 0.34816 0.07661 0.24716 0.0
C1366 C 0.30154 0.14628 0.22365 0.0
C1367 C 0.28394 0.15092 0.23722 0.0
C1368 C 0.3138 0.13001 0.22857 0.0
C1369 C 0.30873 0.11821 0.24721 0.0
C1370 C 0.29007 0.1215 0.2595 0.0
C1371 C 0.27772 0.13764 0.25448 0.0
H1372 H 0.32996 0.13815 0.51901 0.0
H1373 H 0.38315 0.1946 0.51181 0.0
H1374 H 0.35758 0.11606 0.52893 0.0
H1375 H 0.41068 0.17232 0.52106 0.0
H1376 H 0.45418 0.1383 0.56466 0.0
H1377 H 0.42581 0.15945 0.55468 0.0
H1378 H 0.38537 0.09575 0.51261 0.0
H1379 H 0.41367 0.07458 0.5229 0.0
C1380 C 0.34754 0.14574 0.51928 0.0
C1381 C 0.35435 0.16819 0.51473 0.0
C1382 C 0.36338 0.13304 0.52489 0.0
C1383 C 0.38639 0.14247 0.52599 0.0
C1384 C 0.39313 0.1647 0.52087 0.0
C1385 C 0.37732 0.17742 0.51537 0.0
C1386 C 0.43924 0.12884 0.55326 0.0
C1387 C 0.43618 0.10478 0.54457 0.0
C1388 C 0.423 0.14096 0.54745 0.0
C1389 C 0.40334 0.12935 0.53268 0.0
C1390 C 0.40016 0.10521 0.52426 0.0
C1391 C 0.41637 0.09306 0.53017 0.0
H1392 H 0.74939 0.60336 0.30478 0.0
H1393 H 0.69913 0.61417 0.25441 0.0
H1394 H 0.77021 0.64344 0.30664 0.0
H1395 H 0.71966 0.65301 0.25567 0.0
H1396 H 0.74779 0.73026 0.27403 0.0
H1397 H 0.72912 0.69082 0.27478 0.0
H1398 H 0.7928 0.67354 0.29103 0.0
H1399 H 0.81153 0.7137 0.29095 0.0
C1400 C 0.7427 0.61403 0.294 0.0
C1401 C 0.72213 0.60489 0.27958 0.0
C1402 C 0.75478 0.63728 0.29497 0.0
C1403 C 0.74684 0.65248 0.28161 0.0
C1404 C 0.72652 0.64291 0.26696 0.0
C1405 C 0.71459 0.62002 0.26607 0.0
C1406 C 0.75802 0.71821 0.27777 0.0
C1407 C 0.78148 0.72581 0.28226 0.0
C1408 C 0.74716 0.69508 0.27802 0.0
C1409 C 0.75906 0.67794 0.28259 0.0
C1410 C 0.78259 0.68565 0.2875 0.0
C1411 C 0.79351 0.70897 0.28733 0.0
H1412 H 0.87334 0.472 0.75945 0.0
H1413 H 0.87026 0.48507 0.83598 0.0
H1414 H 0.85535 0.43165 0.75663 0.0
H1415 H 0.85127 0.44479 0.83309 0.0
H1416 H 0.84513 0.36488 0.82048 0.0
H1417 H 0.85879 0.40679 0.82601 0.0
H1418 H 0.82149 0.40653 0.75914 0.0
H1419 H 0.8089 0.36464 0.75317 0.0
C1420 C 0.86849 0.46631 0.77563 0.0
C1421 C 0.87328 0.48164 0.79793 0.0
C1422 C 0.858 0.44319 0.77402 0.0
C1423 C 0.85174 0.43494 0.79464 0.0
C1424 C 0.85613 0.45046 0.81691 0.0
C1425 C 0.86691 0.47356 0.81855 0.0
C1426 C 0.83967 0.37392 0.80719 0.0
C1427 C 0.82625 0.36159 0.78628 0.0
C1428 C 0.8474 0.39793 0.81036 0.0
C1429 C 0.84152 0.41001 0.79282 0.0
C1430 C 0.82689 0.39772 0.77266 0.0
C1431 C 0.81953 0.37374 0.76931 0.0
H1432 H 0.11718 0.81611 0.04169 0.0
H1433 H 0.11817 0.87882 0.09378 0.0
H1434 H 0.11214 0.83688 1.00931 0.0
H1435 H 0.11326 0.89942 0.06169 0.0
H1436 H 0.10929 0.93675 1.00622 0.0
H1437 H 0.12928 0.91365 0.02682 0.0
H1438 H 0.07851 0.85243 0.99713 0.0
H1439 H 0.05879 0.87539 0.97565 0.0
C1440 C 0.11681 0.83443 0.04621 0.0
C1441 C 0.11778 0.84583 0.07022 0.0
C1442 C 0.11393 0.84626 0.0277 0.0
C1443 C 0.11239 0.86975 0.03297 0.0
C1444 C 0.11475 0.88141 0.05702 0.0
C1445 C 0.1173 0.86956 0.07544 0.0
C1446 C 0.10289 0.91817 1.00301 0.0
C1447 C 0.08208 0.908 0.98976 0.0
C1448 C 0.1143 0.90497 0.01507 0.0
C1449 C 0.1051 0.88144 1.01413 0.0
C1450 C 0.08594 0.87059 0.99831 0.0
C1451 C 0.07453 0.88379 0.98616 0.0
H1452 H 0.97817 0.27991 0.86783 0.0
H1453 H 0.93007 0.28088 0.9201 0.0
H1454 H 0.94837 0.27616 0.83615 0.0
H1455 H 0.90041 0.27744 0.88846 0.0
H1456 H 0.84909 0.25275 0.82508 0.0
H1457 H 0.87975 0.25054 0.85297 0.0
H1458 H 0.92406 0.30157 0.82418 0.0
H1459 H 0.89329 0.30364 0.79587 0.0
C1460 C 0.96122 0.27912 0.87255 0.0
C1461 C 0.95647 0.28079 0.89651 0.0
C1462 C 0.94421 0.27712 0.8544 0.0
C1463 C 0.92211 0.27661 0.85983 0.0
C1464 C 0.91726 0.27754 0.88368 0.0
C1465 C 0.93427 0.27961 0.90183 0.0
C1466 C 0.86539 0.2634 0.82451 0.0
C1467 C 0.86871 0.27863 0.80846 0.0
C1468 C 0.88294 0.26215 0.84057 0.0
C1469 C 0.90421 0.27609 0.84097 0.0
C1470 C 0.90785 0.29051 0.82418 0.0
C1471 C 0.89023 0.29176 0.80802 0.0
H1472 H 0.5781 0.25107 0.54629 0.0
H1473 H 0.59282 0.24347 0.619 0.0
H1474 H 0.57487 0.20933 0.53233 0.0
H1475 H 0.59004 0.20203 0.60499 0.0
H1476 H 0.55796 0.12623 0.57515 0.0
H1477 H 0.56127 0.16781 0.58818 0.0
H1478 H 0.59838 0.17987 0.52829 0.0
H1479 H 0.59471 0.13799 0.51483 0.0
C1480 C 0.58064 0.24052 0.55927 0.0
C1481 C 0.58561 0.25055 0.58375 0.0
C1482 C 0.57897 0.21667 0.55125 0.0
C1483 C 0.5822 0.20243 0.56757 0.0
C1484 C 0.58716 0.2125 0.59203 0.0
C1485 C 0.58882 0.23628 0.60003 0.0
C1486 C 0.56695 0.13768 0.56478 0.0
C1487 C 0.57618 0.12878 0.544 0.0
C1488 C 0.56889 0.16155 0.57232 0.0
C1489 C 0.58014 0.17709 0.5593 0.0
C1490 C 0.58942 0.16826 0.53853 0.0
C1491 C 0.58746 0.14431 0.53094 0.0
H1492 H 0.6126 0.76811 0.43482 0.0
H1493 H 0.56983 0.78409 0.37995 0.0
H1494 H 0.64247 0.76848 0.40839 0.0
H1495 H 0.5997 0.78525 0.35407 0.0
H1496 H 0.65191 0.77108 0.30503 0.0
H1497 H 0.62182 0.76333 0.33035 0.0
H1498 H 0.66759 0.79692 0.39316 0.0
H1499 H 0.69767 0.80406 0.36785 0.0
C1500 C 0.60953 0.77158 0.41711 0.0
C1501 C 0.58889 0.7762 0.40957 0.0
C1502 C 0.62668 0.77194 0.40202 0.0
C1503 C 0.62354 0.77701 0.37913 0.0
C1504 C 0.60264 0.78094 0.3714 0.0
C1505 C 0.58552 0.78044 0.38638 0.0
C1506 C 0.65548 0.77671 0.32426 0.0
C1507 C 0.67706 0.78825 0.33448 0.0
C1508 C 0.63828 0.77231 0.33878 0.0
C1509 C 0.64225 0.77959 0.36382 0.0
C1510 C 0.664 0.79071 0.37401 0.0
C1511 C 0.68122 0.79491 0.3595 0.0
H1512 H 0.10544 0.2969 0.46263 0.0
H1513 H 0.08008 0.24129 0.40154 0.0
H1514 H 0.09782 0.26954 0.48926 0.0
H1515 H 0.07224 0.21403 0.42825 0.0
H1516 H 0.0855 0.1683 0.48089 0.0
H1517 H 0.09334 0.19618 0.45497 0.0
H1518 H 0.06552 0.24544 0.5032 0.0
H1519 H 0.05821 0.21764 0.52963 0.0
C1520 C 0.09823 0.27885 0.45487 0.0
C1521 C 0.09343 0.27125 0.42995 0.0
C1522 C 0.09373 0.26323 0.47016 0.0
C1523 C 0.08443 0.23966 0.46084 0.0
C1524 C 0.07964 0.23205 0.43593 0.0
C1525 C 0.08406 0.24769 0.42064 0.0
C1526 C 0.08131 0.18519 0.48615 0.0
C1527 C 0.07139 0.19085 0.50741 0.0
C1528 C 0.08555 0.20104 0.47113 0.0
C1529 C 0.07999 0.22296 0.47701 0.0
C1530 C 0.07015 0.22873 0.49831 0.0
C1531 C 0.0658 0.21278 0.51333 0.0
H1532 H 0.58272 0.31385 0.23281 0.0
H1533 H 0.54343 0.25754 0.25929 0.0
H1534 H 0.61439 0.31418 0.26086 0.0
H1535 H 0.57515 0.25804 0.28747 0.0
H1536 H 0.64719 0.23976 0.28743 0.0
H1537 H 0.61011 0.24512 0.27637 0.0
H1538 H 0.63123 0.31906 0.30329 0.0
H1539 H 0.66857 0.31368 0.31523 0.0
C1540 C 0.58066 0.30193 0.24501 0.0
C1541 C 0.56076 0.28534 0.24348 0.0
C1542 C 0.59875 0.30227 0.26125 0.0
C1543 C 0.59726 0.28598 0.27619 0.0
C1544 C 0.57679 0.27062 0.27597 0.0
C1545 C 0.55867 0.27034 0.25981 0.0
C1546 C 0.64384 0.25708 0.29203 0.0
C1547 C 0.66106 0.27634 0.30187 0.0
C1548 C 0.62247 0.26015 0.2856 0.0
C1549 C 0.61788 0.28256 0.28868 0.0
C1550 C 0.63446 0.30163 0.30042 0.0
C1551 C 0.65583 0.29853 0.30713 0.0
H1552 H 0.61337 0.89872 0.92149 0.0
H1553 H 0.55874 0.86378 0.95445 0.0
H1554 H 0.60571 0.93628 0.93996 0.0
H1555 H 0.55131 0.90144 0.97309 0.0
H1556 H 0.57183 0.97304 0.02688 0.0
H1557 H 0.57555 0.9351 1.00524 0.0
H1558 H 0.57287 0.95913 0.93867 0.0
H1559 H 0.56885 0.99737 0.96039 0.0
C1560 C 0.59975 0.89907 0.93268 0.0
C1561 C 0.58674 0.87837 0.9367 0.0
C1562 C 0.59526 0.92053 0.94301 0.0
C1563 C 0.57791 0.92162 0.95781 0.0
C1564 C 0.56481 0.90095 0.96173 0.0
C1565 C 0.56907 0.87947 0.95111 0.0
C1566 C 0.57195 0.97025 1.00761 0.0
C1567 C 0.57018 0.98814 0.99528 0.0
C1568 C 0.57391 0.9485 0.99526 0.0
C1569 C 0.57444 0.9443 0.97038 0.0
C1570 C 0.57253 0.96208 0.95792 0.0
C1571 C 0.57017 0.98383 0.97028 0.0
H1572 H 0.9265 0.73856 0.65008 0.0
H1573 H 0.97671 0.75812 0.71078 0.0
H1574 H 0.89722 0.73626 0.67715 0.0
H1575 H 0.94761 0.75482 0.73776 0.0
H1576 H 0.84698 0.73152 0.72921 0.0
H1577 H 0.87756 0.71956 0.70772 0.0
H1578 H 0.92324 0.7808 0.74812 0.0
H1579 H 0.89313 0.79224 0.76968 0.0
C1580 C 0.93124 0.74185 0.66918 0.0
C1581 C 0.95376 0.74917 0.67842 0.0
C1582 C 0.91451 0.74026 0.68469 0.0
C1583 C 0.92012 0.74566 0.70964 0.0
C1584 C 0.94276 0.75107 0.71866 0.0
C1585 C 0.95941 0.75304 0.70323 0.0
C1586 C 0.86374 0.74193 0.73397 0.0
C1587 C 0.8677 0.763 0.75075 0.0
C1588 C 0.88117 0.7352 0.72156 0.0
C1589 C 0.90274 0.74939 0.72597 0.0
C1590 C 0.90692 0.76933 0.74435 0.0
C1591 C 0.88959 0.77604 0.7566 0.0
H1592 H 0.18267 0.06421 0.87641 0.0
H1593 H 0.12848 1.01512 0.83194 0.0
H1594 H 0.16074 0.06553 0.91019 0.0
H1595 H 0.10588 0.01671 0.8663 0.0
H1596 H 0.07718 1.01024 0.94052 0.0
H1597 H 0.0973 1.00789 0.90458 0.0
H1598 H 0.1328 0.07866 0.93031 0.0
H1599 H 0.11307 0.08076 0.96612 0.0
C1600 C 0.16591 0.05367 0.87356 0.0
C1601 C 0.15777 0.03958 0.85072 0.0
C1602 C 0.153 0.0546 0.89333 0.0
C1603 C 0.13095 0.04147 0.89175 0.0
C1604 C 0.12267 0.02716 0.8689 0.0
C1605 C 0.13571 0.02631 0.84886 0.0
C1606 C 0.08919 0.02542 0.93855 0.0
C1607 C 0.09315 0.04575 0.95685 0.0
C1608 C 0.10085 0.02409 0.91759 0.0
C1609 C 0.11727 0.04295 0.91383 0.0
C1610 C 0.12089 0.06334 0.93206 0.0
C1611 C 0.10923 0.06468 0.95289 0.0
H1612 H 0.77139 0.38418 0.53591 0.0
H1613 H 0.81275 0.44703 0.57855 0.0
H1614 H 0.78157 0.36231 0.5653 0.0
H1615 H 0.82318 0.42502 0.60782 0.0
H1616 H 0.81916 0.38134 0.66628 0.0
H1617 H 0.80795 0.40378 0.63783 0.0
H1618 H 0.81449 0.34912 0.57922 0.0
H1619 H 0.825 0.32636 0.60767 0.0
C1620 C 0.78259 0.39338 0.5516 0.0
C1621 C 0.79128 0.41738 0.55483 0.0
C1622 C 0.78857 0.38078 0.56837 0.0
C1623 C 0.80334 0.39186 0.58883 0.0
C1624 C 0.81164 0.41597 0.59235 0.0
C1625 C 0.8057 0.42858 0.57552 0.0
C1626 C 0.81806 0.37404 0.64732 0.0
C1627 C 0.82291 0.352 0.63926 0.0
C1628 C 0.81185 0.38701 0.63101 0.0
C1629 C 0.81025 0.37823 0.60624 0.0
C1630 C 0.81527 0.35628 0.59818 0.0
C1631 C 0.82157 0.34334 0.61449 0.0
H1632 H 0.46582 0.08581 0.35468 0.0
H1633 H 0.41921 0.07992 0.40807 0.0
H1634 H 0.49662 0.08827 0.38473 0.0
H1635 H 0.44989 0.08181 0.43794 0.0
H1636 H 0.53614 0.05388 0.43535 0.0
H1637 H 0.50908 0.06061 0.40565 0.0
H1638 H 0.48329 0.10483 0.46127 0.0
H1639 H 0.50981 0.09763 0.49092 0.0
C1640 C 0.46217 0.08536 0.37291 0.0
C1641 C 0.44003 0.08245 0.37896 0.0
C1642 C 0.47982 0.0866 0.39007 0.0
C1643 C 0.4757 0.08493 0.41364 0.0
C1644 C 0.4537 0.08336 0.41998 0.0
C1645 C 0.43606 0.0822 0.40284 0.0
C1646 C 0.5249 0.06528 0.44114 0.0
C1647 C 0.5249 0.07494 0.46548 0.0
C1648 C 0.50946 0.06926 0.42413 0.0
C1649 C 0.49387 0.0831 0.43115 0.0
C1650 C 0.49475 0.09372 0.45535 0.0
C1651 C 0.51002 0.08963 0.47232 0.0
H1652 H 0.84364 0.76272 0.08056 0.0
H1653 H 0.77279 0.73463 0.07682 0.0
H1654 H 0.84415 0.77861 0.12309 0.0
H1655 H 0.77341 0.75021 0.11955 0.0
H1656 H 0.7798 0.79538 0.19496 0.0
H1657 H 0.77874 0.78516 0.15135 0.0
H1658 H 0.841 0.76212 0.15858 0.0
H1659 H 0.84228 0.77256 0.20182 0.0
C1660 C 0.82811 0.76009 0.08874 0.0
C1661 C 0.80821 0.74721 0.07525 0.0
C1662 C 0.82844 0.76909 0.1132 0.0
C1663 C 0.80888 0.76546 0.12486 0.0
C1664 C 0.78876 0.75347 0.11116 0.0
C1665 C 0.78843 0.74445 0.08664 0.0
C1666 C 0.79334 0.78829 0.18723 0.0
C1667 C 0.81109 0.78477 0.20199 0.0
C1668 C 0.79267 0.78232 0.16222 0.0
C1669 C 0.80981 0.77285 0.1514 0.0
C1670 C 0.82768 0.76969 0.16621 0.0
C1671 C 0.82831 0.77554 0.19111 0.0
H1672 H 0.11315 0.04262 0.72504 0.0
H1673 H 0.16948 0.02106 0.6929 0.0
H1674 H 0.09665 0.04518 0.68631 0.0
H1675 H 0.15305 0.02418 0.65353 0.0
H1676 H 0.10962 1.01585 0.58089 0.0
H1677 H 0.1269 1.01188 0.61926 0.0
H1678 H 0.09503 0.06482 0.65579 0.0
H1679 H 0.07744 0.06826 0.61755 0.0
C1680 C 0.12224 0.03843 0.70971 0.0
C1681 C 0.14296 0.03159 0.71279 0.0
C1682 C 0.11268 0.04016 0.68708 0.0
C1683 C 0.12325 0.03528 0.66595 0.0
C1684 C 0.14391 0.02805 0.66887 0.0
C1685 C 0.15354 0.02627 0.69173 0.0
C1686 C 0.10619 0.02668 0.59708 0.0
C1687 C 0.09178 0.04238 0.59554 0.0
C1688 C 0.11636 0.02448 0.61941 0.0
C1689 C 0.11266 0.03784 0.64148 0.0
C1690 C 0.09832 0.05365 0.63979 0.0
C1691 C 0.08815 0.05581 0.6175 0.0
H1692 H 0.78803 0.43309 0.43183 0.0
H1693 H 0.81891 0.39111 0.47211 0.0
H1694 H 0.79038 0.40594 0.3946 0.0
H1695 H 0.82097 0.36398 0.43509 0.0
H1696 H 0.79871 0.30915 0.36382 0.0
H1697 H 0.7949 0.3352 0.40119 0.0
H1698 H 0.82277 0.39447 0.3717 0.0
H1699 H 0.82686 0.3686 0.33457 0.0
C1700 C 0.79507 0.41796 0.43276 0.0
C1701 C 0.80334 0.4143 0.45491 0.0
C1702 C 0.79655 0.40251 0.41147 0.0
C1703 C 0.80593 0.38285 0.41192 0.0
C1704 C 0.81356 0.37887 0.43414 0.0
C1705 C 0.81245 0.39449 0.45534 0.0
C1706 C 0.80422 0.32772 0.3654 0.0
C1707 C 0.81327 0.33673 0.34624 0.0
C1708 C 0.80201 0.34263 0.38678 0.0
C1709 C 0.80838 0.3669 0.38932 0.0
C1710 C 0.81747 0.37588 0.37021 0.0
C1711 C 0.82004 0.36099 0.34902 0.0
H1712 H 0.46827 1.00971 0.28854 0.0
H1713 H 0.42438 0.03318 0.24059 0.0
H1714 H 0.49063 0.99953 0.25576 0.0
H1715 H 0.44683 0.02334 0.20809 0.0
H1716 H 0.48294 0.99142 0.14965 0.0
H1717 H 0.45872 0.99127 0.182 0.0
H1718 H 0.51597 0.02314 0.2335 0.0
H1719 H 0.54011 0.02332 0.20124 0.0
C1720 C 0.46327 1.01249 0.27098 0.0
C1721 C 0.44471 0.02248 0.26719 0.0
C1722 C 0.4761 1.00672 0.25226 0.0
C1723 C 0.4705 1.01071 0.22941 0.0
C1724 C 0.45141 0.0198 0.22543 0.0
C1725 C 0.43866 0.02564 0.24412 0.0
C1726 C 0.49034 0.9982 0.16791 0.0
C1727 C 0.51336 1.00763 0.17291 0.0
C1728 C 0.4765 0.99808 0.1864 0.0
C1729 C 0.48544 1.00738 0.21023 0.0
C1730 C 0.50863 1.01562 0.21534 0.0
C1731 C 0.52246 1.01575 0.19685 0.0
H1732 H 0.8243 0.72997 0.94801 0.0
H1733 H 0.75419 0.72774 0.93049 0.0
H1734 H 0.83269 0.74266 0.91066 0.0
H1735 H 0.76258 0.74072 0.89362 0.0
H1736 H 0.77995 0.73939 0.81804 0.0
H1737 H 0.77408 0.72598 0.85519 0.0
H1738 H 0.83341 0.77514 0.89003 0.0
H1739 H 0.83957 0.78835 0.85253 0.0
C1740 C 0.8107 0.73234 0.93631 0.0
C1741 C 0.78855 0.72772 0.94226 0.0
C1742 C 0.81552 0.73969 0.91492 0.0
C1743 C 0.7983 0.74252 0.89895 0.0
C1744 C 0.77624 0.73828 0.90519 0.0
C1745 C 0.77143 0.73098 0.9265 0.0
C1746 C 0.79186 0.74731 0.83355 0.0
C1747 C 0.81015 0.76512 0.83228 0.0
C1748 C 0.78839 0.73969 0.85496 0.0
C1749 C 0.80306 0.74969 0.87579 0.0
C1750 C 0.82181 0.76696 0.87435 0.0
C1751 C 0.82532 0.77459 0.85284 0.0
H1752 H 0.91695 0.13738 0.06442 0.0
H1753 H 0.87936 0.07681 0.01503 0.0
H1754 H 0.95133 0.12404 0.05719 0.0
H1755 H 0.91419 0.06364 1.00693 0.0
H1756 H 0.97928 0.03571 1.01405 0.0
H1757 H 0.94393 0.04796 0.01965 0.0
H1758 H 0.97848 0.11976 0.03155 0.0
H1759 H 1.01389 0.10743 0.02692 0.0
C1760 C 0.91596 0.12117 0.05184 0.0
C1761 C 0.89511 0.10826 0.04035 0.0
C1762 C 0.93594 0.11356 0.04745 0.0
C1763 C 0.93606 0.09277 0.03113 0.0
C1764 C 0.9151 0.07963 0.01979 0.0
C1765 C 0.89497 0.08721 0.02438 0.0
C1766 C 0.97938 0.05414 0.01763 0.0
C1767 C 0.99974 0.07049 0.01996 0.0
C1768 C 0.9589 0.06124 0.02081 0.0
C1769 C 0.9579 0.085 0.02634 0.0
C1770 C 0.97825 0.10131 0.02792 0.0
C1771 C 0.99874 0.09421 0.02494 0.0
H1772 H 0.39205 0.47917 0.09344 0.0
H1773 H 0.39673 0.42708 0.03151 0.0
H1774 H 0.43006 0.49942 0.09057 0.0
H1775 H 0.43456 0.4475 0.02848 0.0
H1776 H 0.50905 0.47864 0.04196 0.0
H1777 H 0.4726 0.45756 0.04886 0.0
H1778 H 0.44937 0.52202 0.06356 0.0
H1779 H 0.48584 0.54317 0.05702 0.0
C1780 C 0.40118 0.472 0.07926 0.0
C1781 C 0.3913 0.45155 0.06265 0.0
C1782 C 0.42294 0.48367 0.07755 0.0
C1783 C 0.43534 0.47511 0.05927 0.0
C1784 C 0.42558 0.45442 0.04294 0.0
C1785 C 0.40382 0.44281 0.04459 0.0
C1786 C 0.49625 0.48837 0.04688 0.0
C1787 C 0.50039 0.51263 0.04885 0.0
C1788 C 0.4753 0.47624 0.05069 0.0
C1789 C 0.45804 0.48808 0.05665 0.0
C1790 C 0.46237 0.51239 0.05923 0.0
C1791 C 0.48327 0.52451 0.05533 0.0
H1792 H 0.37644 0.62172 0.79658 0.0
H1793 H 0.41992 0.6533 0.75021 0.0
H1794 H 0.35702 0.65464 0.80024 0.0
H1795 H 0.40074 0.68516 0.75327 0.0
H1796 H 0.37503 0.75225 0.77146 0.0
H1797 H 0.3932 0.71938 0.77028 0.0
H1798 H 0.3334 0.67902 0.78958 0.0
H1799 H 0.31538 0.71257 0.79134 0.0
C1800 C 0.38199 0.63543 0.78702 0.0
C1801 C 0.40033 0.63405 0.77311 0.0
C1802 C 0.37064 0.65469 0.78906 0.0
C1803 C 0.37694 0.67379 0.77739 0.0
C1804 C 0.39506 0.67195 0.76334 0.0
C1805 C 0.40626 0.65298 0.76136 0.0
C1806 C 0.36554 0.73649 0.77557 0.0
C1807 C 0.34332 0.7359 0.78152 0.0
C1808 C 0.3761 0.71703 0.77465 0.0
C1809 C 0.36523 0.69531 0.77944 0.0
C1810 C 0.34302 0.69482 0.78576 0.0
C1811 C 0.33242 0.71443 0.78674 0.0
H1812 H 0.23949 0.6273 0.56315 0.0
H1813 H 0.25179 0.56189 0.52595 0.0
H1814 H 0.1995 0.61279 0.55399 0.0
H1815 H 0.21106 0.54705 0.51704 0.0
H1816 H 0.13474 0.52546 0.53426 0.0
H1817 H 0.17566 0.53736 0.53995 0.0
H1818 H 0.17131 0.60137 0.51748 0.0
H1819 H 0.13058 0.58942 0.51145 0.0
C1820 C 0.23372 0.60969 0.55306 0.0
C1821 C 0.24914 0.59581 0.54538 0.0
C1822 C 0.21062 0.60142 0.54766 0.0
C1823 C 0.20188 0.57877 0.53466 0.0
C1824 C 0.21716 0.56459 0.52715 0.0
C1825 C 0.24053 0.57311 0.53219 0.0
C1826 C 0.14249 0.54203 0.53038 0.0
C1827 C 0.12915 0.55651 0.52252 0.0
C1828 C 0.16602 0.54877 0.53351 0.0
C1829 C 0.17692 0.57039 0.52929 0.0
C1830 C 0.16358 0.58469 0.52111 0.0
C1831 C 0.14013 0.57779 0.5176 0.0
H1832 H 0.75254 0.98166 0.74414 0.0
H1833 H 0.76263 0.02993 0.81224 0.0
H1834 H 0.77964 0.96131 0.75895 0.0
H1835 H 0.78991 1.00969 0.82689 0.0
H1836 H 0.81247 0.94501 0.84931 0.0
H1837 H 0.78975 0.97106 0.83718 0.0
H1838 H 0.82044 0.96838 0.77095 0.0
H1839 H 0.84258 0.94186 0.78268 0.0
C1840 C 0.76054 0.98793 0.76224 0.0
C1841 C 0.75545 1.00736 0.77702 0.0
C1842 C 0.77621 0.97643 0.77064 0.0
C1843 C 0.78702 0.9841 0.79399 0.0
C1844 C 0.78179 1.0034 0.80885 0.0
C1845 C 0.76619 1.01497 0.80042 0.0
C1846 C 0.81464 0.95037 0.83237 0.0
C1847 C 0.82914 0.94126 0.81687 0.0
C1848 C 0.80172 0.96532 0.82547 0.0
C1849 C 0.80309 0.97136 0.80294 0.0
C1850 C 0.81879 0.96364 0.78823 0.0
C1851 C 0.83171 0.94874 0.79513 0.0
H1852 H 0.796 0.96653 0.4942 0.0
H1853 H 0.76461 0.94545 0.55445 0.0
H1854 H 0.76666 0.98745 0.4873 0.0
H1855 H 0.73486 0.96604 0.54719 0.0
H1856 H 0.69699 0.0242 0.54076 0.0
H1857 H 0.72714 1.0045 0.54893 0.0
H1858 H 0.72766 0.97963 0.47302 0.0
H1859 H 0.69762 0.99941 0.46488 0.0
C1860 C 0.78282 0.96632 0.50599 0.0
C1861 C 0.78266 0.95424 0.52486 0.0
C1862 C 0.76588 0.97822 0.50192 0.0
C1863 C 0.74826 0.97833 0.51656 0.0
C1864 C 0.74827 0.96652 0.53569 0.0
C1865 C 0.76528 0.95462 0.5398 0.0
C1866 C 0.70345 1.01441 0.52582 0.0
C1867 C 0.69488 1.01342 0.50215 0.0
C1868 C 0.72073 1.00308 0.53051 0.0
C1869 C 0.72988 0.99046 0.51165 0.0
C1870 C 0.7213 0.98951 0.48799 0.0
C1871 C 0.70406 1.00086 0.4833 0.0
H1872 H 0.40475 0.49243 0.79775 0.0
H1873 H 0.36853 0.47841 0.72783 0.0
H1874 H 0.38825 0.45277 0.80238 0.0
H1875 H 0.35222 0.43929 0.73234 0.0
H1876 H 0.30982 0.37508 0.75299 0.0
H1877 H 0.32612 0.41505 0.75048 0.0
H1878 H 0.38677 0.41103 0.79041 0.0
H1879 H 0.37035 0.3709 0.7929 0.0
C1880 C 0.39319 0.48112 0.78338 0.0
C1881 C 0.38816 0.48929 0.76239 0.0
C1882 C 0.38373 0.45804 0.78594 0.0
C1883 C 0.36853 0.44211 0.76781 0.0
C1884 C 0.36342 0.45054 0.74706 0.0
C1885 C 0.37302 0.47333 0.74439 0.0
C1886 C 0.32666 0.38255 0.76128 0.0
C1887 C 0.33853 0.36909 0.7731 0.0
C1888 C 0.33621 0.40578 0.75973 0.0
C1889 C 0.35811 0.41702 0.77013 0.0
C1890 C 0.36989 0.40362 0.78224 0.0
C1891 C 0.36041 0.38025 0.78355 0.0
H1892 H 0.26515 0.61976 0.18669 0.0
H1893 H 0.30081 0.60845 0.24959 0.0
H1894 H 0.28657 0.65971 0.19404 0.0
H1895 H 0.32231 0.64819 0.25669 0.0
H1896 H 0.33098 0.73289 0.21639 0.0
H1897 H 0.32457 0.6905 0.20216 0.0
H1898 H 0.30129 0.68058 0.27005 0.0
H1899 H 0.30729 0.72237 0.28393 0.0
C1900 C 0.27816 0.6255 0.2015 0.0
C1901 C 0.2809 0.61132 0.218 0.0
C1902 C 0.29049 0.64832 0.20563 0.0
C1903 C 0.3057 0.65705 0.22621 0.0
C1904 C 0.3104 0.6419 0.24092 0.0
C1905 C 0.29805 0.61922 0.23688 0.0
C1906 C 0.32482 0.72151 0.22827 0.0
C1907 C 0.31936 0.73071 0.25111 0.0
C1908 C 0.32118 0.6974 0.22017 0.0
C1909 C 0.31265 0.68238 0.2351 0.0
C1910 C 0.30823 0.69177 0.2583 0.0
C1911 C 0.31141 0.71567 0.26616 0.0
H1912 H 0.51333 0.74884 0.49476 0.0
H1913 H 0.56623 0.80702 0.528 0.0
H1914 H 0.52017 0.72908 0.52716 0.0
H1915 H 0.57307 0.78713 0.56048 0.0
H1916 H 0.60067 0.71884 0.56868 0.0
H1917 H 0.58964 0.75132 0.55534 0.0
H1918 H 0.52216 0.72815 0.57158 0.0
H1919 H 0.5334 0.69576 0.58611 0.0
C1920 C 0.52609 0.75762 0.50925 0.0
C1921 C 0.53956 0.77924 0.50858 0.0
C1922 C 0.52982 0.74643 0.52799 0.0
C1923 C 0.54722 0.75656 0.54629 0.0
C1924 C 0.55961 0.77893 0.54654 0.0
C1925 C 0.55572 0.79025 0.5279 0.0
C1926 C 0.58374 0.72114 0.5707 0.0
C1927 C 0.56778 0.70417 0.57787 0.0
C1928 C 0.57739 0.73988 0.56292 0.0
C1929 C 0.55493 0.74193 0.56192 0.0
C1930 C 0.53952 0.72667 0.57178 0.0
C1931 C 0.54596 0.70807 0.57994 0.0
H1932 H 0.67459 0.28549 0.63031 0.0
H1933 H 0.65992 0.33986 0.68453 0.0
H1934 H 0.70608 0.28243 0.65644 0.0
H1935 H 0.69213 0.33727 0.71059 0.0
H1936 H 0.7347 0.304 0.75932 0.0
H1937 H 0.70385 0.31062 0.73395 0.0
H1938 H 0.74252 0.30307 0.67325 0.0
H1939 H 0.77269 0.29569 0.69815 0.0
C1940 C 0.67829 0.29706 0.64769 0.0
C1941 C 0.66475 0.3129 0.65535 0.0
C1942 C 0.69645 0.29538 0.66266 0.0
C1943 C 0.70164 0.30964 0.6856 0.0
C1944 C 0.68838 0.32585 0.69313 0.0
C1945 C 0.67007 0.32747 0.67813 0.0
C1946 C 0.73651 0.30376 0.74055 0.0
C1947 C 0.75592 0.29893 0.73065 0.0
C1948 C 0.71896 0.30772 0.72607 0.0
C1949 C 0.72067 0.30714 0.70153 0.0
C1950 C 0.74043 0.30309 0.69194 0.0
C1951 C 0.75777 0.29889 0.70626 0.0
H1952 H 0.027 0.37528 0.94874 0.0
H1953 H 1.00218 0.35842 1.01383 0.0
H1954 H 0.03489 0.41633 0.96717 0.0
H1955 H 1.01071 0.3997 0.03258 0.0
H1956 H 0.07204 0.48288 1.01397 0.0
H1957 H 0.06215 0.44136 0.99791 0.0
H1958 H 1.00053 0.43723 0.0314 0.0
H1959 H 1.01076 0.47898 0.04809 0.0
C1960 C 0.02321 0.38035 0.967 0.0
C1961 C 1.01414 0.36363 0.97991 0.0
C1962 C 0.02788 0.40387 0.97762 0.0
C1963 C 0.02378 0.4112 1.00146 0.0
C1964 C 1.01399 0.39456 1.01415 0.0
C1965 C 1.00916 0.37094 1.00344 0.0
C1966 C 0.05642 0.47313 0.01802 0.0
C1967 C 0.04204 0.4842 0.03206 0.0
C1968 C 0.05069 0.44936 1.0087 0.0
C1969 C 0.03036 0.43612 1.01301 0.0
C1970 C 1.01633 0.44699 0.02782 0.0
C1971 C 0.02216 0.47086 0.03733 0.0
H1972 H 0.06639 0.84123 0.19594 0.0
H1973 H 0.0193 0.82135 0.1325 0.0
H1974 H 0.03552 0.83779 0.22084 0.0
H1975 H 0.9885 0.81717 0.15731 0.0
H1976 H 0.9362 0.82586 0.20843 0.0
H1977 H 0.9676 0.83632 0.18573 0.0
H1978 H 1.009 0.80662 0.2302 0.0
H1979 H 0.97799 0.79736 0.25373 0.0
C1980 C 0.04944 0.83628 0.18731 0.0
C1981 C 0.0453 0.83141 0.16224 0.0
C1982 C 0.03175 0.83414 0.20158 0.0
C1983 C 1.00952 0.82693 0.19109 0.0
C1984 C 1.00538 0.82298 0.16603 0.0
C1985 C 0.02307 0.82529 0.15177 0.0
C1986 C 0.95212 0.82195 0.21366 0.0
C1987 C 0.95455 0.81073 0.2329 0.0
C1988 C 0.97006 0.82771 0.20044 0.0
C1989 C 0.99083 0.82227 0.20607 0.0
C1990 C 0.99334 0.81135 0.22554 0.0
C1991 C 0.97544 0.80571 0.23883 0.0
H1992 H 0.51213 0.32741 0.12533 0.0
H1993 H 0.58363 0.34367 0.14419 0.0
H1994 H 0.51671 0.35223 0.09594 0.0
H1995 H 0.58814 0.36889 0.11522 0.0
H1996 H 0.59035 0.39299 0.04414 0.0
H1997 H 0.58512 0.3668 0.07228 0.0
H1998 H 0.52689 0.39292 0.09408 0.0
H1999 H 0.53204 0.41891 0.06592 0.0
C2000 C 0.52881 0.33641 0.12334 0.0
C2001 C 0.54751 0.33356 0.1371 0.0
C2002 C 0.53143 0.3507 0.10655 0.0
C2003 C 0.5528 0.36249 0.10319 0.0
C2004 C 0.57148 0.35975 0.11708 0.0
C2005 C 0.56887 0.34544 0.13383 0.0
C2006 C 0.57645 0.39311 0.05496 0.0
C2007 C 0.56157 0.40795 0.05275 0.0
C2008 C 0.57348 0.37816 0.07112 0.0
C2009 C 0.55561 0.37781 0.08546 0.0
C2010 C 0.54061 0.39249 0.08304 0.0
C2011 C 0.54355 0.40737 0.06687 0.0
H2012 H 0.06637 0.30712 0.30115 0.0
H2013 H 0.0193 0.25027 0.3182 0.0
H2014 H 0.03849 0.31206 0.2714 0.0
H2015 H 0.9912 0.25551 0.28857 0.0
H2016 H 0.94443 0.2689 0.23173 0.0
H2017 H 0.97827 0.25727 0.24574 0.0
H2018 H 1.00516 0.32805 0.28242 0.0
H2019 H 0.97147 0.33947 0.26962 0.0
C2020 C 0.05018 0.29538 0.29822 0.0
C2021 C 0.04477 0.27869 0.3124 0.0
C2022 C 0.03427 0.29819 0.28113 0.0
C2023 C 1.01261 0.28444 0.27798 0.0
C2024 C 1.00783 0.26629 0.29055 0.0
C2025 C 0.02385 0.26338 0.30763 0.0
C2026 C 0.95769 0.28204 0.24253 0.0
C2027 C 0.95494 0.30508 0.24985 0.0
C2028 C 0.97708 0.27536 0.25042 0.0
C2029 C 0.99423 0.29171 0.26528 0.0
C2030 C 0.99234 0.31508 0.27073 0.0
C2031 C 0.97292 0.32167 0.26322 0.0
H2032 H 0.04535 0.71033 0.63312 0.0
H2033 H 0.99074 0.69964 0.57789 0.0
H2034 H 0.0543 0.67349 0.61491 0.0
H2035 H 0.99924 0.66241 0.56012 0.0
H2036 H 0.03701 0.61276 0.51881 0.0
H2037 H 0.02796 0.64891 0.53836 0.0
H2038 H 0.04098 0.63183 0.6074 0.0
H2039 H 0.05075 0.59567 0.5877 0.0
C2040 C 0.03512 0.7 0.6172 0.0
C2041 C 0.01742 0.70792 0.60681 0.0
C2042 C 0.04017 0.67882 0.60688 0.0
C2043 C 0.02754 0.66508 0.58605 0.0
C2044 C 1.00955 0.67282 0.57594 0.0
C2045 C 1.00461 0.69409 0.58615 0.0
C2046 C 0.03796 0.61667 0.53818 0.0
C2047 C 0.04452 0.60135 0.55175 0.0
C2048 C 0.03261 0.63734 0.54937 0.0
C2049 C 0.03351 0.64312 0.57441 0.0
C2050 C 0.0403 0.62792 0.58806 0.0
C2051 C 0.04585 0.60722 0.57681 0.0
H2052 H 0.67469 0.85115 0.86865 0.0
H2053 H 0.65506 0.7792 0.83215 0.0
H2054 H 0.70555 0.85674 0.84399 0.0
H2055 H 0.68629 0.78458 0.80809 0.0
H2056 H 0.73578 0.80021 0.7582 0.0
H2057 H 0.70151 0.80324 0.77693 0.0
H2058 H 0.74055 0.84466 0.84144 0.0
H2059 H 0.7746 0.84235 0.82257 0.0
C2060 C 0.67704 0.8365 0.85544 0.0
C2061 C 0.66261 0.81466 0.85245 0.0
C2062 C 0.69467 0.83973 0.8413 0.0
C2063 C 0.6983 0.82115 0.82403 0.0
C2064 C 0.68367 0.7994 0.82088 0.0
C2065 C 0.66595 0.79621 0.83488 0.0
C2066 C 0.737 0.81051 0.77614 0.0
C2067 C 0.7579 0.82057 0.78912 0.0
C2068 C 0.71739 0.81207 0.78692 0.0
C2069 C 0.71837 0.82368 0.81085 0.0
C2070 C 0.73918 0.83558 0.82299 0.0
C2071 C 0.75876 0.83413 0.81218 0.0
H2072 H 0.47123 0.58647 0.70675 0.0
H2073 H 0.46916 0.51311 0.69887 0.0
H2074 H 0.4908 0.58653 0.67032 0.0
H2075 H 0.48873 0.51318 0.66341 0.0
H2076 H 0.50927 0.51152 0.58757 0.0
H2077 H 0.48955 0.51304 0.62345 0.0
H2078 H 0.52215 0.58494 0.64815 0.0
H2079 H 0.54155 0.5834 0.61184 0.0
C2080 C 0.47489 0.57032 0.69748 0.0
C2081 C 0.46815 0.54979 0.70643 0.0
C2082 C 0.48638 0.57031 0.67632 0.0
C2083 C 0.49165 0.54976 0.66291 0.0
C2084 C 0.48495 0.52944 0.67215 0.0
C2085 C 0.47363 0.52947 0.69309 0.0
C2086 C 0.51245 0.52772 0.6006 0.0
C2087 C 0.52751 0.54722 0.5962 0.0
C2088 C 0.50103 0.52863 0.62166 0.0
C2089 C 0.5039 0.54914 0.63972 0.0
C2090 C 0.5189 0.56872 0.63519 0.0
C2091 C 0.53036 0.56777 0.6141 0.0
H2092 H 0.83478 0.15587 0.97696 0.0
H2093 H 0.77743 0.17622 1.00849 0.0
H2094 H 0.83002 0.17822 0.94595 0.0
H2095 H 0.77264 0.1983 0.97753 0.0
H2096 H 0.78607 0.2555 0.93388 0.0
H2097 H 0.79175 0.23356 0.96478 0.0
H2098 H 0.80295 0.17695 0.91106 0.0
H2099 H 0.79687 0.19869 0.88 0.0
C2100 C 0.8212 0.16512 0.9773 0.0
C2101 C 0.8065 0.16426 0.99521 0.0
C2102 C 0.81839 0.1778 0.95947 0.0
C2103 C 0.80096 0.19005 0.95929 0.0
C2104 C 0.78639 0.18929 0.97731 0.0
C2105 C 0.78908 0.17651 0.99499 0.0
C2106 C 0.78945 0.23826 0.92856 0.0
C2107 C 0.7909 0.22888 0.90436 0.0
C2108 C 0.7928 0.22572 0.94632 0.0
C2109 C 0.79781 0.20351 0.94039 0.0
C2110 C 0.79942 0.19415 0.91625 0.0
C2111 C 0.79594 0.20664 0.89845 0.0
H2112 H 0.1544 0.50589 0.20333 0.0
H2113 H 0.18622 0.57432 0.19444 0.0
H2114 H 0.12224 0.50683 0.17592 0.0
H2115 H 0.15406 0.57537 0.16769 0.0
H2116 H 0.08468 0.5776 0.13679 0.0
H2117 H 0.1103 0.57414 0.17006 0.0
H2118 H 0.12059 0.50925 0.12939 0.0
H2119 H 0.09549 0.5129 0.09608 0.0
C2120 C 0.15445 0.52112 0.19564 0.0
C2121 C 0.17287 0.53991 0.20076 0.0
C2122 C 0.13609 0.52168 0.18011 0.0
C2123 C 0.13568 0.54128 0.17003 0.0
C2124 C 0.15388 0.56022 0.17555 0.0
C2125 C 0.17237 0.55946 0.1906 0.0
C2126 C 0.09202 0.56236 0.13526 0.0
C2127 C 0.08836 0.54563 0.11391 0.0
C2128 C 0.10667 0.56043 0.15418 0.0
C2129 C 0.11737 0.54147 0.15212 0.0
C2130 C 0.11241 0.52393 0.13142 0.0
C2131 C 0.09819 0.5261 0.11237 0.0
H2132 H 0.79727 0.87427 0.47255 0.0
H2133 H 0.85596 0.84558 0.48229 0.0
H2134 H 0.7925 0.85619 0.4302 0.0
H2135 H 0.85079 0.82686 0.44008 0.0
H2136 H 0.8528 0.82461 0.35976 0.0
H2137 H 0.85537 0.83822 0.40277 0.0
H2138 H 0.78334 0.8211 0.40038 0.0
H2139 H 0.78073 0.80806 0.357 0.0
C2140 C 0.80895 0.86376 0.46576 0.0
C2141 C 0.82712 0.86156 0.48083 0.0
C2142 C 0.80614 0.85327 0.44143 0.0
C2143 C 0.82136 0.84017 0.43155 0.0
C2144 C 0.839 0.8372 0.44689 0.0
C2145 C 0.84188 0.84781 0.47118 0.0
C2146 C 0.83747 0.82359 0.36835 0.0
C2147 C 0.81655 0.81528 0.35481 0.0
C2148 C 0.83895 0.83127 0.39315 0.0
C2149 C 0.81958 0.83076 0.40521 0.0
C2150 C 0.79863 0.82205 0.39172 0.0
C2151 C 0.79713 0.81443 0.36682 0.0
H2152 H 0.45806 0.51926 0.84451 0.0
H2153 H 0.48311 0.59276 0.85132 0.0
H2154 H 0.47815 0.52009 0.8823 0.0
H2155 H 0.50428 0.59355 0.88978 0.0
H2156 H 0.52715 0.5901 0.96953 0.0
H2157 H 0.50757 0.59197 0.93135 0.0
H2158 H 0.51061 0.52055 0.90388 0.0
H2159 H 0.52936 0.51862 0.94193 0.0
C2160 C 0.46806 0.53581 0.85389 0.0
C2161 C 0.46866 0.55592 0.84402 0.0
C2162 C 0.48002 0.53622 0.87598 0.0
C2163 C 0.49363 0.55678 0.88983 0.0
C2164 C 0.49415 0.57717 0.88021 0.0
C2165 C 0.48197 0.57675 0.85782 0.0
C2166 C 0.52365 0.57473 0.95537 0.0
C2167 C 0.53 0.55411 0.95948 0.0
C2168 C 0.51236 0.57584 0.93312 0.0
C2169 C 0.50681 0.55638 0.91378 0.0
C2170 C 0.51366 0.53597 0.91792 0.0
C2171 C 0.5248 0.53485 0.94007 0.0
H2172 H 0.82246 0.15424 0.11986 0.0
H2173 H 0.83598 0.21282 0.08505 0.0
H2174 H 0.81522 0.17982 0.15587 0.0
H2175 H 0.82789 0.23809 0.1204 0.0
H2176 H 0.83457 0.28233 0.19529 0.0
H2177 H 0.8415 0.25673 0.15954 0.0
H2178 H 0.78979 0.20181 0.17296 0.0
H2179 H 0.78349 0.22732 0.20941 0.0
C2180 C 0.82388 0.17255 0.11986 0.0
C2181 C 0.82998 0.18144 0.09956 0.0
C2182 C 0.8195 0.18724 0.14046 0.0
C2183 C 0.82091 0.21117 0.14123 0.0
C2184 C 0.82701 0.21993 0.12083 0.0
C2185 C 0.83158 0.20534 0.1004 0.0
C2186 C 0.82444 0.2649 0.19051 0.0
C2187 C 0.80836 0.257 0.20527 0.0
C2188 C 0.82841 0.25012 0.16987 0.0
C2189 C 0.81626 0.22702 0.16315 0.0
C2190 C 0.7998 0.21929 0.17766 0.0
C2191 C 0.79597 0.23404 0.19847 0.0
H2192 H 0.16959 0.60266 0.27705 0.0
H2193 H 0.21893 0.57905 0.31826 0.0
H2194 H 0.14633 0.60345 0.31019 0.0
H2195 H 0.19594 0.58038 0.35154 0.0
H2196 H 0.13414 0.54952 0.38571 0.0
H2197 H 0.16095 0.55574 0.35678 0.0
H2198 H 0.14198 0.6207 0.3516 0.0
H2199 H 0.11498 0.61442 0.38069 0.0
C2200 C 0.17571 0.59816 0.29337 0.0
C2201 C 0.19592 0.59046 0.29492 0.0
C2202 C 0.16241 0.59869 0.3124 0.0
C2203 C 0.16916 0.59163 0.33333 0.0
C2204 C 0.19007 0.58543 0.33542 0.0
C2205 C 0.20329 0.58479 0.31641 0.0
C2206 C 0.13592 0.56531 0.3787 0.0
C2207 C 0.12245 0.58148 0.38548 0.0
C2208 C 0.15133 0.56892 0.36215 0.0
C2209 C 0.15368 0.58879 0.352 0.0
C2210 C 0.1404 0.60512 0.35896 0.0
C2211 C 0.12493 0.6015 0.37556 0.0
H2212 H 0.77685 0.84796 0.59382 0.0
H2213 H 0.84083 0.89426 0.61762 0.0
H2214 H 0.77858 0.83276 0.63041 0.0
H2215 H 0.84262 0.87884 0.65423 0.0
H2216 H 0.82606 0.86058 0.72766 0.0
H2217 H 0.82452 0.87741 0.69184 0.0
H2218 H 0.80012 0.8088 0.64843 0.0
H2219 H 0.80144 0.79207 0.68391 0.0
C2220 C 0.79132 0.8549 0.60683 0.0
C2221 C 0.80873 0.87229 0.60267 0.0
C2222 C 0.79235 0.84609 0.6278 0.0
C2223 C 0.81079 0.8545 0.64527 0.0
C2224 C 0.82809 0.87211 0.64128 0.0
C2225 C 0.82712 0.88084 0.6202 0.0
C2226 C 0.82037 0.8491 0.71047 0.0
C2227 C 0.81383 0.82495 0.70877 0.0
C2228 C 0.81959 0.85874 0.68992 0.0
C2229 C 0.81207 0.84447 0.66724 0.0
C2230 C 0.80566 0.82036 0.66561 0.0
C2231 C 0.80657 0.81074 0.68603 0.0
H2232 H 0.70717 0.45217 0.52697 0.0
H2233 H 0.74031 0.51908 0.51557 0.0
H2234 H 0.6729 0.46606 0.53222 0.0
H2235 H 0.70527 0.53308 0.52025 0.0
H2236 H 0.64251 0.55686 0.54981 0.0
H2237 H 0.67819 0.54444 0.54618 0.0
H2238 H 0.64274 0.47531 0.5122 0.0
H2239 H 0.60734 0.48752 0.51639 0.0
C2240 C 0.70721 0.46993 0.5254 0.0
C2241 C 0.72682 0.48436 0.52067 0.0
C2242 C 0.68723 0.47792 0.52827 0.0
C2243 C 0.68579 0.50075 0.52643 0.0
C2244 C 0.7055 0.51543 0.52201 0.0
C2245 C 0.72569 0.50737 0.51917 0.0
C2246 C 0.64229 0.53891 0.54182 0.0
C2247 C 0.62174 0.52323 0.5337 0.0
C2248 C 0.6629 0.5318 0.53948 0.0
C2249 C 0.66376 0.50873 0.52891 0.0
C2250 C 0.64313 0.4931 0.52087 0.0
C2251 C 0.6226 0.50017 0.52325 0.0
H2252 H 0.24111 0.10937 0.48985 0.0
H2253 H 0.22128 0.17569 0.50446 0.0
H2254 H 0.20275 0.08962 0.49152 0.0
H2255 H 0.18279 0.15592 0.50544 0.0
H2256 H 0.1248 0.11532 0.53724 0.0
H2257 H 0.16174 0.13535 0.53138 0.0
H2258 H 0.16506 0.07966 0.47236 0.0
H2259 H 0.12805 0.05918 0.47863 0.0
C2260 C 0.22851 0.11975 0.49314 0.0
C2261 C 0.23433 0.14415 0.49722 0.0
C2262 C 0.20645 0.10839 0.49393 0.0
C2263 C 0.18962 0.12115 0.49872 0.0
C2264 C 0.19535 0.14554 0.50212 0.0
C2265 C 0.21744 0.1569 0.50145 0.0
C2266 C 0.13326 0.10733 0.52286 0.0
C2267 C 0.12341 0.08554 0.50846 0.0
C2268 C 0.15448 0.11894 0.51939 0.0
C2269 C 0.16647 0.10917 0.50137 0.0
C2270 C 0.15645 0.08757 0.48661 0.0
C2271 C 0.13516 0.07589 0.49012 0.0
H2272 H 0.20509 0.9485 0.79063 0.0
H2273 H 0.25756 0.97093 0.74829 0.0
H2274 H 0.2197 0.91287 0.79163 0.0
H2275 H 0.27172 0.93602 0.749 0.0
H2276 H 0.30756 0.87982 0.76641 0.0
H2277 H 0.29168 0.91418 0.76704 0.0
H2278 H 0.22691 0.8748 0.77504 0.0
H2279 H 0.24316 0.84013 0.77466 0.0
C2280 C 0.21974 0.94616 0.78156 0.0
C2281 C 0.22985 0.96358 0.76947 0.0
C2282 C 0.22823 0.92529 0.78198 0.0
C2283 C 0.24748 0.92064 0.77057 0.0
C2284 C 0.25735 0.93817 0.7586 0.0
C2285 C 0.24888 0.95868 0.75805 0.0
C2286 C 0.28986 0.87812 0.76816 0.0
C2287 C 0.27703 0.85629 0.77021 0.0
C2288 C 0.28046 0.89828 0.76841 0.0
C2289 C 0.25747 0.89827 0.77087 0.0
C2290 C 0.24459 0.87643 0.7732 0.0
C2291 C 0.25403 0.8561 0.77279 0.0
H2292 H 0.37047 0.03052 0.01815 0.0
H2293 H 0.38203 0.96144 0.01706 0.0
H2294 H 0.41116 0.04576 0.02395 0.0
H2295 H 0.42193 0.97632 0.02233 0.0
H2296 H 0.49186 1.00969 0.05509 0.0
H2297 H 0.4513 0.99802 0.05127 0.0
H2298 H 0.44618 0.04667 1.00519 0.0
H2299 H 0.48697 0.05874 1.00943 0.0
C2300 C 0.38157 0.01858 0.01909 0.0
C2301 C 0.37272 0.99471 0.01724 0.0
C2302 C 0.40496 0.02729 0.02232 0.0
C2303 C 0.42011 1.01238 0.02392 0.0
C2304 C 0.41108 0.98856 0.0218 0.0
C2305 C 0.38794 0.97994 0.01856 0.0
C2306 C 0.48219 0.01801 0.04416 0.0
C2307 C 0.49295 0.03508 0.03244 0.0
C2308 C 0.45876 1.0112 0.04185 0.0
C2309 C 0.44516 0.02113 0.02765 0.0
C2310 C 0.4559 0.03866 0.0164 0.0
C2311 C 0.47941 0.0455 0.01873 0.0
H2312 H 0.89785 0.63706 0.81544 0.0
H2313 H 0.8494 0.57288 0.80951 0.0
H2314 H 0.86806 0.6559 0.80379 0.0
H2315 H 0.81976 0.59178 0.79785 0.0
H2316 H 0.78463 0.62804 0.74385 0.0
H2317 H 0.8109 0.60789 0.76098 0.0
H2318 H 0.83291 0.66741 0.81881 0.0
H2319 H 0.807 0.68761 0.80166 0.0
C2320 C 0.88086 0.62706 0.81191 0.0
C2321 C 0.87601 0.60349 0.81331 0.0
C2322 C 0.86381 0.63786 0.80535 0.0
C2323 C 0.84166 0.62523 0.79988 0.0
C2324 C 0.83673 0.60182 0.8018 0.0
C2325 C 0.85371 0.59109 0.80859 0.0
C2326 C 0.79483 0.6366 0.76042 0.0
C2327 C 0.79372 0.65933 0.77144 0.0
C2328 C 0.80977 0.62508 0.77026 0.0
C2329 C 0.82401 0.63622 0.7911 0.0
C2330 C 0.82224 0.65855 0.80262 0.0
C2331 C 0.8072 0.66996 0.79294 0.0
H2332 H 0.82347 0.64215 0.02053 0.0
H2333 H 0.87879 0.69603 1.01238 0.0
H2334 H 0.84978 0.61959 0.0329 0.0
H2335 H 0.90502 0.67345 0.02474 0.0
H2336 H 0.94301 0.63909 0.07537 0.0
H2337 H 0.91624 0.66092 0.06249 0.0
H2338 H 0.87882 0.59841 0.01562 0.0
H2339 H 0.9055 0.5765 0.0287 0.0
C2340 C 0.84122 0.64915 0.02128 0.0
C2341 C 0.84903 0.67091 0.0155 0.0
C2342 C 0.85628 0.63617 0.02827 0.0
C2343 C 0.87945 0.6448 0.02988 0.0
C2344 C 0.88725 0.66648 0.02393 0.0
C2345 C 0.87221 0.67933 0.01669 0.0
C2346 C 0.92895 0.62997 0.06249 0.0
C2347 C 0.92633 0.60607 0.05308 0.0
C2348 C 0.91376 0.64251 0.05494 0.0
C2349 C 0.89548 0.63139 0.03799 0.0
C2350 C 0.89267 0.60742 0.02881 0.0
C2351 C 0.90802 0.59492 0.03616 0.0
H2352 H 0.19012 0.11841 0.77364 0.0
H2353 H 0.25211 0.09741 0.7886 0.0
H2354 H 0.21002 0.15736 0.77411 0.0
H2355 H 0.27253 0.13746 0.78971 0.0
H2356 H 0.30494 0.20944 0.77105 0.0
H2357 H 0.28675 0.16926 0.77138 0.0
H2358 H 0.22805 0.19311 0.79481 0.0
H2359 H 0.24597 0.23284 0.79381 0.0
C2360 C 0.20814 0.12199 0.77729 0.0
C2361 C 0.21911 0.10399 0.78118 0.0
C2362 C 0.21978 0.14491 0.77778 0.0
C2363 C 0.2433 0.1516 0.78229 0.0
C2364 C 0.25452 0.1336 0.78604 0.0
C2365 C 0.24271 0.11035 0.78553 0.0
C2366 C 0.28811 0.2062 0.77628 0.0
C2367 C 0.27715 0.22502 0.78225 0.0
C2368 C 0.27757 0.18284 0.7766 0.0
C2369 C 0.25545 0.177 0.78288 0.0
C2370 C 0.24474 0.19601 0.78923 0.0
C2371 C 0.25523 0.21926 0.78886 0.0
H2372 H 0.3455 0.99777 0.31611 0.0
H2373 H 0.40008 0.98279 0.35804 0.0
H2374 H 0.32591 0.95742 0.31053 0.0
H2375 H 0.38064 0.94236 0.35205 0.0
H2376 H 0.33792 0.87069 0.34204 0.0
H2377 H 0.34795 0.9127 0.35708 0.0
H2378 H 0.33595 0.92374 0.28525 0.0
H2379 H 0.32573 0.88206 0.27031 0.0
C2380 C 0.35313 0.98597 0.32451 0.0
C2381 C 0.37455 0.99331 0.33707 0.0
C2382 C 0.34192 0.96287 0.32126 0.0
C2383 C 0.35194 0.94668 0.33046 0.0
C2384 C 0.37246 0.95446 0.34481 0.0
C2385 C 0.38366 0.97762 0.34813 0.0
C2386 C 0.33709 0.88213 0.32955 0.0
C2387 C 0.33129 0.87309 0.30495 0.0
C2388 C 0.34287 0.90614 0.33817 0.0
C2389 C 0.34275 0.92148 0.32235 0.0
C2390 C 0.33591 0.91239 0.29795 0.0
C2391 C 0.33026 0.88847 0.28934 0.0
H2392 H 0.57664 0.33831 0.56511 0.0
H2393 H 0.64762 0.36293 0.56424 0.0
H2394 H 0.5693 0.35364 0.52981 0.0
H2395 H 0.64016 0.37849 0.52845 0.0
H2396 H 0.60384 0.43622 0.50349 0.0
H2397 H 0.62198 0.41176 0.52396 0.0
H2398 H 0.57375 0.35126 0.48655 0.0
H2399 H 0.55542 0.37588 0.4658 0.0
C2400 C 0.59072 0.34686 0.55724 0.0
C2401 C 0.61269 0.34978 0.56768 0.0
C2402 C 0.58653 0.3553 0.53671 0.0
C2403 C 0.60418 0.36706 0.52618 0.0
C2404 C 0.62626 0.3694 0.53615 0.0
C2405 C 0.6305 0.36062 0.55665 0.0
C2406 C 0.59771 0.41758 0.49859 0.0
C2407 C 0.57774 0.40803 0.48353 0.0
C2408 C 0.60818 0.40352 0.51043 0.0
C2409 C 0.59883 0.37973 0.5074 0.0
C2410 C 0.58094 0.36969 0.48963 0.0
C2411 C 0.57045 0.38376 0.47776 0.0
H2412 H 0.45725 0.77545 0.4079 0.0
H2413 H 0.49541 0.78306 0.3477 0.0
H2414 H 0.42355 0.77712 0.38397 0.0
H2415 H 0.46158 0.78408 0.32355 0.0
H2416 H 0.40462 0.81805 0.30099 0.0
H2417 H 0.43775 0.81174 0.32247 0.0
H2418 H 0.39673 0.75755 0.35036 0.0
H2419 H 0.36356 0.76426 0.32946 0.0
C2420 C 0.45836 0.777 0.38941 0.0
C2421 C 0.47901 0.77933 0.37974 0.0
C2422 C 0.43903 0.77789 0.37566 0.0
C2423 C 0.43994 0.78097 0.35193 0.0
C2424 C 0.46042 0.78217 0.34193 0.0
C2425 C 0.47976 0.78142 0.35572 0.0
C2426 C 0.40268 0.80475 0.31165 0.0
C2427 C 0.38145 0.79178 0.31363 0.0
C2428 C 0.42168 0.801 0.32382 0.0
C2429 C 0.41986 0.78411 0.3381 0.0
C2430 C 0.39866 0.7709 0.33977 0.0
C2431 C 0.37965 0.77473 0.32771 0.0
H2432 H 0.10631 0.7491 0.1245 0.0
H2433 H 0.05771 0.75002 0.06671 0.0
H2434 H 0.10117 0.7072 0.11206 0.0
H2435 H 0.05286 0.7079 0.05399 0.0
H2436 H 0.03181 0.63053 0.05958 0.0
H2437 H 0.03732 0.67274 0.069 0.0
H2438 H 0.10876 0.67811 0.07913 0.0
H2439 H 0.1033 0.63588 0.07012 0.0
C2440 C 0.09457 0.74037 0.10905 0.0
C2441 C 0.08235 0.75288 0.09661 0.0
C2442 C 0.09178 0.71637 0.10182 0.0
C2443 C 0.0767 0.7043 0.08199 0.0
C2444 C 0.06447 0.71676 0.06947 0.0
C2445 C 0.0673 0.74086 0.07669 0.0
C2446 C 0.04872 0.6407 0.06372 0.0
C2447 C 0.06713 0.62985 0.06429 0.0
C2448 C 0.05186 0.66488 0.06895 0.0
C2449 C 0.07346 0.67871 0.07488 0.0
C2450 C 0.0919 0.66788 0.07494 0.0
C2451 C 0.08876 0.64369 0.0697 0.0
H2452 H 0.10321 0.34828 0.92809 0.0
H2453 H 0.0726 0.27822 0.89156 0.0
H2454 H 0.13468 0.34732 0.90408 0.0
H2455 H 0.10392 0.27745 0.86734 0.0
H2456 H 0.17349 0.27708 0.84285 0.0
H2457 H 0.14417 0.2775 0.86991 0.0
H2458 H 0.14063 0.34713 0.86197 0.0
H2459 H 0.17038 0.34698 0.83556 0.0
C2460 C 0.10322 0.33264 0.91502 0.0
C2461 C 0.08535 0.31337 0.91165 0.0
C2462 C 0.1212 0.33215 0.90118 0.0
C2463 C 0.1217 0.31237 0.88373 0.0
C2464 C 0.1041 0.29287 0.88079 0.0
C2465 C 0.0861 0.29337 0.89459 0.0
C2466 C 0.16659 0.29255 0.8471 0.0
C2467 C 0.17419 0.31197 0.83704 0.0
C2468 C 0.14968 0.29271 0.86241 0.0
C2469 C 0.14011 0.31234 0.86806 0.0
C2470 C 0.14786 0.33184 0.85817 0.0
C2471 C 0.16469 0.33165 0.84281 0.0
H2472 H 0.58942 0.76121 0.9255 0.0
H2473 H 0.62717 0.80648 0.98881 0.0
H2474 H 0.57905 0.73103 0.94819 0.0
H2475 H 0.6172 0.77582 1.01149 0.0
H2476 H 0.57513 0.72246 0.0488 0.0
H2477 H 0.58513 0.75414 0.02735 0.0
H2478 H 0.5966 0.7049 0.9661 0.0
H2479 H 0.58574 0.67339 0.98696 0.0
C2480 C 0.59568 0.76467 0.94424 0.0
C2481 C 0.60924 0.78621 0.95532 0.0
C2482 C 0.58978 0.7473 0.95724 0.0
C2483 C 0.59743 0.75096 0.98161 0.0
C2484 C 0.61088 0.77256 0.99279 0.0
C2485 C 0.61671 0.79004 0.97976 0.0
C2486 C 0.57963 0.71846 0.03069 0.0
C2487 C 0.57972 0.69544 0.01962 0.0
C2488 C 0.58559 0.7366 0.01851 0.0
C2489 C 0.59162 0.73202 0.995 0.0
C2490 C 0.59177 0.70901 0.98406 0.0
C2491 C 0.58581 0.69096 0.99616 0.0
H2492 H 0.10378 0.77318 0.67344 0.0
H2493 H 0.0598 0.7964 0.72489 0.0
H2494 H 0.13015 0.77074 0.70598 0.0
H2495 H 0.08659 0.79403 0.75757 0.0
H2496 H 0.15388 0.7361 0.76117 0.0
H2497 H 0.12291 0.74152 0.73602 0.0
H2498 H 0.13098 0.81224 0.77462 0.0
H2499 H 0.16206 0.8068 0.80068 0.0
C2500 C 0.09988 0.77812 0.69168 0.0
C2501 C 0.07957 0.78467 0.69658 0.0
C2502 C 0.11491 0.77658 0.71027 0.0
C2503 C 0.11005 0.78175 0.73411 0.0
C2504 C 0.09052 0.78981 0.73925 0.0
C2505 C 0.07528 0.79115 0.72057 0.0
C2506 C 0.1486 0.75255 0.76518 0.0
C2507 C 0.16072 0.77114 0.78282 0.0
C2508 C 0.13101 0.7557 0.75047 0.0
C2509 C 0.1251 0.77744 0.75309 0.0
C2510 C 0.1355 0.79538 0.77221 0.0
C2511 C 0.15326 0.79225 0.78702 0.0
H2512 H 0.03779 0.35038 0.41812 0.0
H2513 H 0.10627 0.37891 0.40854 0.0
H2514 H 0.03427 0.38836 0.44025 0.0
H2515 H 0.10278 0.41666 0.43088 0.0
H2516 H 0.08022 0.48584 0.44854 0.0
H2517 H 0.08287 0.44781 0.42602 0.0
H2518 H 0.04908 0.41509 0.47882 0.0
H2519 H 0.04611 0.45305 0.50123 0.0
C2520 C 0.05209 0.36471 0.42079 0.0
C2521 C 0.07229 0.36165 0.41155 0.0
C2522 C 0.0501 0.38641 0.43354 0.0
C2523 C 0.06824 0.40546 0.43723 0.0
C2524 C 0.08843 0.40237 0.42803 0.0
C2525 C 0.09044 0.3807 0.41536 0.0
C2526 C 0.07333 0.47055 0.45535 0.0
C2527 C 0.06299 0.47248 0.4767 0.0
C2528 C 0.07495 0.44879 0.4425 0.0
C2529 C 0.06621 0.42851 0.45069 0.0
C2530 C 0.05575 0.43041 0.47195 0.0
C2531 C 0.05419 0.45218 0.48485 0.0
H2532 H 0.43254 0.24997 0.16241 0.0
H2533 H 0.47768 0.25915 0.22609 0.0
H2534 H 0.40072 0.24513 0.18618 0.0
H2535 H 0.4461 0.25308 0.24959 0.0
H2536 H 0.39255 0.29155 0.28204 0.0
H2537 H 0.42329 0.28022 0.26157 0.0
H2538 H 0.37697 0.22554 0.21228 0.0
H2539 H 0.34583 0.23743 0.23283 0.0
C2540 C 0.43556 0.25031 0.18136 0.0
C2541 C 0.45742 0.25563 0.19263 0.0
C2542 C 0.41739 0.24728 0.19494 0.0
C2543 C 0.42094 0.24913 0.21987 0.0
C2544 C 0.44285 0.25215 0.23055 0.0
C2545 C 0.46091 0.25569 0.21713 0.0
C2546 C 0.38897 0.2767 0.26725 0.0
C2547 C 0.36688 0.26559 0.25875 0.0
C2548 C 0.40662 0.27003 0.25557 0.0
C2549 C 0.40257 0.2521 0.23509 0.0
C2550 C 0.38055 0.23962 0.22783 0.0
C2551 C 0.36278 0.24626 0.2397 0.0
H2552 H 0.65759 0.58091 0.36246 0.0
H2553 H 0.64371 0.50609 0.34619 0.0
H2554 H 0.63655 0.5807 0.39681 0.0
H2555 H 0.62269 0.50576 0.38162 0.0
H2556 H 0.57236 0.51166 0.44047 0.0
H2557 H 0.59237 0.51014 0.4045 0.0
H2558 H 0.63326 0.57757 0.43535 0.0
H2559 H 0.61291 0.57921 0.47067 0.0
C2560 C 0.65016 0.56417 0.36614 0.0
C2561 C 0.65286 0.54352 0.35083 0.0
C2562 C 0.63798 0.56406 0.38647 0.0
C2563 C 0.62764 0.54326 0.39317 0.0
C2564 C 0.63 0.5224 0.37766 0.0
C2565 C 0.64229 0.52252 0.35706 0.0
C2566 C 0.58549 0.52634 0.43959 0.0
C2567 C 0.59046 0.54574 0.45902 0.0
C2568 C 0.5973 0.52538 0.41871 0.0
C2569 C 0.61482 0.54377 0.41599 0.0
C2570 C 0.6198 0.56304 0.43563 0.0
C2571 C 0.60801 0.56399 0.45641 0.0
H2572 H 0.31434 0.95752 0.07955 0.0
H2573 H 0.28707 0.89036 0.03416 0.0
H2574 H 0.32425 0.93852 0.1117 0.0
H2575 H 0.29662 0.87143 0.06642 0.0
H2576 H 0.34188 0.84597 0.11784 0.0
H2577 H 0.33041 0.86527 0.08665 0.0
H2578 H 0.30849 0.91533 0.13985 0.0
H2579 H 0.32073 0.89649 0.1712 0.0
C2580 C 0.31022 0.93872 0.07651 0.0
C2581 C 0.30001 0.92547 0.05422 0.0
C2582 C 0.31583 0.92783 0.09498 0.0
C2583 C 0.31137 0.90344 0.09158 0.0
C2584 C 0.30064 0.89023 0.0695 0.0
C2585 C 0.29502 0.90111 0.05105 0.0
C2586 C 0.33483 0.86123 0.12293 0.0
C2587 C 0.33229 0.86972 0.14704 0.0
C2588 C 0.32798 0.87212 0.10501 0.0
C2589 C 0.31843 0.89179 0.11073 0.0
C2590 C 0.31593 0.90032 0.13484 0.0
C2591 C 0.32274 0.88939 0.15278 0.0
H2592 H 0.96037 0.58416 0.88685 0.0
H2593 H 0.96474 0.51188 0.86757 0.0
H2594 H 0.98508 0.58847 0.92353 0.0
H2595 H 0.98908 0.51625 0.90421 0.0
H2596 H 0.99867 0.5279 0.98743 0.0
H2597 H 0.97859 0.52553 0.9487 0.0
H2598 H 0.02721 0.58365 0.93666 0.0
H2599 H 0.04778 0.58592 0.97562 0.0
C2600 C 0.96671 0.56928 0.89036 0.0
C2601 C 0.96048 0.54763 0.87449 0.0
C2602 C 0.98093 0.57181 0.91119 0.0
C2603 C 0.98882 0.55265 0.91656 0.0
C2604 C 0.98308 0.53122 0.90041 0.0
C2605 C 0.96917 0.52876 0.87948 0.0
C2606 C 1.00515 0.54019 0.97657 0.0
C2607 C 0.02479 0.55711 0.9845 0.0
C2608 C 0.99371 0.53872 0.95437 0.0
C2609 C 1.00147 0.55435 0.93981 0.0
C2610 C 0.02098 0.57145 0.9477 0.0
C2611 C 0.03273 0.57266 0.96984 0.0
H2612 H 0.32357 0.22882 0.5815 0.0
H2613 H 0.26478 0.2581 0.57518 0.0
H2614 H 0.32885 0.24479 0.62435 0.0
H2615 H 0.27047 0.27473 0.61794 0.0
H2616 H 0.26903 0.27196 0.69715 0.0
H2617 H 0.26623 0.26064 0.65393 0.0
H2618 H 0.33819 0.2786 0.65597 0.0
H2619 H 0.34105 0.28937 0.69962 0.0
C2620 C 0.31198 0.23902 0.58917 0.0
C2621 C 0.2936 0.24197 0.5749 0.0
C2622 C 0.31509 0.2483 0.61379 0.0
C2623 C 0.29998 0.26089 0.62475 0.0
C2624 C 0.28218 0.26471 0.61024 0.0
C2625 C 0.27899 0.2553 0.58566 0.0
C2626 C 0.28431 0.27363 0.68847 0.0
C2627 C 0.30529 0.28154 0.70197 0.0
C2628 C 0.28268 0.26729 0.66355 0.0
C2629 C 0.30197 0.26878 0.65131 0.0
C2630 C 0.32298 0.27698 0.66477 0.0
C2631 C 0.32463 0.28327 0.68982 0.0
H2632 H 0.67018 0.52146 0.19692 0.0
H2633 H 0.61356 0.54271 0.22869 0.0
H2634 H 0.65367 0.52407 0.15739 0.0
H2635 H 0.59701 0.5448 0.18981 0.0
H2636 H 0.57775 0.56729 0.12072 0.0
H2637 H 0.59541 0.56427 0.15908 0.0
H2638 H 0.62744 0.51122 0.12306 0.0
H2639 H 0.61007 0.51477 0.08454 0.0
C2640 C 0.65416 0.52649 0.19564 0.0
C2641 C 0.64351 0.53188 0.21665 0.0
C2642 C 0.64449 0.52798 0.17269 0.0
C2643 C 0.62373 0.53498 0.16961 0.0
C2644 C 0.61311 0.53993 0.19069 0.0
C2645 C 0.6227 0.53848 0.21341 0.0
C2646 C 0.58851 0.5549 0.1208 0.0
C2647 C 0.59213 0.5413 0.09893 0.0
C2648 C 0.59871 0.55298 0.14317 0.0
C2649 C 0.61312 0.53727 0.14504 0.0
C2650 C 0.61684 0.52375 0.12306 0.0
C2651 C 0.60662 0.5257 0.10065 0.0
H2652 H 0.28889 0.90704 0.95648 0.0
H2653 H 0.33274 0.95249 0.92108 0.0
H2654 H 0.29169 0.8738 0.92559 0.0
H2655 H 0.33509 0.91945 0.88993 0.0
H2656 H 0.35033 0.8537 0.84663 0.0
H2657 H 0.34984 0.88484 0.88097 0.0
H2658 H 0.28003 0.85669 0.88474 0.0
H2659 H 0.28071 0.82545 0.85115 0.0
C2660 C 0.29896 0.91 0.942 0.0
C2661 C 0.31049 0.93254 0.94129 0.0
C2662 C 0.30057 0.8909 0.92422 0.0
C2663 C 0.3137 0.89378 0.90516 0.0
C2664 C 0.32516 0.91637 0.90447 0.0
C2665 C 0.3236 0.93543 0.92227 0.0
C2666 C 0.33502 0.8539 0.85511 0.0
C2667 C 0.31558 0.83699 0.84601 0.0
C2668 C 0.33464 0.87195 0.87466 0.0
C2669 C 0.31481 0.87354 0.88562 0.0
C2670 C 0.29568 0.85605 0.87706 0.0
C2671 C 0.29606 0.83808 0.8576 0.0
H2672 H 0.99386 0.57038 0.78994 0.0
H2673 H 0.93056 0.54213 0.74704 0.0
H2674 H 1.01344 0.56236 0.75447 0.0
H2675 H 0.95004 0.53491 0.71147 0.0
H2676 H 0.99134 0.50065 0.65805 0.0
H2677 H 0.97252 0.50931 0.69397 0.0
H2678 H 0.02108 0.57375 0.71746 0.0
H2679 H 0.04022 0.56462 0.68177 0.0
C2680 C 0.98412 0.56275 0.77288 0.0
C2681 C 0.96068 0.55678 0.77129 0.0
C2682 C 0.99534 0.55823 0.75252 0.0
C2683 C 0.98333 0.54784 0.73012 0.0
C2684 C 0.95984 0.54245 0.7285 0.0
C2685 C 0.94866 0.54676 0.74887 0.0
C2686 C 0.99793 0.51666 0.67092 0.0
C2687 C 1.01719 0.53198 0.66718 0.0
C2688 C 0.98711 0.5217 0.69144 0.0
C2689 C 0.99518 0.54232 0.70855 0.0
C2690 C 1.01458 0.55757 0.70482 0.0
C2691 C 0.02552 0.5524 0.68439 0.0
H2692 H 0.25669 0.23043 0.43756 0.0
H2693 H 0.32614 0.22629 0.44804 0.0
H2694 H 0.26365 0.24507 0.40117 0.0
H2695 H 0.33302 0.24055 0.41129 0.0
H2696 H 0.34071 0.2895 0.3572 0.0
H2697 H 0.33494 0.27493 0.39394 0.0
H2698 H 0.27189 0.23161 0.3608 0.0
H2699 H 0.27741 0.24643 0.3243 0.0
C2700 C 0.27346 0.23262 0.43211 0.0
C2701 C 0.29084 0.22713 0.44575 0.0
C2702 C 0.27743 0.24087 0.4111 0.0
C2703 C 0.29887 0.24384 0.40313 0.0
C2704 C 0.31634 0.23866 0.41697 0.0
C2705 C 0.31237 0.23039 0.43801 0.0
C2706 C 0.32567 0.27676 0.35768 0.0
C2707 C 0.30948 0.26925 0.33777 0.0
C2708 C 0.3224 0.26834 0.37876 0.0
C2709 C 0.30286 0.25221 0.38044 0.0
C2710 C 0.28693 0.24435 0.36033 0.0
C2711 C 0.29019 0.25275 0.3393 0.0
H2712 H 0.37468 0.57418 0.51801 0.0
H2713 H 0.41195 0.63625 0.56542 0.0
H2714 H 0.4097 0.56143 0.51 0.0
H2715 H 0.44656 0.62334 0.55834 0.0
H2716 H 0.50936 0.60653 0.52832 0.0
H2717 H 0.47379 0.6186 0.53306 0.0
H2718 H 0.43988 0.54669 0.52254 0.0
H2719 H 0.47528 0.53473 0.51682 0.0
C2720 C 0.39027 0.585 0.52698 0.0
C2721 C 0.39023 0.60634 0.54235 0.0
C2722 C 0.41053 0.57766 0.52243 0.0
C2723 C 0.43149 0.59132 0.53325 0.0
C2724 C 0.43119 0.61241 0.54899 0.0
C2725 C 0.41108 0.61979 0.55331 0.0
C2726 C 0.49431 0.59324 0.5267 0.0
C2727 C 0.49551 0.56957 0.52204 0.0
C2728 C 0.47371 0.60019 0.52973 0.0
C2729 C 0.45347 0.58376 0.52852 0.0
C2730 C 0.45471 0.56006 0.52337 0.0
C2731 C 0.47525 0.55313 0.52014 0.0
H2732 H 0.91321 0.92558 0.57731 0.0
H2733 H 0.88155 0.96402 0.53326 0.0
H2734 H 0.9495 0.9498 0.57491 0.0
H2735 H 0.9179 0.98791 0.53045 0.0
H2736 H 0.98368 0.04062 0.54809 0.0
H2737 H 0.94774 0.01769 0.55383 0.0
H2738 H 0.97608 0.95625 0.54604 0.0
H2739 H 1.01212 0.97921 0.5408 0.0
C2740 C 0.91397 0.93918 0.56709 0.0
C2741 C 0.89444 0.94283 0.55546 0.0
C2742 C 0.93483 0.953 0.56561 0.0
C2743 C 0.93667 0.97081 0.55246 0.0
C2744 C 0.91709 0.97457 0.54101 0.0
C2745 C 0.89624 0.96076 0.54249 0.0
C2746 C 0.98232 0.02225 0.54778 0.0
C2747 C 1.00083 1.01178 0.54392 0.0
C2748 C 0.96164 1.00907 0.55091 0.0
C2749 C 0.95894 0.98508 0.55026 0.0
C2750 C 0.97758 0.97472 0.54691 0.0
C2751 C 0.99826 0.9879 0.54378 0.0
H2752 H 0.91362 0.14264 0.25654 0.0
H2753 H 0.86788 0.12461 0.30748 0.0
H2754 H 0.89818 0.17771 0.25525 0.0
H2755 H 0.85298 0.15902 0.30653 0.0
H2756 H 0.81424 0.21353 0.29053 0.0
H2757 H 0.83063 0.17948 0.28998 0.0
H2758 H 0.89199 0.21623 0.27006 0.0
H2759 H 0.8752 0.25047 0.27032 0.0
C2760 C 0.90031 0.14586 0.26749 0.0
C2761 C 0.89231 0.12983 0.28204 0.0
C2762 C 0.89134 0.1664 0.26688 0.0
C2763 C 0.87369 0.17209 0.28061 0.0
C2764 C 0.86596 0.15597 0.29508 0.0
C2765 C 0.87489 0.13577 0.29576 0.0
C2766 C 0.83131 0.21469 0.28613 0.0
C2767 C 0.84303 0.23564 0.2807 0.0
C2768 C 0.84102 0.19474 0.28592 0.0
C2769 C 0.86323 0.19413 0.28019 0.0
C2770 C 0.87495 0.21509 0.27451 0.0
C2771 C 0.8652 0.23519 0.27483 0.0
H2772 H 0.75411 0.09725 1.01312 0.0
H2773 H 0.75376 0.08095 0.08344 0.0
H2774 H 0.71322 0.08855 1.00852 0.0
H2775 H 0.71317 0.07113 0.07857 0.0
H2776 H 0.64156 0.0797 0.07693 0.0
H2777 H 0.68207 0.08714 0.07939 0.0
H2778 H 0.67869 0.06275 1.00289 0.0
H2779 H 0.63791 0.05638 1.00043 0.0
C2780 C 0.74532 0.09127 0.02739 0.0
C2781 C 0.75735 0.08988 0.04868 0.0
C2782 C 0.72173 0.08623 0.02478 0.0
C2783 C 0.70943 0.07938 0.04329 0.0
C2784 C 0.72167 0.07701 0.06411 0.0
C2785 C 0.74514 0.08239 0.06683 0.0
C2786 C 0.6494 0.07593 0.06058 0.0
C2787 C 0.63626 0.06737 0.03848 0.0
C2788 C 0.67284 0.08001 0.06199 0.0
C2789 C 0.68414 0.07534 0.0414 0.0
C2790 C 0.67093 0.06688 0.01921 0.0
C2791 C 0.6474 0.06308 0.01777 0.0
H2792 H 0.27584 0.5074 0.24659 0.0
H2793 H 0.23499 0.50349 0.30534 0.0
H2794 H 0.30003 0.48538 0.26355 0.0
H2795 H 0.25952 0.48187 0.32254 0.0
H2796 H 0.29453 0.42042 0.32768 0.0
H2797 H 0.27018 0.44427 0.31458 0.0
H2798 H 0.32757 0.49094 0.29815 0.0
H2799 H 0.35205 0.46689 0.31121 0.0
C2800 C 0.27196 0.50175 0.26306 0.0
C2801 C 0.25352 0.50721 0.27464 0.0
C2802 C 0.28598 0.48938 0.27292 0.0
C2803 C 0.28187 0.48223 0.29457 0.0
C2804 C 0.26307 0.48711 0.30581 0.0
C2805 C 0.24902 0.49947 0.29592 0.0
C2806 C 0.30205 0.43614 0.32195 0.0
C2807 C 0.32522 0.4418 0.32046 0.0
C2808 C 0.28806 0.44974 0.31432 0.0
C2809 C 0.29694 0.46928 0.30504 0.0
C2810 C 0.32023 0.47566 0.30474 0.0
C2811 C 0.33424 0.46202 0.31235 0.0
H2812 H 0.24105 0.41134 0.05545 0.0
H2813 H 0.29277 0.46509 0.04003 0.0
H2814 H 0.21359 0.43512 0.05107 0.0
H2815 H 0.26512 0.48871 0.03504 0.0
H2816 H 0.21274 0.53377 0.0509 0.0
H2817 H 0.24094 0.51094 0.05652 0.0
H2818 H 0.19449 0.44852 0.02016 0.0
H2819 H 0.16629 0.47132 0.01477 0.0
C2820 C 0.24658 0.42824 0.05109 0.0
C2821 C 0.26912 0.43627 0.04803 0.0
C2822 C 0.23077 0.44183 0.04841 0.0
C2823 C 0.23707 0.46378 0.0425 0.0
C2824 C 0.2597 0.47199 0.03981 0.0
C2825 C 0.27555 0.4584 0.04257 0.0
C2826 C 0.20863 0.51519 0.04393 0.0
C2827 C 0.18725 0.50436 0.03243 0.0
C2828 C 0.2248 0.5021 0.04714 0.0
C2829 C 0.22 0.47785 0.03888 0.0
C2830 C 0.19866 0.46708 0.02718 0.0
C2831 C 0.18248 0.48015 0.02404 0.0
H2832 H 0.92271 0.97047 0.24563 0.0
H2833 H 0.87518 1.0006 0.28681 0.0
H2834 H 0.90317 0.9319 0.24763 0.0
H2835 H 0.85553 0.96132 0.28957 0.0
H2836 H 0.81493 0.88446 0.27761 0.0
H2837 H 0.83272 0.92418 0.27519 0.0
H2838 H 0.89577 0.90278 0.268 0.0
H2839 H 0.87783 0.86326 0.26964 0.0
C2840 C 0.90802 0.96902 0.25531 0.0
C2841 C 0.90089 0.98935 0.26605 0.0
C2842 C 0.89672 0.94643 0.25671 0.0
C2843 C 0.87756 0.94254 0.26918 0.0
C2844 C 0.87002 0.96289 0.27962 0.0
C2845 C 0.8814 0.98575 0.27808 0.0
C2846 C 0.83261 0.88813 0.2754 0.0
C2847 C 0.84464 0.86997 0.27367 0.0
C2848 C 0.84301 0.91128 0.27415 0.0
C2849 C 0.86604 0.91758 0.27114 0.0
C2850 C 0.87802 0.89933 0.2697 0.0
C2851 C 0.86762 0.87625 0.27085 0.0
H2852 H 0.75708 0.09661 0.68982 0.0
H2853 H 0.76405 0.09826 0.76585 0.0
H2854 H 0.77527 0.13781 0.69729 0.0
H2855 H 0.78251 0.13903 0.77318 0.0
H2856 H 0.77401 0.21376 0.7773 0.0
H2857 H 0.76428 0.17174 0.76868 0.0
H2858 H 0.81012 0.16927 0.71422 0.0
H2859 H 0.81993 0.21192 0.72277 0.0
C2860 C 0.76301 0.10561 0.70802 0.0
C2861 C 0.75876 0.09445 0.72731 0.0
C2862 C 0.77347 0.12912 0.71227 0.0
C2863 C 0.77988 0.14164 0.73584 0.0
C2864 C 0.77727 0.12988 0.75488 0.0
C2865 C 0.76673 0.10656 0.75067 0.0
C2866 C 0.78209 0.20438 0.76347 0.0
C2867 C 0.79769 0.21618 0.75065 0.0
C2868 C 0.77666 0.18025 0.7587 0.0
C2869 C 0.78665 0.16726 0.74097 0.0
C2870 C 0.80222 0.17894 0.728 0.0
C2871 C 0.80784 0.20327 0.73294 0.0
loop_
_geom_bond_atom_site_label_1
_geom_bond_atom_site_label_2
_geom_bond_distance
_geom_bond_site_symmetry_2
_ccdc_geom_bond_type
C0 O1 1.160 . S
C0 O7 1.185 . S
O1 C0 1.160 . S
O2 Zn3 1.899 . S
O2 C10 1.284 . S
Zn3 O2 1.899 . S
Zn3 O4 2.032 . S
Zn3 O7 2.086 . S
Zn3 O12 1.977 . S
O4 Zn3 2.032 . S
O4 C8 1.278 . S
C5 O6 1.203 . S
C5 O12 1.267 . S
O6 C5 1.203 . S
O7 C0 1.185 . S
O7 Zn3 2.086 . S
C8 O4 1.278 . S
C8 O9 1.211 . S
O9 C8 1.211 . S
C10 O2 1.284 . S
C10 O11 1.273 . S
O11 C10 1.273 . S
O12 Zn3 1.977 . S
O12 C5 1.267 . S
C13 O14 1.160 . S
C13 O20 1.185 . S
O14 C13 1.160 . S
O15 Zn16 1.899 . S
O15 C23 1.284 . S
Zn16 O15 1.899 . S
Zn16 O17 2.032 . S
Zn16 O20 2.086 . S
Zn16 O25 1.977 1_655 S
O17 Zn16 2.032 . S
O17 C21 1.278 1_655 S
C18 O19 1.203 . S
C18 O25 1.267 . S
O19 C18 1.203 . S
O20 C13 1.185 . S
O20 Zn16 2.086 . S
C21 O17 1.278 1_455 S
C21 O22 1.211 . S
O22 C21 1.211 . S
C23 O15 1.284 . S
C23 O24 1.273 1_655 S
O24 C23 1.273 1_455 S
O25 Zn16 1.977 1_455 S
O25 C18 1.267 . S
C26 O27 1.160 . S
C26 O33 1.185 . S
O27 C26 1.160 . S
O28 Zn29 1.899 . S
O28 C36 1.284 . S
Zn29 O28 1.899 . S
Zn29 O30 2.032 . S
Zn29 O33 2.086 . S
Zn29 O38 1.977 . S
O30 Zn29 2.032 . S
O30 C34 1.278 . S
C31 O32 1.203 . S
C31 O38 1.267 . S
O32 C31 1.203 . S
O33 C26 1.185 . S
O33 Zn29 2.086 . S
C34 O30 1.278 . S
C34 O35 1.211 . S
O35 C34 1.211 . S
C36 O28 1.284 . S
C36 O37 1.273 . S
O37 C36 1.273 . S
O38 Zn29 1.977 . S
O38 C31 1.267 . S
C39 O40 1.160 . S
C39 O46 1.185 . S
O40 C39 1.160 . S
O41 Zn42 1.899 . S
O41 C49 1.284 . S
Zn42 O41 1.899 . S
Zn42 O43 2.032 . S
Zn42 O46 2.086 . S
Zn42 O51 1.977 . S
O43 Zn42 2.032 . S
O43 C47 1.278 . S
C44 O45 1.203 . S
C44 O51 1.267 . S
O45 C44 1.203 . S
O46 C39 1.185 . S
O46 Zn42 2.086 . S
C47 O43 1.278 . S
C47 O48 1.211 . S
O48 C47 1.211 . S
C49 O41 1.284 . S
C49 O50 1.273 . S
O50 C49 1.273 . S
O51 Zn42 1.977 . S
O51 C44 1.267 . S
C52 O53 1.160 . S
C52 O59 1.185 . S
O53 C52 1.160 . S
O54 Zn55 1.899 . S
O54 C62 1.284 . S
Zn55 O54 1.899 . S
Zn55 O56 2.032 . S
Zn55 O59 2.086 . S
Zn55 O64 1.977 . S
O56 Zn55 2.032 . S
O56 C60 1.278 . S
C57 O58 1.203 . S
C57 O64 1.267 . S
O58 C57 1.203 . S
O59 C52 1.185 . S
O59 Zn55 2.086 . S
C60 O56 1.278 . S
C60 O61 1.211 . S
O61 C60 1.211 . S
C62 O54 1.284 . S
C62 O63 1.273 . S
O63 C62 1.273 . S
O64 Zn55 1.977 . S
O64 C57 1.267 . S
C65 O66 1.160 . S
C65 O72 1.185 . S
O66 C65 1.160 . S
O67 Zn68 1.899 . S
O67 C75 1.284 . S
Zn68 O67 1.899 . S
Zn68 O69 2.032 . S
Zn68 O72 2.086 . S
Zn68 O77 1.977 . S
O69 Zn68 2.032 . S
O69 C73 1.278 . S
C70 O71 1.203 . S
C70 O77 1.267 . S
O71 C70 1.203 . S
O72 C65 1.185 . S
O72 Zn68 2.086 . S
C73 O69 1.278 . S
C73 O74 1.211 . S
O74 C73 1.211 . S
C75 O67 1.284 . S
C75 O76 1.273 . S
O76 C75 1.273 . S
O77 Zn68 1.977 . S
O77 C70 1.267 . S
C78 O79 1.160 . S
C78 O85 1.185 . S
O79 C78 1.160 . S
O80 Zn81 1.899 . S
O80 C88 1.284 . S
Zn81 O80 1.899 . S
Zn81 O82 2.032 . S
Zn81 O85 2.086 . S
Zn81 O90 1.977 . S
O82 Zn81 2.032 . S
O82 C86 1.278 . S
C83 O84 1.203 . S
C83 O90 1.267 . S
O84 C83 1.203 . S
O85 C78 1.185 . S
O85 Zn81 2.086 . S
C86 O82 1.278 . S
C86 O87 1.211 . S
O87 C86 1.211 . S
C88 O80 1.284 . S
C88 O89 1.273 . S
O89 C88 1.273 . S
O90 Zn81 1.977 . S
O90 C83 1.267 . S
C91 O92 1.160 . S
C91 O98 1.185 . S
O92 C91 1.160 . S
O93 Zn94 1.899 . S
O93 C101 1.284 . S
Zn94 O93 1.899 . S
Zn94 O95 2.032 . S
Zn94 O98 2.086 . S
Zn94 O103 1.977 1_455 S
O95 Zn94 2.032 . S
O95 C99 1.278 . S
C96 O97 1.203 . S
C96 O103 1.267 . S
O97 C96 1.203 . S
O98 C91 1.185 . S
O98 Zn94 2.086 . S
C99 O95 1.278 . S
C99 O100 1.211 1_455 S
O100 C99 1.211 1_655 S
C101 O93 1.284 . S
C101 O102 1.273 . S
O102 C101 1.273 . S
O103 Zn94 1.977 1_655 S
O103 C96 1.267 . S
C104 O105 1.160 . S
C104 O111 1.185 . S
O105 C104 1.160 . S
O106 Zn107 1.899 . S
O106 C114 1.295 . S
Zn107 O106 1.899 . S
Zn107 O108 2.032 . S
Zn107 O111 2.086 . S
Zn107 O116 1.977 1_545 S
O108 Zn107 2.032 . S
O108 C112 1.278 . S
C109 O110 1.203 . S
C109 O116 1.267 . S
O110 C109 1.203 . S
O111 C104 1.185 . S
O111 Zn107 2.086 . S
C112 O108 1.278 . S
C112 O113 1.211 1_545 S
O113 C112 1.211 1_565 S
C114 O106 1.295 . S
C114 O115 1.258 1_545 S
O115 C114 1.258 1_565 S
O116 Zn107 1.977 1_565 S
O116 C109 1.267 . S
C117 O118 1.160 . S
C117 O124 1.185 . S
O118 C117 1.160 . S
O119 Zn120 1.899 . S
O119 C127 1.284 . S
Zn120 O119 1.899 . S
Zn120 O121 2.032 . S
Zn120 O124 2.086 . S
Zn120 O129 1.977 . S
O121 Zn120 2.032 . S
O121 C125 1.278 . S
C122 O123 1.203 . S
C122 O129 1.267 . S
O123 C122 1.203 . S
O124 C117 1.185 . S
O124 Zn120 2.086 . S
C125 O121 1.278 . S
C125 O126 1.211 . S
O126 C125 1.211 . S
C127 O119 1.284 . S
C127 O128 1.273 . S
O128 C127 1.273 . S
O129 Zn120 1.977 . S
O129 C122 1.267 . S
C130 O131 1.160 . S
C130 O137 1.185 . S
O131 C130 1.160 . S
O132 Zn133 1.899 . S
O132 C140 1.284 . S
Zn133 O132 1.899 . S
Zn133 O134 2.032 1_545 S
Zn133 O137 2.086 1_545 S
Zn133 O142 1.977 . S
O134 Zn133 2.032 1_565 S
O134 C138 1.278 1_565 S
C135 O136 1.203 . S
C135 O142 1.267 . S
O136 C135 1.203 . S
O137 C130 1.185 . S
O137 Zn133 2.086 1_565 S
C138 O134 1.278 1_545 S
C138 O139 1.211 . S
O139 C138 1.211 . S
C140 O132 1.284 . S
C140 O141 1.273 . S
O141 C140 1.273 . S
O142 Zn133 1.977 . S
O142 C135 1.267 . S
C143 O144 1.160 . S
C143 O150 1.185 . S
O144 C143 1.160 . S
O145 Zn146 1.899 . S
O145 C153 1.284 . S
Zn146 O145 1.899 . S
Zn146 O147 2.032 1_554 S
Zn146 O150 2.086 . S
Zn146 O155 1.977 . S
O147 Zn146 2.032 1_556 S
O147 C151 1.278 . S
C148 O149 1.203 . S
C148 O155 1.267 . S
O149 C148 1.203 . S
O150 C143 1.185 . S
O150 Zn146 2.086 . S
C151 O147 1.278 . S
C151 O152 1.211 . S
O152 C151 1.211 . S
C153 O145 1.284 . S
C153 O154 1.273 . S
O154 C153 1.273 . S
O155 Zn146 1.977 . S
O155 C148 1.267 . S
C156 O157 1.160 . S
C156 O163 1.185 . S
O157 C156 1.160 . S
O158 Zn159 1.899 . S
O158 C166 1.284 . S
Zn159 O158 1.899 . S
Zn159 O160 2.032 1_554 S
Zn159 O163 2.086 . S
Zn159 O168 1.977 . S
O160 Zn159 2.032 1_556 S
O160 C164 1.278 . S
C161 O162 1.203 . S
C161 O168 1.267 . S
O162 C161 1.203 . S
O163 C156 1.185 . S
O163 Zn159 2.086 . S
C164 O160 1.278 . S
C164 O165 1.211 . S
O165 C164 1.211 . S
C166 O158 1.284 . S
C166 O167 1.273 . S
O167 C166 1.273 . S
O168 Zn159 1.977 . S
O168 C161 1.267 . S
C169 O170 1.160 . S
C169 O176 1.185 . S
O170 C169 1.160 . S
O171 Zn172 1.899 . S
O171 C179 1.284 . S
Zn172 O171 1.899 . S
Zn172 O173 2.032 1_554 S
Zn172 O176 2.086 . S
Zn172 O181 1.977 . S
O173 Zn172 2.032 1_556 S
O173 C177 1.278 . S
C174 O175 1.203 . S
C174 O181 1.267 . S
O175 C174 1.203 . S
O176 C169 1.185 . S
O176 Zn172 2.086 . S
C177 O173 1.278 . S
C177 O178 1.211 . S
O178 C177 1.211 . S
C179 O171 1.284 . S
C179 O180 1.273 . S
O180 C179 1.273 . S
O181 Zn172 1.977 . S
O181 C174 1.267 . S
C182 O183 1.160 . S
C182 O189 1.185 . S
O183 C182 1.160 . S
O184 Zn185 1.899 . S
O184 C192 1.284 . S
Zn185 O184 1.899 . S
Zn185 O186 2.032 . S
Zn185 O189 2.086 . S
Zn185 O194 1.977 . S
O186 Zn185 2.032 . S
O186 C190 1.278 . S
C187 O188 1.203 . S
C187 O194 1.267 . S
O188 C187 1.203 . S
O189 C182 1.185 . S
O189 Zn185 2.086 . S
C190 O186 1.278 . S
C190 O191 1.211 . S
O191 C190 1.211 . S
C192 O184 1.284 . S
C192 O193 1.273 . S
O193 C192 1.273 . S
O194 Zn185 1.977 . S
O194 C187 1.267 . S
C195 O196 1.160 . S
C195 O202 1.185 . S
O196 C195 1.160 . S
O197 Zn198 1.899 . S
O197 C205 1.284 . S
Zn198 O197 1.899 . S
Zn198 O199 2.032 . S
Zn198 O202 2.086 . S
Zn198 O207 1.977 . S
O199 Zn198 2.032 . S
O199 C203 1.278 . S
C200 O201 1.203 . S
C200 O207 1.267 . S
O201 C200 1.203 . S
O202 C195 1.185 . S
O202 Zn198 2.086 . S
C203 O199 1.278 . S
C203 O204 1.211 . S
O204 C203 1.211 . S
C205 O197 1.284 . S
C205 O206 1.273 . S
O206 C205 1.273 . S
O207 Zn198 1.977 . S
O207 C200 1.267 . S
C208 O209 1.160 . S
C208 O215 1.185 . S
O209 C208 1.160 . S
O210 Zn211 1.899 . S
O210 C218 1.284 . S
Zn211 O210 1.899 . S
Zn211 O212 2.032 . S
Zn211 O215 2.086 . S
Zn211 O220 1.977 . S
O212 Zn211 2.032 . S
O212 C216 1.278 . S
C213 O214 1.203 . S
C213 O220 1.267 . S
O214 C213 1.203 . S
O215 C208 1.185 . S
O215 Zn211 2.086 . S
C216 O212 1.278 . S
C216 O217 1.211 . S
O217 C216 1.211 . S
C218 O210 1.284 . S
C218 O219 1.273 . S
O219 C218 1.273 . S
O220 Zn211 1.977 . S
O220 C213 1.267 . S
C221 O222 1.160 . S
C221 O228 1.185 . S
O222 C221 1.160 . S
O223 Zn224 1.899 . S
O223 C231 1.284 . S
Zn224 O223 1.899 . S
Zn224 O225 2.032 . S
Zn224 O228 2.086 . S
Zn224 O233 1.977 . S
O225 Zn224 2.032 . S
O225 C229 1.278 . S
C226 O227 1.203 . S
C226 O233 1.267 . S
O227 C226 1.203 . S
O228 C221 1.185 . S
O228 Zn224 2.086 . S
C229 O225 1.278 . S
C229 O230 1.211 . S
O230 C229 1.211 . S
C231 O223 1.284 . S
C231 O232 1.273 . S
O232 C231 1.273 . S
O233 Zn224 1.977 . S
O233 C226 1.267 . S
C234 O235 1.160 . S
C234 O241 1.185 . S
O235 C234 1.160 . S
O236 Zn237 1.899 . S
O236 C244 1.284 . S
Zn237 O236 1.899 . S
Zn237 O238 2.032 . S
Zn237 O241 2.086 . S
Zn237 O246 1.977 . S
O238 Zn237 2.032 . S
O238 C242 1.278 . S
C239 O240 1.203 . S
C239 O246 1.267 . S
O240 C239 1.203 . S
O241 C234 1.185 . S
O241 Zn237 2.086 . S
C242 O238 1.278 . S
C242 O243 1.211 . S
O243 C242 1.211 . S
C244 O236 1.284 . S
C244 O245 1.273 . S
O245 C244 1.273 . S
O246 Zn237 1.977 . S
O246 C239 1.267 . S
C247 O248 1.160 . S
C247 O254 1.185 . S
O248 C247 1.160 . S
O249 Zn250 1.899 . S
O249 C257 1.284 . S
Zn250 O249 1.899 . S
Zn250 O251 2.032 . S
Zn250 O254 2.086 . S
Zn250 O259 1.977 . S
O251 Zn250 2.032 . S
O251 C255 1.278 . S
C252 O253 1.203 . S
C252 O259 1.267 . S
O253 C252 1.203 . S
O254 C247 1.185 . S
O254 Zn250 2.086 . S
C255 O251 1.278 . S
C255 O256 1.211 . S
O256 C255 1.211 . S
C257 O249 1.284 . S
C257 O258 1.273 . S
O258 C257 1.273 . S
O259 Zn250 1.977 . S
O259 C252 1.267 . S
C260 O261 1.160 . S
C260 O267 1.185 . S
O261 C260 1.160 . S
O262 Zn263 1.899 . S
O262 C270 1.284 . S
Zn263 O262 1.899 . S
Zn263 O264 2.032 1_554 S
Zn263 O267 2.086 . S
Zn263 O272 1.979 . S
O264 Zn263 2.032 1_556 S
O264 C268 1.278 . S
C265 O266 1.203 . S
C265 O272 1.270 . S
O266 C265 1.203 . S
O267 C260 1.185 . S
O267 Zn263 2.086 . S
C268 O264 1.278 . S
C268 O269 1.211 . S
O269 C268 1.211 . S
C270 O262 1.284 . S
C270 O271 1.273 . S
O271 C270 1.273 . S
O272 Zn263 1.979 . S
O272 C265 1.270 . S
C273 O274 1.160 . S
C273 O280 1.185 . S
O274 C273 1.160 . S
O275 Zn276 1.899 . S
O275 C283 1.284 . S
Zn276 O275 1.899 . S
Zn276 O277 2.032 . S
Zn276 O280 2.086 . S
Zn276 O285 1.977 . S
O277 Zn276 2.032 . S
O277 C281 1.278 . S
C278 O279 1.203 . S
C278 O285 1.267 . S
O279 C278 1.203 . S
O280 C273 1.185 . S
O280 Zn276 2.086 . S
C281 O277 1.278 . S
C281 O282 1.211 . S
O282 C281 1.211 . S
C283 O275 1.284 . S
C283 O284 1.273 . S
O284 C283 1.273 . S
O285 Zn276 1.977 . S
O285 C278 1.267 . S
C286 O287 1.160 . S
C286 O293 1.185 . S
O287 C286 1.160 . S
O288 Zn289 1.899 . S
O288 C296 1.284 . S
Zn289 O288 1.899 . S
Zn289 O290 2.032 . S
Zn289 O293 2.086 . S
Zn289 O298 1.977 . S
O290 Zn289 2.032 . S
O290 C294 1.278 . S
C291 O292 1.203 . S
C291 O298 1.267 . S
O292 C291 1.203 . S
O293 C286 1.185 . S
O293 Zn289 2.086 . S
C294 O290 1.278 . S
C294 O295 1.211 . S
O295 C294 1.211 . S
C296 O288 1.284 . S
C296 O297 1.273 . S
O297 C296 1.273 . S
O298 Zn289 1.977 . S
O298 C291 1.267 . S
C299 O300 1.160 . S
C299 O306 1.185 . S
O300 C299 1.160 . S
O301 Zn302 1.899 . S
O301 C309 1.284 . S
Zn302 O301 1.899 . S
Zn302 O303 2.032 . S
Zn302 O306 2.086 . S
Zn302 O311 1.977 . S
O303 Zn302 2.032 . S
O303 C307 1.278 . S
C304 O305 1.203 . S
C304 O311 1.267 . S
O305 C304 1.203 . S
O306 C299 1.185 . S
O306 Zn302 2.086 . S
C307 O303 1.278 . S
C307 O308 1.211 . S
O308 C307 1.211 . S
C309 O301 1.284 . S
C309 O310 1.273 . S
O310 C309 1.273 . S
O311 Zn302 1.977 . S
O311 C304 1.267 . S
Eu312 C321 2.828 . S
Eu312 O323 2.392 . S
Eu312 O325 2.418 . S
Eu312 O330 2.373 . S
Eu312 O333 2.488 . S
Eu312 O334 2.471 1_554 S
Eu312 O335 2.349 1_554 S
Eu313 O322 2.373 1_565 S
Eu313 O326 2.488 1_554 S
Eu313 O327 2.471 . S
Eu313 O328 2.349 1_565 S
Eu313 O331 2.392 1_564 S
Eu313 O332 2.418 1_554 S
Eu313 C342 2.828 . S
C314 O332 1.244 1_545 S
C314 O335 1.265 . S
C315 C316 1.396 . S
C315 C319 1.363 1_556 S
C315 C321 1.498 1_556 S
C316 C315 1.396 . S
C316 C318 1.369 . S
C316 H344 0.930 . S
C317 C319 1.383 . S
C317 C320 1.382 1_554 S
C317 H345 0.930 . S
C318 C316 1.369 . S
C318 C320 1.392 . S
C318 H346 0.930 . S
C319 C315 1.363 1_554 S
C319 C317 1.383 . S
C319 H347 0.931 . S
C320 C317 1.382 1_556 S
C320 C318 1.392 . S
C321 Eu312 2.828 . S
C321 C315 1.498 1_554 S
C321 O333 1.249 . S
C321 O334 1.244 1_554 S
O322 Eu313 2.373 1_545 S
O322 C324 1.258 . S
O323 Eu312 2.392 . S
O323 C324 1.242 . S
C324 O322 1.258 . S
C324 O323 1.242 . S
O325 Eu312 2.418 . S
O325 C329 1.244 . S
O326 Eu313 2.488 1_556 S
O326 C342 1.249 1_556 S
O327 Eu313 2.471 . S
O327 C342 1.244 . S
O328 Eu313 2.349 1_545 S
O328 C329 1.265 . S
C329 O325 1.244 . S
C329 O328 1.265 . S
O330 Eu312 2.373 . S
O330 C343 1.254 1_554 S
O331 Eu313 2.392 1_546 S
O331 C343 1.242 . S
O332 Eu313 2.418 1_556 S
O332 C314 1.244 1_565 S
O333 Eu312 2.488 . S
O333 C321 1.249 . S
O334 Eu312 2.471 1_556 S
O334 C321 1.244 1_556 S
O335 Eu312 2.349 1_556 S
O335 C314 1.265 . S
C336 C337 1.379 . S
C336 C340 1.373 . S
C336 C342 1.505 . S
C337 C336 1.379 . S
C337 C339 1.369 . S
C337 H348 0.930 . S
C338 C340 1.383 . S
C338 C341 1.382 . S
C338 H349 0.930 . S
C339 C337 1.369 . S
C339 C341 1.392 . S
C339 H350 0.930 . S
C340 C336 1.373 . S
C340 C338 1.383 . S
C340 H351 0.931 1_554 S
C341 C338 1.382 . S
C341 C339 1.392 . S
C342 Eu313 2.828 . S
C342 O326 1.249 1_554 S
C342 O327 1.244 . S
C342 C336 1.505 . S
C343 O330 1.254 1_556 S
C343 O331 1.242 . S
H344 C316 0.930 . S
H345 C317 0.930 . S
H346 C318 0.930 . S
H347 C319 0.931 . S
H348 C337 0.930 . S
H349 C338 0.930 . S
H350 C339 0.930 . S
H351 C340 0.931 1_556 S
Eu352 C361 2.828 . S
Eu352 O363 2.392 . S
Eu352 O365 2.418 . S
Eu352 O370 2.373 . S
Eu352 O373 2.488 . S
Eu352 O374 2.471 . S
Eu352 O375 2.349 . S
Eu353 O362 2.373 . S
Eu353 O366 2.488 . S
Eu353 O367 2.471 . S
Eu353 O368 2.349 . S
Eu353 O371 2.392 . S
Eu353 O372 2.418 . S
Eu353 C382 2.828 . S
C354 O372 1.244 . S
C354 O375 1.265 . S
C355 C356 1.379 . S
C355 C359 1.373 . S
C355 C361 1.505 . S
C356 C355 1.379 . S
C356 C358 1.369 . S
C356 H384 0.930 . S
C357 C359 1.383 . S
C357 C360 1.382 . S
C357 H385 0.930 . S
C358 C356 1.369 . S
C358 C360 1.392 . S
C358 H386 0.930 . S
C359 C355 1.373 . S
C359 C357 1.383 . S
C359 H387 0.931 . S
C360 C357 1.382 . S
C360 C358 1.392 . S
C361 Eu352 2.828 . S
C361 C355 1.505 . S
C361 O373 1.249 . S
C361 O374 1.244 . S
O362 Eu353 2.373 . S
O362 C364 1.258 . S
O363 Eu352 2.392 . S
O363 C364 1.242 . S
C364 O362 1.258 . S
C364 O363 1.242 . S
O365 Eu352 2.418 . S
O365 C369 1.244 . S
O366 Eu353 2.488 . S
O366 C382 1.249 . S
O367 Eu353 2.471 . S
O367 C382 1.244 . S
O368 Eu353 2.349 . S
O368 C369 1.265 . S
C369 O365 1.244 . S
C369 O368 1.265 . S
O370 Eu352 2.373 . S
O370 C383 1.258 . S
O371 Eu353 2.392 . S
O371 C383 1.242 . S
O372 Eu353 2.418 . S
O372 C354 1.244 . S
O373 Eu352 2.488 . S
O373 C361 1.249 . S
O374 Eu352 2.471 . S
O374 C361 1.244 . S
O375 Eu352 2.349 . S
O375 C354 1.265 . S
C376 C377 1.379 . S
C376 C380 1.373 . S
C376 C382 1.505 . S
C377 C376 1.379 . S
C377 C379 1.369 . S
C377 H388 0.930 . S
C378 C380 1.383 . S
C378 C381 1.382 . S
C378 H389 0.930 . S
C379 C377 1.369 . S
C379 C381 1.392 . S
C379 H390 0.930 . S
C380 C376 1.373 . S
C380 C378 1.383 . S
C380 H391 0.931 . S
C381 C378 1.382 . S
C381 C379 1.392 . S
C382 Eu353 2.828 . S
C382 O366 1.249 . S
C382 O367 1.244 . S
C382 C376 1.505 . S
C383 O370 1.258 . S
C383 O371 1.242 . S
H384 C356 0.930 . S
H385 C357 0.930 . S
H386 C358 0.930 . S
H387 C359 0.931 . S
H388 C377 0.930 . S
H389 C378 0.930 . S
H390 C379 0.930 . S
H391 C380 0.931 . S
Eu392 C401 2.828 . S
Eu392 O403 2.392 . S
Eu392 O405 2.418 . S
Eu392 O410 2.373 . S
Eu392 O413 2.488 . S
Eu392 O414 2.471 . S
Eu392 O415 2.349 . S
Eu393 O402 2.373 . S
Eu393 O406 2.488 . S
Eu393 O407 2.471 . S
Eu393 O408 2.349 . S
Eu393 O411 2.392 1_545 S
Eu393 O412 2.418 . S
Eu393 C422 2.828 . S
C394 O412 1.244 . S
C394 O415 1.265 . S
C395 C396 1.407 . S
C395 C399 1.374 . S
C395 C401 1.477 1_565 S
C396 C395 1.407 . S
C396 C398 1.369 . S
C396 H424 0.930 . S
C397 C399 1.383 . S
C397 C400 1.382 . S
C397 H425 0.930 . S
C398 C396 1.369 . S
C398 C400 1.392 . S
C398 H426 0.930 . S
C399 C395 1.374 . S
C399 C397 1.383 . S
C399 H427 0.931 1_565 S
C400 C397 1.382 . S
C400 C398 1.392 . S
C401 Eu392 2.828 . S
C401 C395 1.477 1_545 S
C401 O413 1.249 . S
C401 O414 1.244 . S
O402 Eu393 2.373 . S
O402 C404 1.258 . S
O403 Eu392 2.392 . S
O403 C404 1.242 . S
C404 O402 1.258 . S
C404 O403 1.242 . S
O405 Eu392 2.418 . S
O405 C409 1.244 . S
O406 Eu393 2.488 . S
O406 C422 1.249 . S
O407 Eu393 2.471 . S
O407 C422 1.244 . S
O408 Eu393 2.349 . S
O408 C409 1.265 . S
C409 O405 1.244 . S
C409 O408 1.265 . S
O410 Eu392 2.373 . S
O410 C423 1.258 1_545 S
O411 Eu393 2.392 1_565 S
O411 C423 1.242 . S
O412 Eu393 2.418 . S
O412 C394 1.244 . S
O413 Eu392 2.488 . S
O413 C401 1.249 . S
O414 Eu392 2.471 . S
O414 C401 1.244 . S
O415 Eu392 2.349 . S
O415 C394 1.265 . S
C416 C417 1.379 . S
C416 C420 1.373 . S
C416 C422 1.505 . S
C417 C416 1.379 . S
C417 C419 1.369 . S
C417 H428 0.930 . S
C418 C420 1.383 . S
C418 C421 1.382 . S
C418 H429 0.930 . S
C419 C417 1.369 . S
C419 C421 1.392 . S
C419 H430 0.930 . S
C420 C416 1.373 . S
C420 C418 1.383 . S
C420 H431 0.931 . S
C421 C418 1.382 . S
C421 C419 1.392 . S
C422 Eu393 2.828 . S
C422 O406 1.249 . S
C422 O407 1.244 . S
C422 C416 1.505 . S
C423 O410 1.258 1_565 S
C423 O411 1.242 . S
H424 C396 0.930 . S
H425 C397 0.930 . S
H426 C398 0.930 . S
H427 C399 0.931 1_545 S
H428 C417 0.930 . S
H429 C418 0.930 . S
H430 C419 0.930 . S
H431 C420 0.931 . S
Eu432 C441 2.828 . S
Eu432 O443 2.392 . S
Eu432 O445 2.418 . S
Eu432 O450 2.373 . S
Eu432 O453 2.488 . S
Eu432 O454 2.471 . S
Eu432 O455 2.349 . S
Eu433 O442 2.373 . S
Eu433 O446 2.488 . S
Eu433 O447 2.471 . S
Eu433 O448 2.349 . S
Eu433 O451 2.392 . S
Eu433 O452 2.418 . S
Eu433 C462 2.828 . S
C434 O452 1.244 . S
C434 O455 1.265 . S
C435 C436 1.379 . S
C435 C439 1.373 . S
C435 C441 1.505 . S
C436 C435 1.379 . S
C436 C438 1.369 . S
C436 H464 0.930 . S
C437 C439 1.383 . S
C437 C440 1.382 . S
C437 H465 0.930 . S
C438 C436 1.369 . S
C438 C440 1.392 . S
C438 H466 0.930 . S
C439 C435 1.373 . S
C439 C437 1.383 . S
C439 H467 0.931 . S
C440 C437 1.382 . S
C440 C438 1.392 . S
C441 Eu432 2.828 . S
C441 C435 1.505 . S
C441 O453 1.249 . S
C441 O454 1.244 . S
O442 Eu433 2.373 . S
O442 C444 1.258 . S
O443 Eu432 2.392 . S
O443 C444 1.242 . S
C444 O442 1.258 . S
C444 O443 1.242 . S
O445 Eu432 2.418 . S
O445 C449 1.244 . S
O446 Eu433 2.488 . S
O446 C462 1.249 . S
O447 Eu433 2.471 . S
O447 C462 1.244 . S
O448 Eu433 2.349 . S
O448 C449 1.265 . S
C449 O445 1.244 . S
C449 O448 1.265 . S
O450 Eu432 2.373 . S
O450 C463 1.258 . S
O451 Eu433 2.392 . S
O451 C463 1.242 . S
O452 Eu433 2.418 . S
O452 C434 1.244 . S
O453 Eu432 2.488 . S
O453 C441 1.249 . S
O454 Eu432 2.471 . S
O454 C441 1.244 . S
O455 Eu432 2.349 . S
O455 C434 1.265 . S
C456 C457 1.379 . S
C456 C460 1.373 . S
C456 C462 1.505 . S
C457 C456 1.379 . S
C457 C459 1.369 . S
C457 H468 0.930 . S
C458 C460 1.383 . S
C458 C461 1.382 . S
C458 H469 0.930 . S
C459 C457 1.369 . S
C459 C461 1.392 . S
C459 H470 0.930 . S
C460 C456 1.373 . S
C460 C458 1.383 . S
C460 H471 0.931 . S
C461 C458 1.382 . S
C461 C459 1.392 . S
C462 Eu433 2.828 . S
C462 O446 1.249 . S
C462 O447 1.244 . S
C462 C456 1.505 . S
C463 O450 1.258 . S
C463 O451 1.242 . S
H464 C436 0.930 . S
H465 C437 0.930 . S
H466 C438 0.930 . S
H467 C439 0.931 . S
H468 C457 0.930 . S
H469 C458 0.930 . S
H470 C459 0.930 . S
H471 C460 0.931 . S
Eu472 C481 2.828 . S
Eu472 O483 2.392 . S
Eu472 O485 2.376 1_455 S
Eu472 O490 2.373 . S
Eu472 O493 2.488 . S
Eu472 O494 2.471 . S
Eu472 O495 2.349 . S
Eu473 O482 2.373 . S
Eu473 O486 2.488 1_545 S
Eu473 O487 2.471 1_545 S
Eu473 O488 2.349 . S
Eu473 O491 2.392 . S
Eu473 O492 2.418 . S
Eu473 C502 2.828 1_545 S
C474 O492 1.244 . S
C474 O495 1.265 . S
C475 C476 1.379 . S
C475 C479 1.373 . S
C475 C481 1.505 . S
C476 C475 1.379 . S
C476 C478 1.369 . S
C476 H504 0.930 . S
C477 C479 1.383 . S
C477 C480 1.382 . S
C477 H505 0.930 1_455 S
C478 C476 1.369 . S
C478 C480 1.392 . S
C478 H506 0.930 . S
C479 C475 1.373 . S
C479 C477 1.383 . S
C479 H507 0.959 . S
C480 C477 1.382 . S
C480 C478 1.392 . S
C481 Eu472 2.828 . S
C481 C475 1.505 . S
C481 O493 1.249 . S
C481 O494 1.244 . S
O482 Eu473 2.373 . S
O482 C484 1.258 . S
O483 Eu472 2.392 . S
O483 C484 1.242 . S
C484 O482 1.258 . S
C484 O483 1.242 . S
O485 Eu472 2.376 1_655 S
O485 C489 1.228 1_655 S
O486 Eu473 2.488 1_565 S
O486 C502 1.249 . S
O487 Eu473 2.471 1_565 S
O487 C502 1.244 . S
O488 Eu473 2.349 . S
O488 C489 1.265 . S
C489 O485 1.228 1_455 S
C489 O488 1.265 . S
O490 Eu472 2.373 . S
O490 C503 1.258 . S
O491 Eu473 2.392 . S
O491 C503 1.242 . S
O492 Eu473 2.418 . S
O492 C474 1.244 . S
O493 Eu472 2.488 . S
O493 C481 1.249 . S
O494 Eu472 2.471 . S
O494 C481 1.244 . S
O495 Eu472 2.349 . S
O495 C474 1.265 . S
C496 C497 1.379 . S
C496 C500 1.373 . S
C496 C502 1.505 . S
C497 C496 1.379 . S
C497 C499 1.369 . S
C497 H508 0.930 . S
C498 C500 1.383 . S
C498 C501 1.382 . S
C498 H509 0.930 . S
C499 C497 1.369 . S
C499 C501 1.392 . S
C499 H510 0.930 . S
C500 C496 1.373 . S
C500 C498 1.383 . S
C500 H511 0.931 . S
C501 C498 1.382 . S
C501 C499 1.392 . S
C502 Eu473 2.828 1_565 S
C502 O486 1.249 . S
C502 O487 1.244 . S
C502 C496 1.505 . S
C503 O490 1.258 . S
C503 O491 1.242 . S
H504 C476 0.930 . S
H505 C477 0.930 1_655 S
H506 C478 0.930 . S
H507 C479 0.959 . S
H508 C497 0.930 . S
H509 C498 0.930 . S
H510 C499 0.930 . S
H511 C500 0.931 . S
Eu512 C521 2.828 . S
Eu512 O523 2.392 . S
Eu512 O525 2.418 . S
Eu512 O530 2.373 . S
Eu512 O533 2.488 . S
Eu512 O534 2.471 . S
Eu512 O535 2.349 . S
Eu513 O522 2.373 . S
Eu513 O526 2.488 . S
Eu513 O527 2.471 . S
Eu513 O528 2.349 . S
Eu513 O531 2.392 . S
Eu513 O532 2.418 . S
Eu513 C542 2.828 . S
C514 O532 1.244 . S
C514 O535 1.265 . S
C515 C516 1.379 . S
C515 C519 1.373 . S
C515 C521 1.505 . S
C516 C515 1.379 . S
C516 C518 1.369 . S
C516 H544 0.930 . S
C517 C519 1.383 . S
C517 C520 1.382 . S
C517 H545 0.930 . S
C518 C516 1.369 . S
C518 C520 1.392 . S
C518 H546 0.930 . S
C519 C515 1.373 . S
C519 C517 1.383 . S
C519 H547 0.931 . S
C520 C517 1.382 . S
C520 C518 1.392 . S
C521 Eu512 2.828 . S
C521 C515 1.505 . S
C521 O533 1.249 . S
C521 O534 1.244 . S
O522 Eu513 2.373 . S
O522 C524 1.258 . S
O523 Eu512 2.392 . S
O523 C524 1.242 . S
C524 O522 1.258 . S
C524 O523 1.242 . S
O525 Eu512 2.418 . S
O525 C529 1.244 . S
O526 Eu513 2.488 . S
O526 C542 1.249 . S
O527 Eu513 2.471 . S
O527 C542 1.244 . S
O528 Eu513 2.349 . S
O528 C529 1.265 . S
C529 O525 1.244 . S
C529 O528 1.265 . S
O530 Eu512 2.373 . S
O530 C543 1.258 . S
O531 Eu513 2.392 . S
O531 C543 1.242 . S
O532 Eu513 2.418 . S
O532 C514 1.244 . S
O533 Eu512 2.488 . S
O533 C521 1.249 . S
O534 Eu512 2.471 . S
O534 C521 1.244 . S
O535 Eu512 2.349 . S
O535 C514 1.265 . S
C536 C537 1.379 . S
C536 C540 1.373 . S
C536 C542 1.505 . S
C537 C536 1.379 . S
C537 C539 1.369 . S
C537 H548 0.930 . S
C538 C540 1.383 . S
C538 C541 1.382 . S
C538 H549 0.930 . S
C539 C537 1.369 . S
C539 C541 1.392 . S
C539 H550 0.930 . S
C540 C536 1.373 . S
C540 C538 1.383 . S
C540 H551 0.931 . S
C541 C538 1.382 . S
C541 C539 1.392 . S
C542 Eu513 2.828 . S
C542 O526 1.249 . S
C542 O527 1.244 . S
C542 C536 1.505 . S
C543 O530 1.258 . S
C543 O531 1.242 . S
H544 C516 0.930 . S
H545 C517 0.930 . S
H546 C518 0.930 . S
H547 C519 0.931 . S
H548 C537 0.930 . S
H549 C538 0.930 . S
H550 C539 0.930 . S
H551 C540 0.931 . S
Eu552 C561 2.828 . S
Eu552 O563 2.392 . S
Eu552 O565 2.418 1_545 S
Eu552 O570 2.373 . S
Eu552 O573 2.488 1_545 S
Eu552 O574 2.471 . S
Eu552 O575 2.349 . S
Eu553 O562 2.371 1_556 S
Eu553 O566 2.488 . S
Eu553 O567 2.471 . S
Eu553 O568 2.349 . S
Eu553 O571 2.392 . S
Eu553 O572 2.418 1_556 S
Eu553 C582 2.828 . S
C554 O572 1.244 . S
C554 O575 1.265 . S
C555 C556 1.379 . S
C555 C559 1.373 1_545 S
C555 C561 1.505 . S
C556 C555 1.379 . S
C556 C558 1.369 . S
C556 H584 0.930 . S
C557 C559 1.383 . S
C557 C560 1.382 . S
C557 H585 0.930 . S
C558 C556 1.369 . S
C558 C560 1.392 1_545 S
C558 H586 0.930 . S
C559 C555 1.373 1_565 S
C559 C557 1.383 . S
C559 H587 0.931 . S
C560 C557 1.382 . S
C560 C558 1.392 1_565 S
C561 Eu552 2.828 . S
C561 C555 1.505 . S
C561 O573 1.249 1_545 S
C561 O574 1.244 . S
O562 Eu553 2.371 1_554 S
O562 C564 1.262 . S
O563 Eu552 2.392 . S
O563 C564 1.242 . S
C564 O562 1.262 . S
C564 O563 1.242 . S
O565 Eu552 2.418 1_565 S
O565 C569 1.244 . S
O566 Eu553 2.488 . S
O566 C582 1.249 . S
O567 Eu553 2.471 . S
O567 C582 1.244 . S
O568 Eu553 2.349 . S
O568 C569 1.265 1_546 S
C569 O565 1.244 . S
C569 O568 1.265 1_564 S
O570 Eu552 2.373 . S
O570 C583 1.258 . S
O571 Eu553 2.392 . S
O571 C583 1.242 1_556 S
O572 Eu553 2.418 1_554 S
O572 C554 1.244 . S
O573 Eu552 2.488 1_565 S
O573 C561 1.249 1_565 S
O574 Eu552 2.471 . S
O574 C561 1.244 . S
O575 Eu552 2.349 . S
O575 C554 1.265 . S
C576 C577 1.379 . S
C576 C580 1.373 . S
C576 C582 1.505 . S
C577 C576 1.379 . S
C577 C579 1.369 . S
C577 H588 0.930 . S
C578 C580 1.383 . S
C578 C581 1.382 . S
C578 H589 0.930 . S
C579 C577 1.369 . S
C579 C581 1.392 . S
C579 H590 0.930 . S
C580 C576 1.373 . S
C580 C578 1.383 . S
C580 H591 0.931 . S
C581 C578 1.382 . S
C581 C579 1.392 . S
C582 Eu553 2.828 . S
C582 O566 1.249 . S
C582 O567 1.244 . S
C582 C576 1.505 . S
C583 O570 1.258 . S
C583 O571 1.242 1_554 S
H584 C556 0.930 . S
H585 C557 0.930 . S
H586 C558 0.930 . S
H587 C559 0.931 . S
H588 C577 0.930 . S
H589 C578 0.930 . S
H590 C579 0.930 . S
H591 C580 0.931 . S
Eu592 C601 2.828 . S
Eu592 O603 2.392 . S
Eu592 O605 2.418 . S
Eu592 O610 2.373 . S
Eu592 O613 2.488 . S
Eu592 O614 2.471 . S
Eu592 O615 2.349 . S
Eu593 O602 2.373 . S
Eu593 O606 2.488 . S
Eu593 O607 2.471 . S
Eu593 O608 2.349 . S
Eu593 O611 2.392 . S
Eu593 O612 2.418 . S
Eu593 C622 2.828 . S
C594 O612 1.244 . S
C594 O615 1.265 . S
C595 C596 1.379 . S
C595 C599 1.373 . S
C595 C601 1.505 . S
C596 C595 1.379 . S
C596 C598 1.369 . S
C596 H624 0.930 . S
C597 C599 1.383 . S
C597 C600 1.382 . S
C597 H625 0.930 . S
C598 C596 1.369 . S
C598 C600 1.392 . S
C598 H626 0.930 . S
C599 C595 1.373 . S
C599 C597 1.383 . S
C599 H627 0.931 . S
C600 C597 1.382 . S
C600 C598 1.392 . S
C601 Eu592 2.828 . S
C601 C595 1.505 . S
C601 O613 1.249 . S
C601 O614 1.244 . S
O602 Eu593 2.373 . S
O602 C604 1.258 . S
O603 Eu592 2.392 . S
O603 C604 1.242 . S
C604 O602 1.258 . S
C604 O603 1.242 . S
O605 Eu592 2.418 . S
O605 C609 1.244 . S
O606 Eu593 2.488 . S
O606 C622 1.249 . S
O607 Eu593 2.471 . S
O607 C622 1.244 . S
O608 Eu593 2.349 . S
O608 C609 1.265 . S
C609 O605 1.244 . S
C609 O608 1.265 . S
O610 Eu592 2.373 . S
O610 C623 1.258 . S
O611 Eu593 2.392 . S
O611 C623 1.242 . S
O612 Eu593 2.418 . S
O612 C594 1.244 . S
O613 Eu592 2.488 . S
O613 C601 1.249 . S
O614 Eu592 2.471 . S
O614 C601 1.244 . S
O615 Eu592 2.349 . S
O615 C594 1.265 . S
C616 C617 1.379 . S
C616 C620 1.373 . S
C616 C622 1.505 . S
C617 C616 1.379 . S
C617 C619 1.369 . S
C617 H628 0.930 . S
C618 C620 1.383 . S
C618 C621 1.382 . S
C618 H629 0.930 . S
C619 C617 1.369 . S
C619 C621 1.392 . S
C619 H630 0.930 . S
C620 C616 1.373 . S
C620 C618 1.383 . S
C620 H631 0.931 . S
C621 C618 1.382 . S
C621 C619 1.392 . S
C622 Eu593 2.828 . S
C622 O606 1.249 . S
C622 O607 1.244 . S
C622 C616 1.505 . S
C623 O610 1.258 . S
C623 O611 1.242 . S
H624 C596 0.930 . S
H625 C597 0.930 . S
H626 C598 0.930 . S
H627 C599 0.931 . S
H628 C617 0.930 . S
H629 C618 0.930 . S
H630 C619 0.930 . S
H631 C620 0.931 . S
Eu632 C641 2.828 . S
Eu632 O643 2.392 . S
Eu632 O645 2.418 . S
Eu632 O650 2.373 1_554 S
Eu632 O653 2.488 . S
Eu632 O654 2.471 . S
Eu632 O655 2.349 . S
Eu633 O642 2.373 . S
Eu633 O646 2.488 . S
Eu633 O647 2.471 . S
Eu633 O648 2.349 . S
Eu633 O651 2.392 1_554 S
Eu633 O652 2.418 . S
Eu633 C662 2.828 . S
C634 O652 1.244 . S
C634 O655 1.265 . S
C635 C636 1.379 . S
C635 C639 1.373 1_556 S
C635 C641 1.505 1_556 S
C636 C635 1.379 . S
C636 C638 1.369 . S
C636 H664 0.930 . S
C637 C639 1.383 1_556 S
C637 C640 1.382 . S
C637 H665 0.930 . S
C638 C636 1.369 . S
C638 C640 1.392 . S
C638 H666 0.930 . S
C639 C635 1.373 1_554 S
C639 C637 1.383 1_554 S
C639 H667 0.931 . S
C640 C637 1.382 . S
C640 C638 1.392 . S
C641 Eu632 2.828 . S
C641 C635 1.505 1_554 S
C641 O653 1.249 . S
C641 O654 1.244 . S
O642 Eu633 2.373 . S
O642 C644 1.258 . S
O643 Eu632 2.392 . S
O643 C644 1.242 . S
C644 O642 1.258 . S
C644 O643 1.242 . S
O645 Eu632 2.418 . S
O645 C649 1.244 . S
O646 Eu633 2.488 . S
O646 C662 1.249 . S
O647 Eu633 2.471 . S
O647 C662 1.244 . S
O648 Eu633 2.349 . S
O648 C649 1.265 . S
C649 O645 1.244 . S
C649 O648 1.265 . S
O650 Eu632 2.373 1_556 S
O650 C663 1.258 . S
O651 Eu633 2.392 1_556 S
O651 C663 1.242 . S
O652 Eu633 2.418 . S
O652 C634 1.244 . S
O653 Eu632 2.488 . S
O653 C641 1.249 . S
O654 Eu632 2.471 . S
O654 C641 1.244 . S
O655 Eu632 2.349 . S
O655 C634 1.265 . S
C656 C657 1.379 . S
C656 C660 1.373 . S
C656 C662 1.505 . S
C657 C656 1.379 . S
C657 C659 1.369 . S
C657 H668 0.930 . S
C658 C660 1.383 . S
C658 C661 1.382 . S
C658 H669 0.930 . S
C659 C657 1.369 . S
C659 C661 1.392 . S
C659 H670 0.930 . S
C660 C656 1.373 . S
C660 C658 1.383 . S
C660 H671 0.931 . S
C661 C658 1.382 . S
C661 C659 1.392 . S
C662 Eu633 2.828 . S
C662 O646 1.249 . S
C662 O647 1.244 . S
C662 C656 1.505 . S
C663 O650 1.258 . S
C663 O651 1.242 . S
H664 C636 0.930 . S
H665 C637 0.930 . S
H666 C638 0.930 . S
H667 C639 0.931 . S
H668 C657 0.930 . S
H669 C658 0.930 . S
H670 C659 0.930 . S
H671 C660 0.931 . S
Eu672 C681 2.828 . S
Eu672 O683 2.392 . S
Eu672 O685 2.418 . S
Eu672 O690 2.373 . S
Eu672 O693 2.488 . S
Eu672 O694 2.471 . S
Eu672 O695 2.349 . S
Eu673 O682 2.373 . S
Eu673 O686 2.488 . S
Eu673 O687 2.471 . S
Eu673 O688 2.349 . S
Eu673 O691 2.392 . S
Eu673 O692 2.418 . S
Eu673 C702 2.828 . S
C674 O692 1.244 . S
C674 O695 1.265 . S
C675 C676 1.379 . S
C675 C679 1.373 . S
C675 C681 1.505 . S
C676 C675 1.379 . S
C676 C678 1.369 . S
C676 H704 0.930 . S
C677 C679 1.383 . S
C677 C680 1.382 . S
C677 H705 0.930 . S
C678 C676 1.369 . S
C678 C680 1.392 . S
C678 H706 0.930 . S
C679 C675 1.373 . S
C679 C677 1.383 . S
C679 H707 0.931 . S
C680 C677 1.382 . S
C680 C678 1.392 . S
C681 Eu672 2.828 . S
C681 C675 1.505 . S
C681 O693 1.249 . S
C681 O694 1.244 . S
O682 Eu673 2.373 . S
O682 C684 1.258 . S
O683 Eu672 2.392 . S
O683 C684 1.242 . S
C684 O682 1.258 . S
C684 O683 1.242 . S
O685 Eu672 2.418 . S
O685 C689 1.244 . S
O686 Eu673 2.488 . S
O686 C702 1.249 . S
O687 Eu673 2.471 . S
O687 C702 1.244 . S
O688 Eu673 2.349 . S
O688 C689 1.265 . S
C689 O685 1.244 . S
C689 O688 1.265 . S
O690 Eu672 2.373 . S
O690 C703 1.258 . S
O691 Eu673 2.392 . S
O691 C703 1.242 . S
O692 Eu673 2.418 . S
O692 C674 1.244 . S
O693 Eu672 2.488 . S
O693 C681 1.249 . S
O694 Eu672 2.471 . S
O694 C681 1.244 . S
O695 Eu672 2.349 . S
O695 C674 1.265 . S
C696 C697 1.379 . S
C696 C700 1.373 . S
C696 C702 1.505 . S
C697 C696 1.379 . S
C697 C699 1.369 . S
C697 H708 0.930 . S
C698 C700 1.383 . S
C698 C701 1.382 . S
C698 H709 0.930 . S
C699 C697 1.369 . S
C699 C701 1.392 . S
C699 H710 0.930 . S
C700 C696 1.373 . S
C700 C698 1.383 . S
C700 H711 0.931 . S
C701 C698 1.382 . S
C701 C699 1.392 . S
C702 Eu673 2.828 . S
C702 O686 1.249 . S
C702 O687 1.244 . S
C702 C696 1.505 . S
C703 O690 1.258 . S
C703 O691 1.242 . S
H704 C676 0.930 . S
H705 C677 0.930 . S
H706 C678 0.930 . S
H707 C679 0.931 . S
H708 C697 0.930 . S
H709 C698 0.930 . S
H710 C699 0.930 . S
H711 C700 0.931 . S
Eu712 C721 2.828 . S
Eu712 O723 2.392 . S
Eu712 O725 2.418 . S
Eu712 O730 2.373 . S
Eu712 O733 2.488 . S
Eu712 O734 2.471 . S
Eu712 O735 2.349 . S
Eu713 O722 2.373 . S
Eu713 O726 2.488 . S
Eu713 O727 2.471 . S
Eu713 O728 2.349 . S
Eu713 O731 2.392 . S
Eu713 O732 2.418 . S
Eu713 C742 2.828 . S
C714 O732 1.244 . S
C714 O735 1.265 . S
C715 C716 1.351 1_455 S
C715 C719 1.373 . S
C715 C721 1.505 . S
C716 C715 1.351 1_655 S
C716 C718 1.391 . S
C716 H744 0.937 . S
C717 C719 1.393 . S
C717 C720 1.369 1_455 S
C717 H745 0.925 . S
C718 C716 1.391 . S
C718 C720 1.392 . S
C718 H746 0.930 . S
C719 C715 1.373 . S
C719 C717 1.393 . S
C719 H747 0.931 . S
C720 C717 1.369 1_655 S
C720 C718 1.392 . S
C721 Eu712 2.828 . S
C721 C715 1.505 . S
C721 O733 1.249 . S
C721 O734 1.244 . S
O722 Eu713 2.373 . S
O722 C724 1.258 . S
O723 Eu712 2.392 . S
O723 C724 1.242 . S
C724 O722 1.258 . S
C724 O723 1.242 . S
O725 Eu712 2.418 . S
O725 C729 1.244 . S
O726 Eu713 2.488 . S
O726 C742 1.249 . S
O727 Eu713 2.471 . S
O727 C742 1.244 . S
O728 Eu713 2.349 . S
O728 C729 1.265 . S
C729 O725 1.244 . S
C729 O728 1.265 . S
O730 Eu712 2.373 . S
O730 C743 1.258 . S
O731 Eu713 2.392 . S
O731 C743 1.242 . S
O732 Eu713 2.418 . S
O732 C714 1.244 . S
O733 Eu712 2.488 . S
O733 C721 1.249 . S
O734 Eu712 2.471 . S
O734 C721 1.244 . S
O735 Eu712 2.349 . S
O735 C714 1.265 . S
C736 C737 1.379 . S
C736 C740 1.373 . S
C736 C742 1.505 . S
C737 C736 1.379 . S
C737 C739 1.369 . S
C737 H748 0.930 . S
C738 C740 1.383 . S
C738 C741 1.382 . S
C738 H749 0.930 . S
C739 C737 1.369 . S
C739 C741 1.392 . S
C739 H750 0.930 . S
C740 C736 1.373 . S
C740 C738 1.383 . S
C740 H751 0.931 . S
C741 C738 1.382 . S
C741 C739 1.392 . S
C742 Eu713 2.828 . S
C742 O726 1.249 . S
C742 O727 1.244 . S
C742 C736 1.505 . S
C743 O730 1.258 . S
C743 O731 1.242 . S
H744 C716 0.937 . S
H745 C717 0.925 . S
H746 C718 0.930 . S
H747 C719 0.931 . S
H748 C737 0.930 . S
H749 C738 0.930 . S
H750 C739 0.930 . S
H751 C740 0.931 . S
Eu752 C761 2.828 . S
Eu752 O763 2.392 . S
Eu752 O765 2.418 . S
Eu752 O770 2.373 . S
Eu752 O773 2.488 . S
Eu752 O774 2.471 . S
Eu752 O775 2.349 . S
Eu753 O762 2.373 . S
Eu753 O766 2.488 . S
Eu753 O767 2.471 . S
Eu753 O768 2.349 . S
Eu753 O771 2.392 . S
Eu753 O772 2.418 . S
Eu753 C782 2.828 . S
C754 O772 1.244 . S
C754 O775 1.265 . S
C755 C756 1.379 . S
C755 C759 1.373 . S
C755 C761 1.505 . S
C756 C755 1.379 . S
C756 C758 1.369 . S
C756 H784 0.930 . S
C757 C759 1.383 . S
C757 C760 1.382 . S
C757 H785 0.930 . S
C758 C756 1.369 . S
C758 C760 1.392 . S
C758 H786 0.930 . S
C759 C755 1.373 . S
C759 C757 1.383 . S
C759 H787 0.931 . S
C760 C757 1.382 . S
C760 C758 1.392 . S
C761 Eu752 2.828 . S
C761 C755 1.505 . S
C761 O773 1.249 . S
C761 O774 1.244 . S
O762 Eu753 2.373 . S
O762 C764 1.258 . S
O763 Eu752 2.392 . S
O763 C764 1.242 . S
C764 O762 1.258 . S
C764 O763 1.242 . S
O765 Eu752 2.418 . S
O765 C769 1.244 . S
O766 Eu753 2.488 . S
O766 C782 1.249 . S
O767 Eu753 2.471 . S
O767 C782 1.244 . S
O768 Eu753 2.349 . S
O768 C769 1.265 . S
C769 O765 1.244 . S
C769 O768 1.265 . S
O770 Eu752 2.373 . S
O770 C783 1.258 . S
O771 Eu753 2.392 . S
O771 C783 1.242 . S
O772 Eu753 2.418 . S
O772 C754 1.244 . S
O773 Eu752 2.488 . S
O773 C761 1.249 . S
O774 Eu752 2.471 . S
O774 C761 1.244 . S
O775 Eu752 2.349 . S
O775 C754 1.265 . S
C776 C777 1.379 . S
C776 C780 1.373 . S
C776 C782 1.505 . S
C777 C776 1.379 . S
C777 C779 1.369 . S
C777 H788 0.930 . S
C778 C780 1.383 . S
C778 C781 1.382 . S
C778 H789 0.930 . S
C779 C777 1.369 . S
C779 C781 1.392 . S
C779 H790 0.930 . S
C780 C776 1.373 . S
C780 C778 1.383 . S
C780 H791 0.931 . S
C781 C778 1.382 . S
C781 C779 1.392 . S
C782 Eu753 2.828 . S
C782 O766 1.249 . S
C782 O767 1.244 . S
C782 C776 1.505 . S
C783 O770 1.258 . S
C783 O771 1.242 . S
H784 C756 0.930 . S
H785 C757 0.930 . S
H786 C758 0.930 . S
H787 C759 0.931 . S
H788 C777 0.930 . S
H789 C778 0.930 . S
H790 C779 0.930 . S
H791 C780 0.931 . S
Eu792 C801 2.828 . S
Eu792 O803 2.392 . S
Eu792 O805 2.418 . S
Eu792 O810 2.373 . S
Eu792 O813 2.488 . S
Eu792 O814 2.471 . S
Eu792 O815 2.349 . S
Eu793 O802 2.373 . S
Eu793 O806 2.488 . S
Eu793 O807 2.471 . S
Eu793 O808 2.349 . S
Eu793 O811 2.392 . S
Eu793 O812 2.418 . S
Eu793 C822 2.828 . S
C794 O812 1.244 . S
C794 O815 1.265 . S
C795 C796 1.379 . S
C795 C799 1.373 . S
C795 C801 1.505 . S
C796 C795 1.379 . S
C796 C798 1.369 . S
C796 H824 0.930 . S
C797 C799 1.383 . S
C797 C800 1.382 . S
C797 H825 0.930 . S
C798 C796 1.369 . S
C798 C800 1.392 . S
C798 H826 0.930 . S
C799 C795 1.373 . S
C799 C797 1.383 . S
C799 H827 0.931 . S
C800 C797 1.382 . S
C800 C798 1.392 . S
C801 Eu792 2.828 . S
C801 C795 1.505 . S
C801 O813 1.249 . S
C801 O814 1.244 . S
O802 Eu793 2.373 . S
O802 C804 1.258 . S
O803 Eu792 2.392 . S
O803 C804 1.242 . S
C804 O802 1.258 . S
C804 O803 1.242 . S
O805 Eu792 2.418 . S
O805 C809 1.244 . S
O806 Eu793 2.488 . S
O806 C822 1.249 . S
O807 Eu793 2.471 . S
O807 C822 1.244 . S
O808 Eu793 2.349 . S
O808 C809 1.265 . S
C809 O805 1.244 . S
C809 O808 1.265 . S
O810 Eu792 2.373 . S
O810 C823 1.258 . S
O811 Eu793 2.392 . S
O811 C823 1.242 . S
O812 Eu793 2.418 . S
O812 C794 1.244 . S
O813 Eu792 2.488 . S
O813 C801 1.249 . S
O814 Eu792 2.471 . S
O814 C801 1.244 . S
O815 Eu792 2.349 . S
O815 C794 1.265 . S
C816 C817 1.379 . S
C816 C820 1.373 . S
C816 C822 1.505 . S
C817 C816 1.379 . S
C817 C819 1.369 . S
C817 H828 0.930 . S
C818 C820 1.383 . S
C818 C821 1.382 . S
C818 H829 0.930 . S
C819 C817 1.369 . S
C819 C821 1.392 . S
C819 H830 0.930 . S
C820 C816 1.373 . S
C820 C818 1.383 . S
C820 H831 0.931 . S
C821 C818 1.382 . S
C821 C819 1.392 . S
C822 Eu793 2.828 . S
C822 O806 1.249 . S
C822 O807 1.244 . S
C822 C816 1.505 . S
C823 O810 1.258 . S
C823 O811 1.242 . S
H824 C796 0.930 . S
H825 C797 0.930 . S
H826 C798 0.930 . S
H827 C799 0.931 . S
H828 C817 0.930 . S
H829 C818 0.930 . S
H830 C819 0.930 . S
H831 C820 0.931 . S
Eu832 C841 2.828 . S
Eu832 O843 2.392 . S
Eu832 O845 2.418 . S
Eu832 O850 2.373 . S
Eu832 O853 2.488 . S
Eu832 O854 2.471 . S
Eu832 O855 2.349 . S
Eu833 O842 2.373 . S
Eu833 O846 2.488 . S
Eu833 O847 2.471 . S
Eu833 O848 2.349 . S
Eu833 O851 2.392 . S
Eu833 O852 2.418 . S
Eu833 C862 2.828 . S
C834 O852 1.244 . S
C834 O855 1.265 . S
C835 C836 1.379 . S
C835 C839 1.373 . S
C835 C841 1.505 . S
C836 C835 1.379 . S
C836 C838 1.369 . S
C836 H864 0.930 . S
C837 C839 1.383 . S
C837 C840 1.382 . S
C837 H865 0.930 . S
C838 C836 1.369 . S
C838 C840 1.392 . S
C838 H866 0.930 . S
C839 C835 1.373 . S
C839 C837 1.383 . S
C839 H867 0.931 . S
C840 C837 1.382 . S
C840 C838 1.392 . S
C841 Eu832 2.828 . S
C841 C835 1.505 . S
C841 O853 1.249 . S
C841 O854 1.244 . S
O842 Eu833 2.373 . S
O842 C844 1.258 . S
O843 Eu832 2.392 . S
O843 C844 1.242 . S
C844 O842 1.258 . S
C844 O843 1.242 . S
O845 Eu832 2.418 . S
O845 C849 1.244 . S
O846 Eu833 2.488 . S
O846 C862 1.249 . S
O847 Eu833 2.471 . S
O847 C862 1.244 . S
O848 Eu833 2.349 . S
O848 C849 1.265 . S
C849 O845 1.244 . S
C849 O848 1.265 . S
O850 Eu832 2.373 . S
O850 C863 1.258 . S
O851 Eu833 2.392 . S
O851 C863 1.242 . S
O852 Eu833 2.418 . S
O852 C834 1.244 . S
O853 Eu832 2.488 . S
O853 C841 1.249 . S
O854 Eu832 2.471 . S
O854 C841 1.244 . S
O855 Eu832 2.349 . S
O855 C834 1.265 . S
C856 C857 1.379 . S
C856 C860 1.373 . S
C856 C862 1.505 . S
C857 C856 1.379 . S
C857 C859 1.369 . S
C857 H868 0.930 . S
C858 C860 1.383 . S
C858 C861 1.382 . S
C858 H869 0.930 . S
C859 C857 1.369 . S
C859 C861 1.392 . S
C859 H870 0.930 . S
C860 C856 1.373 . S
C860 C858 1.383 . S
C860 H871 0.931 . S
C861 C858 1.382 . S
C861 C859 1.392 . S
C862 Eu833 2.828 . S
C862 O846 1.249 . S
C862 O847 1.244 . S
C862 C856 1.505 . S
C863 O850 1.258 . S
C863 O851 1.242 . S
H864 C836 0.930 . S
H865 C837 0.930 . S
H866 C838 0.930 . S
H867 C839 0.931 . S
H868 C857 0.930 . S
H869 C858 0.930 . S
H870 C859 0.930 . S
H871 C860 0.931 . S
Eu872 C881 2.828 . S
Eu872 O883 2.392 . S
Eu872 O885 2.418 . S
Eu872 O890 2.373 . S
Eu872 O893 2.488 . S
Eu872 O894 2.471 . S
Eu872 O895 2.349 . S
Eu873 O882 2.373 . S
Eu873 O886 2.488 . S
Eu873 O887 2.471 . S
Eu873 O888 2.349 . S
Eu873 O891 2.392 . S
Eu873 O892 2.418 . S
Eu873 C902 2.828 . S
C874 O892 1.244 . S
C874 O895 1.265 . S
C875 C876 1.379 . S
C875 C879 1.373 . S
C875 C881 1.505 . S
C876 C875 1.379 . S
C876 C878 1.369 . S
C876 H904 0.930 . S
C877 C879 1.383 . S
C877 C880 1.382 . S
C877 H905 0.930 . S
C878 C876 1.369 . S
C878 C880 1.392 . S
C878 H906 0.930 . S
C879 C875 1.373 . S
C879 C877 1.383 . S
C879 H907 0.931 . S
C880 C877 1.382 . S
C880 C878 1.392 . S
C881 Eu872 2.828 . S
C881 C875 1.505 . S
C881 O893 1.249 . S
C881 O894 1.244 . S
O882 Eu873 2.373 . S
O882 C884 1.258 . S
O883 Eu872 2.392 . S
O883 C884 1.242 . S
C884 O882 1.258 . S
C884 O883 1.242 . S
O885 Eu872 2.418 . S
O885 C889 1.244 . S
O886 Eu873 2.488 . S
O886 C902 1.249 . S
O887 Eu873 2.471 . S
O887 C902 1.244 . S
O888 Eu873 2.349 . S
O888 C889 1.265 . S
C889 O885 1.244 . S
C889 O888 1.265 . S
O890 Eu872 2.373 . S
O890 C903 1.258 . S
O891 Eu873 2.392 . S
O891 C903 1.242 . S
O892 Eu873 2.418 . S
O892 C874 1.244 . S
O893 Eu872 2.488 . S
O893 C881 1.249 . S
O894 Eu872 2.471 . S
O894 C881 1.244 . S
O895 Eu872 2.349 . S
O895 C874 1.265 . S
C896 C897 1.379 . S
C896 C900 1.373 . S
C896 C902 1.505 . S
C897 C896 1.379 . S
C897 C899 1.369 . S
C897 H908 0.930 . S
C898 C900 1.383 . S
C898 C901 1.382 . S
C898 H909 0.930 . S
C899 C897 1.369 . S
C899 C901 1.392 . S
C899 H910 0.930 . S
C900 C896 1.373 . S
C900 C898 1.383 . S
C900 H911 0.931 . S
C901 C898 1.382 . S
C901 C899 1.392 . S
C902 Eu873 2.828 . S
C902 O886 1.249 . S
C902 O887 1.244 . S
C902 C896 1.505 . S
C903 O890 1.258 . S
C903 O891 1.242 . S
H904 C876 0.930 . S
H905 C877 0.930 . S
H906 C878 0.930 . S
H907 C879 0.931 . S
H908 C897 0.930 . S
H909 C898 0.930 . S
H910 C899 0.930 . S
H911 C900 0.931 . S
Eu912 C921 2.828 . S
Eu912 O923 2.392 1_556 S
Eu912 O925 2.418 . S
Eu912 O930 2.373 . S
Eu912 O933 2.488 . S
Eu912 O934 2.471 1_556 S
Eu912 O935 2.349 1_556 S
Eu913 O922 2.373 . S
Eu913 O926 2.488 1_455 S
Eu913 O927 2.471 1_455 S
Eu913 O928 2.349 1_554 S
Eu913 O931 2.392 . S
Eu913 O932 2.418 . S
Eu913 C942 2.828 1_455 S
C914 O932 1.244 . S
C914 O935 1.265 . S
C915 C916 1.346 1_556 S
C915 C919 1.373 . S
C915 C921 1.505 . S
C916 C915 1.346 1_554 S
C916 C918 1.365 1_554 S
C916 H944 0.967 . S
C917 C919 1.383 . S
C917 C920 1.382 . S
C917 H945 0.930 . S
C918 C916 1.365 1_556 S
C918 C920 1.392 . S
C918 H946 0.930 1_556 S
C919 C915 1.373 . S
C919 C917 1.383 . S
C919 H947 0.931 . S
C920 C917 1.382 . S
C920 C918 1.392 . S
C921 Eu912 2.828 . S
C921 C915 1.505 . S
C921 O933 1.249 . S
C921 O934 1.244 1_556 S
O922 Eu913 2.373 . S
O922 C924 1.258 . S
O923 Eu912 2.392 1_554 S
O923 C924 1.242 . S
C924 O922 1.258 . S
C924 O923 1.242 . S
O925 Eu912 2.418 . S
O925 C929 1.244 . S
O926 Eu913 2.488 1_655 S
O926 C942 1.249 . S
O927 Eu913 2.471 1_655 S
O927 C942 1.244 . S
O928 Eu913 2.349 1_556 S
O928 C929 1.265 . S
C929 O925 1.244 . S
C929 O928 1.265 . S
O930 Eu912 2.373 . S
O930 C943 1.258 . S
O931 Eu913 2.392 . S
O931 C943 1.242 1_554 S
O932 Eu913 2.418 . S
O932 C914 1.244 . S
O933 Eu912 2.488 . S
O933 C921 1.249 . S
O934 Eu912 2.471 1_554 S
O934 C921 1.244 1_554 S
O935 Eu912 2.349 1_554 S
O935 C914 1.265 . S
C936 C937 1.379 . S
C936 C940 1.373 . S
C936 C942 1.505 . S
C937 C936 1.379 . S
C937 C939 1.369 . S
C937 H948 0.930 . S
C938 C940 1.383 . S
C938 C941 1.382 . S
C938 H949 0.930 . S
C939 C937 1.369 . S
C939 C941 1.392 . S
C939 H950 0.930 . S
C940 C936 1.373 . S
C940 C938 1.383 . S
C940 H951 0.931 . S
C941 C938 1.382 . S
C941 C939 1.392 . S
C942 Eu913 2.828 1_655 S
C942 O926 1.249 . S
C942 O927 1.244 . S
C942 C936 1.505 . S
C943 O930 1.258 . S
C943 O931 1.242 1_556 S
H944 C916 0.967 . S
H945 C917 0.930 . S
H946 C918 0.930 1_554 S
H947 C919 0.931 . S
H948 C937 0.930 . S
H949 C938 0.930 . S
H950 C939 0.930 . S
H951 C940 0.931 . S
H952 C960 0.950 . S
H953 C965 0.950 . S
H954 C962 0.950 . S
H955 C964 0.950 . S
H956 C966 0.950 1_554 S
H957 C968 0.950 . S
H958 C970 0.950 . S
H959 C971 0.950 . S
C960 H952 0.950 . S
C960 C961 1.386 . S
C960 C962 1.391 . S
C961 C960 1.386 . S
C961 C965 1.393 . S
C962 H954 0.950 . S
C962 C960 1.391 . S
C962 C963 1.400 . S
C963 C962 1.400 . S
C963 C964 1.398 . S
C963 C969 1.491 . S
C964 H955 0.950 . S
C964 C963 1.398 . S
C964 C965 1.391 . S
C965 H953 0.950 . S
C965 C961 1.393 . S
C965 C964 1.391 . S
C966 H956 0.950 1_556 S
C966 C967 1.386 . S
C966 C968 1.391 . S
C967 C966 1.386 . S
C967 C971 1.393 . S
C968 H957 0.950 . S
C968 C966 1.391 . S
C968 C969 1.400 . S
C969 C963 1.491 . S
C969 C968 1.400 . S
C969 C970 1.398 . S
C970 H958 0.950 . S
C970 C969 1.398 . S
C970 C971 1.391 . S
C971 H959 0.950 . S
C971 C967 1.393 . S
C971 C970 1.391 . S
H972 C980 0.950 . S
H973 C985 0.950 . S
H974 C982 0.950 . S
H975 C984 0.950 . S
H976 C986 0.950 . S
H977 C988 0.950 . S
H978 C990 0.950 . S
H979 C991 0.950 . S
C980 H972 0.950 . S
C980 C981 1.386 . S
C980 C982 1.391 . S
C981 C980 1.386 . S
C981 C985 1.393 . S
C982 H974 0.950 . S
C982 C980 1.391 . S
C982 C983 1.400 . S
C983 C982 1.400 . S
C983 C984 1.398 . S
C983 C989 1.491 . S
C984 H975 0.950 . S
C984 C983 1.398 . S
C984 C985 1.391 . S
C985 H973 0.950 . S
C985 C981 1.393 . S
C985 C984 1.391 . S
C986 H976 0.950 . S
C986 C987 1.386 . S
C986 C988 1.391 . S
C987 C986 1.386 . S
C987 C991 1.393 . S
C988 H977 0.950 . S
C988 C986 1.391 . S
C988 C989 1.400 . S
C989 C983 1.491 . S
C989 C988 1.400 . S
C989 C990 1.398 . S
C990 H978 0.950 . S
C990 C989 1.398 . S
C990 C991 1.391 . S
C991 H979 0.950 . S
C991 C987 1.393 . S
C991 C990 1.391 . S
H992 C1000 0.950 . S
H993 C1005 0.950 . S
H994 C1002 0.950 . S
H995 C1004 0.950 . S
H996 C1006 0.950 . S
H997 C1008 0.950 . S
H998 C1010 0.950 . S
H999 C1011 0.950 . S
C1000 H992 0.950 . S
C1000 C1001 1.386 . S
C1000 C1002 1.391 . S
C1001 C1000 1.386 . S
C1001 C1005 1.393 . S
C1002 H994 0.950 . S
C1002 C1000 1.391 . S
C1002 C1003 1.400 . S
C1003 C1002 1.400 . S
C1003 C1004 1.398 . S
C1003 C1009 1.491 . S
C1004 H995 0.950 . S
C1004 C1003 1.398 . S
C1004 C1005 1.391 . S
C1005 H993 0.950 . S
C1005 C1001 1.393 . S
C1005 C1004 1.391 . S
C1006 H996 0.950 . S
C1006 C1007 1.386 . S
C1006 C1008 1.391 . S
C1007 C1006 1.386 . S
C1007 C1011 1.393 . S
C1008 H997 0.950 . S
C1008 C1006 1.391 . S
C1008 C1009 1.400 . S
C1009 C1003 1.491 . S
C1009 C1008 1.400 . S
C1009 C1010 1.398 . S
C1010 H998 0.950 . S
C1010 C1009 1.398 . S
C1010 C1011 1.391 . S
C1011 H999 0.950 . S
C1011 C1007 1.393 . S
C1011 C1010 1.391 . S
H1012 C1020 0.950 . S
H1013 C1025 0.950 . S
H1014 C1022 0.950 . S
H1015 C1024 0.950 . S
H1016 C1026 0.950 . S
H1017 C1028 0.950 . S
H1018 C1030 0.950 . S
H1019 C1031 0.950 . S
C1020 H1012 0.950 . S
C1020 C1021 1.386 . S
C1020 C1022 1.391 . S
C1021 C1020 1.386 . S
C1021 C1025 1.393 . S
C1022 H1014 0.950 . S
C1022 C1020 1.391 . S
C1022 C1023 1.400 . S
C1023 C1022 1.400 . S
C1023 C1024 1.398 . S
C1023 C1029 1.491 . S
C1024 H1015 0.950 . S
C1024 C1023 1.398 . S
C1024 C1025 1.391 . S
C1025 H1013 0.950 . S
C1025 C1021 1.393 . S
C1025 C1024 1.391 . S
C1026 H1016 0.950 . S
C1026 C1027 1.386 . S
C1026 C1028 1.391 . S
C1027 C1026 1.386 . S
C1027 C1031 1.393 . S
C1028 H1017 0.950 . S
C1028 C1026 1.391 . S
C1028 C1029 1.400 . S
C1029 C1023 1.491 . S
C1029 C1028 1.400 . S
C1029 C1030 1.398 . S
C1030 H1018 0.950 . S
C1030 C1029 1.398 . S
C1030 C1031 1.391 . S
C1031 H1019 0.950 . S
C1031 C1027 1.393 . S
C1031 C1030 1.391 . S
H1032 C1040 0.950 1_655 S
H1033 C1045 0.950 . S
H1034 C1042 0.950 . S
H1035 C1044 0.950 . S
H1036 C1046 0.950 . S
H1037 C1048 0.950 . S
H1038 C1050 0.950 . S
H1039 C1051 0.950 . S
C1040 H1032 0.950 1_455 S
C1040 C1041 1.386 . S
C1040 C1042 1.391 . S
C1041 C1040 1.386 . S
C1041 C1045 1.393 . S
C1042 H1034 0.950 . S
C1042 C1040 1.391 . S
C1042 C1043 1.400 . S
C1043 C1042 1.400 . S
C1043 C1044 1.398 . S
C1043 C1049 1.491 . S
C1044 H1035 0.950 . S
C1044 C1043 1.398 . S
C1044 C1045 1.391 . S
C1045 H1033 0.950 . S
C1045 C1041 1.393 . S
C1045 C1044 1.391 . S
C1046 H1036 0.950 . S
C1046 C1047 1.386 . S
C1046 C1048 1.391 . S
C1047 C1046 1.386 . S
C1047 C1051 1.393 . S
C1048 H1037 0.950 . S
C1048 C1046 1.391 . S
C1048 C1049 1.400 . S
C1049 C1043 1.491 . S
C1049 C1048 1.400 . S
C1049 C1050 1.398 . S
C1050 H1038 0.950 . S
C1050 C1049 1.398 . S
C1050 C1051 1.391 . S
C1051 H1039 0.950 . S
C1051 C1047 1.393 . S
C1051 C1050 1.391 . S
H1052 C1060 0.950 . S
H1053 C1065 0.950 . S
H1054 C1062 0.950 . S
H1055 C1064 0.950 . S
H1056 C1066 0.950 . S
H1057 C1068 0.950 . S
H1058 C1070 0.950 . S
H1059 C1071 0.950 . S
C1060 H1052 0.950 . S
C1060 C1061 1.386 . S
C1060 C1062 1.391 . S
C1061 C1060 1.386 . S
C1061 C1065 1.393 . S
C1062 H1054 0.950 . S
C1062 C1060 1.391 . S
C1062 C1063 1.400 . S
C1063 C1062 1.400 . S
C1063 C1064 1.398 . S
C1063 C1069 1.491 . S
C1064 H1055 0.950 . S
C1064 C1063 1.398 . S
C1064 C1065 1.391 . S
C1065 H1053 0.950 . S
C1065 C1061 1.393 . S
C1065 C1064 1.391 . S
C1066 H1056 0.950 . S
C1066 C1067 1.386 . S
C1066 C1068 1.391 . S
C1067 C1066 1.386 . S
C1067 C1071 1.393 . S
C1068 H1057 0.950 . S
C1068 C1066 1.391 . S
C1068 C1069 1.400 . S
C1069 C1063 1.491 . S
C1069 C1068 1.400 . S
C1069 C1070 1.398 . S
C1070 H1058 0.950 . S
C1070 C1069 1.398 . S
C1070 C1071 1.391 . S
C1071 H1059 0.950 . S
C1071 C1067 1.393 . S
C1071 C1070 1.391 . S
H1072 C1080 0.950 . S
H1073 C1085 0.950 . S
H1074 C1082 0.950 . S
H1075 C1084 0.950 . S
H1076 C1086 0.950 . S
H1077 C1088 0.950 . S
H1078 C1090 0.950 . S
H1079 C1091 0.950 . S
C1080 H1072 0.950 . S
C1080 C1081 1.386 . S
C1080 C1082 1.391 . S
C1081 C1080 1.386 . S
C1081 C1085 1.393 . S
C1082 H1074 0.950 . S
C1082 C1080 1.391 . S
C1082 C1083 1.400 . S
C1083 C1082 1.400 . S
C1083 C1084 1.398 . S
C1083 C1089 1.491 . S
C1084 H1075 0.950 . S
C1084 C1083 1.398 . S
C1084 C1085 1.391 . S
C1085 H1073 0.950 . S
C1085 C1081 1.393 . S
C1085 C1084 1.391 . S
C1086 H1076 0.950 . S
C1086 C1087 1.386 . S
C1086 C1088 1.391 . S
C1087 C1086 1.386 . S
C1087 C1091 1.393 . S
C1088 H1077 0.950 . S
C1088 C1086 1.391 . S
C1088 C1089 1.400 . S
C1089 C1083 1.491 . S
C1089 C1088 1.400 . S
C1089 C1090 1.398 . S
C1090 H1078 0.950 . S
C1090 C1089 1.398 . S
C1090 C1091 1.391 . S
C1091 H1079 0.950 . S
C1091 C1087 1.393 . S
C1091 C1090 1.391 . S
H1092 C1100 0.950 . S
H1093 C1105 0.950 . S
H1094 C1102 0.950 . S
H1095 C1104 0.950 . S
H1096 C1106 0.950 . S
H1097 C1108 0.950 . S
H1098 C1110 0.950 . S
H1099 C1111 0.950 . S
C1100 H1092 0.950 . S
C1100 C1101 1.386 . S
C1100 C1102 1.391 . S
C1101 C1100 1.386 . S
C1101 C1105 1.393 . S
C1102 H1094 0.950 . S
C1102 C1100 1.391 . S
C1102 C1103 1.400 . S
C1103 C1102 1.400 . S
C1103 C1104 1.398 . S
C1103 C1109 1.491 . S
C1104 H1095 0.950 . S
C1104 C1103 1.398 . S
C1104 C1105 1.391 . S
C1105 H1093 0.950 . S
C1105 C1101 1.393 . S
C1105 C1104 1.391 . S
C1106 H1096 0.950 . S
C1106 C1107 1.386 . S
C1106 C1108 1.391 . S
C1107 C1106 1.386 . S
C1107 C1111 1.393 . S
C1108 H1097 0.950 . S
C1108 C1106 1.391 . S
C1108 C1109 1.400 . S
C1109 C1103 1.491 . S
C1109 C1108 1.400 . S
C1109 C1110 1.398 . S
C1110 H1098 0.950 . S
C1110 C1109 1.398 . S
C1110 C1111 1.391 . S
C1111 H1099 0.950 . S
C1111 C1107 1.393 . S
C1111 C1110 1.391 . S
H1112 C1120 0.950 . S
H1113 C1125 0.950 1_455 S
H1114 C1122 0.950 . S
H1115 C1124 0.950 . S
H1116 C1126 0.950 . S
H1117 C1128 0.950 . S
H1118 C1130 0.950 . S
H1119 C1131 0.950 . S
C1120 H1112 0.950 . S
C1120 C1121 1.386 . S
C1120 C1122 1.391 . S
C1121 C1120 1.386 . S
C1121 C1125 1.393 . S
C1122 H1114 0.950 . S
C1122 C1120 1.391 . S
C1122 C1123 1.400 . S
C1123 C1122 1.400 . S
C1123 C1124 1.398 1_655 S
C1123 C1129 1.491 1_655 S
C1124 H1115 0.950 . S
C1124 C1123 1.398 1_455 S
C1124 C1125 1.391 1_455 S
C1125 H1113 0.950 1_655 S
C1125 C1121 1.393 . S
C1125 C1124 1.391 1_655 S
C1126 H1116 0.950 . S
C1126 C1127 1.386 . S
C1126 C1128 1.391 . S
C1127 C1126 1.386 . S
C1127 C1131 1.393 1_455 S
C1128 H1117 0.950 . S
C1128 C1126 1.391 . S
C1128 C1129 1.400 . S
C1129 C1123 1.491 1_455 S
C1129 C1128 1.400 . S
C1129 C1130 1.398 1_455 S
C1130 H1118 0.950 . S
C1130 C1129 1.398 1_655 S
C1130 C1131 1.391 . S
C1131 H1119 0.950 . S
C1131 C1127 1.393 1_655 S
C1131 C1130 1.391 . S
H1132 C1140 0.950 . S
H1133 C1145 0.950 . S
H1134 C1142 0.950 . S
H1135 C1144 0.950 . S
H1136 C1146 0.950 . S
H1137 C1148 0.950 . S
H1138 C1150 0.950 . S
H1139 C1151 0.950 . S
C1140 H1132 0.950 . S
C1140 C1141 1.386 . S
C1140 C1142 1.391 . S
C1141 C1140 1.386 . S
C1141 C1145 1.393 . S
C1142 H1134 0.950 . S
C1142 C1140 1.391 . S
C1142 C1143 1.400 . S
C1143 C1142 1.400 . S
C1143 C1144 1.398 . S
C1143 C1149 1.491 . S
C1144 H1135 0.950 . S
C1144 C1143 1.398 . S
C1144 C1145 1.391 . S
C1145 H1133 0.950 . S
C1145 C1141 1.393 . S
C1145 C1144 1.391 . S
C1146 H1136 0.950 . S
C1146 C1147 1.386 . S
C1146 C1148 1.391 . S
C1147 C1146 1.386 . S
C1147 C1151 1.393 . S
C1148 H1137 0.950 . S
C1148 C1146 1.391 . S
C1148 C1149 1.400 . S
C1149 C1143 1.491 . S
C1149 C1148 1.400 . S
C1149 C1150 1.398 . S
C1150 H1138 0.950 . S
C1150 C1149 1.398 . S
C1150 C1151 1.391 . S
C1151 H1139 0.950 . S
C1151 C1147 1.393 . S
C1151 C1150 1.391 . S
H1152 C1160 0.950 . S
H1153 C1165 0.950 . S
H1154 C1162 0.950 . S
H1155 C1164 0.950 . S
H1156 C1166 0.950 . S
H1157 C1168 0.950 . S
H1158 C1170 0.950 . S
H1159 C1171 0.950 . S
C1160 H1152 0.950 . S
C1160 C1161 1.386 . S
C1160 C1162 1.391 . S
C1161 C1160 1.386 . S
C1161 C1165 1.393 . S
C1162 H1154 0.950 . S
C1162 C1160 1.391 . S
C1162 C1163 1.400 . S
C1163 C1162 1.400 . S
C1163 C1164 1.398 . S
C1163 C1169 1.491 . S
C1164 H1155 0.950 . S
C1164 C1163 1.398 . S
C1164 C1165 1.391 . S
C1165 H1153 0.950 . S
C1165 C1161 1.393 . S
C1165 C1164 1.391 . S
C1166 H1156 0.950 . S
C1166 C1167 1.386 . S
C1166 C1168 1.391 . S
C1167 C1166 1.386 . S
C1167 C1171 1.393 . S
C1168 H1157 0.950 . S
C1168 C1166 1.391 . S
C1168 C1169 1.400 . S
C1169 C1163 1.491 . S
C1169 C1168 1.400 . S
C1169 C1170 1.398 . S
C1170 H1158 0.950 . S
C1170 C1169 1.398 . S
C1170 C1171 1.391 . S
C1171 H1159 0.950 . S
C1171 C1167 1.393 . S
C1171 C1170 1.391 . S
H1172 C1180 0.950 . S
H1173 C1185 0.950 . S
H1174 C1182 0.950 . S
H1175 C1184 0.950 . S
H1176 C1186 0.950 . S
H1177 C1188 0.950 . S
H1178 C1190 0.950 . S
H1179 C1191 0.950 . S
C1180 H1172 0.950 . S
C1180 C1181 1.386 . S
C1180 C1182 1.391 . S
C1181 C1180 1.386 . S
C1181 C1185 1.393 . S
C1182 H1174 0.950 . S
C1182 C1180 1.391 . S
C1182 C1183 1.400 . S
C1183 C1182 1.400 . S
C1183 C1184 1.398 . S
C1183 C1189 1.491 . S
C1184 H1175 0.950 . S
C1184 C1183 1.398 . S
C1184 C1185 1.391 . S
C1185 H1173 0.950 . S
C1185 C1181 1.393 . S
C1185 C1184 1.391 . S
C1186 H1176 0.950 . S
C1186 C1187 1.386 . S
C1186 C1188 1.391 . S
C1187 C1186 1.386 . S
C1187 C1191 1.393 . S
C1188 H1177 0.950 . S
C1188 C1186 1.391 . S
C1188 C1189 1.400 . S
C1189 C1183 1.491 . S
C1189 C1188 1.400 . S
C1189 C1190 1.398 . S
C1190 H1178 0.950 . S
C1190 C1189 1.398 . S
C1190 C1191 1.391 . S
C1191 H1179 0.950 . S
C1191 C1187 1.393 . S
C1191 C1190 1.391 . S
H1192 C1200 0.950 . S
H1193 C1205 0.950 . S
H1194 C1202 0.950 . S
H1195 C1204 0.950 . S
H1196 C1206 0.950 . S
H1197 C1208 0.948 1_655 S
H1198 C1210 0.950 . S
H1199 C1211 0.950 . S
C1200 H1192 0.950 . S
C1200 C1201 1.386 . S
C1200 C1202 1.391 . S
C1201 C1200 1.386 . S
C1201 C1205 1.393 . S
C1202 H1194 0.950 . S
C1202 C1200 1.391 . S
C1202 C1203 1.400 . S
C1203 C1202 1.400 . S
C1203 C1204 1.398 . S
C1203 C1209 1.483 1_655 S
C1204 H1195 0.950 . S
C1204 C1203 1.398 . S
C1204 C1205 1.391 . S
C1205 H1193 0.950 . S
C1205 C1201 1.393 . S
C1205 C1204 1.391 . S
C1206 H1196 0.950 . S
C1206 C1207 1.386 . S
C1206 C1208 1.394 . S
C1207 C1206 1.386 . S
C1207 C1211 1.393 . S
C1208 H1197 0.948 1_455 S
C1208 C1206 1.394 . S
C1208 C1209 1.403 . S
C1209 C1203 1.483 1_455 S
C1209 C1208 1.403 . S
C1209 C1210 1.403 . S
C1210 H1198 0.950 . S
C1210 C1209 1.403 . S
C1210 C1211 1.391 . S
C1211 H1199 0.950 . S
C1211 C1207 1.393 . S
C1211 C1210 1.391 . S
H1212 C1220 0.950 . S
H1213 C1225 0.950 . S
H1214 C1222 0.950 . S
H1215 C1224 0.950 . S
H1216 C1226 0.950 . S
H1217 C1228 0.950 . S
H1218 C1230 0.950 . S
H1219 C1231 0.950 . S
C1220 H1212 0.950 . S
C1220 C1221 1.386 . S
C1220 C1222 1.391 . S
C1221 C1220 1.386 . S
C1221 C1225 1.393 . S
C1222 H1214 0.950 . S
C1222 C1220 1.391 . S
C1222 C1223 1.400 . S
C1223 C1222 1.400 . S
C1223 C1224 1.398 . S
C1223 C1229 1.491 . S
C1224 H1215 0.950 . S
C1224 C1223 1.398 . S
C1224 C1225 1.391 . S
C1225 H1213 0.950 . S
C1225 C1221 1.393 . S
C1225 C1224 1.391 . S
C1226 H1216 0.950 . S
C1226 C1227 1.386 . S
C1226 C1228 1.391 . S
C1227 C1226 1.386 . S
C1227 C1231 1.393 . S
C1228 H1217 0.950 . S
C1228 C1226 1.391 . S
C1228 C1229 1.400 . S
C1229 C1223 1.491 . S
C1229 C1228 1.400 . S
C1229 C1230 1.398 . S
C1230 H1218 0.950 . S
C1230 C1229 1.398 . S
C1230 C1231 1.391 . S
C1231 H1219 0.950 . S
C1231 C1227 1.393 . S
C1231 C1230 1.391 . S
H1232 C1240 0.950 . S
H1233 C1245 0.950 . S
H1234 C1242 0.950 . S
H1235 C1244 0.950 . S
H1236 C1246 0.950 . S
H1237 C1248 0.950 . S
H1238 C1250 0.950 . S
H1239 C1251 0.950 . S
C1240 H1232 0.950 . S
C1240 C1241 1.386 . S
C1240 C1242 1.391 . S
C1241 C1240 1.386 . S
C1241 C1245 1.393 . S
C1242 H1234 0.950 . S
C1242 C1240 1.391 . S
C1242 C1243 1.400 . S
C1243 C1242 1.400 . S
C1243 C1244 1.398 . S
C1243 C1249 1.491 . S
C1244 H1235 0.950 . S
C1244 C1243 1.398 . S
C1244 C1245 1.391 . S
C1245 H1233 0.950 . S
C1245 C1241 1.393 . S
C1245 C1244 1.391 . S
C1246 H1236 0.950 . S
C1246 C1247 1.386 . S
C1246 C1248 1.391 . S
C1247 C1246 1.386 . S
C1247 C1251 1.393 . S
C1248 H1237 0.950 . S
C1248 C1246 1.391 . S
C1248 C1249 1.400 . S
C1249 C1243 1.491 . S
C1249 C1248 1.400 . S
C1249 C1250 1.398 . S
C1250 H1238 0.950 . S
C1250 C1249 1.398 . S
C1250 C1251 1.391 . S
C1251 H1239 0.950 . S
C1251 C1247 1.393 . S
C1251 C1250 1.391 . S
H1252 C1260 0.950 . S
H1253 C1265 0.950 . S
H1254 C1262 0.950 . S
H1255 C1264 0.950 . S
H1256 C1266 0.950 . S
H1257 C1268 0.950 . S
H1258 C1270 0.950 . S
H1259 C1271 0.950 . S
C1260 H1252 0.950 . S
C1260 C1261 1.386 . S
C1260 C1262 1.391 . S
C1261 C1260 1.386 . S
C1261 C1265 1.393 . S
C1262 H1254 0.950 . S
C1262 C1260 1.391 . S
C1262 C1263 1.400 . S
C1263 C1262 1.400 . S
C1263 C1264 1.398 . S
C1263 C1269 1.491 . S
C1264 H1255 0.950 . S
C1264 C1263 1.398 . S
C1264 C1265 1.391 . S
C1265 H1253 0.950 . S
C1265 C1261 1.393 . S
C1265 C1264 1.391 . S
C1266 H1256 0.950 . S
C1266 C1267 1.386 . S
C1266 C1268 1.391 . S
C1267 C1266 1.386 . S
C1267 C1271 1.393 . S
C1268 H1257 0.950 . S
C1268 C1266 1.391 . S
C1268 C1269 1.400 . S
C1269 C1263 1.491 . S
C1269 C1268 1.400 . S
C1269 C1270 1.398 . S
C1270 H1258 0.950 . S
C1270 C1269 1.398 . S
C1270 C1271 1.391 . S
C1271 H1259 0.950 . S
C1271 C1267 1.393 . S
C1271 C1270 1.391 . S
H1272 C1280 0.950 . S
H1273 C1285 0.950 . S
H1274 C1282 0.950 1_545 S
H1275 C1284 0.950 . S
H1276 C1286 0.950 . S
H1277 C1288 0.950 . S
H1278 C1290 0.950 1_556 S
H1279 C1291 0.950 1_556 S
C1280 H1272 0.950 . S
C1280 C1281 1.386 1_556 S
C1280 C1282 1.391 . S
C1281 C1280 1.386 1_554 S
C1281 C1285 1.393 . S
C1282 H1274 0.950 1_565 S
C1282 C1280 1.391 . S
C1282 C1283 1.400 1_556 S
C1283 C1282 1.400 1_554 S
C1283 C1284 1.398 . S
C1283 C1289 1.491 . S
C1284 H1275 0.950 . S
C1284 C1283 1.398 . S
C1284 C1285 1.391 . S
C1285 H1273 0.950 . S
C1285 C1281 1.393 . S
C1285 C1284 1.391 . S
C1286 H1276 0.950 . S
C1286 C1287 1.386 1_565 S
C1286 C1288 1.391 . S
C1287 C1286 1.386 1_545 S
C1287 C1291 1.393 . S
C1288 H1277 0.950 . S
C1288 C1286 1.391 . S
C1288 C1289 1.400 . S
C1289 C1283 1.491 . S
C1289 C1288 1.400 . S
C1289 C1290 1.398 1_565 S
C1290 H1278 0.950 1_554 S
C1290 C1289 1.398 1_545 S
C1290 C1291 1.391 . S
C1291 H1279 0.950 1_554 S
C1291 C1287 1.393 . S
C1291 C1290 1.391 . S
H1292 C1300 0.950 . S
H1293 C1305 0.950 . S
H1294 C1302 0.950 . S
H1295 C1304 0.950 . S
H1296 C1306 0.950 . S
H1297 C1308 0.950 . S
H1298 C1310 0.950 . S
H1299 C1311 0.950 . S
C1300 H1292 0.950 . S
C1300 C1301 1.386 . S
C1300 C1302 1.391 . S
C1301 C1300 1.386 . S
C1301 C1305 1.393 1_554 S
C1302 H1294 0.950 . S
C1302 C1300 1.391 . S
C1302 C1303 1.400 . S
C1303 C1302 1.400 . S
C1303 C1304 1.398 1_554 S
C1303 C1309 1.491 . S
C1304 H1295 0.950 . S
C1304 C1303 1.398 1_556 S
C1304 C1305 1.391 . S
C1305 H1293 0.950 . S
C1305 C1301 1.393 1_556 S
C1305 C1304 1.391 . S
C1306 H1296 0.950 . S
C1306 C1307 1.386 1_556 S
C1306 C1308 1.391 . S
C1307 C1306 1.386 1_554 S
C1307 C1311 1.393 . S
C1308 H1297 0.950 . S
C1308 C1306 1.391 . S
C1308 C1309 1.400 1_556 S
C1309 C1303 1.491 . S
C1309 C1308 1.400 1_554 S
C1309 C1310 1.398 . S
C1310 H1298 0.950 . S
C1310 C1309 1.398 . S
C1310 C1311 1.391 . S
C1311 H1299 0.950 . S
C1311 C1307 1.393 . S
C1311 C1310 1.391 . S
H1312 C1320 0.950 . S
H1313 C1325 0.950 . S
H1314 C1322 0.950 . S
H1315 C1324 0.950 . S
H1316 C1326 0.950 . S
H1317 C1328 0.950 . S
H1318 C1330 0.950 . S
H1319 C1331 0.950 . S
C1320 H1312 0.950 . S
C1320 C1321 1.386 . S
C1320 C1322 1.391 . S
C1321 C1320 1.386 . S
C1321 C1325 1.393 . S
C1322 H1314 0.950 . S
C1322 C1320 1.391 . S
C1322 C1323 1.400 . S
C1323 C1322 1.400 . S
C1323 C1324 1.398 . S
C1323 C1329 1.491 . S
C1324 H1315 0.950 . S
C1324 C1323 1.398 . S
C1324 C1325 1.391 . S
C1325 H1313 0.950 . S
C1325 C1321 1.393 . S
C1325 C1324 1.391 . S
C1326 H1316 0.950 . S
C1326 C1327 1.386 . S
C1326 C1328 1.391 . S
C1327 C1326 1.386 . S
C1327 C1331 1.393 . S
C1328 H1317 0.950 . S
C1328 C1326 1.391 . S
C1328 C1329 1.400 . S
C1329 C1323 1.491 . S
C1329 C1328 1.400 . S
C1329 C1330 1.398 . S
C1330 H1318 0.950 . S
C1330 C1329 1.398 . S
C1330 C1331 1.391 . S
C1331 H1319 0.950 . S
C1331 C1327 1.393 . S
C1331 C1330 1.391 . S
H1332 C1340 0.950 . S
H1333 C1345 0.950 . S
H1334 C1342 0.950 . S
H1335 C1344 0.950 . S
H1336 C1346 0.950 . S
H1337 C1348 0.950 . S
H1338 C1350 0.950 . S
H1339 C1351 0.950 . S
C1340 H1332 0.950 . S
C1340 C1341 1.386 . S
C1340 C1342 1.391 . S
C1341 C1340 1.386 . S
C1341 C1345 1.393 . S
C1342 H1334 0.950 . S
C1342 C1340 1.391 . S
C1342 C1343 1.400 . S
C1343 C1342 1.400 . S
C1343 C1344 1.398 . S
C1343 C1349 1.491 . S
C1344 H1335 0.950 . S
C1344 C1343 1.398 . S
C1344 C1345 1.391 . S
C1345 H1333 0.950 . S
C1345 C1341 1.393 . S
C1345 C1344 1.391 . S
C1346 H1336 0.950 . S
C1346 C1347 1.386 . S
C1346 C1348 1.391 . S
C1347 C1346 1.386 . S
C1347 C1351 1.393 . S
C1348 H1337 0.950 . S
C1348 C1346 1.391 . S
C1348 C1349 1.400 . S
C1349 C1343 1.491 . S
C1349 C1348 1.400 . S
C1349 C1350 1.398 . S
C1350 H1338 0.950 . S
C1350 C1349 1.398 . S
C1350 C1351 1.391 . S
C1351 H1339 0.950 . S
C1351 C1347 1.393 . S
C1351 C1350 1.391 . S
H1352 C1360 0.950 . S
H1353 C1365 0.950 . S
H1354 C1362 0.950 . S
H1355 C1364 0.950 . S
H1356 C1366 0.950 . S
H1357 C1368 0.950 . S
H1358 C1370 0.950 . S
H1359 C1371 0.950 . S
C1360 H1352 0.950 . S
C1360 C1361 1.386 . S
C1360 C1362 1.391 . S
C1361 C1360 1.386 . S
C1361 C1365 1.393 . S
C1362 H1354 0.950 . S
C1362 C1360 1.391 . S
C1362 C1363 1.400 . S
C1363 C1362 1.400 . S
C1363 C1364 1.398 . S
C1363 C1369 1.491 . S
C1364 H1355 0.950 . S
C1364 C1363 1.398 . S
C1364 C1365 1.391 . S
C1365 H1353 0.950 . S
C1365 C1361 1.393 . S
C1365 C1364 1.391 . S
C1366 H1356 0.950 . S
C1366 C1367 1.386 . S
C1366 C1368 1.391 . S
C1367 C1366 1.386 . S
C1367 C1371 1.393 . S
C1368 H1357 0.950 . S
C1368 C1366 1.391 . S
C1368 C1369 1.400 . S
C1369 C1363 1.491 . S
C1369 C1368 1.400 . S
C1369 C1370 1.398 . S
C1370 H1358 0.950 . S
C1370 C1369 1.398 . S
C1370 C1371 1.391 . S
C1371 H1359 0.950 . S
C1371 C1367 1.393 . S
C1371 C1370 1.391 . S
H1372 C1380 0.950 . S
H1373 C1385 0.950 . S
H1374 C1382 0.950 . S
H1375 C1384 0.950 . S
H1376 C1386 0.950 . S
H1377 C1388 0.950 . S
H1378 C1390 0.950 . S
H1379 C1391 0.950 . S
C1380 H1372 0.950 . S
C1380 C1381 1.386 . S
C1380 C1382 1.391 . S
C1381 C1380 1.386 . S
C1381 C1385 1.393 . S
C1382 H1374 0.950 . S
C1382 C1380 1.391 . S
C1382 C1383 1.400 . S
C1383 C1382 1.400 . S
C1383 C1384 1.398 . S
C1383 C1389 1.491 . S
C1384 H1375 0.950 . S
C1384 C1383 1.398 . S
C1384 C1385 1.391 . S
C1385 H1373 0.950 . S
C1385 C1381 1.393 . S
C1385 C1384 1.391 . S
C1386 H1376 0.950 . S
C1386 C1387 1.386 . S
C1386 C1388 1.391 . S
C1387 C1386 1.386 . S
C1387 C1391 1.393 . S
C1388 H1377 0.950 . S
C1388 C1386 1.391 . S
C1388 C1389 1.400 . S
C1389 C1383 1.491 . S
C1389 C1388 1.400 . S
C1389 C1390 1.398 . S
C1390 H1378 0.950 . S
C1390 C1389 1.398 . S
C1390 C1391 1.391 . S
C1391 H1379 0.950 . S
C1391 C1387 1.393 . S
C1391 C1390 1.391 . S
H1392 C1400 0.950 . S
H1393 C1405 0.950 . S
H1394 C1402 0.950 . S
H1395 C1404 0.950 . S
H1396 C1406 0.950 . S
H1397 C1408 0.950 . S
H1398 C1410 0.950 . S
H1399 C1411 0.950 . S
C1400 H1392 0.950 . S
C1400 C1401 1.386 . S
C1400 C1402 1.391 . S
C1401 C1400 1.386 . S
C1401 C1405 1.393 . S
C1402 H1394 0.950 . S
C1402 C1400 1.391 . S
C1402 C1403 1.400 . S
C1403 C1402 1.400 . S
C1403 C1404 1.398 . S
C1403 C1409 1.491 . S
C1404 H1395 0.950 . S
C1404 C1403 1.398 . S
C1404 C1405 1.391 . S
C1405 H1393 0.950 . S
C1405 C1401 1.393 . S
C1405 C1404 1.391 . S
C1406 H1396 0.950 . S
C1406 C1407 1.386 . S
C1406 C1408 1.391 . S
C1407 C1406 1.386 . S
C1407 C1411 1.393 . S
C1408 H1397 0.950 . S
C1408 C1406 1.391 . S
C1408 C1409 1.400 . S
C1409 C1403 1.491 . S
C1409 C1408 1.400 . S
C1409 C1410 1.398 . S
C1410 H1398 0.950 . S
C1410 C1409 1.398 . S
C1410 C1411 1.391 . S
C1411 H1399 0.950 . S
C1411 C1407 1.393 . S
C1411 C1410 1.391 . S
H1412 C1420 0.950 . S
H1413 C1425 0.950 . S
H1414 C1422 0.950 . S
H1415 C1424 0.950 . S
H1416 C1426 0.950 . S
H1417 C1428 0.950 . S
H1418 C1430 0.950 . S
H1419 C1431 0.950 . S
C1420 H1412 0.950 . S
C1420 C1421 1.386 . S
C1420 C1422 1.391 . S
C1421 C1420 1.386 . S
C1421 C1425 1.393 . S
C1422 H1414 0.950 . S
C1422 C1420 1.391 . S
C1422 C1423 1.400 . S
C1423 C1422 1.400 . S
C1423 C1424 1.398 . S
C1423 C1429 1.491 . S
C1424 H1415 0.950 . S
C1424 C1423 1.398 . S
C1424 C1425 1.391 . S
C1425 H1413 0.950 . S
C1425 C1421 1.393 . S
C1425 C1424 1.391 . S
C1426 H1416 0.950 . S
C1426 C1427 1.386 . S
C1426 C1428 1.391 . S
C1427 C1426 1.386 . S
C1427 C1431 1.393 . S
C1428 H1417 0.950 . S
C1428 C1426 1.391 . S
C1428 C1429 1.400 . S
C1429 C1423 1.491 . S
C1429 C1428 1.400 . S
C1429 C1430 1.398 . S
C1430 H1418 0.950 . S
C1430 C1429 1.398 . S
C1430 C1431 1.391 . S
C1431 H1419 0.950 . S
C1431 C1427 1.393 . S
C1431 C1430 1.391 . S
H1432 C1440 0.950 . S
H1433 C1445 0.950 . S
H1434 C1442 0.950 . S
H1435 C1444 0.950 . S
H1436 C1446 0.950 . S
H1437 C1448 0.950 . S
H1438 C1450 0.950 . S
H1439 C1451 0.950 . S
C1440 H1432 0.950 . S
C1440 C1441 1.386 . S
C1440 C1442 1.391 . S
C1441 C1440 1.386 . S
C1441 C1445 1.393 . S
C1442 H1434 0.950 . S
C1442 C1440 1.391 . S
C1442 C1443 1.400 . S
C1443 C1442 1.400 . S
C1443 C1444 1.398 . S
C1443 C1449 1.491 . S
C1444 H1435 0.950 . S
C1444 C1443 1.398 . S
C1444 C1445 1.391 . S
C1445 H1433 0.950 . S
C1445 C1441 1.393 . S
C1445 C1444 1.391 . S
C1446 H1436 0.950 . S
C1446 C1447 1.386 . S
C1446 C1448 1.391 . S
C1447 C1446 1.386 . S
C1447 C1451 1.393 . S
C1448 H1437 0.950 . S
C1448 C1446 1.391 . S
C1448 C1449 1.400 . S
C1449 C1443 1.491 . S
C1449 C1448 1.400 . S
C1449 C1450 1.398 . S
C1450 H1438 0.950 . S
C1450 C1449 1.398 . S
C1450 C1451 1.391 . S
C1451 H1439 0.950 . S
C1451 C1447 1.393 . S
C1451 C1450 1.391 . S
H1452 C1460 0.950 . S
H1453 C1465 0.950 . S
H1454 C1462 0.950 . S
H1455 C1464 0.950 . S
H1456 C1466 0.950 . S
H1457 C1468 0.950 . S
H1458 C1470 0.950 . S
H1459 C1471 0.950 . S
C1460 H1452 0.950 . S
C1460 C1461 1.386 . S
C1460 C1462 1.391 . S
C1461 C1460 1.386 . S
C1461 C1465 1.393 . S
C1462 H1454 0.950 . S
C1462 C1460 1.391 . S
C1462 C1463 1.400 . S
C1463 C1462 1.400 . S
C1463 C1464 1.398 . S
C1463 C1469 1.491 . S
C1464 H1455 0.950 . S
C1464 C1463 1.398 . S
C1464 C1465 1.391 . S
C1465 H1453 0.950 . S
C1465 C1461 1.393 . S
C1465 C1464 1.391 . S
C1466 H1456 0.950 . S
C1466 C1467 1.386 . S
C1466 C1468 1.391 . S
C1467 C1466 1.386 . S
C1467 C1471 1.393 . S
C1468 H1457 0.950 . S
C1468 C1466 1.391 . S
C1468 C1469 1.400 . S
C1469 C1463 1.491 . S
C1469 C1468 1.400 . S
C1469 C1470 1.398 . S
C1470 H1458 0.950 . S
C1470 C1469 1.398 . S
C1470 C1471 1.391 . S
C1471 H1459 0.950 . S
C1471 C1467 1.393 . S
C1471 C1470 1.391 . S
H1472 C1480 0.950 . S
H1473 C1485 0.950 . S
H1474 C1482 0.950 . S
H1475 C1484 0.950 . S
H1476 C1486 0.950 . S
H1477 C1488 0.950 . S
H1478 C1490 0.950 . S
H1479 C1491 0.950 . S
C1480 H1472 0.950 . S
C1480 C1481 1.386 . S
C1480 C1482 1.391 . S
C1481 C1480 1.386 . S
C1481 C1485 1.393 . S
C1482 H1474 0.950 . S
C1482 C1480 1.391 . S
C1482 C1483 1.400 . S
C1483 C1482 1.400 . S
C1483 C1484 1.398 . S
C1483 C1489 1.491 . S
C1484 H1475 0.950 . S
C1484 C1483 1.398 . S
C1484 C1485 1.391 . S
C1485 H1473 0.950 . S
C1485 C1481 1.393 . S
C1485 C1484 1.391 . S
C1486 H1476 0.950 . S
C1486 C1487 1.386 . S
C1486 C1488 1.391 . S
C1487 C1486 1.386 . S
C1487 C1491 1.393 . S
C1488 H1477 0.950 . S
C1488 C1486 1.391 . S
C1488 C1489 1.400 . S
C1489 C1483 1.491 . S
C1489 C1488 1.400 . S
C1489 C1490 1.398 . S
C1490 H1478 0.950 . S
C1490 C1489 1.398 . S
C1490 C1491 1.391 . S
C1491 H1479 0.950 . S
C1491 C1487 1.393 . S
C1491 C1490 1.391 . S
H1492 C1500 0.950 . S
H1493 C1505 0.950 . S
H1494 C1502 0.950 . S
H1495 C1504 0.950 . S
H1496 C1506 0.950 . S
H1497 C1508 0.950 . S
H1498 C1510 0.950 . S
H1499 C1511 0.950 . S
C1500 H1492 0.950 . S
C1500 C1501 1.386 . S
C1500 C1502 1.391 . S
C1501 C1500 1.386 . S
C1501 C1505 1.393 . S
C1502 H1494 0.950 . S
C1502 C1500 1.391 . S
C1502 C1503 1.400 . S
C1503 C1502 1.400 . S
C1503 C1504 1.398 . S
C1503 C1509 1.491 . S
C1504 H1495 0.950 . S
C1504 C1503 1.398 . S
C1504 C1505 1.391 . S
C1505 H1493 0.950 . S
C1505 C1501 1.393 . S
C1505 C1504 1.391 . S
C1506 H1496 0.950 . S
C1506 C1507 1.386 . S
C1506 C1508 1.391 . S
C1507 C1506 1.386 . S
C1507 C1511 1.393 . S
C1508 H1497 0.950 . S
C1508 C1506 1.391 . S
C1508 C1509 1.400 . S
C1509 C1503 1.491 . S
C1509 C1508 1.400 . S
C1509 C1510 1.398 . S
C1510 H1498 0.950 . S
C1510 C1509 1.398 . S
C1510 C1511 1.391 . S
C1511 H1499 0.950 . S
C1511 C1507 1.393 . S
C1511 C1510 1.391 . S
H1512 C1520 0.950 . S
H1513 C1525 0.950 . S
H1514 C1522 0.950 . S
H1515 C1524 0.950 . S
H1516 C1526 0.950 . S
H1517 C1528 0.950 . S
H1518 C1530 0.950 . S
H1519 C1531 0.950 . S
C1520 H1512 0.950 . S
C1520 C1521 1.386 . S
C1520 C1522 1.391 . S
C1521 C1520 1.386 . S
C1521 C1525 1.393 . S
C1522 H1514 0.950 . S
C1522 C1520 1.391 . S
C1522 C1523 1.400 . S
C1523 C1522 1.400 . S
C1523 C1524 1.398 . S
C1523 C1529 1.491 . S
C1524 H1515 0.950 . S
C1524 C1523 1.398 . S
C1524 C1525 1.391 . S
C1525 H1513 0.950 . S
C1525 C1521 1.393 . S
C1525 C1524 1.391 . S
C1526 H1516 0.950 . S
C1526 C1527 1.386 . S
C1526 C1528 1.391 . S
C1527 C1526 1.386 . S
C1527 C1531 1.393 . S
C1528 H1517 0.950 . S
C1528 C1526 1.391 . S
C1528 C1529 1.400 . S
C1529 C1523 1.491 . S
C1529 C1528 1.400 . S
C1529 C1530 1.398 . S
C1530 H1518 0.950 . S
C1530 C1529 1.398 . S
C1530 C1531 1.391 . S
C1531 H1519 0.950 . S
C1531 C1527 1.393 . S
C1531 C1530 1.391 . S
H1532 C1540 0.950 . S
H1533 C1545 0.950 . S
H1534 C1542 0.950 . S
H1535 C1544 0.950 . S
H1536 C1546 0.950 . S
H1537 C1548 0.950 . S
H1538 C1550 0.950 . S
H1539 C1551 0.950 . S
C1540 H1532 0.950 . S
C1540 C1541 1.386 . S
C1540 C1542 1.391 . S
C1541 C1540 1.386 . S
C1541 C1545 1.393 . S
C1542 H1534 0.950 . S
C1542 C1540 1.391 . S
C1542 C1543 1.400 . S
C1543 C1542 1.400 . S
C1543 C1544 1.398 . S
C1543 C1549 1.491 . S
C1544 H1535 0.950 . S
C1544 C1543 1.398 . S
C1544 C1545 1.391 . S
C1545 H1533 0.950 . S
C1545 C1541 1.393 . S
C1545 C1544 1.391 . S
C1546 H1536 0.950 . S
C1546 C1547 1.386 . S
C1546 C1548 1.391 . S
C1547 C1546 1.386 . S
C1547 C1551 1.393 . S
C1548 H1537 0.950 . S
C1548 C1546 1.391 . S
C1548 C1549 1.400 . S
C1549 C1543 1.491 . S
C1549 C1548 1.400 . S
C1549 C1550 1.398 . S
C1550 H1538 0.950 . S
C1550 C1549 1.398 . S
C1550 C1551 1.391 . S
C1551 H1539 0.950 . S
C1551 C1547 1.393 . S
C1551 C1550 1.391 . S
H1552 C1560 0.950 . S
H1553 C1565 0.950 . S
H1554 C1562 0.950 . S
H1555 C1564 0.950 . S
H1556 C1566 0.950 1_554 S
H1557 C1568 0.950 . S
H1558 C1570 0.950 . S
H1559 C1571 0.950 . S
C1560 H1552 0.950 . S
C1560 C1561 1.386 . S
C1560 C1562 1.391 . S
C1561 C1560 1.386 . S
C1561 C1565 1.393 . S
C1562 H1554 0.950 . S
C1562 C1560 1.391 . S
C1562 C1563 1.400 . S
C1563 C1562 1.400 . S
C1563 C1564 1.398 . S
C1563 C1569 1.491 . S
C1564 H1555 0.950 . S
C1564 C1563 1.398 . S
C1564 C1565 1.391 . S
C1565 H1553 0.950 . S
C1565 C1561 1.393 . S
C1565 C1564 1.391 . S
C1566 H1556 0.950 1_556 S
C1566 C1567 1.386 . S
C1566 C1568 1.391 . S
C1567 C1566 1.386 . S
C1567 C1571 1.393 . S
C1568 H1557 0.950 . S
C1568 C1566 1.391 . S
C1568 C1569 1.400 . S
C1569 C1563 1.491 . S
C1569 C1568 1.400 . S
C1569 C1570 1.398 . S
C1570 H1558 0.950 . S
C1570 C1569 1.398 . S
C1570 C1571 1.391 . S
C1571 H1559 0.950 . S
C1571 C1567 1.393 . S
C1571 C1570 1.391 . S
H1572 C1580 0.950 . S
H1573 C1585 0.950 . S
H1574 C1582 0.950 . S
H1575 C1584 0.950 . S
H1576 C1586 0.950 . S
H1577 C1588 0.950 . S
H1578 C1590 0.950 . S
H1579 C1591 0.950 . S
C1580 H1572 0.950 . S
C1580 C1581 1.386 . S
C1580 C1582 1.391 . S
C1581 C1580 1.386 . S
C1581 C1585 1.393 . S
C1582 H1574 0.950 . S
C1582 C1580 1.391 . S
C1582 C1583 1.400 . S
C1583 C1582 1.400 . S
C1583 C1584 1.398 . S
C1583 C1589 1.491 . S
C1584 H1575 0.950 . S
C1584 C1583 1.398 . S
C1584 C1585 1.391 . S
C1585 H1573 0.950 . S
C1585 C1581 1.393 . S
C1585 C1584 1.391 . S
C1586 H1576 0.950 . S
C1586 C1587 1.386 . S
C1586 C1588 1.391 . S
C1587 C1586 1.386 . S
C1587 C1591 1.393 . S
C1588 H1577 0.950 . S
C1588 C1586 1.391 . S
C1588 C1589 1.400 . S
C1589 C1583 1.491 . S
C1589 C1588 1.400 . S
C1589 C1590 1.398 . S
C1590 H1578 0.950 . S
C1590 C1589 1.398 . S
C1590 C1591 1.391 . S
C1591 H1579 0.950 . S
C1591 C1587 1.393 . S
C1591 C1590 1.391 . S
H1592 C1600 0.950 . S
H1593 C1605 0.950 . S
H1594 C1602 0.950 . S
H1595 C1604 0.950 . S
H1596 C1606 0.950 1_565 S
H1597 C1608 0.939 1_565 S
H1598 C1610 0.950 . S
H1599 C1611 0.950 . S
C1600 H1592 0.950 . S
C1600 C1601 1.386 . S
C1600 C1602 1.391 . S
C1601 C1600 1.386 . S
C1601 C1605 1.393 1_545 S
C1602 H1594 0.950 . S
C1602 C1600 1.391 . S
C1602 C1603 1.400 . S
C1603 C1602 1.400 . S
C1603 C1604 1.398 1_545 S
C1603 C1609 1.491 . S
C1604 H1595 0.950 . S
C1604 C1603 1.398 1_565 S
C1604 C1605 1.391 . S
C1605 H1593 0.950 . S
C1605 C1601 1.393 1_565 S
C1605 C1604 1.391 . S
C1606 H1596 0.950 1_545 S
C1606 C1607 1.386 . S
C1606 C1608 1.391 . S
C1607 C1606 1.386 . S
C1607 C1611 1.393 . S
C1608 H1597 0.939 1_545 S
C1608 C1606 1.391 . S
C1608 C1609 1.411 . S
C1609 C1603 1.491 . S
C1609 C1608 1.411 . S
C1609 C1610 1.398 . S
C1610 H1598 0.950 . S
C1610 C1609 1.398 . S
C1610 C1611 1.391 . S
C1611 H1599 0.950 . S
C1611 C1607 1.393 . S
C1611 C1610 1.391 . S
H1612 C1620 0.950 . S
H1613 C1625 0.950 . S
H1614 C1622 0.950 . S
H1615 C1624 0.950 . S
H1616 C1626 0.950 . S
H1617 C1628 0.950 . S
H1618 C1630 0.950 . S
H1619 C1631 0.950 . S
C1620 H1612 0.950 . S
C1620 C1621 1.386 . S
C1620 C1622 1.391 . S
C1621 C1620 1.386 . S
C1621 C1625 1.393 . S
C1622 H1614 0.950 . S
C1622 C1620 1.391 . S
C1622 C1623 1.400 . S
C1623 C1622 1.400 . S
C1623 C1624 1.398 . S
C1623 C1629 1.491 . S
C1624 H1615 0.950 . S
C1624 C1623 1.398 . S
C1624 C1625 1.391 . S
C1625 H1613 0.950 . S
C1625 C1621 1.393 . S
C1625 C1624 1.391 . S
C1626 H1616 0.950 . S
C1626 C1627 1.386 . S
C1626 C1628 1.391 . S
C1627 C1626 1.386 . S
C1627 C1631 1.393 . S
C1628 H1617 0.950 . S
C1628 C1626 1.391 . S
C1628 C1629 1.400 . S
C1629 C1623 1.491 . S
C1629 C1628 1.400 . S
C1629 C1630 1.398 . S
C1630 H1618 0.950 . S
C1630 C1629 1.398 . S
C1630 C1631 1.391 . S
C1631 H1619 0.950 . S
C1631 C1627 1.393 . S
C1631 C1630 1.391 . S
H1632 C1640 0.950 . S
H1633 C1645 0.933 1_565 S
H1634 C1642 0.950 . S
H1635 C1644 0.950 1_565 S
H1636 C1646 0.950 . S
H1637 C1648 0.951 1_565 S
H1638 C1650 0.950 . S
H1639 C1651 0.950 . S
C1640 H1632 0.950 . S
C1640 C1641 1.386 . S
C1640 C1642 1.391 . S
C1641 C1640 1.386 . S
C1641 C1645 1.414 . S
C1642 H1634 0.950 . S
C1642 C1640 1.391 . S
C1642 C1643 1.400 . S
C1643 C1642 1.400 . S
C1643 C1644 1.398 . S
C1643 C1649 1.491 . S
C1644 H1635 0.950 1_545 S
C1644 C1643 1.398 . S
C1644 C1645 1.388 . S
C1645 H1633 0.933 1_545 S
C1645 C1641 1.414 . S
C1645 C1644 1.388 . S
C1646 H1636 0.950 . S
C1646 C1647 1.386 . S
C1646 C1648 1.391 . S
C1647 C1646 1.386 . S
C1647 C1651 1.393 . S
C1648 H1637 0.951 1_545 S
C1648 C1646 1.391 . S
C1648 C1649 1.400 . S
C1649 C1643 1.491 . S
C1649 C1648 1.400 . S
C1649 C1650 1.398 . S
C1650 H1638 0.950 . S
C1650 C1649 1.398 . S
C1650 C1651 1.391 . S
C1651 H1639 0.950 . S
C1651 C1647 1.393 . S
C1651 C1650 1.391 . S
H1652 C1660 0.950 . S
H1653 C1665 0.950 . S
H1654 C1662 0.950 . S
H1655 C1664 0.950 . S
H1656 C1666 0.950 . S
H1657 C1668 0.950 . S
H1658 C1670 0.950 . S
H1659 C1671 0.950 . S
C1660 H1652 0.950 . S
C1660 C1661 1.386 . S
C1660 C1662 1.391 . S
C1661 C1660 1.386 . S
C1661 C1665 1.393 . S
C1662 H1654 0.950 . S
C1662 C1660 1.391 . S
C1662 C1663 1.400 . S
C1663 C1662 1.400 . S
C1663 C1664 1.398 . S
C1663 C1669 1.491 . S
C1664 H1655 0.950 . S
C1664 C1663 1.398 . S
C1664 C1665 1.391 . S
C1665 H1653 0.950 . S
C1665 C1661 1.393 . S
C1665 C1664 1.391 . S
C1666 H1656 0.950 . S
C1666 C1667 1.386 . S
C1666 C1668 1.391 . S
C1667 C1666 1.386 . S
C1667 C1671 1.393 . S
C1668 H1657 0.950 . S
C1668 C1666 1.391 . S
C1668 C1669 1.400 . S
C1669 C1663 1.491 . S
C1669 C1668 1.400 . S
C1669 C1670 1.398 . S
C1670 H1658 0.950 . S
C1670 C1669 1.398 . S
C1670 C1671 1.391 . S
C1671 H1659 0.950 . S
C1671 C1667 1.393 . S
C1671 C1670 1.391 . S
H1672 C1680 0.950 . S
H1673 C1685 0.950 . S
H1674 C1682 0.950 . S
H1675 C1684 0.950 . S
H1676 C1686 0.950 1_565 S
H1677 C1688 0.906 1_565 S
H1678 C1690 0.950 . S
H1679 C1691 0.950 . S
C1680 H1672 0.950 . S
C1680 C1681 1.386 . S
C1680 C1682 1.391 . S
C1681 C1680 1.386 . S
C1681 C1685 1.393 1_545 S
C1682 H1674 0.950 . S
C1682 C1680 1.391 . S
C1682 C1683 1.400 . S
C1683 C1682 1.400 . S
C1683 C1684 1.398 1_545 S
C1683 C1689 1.491 . S
C1684 H1675 0.950 . S
C1684 C1683 1.398 1_565 S
C1684 C1685 1.391 . S
C1685 H1673 0.950 . S
C1685 C1681 1.393 1_565 S
C1685 C1684 1.391 . S
C1686 H1676 0.950 1_545 S
C1686 C1687 1.386 . S
C1686 C1688 1.411 . S
C1687 C1686 1.386 . S
C1687 C1691 1.393 . S
C1688 H1677 0.906 1_545 S
C1688 C1686 1.411 . S
C1688 C1689 1.424 . S
C1689 C1683 1.491 . S
C1689 C1688 1.424 . S
C1689 C1690 1.398 . S
C1690 H1678 0.950 . S
C1690 C1689 1.398 . S
C1690 C1691 1.391 . S
C1691 H1679 0.950 . S
C1691 C1687 1.393 . S
C1691 C1690 1.391 . S
H1692 C1700 0.950 . S
H1693 C1705 0.950 . S
H1694 C1702 0.950 . S
H1695 C1704 0.950 . S
H1696 C1706 0.950 . S
H1697 C1708 0.950 . S
H1698 C1710 0.950 . S
H1699 C1711 0.950 . S
C1700 H1692 0.950 . S
C1700 C1701 1.386 . S
C1700 C1702 1.391 . S
C1701 C1700 1.386 . S
C1701 C1705 1.393 . S
C1702 H1694 0.950 . S
C1702 C1700 1.391 . S
C1702 C1703 1.400 . S
C1703 C1702 1.400 . S
C1703 C1704 1.398 . S
C1703 C1709 1.491 . S
C1704 H1695 0.950 . S
C1704 C1703 1.398 . S
C1704 C1705 1.391 . S
C1705 H1693 0.950 . S
C1705 C1701 1.393 . S
C1705 C1704 1.391 . S
C1706 H1696 0.950 . S
C1706 C1707 1.386 . S
C1706 C1708 1.391 . S
C1707 C1706 1.386 . S
C1707 C1711 1.393 . S
C1708 H1697 0.950 . S
C1708 C1706 1.391 . S
C1708 C1709 1.400 . S
C1709 C1703 1.491 . S
C1709 C1708 1.400 . S
C1709 C1710 1.398 . S
C1710 H1698 0.950 . S
C1710 C1709 1.398 . S
C1710 C1711 1.391 . S
C1711 H1699 0.950 . S
C1711 C1707 1.393 . S
C1711 C1710 1.391 . S
H1712 C1720 0.960 . S
H1713 C1725 0.950 . S
H1714 C1722 0.950 . S
H1715 C1724 0.950 . S
H1716 C1726 0.950 . S
H1717 C1728 0.950 . S
H1718 C1730 0.948 . S
H1719 C1731 0.950 . S
C1720 H1712 0.960 . S
C1720 C1721 1.387 . S
C1720 C1722 1.389 . S
C1721 C1720 1.387 . S
C1721 C1725 1.385 . S
C1722 H1714 0.950 . S
C1722 C1720 1.389 . S
C1722 C1723 1.400 . S
C1723 C1722 1.400 . S
C1723 C1724 1.398 . S
C1723 C1729 1.491 . S
C1724 H1715 0.950 . S
C1724 C1723 1.398 . S
C1724 C1725 1.391 . S
C1725 H1713 0.950 . S
C1725 C1721 1.385 . S
C1725 C1724 1.391 . S
C1726 H1716 0.950 . S
C1726 C1727 1.386 . S
C1726 C1728 1.391 . S
C1727 C1726 1.386 . S
C1727 C1731 1.393 . S
C1728 H1717 0.950 . S
C1728 C1726 1.391 . S
C1728 C1729 1.400 . S
C1729 C1723 1.491 . S
C1729 C1728 1.400 . S
C1729 C1730 1.398 . S
C1730 H1718 0.948 . S
C1730 C1729 1.398 . S
C1730 C1731 1.391 . S
C1731 H1719 0.950 . S
C1731 C1727 1.393 . S
C1731 C1730 1.391 . S
H1732 C1740 0.950 . S
H1733 C1745 0.950 . S
H1734 C1742 0.950 . S
H1735 C1744 0.950 . S
H1736 C1746 0.950 . S
H1737 C1748 0.950 . S
H1738 C1750 0.950 . S
H1739 C1751 0.950 . S
C1740 H1732 0.950 . S
C1740 C1741 1.386 . S
C1740 C1742 1.391 . S
C1741 C1740 1.386 . S
C1741 C1745 1.393 . S
C1742 H1734 0.950 . S
C1742 C1740 1.391 . S
C1742 C1743 1.400 . S
C1743 C1742 1.400 . S
C1743 C1744 1.398 . S
C1743 C1749 1.491 . S
C1744 H1735 0.950 . S
C1744 C1743 1.398 . S
C1744 C1745 1.391 . S
C1745 H1733 0.950 . S
C1745 C1741 1.393 . S
C1745 C1744 1.391 . S
C1746 H1736 0.950 . S
C1746 C1747 1.386 . S
C1746 C1748 1.391 . S
C1747 C1746 1.386 . S
C1747 C1751 1.393 . S
C1748 H1737 0.950 . S
C1748 C1746 1.391 . S
C1748 C1749 1.400 . S
C1749 C1743 1.491 . S
C1749 C1748 1.400 . S
C1749 C1750 1.398 . S
C1750 H1738 0.950 . S
C1750 C1749 1.398 . S
C1750 C1751 1.391 . S
C1751 H1739 0.950 . S
C1751 C1747 1.393 . S
C1751 C1750 1.391 . S
H1752 C1760 0.950 . S
H1753 C1765 0.950 . S
H1754 C1762 0.950 . S
H1755 C1764 0.949 1_556 S
H1756 C1766 0.950 . S
H1757 C1768 0.950 . S
H1758 C1770 0.950 . S
H1759 C1771 0.950 . S
C1760 H1752 0.950 . S
C1760 C1761 1.386 . S
C1760 C1762 1.391 . S
C1761 C1760 1.386 . S
C1761 C1765 1.393 . S
C1762 H1754 0.950 . S
C1762 C1760 1.391 . S
C1762 C1763 1.400 . S
C1763 C1762 1.400 . S
C1763 C1764 1.398 . S
C1763 C1769 1.491 . S
C1764 H1755 0.949 1_554 S
C1764 C1763 1.398 . S
C1764 C1765 1.391 . S
C1765 H1753 0.950 . S
C1765 C1761 1.393 . S
C1765 C1764 1.391 . S
C1766 H1756 0.950 . S
C1766 C1767 1.386 . S
C1766 C1768 1.391 . S
C1767 C1766 1.386 . S
C1767 C1771 1.393 1_556 S
C1768 H1757 0.950 . S
C1768 C1766 1.391 . S
C1768 C1769 1.400 1_556 S
C1769 C1763 1.491 . S
C1769 C1768 1.400 1_554 S
C1769 C1770 1.398 . S
C1770 H1758 0.950 . S
C1770 C1769 1.398 . S
C1770 C1771 1.391 . S
C1771 H1759 0.950 . S
C1771 C1767 1.393 1_554 S
C1771 C1770 1.391 . S
H1772 C1780 0.950 . S
H1773 C1785 0.950 1_556 S
H1774 C1782 0.950 . S
H1775 C1784 0.950 1_556 S
H1776 C1786 0.950 1_556 S
H1777 C1788 0.950 1_556 S
H1778 C1790 0.950 . S
H1779 C1791 0.950 . S
C1780 H1772 0.950 . S
C1780 C1781 1.386 . S
C1780 C1782 1.391 . S
C1781 C1780 1.386 . S
C1781 C1785 1.393 . S
C1782 H1774 0.950 . S
C1782 C1780 1.391 . S
C1782 C1783 1.400 . S
C1783 C1782 1.400 . S
C1783 C1784 1.398 . S
C1783 C1789 1.491 . S
C1784 H1775 0.950 1_554 S
C1784 C1783 1.398 . S
C1784 C1785 1.391 . S
C1785 H1773 0.950 1_554 S
C1785 C1781 1.393 . S
C1785 C1784 1.391 . S
C1786 H1776 0.950 1_554 S
C1786 C1787 1.386 . S
C1786 C1788 1.391 . S
C1787 C1786 1.386 . S
C1787 C1791 1.393 . S
C1788 H1777 0.950 1_554 S
C1788 C1786 1.391 . S
C1788 C1789 1.400 . S
C1789 C1783 1.491 . S
C1789 C1788 1.400 . S
C1789 C1790 1.398 . S
C1790 H1778 0.950 . S
C1790 C1789 1.398 . S
C1790 C1791 1.391 . S
C1791 H1779 0.950 . S
C1791 C1787 1.393 . S
C1791 C1790 1.391 . S
H1792 C1800 0.950 . S
H1793 C1805 0.950 . S
H1794 C1802 0.950 . S
H1795 C1804 0.950 . S
H1796 C1806 0.950 . S
H1797 C1808 0.950 . S
H1798 C1810 0.950 . S
H1799 C1811 0.950 . S
C1800 H1792 0.950 . S
C1800 C1801 1.386 . S
C1800 C1802 1.391 . S
C1801 C1800 1.386 . S
C1801 C1805 1.393 . S
C1802 H1794 0.950 . S
C1802 C1800 1.391 . S
C1802 C1803 1.400 . S
C1803 C1802 1.400 . S
C1803 C1804 1.398 . S
C1803 C1809 1.491 . S
C1804 H1795 0.950 . S
C1804 C1803 1.398 . S
C1804 C1805 1.391 . S
C1805 H1793 0.950 . S
C1805 C1801 1.393 . S
C1805 C1804 1.391 . S
C1806 H1796 0.950 . S
C1806 C1807 1.386 . S
C1806 C1808 1.391 . S
C1807 C1806 1.386 . S
C1807 C1811 1.393 . S
C1808 H1797 0.950 . S
C1808 C1806 1.391 . S
C1808 C1809 1.400 . S
C1809 C1803 1.491 . S
C1809 C1808 1.400 . S
C1809 C1810 1.398 . S
C1810 H1798 0.950 . S
C1810 C1809 1.398 . S
C1810 C1811 1.391 . S
C1811 H1799 0.950 . S
C1811 C1807 1.393 . S
C1811 C1810 1.391 . S
H1812 C1820 0.950 . S
H1813 C1825 0.950 . S
H1814 C1822 0.950 . S
H1815 C1824 0.950 . S
H1816 C1826 0.950 . S
H1817 C1828 0.950 . S
H1818 C1830 0.950 . S
H1819 C1831 0.950 . S
C1820 H1812 0.950 . S
C1820 C1821 1.386 . S
C1820 C1822 1.391 . S
C1821 C1820 1.386 . S
C1821 C1825 1.393 . S
C1822 H1814 0.950 . S
C1822 C1820 1.391 . S
C1822 C1823 1.400 . S
C1823 C1822 1.400 . S
C1823 C1824 1.398 . S
C1823 C1829 1.491 . S
C1824 H1815 0.950 . S
C1824 C1823 1.398 . S
C1824 C1825 1.391 . S
C1825 H1813 0.950 . S
C1825 C1821 1.393 . S
C1825 C1824 1.391 . S
C1826 H1816 0.950 . S
C1826 C1827 1.386 . S
C1826 C1828 1.391 . S
C1827 C1826 1.386 . S
C1827 C1831 1.393 . S
C1828 H1817 0.950 . S
C1828 C1826 1.391 . S
C1828 C1829 1.400 . S
C1829 C1823 1.491 . S
C1829 C1828 1.400 . S
C1829 C1830 1.398 . S
C1830 H1818 0.950 . S
C1830 C1829 1.398 . S
C1830 C1831 1.391 . S
C1831 H1819 0.950 . S
C1831 C1827 1.393 . S
C1831 C1830 1.391 . S
H1832 C1840 0.950 . S
H1833 C1845 0.950 . S
H1834 C1842 0.950 . S
H1835 C1844 0.950 . S
H1836 C1846 0.950 . S
H1837 C1848 0.950 . S
H1838 C1850 0.950 . S
H1839 C1851 0.950 . S
C1840 H1832 0.950 . S
C1840 C1841 1.386 . S
C1840 C1842 1.391 1_545 S
C1841 C1840 1.386 . S
C1841 C1845 1.393 1_545 S
C1842 H1834 0.950 . S
C1842 C1840 1.391 1_565 S
C1842 C1843 1.400 . S
C1843 C1842 1.400 . S
C1843 C1844 1.398 . S
C1843 C1849 1.491 . S
C1844 H1835 0.950 . S
C1844 C1843 1.398 . S
C1844 C1845 1.391 . S
C1845 H1833 0.950 . S
C1845 C1841 1.393 1_565 S
C1845 C1844 1.391 . S
C1846 H1836 0.950 . S
C1846 C1847 1.386 . S
C1846 C1848 1.391 . S
C1847 C1846 1.386 . S
C1847 C1851 1.393 . S
C1848 H1837 0.950 . S
C1848 C1846 1.391 . S
C1848 C1849 1.400 . S
C1849 C1843 1.491 . S
C1849 C1848 1.400 . S
C1849 C1850 1.398 . S
C1850 H1838 0.950 . S
C1850 C1849 1.398 . S
C1850 C1851 1.391 . S
C1851 H1839 0.950 . S
C1851 C1847 1.393 . S
C1851 C1850 1.391 . S
H1852 C1860 0.950 . S
H1853 C1865 0.950 . S
H1854 C1862 0.950 . S
H1855 C1864 0.950 . S
H1856 C1866 0.950 . S
H1857 C1868 0.950 . S
H1858 C1870 0.950 . S
H1859 C1871 0.950 . S
C1860 H1852 0.950 . S
C1860 C1861 1.386 . S
C1860 C1862 1.391 . S
C1861 C1860 1.386 . S
C1861 C1865 1.393 . S
C1862 H1854 0.950 . S
C1862 C1860 1.391 . S
C1862 C1863 1.400 . S
C1863 C1862 1.400 . S
C1863 C1864 1.398 . S
C1863 C1869 1.491 . S
C1864 H1855 0.950 . S
C1864 C1863 1.398 . S
C1864 C1865 1.391 . S
C1865 H1853 0.950 . S
C1865 C1861 1.393 . S
C1865 C1864 1.391 . S
C1866 H1856 0.950 . S
C1866 C1867 1.386 . S
C1866 C1868 1.391 . S
C1867 C1866 1.386 . S
C1867 C1871 1.393 . S
C1868 H1857 0.950 . S
C1868 C1866 1.391 . S
C1868 C1869 1.400 . S
C1869 C1863 1.491 . S
C1869 C1868 1.400 . S
C1869 C1870 1.398 . S
C1870 H1858 0.950 . S
C1870 C1869 1.398 . S
C1870 C1871 1.391 . S
C1871 H1859 0.950 . S
C1871 C1867 1.393 . S
C1871 C1870 1.391 . S
H1872 C1880 0.950 . S
H1873 C1885 0.950 . S
H1874 C1882 0.950 . S
H1875 C1884 0.950 . S
H1876 C1886 0.950 . S
H1877 C1888 0.950 . S
H1878 C1890 0.950 . S
H1879 C1891 0.950 . S
C1880 H1872 0.950 . S
C1880 C1881 1.386 . S
C1880 C1882 1.391 . S
C1881 C1880 1.386 . S
C1881 C1885 1.393 . S
C1882 H1874 0.950 . S
C1882 C1880 1.391 . S
C1882 C1883 1.400 . S
C1883 C1882 1.400 . S
C1883 C1884 1.398 . S
C1883 C1889 1.491 . S
C1884 H1875 0.950 . S
C1884 C1883 1.398 . S
C1884 C1885 1.391 . S
C1885 H1873 0.950 . S
C1885 C1881 1.393 . S
C1885 C1884 1.391 . S
C1886 H1876 0.950 . S
C1886 C1887 1.386 . S
C1886 C1888 1.391 . S
C1887 C1886 1.386 . S
C1887 C1891 1.393 . S
C1888 H1877 0.950 . S
C1888 C1886 1.391 . S
C1888 C1889 1.400 . S
C1889 C1883 1.491 . S
C1889 C1888 1.400 . S
C1889 C1890 1.398 . S
C1890 H1878 0.950 . S
C1890 C1889 1.398 . S
C1890 C1891 1.391 . S
C1891 H1879 0.950 . S
C1891 C1887 1.393 . S
C1891 C1890 1.391 . S
H1892 C1900 0.950 . S
H1893 C1905 0.950 . S
H1894 C1902 0.950 . S
H1895 C1904 0.950 . S
H1896 C1906 0.950 . S
H1897 C1908 0.950 . S
H1898 C1910 0.950 . S
H1899 C1911 0.950 . S
C1900 H1892 0.950 . S
C1900 C1901 1.386 . S
C1900 C1902 1.391 . S
C1901 C1900 1.386 . S
C1901 C1905 1.393 . S
C1902 H1894 0.950 . S
C1902 C1900 1.391 . S
C1902 C1903 1.400 . S
C1903 C1902 1.400 . S
C1903 C1904 1.398 . S
C1903 C1909 1.491 . S
C1904 H1895 0.950 . S
C1904 C1903 1.398 . S
C1904 C1905 1.391 . S
C1905 H1893 0.950 . S
C1905 C1901 1.393 . S
C1905 C1904 1.391 . S
C1906 H1896 0.950 . S
C1906 C1907 1.386 . S
C1906 C1908 1.391 . S
C1907 C1906 1.386 . S
C1907 C1911 1.393 . S
C1908 H1897 0.950 . S
C1908 C1906 1.391 . S
C1908 C1909 1.400 . S
C1909 C1903 1.491 . S
C1909 C1908 1.400 . S
C1909 C1910 1.398 . S
C1910 H1898 0.950 . S
C1910 C1909 1.398 . S
C1910 C1911 1.391 . S
C1911 H1899 0.950 . S
C1911 C1907 1.393 . S
C1911 C1910 1.391 . S
H1912 C1920 0.950 . S
H1913 C1925 0.950 . S
H1914 C1922 0.950 . S
H1915 C1924 0.950 . S
H1916 C1926 0.950 . S
H1917 C1928 0.950 . S
H1918 C1930 0.950 . S
H1919 C1931 0.950 . S
C1920 H1912 0.950 . S
C1920 C1921 1.386 . S
C1920 C1922 1.391 . S
C1921 C1920 1.386 . S
C1921 C1925 1.393 . S
C1922 H1914 0.950 . S
C1922 C1920 1.391 . S
C1922 C1923 1.400 . S
C1923 C1922 1.400 . S
C1923 C1924 1.398 . S
C1923 C1929 1.491 . S
C1924 H1915 0.950 . S
C1924 C1923 1.398 . S
C1924 C1925 1.391 . S
C1925 H1913 0.950 . S
C1925 C1921 1.393 . S
C1925 C1924 1.391 . S
C1926 H1916 0.950 . S
C1926 C1927 1.386 . S
C1926 C1928 1.391 . S
C1927 C1926 1.386 . S
C1927 C1931 1.393 . S
C1928 H1917 0.950 . S
C1928 C1926 1.391 . S
C1928 C1929 1.400 . S
C1929 C1923 1.491 . S
C1929 C1928 1.400 . S
C1929 C1930 1.398 . S
C1930 H1918 0.950 . S
C1930 C1929 1.398 . S
C1930 C1931 1.391 . S
C1931 H1919 0.950 . S
C1931 C1927 1.393 . S
C1931 C1930 1.391 . S
H1932 C1940 0.950 . S
H1933 C1945 0.950 . S
H1934 C1942 0.950 . S
H1935 C1944 0.950 . S
H1936 C1946 0.950 . S
H1937 C1948 0.950 . S
H1938 C1950 0.950 . S
H1939 C1951 0.950 . S
C1940 H1932 0.950 . S
C1940 C1941 1.386 . S
C1940 C1942 1.391 . S
C1941 C1940 1.386 . S
C1941 C1945 1.393 . S
C1942 H1934 0.950 . S
C1942 C1940 1.391 . S
C1942 C1943 1.400 . S
C1943 C1942 1.400 . S
C1943 C1944 1.398 . S
C1943 C1949 1.491 . S
C1944 H1935 0.950 . S
C1944 C1943 1.398 . S
C1944 C1945 1.391 . S
C1945 H1933 0.950 . S
C1945 C1941 1.393 . S
C1945 C1944 1.391 . S
C1946 H1936 0.950 . S
C1946 C1947 1.386 . S
C1946 C1948 1.391 . S
C1947 C1946 1.386 . S
C1947 C1951 1.393 . S
C1948 H1937 0.950 . S
C1948 C1946 1.391 . S
C1948 C1949 1.400 . S
C1949 C1943 1.491 . S
C1949 C1948 1.400 . S
C1949 C1950 1.398 . S
C1950 H1938 0.950 . S
C1950 C1949 1.398 . S
C1950 C1951 1.391 . S
C1951 H1939 0.950 . S
C1951 C1947 1.393 . S
C1951 C1950 1.391 . S
H1952 C1960 0.950 . S
H1953 C1965 0.950 . S
H1954 C1962 0.950 . S
H1955 C1964 0.950 . S
H1956 C1966 0.950 . S
H1957 C1968 0.950 1_554 S
H1958 C1970 0.950 . S
H1959 C1971 0.950 . S
C1960 H1952 0.950 . S
C1960 C1961 1.386 . S
C1960 C1962 1.391 . S
C1961 C1960 1.386 . S
C1961 C1965 1.393 . S
C1962 H1954 0.950 . S
C1962 C1960 1.391 . S
C1962 C1963 1.400 . S
C1963 C1962 1.400 . S
C1963 C1964 1.398 . S
C1963 C1969 1.491 . S
C1964 H1955 0.950 . S
C1964 C1963 1.398 . S
C1964 C1965 1.391 . S
C1965 H1953 0.950 . S
C1965 C1961 1.393 . S
C1965 C1964 1.391 . S
C1966 H1956 0.950 . S
C1966 C1967 1.386 1_554 S
C1966 C1968 1.391 1_554 S
C1967 C1966 1.386 1_556 S
C1967 C1971 1.393 . S
C1968 H1957 0.950 1_556 S
C1968 C1966 1.391 1_556 S
C1968 C1969 1.400 . S
C1969 C1963 1.491 . S
C1969 C1968 1.400 . S
C1969 C1970 1.398 . S
C1970 H1958 0.950 . S
C1970 C1969 1.398 . S
C1970 C1971 1.391 . S
C1971 H1959 0.950 . S
C1971 C1967 1.393 . S
C1971 C1970 1.391 . S
H1972 C1980 0.950 . S
H1973 C1985 0.950 . S
H1974 C1982 0.950 . S
H1975 C1984 0.950 . S
H1976 C1986 0.950 . S
H1977 C1988 0.950 . S
H1978 C1990 0.950 . S
H1979 C1991 0.950 . S
C1980 H1972 0.950 . S
C1980 C1981 1.386 . S
C1980 C1982 1.391 1_455 S
C1981 C1980 1.386 . S
C1981 C1985 1.393 . S
C1982 H1974 0.950 . S
C1982 C1980 1.391 1_655 S
C1982 C1983 1.400 . S
C1983 C1982 1.400 . S
C1983 C1984 1.398 . S
C1983 C1989 1.491 . S
C1984 H1975 0.950 . S
C1984 C1983 1.398 . S
C1984 C1985 1.391 1_655 S
C1985 H1973 0.950 . S
C1985 C1981 1.393 . S
C1985 C1984 1.391 1_455 S
C1986 H1976 0.950 . S
C1986 C1987 1.386 . S
C1986 C1988 1.391 . S
C1987 C1986 1.386 . S
C1987 C1991 1.393 . S
C1988 H1977 0.950 . S
C1988 C1986 1.391 . S
C1988 C1989 1.400 . S
C1989 C1983 1.491 . S
C1989 C1988 1.400 . S
C1989 C1990 1.398 . S
C1990 H1978 0.950 . S
C1990 C1989 1.398 . S
C1990 C1991 1.391 . S
C1991 H1979 0.950 . S
C1991 C1987 1.393 . S
C1991 C1990 1.391 . S
H1992 C2000 0.950 . S
H1993 C2005 0.950 . S
H1994 C2002 0.950 . S
H1995 C2004 0.950 . S
H1996 C2006 0.950 . S
H1997 C2008 0.950 . S
H1998 C2010 0.950 . S
H1999 C2011 0.950 . S
C2000 H1992 0.950 . S
C2000 C2001 1.386 . S
C2000 C2002 1.391 . S
C2001 C2000 1.386 . S
C2001 C2005 1.393 . S
C2002 H1994 0.950 . S
C2002 C2000 1.391 . S
C2002 C2003 1.400 . S
C2003 C2002 1.400 . S
C2003 C2004 1.398 . S
C2003 C2009 1.491 . S
C2004 H1995 0.950 . S
C2004 C2003 1.398 . S
C2004 C2005 1.391 . S
C2005 H1993 0.950 . S
C2005 C2001 1.393 . S
C2005 C2004 1.391 . S
C2006 H1996 0.950 . S
C2006 C2007 1.386 . S
C2006 C2008 1.391 . S
C2007 C2006 1.386 . S
C2007 C2011 1.393 . S
C2008 H1997 0.950 . S
C2008 C2006 1.391 . S
C2008 C2009 1.400 . S
C2009 C2003 1.491 . S
C2009 C2008 1.400 . S
C2009 C2010 1.398 . S
C2010 H1998 0.950 . S
C2010 C2009 1.398 . S
C2010 C2011 1.391 . S
C2011 H1999 0.950 . S
C2011 C2007 1.393 . S
C2011 C2010 1.391 . S
H2012 C2020 0.950 . S
H2013 C2025 0.950 . S
H2014 C2022 0.950 . S
H2015 C2024 0.950 1_655 S
H2016 C2026 0.950 . S
H2017 C2028 0.950 . S
H2018 C2030 0.950 . S
H2019 C2031 0.950 . S
C2020 H2012 0.950 . S
C2020 C2021 1.386 . S
C2020 C2022 1.391 . S
C2021 C2020 1.386 . S
C2021 C2025 1.393 . S
C2022 H2014 0.950 . S
C2022 C2020 1.391 . S
C2022 C2023 1.400 . S
C2023 C2022 1.400 . S
C2023 C2024 1.398 . S
C2023 C2029 1.491 1_455 S
C2024 H2015 0.950 1_455 S
C2024 C2023 1.398 . S
C2024 C2025 1.391 . S
C2025 H2013 0.950 . S
C2025 C2021 1.393 . S
C2025 C2024 1.391 . S
C2026 H2016 0.950 . S
C2026 C2027 1.386 . S
C2026 C2028 1.391 . S
C2027 C2026 1.386 . S
C2027 C2031 1.393 . S
C2028 H2017 0.950 . S
C2028 C2026 1.391 . S
C2028 C2029 1.400 . S
C2029 C2023 1.491 1_655 S
C2029 C2028 1.400 . S
C2029 C2030 1.398 . S
C2030 H2018 0.950 . S
C2030 C2029 1.398 . S
C2030 C2031 1.391 . S
C2031 H2019 0.950 . S
C2031 C2027 1.393 . S
C2031 C2030 1.391 . S
H2032 C2040 0.950 . S
H2033 C2045 0.950 . S
H2034 C2042 0.950 . S
H2035 C2044 0.950 . S
H2036 C2046 0.950 . S
H2037 C2048 0.950 . S
H2038 C2050 0.950 . S
H2039 C2051 0.950 . S
C2040 H2032 0.950 . S
C2040 C2041 1.386 . S
C2040 C2042 1.391 . S
C2041 C2040 1.386 . S
C2041 C2045 1.393 1_655 S
C2042 H2034 0.950 . S
C2042 C2040 1.391 . S
C2042 C2043 1.400 1_655 S
C2043 C2042 1.400 1_455 S
C2043 C2044 1.398 . S
C2043 C2049 1.491 . S
C2044 H2035 0.950 . S
C2044 C2043 1.398 . S
C2044 C2045 1.391 . S
C2045 H2033 0.950 . S
C2045 C2041 1.393 1_455 S
C2045 C2044 1.391 . S
C2046 H2036 0.950 . S
C2046 C2047 1.386 . S
C2046 C2048 1.391 . S
C2047 C2046 1.386 . S
C2047 C2051 1.393 . S
C2048 H2037 0.950 . S
C2048 C2046 1.391 . S
C2048 C2049 1.400 . S
C2049 C2043 1.491 . S
C2049 C2048 1.400 . S
C2049 C2050 1.398 . S
C2050 H2038 0.950 . S
C2050 C2049 1.398 . S
C2050 C2051 1.391 . S
C2051 H2039 0.950 . S
C2051 C2047 1.393 . S
C2051 C2050 1.391 . S
H2052 C2060 0.950 . S
H2053 C2065 0.950 . S
H2054 C2062 0.950 . S
H2055 C2064 0.950 . S
H2056 C2066 0.950 . S
H2057 C2068 0.950 . S
H2058 C2070 0.950 . S
H2059 C2071 0.950 . S
C2060 H2052 0.950 . S
C2060 C2061 1.386 . S
C2060 C2062 1.391 . S
C2061 C2060 1.386 . S
C2061 C2065 1.393 . S
C2062 H2054 0.950 . S
C2062 C2060 1.391 . S
C2062 C2063 1.400 . S
C2063 C2062 1.400 . S
C2063 C2064 1.398 . S
C2063 C2069 1.491 . S
C2064 H2055 0.950 . S
C2064 C2063 1.398 . S
C2064 C2065 1.391 . S
C2065 H2053 0.950 . S
C2065 C2061 1.393 . S
C2065 C2064 1.391 . S
C2066 H2056 0.950 . S
C2066 C2067 1.386 . S
C2066 C2068 1.391 . S
C2067 C2066 1.386 . S
C2067 C2071 1.393 . S
C2068 H2057 0.950 . S
C2068 C2066 1.391 . S
C2068 C2069 1.400 . S
C2069 C2063 1.491 . S
C2069 C2068 1.400 . S
C2069 C2070 1.398 . S
C2070 H2058 0.950 . S
C2070 C2069 1.398 . S
C2070 C2071 1.391 . S
C2071 H2059 0.950 . S
C2071 C2067 1.393 . S
C2071 C2070 1.391 . S
H2072 C2080 0.950 . S
H2073 C2085 0.950 . S
H2074 C2082 0.950 . S
H2075 C2084 0.950 . S
H2076 C2086 0.950 . S
H2077 C2088 0.950 . S
H2078 C2090 0.950 . S
H2079 C2091 0.950 . S
C2080 H2072 0.950 . S
C2080 C2081 1.386 . S
C2080 C2082 1.391 . S
C2081 C2080 1.386 . S
C2081 C2085 1.393 . S
C2082 H2074 0.950 . S
C2082 C2080 1.391 . S
C2082 C2083 1.400 . S
C2083 C2082 1.400 . S
C2083 C2084 1.398 . S
C2083 C2089 1.491 . S
C2084 H2075 0.950 . S
C2084 C2083 1.398 . S
C2084 C2085 1.391 . S
C2085 H2073 0.950 . S
C2085 C2081 1.393 . S
C2085 C2084 1.391 . S
C2086 H2076 0.950 . S
C2086 C2087 1.386 . S
C2086 C2088 1.391 . S
C2087 C2086 1.386 . S
C2087 C2091 1.393 . S
C2088 H2077 0.950 . S
C2088 C2086 1.391 . S
C2088 C2089 1.400 . S
C2089 C2083 1.491 . S
C2089 C2088 1.400 . S
C2089 C2090 1.398 . S
C2090 H2078 0.950 . S
C2090 C2089 1.398 . S
C2090 C2091 1.391 . S
C2091 H2079 0.950 . S
C2091 C2087 1.393 . S
C2091 C2090 1.391 . S
H2092 C2100 0.950 . S
H2093 C2105 0.950 . S
H2094 C2102 0.950 . S
H2095 C2104 0.950 . S
H2096 C2106 0.950 . S
H2097 C2108 0.950 . S
H2098 C2110 0.950 . S
H2099 C2111 0.950 . S
C2100 H2092 0.950 . S
C2100 C2101 1.386 . S
C2100 C2102 1.391 . S
C2101 C2100 1.386 . S
C2101 C2105 1.393 . S
C2102 H2094 0.950 . S
C2102 C2100 1.391 . S
C2102 C2103 1.400 . S
C2103 C2102 1.400 . S
C2103 C2104 1.398 . S
C2103 C2109 1.491 . S
C2104 H2095 0.950 . S
C2104 C2103 1.398 . S
C2104 C2105 1.391 . S
C2105 H2093 0.950 . S
C2105 C2101 1.393 . S
C2105 C2104 1.391 . S
C2106 H2096 0.950 . S
C2106 C2107 1.386 . S
C2106 C2108 1.391 . S
C2107 C2106 1.386 . S
C2107 C2111 1.393 . S
C2108 H2097 0.950 . S
C2108 C2106 1.391 . S
C2108 C2109 1.400 . S
C2109 C2103 1.491 . S
C2109 C2108 1.400 . S
C2109 C2110 1.398 . S
C2110 H2098 0.950 . S
C2110 C2109 1.398 . S
C2110 C2111 1.391 . S
C2111 H2099 0.950 . S
C2111 C2107 1.393 . S
C2111 C2110 1.391 . S
H2112 C2120 0.950 . S
H2113 C2125 0.950 . S
H2114 C2122 0.950 . S
H2115 C2124 0.950 . S
H2116 C2126 0.950 . S
H2117 C2128 0.950 . S
H2118 C2130 0.950 . S
H2119 C2131 0.950 . S
C2120 H2112 0.950 . S
C2120 C2121 1.386 . S
C2120 C2122 1.391 . S
C2121 C2120 1.386 . S
C2121 C2125 1.393 . S
C2122 H2114 0.950 . S
C2122 C2120 1.391 . S
C2122 C2123 1.400 . S
C2123 C2122 1.400 . S
C2123 C2124 1.398 . S
C2123 C2129 1.491 . S
C2124 H2115 0.950 . S
C2124 C2123 1.398 . S
C2124 C2125 1.391 . S
C2125 H2113 0.950 . S
C2125 C2121 1.393 . S
C2125 C2124 1.391 . S
C2126 H2116 0.950 . S
C2126 C2127 1.386 . S
C2126 C2128 1.391 . S
C2127 C2126 1.386 . S
C2127 C2131 1.393 . S
C2128 H2117 0.950 . S
C2128 C2126 1.391 . S
C2128 C2129 1.400 . S
C2129 C2123 1.491 . S
C2129 C2128 1.400 . S
C2129 C2130 1.398 . S
C2130 H2118 0.950 . S
C2130 C2129 1.398 . S
C2130 C2131 1.391 . S
C2131 H2119 0.950 . S
C2131 C2127 1.393 . S
C2131 C2130 1.391 . S
H2132 C2140 0.950 . S
H2133 C2145 0.950 . S
H2134 C2142 0.950 . S
H2135 C2144 0.950 . S
H2136 C2146 0.950 . S
H2137 C2148 0.950 . S
H2138 C2150 0.950 . S
H2139 C2151 0.950 . S
C2140 H2132 0.950 . S
C2140 C2141 1.386 . S
C2140 C2142 1.391 . S
C2141 C2140 1.386 . S
C2141 C2145 1.393 . S
C2142 H2134 0.950 . S
C2142 C2140 1.391 . S
C2142 C2143 1.400 . S
C2143 C2142 1.400 . S
C2143 C2144 1.398 . S
C2143 C2149 1.491 . S
C2144 H2135 0.950 . S
C2144 C2143 1.398 . S
C2144 C2145 1.391 . S
C2145 H2133 0.950 . S
C2145 C2141 1.393 . S
C2145 C2144 1.391 . S
C2146 H2136 0.950 . S
C2146 C2147 1.386 . S
C2146 C2148 1.391 . S
C2147 C2146 1.386 . S
C2147 C2151 1.393 . S
C2148 H2137 0.950 . S
C2148 C2146 1.391 . S
C2148 C2149 1.400 . S
C2149 C2143 1.491 . S
C2149 C2148 1.400 . S
C2149 C2150 1.398 . S
C2150 H2138 0.950 . S
C2150 C2149 1.398 . S
C2150 C2151 1.391 . S
C2151 H2139 0.950 . S
C2151 C2147 1.393 . S
C2151 C2150 1.391 . S
H2152 C2160 0.950 . S
H2153 C2165 0.950 . S
H2154 C2162 0.950 . S
H2155 C2164 0.950 . S
H2156 C2166 0.950 . S
H2157 C2168 0.950 . S
H2158 C2170 0.950 . S
H2159 C2171 0.950 . S
C2160 H2152 0.950 . S
C2160 C2161 1.386 . S
C2160 C2162 1.391 . S
C2161 C2160 1.386 . S
C2161 C2165 1.393 . S
C2162 H2154 0.950 . S
C2162 C2160 1.391 . S
C2162 C2163 1.400 . S
C2163 C2162 1.400 . S
C2163 C2164 1.398 . S
C2163 C2169 1.491 . S
C2164 H2155 0.950 . S
C2164 C2163 1.398 . S
C2164 C2165 1.391 . S
C2165 H2153 0.950 . S
C2165 C2161 1.393 . S
C2165 C2164 1.391 . S
C2166 H2156 0.950 . S
C2166 C2167 1.386 . S
C2166 C2168 1.391 . S
C2167 C2166 1.386 . S
C2167 C2171 1.393 . S
C2168 H2157 0.950 . S
C2168 C2166 1.391 . S
C2168 C2169 1.400 . S
C2169 C2163 1.491 . S
C2169 C2168 1.400 . S
C2169 C2170 1.398 . S
C2170 H2158 0.950 . S
C2170 C2169 1.398 . S
C2170 C2171 1.391 . S
C2171 H2159 0.950 . S
C2171 C2167 1.393 . S
C2171 C2170 1.391 . S
H2172 C2180 0.950 . S
H2173 C2185 0.950 . S
H2174 C2182 0.950 . S
H2175 C2184 0.950 . S
H2176 C2186 0.950 . S
H2177 C2188 0.950 . S
H2178 C2190 0.950 . S
H2179 C2191 0.950 . S
C2180 H2172 0.950 . S
C2180 C2181 1.386 . S
C2180 C2182 1.391 . S
C2181 C2180 1.386 . S
C2181 C2185 1.393 . S
C2182 H2174 0.950 . S
C2182 C2180 1.391 . S
C2182 C2183 1.400 . S
C2183 C2182 1.400 . S
C2183 C2184 1.398 . S
C2183 C2189 1.491 . S
C2184 H2175 0.950 . S
C2184 C2183 1.398 . S
C2184 C2185 1.391 . S
C2185 H2173 0.950 . S
C2185 C2181 1.393 . S
C2185 C2184 1.391 . S
C2186 H2176 0.950 . S
C2186 C2187 1.386 . S
C2186 C2188 1.391 . S
C2187 C2186 1.386 . S
C2187 C2191 1.393 . S
C2188 H2177 0.950 . S
C2188 C2186 1.391 . S
C2188 C2189 1.400 . S
C2189 C2183 1.491 . S
C2189 C2188 1.400 . S
C2189 C2190 1.398 . S
C2190 H2178 0.950 . S
C2190 C2189 1.398 . S
C2190 C2191 1.391 . S
C2191 H2179 0.950 . S
C2191 C2187 1.393 . S
C2191 C2190 1.391 . S
H2192 C2200 0.950 . S
H2193 C2205 0.950 . S
H2194 C2202 0.950 . S
H2195 C2204 0.950 . S
H2196 C2206 0.950 . S
H2197 C2208 0.950 . S
H2198 C2210 0.950 . S
H2199 C2211 0.950 . S
C2200 H2192 0.950 . S
C2200 C2201 1.386 . S
C2200 C2202 1.391 . S
C2201 C2200 1.386 . S
C2201 C2205 1.393 . S
C2202 H2194 0.950 . S
C2202 C2200 1.391 . S
C2202 C2203 1.400 . S
C2203 C2202 1.400 . S
C2203 C2204 1.398 . S
C2203 C2209 1.491 . S
C2204 H2195 0.950 . S
C2204 C2203 1.398 . S
C2204 C2205 1.391 . S
C2205 H2193 0.950 . S
C2205 C2201 1.393 . S
C2205 C2204 1.391 . S
C2206 H2196 0.950 . S
C2206 C2207 1.386 . S
C2206 C2208 1.391 . S
C2207 C2206 1.386 . S
C2207 C2211 1.393 . S
C2208 H2197 0.950 . S
C2208 C2206 1.391 . S
C2208 C2209 1.400 . S
C2209 C2203 1.491 . S
C2209 C2208 1.400 . S
C2209 C2210 1.398 . S
C2210 H2198 0.950 . S
C2210 C2209 1.398 . S
C2210 C2211 1.391 . S
C2211 H2199 0.950 . S
C2211 C2207 1.393 . S
C2211 C2210 1.391 . S
H2212 C2220 0.950 . S
H2213 C2225 0.950 . S
H2214 C2222 0.950 . S
H2215 C2224 0.950 . S
H2216 C2226 0.950 . S
H2217 C2228 0.950 . S
H2218 C2230 0.950 . S
H2219 C2231 0.950 . S
C2220 H2212 0.950 . S
C2220 C2221 1.386 . S
C2220 C2222 1.391 . S
C2221 C2220 1.386 . S
C2221 C2225 1.393 . S
C2222 H2214 0.950 . S
C2222 C2220 1.391 . S
C2222 C2223 1.400 . S
C2223 C2222 1.400 . S
C2223 C2224 1.398 . S
C2223 C2229 1.491 . S
C2224 H2215 0.950 . S
C2224 C2223 1.398 . S
C2224 C2225 1.391 . S
C2225 H2213 0.950 . S
C2225 C2221 1.393 . S
C2225 C2224 1.391 . S
C2226 H2216 0.950 . S
C2226 C2227 1.386 . S
C2226 C2228 1.391 . S
C2227 C2226 1.386 . S
C2227 C2231 1.393 . S
C2228 H2217 0.950 . S
C2228 C2226 1.391 . S
C2228 C2229 1.400 . S
C2229 C2223 1.491 . S
C2229 C2228 1.400 . S
C2229 C2230 1.398 . S
C2230 H2218 0.950 . S
C2230 C2229 1.398 . S
C2230 C2231 1.391 . S
C2231 H2219 0.950 . S
C2231 C2227 1.393 . S
C2231 C2230 1.391 . S
H2232 C2240 0.950 . S
H2233 C2245 0.950 . S
H2234 C2242 0.950 . S
H2235 C2244 0.950 . S
H2236 C2246 0.950 . S
H2237 C2248 0.950 . S
H2238 C2250 0.950 . S
H2239 C2251 0.950 . S
C2240 H2232 0.950 . S
C2240 C2241 1.386 . S
C2240 C2242 1.391 . S
C2241 C2240 1.386 . S
C2241 C2245 1.393 . S
C2242 H2234 0.950 . S
C2242 C2240 1.391 . S
C2242 C2243 1.400 . S
C2243 C2242 1.400 . S
C2243 C2244 1.398 . S
C2243 C2249 1.491 . S
C2244 H2235 0.950 . S
C2244 C2243 1.398 . S
C2244 C2245 1.391 . S
C2245 H2233 0.950 . S
C2245 C2241 1.393 . S
C2245 C2244 1.391 . S
C2246 H2236 0.950 . S
C2246 C2247 1.386 . S
C2246 C2248 1.391 . S
C2247 C2246 1.386 . S
C2247 C2251 1.393 . S
C2248 H2237 0.950 . S
C2248 C2246 1.391 . S
C2248 C2249 1.400 . S
C2249 C2243 1.491 . S
C2249 C2248 1.400 . S
C2249 C2250 1.398 . S
C2250 H2238 0.950 . S
C2250 C2249 1.398 . S
C2250 C2251 1.391 . S
C2251 H2239 0.950 . S
C2251 C2247 1.393 . S
C2251 C2250 1.391 . S
H2252 C2260 0.950 . S
H2253 C2265 0.950 . S
H2254 C2262 0.950 . S
H2255 C2264 0.950 . S
H2256 C2266 0.950 . S
H2257 C2268 0.950 . S
H2258 C2270 0.950 . S
H2259 C2271 0.950 . S
C2260 H2252 0.950 . S
C2260 C2261 1.386 . S
C2260 C2262 1.391 . S
C2261 C2260 1.386 . S
C2261 C2265 1.393 . S
C2262 H2254 0.950 . S
C2262 C2260 1.391 . S
C2262 C2263 1.400 . S
C2263 C2262 1.400 . S
C2263 C2264 1.398 . S
C2263 C2269 1.491 . S
C2264 H2255 0.950 . S
C2264 C2263 1.398 . S
C2264 C2265 1.391 . S
C2265 H2253 0.950 . S
C2265 C2261 1.393 . S
C2265 C2264 1.391 . S
C2266 H2256 0.950 . S
C2266 C2267 1.386 . S
C2266 C2268 1.391 . S
C2267 C2266 1.386 . S
C2267 C2271 1.393 . S
C2268 H2257 0.950 . S
C2268 C2266 1.391 . S
C2268 C2269 1.400 . S
C2269 C2263 1.491 . S
C2269 C2268 1.400 . S
C2269 C2270 1.398 . S
C2270 H2258 0.950 . S
C2270 C2269 1.398 . S
C2270 C2271 1.391 . S
C2271 H2259 0.950 . S
C2271 C2267 1.393 . S
C2271 C2270 1.391 . S
H2272 C2280 0.950 . S
H2273 C2285 0.950 . S
H2274 C2282 0.950 . S
H2275 C2284 0.950 . S
H2276 C2286 0.950 . S
H2277 C2288 0.950 . S
H2278 C2290 0.950 . S
H2279 C2291 0.950 . S
C2280 H2272 0.950 . S
C2280 C2281 1.386 . S
C2280 C2282 1.391 . S
C2281 C2280 1.386 . S
C2281 C2285 1.393 . S
C2282 H2274 0.950 . S
C2282 C2280 1.391 . S
C2282 C2283 1.400 . S
C2283 C2282 1.400 . S
C2283 C2284 1.398 . S
C2283 C2289 1.491 . S
C2284 H2275 0.950 . S
C2284 C2283 1.398 . S
C2284 C2285 1.391 . S
C2285 H2273 0.950 . S
C2285 C2281 1.393 . S
C2285 C2284 1.391 . S
C2286 H2276 0.950 . S
C2286 C2287 1.386 . S
C2286 C2288 1.391 . S
C2287 C2286 1.386 . S
C2287 C2291 1.393 . S
C2288 H2277 0.950 . S
C2288 C2286 1.391 . S
C2288 C2289 1.400 . S
C2289 C2283 1.491 . S
C2289 C2288 1.400 . S
C2289 C2290 1.398 . S
C2290 H2278 0.950 . S
C2290 C2289 1.398 . S
C2290 C2291 1.391 . S
C2291 H2279 0.950 . S
C2291 C2287 1.393 . S
C2291 C2290 1.391 . S
H2292 C2300 0.966 1_556 S
H2293 C2305 0.950 . S
H2294 C2302 0.950 1_546 S
H2295 C2304 0.950 . S
H2296 C2306 0.950 . S
H2297 C2308 0.950 . S
H2298 C2310 0.963 . S
H2299 C2311 0.974 . S
C2300 H2292 0.966 1_554 S
C2300 C2301 1.386 . S
C2300 C2302 1.391 . S
C2301 C2300 1.386 . S
C2301 C2305 1.393 . S
C2302 H2294 0.950 1_564 S
C2302 C2300 1.391 . S
C2302 C2303 1.400 . S
C2303 C2302 1.400 . S
C2303 C2304 1.398 . S
C2303 C2309 1.491 . S
C2304 H2295 0.950 . S
C2304 C2303 1.398 . S
C2304 C2305 1.391 . S
C2305 H2293 0.950 . S
C2305 C2301 1.393 . S
C2305 C2304 1.391 . S
C2306 H2296 0.950 . S
C2306 C2307 1.386 1_565 S
C2306 C2308 1.391 . S
C2307 C2306 1.386 1_545 S
C2307 C2311 1.373 1_554 S
C2308 H2297 0.950 . S
C2308 C2306 1.391 . S
C2308 C2309 1.400 . S
C2309 C2303 1.491 . S
C2309 C2308 1.400 . S
C2309 C2310 1.384 1_564 S
C2310 H2298 0.963 . S
C2310 C2309 1.384 1_546 S
C2310 C2311 1.389 . S
C2311 H2299 0.974 . S
C2311 C2307 1.373 1_556 S
C2311 C2310 1.389 . S
H2312 C2320 0.950 . S
H2313 C2325 0.950 . S
H2314 C2322 0.950 . S
H2315 C2324 0.950 . S
H2316 C2326 0.950 . S
H2317 C2328 0.950 . S
H2318 C2330 0.950 . S
H2319 C2331 0.950 . S
C2320 H2312 0.950 . S
C2320 C2321 1.386 . S
C2320 C2322 1.391 . S
C2321 C2320 1.386 . S
C2321 C2325 1.393 . S
C2322 H2314 0.950 . S
C2322 C2320 1.391 . S
C2322 C2323 1.400 . S
C2323 C2322 1.400 . S
C2323 C2324 1.398 . S
C2323 C2329 1.491 . S
C2324 H2315 0.950 . S
C2324 C2323 1.398 . S
C2324 C2325 1.391 . S
C2325 H2313 0.950 . S
C2325 C2321 1.393 . S
C2325 C2324 1.391 . S
C2326 H2316 0.950 . S
C2326 C2327 1.386 . S
C2326 C2328 1.391 . S
C2327 C2326 1.386 . S
C2327 C2331 1.393 . S
C2328 H2317 0.950 . S
C2328 C2326 1.391 . S
C2328 C2329 1.400 . S
C2329 C2323 1.491 . S
C2329 C2328 1.400 . S
C2329 C2330 1.398 . S
C2330 H2318 0.950 . S
C2330 C2329 1.398 . S
C2330 C2331 1.391 . S
C2331 H2319 0.950 . S
C2331 C2327 1.393 . S
C2331 C2330 1.391 . S
H2332 C2340 0.950 . S
H2333 C2345 0.950 . S
H2334 C2342 0.950 . S
H2335 C2344 0.950 . S
H2336 C2346 0.950 . S
H2337 C2348 0.950 . S
H2338 C2350 0.917 1_556 S
H2339 C2351 0.950 . S
C2340 H2332 0.950 . S
C2340 C2341 1.386 1_556 S
C2340 C2342 1.391 . S
C2341 C2340 1.386 1_554 S
C2341 C2345 1.393 . S
C2342 H2334 0.950 . S
C2342 C2340 1.391 . S
C2342 C2343 1.400 1_556 S
C2343 C2342 1.400 1_554 S
C2343 C2344 1.398 . S
C2343 C2349 1.491 . S
C2344 H2335 0.950 . S
C2344 C2343 1.398 . S
C2344 C2345 1.391 . S
C2345 H2333 0.950 . S
C2345 C2341 1.393 . S
C2345 C2344 1.391 . S
C2346 H2336 0.950 . S
C2346 C2347 1.386 . S
C2346 C2348 1.391 . S
C2347 C2346 1.386 . S
C2347 C2351 1.393 . S
C2348 H2337 0.950 . S
C2348 C2346 1.391 . S
C2348 C2349 1.400 . S
C2349 C2343 1.491 . S
C2349 C2348 1.400 . S
C2349 C2350 1.398 . S
C2350 H2338 0.917 1_554 S
C2350 C2349 1.398 . S
C2350 C2351 1.391 . S
C2351 H2339 0.950 . S
C2351 C2347 1.393 . S
C2351 C2350 1.391 . S
H2352 C2360 0.950 . S
H2353 C2365 0.950 . S
H2354 C2362 0.950 . S
H2355 C2364 0.950 . S
H2356 C2366 0.950 . S
H2357 C2368 0.950 . S
H2358 C2370 0.950 . S
H2359 C2371 0.950 . S
C2360 H2352 0.950 . S
C2360 C2361 1.386 . S
C2360 C2362 1.391 . S
C2361 C2360 1.386 . S
C2361 C2365 1.393 . S
C2362 H2354 0.950 . S
C2362 C2360 1.391 . S
C2362 C2363 1.400 . S
C2363 C2362 1.400 . S
C2363 C2364 1.398 . S
C2363 C2369 1.491 . S
C2364 H2355 0.950 . S
C2364 C2363 1.398 . S
C2364 C2365 1.391 . S
C2365 H2353 0.950 . S
C2365 C2361 1.393 . S
C2365 C2364 1.391 . S
C2366 H2356 0.950 . S
C2366 C2367 1.386 . S
C2366 C2368 1.391 . S
C2367 C2366 1.386 . S
C2367 C2371 1.393 . S
C2368 H2357 0.950 . S
C2368 C2366 1.391 . S
C2368 C2369 1.400 . S
C2369 C2363 1.491 . S
C2369 C2368 1.400 . S
C2369 C2370 1.398 . S
C2370 H2358 0.950 . S
C2370 C2369 1.398 . S
C2370 C2371 1.391 . S
C2371 H2359 0.950 . S
C2371 C2367 1.393 . S
C2371 C2370 1.391 . S
H2372 C2380 0.950 . S
H2373 C2385 0.950 . S
H2374 C2382 0.950 . S
H2375 C2384 0.950 . S
H2376 C2386 0.950 . S
H2377 C2388 0.950 . S
H2378 C2390 0.950 . S
H2379 C2391 0.950 . S
C2380 H2372 0.950 . S
C2380 C2381 1.386 . S
C2380 C2382 1.391 . S
C2381 C2380 1.386 . S
C2381 C2385 1.393 . S
C2382 H2374 0.950 . S
C2382 C2380 1.391 . S
C2382 C2383 1.400 . S
C2383 C2382 1.400 . S
C2383 C2384 1.398 . S
C2383 C2389 1.491 . S
C2384 H2375 0.950 . S
C2384 C2383 1.398 . S
C2384 C2385 1.391 . S
C2385 H2373 0.950 . S
C2385 C2381 1.393 . S
C2385 C2384 1.391 . S
C2386 H2376 0.950 . S
C2386 C2387 1.386 . S
C2386 C2388 1.391 . S
C2387 C2386 1.386 . S
C2387 C2391 1.393 . S
C2388 H2377 0.950 . S
C2388 C2386 1.391 . S
C2388 C2389 1.400 . S
C2389 C2383 1.491 . S
C2389 C2388 1.400 . S
C2389 C2390 1.398 . S
C2390 H2378 0.950 . S
C2390 C2389 1.398 . S
C2390 C2391 1.391 . S
C2391 H2379 0.950 . S
C2391 C2387 1.393 . S
C2391 C2390 1.391 . S
H2392 C2400 0.950 . S
H2393 C2405 0.950 . S
H2394 C2402 0.950 . S
H2395 C2404 0.950 . S
H2396 C2406 0.950 . S
H2397 C2408 0.950 . S
H2398 C2410 0.950 . S
H2399 C2411 0.950 . S
C2400 H2392 0.950 . S
C2400 C2401 1.386 . S
C2400 C2402 1.391 . S
C2401 C2400 1.386 . S
C2401 C2405 1.393 . S
C2402 H2394 0.950 . S
C2402 C2400 1.391 . S
C2402 C2403 1.400 . S
C2403 C2402 1.400 . S
C2403 C2404 1.398 . S
C2403 C2409 1.491 . S
C2404 H2395 0.950 . S
C2404 C2403 1.398 . S
C2404 C2405 1.391 . S
C2405 H2393 0.950 . S
C2405 C2401 1.393 . S
C2405 C2404 1.391 . S
C2406 H2396 0.950 . S
C2406 C2407 1.386 . S
C2406 C2408 1.391 . S
C2407 C2406 1.386 . S
C2407 C2411 1.393 . S
C2408 H2397 0.950 . S
C2408 C2406 1.391 . S
C2408 C2409 1.400 . S
C2409 C2403 1.491 . S
C2409 C2408 1.400 . S
C2409 C2410 1.398 . S
C2410 H2398 0.950 . S
C2410 C2409 1.398 . S
C2410 C2411 1.391 . S
C2411 H2399 0.950 . S
C2411 C2407 1.393 . S
C2411 C2410 1.391 . S
H2412 C2420 0.950 . S
H2413 C2425 0.950 . S
H2414 C2422 0.950 . S
H2415 C2424 0.950 . S
H2416 C2426 0.950 . S
H2417 C2428 0.950 . S
H2418 C2430 0.950 . S
H2419 C2431 0.950 . S
C2420 H2412 0.950 . S
C2420 C2421 1.386 . S
C2420 C2422 1.391 . S
C2421 C2420 1.386 . S
C2421 C2425 1.393 . S
C2422 H2414 0.950 . S
C2422 C2420 1.391 . S
C2422 C2423 1.400 . S
C2423 C2422 1.400 . S
C2423 C2424 1.398 . S
C2423 C2429 1.491 . S
C2424 H2415 0.950 . S
C2424 C2423 1.398 . S
C2424 C2425 1.391 . S
C2425 H2413 0.950 . S
C2425 C2421 1.393 . S
C2425 C2424 1.391 . S
C2426 H2416 0.950 . S
C2426 C2427 1.386 . S
C2426 C2428 1.391 . S
C2427 C2426 1.386 . S
C2427 C2431 1.393 . S
C2428 H2417 0.950 . S
C2428 C2426 1.391 . S
C2428 C2429 1.400 . S
C2429 C2423 1.491 . S
C2429 C2428 1.400 . S
C2429 C2430 1.398 . S
C2430 H2418 0.950 . S
C2430 C2429 1.398 . S
C2430 C2431 1.391 . S
C2431 H2419 0.950 . S
C2431 C2427 1.393 . S
C2431 C2430 1.391 . S
H2432 C2440 0.950 . S
H2433 C2445 0.950 . S
H2434 C2442 0.950 . S
H2435 C2444 0.950 . S
H2436 C2446 0.950 1_556 S
H2437 C2448 0.950 . S
H2438 C2450 0.950 . S
H2439 C2451 0.950 . S
C2440 H2432 0.950 . S
C2440 C2441 1.386 . S
C2440 C2442 1.391 . S
C2441 C2440 1.386 . S
C2441 C2445 1.393 . S
C2442 H2434 0.950 . S
C2442 C2440 1.391 . S
C2442 C2443 1.400 . S
C2443 C2442 1.400 . S
C2443 C2444 1.398 . S
C2443 C2449 1.491 . S
C2444 H2435 0.950 . S
C2444 C2443 1.398 . S
C2444 C2445 1.391 . S
C2445 H2433 0.950 . S
C2445 C2441 1.393 . S
C2445 C2444 1.391 . S
C2446 H2436 0.950 1_554 S
C2446 C2447 1.386 . S
C2446 C2448 1.391 . S
C2447 C2446 1.386 . S
C2447 C2451 1.393 . S
C2448 H2437 0.950 . S
C2448 C2446 1.391 . S
C2448 C2449 1.400 . S
C2449 C2443 1.491 . S
C2449 C2448 1.400 . S
C2449 C2450 1.398 . S
C2450 H2438 0.950 . S
C2450 C2449 1.398 . S
C2450 C2451 1.391 . S
C2451 H2439 0.950 . S
C2451 C2447 1.393 . S
C2451 C2450 1.391 . S
H2452 C2460 0.950 . S
H2453 C2465 0.950 . S
H2454 C2462 0.950 . S
H2455 C2464 0.950 . S
H2456 C2466 0.950 . S
H2457 C2468 0.950 . S
H2458 C2470 0.950 . S
H2459 C2471 0.950 . S
C2460 H2452 0.950 . S
C2460 C2461 1.386 . S
C2460 C2462 1.391 . S
C2461 C2460 1.386 . S
C2461 C2465 1.393 . S
C2462 H2454 0.950 . S
C2462 C2460 1.391 . S
C2462 C2463 1.400 . S
C2463 C2462 1.400 . S
C2463 C2464 1.398 . S
C2463 C2469 1.491 . S
C2464 H2455 0.950 . S
C2464 C2463 1.398 . S
C2464 C2465 1.391 . S
C2465 H2453 0.950 . S
C2465 C2461 1.393 . S
C2465 C2464 1.391 . S
C2466 H2456 0.950 . S
C2466 C2467 1.386 . S
C2466 C2468 1.391 . S
C2467 C2466 1.386 . S
C2467 C2471 1.393 . S
C2468 H2457 0.950 . S
C2468 C2466 1.391 . S
C2468 C2469 1.400 . S
C2469 C2463 1.491 . S
C2469 C2468 1.400 . S
C2469 C2470 1.398 . S
C2470 H2458 0.950 . S
C2470 C2469 1.398 . S
C2470 C2471 1.391 . S
C2471 H2459 0.950 . S
C2471 C2467 1.393 . S
C2471 C2470 1.391 . S
H2472 C2480 0.950 . S
H2473 C2485 0.950 . S
H2474 C2482 0.950 . S
H2475 C2484 0.950 . S
H2476 C2486 0.956 . S
H2477 C2488 0.950 . S
H2478 C2490 0.950 . S
H2479 C2491 0.950 . S
C2480 H2472 0.950 . S
C2480 C2481 1.386 . S
C2480 C2482 1.391 . S
C2481 C2480 1.386 . S
C2481 C2485 1.393 . S
C2482 H2474 0.950 . S
C2482 C2480 1.391 . S
C2482 C2483 1.400 . S
C2483 C2482 1.400 . S
C2483 C2484 1.398 . S
C2483 C2489 1.491 . S
C2484 H2475 0.950 . S
C2484 C2483 1.398 . S
C2484 C2485 1.391 . S
C2485 H2473 0.950 . S
C2485 C2481 1.393 . S
C2485 C2484 1.391 . S
C2486 H2476 0.956 . S
C2486 C2487 1.386 . S
C2486 C2488 1.391 . S
C2487 C2486 1.386 . S
C2487 C2491 1.393 . S
C2488 H2477 0.950 . S
C2488 C2486 1.391 . S
C2488 C2489 1.400 . S
C2489 C2483 1.491 . S
C2489 C2488 1.400 . S
C2489 C2490 1.398 . S
C2490 H2478 0.950 . S
C2490 C2489 1.398 . S
C2490 C2491 1.391 . S
C2491 H2479 0.950 . S
C2491 C2487 1.393 . S
C2491 C2490 1.391 . S
H2492 C2500 0.950 . S
H2493 C2505 0.950 . S
H2494 C2502 0.950 . S
H2495 C2504 0.950 . S
H2496 C2506 0.950 . S
H2497 C2508 0.950 . S
H2498 C2510 0.950 . S
H2499 C2511 0.950 . S
C2500 H2492 0.950 . S
C2500 C2501 1.386 . S
C2500 C2502 1.391 . S
C2501 C2500 1.386 . S
C2501 C2505 1.393 . S
C2502 H2494 0.950 . S
C2502 C2500 1.391 . S
C2502 C2503 1.400 . S
C2503 C2502 1.400 . S
C2503 C2504 1.398 . S
C2503 C2509 1.491 . S
C2504 H2495 0.950 . S
C2504 C2503 1.398 . S
C2504 C2505 1.391 . S
C2505 H2493 0.950 . S
C2505 C2501 1.393 . S
C2505 C2504 1.391 . S
C2506 H2496 0.950 . S
C2506 C2507 1.386 . S
C2506 C2508 1.391 . S
C2507 C2506 1.386 . S
C2507 C2511 1.393 . S
C2508 H2497 0.950 . S
C2508 C2506 1.391 . S
C2508 C2509 1.400 . S
C2509 C2503 1.491 . S
C2509 C2508 1.400 . S
C2509 C2510 1.398 . S
C2510 H2498 0.950 . S
C2510 C2509 1.398 . S
C2510 C2511 1.391 . S
C2511 H2499 0.950 . S
C2511 C2507 1.393 . S
C2511 C2510 1.391 . S
H2512 C2520 0.950 . S
H2513 C2525 0.950 . S
H2514 C2522 0.950 . S
H2515 C2524 0.950 . S
H2516 C2526 0.950 . S
H2517 C2528 0.950 . S
H2518 C2530 0.950 . S
H2519 C2531 0.950 . S
C2520 H2512 0.950 . S
C2520 C2521 1.386 . S
C2520 C2522 1.391 . S
C2521 C2520 1.386 . S
C2521 C2525 1.393 . S
C2522 H2514 0.950 . S
C2522 C2520 1.391 . S
C2522 C2523 1.400 . S
C2523 C2522 1.400 . S
C2523 C2524 1.398 . S
C2523 C2529 1.491 . S
C2524 H2515 0.950 . S
C2524 C2523 1.398 . S
C2524 C2525 1.391 . S
C2525 H2513 0.950 . S
C2525 C2521 1.393 . S
C2525 C2524 1.391 . S
C2526 H2516 0.950 . S
C2526 C2527 1.386 . S
C2526 C2528 1.391 . S
C2527 C2526 1.386 . S
C2527 C2531 1.393 . S
C2528 H2517 0.950 . S
C2528 C2526 1.391 . S
C2528 C2529 1.400 . S
C2529 C2523 1.491 . S
C2529 C2528 1.400 . S
C2529 C2530 1.398 . S
C2530 H2518 0.950 . S
C2530 C2529 1.398 . S
C2530 C2531 1.391 . S
C2531 H2519 0.950 . S
C2531 C2527 1.393 . S
C2531 C2530 1.391 . S
H2532 C2540 0.950 . S
H2533 C2545 0.950 . S
H2534 C2542 0.950 . S
H2535 C2544 0.950 . S
H2536 C2546 0.950 . S
H2537 C2548 0.950 . S
H2538 C2550 0.950 . S
H2539 C2551 0.950 . S
C2540 H2532 0.950 . S
C2540 C2541 1.386 . S
C2540 C2542 1.391 . S
C2541 C2540 1.386 . S
C2541 C2545 1.393 . S
C2542 H2534 0.950 . S
C2542 C2540 1.391 . S
C2542 C2543 1.400 . S
C2543 C2542 1.400 . S
C2543 C2544 1.398 . S
C2543 C2549 1.491 . S
C2544 H2535 0.950 . S
C2544 C2543 1.398 . S
C2544 C2545 1.391 . S
C2545 H2533 0.950 . S
C2545 C2541 1.393 . S
C2545 C2544 1.391 . S
C2546 H2536 0.950 . S
C2546 C2547 1.386 . S
C2546 C2548 1.391 . S
C2547 C2546 1.386 . S
C2547 C2551 1.393 . S
C2548 H2537 0.950 . S
C2548 C2546 1.391 . S
C2548 C2549 1.400 . S
C2549 C2543 1.491 . S
C2549 C2548 1.400 . S
C2549 C2550 1.398 . S
C2550 H2538 0.950 . S
C2550 C2549 1.398 . S
C2550 C2551 1.391 . S
C2551 H2539 0.950 . S
C2551 C2547 1.393 . S
C2551 C2550 1.391 . S
H2552 C2560 0.950 . S
H2553 C2565 0.950 . S
H2554 C2562 0.950 . S
H2555 C2564 0.950 . S
H2556 C2566 0.950 . S
H2557 C2568 0.950 . S
H2558 C2570 0.950 . S
H2559 C2571 0.950 . S
C2560 H2552 0.950 . S
C2560 C2561 1.386 . S
C2560 C2562 1.391 . S
C2561 C2560 1.386 . S
C2561 C2565 1.393 . S
C2562 H2554 0.950 . S
C2562 C2560 1.391 . S
C2562 C2563 1.400 . S
C2563 C2562 1.400 . S
C2563 C2564 1.398 . S
C2563 C2569 1.491 . S
C2564 H2555 0.950 . S
C2564 C2563 1.398 . S
C2564 C2565 1.391 . S
C2565 H2553 0.950 . S
C2565 C2561 1.393 . S
C2565 C2564 1.391 . S
C2566 H2556 0.950 . S
C2566 C2567 1.386 . S
C2566 C2568 1.391 . S
C2567 C2566 1.386 . S
C2567 C2571 1.393 . S
C2568 H2557 0.950 . S
C2568 C2566 1.391 . S
C2568 C2569 1.400 . S
C2569 C2563 1.491 . S
C2569 C2568 1.400 . S
C2569 C2570 1.398 . S
C2570 H2558 0.950 . S
C2570 C2569 1.398 . S
C2570 C2571 1.391 . S
C2571 H2559 0.950 . S
C2571 C2567 1.393 . S
C2571 C2570 1.391 . S
H2572 C2580 0.950 . S
H2573 C2585 0.950 . S
H2574 C2582 0.950 . S
H2575 C2584 0.950 . S
H2576 C2586 0.950 . S
H2577 C2588 0.950 . S
H2578 C2590 0.950 . S
H2579 C2591 0.950 . S
C2580 H2572 0.950 . S
C2580 C2581 1.386 . S
C2580 C2582 1.391 . S
C2581 C2580 1.386 . S
C2581 C2585 1.393 . S
C2582 H2574 0.950 . S
C2582 C2580 1.391 . S
C2582 C2583 1.400 . S
C2583 C2582 1.400 . S
C2583 C2584 1.398 . S
C2583 C2589 1.491 . S
C2584 H2575 0.950 . S
C2584 C2583 1.398 . S
C2584 C2585 1.391 . S
C2585 H2573 0.950 . S
C2585 C2581 1.393 . S
C2585 C2584 1.391 . S
C2586 H2576 0.950 . S
C2586 C2587 1.386 . S
C2586 C2588 1.391 . S
C2587 C2586 1.386 . S
C2587 C2591 1.393 . S
C2588 H2577 0.950 . S
C2588 C2586 1.391 . S
C2588 C2589 1.400 . S
C2589 C2583 1.491 . S
C2589 C2588 1.400 . S
C2589 C2590 1.398 . S
C2590 H2578 0.950 . S
C2590 C2589 1.398 . S
C2590 C2591 1.391 . S
C2591 H2579 0.950 . S
C2591 C2587 1.393 . S
C2591 C2590 1.391 . S
H2592 C2600 0.950 . S
H2593 C2605 0.950 . S
H2594 C2602 0.950 1_455 S
H2595 C2604 0.950 . S
H2596 C2606 0.950 1_655 S
H2597 C2608 0.950 . S
H2598 C2610 0.950 . S
H2599 C2611 0.950 . S
C2600 H2592 0.950 . S
C2600 C2601 1.386 . S
C2600 C2602 1.391 . S
C2601 C2600 1.386 . S
C2601 C2605 1.393 . S
C2602 H2594 0.950 1_655 S
C2602 C2600 1.391 . S
C2602 C2603 1.400 . S
C2603 C2602 1.400 . S
C2603 C2604 1.398 . S
C2603 C2609 1.491 . S
C2604 H2595 0.950 . S
C2604 C2603 1.398 . S
C2604 C2605 1.391 . S
C2605 H2593 0.950 . S
C2605 C2601 1.393 . S
C2605 C2604 1.391 . S
C2606 H2596 0.950 1_455 S
C2606 C2607 1.386 . S
C2606 C2608 1.391 1_455 S
C2607 C2606 1.386 . S
C2607 C2611 1.393 . S
C2608 H2597 0.950 . S
C2608 C2606 1.391 1_655 S
C2608 C2609 1.400 . S
C2609 C2603 1.491 . S
C2609 C2608 1.400 . S
C2609 C2610 1.398 1_655 S
C2610 H2598 0.950 . S
C2610 C2609 1.398 1_455 S
C2610 C2611 1.391 . S
C2611 H2599 0.950 . S
C2611 C2607 1.393 . S
C2611 C2610 1.391 . S
H2612 C2620 0.950 . S
H2613 C2625 0.950 . S
H2614 C2622 0.950 . S
H2615 C2624 0.950 . S
H2616 C2626 0.950 . S
H2617 C2628 0.950 . S
H2618 C2630 0.950 . S
H2619 C2631 0.950 . S
C2620 H2612 0.950 . S
C2620 C2621 1.386 . S
C2620 C2622 1.391 . S
C2621 C2620 1.386 . S
C2621 C2625 1.393 . S
C2622 H2614 0.950 . S
C2622 C2620 1.391 . S
C2622 C2623 1.400 . S
C2623 C2622 1.400 . S
C2623 C2624 1.398 . S
C2623 C2629 1.491 . S
C2624 H2615 0.950 . S
C2624 C2623 1.398 . S
C2624 C2625 1.391 . S
C2625 H2613 0.950 . S
C2625 C2621 1.393 . S
C2625 C2624 1.391 . S
C2626 H2616 0.950 . S
C2626 C2627 1.386 . S
C2626 C2628 1.391 . S
C2627 C2626 1.386 . S
C2627 C2631 1.393 . S
C2628 H2617 0.950 . S
C2628 C2626 1.391 . S
C2628 C2629 1.400 . S
C2629 C2623 1.491 . S
C2629 C2628 1.400 . S
C2629 C2630 1.398 . S
C2630 H2618 0.950 . S
C2630 C2629 1.398 . S
C2630 C2631 1.391 . S
C2631 H2619 0.950 . S
C2631 C2627 1.393 . S
C2631 C2630 1.391 . S
H2632 C2640 0.950 . S
H2633 C2645 0.950 . S
H2634 C2642 0.950 . S
H2635 C2644 0.950 . S
H2636 C2646 0.950 . S
H2637 C2648 0.950 . S
H2638 C2650 0.950 . S
H2639 C2651 0.950 . S
C2640 H2632 0.950 . S
C2640 C2641 1.386 . S
C2640 C2642 1.391 . S
C2641 C2640 1.386 . S
C2641 C2645 1.393 . S
C2642 H2634 0.950 . S
C2642 C2640 1.391 . S
C2642 C2643 1.400 . S
C2643 C2642 1.400 . S
C2643 C2644 1.398 . S
C2643 C2649 1.491 . S
C2644 H2635 0.950 . S
C2644 C2643 1.398 . S
C2644 C2645 1.391 . S
C2645 H2633 0.950 . S
C2645 C2641 1.393 . S
C2645 C2644 1.391 . S
C2646 H2636 0.950 . S
C2646 C2647 1.386 . S
C2646 C2648 1.391 . S
C2647 C2646 1.386 . S
C2647 C2651 1.393 . S
C2648 H2637 0.950 . S
C2648 C2646 1.391 . S
C2648 C2649 1.400 . S
C2649 C2643 1.491 . S
C2649 C2648 1.400 . S
C2649 C2650 1.398 . S
C2650 H2638 0.950 . S
C2650 C2649 1.398 . S
C2650 C2651 1.391 . S
C2651 H2639 0.950 . S
C2651 C2647 1.393 . S
C2651 C2650 1.391 . S
H2652 C2660 0.950 . S
H2653 C2665 0.950 . S
H2654 C2662 0.950 . S
H2655 C2664 0.950 . S
H2656 C2666 0.950 . S
H2657 C2668 0.950 . S
H2658 C2670 0.950 . S
H2659 C2671 0.950 . S
C2660 H2652 0.950 . S
C2660 C2661 1.386 . S
C2660 C2662 1.391 . S
C2661 C2660 1.386 . S
C2661 C2665 1.393 . S
C2662 H2654 0.950 . S
C2662 C2660 1.391 . S
C2662 C2663 1.400 . S
C2663 C2662 1.400 . S
C2663 C2664 1.398 . S
C2663 C2669 1.491 . S
C2664 H2655 0.950 . S
C2664 C2663 1.398 . S
C2664 C2665 1.391 . S
C2665 H2653 0.950 . S
C2665 C2661 1.393 . S
C2665 C2664 1.391 . S
C2666 H2656 0.950 . S
C2666 C2667 1.386 . S
C2666 C2668 1.391 . S
C2667 C2666 1.386 . S
C2667 C2671 1.393 . S
C2668 H2657 0.950 . S
C2668 C2666 1.391 . S
C2668 C2669 1.400 . S
C2669 C2663 1.491 . S
C2669 C2668 1.400 . S
C2669 C2670 1.398 . S
C2670 H2658 0.950 . S
C2670 C2669 1.398 . S
C2670 C2671 1.391 . S
C2671 H2659 0.950 . S
C2671 C2667 1.393 . S
C2671 C2670 1.391 . S
H2672 C2680 0.950 . S
H2673 C2685 0.950 . S
H2674 C2682 0.950 . S
H2675 C2684 0.950 . S
H2676 C2686 0.950 . S
H2677 C2688 0.950 . S
H2678 C2690 0.950 . S
H2679 C2691 0.950 1_455 S
C2680 H2672 0.950 . S
C2680 C2681 1.386 . S
C2680 C2682 1.391 . S
C2681 C2680 1.386 . S
C2681 C2685 1.393 . S
C2682 H2674 0.950 . S
C2682 C2680 1.391 . S
C2682 C2683 1.400 . S
C2683 C2682 1.400 . S
C2683 C2684 1.398 . S
C2683 C2689 1.491 . S
C2684 H2675 0.950 . S
C2684 C2683 1.398 . S
C2684 C2685 1.391 . S
C2685 H2673 0.950 . S
C2685 C2681 1.393 . S
C2685 C2684 1.391 . S
C2686 H2676 0.950 . S
C2686 C2687 1.386 . S
C2686 C2688 1.391 . S
C2687 C2686 1.386 . S
C2687 C2691 1.393 . S
C2688 H2677 0.950 . S
C2688 C2686 1.391 . S
C2688 C2689 1.400 . S
C2689 C2683 1.491 . S
C2689 C2688 1.400 . S
C2689 C2690 1.398 . S
C2690 H2678 0.950 . S
C2690 C2689 1.398 . S
C2690 C2691 1.391 . S
C2691 H2679 0.950 1_655 S
C2691 C2687 1.393 . S
C2691 C2690 1.391 . S
H2692 C2700 0.950 . S
H2693 C2705 0.950 . S
H2694 C2702 0.950 . S
H2695 C2704 0.950 . S
H2696 C2706 0.950 . S
H2697 C2708 0.950 . S
H2698 C2710 0.950 . S
H2699 C2711 0.950 . S
C2700 H2692 0.950 . S
C2700 C2701 1.386 . S
C2700 C2702 1.391 . S
C2701 C2700 1.386 . S
C2701 C2705 1.393 . S
C2702 H2694 0.950 . S
C2702 C2700 1.391 . S
C2702 C2703 1.400 . S
C2703 C2702 1.400 . S
C2703 C2704 1.398 . S
C2703 C2709 1.491 . S
C2704 H2695 0.950 . S
C2704 C2703 1.398 . S
C2704 C2705 1.391 . S
C2705 H2693 0.950 . S
C2705 C2701 1.393 . S
C2705 C2704 1.391 . S
C2706 H2696 0.950 . S
C2706 C2707 1.386 . S
C2706 C2708 1.391 . S
C2707 C2706 1.386 . S
C2707 C2711 1.393 . S
C2708 H2697 0.950 . S
C2708 C2706 1.391 . S
C2708 C2709 1.400 . S
C2709 C2703 1.491 . S
C2709 C2708 1.400 . S
C2709 C2710 1.398 . S
C2710 H2698 0.950 . S
C2710 C2709 1.398 . S
C2710 C2711 1.391 . S
C2711 H2699 0.950 . S
C2711 C2707 1.393 . S
C2711 C2710 1.391 . S
H2712 C2720 0.950 . S
H2713 C2725 0.950 . S
H2714 C2722 0.950 . S
H2715 C2724 0.950 . S
H2716 C2726 0.950 . S
H2717 C2728 0.950 . S
H2718 C2730 0.950 . S
H2719 C2731 0.950 . S
C2720 H2712 0.950 . S
C2720 C2721 1.386 . S
C2720 C2722 1.391 . S
C2721 C2720 1.386 . S
C2721 C2725 1.393 . S
C2722 H2714 0.950 . S
C2722 C2720 1.391 . S
C2722 C2723 1.400 . S
C2723 C2722 1.400 . S
C2723 C2724 1.398 . S
C2723 C2729 1.491 . S
C2724 H2715 0.950 . S
C2724 C2723 1.398 . S
C2724 C2725 1.391 . S
C2725 H2713 0.950 . S
C2725 C2721 1.393 . S
C2725 C2724 1.391 . S
C2726 H2716 0.950 . S
C2726 C2727 1.386 . S
C2726 C2728 1.391 . S
C2727 C2726 1.386 . S
C2727 C2731 1.393 . S
C2728 H2717 0.950 . S
C2728 C2726 1.391 . S
C2728 C2729 1.400 . S
C2729 C2723 1.491 . S
C2729 C2728 1.400 . S
C2729 C2730 1.398 . S
C2730 H2718 0.950 . S
C2730 C2729 1.398 . S
C2730 C2731 1.391 . S
C2731 H2719 0.950 . S
C2731 C2727 1.393 . S
C2731 C2730 1.391 . S
H2732 C2740 0.950 . S
H2733 C2745 0.950 . S
H2734 C2742 0.950 . S
H2735 C2744 0.950 . S
H2736 C2746 0.950 . S
H2737 C2748 0.950 . S
H2738 C2750 0.950 . S
H2739 C2751 0.950 . S
C2740 H2732 0.950 . S
C2740 C2741 1.386 . S
C2740 C2742 1.391 . S
C2741 C2740 1.386 . S
C2741 C2745 1.393 . S
C2742 H2734 0.950 . S
C2742 C2740 1.391 . S
C2742 C2743 1.400 . S
C2743 C2742 1.400 . S
C2743 C2744 1.398 . S
C2743 C2749 1.491 . S
C2744 H2735 0.950 . S
C2744 C2743 1.398 . S
C2744 C2745 1.391 . S
C2745 H2733 0.950 . S
C2745 C2741 1.393 . S
C2745 C2744 1.391 . S
C2746 H2736 0.950 . S
C2746 C2747 1.381 1_545 S
C2746 C2748 1.391 1_545 S
C2747 C2746 1.381 1_565 S
C2747 C2751 1.415 . S
C2748 H2737 0.950 . S
C2748 C2746 1.391 1_565 S
C2748 C2749 1.400 . S
C2749 C2743 1.491 . S
C2749 C2748 1.400 . S
C2749 C2750 1.398 . S
C2750 H2738 0.950 . S
C2750 C2749 1.398 . S
C2750 C2751 1.391 . S
C2751 H2739 0.950 . S
C2751 C2747 1.415 . S
C2751 C2750 1.391 . S
H2752 C2760 0.950 . S
H2753 C2765 0.950 . S
H2754 C2762 0.950 . S
H2755 C2764 0.950 . S
H2756 C2766 0.950 . S
H2757 C2768 0.950 . S
H2758 C2770 0.950 . S
H2759 C2771 0.950 . S
C2760 H2752 0.950 . S
C2760 C2761 1.386 . S
C2760 C2762 1.391 . S
C2761 C2760 1.386 . S
C2761 C2765 1.393 . S
C2762 H2754 0.950 . S
C2762 C2760 1.391 . S
C2762 C2763 1.400 . S
C2763 C2762 1.400 . S
C2763 C2764 1.398 . S
C2763 C2769 1.491 . S
C2764 H2755 0.950 . S
C2764 C2763 1.398 . S
C2764 C2765 1.391 . S
C2765 H2753 0.950 . S
C2765 C2761 1.393 . S
C2765 C2764 1.391 . S
C2766 H2756 0.950 . S
C2766 C2767 1.386 . S
C2766 C2768 1.391 . S
C2767 C2766 1.386 . S
C2767 C2771 1.393 . S
C2768 H2757 0.950 . S
C2768 C2766 1.391 . S
C2768 C2769 1.400 . S
C2769 C2763 1.491 . S
C2769 C2768 1.400 . S
C2769 C2770 1.398 . S
C2770 H2758 0.950 . S
C2770 C2769 1.398 . S
C2770 C2771 1.391 . S
C2771 H2759 0.950 . S
C2771 C2767 1.393 . S
C2771 C2770 1.391 . S
H2772 C2780 0.950 . S
H2773 C2785 0.950 . S
H2774 C2782 0.950 . S
H2775 C2784 0.950 . S
H2776 C2786 0.950 . S
H2777 C2788 0.950 . S
H2778 C2790 0.950 . S
H2779 C2791 0.950 . S
C2780 H2772 0.950 . S
C2780 C2781 1.386 . S
C2780 C2782 1.391 . S
C2781 C2780 1.386 . S
C2781 C2785 1.393 . S
C2782 H2774 0.950 . S
C2782 C2780 1.391 . S
C2782 C2783 1.400 . S
C2783 C2782 1.400 . S
C2783 C2784 1.398 . S
C2783 C2789 1.491 . S
C2784 H2775 0.950 . S
C2784 C2783 1.398 . S
C2784 C2785 1.391 . S
C2785 H2773 0.950 . S
C2785 C2781 1.393 . S
C2785 C2784 1.391 . S
C2786 H2776 0.950 . S
C2786 C2787 1.386 . S
C2786 C2788 1.391 . S
C2787 C2786 1.386 . S
C2787 C2791 1.393 . S
C2788 H2777 0.950 . S
C2788 C2786 1.391 . S
C2788 C2789 1.400 . S
C2789 C2783 1.491 . S
C2789 C2788 1.400 . S
C2789 C2790 1.398 . S
C2790 H2778 0.950 . S
C2790 C2789 1.398 . S
C2790 C2791 1.391 . S
C2791 H2779 0.950 . S
C2791 C2787 1.393 . S
C2791 C2790 1.391 . S
H2792 C2800 0.950 . S
H2793 C2805 0.950 . S
H2794 C2802 0.950 . S
H2795 C2804 0.950 . S
H2796 C2806 0.950 . S
H2797 C2808 0.950 . S
H2798 C2810 0.950 . S
H2799 C2811 0.950 . S
C2800 H2792 0.950 . S
C2800 C2801 1.386 . S
C2800 C2802 1.391 . S
C2801 C2800 1.386 . S
C2801 C2805 1.393 . S
C2802 H2794 0.950 . S
C2802 C2800 1.391 . S
C2802 C2803 1.400 . S
C2803 C2802 1.400 . S
C2803 C2804 1.398 . S
C2803 C2809 1.491 . S
C2804 H2795 0.950 . S
C2804 C2803 1.398 . S
C2804 C2805 1.391 . S
C2805 H2793 0.950 . S
C2805 C2801 1.393 . S
C2805 C2804 1.391 . S
C2806 H2796 0.950 . S
C2806 C2807 1.386 . S
C2806 C2808 1.391 . S
C2807 C2806 1.386 . S
C2807 C2811 1.393 . S
C2808 H2797 0.950 . S
C2808 C2806 1.391 . S
C2808 C2809 1.400 . S
C2809 C2803 1.491 . S
C2809 C2808 1.400 . S
C2809 C2810 1.398 . S
C2810 H2798 0.950 . S
C2810 C2809 1.398 . S
C2810 C2811 1.391 . S
C2811 H2799 0.950 . S
C2811 C2807 1.393 . S
C2811 C2810 1.391 . S
H2812 C2820 0.950 . S
H2813 C2825 0.950 . S
H2814 C2822 0.950 . S
H2815 C2824 0.950 . S
H2816 C2826 0.950 . S
H2817 C2828 0.950 . S
H2818 C2830 0.950 . S
H2819 C2831 0.950 1_554 S
C2820 H2812 0.950 . S
C2820 C2821 1.386 . S
C2820 C2822 1.391 . S
C2821 C2820 1.386 . S
C2821 C2825 1.393 1_554 S
C2822 H2814 0.950 . S
C2822 C2820 1.391 . S
C2822 C2823 1.400 . S
C2823 C2822 1.400 . S
C2823 C2824 1.398 1_554 S
C2823 C2829 1.491 1_554 S
C2824 H2815 0.950 . S
C2824 C2823 1.398 1_556 S
C2824 C2825 1.391 . S
C2825 H2813 0.950 . S
C2825 C2821 1.393 1_556 S
C2825 C2824 1.391 . S
C2826 H2816 0.950 . S
C2826 C2827 1.386 . S
C2826 C2828 1.391 . S
C2827 C2826 1.386 . S
C2827 C2831 1.393 . S
C2828 H2817 0.950 . S
C2828 C2826 1.391 . S
C2828 C2829 1.400 . S
C2829 C2823 1.491 1_556 S
C2829 C2828 1.400 . S
C2829 C2830 1.398 1_556 S
C2830 H2818 0.950 . S
C2830 C2829 1.398 1_554 S
C2830 C2831 1.391 1_554 S
C2831 H2819 0.950 1_556 S
C2831 C2827 1.393 . S
C2831 C2830 1.391 1_556 S
H2832 C2840 0.950 . S
H2833 C2845 0.950 . S
H2834 C2842 0.950 . S
H2835 C2844 0.950 . S
H2836 C2846 0.950 . S
H2837 C2848 0.950 . S
H2838 C2850 0.950 . S
H2839 C2851 0.950 . S
C2840 H2832 0.950 . S
C2840 C2841 1.386 . S
C2840 C2842 1.391 . S
C2841 C2840 1.386 . S
C2841 C2845 1.393 . S
C2842 H2834 0.950 . S
C2842 C2840 1.391 . S
C2842 C2843 1.400 . S
C2843 C2842 1.400 . S
C2843 C2844 1.398 . S
C2843 C2849 1.491 . S
C2844 H2835 0.950 . S
C2844 C2843 1.398 . S
C2844 C2845 1.391 . S
C2845 H2833 0.950 . S
C2845 C2841 1.393 . S
C2845 C2844 1.391 . S
C2846 H2836 0.950 . S
C2846 C2847 1.386 . S
C2846 C2848 1.391 . S
C2847 C2846 1.386 . S
C2847 C2851 1.393 . S
C2848 H2837 0.950 . S
C2848 C2846 1.391 . S
C2848 C2849 1.400 . S
C2849 C2843 1.491 . S
C2849 C2848 1.400 . S
C2849 C2850 1.398 . S
C2850 H2838 0.950 . S
C2850 C2849 1.398 . S
C2850 C2851 1.391 . S
C2851 H2839 0.950 . S
C2851 C2847 1.393 . S
C2851 C2850 1.391 . S
H2852 C2860 0.950 . S
H2853 C2865 0.950 . S
H2854 C2862 0.950 . S
H2855 C2864 0.950 . S
H2856 C2866 0.950 . S
H2857 C2868 0.950 . S
H2858 C2870 0.950 . S
H2859 C2871 0.950 . S
C2860 H2852 0.950 . S
C2860 C2861 1.386 . S
C2860 C2862 1.391 . S
C2861 C2860 1.386 . S
C2861 C2865 1.393 . S
C2862 H2854 0.950 . S
C2862 C2860 1.391 . S
C2862 C2863 1.400 . S
C2863 C2862 1.400 . S
C2863 C2864 1.398 . S
C2863 C2869 1.491 . S
C2864 H2855 0.950 . S
C2864 C2863 1.398 . S
C2864 C2865 1.391 . S
C2865 H2853 0.950 . S
C2865 C2861 1.393 . S
C2865 C2864 1.391 . S
C2866 H2856 0.950 . S
C2866 C2867 1.386 . S
C2866 C2868 1.391 . S
C2867 C2866 1.386 . S
C2867 C2871 1.393 . S
C2868 H2857 0.950 . S
C2868 C2866 1.391 . S
C2868 C2869 1.400 . S
C2869 C2863 1.491 . S
C2869 C2868 1.400 . S
C2869 C2870 1.398 . S
C2870 H2858 0.950 . S
C2870 C2869 1.398 . S
C2870 C2871 1.391 . S
C2871 H2859 0.950 . S
C2871 C2867 1.393 . S
C2871 C2870 1.391 . S
C961 C101 1.054 . S
C967 C320 1.073 . S
C981 C57 1.397 . S
C987 C354 1.399 . S
C1001 C73 0.648 . S
C1007 C423 0.675 . S
C1027 C461 0.883 . S
C1021 C78 0.879 . S
C1041 C21 1.335 . S
C1047 C501 1.401 . S
C1067 C520 0.337 . S
C1061 C31 0.431 . S
C1087 C554 1.295 . S
C1081 C49 1.284 . S
C1101 C0 1.566 . S
C1107 C623 1.602 . S
C1127 C329 2.459 . S
C1121 C218 2.488 . S
C1141 C229 0.951 . S
C1147 C381 0.979 . S
C1167 C394 1.373 . S
C1161 C257 1.392 . S
C1187 C463 1.422 . S
C1181 C164 1.335 . S
C1201 C216 1.817 . S
C1207 C503 1.951 . S
C1227 C529 1.840 . S
C1221 C231 1.870 . S
C1247 C581 0.407 . S
C1241 C255 0.451 . S
C1267 C594 2.214 . S
C1261 C166 2.232 . S
C1287 C324 2.473 . S
C1281 C143 2.408 . S
C1301 C265 1.957 . S
C1307 C634 1.992 . S
C1327 C684 2.632 . S
C1321 C299 2.617 . S
C1347 C743 1.665 1_655 S
C1341 C291 1.573 . S
C1361 C104 1.267 . S
C1367 C621 1.343 . S
C1381 C117 1.347 . S
C1387 C421 1.391 . S
C1401 C304 2.404 . S
C1407 C754 2.436 . S
C1427 C823 0.773 . S
C1421 C278 0.743 . S
C1447 C341 1.057 . S
C1441 C60 1.057 . S
C1467 C809 1.332 . S
C1461 C96 1.328 . S
C1481 C88 0.553 . S
C1487 C404 0.553 . S
C1501 C65 0.801 . S
C1507 C760 0.825 . S
C1527 C480 1.366 . S
C1521 C10 1.399 . S
C1541 C44 0.415 . S
C1547 C701 0.264 . S
C1567 C569 1.179 1_556 S
C1561 C34 1.086 . S
C1587 C844 1.600 . S
C1581 C13 1.636 . S
C1607 C314 2.426 . S
C1601 C138 2.411 . S
C1627 C800 0.952 . S
C1621 C296 0.955 . S
C1641 C112 1.289 . S
C1647 C409 1.297 . S
C1661 C270 1.328 . S
C1667 C764 1.329 . S
C1681 C140 1.856 . S
C1687 C484 1.873 . S
C1707 C674 1.800 . S
C1701 C294 1.775 . S
C1721 C114 0.217 1_565 S
C1727 C560 0.279 . S
C1741 C268 2.148 . S
C1747 C849 2.159 . S
C1761 C169 2.373 . S
C1767 C343 2.396 1_655 S
C1781 C161 1.910 . S
C1787 C649 1.917 . S
C1801 C234 2.543 . S
C1807 C543 2.554 . S
C1821 C226 1.449 . S
C1827 C724 1.533 . S
C1847 C840 1.338 . S
C1841 C247 1.405 . S
C1861 C195 1.401 . S
C1867 C400 1.367 . S
C1887 C449 2.328 . S
C1881 C239 2.319 . S
C1907 C364 0.664 . S
C1901 C187 0.696 . S
C1921 C75 1.055 . S
C1927 C880 1.074 . S
C1947 C794 1.400 . S
C1941 C83 1.397 . S
C1961 C99 0.651 . S
C1967 C943 0.671 . S
C1981 C52 0.904 . S
C1987 C781 0.903 . S
C2001 C47 1.335 . S
C2007 C661 1.401 . S
C2027 C680 0.315 . S
C2021 C5 0.419 . S
C2047 C714 1.314 . S
C2041 C23 1.302 . S
C2067 C863 1.611 . S
C2061 C26 1.573 . S
C2087 C889 2.451 . S
C2081 C244 2.486 . S
C2101 C177 0.931 . S
C2107 C821 0.966 . S
C2127 C914 1.386 . S
C2121 C192 1.385 . S
C2147 C783 1.422 . S
C2141 C203 1.337 . S
C2167 C663 1.946 . S
C2161 C242 1.827 . S
C2181 C179 1.878 . S
C2187 C689 1.857 . S
C2207 C741 0.403 . S
C2201 C190 0.441 . S
C2221 C205 2.235 . S
C2227 C834 2.216 . S
C2247 C884 2.467 . S
C2241 C286 2.408 . S
C2261 C122 1.957 . S
C2267 C474 1.992 . S
C2287 C524 2.627 . S
C2281 C130 2.610 . S
C2307 C583 1.664 . S
C2301 C148 1.573 . S
C2327 C861 1.337 . S
C2321 C273 1.268 . S
C2341 C260 1.335 . S
C2347 C941 1.381 . S
C2367 C434 2.433 . S
C2361 C135 2.406 . S
C2387 C383 0.769 . S
C2381 C109 0.742 . S
C2401 C86 1.046 . S
C2407 C901 1.054 . S
C2427 C369 1.339 . S
C2421 C70 1.336 . S
C2441 C62 0.558 . S
C2447 C924 0.564 . S
C2461 C91 0.787 . S
C2467 C440 0.817 . S
C2481 C36 1.416 . S
C2487 C640 1.394 . S
C2507 C541 0.261 . S
C2501 C18 0.419 . S
C2521 C8 1.116 . S
C2527 C729 1.181 . S
C2541 C39 1.637 . S
C2547 C604 1.591 . S
C2567 C874 2.427 . S
C2561 C307 2.413 . S
C2581 C153 0.990 . S
C2587 C360 0.981 . S
C2607 C929 1.297 . S
C2601 C281 1.293 . S
C2621 C127 1.329 . S
C2627 C444 1.326 . S
C2641 C309 1.859 . S
C2647 C644 1.870 . S
C2667 C514 1.816 . S
C2661 C151 1.793 . S
C2681 C283 0.218 . S
C2687 C720 0.294 . S
C2707 C609 2.168 . S
C2701 C125 2.155 . S
C2727 C903 2.385 . S
C2721 C221 2.377 . S
C2747 C489 1.901 1_665 S
C2741 C200 1.916 . S
C2761 C208 2.544 . S
C2767 C703 2.556 . S
C2787 C564 1.533 . S
C2781 C174 1.445 . S
C2801 C182 1.400 . S
C2807 C600 1.346 . S
C2821 C156 1.407 . S
C2827 C920 1.374 . S
C2847 C769 2.322 . S
C2841 C213 2.314 1_565 S
C2867 C804 0.702 . S
C2861 C252 0.679 . S
