# Generated by pormake.
# Topology pts, (4,4)-cn, num edge types: 1
# Building blocks:
#     Node 0, Type 0, BuildingBlock: ESEHIV_clean_sbu_0, # of connection points: 4
#     Node 1, Type 0, BuildingBlock: ESEHIV_clean_sbu_0, # of connection points: 4
#     Node 2, Type 1, BuildingBlock: AZAVOO_clean_sbu_0, # of connection points: 4
#     Node 3, Type 1, BuildingBlock: AZAVOO_clean_sbu_0, # of connection points: 4
#     Edge 4, Type (0, 1), BuildingBlock: FUNLAD_clean_linker_1, # of connection points: 2
#     Edge 5, Type (0, 1), BuildingBlock: FUNLAD_clean_linker_1, # of connection points: 2
#     Edge 6, Type (0, 1), BuildingBlock: FUNLAD_clean_linker_1, # of connection points: 2
#     Edge 7, Type (0, 1), BuildingBlock: FUNLAD_clean_linker_1, # of connection points: 2
#     Edge 8, Type (0, 1), BuildingBlock: FUNLAD_clean_linker_1, # of connection points: 2
#     Edge 9, Type (0, 1), BuildingBlock: FUNLAD_clean_linker_1, # of connection points: 2
#     Edge 10, Type (0, 1), BuildingBlock: FUNLAD_clean_linker_1, # of connection points: 2
#     Edge 11, Type (0, 1), BuildingBlock: FUNLAD_clean_linker_1, # of connection points: 2
# Relax obj value: 0.001
# Max RMSD: 0.095
# Mean RMSD: 0.062
data_MOF--net-pts--node1-ESEHIV_clean_sbu_0--node2-AZAVOO_clean_sbu_0--edge1-FUNLAD_clean_linker_1
_symmetry_space_group_name_H-M    P1
_symmetry_Int_Tables_number       1
_symmetry_cell_setting            triclinic
loop_
_symmetry_equiv_pos_as_xyz
'x, y, z'
_cell_length_a     25.115881
_cell_length_b     25.983463
_cell_length_c     38.017734
_cell_angle_alpha  93.627993
_cell_angle_beta   100.17081
_cell_angle_gamma 89.770812
loop_
_atom_site_label
_atom_site_type_symbol
_atom_site_fract_x
_atom_site_fract_y
_atom_site_fract_z
_atom_type_partial_charge
Cu0 Cu 0.57373 0.10893 0.03949 0.0
N1 N 0.60979 0.15696 1.01764 0.0
N2 N 0.66555 0.1865 0.98366 0.0
C3 C 0.65263 0.1465 1.00162 0.0
C4 C 0.62925 0.22348 0.98843 0.0
C5 C 0.59498 0.20525 1.00961 0.0
O6 O 0.62883 0.07219 0.07046 0.0
C7 C 0.49602 0.03263 1.00356 0.0
O8 O 0.49055 0.01848 0.0353 0.0
H9 H 0.67143 0.10904 1.00109 0.0
H10 H 0.56009 0.22473 1.01707 0.0
N11 N 0.52878 0.14231 0.06797 0.0
N12 N 0.45856 0.15836 0.09582 0.0
C13 C 0.47582 0.1335 0.06772 0.0
C14 C 0.54521 0.17479 0.0968 0.0
C15 C 0.50204 0.18482 0.11406 0.0
C16 C 0.65885 0.03709 0.05984 0.0
O17 O 0.64938 0.01919 0.02625 0.0
H18 H 0.45082 0.10749 0.04841 0.0
H19 H 0.5864 0.18828 0.10555 0.0
O20 O 0.53077 0.06684 1.00076 0.0
H21 H 0.62633 0.26012 0.97618 0.0
H22 H 0.50337 0.20826 0.13874 0.0
Cu23 Cu 0.13279 0.56136 0.54834 0.0
N24 N 0.17438 0.52005 0.58118 0.0
N25 N 0.19305 0.4519 0.61404 0.0
C26 C 0.16655 0.46909 0.58312 0.0
C27 C 0.21927 0.49323 0.63225 0.0
C28 C 0.20776 0.53527 0.61183 0.0
O29 O 0.08139 0.51562 0.51707 0.0
C30 C 0.13042 0.65212 0.58982 0.0
O31 O 0.18105 0.65249 0.58543 0.0
H32 H 0.13842 0.44587 0.56369 0.0
H33 H 0.22016 0.57462 0.61992 0.0
N34 N 0.17409 0.59458 0.52016 0.0
N35 N 0.1939 0.65212 0.48317 0.0
C36 C 0.15424 0.62879 0.49616 0.0
C37 C 0.22815 0.59604 0.52242 0.0
C38 C 0.24049 0.6319 0.4997 0.0
C39 C 0.10098 0.48655 0.49438 0.0
O40 O 0.1524 0.49151 0.49239 0.0
H41 H 0.11184 0.63867 0.49024 0.0
H42 H 0.25656 0.57454 0.54059 0.0
O43 O 0.09948 0.61497 0.57531 0.0
H44 H 0.24311 0.49342 0.65892 0.0
H45 H 0.28059 0.64364 0.49653 0.0
Mg46 Mg 0.11343 0.047 0.29869 0.0
O47 O 1.02677 0.03692 0.26611 0.0
O48 O 0.97386 0.01834 0.3053 0.0
Mg49 Mg 1.02528 0.0145 0.36117 0.0
C50 C 0.98042 0.02653 0.27359 0.0
C51 C 0.18405 0.1152 0.26302 0.0
O52 O 0.19963 0.12678 0.2974 0.0
O53 O 0.09104 0.12494 0.32332 0.0
O54 O 0.04084 0.10234 0.36313 0.0
O55 O 0.12892 0.96282 0.29 0.0
O56 O 0.09689 0.99755 0.33654 0.0
C57 C 0.0639 0.13654 0.3481 0.0
C58 C 0.11131 0.95693 0.3195 0.0
O59 O 0.14471 0.08386 0.25291 0.0
Mg60 Mg 1.02566 0.04797 0.77343 0.0
O61 O 0.10365 0.02936 0.81208 0.0
O62 O 0.16587 1.00316 0.77956 0.0
Mg63 Mg 0.12646 1.00172 0.72021 0.0
C64 C 0.15127 0.01392 0.80969 0.0
C65 C 0.94096 0.09681 0.81487 0.0
O66 O 0.91153 0.08405 0.7834 0.0
O67 O 0.0645 0.12182 0.75934 0.0
O68 O 0.12108 0.09051 0.72395 0.0
O69 O 0.99651 0.96654 0.77216 0.0
O70 O 0.04561 0.99484 0.73446 0.0
C71 C 0.0988 0.12835 0.73883 0.0
C72 C 1.02171 0.95693 0.74562 0.0
O73 O 0.99159 0.08878 0.81969 0.0
H74 H 0.37523 0.13002 0.08685 0.0
C75 C 0.40638 0.15103 0.10579 0.0
H76 H 0.42683 0.18587 0.15823 0.0
H77 H 0.19289 0.21367 0.19263 0.0
H78 H 0.21308 0.30179 0.18126 0.0
H79 H 0.29366 0.32195 0.15564 0.0
H80 H 0.35439 0.25412 0.14103 0.0
C81 C 0.3967 0.16468 0.13882 0.0
C82 C 0.3451 0.15139 0.15062 0.0
C83 C 0.3101 0.1914 0.15916 0.0
C84 C 0.26401 0.17989 0.17441 0.0
C85 C 0.22922 0.22053 0.18194 0.0
C86 C 0.24011 0.27119 0.17529 0.0
C87 C 0.28545 0.28253 0.16083 0.0
C88 C 0.32009 0.24327 0.1527 0.0
H89 H 0.25092 0.15928 0.24905 0.0
C90 C 0.21705 0.13385 0.23783 0.0
H91 H 0.17882 0.08967 0.19189 0.0
H92 H 0.40387 0.0648 0.13795 0.0
H93 H 0.38184 0.97692 0.14756 0.0
H94 H 0.30066 0.95692 0.1725 0.0
H95 H 0.24128 0.02489 0.18821 0.0
C96 C 0.21093 0.11693 0.20318 0.0
C97 C 0.2534 0.12842 0.1817 0.0
C98 C 0.28662 0.08799 0.17127 0.0
C99 C 0.33294 0.09948 0.1562 0.0
C100 C 0.36723 0.05849 0.14831 0.0
C101 C 0.3553 1.00771 0.15397 0.0
C102 C 0.30965 0.99645 0.16806 0.0
C103 C 0.27581 0.03594 0.1769 0.0
H104 H 0.18178 0.36858 0.60672 0.0
C105 C 0.18717 0.40136 0.62629 0.0
H106 H 0.18557 0.42771 0.6796 0.0
H107 H 0.06236 0.19586 0.65693 0.0
H108 H 0.99877 0.2316 0.60919 0.0
H109 H 1.01072 0.32007 0.59174 0.0
H110 H 0.08663 0.37283 0.62133 0.0
C111 C 0.18159 0.39474 0.66026 0.0
C112 C 0.17056 0.34313 0.6728 0.0
C113 C 0.12382 0.31398 0.65655 0.0
C114 C 0.1154 0.26388 0.66779 0.0
C115 C 0.07007 0.23452 0.64993 0.0
C116 C 0.03321 0.25456 0.62251 0.0
C117 C 0.04004 0.3043 0.61261 0.0
C118 C 0.08437 0.33398 0.62955 0.0
H119 H 0.09066 0.21336 0.74255 0.0
C120 C 0.11094 0.1815 0.7306 0.0
H121 H 0.16445 0.15988 0.69506 0.0
H122 H 0.26297 0.38912 0.71088 0.0
H123 H 0.32354 0.35461 0.76053 0.0
H124 H 0.30623 0.26942 0.7816 0.0
H125 H 0.22817 0.21806 0.75294 0.0
C126 C 0.1439 0.19112 0.70742 0.0
C127 C 0.15187 0.24412 0.6965 0.0
C128 C 0.19715 0.27397 0.71373 0.0
C129 C 0.20669 0.32339 0.7018 0.0
C130 C 0.25311 0.35174 0.71908 0.0
C131 C 0.2884 0.3323 0.74759 0.0
C132 C 0.27869 0.28431 0.75943 0.0
C133 C 0.23376 0.25525 0.74274 0.0
H134 H 0.73485 0.99346 0.07334 0.0
C135 C 0.70872 0.02183 0.08374 0.0
H136 H 0.70014 0.07587 0.12614 0.0
H137 H 0.89898 0.93387 0.20823 0.0
H138 H 0.83461 0.86281 0.19884 0.0
H139 H 0.74398 0.87182 0.16231 0.0
H140 H 0.71751 0.95158 0.1344 0.0
C141 C 0.72486 0.04563 0.11636 0.0
C142 C 0.77996 0.03851 0.13764 0.0
C143 C 0.79418 0.99207 0.15456 0.0
C144 C 0.84566 0.98763 0.17694 0.0
C145 C 0.85968 0.94006 0.19222 0.0
C146 C 0.82326 0.89882 0.18682 0.0
C147 C 0.77229 0.90385 0.16615 0.0
C148 C 0.75768 0.94982 0.15017 0.0
H149 H 0.89272 0.02037 0.2536 0.0
C150 C 0.93167 0.0247 0.24531 0.0
H151 H 0.97144 0.03402 0.20158 0.0
H152 H 0.76777 0.13099 0.10649 0.0
H153 H 0.83196 0.20209 0.11612 0.0
H154 H 0.91946 0.19575 0.15688 0.0
H155 H 0.94349 0.11818 0.18804 0.0
C156 C 0.9331 0.02849 0.21037 0.0
C157 C 0.88197 0.03034 0.18353 0.0
C158 C 0.86851 0.07605 0.16554 0.0
C159 C 0.81761 0.08005 0.14252 0.0
C160 C 0.80543 0.12612 0.12475 0.0
C161 C 0.84199 0.16721 0.12993 0.0
C162 C 0.89128 0.16362 0.15284 0.0
C163 C 0.90457 0.11875 0.17054 0.0
H164 H 0.14262 0.72356 0.62386 0.0
C165 C 0.11233 0.69462 0.61221 0.0
H166 H 0.03007 0.6727 0.60701 0.0
H167 H 0.10331 0.84095 0.74953 0.0
H168 H 0.14868 0.76771 0.77743 0.0
H169 H 0.14715 0.68287 0.74421 0.0
H170 H 0.10089 0.67126 0.68243 0.0
C171 C 0.06195 0.69976 0.61909 0.0
C172 C 0.04924 0.74553 0.64174 0.0
C173 C 0.07348 0.75106 0.67843 0.0
C174 C 0.07214 0.79938 0.69806 0.0
C175 C 0.10073 0.8047 0.73374 0.0
C176 C 0.1274 0.76298 0.75006 0.0
C177 C 0.12671 0.71527 0.73132 0.0
C178 C 0.10028 0.70919 0.69588 0.0
H179 H 1.00337 0.87336 0.74019 0.0
C180 C 1.02312 0.9041 0.7291 0.0
H181 H 0.06377 0.92472 0.68801 0.0
H182 H 0.99379 0.74588 0.57313 0.0
H183 H 0.94374 0.81754 0.54571 0.0
H184 H 0.93768 0.90029 0.58032 0.0
H185 H 0.98211 0.91217 0.64238 0.0
C186 C 0.04627 0.89367 0.70019 0.0
C187 C 0.04407 0.84141 0.68137 0.0
C188 C 1.01645 0.8346 0.64541 0.0
C189 C 1.01918 0.78665 0.62557 0.0
C190 C 0.99274 0.78145 0.5894 0.0
C191 C 0.96379 0.82221 0.57338 0.0
C192 C 0.96043 0.86882 0.59285 0.0
C193 C 0.9863 0.87516 0.62844 0.0
H194 H 0.4642 0.02841 0.94569 0.0
C195 C 0.45603 0.01721 0.97132 0.0
H196 H 0.39667 0.98872 0.99841 0.0
H197 H 0.2421 0.09676 0.86728 0.0
H198 H 0.2602 0.1722 0.9083 0.0
H199 H 0.32417 0.16846 0.96531 0.0
H200 H 0.37119 0.0893 0.98123 0.0
C201 C 0.40701 0.99804 0.97297 0.0
C202 C 0.36308 0.99762 0.941 0.0
C203 C 0.33387 0.04345 0.93284 0.0
C204 C 0.29515 0.04492 0.9007 0.0
C205 C 0.26982 0.09245 0.89207 0.0
C206 C 0.28026 0.13635 0.91526 0.0
C207 C 0.3164 0.13431 0.94729 0.0
C208 C 0.34318 0.0886 0.95606 0.0
H209 H 0.17665 0.01732 0.8685 0.0
C210 C 0.19082 1.01008 0.84323 0.0
H211 H 0.25823 0.99236 0.81852 0.0
H212 H 0.41064 0.90362 0.94951 0.0
H213 H 0.3908 0.82669 0.90956 0.0
H214 H 0.32129 0.82789 0.85494 0.0
H215 H 0.27137 0.90592 0.83975 0.0
C216 C 0.24365 1.00068 0.84352 0.0
C217 C 0.28369 0.99966 0.87757 0.0
C218 C 0.31216 0.95352 0.88625 0.0
C219 C 0.35197 0.9526 0.91793 0.0
C220 C 0.38004 0.90624 0.92578 0.0
C221 C 0.36899 0.86186 0.90313 0.0
C222 C 0.32986 0.86255 0.87236 0.0
C223 C 0.3016 0.90767 0.86391 0.0
H224 H 0.02904 0.43509 0.47985 0.0
C225 C 0.06927 0.44278 0.47452 0.0
H226 H 0.13164 0.41771 0.4469 0.0
H227 H 0.05007 0.18516 0.45128 0.0
H228 H 0.07991 0.1968 0.51539 0.0
H229 H 0.10403 0.28314 0.54446 0.0
H230 H 0.09845 0.35829 0.50953 0.0
C231 C 0.09174 0.40982 0.45271 0.0
C232 C 0.06585 0.36033 0.43685 0.0
C233 C 0.06855 0.31682 0.4578 0.0
C234 C 0.05461 0.26699 0.44098 0.0
C235 C 0.05947 0.224 0.46248 0.0
C236 C 0.07675 0.23008 0.49941 0.0
C237 C 0.09035 0.27867 0.51578 0.0
C238 C 0.08679 0.32158 0.49535 0.0
H239 H 0.0903 0.21796 0.35296 0.0
C240 C 0.06275 0.19113 0.36151 0.0
H241 H 1.00437 0.18106 0.3942 0.0
H242 H 0.05012 0.43661 0.39004 0.0
H243 H 1.01399 0.42624 0.32631 0.0
H244 H 0.98612 0.34047 0.29749 0.0
H245 H 0.99495 0.26448 0.33204 0.0
C246 C 0.03153 0.20783 0.38526 0.0
C247 C 0.03817 0.26083 0.40321 0.0
C248 C 0.03082 0.30507 0.38285 0.0
C249 C 0.04553 0.35472 0.39962 0.0
C250 C 0.03951 0.39805 0.37853 0.0
C251 C 1.0186 0.39266 0.34201 0.0
C252 C 1.00299 0.34435 0.32578 0.0
C253 C 1.00873 0.30098 0.34584 0.0
H254 H 0.69642 0.2132 0.93775 0.0
C255 C 0.70315 0.18668 0.95908 0.0
H256 H 0.7516 0.12683 0.98207 0.0
H257 H 0.81884 0.03199 0.84095 0.0
H258 H 0.76213 0.96449 0.85603 0.0
H259 H 0.71045 0.97904 0.90518 0.0
H260 H 0.71544 0.06094 0.93968 0.0
C261 C 0.74444 0.15324 0.96075 0.0
C262 C 0.77606 0.14546 0.93113 0.0
C263 C 0.7722 0.09737 0.91092 0.0
C264 C 0.80114 0.08931 0.88211 0.0
C265 C 0.79706 0.04061 0.86273 0.0
C266 C 0.76475 1.0014 0.87115 0.0
C267 C 0.73574 1.00956 0.89885 0.0
C268 C 0.73916 0.05685 0.91854 0.0
H269 H 0.94015 0.12074 0.87171 0.0
C270 C 0.91503 0.11501 0.84537 0.0
H271 H 0.83564 0.11334 0.8157 0.0
H272 H 0.7981 0.23971 0.96717 0.0
H273 H 0.85337 0.30792 0.95125 0.0
H274 H 0.89883 0.29586 0.89889 0.0
H275 H 0.89007 0.2152 0.86248 0.0
C276 C 0.86115 0.12091 0.84173 0.0
C277 C 0.83359 0.12942 0.87325 0.0
C278 C 0.83786 0.17737 0.89362 0.0
C279 C 0.80983 0.18508 0.92299 0.0
C280 C 0.81681 0.23247 0.94383 0.0
C281 C 0.84871 0.27183 0.93512 0.0
C282 C 0.87445 0.26498 0.9057 0.0
C283 C 0.86924 0.2184 0.88509 0.0
H284 H 0.22379 0.72061 0.46239 0.0
C285 C 0.18901 0.69525 0.46084 0.0
H286 H 0.1079 0.67998 0.43689 0.0
H287 H 0.03757 0.90521 0.40184 0.0
H288 H 0.97948 0.88392 0.44343 0.0
H289 H 0.99258 0.80367 0.47514 0.0
H290 H 0.06316 0.74381 0.46497 0.0
C291 C 0.14261 0.70539 0.43874 0.0
C292 C 0.13515 0.75373 0.41919 0.0
C293 C 0.09411 0.78884 0.42589 0.0
C294 C 0.08763 0.83596 0.40847 0.0
C295 C 0.04528 0.8695 0.41496 0.0
C296 C 1.01143 0.85769 0.4387 0.0
C297 C 1.01872 0.81246 0.45648 0.0
C298 C 0.05942 0.77832 0.45027 0.0
H299 H 0.10892 0.87171 0.31531 0.0
C300 C 0.11039 0.90556 0.33377 0.0
H301 H 0.12034 0.93428 0.3876 0.0
H302 H 0.21036 0.69104 0.39443 0.0
H303 H 0.27331 0.71492 0.35662 0.0
H304 H 0.27148 0.80187 0.33391 0.0
H305 H 0.20551 0.86451 0.34765 0.0
C306 C 0.1181 0.90017 0.36927 0.0
C307 C 0.12324 0.84886 0.3852 0.0
C308 C 0.16501 0.81409 0.37901 0.0
C309 C 0.16918 0.76551 0.39464 0.0
C310 C 0.2077 0.72964 0.38521 0.0
C311 C 0.24379 0.74267 0.36326 0.0
C312 C 0.24253 0.79149 0.35029 0.0
C313 C 0.20386 0.82696 0.35807 0.0
loop_
_geom_bond_atom_site_label_1
_geom_bond_atom_site_label_2
_geom_bond_distance
_geom_bond_site_symmetry_2
_ccdc_geom_bond_type
Cu0 N1 1.999 1_554 S
Cu0 O6 1.974 . S
Cu0 N11 1.985 . S
Cu0 O20 1.959 1_554 S
N1 Cu0 1.999 1_556 S
N1 C3 1.263 . S
N1 C5 1.389 . S
N2 C3 1.358 . S
N2 C4 1.400 . S
C3 N1 1.263 . S
C3 N2 1.358 . S
C3 H9 0.930 . S
C4 N2 1.400 . S
C4 C5 1.351 . S
C4 H21 0.930 . S
C5 N1 1.389 . S
C5 C4 1.351 . S
C5 H10 0.930 . S
O6 Cu0 1.974 . S
O6 C16 1.282 . S
C7 O8 1.261 1_545 S
C7 O20 1.251 . S
O8 C7 1.261 1_565 S
H9 C3 0.930 . S
H10 C5 0.930 . S
N11 Cu0 1.985 . S
N11 C13 1.335 . S
N11 C14 1.390 . S
N12 C13 1.345 . S
N12 C15 1.336 . S
C13 N11 1.335 . S
C13 N12 1.345 . S
C13 H18 0.930 . S
C14 N11 1.390 . S
C14 C15 1.346 . S
C14 H19 0.930 . S
C15 N12 1.336 . S
C15 C14 1.346 . S
C15 H22 0.929 . S
C16 O6 1.282 . S
C16 O17 1.216 1_545 S
O17 C16 1.216 1_565 S
H18 C13 0.930 . S
H19 C14 0.930 . S
O20 Cu0 1.959 1_556 S
O20 C7 1.251 . S
H21 C4 0.930 . S
H22 C15 0.929 . S
Cu23 N24 1.999 . S
Cu23 O29 1.974 . S
Cu23 N34 1.985 . S
Cu23 O43 1.959 . S
N24 Cu23 1.999 . S
N24 C26 1.263 . S
N24 C28 1.389 1_455 S
N25 C26 1.358 . S
N25 C27 1.400 . S
C26 N24 1.263 . S
C26 N25 1.358 . S
C26 H32 0.930 . S
C27 N25 1.400 . S
C27 C28 1.351 1_455 S
C27 H44 0.930 1_455 S
C28 N24 1.389 1_655 S
C28 C27 1.351 1_655 S
C28 H33 0.930 . S
O29 Cu23 1.974 . S
O29 C39 1.282 . S
C30 O31 1.261 . S
C30 O43 1.251 . S
O31 C30 1.261 . S
H32 C26 0.930 . S
H33 C28 0.930 . S
N34 Cu23 1.985 . S
N34 C36 1.335 . S
N34 C37 1.390 . S
N35 C36 1.345 . S
N35 C38 1.336 . S
C36 N34 1.335 . S
C36 N35 1.345 . S
C36 H41 0.930 . S
C37 N34 1.390 . S
C37 C38 1.346 . S
C37 H42 0.930 . S
C38 N35 1.336 . S
C38 C37 1.346 . S
C38 H45 0.929 . S
C39 O29 1.282 . S
C39 O40 1.216 . S
O40 C39 1.216 . S
H41 C36 0.930 . S
H42 C37 0.930 . S
O43 Cu23 1.959 . S
O43 C30 1.251 . S
H44 C27 0.930 1_655 S
H45 C38 0.929 . S
Mg46 O47 2.028 . S
Mg46 O53 1.986 . S
Mg46 O55 2.114 1_545 S
Mg46 O56 2.251 . S
Mg46 O59 2.010 . S
O47 Mg46 2.028 . S
O47 C50 1.250 1_455 S
O48 Mg49 2.028 . S
O48 C50 1.248 . S
Mg49 O48 2.028 . S
Mg49 O54 2.032 1_655 S
Mg49 O56 2.079 1_655 S
C50 O47 1.250 1_655 S
C50 O48 1.248 . S
C51 O52 1.264 . S
C51 O59 1.249 . S
O52 C51 1.264 . S
O53 Mg46 1.986 . S
O53 C57 1.246 . S
O54 Mg49 2.032 1_455 S
O54 C57 1.259 . S
O55 Mg46 2.114 1_565 S
O55 C58 1.252 . S
O56 Mg46 2.251 . S
O56 Mg49 2.079 1_455 S
O56 C58 1.273 1_545 S
C57 O53 1.246 . S
C57 O54 1.259 . S
C58 O55 1.252 . S
C58 O56 1.273 1_565 S
O59 Mg46 2.010 . S
O59 C51 1.249 . S
Mg60 O61 2.028 . S
Mg60 O67 1.986 . S
Mg60 O69 2.114 1_545 S
Mg60 O70 2.251 . S
Mg60 O73 2.010 1_455 S
O61 Mg60 2.028 . S
O61 C64 1.250 . S
O62 Mg63 2.028 . S
O62 C64 1.248 . S
Mg63 O62 2.028 . S
Mg63 O68 2.032 . S
Mg63 O70 2.079 . S
C64 O61 1.250 . S
C64 O62 1.248 . S
C65 O66 1.264 . S
C65 O73 1.249 . S
O66 C65 1.264 . S
O67 Mg60 1.986 . S
O67 C71 1.246 . S
O68 Mg63 2.032 . S
O68 C71 1.259 . S
O69 Mg60 2.114 1_565 S
O69 C72 1.252 . S
O70 Mg60 2.251 . S
O70 Mg63 2.079 . S
O70 C72 1.273 1_545 S
C71 O67 1.246 . S
C71 O68 1.259 . S
C72 O69 1.252 . S
C72 O70 1.273 1_565 S
O73 Mg60 2.010 1_655 S
O73 C65 1.249 . S
H74 C75 0.951 . S
C75 H74 0.951 . S
C75 C81 1.265 . S
H76 C81 0.950 . S
H77 C85 0.949 . S
H78 C86 0.950 . S
H79 C87 0.951 . S
H80 C88 0.951 . S
C81 C75 1.265 . S
C81 H76 0.950 . S
C81 C82 1.478 . S
C82 C81 1.478 . S
C82 C83 1.397 . S
C82 C99 1.394 . S
C83 C82 1.397 . S
C83 C84 1.438 . S
C83 C88 1.429 . S
C84 C83 1.438 . S
C84 C85 1.428 . S
C84 C97 1.394 . S
C85 H77 0.949 . S
C85 C84 1.428 . S
C85 C86 1.345 . S
C86 H78 0.950 . S
C86 C85 1.345 . S
C86 C87 1.424 . S
C87 H79 0.951 . S
C87 C86 1.424 . S
C87 C88 1.347 . S
C88 H80 0.951 . S
C88 C83 1.429 . S
C88 C87 1.347 . S
H89 C90 0.951 . S
C90 H89 0.951 . S
C90 C96 1.265 . S
H91 C96 0.950 . S
H92 C100 0.949 . S
H93 C101 0.950 . S
H94 C102 0.951 . S
H95 C103 0.951 . S
C96 C90 1.265 . S
C96 H91 0.950 . S
C96 C97 1.478 . S
C97 C84 1.394 . S
C97 C96 1.478 . S
C97 C98 1.397 . S
C98 C97 1.397 . S
C98 C99 1.438 . S
C98 C103 1.429 1_545 S
C99 C82 1.394 . S
C99 C98 1.438 . S
C99 C100 1.428 1_545 S
C100 H92 0.949 . S
C100 C99 1.428 1_565 S
C100 C101 1.345 . S
C101 H93 0.950 . S
C101 C100 1.345 . S
C101 C102 1.424 . S
C102 H94 0.951 . S
C102 C101 1.424 . S
C102 C103 1.347 . S
C103 H95 0.951 . S
C103 C98 1.429 1_565 S
C103 C102 1.347 . S
H104 C105 0.951 . S
C105 H104 0.951 . S
C105 C111 1.265 . S
H106 C111 0.950 1_655 S
H107 C115 0.949 . S
H108 C116 0.950 . S
H109 C117 0.951 . S
H110 C118 0.951 . S
C111 C105 1.265 . S
C111 H106 0.950 1_455 S
C111 C112 1.478 . S
C112 C111 1.478 . S
C112 C113 1.397 . S
C112 C129 1.394 . S
C113 C112 1.397 . S
C113 C114 1.438 . S
C113 C118 1.429 . S
C114 C113 1.438 . S
C114 C115 1.428 . S
C114 C127 1.394 . S
C115 H107 0.949 . S
C115 C114 1.428 . S
C115 C116 1.345 . S
C116 H108 0.950 . S
C116 C115 1.345 . S
C116 C117 1.424 . S
C117 H109 0.951 . S
C117 C116 1.424 . S
C117 C118 1.347 . S
C118 H110 0.951 . S
C118 C113 1.429 . S
C118 C117 1.347 . S
H119 C120 0.951 . S
C120 H119 0.951 . S
C120 C126 1.265 . S
H121 C126 0.950 . S
H122 C130 0.949 . S
H123 C131 0.950 . S
H124 C132 0.951 . S
H125 C133 0.951 . S
C126 C120 1.265 . S
C126 H121 0.950 . S
C126 C127 1.478 . S
C127 C114 1.394 . S
C127 C126 1.478 . S
C127 C128 1.397 . S
C128 C127 1.397 . S
C128 C129 1.438 . S
C128 C133 1.429 . S
C129 C112 1.394 . S
C129 C128 1.438 . S
C129 C130 1.428 . S
C130 H122 0.949 . S
C130 C129 1.428 . S
C130 C131 1.345 . S
C131 H123 0.950 . S
C131 C130 1.345 . S
C131 C132 1.424 . S
C132 H124 0.951 . S
C132 C131 1.424 . S
C132 C133 1.347 . S
C133 H125 0.951 . S
C133 C128 1.429 . S
C133 C132 1.347 . S
H134 C135 0.951 . S
C135 H134 0.951 . S
C135 C141 1.265 . S
H136 C141 0.950 . S
H137 C145 0.949 . S
H138 C146 0.950 . S
H139 C147 0.951 . S
H140 C148 0.951 . S
C141 C135 1.265 . S
C141 H136 0.950 . S
C141 C142 1.478 . S
C142 C141 1.478 . S
C142 C143 1.397 . S
C142 C159 1.394 . S
C143 C142 1.397 . S
C143 C144 1.438 . S
C143 C148 1.429 1_545 S
C144 C143 1.438 . S
C144 C145 1.428 1_545 S
C144 C157 1.394 . S
C145 H137 0.949 . S
C145 C144 1.428 1_565 S
C145 C146 1.345 . S
C146 H138 0.950 . S
C146 C145 1.345 . S
C146 C147 1.424 . S
C147 H139 0.951 . S
C147 C146 1.424 . S
C147 C148 1.347 . S
C148 H140 0.951 . S
C148 C143 1.429 1_565 S
C148 C147 1.347 . S
H149 C150 0.951 . S
C150 H149 0.951 . S
C150 C156 1.265 . S
H151 C156 0.950 . S
H152 C160 0.949 . S
H153 C161 0.950 . S
H154 C162 0.951 . S
H155 C163 0.951 . S
C156 C150 1.265 . S
C156 H151 0.950 . S
C156 C157 1.478 . S
C157 C144 1.394 . S
C157 C156 1.478 . S
C157 C158 1.397 . S
C158 C157 1.397 . S
C158 C159 1.438 . S
C158 C163 1.429 . S
C159 C142 1.394 . S
C159 C158 1.438 . S
C159 C160 1.428 . S
C160 H152 0.949 . S
C160 C159 1.428 . S
C160 C161 1.345 . S
C161 H153 0.950 . S
C161 C160 1.345 . S
C161 C162 1.424 . S
C162 H154 0.951 . S
C162 C161 1.424 . S
C162 C163 1.347 . S
C163 H155 0.951 . S
C163 C158 1.429 . S
C163 C162 1.347 . S
H164 C165 0.951 . S
C165 H164 0.951 . S
C165 C171 1.265 . S
H166 C171 0.950 . S
H167 C175 0.949 . S
H168 C176 0.950 . S
H169 C177 0.951 1_655 S
H170 C178 0.951 . S
C171 C165 1.265 . S
C171 H166 0.950 . S
C171 C172 1.478 . S
C172 C171 1.478 . S
C172 C173 1.397 . S
C172 C189 1.394 . S
C173 C172 1.397 . S
C173 C174 1.438 . S
C173 C178 1.429 . S
C174 C173 1.438 . S
C174 C175 1.428 . S
C174 C187 1.394 . S
C175 H167 0.949 . S
C175 C174 1.428 . S
C175 C176 1.345 . S
C176 H168 0.950 . S
C176 C175 1.345 . S
C176 C177 1.424 . S
C177 H169 0.951 1_455 S
C177 C176 1.424 . S
C177 C178 1.347 . S
C178 H170 0.951 . S
C178 C173 1.429 . S
C178 C177 1.347 . S
H179 C180 0.951 . S
C180 H179 0.951 . S
C180 C186 1.265 . S
H181 C186 0.950 . S
H182 C190 0.949 . S
H183 C191 0.950 . S
H184 C192 0.951 . S
H185 C193 0.951 . S
C186 C180 1.265 . S
C186 H181 0.950 . S
C186 C187 1.478 . S
C187 C174 1.394 . S
C187 C186 1.478 . S
C187 C188 1.397 . S
C188 C187 1.397 . S
C188 C189 1.438 . S
C188 C193 1.429 . S
C189 C172 1.394 . S
C189 C188 1.438 . S
C189 C190 1.428 . S
C190 H182 0.949 . S
C190 C189 1.428 . S
C190 C191 1.345 . S
C191 H183 0.950 . S
C191 C190 1.345 . S
C191 C192 1.424 . S
C192 H184 0.951 . S
C192 C191 1.424 . S
C192 C193 1.347 . S
C193 H185 0.951 . S
C193 C188 1.429 . S
C193 C192 1.347 . S
H194 C195 0.951 . S
C195 H194 0.951 . S
C195 C201 1.265 . S
H196 C201 0.950 . S
H197 C205 0.949 . S
H198 C206 0.950 . S
H199 C207 0.951 . S
H200 C208 0.951 . S
C201 C195 1.265 . S
C201 H196 0.950 . S
C201 C202 1.478 . S
C202 C201 1.478 . S
C202 C203 1.397 . S
C202 C219 1.394 1_545 S
C203 C202 1.397 . S
C203 C204 1.438 . S
C203 C208 1.429 . S
C204 C203 1.438 . S
C204 C205 1.428 . S
C204 C217 1.394 . S
C205 H197 0.949 . S
C205 C204 1.428 . S
C205 C206 1.345 . S
C206 H198 0.950 . S
C206 C205 1.345 . S
C206 C207 1.424 . S
C207 H199 0.951 . S
C207 C206 1.424 . S
C207 C208 1.347 . S
C208 H200 0.951 . S
C208 C203 1.429 . S
C208 C207 1.347 . S
H209 C210 0.951 . S
C210 H209 0.951 . S
C210 C216 1.265 . S
H211 C216 0.950 . S
H212 C220 0.949 . S
H213 C221 0.950 . S
H214 C222 0.951 . S
H215 C223 0.951 . S
C216 C210 1.265 . S
C216 H211 0.950 . S
C216 C217 1.478 . S
C217 C204 1.394 . S
C217 C216 1.478 . S
C217 C218 1.397 . S
C218 C217 1.397 . S
C218 C219 1.438 1_545 S
C218 C223 1.428 1_545 S
C219 C202 1.394 1_565 S
C219 C218 1.438 1_565 S
C219 C220 1.428 . S
C220 H212 0.949 . S
C220 C219 1.428 . S
C220 C221 1.345 . S
C221 H213 0.950 . S
C221 C220 1.345 . S
C221 C222 1.424 . S
C222 H214 0.951 . S
C222 C221 1.424 . S
C222 C223 1.347 . S
C223 H215 0.951 . S
C223 C218 1.428 1_565 S
C223 C222 1.347 . S
H224 C225 0.951 . S
C225 H224 0.951 . S
C225 C231 1.265 . S
H226 C231 0.950 . S
H227 C235 0.949 . S
H228 C236 0.950 . S
H229 C237 0.951 . S
H230 C238 0.951 . S
C231 C225 1.265 . S
C231 H226 0.950 . S
C231 C232 1.478 . S
C232 C231 1.478 . S
C232 C233 1.397 . S
C232 C249 1.394 . S
C233 C232 1.397 . S
C233 C234 1.438 . S
C233 C238 1.429 . S
C234 C233 1.438 . S
C234 C235 1.428 . S
C234 C247 1.394 . S
C235 H227 0.949 . S
C235 C234 1.428 . S
C235 C236 1.345 . S
C236 H228 0.950 . S
C236 C235 1.345 . S
C236 C237 1.424 . S
C237 H229 0.951 . S
C237 C236 1.424 . S
C237 C238 1.347 . S
C238 H230 0.951 . S
C238 C233 1.429 . S
C238 C237 1.347 . S
H239 C240 0.951 . S
C240 H239 0.951 . S
C240 C246 1.265 . S
H241 C246 0.950 . S
H242 C250 0.949 . S
H243 C251 0.950 . S
H244 C252 0.951 . S
H245 C253 0.951 . S
C246 C240 1.265 . S
C246 H241 0.950 . S
C246 C247 1.478 . S
C247 C234 1.394 . S
C247 C246 1.478 . S
C247 C248 1.397 . S
C248 C247 1.397 . S
C248 C249 1.438 . S
C248 C253 1.429 . S
C249 C232 1.394 . S
C249 C248 1.438 . S
C249 C250 1.428 . S
C250 H242 0.949 . S
C250 C249 1.428 . S
C250 C251 1.345 . S
C251 H243 0.950 . S
C251 C250 1.345 . S
C251 C252 1.424 . S
C252 H244 0.951 . S
C252 C251 1.424 . S
C252 C253 1.347 . S
C253 H245 0.951 . S
C253 C248 1.429 . S
C253 C252 1.347 . S
H254 C255 0.951 . S
C255 H254 0.951 . S
C255 C261 1.265 . S
H256 C261 0.950 . S
H257 C265 0.949 . S
H258 C266 0.950 . S
H259 C267 0.951 . S
H260 C268 0.951 . S
C261 C255 1.265 . S
C261 H256 0.950 . S
C261 C262 1.478 . S
C262 C261 1.478 . S
C262 C263 1.397 . S
C262 C279 1.394 . S
C263 C262 1.397 . S
C263 C264 1.438 . S
C263 C268 1.429 1_545 S
C264 C263 1.438 . S
C264 C265 1.428 1_545 S
C264 C277 1.394 . S
C265 H257 0.949 . S
C265 C264 1.428 1_565 S
C265 C266 1.345 . S
C266 H258 0.950 . S
C266 C265 1.345 . S
C266 C267 1.424 . S
C267 H259 0.951 . S
C267 C266 1.424 . S
C267 C268 1.347 . S
C268 H260 0.951 . S
C268 C263 1.429 1_565 S
C268 C267 1.347 . S
H269 C270 0.951 . S
C270 H269 0.951 . S
C270 C276 1.265 . S
H271 C276 0.950 . S
H272 C280 0.949 . S
H273 C281 0.950 . S
H274 C282 0.951 . S
H275 C283 0.951 . S
C276 C270 1.265 . S
C276 H271 0.950 . S
C276 C277 1.478 . S
C277 C264 1.394 . S
C277 C276 1.478 . S
C277 C278 1.397 . S
C278 C277 1.397 . S
C278 C279 1.438 . S
C278 C283 1.429 . S
C279 C262 1.394 . S
C279 C278 1.438 . S
C279 C280 1.428 . S
C280 H272 0.949 . S
C280 C279 1.428 . S
C280 C281 1.345 . S
C281 H273 0.950 . S
C281 C280 1.345 . S
C281 C282 1.424 . S
C282 H274 0.951 . S
C282 C281 1.424 . S
C282 C283 1.347 . S
C283 H275 0.951 . S
C283 C278 1.429 . S
C283 C282 1.347 . S
H284 C285 0.951 . S
C285 H284 0.951 . S
C285 C291 1.265 . S
H286 C291 0.950 1_655 S
H287 C295 0.949 . S
H288 C296 0.950 . S
H289 C297 0.951 . S
H290 C298 0.951 . S
C291 C285 1.265 . S
C291 H286 0.950 1_455 S
C291 C292 1.478 . S
C292 C291 1.478 . S
C292 C293 1.397 . S
C292 C309 1.394 . S
C293 C292 1.397 . S
C293 C294 1.438 . S
C293 C298 1.429 1_455 S
C294 C293 1.438 . S
C294 C295 1.428 . S
C294 C307 1.394 . S
C295 H287 0.949 . S
C295 C294 1.428 . S
C295 C296 1.345 1_455 S
C296 H288 0.950 . S
C296 C295 1.345 1_655 S
C296 C297 1.424 . S
C297 H289 0.951 . S
C297 C296 1.424 . S
C297 C298 1.347 . S
C298 H290 0.951 . S
C298 C293 1.429 1_655 S
C298 C297 1.347 . S
H299 C300 0.951 . S
C300 H299 0.951 . S
C300 C306 1.265 . S
H301 C306 0.950 . S
H302 C310 0.949 . S
H303 C311 0.950 . S
H304 C312 0.951 . S
H305 C313 0.951 . S
C306 C300 1.265 . S
C306 H301 0.950 . S
C306 C307 1.478 . S
C307 C294 1.394 . S
C307 C306 1.478 . S
C307 C308 1.397 . S
C308 C307 1.397 . S
C308 C309 1.438 . S
C308 C313 1.429 . S
C309 C292 1.394 . S
C309 C308 1.438 . S
C309 C310 1.428 . S
C310 H302 0.949 . S
C310 C309 1.428 . S
C310 C311 1.345 . S
C311 H303 0.950 . S
C311 C310 1.345 . S
C311 C312 1.424 . S
C312 H304 0.951 . S
C312 C311 1.424 . S
C312 C313 1.347 . S
C313 H305 0.951 . S
C313 C308 1.429 . S
C313 C312 1.347 . S
C90 C51 1.136 . S
C75 N12 1.464 . S
C120 C71 1.492 . S
C105 N25 1.485 . S
C150 C50 1.385 . S
C135 C16 1.467 . S
C180 C72 1.503 . S
C165 C30 1.505 . S
C210 C64 1.504 . S
C195 C7 1.496 . S
C240 C57 1.439 . S
C225 C39 1.451 . S
C270 C65 1.350 . S
C255 N2 1.428 . S
C285 N35 1.424 . S
C300 C58 1.471 . S
