# Generated by pormake.
# Topology wbl, (4,4)-cn, num edge types: 1
# Building blocks:
#     Node 0, Type 0, BuildingBlock: MUDLON_clean_sbu_0, # of connection points: 4
#     Node 1, Type 0, BuildingBlock: MUDLON_clean_sbu_0, # of connection points: 4
#     Node 2, Type 0, BuildingBlock: MUDLON_clean_sbu_0, # of connection points: 4
#     Node 3, Type 0, BuildingBlock: MUDLON_clean_sbu_0, # of connection points: 4
#     Node 4, Type 0, BuildingBlock: MUDLON_clean_sbu_0, # of connection points: 4
#     Node 5, Type 0, BuildingBlock: MUDLON_clean_sbu_0, # of connection points: 4
#     Node 6, Type 0, BuildingBlock: MUDLON_clean_sbu_0, # of connection points: 4
#     Node 7, Type 0, BuildingBlock: MUDLON_clean_sbu_0, # of connection points: 4
#     Node 8, Type 1, BuildingBlock: TATPOV_clean_sbu_0, # of connection points: 4
#     Node 9, Type 1, BuildingBlock: TATPOV_clean_sbu_0, # of connection points: 4
#     Node 10, Type 1, BuildingBlock: TATPOV_clean_sbu_0, # of connection points: 4
#     Node 11, Type 1, BuildingBlock: TATPOV_clean_sbu_0, # of connection points: 4
#     Node 12, Type 1, BuildingBlock: TATPOV_clean_sbu_0, # of connection points: 4
#     Node 13, Type 1, BuildingBlock: TATPOV_clean_sbu_0, # of connection points: 4
#     Node 14, Type 1, BuildingBlock: TATPOV_clean_sbu_0, # of connection points: 4
#     Node 15, Type 1, BuildingBlock: TATPOV_clean_sbu_0, # of connection points: 4
#     Edge 16, Type (0, 1), BuildingBlock: XIVTED_clean_linker_0, # of connection points: 2
#     Edge 17, Type (0, 1), BuildingBlock: XIVTED_clean_linker_0, # of connection points: 2
#     Edge 18, Type (0, 1), BuildingBlock: XIVTED_clean_linker_0, # of connection points: 2
#     Edge 19, Type (0, 1), BuildingBlock: XIVTED_clean_linker_0, # of connection points: 2
#     Edge 20, Type (0, 1), BuildingBlock: XIVTED_clean_linker_0, # of connection points: 2
#     Edge 21, Type (0, 1), BuildingBlock: XIVTED_clean_linker_0, # of connection points: 2
#     Edge 22, Type (0, 1), BuildingBlock: XIVTED_clean_linker_0, # of connection points: 2
#     Edge 23, Type (0, 1), BuildingBlock: XIVTED_clean_linker_0, # of connection points: 2
#     Edge 24, Type (0, 1), BuildingBlock: XIVTED_clean_linker_0, # of connection points: 2
#     Edge 25, Type (0, 1), BuildingBlock: XIVTED_clean_linker_0, # of connection points: 2
#     Edge 26, Type (0, 1), BuildingBlock: XIVTED_clean_linker_0, # of connection points: 2
#     Edge 27, Type (0, 1), BuildingBlock: XIVTED_clean_linker_0, # of connection points: 2
#     Edge 28, Type (0, 1), BuildingBlock: XIVTED_clean_linker_0, # of connection points: 2
#     Edge 29, Type (0, 1), BuildingBlock: XIVTED_clean_linker_0, # of connection points: 2
#     Edge 30, Type (0, 1), BuildingBlock: XIVTED_clean_linker_0, # of connection points: 2
#     Edge 31, Type (0, 1), BuildingBlock: XIVTED_clean_linker_0, # of connection points: 2
#     Edge 32, Type (0, 1), BuildingBlock: XIVTED_clean_linker_0, # of connection points: 2
#     Edge 33, Type (0, 1), BuildingBlock: XIVTED_clean_linker_0, # of connection points: 2
#     Edge 34, Type (0, 1), BuildingBlock: XIVTED_clean_linker_0, # of connection points: 2
#     Edge 35, Type (0, 1), BuildingBlock: XIVTED_clean_linker_0, # of connection points: 2
#     Edge 36, Type (0, 1), BuildingBlock: XIVTED_clean_linker_0, # of connection points: 2
#     Edge 37, Type (0, 1), BuildingBlock: XIVTED_clean_linker_0, # of connection points: 2
#     Edge 38, Type (0, 1), BuildingBlock: XIVTED_clean_linker_0, # of connection points: 2
#     Edge 39, Type (0, 1), BuildingBlock: XIVTED_clean_linker_0, # of connection points: 2
#     Edge 40, Type (0, 1), BuildingBlock: XIVTED_clean_linker_0, # of connection points: 2
#     Edge 41, Type (0, 1), BuildingBlock: XIVTED_clean_linker_0, # of connection points: 2
#     Edge 42, Type (0, 1), BuildingBlock: XIVTED_clean_linker_0, # of connection points: 2
#     Edge 43, Type (0, 1), BuildingBlock: XIVTED_clean_linker_0, # of connection points: 2
#     Edge 44, Type (0, 1), BuildingBlock: XIVTED_clean_linker_0, # of connection points: 2
#     Edge 45, Type (0, 1), BuildingBlock: XIVTED_clean_linker_0, # of connection points: 2
#     Edge 46, Type (0, 1), BuildingBlock: XIVTED_clean_linker_0, # of connection points: 2
#     Edge 47, Type (0, 1), BuildingBlock: XIVTED_clean_linker_0, # of connection points: 2
# Relax obj value: 0.243
# Max RMSD: 0.232
# Mean RMSD: 0.173
data_MOF--net-wbl--node1-MUDLON_clean_sbu_0--node2-TATPOV_clean_sbu_0--edge1-XIVTED_clean_linker_0
_symmetry_space_group_name_H-M    P1
_symmetry_Int_Tables_number       1
_symmetry_cell_setting            triclinic
loop_
_symmetry_equiv_pos_as_xyz
'x, y, z'
_cell_length_a     34.78645
_cell_length_b     34.765247
_cell_length_c     74.094714
_cell_angle_alpha  91.105147
_cell_angle_beta   91.051476
_cell_angle_gamma 89.818748
loop_
_atom_site_label
_atom_site_type_symbol
_atom_site_fract_x
_atom_site_fract_y
_atom_site_fract_z
_atom_type_partial_charge
Mg0 Mg 0.16711 0.18042 0.35384 0.0
C1 C 0.13684 0.13785 0.38563 0.0
O2 O 0.12824 0.17309 0.39084 0.0
C3 C 0.08659 0.19968 0.34248 0.0
O4 O 0.08167 0.18958 0.35927 0.0
C5 C 0.21425 0.14272 0.3243 0.0
O6 O 0.18146 0.14524 0.31531 0.0
O7 O 0.21713 0.15815 0.33997 0.0
O8 O 0.15015 0.13208 0.36993 0.0
O9 O 0.17975 0.22383 0.37457 0.0
C10 C 0.15809 0.25312 0.3763 0.0
O11 O 0.13519 0.2623 0.36276 0.0
O12 O 0.12023 0.19829 0.33606 0.0
Mg13 Mg 0.01442 0.66422 0.60186 0.0
C14 C 0.05834 0.62566 0.63154 0.0
O15 O 0.02352 0.61396 0.63521 0.0
C16 C 0.01216 0.60363 0.57173 0.0
O17 O 0.0463 0.61755 0.56836 0.0
C18 C 0.061 0.73353 0.59389 0.0
O19 O 0.06817 0.73044 0.61127 0.0
O20 O 0.03628 0.7113 0.58637 0.0
O21 O 0.06355 0.64432 0.61722 0.0
O22 O 0.97374 0.67704 0.62305 0.0
C23 C 0.94451 0.65539 0.62413 0.0
O24 O 0.93467 0.63396 0.61001 0.0
O25 O 0.99291 0.61815 0.58457 0.0
Mg26 Mg 0.52883 0.45677 0.85391 0.0
C27 C 0.53537 0.53759 0.86931 0.0
O28 O 0.51939 0.54599 0.85367 0.0
C29 C 0.5914 0.46963 0.82624 0.0
O30 O 0.58145 0.50585 0.82858 0.0
C31 C 0.47631 0.48303 0.82396 0.0
O32 O 0.50489 0.46946 0.81438 0.0
O33 O 0.47668 0.47771 0.84086 0.0
O34 O 0.54541 0.50308 0.87223 0.0
O35 O 0.52226 0.41017 0.8726 0.0
C36 C 0.54911 0.38537 0.87354 0.0
O37 O 0.57452 0.38398 0.86065 0.0
O38 O 0.5741 0.44385 0.83489 0.0
Mg39 Mg 0.68964 0.99596 0.10919 0.0
C40 C 0.73807 0.96801 0.13959 0.0
O41 O 0.70515 0.95199 0.14347 0.0
C42 C 0.65203 0.92004 0.09816 0.0
O43 O 0.65414 0.91398 0.11559 0.0
C44 C 0.73499 0.05752 0.09116 0.0
O45 O 0.76311 0.03827 0.09892 0.0
O46 O 0.70052 0.04645 0.09317 0.0
O47 O 0.74175 0.9821 0.12402 0.0
O48 O 0.64946 0.00839 0.13064 0.0
C49 C 0.61432 0.99852 0.13016 0.0
O50 O 0.59945 0.98391 0.11512 0.0
O51 O 0.66656 0.95047 0.09198 0.0
Mg52 Mg 0.02661 0.65498 0.92208 0.0
C53 C 0.04818 0.7279 0.90342 0.0
O54 O 0.07039 0.73152 0.91786 0.0
C55 C 0.9526 0.615 0.92924 0.0
O56 O 0.95656 0.60591 0.91208 0.0
C57 C 0.07346 0.68963 0.95312 0.0
O58 O 0.0436 0.71277 0.95415 0.0
O59 O 0.07381 0.66305 0.94111 0.0
O60 O 0.02272 0.7017 0.90295 0.0
O61 O 0.0387 0.60599 0.90474 0.0
C62 C 0.05649 0.61068 0.89012 0.0
O63 O 0.07172 0.64434 0.88696 0.0
O64 O 0.97587 0.63893 0.93663 0.0
Mg65 Mg 0.48322 0.49804 0.16804 0.0
C66 C 0.40825 0.51855 0.14976 0.0
O67 O 0.40763 0.54423 0.16297 0.0
C68 C 0.52057 0.45158 0.1977 0.0
O69 O 0.51765 0.48459 0.2065 0.0
C70 C 0.45313 0.54967 0.19809 0.0
O71 O 0.43373 0.51848 0.20172 0.0
O72 O 0.47683 0.54871 0.18523 0.0
O73 O 0.43247 0.49118 0.15066 0.0
O74 O 0.52717 0.50771 0.14831 0.0
C75 C 0.52288 0.48732 0.13398 0.0
O76 O 0.49384 0.46333 0.1327 0.0
O77 O 0.50514 0.44802 0.18206 0.0
Mg78 Mg 0.67841 0.99842 0.41397 0.0
C79 C 0.67335 0.07871 0.39872 0.0
O80 O 0.69289 0.08756 0.41355 0.0
C81 C 0.60974 0.00303 0.43913 0.0
O82 O 0.61699 0.04008 0.43888 0.0
C83 C 0.72416 0.02423 0.4468 0.0
O84 O 0.69338 0.01162 0.45477 0.0
O85 O 0.72702 0.01943 0.42985 0.0
O86 O 0.66125 0.04451 0.39633 0.0
O87 O 0.69159 0.95298 0.3948 0.0
C88 C 0.67785 0.91955 0.39671 0.0
O89 O 0.66366 0.91068 0.4124 0.0
O90 O 0.63082 0.9799 0.43021 0.0
Mg91 Mg 0.1986 0.13098 0.67703 0.0
C92 C 0.27245 0.1117 0.65834 0.0
O93 O 0.27256 0.08423 0.67026 0.0
C94 C 0.16098 0.20735 0.68261 0.0
O95 O 0.15933 0.2044 0.6649 0.0
C96 C 0.23344 0.08383 0.70717 0.0
O97 O 0.25718 0.11315 0.7081 0.0
O98 O 0.2062 0.08374 0.69549 0.0
O99 O 0.24749 0.13835 0.65961 0.0
O100 O 0.15156 0.11951 0.6582 0.0
C101 C 0.15791 0.10795 0.64214 0.0
O102 O 0.19282 0.09723 0.63782 0.0
O103 O 0.17944 0.18201 0.69142 0.0
Zn104 Zn 0.41202 0.76939 0.98828 0.0
Zn105 Zn 0.41492 0.706 0.00929 0.0
O106 O 0.35814 0.71768 0.00404 0.0
O107 O 0.35389 0.77161 0.98914 0.0
O108 O 0.41092 0.66234 0.02684 0.0
O109 O 0.44525 0.79766 0.0067 0.0
O110 O 0.44707 0.74612 0.02351 0.0
C111 C 0.3378 0.74359 0.99659 0.0
C112 C 0.44894 0.70127 0.97199 0.0
O113 O 0.44259 0.68524 0.98698 0.0
O114 O 0.43808 0.73563 0.96939 0.0
C115 C 0.3876 0.66823 0.03965 0.0
O116 O 0.36921 0.70127 0.04054 0.0
C117 C 0.45699 0.78073 0.02075 0.0
Zn118 Zn 0.41261 0.84459 0.29557 0.0
Zn119 Zn 0.44725 0.88193 0.26874 0.0
O120 O 0.40529 0.92009 0.27688 0.0
O121 O 0.37842 0.89123 0.29963 0.0
O122 O 0.46904 0.90689 0.24685 0.0
O123 O 0.39796 0.80007 0.27884 0.0
O124 O 0.43073 0.82954 0.25814 0.0
C125 C 0.38104 0.92012 0.28956 0.0
C126 C 0.4944 0.859 0.30178 0.0
O127 O 0.49222 0.8768 0.2869 0.0
O128 O 0.46495 0.84277 0.30794 0.0
C129 C 0.49513 0.9324 0.247 0.0
O130 O 0.5101 0.94444 0.2625 0.0
C131 C 0.41183 0.80044 0.26316 0.0
Zn132 Zn 0.28728 0.89002 0.48592 0.0
Zn133 Zn 0.2882 0.94974 0.51006 0.0
O134 O 0.34394 0.94339 0.50197 0.0
O135 O 0.34541 0.89275 0.48376 0.0
O136 O 0.29263 0.99085 0.52957 0.0
O137 O 0.26079 0.85678 0.50407 0.0
O138 O 0.26175 0.90594 0.52322 0.0
C139 C 0.36264 0.92032 0.49184 0.0
C140 C 0.24298 0.95782 0.475 0.0
O141 O 0.25371 0.97199 0.49026 0.0
O142 O 0.25381 0.92437 0.47015 0.0
C143 C 0.31828 0.98606 0.54179 0.0
O144 O 0.34054 0.95551 0.54083 0.0
C145 C 0.25222 0.87141 0.51927 0.0
Zn146 Zn 0.30758 0.75009 0.74285 0.0
Zn147 Zn 0.24971 0.74527 0.76618 0.0
O148 O 0.25818 0.8032 0.76199 0.0
O149 O 0.30893 0.80795 0.74492 0.0
O150 O 0.2078 0.74562 0.78477 0.0
O151 O 0.34045 0.71671 0.75866 0.0
O152 O 0.29289 0.71217 0.77768 0.0
C153 C 0.28221 0.8238 0.75375 0.0
C154 C 0.23899 0.7121 0.72825 0.0
O155 O 0.22596 0.71801 0.74403 0.0
O156 O 0.27227 0.72378 0.72436 0.0
C157 C 0.20949 0.76986 0.79784 0.0
O158 O 0.23877 0.79362 0.79903 0.0
C159 C 0.32682 0.70306 0.7729 0.0
Zn160 Zn 0.9111 0.26718 0.54113 0.0
Zn161 Zn 0.96568 0.26325 0.51584 0.0
O162 O 0.95812 0.3208 0.52169 0.0
O163 O 0.91135 0.32513 0.54119 0.0
O164 O 0.00233 0.26566 0.4951 0.0
O165 O 0.8749 0.23651 0.52514 0.0
O166 O 0.92026 0.23232 0.50487 0.0
C167 C 0.93608 0.34118 0.53156 0.0
C168 C 0.98128 0.22648 0.55198 0.0
O169 O 0.9928 0.23389 0.53618 0.0
O170 O 0.94857 0.23809 0.55708 0.0
C171 C 0.03884 0.26399 0.49596 0.0
O172 O 0.05624 0.25839 0.51158 0.0
C173 C 0.88664 0.22389 0.51008 0.0
Zn174 Zn 0.91339 0.37616 0.77672 0.0
Zn175 Zn 0.91487 0.43496 0.75401 0.0
O176 O 0.85764 0.42701 0.76006 0.0
O177 O 0.85562 0.37557 0.77683 0.0
O178 O 0.91149 0.47611 0.73505 0.0
O179 O 0.9438 0.343 0.75979 0.0
O180 O 0.94584 0.39162 0.74126 0.0
C181 C 0.83845 0.40278 0.76891 0.0
C182 C 0.95363 0.44387 0.79084 0.0
O183 O 0.94542 0.45797 0.77548 0.0
O184 O 0.94258 0.41029 0.7946 0.0
C185 C 0.92255 0.51086 0.73681 0.0
O186 O 0.93843 0.5227 0.75214 0.0
C187 C 0.95539 0.35734 0.74531 0.0
Zn188 Zn 0.80048 0.38947 0.0389 0.0
Zn189 Zn 0.7462 0.37606 0.01272 0.0
O190 O 0.76011 0.32266 0.02209 0.0
O191 O 0.80655 0.33181 0.04226 0.0
O192 O 0.70988 0.36374 0.99188 0.0
O193 O 0.83213 0.41951 0.02144 0.0
O194 O 0.78729 0.40875 0.00064 0.0
C195 C 0.78397 0.30929 0.03362 0.0
C196 C 0.72467 0.42159 0.04645 0.0
O197 O 0.71532 0.407 0.03109 0.0
O198 O 0.7587 0.41797 0.05264 0.0
C199 C 0.67337 0.36321 0.99241 0.0
O200 O 0.65616 0.37151 0.00764 0.0
C201 C 0.819 0.42428 0.00558 0.0
Zn202 Zn 0.82075 0.25326 0.22868 0.0
Zn203 Zn 0.77908 0.22218 0.25556 0.0
O204 O 0.74336 0.26412 0.24587 0.0
O205 O 0.77516 0.28879 0.22344 0.0
O206 O 0.74957 0.20101 0.27619 0.0
O207 O 0.86351 0.26658 0.2469 0.0
O208 O 0.82953 0.2389 0.26774 0.0
C209 C 0.74524 0.28757 0.23294 0.0
C210 C 0.80457 0.1716 0.2238 0.0
O211 O 0.78615 0.17603 0.2384 0.0
O212 O 0.82171 0.19987 0.21701 0.0
C213 C 0.74537 0.22148 0.29042 0.0
O214 O 0.75994 0.25631 0.29118 0.0
C215 C 0.86012 0.25566 0.26301 0.0
H216 H 0.27263 0.11092 0.34423 0.0
H217 H 0.35884 0.97734 0.2664 0.0
H218 H 0.22378 0.11187 0.29025 0.0
H219 H 0.35093 0.9423 0.32177 0.0
H220 H 0.32126 0.03548 0.27393 0.0
H221 H 0.31541 0.05858 0.33497 0.0
C222 C 0.27136 0.10066 0.33033 0.0
C223 C 0.24434 0.11563 0.31802 0.0
C224 C 0.32787 0.01493 0.28436 0.0
C225 C 0.29332 0.05574 0.3074 0.0
C226 C 0.34924 0.98189 0.2801 0.0
C227 C 0.35773 0.95486 0.29346 0.0
C228 C 0.31598 0.02135 0.30217 0.0
C229 C 0.34469 0.96216 0.31101 0.0
C230 C 0.29559 0.07058 0.32512 0.0
C231 C 0.244 0.10098 0.3002 0.0
N232 N 0.32476 0.99482 0.31488 0.0
N233 N 0.2681 0.07172 0.2954 0.0
H234 H 0.06729 0.7323 0.55711 0.0
H235 H 0.23359 0.88962 0.55429 0.0
H236 H 0.11309 0.78812 0.60538 0.0
H237 H 0.21227 0.80524 0.51178 0.0
H238 H 0.18567 0.85786 0.57269 0.0
H239 H 0.11497 0.76561 0.53941 0.0
C240 C 0.08703 0.75195 0.56397 0.0
C241 C 0.08626 0.75732 0.58278 0.0
C242 C 0.19175 0.84621 0.55938 0.0
C243 C 0.14116 0.7953 0.56258 0.0
C244 C 0.21916 0.86422 0.54889 0.0
C245 C 0.22701 0.85008 0.53145 0.0
C246 C 0.17166 0.81422 0.55226 0.0
C247 C 0.20732 0.81712 0.52515 0.0
C248 C 0.11448 0.77068 0.55387 0.0
C249 C 0.11273 0.78302 0.59092 0.0
N250 N 0.18035 0.80055 0.53548 0.0
N251 N 0.13915 0.80106 0.58078 0.0
H252 H 0.47505 0.50952 0.78953 0.0
H253 H 0.30742 0.66387 0.80348 0.0
H254 H 0.4169 0.52192 0.84032 0.0
H255 H 0.39587 0.67206 0.76358 0.0
H256 H 0.34103 0.60786 0.81608 0.0
H257 H 0.43787 0.56342 0.77794 0.0
C258 C 0.45408 0.5232 0.79819 0.0
C259 C 0.44935 0.51131 0.81599 0.0
C260 C 0.35305 0.62222 0.80464 0.0
C261 C 0.40688 0.5735 0.8028 0.0
C262 C 0.33403 0.65425 0.7975 0.0
C263 C 0.34874 0.6727 0.78241 0.0
C264 C 0.38658 0.60836 0.79643 0.0
C265 C 0.38329 0.65885 0.77518 0.0
C266 C 0.43308 0.55424 0.7916 0.0
C267 C 0.4216 0.53023 0.82653 0.0
N268 N 0.40075 0.6274 0.78215 0.0
N269 N 0.40147 0.56057 0.81981 0.0
H270 H 0.63644 0.92885 0.06223 0.0
H271 H 0.48577 0.7562 0.05342 0.0
H272 H 0.61063 0.85611 0.107 0.0
H273 H 0.49243 0.84957 0.01599 0.0
H274 H 0.53574 0.78754 0.07225 0.0
H275 H 0.58939 0.89377 0.04368 0.0
C276 C 0.62117 0.90523 0.06813 0.0
C277 C 0.6273 0.89562 0.08626 0.0
C278 C 0.52606 0.80112 0.05994 0.0
C279 C 0.573 0.85547 0.06506 0.0
C280 C 0.49753 0.78334 0.04922 0.0
C281 C 0.48485 0.80029 0.0331 0.0
C282 C 0.54225 0.83579 0.05438 0.0
C283 C 0.50116 0.83544 0.0283 0.0
C284 C 0.59409 0.88535 0.05754 0.0
C285 C 0.60669 0.86459 0.09311 0.0
N286 N 0.5291 0.85186 0.03883 0.0
N287 N 0.58028 0.84568 0.08251 0.0
H288 H 0.12928 0.63853 0.9627 0.0
H289 H 0.28366 0.79629 0.98568 0.0
H290 H 0.09742 0.7582 0.96806 0.0
H291 H 0.29607 0.67946 0.00374 0.0
H292 H 0.2155 0.78396 0.97912 0.0
H293 H 0.19095 0.65305 0.97758 0.0
C294 C 0.13516 0.6678 0.96721 0.0
C295 C 0.10844 0.69728 0.96408 0.0
C296 C 0.23308 0.76128 0.9848 0.0
C297 C 0.17902 0.71419 0.98079 0.0
C298 C 0.27197 0.76824 0.98849 0.0
C299 C 0.29569 0.73871 0.99504 0.0
C300 C 0.21812 0.72437 0.98736 0.0
C301 C 0.27894 0.703 -0.00144 0.0
C302 C 0.17025 0.67604 0.97576 0.0
C303 C 0.11731 0.73467 0.97026 0.0
N304 N 0.24133 0.69662 0.99438 0.0
N305 N 0.15223 0.74224 0.97805 0.0
H306 H 0.40557 0.5624 0.22673 0.0
H307 H 0.44257 0.78963 0.2297 0.0
H308 H 0.48112 0.62103 0.19081 0.0
H309 H 0.37984 0.73047 0.27053 0.0
H310 H 0.45001 0.72881 0.21319 0.0
H311 H 0.39047 0.62422 0.24134 0.0
C312 C 0.41906 0.58822 0.22195 0.0
C313 C 0.44479 0.58649 0.20758 0.0
C314 C 0.43435 0.72916 0.22569 0.0
C315 C 0.42731 0.65731 0.2241 0.0
C316 C 0.42986 0.76397 0.23509 0.0
C317 C 0.41084 0.76517 0.25164 0.0
C318 C 0.41973 0.69521 0.23286 0.0
C319 C 0.39491 0.73091 0.25788 0.0
C320 C 0.41034 0.62351 0.23026 0.0
C321 C 0.46129 0.62091 0.2019 0.0
N322 N 0.39999 0.69727 0.24856 0.0
N323 N 0.45224 0.65485 0.21016 0.0
H324 H 0.58199 0.92941 0.43928 0.0
H325 H 0.40568 0.98244 0.5031 0.0
H326 H 0.56238 0.04285 0.46208 0.0
H327 H 0.41217 0.87766 0.47103 0.0
H328 H 0.46902 0.00063 0.49249 0.0
H329 H 0.52546 0.90627 0.45482 0.0
C330 C 0.56595 0.94943 0.44764 0.0
C331 C 0.57676 0.98826 0.44925 0.0
C332 C 0.45672 0.97349 0.48791 0.0
C333 C 0.51206 0.96182 0.46713 0.0
C334 C 0.42062 0.96295 0.49404 0.0
C335 C 0.40331 0.92862 0.48779 0.0
C336 C 0.47581 0.9495 0.47551 0.0
C337 C 0.4242 0.90453 0.47609 0.0
C338 C 0.53365 0.93617 0.4565 0.0
C339 C 0.55493 0.01278 0.46033 0.0
N340 N 0.45921 0.91556 0.47022 0.0
N341 N 0.52355 -0.00081 0.4688 0.0
H342 H 0.30045 0.06231 0.72409 0.0
H343 H 0.21587 0.86444 0.75932 0.0
H344 H 0.18254 0.02731 0.71538 0.0
H345 H 0.3345 0.87852 0.74475 0.0
H346 H 0.20363 0.93165 0.7516 0.0
H347 H 0.31308 0.00198 0.73978 0.0
C348 C 0.2771 0.04221 0.72571 0.0
C349 C 0.24049 0.04957 0.71826 0.0
C350 C 0.23244 0.92009 0.75038 0.0
C351 C 0.25466 0.98099 0.73631 0.0
C352 C 0.23953 0.88187 0.75488 0.0
C353 C 0.27618 0.86577 0.75245 0.0
C354 C 0.26232 0.94244 0.74369 0.0
C355 C 0.30573 0.88969 0.74661 0.0
C356 C 0.28437 0.00781 0.7346 0.0
C357 C 0.21129 0.02252 0.72074 0.0
N358 N 0.29812 0.9268 0.74233 0.0
N359 N 0.21902 0.98935 0.72952 0.0
H360 H 0.63458 0.51682 0.80537 0.0
H361 H 0.78687 0.35225 0.78248 0.0
H362 H 0.62128 0.3979 0.81975 0.0
H363 H 0.79599 0.46831 0.76336 0.0
H364 H 0.7226 0.36704 0.79325 0.0
H365 H 0.6904 0.49872 0.78745 0.0
C366 C 0.64321 0.48687 0.80467 0.0
C367 C 0.62346 0.45891 0.81426 0.0
C368 C 0.73838 0.38918 0.78648 0.0
C369 C 0.68734 0.43801 0.79378 0.0
C370 C 0.77511 0.3807 0.78029 0.0
C371 C 0.79706 0.40921 0.7722 0.0
C372 C 0.72358 0.4266 0.78481 0.0
C373 C 0.78017 0.44548 0.76959 0.0
C374 C 0.67504 0.47655 0.79439 0.0
C375 C 0.63579 0.42051 0.81272 0.0
N376 N 0.74465 0.45333 0.77614 0.0
N377 N 0.6671 0.41128 0.80283 0.0
H378 H 0.68587 0.09869 0.06943 0.0
H379 H 0.8342 0.26854 0.05494 0.0
H380 H 0.80368 0.09489 0.08868 0.0
H381 H 0.72782 0.2571 0.0244 0.0
H382 H 0.8242 0.20455 0.06708 0.0
H383 H 0.70059 0.15684 0.05283 0.0
C384 C 0.71484 0.11001 0.07013 0.0
C385 C 0.74352 0.09201 0.08055 0.0
C386 C 0.80329 0.21584 0.05754 0.0
C387 C 0.76054 0.15859 0.06162 0.0
C388 C 0.80902 0.25237 0.05058 0.0
C389 C 0.78169 0.26838 0.03872 0.0
C390 C 0.76971 0.19536 0.05283 0.0
C391 C 0.74964 0.246 0.03352 0.0
C392 C 0.72328 0.14311 0.06058 0.0
C393 C 0.78063 0.10785 0.08087 0.0
N394 N 0.74428 0.21086 0.0408 0.0
N395 N 0.78798 0.14039 0.07168 0.0
H396 H 0.01169 0.20571 0.35254 0.0
H397 H 0.93497 0.2739 0.25583 0.0
H398 H 0.0859 0.22479 0.30752 0.0
H399 H 0.86138 0.24033 0.29908 0.0
H400 H 0.99091 0.26549 0.27587 0.0
H401 H 0.95687 0.22663 0.33425 0.0
C402 C 0.01651 0.21437 0.3388 0.0
C403 C 0.05344 0.21316 0.3315 0.0
C404 C 0.96248 0.26038 0.28102 0.0
C405 C 0.99061 0.23734 0.31046 0.0
C406 C 0.93048 0.26544 0.26962 0.0
C407 C 0.89341 0.25743 0.27572 0.0
C408 C 0.95734 0.24736 0.29863 0.0
C409 C 0.88941 0.24649 0.29373 0.0
C410 C 0.98514 0.22639 0.32837 0.0
C411 C 0.05789 0.225 0.31365 0.0
N412 N 0.92098 0.24148 0.30448 0.0
N413 N 0.0268 0.23645 0.30371 0.0
H414 H 0.04837 0.5597 0.54591 0.0
H415 H 0.89063 0.39408 0.5488 0.0
H416 H 0.94248 0.56881 0.57523 0.0
H417 H 0.99491 0.3841 0.51831 0.0
H418 H 0.90541 0.46149 0.55519 0.0
H419 H 0.02587 0.49881 0.53244 0.0
C420 C 0.02024 0.54914 0.54937 0.0
C421 C 0.99751 0.56912 0.56191 0.0
C422 C 0.92489 0.44472 0.54694 0.0
C423 C 0.97167 0.4995 0.54661 0.0
C424 C 0.91644 0.40618 0.54327 0.0
C425 C 0.94184 0.38324 0.53321 0.0
C426 C 0.9592 0.46045 0.54066 0.0
C427 C 0.97464 0.40063 0.52624 0.0
C428 C 0.00742 0.51437 0.54168 0.0
C429 C 0.96121 0.55419 0.56579 0.0
N430 N 0.98265 0.43808 0.5303 0.0
N431 N 0.9496 0.52014 0.55831 0.0
H432 H 0.72107 0.04845 0.48203 0.0
H433 H 0.9017 0.1894 0.47722 0.0
H434 H 0.78874 0.05905 0.4341 0.0
H435 H 0.81728 0.19424 0.51924 0.0
H436 H 0.86417 0.13851 0.46189 0.0
H437 H 0.76104 0.09725 0.49706 0.0
C438 C 0.74461 0.0607 0.47472 0.0
C439 C 0.7514 0.04978 0.45674 0.0
C440 C 0.85385 0.15092 0.47443 0.0
C441 C 0.79708 0.10607 0.47383 0.0
C442 C 0.87515 0.18006 0.48314 0.0
C443 C 0.86266 0.19613 0.49955 0.0
C444 C 0.82007 0.1376 0.48228 0.0
C445 C 0.82809 0.18278 0.50662 0.0
C446 C 0.76727 0.0888 0.48328 0.0
C447 C 0.78239 0.06669 0.44796 0.0
N448 N 0.80818 0.15418 0.49801 0.0
N449 N 0.80402 0.09416 0.45658 0.0
H450 H 0.14552 0.21077 0.71865 0.0
H451 H 0.98654 0.37631 0.71267 0.0
H452 H 0.11688 0.26526 0.66825 0.0
H453 H 0.99032 0.28954 0.75362 0.0
H454 H 0.03933 0.34286 0.69722 0.0
H455 H 0.09543 0.24857 0.73331 0.0
C456 C 0.1291 0.23108 0.7107 0.0
C457 C 0.13521 0.23457 0.69215 0.0
C458 C 0.02831 0.3312 0.70954 0.0
C459 C 0.07749 0.27772 0.70886 0.0
C460 C 0.99814 0.35012 0.71831 0.0
C461 C 0.98391 0.33574 0.73447 0.0
C462 C 0.04466 0.29814 0.71718 0.0
C463 C 0.00019 0.30175 0.74121 0.0
C464 C 0.10026 0.25242 0.71905 0.0
C465 C 0.11297 0.26147 0.68257 0.0
N466 N 0.02982 0.28437 0.73263 0.0
N467 N 0.08492 0.28195 0.69102 0.0
H468 H 0.94902 0.61484 0.96614 0.0
H469 H 0.80318 0.43786 0.96977 0.0
H470 H 0.89971 0.56078 0.91817 0.0
H471 H 0.87848 0.47298 0.01402 0.0
H472 H 0.83222 0.48693 0.95106 0.0
H473 H 0.91538 0.56864 0.9845 0.0
C474 C 0.93067 0.59365 0.95946 0.0
C475 C 0.92744 0.59153 0.94055 0.0
C476 C 0.84242 0.48372 0.96485 0.0
C477 C 0.88915 0.53823 0.96154 0.0
C478 C 0.82598 0.45565 0.97552 0.0
C479 C 0.83847 0.45118 0.99349 0.0
C480 C 0.8712 0.50779 0.97228 0.0
C481 C 0.86802 0.47519 0.00022 0.0
C482 C 0.91172 0.56704 0.96996 0.0
C483 C 0.90322 0.56335 0.93269 0.0
N484 N 0.88318 0.50255 0.98966 0.0
N485 N 0.88513 0.53766 0.94321 0.0
H486 H 0.54832 0.44128 0.23213 0.0
H487 H 0.72742 0.31922 0.2004 0.0
H488 H 0.55767 0.3967 0.17762 0.0
H489 H 0.68578 0.30985 0.25465 0.0
H490 H 0.66959 0.35569 0.19229 0.0
H491 H 0.60199 0.39952 0.24134 0.0
C492 C 0.56128 0.42233 0.22217 0.0
C493 C 0.54851 0.42245 0.20409 0.0
C494 C 0.67314 0.3456 0.20596 0.0
C495 C 0.61036 0.37569 0.21441 0.0
C496 C 0.70627 0.32511 0.21065 0.0
C497 C 0.71144 0.31154 0.22824 0.0
C498 C 0.64532 0.3533 0.21903 0.0
C499 C 0.68287 0.31975 0.24092 0.0
C500 C 0.59187 0.39862 0.22743 0.0
C501 C 0.56641 0.39742 0.19172 0.0
N502 N 0.65112 0.34041 0.23612 0.0
N503 N 0.59682 0.37551 0.19705 0.0
H504 H 0.1259 0.14419 0.42204 0.0
H505 H 0.21916 0.93828 0.44065 0.0
H506 H 0.15528 0.06188 0.38008 0.0
H507 H 0.21161 0.02944 0.48088 0.0
H508 H 0.18349 0.97824 0.41942 0.0
H509 H 0.14385 0.09697 0.44468 0.0
C510 C 0.13539 0.11594 0.41756 0.0
C511 C 0.1397 0.10718 0.39912 0.0
C512 C 0.18938 0.98938 0.43293 0.0
C513 C 0.16059 0.05321 0.42499 0.0
C514 C 0.20977 0.9666 0.44509 0.0
C515 C 0.21888 0.98073 0.46252 0.0
C516 C 0.17788 0.02656 0.43823 0.0
C517 C 0.20563 0.01753 0.46752 0.0
C518 C 0.14585 0.08908 0.43051 0.0
C519 C 0.15197 0.07004 0.39415 0.0
N520 N 0.18603 0.03929 0.45538 0.0
N521 N 0.16242 0.04456 0.40702 0.0
H522 H 0.05134 0.60863 0.66725 0.0
H523 H 0.25721 0.69687 0.69309 0.0
H524 H 0.13415 0.64423 0.62825 0.0
H525 H 0.16712 0.68084 0.73157 0.0
H526 H 0.21683 0.66626 0.66979 0.0
H527 H 0.09834 0.62239 0.69142 0.0
C528 C 0.07968 0.61853 0.66372 0.0
C529 C 0.08869 0.62581 0.64572 0.0
C530 C 0.20597 0.66922 0.68335 0.0
C531 C 0.14231 0.64199 0.6733 0.0
C532 C 0.22899 0.68677 0.69669 0.0
C533 C 0.21535 0.69189 0.71429 0.0
C534 C 0.169 0.65663 0.68761 0.0
C535 C 0.17866 0.67787 0.71814 0.0
C536 C 0.10638 0.62664 0.67755 0.0
C537 C 0.12584 0.63864 0.64196 0.0
N538 N 0.15664 0.66109 0.70487 0.0
N539 N 0.15115 0.64673 0.65566 0.0
H540 H 0.55332 0.52535 0.90491 0.0
H541 H 0.46226 0.7254 0.93777 0.0
H542 H 0.5125 0.61302 0.8687 0.0
H543 H 0.48019 0.62856 0.97263 0.0
H544 H 0.49146 0.68893 0.91315 0.0
H545 H 0.53855 0.56774 0.93053 0.0
C546 C 0.54189 0.55377 0.90231 0.0
C547 C 0.53363 0.56545 0.88461 0.0
C548 C 0.4892 0.67573 0.92621 0.0
C549 C 0.51641 0.61392 0.91391 0.0
C550 C 0.4725 0.69651 0.9403 0.0
C551 C 0.46837 0.67987 0.95728 0.0
C552 C 0.50204 0.63801 0.92907 0.0
C553 C 0.48245 0.64242 0.95973 0.0
C554 C 0.53326 0.57784 0.91697 0.0
C555 C 0.51898 0.60266 0.88211 0.0
N556 N 0.4985 0.62266 0.94574 0.0
N557 N 0.51049 0.62542 0.89661 0.0
H558 H 0.6375 0.02393 0.16386 0.0
H559 H 0.46646 0.91773 0.21294 0.0
H560 H 0.54261 0.96872 0.13545 0.0
H561 H 0.55592 0.98085 0.24163 0.0
H562 H 0.49188 0.9396 0.18447 0.0
H563 H 0.60577 0.01265 0.19239 0.0
C564 C 0.60973 0.00991 0.16358 0.0
C565 C 0.59283 0.99701 0.1472 0.0
C566 C 0.50585 0.9489 0.19698 0.0
C567 C 0.55655 0.98358 0.1799 0.0
C568 C 0.49138 0.93633 0.21328 0.0
C569 C 0.50925 0.94723 0.22973 0.0
C570 C 0.53862 0.97238 0.19707 0.0
C571 C 0.5413 0.9716 0.22928 0.0
C572 C 0.59167 0.00338 0.17991 0.0
C573 C 0.5568 0.97905 0.14772 0.0
N574 N 0.55514 0.98312 0.21321 0.0
N575 N 0.54006 0.97253 0.16381 0.0
H576 H 0.0266 0.70767 0.86865 0.0
H577 H 0.20628 0.81669 0.82787 0.0
H578 H 0.10007 0.78575 0.89926 0.0
H579 H 0.14485 0.72501 0.79992 0.0
H580 H 0.1596 0.81485 0.85201 0.0
H581 H 0.06063 0.72406 0.84129 0.0
C582 C 0.04919 0.72904 0.86957 0.0
C583 C 0.06093 0.7449 0.88636 0.0
C584 C 0.15614 0.79532 0.84054 0.0
C585 C 0.10027 0.76337 0.8551 0.0
C586 C 0.18284 0.79629 0.82674 0.0
C587 C 0.17981 0.77059 0.81194 0.0
C588 C 0.12608 0.76845 0.83959 0.0
C589 C 0.14856 0.74508 0.81116 0.0
C590 C 0.06884 0.7381 0.85394 0.0
C591 C 0.09039 0.77242 0.88667 0.0
N592 N 0.12309 0.74445 0.82487 0.0
N593 N 0.10936 0.78038 0.87133 0.0
H594 H 0.42592 0.48848 0.11631 0.0
H595 H 0.33763 0.67212 0.06757 0.0
H596 H 0.35474 0.57406 0.14243 0.0
H597 H 0.42481 0.59893 0.04422 0.0
H598 H 0.33245 0.62792 0.0925 0.0
H599 H 0.41338 0.51923 0.08742 0.0
C600 C 0.4068 0.5131 0.11594 0.0
C601 C 0.39201 0.52923 0.13193 0.0
C602 C 0.35249 0.6213 0.08186 0.0
C603 C 0.3779 0.5647 0.09889 0.0
C604 C 0.35556 0.6466 0.0676 0.0
C605 C 0.38219 0.63958 0.05391 0.0
C606 C 0.37629 0.58867 0.08253 0.0
C607 C 0.40421 0.60571 0.05459 0.0
C608 C 0.39992 0.53082 0.09943 0.0
C609 C 0.36725 0.56101 0.13052 0.0
N610 N 0.40107 0.58169 0.06879 0.0
N611 N 0.36145 0.57804 0.11435 0.0
H612 H 0.63906 0.85109 0.39471 0.0
H613 H 0.56055 0.90034 0.29672 0.0
H614 H 0.68858 0.93767 0.36127 0.0
H615 H 0.51108 0.81572 0.33125 0.0
H616 H 0.61661 0.90419 0.31715 0.0
H617 H 0.60283 0.82645 0.36852 0.0
C618 C 0.64309 0.86434 0.38178 0.0
C619 C 0.66597 0.89725 0.38034 0.0
C620 C 0.59373 0.88436 0.32009 0.0
C621 C 0.62391 0.86973 0.35036 0.0
C622 C 0.56169 0.88221 0.30845 0.0
C623 C 0.53069 0.85834 0.3125 0.0
C624 C 0.59465 0.86253 0.33588 0.0
C625 C 0.53392 0.83516 0.32778 0.0
C626 C 0.62219 0.85039 0.36681 0.0
C627 C 0.67057 0.91277 0.36313 0.0
N628 N 0.56503 0.83821 0.33901 0.0
N629 N 0.64896 0.89947 0.3489 0.0
H630 H 0.25958 0.14775 0.62613 0.0
H631 H 0.36621 0.98028 0.57128 0.0
H632 H 0.32886 0.05918 0.6508 0.0
H633 H 0.27644 0.05172 0.54868 0.0
H634 H 0.36524 0.01945 0.59896 0.0
H635 H 0.27905 0.12397 0.59641 0.0
C636 C 0.27973 0.12398 0.62535 0.0
C637 C 0.29202 0.10491 0.64099 0.0
C638 C 0.34606 0.02682 0.58787 0.0
C639 C 0.31407 0.07744 0.60701 0.0
C640 C 0.34656 0.00446 0.57204 0.0
C641 C 0.32089 0.01232 0.55773 0.0
C642 C 0.31975 0.05734 0.58942 0.0
C643 C 0.29638 0.0443 0.55945 0.0
C644 C 0.29056 0.11023 0.60835 0.0
C645 C 0.31818 0.07436 0.63911 0.0
N646 N 0.29615 0.06542 0.5751 0.0
N647 N 0.3279 0.06121 0.62241 0.0
H648 H 0.51135 0.39381 0.90567 0.0
H649 H 0.6988 0.33301 0.96048 0.0
H650 H 0.60916 0.33738 0.88164 0.0
H651 H 0.59639 0.37603 0.98607 0.0
H652 H 0.6629 0.32659 0.93205 0.0
H653 H 0.53734 0.37863 0.93555 0.0
C654 C 0.53781 0.37742 0.90663 0.0
C655 C 0.55854 0.36761 0.8911 0.0
C656 C 0.64806 0.33702 0.9439 0.0
C657 C 0.58874 0.35073 0.9253 0.0
C658 C 0.66863 0.34086 0.96015 0.0
C659 C 0.65072 0.35563 0.97563 0.0
C660 C 0.60934 0.34855 0.94299 0.0
C661 C 0.61143 0.36481 0.97444 0.0
C662 C 0.55275 0.36892 0.92373 0.0
C663 C 0.5925 0.34613 0.89322 0.0
N664 N 0.59218 0.36166 0.95832 0.0
N665 N 0.60688 0.33905 0.91 0.0
H666 H 0.80517 0.0086 0.13718 0.0
H667 H 0.76774 0.1052 0.23297 0.0
H668 H 0.72696 0.96332 0.17599 0.0
H669 H 0.84293 0.15147 0.1931 0.0
H670 H 0.76382 0.04525 0.21527 0.0
H671 H 0.83206 0.05122 0.16064 0.0
C672 C 0.79435 0.00682 0.15075 0.0
C673 C 0.76291 0.98322 0.15447 0.0
C674 C 0.78159 0.06834 0.21053 0.0
C675 C 0.79299 0.03255 0.18129 0.0
C676 C 0.78374 0.10266 0.2206 0.0
C677 C 0.80502 0.13375 0.21432 0.0
C678 C 0.80074 0.06515 0.19403 0.0
C679 C 0.82558 0.12856 0.19831 0.0
C680 C 0.80956 0.03139 0.16414 0.0
C681 C 0.75059 0.98166 0.17239 0.0
N682 N 0.82252 0.09515 0.18862 0.0
N683 N 0.765 0.00675 0.18504 0.0
H684 H 0.1023 0.30455 0.38633 0.0
H685 H 0.1152 0.24775 0.49043 0.0
H686 H 0.19274 0.23325 0.40846 0.0
H687 H 0.01358 0.29234 0.46375 0.0
H688 H 0.15038 0.25422 0.46224 0.0
H689 H 0.07725 0.31411 0.41662 0.0
C690 C 0.11747 0.29161 0.39759 0.0
C691 C 0.14928 0.26744 0.39475 0.0
C692 C 0.12046 0.26284 0.46264 0.0
C693 C 0.12031 0.27786 0.42949 0.0
C694 C 0.10037 0.25913 0.4787 0.0
C695 C 0.06126 0.26907 0.47938 0.0
C696 C 0.1014 0.27703 0.44726 0.0
C697 C 0.04355 0.28382 0.4638 0.0
C698 C 0.10292 0.29684 0.41488 0.0
C699 C 0.16785 0.25173 0.40995 0.0
N700 N 0.0637 0.28725 0.4484 0.0
N701 N 0.15274 0.25672 0.42664 0.0
H702 H 0.97094 0.68066 0.6575 0.0
H703 H 0.88239 0.49904 0.70511 0.0
H704 H 0.88779 0.60435 0.63196 0.0
H705 H 0.95358 0.58286 0.73338 0.0
H706 H 0.87946 0.54087 0.67908 0.0
H707 H 0.95937 0.65019 0.68632 0.0
C708 C 0.94953 0.65817 0.658 0.0
C709 C 0.93075 0.64466 0.64217 0.0
C710 C 0.89546 0.55035 0.69102 0.0
C711 C 0.91791 0.60918 0.67513 0.0
C712 C 0.89729 0.52635 0.70589 0.0
C713 C 0.91863 0.53724 0.7214 0.0
C714 C 0.91546 0.58541 0.69153 0.0
C715 C 0.93698 0.57318 0.72167 0.0
C716 C 0.94313 0.64059 0.67448 0.0
C717 C 0.90332 0.61542 0.64373 0.0
N718 N 0.93534 0.59579 0.70688 0.0
N719 N 0.8982 0.59827 0.65982 0.0
H720 H 0.64341 0.06597 0.36469 0.0
H721 H 0.74241 0.25236 0.32466 0.0
H722 H 0.70244 0.15186 0.39759 0.0
H723 H 0.70589 0.15376 0.29251 0.0
H724 H 0.71623 0.22239 0.35137 0.0
H725 H 0.65356 0.10498 0.33819 0.0
C726 C 0.65795 0.09334 0.36642 0.0
C727 C 0.67267 0.10535 0.38338 0.0
C728 C 0.71367 0.20751 0.33844 0.0
C729 C 0.68461 0.14999 0.35301 0.0
C730 C 0.72855 0.22459 0.32317 0.0
C731 C 0.72674 0.20532 0.30636 0.0
C732 C 0.69663 0.17101 0.33685 0.0
C733 C 0.70832 0.16947 0.30523 0.0
C734 C 0.66388 0.11551 0.35124 0.0
C735 C 0.69099 0.14125 0.38477 0.0
N736 N 0.69418 0.15339 0.32029 0.0
N737 N 0.69684 0.16211 0.36974 0.0
H738 H 0.16723 0.10482 0.60549 0.0
H739 H 0.96409 0.20513 0.58613 0.0
H740 H 0.08261 0.12862 0.64617 0.0
H741 H 0.05333 0.19582 0.54649 0.0
H742 H 0.00407 0.16894 0.60705 0.0
H743 H 0.1223 0.12866 0.5825 0.0
C744 C 0.13895 0.11436 0.60956 0.0
C745 C 0.1288 0.11512 0.62782 0.0
C746 C 0.01493 0.17466 0.59377 0.0
C747 C 0.07753 0.14279 0.60162 0.0
C748 C 0.99213 0.19545 0.58178 0.0
C749 C 0.0055 0.20389 0.56454 0.0
C750 C 0.05153 0.16213 0.58856 0.0
C751 C 0.04198 0.19023 0.55968 0.0
C752 C 0.11344 0.12821 0.59643 0.0
C753 C 0.0918 0.12782 0.63229 0.0
N754 N 0.06384 0.17015 0.57168 0.0
N755 N 0.06766 0.14147 0.6193 0.0
H756 H 0.03402 0.53581 0.89264 0.0
H757 H 0.98529 0.51575 0.7877 0.0
H758 H 0.0681 0.62013 0.85406 0.0
H759 H 0.97227 0.42346 0.8253 0.0
H760 H 0.01879 0.55339 0.81137 0.0
H761 H 0.01543 0.49248 0.86775 0.0
C762 C 0.03819 0.54494 0.87892 0.0
C763 C 0.05226 0.58174 0.87541 0.0
C764 C 0.00889 0.52475 0.81436 0.0
C765 C 0.03035 0.53262 0.84683 0.0
C766 C 0.98962 0.50333 0.80088 0.0
C767 C 0.97558 0.46656 0.80457 0.0
C768 C 0.01385 0.50937 0.83165 0.0
C769 C 0.98229 0.45179 0.82185 0.0
C770 C 0.0275 0.52023 0.8647 0.0
C771 C 0.05725 0.59203 0.85737 0.0
N772 N 0.00062 0.47336 0.83477 0.0
N773 N 0.04571 0.56781 0.84373 0.0
H774 H 0.51221 0.4631 0.09922 0.0
H775 H 0.73524 0.45991 0.0788 0.0
H776 H 0.59778 0.51212 0.13567 0.0
H777 H 0.64715 0.42685 0.03975 0.0
H778 H 0.68551 0.48481 0.09872 0.0
H779 H 0.5609 0.45548 0.07622 0.0
C780 C 0.54126 0.4726 0.10232 0.0
C781 C 0.55117 0.48775 0.11944 0.0
C782 C 0.67709 0.47254 0.08571 0.0
C783 C 0.60722 0.47876 0.09322 0.0
C784 C 0.70547 0.45821 0.07432 0.0
C785 C 0.69531 0.44073 0.05768 0.0
C786 C 0.63826 0.46906 0.08047 0.0
C787 C 0.65632 0.43972 0.05252 0.0
C788 C 0.56905 0.46833 0.08915 0.0
C789 C 0.58905 0.50011 0.12265 0.0
N790 N 0.62919 0.45325 0.06398 0.0
N791 N 0.61592 0.49479 0.10973 0.0
loop_
_geom_bond_atom_site_label_1
_geom_bond_atom_site_label_2
_geom_bond_distance
_geom_bond_site_symmetry_2
_ccdc_geom_bond_type
Mg0 O7 2.141 . S
Mg0 O8 2.048 . S
Mg0 O9 2.048 . S
Mg0 O12 2.141 . S
C1 O2 1.313 . S
C1 O8 1.195 . S
O2 C1 1.313 . S
C3 O4 1.245 . S
C3 O12 1.289 . S
O4 C3 1.245 . S
C5 O6 1.245 . S
C5 O7 1.289 . S
O6 C5 1.245 . S
O7 Mg0 2.141 . S
O7 C5 1.289 . S
O8 Mg0 2.048 . S
O8 C1 1.195 . S
O9 Mg0 2.048 . S
O9 C10 1.195 . S
C10 O9 1.195 . S
C10 O11 1.313 . S
O11 C10 1.313 . S
O12 Mg0 2.141 . S
O12 C3 1.289 . S
Mg13 O20 2.141 . S
Mg13 O21 2.048 . S
Mg13 O22 2.048 1_455 S
Mg13 O25 2.141 1_455 S
C14 O15 1.313 . S
C14 O21 1.195 . S
O15 C14 1.313 . S
C16 O17 1.245 . S
C16 O25 1.289 1_455 S
O17 C16 1.245 . S
C18 O19 1.245 . S
C18 O20 1.289 . S
O19 C18 1.245 . S
O20 Mg13 2.141 . S
O20 C18 1.289 . S
O21 Mg13 2.048 . S
O21 C14 1.195 . S
O22 Mg13 2.048 1_655 S
O22 C23 1.195 . S
C23 O22 1.195 . S
C23 O24 1.313 1_655 S
O24 C23 1.313 1_455 S
O25 Mg13 2.141 1_655 S
O25 C16 1.289 1_655 S
Mg26 O33 2.141 . S
Mg26 O34 2.048 . S
Mg26 O35 2.048 . S
Mg26 O38 2.141 . S
C27 O28 1.313 . S
C27 O34 1.195 . S
O28 C27 1.313 . S
C29 O30 1.245 . S
C29 O38 1.289 . S
O30 C29 1.245 . S
C31 O32 1.245 . S
C31 O33 1.289 . S
O32 C31 1.245 . S
O33 Mg26 2.141 . S
O33 C31 1.289 . S
O34 Mg26 2.048 . S
O34 C27 1.195 . S
O35 Mg26 2.048 . S
O35 C36 1.195 . S
C36 O35 1.195 . S
C36 O37 1.313 . S
O37 C36 1.313 . S
O38 Mg26 2.141 . S
O38 C29 1.289 . S
Mg39 O46 2.141 . S
Mg39 O47 2.048 . S
Mg39 O48 2.048 1_545 S
Mg39 O51 2.141 1_545 S
C40 O41 1.313 . S
C40 O47 1.195 . S
O41 C40 1.313 . S
C42 O43 1.245 . S
C42 O51 1.289 . S
O43 C42 1.245 . S
C44 O45 1.245 . S
C44 O46 1.289 . S
O45 C44 1.245 . S
O46 Mg39 2.141 . S
O46 C44 1.289 . S
O47 Mg39 2.048 . S
O47 C40 1.195 . S
O48 Mg39 2.048 1_565 S
O48 C49 1.195 . S
C49 O48 1.195 . S
C49 O50 1.313 . S
O50 C49 1.313 . S
O51 Mg39 2.141 1_565 S
O51 C42 1.289 . S
Mg52 O59 2.141 . S
Mg52 O60 2.048 . S
Mg52 O61 2.048 1_455 S
Mg52 O64 2.141 1_455 S
C53 O54 1.313 . S
C53 O60 1.195 . S
O54 C53 1.313 . S
C55 O56 1.245 . S
C55 O64 1.289 . S
O56 C55 1.245 . S
C57 O58 1.245 . S
C57 O59 1.289 . S
O58 C57 1.245 . S
O59 Mg52 2.141 . S
O59 C57 1.289 . S
O60 Mg52 2.048 . S
O60 C53 1.195 . S
O61 Mg52 2.048 1_655 S
O61 C62 1.195 . S
C62 O61 1.195 . S
C62 O63 1.313 . S
O63 C62 1.313 . S
O64 Mg52 2.141 1_655 S
O64 C55 1.289 . S
Mg65 O72 2.141 . S
Mg65 O73 2.048 . S
Mg65 O74 2.048 . S
Mg65 O77 2.141 . S
C66 O67 1.313 . S
C66 O73 1.195 . S
O67 C66 1.313 . S
C68 O69 1.245 . S
C68 O77 1.289 . S
O69 C68 1.245 . S
C70 O71 1.245 . S
C70 O72 1.289 . S
O71 C70 1.245 . S
O72 Mg65 2.141 . S
O72 C70 1.289 . S
O73 Mg65 2.048 . S
O73 C66 1.195 . S
O74 Mg65 2.048 . S
O74 C75 1.195 . S
C75 O74 1.195 . S
C75 O76 1.313 . S
O76 C75 1.313 . S
O77 Mg65 2.141 . S
O77 C68 1.289 . S
Mg78 O85 2.141 1_565 S
Mg78 O86 2.048 1_565 S
Mg78 O87 2.048 . S
Mg78 O90 2.141 . S
C79 O80 1.313 . S
C79 O86 1.195 . S
O80 C79 1.313 . S
C81 O82 1.245 1_565 S
C81 O90 1.289 . S
O82 C81 1.245 1_545 S
C83 O84 1.245 . S
C83 O85 1.289 . S
O84 C83 1.245 . S
O85 Mg78 2.141 1_545 S
O85 C83 1.289 . S
O86 Mg78 2.048 1_545 S
O86 C79 1.195 . S
O87 Mg78 2.048 . S
O87 C88 1.195 . S
C88 O87 1.195 . S
C88 O89 1.323 . S
O89 C88 1.323 . S
O90 Mg78 2.141 . S
O90 C81 1.289 . S
Mg91 O98 2.141 . S
Mg91 O99 2.048 . S
Mg91 O100 2.048 . S
Mg91 O103 2.141 . S
C92 O93 1.313 . S
C92 O99 1.195 . S
O93 C92 1.313 . S
C94 O95 1.245 . S
C94 O103 1.289 . S
O95 C94 1.245 . S
C96 O97 1.245 . S
C96 O98 1.289 . S
O97 C96 1.245 . S
O98 Mg91 2.141 . S
O98 C96 1.289 . S
O99 Mg91 2.048 . S
O99 C92 1.195 . S
O100 Mg91 2.048 . S
O100 C101 1.195 . S
C101 O100 1.195 . S
C101 O102 1.313 . S
O102 C101 1.313 . S
O103 Mg91 2.141 . S
O103 C94 1.289 . S
Zn104 O107 2.031 . S
Zn104 O109 2.049 1_556 S
Zn104 O114 2.067 . S
Zn105 O106 1.962 . S
Zn105 O108 1.986 . S
Zn105 O110 1.996 . S
Zn105 O113 1.943 . S
O106 Zn105 1.962 . S
O106 C111 1.254 . S
O107 Zn104 2.031 . S
O107 C111 1.269 1_556 S
O108 Zn105 1.986 . S
O108 C115 1.262 . S
O109 Zn104 2.049 1_554 S
O109 C117 1.260 . S
O110 Zn105 1.996 . S
O110 C117 1.257 . S
C111 O106 1.254 . S
C111 O107 1.269 1_554 S
C112 O113 1.249 1_556 S
C112 O114 1.270 . S
O113 Zn105 1.943 . S
O113 C112 1.249 1_554 S
O114 Zn104 2.067 . S
O114 C112 1.270 . S
C115 O108 1.262 . S
C115 O116 1.232 . S
O116 C115 1.232 . S
C117 O109 1.260 . S
C117 O110 1.257 . S
Zn118 O121 2.031 . S
Zn118 O123 2.049 . S
Zn118 O128 2.067 . S
Zn119 O120 1.962 . S
Zn119 O122 1.986 . S
Zn119 O124 1.996 . S
Zn119 O127 1.943 . S
O120 Zn119 1.962 . S
O120 C125 1.254 . S
O121 Zn118 2.031 . S
O121 C125 1.269 . S
O122 Zn119 1.986 . S
O122 C129 1.262 . S
O123 Zn118 2.049 . S
O123 C131 1.260 . S
O124 Zn119 1.996 . S
O124 C131 1.257 . S
C125 O120 1.254 . S
C125 O121 1.269 . S
C126 O127 1.249 . S
C126 O128 1.270 . S
O127 Zn119 1.943 . S
O127 C126 1.249 . S
O128 Zn118 2.067 . S
O128 C126 1.270 . S
C129 O122 1.262 . S
C129 O130 1.232 . S
O130 C129 1.232 . S
C131 O123 1.260 . S
C131 O124 1.257 . S
Zn132 O135 2.031 . S
Zn132 O137 2.049 . S
Zn132 O142 2.067 . S
Zn133 O134 1.962 . S
Zn133 O136 1.986 . S
Zn133 O138 1.996 . S
Zn133 O141 1.943 . S
O134 Zn133 1.962 . S
O134 C139 1.254 . S
O135 Zn132 2.031 . S
O135 C139 1.269 . S
O136 Zn133 1.986 . S
O136 C143 1.262 . S
O137 Zn132 2.049 . S
O137 C145 1.260 . S
O138 Zn133 1.996 . S
O138 C145 1.257 . S
C139 O134 1.254 . S
C139 O135 1.269 . S
C140 O141 1.249 . S
C140 O142 1.270 . S
O141 Zn133 1.943 . S
O141 C140 1.249 . S
O142 Zn132 2.067 . S
O142 C140 1.270 . S
C143 O136 1.262 . S
C143 O144 1.232 . S
O144 C143 1.232 . S
C145 O137 1.260 . S
C145 O138 1.257 . S
Zn146 O149 2.031 . S
Zn146 O151 2.049 . S
Zn146 O156 2.067 . S
Zn147 O148 1.962 . S
Zn147 O150 1.986 . S
Zn147 O152 1.996 . S
Zn147 O155 1.943 . S
O148 Zn147 1.962 . S
O148 C153 1.254 . S
O149 Zn146 2.031 . S
O149 C153 1.269 . S
O150 Zn147 1.986 . S
O150 C157 1.262 . S
O151 Zn146 2.049 . S
O151 C159 1.260 . S
O152 Zn147 1.996 . S
O152 C159 1.257 . S
C153 O148 1.254 . S
C153 O149 1.269 . S
C154 O155 1.249 . S
C154 O156 1.270 . S
O155 Zn147 1.943 . S
O155 C154 1.249 . S
O156 Zn146 2.067 . S
O156 C154 1.270 . S
C157 O150 1.262 . S
C157 O158 1.232 . S
O158 C157 1.232 . S
C159 O151 1.260 . S
C159 O152 1.257 . S
Zn160 O163 2.031 . S
Zn160 O165 2.049 . S
Zn160 O170 2.067 . S
Zn161 O162 1.962 . S
Zn161 O164 1.986 . S
Zn161 O166 1.996 . S
Zn161 O169 1.943 . S
O162 Zn161 1.962 . S
O162 C167 1.254 . S
O163 Zn160 2.031 . S
O163 C167 1.269 . S
O164 Zn161 1.986 . S
O164 C171 1.262 1_655 S
O165 Zn160 2.049 . S
O165 C173 1.260 . S
O166 Zn161 1.996 . S
O166 C173 1.257 . S
C167 O162 1.254 . S
C167 O163 1.269 . S
C168 O169 1.249 . S
C168 O170 1.270 . S
O169 Zn161 1.943 . S
O169 C168 1.249 . S
O170 Zn160 2.067 . S
O170 C168 1.270 . S
C171 O164 1.262 1_455 S
C171 O172 1.232 . S
O172 C171 1.232 . S
C173 O165 1.260 . S
C173 O166 1.257 . S
Zn174 O177 2.031 . S
Zn174 O179 2.049 . S
Zn174 O184 2.067 . S
Zn175 O176 1.962 . S
Zn175 O178 1.986 . S
Zn175 O180 1.996 . S
Zn175 O183 1.943 . S
O176 Zn175 1.962 . S
O176 C181 1.254 . S
O177 Zn174 2.031 . S
O177 C181 1.269 . S
O178 Zn175 1.986 . S
O178 C185 1.262 . S
O179 Zn174 2.049 . S
O179 C187 1.260 . S
O180 Zn175 1.996 . S
O180 C187 1.257 . S
C181 O176 1.254 . S
C181 O177 1.269 . S
C182 O183 1.249 . S
C182 O184 1.270 . S
O183 Zn175 1.943 . S
O183 C182 1.249 . S
O184 Zn174 2.067 . S
O184 C182 1.270 . S
C185 O178 1.262 . S
C185 O186 1.232 . S
O186 C185 1.232 . S
C187 O179 1.260 . S
C187 O180 1.257 . S
Zn188 O191 2.031 . S
Zn188 O193 2.049 . S
Zn188 O198 2.067 . S
Zn189 O190 1.962 . S
Zn189 O192 1.986 . S
Zn189 O194 1.996 . S
Zn189 O197 1.943 1_556 S
O190 Zn189 1.962 . S
O190 C195 1.254 1_556 S
O191 Zn188 2.031 . S
O191 C195 1.269 . S
O192 Zn189 1.986 . S
O192 C199 1.262 . S
O193 Zn188 2.049 . S
O193 C201 1.260 . S
O194 Zn189 1.996 . S
O194 C201 1.257 1_556 S
C195 O190 1.254 1_554 S
C195 O191 1.269 . S
C196 O197 1.249 . S
C196 O198 1.270 . S
O197 Zn189 1.943 1_554 S
O197 C196 1.249 . S
O198 Zn188 2.067 . S
O198 C196 1.270 . S
C199 O192 1.262 . S
C199 O200 1.232 . S
O200 C199 1.232 . S
C201 O193 1.260 . S
C201 O194 1.257 1_554 S
Zn202 O205 2.031 . S
Zn202 O207 2.049 . S
Zn202 O212 2.067 . S
Zn203 O204 1.962 . S
Zn203 O206 1.986 . S
Zn203 O208 1.996 . S
Zn203 O211 1.943 . S
O204 Zn203 1.962 . S
O204 C209 1.254 . S
O205 Zn202 2.031 . S
O205 C209 1.269 . S
O206 Zn203 1.986 . S
O206 C213 1.262 . S
O207 Zn202 2.049 . S
O207 C215 1.260 . S
O208 Zn203 1.996 . S
O208 C215 1.257 . S
C209 O204 1.254 . S
C209 O205 1.269 . S
C210 O211 1.249 . S
C210 O212 1.270 . S
O211 Zn203 1.943 . S
O211 C210 1.249 . S
O212 Zn202 2.067 . S
O212 C210 1.270 . S
C213 O206 1.262 . S
C213 O214 1.232 . S
O214 C213 1.232 . S
C215 O207 1.260 . S
C215 O208 1.257 . S
H216 C222 0.930 . S
H217 C226 0.930 . S
H218 C231 0.929 . S
H219 C229 0.929 . S
H220 C224 0.929 . S
H221 C230 0.922 1_565 S
C222 H216 0.930 . S
C222 C223 1.367 . S
C222 C230 1.385 . S
C223 C222 1.367 . S
C223 C231 1.433 . S
C224 H220 0.929 . S
C224 C226 1.378 . S
C224 C228 1.350 . S
C225 C228 1.463 . S
C225 C230 1.349 1_565 S
C225 N233 1.427 1_565 S
C226 H217 0.930 . S
C226 C224 1.378 . S
C226 C227 1.367 . S
C227 C226 1.367 . S
C227 C229 1.433 . S
C228 C224 1.350 . S
C228 C225 1.463 . S
C228 N232 1.427 . S
C229 H219 0.929 . S
C229 C227 1.433 . S
C229 N232 1.384 . S
C230 H221 0.922 1_545 S
C230 C222 1.385 . S
C230 C225 1.349 1_545 S
C231 H218 0.929 . S
C231 C223 1.433 . S
C231 N233 1.384 . S
N232 C228 1.427 . S
N232 C229 1.384 . S
N233 C225 1.427 1_545 S
N233 C231 1.384 . S
H234 C240 0.930 . S
H235 C244 0.930 . S
H236 C249 0.929 . S
H237 C247 0.929 . S
H238 C242 0.929 . S
H239 C248 0.929 . S
C240 H234 0.930 . S
C240 C241 1.367 . S
C240 C248 1.378 . S
C241 C240 1.367 . S
C241 C249 1.433 . S
C242 H238 0.929 . S
C242 C244 1.378 . S
C242 C246 1.350 . S
C243 C246 1.463 . S
C243 C248 1.350 . S
C243 N251 1.427 . S
C244 H235 0.930 . S
C244 C242 1.378 . S
C244 C245 1.367 . S
C245 C244 1.367 . S
C245 C247 1.433 . S
C246 C242 1.350 . S
C246 C243 1.463 . S
C246 N250 1.427 . S
C247 H237 0.929 . S
C247 C245 1.433 . S
C247 N250 1.384 . S
C248 H239 0.929 . S
C248 C240 1.378 . S
C248 C243 1.350 . S
C249 H236 0.929 . S
C249 C241 1.433 . S
C249 N251 1.384 . S
N250 C246 1.427 . S
N250 C247 1.384 . S
N251 C243 1.427 . S
N251 C249 1.384 . S
H252 C258 0.930 . S
H253 C262 0.930 . S
H254 C267 0.929 . S
H255 C265 0.929 . S
H256 C260 0.929 . S
H257 C266 0.929 . S
C258 H252 0.930 . S
C258 C259 1.367 . S
C258 C266 1.378 . S
C259 C258 1.367 . S
C259 C267 1.433 . S
C260 H256 0.929 . S
C260 C262 1.378 . S
C260 C264 1.350 . S
C261 C264 1.463 . S
C261 C266 1.350 . S
C261 N269 1.427 . S
C262 H253 0.930 . S
C262 C260 1.378 . S
C262 C263 1.367 . S
C263 C262 1.367 . S
C263 C265 1.433 . S
C264 C260 1.350 . S
C264 C261 1.463 . S
C264 N268 1.427 . S
C265 H255 0.929 . S
C265 C263 1.433 . S
C265 N268 1.384 . S
C266 H257 0.929 . S
C266 C258 1.378 . S
C266 C261 1.350 . S
C267 H254 0.929 . S
C267 C259 1.433 . S
C267 N269 1.384 . S
N268 C264 1.427 . S
N268 C265 1.384 . S
N269 C261 1.427 . S
N269 C267 1.384 . S
H270 C276 0.930 . S
H271 C280 0.930 . S
H272 C285 0.929 . S
H273 C283 0.929 . S
H274 C278 0.929 . S
H275 C284 0.929 . S
C276 H270 0.930 . S
C276 C277 1.367 . S
C276 C284 1.378 . S
C277 C276 1.367 . S
C277 C285 1.433 . S
C278 H274 0.929 . S
C278 C280 1.378 . S
C278 C282 1.350 . S
C279 C282 1.463 . S
C279 C284 1.350 . S
C279 N287 1.427 . S
C280 H271 0.930 . S
C280 C278 1.378 . S
C280 C281 1.367 . S
C281 C280 1.367 . S
C281 C283 1.433 . S
C282 C278 1.350 . S
C282 C279 1.463 . S
C282 N286 1.427 . S
C283 H273 0.929 . S
C283 C281 1.433 . S
C283 N286 1.384 . S
C284 H275 0.929 . S
C284 C276 1.378 . S
C284 C279 1.350 . S
C285 H272 0.929 . S
C285 C277 1.433 . S
C285 N287 1.384 . S
N286 C282 1.427 . S
N286 C283 1.384 . S
N287 C279 1.427 . S
N287 C285 1.384 . S
H288 C294 0.930 . S
H289 C298 0.930 . S
H290 C303 0.929 . S
H291 C301 0.929 . S
H292 C296 0.929 . S
H293 C302 0.929 . S
C294 H288 0.930 . S
C294 C295 1.367 . S
C294 C302 1.378 . S
C295 C294 1.367 . S
C295 C303 1.433 . S
C296 H292 0.929 . S
C296 C298 1.378 . S
C296 C300 1.350 . S
C297 C300 1.463 . S
C297 C302 1.350 . S
C297 N305 1.427 . S
C298 H289 0.930 . S
C298 C296 1.378 . S
C298 C299 1.367 1_556 S
C299 C298 1.367 1_554 S
C299 C301 1.433 . S
C300 C296 1.350 . S
C300 C297 1.463 . S
C300 N304 1.427 1_556 S
C301 H291 0.929 . S
C301 C299 1.433 . S
C301 N304 1.384 . S
C302 H293 0.929 . S
C302 C294 1.378 . S
C302 C297 1.350 . S
C303 H290 0.929 . S
C303 C295 1.433 . S
C303 N305 1.384 . S
N304 C300 1.427 1_554 S
N304 C301 1.384 . S
N305 C297 1.427 . S
N305 C303 1.384 . S
H306 C312 0.930 . S
H307 C316 0.930 . S
H308 C321 0.929 . S
H309 C319 0.929 . S
H310 C314 0.929 . S
H311 C320 0.929 . S
C312 H306 0.930 . S
C312 C313 1.367 . S
C312 C320 1.378 . S
C313 C312 1.367 . S
C313 C321 1.433 . S
C314 H310 0.929 . S
C314 C316 1.378 . S
C314 C318 1.350 . S
C315 C318 1.463 . S
C315 C320 1.350 . S
C315 N323 1.427 . S
C316 H307 0.930 . S
C316 C314 1.378 . S
C316 C317 1.367 . S
C317 C316 1.367 . S
C317 C319 1.433 . S
C318 C314 1.350 . S
C318 C315 1.463 . S
C318 N322 1.427 . S
C319 H309 0.929 . S
C319 C317 1.433 . S
C319 N322 1.384 . S
C320 H311 0.929 . S
C320 C312 1.378 . S
C320 C315 1.350 . S
C321 H308 0.929 . S
C321 C313 1.433 . S
C321 N323 1.384 . S
N322 C318 1.427 . S
N322 C319 1.384 . S
N323 C315 1.427 . S
N323 C321 1.384 . S
H324 C330 0.930 . S
H325 C334 0.930 . S
H326 C339 0.929 1_545 S
H327 C337 0.929 . S
H328 C332 0.929 . S
H329 C338 0.929 . S
C330 H324 0.930 . S
C330 C331 1.367 . S
C330 C338 1.378 . S
C331 C330 1.367 . S
C331 C339 1.433 . S
C332 H328 0.929 . S
C332 C334 1.378 . S
C332 C336 1.350 . S
C333 C336 1.463 . S
C333 C338 1.350 . S
C333 N341 1.427 . S
C334 H325 0.930 . S
C334 C332 1.378 . S
C334 C335 1.367 . S
C335 C334 1.367 . S
C335 C337 1.433 . S
C336 C332 1.350 . S
C336 C333 1.463 . S
C336 N340 1.427 . S
C337 H327 0.929 . S
C337 C335 1.433 . S
C337 N340 1.384 . S
C338 H329 0.929 . S
C338 C330 1.378 . S
C338 C333 1.350 . S
C339 H326 0.929 1_565 S
C339 C331 1.433 . S
C339 N341 1.384 . S
N340 C336 1.427 . S
N340 C337 1.384 . S
N341 C333 1.427 . S
N341 C339 1.384 . S
H342 C348 0.930 . S
H343 C352 0.930 . S
H344 C357 0.929 . S
H345 C355 0.929 . S
H346 C350 0.929 . S
H347 C356 0.929 . S
C348 H342 0.930 . S
C348 C349 1.367 . S
C348 C356 1.378 . S
C349 C348 1.367 . S
C349 C357 1.433 . S
C350 H346 0.929 . S
C350 C352 1.378 . S
C350 C354 1.350 . S
C351 C354 1.463 1_545 S
C351 C356 1.350 . S
C351 N359 1.427 . S
C352 H343 0.930 . S
C352 C350 1.378 . S
C352 C353 1.367 . S
C353 C352 1.367 . S
C353 C355 1.433 . S
C354 C350 1.350 . S
C354 C351 1.463 1_565 S
C354 N358 1.427 . S
C355 H345 0.929 . S
C355 C353 1.433 . S
C355 N358 1.384 . S
C356 H347 0.929 . S
C356 C348 1.378 . S
C356 C351 1.350 . S
C357 H344 0.929 . S
C357 C349 1.433 . S
C357 N359 1.384 . S
N358 C354 1.427 . S
N358 C355 1.384 . S
N359 C351 1.427 . S
N359 C357 1.384 . S
H360 C366 0.930 . S
H361 C370 0.930 . S
H362 C375 0.929 . S
H363 C373 0.929 . S
H364 C368 0.929 . S
H365 C374 0.929 . S
C366 H360 0.930 . S
C366 C367 1.367 . S
C366 C374 1.378 . S
C367 C366 1.367 . S
C367 C375 1.433 . S
C368 H364 0.929 . S
C368 C370 1.378 . S
C368 C372 1.350 . S
C369 C372 1.463 . S
C369 C374 1.350 . S
C369 N377 1.427 . S
C370 H361 0.930 . S
C370 C368 1.378 . S
C370 C371 1.367 . S
C371 C370 1.367 . S
C371 C373 1.433 . S
C372 C368 1.350 . S
C372 C369 1.463 . S
C372 N376 1.427 . S
C373 H363 0.929 . S
C373 C371 1.433 . S
C373 N376 1.384 . S
C374 H365 0.929 . S
C374 C366 1.378 . S
C374 C369 1.350 . S
C375 H362 0.929 . S
C375 C367 1.433 . S
C375 N377 1.384 . S
N376 C372 1.427 . S
N376 C373 1.384 . S
N377 C369 1.427 . S
N377 C375 1.384 . S
H378 C384 0.930 . S
H379 C388 0.930 . S
H380 C393 0.929 . S
H381 C391 0.929 1_556 S
H382 C386 0.929 . S
H383 C392 0.929 . S
C384 H378 0.930 . S
C384 C385 1.367 . S
C384 C392 1.378 . S
C385 C384 1.367 . S
C385 C393 1.433 . S
C386 H382 0.929 . S
C386 C388 1.378 . S
C386 C390 1.350 . S
C387 C390 1.463 . S
C387 C392 1.350 . S
C387 N395 1.427 . S
C388 H379 0.930 . S
C388 C386 1.378 . S
C388 C389 1.367 . S
C389 C388 1.367 . S
C389 C391 1.433 . S
C390 C386 1.350 . S
C390 C387 1.463 . S
C390 N394 1.427 . S
C391 H381 0.929 1_554 S
C391 C389 1.433 . S
C391 N394 1.384 . S
C392 H383 0.929 . S
C392 C384 1.378 . S
C392 C387 1.350 . S
C393 H380 0.929 . S
C393 C385 1.433 . S
C393 N395 1.384 . S
N394 C390 1.427 . S
N394 C391 1.384 . S
N395 C387 1.427 . S
N395 C393 1.384 . S
H396 C402 0.930 . S
H397 C406 0.930 . S
H398 C411 0.929 . S
H399 C409 0.929 . S
H400 C404 0.929 . S
H401 C410 0.929 . S
C402 H396 0.930 . S
C402 C403 1.367 . S
C402 C410 1.378 . S
C403 C402 1.367 . S
C403 C411 1.433 . S
C404 H400 0.929 . S
C404 C406 1.378 1_455 S
C404 C408 1.350 . S
C405 C408 1.463 . S
C405 C410 1.350 . S
C405 N413 1.427 . S
C406 H397 0.930 . S
C406 C404 1.378 1_655 S
C406 C407 1.367 . S
C407 C406 1.367 . S
C407 C409 1.433 . S
C408 C404 1.350 . S
C408 C405 1.463 . S
C408 N412 1.427 1_455 S
C409 H399 0.929 . S
C409 C407 1.433 . S
C409 N412 1.384 . S
C410 H401 0.929 . S
C410 C402 1.378 . S
C410 C405 1.350 . S
C411 H398 0.929 . S
C411 C403 1.433 . S
C411 N413 1.384 . S
N412 C408 1.427 1_655 S
N412 C409 1.384 . S
N413 C405 1.427 . S
N413 C411 1.384 . S
H414 C420 0.930 . S
H415 C424 0.930 . S
H416 C429 0.929 . S
H417 C427 0.932 . S
H418 C422 0.929 . S
H419 C428 0.929 . S
C420 H414 0.930 . S
C420 C421 1.367 1_455 S
C420 C428 1.378 . S
C421 C420 1.367 1_655 S
C421 C429 1.433 . S
C422 H418 0.929 . S
C422 C424 1.378 . S
C422 C426 1.350 . S
C423 C426 1.463 . S
C423 C428 1.350 1_655 S
C423 N431 1.427 . S
C424 H415 0.930 . S
C424 C422 1.378 . S
C424 C425 1.367 . S
C425 C424 1.367 . S
C425 C427 1.433 . S
C426 C422 1.350 . S
C426 C423 1.463 . S
C426 N430 1.427 . S
C427 H417 0.932 . S
C427 C425 1.433 . S
C427 N430 1.384 . S
C428 H419 0.929 . S
C428 C420 1.378 . S
C428 C423 1.350 1_455 S
C429 H416 0.929 . S
C429 C421 1.433 . S
C429 N431 1.384 . S
N430 C426 1.427 . S
N430 C427 1.384 . S
N431 C423 1.427 . S
N431 C429 1.384 . S
H432 C438 0.930 . S
H433 C442 0.930 . S
H434 C447 0.929 . S
H435 C445 0.929 . S
H436 C440 0.929 . S
H437 C446 0.929 . S
C438 H432 0.930 . S
C438 C439 1.367 . S
C438 C446 1.378 . S
C439 C438 1.367 . S
C439 C447 1.433 . S
C440 H436 0.929 . S
C440 C442 1.378 . S
C440 C444 1.350 . S
C441 C444 1.463 . S
C441 C446 1.350 . S
C441 N449 1.427 . S
C442 H433 0.930 . S
C442 C440 1.378 . S
C442 C443 1.367 . S
C443 C442 1.367 . S
C443 C445 1.433 . S
C444 C440 1.350 . S
C444 C441 1.463 . S
C444 N448 1.427 . S
C445 H435 0.929 . S
C445 C443 1.433 . S
C445 N448 1.384 . S
C446 H437 0.929 . S
C446 C438 1.378 . S
C446 C441 1.350 . S
C447 H434 0.929 . S
C447 C439 1.433 . S
C447 N449 1.384 . S
N448 C444 1.427 . S
N448 C445 1.384 . S
N449 C441 1.427 . S
N449 C447 1.384 . S
H450 C456 0.930 . S
H451 C460 0.930 . S
H452 C465 0.929 . S
H453 C463 0.929 . S
H454 C458 0.929 . S
H455 C464 0.929 . S
C456 H450 0.930 . S
C456 C457 1.367 . S
C456 C464 1.378 . S
C457 C456 1.367 . S
C457 C465 1.433 . S
C458 H454 0.929 . S
C458 C460 1.378 . S
C458 C462 1.350 . S
C459 C462 1.463 1_455 S
C459 C464 1.350 . S
C459 N467 1.427 . S
C460 H451 0.930 . S
C460 C458 1.378 . S
C460 C461 1.367 . S
C461 C460 1.367 . S
C461 C463 1.433 . S
C462 C458 1.350 . S
C462 C459 1.463 1_655 S
C462 N466 1.427 . S
C463 H453 0.929 . S
C463 C461 1.433 . S
C463 N466 1.384 . S
C464 H455 0.929 . S
C464 C456 1.378 . S
C464 C459 1.350 . S
C465 H452 0.929 . S
C465 C457 1.433 . S
C465 N467 1.384 . S
N466 C462 1.427 . S
N466 C463 1.384 . S
N467 C459 1.427 . S
N467 C465 1.384 . S
H468 C474 0.930 . S
H469 C478 0.930 . S
H470 C483 0.929 . S
H471 C481 0.971 . S
H472 C476 0.929 . S
H473 C482 0.929 . S
C474 H468 0.930 . S
C474 C475 1.367 . S
C474 C482 1.378 . S
C475 C474 1.367 . S
C475 C483 1.433 . S
C476 H472 0.929 . S
C476 C478 1.378 . S
C476 C480 1.350 . S
C477 C480 1.463 . S
C477 C482 1.350 . S
C477 N485 1.427 . S
C478 H469 0.930 . S
C478 C476 1.378 . S
C478 C479 1.367 . S
C479 C478 1.367 . S
C479 C481 1.410 1_556 S
C480 C476 1.350 . S
C480 C477 1.463 . S
C480 N484 1.427 . S
C481 H471 0.971 . S
C481 C479 1.410 1_554 S
C481 N484 1.365 1_554 S
C482 H473 0.929 . S
C482 C474 1.378 . S
C482 C477 1.350 . S
C483 H470 0.929 . S
C483 C475 1.433 . S
C483 N485 1.384 . S
N484 C480 1.427 . S
N484 C481 1.365 1_556 S
N485 C477 1.427 . S
N485 C483 1.384 . S
H486 C492 0.930 . S
H487 C496 0.930 . S
H488 C501 0.929 . S
H489 C499 0.929 . S
H490 C494 0.929 . S
H491 C500 0.929 . S
C492 H486 0.930 . S
C492 C493 1.367 . S
C492 C500 1.378 . S
C493 C492 1.367 . S
C493 C501 1.433 . S
C494 H490 0.929 . S
C494 C496 1.378 . S
C494 C498 1.350 . S
C495 C498 1.463 . S
C495 C500 1.350 . S
C495 N503 1.427 . S
C496 H487 0.930 . S
C496 C494 1.378 . S
C496 C497 1.367 . S
C497 C496 1.367 . S
C497 C499 1.433 . S
C498 C494 1.350 . S
C498 C495 1.463 . S
C498 N502 1.427 . S
C499 H489 0.929 . S
C499 C497 1.433 . S
C499 N502 1.384 . S
C500 H491 0.929 . S
C500 C492 1.378 . S
C500 C495 1.350 . S
C501 H488 0.929 . S
C501 C493 1.433 . S
C501 N503 1.384 . S
N502 C498 1.427 . S
N502 C499 1.384 . S
N503 C495 1.427 . S
N503 C501 1.384 . S
H504 C510 0.930 . S
H505 C514 0.930 . S
H506 C519 0.929 . S
H507 C517 0.929 . S
H508 C512 0.929 . S
H509 C518 0.929 . S
C510 H504 0.930 . S
C510 C511 1.367 . S
C510 C518 1.378 . S
C511 C510 1.367 . S
C511 C519 1.433 . S
C512 H508 0.929 . S
C512 C514 1.378 . S
C512 C516 1.350 1_565 S
C513 C516 1.463 . S
C513 C518 1.350 . S
C513 N521 1.427 . S
C514 H505 0.930 . S
C514 C512 1.378 . S
C514 C515 1.367 . S
C515 C514 1.367 . S
C515 C517 1.433 1_565 S
C516 C512 1.350 1_545 S
C516 C513 1.463 . S
C516 N520 1.427 . S
C517 H507 0.929 . S
C517 C515 1.433 1_545 S
C517 N520 1.384 . S
C518 H509 0.929 . S
C518 C510 1.378 . S
C518 C513 1.350 . S
C519 H506 0.929 . S
C519 C511 1.433 . S
C519 N521 1.384 . S
N520 C516 1.427 . S
N520 C517 1.384 . S
N521 C513 1.427 . S
N521 C519 1.384 . S
H522 C528 0.930 . S
H523 C532 0.930 . S
H524 C537 0.929 . S
H525 C535 0.929 . S
H526 C530 0.929 . S
H527 C536 0.929 . S
C528 H522 0.930 . S
C528 C529 1.367 . S
C528 C536 1.378 . S
C529 C528 1.367 . S
C529 C537 1.433 . S
C530 H526 0.929 . S
C530 C532 1.378 . S
C530 C534 1.350 . S
C531 C534 1.463 . S
C531 C536 1.350 . S
C531 N539 1.427 . S
C532 H523 0.930 . S
C532 C530 1.378 . S
C532 C533 1.367 . S
C533 C532 1.367 . S
C533 C535 1.433 . S
C534 C530 1.350 . S
C534 C531 1.463 . S
C534 N538 1.427 . S
C535 H525 0.929 . S
C535 C533 1.433 . S
C535 N538 1.384 . S
C536 H527 0.929 . S
C536 C528 1.378 . S
C536 C531 1.350 . S
C537 H524 0.929 . S
C537 C529 1.433 . S
C537 N539 1.384 . S
N538 C534 1.427 . S
N538 C535 1.384 . S
N539 C531 1.427 . S
N539 C537 1.384 . S
H540 C546 0.930 . S
H541 C550 0.930 . S
H542 C555 0.929 . S
H543 C553 0.929 . S
H544 C548 0.929 . S
H545 C554 0.929 . S
C546 H540 0.930 . S
C546 C547 1.367 . S
C546 C554 1.378 . S
C547 C546 1.367 . S
C547 C555 1.433 . S
C548 H544 0.929 . S
C548 C550 1.378 . S
C548 C552 1.350 . S
C549 C552 1.463 . S
C549 C554 1.350 . S
C549 N557 1.427 . S
C550 H541 0.930 . S
C550 C548 1.378 . S
C550 C551 1.367 . S
C551 C550 1.367 . S
C551 C553 1.433 . S
C552 C548 1.350 . S
C552 C549 1.463 . S
C552 N556 1.427 . S
C553 H543 0.929 . S
C553 C551 1.433 . S
C553 N556 1.384 . S
C554 H545 0.929 . S
C554 C546 1.378 . S
C554 C549 1.350 . S
C555 H542 0.929 . S
C555 C547 1.433 . S
C555 N557 1.384 . S
N556 C552 1.427 . S
N556 C553 1.384 . S
N557 C549 1.427 . S
N557 C555 1.384 . S
H558 C564 0.930 . S
H559 C568 0.930 . S
H560 C573 0.929 . S
H561 C571 0.929 . S
H562 C566 0.929 . S
H563 C572 0.929 . S
C564 H558 0.930 . S
C564 C565 1.367 . S
C564 C572 1.378 . S
C565 C564 1.367 . S
C565 C573 1.433 . S
C566 H562 0.929 . S
C566 C568 1.378 . S
C566 C570 1.350 . S
C567 C570 1.463 . S
C567 C572 1.350 . S
C567 N575 1.427 . S
C568 H559 0.930 . S
C568 C566 1.378 . S
C568 C569 1.367 . S
C569 C568 1.367 . S
C569 C571 1.433 . S
C570 C566 1.350 . S
C570 C567 1.463 . S
C570 N574 1.427 . S
C571 H561 0.929 . S
C571 C569 1.433 . S
C571 N574 1.384 . S
C572 H563 0.929 . S
C572 C564 1.378 . S
C572 C567 1.350 . S
C573 H560 0.929 . S
C573 C565 1.433 . S
C573 N575 1.384 . S
N574 C570 1.427 . S
N574 C571 1.384 . S
N575 C567 1.427 . S
N575 C573 1.384 . S
H576 C582 0.930 . S
H577 C586 0.930 . S
H578 C591 0.929 . S
H579 C589 0.929 . S
H580 C584 0.929 . S
H581 C590 0.929 . S
C582 H576 0.930 . S
C582 C583 1.367 . S
C582 C590 1.378 . S
C583 C582 1.367 . S
C583 C591 1.433 . S
C584 H580 0.929 . S
C584 C586 1.378 . S
C584 C588 1.350 . S
C585 C588 1.463 . S
C585 C590 1.350 . S
C585 N593 1.427 . S
C586 H577 0.930 . S
C586 C584 1.378 . S
C586 C587 1.367 . S
C587 C586 1.367 . S
C587 C589 1.433 . S
C588 C584 1.350 . S
C588 C585 1.463 . S
C588 N592 1.427 . S
C589 H579 0.929 . S
C589 C587 1.433 . S
C589 N592 1.384 . S
C590 H581 0.929 . S
C590 C582 1.378 . S
C590 C585 1.350 . S
C591 H578 0.929 . S
C591 C583 1.433 . S
C591 N593 1.384 . S
N592 C588 1.427 . S
N592 C589 1.384 . S
N593 C585 1.427 . S
N593 C591 1.384 . S
H594 C600 0.930 . S
H595 C604 0.930 . S
H596 C609 0.929 . S
H597 C607 0.929 . S
H598 C602 0.929 . S
H599 C608 0.929 . S
C600 H594 0.930 . S
C600 C601 1.367 . S
C600 C608 1.378 . S
C601 C600 1.367 . S
C601 C609 1.433 . S
C602 H598 0.929 . S
C602 C604 1.378 . S
C602 C606 1.350 . S
C603 C606 1.463 . S
C603 C608 1.350 . S
C603 N611 1.427 . S
C604 H595 0.930 . S
C604 C602 1.378 . S
C604 C605 1.367 . S
C605 C604 1.367 . S
C605 C607 1.433 . S
C606 C602 1.350 . S
C606 C603 1.463 . S
C606 N610 1.427 . S
C607 H597 0.929 . S
C607 C605 1.433 . S
C607 N610 1.384 . S
C608 H599 0.929 . S
C608 C600 1.378 . S
C608 C603 1.350 . S
C609 H596 0.929 . S
C609 C601 1.433 . S
C609 N611 1.384 . S
N610 C606 1.427 . S
N610 C607 1.384 . S
N611 C603 1.427 . S
N611 C609 1.384 . S
H612 C618 0.930 . S
H613 C622 0.930 . S
H614 C627 0.929 . S
H615 C625 0.929 . S
H616 C620 0.929 . S
H617 C626 0.929 . S
C618 H612 0.930 . S
C618 C619 1.367 . S
C618 C626 1.378 . S
C619 C618 1.367 . S
C619 C627 1.433 . S
C620 H616 0.929 . S
C620 C622 1.378 . S
C620 C624 1.350 . S
C621 C624 1.463 . S
C621 C626 1.350 . S
C621 N629 1.427 . S
C622 H613 0.930 . S
C622 C620 1.378 . S
C622 C623 1.367 . S
C623 C622 1.367 . S
C623 C625 1.433 . S
C624 C620 1.350 . S
C624 C621 1.463 . S
C624 N628 1.427 . S
C625 H615 0.929 . S
C625 C623 1.433 . S
C625 N628 1.384 . S
C626 H617 0.929 . S
C626 C618 1.378 . S
C626 C621 1.350 . S
C627 H614 0.929 . S
C627 C619 1.433 . S
C627 N629 1.384 . S
N628 C624 1.427 . S
N628 C625 1.384 . S
N629 C621 1.427 . S
N629 C627 1.384 . S
H630 C636 0.930 . S
H631 C640 0.930 . S
H632 C645 0.929 . S
H633 C643 0.929 1_565 S
H634 C638 0.929 . S
H635 C644 0.929 . S
C636 H630 0.930 . S
C636 C637 1.367 . S
C636 C644 1.378 . S
C637 C636 1.367 . S
C637 C645 1.433 . S
C638 H634 0.929 . S
C638 C640 1.378 . S
C638 C642 1.350 . S
C639 C642 1.463 . S
C639 C644 1.350 . S
C639 N647 1.427 . S
C640 H631 0.930 . S
C640 C638 1.378 . S
C640 C641 1.367 . S
C641 C640 1.367 . S
C641 C643 1.433 . S
C642 C638 1.350 . S
C642 C639 1.463 . S
C642 N646 1.427 . S
C643 H633 0.929 1_545 S
C643 C641 1.433 . S
C643 N646 1.384 . S
C644 H635 0.929 . S
C644 C636 1.378 . S
C644 C639 1.350 . S
C645 H632 0.929 . S
C645 C637 1.433 . S
C645 N647 1.384 . S
N646 C642 1.427 . S
N646 C643 1.384 . S
N647 C639 1.427 . S
N647 C645 1.384 . S
H648 C654 0.930 . S
H649 C658 0.930 . S
H650 C663 0.929 . S
H651 C661 0.929 . S
H652 C656 0.929 . S
H653 C662 0.929 . S
C654 H648 0.930 . S
C654 C655 1.367 . S
C654 C662 1.378 . S
C655 C654 1.367 . S
C655 C663 1.433 . S
C656 H652 0.929 . S
C656 C658 1.378 . S
C656 C660 1.350 . S
C657 C660 1.463 . S
C657 C662 1.350 . S
C657 N665 1.427 . S
C658 H649 0.930 . S
C658 C656 1.378 . S
C658 C659 1.367 . S
C659 C658 1.367 . S
C659 C661 1.433 . S
C660 C656 1.350 . S
C660 C657 1.463 . S
C660 N664 1.427 . S
C661 H651 0.929 . S
C661 C659 1.433 . S
C661 N664 1.384 . S
C662 H653 0.929 . S
C662 C654 1.378 . S
C662 C657 1.350 . S
C663 H650 0.929 . S
C663 C655 1.433 . S
C663 N665 1.384 . S
N664 C660 1.427 . S
N664 C661 1.384 . S
N665 C657 1.427 . S
N665 C663 1.384 . S
H666 C672 0.930 . S
H667 C676 0.930 . S
H668 C681 0.929 . S
H669 C679 0.929 . S
H670 C674 0.929 . S
H671 C680 0.929 . S
C672 H666 0.930 . S
C672 C673 1.367 . S
C672 C680 1.378 . S
C673 C672 1.367 . S
C673 C681 1.433 . S
C674 H670 0.929 . S
C674 C676 1.378 . S
C674 C678 1.350 . S
C675 C678 1.463 . S
C675 C680 1.350 . S
C675 N683 1.427 . S
C676 H667 0.930 . S
C676 C674 1.378 . S
C676 C677 1.367 . S
C677 C676 1.367 . S
C677 C679 1.433 . S
C678 C674 1.350 . S
C678 C675 1.463 . S
C678 N682 1.427 . S
C679 H669 0.929 . S
C679 C677 1.433 . S
C679 N682 1.384 . S
C680 H671 0.929 . S
C680 C672 1.378 . S
C680 C675 1.350 . S
C681 H668 0.929 . S
C681 C673 1.433 . S
C681 N683 1.384 . S
N682 C678 1.427 . S
N682 C679 1.384 . S
N683 C675 1.427 . S
N683 C681 1.384 . S
H684 C690 0.930 . S
H685 C694 0.930 . S
H686 C699 0.929 . S
H687 C697 0.929 1_655 S
H688 C692 0.929 . S
H689 C698 0.929 . S
C690 H684 0.930 . S
C690 C691 1.367 . S
C690 C698 1.378 . S
C691 C690 1.367 . S
C691 C699 1.433 . S
C692 H688 0.929 . S
C692 C694 1.378 . S
C692 C696 1.350 . S
C693 C696 1.463 . S
C693 C698 1.350 . S
C693 N701 1.427 . S
C694 H685 0.930 . S
C694 C692 1.378 . S
C694 C695 1.367 . S
C695 C694 1.367 . S
C695 C697 1.433 . S
C696 C692 1.350 . S
C696 C693 1.463 . S
C696 N700 1.427 . S
C697 H687 0.929 1_455 S
C697 C695 1.433 . S
C697 N700 1.384 . S
C698 H689 0.929 . S
C698 C690 1.378 . S
C698 C693 1.350 . S
C699 H686 0.929 . S
C699 C691 1.433 . S
C699 N701 1.384 . S
N700 C696 1.427 . S
N700 C697 1.384 . S
N701 C693 1.427 . S
N701 C699 1.384 . S
H702 C708 0.944 . S
H703 C712 0.930 . S
H704 C717 0.929 . S
H705 C715 0.929 . S
H706 C710 0.929 . S
H707 C716 0.929 . S
C708 H702 0.944 . S
C708 C709 1.367 . S
C708 C716 1.378 . S
C709 C708 1.367 . S
C709 C717 1.433 . S
C710 H706 0.929 . S
C710 C712 1.378 . S
C710 C714 1.350 . S
C711 C714 1.463 . S
C711 C716 1.350 . S
C711 N719 1.427 . S
C712 H703 0.930 . S
C712 C710 1.378 . S
C712 C713 1.367 . S
C713 C712 1.367 . S
C713 C715 1.433 . S
C714 C710 1.350 . S
C714 C711 1.463 . S
C714 N718 1.427 . S
C715 H705 0.929 . S
C715 C713 1.433 . S
C715 N718 1.384 . S
C716 H707 0.929 . S
C716 C708 1.378 . S
C716 C711 1.350 . S
C717 H704 0.929 . S
C717 C709 1.433 . S
C717 N719 1.384 . S
N718 C714 1.427 . S
N718 C715 1.384 . S
N719 C711 1.427 . S
N719 C717 1.384 . S
H720 C726 0.930 . S
H721 C730 0.930 . S
H722 C735 0.929 . S
H723 C733 0.929 . S
H724 C728 0.929 . S
H725 C734 0.929 . S
C726 H720 0.930 . S
C726 C727 1.367 . S
C726 C734 1.378 . S
C727 C726 1.367 . S
C727 C735 1.433 . S
C728 H724 0.929 . S
C728 C730 1.378 . S
C728 C732 1.350 . S
C729 C732 1.463 . S
C729 C734 1.350 . S
C729 N737 1.427 . S
C730 H721 0.930 . S
C730 C728 1.378 . S
C730 C731 1.367 . S
C731 C730 1.367 . S
C731 C733 1.433 . S
C732 C728 1.350 . S
C732 C729 1.463 . S
C732 N736 1.427 . S
C733 H723 0.929 . S
C733 C731 1.433 . S
C733 N736 1.384 . S
C734 H725 0.929 . S
C734 C726 1.378 . S
C734 C729 1.350 . S
C735 H722 0.929 . S
C735 C727 1.433 . S
C735 N737 1.384 . S
N736 C732 1.427 . S
N736 C733 1.384 . S
N737 C729 1.427 . S
N737 C735 1.384 . S
H738 C744 0.930 . S
H739 C748 0.930 1_655 S
H740 C753 0.929 . S
H741 C751 0.929 . S
H742 C746 0.929 . S
H743 C752 0.929 . S
C744 H738 0.930 . S
C744 C745 1.367 . S
C744 C752 1.378 . S
C745 C744 1.367 . S
C745 C753 1.433 . S
C746 H742 0.929 . S
C746 C748 1.378 . S
C746 C750 1.350 . S
C747 C750 1.463 . S
C747 C752 1.350 . S
C747 N755 1.427 . S
C748 H739 0.930 1_455 S
C748 C746 1.378 . S
C748 C749 1.367 . S
C749 C748 1.367 . S
C749 C751 1.433 . S
C750 C746 1.350 . S
C750 C747 1.463 . S
C750 N754 1.427 . S
C751 H741 0.929 . S
C751 C749 1.433 . S
C751 N754 1.384 . S
C752 H743 0.929 . S
C752 C744 1.378 . S
C752 C747 1.350 . S
C753 H740 0.929 . S
C753 C745 1.433 . S
C753 N755 1.384 . S
N754 C750 1.427 . S
N754 C751 1.384 . S
N755 C747 1.427 . S
N755 C753 1.384 . S
H756 C762 0.930 . S
H757 C766 0.930 . S
H758 C771 0.929 . S
H759 C769 0.929 . S
H760 C764 0.929 . S
H761 C770 0.929 . S
C762 H756 0.930 . S
C762 C763 1.367 . S
C762 C770 1.378 . S
C763 C762 1.367 . S
C763 C771 1.433 . S
C764 H760 0.929 . S
C764 C766 1.378 . S
C764 C768 1.350 . S
C765 C768 1.463 . S
C765 C770 1.350 . S
C765 N773 1.427 . S
C766 H757 0.930 . S
C766 C764 1.378 . S
C766 C767 1.367 . S
C767 C766 1.367 . S
C767 C769 1.433 . S
C768 C764 1.350 . S
C768 C765 1.463 . S
C768 N772 1.427 . S
C769 H759 0.929 . S
C769 C767 1.433 . S
C769 N772 1.384 . S
C770 H761 0.929 . S
C770 C762 1.378 . S
C770 C765 1.350 . S
C771 H758 0.929 . S
C771 C763 1.433 . S
C771 N773 1.384 . S
N772 C768 1.427 . S
N772 C769 1.384 . S
N773 C765 1.427 . S
N773 C771 1.384 . S
H774 C780 0.930 . S
H775 C784 0.930 . S
H776 C789 0.929 . S
H777 C787 0.929 . S
H778 C782 0.929 . S
H779 C788 0.929 . S
C780 H774 0.930 . S
C780 C781 1.367 . S
C780 C788 1.378 . S
C781 C780 1.367 . S
C781 C789 1.433 . S
C782 H778 0.929 . S
C782 C784 1.378 . S
C782 C786 1.350 . S
C783 C786 1.463 . S
C783 C788 1.350 . S
C783 N791 1.427 . S
C784 H775 0.930 . S
C784 C782 1.378 . S
C784 C785 1.367 . S
C785 C784 1.367 . S
C785 C787 1.433 . S
C786 C782 1.350 . S
C786 C783 1.463 . S
C786 N790 1.427 . S
C787 H777 0.929 . S
C787 C785 1.433 . S
C787 N790 1.384 . S
C788 H779 0.929 . S
C788 C780 1.378 . S
C788 C783 1.350 . S
C789 H776 0.929 . S
C789 C781 1.433 . S
C789 N791 1.384 . S
N790 C786 1.427 . S
N790 C787 1.384 . S
N791 C783 1.427 . S
N791 C789 1.384 . S
C227 C125 1.476 . S
C223 C5 1.435 . S
C245 C145 1.540 . S
C241 C18 1.509 . S
C263 C159 1.539 . S
C259 C31 1.505 . S
C277 C42 1.542 . S
C281 C117 1.527 . S
C295 C57 1.320 . S
C299 C111 1.318 . S
C313 C70 1.318 . S
C317 C131 1.311 . S
C335 C139 1.216 . S
C331 C81 1.206 . S
C353 C153 1.273 . S
C349 C96 1.278 . S
C367 C29 1.223 . S
C371 C181 1.274 . S
C389 C195 1.217 . S
C385 C44 1.240 . S
C403 C3 1.261 . S
C407 C215 1.305 . S
C425 C167 1.317 . S
C421 C16 1.264 1_655 S
C439 C83 1.495 . S
C443 C173 1.525 . S
C457 C94 1.561 . S
C461 C187 1.543 . S
C479 C201 1.540 1_556 S
C475 C55 1.555 . S
C493 C68 1.488 . S
C497 C209 1.473 . S
C515 C140 1.709 . S
C511 C1 1.624 . S
C533 C154 1.705 . S
C529 C14 1.614 . S
C547 C27 1.568 . S
C551 C112 1.641 . S
C565 C49 1.500 . S
C569 C129 1.517 . S
C583 C53 1.173 . S
C587 C157 1.184 . S
C605 C115 1.154 . S
C601 C66 1.145 . S
C623 C126 1.289 . S
C619 C88 1.277 . S
C641 C143 1.232 1_545 S
C637 C92 1.222 . S
C659 C199 1.231 . S
C655 C36 1.211 . S
C677 C210 1.287 . S
C673 C40 1.282 . S
C691 C10 1.143 . S
C695 C171 1.152 . S
C713 C185 1.183 . S
C709 C23 1.165 . S
C731 C213 1.520 . S
C727 C79 1.456 . S
C745 C101 1.633 . S
C749 C168 1.643 1_455 S
C767 C182 1.706 . S
C763 C62 1.686 . S
C785 C196 1.710 . S
C781 C75 1.697 . S
