# Generated by pormake.
# Topology bcu-b, (8,8)-cn, num edge types: 1
# Building blocks:
#     Node 0, Type 0, BuildingBlock: TAGTUT_clean_sbu_1, # of connection points: 8
#     Node 1, Type 1, BuildingBlock: VETTIZ_charged_sbu_0, # of connection points: 8
#     Edge 2, Type (0, 1), BuildingBlock: XUDNAN_clean_linker_2, # of connection points: 2
#     Edge 3, Type (0, 1), BuildingBlock: XUDNAN_clean_linker_2, # of connection points: 2
#     Edge 4, Type (0, 1), BuildingBlock: XUDNAN_clean_linker_2, # of connection points: 2
#     Edge 5, Type (0, 1), BuildingBlock: XUDNAN_clean_linker_2, # of connection points: 2
#     Edge 6, Type (0, 1), BuildingBlock: XUDNAN_clean_linker_2, # of connection points: 2
#     Edge 7, Type (0, 1), BuildingBlock: XUDNAN_clean_linker_2, # of connection points: 2
#     Edge 8, Type (0, 1), BuildingBlock: XUDNAN_clean_linker_2, # of connection points: 2
#     Edge 9, Type (0, 1), BuildingBlock: XUDNAN_clean_linker_2, # of connection points: 2
# Relax obj value: 0.028
# Max RMSD: 0.120
# Mean RMSD: 0.087
data_MOF--net-bcu-b--node1-TAGTUT_clean_sbu_1--node2-VETTIZ_charged_sbu_0--edge1-XUDNAN_clean_linker_2
_symmetry_space_group_name_H-M    P1
_symmetry_Int_Tables_number       1
_symmetry_cell_setting            triclinic
loop_
_symmetry_equiv_pos_as_xyz
'x, y, z'
_cell_length_a     19.706914
_cell_length_b     19.427405
_cell_length_c     20.59908
_cell_angle_alpha  90.392188
_cell_angle_beta   92.260268
_cell_angle_gamma 98.483412
loop_
_atom_site_label
_atom_site_type_symbol
_atom_site_fract_x
_atom_site_fract_y
_atom_site_fract_z
_atom_type_partial_charge
C0 C 0.80593 0.1191 0.06891 0.0
C1 C 0.8633 0.12365 0.87044 0.0
C2 C 0.93146 0.86109 0.92355 0.0
Mg3 Mg 0.94552 0.15089 0.00146 0.0
O4 O 0.94003 0.05556 0.01369 0.0
Mg5 Mg 0.85693 0.99243 0.97818 0.0
Mg6 Mg 0.01553 0.00354 0.9921 0.0
O7 O 0.09103 0.9518 0.97003 0.0
Mg8 Mg 0.08559 0.85661 0.9818 0.0
Mg9 Mg 0.17433 0.01479 0.00477 0.0
C10 C 0.10191 0.14673 0.05486 0.0
C11 C 0.11102 0.09046 0.88224 0.0
O12 O 0.79171 0.06079 0.03762 0.0
O13 O 0.86291 0.15982 0.06385 0.0
O14 O 0.84443 0.06152 0.88963 0.0
O15 O 0.90684 0.16662 0.90369 0.0
O16 O 0.05284 0.18051 0.03709 0.0
O17 O 0.09591 0.07979 0.05148 0.0
C18 C 0.9191 0.91624 0.10137 0.0
O19 O 0.98154 0.93615 0.08524 0.0
O20 O 0.86847 0.93022 0.06626 0.0
O21 O 0.23959 0.9467 0.94409 0.0
O22 O 0.16884 0.8468 0.92102 0.0
O23 O 0.18652 0.9455 0.09297 0.0
C24 C 0.22531 0.88763 0.91404 0.0
O25 O 0.12152 0.84152 0.08037 0.0
O26 O 0.98083 0.82747 0.94063 0.0
C27 C 0.16599 0.88409 0.11306 0.0
O28 O 0.93575 0.92742 0.93247 0.0
O29 O 0.04886 0.07046 0.89894 0.0
O30 O 0.16212 0.077 0.91699 0.0
Fe31 Fe 0.53211 0.58175 0.49293 0.0
O32 O 0.4546 0.50882 0.51763 0.0
Fe33 Fe 0.66714 0.48599 0.48176 0.0
Fe34 Fe 0.3576 0.51466 0.49782 0.0
O35 O 0.57165 0.49983 0.45982 0.0
O36 O 0.57019 0.49205 0.46145 0.0
O37 O 0.45314 0.50107 0.51926 0.0
Fe38 Fe 0.49251 0.41922 0.48595 0.0
C39 C 0.42364 0.64924 0.5678 0.0
O40 O 0.48681 0.59635 0.40297 0.0
O41 O 0.37782 0.59074 0.43088 0.0
O42 O 0.54453 0.34391 0.44377 0.0
O43 O 0.64733 0.40693 0.41343 0.0
O44 O 0.68772 0.5685 0.42092 0.0
O45 O 0.62143 0.64684 0.46063 0.0
O46 O 0.34203 0.44117 0.42309 0.0
O47 O 0.44742 0.42807 0.39546 0.0
C48 C 0.67298 0.63088 0.42807 0.0
O49 O 0.53779 0.40431 0.57612 0.0
O50 O 0.64679 0.40974 0.54847 0.0
O51 O 0.4798 0.65736 0.53517 0.0
O52 O 0.37761 0.59376 0.56595 0.0
C53 C 0.42566 0.6086 0.39229 0.0
C54 C 0.38347 0.42313 0.38262 0.0
C55 C 0.35205 0.36999 0.55099 0.0
O56 O 0.33751 0.43234 0.55876 0.0
O57 O 0.40334 0.35413 0.51806 0.0
C58 C 0.60067 0.35195 0.41124 0.0
O59 O 0.6823 0.55921 0.55688 0.0
O60 O 0.57687 0.57282 0.5831 0.0
C61 C 0.59897 0.3922 0.58711 0.0
C62 C 0.64083 0.57924 0.59641 0.0
H63 H 0.17151 0.11921 0.16673 0.0
H64 H 0.16789 0.26998 0.01318 0.0
H65 H 0.25264 0.35327 0.07624 0.0
H66 H 0.16729 0.23318 0.29073 0.0
H67 H 0.22326 0.19657 0.34789 0.0
H68 H 0.17602 0.14222 0.2855 0.0
H69 H 0.28883 0.10678 0.24474 0.0
H70 H 0.33654 0.16006 0.30803 0.0
H71 H 0.35823 0.17339 0.22443 0.0
H72 H 0.32253 0.4265 0.16211 0.0
H73 H 0.37498 0.48286 0.26426 0.0
H74 H 0.32901 0.28736 0.36449 0.0
C75 C 0.19129 0.16848 0.14525 0.0
C76 C 0.16447 0.18787 0.08463 0.0
C77 C 0.18883 0.25397 0.05913 0.0
C78 C 0.23688 0.30158 0.09464 0.0
C79 C 0.25989 0.28242 0.15577 0.0
C80 C 0.23851 0.21715 0.18073 0.0
C81 C 0.26414 0.21285 0.25081 0.0
C82 C 0.20409 0.19519 0.29637 0.0
C83 C 0.31496 0.16014 0.25737 0.0
C84 C 0.30028 0.28665 0.26216 0.0
C85 C 0.29855 0.32555 0.20632 0.0
C86 C 0.32525 0.39625 0.2058 0.0
C87 C 0.35451 0.42794 0.26384 0.0
C88 C 0.35569 0.3891 0.32143 0.0
C89 C 0.3288 0.31767 0.32054 0.0
H90 H 0.84287 0.19239 0.17941 0.0
H91 H 0.66432 0.08585 0.07136 0.0
H92 H 0.58923 0.12215 0.15569 0.0
H93 H 0.77966 0.1501 0.34157 0.0
H94 H 0.8198 0.23299 0.3746 0.0
H95 H 0.85779 0.19329 0.30847 0.0
H96 H 0.85494 0.30453 0.23995 0.0
H97 H 0.8176 0.34462 0.30585 0.0
H98 H 0.77471 0.33748 0.22665 0.0
H99 H 0.53427 0.18272 0.24896 0.0
H100 H 0.50697 0.26031 0.33771 0.0
H101 H 0.72454 0.3194 0.38291 0.0
C102 C 0.78794 0.1764 0.17331 0.0
C103 C 0.75916 0.13734 0.11847 0.0
C104 C 0.68723 0.11622 0.11303 0.0
C105 C 0.64439 0.13637 0.16076 0.0
C106 C 0.67477 0.17594 0.21406 0.0
C107 C 0.74518 0.19481 0.22054 0.0
C108 C 0.7662 0.23939 0.28017 0.0
C109 C 0.80834 0.20167 0.32909 0.0
C110 C 0.80562 0.3107 0.26203 0.0
C111 C 0.69654 0.24581 0.30509 0.0
C112 C 0.64403 0.20831 0.26732 0.0
C113 C 0.57515 0.21122 0.27935 0.0
C114 C 0.56004 0.25508 0.32997 0.0
C115 C 0.61376 0.29569 0.36701 0.0
C116 C 0.68242 0.28891 0.35541 0.0
H117 H 0.79454 0.9 0.15585 0.0
H118 H 1.00055 0.84892 0.18685 0.0
H119 H 0.96184 0.78265 0.28506 0.0
H120 H 0.75382 0.91614 0.32694 0.0
H121 H 0.66555 0.87803 0.31143 0.0
H122 H 0.71194 0.92733 0.24916 0.0
H123 H 0.68357 0.82218 0.16961 0.0
H124 H 0.63697 0.77284 0.23138 0.0
H125 H 0.70605 0.73894 0.19312 0.0
H126 H 0.89611 0.71303 0.37326 0.0
H127 H 0.81105 0.64211 0.43927 0.0
H128 H 0.64787 0.73923 0.34839 0.0
C129 C 0.83233 0.87557 0.18322 0.0
C130 C 0.90093 0.87953 0.16308 0.0
C131 C 0.948 0.84689 0.20116 0.0
C132 C 0.92633 0.80935 0.25705 0.0
C133 C 0.8578 0.80584 0.27445 0.0
C134 C 0.81172 0.83841 0.23848 0.0
C135 C 0.7398 0.82329 0.26382 0.0
C136 C 0.71642 0.89018 0.28936 0.0
C137 C 0.68863 0.78714 0.21137 0.0
C138 C 0.75144 0.77462 0.31879 0.0
C139 C 0.82012 0.7662 0.32484 0.0
C140 C 0.84266 0.72015 0.36932 0.0
C141 C 0.79385 0.68016 0.40669 0.0
C142 C 0.72294 0.68583 0.39948 0.0
C143 C 0.70181 0.73522 0.35624 0.0
H144 H 0.15109 0.75156 0.16243 0.0
H145 H 0.27818 0.95406 0.18067 0.0
H146 H 0.36543 0.90182 0.24421 0.0
H147 H 0.19371 0.69368 0.32646 0.0
H148 H 0.19127 0.60488 0.29941 0.0
H149 H 0.13823 0.66017 0.25824 0.0
H150 H 0.19197 0.63285 0.14979 0.0
H151 H 0.24731 0.57992 0.19124 0.0
H152 H 0.28371 0.65187 0.1427 0.0
H153 H 0.44423 0.82532 0.29771 0.0
H154 H 0.4947 0.73539 0.36045 0.0
H155 H 0.31493 0.58524 0.3097 0.0
C156 C 0.19638 0.78541 0.18108 0.0
C157 C 0.20772 0.85688 0.16578 0.0
C158 C 0.268 0.89909 0.19139 0.0
C159 C 0.31846 0.86979 0.22698 0.0
C160 C 0.30759 0.79841 0.23745 0.0
C161 C 0.24709 0.75719 0.21711 0.0
C162 C 0.24719 0.68224 0.23645 0.0
C163 C 0.18919 0.65889 0.28293 0.0
C164 C 0.24225 0.6339 0.17645 0.0
C165 C 0.3172 0.68781 0.27064 0.0
C166 C 0.35196 0.75492 0.26967 0.0
C167 C 0.41742 0.77258 0.29898 0.0
C168 C 0.44623 0.72109 0.33356 0.0
C169 C 0.4089 0.65358 0.33892 0.0
C170 C 0.34487 0.63632 0.30517 0.0
H171 H 0.18735 0.80003 0.81259 0.0
H172 H 0.36478 0.93209 0.89951 0.0
H173 H 0.43655 0.89508 0.81256 0.0
H174 H 0.26755 0.65983 0.77046 0.0
H175 H 0.21749 0.64132 0.69558 0.0
H176 H 0.18221 0.6826 0.76205 0.0
H177 H 0.16025 0.7845 0.68702 0.0
H178 H 0.19615 0.74373 0.62029 0.0
H179 H 0.23054 0.83164 0.64469 0.0
H180 H 0.48915 0.83395 0.71653 0.0
H181 H 0.51526 0.7556 0.62787 0.0
H182 H 0.29931 0.67005 0.60811 0.0
C183 C 0.24137 0.82138 0.81389 0.0
C184 C 0.27072 0.86808 0.86351 0.0
C185 C 0.34133 0.89577 0.86213 0.0
C186 C 0.38228 0.87523 0.81282 0.0
C187 C 0.35128 0.82828 0.76482 0.0
C188 C 0.28208 0.80246 0.76518 0.0
C189 C 0.25997 0.75149 0.71028 0.0
C190 C 0.23011 0.67959 0.73617 0.0
C191 C 0.20871 0.77955 0.66277 0.0
C192 C 0.32797 0.75004 0.67988 0.0
C193 C 0.38035 0.79503 0.71088 0.0
C194 C 0.4482 0.79897 0.69192 0.0
C195 C 0.46264 0.75428 0.64157 0.0
C196 C 0.40956 0.70565 0.61193 0.0
C197 C 0.34138 0.70586 0.63017 0.0
H198 H 0.23441 0.10494 0.82599 0.0
H199 H 0.02833 0.15648 0.79704 0.0
H200 H 0.06537 0.22035 0.69708 0.0
H201 H 0.32251 0.26441 0.78532 0.0
H202 H 0.39075 0.22948 0.74661 0.0
H203 H 0.34503 0.18142 0.80962 0.0
H204 H 0.315 0.07502 0.73171 0.0
H205 H 0.36047 0.12308 0.66816 0.0
H206 H 0.27192 0.0851 0.65428 0.0
H207 H 0.12965 0.28807 0.60726 0.0
H208 H 0.21399 0.3585 0.54015 0.0
H209 H 0.37804 0.26197 0.63008 0.0
C210 C 0.19626 0.12897 0.79872 0.0
C211 C 0.12818 0.12595 0.81988 0.0
C212 C 0.08053 0.15792 0.78192 0.0
C213 C 0.10123 0.19403 0.72503 0.0
C214 C 0.16931 0.19665 0.70658 0.0
C215 C 0.21588 0.16466 0.74249 0.0
C216 C 0.28731 0.17897 0.71609 0.0
C217 C 0.33942 0.21578 0.76745 0.0
C218 C 0.30999 0.11152 0.69107 0.0
C219 C 0.27488 0.22674 0.66066 0.0
C220 C 0.20618 0.23521 0.65521 0.0
C221 C 0.18309 0.28086 0.61066 0.0
C222 C 0.23146 0.32056 0.57268 0.0
C223 C 0.30239 0.31495 0.57947 0.0
C224 C 0.32402 0.2658 0.6226 0.0
H225 H 0.87486 0.25692 0.82218 0.0
H226 H 0.75225 0.05219 0.80245 0.0
H227 H 0.66415 0.10237 0.73822 0.0
H228 H 0.73842 0.35347 0.8397 0.0
H229 H 0.77417 0.42597 0.79147 0.0
H230 H 0.83019 0.37463 0.83408 0.0
H231 H 0.8867 0.34874 0.72676 0.0
H232 H 0.83282 0.40247 0.68455 0.0
H233 H 0.83304 0.31394 0.65779 0.0
H234 H 0.5842 0.17641 0.68321 0.0
H235 H 0.53241 0.26435 0.61894 0.0
H236 H 0.70822 0.41877 0.67153 0.0
C237 C 0.83035 0.22222 0.80313 0.0
C238 C 0.82067 0.15055 0.81805 0.0
C239 C 0.76129 0.10727 0.79198 0.0
C240 C 0.71032 0.13539 0.75598 0.0
C241 C 0.71965 0.20678 0.74554 0.0
C242 C 0.77913 0.24928 0.76656 0.0
C243 C 0.77747 0.32398 0.74681 0.0
C244 C 0.78023 0.37233 0.80659 0.0
C245 C 0.83595 0.34871 0.70124 0.0
C246 C 0.70787 0.31667 0.71144 0.0
C247 C 0.67458 0.24897 0.71235 0.0
C248 C 0.60983 0.22961 0.68201 0.0
C249 C 0.58023 0.27997 0.64652 0.0
C250 C 0.61607 0.34815 0.64124 0.0
C251 C 0.6794 0.36712 0.67594 0.0
H252 H 0.93319 0.74478 0.85085 0.0
H253 H 0.79828 0.89014 0.90762 0.0
H254 H 0.70439 0.82527 0.83775 0.0
H255 H 0.88028 0.73604 0.68746 0.0
H256 H 0.8886 0.64554 0.67672 0.0
H257 H 0.94114 0.69736 0.73766 0.0
H258 H 0.89665 0.60923 0.82591 0.0
H259 H 0.84403 0.55703 0.765 0.0
H260 H 0.80553 0.58733 0.83566 0.0
H261 H 0.62656 0.74473 0.7588 0.0
H262 H 0.57624 0.66643 0.66899 0.0
H263 H 0.76731 0.58191 0.65812 0.0
C264 C 0.88345 0.76225 0.85002 0.0
C265 C 0.87261 0.82184 0.88576 0.0
C266 C 0.80749 0.84428 0.88125 0.0
C267 C 0.7539 0.80753 0.84192 0.0
C268 C 0.76677 0.74917 0.807 0.0
C269 C 0.83033 0.72725 0.81031 0.0
C270 C 0.83383 0.66776 0.76327 0.0
C271 C 0.88922 0.68792 0.71333 0.0
C272 C 0.8457 0.60142 0.79965 0.0
C273 C 0.76251 0.66004 0.7319 0.0
C274 C 0.72399 0.70624 0.75879 0.0
C275 C 0.65648 0.70866 0.73738 0.0
C276 C 0.62836 0.66399 0.68625 0.0
C277 C 0.66821 0.61885 0.65583 0.0
C278 C 0.73575 0.6162 0.67996 0.0
loop_
_geom_bond_atom_site_label_1
_geom_bond_atom_site_label_2
_geom_bond_distance
_geom_bond_site_symmetry_2
_ccdc_geom_bond_type
C0 O12 1.241 . S
C0 O13 1.280 . S
C1 O14 1.277 . S
C1 O15 1.245 . S
C2 O26 1.247 . S
C2 O28 1.289 . S
Mg3 O4 1.926 . S
Mg3 O13 1.984 . S
Mg3 O15 1.988 1_554 S
Mg3 O16 2.061 1_655 S
O4 Mg3 1.926 . S
O4 Mg5 1.986 . S
O4 Mg6 1.917 1_655 S
Mg5 O4 1.986 . S
Mg5 O12 2.042 . S
Mg5 O14 2.042 1_554 S
Mg5 O20 2.038 1_545 S
Mg5 O28 2.238 1_544 S
Mg6 O4 1.917 1_455 S
Mg6 O7 1.917 1_544 S
Mg6 O17 2.106 . S
Mg6 O19 2.079 1_445 S
Mg6 O28 2.106 1_444 S
Mg6 O29 2.079 1_554 S
O7 Mg6 1.917 1_566 S
O7 Mg8 1.926 . S
O7 Mg9 1.986 1_556 S
Mg8 O7 1.926 . S
Mg8 O22 1.984 . S
Mg8 O25 1.988 1_556 S
Mg8 O26 2.061 1_455 S
Mg9 O7 1.986 1_554 S
Mg9 O17 2.238 1_565 S
Mg9 O21 2.042 1_554 S
Mg9 O23 2.042 . S
Mg9 O30 2.038 1_564 S
C10 O16 1.247 . S
C10 O17 1.289 . S
C11 O29 1.245 . S
C11 O30 1.274 . S
O12 C0 1.241 . S
O12 Mg5 2.042 . S
O13 C0 1.280 . S
O13 Mg3 1.984 . S
O14 C1 1.277 . S
O14 Mg5 2.042 1_556 S
O15 C1 1.245 . S
O15 Mg3 1.988 1_556 S
O16 Mg3 2.061 1_455 S
O16 C10 1.247 . S
O17 Mg6 2.106 . S
O17 Mg9 2.238 1_545 S
O17 C10 1.289 . S
C18 O19 1.245 . S
C18 O20 1.274 . S
O19 Mg6 2.079 1_665 S
O19 C18 1.245 . S
O20 Mg5 2.038 1_565 S
O20 C18 1.274 . S
O21 Mg9 2.042 1_556 S
O21 C24 1.241 . S
O22 Mg8 1.984 . S
O22 C24 1.280 . S
O23 Mg9 2.042 . S
O23 C27 1.277 . S
C24 O21 1.241 . S
C24 O22 1.280 . S
O25 Mg8 1.988 1_554 S
O25 C27 1.245 . S
O26 C2 1.247 . S
O26 Mg8 2.061 1_655 S
C27 O23 1.277 . S
C27 O25 1.245 . S
O28 C2 1.289 . S
O28 Mg5 2.238 1_566 S
O28 Mg6 2.106 1_666 S
O29 Mg6 2.079 1_556 S
O29 C11 1.245 . S
O30 Mg9 2.038 1_546 S
O30 C11 1.274 . S
Fe31 O32 1.886 . S
Fe31 O35 1.715 . S
Fe31 O40 2.077 . S
Fe31 O45 1.935 . S
Fe31 O51 2.077 . S
Fe31 O60 1.935 . S
O32 Fe31 1.886 . S
O32 Fe34 1.715 . S
Fe33 O35 1.886 . S
Fe33 O36 1.715 . S
Fe33 O43 1.935 . S
Fe33 O44 2.077 . S
Fe33 O50 1.935 . S
Fe33 O59 2.077 . S
Fe34 O32 1.715 . S
Fe34 O37 1.886 . S
Fe34 O41 1.935 . S
Fe34 O46 2.077 . S
Fe34 O52 1.935 . S
Fe34 O56 2.077 . S
O35 Fe31 1.715 . S
O35 Fe33 1.886 . S
O36 Fe33 1.715 . S
O36 Fe38 1.886 . S
O37 Fe34 1.886 . S
O37 Fe38 1.715 . S
Fe38 O36 1.886 . S
Fe38 O37 1.715 . S
Fe38 O42 2.077 . S
Fe38 O47 1.935 . S
Fe38 O49 2.077 . S
Fe38 O57 1.935 . S
C39 O51 1.381 . S
C39 O52 1.421 . S
O40 Fe31 2.077 . S
O40 C53 1.381 . S
O41 Fe34 1.935 . S
O41 C53 1.421 . S
O42 Fe38 2.077 . S
O42 C58 1.381 . S
O43 Fe33 1.935 . S
O43 C58 1.421 . S
O44 Fe33 2.077 . S
O44 C48 1.381 . S
O45 Fe31 1.935 . S
O45 C48 1.421 . S
O46 Fe34 2.077 . S
O46 C54 1.381 . S
O47 Fe38 1.935 . S
O47 C54 1.421 . S
C48 O44 1.381 . S
C48 O45 1.421 . S
O49 Fe38 2.077 . S
O49 C61 1.381 . S
O50 Fe33 1.935 . S
O50 C61 1.421 . S
O51 Fe31 2.077 . S
O51 C39 1.381 . S
O52 Fe34 1.935 . S
O52 C39 1.421 . S
C53 O40 1.381 . S
C53 O41 1.421 . S
C54 O46 1.381 . S
C54 O47 1.421 . S
C55 O56 1.381 . S
C55 O57 1.421 . S
O56 Fe34 2.077 . S
O56 C55 1.381 . S
O57 Fe38 1.935 . S
O57 C55 1.421 . S
C58 O42 1.381 . S
C58 O43 1.421 . S
O59 Fe33 2.077 . S
O59 C62 1.381 . S
O60 Fe31 1.935 . S
O60 C62 1.421 . S
C61 O49 1.381 . S
C61 O50 1.421 . S
C62 O59 1.381 . S
C62 O60 1.421 . S
H63 C75 0.930 . S
H64 C77 0.930 . S
H65 C78 0.930 . S
H66 C82 0.959 . S
H67 C82 0.959 . S
H68 C82 0.961 . S
H69 C83 0.960 . S
H70 C83 0.961 . S
H71 C83 0.959 . S
H72 C86 0.929 . S
H73 C87 0.931 . S
H74 C89 0.930 . S
C75 H63 0.930 . S
C75 C76 1.399 . S
C75 C80 1.399 . S
C76 C75 1.399 . S
C76 C77 1.376 . S
C77 H64 0.930 . S
C77 C76 1.376 . S
C77 C78 1.388 . S
C78 H65 0.930 . S
C78 C77 1.388 . S
C78 C79 1.390 . S
C79 C78 1.390 . S
C79 C80 1.394 . S
C79 C85 1.465 . S
C80 C75 1.399 . S
C80 C79 1.394 . S
C80 C81 1.516 . S
C81 C80 1.516 . S
C81 C82 1.502 . S
C81 C83 1.561 . S
C81 C84 1.526 . S
C82 H66 0.959 . S
C82 H67 0.959 . S
C82 H68 0.961 . S
C82 C81 1.502 . S
C83 H69 0.960 . S
C83 H70 0.961 . S
C83 H71 0.959 . S
C83 C81 1.561 . S
C84 C81 1.526 . S
C84 C85 1.396 . S
C84 C89 1.390 . S
C85 C79 1.465 . S
C85 C84 1.396 . S
C85 C86 1.399 . S
C86 H72 0.929 . S
C86 C85 1.399 . S
C86 C87 1.385 . S
C87 H73 0.931 . S
C87 C86 1.385 . S
C87 C88 1.389 . S
C88 C87 1.389 . S
C88 C89 1.387 . S
C89 H74 0.930 . S
C89 C84 1.390 . S
C89 C88 1.387 . S
H90 C102 0.930 . S
H91 C104 0.930 . S
H92 C105 0.930 . S
H93 C109 0.959 . S
H94 C109 0.959 . S
H95 C109 0.961 . S
H96 C110 0.960 . S
H97 C110 0.961 . S
H98 C110 0.959 . S
H99 C113 0.929 . S
H100 C114 0.931 . S
H101 C116 0.930 . S
C102 H90 0.930 . S
C102 C103 1.399 . S
C102 C107 1.399 . S
C103 C102 1.399 . S
C103 C104 1.376 . S
C104 H91 0.930 . S
C104 C103 1.376 . S
C104 C105 1.388 . S
C105 H92 0.930 . S
C105 C104 1.388 . S
C105 C106 1.390 . S
C106 C105 1.390 . S
C106 C107 1.394 . S
C106 C112 1.465 . S
C107 C102 1.399 . S
C107 C106 1.394 . S
C107 C108 1.516 . S
C108 C107 1.516 . S
C108 C109 1.502 . S
C108 C110 1.561 . S
C108 C111 1.526 . S
C109 H93 0.959 . S
C109 H94 0.959 . S
C109 H95 0.961 . S
C109 C108 1.502 . S
C110 H96 0.960 . S
C110 H97 0.961 . S
C110 H98 0.959 . S
C110 C108 1.561 . S
C111 C108 1.526 . S
C111 C112 1.396 . S
C111 C116 1.390 . S
C112 C106 1.465 . S
C112 C111 1.396 . S
C112 C113 1.399 . S
C113 H99 0.929 . S
C113 C112 1.399 . S
C113 C114 1.385 . S
C114 H100 0.931 . S
C114 C113 1.385 . S
C114 C115 1.389 . S
C115 C114 1.389 . S
C115 C116 1.387 . S
C116 H101 0.930 . S
C116 C111 1.390 . S
C116 C115 1.387 . S
H117 C129 0.930 . S
H118 C131 0.930 . S
H119 C132 0.930 . S
H120 C136 0.959 . S
H121 C136 0.959 . S
H122 C136 0.961 . S
H123 C137 0.960 . S
H124 C137 0.961 . S
H125 C137 0.959 . S
H126 C140 0.929 . S
H127 C141 0.931 . S
H128 C143 0.930 . S
C129 H117 0.930 . S
C129 C130 1.399 . S
C129 C134 1.399 . S
C130 C129 1.399 . S
C130 C131 1.376 . S
C131 H118 0.930 . S
C131 C130 1.376 . S
C131 C132 1.388 . S
C132 H119 0.930 . S
C132 C131 1.388 . S
C132 C133 1.390 . S
C133 C132 1.390 . S
C133 C134 1.394 . S
C133 C139 1.465 . S
C134 C129 1.399 . S
C134 C133 1.394 . S
C134 C135 1.516 . S
C135 C134 1.516 . S
C135 C136 1.502 . S
C135 C137 1.561 . S
C135 C138 1.526 . S
C136 H120 0.959 . S
C136 H121 0.959 . S
C136 H122 0.961 . S
C136 C135 1.502 . S
C137 H123 0.960 . S
C137 H124 0.961 . S
C137 H125 0.959 . S
C137 C135 1.561 . S
C138 C135 1.526 . S
C138 C139 1.396 . S
C138 C143 1.390 . S
C139 C133 1.465 . S
C139 C138 1.396 . S
C139 C140 1.399 . S
C140 H126 0.929 . S
C140 C139 1.399 . S
C140 C141 1.385 . S
C141 H127 0.931 . S
C141 C140 1.385 . S
C141 C142 1.389 . S
C142 C141 1.389 . S
C142 C143 1.387 . S
C143 H128 0.930 . S
C143 C138 1.390 . S
C143 C142 1.387 . S
H144 C156 0.930 . S
H145 C158 0.930 . S
H146 C159 0.930 . S
H147 C163 0.959 . S
H148 C163 0.959 . S
H149 C163 0.961 . S
H150 C164 0.960 . S
H151 C164 0.961 . S
H152 C164 0.959 . S
H153 C167 0.929 . S
H154 C168 0.931 . S
H155 C170 0.930 . S
C156 H144 0.930 . S
C156 C157 1.399 . S
C156 C161 1.399 . S
C157 C156 1.399 . S
C157 C158 1.376 . S
C158 H145 0.930 . S
C158 C157 1.376 . S
C158 C159 1.388 . S
C159 H146 0.930 . S
C159 C158 1.388 . S
C159 C160 1.390 . S
C160 C159 1.390 . S
C160 C161 1.394 . S
C160 C166 1.465 . S
C161 C156 1.399 . S
C161 C160 1.394 . S
C161 C162 1.516 . S
C162 C161 1.516 . S
C162 C163 1.502 . S
C162 C164 1.561 . S
C162 C165 1.526 . S
C163 H147 0.959 . S
C163 H148 0.959 . S
C163 H149 0.961 . S
C163 C162 1.502 . S
C164 H150 0.960 . S
C164 H151 0.961 . S
C164 H152 0.959 . S
C164 C162 1.561 . S
C165 C162 1.526 . S
C165 C166 1.396 . S
C165 C170 1.390 . S
C166 C160 1.465 . S
C166 C165 1.396 . S
C166 C167 1.399 . S
C167 H153 0.929 . S
C167 C166 1.399 . S
C167 C168 1.385 . S
C168 H154 0.931 . S
C168 C167 1.385 . S
C168 C169 1.389 . S
C169 C168 1.389 . S
C169 C170 1.387 . S
C170 H155 0.930 . S
C170 C165 1.390 . S
C170 C169 1.387 . S
H171 C183 0.930 . S
H172 C185 0.930 . S
H173 C186 0.930 . S
H174 C190 0.959 . S
H175 C190 0.959 . S
H176 C190 0.961 . S
H177 C191 0.960 . S
H178 C191 0.961 . S
H179 C191 0.959 . S
H180 C194 0.929 . S
H181 C195 0.931 . S
H182 C197 0.930 . S
C183 H171 0.930 . S
C183 C184 1.399 . S
C183 C188 1.399 . S
C184 C183 1.399 . S
C184 C185 1.376 . S
C185 H172 0.930 . S
C185 C184 1.376 . S
C185 C186 1.388 . S
C186 H173 0.930 . S
C186 C185 1.388 . S
C186 C187 1.390 . S
C187 C186 1.390 . S
C187 C188 1.394 . S
C187 C193 1.465 . S
C188 C183 1.399 . S
C188 C187 1.394 . S
C188 C189 1.516 . S
C189 C188 1.516 . S
C189 C190 1.502 . S
C189 C191 1.561 . S
C189 C192 1.526 . S
C190 H174 0.959 . S
C190 H175 0.959 . S
C190 H176 0.961 . S
C190 C189 1.502 . S
C191 H177 0.960 . S
C191 H178 0.961 . S
C191 H179 0.959 . S
C191 C189 1.561 . S
C192 C189 1.526 . S
C192 C193 1.396 . S
C192 C197 1.390 . S
C193 C187 1.465 . S
C193 C192 1.396 . S
C193 C194 1.399 . S
C194 H180 0.929 . S
C194 C193 1.399 . S
C194 C195 1.385 . S
C195 H181 0.931 . S
C195 C194 1.385 . S
C195 C196 1.389 . S
C196 C195 1.389 . S
C196 C197 1.387 . S
C197 H182 0.930 . S
C197 C192 1.390 . S
C197 C196 1.387 . S
H198 C210 0.930 . S
H199 C212 0.930 . S
H200 C213 0.930 . S
H201 C217 0.959 . S
H202 C217 0.959 . S
H203 C217 0.961 . S
H204 C218 0.960 . S
H205 C218 0.961 . S
H206 C218 0.959 . S
H207 C221 0.929 . S
H208 C222 0.931 . S
H209 C224 0.930 . S
C210 H198 0.930 . S
C210 C211 1.399 . S
C210 C215 1.399 . S
C211 C210 1.399 . S
C211 C212 1.376 . S
C212 H199 0.930 . S
C212 C211 1.376 . S
C212 C213 1.388 . S
C213 H200 0.930 . S
C213 C212 1.388 . S
C213 C214 1.390 . S
C214 C213 1.390 . S
C214 C215 1.394 . S
C214 C220 1.465 . S
C215 C210 1.399 . S
C215 C214 1.394 . S
C215 C216 1.516 . S
C216 C215 1.516 . S
C216 C217 1.502 . S
C216 C218 1.561 . S
C216 C219 1.526 . S
C217 H201 0.959 . S
C217 H202 0.959 . S
C217 H203 0.961 . S
C217 C216 1.502 . S
C218 H204 0.960 . S
C218 H205 0.961 . S
C218 H206 0.959 . S
C218 C216 1.561 . S
C219 C216 1.526 . S
C219 C220 1.396 . S
C219 C224 1.390 . S
C220 C214 1.465 . S
C220 C219 1.396 . S
C220 C221 1.399 . S
C221 H207 0.929 . S
C221 C220 1.399 . S
C221 C222 1.385 . S
C222 H208 0.931 . S
C222 C221 1.385 . S
C222 C223 1.389 . S
C223 C222 1.389 . S
C223 C224 1.387 . S
C224 H209 0.930 . S
C224 C219 1.390 . S
C224 C223 1.387 . S
H225 C237 0.930 . S
H226 C239 0.930 . S
H227 C240 0.930 . S
H228 C244 0.959 . S
H229 C244 0.959 . S
H230 C244 0.961 . S
H231 C245 0.960 . S
H232 C245 0.961 . S
H233 C245 0.959 . S
H234 C248 0.929 . S
H235 C249 0.931 . S
H236 C251 0.930 . S
C237 H225 0.930 . S
C237 C238 1.399 . S
C237 C242 1.399 . S
C238 C237 1.399 . S
C238 C239 1.376 . S
C239 H226 0.930 . S
C239 C238 1.376 . S
C239 C240 1.388 . S
C240 H227 0.930 . S
C240 C239 1.388 . S
C240 C241 1.390 . S
C241 C240 1.390 . S
C241 C242 1.394 . S
C241 C247 1.465 . S
C242 C237 1.399 . S
C242 C241 1.394 . S
C242 C243 1.516 . S
C243 C242 1.516 . S
C243 C244 1.502 . S
C243 C245 1.561 . S
C243 C246 1.526 . S
C244 H228 0.959 . S
C244 H229 0.959 . S
C244 H230 0.961 . S
C244 C243 1.502 . S
C245 H231 0.960 . S
C245 H232 0.961 . S
C245 H233 0.959 . S
C245 C243 1.561 . S
C246 C243 1.526 . S
C246 C247 1.396 . S
C246 C251 1.390 . S
C247 C241 1.465 . S
C247 C246 1.396 . S
C247 C248 1.399 . S
C248 H234 0.929 . S
C248 C247 1.399 . S
C248 C249 1.385 . S
C249 H235 0.931 . S
C249 C248 1.385 . S
C249 C250 1.389 . S
C250 C249 1.389 . S
C250 C251 1.387 . S
C251 H236 0.930 . S
C251 C246 1.390 . S
C251 C250 1.387 . S
H252 C264 0.930 . S
H253 C266 0.930 . S
H254 C267 0.930 . S
H255 C271 0.959 . S
H256 C271 0.959 . S
H257 C271 0.961 . S
H258 C272 0.960 . S
H259 C272 0.961 . S
H260 C272 0.959 . S
H261 C275 0.929 . S
H262 C276 0.931 . S
H263 C278 0.930 . S
C264 H252 0.930 . S
C264 C265 1.399 . S
C264 C269 1.399 . S
C265 C264 1.399 . S
C265 C266 1.376 . S
C266 H253 0.930 . S
C266 C265 1.376 . S
C266 C267 1.388 . S
C267 H254 0.930 . S
C267 C266 1.388 . S
C267 C268 1.390 . S
C268 C267 1.390 . S
C268 C269 1.394 . S
C268 C274 1.465 . S
C269 C264 1.399 . S
C269 C268 1.394 . S
C269 C270 1.516 . S
C270 C269 1.516 . S
C270 C271 1.502 . S
C270 C272 1.561 . S
C270 C273 1.526 . S
C271 H255 0.959 . S
C271 H256 0.959 . S
C271 H257 0.961 . S
C271 C270 1.502 . S
C272 H258 0.960 . S
C272 H259 0.961 . S
C272 H260 0.959 . S
C272 C270 1.561 . S
C273 C270 1.526 . S
C273 C274 1.396 . S
C273 C278 1.390 . S
C274 C268 1.465 . S
C274 C273 1.396 . S
C274 C275 1.399 . S
C275 H261 0.929 . S
C275 C274 1.399 . S
C275 C276 1.385 . S
C276 H262 0.931 . S
C276 C275 1.385 . S
C276 C277 1.389 . S
C277 C276 1.389 . S
C277 C278 1.387 . S
C278 H263 0.930 . S
C278 C273 1.390 . S
C278 C277 1.387 . S
C76 C10 1.123 . S
C88 C54 1.215 . S
C103 C0 1.515 . S
C115 C58 1.525 . S
C130 C18 1.450 . S
C142 C48 1.543 . S
C157 C27 1.608 . S
C169 C53 1.551 . S
C184 C24 1.529 . S
C196 C39 1.534 . S
C223 C55 1.534 . S
C211 C11 1.496 . S
C238 C1 1.621 . S
C250 C61 1.548 . S
C277 C62 1.213 . S
C265 C2 1.152 . S
