# Generated by pormake.
# Topology gar, (4,6)-cn, num edge types: 1
# Building blocks:
#     Node 0, Type 0, BuildingBlock: AZAVOO_clean_sbu_0, # of connection points: 4
#     Node 1, Type 0, BuildingBlock: AZAVOO_clean_sbu_0, # of connection points: 4
#     Node 2, Type 0, BuildingBlock: AZAVOO_clean_sbu_0, # of connection points: 4
#     Node 3, Type 0, BuildingBlock: AZAVOO_clean_sbu_0, # of connection points: 4
#     Node 4, Type 0, BuildingBlock: AZAVOO_clean_sbu_0, # of connection points: 4
#     Node 5, Type 0, BuildingBlock: AZAVOO_clean_sbu_0, # of connection points: 4
#     Node 6, Type 0, BuildingBlock: AZAVOO_clean_sbu_0, # of connection points: 4
#     Node 7, Type 0, BuildingBlock: AZAVOO_clean_sbu_0, # of connection points: 4
#     Node 8, Type 0, BuildingBlock: AZAVOO_clean_sbu_0, # of connection points: 4
#     Node 9, Type 0, BuildingBlock: AZAVOO_clean_sbu_0, # of connection points: 4
#     Node 10, Type 0, BuildingBlock: AZAVOO_clean_sbu_0, # of connection points: 4
#     Node 11, Type 0, BuildingBlock: AZAVOO_clean_sbu_0, # of connection points: 4
#     Node 12, Type 0, BuildingBlock: AZAVOO_clean_sbu_0, # of connection points: 4
#     Node 13, Type 0, BuildingBlock: AZAVOO_clean_sbu_0, # of connection points: 4
#     Node 14, Type 0, BuildingBlock: AZAVOO_clean_sbu_0, # of connection points: 4
#     Node 15, Type 0, BuildingBlock: AZAVOO_clean_sbu_0, # of connection points: 4
#     Node 16, Type 0, BuildingBlock: AZAVOO_clean_sbu_0, # of connection points: 4
#     Node 17, Type 0, BuildingBlock: AZAVOO_clean_sbu_0, # of connection points: 4
#     Node 18, Type 0, BuildingBlock: AZAVOO_clean_sbu_0, # of connection points: 4
#     Node 19, Type 0, BuildingBlock: AZAVOO_clean_sbu_0, # of connection points: 4
#     Node 20, Type 0, BuildingBlock: AZAVOO_clean_sbu_0, # of connection points: 4
#     Node 21, Type 0, BuildingBlock: AZAVOO_clean_sbu_0, # of connection points: 4
#     Node 22, Type 0, BuildingBlock: AZAVOO_clean_sbu_0, # of connection points: 4
#     Node 23, Type 0, BuildingBlock: AZAVOO_clean_sbu_0, # of connection points: 4
#     Node 24, Type 1, BuildingBlock: BETDIP_clean_sbu_0, # of connection points: 6
#     Node 25, Type 1, BuildingBlock: BETDIP_clean_sbu_0, # of connection points: 6
#     Node 26, Type 1, BuildingBlock: BETDIP_clean_sbu_0, # of connection points: 6
#     Node 27, Type 1, BuildingBlock: BETDIP_clean_sbu_0, # of connection points: 6
#     Node 28, Type 1, BuildingBlock: BETDIP_clean_sbu_0, # of connection points: 6
#     Node 29, Type 1, BuildingBlock: BETDIP_clean_sbu_0, # of connection points: 6
#     Node 30, Type 1, BuildingBlock: BETDIP_clean_sbu_0, # of connection points: 6
#     Node 31, Type 1, BuildingBlock: BETDIP_clean_sbu_0, # of connection points: 6
#     Node 32, Type 1, BuildingBlock: BETDIP_clean_sbu_0, # of connection points: 6
#     Node 33, Type 1, BuildingBlock: BETDIP_clean_sbu_0, # of connection points: 6
#     Node 34, Type 1, BuildingBlock: BETDIP_clean_sbu_0, # of connection points: 6
#     Node 35, Type 1, BuildingBlock: BETDIP_clean_sbu_0, # of connection points: 6
#     Node 36, Type 1, BuildingBlock: BETDIP_clean_sbu_0, # of connection points: 6
#     Node 37, Type 1, BuildingBlock: BETDIP_clean_sbu_0, # of connection points: 6
#     Node 38, Type 1, BuildingBlock: BETDIP_clean_sbu_0, # of connection points: 6
#     Node 39, Type 1, BuildingBlock: BETDIP_clean_sbu_0, # of connection points: 6
#     Edge 40, Type (0, 1), BuildingBlock: AJUNOK_clean_linker_0, # of connection points: 2
#     Edge 41, Type (0, 1), BuildingBlock: AJUNOK_clean_linker_0, # of connection points: 2
#     Edge 42, Type (0, 1), BuildingBlock: AJUNOK_clean_linker_0, # of connection points: 2
#     Edge 43, Type (0, 1), BuildingBlock: AJUNOK_clean_linker_0, # of connection points: 2
#     Edge 44, Type (0, 1), BuildingBlock: AJUNOK_clean_linker_0, # of connection points: 2
#     Edge 45, Type (0, 1), BuildingBlock: AJUNOK_clean_linker_0, # of connection points: 2
#     Edge 46, Type (0, 1), BuildingBlock: AJUNOK_clean_linker_0, # of connection points: 2
#     Edge 47, Type (0, 1), BuildingBlock: AJUNOK_clean_linker_0, # of connection points: 2
#     Edge 48, Type (0, 1), BuildingBlock: AJUNOK_clean_linker_0, # of connection points: 2
#     Edge 49, Type (0, 1), BuildingBlock: AJUNOK_clean_linker_0, # of connection points: 2
#     Edge 50, Type (0, 1), BuildingBlock: AJUNOK_clean_linker_0, # of connection points: 2
#     Edge 51, Type (0, 1), BuildingBlock: AJUNOK_clean_linker_0, # of connection points: 2
#     Edge 52, Type (0, 1), BuildingBlock: AJUNOK_clean_linker_0, # of connection points: 2
#     Edge 53, Type (0, 1), BuildingBlock: AJUNOK_clean_linker_0, # of connection points: 2
#     Edge 54, Type (0, 1), BuildingBlock: AJUNOK_clean_linker_0, # of connection points: 2
#     Edge 55, Type (0, 1), BuildingBlock: AJUNOK_clean_linker_0, # of connection points: 2
#     Edge 56, Type (0, 1), BuildingBlock: AJUNOK_clean_linker_0, # of connection points: 2
#     Edge 57, Type (0, 1), BuildingBlock: AJUNOK_clean_linker_0, # of connection points: 2
#     Edge 58, Type (0, 1), BuildingBlock: AJUNOK_clean_linker_0, # of connection points: 2
#     Edge 59, Type (0, 1), BuildingBlock: AJUNOK_clean_linker_0, # of connection points: 2
#     Edge 60, Type (0, 1), BuildingBlock: AJUNOK_clean_linker_0, # of connection points: 2
#     Edge 61, Type (0, 1), BuildingBlock: AJUNOK_clean_linker_0, # of connection points: 2
#     Edge 62, Type (0, 1), BuildingBlock: AJUNOK_clean_linker_0, # of connection points: 2
#     Edge 63, Type (0, 1), BuildingBlock: AJUNOK_clean_linker_0, # of connection points: 2
#     Edge 64, Type (0, 1), BuildingBlock: AJUNOK_clean_linker_0, # of connection points: 2
#     Edge 65, Type (0, 1), BuildingBlock: AJUNOK_clean_linker_0, # of connection points: 2
#     Edge 66, Type (0, 1), BuildingBlock: AJUNOK_clean_linker_0, # of connection points: 2
#     Edge 67, Type (0, 1), BuildingBlock: AJUNOK_clean_linker_0, # of connection points: 2
#     Edge 68, Type (0, 1), BuildingBlock: AJUNOK_clean_linker_0, # of connection points: 2
#     Edge 69, Type (0, 1), BuildingBlock: AJUNOK_clean_linker_0, # of connection points: 2
#     Edge 70, Type (0, 1), BuildingBlock: AJUNOK_clean_linker_0, # of connection points: 2
#     Edge 71, Type (0, 1), BuildingBlock: AJUNOK_clean_linker_0, # of connection points: 2
#     Edge 72, Type (0, 1), BuildingBlock: AJUNOK_clean_linker_0, # of connection points: 2
#     Edge 73, Type (0, 1), BuildingBlock: AJUNOK_clean_linker_0, # of connection points: 2
#     Edge 74, Type (0, 1), BuildingBlock: AJUNOK_clean_linker_0, # of connection points: 2
#     Edge 75, Type (0, 1), BuildingBlock: AJUNOK_clean_linker_0, # of connection points: 2
#     Edge 76, Type (0, 1), BuildingBlock: AJUNOK_clean_linker_0, # of connection points: 2
#     Edge 77, Type (0, 1), BuildingBlock: AJUNOK_clean_linker_0, # of connection points: 2
#     Edge 78, Type (0, 1), BuildingBlock: AJUNOK_clean_linker_0, # of connection points: 2
#     Edge 79, Type (0, 1), BuildingBlock: AJUNOK_clean_linker_0, # of connection points: 2
#     Edge 80, Type (0, 1), BuildingBlock: AJUNOK_clean_linker_0, # of connection points: 2
#     Edge 81, Type (0, 1), BuildingBlock: AJUNOK_clean_linker_0, # of connection points: 2
#     Edge 82, Type (0, 1), BuildingBlock: AJUNOK_clean_linker_0, # of connection points: 2
#     Edge 83, Type (0, 1), BuildingBlock: AJUNOK_clean_linker_0, # of connection points: 2
#     Edge 84, Type (0, 1), BuildingBlock: AJUNOK_clean_linker_0, # of connection points: 2
#     Edge 85, Type (0, 1), BuildingBlock: AJUNOK_clean_linker_0, # of connection points: 2
#     Edge 86, Type (0, 1), BuildingBlock: AJUNOK_clean_linker_0, # of connection points: 2
#     Edge 87, Type (0, 1), BuildingBlock: AJUNOK_clean_linker_0, # of connection points: 2
#     Edge 88, Type (0, 1), BuildingBlock: AJUNOK_clean_linker_0, # of connection points: 2
#     Edge 89, Type (0, 1), BuildingBlock: AJUNOK_clean_linker_0, # of connection points: 2
#     Edge 90, Type (0, 1), BuildingBlock: AJUNOK_clean_linker_0, # of connection points: 2
#     Edge 91, Type (0, 1), BuildingBlock: AJUNOK_clean_linker_0, # of connection points: 2
#     Edge 92, Type (0, 1), BuildingBlock: AJUNOK_clean_linker_0, # of connection points: 2
#     Edge 93, Type (0, 1), BuildingBlock: AJUNOK_clean_linker_0, # of connection points: 2
#     Edge 94, Type (0, 1), BuildingBlock: AJUNOK_clean_linker_0, # of connection points: 2
#     Edge 95, Type (0, 1), BuildingBlock: AJUNOK_clean_linker_0, # of connection points: 2
#     Edge 96, Type (0, 1), BuildingBlock: AJUNOK_clean_linker_0, # of connection points: 2
#     Edge 97, Type (0, 1), BuildingBlock: AJUNOK_clean_linker_0, # of connection points: 2
#     Edge 98, Type (0, 1), BuildingBlock: AJUNOK_clean_linker_0, # of connection points: 2
#     Edge 99, Type (0, 1), BuildingBlock: AJUNOK_clean_linker_0, # of connection points: 2
#     Edge 100, Type (0, 1), BuildingBlock: AJUNOK_clean_linker_0, # of connection points: 2
#     Edge 101, Type (0, 1), BuildingBlock: AJUNOK_clean_linker_0, # of connection points: 2
#     Edge 102, Type (0, 1), BuildingBlock: AJUNOK_clean_linker_0, # of connection points: 2
#     Edge 103, Type (0, 1), BuildingBlock: AJUNOK_clean_linker_0, # of connection points: 2
#     Edge 104, Type (0, 1), BuildingBlock: AJUNOK_clean_linker_0, # of connection points: 2
#     Edge 105, Type (0, 1), BuildingBlock: AJUNOK_clean_linker_0, # of connection points: 2
#     Edge 106, Type (0, 1), BuildingBlock: AJUNOK_clean_linker_0, # of connection points: 2
#     Edge 107, Type (0, 1), BuildingBlock: AJUNOK_clean_linker_0, # of connection points: 2
#     Edge 108, Type (0, 1), BuildingBlock: AJUNOK_clean_linker_0, # of connection points: 2
#     Edge 109, Type (0, 1), BuildingBlock: AJUNOK_clean_linker_0, # of connection points: 2
#     Edge 110, Type (0, 1), BuildingBlock: AJUNOK_clean_linker_0, # of connection points: 2
#     Edge 111, Type (0, 1), BuildingBlock: AJUNOK_clean_linker_0, # of connection points: 2
#     Edge 112, Type (0, 1), BuildingBlock: AJUNOK_clean_linker_0, # of connection points: 2
#     Edge 113, Type (0, 1), BuildingBlock: AJUNOK_clean_linker_0, # of connection points: 2
#     Edge 114, Type (0, 1), BuildingBlock: AJUNOK_clean_linker_0, # of connection points: 2
#     Edge 115, Type (0, 1), BuildingBlock: AJUNOK_clean_linker_0, # of connection points: 2
#     Edge 116, Type (0, 1), BuildingBlock: AJUNOK_clean_linker_0, # of connection points: 2
#     Edge 117, Type (0, 1), BuildingBlock: AJUNOK_clean_linker_0, # of connection points: 2
#     Edge 118, Type (0, 1), BuildingBlock: AJUNOK_clean_linker_0, # of connection points: 2
#     Edge 119, Type (0, 1), BuildingBlock: AJUNOK_clean_linker_0, # of connection points: 2
#     Edge 120, Type (0, 1), BuildingBlock: AJUNOK_clean_linker_0, # of connection points: 2
#     Edge 121, Type (0, 1), BuildingBlock: AJUNOK_clean_linker_0, # of connection points: 2
#     Edge 122, Type (0, 1), BuildingBlock: AJUNOK_clean_linker_0, # of connection points: 2
#     Edge 123, Type (0, 1), BuildingBlock: AJUNOK_clean_linker_0, # of connection points: 2
#     Edge 124, Type (0, 1), BuildingBlock: AJUNOK_clean_linker_0, # of connection points: 2
#     Edge 125, Type (0, 1), BuildingBlock: AJUNOK_clean_linker_0, # of connection points: 2
#     Edge 126, Type (0, 1), BuildingBlock: AJUNOK_clean_linker_0, # of connection points: 2
#     Edge 127, Type (0, 1), BuildingBlock: AJUNOK_clean_linker_0, # of connection points: 2
#     Edge 128, Type (0, 1), BuildingBlock: AJUNOK_clean_linker_0, # of connection points: 2
#     Edge 129, Type (0, 1), BuildingBlock: AJUNOK_clean_linker_0, # of connection points: 2
#     Edge 130, Type (0, 1), BuildingBlock: AJUNOK_clean_linker_0, # of connection points: 2
#     Edge 131, Type (0, 1), BuildingBlock: AJUNOK_clean_linker_0, # of connection points: 2
#     Edge 132, Type (0, 1), BuildingBlock: AJUNOK_clean_linker_0, # of connection points: 2
#     Edge 133, Type (0, 1), BuildingBlock: AJUNOK_clean_linker_0, # of connection points: 2
#     Edge 134, Type (0, 1), BuildingBlock: AJUNOK_clean_linker_0, # of connection points: 2
#     Edge 135, Type (0, 1), BuildingBlock: AJUNOK_clean_linker_0, # of connection points: 2
# Relax obj value: 0.276
# Max RMSD: 0.383
# Mean RMSD: 0.204
data_MOF--net-gar--node1-AZAVOO_clean_sbu_0--node2-BETDIP_clean_sbu_0--edge1-AJUNOK_clean_linker_0
_symmetry_space_group_name_H-M    P1
_symmetry_Int_Tables_number       1
_symmetry_cell_setting            triclinic
loop_
_symmetry_equiv_pos_as_xyz
'x, y, z'
_cell_length_a     49.501122
_cell_length_b     40.892856
_cell_length_c     39.929607
_cell_angle_alpha  101.00499
_cell_angle_beta   99.654425
_cell_angle_gamma 103.04891
loop_
_atom_site_label
_atom_site_type_symbol
_atom_site_fract_x
_atom_site_fract_y
_atom_site_fract_z
_atom_type_partial_charge
Mg0 Mg 1.02949 0.34216 0.40782 0.0
O1 O 0.03961 0.38806 0.45527 0.0
O2 O 1.00013 0.38435 0.4765 0.0
Mg3 Mg 0.96482 0.3385 0.442 0.0
C4 C 1.02619 0.39883 0.47798 0.0
C5 C 0.07734 0.3445 0.37197 0.0
O6 O 0.05474 0.34162 0.34792 0.0
O7 O 0.03231 0.30834 0.44618 0.0
O8 O 0.99146 0.30586 0.46379 0.0
O9 O 1.01258 0.37145 0.37076 0.0
O10 O 0.98831 0.34051 0.40125 0.0
C11 C 1.01483 0.29754 0.46439 0.0
C12 C 0.98899 0.36011 0.37987 0.0
O13 O 0.07508 0.34822 0.40364 0.0
Mg14 Mg 0.08596 0.79316 0.80207 0.0
O15 O 0.07073 0.74273 0.76036 0.0
O16 O 1.02763 0.73922 0.72937 0.0
Mg17 Mg 1.01177 0.78231 0.75852 0.0
C18 C 0.04995 0.7285 0.73411 0.0
C19 C 0.1476 0.82013 0.80082 0.0
O20 O 0.13842 0.84803 0.80618 0.0
O21 O 0.08791 0.8185 0.75756 0.0
O22 O 0.04267 0.81445 0.7333 0.0
O23 O 0.06966 0.7716 0.84538 0.0
O24 O 0.04511 0.79076 0.80578 0.0
C25 C 0.06934 0.82395 0.73484 0.0
C26 C 0.04611 0.7782 0.83284 0.0
O27 O 0.13159 0.79171 0.80258 0.0
Mg28 Mg 0.52214 0.83606 0.90364 0.0
O29 O 0.52929 0.88226 0.9496 0.0
O30 O 0.48849 0.87855 0.96787 0.0
Mg31 Mg 0.45519 0.83113 0.93271 0.0
C32 C 0.51465 0.89342 0.97051 0.0
C33 C 0.57068 0.82724 0.87438 0.0
O34 O 0.57143 0.84522 0.90561 0.0
O35 O 0.52365 0.80371 0.94313 0.0
O36 O 0.48198 0.80081 0.95874 0.0
O37 O 0.5072 0.86481 0.86525 0.0
O38 O 0.48079 0.83345 0.89378 0.0
C39 C 0.50582 0.79342 0.96109 0.0
C40 C 0.48299 0.85393 0.87322 0.0
O41 O 0.57009 0.84432 0.90426 0.0
Mg42 Mg 0.58147 0.28689 0.3052 0.0
O43 O 0.57197 0.23519 0.26618 0.0
O44 O 0.52836 0.22712 0.23389 0.0
Mg45 Mg 0.50608 0.26324 0.26263 0.0
C46 C 0.55221 0.21977 0.2391 0.0
C47 C 0.64231 0.32437 0.30857 0.0
O48 O 0.62957 0.34936 0.3111 0.0
O49 O 0.57854 0.31028 0.25891 0.0
O50 O 0.53194 0.30121 0.2372 0.0
O51 O 0.56995 0.2659 0.35065 0.0
O52 O 0.54052 0.27752 0.30949 0.0
C53 C 0.55803 0.31386 0.23728 0.0
C54 C 0.5446 0.26792 0.33823 0.0
O55 O 0.62828 0.29406 0.30791 0.0
Mg56 Mg 0.11434 0.86402 0.2275 0.0
O57 O 0.10459 0.81085 0.1887 0.0
O58 O 0.06073 0.80034 0.15672 0.0
Mg59 Mg 0.04205 0.84549 0.17409 0.0
C60 C 0.08356 0.79128 0.16482 0.0
C61 C 0.16896 0.83872 0.24904 0.0
O62 O 0.14887 0.81014 0.24469 0.0
O63 O 0.12038 0.89519 0.18517 0.0
O64 O 0.07504 0.88438 0.15736 0.0
O65 O 0.09487 0.83891 0.26649 0.0
O66 O 0.07051 0.85718 0.22592 0.0
C67 C 0.1013 0.90005 0.16212 0.0
C68 C 0.07067 0.84205 0.25136 0.0
O69 O 0.16184 0.86531 0.24245 0.0
Mg70 Mg 0.51574 0.78924 0.47977 0.0
O71 O 0.53002 0.84069 0.52075 0.0
O72 O 0.49897 0.84013 0.55525 0.0
Mg73 Mg 0.46556 0.78753 0.53727 0.0
C74 C 0.52103 0.8555 0.5461 0.0
C75 C 0.57155 0.77831 0.45404 0.0
O76 O 0.55854 0.74579 0.45112 0.0
O77 O 0.53102 0.75948 0.51904 0.0
O78 O 0.4982 0.75636 0.55115 0.0
O79 O 0.48938 0.81368 0.44679 0.0
O80 O 0.47254 0.78487 0.48348 0.0
C81 C 0.52041 0.74873 0.54324 0.0
C82 C 0.46872 0.80406 0.46184 0.0
O83 O 0.55965 0.8015 0.46523 0.0
Mg84 Mg 0.6144 0.36549 0.73221 0.0
O85 O 0.60699 0.31243 0.6938 0.0
O86 O 0.56374 0.30081 0.65986 0.0
Mg87 Mg 0.54305 0.34444 0.67569 0.0
C88 C 0.58669 0.29241 0.66919 0.0
C89 C 0.67847 0.35149 0.74126 0.0
O90 O 0.66927 0.32804 0.71156 0.0
O91 O 0.62101 0.39788 0.6909 0.0
O92 O 0.57596 0.38575 0.66128 0.0
O93 O 0.59358 0.33869 0.76909 0.0
O94 O 0.57025 0.35752 0.72835 0.0
C95 C 0.60207 0.40264 0.66752 0.0
C96 C 0.5696 0.34188 0.75335 0.0
O97 O 0.66209 0.36917 0.75205 0.0
Mg98 Mg 1.01543 0.28552 0.97969 0.0
O99 O 0.03078 0.3375 0.02024 0.0
O100 O 0.9996 0.33858 0.05438 0.0
Mg101 Mg 0.96548 0.28659 0.0369 0.0
C102 C 1.02192 0.35318 0.04521 0.0
C103 C 0.06383 0.30303 0.93828 0.0
O104 O 0.04199 0.30549 0.91607 0.0
O105 O 1.02886 0.25486 0.01877 0.0
O106 O 0.99694 0.25408 0.05202 0.0
O107 O 0.99071 0.31093 0.94625 0.0
O108 O 0.97229 0.2828 0.98264 0.0
C109 C 1.0184 0.24497 0.04344 0.0
C110 C 0.96966 0.30231 0.96099 0.0
O111 O 0.05982 0.29516 0.96672 0.0
Mg112 Mg 0.45411 0.10645 0.34667 0.0
O113 O 0.41794 0.05253 0.34108 0.0
O114 O 0.40148 0.06285 0.38974 0.0
Mg115 Mg 0.42418 0.11714 0.42601 0.0
C116 C 0.40145 0.04231 0.36117 0.0
C117 C 0.48926 0.09057 0.28222 0.0
O118 O 0.50841 0.09654 0.31132 0.0
O119 O 0.4215 0.14556 0.33838 0.0
O120 O 0.40795 0.1509 0.38913 0.0
O121 O 0.4867 0.08435 0.37833 0.0
O122 O 0.46296 0.11456 0.40545 0.0
C123 C 0.4079 0.15964 0.35993 0.0
C124 C 0.48123 0.09654 0.40794 0.0
O125 O 0.46391 0.09216 0.28579 0.0
Mg126 Mg 0.28681 0.20505 0.56153 0.0
O127 O 0.29463 0.24023 0.61709 0.0
O128 O 0.33913 0.27316 0.62974 0.0
Mg129 Mg 0.36004 0.25984 0.58387 0.0
C130 C 0.31537 0.26348 0.63819 0.0
C131 C 0.23156 0.17749 0.58564 0.0
O132 O 0.2513 0.17997 0.61316 0.0
O133 O 0.28399 0.24855 0.53305 0.0
O134 O 0.32997 0.27773 0.5454 0.0
O135 O 0.3039 0.16579 0.58398 0.0
O136 O 0.33013 0.20791 0.56697 0.0
C137 C 0.3042 0.27251 0.52946 0.0
C138 C 0.3286 0.18132 0.58001 0.0
O139 O 0.23905 0.18787 0.55965 0.0
Mg140 Mg 0.16539 0.10813 0.89169 0.0
O141 O 0.19373 0.16292 0.89714 0.0
O142 O 0.22397 0.17544 0.94878 0.0
Mg143 Mg 0.21105 0.1348 0.97957 0.0
C144 C 0.21577 0.18244 0.91952 0.0
C145 C 0.12685 0.08424 0.81747 0.0
O146 O 0.10855 0.07479 0.83642 0.0
O147 O 0.20339 0.08836 0.88704 0.0
O148 O 0.22913 0.0999 0.94187 0.0
O149 O 0.13079 0.12415 0.91453 0.0
O150 O 0.16871 0.115 0.94471 0.0
C151 C 0.22439 0.08632 0.90909 0.0
C152 C 0.14442 0.12129 0.94408 0.0
O153 O 0.15246 0.10001 0.83268 0.0
Mg154 Mg 0.2655 0.90594 0.03616 0.0
O155 O 0.23883 0.89209 0.97916 0.0
O156 O 0.24577 0.84249 0.98001 0.0
Mg157 Mg 0.29188 0.84303 0.98664 0.0
C158 C 0.23868 0.86258 0.96208 0.0
C159 C 0.23207 0.95745 0.04775 0.0
O160 O 0.24138 0.96195 0.01961 0.0
O161 O 0.24912 0.85404 0.04992 0.0
O162 O 0.28036 0.8251 0.03416 0.0
O163 O 0.29245 0.94881 0.02195 0.0
O164 O 0.30181 0.89799 0.01736 0.0
C165 C 0.26116 0.82948 0.05114 0.0
C166 C 0.3078 0.92876 1.01194 0.0
O167 O 0.23395 0.93072 0.05869 0.0
Mg168 Mg 0.37036 0.46585 0.14674 0.0
O169 O 0.35825 0.42426 0.0949 0.0
O170 O 0.39069 0.39444 0.09811 0.0
Mg171 Mg 0.42335 0.41718 0.15062 0.0
C172 C 0.36854 0.40022 0.08144 0.0
C173 C 0.31997 0.49833 0.15694 0.0
O174 O 0.33907 0.51484 0.18578 0.0
O175 O 0.35535 0.42646 0.17829 0.0
O176 O 0.39074 0.40113 0.18452 0.0
O177 O 0.39646 0.50159 0.12184 0.0
O178 O 0.41443 0.46809 0.15106 0.0
C179 C 0.36733 0.40576 0.19136 0.0
C180 C 0.4181 0.49025 0.13194 0.0
O181 O 0.32605 0.47546 0.13524 0.0
Mg182 Mg 0.88024 0.24166 0.13222 0.0
O183 O 0.89666 0.24312 0.18836 0.0
O184 O 0.93045 0.29092 0.20455 0.0
Mg185 Mg 0.95502 0.2781 0.16201 0.0
C186 C 0.90697 0.27308 0.20796 0.0
C187 C 0.81874 0.20687 0.11796 0.0
O188 O 0.82587 0.1959 0.08845 0.0
O189 O 0.88858 0.29941 0.14379 0.0
O190 O 0.93481 0.31969 0.14458 0.0
O191 O 0.8831 0.19019 0.12071 0.0
O192 O 0.91917 0.23605 0.12385 0.0
C193 C 0.9099 0.32399 0.14429 0.0
C194 C 0.9096 0.20314 0.1212 0.0
O195 O 0.83607 0.2318 0.14108 0.0
Mg196 Mg 0.18778 0.54999 0.3705 0.0
O197 O 0.21961 0.60537 0.37675 0.0
O198 O 0.25064 0.61838 0.42737 0.0
Mg199 Mg 0.23835 0.57163 0.45371 0.0
C200 C 0.24099 0.62656 0.39923 0.0
C201 C 0.14381 0.54725 0.29641 0.0
O202 O 0.12623 0.5412 0.31715 0.0
O203 O 0.22149 0.5133 0.36136 0.0
O204 O 0.24936 0.52697 0.41468 0.0
O205 O 0.1582 0.57467 0.40173 0.0
O206 O 0.19106 0.5561 0.42884 0.0
C207 C 0.24189 0.50817 0.38324 0.0
C208 C 0.17014 0.57001 0.43113 0.0
O209 O 0.17038 0.55083 0.30891 0.0
Mg210 Mg 0.87371 0.9676 0.64774 0.0
O211 O 0.85968 0.92689 0.59485 0.0
O212 O 0.8927 0.89781 0.59477 0.0
Mg213 Mg 0.92642 0.91818 0.64603 0.0
C214 C 0.86996 0.90359 0.57972 0.0
C215 C 0.81938 0.98666 0.61283 0.0
O216 O 0.83432 0.98821 0.58864 0.0
O217 O 0.8605 0.92745 0.67921 0.0
O218 O 0.89431 0.89942 0.67956 0.0
O219 O 0.89874 1.00383 0.62217 0.0
O220 O 0.91722 0.96916 0.64913 0.0
C221 C 0.87197 0.90485 0.68911 0.0
C222 C 0.92025 0.9916 0.63025 0.0
O223 O 0.82945 0.97807 0.64033 0.0
Mg224 Mg 0.97827 0.06173 0.32905 0.0
O225 O 0.94458 1.01171 0.32987 0.0
O226 O 0.93088 1.02582 0.38036 0.0
Mg227 Mg 0.95297 0.08144 0.41038 0.0
C228 C 0.92964 1.00421 0.35207 0.0
C229 C 0.98923 0.07219 0.26087 0.0
O230 O 0.98956 0.10172 0.28116 0.0
O231 O 0.94216 0.08598 0.31386 0.0
O232 O 0.93142 0.10116 0.36609 0.0
O233 O 1.01387 0.04748 0.36199 0.0
O234 O 0.98657 0.07813 0.38281 0.0
C235 C 0.92847 0.10078 0.33362 0.0
C236 C 1.00702 0.06429 0.38876 0.0
O237 O 0.98212 0.04491 0.27192 0.0
Mg238 Mg 0.4025 0.7327 0.64885 0.0
O239 O 0.42741 0.75085 0.70435 0.0
O240 O 0.45167 0.80191 0.70502 0.0
Mg241 Mg 0.47214 0.78211 0.66026 0.0
C242 C 0.4328 0.78311 0.71605 0.0
C243 C 0.34024 0.72902 0.65961 0.0
O244 O 0.34051 0.75261 0.6414 0.0
O245 O 0.40011 0.78629 0.64539 0.0
O246 O 0.44248 0.81113 0.63572 0.0
O247 O 0.41492 0.68638 0.64653 0.0
O248 O 0.43894 0.73187 0.63009 0.0
C249 C 0.41673 0.81075 0.63712 0.0
C250 C 0.43532 0.7001 0.63286 0.0
O251 O 0.36213 0.71843 0.66688 0.0
Mg252 Mg 0.47772 0.55659 0.82902 0.0
O253 O 0.44524 0.5059 0.83052 0.0
O254 O 0.43028 0.51947 0.88018 0.0
Mg255 Mg 0.44864 0.57645 0.90683 0.0
C256 C 0.43047 0.49777 0.85267 0.0
C257 C 0.48672 0.56483 0.76041 0.0
O258 O 0.48216 0.53564 0.77031 0.0
O259 O 0.44093 0.57772 0.80989 0.0
O260 O 0.42472 0.58939 0.85864 0.0
O261 O 0.51289 0.54419 0.86339 0.0
O262 O 0.48456 0.57428 0.88269 0.0
C263 C 0.42355 0.5888 0.82629 0.0
C264 C 0.50485 0.5602 0.88959 0.0
O265 O 0.48217 0.53734 0.77156 0.0
Mg266 Mg 0.68659 0.04802 0.87018 0.0
O267 O 0.71913 0.10373 0.87659 0.0
O268 O 0.74925 0.11502 0.92775 0.0
Mg269 Mg 0.73686 0.068 0.95352 0.0
C270 C 0.74033 0.12427 0.89999 0.0
C271 C 0.6571 0.0718 0.80025 0.0
O272 O 0.65844 0.098 0.82586 0.0
O273 O 0.71975 1.01038 0.86097 0.0
O274 O 0.74793 1.02376 0.91412 0.0
O275 O 0.65723 0.07284 0.90189 0.0
O276 O 0.68983 0.0534 0.9282 0.0
C277 C 0.7402 1.00507 0.88265 0.0
C278 C 0.66904 0.0674 0.93093 0.0
O279 O 0.6673 0.04728 0.80858 0.0
Mg280 Mg 0.78498 0.70227 0.06124 0.0
O281 O 0.79289 0.73981 0.11579 0.0
O282 O 0.83808 0.77067 0.12829 0.0
Mg283 Mg 0.85901 0.75469 0.083 0.0
C284 C 0.81405 0.76274 0.13662 0.0
C285 C 0.72902 0.6772 0.08477 0.0
O286 O 0.74832 0.68065 0.11306 0.0
O287 O 0.78324 0.7443 0.03017 0.0
O288 O 0.82955 0.77216 0.04345 0.0
O289 O 0.80118 0.66395 0.08676 0.0
O290 O 0.82807 0.70389 0.06774 0.0
C291 C 0.8041 0.76745 0.02663 0.0
C292 C 0.82607 0.67858 0.08269 0.0
O293 O 0.73704 0.68627 0.05848 0.0
Mg294 Mg 0.95457 0.60481 0.84559 0.0
O295 O 0.91819 0.55081 0.83978 0.0
O296 O 0.90124 0.56118 0.888 0.0
Mg297 Mg 0.92372 0.61568 0.924 0.0
C298 C 0.90149 0.54056 0.85963 0.0
C299 C 0.99091 0.59225 0.78199 0.0
O300 O 1.01061 0.60423 0.81106 0.0
O301 O 0.92255 0.64442 0.83729 0.0
O302 O 0.90716 0.64941 0.88698 0.0
O303 O 0.98674 0.58256 0.87719 0.0
O304 O 0.96304 0.61301 0.90426 0.0
C305 C 0.90816 0.6582 0.85795 0.0
C306 C 0.98121 0.59479 0.90675 0.0
O307 O 0.96485 0.58982 0.78515 0.0
Mg308 Mg 0.77105 0.40037 0.56722 0.0
O309 O 0.74602 0.38837 0.50932 0.0
O310 O 0.75512 0.3385 0.5037 0.0
Mg311 Mg 0.80189 0.33758 0.51275 0.0
C312 C 0.74766 0.36109 0.48921 0.0
C313 C 0.72469 0.44137 0.57527 0.0
O314 O 0.72118 0.43717 0.54125 0.0
O315 O 0.75142 0.3487 0.57992 0.0
O316 O 0.76112 0.32191 0.53294 0.0
O317 O 0.80002 0.44292 0.55453 0.0
O318 O 0.80715 0.39068 0.54691 0.0
C319 C 0.75772 0.32242 0.56397 0.0
C320 C 0.81431 0.42196 0.54319 0.0
O321 O 0.74108 0.42683 0.59116 0.0
Mg322 Mg 0.66701 0.62415 0.39919 0.0
O323 O 0.69349 0.68022 0.4053 0.0
O324 O 0.72622 0.69 0.45443 0.0
Mg325 Mg 0.71592 0.64918 0.48535 0.0
C326 C 0.71662 0.69853 0.42658 0.0
C327 C 0.64261 0.58873 0.32027 0.0
O328 O 0.64286 0.56113 0.33248 0.0
O329 O 0.70589 0.6073 0.39025 0.0
O330 O 0.73228 0.61669 0.4445 0.0
O331 O 0.63276 0.63516 0.42763 0.0
O332 O 0.67392 0.629 0.45153 0.0
C333 C 0.7274 0.60501 0.41139 0.0
C334 C 0.64924 0.63153 0.45476 0.0
O335 O 0.65081 0.61833 0.34145 0.0
Tb336 Tb 0.04957 0.05321 0.08005 0.0
Tb337 Tb 0.10068 0.1015 0.12818 0.0
C338 C 0.99921 1.02105 0.05203 0.0
C339 C 0.97496 1.03214 0.06192 0.0
C340 C 0.97645 0.04457 0.09769 0.0
C341 C 0.96444 0.07112 0.1085 0.0
C342 C 0.94963 0.08445 0.08364 0.0
C343 C 0.94356 0.0674 0.04805 0.0
C344 C 0.95658 0.0416 0.03713 0.0
C345 C 0.09291 0.06913 0.04964 0.0
C346 C 0.05603 0.13435 0.0947 0.0
C347 C 0.15123 0.13209 0.15821 0.0
C348 C 0.17646 0.11902 0.1553 0.0
C349 C 0.18887 0.12207 0.12649 0.0
C350 C 0.20435 0.09933 0.11516 0.0
C351 C 0.20863 0.07398 0.13321 0.0
C352 C 0.19988 0.07434 0.1649 0.0
C353 C 0.18392 0.0968 0.17597 0.0
C354 C 0.05603 0.08948 0.15642 0.0
C355 C 0.09444 1.01998 0.112 0.0
O356 O 1.01473 1.01147 0.07624 0.0
O357 O 1.01476 0.04255 0.0379 0.0
O358 O 0.08586 0.08862 0.07291 0.0
O359 O 0.07436 0.03937 0.04184 0.0
O360 O 0.03813 0.10313 0.08768 0.0
O361 O 0.08343 0.13954 0.10732 0.0
O362 O 0.13831 0.13786 0.1294 0.0
O363 O 0.1331 0.11561 0.17372 0.0
O364 O 0.06343 0.06756 0.13569 0.0
O365 O 0.07501 0.11888 0.16366 0.0
O366 O 0.11193 0.05153 0.12182 0.0
O367 O 0.06753 1.01463 0.09736 0.0
H368 H 0.98994 0.03715 0.1175 0.0
H369 H 0.969 0.08311 0.13619 0.0
H370 H 0.93058 0.07572 0.02846 0.0
H371 H 0.95483 1.03196 1.00941 0.0
H372 H 0.1842 0.13959 0.1105 0.0
H373 H 0.21065 0.09968 0.09051 0.0
H374 H 0.20361 0.05558 0.17971 0.0
H375 H 0.1753 0.0945 0.19888 0.0
Tb376 Tb 0.32555 0.81369 0.33405 0.0
Tb377 Tb 0.30947 0.85007 0.40248 0.0
C378 C 0.32118 0.78098 0.27274 0.0
C379 C 0.30476 0.77725 0.23761 0.0
C380 C 0.27613 0.77787 0.2317 0.0
C381 C 0.26154 0.77647 0.19816 0.0
C382 C 0.27549 0.77457 0.17027 0.0
C383 C 0.30384 0.77261 0.17622 0.0
C384 C 0.31829 0.77377 0.20963 0.0
C385 C 0.36532 0.81945 0.39038 0.0
C386 C 0.34219 0.89689 0.3573 0.0
C387 C 0.31105 0.88276 0.46282 0.0
C388 C 0.32136 0.88238 0.49914 0.0
C389 C 0.31537 0.8517 0.5105 0.0
C390 C 0.3297 0.85056 0.54311 0.0
C391 C 0.3504 0.87986 0.56435 0.0
C392 C 0.3546 0.91128 0.5543 0.0
C393 C 0.33993 0.91256 0.52182 0.0
C394 C 0.27107 0.84516 0.34477 0.0
C395 C 0.29254 0.76749 0.37978 0.0
O396 O 0.30685 0.76894 0.29449 0.0
O397 O 0.33968 0.81097 0.28719 0.0
O398 O 0.34244 0.82823 0.3889 0.0
O399 O 0.36658 0.8072 0.35855 0.0
O400 O 0.33797 0.86898 0.33129 0.0
O401 O 0.33508 0.89426 0.38756 0.0
O402 O 0.33107 0.89052 0.44565 0.0
O403 O 0.28933 0.85717 0.4443 0.0
O404 O 0.29321 0.83516 0.34789 0.0
O405 O 0.26953 0.85879 0.37605 0.0
O406 O 0.29864 0.7953 0.40634 0.0
O407 O 0.29823 0.77021 0.34881 0.0
H408 H 0.26533 0.78034 0.25307 0.0
H409 H 0.23977 0.77825 0.19427 0.0
H410 H 0.31547 0.77226 0.15553 0.0
H411 H 0.34037 0.7732 0.21384 0.0
H412 H 0.30108 0.82811 0.49346 0.0
H413 H 0.32649 0.82594 0.55032 0.0
H414 H 0.37065 0.934 0.57038 0.0
H415 H 0.34454 0.93651 0.5134 0.0
Tb416 Tb 0.59638 0.07912 0.58886 0.0
Tb417 Tb 0.53949 0.07308 0.61645 0.0
C418 C 0.64724 0.08189 0.58611 0.0
C419 C 0.66927 0.06326 0.59356 0.0
C420 C 0.69294 0.07845 0.62161 0.0
C421 C 0.7158 0.06356 0.62589 0.0
C422 C 0.71562 1.03342 0.60195 0.0
C423 C 0.69145 1.0174 0.57483 0.0
C424 C 0.66857 1.03215 0.57062 0.0
C425 C 0.55356 0.08318 0.53821 0.0
C426 C 0.55652 1.00524 0.58737 0.0
C427 C 0.48917 0.06877 0.62194 0.0
C428 C 0.46651 0.0861 0.61511 0.0
C429 C 0.45787 0.093 0.58244 0.0
C430 C 0.43606 0.10933 0.57716 0.0
C431 C 0.42283 0.11935 0.60455 0.0
C432 C 0.43156 0.11231 0.6371 0.0
C433 C 0.45314 0.09579 0.64227 0.0
C434 C 0.58296 0.06904 0.66605 0.0
C435 C 0.57888 0.14671 0.61905 0.0
O436 O 0.6399 0.09926 0.61274 0.0
O437 O 0.62546 0.06596 0.56001 0.0
O438 O 0.55311 0.07994 0.5693 0.0
O439 O 0.57948 0.08429 0.53562 0.0
O440 O 0.58191 1.02363 0.58587 0.0
O441 O 0.53599 1.01917 0.59498 0.0
O442 O 0.49596 0.05106 0.59498 0.0
O443 O 0.51139 0.08685 0.64661 0.0
O444 O 0.58232 0.07222 0.635 0.0
O445 O 0.55753 0.06874 0.6701 0.0
O446 O 0.55294 0.12778 0.61739 0.0
O447 O 0.60003 0.13324 0.61262 0.0
H448 H 0.69425 0.10254 0.63953 0.0
H449 H 0.73417 0.07647 0.64702 0.0
H450 H 0.69054 0.99383 0.55633 0.0
H451 H 0.65076 1.01966 0.54867 0.0
H452 H 0.46782 0.0857 0.56102 0.0
H453 H 0.42933 0.11371 0.55154 0.0
H454 H 0.42183 0.11982 0.65868 0.0
H455 H 0.45948 0.09064 0.66765 0.0
Tb456 Tb 0.29625 0.33359 0.85386 0.0
Tb457 Tb 0.35073 0.31071 0.86331 0.0
C458 C 0.24714 0.34141 0.85342 0.0
C459 C 0.2242 0.33831 0.87296 0.0
C460 C 0.21613 0.31001 0.88774 0.0
C461 C 0.19158 0.30523 0.90139 0.0
C462 C 0.17475 0.32874 0.90062 0.0
C463 C 0.18361 0.35772 0.8871 0.0
C464 C 0.20804 0.36242 0.87343 0.0
C465 C 0.34128 0.37681 0.84439 0.0
C466 C 0.33407 0.34344 0.93074 0.0
C467 C 0.39871 0.30033 0.86171 0.0
C468 C 0.42011 0.30315 0.83989 0.0
C469 C 0.43068 0.33397 0.83005 0.0
C470 C 0.45334 0.33725 0.81305 0.0
C471 C 0.46586 0.3098 0.80551 0.0
C472 C 0.45426 0.27844 0.8138 0.0
C473 C 0.43173 0.27525 0.831 0.0
C474 C 0.3061 0.26868 0.87482 0.0
C475 C 0.31558 0.30433 0.78668 0.0
O476 O 0.25224 0.31266 0.83862 0.0
O477 O 0.27042 0.36646 0.86697 0.0
O478 O 0.34077 0.35896 0.86675 0.0
O479 O 0.31539 0.37331 0.82837 0.0
O480 O 0.30851 0.34001 0.91128 0.0
O481 O 0.35542 0.33782 0.9167 0.0
O482 O 0.39496 0.3293 0.87835 0.0
O483 O 0.37477 0.27619 0.84872 0.0
O484 O 0.30615 0.2855 0.85152 0.0
O485 O 0.3321 0.27279 0.89068 0.0
O486 O 0.3406 0.30851 0.80733 0.0
O487 O 0.29327 0.30853 0.79944 0.0
H488 H 0.22821 0.291 0.88765 0.0
H489 H 0.18514 0.28239 0.91117 0.0
H490 H 0.17124 0.3764 0.88638 0.0
H491 H 0.21378 0.38434 0.86205 0.0
H492 H 0.42203 0.3559 0.83636 0.0
H493 H 0.46177 0.36172 0.80695 0.0
H494 H 0.4629 0.25653 0.8075 0.0
H495 H 0.42384 0.25118 0.83816 0.0
Tb496 Tb 0.0786 0.10708 0.61422 0.0
Tb497 Tb 0.08227 1.033 0.58596 0.0
C498 C 0.09174 0.17143 0.6297 0.0
C499 C 0.0776 0.19466 0.6151 0.0
C500 C 0.09359 0.22709 0.61379 0.0
C501 C 0.08181 0.24564 0.59216 0.0
C502 C 0.05404 0.23171 0.57171 0.0
C503 C 0.03757 0.20015 0.57479 0.0
C504 C 0.0493 0.1817 0.59634 0.0
C505 C 1.02908 0.06255 0.60958 0.0
C506 C 0.05515 0.06952 0.53328 0.0
C507 C 0.08299 0.9711 0.57127 0.0
C508 C 0.0844 0.94601 0.59225 0.0
C509 C 0.07643 0.95131 0.62444 0.0
C510 C 0.08043 0.9296 0.64638 0.0
C511 C 0.09214 0.90214 0.63623 0.0
C512 C 0.09993 0.89649 0.60388 0.0
C513 C 0.09628 0.9187 0.58199 0.0
C514 C 0.12332 0.08462 0.58162 0.0
C515 C 0.09654 0.06581 0.66807 0.0
O516 O 0.10229 0.15328 0.60702 0.0
O517 O 0.0776 0.15272 0.64762 0.0
O518 O 0.05143 0.05634 0.60221 0.0
O519 O 0.03391 0.09584 0.61893 0.0
O520 O 0.06532 0.09924 0.5573 0.0
O521 O 0.05586 0.03946 0.54039 0.0
O522 O 0.05944 0.98104 0.56754 0.0
O523 O 0.1059 0.99695 0.57943 0.0
O524 O 0.11146 0.08276 0.60689 0.0
O525 O 0.11264 0.05637 0.55752 0.0
O526 O 0.08964 0.03727 0.64268 0.0
O527 O 0.09693 0.09659 0.66247 0.0
H528 H 0.11561 0.23704 0.62776 0.0
H529 H 0.09477 0.27007 0.59018 0.0
H530 H 1.0163 0.18861 0.55881 0.0
H531 H 0.03691 0.15625 0.59644 0.0
H532 H 0.06716 0.97224 0.63267 0.0
H533 H 0.07372 0.93372 0.67099 0.0
H534 H 0.10866 0.87502 0.59568 0.0
H535 H 0.10284 0.91477 0.5573 0.0
Tb536 Tb 0.30601 0.79813 0.79805 0.0
Tb537 Tb 0.32171 0.87233 0.7968 0.0
C538 C 0.29396 0.73334 0.78035 0.0
C539 C 0.31123 0.70869 0.77652 0.0
C540 C 0.34094 0.72062 0.7837 0.0
C541 C 0.35758 0.69729 0.78292 0.0
C542 C 0.34474 0.66164 0.77545 0.0
C543 C 0.31491 0.64967 0.76718 0.0
C544 C 0.29825 0.6731 0.76765 0.0
C545 C 0.29817 0.83857 0.85356 0.0
C546 C 0.36671 0.84288 0.83687 0.0
C547 C 0.33889 0.93711 0.81068 0.0
C548 C 0.32849 0.96646 0.82541 0.0
C549 C 0.33376 0.97936 0.86182 0.0
C550 C 0.32008 1.00326 0.87573 0.0
C551 C 0.30104 1.0145 0.85343 0.0
C552 C 0.29847 1.0048 0.81714 0.0
C553 C 0.31203 0.98084 0.8032 0.0
C554 C 0.33551 0.82974 0.74613 0.0
C555 C 0.25787 0.83094 0.76715 0.0
O556 O 0.29437 0.75297 0.758 0.0
O557 O 0.29683 0.75086 0.81241 0.0
O558 O 0.29399 0.84261 0.82278 0.0
O559 O 0.30618 0.81045 0.85314 0.0
O560 O 0.35171 0.81188 0.81786 0.0
O561 O 0.35594 0.86958 0.83768 0.0
O562 O 0.3458 0.91834 0.83215 0.0
O563 O 0.3246 0.9181 0.77981 0.0
O564 O 0.33509 0.8286 0.77677 0.0
O565 O 0.32921 0.85819 0.74318 0.0
O566 O 0.27561 0.86185 0.78194 0.0
O567 O 0.26736 0.80301 0.76533 0.0
H568 H 0.35136 0.748 0.79127 0.0
H569 H 0.3805 0.70727 0.7903 0.0
H570 H 0.30458 0.62228 0.76164 0.0
H571 H 0.27533 0.6635 0.76222 0.0
H572 H 0.34718 0.96963 0.87963 0.0
H573 H 0.32281 1.01099 0.90383 0.0
H574 H 0.28476 1.01435 0.7995 0.0
H575 H 0.30853 0.9724 0.77503 0.0
Tb576 Tb 0.55069 0.0756 0.07691 0.0
Tb577 Tb 0.59955 0.06823 0.12957 0.0
C578 C 0.50648 0.05637 0.02901 0.0
C579 C 0.47586 0.04105 0.02226 0.0
C580 C 0.46079 1.02713 0.98746 0.0
C581 C 0.43252 1.00765 0.98006 0.0
C582 C 0.41928 1.0017 1.00748 0.0
C583 C 0.43411 1.01632 0.04229 0.0
C584 C 0.46235 0.03591 0.04969 0.0
C585 C 0.57907 0.13363 0.1234 0.0
C586 C 0.54043 0.06602 0.15472 0.0
C587 C 0.64615 0.08336 0.17259 0.0
C588 C 0.67585 0.08788 0.17068 0.0
C589 C 0.69641 0.1137 0.1965 0.0
C590 C 0.72276 0.12771 0.18975 0.0
C591 C 0.72864 0.11594 0.15708 0.0
C592 C 0.70918 0.08756 0.13282 0.0
C593 C 0.68282 0.07352 0.13958 0.0
C594 C 0.56772 1.01125 0.08675 0.0
C595 C 0.6101 0.08076 0.05264 0.0
O596 O 0.52187 0.03601 0.03796 0.0
O597 O 0.51683 0.0884 0.04747 0.0
O598 O 0.57424 0.10318 0.12697 0.0
O599 O 0.56703 0.13205 0.09115 0.0
O600 O 0.52869 0.06535 0.12141 0.0
O601 O 0.56823 0.06842 0.16353 0.0
O602 O 0.63511 0.10598 0.16012 0.0
O603 O 0.62918 0.05189 0.16214 0.0
O604 O 0.57547 0.04031 0.08042 0.0
O605 O 0.58025 1.01226 0.11845 0.0
O606 O 0.62054 0.07619 0.08425 0.0
O607 O 0.5833 0.08267 0.04475 0.0
H608 H 0.47118 1.03044 0.96604 0.0
H609 H 0.42121 0.99661 0.9531 0.0
H610 H 0.42395 1.0121 0.06369 0.0
H611 H 0.47385 0.04609 0.07664 0.0
H612 H 0.69115 0.12529 0.22047 0.0
H613 H 0.7374 0.14977 0.20877 0.0
H614 H 0.71366 0.07797 0.10774 0.0
H615 H 0.66708 0.05355 0.11946 0.0
Tb616 Tb 0.29551 0.30669 0.33754 0.0
Tb617 Tb 0.35298 0.35915 0.37408 0.0
C618 C 0.24719 0.26843 0.3327 0.0
C619 C 0.21846 0.27221 0.32385 0.0
C620 C 0.19709 0.25256 0.33629 0.0
C621 C 0.1725 0.26308 0.33893 0.0
C622 C 0.16913 0.29345 0.32928 0.0
C623 C 0.18943 0.31129 0.31386 0.0
C624 C 0.21404 0.30073 0.31117 0.0
C625 C 0.31858 0.33619 0.29134 0.0
C626 C 0.29881 0.38996 0.36065 0.0
C627 C 0.40475 0.38905 0.38932 0.0
C628 C 0.42847 0.37262 0.38871 0.0
C629 C 0.43506 0.3597 0.35675 0.0
C630 C 0.45318 0.33816 0.35507 0.0
C631 C 0.46526 0.32911 0.38525 0.0
C632 C 0.45991 0.34332 0.41753 0.0
C633 C 0.44174 0.365 0.41926 0.0
C634 C 0.32113 0.3353 0.41523 0.0
C635 C 0.35034 0.27605 0.34901 0.0
O636 O 0.26246 0.29057 0.36153 0.0
O637 O 0.26112 0.26555 0.3075 0.0
O638 O 0.32795 0.34047 0.32354 0.0
O639 O 0.29419 0.31326 0.28347 0.0
O640 O 0.28297 0.35691 0.35038 0.0
O641 O 0.32726 0.39709 0.36883 0.0
O642 O 0.38831 0.38639 0.35891 0.0
O643 O 0.39007 0.38288 0.41289 0.0
O644 O 0.32448 0.31865 0.38684 0.0
O645 O 0.33712 0.36673 0.42205 0.0
O646 O 0.36582 0.30895 0.3623 0.0
O647 O 0.32208 0.26898 0.33847 0.0
H648 H 0.20042 0.23075 0.34658 0.0
H649 H 0.15692 0.24873 0.35056 0.0
H650 H 0.18732 0.33483 0.30644 0.0
H651 H 0.2306 0.31642 0.30193 0.0
H652 H 0.4254 0.3651 0.33272 0.0
H653 H 0.45753 0.32823 0.32995 0.0
H654 H 0.46905 0.33685 0.44119 0.0
H655 H 0.4371 0.37457 0.4443 0.0
Tb656 Tb 0.57555 0.6102 0.11425 0.0
Tb657 Tb 0.58066 0.5356 0.09157 0.0
C658 C 0.5869 0.67442 0.12794 0.0
C659 C 0.57112 0.69672 0.11446 0.0
C660 C 0.58506 0.73097 0.11628 0.0
C661 C 0.57212 0.74959 0.09583 0.0
C662 C 0.54529 0.73383 0.07342 0.0
C663 C 0.53061 0.70033 0.07366 0.0
C664 C 0.54348 0.68186 0.09415 0.0
C665 C 0.52716 0.56527 0.11376 0.0
C666 C 0.55262 0.56828 0.03507 0.0
C667 C 0.57989 0.47309 0.08016 0.0
C668 C 0.57981 0.44799 0.10139 0.0
C669 C 0.57665 0.45668 0.13586 0.0
C670 C 0.57669 0.4329 0.15636 0.0
C671 C 0.57967 0.40009 0.14248 0.0
C672 C 0.58316 0.39143 0.10805 0.0
C673 C 0.58334 0.41549 0.08754 0.0
C674 C 0.62039 0.58614 0.08241 0.0
C675 C 0.59991 0.57551 0.17185 0.0
O676 O 0.59642 0.65627 0.104 0.0
O677 O 0.57467 0.65594 0.14745 0.0
O678 O 0.54973 0.55932 0.10693 0.0
O679 O 0.53119 0.59848 0.12029 0.0
O680 O 0.56191 0.59914 0.05725 0.0
O681 O 0.55409 0.53937 0.0445 0.0
O682 O 0.55684 0.48397 0.0757 0.0
O683 O 0.60331 0.49825 0.0882 0.0
O684 O 0.60874 0.58624 0.10798 0.0
O685 O 0.61067 0.556 0.061 0.0
O686 O 0.59169 0.54503 0.149 0.0
O687 O 0.59799 0.60426 0.16261 0.0
H688 H 0.60656 0.74247 0.13164 0.0
H689 H 0.5837 0.77548 0.09587 0.0
H690 H 0.5102 0.68744 0.05602 0.0
H691 H 0.53272 0.65512 0.09208 0.0
H692 H 0.57375 0.4816 0.14677 0.0
H693 H 0.57357 0.43977 0.18276 0.0
H694 H 0.58548 0.36612 0.09708 0.0
H695 H 0.58599 0.4087 0.06092 0.0
Tb696 Tb 0.80805 0.30854 0.3204 0.0
Tb697 Tb 0.8236 0.38237 0.31862 0.0
C698 C 0.79379 0.24374 0.30486 0.0
C699 C 0.81081 0.21922 0.29801 0.0
C700 C 0.83685 0.23014 0.28866 0.0
C701 C 0.85546 0.20924 0.28765 0.0
C702 C 0.84856 0.17737 0.29666 0.0
C703 C 0.82178 0.16549 0.30404 0.0
C704 C 0.80298 0.1864 0.30476 0.0
C705 C 0.80676 0.35113 0.37911 0.0
C706 C 0.87169 0.3492 0.34618 0.0
C707 C 0.84171 0.44676 0.3345 0.0
C708 C 0.82926 0.47332 0.3496 0.0
C709 C 0.8055 0.46378 0.36386 0.0
C710 C 0.79105 0.48793 0.37424 0.0
C711 C 0.80022 0.52169 0.3703 0.0
C712 C 0.82485 0.53177 0.35776 0.0
C713 C 0.83933 0.50745 0.34722 0.0
C714 C 0.82715 0.33855 0.26168 0.0
C715 C 0.75926 0.34368 0.29611 0.0
O716 O 0.79077 0.26234 0.28186 0.0
O717 O 0.80038 0.26238 0.33706 0.0
O718 O 0.79926 0.35387 0.34835 0.0
O719 O 0.81562 0.32346 0.37706 0.0
O720 O 0.85407 0.3186 0.33025 0.0
O721 O 0.86249 0.37719 0.34967 0.0
O722 O 0.8483 0.4272 0.35524 0.0
O723 O 0.82794 0.42892 0.30303 0.0
O724 O 0.8324 0.33732 0.29281 0.0
O725 O 0.82211 0.36826 0.26187 0.0
O726 O 0.77785 0.37411 0.30986 0.0
O727 O 0.76767 0.31491 0.29344 0.0
H728 H 0.84336 0.25552 0.28375 0.0
H729 H 0.87574 0.21848 0.28116 0.0
H730 H 0.81609 0.14098 0.31118 0.0
H731 H 0.78301 0.1777 0.31225 0.0
H732 H 0.79757 0.4374 0.36583 0.0
H733 H 0.77222 0.48006 0.38433 0.0
H734 H 0.83208 0.55791 0.3548 0.0
H735 H 0.85768 0.51491 0.33615 0.0
Tb736 Tb 0.05114 0.57253 0.57658 0.0
Tb737 Tb 0.1037 0.5785 0.6324 0.0
C738 C 1.00753 0.54114 0.52984 0.0
C739 C 0.97711 0.5247 0.52401 0.0
C740 C 0.96629 0.4915 0.50177 0.0
C741 C 0.93809 0.47329 0.4979 0.0
C742 C 0.92027 0.48828 0.51593 0.0
C743 C 0.93088 0.52196 0.5374 0.0
C744 C 0.95921 0.54007 0.54156 0.0
C745 C 0.07228 0.6342 0.62005 0.0
C746 C 0.04307 0.56612 0.65601 0.0
C747 C 0.14851 0.60797 0.67756 0.0
C748 C 0.17917 0.61913 0.68194 0.0
C749 C 0.19236 0.60747 0.65537 0.0
C750 C 0.22037 0.62452 0.65636 0.0
C751 C 0.23504 0.65357 0.6836 0.0
C752 C 0.22229 0.66389 0.71112 0.0
C753 C 0.19446 0.64658 0.71034 0.0
C754 C 0.07917 0.51713 0.59312 0.0
C755 C 0.11152 0.58534 0.55304 0.0
O756 O 1.02398 0.52577 0.5466 0.0
O757 O 1.01658 0.57506 0.53949 0.0
O758 O 0.07214 0.60497 0.62544 0.0
O759 O 0.05845 0.62907 0.58773 0.0
O760 O 0.03058 0.56346 0.62245 0.0
O761 O 0.07137 0.57233 0.66508 0.0
O762 O 0.13473 0.62383 0.65784 0.0
O763 O 0.13636 0.57467 0.67129 0.0
O764 O 0.0821 0.54543 0.58465 0.0
O765 O 0.09355 0.52195 0.62497 0.0
O766 O 0.12354 0.58566 0.58601 0.0
O767 O 0.08352 0.58162 0.54417 0.0
H768 H 0.97994 0.47923 0.48817 0.0
H769 H 0.93034 0.44731 0.48139 0.0
H770 H 0.91755 0.53369 0.55208 0.0
H771 H 0.96727 0.56551 0.55914 0.0
H772 H 0.18057 0.58659 0.63307 0.0
H773 H 0.22997 0.61635 0.63485 0.0
H774 H 0.23343 0.68613 0.7324 0.0
H775 H 0.18429 0.65595 0.73082 0.0
Tb776 Tb 0.79494 0.83861 0.35207 0.0
Tb777 Tb 0.85065 0.8176 0.36128 0.0
C778 C 0.74493 0.84278 0.35252 0.0
C779 C 0.72286 0.83659 0.37303 0.0
C780 C 0.72363 0.81536 0.3968 0.0
C781 C 0.70057 0.80649 0.41256 0.0
C782 C 0.67647 0.81894 0.40498 0.0
C783 C 0.67642 0.84134 0.38228 0.0
C784 C 0.69932 0.84992 0.36638 0.0
C785 C 0.83915 0.88315 0.34236 0.0
C786 C 0.83423 0.85097 0.42863 0.0
C787 C 0.89943 0.8092 0.36068 0.0
C788 C 0.92196 0.81315 0.34028 0.0
C789 C 0.94227 0.84508 0.34626 0.0
C790 C 0.96552 0.84786 0.33035 0.0
C791 C 0.96906 0.81884 0.30806 0.0
C792 C 0.94851 0.78706 0.30147 0.0
C793 C 0.92527 0.78421 0.31752 0.0
C794 C 0.80674 0.77504 0.37415 0.0
C795 C 0.81481 0.80996 0.2847 0.0
O796 O 0.75122 0.8153 0.33664 0.0
O797 O 0.7675 0.8688 0.36639 0.0
O798 O 0.83916 0.86494 0.36438 0.0
O799 O 0.81299 0.87941 0.32695 0.0
O800 O 0.80822 0.84621 0.40962 0.0
O801 O 0.85552 0.84607 0.41414 0.0
O802 O 0.89473 0.8376 0.37718 0.0
O803 O 0.87587 0.78451 0.34694 0.0
O804 O 0.80633 0.79159 0.35065 0.0
O805 O 0.833 0.7796 0.38932 0.0
O806 O 0.84002 0.81483 0.30524 0.0
O807 O 0.79242 0.81383 0.29756 0.0
H808 H 0.74176 0.80514 0.40262 0.0
H809 H 0.7015 0.78971 0.43044 0.0
H810 H 0.6582 0.85129 0.37585 0.0
H811 H 0.69826 0.86626 0.34805 0.0
H812 H 0.94066 0.86785 0.36394 0.0
H813 H 0.98096 0.87271 0.33577 0.0
H814 H 0.95092 0.76414 0.28483 0.0
H815 H 0.91032 0.75912 0.31287 0.0
Tb816 Tb 0.82743 0.3139 0.83827 0.0
Tb817 Tb 0.81169 0.34799 0.90219 0.0
C818 C 0.82768 0.27471 0.78154 0.0
C819 C 0.82823 0.27661 0.74562 0.0
C820 C 0.83568 0.30869 0.73725 0.0
C821 C 0.83006 0.31064 0.70243 0.0
C822 C 0.81676 0.28056 0.6758 0.0
C823 C 0.81132 0.24826 0.68415 0.0
C824 C 0.81713 0.24631 0.71899 0.0
C825 C 0.86848 0.33254 0.89534 0.0
C826 C 0.84308 0.39478 0.85576 0.0
C827 C 0.81596 0.38414 0.96205 0.0
C828 C 0.82688 0.38757 0.99924 0.0
C829 C 0.82169 0.35921 1.01434 0.0
C830 C 0.83516 0.36254 0.04879 0.0
C831 C 0.85421 0.39406 0.06831 0.0
C832 C 0.85804 0.42294 0.05389 0.0
C833 C 0.84423 0.41973 0.01951 0.0
C834 C 0.77281 0.34761 0.8471 0.0
C835 C 0.79407 0.26582 0.88313 0.0
O836 O 0.8046 0.27921 0.79128 0.0
O837 O 0.85065 0.29158 0.80535 0.0
O838 O 0.84241 0.31906 0.89366 0.0
O839 O 0.87169 0.33531 0.86446 0.0
O840 O 0.83672 0.36686 0.82948 0.0
O841 O 0.8385 0.39157 0.88697 0.0
O842 O 0.83537 0.38931 0.94359 0.0
O843 O 0.79376 0.35825 0.94568 0.0
O844 O 0.79409 0.33571 0.84731 0.0
O845 O 0.77211 0.35884 0.87922 0.0
O846 O 0.79636 0.29428 0.90729 0.0
O847 O 0.80427 0.26817 0.85463 0.0
H848 H 0.84401 0.33231 0.75766 0.0
H849 H 0.83389 0.33591 0.69666 0.0
H850 H 0.8009 0.22486 0.66399 0.0
H851 H 0.81118 0.2214 0.72527 0.0
H852 H 0.80837 0.33419 0.99916 0.0
H853 H 0.83238 0.33974 0.0593 0.0
H854 H 0.8729 0.44726 0.06845 0.0
H855 H 0.84822 0.44192 1.00816 0.0
Tb856 Tb 0.79737 0.80599 0.83062 0.0
Tb857 Tb 0.85319 0.85793 0.87017 0.0
C858 C 0.74634 0.77174 0.81095 0.0
C859 C 0.71984 0.77871 0.81884 0.0
C860 C 0.71278 0.77596 0.85106 0.0
C861 C 0.68866 0.78477 0.85923 0.0
C862 C 0.67109 0.79629 0.83534 0.0
C863 C 0.67787 0.79862 0.80297 0.0
C864 C 0.70197 0.78972 0.79472 0.0
C865 C 0.83065 0.83294 0.79191 0.0
C866 C 0.79844 0.88796 0.86057 0.0
C867 C 0.90367 0.89074 0.87839 0.0
C868 C 0.92864 0.87789 0.88782 0.0
C869 C 0.95145 0.8858 0.8716 0.0
C870 C 0.97077 0.86567 0.871 0.0
C871 C 0.96746 0.83736 0.88653 0.0
C872 C 0.94592 0.8309 0.90493 0.0
C873 C 0.92664 0.85117 0.9057 0.0
C874 C 0.82806 0.83047 0.91566 0.0
C875 C 0.85041 0.77457 0.84828 0.0
O876 O 0.76417 0.76741 0.83682 0.0
O877 O 0.75922 0.79116 0.79274 0.0
O878 O 0.82599 0.84793 0.82009 0.0
O879 O 0.81588 0.80087 0.78403 0.0
O880 O 0.78342 0.8547 0.84763 0.0
O881 O 0.82689 0.89576 0.86976 0.0
O882 O 0.8876 0.87374 0.84766 0.0
O883 O 0.88887 0.89581 0.90239 0.0
O884 O 0.81967 0.82387 0.88291 0.0
O885 O 0.85174 0.85456 0.92404 0.0
O886 O 0.86601 0.8076 0.85876 0.0
O887 O 0.82223 0.76775 0.83801 0.0
H888 H 0.726 0.76739 0.8702 0.0
H889 H 0.68366 0.78243 0.88422 0.0
H890 H 0.66482 0.80787 0.7843 0.0
H891 H 0.7069 0.79207 0.76971 0.0
H892 H 0.95303 0.90575 0.85709 0.0
H893 H 0.98725 0.87077 0.85645 0.0
H894 H 0.94292 0.80893 0.9167 0.0
H895 H 0.90888 0.84418 0.91787 0.0
Tb896 Tb 0.55213 0.55885 0.58445 0.0
Tb897 Tb 0.60188 0.60698 0.63613 0.0
C898 C 0.50429 0.52728 0.54579 0.0
C899 C 0.48399 0.5419 0.52668 0.0
C900 C 0.45564 0.5324 0.52958 0.0
C901 C 0.44051 0.55734 0.53233 0.0
C902 C 0.45431 0.59163 0.53321 0.0
C903 C 0.4797 0.59853 0.52162 0.0
C904 C 0.49459 0.57345 0.51817 0.0
C905 C 0.59816 0.57831 0.55986 0.0
C906 C 0.5596 0.64119 0.59877 0.0
C907 C 0.65259 0.63485 0.66686 0.0
C908 C 0.67613 0.61818 0.6655 0.0
C909 C 0.68791 0.61566 0.63567 0.0
C910 C 0.70007 0.58874 0.62604 0.0
C911 C 0.70112 0.56453 0.64637 0.0
C912 C 0.69404 0.57046 0.67907 0.0
C913 C 0.68151 0.59723 0.68866 0.0
C914 C 0.55594 0.59304 0.66096 0.0
C915 C 0.59392 0.52487 0.62088 0.0
O916 O 0.50862 0.53778 0.57986 0.0
O917 O 0.52807 0.52892 0.53532 0.0
O918 O 0.58849 0.59621 0.5813 0.0
O919 O 0.58112 0.54753 0.55055 0.0
O920 O 0.54215 0.60951 0.58695 0.0
O921 O 0.58582 0.6466 0.61675 0.0
O922 O 0.64109 0.64016 0.63704 0.0
O923 O 0.6332 0.62173 0.68283 0.0
O924 O 0.56408 0.57156 0.64043 0.0
O925 O 0.57491 0.62268 0.66996 0.0
O926 O 0.61192 0.55616 0.63004 0.0
O927 O 0.56708 0.52011 0.60602 0.0
H928 H 0.44697 0.50794 0.53559 0.0
H929 H 0.42046 0.55148 0.54038 0.0
H930 H 0.49038 0.6247 0.52136 0.0
H931 H 0.51627 0.58105 0.51501 0.0
H932 H 0.68498 0.63201 0.61772 0.0
H933 H 0.70655 0.58517 0.60131 0.0
H934 H 0.69574 0.55254 0.69557 0.0
H935 H 0.67337 0.59911 0.7123 0.0
Tb936 Tb 0.09527 0.57814 0.08946 0.0
Tb937 Tb 0.03717 0.56995 0.11365 0.0
C938 C 0.14652 0.58287 0.08763 0.0
C939 C 0.1697 0.56733 0.0985 0.0
C940 C 0.17235 0.55478 0.12895 0.0
C941 C 0.19544 0.54162 0.13914 0.0
C942 C 0.21599 0.54038 0.11878 0.0
C943 C 0.21268 0.55193 0.08777 0.0
C944 C 0.18984 0.56542 0.07786 0.0
C945 C 0.05322 0.58139 0.03718 0.0
C946 C 0.05607 0.50336 0.08555 0.0
C947 C 0.98613 0.56487 0.11619 0.0
C948 C 0.96382 0.58261 0.10931 0.0
C949 C 0.97048 0.61847 0.11249 0.0
C950 C 0.94882 0.63531 0.10996 0.0
C951 C 0.92022 0.61655 0.10425 0.0
C952 C 0.91367 0.58048 0.09983 0.0
C953 C 0.93531 0.56372 0.10253 0.0
C954 C 0.07858 0.565 0.16531 0.0
C955 C 0.07618 0.64485 0.1186 0.0
O956 O 0.13836 0.60195 0.11231 0.0
O957 O 0.12513 0.56288 0.06286 0.0
O958 O 0.05226 0.57788 0.06798 0.0
O959 O 0.07937 0.58291 0.03555 0.0
O960 O 0.08191 0.52274 0.08728 0.0
O961 O 0.03463 0.51652 0.09089 0.0
O962 O 0.99389 0.54895 0.0891 0.0
O963 O 1.00768 0.58174 0.14226 0.0
O964 O 0.0803 0.57056 0.13533 0.0
O965 O 0.05215 0.56202 0.16615 0.0
O966 O 0.05055 0.62512 0.117 0.0
O967 O 0.09771 0.63209 0.11235 0.0
H968 H 0.15672 0.55531 0.14487 0.0
H969 H 0.19724 0.53238 0.16289 0.0
H970 H 0.22819 0.55135 0.07164 0.0
H971 H 0.18807 0.57475 0.05415 0.0
H972 H 0.9924 0.63353 0.11779 0.0
H973 H 0.95448 0.66309 0.11324 0.0
H974 H 0.8918 0.5652 0.09432 0.0
H975 H 0.9298 0.53602 0.09998 0.0
C976 C 0.04563 0.19991 0.04176 0.0
C977 C 1.02935 0.21872 0.05925 0.0
C978 C 0.05399 0.17273 0.05357 0.0
C979 C 0.04627 0.16289 0.08318 0.0
H980 H 0.05153 0.20564 0.01817 0.0
H981 H 0.06633 0.15895 0.03908 0.0
S982 S 1.00683 0.20549 0.14107 0.0
N983 N 1.00804 0.22695 0.10997 0.0
N984 N 1.02332 0.17519 0.13139 0.0
C985 C 0.03074 0.18173 0.10161 0.0
C986 C 1.02243 0.20982 0.08987 0.0
C987 C 0.20618 0.8105 0.2712 0.0
C988 C 0.19855 0.84096 0.26687 0.0
C989 C 0.23158 0.81179 0.29399 0.0
C990 C 0.25028 0.84355 0.31304 0.0
H991 H 0.19168 0.78539 0.25847 0.0
H992 H 0.2355 0.78786 0.29871 0.0
S993 S 0.24259 0.93065 0.30819 0.0
N994 N 0.21376 0.90389 0.28113 0.0
N995 N 0.2611 0.90597 0.32407 0.0
C996 C 0.24405 0.87405 0.3071 0.0
C997 C 0.21836 0.87287 0.28383 0.0
C998 C 0.55275 0.91254 0.54502 0.0
C999 C 0.53387 0.89321 0.56141 0.0
C1000 C 0.56106 0.94882 0.55457 0.0
C1001 C 0.55057 0.96717 0.58058 0.0
H1002 H 0.56023 0.8997 0.52351 0.0
H1003 H 0.57467 0.96256 0.5403 0.0
S1004 S 0.50523 0.92945 0.63623 0.0
N1005 N 0.5085 0.89564 0.60871 0.0
N1006 N 0.52352 0.96368 0.62586 0.0
C1007 C 0.5333 0.94834 0.5988 0.0
C1008 C 0.52515 0.91143 0.58947 0.0
C1009 C 0.5178 0.33778 0.74952 0.0
C1010 C 0.54265 0.32987 0.76466 0.0
C1011 C 0.4929 0.33039 0.76223 0.0
C1012 C 0.49171 0.31464 0.79053 0.0
H1013 H 0.51773 0.35076 0.72829 0.0
H1014 H 0.47451 0.33751 0.75007 0.0
S1015 S 0.55048 0.28774 0.83899 0.0
N1016 N 0.56405 0.30428 0.80893 0.0
N1017 N 0.51744 0.29091 0.83307 0.0
C1018 C 0.5161 0.3057 0.80533 0.0
C1019 C 0.54148 0.3132 0.79236 0.0
C1020 C 0.10081 0.87137 0.71826 0.0
C1021 C 0.07902 0.84048 0.70828 0.0
C1022 C 0.1074 0.89006 0.69356 0.0
C1023 C 0.09279 0.87773 0.6584 0.0
H1024 H 0.11136 0.88223 0.74551 0.0
H1025 H 0.12247 0.91535 0.70234 0.0
S1026 S 0.03847 0.79459 0.6186 0.0
N1027 N 0.04603 0.79571 0.66076 0.0
N1028 N 0.05881 0.83077 0.61401 0.0
C1029 C 0.07321 0.84514 0.64766 0.0
C1030 C 0.06612 0.82648 0.67284 0.0
C1031 C 0.43986 0.83672 0.82881 0.0
C1032 C 0.45724 0.86158 0.85806 0.0
C1033 C 0.41048 0.83061 0.8228 0.0
C1034 C 0.39764 0.84987 0.84523 0.0
H1035 H 0.44878 0.81949 0.81251 0.0
H1036 H 0.39775 0.80999 0.80092 0.0
S1037 S 0.43458 0.92109 0.92299 0.0
N1038 N 0.46035 0.9074 0.90832 0.0
N1039 N 0.40463 0.89732 0.89569 0.0
C1040 C 0.41496 0.8769 0.87288 0.0
C1041 C 0.44498 0.88254 0.87952 0.0
C1042 C 0.54933 0.19902 0.17524 0.0
C1043 C 0.55942 0.19766 0.20998 0.0
C1044 C 0.5579 0.18075 0.14725 0.0
C1045 C 0.5767 0.16018 0.15295 0.0
H1046 H 0.53485 0.21456 0.16961 0.0
H1047 H 0.54867 0.18153 0.12093 0.0
S1048 S 0.60957 0.14871 0.23924 0.0
N1049 N 0.58971 0.17511 0.24866 0.0
N1050 N 0.60547 0.14042 0.19635 0.0
C1051 C 0.58739 0.15943 0.18774 0.0
C1052 C 0.57881 0.17816 0.21616 0.0
C1053 C 0.12196 0.32643 0.38517 0.0
C1054 C 0.10266 0.3361 0.36145 0.0
C1055 C 0.14344 0.31289 0.3744 0.0
C1056 C 0.14657 0.30872 0.33961 0.0
H1057 H 0.11989 0.32807 0.41198 0.0
H1058 H 0.15761 0.30534 0.39345 0.0
S1059 S 0.10356 0.3333 0.26808 0.0
N1060 N 0.08951 0.34311 0.30213 0.0
N1061 N 0.13001 0.31737 0.282 0.0
C1062 C 0.1284 0.31981 0.316 0.0
C1063 C 0.1064 0.33356 0.3269 0.0
C1064 C 1.00876 0.10453 0.21943 0.0
C1065 C 1.0015 0.07289 0.22926 0.0
C1066 C 1.02526 0.1089 0.19458 0.0
C1067 C 0.03491 0.08173 0.178 0.0
H1068 H 1.00278 0.12683 0.23216 0.0
H1069 H 0.03127 0.1342 0.18914 0.0
S1070 S 1.01865 0.99222 0.19008 0.0
N1071 N 1.00298 1.01273 0.2175 0.0
N1072 N 0.03373 1.02097 0.17019 0.0
C1073 C 1.02613 0.04917 0.18538 0.0
C1074 C 1.00943 0.04472 0.2111 0.0
C1075 C 0.37844 0.84083 0.6346 0.0
C1076 C 0.40442 0.83763 0.62621 0.0
C1077 C 0.36218 0.85898 0.61755 0.0
C1078 C 0.37149 0.87456 0.59172 0.0
H1079 H 0.36945 0.82698 0.65244 0.0
H1080 H 0.34109 0.85805 0.62215 0.0
S1081 S 0.43955 0.8783 0.56371 0.0
N1082 N 0.44026 0.85539 0.59355 0.0
N1083 N 0.40942 0.88952 0.56134 0.0
C1084 C 0.39874 0.87496 0.58589 0.0
C1085 C 0.41534 0.8564 0.60321 0.0
C1086 C 0.63014 0.0406 0.73647 0.0
C1087 C 0.64226 0.07139 0.76308 0.0
C1088 C 0.61286 0.04019 0.70379 0.0
C1089 C 0.60731 0.07061 0.69557 0.0
H1090 H 0.63277 1.0163 0.74154 0.0
H1091 H 0.60264 1.01553 0.68544 0.0
S1092 S 0.63489 0.15836 0.75431 0.0
N1093 N 0.64805 0.1336 0.77707 0.0
N1094 N 0.61613 0.13232 0.71673 0.0
C1095 C 0.62015 0.10152 0.72123 0.0
C1096 C 0.63746 0.10205 0.75442 0.0
C1097 C 0.33545 0.3915 0.02298 0.0
C1098 C 0.35657 0.38136 0.04393 0.0
C1099 C 0.32703 0.37787 0.98652 0.0
C1100 C 0.33958 0.35382 0.96954 0.0
H1101 H 0.32609 0.41117 0.03455 0.0
H1102 H 0.31163 0.3875 0.97138 0.0
S1103 S 0.39226 0.31436 1.01236 0.0
N1104 N 0.38714 0.3423 0.04479 0.0
N1105 N 0.37156 0.31726 0.9767 0.0
C1106 C 0.35931 0.34183 0.9903 0.0
C1107 C 0.36771 0.3554 0.02732 0.0
C1108 C 0.03029 0.03918 0.43442 0.0
C1109 C 1.02083 0.06673 0.42519 0.0
C1110 C 0.04127 0.0404 0.4695 0.0
C1111 C 0.04361 0.06945 0.49653 0.0
H1112 H 1.02849 1.01619 0.41459 0.0
H1113 H 0.048 1.01831 0.47538 0.0
S1114 S 1.02376 0.14954 0.48517 0.0
N1115 N 1.01575 0.12461 0.44523 0.0
N1116 N 0.03668 0.12709 0.51104 0.0
C1117 C 0.03501 0.09762 0.48735 0.0
C1118 C 1.02352 0.09618 0.45171 0.0
C1119 C 0.38517 0.7747 0.73102 0.0
C1120 C 0.40912 0.79726 0.7255 0.0
C1121 C 0.3603 0.78478 0.73364 0.0
C1122 C 0.35844 0.81821 0.73228 0.0
H1123 H 0.3854 0.74866 0.73285 0.0
H1124 H 0.34254 0.76649 0.738 0.0
S1125 S 0.41618 0.88927 0.72319 0.0
N1126 N 0.42999 0.85596 0.72127 0.0
N1127 N 0.38344 0.87517 0.72813 0.0
C1128 C 0.38246 0.8417 0.72815 0.0
C1129 C 0.40782 0.83129 0.72474 0.0
C1130 C 0.63308 0.08805 0.96432 0.0
C1131 C 0.65638 0.07319 0.96393 0.0
C1132 C 0.6191 0.09111 0.99291 0.0
C1133 C 0.62743 0.07979 0.02355 0.0
H1134 H 0.62501 0.09698 0.9418 0.0
H1135 H 0.60119 0.10222 0.99063 0.0
S1136 S 0.68612 0.03703 0.03604 0.0
N1137 N 0.68635 0.04599 0.99747 0.0
N1138 N 0.66063 0.05167 0.05034 0.0
C1139 C 0.65083 0.06504 0.02364 0.0
C1140 C 0.66501 0.06178 0.99436 0.0
C1141 C 0.37194 0.37943 0.24368 0.0
C1142 C 0.35451 0.38787 0.21659 0.0
C1143 C 0.36045 0.36369 0.26853 0.0
C1144 C 0.33101 0.35504 0.26678 0.0
H1145 H 0.39474 0.38543 0.246 0.0
H1146 H 0.3746 0.35742 0.28864 0.0
S1147 S 0.27601 0.37122 0.20132 0.0
N1148 N 0.30618 0.38649 0.19014 0.0
N1149 N 0.28468 0.35608 0.23594 0.0
C1150 C 0.31336 0.36308 0.23982 0.0
C1151 C 0.32506 0.37973 0.21503 0.0
C1152 C 0.20638 0.98205 0.09084 0.0
C1153 C 0.22732 0.98699 0.0712 0.0
C1154 C 0.20148 1.01035 0.11259 0.0
C1155 C 0.2178 0.04433 0.11586 0.0
H1156 H 0.1931 0.95636 0.08847 0.0
H1157 H 0.18398 1.00568 0.12567 0.0
S1158 S 0.2788 0.06991 0.07509 0.0
N1159 N 0.26674 1.02767 0.05958 0.0
N1160 N 0.25811 0.08062 0.10132 0.0
C1161 C 0.24008 0.04918 0.09822 0.0
C1162 C 0.2447 1.02055 0.07564 0.0
C1163 C 0.68916 0.65726 0.11325 0.0
C1164 C 0.6992 0.65815 0.08238 0.0
C1165 C 0.66283 0.63519 0.11274 0.0
C1166 C 0.64587 0.61264 0.08144 0.0
H1167 H 0.70213 0.673 0.13822 0.0
H1168 H 0.65639 0.63464 0.13731 0.0
S1169 S 0.66087 0.60723 0.99297 0.0
N1170 N 0.68877 0.6366 0.01914 0.0
N1171 N 0.6396 0.5945 0.01845 0.0
C1172 C 0.6549 0.61442 0.05017 0.0
C1173 C 0.68148 0.63739 0.05056 0.0
C1174 C 0.7752 0.59463 0.41568 0.0
C1175 C 0.74667 0.58637 0.39754 0.0
C1176 C 0.79312 0.57451 0.4056 0.0
C1177 C 0.7828 0.54547 0.37743 0.0
H1178 H 0.78352 0.61625 0.43832 0.0
H1179 H 0.8147 0.58074 0.42077 0.0
S1180 S 0.71064 0.51398 0.32016 0.0
N1181 N 0.70949 0.54821 0.34893 0.0
N1182 N 0.74337 0.51027 0.33024 0.0
C1183 C 0.75481 0.53771 0.3582 0.0
C1184 C 0.73664 0.55829 0.36817 0.0
C1185 C 0.862 0.41999 0.53221 0.0
C1186 C 0.83889 0.4346 0.52849 0.0
C1187 C 0.88801 0.43645 0.52581 0.0
C1188 C 0.89151 0.46779 0.51529 0.0
H1189 H 0.86064 0.3971 0.54244 0.0
H1190 H 0.90596 0.42578 0.53128 0.0
S1191 S 0.83565 0.51201 0.49386 0.0
N1192 N 0.81979 0.47902 0.50815 0.0
N1193 N 0.8687 0.50958 0.49575 0.0
C1194 C 0.86784 0.48077 0.50825 0.0
C1195 C 0.84146 0.46421 0.51491 0.0
C1196 C 0.37506 0.1985 0.37685 0.0
C1197 C 0.39236 0.18821 0.35377 0.0
C1198 C 0.36169 0.22589 0.37469 0.0
C1199 C 0.36476 0.24591 0.34962 0.0
H1200 H 0.37176 0.18524 0.39744 0.0
H1201 H 0.34902 0.2318 0.39351 0.0
S1202 S 0.406 0.23023 0.28098 0.0
N1203 N 0.41027 0.2009 0.3033 0.0
N1204 N 0.38607 0.25211 0.29991 0.0
C1205 C 0.38167 0.236 0.32601 0.0
C1206 C 0.39505 0.20754 0.32785 0.0
C1207 C 0.35185 0.14024 0.60487 0.0
C1208 C 0.35372 0.1678 0.58823 0.0
C1209 C 0.37438 0.12499 0.61033 0.0
C1210 C 0.39963 0.13661 0.59927 0.0
H1211 H 0.33267 0.12993 0.6133 0.0
H1212 H 0.37174 0.1034 0.62265 0.0
S1213 S 0.41598 0.20886 0.55577 0.0
N1214 N 0.38333 0.20645 0.56123 0.0
N1215 N 0.42582 0.17835 0.57249 0.0
C1216 C 0.40207 0.16458 0.58328 0.0
C1217 C 0.37912 0.18007 0.57758 0.0
C1218 C 0.73293 0.72592 0.37933 0.0
C1219 C 0.73651 0.72522 0.41504 0.0
C1220 C 0.7553 0.74346 0.3663 0.0
C1221 C 0.78211 0.76039 0.38838 0.0
H1222 H 0.71336 0.71111 0.36089 0.0
H1223 H 0.75205 0.74218 0.33851 0.0
S1224 S 0.80106 0.77188 0.48461 0.0
N1225 N 0.76778 0.74815 0.47289 0.0
N1226 N 0.8099 0.77888 0.44807 0.0
C1227 C 0.7853 0.76192 0.42431 0.0
C1228 C 0.76244 0.74507 0.43773 0.0
C1229 C 0.89108 0.47445 0.83407 0.0
C1230 C 0.88366 0.50301 0.85289 0.0
C1231 C 0.87721 0.43946 0.83332 0.0
C1232 C 0.85538 0.43121 0.85163 0.0
H1233 H 0.90859 0.47912 0.82107 0.0
H1234 H 0.88458 0.41884 0.81964 0.0
S1235 S 0.82487 0.49528 0.90073 0.0
N1236 N 0.85034 0.51921 0.88705 0.0
N1237 N 0.82536 0.45491 0.88612 0.0
C1238 C 0.84691 0.45937 0.86893 0.0
C1239 C 0.86066 0.49464 0.86941 0.0
C1240 C 0.09031 0.92669 0.11213 0.0
C1241 C 0.10785 0.92901 0.14459 0.0
C1242 C 0.0883 0.95631 0.10016 0.0
C1243 C 0.10367 0.9896 0.12015 0.0
H1244 H 0.07629 0.90199 0.0971 0.0
H1245 H 0.073 0.95319 0.07616 0.0
S1246 S 0.15571 1.00955 0.20455 0.0
N1247 N 0.14358 0.96702 0.19446 0.0
N1248 N 0.13953 1.02277 0.17209 0.0
C1249 C 0.12345 0.99209 0.15089 0.0
C1250 C 0.12562 0.96175 0.16306 0.0
C1251 C 0.91636 0.29321 0.95099 0.0
C1252 C 0.94355 0.31416 0.9521 0.0
C1253 C 0.89139 0.30083 0.93547 0.0
C1254 C 0.89292 0.32977 0.92083 0.0
H1255 H 0.91437 0.26954 0.95991 0.0
H1256 H 0.87102 0.28264 0.9326 0.0
S1257 S 0.95847 0.39637 0.92349 0.0
N1258 N 0.97002 0.36778 0.94194 0.0
N1259 N 0.92348 0.38185 0.91299 0.0
C1260 C 0.91981 0.35243 0.92478 0.0
C1261 C 0.94503 0.3447 0.94034 0.0
C1262 C 0.56529 0.23496 0.62637 0.0
C1263 C 0.58792 0.25663 0.65351 0.0
C1264 C 0.56317 0.19973 0.61454 0.0
C1265 C 0.58388 0.1847 0.62871 0.0
H1266 H 0.54835 0.24489 0.61492 0.0
H1267 H 0.54479 0.18393 0.59458 0.0
S1268 S 0.64797 0.22933 0.69902 0.0
N1269 N 0.63189 0.25982 0.69364 0.0
N1270 N 0.62824 0.19387 0.67022 0.0
C1271 C 0.60733 0.20604 0.65453 0.0
C1272 C 0.60927 0.24191 0.66719 0.0
C1273 C 0.61279 0.82293 0.44626 0.0
C1274 C 0.59917 0.7879 0.44311 0.0
C1275 C 0.63801 0.83272 0.43464 0.0
C1276 C 0.6509 0.80798 0.41954 0.0
H1277 H 0.60372 0.84309 0.45742 0.0
H1278 H 0.64744 0.85997 0.43731 0.0
S1279 S 0.62426 0.71287 0.40502 0.0
N1280 N 0.60098 0.72832 0.42378 0.0
N1281 N 0.64816 0.74689 0.40187 0.0
C1282 C 0.63788 0.77292 0.41668 0.0
C1283 C 0.61211 0.76287 0.42843 0.0
C1284 C 0.05017 0.27162 0.49402 0.0
C1285 C 1.02321 0.27806 0.49008 0.0
C1286 C 0.06002 0.25688 0.52076 0.0
C1287 C 0.04331 0.24809 0.5445 0.0
H1288 H 0.06406 0.27854 0.47676 0.0
H1289 H 0.08085 0.25216 0.52276 0.0
S1290 S 0.97087 0.2581 0.54515 0.0
N1291 N 0.97942 0.27294 0.51164 0.0
N1292 N 0.99856 0.24593 0.56238 0.0
C1293 C 1.01615 0.25357 0.54057 0.0
C1294 C 1.00594 0.26836 0.51322 0.0
C1295 C 0.68128 0.30294 0.28775 0.0
C1296 C 0.67172 0.33069 0.30345 0.0
C1297 C 0.70914 0.30792 0.28303 0.0
C1298 C 0.72865 0.3408 0.29414 0.0
H1299 H 0.66722 0.27701 0.27926 0.0
H1300 H 0.71565 0.28547 0.27176 0.0
S1301 S 0.71367 0.42235 0.33562 0.0
N1302 N 0.68342 0.39245 0.32892 0.0
N1303 N 0.7359 0.402 0.32032 0.0
C1304 C 0.719 0.36909 0.3087 0.0
C1305 C 0.69053 0.36396 0.31338 0.0
C1306 C 0.51791 0.92771 0.03069 0.0
C1307 C 0.5289 0.92339 1.0002 0.0
C1308 C 0.53137 0.95545 0.0596 0.0
C1309 C 0.55593 0.97987 0.05865 0.0
H1310 H 0.49885 0.90947 0.03234 0.0
H1311 H 0.52205 0.95839 0.08233 0.0
S1312 S 0.5937 0.98033 0.98595 0.0
N1313 N 0.56629 0.94583 0.97147 0.0
N1314 N 0.59129 0.99799 0.02573 0.0
C1315 C 0.56733 0.97577 0.02869 0.0
C1316 C 0.55389 0.94747 0.99945 0.0
C1317 C 0.99551 0.77311 0.83248 0.0
C1318 C 1.02334 0.77947 0.85209 0.0
C1319 C 0.97619 0.78946 0.84553 0.0
C1320 C 0.98404 0.81229 0.87871 0.0
H1321 H 0.98964 0.75843 0.80552 0.0
H1322 H 0.95595 0.78668 0.82837 0.0
S1323 S 0.05194 0.83166 0.94317 0.0
N1324 N 0.05605 0.80546 0.9085 0.0
N1325 N 1.01942 0.83614 0.93306 0.0
C1326 C 1.01035 0.81538 0.90025 0.0
C1327 C 1.03007 0.79865 0.88699 0.0
C1328 C 0.14344 0.12304 1.00684 0.0
C1329 C 0.12926 0.11276 0.97139 0.0
C1330 C 0.13144 0.10897 0.03219 0.0
C1331 C 0.10557 0.08308 0.02264 0.0
H1332 H 0.16418 0.1415 0.01487 0.0
H1333 H 0.14281 0.11769 0.05927 0.0
S1334 S 0.06003 0.04736 0.93325 0.0
N1335 N 0.08761 0.07583 0.92822 0.0
N1336 N 0.06568 0.0486 0.97545 0.0
C1337 C 0.09106 0.07292 0.98734 0.0
C1338 C 0.10277 0.08798 0.96182 0.0
C1339 C 0.75905 0.28242 0.60282 0.0
C1340 C 0.77379 0.30541 0.58601 0.0
C1341 C 0.77365 0.2716 0.62991 0.0
C1342 C 0.80338 0.284 0.6413 0.0
H1343 H 0.73602 0.27432 0.59634 0.0
H1344 H 0.76138 0.25569 0.64383 0.0
S1345 S 0.85186 0.34208 0.60345 0.0
N1346 N 0.81973 0.33816 0.58066 0.0
N1347 N 0.84724 0.31779 0.63175 0.0
C1348 C 0.81848 0.30513 0.62311 0.0
C1349 C 0.80362 0.31594 0.59538 0.0
C1350 C 0.49533 0.10806 0.47618 0.0
C1351 C 0.49619 0.09006 0.44229 0.0
C1352 C 0.512 0.10429 0.50767 0.0
C1353 C 0.53039 0.08223 0.50698 0.0
H1354 H 0.48247 0.12622 0.47843 0.0
H1355 H 0.51153 0.12009 0.53252 0.0
S1356 S 0.53886 1.0267 0.42617 0.0
N1357 N 0.51601 0.04721 0.41147 0.0
N1358 N 0.54665 0.04067 0.46912 0.0
C1359 C 0.5304 0.06323 0.47347 0.0
C1360 C 0.51359 0.0669 0.44178 0.0
C1361 C 0.8371 0.79808 0.19759 0.0
C1362 C 0.81213 0.77788 0.17315 0.0
C1363 C 0.83734 0.80899 0.23312 0.0
C1364 C 0.81258 0.80061 0.24615 0.0
H1365 H 0.85708 0.8047 0.18956 0.0
H1366 H 0.85738 0.82373 0.25066 0.0
S1367 S 0.74087 0.75098 0.19324 0.0
N1368 N 0.76133 0.75189 0.16455 0.0
N1369 N 0.76187 0.77266 0.23145 0.0
C1370 C 0.78709 0.78193 0.22197 0.0
C1371 C 0.78685 0.7705 0.18555 0.0
C1372 C 0.13775 0.07135 0.75813 0.0
C1373 C 0.11793 0.07616 0.7789 0.0
C1374 C 0.13014 0.06527 0.72156 0.0
C1375 C 0.10255 0.06402 0.70476 0.0
H1376 H 0.15942 0.07281 0.77025 0.0
H1377 H 0.14621 0.06307 0.70651 0.0
S1378 S 0.04285 0.07507 0.74664 0.0
N1379 N 0.06936 0.07868 0.77955 0.0
N1380 N 0.05541 0.06796 0.7109 0.0
C1381 C 0.08243 0.06808 0.72497 0.0
C1382 C 0.09001 0.07389 0.76207 0.0
C1383 C 0.77748 0.39139 0.4538 0.0
C1384 C 0.75629 0.36286 0.45599 0.0
C1385 C 0.79343 0.38827 0.42788 0.0
C1386 C 0.7882 0.35667 0.40347 0.0
H1387 H 0.78318 0.41527 0.47366 0.0
H1388 H 0.81073 0.40998 0.42802 0.0
S1389 S 0.7312 0.27695 0.39385 0.0
N1390 N 0.72841 0.30396 0.42876 0.0
N1391 N 0.75755 0.29838 0.37949 0.0
C1392 C 0.76516 0.3293 0.40329 0.0
C1393 C 0.74931 0.33237 0.42968 0.0
C1394 C 0.52655 0.07634 0.24882 0.0
C1395 C 0.49919 0.08215 0.24737 0.0
C1396 C 0.53855 0.0703 0.21907 0.0
C1397 C 0.52438 0.0695 0.18493 0.0
H1398 H 0.53945 0.07673 0.2737 0.0
H1399 H 0.55975 0.06668 0.22335 0.0
S1400 S 0.45182 0.08258 0.16458 0.0
N1401 N 0.45792 0.08604 0.2073 0.0
N1402 N 0.48036 0.07499 0.15175 0.0
C1403 C 0.49671 0.07477 0.18254 0.0
C1404 C 0.48427 0.08092 0.2133 0.0
C1405 C 0.81572 0.82023 1.00416 0.0
C1406 C 0.80085 0.78528 0.99782 0.0
C1407 C 0.82222 0.83516 0.97671 0.0
C1408 C 0.8144 0.81571 0.94179 0.0
H1409 H 0.82424 0.83546 0.03078 0.0
H1410 H 0.83511 0.86167 0.98323 0.0
S1411 S 0.77334 0.72379 0.91092 0.0
N1412 N 0.77647 0.73224 0.95376 0.0
N1413 N 0.78938 0.76024 0.90222 0.0
C1414 C 0.79771 0.78147 0.93475 0.0
C1415 C 0.79075 0.76628 0.9628 0.0
C1416 C 0.92499 0.15428 0.13649 0.0
C1417 C 0.92697 0.17916 0.1166 0.0
C1418 C 0.93268 0.12389 0.12584 0.0
C1419 C 0.94273 0.11751 0.09498 0.0
H1420 H 0.91562 0.15731 0.15918 0.0
H1421 H 0.92943 0.10463 0.14104 0.0
S1422 S 0.9539 0.1765 0.03549 0.0
N1423 N 0.94064 0.19684 0.06592 0.0
N1424 N 0.95693 0.1404 0.04657 0.0
C1425 C 0.94655 0.14342 0.07611 0.0
C1426 C 0.93833 0.17423 0.08686 0.0
C1427 C 0.44839 0.53208 0.10633 0.0
C1428 C 0.44601 0.5046 0.12323 0.0
C1429 C 0.47461 0.54993 0.1016 0.0
C1430 C 0.49972 0.54078 0.11273 0.0
H1431 H 0.43001 0.54112 0.09795 0.0
H1432 H 0.47535 0.572 0.0901 0.0
S1433 S 0.50553 0.46901 0.15536 0.0
N1434 N 0.47141 0.4678 0.14924 0.0
N1435 N 0.52065 0.50109 0.1393 0.0
C1436 C 0.49771 0.51212 0.12766 0.0
C1437 C 0.47089 0.49413 0.13318 0.0
C1438 C 0.37631 0.60113 0.81962 0.0
C1439 C 0.40181 0.60271 0.80814 0.0
C1440 C 0.35692 0.61828 0.80678 0.0
C1441 C 0.36247 0.63799 0.78229 0.0
H1442 H 0.37169 0.58748 0.8396 0.0
H1443 H 0.33827 0.61779 0.81774 0.0
S1444 S 0.42462 0.64746 0.74094 0.0
N1445 N 0.43043 0.62302 0.76845 0.0
N1446 N 0.39394 0.65575 0.74462 0.0
C1447 C 0.38707 0.63823 0.76904 0.0
C1448 C 0.40673 0.62037 0.78182 0.0
C1449 C 0.31053 0.67785 0.67313 0.0
C1450 C 0.3141 0.7119 0.66897 0.0
C1451 C 0.28506 0.65936 0.67881 0.0
C1452 C 0.26264 0.67462 0.68145 0.0
H1453 H 0.32714 0.66482 0.67068 0.0
H1454 H 0.28271 0.63281 0.68067 0.0
S1455 S 0.26228 0.76415 0.67654 0.0
N1456 N 0.29386 0.76094 0.67044 0.0
N1457 N 0.2459 0.7262 0.68192 0.0
C1458 C 0.26633 0.70915 0.67915 0.0
C1459 C 0.29213 0.72783 0.6727 0.0
C1460 C 0.78354 0.97894 0.88981 0.0
C1461 C 0.75485 0.97541 0.87335 0.0
C1462 C 0.79717 0.95141 0.88512 0.0
C1463 C 0.78303 0.91757 0.86443 0.0
H1464 H 0.79585 1.00355 0.90693 0.0
H1465 H 0.81912 0.95674 0.89867 0.0
S1466 S 0.7073 0.89267 0.81595 0.0
N1467 N 0.71286 0.93392 0.8351 0.0
N1468 N 0.73759 0.8828 0.82727 0.0
C1469 C 0.75422 0.91351 0.84787 0.0
C1470 C 0.74052 0.9419 0.85202 0.0
C1471 C 0.77912 1.00212 0.63772 0.0
C1472 C 0.79211 0.99685 0.609 0.0
C1473 C 0.75433 1.01371 0.63528 0.0
C1474 C 0.74131 1.02001 0.60391 0.0
H1475 H 0.78842 0.99787 0.66254 0.0
H1476 H 0.74527 1.01775 0.65813 0.0
S1477 S 0.76639 1.01023 0.52097 0.0
N1478 N 0.7896 0.99875 0.54798 0.0
N1479 N 0.74324 1.02043 0.54362 0.0
C1480 C 0.75379 1.01446 0.57491 0.0
C1481 C 0.77909 1.00292 0.5774 0.0
C1482 C 0.41132 0.44582 0.87384 0.0
C1483 C 0.41135 0.46275 0.8463 0.0
C1484 C 0.38941 0.4166 0.87205 0.0
C1485 C 0.3663 0.4039 0.84306 0.0
H1486 H 0.42776 0.45617 0.89762 0.0
H1487 H 0.38978 0.40516 0.89441 0.0
S1488 S 0.35776 0.43688 0.76268 0.0
N1489 N 0.38776 0.46294 0.78794 0.0
N1490 N 0.34606 0.40845 0.78485 0.0
C1491 C 0.36687 0.41939 0.81453 0.0
C1492 C 0.38956 0.44874 0.81607 0.0
C1493 C 0.27094 0.68978 0.42183 0.0
C1494 C 0.25418 0.66222 0.39351 0.0
C1495 C 0.2827 0.72346 0.41747 0.0
C1496 C 0.27893 0.73156 0.3844 0.0
H1497 H 0.27481 0.68547 0.44793 0.0
H1498 H 0.29527 0.74324 0.4403 0.0
S1499 S 0.23696 0.6694 0.30129 0.0
N1500 N 0.23441 0.64632 0.3309 0.0
N1501 N 0.25673 0.70842 0.32265 0.0
C1502 C 0.26236 0.70423 0.35583 0.0
C1503 C 0.24999 0.67013 0.36036 0.0
C1504 C 0.5165 0.70424 0.57933 0.0
C1505 C 0.53244 0.72399 0.56039 0.0
C1506 C 0.52528 0.67749 0.59179 0.0
C1507 C 0.55107 0.6705 0.58725 0.0
H1508 H 0.49674 0.70901 0.58394 0.0
H1509 H 0.51189 0.66232 0.60523 0.0
S1510 S 0.60265 0.71677 0.54332 0.0
N1511 N 0.57639 0.7355 0.53965 0.0
N1512 N 0.59363 0.68694 0.56502 0.0
C1513 C 0.56812 0.69127 0.57031 0.0
C1514 C 0.55871 0.71764 0.55649 0.0
C1515 C 0.71902 0.32622 0.76042 0.0
C1516 C 0.70581 0.35354 0.76513 0.0
C1517 C 0.74209 0.3251 0.78592 0.0
C1518 C 0.75254 0.35115 0.81702 0.0
H1519 H 0.71063 0.30467 0.73774 0.0
H1520 H 0.75067 0.30286 0.78218 0.0
S1521 S 0.72917 0.43112 0.83937 0.0
N1522 N 0.70785 0.40945 0.80142 0.0
N1523 N 0.75055 0.40701 0.84909 0.0
C1524 C 0.74088 0.37962 0.82085 0.0
C1525 C 0.71771 0.38093 0.79499 0.0
C1526 C 1.02169 0.40972 0.08259 0.0
C1527 C 0.03485 0.39104 0.05996 0.0
C1528 C 1.02913 0.44591 0.09117 0.0
C1529 C 0.05067 0.46518 0.07834 0.0
H1530 H 1.00465 0.39633 0.09279 0.0
H1531 H 1.01754 0.45888 0.10766 0.0
S1532 S 0.09515 0.42939 0.02279 0.0
N1533 N 0.07279 0.39498 0.02788 0.0
N1534 N 0.08729 0.46309 0.04497 0.0
C1535 C 0.06564 0.44708 0.05797 0.0
C1536 C 0.05768 0.41005 0.04863 0.0
C1537 C 0.04649 0.84201 0.30123 0.0
C1538 C 0.04481 0.83204 0.26509 0.0
C1539 C 1.02192 0.83725 0.31488 0.0
C1540 C 0.99477 0.8218 0.29295 0.0
H1541 H 0.06686 0.85486 0.319 0.0
H1542 H 1.02418 0.84603 0.34283 0.0
S1543 S 0.97919 0.78784 0.19677 0.0
N1544 N 1.0141 0.80359 0.20794 0.0
N1545 N 0.96788 0.79472 0.23347 0.0
C1546 C 0.99293 0.81034 0.25691 0.0
C1547 C 1.01795 0.81551 0.243 0.0
C1548 C 0.58869 0.36214 0.22067 0.0
C1549 C 0.56494 0.33328 0.2113 0.0
C1550 C 0.59443 0.38274 0.19727 0.0
C1551 C 0.5769 0.37459 0.1637 0.0
H1552 H 0.60218 0.36972 0.24672 0.0
H1553 H 0.61202 0.40587 0.20586 0.0
S1554 S 0.51457 0.29912 0.12505 0.0
N1555 N 0.52551 0.29555 0.16528 0.0
N1556 N 0.53651 0.33442 0.12104 0.0
C1557 C 0.55424 0.34459 0.15323 0.0
C1558 C 0.54814 0.32388 0.17719 0.0
C1559 C 0.95056 0.38866 0.381 0.0
C1560 C 0.96204 0.36401 0.36328 0.0
C1561 C 0.92112 0.38386 0.37496 0.0
C1562 C 0.9025 0.35373 0.35193 0.0
H1563 H 0.96424 0.41036 0.40134 0.0
H1564 H 0.91289 0.40307 0.38961 0.0
S1565 S 0.92316 0.28234 0.29879 0.0
N1566 N 0.95352 0.30983 0.32093 0.0
N1567 N 0.89808 0.2999 0.31003 0.0
C1568 C 0.91404 0.32966 0.33308 0.0
C1569 C 0.94391 0.33515 0.33857 0.0
C1570 C 0.04382 0.70279 0.6702 0.0
C1571 C 0.05457 0.70319 0.70535 0.0
C1572 C 0.05113 0.68218 0.64254 0.0
C1573 C 0.06933 0.66109 0.64903 0.0
H1574 H 1.03008 0.71901 0.664 0.0
H1575 H 0.04181 0.68207 0.61595 0.0
S1576 S 0.10294 0.653 0.7367 0.0
N1577 N 0.0842 0.68094 0.74512 0.0
N1578 N 0.09787 0.64239 0.69374 0.0
C1579 C 0.08032 0.6617 0.68421 0.0
C1580 C 0.07291 0.68259 0.71218 0.0
C1581 C 0.62381 0.83585 0.88674 0.0
C1582 C 0.59678 0.82163 0.86429 0.0
C1583 C 0.64788 0.82796 0.87686 0.0
C1584 C 0.64565 0.80569 0.84436 0.0
H1585 H 0.62639 0.85275 0.91216 0.0
H1586 H 0.66836 0.83922 0.89484 0.0
S1587 S 0.57953 0.76187 0.77675 0.0
N1588 N 0.5691 0.78475 0.80843 0.0
N1589 N 0.61428 0.76944 0.79005 0.0
C1590 C 0.6188 0.79178 0.82163 0.0
C1591 C 0.59438 0.7999 0.83163 0.0
C1592 C 0.50874 0.54285 0.71033 0.0
C1593 C 0.50044 0.56934 0.73085 0.0
C1594 C 0.52538 0.5501 0.6859 0.0
C1595 C 0.53454 0.58403 0.68181 0.0
H1596 H 0.50321 0.51677 0.71392 0.0
H1597 H 0.53226 0.5294 0.67149 0.0
S1598 S 0.51637 0.66144 0.72731 0.0
N1599 N 0.50077 0.62984 0.74358 0.0
N1600 N 0.5323 0.64356 0.69847 0.0
C1601 C 0.52525 0.61016 0.7011 0.0
C1602 C 0.50811 0.60273 0.7254 0.0
C1603 C 0.87788 0.36242 0.14557 0.0
C1604 C 0.90337 0.35606 0.13825 0.0
C1605 C 0.86326 0.38056 0.12617 0.0
C1606 C 0.87418 0.39344 0.09968 0.0
H1607 H 0.8673 0.34949 0.16299 0.0
H1608 H 0.84181 0.38058 0.12873 0.0
S1609 S 0.94439 0.3941 0.0791 0.0
N1610 N 0.94225 0.37171 0.10933 0.0
N1611 N 0.91488 0.40664 0.07337 0.0
C1612 C 0.90208 0.39322 0.09714 0.0
C1613 C 0.91682 0.37428 0.1165 0.0
C1614 C 0.10279 0.5295 0.24385 0.0
C1615 C 0.1311 0.54893 0.25927 0.0
C1616 C 0.08745 0.5336 0.21247 0.0
C1617 C 0.09913 0.55747 0.19399 0.0
H1618 H 0.09179 0.51143 0.25688 0.0
H1619 H 0.06548 0.51854 0.20323 0.0
S1620 S 0.1728 0.61476 0.22161 0.0
N1621 N 0.17071 0.59263 0.25216 0.0
N1622 N 0.14163 0.60075 0.1936 0.0
C1623 C 0.12785 0.57634 0.20806 0.0
C1624 C 0.1438 0.57196 0.24038 0.0
C1625 C 0.83614 0.8965 0.52213 0.0
C1626 C 0.85745 0.88579 0.54208 0.0
C1627 C 0.82751 0.88399 0.4855 0.0
C1628 C 0.84023 0.86078 0.46746 0.0
H1629 H 0.8268 0.91572 0.53464 0.0
H1630 H 0.81184 0.89382 0.47112 0.0
S1631 S 0.89334 0.82016 0.5074 0.0
N1632 N 0.88807 0.84673 0.54081 0.0
N1633 N 0.87267 0.82447 0.47249 0.0
C1634 C 0.86027 0.84838 0.48721 0.0
C1635 C 0.86862 0.86049 0.52433 0.0
C1636 C 0.51518 0.58784 0.95333 0.0
C1637 C 0.51749 0.56159 0.92629 0.0
C1638 C 0.52687 0.59013 0.98844 0.0
C1639 C 0.54082 0.56583 0.99786 0.0
H1640 H 0.50446 0.60707 0.94734 0.0
H1641 H 0.52461 0.61079 1.00836 0.0
S1642 S 0.55303 0.49239 0.93705 0.0
N1643 N 0.53525 0.51117 0.9113 0.0
N1644 N 0.5569 0.51506 0.97729 0.0
C1645 C 0.54334 0.53945 0.97109 0.0
C1646 C 0.53179 0.53746 0.93529 0.0
C1647 C 0.85883 0.27223 0.21935 0.0
C1648 C 0.88672 0.29138 0.22107 0.0
C1649 C 0.83817 0.28843 0.22831 0.0
C1650 C 0.84466 0.32439 0.2399 0.0
H1651 H 0.85295 0.24432 0.21166 0.0
H1652 H 0.81745 0.27249 0.22827 0.0
S1653 S 0.9145 0.38685 0.25123 0.0
N1654 N 0.9197 0.34884 0.23598 0.0
N1655 N 0.8808 0.37902 0.25382 0.0
C1656 C 0.87225 0.34411 0.24161 0.0
C1657 C 0.89337 0.32767 0.23227 0.0
C1658 C 0.13067 0.58429 0.46152 0.0
C1659 C 0.15732 0.57634 0.46398 0.0
C1660 C 0.1168 0.58789 0.49012 0.0
C1661 C 0.12862 0.58437 0.52374 0.0
H1662 H 0.11984 0.58705 0.43673 0.0
H1663 H 0.0962 0.59317 0.48551 0.0
S1664 S 0.19834 0.5643 0.54573 0.0
N1665 N 0.195 0.5654 0.50411 0.0
N1666 N 0.16963 0.57272 0.55726 0.0
C1667 C 0.15559 0.57712 0.5269 0.0
C1668 C 0.1696 0.57298 0.49749 0.0
C1669 C 0.86301 0.85269 0.71514 0.0
C1670 C 0.86042 0.88627 0.71464 0.0
C1671 C 0.85314 0.8354 0.73994 0.0
C1672 C 0.84113 0.85143 0.7659 0.0
H1673 H 0.87255 0.83953 0.69604 0.0
H1674 H 0.8553 0.8095 0.7391 0.0
S1675 S 0.82972 0.9392 0.77654 0.0
N1676 N 0.84461 0.93466 0.74251 0.0
N1677 N 0.82707 0.90282 0.78943 0.0
C1678 C 0.83862 0.88505 0.76587 0.0
C1679 C 0.84797 0.90227 0.74018 0.0
C1680 C 0.73464 0.49067 0.62704 0.0
C1681 C 0.71605 0.46955 0.59583 0.0
C1682 C 0.72935 0.52102 0.64423 0.0
C1683 C 0.70523 0.53089 0.6308 0.0
H1684 H 0.75417 0.48469 0.63729 0.0
H1685 H 0.74467 0.53748 0.66728 0.0
S1686 S 0.64732 0.48124 0.55427 0.0
N1687 N 0.67101 0.45852 0.55483 0.0
N1688 N 0.66053 0.515 0.58792 0.0
C1689 C 0.68547 0.50875 0.60124 0.0
C1690 C 0.69103 0.47819 0.58349 0.0
C1691 C 0.19276 0.15451 0.61453 0.0
C1692 C 0.20185 0.15818 0.58352 0.0
C1693 C 0.16652 0.13202 0.61366 0.0
C1694 C 0.14869 0.11186 0.58178 0.0
H1695 H 0.20641 0.16834 0.63978 0.0
H1696 H 0.16082 0.12919 0.6382 0.0
S1697 S 0.16086 0.11447 0.49311 0.0
N1698 N 0.18949 0.14198 0.51986 0.0
N1699 N 0.14049 0.09917 0.51841 0.0
C1700 C 0.15673 0.11655 0.55056 0.0
C1701 C 0.18322 0.1399 0.55137 0.0
C1702 C 0.27298 0.07825 0.91059 0.0
C1703 C 0.24365 0.0672 0.89581 0.0
C1704 C 0.29167 0.06129 0.89663 0.0
C1705 C 0.28146 1.03276 0.86767 0.0
H1706 H 0.28159 0.10055 0.93251 0.0
H1707 H 0.31421 0.07076 0.90828 0.0
S1708 S 0.20601 0.9909 0.82298 0.0
N1709 N 0.20499 1.02439 0.85277 0.0
N1710 N 0.23995 0.99198 0.82719 0.0
C1711 C 0.25203 1.0207 0.85366 0.0
C1712 C 0.23314 0.03808 0.86758 0.0
C1713 C 0.35693 0.92819 1.00521 0.0
C1714 C 0.33426 0.9436 1.00147 0.0
C1715 C 0.38446 0.9465 1.00494 0.0
C1716 C 0.38988 0.98035 1.00026 0.0
H1717 H 0.3539 0.90297 1.01102 0.0
H1718 H 0.40185 0.93487 1.01025 0.0
S1719 S 0.33744 1.03024 0.98371 0.0
N1720 N 0.3187 0.99334 0.98877 0.0
N1721 N 0.37046 1.02716 0.98782 0.0
C1722 C 0.36715 0.99484 0.99333 0.0
C1723 C 0.33924 0.9765 0.99393 0.0
C1724 C 0.90694 0.7192 0.84652 0.0
C1725 C 0.89263 0.68624 0.85043 0.0
C1726 C 0.89363 0.74714 0.8459 0.0
C1727 C 0.86481 0.74412 0.84849 0.0
H1728 H 0.92913 0.72401 0.84526 0.0
H1729 H 0.90622 0.77155 0.84344 0.0
S1730 S 0.81743 0.66392 0.85966 0.0
N1731 N 0.8476 0.65351 0.85783 0.0
N1732 N 0.82286 0.70408 0.85524 0.0
C1733 C 0.85028 0.71113 0.85187 0.0
C1734 C 0.86399 0.6831 0.85331 0.0
C1735 C 0.87422 0.67343 0.07609 0.0
C1736 C 0.85106 0.66528 0.09203 0.0
C1737 C 0.89678 0.65819 0.08086 0.0
C1738 C 0.89718 0.63436 0.10194 0.0
H1739 H 0.87449 0.69074 0.05864 0.0
H1740 H 0.91356 0.66425 0.06695 0.0
S1741 S 0.84382 0.60812 0.15362 0.0
N1742 N 0.83119 0.63425 0.1323 0.0
N1743 N 0.87399 0.60618 0.14195 0.0
C1744 C 0.8749 0.62733 0.11949 0.0
C1745 C 0.85176 0.64266 0.11439 0.0
C1746 C 0.26204 0.2277 0.93211 0.0
C1747 C 0.23572 0.20997 0.90899 0.0
C1748 C 0.2842 0.24746 0.92089 0.0
C1749 C 0.28098 0.25091 0.88624 0.0
H1750 H 0.26626 0.22493 0.95878 0.0
H1751 H 0.30435 0.25942 0.93941 0.0
S1752 S 0.21556 0.21421 0.81621 0.0
N1753 N 0.20699 0.20041 0.85029 0.0
N1754 N 0.24889 0.23783 0.82952 0.0
C1755 C 0.25433 0.23559 0.86338 0.0
C1756 C 0.23164 0.21515 0.8747 0.0
C1757 C 0.3912 0.97621 0.3363 0.0
C1758 C 0.3835 1.00489 0.35439 0.0
C1759 C 0.37718 0.94134 0.33568 0.0
C1760 C 0.3549 0.93332 0.35339 0.0
H1761 H 0.40905 0.98072 0.32382 0.0
H1762 H 0.38475 0.92063 0.32255 0.0
S1763 S 0.32354 0.99792 0.40024 0.0
N1764 N 0.34954 1.02157 0.38711 0.0
N1765 N 0.32411 0.95747 0.38632 0.0
C1766 C 0.34614 0.96164 0.36988 0.0
C1767 C 0.3601 0.9968 0.37027 0.0
C1768 C 0.59264 0.43146 0.61862 0.0
C1769 C 0.60824 0.43324 0.65215 0.0
C1770 C 0.59002 0.46148 0.60766 0.0
C1771 C 0.60285 0.49458 0.62973 0.0
H1772 H 0.58066 0.40661 0.60166 0.0
H1773 H 0.57645 0.45866 0.58241 0.0
S1774 S 0.64693 0.51363 0.71943 0.0
N1775 N 0.63806 0.47105 0.70654 0.0
N1776 N 0.63275 0.52735 0.68609 0.0
C1777 C 0.62017 0.49687 0.66229 0.0
C1778 C 0.623 0.46622 0.67343 0.0
C1779 C 0.44134 0.84043 0.43469 0.0
C1780 C 0.44169 0.8142 0.45296 0.0
C1781 C 0.41572 0.84563 0.41858 0.0
C1782 C 0.38932 0.82507 0.42022 0.0
H1783 H 0.46098 0.8556 0.43067 0.0
H1784 H 0.41658 0.86377 0.40197 0.0
S1785 S 0.37811 0.75684 0.46943 0.0
N1786 N 0.41306 0.77052 0.47567 0.0
N1787 N 0.36491 0.78027 0.44489 0.0
C1788 C 0.38926 0.80118 0.44126 0.0
C1789 C 0.41545 0.79579 0.45782 0.0
C1790 C 0.05802 0.73099 0.13078 0.0
C1791 C 0.08381 0.75514 0.14923 0.0
C1792 C 0.05618 0.69576 0.12021 0.0
C1793 C 0.08006 0.68288 0.12723 0.0
H1794 H 0.03863 0.73901 0.12552 0.0
H1795 H 0.03559 0.67837 0.10689 0.0
S1796 S 0.1534 0.73529 0.17136 0.0
N1797 N 0.13445 0.76377 0.17155 0.0
N1798 N 0.13088 0.69735 0.15156 0.0
C1799 C 0.10637 0.70678 0.14392 0.0
C1800 C 0.10825 0.74288 0.15497 0.0
C1801 C 0.09601 0.31815 0.89811 0.0
C1802 C 0.09255 0.30938 0.92987 0.0
C1803 C 0.12258 0.32439 0.88911 0.0
C1804 C 0.14695 0.32206 0.91138 0.0
H1805 H 0.07802 0.32022 0.87981 0.0
H1806 H 0.12395 0.33071 0.8642 0.0
S1807 S 0.15001 0.30098 0.99803 0.0
N1808 N 0.11626 0.29924 0.98402 0.0
N1809 N 0.16618 0.31114 0.967 0.0
C1810 C 0.14397 0.31339 0.94325 0.0
C1811 C 0.11684 0.3071 0.95254 0.0
C1812 C 0.54252 0.7731 0.99561 0.0
C1813 C 0.51448 0.77607 0.9886 0.0
C1814 C 0.55243 0.76024 0.02377 0.0
C1815 C 0.53468 0.74982 0.04588 0.0
H1816 H 0.55719 0.7812 0.9796 0.0
H1817 H 0.57406 0.75793 0.02793 0.0
S1818 S 0.45944 0.75123 0.03884 0.0
N1819 N 0.4688 0.76651 1.00588 0.0
N1820 N 0.48794 0.74264 0.05922 0.0
C1821 C 0.50657 0.7521 0.03913 0.0
C1822 C 0.49633 0.76514 1.01037 0.0
C1823 C 0.19265 0.85389 0.7901 0.0
C1824 C 0.17453 0.82156 0.78883 0.0
C1825 C 0.21839 0.85654 0.77941 0.0
C1826 C 0.22728 0.82696 0.76714 0.0
H1827 H 0.18736 0.87758 0.80035 0.0
H1828 H 0.2321 0.8822 0.78275 0.0
S1829 S 0.18529 0.73585 0.75305 0.0
N1830 N 0.16555 0.7591 0.77024 0.0
N1831 N 0.21399 0.76398 0.75012 0.0
C1832 C 0.20836 0.79432 0.76325 0.0
C1833 C 0.18209 0.79164 0.77431 0.0
C1834 C 0.03095 0.43218 0.53906 0.0
C1835 C 0.04157 0.42792 0.50827 0.0
C1836 C 0.04458 0.45988 0.56795 0.0
C1837 C 0.06908 0.48429 0.56682 0.0
H1838 H 1.01174 0.41425 0.54078 0.0
H1839 H 0.03512 0.46318 0.59053 0.0
S1840 S 0.10646 0.48456 0.49383 0.0
N1841 N 0.07903 0.45007 0.47947 0.0
N1842 N 0.1043 0.50222 0.53374 0.0
C1843 C 0.08046 0.47992 0.53688 0.0
C1844 C 0.06681 0.45166 0.50759 0.0
C1845 C 0.49491 0.2586 0.3438 0.0
C1846 C 0.52388 0.27101 0.36015 0.0
C1847 C 0.4752 0.27547 0.35487 0.0
C1848 C 0.4839 0.30549 0.38223 0.0
H1849 H 0.48801 0.23834 0.3199 0.0
H1850 H 0.45352 0.267 0.33987 0.0
S1851 S 0.55636 0.34376 0.43797 0.0
N1852 N 0.55947 0.31095 0.40893 0.0
N1853 N 0.52246 0.34336 0.4291 0.0
C1854 C 0.51204 0.31525 0.40171 0.0
C1855 C 0.53205 0.29765 0.39082 0.0
C1856 C 0.61322 0.629 0.49211 0.0
C1857 C 0.63841 0.62196 0.48487 0.0
C1858 C 0.60054 0.61518 0.51705 0.0
C1859 C 0.61245 0.59356 0.53506 0.0
H1860 H 0.6029 0.64452 0.47788 0.0
H1861 H 0.58081 0.62053 0.5215 0.0
S1862 S 0.67757 0.56649 0.5256 0.0
N1863 N 0.67471 0.59166 0.49819 0.0
N1864 N 0.6503 0.56578 0.54446 0.0
C1865 C 0.63758 0.58661 0.52849 0.0
C1866 C 0.65078 0.60092 0.5036 0.0
C1867 C 0.24886 0.8239 0.10795 0.0
C1868 C 0.25618 0.80898 0.07718 0.0
C1869 C 0.25226 0.81018 0.13737 0.0
C1870 C 0.26281 0.78096 0.13676 0.0
H1871 H 0.24304 0.84812 0.11055 0.0
H1872 H 0.24919 0.82453 0.16157 0.0
S1873 S 0.27692 0.72672 0.05954 0.0
N1874 N 0.26869 0.75948 0.04555 0.0
N1875 N 0.27449 0.73327 0.10091 0.0
C1876 C 0.26645 0.76319 0.1048 0.0
C1877 C 0.26328 0.77734 0.07493 0.0
C1878 C 0.99484 0.6057 0.97492 0.0
C1879 C 0.99622 0.58832 0.94104 0.0
C1880 C 1.01147 0.60189 1.0064 0.0
C1881 C 0.03041 0.58052 1.00566 0.0
H1882 H 0.98155 0.62335 0.9772 0.0
H1883 H 1.0105 0.61713 0.03131 0.0
S1884 S 0.04047 0.52678 0.92484 0.0
N1885 N 1.01715 0.54672 0.91015 0.0
N1886 N 0.04783 0.54029 0.96782 0.0
C1887 C 0.03102 0.56217 0.97216 0.0
C1888 C 1.01418 0.56579 0.94048 0.0
C1889 C 0.33833 0.29621 0.69997 0.0
C1890 C 0.31339 0.27683 0.67505 0.0
C1891 C 0.33846 0.30548 0.73562 0.0
C1892 C 0.31362 0.2962 0.74823 0.0
H1893 H 0.35835 0.30346 0.69218 0.0
H1894 H 0.35846 0.31975 0.75355 0.0
S1895 S 0.24199 0.24804 0.69414 0.0
N1896 N 0.26256 0.25051 0.66564 0.0
N1897 N 0.2629 0.26825 0.73281 0.0
C1898 C 0.28817 0.27825 0.72366 0.0
C1899 C 0.28805 0.26847 0.68712 0.0
C1900 C 0.61923 0.55288 0.25943 0.0
C1901 C 0.63287 0.58549 0.28229 0.0
C1902 C 0.60908 0.54954 0.22356 0.0
C1903 C 0.61227 0.57869 0.20925 0.0
H1904 H 0.61591 0.52976 0.26936 0.0
H1905 H 0.59819 0.52405 0.20716 0.0
S1906 S 0.64896 0.66967 0.25748 0.0
N1907 N 0.65054 0.6472 0.28756 0.0
N1908 N 0.63202 0.64115 0.22064 0.0
C1909 C 0.62675 0.61134 0.23175 0.0
C1910 C 0.63689 0.61469 0.26811 0.0
C1911 C 0.24472 0.82507 0.90956 0.0
C1912 C 0.24686 0.85882 0.92793 0.0
C1913 C 0.26073 0.81905 0.88464 0.0
C1914 C 0.27911 0.84657 0.8766 0.0
H1915 H 0.2323 0.80296 0.91654 0.0
H1916 H 0.25948 0.79251 0.87256 0.0
S1917 S 0.28686 0.93965 0.91032 0.0
N1918 N 0.26498 0.92029 0.93187 0.0
N1919 N 0.29467 0.90862 0.88375 0.0
C1920 C 0.27893 0.88043 0.89147 0.0
C1921 C 0.26278 0.88668 0.91741 0.0
C1922 C 0.9882 0.58414 0.71413 0.0
C1923 C 1.00088 0.5811 0.7477 0.0
C1924 C 1.00078 0.57788 0.68424 0.0
C1925 C 1.02675 0.56807 0.686 0.0
H1926 H 0.96899 0.59277 0.71113 0.0
H1927 H 0.99055 0.58207 0.65985 0.0
S1928 S 0.06729 0.55284 0.76632 0.0
N1929 N 0.04026 0.5648 0.7791 0.0
N1930 N 0.06309 0.5534 0.72462 0.0
C1931 C 0.03878 0.56367 0.71906 0.0
C1932 C 1.02617 0.57002 0.74913 0.0
C1933 C 0.30994 0.32464 0.50475 0.0
C1934 C 0.29996 0.28866 0.4996 0.0
C1935 C 0.31469 0.33967 0.47668 0.0
C1936 C 0.31064 0.31917 0.44264 0.0
H1937 H 0.31561 0.34109 0.53096 0.0
H1938 H 0.32331 0.36743 0.48218 0.0
S1939 S 0.28423 0.22348 0.41556 0.0
N1940 N 0.28474 0.23299 0.45779 0.0
N1941 N 0.29524 0.26084 0.40549 0.0
C1942 C 0.29954 0.28321 0.43698 0.0
C1943 C 0.29384 0.26807 0.46536 0.0
C1944 C 0.44207 0.677 0.57378 0.0
C1945 C 0.44511 0.67583 0.6092 0.0
C1946 C 0.44466 0.64944 0.54876 0.0
C1947 C 0.44946 0.6197 0.55848 0.0
H1948 H 0.43682 0.69883 0.56518 0.0
H1949 H 0.44248 0.65112 0.52173 0.0
S1950 S 0.46018 0.605 0.64813 0.0
N1951 N 0.45414 0.64351 0.65289 0.0
N1952 N 0.45904 0.59161 0.60612 0.0
C1953 C 0.45319 0.61872 0.59399 0.0
C1954 C 0.45091 0.6468 0.6193 0.0
C1955 C 0.97279 0.99695 0.63384 0.0
C1956 C 0.94748 1.0045 0.61941 0.0
C1957 C 0.99935 1.01346 0.62804 0.0
C1958 C 1.00146 0.03811 0.60771 0.0
H1959 H 0.97233 0.97954 0.65118 0.0
H1960 H 1.01847 1.00867 0.64144 0.0
S1961 S 0.94176 0.0636 0.55992 0.0
N1962 N 0.92645 0.03554 0.5803 0.0
N1963 N 0.97611 0.06677 0.57047 0.0
C1964 C 0.9763 0.04419 0.59142 0.0
C1965 C 0.94938 1.02729 0.59692 0.0
C1966 C 0.88478 0.10475 0.29499 0.0
C1967 C 0.91023 0.121 0.31995 0.0
C1968 C 0.865 0.12334 0.2866 0.0
C1969 C 0.8705 0.15868 0.30254 0.0
H1970 H 0.87956 0.0773 0.28324 0.0
H1971 H 0.84507 0.10992 0.26817 0.0
S1972 S 0.93505 0.21299 0.36814 0.0
N1973 N 0.94054 0.1742 0.3594 0.0
N1974 N 0.9037 0.20927 0.34346 0.0
C1975 C 0.8965 0.17534 0.32643 0.0
C1976 C 0.91632 0.15641 0.3352 0.0
C1977 C 0.76864 0.1722 0.10686 0.0
C1978 C 0.79603 0.18391 0.12828 0.0
C1979 C 0.74708 0.1492 0.11588 0.0
C1980 C 0.75248 0.1369 0.14629 0.0
H1981 H 0.76378 0.18126 0.08334 0.0
H1982 H 0.72587 0.14166 0.09941 0.0
S1983 S 0.82204 0.15498 0.20721 0.0
N1984 N 0.82843 0.17842 0.17861 0.0
N1985 N 0.78774 0.13518 0.19562 0.0
C1986 C 0.78011 0.14728 0.16703 0.0
C1987 C 0.80199 0.17079 0.15796 0.0
C1988 C 0.283 0.47909 0.39556 0.0
C1989 C 0.25667 0.47854 0.37422 0.0
C1990 C 0.29637 0.45138 0.3905 0.0
C1991 C 0.2842 0.42022 0.36429 0.0
H1992 H 0.29359 0.50139 0.41693 0.0
H1993 H 0.31635 0.45419 0.40817 0.0
S1994 S 0.21619 0.40456 0.29955 0.0
N1995 N 0.21979 0.44333 0.32417 0.0
N1996 N 0.24399 0.39175 0.31551 0.0
C1997 C 0.258 0.41927 0.34246 0.0
C1998 C 0.24466 0.44796 0.34712 0.0
C1999 C 0.27377 0.49285 0.11597 0.0
C2000 C 0.2926 0.50779 0.1488 0.0
C2001 C 0.24878 0.50298 0.10673 0.0
C2002 C 0.2414 0.52816 0.13007 0.0
H2003 H 0.27859 0.47363 0.09687 0.0
H2004 H 0.23521 0.49118 0.08098 0.0
S2005 S 0.28281 0.5751 0.2193 0.0
N2006 N 0.30157 0.54898 0.20492 0.0
N2007 N 0.25468 0.56775 0.18736 0.0
C2008 C 0.2596 0.5428 0.16317 0.0
C2009 C 0.28515 0.53271 0.17257 0.0
C2010 C 0.90949 0.95189 0.37221 0.0
C2011 C 0.90937 0.96981 0.34544 0.0
C2012 C 0.88739 0.92273 0.37005 0.0
C2013 C 0.86389 0.91098 0.34148 0.0
H2014 H 0.92637 0.96123 0.3956 0.0
H2015 H 0.88808 0.9104 0.39179 0.0
S2016 S 0.85438 0.94735 0.26337 0.0
N2017 N 0.88489 0.97238 0.28839 0.0
N2018 N 0.84281 0.91802 0.28467 0.0
C2019 C 0.86408 0.92775 0.31382 0.0
C2020 C 0.88697 0.95707 0.31571 0.0
C2021 C 0.75373 0.16816 0.86281 0.0
C2022 C 0.75423 0.16049 0.89598 0.0
C2023 C 0.76678 0.2017 0.85897 0.0
C2024 C 0.78038 0.22999 0.88804 0.0
H2025 H 0.74346 0.1479 0.83941 0.0
H2026 H 0.76581 0.20558 0.83276 0.0
S2027 S 0.78732 0.22482 0.98091 0.0
N2028 N 0.7699 0.18512 0.95869 0.0
N2029 N 0.79311 0.24738 0.95143 0.0
C2030 C 0.78066 0.22282 0.92132 0.0
C2031 C 0.76803 0.18852 0.92526 0.0
loop_
_geom_bond_atom_site_label_1
_geom_bond_atom_site_label_2
_geom_bond_distance
_geom_bond_site_symmetry_2
_ccdc_geom_bond_type
Mg0 O1 2.029 . S
Mg0 O7 1.986 . S
Mg0 O9 2.112 1_455 S
Mg0 O10 2.249 1_455 S
Mg0 O13 2.012 . S
O1 Mg0 2.029 . S
O1 C4 1.250 . S
O2 Mg3 2.028 . S
O2 C4 1.248 1_655 S
Mg3 O2 2.028 . S
Mg3 O8 2.032 . S
Mg3 O10 2.079 . S
C4 O1 1.250 . S
C4 O2 1.248 1_455 S
C5 O6 1.264 . S
C5 O13 1.249 . S
O6 C5 1.264 . S
O7 Mg0 1.986 . S
O7 C11 1.246 1_455 S
O8 Mg3 2.032 . S
O8 C11 1.259 . S
O9 Mg0 2.112 1_655 S
O9 C12 1.252 . S
O10 Mg0 2.249 1_655 S
O10 Mg3 2.079 . S
O10 C12 1.273 . S
C11 O7 1.246 1_655 S
C11 O8 1.259 . S
C12 O9 1.252 . S
C12 O10 1.273 . S
O13 Mg0 2.012 . S
O13 C5 1.249 . S
Mg14 O15 2.028 . S
Mg14 O21 1.986 . S
Mg14 O23 2.114 . S
Mg14 O24 2.251 . S
Mg14 O27 2.010 . S
O15 Mg14 2.028 . S
O15 C18 1.250 . S
O16 Mg17 2.028 . S
O16 C18 1.248 . S
Mg17 O16 2.028 . S
Mg17 O22 2.032 . S
Mg17 O24 2.079 . S
C18 O15 1.250 . S
C18 O16 1.248 . S
C19 O20 1.264 . S
C19 O27 1.249 . S
O20 C19 1.264 . S
O21 Mg14 1.986 . S
O21 C25 1.246 . S
O22 Mg17 2.032 . S
O22 C25 1.259 . S
O23 Mg14 2.114 . S
O23 C26 1.252 . S
O24 Mg14 2.251 . S
O24 Mg17 2.079 . S
O24 C26 1.273 . S
C25 O21 1.246 . S
C25 O22 1.259 . S
C26 O23 1.252 . S
C26 O24 1.273 . S
O27 Mg14 2.010 . S
O27 C19 1.249 . S
Mg28 O29 2.028 . S
Mg28 O35 1.986 . S
Mg28 O37 2.114 . S
Mg28 O38 2.251 . S
Mg28 O41 2.010 . S
O29 Mg28 2.028 . S
O29 C32 1.250 . S
O30 Mg31 2.028 . S
O30 C32 1.248 . S
Mg31 O30 2.028 . S
Mg31 O36 2.032 . S
Mg31 O38 2.079 . S
C32 O29 1.250 . S
C32 O30 1.248 . S
C33 O34 1.264 . S
C33 O41 1.249 . S
O34 C33 1.264 . S
O35 Mg28 1.986 . S
O35 C39 1.246 . S
O36 Mg31 2.032 . S
O36 C39 1.259 . S
O37 Mg28 2.114 . S
O37 C40 1.252 . S
O38 Mg28 2.251 . S
O38 Mg31 2.079 . S
O38 C40 1.273 . S
C39 O35 1.246 . S
C39 O36 1.259 . S
C40 O37 1.252 . S
C40 O38 1.273 . S
O41 Mg28 2.010 . S
O41 C33 1.249 . S
Mg42 O43 2.028 . S
Mg42 O49 1.986 . S
Mg42 O51 2.114 . S
Mg42 O52 2.251 . S
Mg42 O55 2.010 . S
O43 Mg42 2.028 . S
O43 C46 1.250 . S
O44 Mg45 2.028 . S
O44 C46 1.248 . S
Mg45 O44 2.028 . S
Mg45 O50 2.032 . S
Mg45 O52 2.079 . S
C46 O43 1.250 . S
C46 O44 1.248 . S
C47 O48 1.264 . S
C47 O55 1.249 . S
O48 C47 1.264 . S
O49 Mg42 1.986 . S
O49 C53 1.246 . S
O50 Mg45 2.032 . S
O50 C53 1.259 . S
O51 Mg42 2.114 . S
O51 C54 1.252 . S
O52 Mg42 2.251 . S
O52 Mg45 2.079 . S
O52 C54 1.273 . S
C53 O49 1.246 . S
C53 O50 1.259 . S
C54 O51 1.252 . S
C54 O52 1.273 . S
O55 Mg42 2.010 . S
O55 C47 1.249 . S
Mg56 O57 2.028 . S
Mg56 O63 1.986 . S
Mg56 O65 2.114 . S
Mg56 O66 2.251 . S
Mg56 O69 2.010 . S
O57 Mg56 2.028 . S
O57 C60 1.250 . S
O58 Mg59 2.028 . S
O58 C60 1.248 . S
Mg59 O58 2.028 . S
Mg59 O64 2.032 . S
Mg59 O66 2.079 . S
C60 O57 1.250 . S
C60 O58 1.248 . S
C61 O62 1.264 . S
C61 O69 1.249 . S
O62 C61 1.264 . S
O63 Mg56 1.986 . S
O63 C67 1.246 . S
O64 Mg59 2.032 . S
O64 C67 1.259 . S
O65 Mg56 2.114 . S
O65 C68 1.252 . S
O66 Mg56 2.251 . S
O66 Mg59 2.079 . S
O66 C68 1.273 . S
C67 O63 1.246 . S
C67 O64 1.259 . S
C68 O65 1.252 . S
C68 O66 1.273 . S
O69 Mg56 2.010 . S
O69 C61 1.249 . S
Mg70 O71 2.028 . S
Mg70 O77 1.986 . S
Mg70 O79 2.114 . S
Mg70 O80 2.251 . S
Mg70 O83 2.010 . S
O71 Mg70 2.028 . S
O71 C74 1.250 . S
O72 Mg73 2.028 . S
O72 C74 1.248 . S
Mg73 O72 2.028 . S
Mg73 O78 2.032 . S
Mg73 O80 2.079 . S
C74 O71 1.250 . S
C74 O72 1.248 . S
C75 O76 1.264 . S
C75 O83 1.249 . S
O76 C75 1.264 . S
O77 Mg70 1.986 . S
O77 C81 1.246 . S
O78 Mg73 2.032 . S
O78 C81 1.259 . S
O79 Mg70 2.114 . S
O79 C82 1.252 . S
O80 Mg70 2.251 . S
O80 Mg73 2.079 . S
O80 C82 1.273 . S
C81 O77 1.246 . S
C81 O78 1.259 . S
C82 O79 1.252 . S
C82 O80 1.273 . S
O83 Mg70 2.010 . S
O83 C75 1.249 . S
Mg84 O85 2.028 . S
Mg84 O91 1.986 . S
Mg84 O93 2.114 . S
Mg84 O94 2.251 . S
Mg84 O97 2.010 . S
O85 Mg84 2.028 . S
O85 C88 1.250 . S
O86 Mg87 2.028 . S
O86 C88 1.248 . S
Mg87 O86 2.028 . S
Mg87 O92 2.032 . S
Mg87 O94 2.079 . S
C88 O85 1.250 . S
C88 O86 1.248 . S
C89 O90 1.264 . S
C89 O97 1.249 . S
O90 C89 1.264 . S
O91 Mg84 1.986 . S
O91 C95 1.246 . S
O92 Mg87 2.032 . S
O92 C95 1.259 . S
O93 Mg84 2.114 . S
O93 C96 1.252 . S
O94 Mg84 2.251 . S
O94 Mg87 2.079 . S
O94 C96 1.273 . S
C95 O91 1.246 . S
C95 O92 1.259 . S
C96 O93 1.252 . S
C96 O94 1.273 . S
O97 Mg84 2.010 . S
O97 C89 1.249 . S
Mg98 O99 2.028 1_556 S
Mg98 O105 1.986 1_556 S
Mg98 O107 2.114 1_455 S
Mg98 O108 2.251 1_455 S
Mg98 O111 2.010 . S
O99 Mg98 2.028 1_554 S
O99 C102 1.250 . S
O100 Mg101 2.028 . S
O100 C102 1.248 1_655 S
Mg101 O100 2.028 . S
Mg101 O106 2.032 . S
Mg101 O108 2.079 1_554 S
C102 O99 1.250 . S
C102 O100 1.248 1_455 S
C103 O104 1.264 . S
C103 O111 1.249 . S
O104 C103 1.264 . S
O105 Mg98 1.986 1_554 S
O105 C109 1.246 . S
O106 Mg101 2.032 . S
O106 C109 1.259 1_655 S
O107 Mg98 2.114 1_655 S
O107 C110 1.252 . S
O108 Mg98 2.251 1_655 S
O108 Mg101 2.079 1_556 S
O108 C110 1.273 . S
C109 O105 1.246 . S
C109 O106 1.259 1_455 S
C110 O107 1.252 . S
C110 O108 1.273 . S
O111 Mg98 2.010 . S
O111 C103 1.249 . S
Mg112 O113 2.028 . S
Mg112 O119 1.986 . S
Mg112 O121 2.114 . S
Mg112 O122 2.251 . S
Mg112 O125 2.010 . S
O113 Mg112 2.028 . S
O113 C116 1.250 1_545 S
O114 Mg115 2.028 . S
O114 C116 1.248 1_545 S
Mg115 O114 2.028 . S
Mg115 O120 2.032 . S
Mg115 O122 2.079 . S
C116 O113 1.250 1_565 S
C116 O114 1.248 1_565 S
C117 O118 1.264 . S
C117 O125 1.249 . S
O118 C117 1.264 . S
O119 Mg112 1.986 . S
O119 C123 1.246 . S
O120 Mg115 2.032 . S
O120 C123 1.259 . S
O121 Mg112 2.114 . S
O121 C124 1.252 . S
O122 Mg112 2.251 . S
O122 Mg115 2.079 . S
O122 C124 1.273 . S
C123 O119 1.246 . S
C123 O120 1.259 . S
C124 O121 1.252 . S
C124 O122 1.273 . S
O125 Mg112 2.010 . S
O125 C117 1.249 . S
Mg126 O127 2.028 . S
Mg126 O133 1.986 . S
Mg126 O135 2.114 . S
Mg126 O136 2.251 . S
Mg126 O139 2.010 . S
O127 Mg126 2.028 . S
O127 C130 1.250 . S
O128 Mg129 2.028 . S
O128 C130 1.248 . S
Mg129 O128 2.028 . S
Mg129 O134 2.032 . S
Mg129 O136 2.079 . S
C130 O127 1.250 . S
C130 O128 1.248 . S
C131 O132 1.264 . S
C131 O139 1.249 . S
O132 C131 1.264 . S
O133 Mg126 1.986 . S
O133 C137 1.246 . S
O134 Mg129 2.032 . S
O134 C137 1.259 . S
O135 Mg126 2.114 . S
O135 C138 1.252 . S
O136 Mg126 2.251 . S
O136 Mg129 2.079 . S
O136 C138 1.273 . S
C137 O133 1.246 . S
C137 O134 1.259 . S
C138 O135 1.252 . S
C138 O136 1.273 . S
O139 Mg126 2.010 . S
O139 C131 1.249 . S
Mg140 O141 2.028 . S
Mg140 O147 1.986 . S
Mg140 O149 2.114 . S
Mg140 O150 2.251 . S
Mg140 O153 2.010 . S
O141 Mg140 2.028 . S
O141 C144 1.250 . S
O142 Mg143 2.028 . S
O142 C144 1.248 . S
Mg143 O142 2.028 . S
Mg143 O148 2.032 . S
Mg143 O150 2.079 . S
C144 O141 1.250 . S
C144 O142 1.248 . S
C145 O146 1.264 . S
C145 O153 1.249 . S
O146 C145 1.264 . S
O147 Mg140 1.986 . S
O147 C151 1.246 . S
O148 Mg143 2.032 . S
O148 C151 1.259 . S
O149 Mg140 2.114 . S
O149 C152 1.252 . S
O150 Mg140 2.251 . S
O150 Mg143 2.079 . S
O150 C152 1.273 . S
C151 O147 1.246 . S
C151 O148 1.259 . S
C152 O149 1.252 . S
C152 O150 1.273 . S
O153 Mg140 2.010 . S
O153 C145 1.249 . S
Mg154 O155 2.028 1_554 S
Mg154 O161 1.986 . S
Mg154 O163 2.114 . S
Mg154 O164 2.251 . S
Mg154 O167 2.010 . S
O155 Mg154 2.028 1_556 S
O155 C158 1.250 . S
O156 Mg157 2.028 1_556 S
O156 C158 1.248 . S
Mg157 O156 2.028 1_554 S
Mg157 O162 2.032 . S
Mg157 O164 2.079 . S
C158 O155 1.250 . S
C158 O156 1.248 . S
C159 O160 1.264 . S
C159 O167 1.249 . S
O160 C159 1.264 . S
O161 Mg154 1.986 . S
O161 C165 1.246 . S
O162 Mg157 2.032 . S
O162 C165 1.259 . S
O163 Mg154 2.114 . S
O163 C166 1.252 . S
O164 Mg154 2.251 . S
O164 Mg157 2.079 . S
O164 C166 1.273 . S
C165 O161 1.246 . S
C165 O162 1.259 . S
C166 O163 1.252 . S
C166 O164 1.273 . S
O167 Mg154 2.010 . S
O167 C159 1.249 . S
Mg168 O169 2.028 . S
Mg168 O175 1.986 . S
Mg168 O177 2.114 . S
Mg168 O178 2.251 . S
Mg168 O181 2.010 . S
O169 Mg168 2.028 . S
O169 C172 1.250 . S
O170 Mg171 2.028 . S
O170 C172 1.248 . S
Mg171 O170 2.028 . S
Mg171 O176 2.032 . S
Mg171 O178 2.079 . S
C172 O169 1.250 . S
C172 O170 1.248 . S
C173 O174 1.264 . S
C173 O181 1.249 . S
O174 C173 1.264 . S
O175 Mg168 1.986 . S
O175 C179 1.246 . S
O176 Mg171 2.032 . S
O176 C179 1.259 . S
O177 Mg168 2.114 . S
O177 C180 1.252 . S
O178 Mg168 2.251 . S
O178 Mg171 2.079 . S
O178 C180 1.273 . S
C179 O175 1.246 . S
C179 O176 1.259 . S
C180 O177 1.252 . S
C180 O178 1.273 . S
O181 Mg168 2.010 . S
O181 C173 1.249 . S
Mg182 O183 2.028 . S
Mg182 O189 1.986 . S
Mg182 O191 2.114 . S
Mg182 O192 2.251 . S
Mg182 O195 2.010 . S
O183 Mg182 2.028 . S
O183 C186 1.250 . S
O184 Mg185 2.028 . S
O184 C186 1.248 . S
Mg185 O184 2.028 . S
Mg185 O190 2.032 . S
Mg185 O192 2.079 . S
C186 O183 1.250 . S
C186 O184 1.248 . S
C187 O188 1.264 . S
C187 O195 1.249 . S
O188 C187 1.264 . S
O189 Mg182 1.986 . S
O189 C193 1.246 . S
O190 Mg185 2.032 . S
O190 C193 1.259 . S
O191 Mg182 2.114 . S
O191 C194 1.252 . S
O192 Mg182 2.251 . S
O192 Mg185 2.079 . S
O192 C194 1.273 . S
C193 O189 1.246 . S
C193 O190 1.259 . S
C194 O191 1.252 . S
C194 O192 1.273 . S
O195 Mg182 2.010 . S
O195 C187 1.249 . S
Mg196 O197 2.028 . S
Mg196 O203 1.986 . S
Mg196 O205 2.114 . S
Mg196 O206 2.251 . S
Mg196 O209 2.010 . S
O197 Mg196 2.028 . S
O197 C200 1.250 . S
O198 Mg199 2.028 . S
O198 C200 1.248 . S
Mg199 O198 2.028 . S
Mg199 O204 2.032 . S
Mg199 O206 2.079 . S
C200 O197 1.250 . S
C200 O198 1.248 . S
C201 O202 1.264 . S
C201 O209 1.249 . S
O202 C201 1.264 . S
O203 Mg196 1.986 . S
O203 C207 1.246 . S
O204 Mg199 2.032 . S
O204 C207 1.259 . S
O205 Mg196 2.114 . S
O205 C208 1.252 . S
O206 Mg196 2.251 . S
O206 Mg199 2.079 . S
O206 C208 1.273 . S
C207 O203 1.246 . S
C207 O204 1.259 . S
C208 O205 1.252 . S
C208 O206 1.273 . S
O209 Mg196 2.010 . S
O209 C201 1.249 . S
Mg210 O211 2.028 . S
Mg210 O217 1.986 . S
Mg210 O219 2.114 . S
Mg210 O220 2.251 . S
Mg210 O223 2.010 . S
O211 Mg210 2.028 . S
O211 C214 1.250 . S
O212 Mg213 2.028 . S
O212 C214 1.248 . S
Mg213 O212 2.028 . S
Mg213 O218 2.032 . S
Mg213 O220 2.079 . S
C214 O211 1.250 . S
C214 O212 1.248 . S
C215 O216 1.264 . S
C215 O223 1.249 . S
O216 C215 1.264 . S
O217 Mg210 1.986 . S
O217 C221 1.246 . S
O218 Mg213 2.032 . S
O218 C221 1.259 . S
O219 Mg210 2.114 . S
O219 C222 1.252 . S
O220 Mg210 2.251 . S
O220 Mg213 2.079 . S
O220 C222 1.273 . S
C221 O217 1.246 . S
C221 O218 1.259 . S
C222 O219 1.252 . S
C222 O220 1.273 . S
O223 Mg210 2.010 . S
O223 C215 1.249 . S
Mg224 O225 2.028 1_545 S
Mg224 O231 1.986 . S
Mg224 O233 2.114 . S
Mg224 O234 2.251 . S
Mg224 O237 2.010 . S
O225 Mg224 2.028 1_565 S
O225 C228 1.250 . S
O226 Mg227 2.028 1_565 S
O226 C228 1.248 . S
Mg227 O226 2.028 1_545 S
Mg227 O232 2.032 . S
Mg227 O234 2.079 . S
C228 O225 1.250 . S
C228 O226 1.248 . S
C229 O230 1.264 . S
C229 O237 1.249 . S
O230 C229 1.264 . S
O231 Mg224 1.986 . S
O231 C235 1.246 . S
O232 Mg227 2.032 . S
O232 C235 1.259 . S
O233 Mg224 2.114 . S
O233 C236 1.252 . S
O234 Mg224 2.251 . S
O234 Mg227 2.079 . S
O234 C236 1.273 . S
C235 O231 1.246 . S
C235 O232 1.259 . S
C236 O233 1.252 . S
C236 O234 1.273 . S
O237 Mg224 2.010 . S
O237 C229 1.249 . S
Mg238 O239 2.028 . S
Mg238 O245 1.986 . S
Mg238 O247 2.114 . S
Mg238 O248 2.251 . S
Mg238 O251 2.010 . S
O239 Mg238 2.028 . S
O239 C242 1.250 . S
O240 Mg241 2.028 . S
O240 C242 1.248 . S
Mg241 O240 2.028 . S
Mg241 O246 2.032 . S
Mg241 O248 2.079 . S
C242 O239 1.250 . S
C242 O240 1.248 . S
C243 O244 1.264 . S
C243 O251 1.249 . S
O244 C243 1.264 . S
O245 Mg238 1.986 . S
O245 C249 1.246 . S
O246 Mg241 2.032 . S
O246 C249 1.259 . S
O247 Mg238 2.114 . S
O247 C250 1.252 . S
O248 Mg238 2.251 . S
O248 Mg241 2.079 . S
O248 C250 1.273 . S
C249 O245 1.246 . S
C249 O246 1.259 . S
C250 O247 1.252 . S
C250 O248 1.273 . S
O251 Mg238 2.010 . S
O251 C243 1.249 . S
Mg252 O253 2.028 . S
Mg252 O259 1.986 . S
Mg252 O261 2.114 . S
Mg252 O262 2.251 . S
Mg252 O265 2.010 . S
O253 Mg252 2.028 . S
O253 C256 1.250 . S
O254 Mg255 2.028 . S
O254 C256 1.248 . S
Mg255 O254 2.028 . S
Mg255 O260 2.032 . S
Mg255 O262 2.079 . S
C256 O253 1.250 . S
C256 O254 1.248 . S
C257 O258 1.264 . S
C257 O265 1.249 . S
O258 C257 1.264 . S
O259 Mg252 1.986 . S
O259 C263 1.246 . S
O260 Mg255 2.032 . S
O260 C263 1.259 . S
O261 Mg252 2.114 . S
O261 C264 1.252 . S
O262 Mg252 2.251 . S
O262 Mg255 2.079 . S
O262 C264 1.273 . S
C263 O259 1.246 . S
C263 O260 1.259 . S
C264 O261 1.252 . S
C264 O262 1.273 . S
O265 Mg252 2.010 . S
O265 C257 1.249 . S
Mg266 O267 2.028 . S
Mg266 O273 1.986 . S
Mg266 O275 2.114 . S
Mg266 O276 2.251 . S
Mg266 O279 2.010 . S
O267 Mg266 2.028 . S
O267 C270 1.250 . S
O268 Mg269 2.028 . S
O268 C270 1.248 . S
Mg269 O268 2.028 . S
Mg269 O274 2.032 . S
Mg269 O276 2.079 . S
C270 O267 1.250 . S
C270 O268 1.248 . S
C271 O272 1.264 1_545 S
C271 O279 1.249 . S
O272 C271 1.264 1_565 S
O273 Mg266 1.986 . S
O273 C277 1.246 . S
O274 Mg269 2.032 . S
O274 C277 1.259 . S
O275 Mg266 2.114 . S
O275 C278 1.252 . S
O276 Mg266 2.251 . S
O276 Mg269 2.079 . S
O276 C278 1.273 . S
C277 O273 1.246 . S
C277 O274 1.259 . S
C278 O275 1.252 . S
C278 O276 1.273 . S
O279 Mg266 2.010 . S
O279 C271 1.249 . S
Mg280 O281 2.028 . S
Mg280 O287 1.986 . S
Mg280 O289 2.114 . S
Mg280 O290 2.251 . S
Mg280 O293 2.010 . S
O281 Mg280 2.028 . S
O281 C284 1.250 . S
O282 Mg283 2.028 . S
O282 C284 1.248 . S
Mg283 O282 2.028 . S
Mg283 O288 2.032 . S
Mg283 O290 2.079 . S
C284 O281 1.250 . S
C284 O282 1.248 . S
C285 O286 1.264 . S
C285 O293 1.249 . S
O286 C285 1.264 . S
O287 Mg280 1.986 . S
O287 C291 1.246 . S
O288 Mg283 2.032 . S
O288 C291 1.259 . S
O289 Mg280 2.114 . S
O289 C292 1.252 . S
O290 Mg280 2.251 . S
O290 Mg283 2.079 . S
O290 C292 1.273 . S
C291 O287 1.246 . S
C291 O288 1.259 . S
C292 O289 1.252 . S
C292 O290 1.273 . S
O293 Mg280 2.010 . S
O293 C285 1.249 . S
Mg294 O295 2.028 . S
Mg294 O301 1.986 . S
Mg294 O303 2.114 . S
Mg294 O304 2.251 . S
Mg294 O307 2.010 . S
O295 Mg294 2.028 . S
O295 C298 1.250 . S
O296 Mg297 2.028 . S
O296 C298 1.248 . S
Mg297 O296 2.028 . S
Mg297 O302 2.032 . S
Mg297 O304 2.079 . S
C298 O295 1.250 . S
C298 O296 1.248 . S
C299 O300 1.264 . S
C299 O307 1.249 . S
O300 C299 1.264 . S
O301 Mg294 1.986 . S
O301 C305 1.246 . S
O302 Mg297 2.032 . S
O302 C305 1.259 . S
O303 Mg294 2.114 . S
O303 C306 1.252 . S
O304 Mg294 2.251 . S
O304 Mg297 2.079 . S
O304 C306 1.273 . S
C305 O301 1.246 . S
C305 O302 1.259 . S
C306 O303 1.252 . S
C306 O304 1.273 . S
O307 Mg294 2.010 . S
O307 C299 1.249 . S
Mg308 O309 2.028 . S
Mg308 O315 1.986 . S
Mg308 O317 2.114 . S
Mg308 O318 2.251 . S
Mg308 O321 2.010 . S
O309 Mg308 2.028 . S
O309 C312 1.250 . S
O310 Mg311 2.028 . S
O310 C312 1.248 . S
Mg311 O310 2.028 . S
Mg311 O316 2.032 . S
Mg311 O318 2.079 . S
C312 O309 1.250 . S
C312 O310 1.248 . S
C313 O314 1.264 . S
C313 O321 1.249 . S
O314 C313 1.264 . S
O315 Mg308 1.986 . S
O315 C319 1.246 . S
O316 Mg311 2.032 . S
O316 C319 1.259 . S
O317 Mg308 2.114 . S
O317 C320 1.252 . S
O318 Mg308 2.251 . S
O318 Mg311 2.079 . S
O318 C320 1.273 . S
C319 O315 1.246 . S
C319 O316 1.259 . S
C320 O317 1.252 . S
C320 O318 1.273 . S
O321 Mg308 2.010 . S
O321 C313 1.249 . S
Mg322 O323 2.028 . S
Mg322 O329 1.986 . S
Mg322 O331 2.114 . S
Mg322 O332 2.251 . S
Mg322 O335 2.010 . S
O323 Mg322 2.028 . S
O323 C326 1.250 . S
O324 Mg325 2.028 . S
O324 C326 1.248 . S
Mg325 O324 2.028 . S
Mg325 O330 2.032 . S
Mg325 O332 2.079 . S
C326 O323 1.250 . S
C326 O324 1.248 . S
C327 O328 1.264 . S
C327 O335 1.249 . S
O328 C327 1.264 . S
O329 Mg322 1.986 . S
O329 C333 1.246 . S
O330 Mg325 2.032 . S
O330 C333 1.259 . S
O331 Mg322 2.114 . S
O331 C334 1.252 . S
O332 Mg322 2.251 . S
O332 Mg325 2.079 . S
O332 C334 1.273 . S
C333 O329 1.246 . S
C333 O330 1.259 . S
C334 O331 1.252 . S
C334 O332 1.273 . S
O335 Mg322 2.010 . S
O335 C327 1.249 . S
Tb336 C338 2.809 . S
Tb336 O356 2.484 . S
Tb336 O357 2.440 . S
Tb336 O358 2.658 1_655 S
Tb336 O359 2.409 1_655 S
Tb336 O360 2.378 1_655 S
Tb336 O364 2.325 1_655 S
Tb336 O367 2.341 1_645 S
Tb337 C347 2.809 . S
Tb337 O358 2.325 . S
Tb337 O361 2.341 . S
Tb337 O362 2.484 . S
Tb337 O363 2.440 . S
Tb337 O364 2.658 . S
Tb337 O365 2.409 . S
Tb337 O366 2.378 1_545 S
C338 Tb336 2.809 . S
C338 C339 1.514 . S
C338 O356 1.248 . S
C338 O357 1.266 . S
C339 C338 1.514 . S
C339 C340 1.359 . S
C339 C344 1.348 . S
C340 C339 1.359 . S
C340 C341 1.380 . S
C340 H368 0.929 . S
C341 C340 1.380 . S
C341 C342 1.347 . S
C341 H369 0.931 . S
C342 C341 1.347 . S
C342 C343 1.369 . S
C343 C342 1.369 . S
C343 C344 1.408 . S
C343 H370 0.930 1_554 S
C344 C339 1.348 . S
C344 C343 1.408 . S
C344 H371 0.930 1_554 S
C345 O358 1.281 . S
C345 O359 1.254 . S
C346 O360 1.236 . S
C346 O361 1.266 . S
C347 Tb337 2.809 . S
C347 C348 1.514 1_545 S
C347 O362 1.248 . S
C347 O363 1.266 . S
C348 C347 1.514 1_565 S
C348 C349 1.359 . S
C348 C353 1.348 . S
C349 C348 1.359 . S
C349 C350 1.380 . S
C349 H372 0.929 . S
C350 C349 1.380 . S
C350 C351 1.347 . S
C350 H373 0.931 . S
C351 C350 1.347 . S
C351 C352 1.369 . S
C352 C351 1.369 . S
C352 C353 1.408 . S
C352 H374 0.930 . S
C353 C348 1.348 . S
C353 C352 1.408 . S
C353 H375 0.930 1_565 S
C354 O364 1.281 . S
C354 O365 1.254 . S
C355 O366 1.236 . S
C355 O367 1.266 . S
O356 Tb336 2.484 . S
O356 C338 1.248 . S
O357 Tb336 2.440 . S
O357 C338 1.266 . S
O358 Tb336 2.658 1_455 S
O358 Tb337 2.325 . S
O358 C345 1.281 . S
O359 Tb336 2.409 1_455 S
O359 C345 1.254 . S
O360 Tb336 2.378 1_455 S
O360 C346 1.236 . S
O361 Tb337 2.341 . S
O361 C346 1.266 . S
O362 Tb337 2.484 . S
O362 C347 1.248 . S
O363 Tb337 2.440 . S
O363 C347 1.266 . S
O364 Tb336 2.325 1_455 S
O364 Tb337 2.658 . S
O364 C354 1.281 . S
O365 Tb337 2.409 . S
O365 C354 1.254 . S
O366 Tb337 2.378 1_565 S
O366 C355 1.236 . S
O367 Tb336 2.341 1_465 S
O367 C355 1.266 . S
H368 C340 0.929 . S
H369 C341 0.931 . S
H370 C343 0.930 1_556 S
H371 C344 0.930 1_556 S
H372 C349 0.929 . S
H373 C350 0.931 . S
H374 C352 0.930 . S
H375 C353 0.930 1_545 S
Tb376 C378 2.809 . S
Tb376 O396 2.484 . S
Tb376 O397 2.440 . S
Tb376 O398 2.658 . S
Tb376 O399 2.409 . S
Tb376 O400 2.378 . S
Tb376 O404 2.325 . S
Tb376 O407 2.341 . S
Tb377 C387 2.809 . S
Tb377 O398 2.325 . S
Tb377 O401 2.341 . S
Tb377 O402 2.484 . S
Tb377 O403 2.440 . S
Tb377 O404 2.658 . S
Tb377 O405 2.409 . S
Tb377 O406 2.378 . S
C378 Tb376 2.809 . S
C378 C379 1.514 . S
C378 O396 1.248 . S
C378 O397 1.266 . S
C379 C378 1.514 . S
C379 C380 1.359 . S
C379 C384 1.348 . S
C380 C379 1.359 . S
C380 C381 1.380 . S
C380 H408 0.929 . S
C381 C380 1.380 . S
C381 C382 1.347 . S
C381 H409 0.931 . S
C382 C381 1.347 . S
C382 C383 1.369 . S
C383 C382 1.369 . S
C383 C384 1.408 . S
C383 H410 0.930 . S
C384 C379 1.348 . S
C384 C383 1.408 . S
C384 H411 0.930 . S
C385 O398 1.281 . S
C385 O399 1.254 . S
C386 O400 1.236 . S
C386 O401 1.266 . S
C387 Tb377 2.809 . S
C387 C388 1.514 . S
C387 O402 1.248 . S
C387 O403 1.266 . S
C388 C387 1.514 . S
C388 C389 1.359 . S
C388 C393 1.348 . S
C389 C388 1.359 . S
C389 C390 1.380 . S
C389 H412 0.929 . S
C390 C389 1.380 . S
C390 C391 1.347 . S
C390 H413 0.931 . S
C391 C390 1.347 . S
C391 C392 1.369 . S
C392 C391 1.369 . S
C392 C393 1.408 . S
C392 H414 0.930 . S
C393 C388 1.348 . S
C393 C392 1.408 . S
C393 H415 0.930 . S
C394 O404 1.281 . S
C394 O405 1.254 . S
C395 O406 1.236 . S
C395 O407 1.266 . S
O396 Tb376 2.484 . S
O396 C378 1.248 . S
O397 Tb376 2.440 . S
O397 C378 1.266 . S
O398 Tb376 2.658 . S
O398 Tb377 2.325 . S
O398 C385 1.281 . S
O399 Tb376 2.409 . S
O399 C385 1.254 . S
O400 Tb376 2.378 . S
O400 C386 1.236 . S
O401 Tb377 2.341 . S
O401 C386 1.266 . S
O402 Tb377 2.484 . S
O402 C387 1.248 . S
O403 Tb377 2.440 . S
O403 C387 1.266 . S
O404 Tb376 2.325 . S
O404 Tb377 2.658 . S
O404 C394 1.281 . S
O405 Tb377 2.409 . S
O405 C394 1.254 . S
O406 Tb377 2.378 . S
O406 C395 1.236 . S
O407 Tb376 2.341 . S
O407 C395 1.266 . S
H408 C380 0.929 . S
H409 C381 0.931 . S
H410 C383 0.930 . S
H411 C384 0.930 . S
H412 C389 0.929 . S
H413 C390 0.931 . S
H414 C392 0.930 . S
H415 C393 0.930 . S
Tb416 C418 2.809 . S
Tb416 O436 2.484 . S
Tb416 O437 2.440 . S
Tb416 O438 2.658 . S
Tb416 O439 2.409 . S
Tb416 O440 2.378 1_545 S
Tb416 O444 2.325 . S
Tb416 O447 2.341 . S
Tb417 C427 2.809 . S
Tb417 O438 2.325 . S
Tb417 O441 2.341 1_545 S
Tb417 O442 2.484 . S
Tb417 O443 2.440 . S
Tb417 O444 2.658 . S
Tb417 O445 2.409 . S
Tb417 O446 2.378 . S
C418 Tb416 2.809 . S
C418 C419 1.514 1_545 S
C418 O436 1.248 . S
C418 O437 1.266 . S
C419 C418 1.514 1_565 S
C419 C420 1.359 . S
C419 C424 1.348 . S
C420 C419 1.359 . S
C420 C421 1.380 . S
C420 H448 0.929 . S
C421 C420 1.380 . S
C421 C422 1.347 . S
C421 H449 0.931 . S
C422 C421 1.347 . S
C422 C423 1.369 . S
C423 C422 1.369 . S
C423 C424 1.408 . S
C423 H450 0.930 . S
C424 C419 1.348 . S
C424 C423 1.408 . S
C424 H451 0.930 . S
C425 O438 1.281 . S
C425 O439 1.254 . S
C426 O440 1.236 . S
C426 O441 1.266 . S
C427 Tb417 2.809 . S
C427 C428 1.514 . S
C427 O442 1.248 . S
C427 O443 1.266 . S
C428 C427 1.514 . S
C428 C429 1.359 . S
C428 C433 1.348 . S
C429 C428 1.359 . S
C429 C430 1.380 . S
C429 H452 0.929 . S
C430 C429 1.380 . S
C430 C431 1.347 . S
C430 H453 0.931 . S
C431 C430 1.347 . S
C431 C432 1.369 . S
C432 C431 1.369 . S
C432 C433 1.408 . S
C432 H454 0.930 . S
C433 C428 1.348 . S
C433 C432 1.408 . S
C433 H455 0.930 . S
C434 O444 1.281 . S
C434 O445 1.254 . S
C435 O446 1.236 . S
C435 O447 1.266 . S
O436 Tb416 2.484 . S
O436 C418 1.248 . S
O437 Tb416 2.440 . S
O437 C418 1.266 . S
O438 Tb416 2.658 . S
O438 Tb417 2.325 . S
O438 C425 1.281 . S
O439 Tb416 2.409 . S
O439 C425 1.254 . S
O440 Tb416 2.378 1_565 S
O440 C426 1.236 . S
O441 Tb417 2.341 1_565 S
O441 C426 1.266 . S
O442 Tb417 2.484 . S
O442 C427 1.248 . S
O443 Tb417 2.440 . S
O443 C427 1.266 . S
O444 Tb416 2.325 . S
O444 Tb417 2.658 . S
O444 C434 1.281 . S
O445 Tb417 2.409 . S
O445 C434 1.254 . S
O446 Tb417 2.378 . S
O446 C435 1.236 . S
O447 Tb416 2.341 . S
O447 C435 1.266 . S
H448 C420 0.929 . S
H449 C421 0.931 . S
H450 C423 0.930 . S
H451 C424 0.930 . S
H452 C429 0.929 . S
H453 C430 0.931 . S
H454 C432 0.930 . S
H455 C433 0.930 . S
Tb456 C458 2.809 . S
Tb456 O476 2.484 . S
Tb456 O477 2.440 . S
Tb456 O478 2.658 . S
Tb456 O479 2.409 . S
Tb456 O480 2.378 . S
Tb456 O484 2.325 . S
Tb456 O487 2.341 . S
Tb457 C467 2.809 . S
Tb457 O478 2.325 . S
Tb457 O481 2.341 . S
Tb457 O482 2.484 . S
Tb457 O483 2.440 . S
Tb457 O484 2.658 . S
Tb457 O485 2.409 . S
Tb457 O486 2.378 . S
C458 Tb456 2.809 . S
C458 C459 1.514 . S
C458 O476 1.248 . S
C458 O477 1.266 . S
C459 C458 1.514 . S
C459 C460 1.359 . S
C459 C464 1.348 . S
C460 C459 1.359 . S
C460 C461 1.380 . S
C460 H488 0.929 . S
C461 C460 1.380 . S
C461 C462 1.347 . S
C461 H489 0.931 . S
C462 C461 1.347 . S
C462 C463 1.369 . S
C463 C462 1.369 . S
C463 C464 1.408 . S
C463 H490 0.930 . S
C464 C459 1.348 . S
C464 C463 1.408 . S
C464 H491 0.930 . S
C465 O478 1.281 . S
C465 O479 1.254 . S
C466 O480 1.236 . S
C466 O481 1.266 . S
C467 Tb457 2.809 . S
C467 C468 1.514 . S
C467 O482 1.248 . S
C467 O483 1.266 . S
C468 C467 1.514 . S
C468 C469 1.359 . S
C468 C473 1.348 . S
C469 C468 1.359 . S
C469 C470 1.380 . S
C469 H492 0.929 . S
C470 C469 1.380 . S
C470 C471 1.347 . S
C470 H493 0.931 . S
C471 C470 1.347 . S
C471 C472 1.369 . S
C472 C471 1.369 . S
C472 C473 1.408 . S
C472 H494 0.930 . S
C473 C468 1.348 . S
C473 C472 1.408 . S
C473 H495 0.930 . S
C474 O484 1.281 . S
C474 O485 1.254 . S
C475 O486 1.236 . S
C475 O487 1.266 . S
O476 Tb456 2.484 . S
O476 C458 1.248 . S
O477 Tb456 2.440 . S
O477 C458 1.266 . S
O478 Tb456 2.658 . S
O478 Tb457 2.325 . S
O478 C465 1.281 . S
O479 Tb456 2.409 . S
O479 C465 1.254 . S
O480 Tb456 2.378 . S
O480 C466 1.236 . S
O481 Tb457 2.341 . S
O481 C466 1.266 . S
O482 Tb457 2.484 . S
O482 C467 1.248 . S
O483 Tb457 2.440 . S
O483 C467 1.266 . S
O484 Tb456 2.325 . S
O484 Tb457 2.658 . S
O484 C474 1.281 . S
O485 Tb457 2.409 . S
O485 C474 1.254 . S
O486 Tb457 2.378 . S
O486 C475 1.236 . S
O487 Tb456 2.341 . S
O487 C475 1.266 . S
H488 C460 0.929 . S
H489 C461 0.931 . S
H490 C463 0.930 . S
H491 C464 0.930 . S
H492 C469 0.929 . S
H493 C470 0.931 . S
H494 C472 0.930 . S
H495 C473 0.930 . S
Tb496 C498 2.809 . S
Tb496 O516 2.484 . S
Tb496 O517 2.440 1_455 S
Tb496 O518 2.658 . S
Tb496 O519 2.409 1_455 S
Tb496 O520 2.378 . S
Tb496 O524 2.325 . S
Tb496 O527 2.341 . S
Tb497 C507 2.809 . S
Tb497 O518 2.325 1_565 S
Tb497 O521 2.341 1_565 S
Tb497 O522 2.484 . S
Tb497 O523 2.440 . S
Tb497 O524 2.658 1_565 S
Tb497 O525 2.409 1_565 S
Tb497 O526 2.378 1_565 S
C498 Tb496 2.809 . S
C498 C499 1.514 . S
C498 O516 1.248 . S
C498 O517 1.266 1_455 S
C499 C498 1.514 . S
C499 C500 1.359 . S
C499 C504 1.348 1_455 S
C500 C499 1.359 . S
C500 C501 1.380 . S
C500 H528 0.929 . S
C501 C500 1.380 . S
C501 C502 1.347 1_455 S
C501 H529 0.931 . S
C502 C501 1.347 1_655 S
C502 C503 1.369 . S
C503 C502 1.369 . S
C503 C504 1.408 . S
C503 H530 0.930 . S
C504 C499 1.348 1_655 S
C504 C503 1.408 . S
C504 H531 0.930 . S
C505 O518 1.281 1_655 S
C505 O519 1.254 . S
C506 O520 1.236 . S
C506 O521 1.266 . S
C507 Tb497 2.809 . S
C507 C508 1.514 . S
C507 O522 1.248 . S
C507 O523 1.266 . S
C508 C507 1.514 . S
C508 C509 1.359 . S
C508 C513 1.348 . S
C509 C508 1.359 . S
C509 C510 1.380 . S
C509 H532 0.929 . S
C510 C509 1.380 . S
C510 C511 1.347 . S
C510 H533 0.931 . S
C511 C510 1.347 . S
C511 C512 1.369 . S
C512 C511 1.369 . S
C512 C513 1.408 . S
C512 H534 0.930 . S
C513 C508 1.348 . S
C513 C512 1.408 . S
C513 H535 0.930 . S
C514 O524 1.281 . S
C514 O525 1.254 . S
C515 O526 1.236 . S
C515 O527 1.266 . S
O516 Tb496 2.484 . S
O516 C498 1.248 . S
O517 Tb496 2.440 1_655 S
O517 C498 1.266 1_655 S
O518 Tb496 2.658 . S
O518 Tb497 2.325 1_545 S
O518 C505 1.281 1_455 S
O519 Tb496 2.409 1_655 S
O519 C505 1.254 . S
O520 Tb496 2.378 . S
O520 C506 1.236 . S
O521 Tb497 2.341 1_545 S
O521 C506 1.266 . S
O522 Tb497 2.484 . S
O522 C507 1.248 . S
O523 Tb497 2.440 . S
O523 C507 1.266 . S
O524 Tb496 2.325 . S
O524 Tb497 2.658 1_545 S
O524 C514 1.281 . S
O525 Tb497 2.409 1_545 S
O525 C514 1.254 . S
O526 Tb497 2.378 1_545 S
O526 C515 1.236 . S
O527 Tb496 2.341 . S
O527 C515 1.266 . S
H528 C500 0.929 . S
H529 C501 0.931 . S
H530 C503 0.930 . S
H531 C504 0.930 . S
H532 C509 0.929 . S
H533 C510 0.931 . S
H534 C512 0.930 . S
H535 C513 0.930 . S
Tb536 C538 2.809 . S
Tb536 O556 2.484 . S
Tb536 O557 2.440 . S
Tb536 O558 2.658 . S
Tb536 O559 2.409 . S
Tb536 O560 2.378 . S
Tb536 O564 2.325 . S
Tb536 O567 2.341 . S
Tb537 C547 2.809 . S
Tb537 O558 2.325 . S
Tb537 O561 2.341 . S
Tb537 O562 2.484 . S
Tb537 O563 2.440 . S
Tb537 O564 2.658 . S
Tb537 O565 2.409 . S
Tb537 O566 2.378 . S
C538 Tb536 2.809 . S
C538 C539 1.514 . S
C538 O556 1.248 . S
C538 O557 1.266 . S
C539 C538 1.514 . S
C539 C540 1.359 . S
C539 C544 1.348 . S
C540 C539 1.359 . S
C540 C541 1.380 . S
C540 H568 0.929 . S
C541 C540 1.380 . S
C541 C542 1.347 . S
C541 H569 0.931 . S
C542 C541 1.347 . S
C542 C543 1.369 . S
C543 C542 1.369 . S
C543 C544 1.408 . S
C543 H570 0.930 . S
C544 C539 1.348 . S
C544 C543 1.408 . S
C544 H571 0.930 . S
C545 O558 1.281 . S
C545 O559 1.254 . S
C546 O560 1.236 . S
C546 O561 1.266 . S
C547 Tb537 2.809 . S
C547 C548 1.514 . S
C547 O562 1.248 . S
C547 O563 1.266 . S
C548 C547 1.514 . S
C548 C549 1.359 . S
C548 C553 1.348 . S
C549 C548 1.359 . S
C549 C550 1.380 . S
C549 H572 0.929 . S
C550 C549 1.380 . S
C550 C551 1.347 . S
C550 H573 0.931 . S
C551 C550 1.347 . S
C551 C552 1.369 . S
C552 C551 1.369 . S
C552 C553 1.408 . S
C552 H574 0.930 . S
C553 C548 1.348 . S
C553 C552 1.408 . S
C553 H575 0.930 . S
C554 O564 1.281 . S
C554 O565 1.254 . S
C555 O566 1.236 . S
C555 O567 1.266 . S
O556 Tb536 2.484 . S
O556 C538 1.248 . S
O557 Tb536 2.440 . S
O557 C538 1.266 . S
O558 Tb536 2.658 . S
O558 Tb537 2.325 . S
O558 C545 1.281 . S
O559 Tb536 2.409 . S
O559 C545 1.254 . S
O560 Tb536 2.378 . S
O560 C546 1.236 . S
O561 Tb537 2.341 . S
O561 C546 1.266 . S
O562 Tb537 2.484 . S
O562 C547 1.248 . S
O563 Tb537 2.440 . S
O563 C547 1.266 . S
O564 Tb536 2.325 . S
O564 Tb537 2.658 . S
O564 C554 1.281 . S
O565 Tb537 2.409 . S
O565 C554 1.254 . S
O566 Tb537 2.378 . S
O566 C555 1.236 . S
O567 Tb536 2.341 . S
O567 C555 1.266 . S
H568 C540 0.929 . S
H569 C541 0.931 . S
H570 C543 0.930 . S
H571 C544 0.930 . S
H572 C549 0.929 . S
H573 C550 0.931 . S
H574 C552 0.930 . S
H575 C553 0.930 . S
Tb576 C578 2.809 . S
Tb576 O596 2.484 1_545 S
Tb576 O597 2.440 . S
Tb576 O598 2.658 . S
Tb576 O599 2.409 . S
Tb576 O600 2.378 . S
Tb576 O604 2.325 . S
Tb576 O607 2.341 . S
Tb577 C587 2.809 . S
Tb577 O598 2.325 . S
Tb577 O601 2.341 . S
Tb577 O602 2.484 . S
Tb577 O603 2.440 . S
Tb577 O604 2.658 . S
Tb577 O605 2.409 1_545 S
Tb577 O606 2.378 . S
C578 Tb576 2.809 . S
C578 C579 1.514 1_545 S
C578 O596 1.248 1_545 S
C578 O597 1.266 . S
C579 C578 1.514 1_565 S
C579 C580 1.359 . S
C579 C584 1.348 1_565 S
C580 C579 1.359 . S
C580 C581 1.380 . S
C580 H608 0.929 . S
C581 C580 1.380 . S
C581 C582 1.347 . S
C581 H609 0.931 . S
C582 C581 1.347 . S
C582 C583 1.369 1_565 S
C583 C582 1.369 1_545 S
C583 C584 1.408 . S
C583 H610 0.930 . S
C584 C579 1.348 1_545 S
C584 C583 1.408 . S
C584 H611 0.930 . S
C585 O598 1.281 . S
C585 O599 1.254 . S
C586 O600 1.236 . S
C586 O601 1.266 . S
C587 Tb577 2.809 . S
C587 C588 1.514 . S
C587 O602 1.248 . S
C587 O603 1.266 . S
C588 C587 1.514 . S
C588 C589 1.359 . S
C588 C593 1.348 . S
C589 C588 1.359 . S
C589 C590 1.380 . S
C589 H612 0.929 . S
C590 C589 1.380 . S
C590 C591 1.347 . S
C590 H613 0.931 . S
C591 C590 1.347 . S
C591 C592 1.369 . S
C592 C591 1.369 . S
C592 C593 1.408 . S
C592 H614 0.930 . S
C593 C588 1.348 . S
C593 C592 1.408 . S
C593 H615 0.930 . S
C594 O604 1.281 1_565 S
C594 O605 1.254 . S
C595 O606 1.236 . S
C595 O607 1.266 . S
O596 Tb576 2.484 1_565 S
O596 C578 1.248 1_565 S
O597 Tb576 2.440 . S
O597 C578 1.266 . S
O598 Tb576 2.658 . S
O598 Tb577 2.325 . S
O598 C585 1.281 . S
O599 Tb576 2.409 . S
O599 C585 1.254 . S
O600 Tb576 2.378 . S
O600 C586 1.236 . S
O601 Tb577 2.341 . S
O601 C586 1.266 . S
O602 Tb577 2.484 . S
O602 C587 1.248 . S
O603 Tb577 2.440 . S
O603 C587 1.266 . S
O604 Tb576 2.325 . S
O604 Tb577 2.658 . S
O604 C594 1.281 1_545 S
O605 Tb577 2.409 1_565 S
O605 C594 1.254 . S
O606 Tb577 2.378 . S
O606 C595 1.236 . S
O607 Tb576 2.341 . S
O607 C595 1.266 . S
H608 C580 0.929 . S
H609 C581 0.931 . S
H610 C583 0.930 . S
H611 C584 0.930 . S
H612 C589 0.929 . S
H613 C590 0.931 . S
H614 C592 0.930 . S
H615 C593 0.930 . S
Tb616 C618 2.809 . S
Tb616 O636 2.484 . S
Tb616 O637 2.440 . S
Tb616 O638 2.658 . S
Tb616 O639 2.409 . S
Tb616 O640 2.378 . S
Tb616 O644 2.325 . S
Tb616 O647 2.341 . S
Tb617 C627 2.809 . S
Tb617 O638 2.325 . S
Tb617 O641 2.341 . S
Tb617 O642 2.484 . S
Tb617 O643 2.440 . S
Tb617 O644 2.658 . S
Tb617 O645 2.409 . S
Tb617 O646 2.378 . S
C618 Tb616 2.809 . S
C618 C619 1.514 . S
C618 O636 1.248 . S
C618 O637 1.266 . S
C619 C618 1.514 . S
C619 C620 1.359 . S
C619 C624 1.348 . S
C620 C619 1.359 . S
C620 C621 1.380 . S
C620 H648 0.929 . S
C621 C620 1.380 . S
C621 C622 1.347 . S
C621 H649 0.931 . S
C622 C621 1.347 . S
C622 C623 1.369 . S
C623 C622 1.369 . S
C623 C624 1.408 . S
C623 H650 0.930 . S
C624 C619 1.348 . S
C624 C623 1.408 . S
C624 H651 0.930 . S
C625 O638 1.281 . S
C625 O639 1.254 . S
C626 O640 1.236 . S
C626 O641 1.266 . S
C627 Tb617 2.809 . S
C627 C628 1.514 . S
C627 O642 1.248 . S
C627 O643 1.266 . S
C628 C627 1.514 . S
C628 C629 1.359 . S
C628 C633 1.348 . S
C629 C628 1.359 . S
C629 C630 1.380 . S
C629 H652 0.929 . S
C630 C629 1.380 . S
C630 C631 1.347 . S
C630 H653 0.931 . S
C631 C630 1.347 . S
C631 C632 1.369 . S
C632 C631 1.369 . S
C632 C633 1.408 . S
C632 H654 0.930 . S
C633 C628 1.348 . S
C633 C632 1.408 . S
C633 H655 0.930 . S
C634 O644 1.281 . S
C634 O645 1.254 . S
C635 O646 1.236 . S
C635 O647 1.266 . S
O636 Tb616 2.484 . S
O636 C618 1.248 . S
O637 Tb616 2.440 . S
O637 C618 1.266 . S
O638 Tb616 2.658 . S
O638 Tb617 2.325 . S
O638 C625 1.281 . S
O639 Tb616 2.409 . S
O639 C625 1.254 . S
O640 Tb616 2.378 . S
O640 C626 1.236 . S
O641 Tb617 2.341 . S
O641 C626 1.266 . S
O642 Tb617 2.484 . S
O642 C627 1.248 . S
O643 Tb617 2.440 . S
O643 C627 1.266 . S
O644 Tb616 2.325 . S
O644 Tb617 2.658 . S
O644 C634 1.281 . S
O645 Tb617 2.409 . S
O645 C634 1.254 . S
O646 Tb617 2.378 . S
O646 C635 1.236 . S
O647 Tb616 2.341 . S
O647 C635 1.266 . S
H648 C620 0.929 . S
H649 C621 0.931 . S
H650 C623 0.930 . S
H651 C624 0.930 . S
H652 C629 0.929 . S
H653 C630 0.931 . S
H654 C632 0.930 . S
H655 C633 0.930 . S
Tb656 C658 2.809 . S
Tb656 O676 2.484 . S
Tb656 O677 2.440 . S
Tb656 O678 2.658 . S
Tb656 O679 2.409 . S
Tb656 O680 2.378 . S
Tb656 O684 2.325 . S
Tb656 O687 2.341 . S
Tb657 C667 2.809 . S
Tb657 O678 2.325 . S
Tb657 O681 2.341 . S
Tb657 O682 2.484 . S
Tb657 O683 2.440 . S
Tb657 O684 2.658 . S
Tb657 O685 2.409 . S
Tb657 O686 2.378 . S
C658 Tb656 2.809 . S
C658 C659 1.514 . S
C658 O676 1.248 . S
C658 O677 1.266 . S
C659 C658 1.514 . S
C659 C660 1.359 . S
C659 C664 1.348 . S
C660 C659 1.359 . S
C660 C661 1.359 1_554 S
C660 H688 0.929 . S
C661 C660 1.359 1_556 S
C661 C662 1.345 . S
C661 H689 0.954 . S
C662 C661 1.345 . S
C662 C663 1.369 1_556 S
C663 C662 1.369 1_554 S
C663 C664 1.408 . S
C663 H690 0.930 . S
C664 C659 1.348 . S
C664 C663 1.408 . S
C664 H691 0.930 . S
C665 O678 1.281 . S
C665 O679 1.254 . S
C666 O680 1.236 . S
C666 O681 1.266 . S
C667 Tb657 2.809 . S
C667 C668 1.514 . S
C667 O682 1.248 . S
C667 O683 1.266 . S
C668 C667 1.514 . S
C668 C669 1.359 . S
C668 C673 1.348 . S
C669 C668 1.359 . S
C669 C670 1.380 . S
C669 H692 0.929 . S
C670 C669 1.380 . S
C670 C671 1.347 . S
C670 H693 0.931 . S
C671 C670 1.347 . S
C671 C672 1.369 . S
C672 C671 1.369 . S
C672 C673 1.408 . S
C672 H694 0.930 . S
C673 C668 1.348 . S
C673 C672 1.408 . S
C673 H695 0.930 . S
C674 O684 1.281 . S
C674 O685 1.254 . S
C675 O686 1.236 . S
C675 O687 1.266 . S
O676 Tb656 2.484 . S
O676 C658 1.248 . S
O677 Tb656 2.440 . S
O677 C658 1.266 . S
O678 Tb656 2.658 . S
O678 Tb657 2.325 . S
O678 C665 1.281 . S
O679 Tb656 2.409 . S
O679 C665 1.254 . S
O680 Tb656 2.378 . S
O680 C666 1.236 . S
O681 Tb657 2.341 . S
O681 C666 1.266 . S
O682 Tb657 2.484 . S
O682 C667 1.248 . S
O683 Tb657 2.440 . S
O683 C667 1.266 . S
O684 Tb656 2.325 . S
O684 Tb657 2.658 . S
O684 C674 1.281 . S
O685 Tb657 2.409 . S
O685 C674 1.254 . S
O686 Tb657 2.378 . S
O686 C675 1.236 . S
O687 Tb656 2.341 . S
O687 C675 1.266 . S
H688 C660 0.929 . S
H689 C661 0.954 . S
H690 C663 0.930 . S
H691 C664 0.930 . S
H692 C669 0.929 . S
H693 C670 0.931 . S
H694 C672 0.930 . S
H695 C673 0.930 . S
Tb696 C698 2.809 . S
Tb696 O716 2.484 . S
Tb696 O717 2.440 . S
Tb696 O718 2.658 . S
Tb696 O719 2.409 . S
Tb696 O720 2.378 . S
Tb696 O724 2.325 . S
Tb696 O727 2.341 . S
Tb697 C707 2.809 . S
Tb697 O718 2.325 . S
Tb697 O721 2.341 . S
Tb697 O722 2.484 . S
Tb697 O723 2.440 . S
Tb697 O724 2.658 . S
Tb697 O725 2.409 . S
Tb697 O726 2.378 . S
C698 Tb696 2.809 . S
C698 C699 1.514 . S
C698 O716 1.248 . S
C698 O717 1.266 . S
C699 C698 1.514 . S
C699 C700 1.359 . S
C699 C704 1.348 . S
C700 C699 1.359 . S
C700 C701 1.380 . S
C700 H728 0.929 . S
C701 C700 1.380 . S
C701 C702 1.347 . S
C701 H729 0.931 . S
C702 C701 1.347 . S
C702 C703 1.369 . S
C703 C702 1.369 . S
C703 C704 1.408 . S
C703 H730 0.930 . S
C704 C699 1.348 . S
C704 C703 1.408 . S
C704 H731 0.930 . S
C705 O718 1.281 . S
C705 O719 1.254 . S
C706 O720 1.236 . S
C706 O721 1.266 . S
C707 Tb697 2.809 . S
C707 C708 1.514 . S
C707 O722 1.248 . S
C707 O723 1.266 . S
C708 C707 1.514 . S
C708 C709 1.359 . S
C708 C713 1.348 . S
C709 C708 1.359 . S
C709 C710 1.380 . S
C709 H732 0.929 . S
C710 C709 1.380 . S
C710 C711 1.347 . S
C710 H733 0.931 . S
C711 C710 1.347 . S
C711 C712 1.369 . S
C712 C711 1.369 . S
C712 C713 1.408 . S
C712 H734 0.930 . S
C713 C708 1.348 . S
C713 C712 1.408 . S
C713 H735 0.930 . S
C714 O724 1.281 . S
C714 O725 1.254 . S
C715 O726 1.236 . S
C715 O727 1.266 . S
O716 Tb696 2.484 . S
O716 C698 1.248 . S
O717 Tb696 2.440 . S
O717 C698 1.266 . S
O718 Tb696 2.658 . S
O718 Tb697 2.325 . S
O718 C705 1.281 . S
O719 Tb696 2.409 . S
O719 C705 1.254 . S
O720 Tb696 2.378 . S
O720 C706 1.236 . S
O721 Tb697 2.341 . S
O721 C706 1.266 . S
O722 Tb697 2.484 . S
O722 C707 1.248 . S
O723 Tb697 2.440 . S
O723 C707 1.266 . S
O724 Tb696 2.325 . S
O724 Tb697 2.658 . S
O724 C714 1.281 . S
O725 Tb697 2.409 . S
O725 C714 1.254 . S
O726 Tb697 2.378 . S
O726 C715 1.236 . S
O727 Tb696 2.341 . S
O727 C715 1.266 . S
H728 C700 0.929 . S
H729 C701 0.931 . S
H730 C703 0.930 . S
H731 C704 0.930 . S
H732 C709 0.929 . S
H733 C710 0.931 . S
H734 C712 0.930 . S
H735 C713 0.930 . S
Tb736 C738 2.809 1_455 S
Tb736 O756 2.484 1_455 S
Tb736 O757 2.440 1_455 S
Tb736 O758 2.658 . S
Tb736 O759 2.409 . S
Tb736 O760 2.378 . S
Tb736 O764 2.325 . S
Tb736 O767 2.341 . S
Tb737 C747 2.809 . S
Tb737 O758 2.325 . S
Tb737 O761 2.341 . S
Tb737 O762 2.484 . S
Tb737 O763 2.440 . S
Tb737 O764 2.658 . S
Tb737 O765 2.409 . S
Tb737 O766 2.378 . S
C738 Tb736 2.809 1_655 S
C738 C739 1.514 . S
C738 O756 1.248 . S
C738 O757 1.266 . S
C739 C738 1.514 . S
C739 C740 1.359 . S
C739 C744 1.348 . S
C740 C739 1.359 . S
C740 C741 1.380 . S
C740 H768 0.929 . S
C741 C740 1.380 . S
C741 C742 1.347 . S
C741 H769 0.931 . S
C742 C741 1.347 . S
C742 C743 1.369 . S
C743 C742 1.369 . S
C743 C744 1.408 . S
C743 H770 0.930 . S
C744 C739 1.348 . S
C744 C743 1.408 . S
C744 H771 0.930 . S
C745 O758 1.281 . S
C745 O759 1.254 . S
C746 O760 1.236 . S
C746 O761 1.266 . S
C747 Tb737 2.809 . S
C747 C748 1.514 . S
C747 O762 1.248 . S
C747 O763 1.266 . S
C748 C747 1.514 . S
C748 C749 1.359 . S
C748 C753 1.348 . S
C749 C748 1.359 . S
C749 C750 1.380 . S
C749 H772 0.929 . S
C750 C749 1.380 . S
C750 C751 1.347 . S
C750 H773 0.931 . S
C751 C750 1.347 . S
C751 C752 1.369 . S
C752 C751 1.369 . S
C752 C753 1.408 . S
C752 H774 0.930 . S
C753 C748 1.348 . S
C753 C752 1.408 . S
C753 H775 0.930 . S
C754 O764 1.281 . S
C754 O765 1.254 . S
C755 O766 1.236 . S
C755 O767 1.266 . S
O756 Tb736 2.484 1_655 S
O756 C738 1.248 . S
O757 Tb736 2.440 1_655 S
O757 C738 1.266 . S
O758 Tb736 2.658 . S
O758 Tb737 2.325 . S
O758 C745 1.281 . S
O759 Tb736 2.409 . S
O759 C745 1.254 . S
O760 Tb736 2.378 . S
O760 C746 1.236 . S
O761 Tb737 2.341 . S
O761 C746 1.266 . S
O762 Tb737 2.484 . S
O762 C747 1.248 . S
O763 Tb737 2.440 . S
O763 C747 1.266 . S
O764 Tb736 2.325 . S
O764 Tb737 2.658 . S
O764 C754 1.281 . S
O765 Tb737 2.409 . S
O765 C754 1.254 . S
O766 Tb737 2.378 . S
O766 C755 1.236 . S
O767 Tb736 2.341 . S
O767 C755 1.266 . S
H768 C740 0.929 . S
H769 C741 0.931 . S
H770 C743 0.930 . S
H771 C744 0.930 . S
H772 C749 0.929 . S
H773 C750 0.931 . S
H774 C752 0.930 . S
H775 C753 0.930 . S
Tb776 C778 2.809 . S
Tb776 O796 2.484 . S
Tb776 O797 2.440 . S
Tb776 O798 2.658 . S
Tb776 O799 2.409 . S
Tb776 O800 2.378 . S
Tb776 O804 2.325 . S
Tb776 O807 2.341 . S
Tb777 C787 2.809 . S
Tb777 O798 2.325 . S
Tb777 O801 2.341 . S
Tb777 O802 2.484 . S
Tb777 O803 2.440 . S
Tb777 O804 2.658 . S
Tb777 O805 2.409 . S
Tb777 O806 2.378 . S
C778 Tb776 2.809 . S
C778 C779 1.514 . S
C778 O796 1.248 . S
C778 O797 1.266 . S
C779 C778 1.514 . S
C779 C780 1.359 . S
C779 C784 1.348 . S
C780 C779 1.359 . S
C780 C781 1.380 . S
C780 H808 0.929 . S
C781 C780 1.380 . S
C781 C782 1.347 . S
C781 H809 0.931 . S
C782 C781 1.347 . S
C782 C783 1.369 . S
C783 C782 1.369 . S
C783 C784 1.408 . S
C783 H810 0.930 . S
C784 C779 1.348 . S
C784 C783 1.408 . S
C784 H811 0.930 . S
C785 O798 1.281 . S
C785 O799 1.254 . S
C786 O800 1.236 . S
C786 O801 1.266 . S
C787 Tb777 2.809 . S
C787 C788 1.514 . S
C787 O802 1.248 . S
C787 O803 1.266 . S
C788 C787 1.514 . S
C788 C789 1.359 . S
C788 C793 1.348 . S
C789 C788 1.359 . S
C789 C790 1.380 . S
C789 H812 0.929 . S
C790 C789 1.380 . S
C790 C791 1.347 . S
C790 H813 0.931 . S
C791 C790 1.347 . S
C791 C792 1.369 . S
C792 C791 1.369 . S
C792 C793 1.408 . S
C792 H814 0.930 . S
C793 C788 1.348 . S
C793 C792 1.408 . S
C793 H815 0.930 . S
C794 O804 1.281 . S
C794 O805 1.254 . S
C795 O806 1.236 . S
C795 O807 1.266 . S
O796 Tb776 2.484 . S
O796 C778 1.248 . S
O797 Tb776 2.440 . S
O797 C778 1.266 . S
O798 Tb776 2.658 . S
O798 Tb777 2.325 . S
O798 C785 1.281 . S
O799 Tb776 2.409 . S
O799 C785 1.254 . S
O800 Tb776 2.378 . S
O800 C786 1.236 . S
O801 Tb777 2.341 . S
O801 C786 1.266 . S
O802 Tb777 2.484 . S
O802 C787 1.248 . S
O803 Tb777 2.440 . S
O803 C787 1.266 . S
O804 Tb776 2.325 . S
O804 Tb777 2.658 . S
O804 C794 1.281 . S
O805 Tb777 2.409 . S
O805 C794 1.254 . S
O806 Tb777 2.378 . S
O806 C795 1.236 . S
O807 Tb776 2.341 . S
O807 C795 1.266 . S
H808 C780 0.929 . S
H809 C781 0.931 . S
H810 C783 0.930 . S
H811 C784 0.930 . S
H812 C789 0.929 . S
H813 C790 0.931 . S
H814 C792 0.930 . S
H815 C793 0.930 . S
Tb816 C818 2.809 . S
Tb816 O836 2.484 . S
Tb816 O837 2.440 . S
Tb816 O838 2.658 . S
Tb816 O839 2.409 . S
Tb816 O840 2.378 . S
Tb816 O844 2.325 . S
Tb816 O847 2.341 . S
Tb817 C827 2.809 . S
Tb817 O838 2.325 . S
Tb817 O841 2.341 . S
Tb817 O842 2.484 . S
Tb817 O843 2.440 . S
Tb817 O844 2.658 . S
Tb817 O845 2.409 . S
Tb817 O846 2.378 . S
C818 Tb816 2.809 . S
C818 C819 1.514 . S
C818 O836 1.248 . S
C818 O837 1.266 . S
C819 C818 1.514 . S
C819 C820 1.359 . S
C819 C824 1.348 . S
C820 C819 1.359 . S
C820 C821 1.380 . S
C820 H848 0.929 . S
C821 C820 1.380 . S
C821 C822 1.347 . S
C821 H849 0.931 . S
C822 C821 1.347 . S
C822 C823 1.369 . S
C823 C822 1.369 . S
C823 C824 1.408 . S
C823 H850 0.930 . S
C824 C819 1.348 . S
C824 C823 1.408 . S
C824 H851 0.930 . S
C825 O838 1.281 . S
C825 O839 1.254 . S
C826 O840 1.236 . S
C826 O841 1.266 . S
C827 Tb817 2.809 . S
C827 C828 1.514 . S
C827 O842 1.248 . S
C827 O843 1.266 . S
C828 C827 1.514 . S
C828 C829 1.359 . S
C828 C833 1.348 . S
C829 C828 1.359 . S
C829 C830 1.380 1_556 S
C829 H852 0.929 . S
C830 C829 1.380 1_554 S
C830 C831 1.347 . S
C830 H853 0.931 . S
C831 C830 1.347 . S
C831 C832 1.369 . S
C832 C831 1.369 . S
C832 C833 1.408 1_554 S
C832 H854 0.930 . S
C833 C828 1.348 . S
C833 C832 1.408 1_556 S
C833 H855 0.930 . S
C834 O844 1.281 . S
C834 O845 1.254 . S
C835 O846 1.236 . S
C835 O847 1.266 . S
O836 Tb816 2.484 . S
O836 C818 1.248 . S
O837 Tb816 2.440 . S
O837 C818 1.266 . S
O838 Tb816 2.658 . S
O838 Tb817 2.325 . S
O838 C825 1.281 . S
O839 Tb816 2.409 . S
O839 C825 1.254 . S
O840 Tb816 2.378 . S
O840 C826 1.236 . S
O841 Tb817 2.341 . S
O841 C826 1.266 . S
O842 Tb817 2.484 . S
O842 C827 1.248 . S
O843 Tb817 2.440 . S
O843 C827 1.266 . S
O844 Tb816 2.325 . S
O844 Tb817 2.658 . S
O844 C834 1.281 . S
O845 Tb817 2.409 . S
O845 C834 1.254 . S
O846 Tb817 2.378 . S
O846 C835 1.236 . S
O847 Tb816 2.341 . S
O847 C835 1.266 . S
H848 C820 0.929 . S
H849 C821 0.931 . S
H850 C823 0.930 . S
H851 C824 0.930 . S
H852 C829 0.929 . S
H853 C830 0.931 . S
H854 C832 0.930 . S
H855 C833 0.930 . S
Tb856 C858 2.809 . S
Tb856 O876 2.484 . S
Tb856 O877 2.440 . S
Tb856 O878 2.658 . S
Tb856 O879 2.409 . S
Tb856 O880 2.378 . S
Tb856 O884 2.325 . S
Tb856 O887 2.341 . S
Tb857 C867 2.809 . S
Tb857 O878 2.325 . S
Tb857 O881 2.341 . S
Tb857 O882 2.484 . S
Tb857 O883 2.440 . S
Tb857 O884 2.658 . S
Tb857 O885 2.409 . S
Tb857 O886 2.378 . S
C858 Tb856 2.809 . S
C858 C859 1.514 . S
C858 O876 1.248 . S
C858 O877 1.266 . S
C859 C858 1.514 . S
C859 C860 1.359 . S
C859 C864 1.348 . S
C860 C859 1.359 . S
C860 C861 1.380 . S
C860 H888 0.929 . S
C861 C860 1.380 . S
C861 C862 1.347 . S
C861 H889 0.931 . S
C862 C861 1.347 . S
C862 C863 1.369 . S
C863 C862 1.369 . S
C863 C864 1.408 . S
C863 H890 0.930 . S
C864 C859 1.348 . S
C864 C863 1.408 . S
C864 H891 0.930 . S
C865 O878 1.281 . S
C865 O879 1.254 . S
C866 O880 1.236 . S
C866 O881 1.266 . S
C867 Tb857 2.809 . S
C867 C868 1.514 . S
C867 O882 1.248 . S
C867 O883 1.266 . S
C868 C867 1.514 . S
C868 C869 1.359 . S
C868 C873 1.348 . S
C869 C868 1.359 . S
C869 C870 1.380 . S
C869 H892 0.929 . S
C870 C869 1.380 . S
C870 C871 1.347 . S
C870 H893 0.931 . S
C871 C870 1.347 . S
C871 C872 1.369 . S
C872 C871 1.369 . S
C872 C873 1.408 . S
C872 H894 0.930 . S
C873 C868 1.348 . S
C873 C872 1.408 . S
C873 H895 0.930 . S
C874 O884 1.281 . S
C874 O885 1.254 . S
C875 O886 1.236 . S
C875 O887 1.266 . S
O876 Tb856 2.484 . S
O876 C858 1.248 . S
O877 Tb856 2.440 . S
O877 C858 1.266 . S
O878 Tb856 2.658 . S
O878 Tb857 2.325 . S
O878 C865 1.281 . S
O879 Tb856 2.409 . S
O879 C865 1.254 . S
O880 Tb856 2.378 . S
O880 C866 1.236 . S
O881 Tb857 2.341 . S
O881 C866 1.266 . S
O882 Tb857 2.484 . S
O882 C867 1.248 . S
O883 Tb857 2.440 . S
O883 C867 1.266 . S
O884 Tb856 2.325 . S
O884 Tb857 2.658 . S
O884 C874 1.281 . S
O885 Tb857 2.409 . S
O885 C874 1.254 . S
O886 Tb857 2.378 . S
O886 C875 1.236 . S
O887 Tb856 2.341 . S
O887 C875 1.266 . S
H888 C860 0.929 . S
H889 C861 0.931 . S
H890 C863 0.930 . S
H891 C864 0.930 . S
H892 C869 0.929 . S
H893 C870 0.931 . S
H894 C872 0.930 . S
H895 C873 0.930 . S
Tb896 C898 2.809 . S
Tb896 O916 2.484 . S
Tb896 O917 2.440 . S
Tb896 O918 2.658 . S
Tb896 O919 2.409 . S
Tb896 O920 2.378 . S
Tb896 O924 2.325 . S
Tb896 O927 2.341 . S
Tb897 C907 2.809 . S
Tb897 O918 2.325 . S
Tb897 O921 2.341 . S
Tb897 O922 2.484 . S
Tb897 O923 2.440 . S
Tb897 O924 2.658 . S
Tb897 O925 2.409 . S
Tb897 O926 2.378 . S
C898 Tb896 2.809 . S
C898 C899 1.514 . S
C898 O916 1.248 . S
C898 O917 1.266 . S
C899 C898 1.514 . S
C899 C900 1.359 . S
C899 C904 1.348 . S
C900 C899 1.359 . S
C900 C901 1.380 . S
C900 H928 0.929 . S
C901 C900 1.380 . S
C901 C902 1.347 . S
C901 H929 0.931 . S
C902 C901 1.347 . S
C902 C903 1.369 . S
C903 C902 1.369 . S
C903 C904 1.408 . S
C903 H930 0.930 . S
C904 C899 1.348 . S
C904 C903 1.408 . S
C904 H931 0.930 . S
C905 O918 1.281 . S
C905 O919 1.254 . S
C906 O920 1.236 . S
C906 O921 1.266 . S
C907 Tb897 2.809 . S
C907 C908 1.514 . S
C907 O922 1.248 . S
C907 O923 1.266 . S
C908 C907 1.514 . S
C908 C909 1.359 . S
C908 C913 1.348 . S
C909 C908 1.359 . S
C909 C910 1.380 . S
C909 H932 0.929 . S
C910 C909 1.380 . S
C910 C911 1.347 . S
C910 H933 0.931 . S
C911 C910 1.347 . S
C911 C912 1.369 . S
C912 C911 1.369 . S
C912 C913 1.408 . S
C912 H934 0.930 . S
C913 C908 1.348 . S
C913 C912 1.408 . S
C913 H935 0.930 . S
C914 O924 1.281 . S
C914 O925 1.254 . S
C915 O926 1.236 . S
C915 O927 1.266 . S
O916 Tb896 2.484 . S
O916 C898 1.248 . S
O917 Tb896 2.440 . S
O917 C898 1.266 . S
O918 Tb896 2.658 . S
O918 Tb897 2.325 . S
O918 C905 1.281 . S
O919 Tb896 2.409 . S
O919 C905 1.254 . S
O920 Tb896 2.378 . S
O920 C906 1.236 . S
O921 Tb897 2.341 . S
O921 C906 1.266 . S
O922 Tb897 2.484 . S
O922 C907 1.248 . S
O923 Tb897 2.440 . S
O923 C907 1.266 . S
O924 Tb896 2.325 . S
O924 Tb897 2.658 . S
O924 C914 1.281 . S
O925 Tb897 2.409 . S
O925 C914 1.254 . S
O926 Tb897 2.378 . S
O926 C915 1.236 . S
O927 Tb896 2.341 . S
O927 C915 1.266 . S
H928 C900 0.929 . S
H929 C901 0.931 . S
H930 C903 0.930 . S
H931 C904 0.930 . S
H932 C909 0.929 . S
H933 C910 0.931 . S
H934 C912 0.930 . S
H935 C913 0.930 . S
Tb936 C938 2.809 . S
Tb936 O956 2.484 . S
Tb936 O957 2.440 . S
Tb936 O958 2.658 . S
Tb936 O959 2.409 . S
Tb936 O960 2.378 . S
Tb936 O964 2.325 . S
Tb936 O967 2.341 . S
Tb937 C947 2.809 1_455 S
Tb937 O958 2.325 . S
Tb937 O961 2.341 . S
Tb937 O962 2.484 1_455 S
Tb937 O963 2.440 1_455 S
Tb937 O964 2.658 . S
Tb937 O965 2.409 . S
Tb937 O966 2.378 . S
C938 Tb936 2.809 . S
C938 C939 1.514 . S
C938 O956 1.248 . S
C938 O957 1.266 . S
C939 C938 1.514 . S
C939 C940 1.359 . S
C939 C944 1.348 . S
C940 C939 1.359 . S
C940 C941 1.380 . S
C940 H968 0.929 . S
C941 C940 1.380 . S
C941 C942 1.347 . S
C941 H969 0.931 . S
C942 C941 1.347 . S
C942 C943 1.369 . S
C943 C942 1.369 . S
C943 C944 1.408 . S
C943 H970 0.933 . S
C944 C939 1.348 . S
C944 C943 1.408 . S
C944 H971 0.930 . S
C945 O958 1.281 . S
C945 O959 1.254 . S
C946 O960 1.236 . S
C946 O961 1.266 . S
C947 Tb937 2.809 1_655 S
C947 C948 1.514 . S
C947 O962 1.248 . S
C947 O963 1.266 . S
C948 C947 1.514 . S
C948 C949 1.359 . S
C948 C953 1.348 . S
C949 C948 1.359 . S
C949 C950 1.380 . S
C949 H972 0.929 . S
C950 C949 1.380 . S
C950 C951 1.347 . S
C950 H973 0.931 . S
C951 C950 1.347 . S
C951 C952 1.369 . S
C952 C951 1.369 . S
C952 C953 1.408 . S
C952 H974 0.930 . S
C953 C948 1.348 . S
C953 C952 1.408 . S
C953 H975 0.930 . S
C954 O964 1.281 . S
C954 O965 1.254 . S
C955 O966 1.236 . S
C955 O967 1.266 . S
O956 Tb936 2.484 . S
O956 C938 1.248 . S
O957 Tb936 2.440 . S
O957 C938 1.266 . S
O958 Tb936 2.658 . S
O958 Tb937 2.325 . S
O958 C945 1.281 . S
O959 Tb936 2.409 . S
O959 C945 1.254 . S
O960 Tb936 2.378 . S
O960 C946 1.236 . S
O961 Tb937 2.341 . S
O961 C946 1.266 . S
O962 Tb937 2.484 1_655 S
O962 C947 1.248 . S
O963 Tb937 2.440 1_655 S
O963 C947 1.266 . S
O964 Tb936 2.325 . S
O964 Tb937 2.658 . S
O964 C954 1.281 . S
O965 Tb937 2.409 . S
O965 C954 1.254 . S
O966 Tb937 2.378 . S
O966 C955 1.236 . S
O967 Tb936 2.341 . S
O967 C955 1.266 . S
H968 C940 0.929 . S
H969 C941 0.931 . S
H970 C943 0.933 . S
H971 C944 0.930 . S
H972 C949 0.929 . S
H973 C950 0.931 . S
H974 C952 0.930 . S
H975 C953 0.930 . S
C976 C977 1.369 . S
C976 C978 1.419 . S
C976 H980 0.930 . S
C977 C976 1.369 . S
C977 C986 1.429 1_455 S
C978 C976 1.419 . S
C978 C979 1.363 . S
C978 H981 0.929 . S
C979 C978 1.363 . S
C979 C985 1.428 . S
H980 C976 0.930 . S
H981 C978 0.929 . S
S982 N983 1.613 . S
S982 N984 1.610 . S
N983 S982 1.613 . S
N983 C986 1.350 . S
N984 S982 1.610 . S
N984 C985 1.351 1_655 S
C985 C979 1.428 . S
C985 N984 1.351 1_455 S
C985 C986 1.434 1_455 S
C986 C977 1.429 1_655 S
C986 N983 1.350 . S
C986 C985 1.434 1_655 S
C987 C988 1.369 . S
C987 C989 1.419 . S
C987 H991 0.930 . S
C988 C987 1.369 . S
C988 C997 1.429 . S
C989 C987 1.419 . S
C989 C990 1.363 . S
C989 H992 0.929 . S
C990 C989 1.363 . S
C990 C996 1.428 . S
H991 C987 0.930 . S
H992 C989 0.929 . S
S993 N994 1.613 . S
S993 N995 1.610 . S
N994 S993 1.613 . S
N994 C997 1.350 . S
N995 S993 1.610 . S
N995 C996 1.351 . S
C996 C990 1.428 . S
C996 N995 1.351 . S
C996 C997 1.434 . S
C997 C988 1.429 . S
C997 N994 1.350 . S
C997 C996 1.434 . S
C998 C999 1.369 . S
C998 C1000 1.419 . S
C998 H1002 0.930 . S
C999 C998 1.369 . S
C999 C1008 1.429 . S
C1000 C998 1.419 . S
C1000 C1001 1.363 . S
C1000 H1003 0.929 . S
C1001 C1000 1.363 . S
C1001 C1007 1.428 . S
H1002 C998 0.930 . S
H1003 C1000 0.929 . S
S1004 N1005 1.613 . S
S1004 N1006 1.610 . S
N1005 S1004 1.613 . S
N1005 C1008 1.350 . S
N1006 S1004 1.610 . S
N1006 C1007 1.351 . S
C1007 C1001 1.428 . S
C1007 N1006 1.351 . S
C1007 C1008 1.434 . S
C1008 C999 1.429 . S
C1008 N1005 1.350 . S
C1008 C1007 1.434 . S
C1009 C1010 1.369 . S
C1009 C1011 1.419 . S
C1009 H1013 0.930 . S
C1010 C1009 1.369 . S
C1010 C1019 1.429 . S
C1011 C1009 1.419 . S
C1011 C1012 1.363 . S
C1011 H1014 0.929 . S
C1012 C1011 1.363 . S
C1012 C1018 1.428 . S
H1013 C1009 0.930 . S
H1014 C1011 0.929 . S
S1015 N1016 1.613 . S
S1015 N1017 1.610 . S
N1016 S1015 1.613 . S
N1016 C1019 1.350 . S
N1017 S1015 1.610 . S
N1017 C1018 1.351 . S
C1018 C1012 1.428 . S
C1018 N1017 1.351 . S
C1018 C1019 1.434 . S
C1019 C1010 1.429 . S
C1019 N1016 1.350 . S
C1019 C1018 1.434 . S
C1020 C1021 1.369 . S
C1020 C1022 1.419 . S
C1020 H1024 0.930 . S
C1021 C1020 1.369 . S
C1021 C1030 1.429 . S
C1022 C1020 1.419 . S
C1022 C1023 1.363 . S
C1022 H1025 0.929 . S
C1023 C1022 1.363 . S
C1023 C1029 1.428 . S
H1024 C1020 0.930 . S
H1025 C1022 0.929 . S
S1026 N1027 1.613 . S
S1026 N1028 1.610 . S
N1027 S1026 1.613 . S
N1027 C1030 1.350 . S
N1028 S1026 1.610 . S
N1028 C1029 1.351 . S
C1029 C1023 1.428 . S
C1029 N1028 1.351 . S
C1029 C1030 1.434 . S
C1030 C1021 1.429 . S
C1030 N1027 1.350 . S
C1030 C1029 1.434 . S
C1031 C1032 1.369 . S
C1031 C1033 1.419 . S
C1031 H1035 0.930 . S
C1032 C1031 1.369 . S
C1032 C1041 1.429 . S
C1033 C1031 1.419 . S
C1033 C1034 1.363 . S
C1033 H1036 0.929 . S
C1034 C1033 1.363 . S
C1034 C1040 1.428 . S
H1035 C1031 0.930 . S
H1036 C1033 0.929 . S
S1037 N1038 1.613 . S
S1037 N1039 1.610 . S
N1038 S1037 1.613 . S
N1038 C1041 1.350 . S
N1039 S1037 1.610 . S
N1039 C1040 1.351 . S
C1040 C1034 1.428 . S
C1040 N1039 1.351 . S
C1040 C1041 1.434 . S
C1041 C1032 1.429 . S
C1041 N1038 1.350 . S
C1041 C1040 1.434 . S
C1042 C1043 1.369 . S
C1042 C1044 1.419 . S
C1042 H1046 0.930 . S
C1043 C1042 1.369 . S
C1043 C1052 1.429 . S
C1044 C1042 1.419 . S
C1044 C1045 1.363 . S
C1044 H1047 0.929 . S
C1045 C1044 1.363 . S
C1045 C1051 1.428 . S
H1046 C1042 0.930 . S
H1047 C1044 0.929 . S
S1048 N1049 1.613 . S
S1048 N1050 1.610 . S
N1049 S1048 1.613 . S
N1049 C1052 1.350 . S
N1050 S1048 1.610 . S
N1050 C1051 1.351 . S
C1051 C1045 1.428 . S
C1051 N1050 1.351 . S
C1051 C1052 1.434 . S
C1052 C1043 1.429 . S
C1052 N1049 1.350 . S
C1052 C1051 1.434 . S
C1053 C1054 1.369 . S
C1053 C1055 1.419 . S
C1053 H1057 0.930 . S
C1054 C1053 1.369 . S
C1054 C1063 1.429 . S
C1055 C1053 1.419 . S
C1055 C1056 1.363 . S
C1055 H1058 0.929 . S
C1056 C1055 1.363 . S
C1056 C1062 1.428 . S
H1057 C1053 0.930 . S
H1058 C1055 0.929 . S
S1059 N1060 1.613 . S
S1059 N1061 1.610 . S
N1060 S1059 1.613 . S
N1060 C1063 1.350 . S
N1061 S1059 1.610 . S
N1061 C1062 1.351 . S
C1062 C1056 1.428 . S
C1062 N1061 1.351 . S
C1062 C1063 1.434 . S
C1063 C1054 1.429 . S
C1063 N1060 1.350 . S
C1063 C1062 1.434 . S
C1064 C1065 1.369 1_455 S
C1064 C1066 1.419 . S
C1064 H1068 0.930 . S
C1065 C1064 1.369 1_655 S
C1065 C1074 1.422 . S
C1066 C1064 1.419 . S
C1066 C1067 1.363 . S
C1066 H1069 0.929 . S
C1067 C1066 1.363 . S
C1067 C1073 1.428 1_455 S
H1068 C1064 0.930 . S
H1069 C1066 0.929 . S
S1070 N1071 1.613 . S
S1070 N1072 1.610 1_565 S
N1071 S1070 1.613 . S
N1071 C1074 1.344 1_565 S
N1072 S1070 1.610 1_545 S
N1072 C1073 1.351 . S
C1073 C1067 1.428 1_655 S
C1073 N1072 1.351 . S
C1073 C1074 1.448 . S
C1074 C1065 1.422 . S
C1074 N1071 1.344 1_545 S
C1074 C1073 1.448 . S
C1075 C1076 1.369 . S
C1075 C1077 1.419 . S
C1075 H1079 0.930 . S
C1076 C1075 1.369 . S
C1076 C1085 1.429 . S
C1077 C1075 1.419 . S
C1077 C1078 1.363 . S
C1077 H1080 0.929 . S
C1078 C1077 1.363 . S
C1078 C1084 1.428 . S
H1079 C1075 0.930 . S
H1080 C1077 0.929 . S
S1081 N1082 1.613 . S
S1081 N1083 1.610 . S
N1082 S1081 1.613 . S
N1082 C1085 1.350 . S
N1083 S1081 1.610 . S
N1083 C1084 1.351 . S
C1084 C1078 1.428 . S
C1084 N1083 1.351 . S
C1084 C1085 1.434 . S
C1085 C1076 1.429 . S
C1085 N1082 1.350 . S
C1085 C1084 1.434 . S
C1086 C1087 1.369 . S
C1086 C1088 1.419 . S
C1086 H1090 0.930 . S
C1087 C1086 1.369 . S
C1087 C1096 1.429 . S
C1088 C1086 1.419 . S
C1088 C1089 1.363 . S
C1088 H1091 0.929 . S
C1089 C1088 1.363 . S
C1089 C1095 1.428 . S
H1090 C1086 0.930 . S
H1091 C1088 0.929 . S
S1092 N1093 1.613 . S
S1092 N1094 1.610 . S
N1093 S1092 1.613 . S
N1093 C1096 1.350 . S
N1094 S1092 1.610 . S
N1094 C1095 1.351 . S
C1095 C1089 1.428 . S
C1095 N1094 1.351 . S
C1095 C1096 1.434 . S
C1096 C1087 1.429 . S
C1096 N1093 1.350 . S
C1096 C1095 1.434 . S
C1097 C1098 1.369 1_556 S
C1097 C1099 1.419 . S
C1097 H1101 0.930 . S
C1098 C1097 1.369 1_554 S
C1098 C1107 1.429 1_554 S
C1099 C1097 1.419 . S
C1099 C1100 1.363 . S
C1099 H1102 0.929 . S
C1100 C1099 1.363 . S
C1100 C1106 1.428 . S
H1101 C1097 0.930 . S
H1102 C1099 0.929 . S
S1103 N1104 1.613 1_556 S
S1103 N1105 1.610 . S
N1104 S1103 1.613 1_554 S
N1104 C1107 1.350 1_554 S
N1105 S1103 1.610 . S
N1105 C1106 1.351 . S
C1106 C1100 1.428 . S
C1106 N1105 1.351 . S
C1106 C1107 1.434 . S
C1107 C1098 1.429 1_556 S
C1107 N1104 1.350 1_556 S
C1107 C1106 1.434 . S
C1108 C1109 1.369 1_565 S
C1108 C1110 1.419 1_565 S
C1108 H1112 0.930 . S
C1109 C1108 1.369 1_545 S
C1109 C1118 1.429 1_655 S
C1110 C1108 1.419 1_545 S
C1110 C1111 1.363 1_655 S
C1110 H1113 0.929 1_545 S
C1111 C1110 1.363 1_455 S
C1111 C1117 1.428 . S
H1112 C1108 0.930 . S
H1113 C1110 0.929 1_565 S
S1114 N1115 1.613 . S
S1114 N1116 1.610 . S
N1115 S1114 1.613 . S
N1115 C1118 1.350 . S
N1116 S1114 1.610 . S
N1116 C1117 1.351 . S
C1117 C1111 1.428 . S
C1117 N1116 1.351 . S
C1117 C1118 1.434 . S
C1118 C1109 1.429 1_455 S
C1118 N1115 1.350 . S
C1118 C1117 1.434 . S
C1119 C1120 1.369 . S
C1119 C1121 1.419 . S
C1119 H1123 0.930 . S
C1120 C1119 1.369 . S
C1120 C1129 1.429 . S
C1121 C1119 1.419 . S
C1121 C1122 1.363 . S
C1121 H1124 0.929 . S
C1122 C1121 1.363 . S
C1122 C1128 1.428 . S
H1123 C1119 0.930 . S
H1124 C1121 0.929 . S
S1125 N1126 1.613 . S
S1125 N1127 1.610 . S
N1126 S1125 1.613 . S
N1126 C1129 1.350 . S
N1127 S1125 1.610 . S
N1127 C1128 1.351 . S
C1128 C1122 1.428 . S
C1128 N1127 1.351 . S
C1128 C1129 1.434 . S
C1129 C1120 1.429 . S
C1129 N1126 1.350 . S
C1129 C1128 1.434 . S
C1130 C1131 1.369 . S
C1130 C1132 1.419 . S
C1130 H1134 0.930 . S
C1131 C1130 1.369 . S
C1131 C1140 1.429 . S
C1132 C1130 1.419 . S
C1132 C1133 1.363 1_556 S
C1132 H1135 0.929 . S
C1133 C1132 1.363 1_554 S
C1133 C1139 1.428 . S
H1134 C1130 0.930 . S
H1135 C1132 0.929 . S
S1136 N1137 1.613 . S
S1136 N1138 1.610 . S
N1137 S1136 1.613 . S
N1137 C1140 1.350 1_554 S
N1138 S1136 1.610 . S
N1138 C1139 1.351 . S
C1139 C1133 1.428 . S
C1139 N1138 1.351 . S
C1139 C1140 1.434 1_554 S
C1140 C1131 1.429 . S
C1140 N1137 1.350 1_556 S
C1140 C1139 1.434 1_556 S
C1141 C1142 1.369 . S
C1141 C1143 1.419 . S
C1141 H1145 0.930 . S
C1142 C1141 1.369 . S
C1142 C1151 1.429 . S
C1143 C1141 1.419 . S
C1143 C1144 1.363 . S
C1143 H1146 0.929 . S
C1144 C1143 1.363 . S
C1144 C1150 1.428 . S
H1145 C1141 0.930 . S
H1146 C1143 0.929 . S
S1147 N1148 1.613 . S
S1147 N1149 1.610 . S
N1148 S1147 1.613 . S
N1148 C1151 1.350 . S
N1149 S1147 1.610 . S
N1149 C1150 1.351 . S
C1150 C1144 1.428 . S
C1150 N1149 1.351 . S
C1150 C1151 1.434 . S
C1151 C1142 1.429 . S
C1151 N1148 1.350 . S
C1151 C1150 1.434 . S
C1152 C1153 1.369 . S
C1152 C1154 1.419 . S
C1152 H1156 0.930 . S
C1153 C1152 1.369 . S
C1153 C1162 1.429 . S
C1154 C1152 1.419 . S
C1154 C1155 1.363 . S
C1154 H1157 0.929 . S
C1155 C1154 1.363 . S
C1155 C1161 1.428 . S
H1156 C1152 0.930 . S
H1157 C1154 0.929 . S
S1158 N1159 1.613 . S
S1158 N1160 1.610 . S
N1159 S1158 1.613 . S
N1159 C1162 1.350 . S
N1160 S1158 1.610 . S
N1160 C1161 1.351 . S
C1161 C1155 1.428 . S
C1161 N1160 1.351 . S
C1161 C1162 1.434 . S
C1162 C1153 1.429 . S
C1162 N1159 1.350 . S
C1162 C1161 1.434 . S
C1163 C1164 1.369 . S
C1163 C1165 1.419 . S
C1163 H1167 0.930 . S
C1164 C1163 1.369 . S
C1164 C1173 1.429 . S
C1165 C1163 1.419 . S
C1165 C1166 1.363 . S
C1165 H1168 0.929 . S
C1166 C1165 1.363 . S
C1166 C1172 1.428 . S
H1167 C1163 0.930 . S
H1168 C1165 0.929 . S
S1169 N1170 1.613 1_556 S
S1169 N1171 1.610 1_556 S
N1170 S1169 1.613 1_554 S
N1170 C1173 1.350 . S
N1171 S1169 1.610 1_554 S
N1171 C1172 1.351 . S
C1172 C1166 1.428 . S
C1172 N1171 1.351 . S
C1172 C1173 1.434 . S
C1173 C1164 1.429 . S
C1173 N1170 1.350 . S
C1173 C1172 1.434 . S
C1174 C1175 1.369 . S
C1174 C1176 1.419 . S
C1174 H1178 0.930 . S
C1175 C1174 1.369 . S
C1175 C1184 1.429 . S
C1176 C1174 1.419 . S
C1176 C1177 1.363 . S
C1176 H1179 0.929 . S
C1177 C1176 1.363 . S
C1177 C1183 1.428 . S
H1178 C1174 0.930 . S
H1179 C1176 0.929 . S
S1180 N1181 1.613 . S
S1180 N1182 1.610 . S
N1181 S1180 1.613 . S
N1181 C1184 1.350 . S
N1182 S1180 1.610 . S
N1182 C1183 1.351 . S
C1183 C1177 1.428 . S
C1183 N1182 1.351 . S
C1183 C1184 1.434 . S
C1184 C1175 1.429 . S
C1184 N1181 1.350 . S
C1184 C1183 1.434 . S
C1185 C1186 1.369 . S
C1185 C1187 1.419 . S
C1185 H1189 0.930 . S
C1186 C1185 1.369 . S
C1186 C1195 1.429 . S
C1187 C1185 1.419 . S
C1187 C1188 1.363 . S
C1187 H1190 0.929 . S
C1188 C1187 1.363 . S
C1188 C1194 1.428 . S
H1189 C1185 0.930 . S
H1190 C1187 0.929 . S
S1191 N1192 1.613 . S
S1191 N1193 1.610 . S
N1192 S1191 1.613 . S
N1192 C1195 1.350 . S
N1193 S1191 1.610 . S
N1193 C1194 1.351 . S
C1194 C1188 1.428 . S
C1194 N1193 1.351 . S
C1194 C1195 1.434 . S
C1195 C1186 1.429 . S
C1195 N1192 1.350 . S
C1195 C1194 1.434 . S
C1196 C1197 1.369 . S
C1196 C1198 1.419 . S
C1196 H1200 0.930 . S
C1197 C1196 1.369 . S
C1197 C1206 1.429 . S
C1198 C1196 1.419 . S
C1198 C1199 1.363 . S
C1198 H1201 0.929 . S
C1199 C1198 1.363 . S
C1199 C1205 1.428 . S
H1200 C1196 0.930 . S
H1201 C1198 0.929 . S
S1202 N1203 1.613 . S
S1202 N1204 1.610 . S
N1203 S1202 1.613 . S
N1203 C1206 1.350 . S
N1204 S1202 1.610 . S
N1204 C1205 1.351 . S
C1205 C1199 1.428 . S
C1205 N1204 1.351 . S
C1205 C1206 1.434 . S
C1206 C1197 1.429 . S
C1206 N1203 1.350 . S
C1206 C1205 1.434 . S
C1207 C1208 1.369 . S
C1207 C1209 1.419 . S
C1207 H1211 0.930 . S
C1208 C1207 1.369 . S
C1208 C1217 1.429 . S
C1209 C1207 1.419 . S
C1209 C1210 1.363 . S
C1209 H1212 0.929 . S
C1210 C1209 1.363 . S
C1210 C1216 1.428 . S
H1211 C1207 0.930 . S
H1212 C1209 0.929 . S
S1213 N1214 1.613 . S
S1213 N1215 1.610 . S
N1214 S1213 1.613 . S
N1214 C1217 1.350 . S
N1215 S1213 1.610 . S
N1215 C1216 1.351 . S
C1216 C1210 1.428 . S
C1216 N1215 1.351 . S
C1216 C1217 1.434 . S
C1217 C1208 1.429 . S
C1217 N1214 1.350 . S
C1217 C1216 1.434 . S
C1218 C1219 1.369 . S
C1218 C1220 1.419 . S
C1218 H1222 0.930 . S
C1219 C1218 1.369 . S
C1219 C1228 1.429 . S
C1220 C1218 1.419 . S
C1220 C1221 1.363 . S
C1220 H1223 0.929 . S
C1221 C1220 1.363 . S
C1221 C1227 1.428 . S
H1222 C1218 0.930 . S
H1223 C1220 0.929 . S
S1224 N1225 1.613 . S
S1224 N1226 1.610 . S
N1225 S1224 1.613 . S
N1225 C1228 1.350 . S
N1226 S1224 1.610 . S
N1226 C1227 1.351 . S
C1227 C1221 1.428 . S
C1227 N1226 1.351 . S
C1227 C1228 1.434 . S
C1228 C1219 1.429 . S
C1228 N1225 1.350 . S
C1228 C1227 1.434 . S
C1229 C1230 1.369 . S
C1229 C1231 1.419 . S
C1229 H1233 0.930 . S
C1230 C1229 1.369 . S
C1230 C1239 1.429 . S
C1231 C1229 1.419 . S
C1231 C1232 1.363 . S
C1231 H1234 0.929 . S
C1232 C1231 1.363 . S
C1232 C1238 1.428 . S
H1233 C1229 0.930 . S
H1234 C1231 0.929 . S
S1235 N1236 1.613 . S
S1235 N1237 1.610 . S
N1236 S1235 1.613 . S
N1236 C1239 1.350 . S
N1237 S1235 1.610 . S
N1237 C1238 1.351 . S
C1238 C1232 1.428 . S
C1238 N1237 1.351 . S
C1238 C1239 1.434 . S
C1239 C1230 1.429 . S
C1239 N1236 1.350 . S
C1239 C1238 1.434 . S
C1240 C1241 1.369 . S
C1240 C1242 1.419 . S
C1240 H1244 0.930 . S
C1241 C1240 1.369 . S
C1241 C1250 1.429 . S
C1242 C1240 1.419 . S
C1242 C1243 1.363 . S
C1242 H1245 0.929 . S
C1243 C1242 1.363 . S
C1243 C1249 1.428 . S
H1244 C1240 0.930 . S
H1245 C1242 0.929 . S
S1246 N1247 1.613 . S
S1246 N1248 1.610 . S
N1247 S1246 1.613 . S
N1247 C1250 1.350 . S
N1248 S1246 1.610 . S
N1248 C1249 1.351 . S
C1249 C1243 1.428 . S
C1249 N1248 1.351 . S
C1249 C1250 1.434 . S
C1250 C1241 1.429 . S
C1250 N1247 1.350 . S
C1250 C1249 1.434 . S
C1251 C1252 1.369 . S
C1251 C1253 1.419 . S
C1251 H1255 0.930 . S
C1252 C1251 1.369 . S
C1252 C1261 1.429 . S
C1253 C1251 1.419 . S
C1253 C1254 1.363 . S
C1253 H1256 0.929 . S
C1254 C1253 1.363 . S
C1254 C1260 1.428 . S
H1255 C1251 0.930 . S
H1256 C1253 0.929 . S
S1257 N1258 1.613 . S
S1257 N1259 1.610 . S
N1258 S1257 1.613 . S
N1258 C1261 1.350 . S
N1259 S1257 1.610 . S
N1259 C1260 1.351 . S
C1260 C1254 1.428 . S
C1260 N1259 1.351 . S
C1260 C1261 1.434 . S
C1261 C1252 1.429 . S
C1261 N1258 1.350 . S
C1261 C1260 1.434 . S
C1262 C1263 1.369 . S
C1262 C1264 1.419 . S
C1262 H1266 0.930 . S
C1263 C1262 1.369 . S
C1263 C1272 1.429 . S
C1264 C1262 1.419 . S
C1264 C1265 1.363 . S
C1264 H1267 0.929 . S
C1265 C1264 1.363 . S
C1265 C1271 1.428 . S
H1266 C1262 0.930 . S
H1267 C1264 0.929 . S
S1268 N1269 1.613 . S
S1268 N1270 1.610 . S
N1269 S1268 1.613 . S
N1269 C1272 1.350 . S
N1270 S1268 1.610 . S
N1270 C1271 1.351 . S
C1271 C1265 1.428 . S
C1271 N1270 1.351 . S
C1271 C1272 1.434 . S
C1272 C1263 1.429 . S
C1272 N1269 1.350 . S
C1272 C1271 1.434 . S
C1273 C1274 1.369 . S
C1273 C1275 1.419 . S
C1273 H1277 0.930 . S
C1274 C1273 1.369 . S
C1274 C1283 1.429 . S
C1275 C1273 1.419 . S
C1275 C1276 1.363 . S
C1275 H1278 0.929 . S
C1276 C1275 1.363 . S
C1276 C1282 1.428 . S
H1277 C1273 0.930 . S
H1278 C1275 0.929 . S
S1279 N1280 1.613 . S
S1279 N1281 1.610 . S
N1280 S1279 1.613 . S
N1280 C1283 1.350 . S
N1281 S1279 1.610 . S
N1281 C1282 1.351 . S
C1282 C1276 1.428 . S
C1282 N1281 1.351 . S
C1282 C1283 1.434 . S
C1283 C1274 1.429 . S
C1283 N1280 1.350 . S
C1283 C1282 1.434 . S
C1284 C1285 1.362 1_455 S
C1284 C1286 1.419 . S
C1284 H1288 0.930 . S
C1285 C1284 1.362 1_655 S
C1285 C1294 1.436 . S
C1286 C1284 1.419 . S
C1286 C1287 1.363 1_455 S
C1286 H1289 0.929 . S
C1287 C1286 1.363 1_655 S
C1287 C1293 1.428 . S
H1288 C1284 0.930 . S
H1289 C1286 0.929 . S
S1290 N1291 1.613 . S
S1290 N1292 1.610 . S
N1291 S1290 1.613 . S
N1291 C1294 1.350 . S
N1292 S1290 1.610 . S
N1292 C1293 1.351 . S
C1293 C1287 1.428 . S
C1293 N1292 1.351 . S
C1293 C1294 1.434 . S
C1294 C1285 1.436 . S
C1294 N1291 1.350 . S
C1294 C1293 1.434 . S
C1295 C1296 1.369 . S
C1295 C1297 1.419 . S
C1295 H1299 0.930 . S
C1296 C1295 1.369 . S
C1296 C1305 1.429 . S
C1297 C1295 1.419 . S
C1297 C1298 1.363 . S
C1297 H1300 0.929 . S
C1298 C1297 1.363 . S
C1298 C1304 1.428 . S
H1299 C1295 0.930 . S
H1300 C1297 0.929 . S
S1301 N1302 1.613 . S
S1301 N1303 1.610 . S
N1302 S1301 1.613 . S
N1302 C1305 1.350 . S
N1303 S1301 1.610 . S
N1303 C1304 1.351 . S
C1304 C1298 1.428 . S
C1304 N1303 1.351 . S
C1304 C1305 1.434 . S
C1305 C1296 1.429 . S
C1305 N1302 1.350 . S
C1305 C1304 1.434 . S
C1306 C1307 1.369 1_554 S
C1306 C1308 1.419 . S
C1306 H1310 0.928 1_554 S
C1307 C1306 1.369 1_556 S
C1307 C1316 1.429 . S
C1308 C1306 1.419 . S
C1308 C1309 1.363 . S
C1308 H1311 0.929 . S
C1309 C1308 1.363 . S
C1309 C1315 1.428 . S
H1310 C1306 0.928 1_556 S
H1311 C1308 0.929 . S
S1312 N1313 1.613 . S
S1312 N1314 1.610 1_556 S
N1313 S1312 1.613 . S
N1313 C1316 1.350 . S
N1314 S1312 1.610 1_554 S
N1314 C1315 1.351 . S
C1315 C1309 1.428 . S
C1315 N1314 1.351 . S
C1315 C1316 1.434 1_554 S
C1316 C1307 1.429 . S
C1316 N1313 1.350 . S
C1316 C1315 1.434 1_556 S
C1317 C1318 1.369 1_655 S
C1317 C1319 1.419 . S
C1317 H1321 0.930 . S
C1318 C1317 1.369 1_455 S
C1318 C1327 1.429 . S
C1319 C1317 1.419 . S
C1319 C1320 1.363 . S
C1319 H1322 0.929 . S
C1320 C1319 1.363 . S
C1320 C1326 1.428 1_655 S
H1321 C1317 0.930 . S
H1322 C1319 0.929 . S
S1323 N1324 1.613 . S
S1323 N1325 1.610 . S
N1324 S1323 1.613 . S
N1324 C1327 1.350 . S
N1325 S1323 1.610 . S
N1325 C1326 1.351 . S
C1326 C1320 1.428 1_455 S
C1326 N1325 1.351 . S
C1326 C1327 1.434 . S
C1327 C1318 1.429 . S
C1327 N1324 1.350 . S
C1327 C1326 1.434 . S
C1328 C1329 1.369 . S
C1328 C1330 1.441 . S
C1328 H1332 0.930 . S
C1329 C1328 1.369 . S
C1329 C1338 1.429 . S
C1330 C1328 1.441 . S
C1330 C1331 1.366 . S
C1330 H1333 0.903 1_556 S
C1331 C1330 1.366 . S
C1331 C1337 1.428 . S
H1332 C1328 0.930 . S
H1333 C1330 0.903 1_554 S
S1334 N1335 1.613 . S
S1334 N1336 1.610 . S
N1335 S1334 1.613 . S
N1335 C1338 1.350 . S
N1336 S1334 1.610 . S
N1336 C1337 1.351 . S
C1337 C1331 1.428 . S
C1337 N1336 1.351 . S
C1337 C1338 1.434 . S
C1338 C1329 1.429 . S
C1338 N1335 1.350 . S
C1338 C1337 1.434 . S
C1339 C1340 1.369 . S
C1339 C1341 1.419 . S
C1339 H1343 0.930 . S
C1340 C1339 1.369 . S
C1340 C1349 1.429 . S
C1341 C1339 1.419 . S
C1341 C1342 1.363 . S
C1341 H1344 0.929 . S
C1342 C1341 1.363 . S
C1342 C1348 1.428 . S
H1343 C1339 0.930 . S
H1344 C1341 0.929 . S
S1345 N1346 1.613 . S
S1345 N1347 1.610 . S
N1346 S1345 1.613 . S
N1346 C1349 1.350 . S
N1347 S1345 1.610 . S
N1347 C1348 1.351 . S
C1348 C1342 1.428 . S
C1348 N1347 1.351 . S
C1348 C1349 1.434 . S
C1349 C1340 1.429 . S
C1349 N1346 1.350 . S
C1349 C1348 1.434 . S
C1350 C1351 1.369 . S
C1350 C1352 1.419 . S
C1350 H1354 0.930 . S
C1351 C1350 1.369 . S
C1351 C1360 1.429 . S
C1352 C1350 1.419 . S
C1352 C1353 1.363 . S
C1352 H1355 0.929 . S
C1353 C1352 1.363 . S
C1353 C1359 1.428 . S
H1354 C1350 0.930 . S
H1355 C1352 0.929 . S
S1356 N1357 1.613 . S
S1356 N1358 1.610 . S
N1357 S1356 1.613 . S
N1357 C1360 1.350 1_565 S
N1358 S1356 1.610 . S
N1358 C1359 1.351 1_565 S
C1359 C1353 1.428 . S
C1359 N1358 1.351 1_545 S
C1359 C1360 1.434 . S
C1360 C1351 1.429 . S
C1360 N1357 1.350 1_545 S
C1360 C1359 1.434 . S
C1361 C1362 1.369 . S
C1361 C1363 1.419 . S
C1361 H1365 0.930 . S
C1362 C1361 1.369 . S
C1362 C1371 1.429 . S
C1363 C1361 1.419 . S
C1363 C1364 1.363 . S
C1363 H1366 0.929 . S
C1364 C1363 1.363 . S
C1364 C1370 1.428 . S
H1365 C1361 0.930 . S
H1366 C1363 0.929 . S
S1367 N1368 1.613 . S
S1367 N1369 1.610 . S
N1368 S1367 1.613 . S
N1368 C1371 1.350 . S
N1369 S1367 1.610 . S
N1369 C1370 1.351 . S
C1370 C1364 1.428 . S
C1370 N1369 1.351 . S
C1370 C1371 1.434 . S
C1371 C1362 1.429 . S
C1371 N1368 1.350 . S
C1371 C1370 1.434 . S
C1372 C1373 1.369 . S
C1372 C1374 1.419 . S
C1372 H1376 0.930 . S
C1373 C1372 1.369 . S
C1373 C1382 1.429 . S
C1374 C1372 1.419 . S
C1374 C1375 1.363 . S
C1374 H1377 0.929 . S
C1375 C1374 1.363 . S
C1375 C1381 1.428 . S
H1376 C1372 0.930 . S
H1377 C1374 0.929 . S
S1378 N1379 1.613 . S
S1378 N1380 1.610 . S
N1379 S1378 1.613 . S
N1379 C1382 1.350 . S
N1380 S1378 1.610 . S
N1380 C1381 1.351 . S
C1381 C1375 1.428 . S
C1381 N1380 1.351 . S
C1381 C1382 1.434 . S
C1382 C1373 1.429 . S
C1382 N1379 1.350 . S
C1382 C1381 1.434 . S
C1383 C1384 1.369 . S
C1383 C1385 1.419 . S
C1383 H1387 0.930 . S
C1384 C1383 1.369 . S
C1384 C1393 1.429 . S
C1385 C1383 1.419 . S
C1385 C1386 1.363 . S
C1385 H1388 0.929 . S
C1386 C1385 1.363 . S
C1386 C1392 1.428 . S
H1387 C1383 0.930 . S
H1388 C1385 0.929 . S
S1389 N1390 1.613 . S
S1389 N1391 1.610 . S
N1390 S1389 1.613 . S
N1390 C1393 1.350 . S
N1391 S1389 1.610 . S
N1391 C1392 1.351 . S
C1392 C1386 1.428 . S
C1392 N1391 1.351 . S
C1392 C1393 1.434 . S
C1393 C1384 1.429 . S
C1393 N1390 1.350 . S
C1393 C1392 1.434 . S
C1394 C1395 1.369 . S
C1394 C1396 1.419 . S
C1394 H1398 0.930 . S
C1395 C1394 1.369 . S
C1395 C1404 1.429 . S
C1396 C1394 1.419 . S
C1396 C1397 1.363 . S
C1396 H1399 0.929 . S
C1397 C1396 1.363 . S
C1397 C1403 1.428 . S
H1398 C1394 0.930 . S
H1399 C1396 0.929 . S
S1400 N1401 1.613 1_565 S
S1400 N1402 1.610 1_565 S
N1401 S1400 1.613 1_545 S
N1401 C1404 1.350 . S
N1402 S1400 1.610 1_545 S
N1402 C1403 1.351 . S
C1403 C1397 1.428 . S
C1403 N1402 1.351 . S
C1403 C1404 1.434 . S
C1404 C1395 1.429 . S
C1404 N1401 1.350 . S
C1404 C1403 1.434 . S
C1405 C1406 1.369 . S
C1405 C1407 1.419 . S
C1405 H1409 0.930 1_556 S
C1406 C1405 1.369 . S
C1406 C1415 1.429 . S
C1407 C1405 1.419 . S
C1407 C1408 1.363 . S
C1407 H1410 0.929 . S
C1408 C1407 1.363 . S
C1408 C1414 1.428 . S
H1409 C1405 0.930 1_554 S
H1410 C1407 0.929 . S
S1411 N1412 1.613 . S
S1411 N1413 1.610 . S
N1412 S1411 1.613 . S
N1412 C1415 1.350 . S
N1413 S1411 1.610 . S
N1413 C1414 1.351 . S
C1414 C1408 1.428 . S
C1414 N1413 1.351 . S
C1414 C1415 1.434 . S
C1415 C1406 1.429 . S
C1415 N1412 1.350 . S
C1415 C1414 1.434 . S
C1416 C1417 1.369 . S
C1416 C1418 1.419 . S
C1416 H1420 0.930 . S
C1417 C1416 1.369 . S
C1417 C1426 1.429 . S
C1418 C1416 1.419 . S
C1418 C1419 1.363 . S
C1418 H1421 0.929 . S
C1419 C1418 1.363 . S
C1419 C1425 1.428 . S
H1420 C1416 0.930 . S
H1421 C1418 0.929 . S
S1422 N1423 1.613 . S
S1422 N1424 1.610 . S
N1423 S1422 1.613 . S
N1423 C1426 1.350 . S
N1424 S1422 1.610 . S
N1424 C1425 1.351 . S
C1425 C1419 1.428 . S
C1425 N1424 1.351 . S
C1425 C1426 1.434 . S
C1426 C1417 1.429 . S
C1426 N1423 1.350 . S
C1426 C1425 1.434 . S
C1427 C1428 1.369 . S
C1427 C1429 1.419 . S
C1427 H1431 0.930 . S
C1428 C1427 1.369 . S
C1428 C1437 1.429 . S
C1429 C1427 1.419 . S
C1429 C1430 1.363 . S
C1429 H1432 0.929 . S
C1430 C1429 1.363 . S
C1430 C1436 1.428 . S
H1431 C1427 0.930 . S
H1432 C1429 0.929 . S
S1433 N1434 1.613 . S
S1433 N1435 1.610 . S
N1434 S1433 1.613 . S
N1434 C1437 1.350 . S
N1435 S1433 1.610 . S
N1435 C1436 1.351 . S
C1436 C1430 1.428 . S
C1436 N1435 1.351 . S
C1436 C1437 1.434 . S
C1437 C1428 1.429 . S
C1437 N1434 1.350 . S
C1437 C1436 1.434 . S
C1438 C1439 1.369 . S
C1438 C1440 1.419 . S
C1438 H1442 0.930 . S
C1439 C1438 1.369 . S
C1439 C1448 1.429 . S
C1440 C1438 1.419 . S
C1440 C1441 1.363 . S
C1440 H1443 0.929 . S
C1441 C1440 1.363 . S
C1441 C1447 1.428 . S
H1442 C1438 0.930 . S
H1443 C1440 0.929 . S
S1444 N1445 1.613 . S
S1444 N1446 1.610 . S
N1445 S1444 1.613 . S
N1445 C1448 1.350 . S
N1446 S1444 1.610 . S
N1446 C1447 1.351 . S
C1447 C1441 1.428 . S
C1447 N1446 1.351 . S
C1447 C1448 1.434 . S
C1448 C1439 1.429 . S
C1448 N1445 1.350 . S
C1448 C1447 1.434 . S
C1449 C1450 1.369 . S
C1449 C1451 1.419 . S
C1449 H1453 0.930 . S
C1450 C1449 1.369 . S
C1450 C1459 1.429 . S
C1451 C1449 1.419 . S
C1451 C1452 1.363 . S
C1451 H1454 0.929 . S
C1452 C1451 1.363 . S
C1452 C1458 1.428 . S
H1453 C1449 0.930 . S
H1454 C1451 0.929 . S
S1455 N1456 1.613 . S
S1455 N1457 1.610 . S
N1456 S1455 1.613 . S
N1456 C1459 1.350 . S
N1457 S1455 1.610 . S
N1457 C1458 1.351 . S
C1458 C1452 1.428 . S
C1458 N1457 1.351 . S
C1458 C1459 1.434 . S
C1459 C1450 1.429 . S
C1459 N1456 1.350 . S
C1459 C1458 1.434 . S
C1460 C1461 1.369 . S
C1460 C1462 1.419 . S
C1460 H1464 0.930 . S
C1461 C1460 1.369 . S
C1461 C1470 1.429 . S
C1462 C1460 1.419 . S
C1462 C1463 1.363 . S
C1462 H1465 0.929 . S
C1463 C1462 1.363 . S
C1463 C1469 1.428 . S
H1464 C1460 0.930 . S
H1465 C1462 0.929 . S
S1466 N1467 1.613 . S
S1466 N1468 1.610 . S
N1467 S1466 1.613 . S
N1467 C1470 1.350 . S
N1468 S1466 1.610 . S
N1468 C1469 1.351 . S
C1469 C1463 1.428 . S
C1469 N1468 1.351 . S
C1469 C1470 1.434 . S
C1470 C1461 1.429 . S
C1470 N1467 1.350 . S
C1470 C1469 1.434 . S
C1471 C1472 1.369 . S
C1471 C1473 1.419 . S
C1471 H1475 0.930 . S
C1472 C1471 1.369 . S
C1472 C1481 1.429 . S
C1473 C1471 1.419 . S
C1473 C1474 1.363 . S
C1473 H1476 0.929 . S
C1474 C1473 1.363 . S
C1474 C1480 1.428 . S
H1475 C1471 0.930 . S
H1476 C1473 0.929 . S
S1477 N1478 1.613 . S
S1477 N1479 1.610 . S
N1478 S1477 1.613 . S
N1478 C1481 1.350 . S
N1479 S1477 1.610 . S
N1479 C1480 1.351 . S
C1480 C1474 1.428 . S
C1480 N1479 1.351 . S
C1480 C1481 1.434 . S
C1481 C1472 1.429 . S
C1481 N1478 1.350 . S
C1481 C1480 1.434 . S
C1482 C1483 1.369 . S
C1482 C1484 1.419 . S
C1482 H1486 0.930 . S
C1483 C1482 1.369 . S
C1483 C1492 1.429 . S
C1484 C1482 1.419 . S
C1484 C1485 1.363 . S
C1484 H1487 0.929 . S
C1485 C1484 1.363 . S
C1485 C1491 1.428 . S
H1486 C1482 0.930 . S
H1487 C1484 0.929 . S
S1488 N1489 1.613 . S
S1488 N1490 1.610 . S
N1489 S1488 1.613 . S
N1489 C1492 1.350 . S
N1490 S1488 1.610 . S
N1490 C1491 1.351 . S
C1491 C1485 1.428 . S
C1491 N1490 1.351 . S
C1491 C1492 1.434 . S
C1492 C1483 1.429 . S
C1492 N1489 1.350 . S
C1492 C1491 1.434 . S
C1493 C1494 1.369 . S
C1493 C1495 1.419 . S
C1493 H1497 0.930 . S
C1494 C1493 1.369 . S
C1494 C1503 1.429 . S
C1495 C1493 1.419 . S
C1495 C1496 1.363 . S
C1495 H1498 0.929 . S
C1496 C1495 1.363 . S
C1496 C1502 1.428 . S
H1497 C1493 0.930 . S
H1498 C1495 0.929 . S
S1499 N1500 1.613 . S
S1499 N1501 1.610 . S
N1500 S1499 1.613 . S
N1500 C1503 1.350 . S
N1501 S1499 1.610 . S
N1501 C1502 1.351 . S
C1502 C1496 1.428 . S
C1502 N1501 1.351 . S
C1502 C1503 1.434 . S
C1503 C1494 1.429 . S
C1503 N1500 1.350 . S
C1503 C1502 1.434 . S
C1504 C1505 1.369 . S
C1504 C1506 1.419 . S
C1504 H1508 0.930 . S
C1505 C1504 1.369 . S
C1505 C1514 1.429 . S
C1506 C1504 1.419 . S
C1506 C1507 1.363 . S
C1506 H1509 0.929 . S
C1507 C1506 1.363 . S
C1507 C1513 1.428 . S
H1508 C1504 0.930 . S
H1509 C1506 0.929 . S
S1510 N1511 1.613 . S
S1510 N1512 1.610 . S
N1511 S1510 1.613 . S
N1511 C1514 1.350 . S
N1512 S1510 1.610 . S
N1512 C1513 1.351 . S
C1513 C1507 1.428 . S
C1513 N1512 1.351 . S
C1513 C1514 1.434 . S
C1514 C1505 1.429 . S
C1514 N1511 1.350 . S
C1514 C1513 1.434 . S
C1515 C1516 1.369 . S
C1515 C1517 1.419 . S
C1515 H1519 0.930 . S
C1516 C1515 1.369 . S
C1516 C1525 1.429 . S
C1517 C1515 1.419 . S
C1517 C1518 1.363 . S
C1517 H1520 0.929 . S
C1518 C1517 1.363 . S
C1518 C1524 1.428 . S
H1519 C1515 0.930 . S
H1520 C1517 0.929 . S
S1521 N1522 1.613 . S
S1521 N1523 1.610 . S
N1522 S1521 1.613 . S
N1522 C1525 1.350 . S
N1523 S1521 1.610 . S
N1523 C1524 1.351 . S
C1524 C1518 1.428 . S
C1524 N1523 1.351 . S
C1524 C1525 1.434 . S
C1525 C1516 1.429 . S
C1525 N1522 1.350 . S
C1525 C1524 1.434 . S
C1526 C1527 1.369 . S
C1526 C1528 1.419 . S
C1526 H1530 0.930 . S
C1527 C1526 1.369 . S
C1527 C1536 1.429 . S
C1528 C1526 1.419 . S
C1528 C1529 1.363 . S
C1528 H1531 0.929 . S
C1529 C1528 1.363 . S
C1529 C1535 1.428 . S
H1530 C1526 0.930 . S
H1531 C1528 0.929 . S
S1532 N1533 1.612 1_655 S
S1532 N1534 1.610 1_655 S
N1533 S1532 1.612 1_455 S
N1533 C1536 1.350 1_556 S
N1534 S1532 1.610 1_455 S
N1534 C1535 1.351 1_556 S
C1535 C1529 1.428 . S
C1535 N1534 1.351 1_554 S
C1535 C1536 1.434 . S
C1536 C1527 1.429 . S
C1536 N1533 1.350 1_554 S
C1536 C1535 1.434 . S
C1537 C1538 1.369 1_655 S
C1537 C1539 1.419 . S
C1537 H1541 0.930 1_655 S
C1538 C1537 1.369 1_455 S
C1538 C1547 1.429 1_455 S
C1539 C1537 1.419 . S
C1539 C1540 1.363 . S
C1539 H1542 0.929 . S
C1540 C1539 1.363 . S
C1540 C1546 1.428 . S
H1541 C1537 0.930 1_455 S
H1542 C1539 0.929 . S
S1543 N1544 1.613 . S
S1543 N1545 1.610 . S
N1544 S1543 1.613 . S
N1544 C1547 1.350 . S
N1545 S1543 1.610 . S
N1545 C1546 1.351 . S
C1546 C1540 1.428 . S
C1546 N1545 1.351 . S
C1546 C1547 1.434 . S
C1547 C1538 1.429 1_655 S
C1547 N1544 1.350 . S
C1547 C1546 1.434 . S
C1548 C1549 1.369 . S
C1548 C1550 1.419 . S
C1548 H1552 0.930 . S
C1549 C1548 1.369 . S
C1549 C1558 1.429 . S
C1550 C1548 1.419 . S
C1550 C1551 1.363 . S
C1550 H1553 0.929 . S
C1551 C1550 1.363 . S
C1551 C1557 1.428 . S
H1552 C1548 0.930 . S
H1553 C1550 0.929 . S
S1554 N1555 1.613 . S
S1554 N1556 1.610 . S
N1555 S1554 1.613 . S
N1555 C1558 1.350 . S
N1556 S1554 1.610 . S
N1556 C1557 1.351 . S
C1557 C1551 1.428 . S
C1557 N1556 1.351 . S
C1557 C1558 1.434 . S
C1558 C1549 1.429 . S
C1558 N1555 1.350 . S
C1558 C1557 1.434 . S
C1559 C1560 1.369 . S
C1559 C1561 1.419 . S
C1559 H1563 0.930 . S
C1560 C1559 1.369 . S
C1560 C1569 1.429 . S
C1561 C1559 1.419 . S
C1561 C1562 1.363 . S
C1561 H1564 0.929 . S
C1562 C1561 1.363 . S
C1562 C1568 1.428 . S
H1563 C1559 0.930 . S
H1564 C1561 0.929 . S
S1565 N1566 1.613 . S
S1565 N1567 1.610 . S
N1566 S1565 1.613 . S
N1566 C1569 1.350 . S
N1567 S1565 1.610 . S
N1567 C1568 1.351 . S
C1568 C1562 1.428 . S
C1568 N1567 1.351 . S
C1568 C1569 1.434 . S
C1569 C1560 1.429 . S
C1569 N1566 1.350 . S
C1569 C1568 1.434 . S
C1570 C1571 1.369 . S
C1570 C1572 1.419 . S
C1570 H1574 0.930 . S
C1571 C1570 1.369 . S
C1571 C1580 1.429 . S
C1572 C1570 1.419 . S
C1572 C1573 1.363 . S
C1572 H1575 0.929 . S
C1573 C1572 1.363 . S
C1573 C1579 1.428 . S
H1574 C1570 0.930 . S
H1575 C1572 0.929 . S
S1576 N1577 1.613 . S
S1576 N1578 1.610 . S
N1577 S1576 1.613 . S
N1577 C1580 1.350 . S
N1578 S1576 1.610 . S
N1578 C1579 1.351 . S
C1579 C1573 1.428 . S
C1579 N1578 1.351 . S
C1579 C1580 1.434 . S
C1580 C1571 1.429 . S
C1580 N1577 1.350 . S
C1580 C1579 1.434 . S
C1581 C1582 1.369 . S
C1581 C1583 1.419 . S
C1581 H1585 0.930 . S
C1582 C1581 1.369 . S
C1582 C1591 1.429 . S
C1583 C1581 1.419 . S
C1583 C1584 1.363 . S
C1583 H1586 0.929 . S
C1584 C1583 1.363 . S
C1584 C1590 1.428 . S
H1585 C1581 0.930 . S
H1586 C1583 0.929 . S
S1587 N1588 1.613 . S
S1587 N1589 1.610 . S
N1588 S1587 1.613 . S
N1588 C1591 1.350 . S
N1589 S1587 1.610 . S
N1589 C1590 1.351 . S
C1590 C1584 1.428 . S
C1590 N1589 1.351 . S
C1590 C1591 1.434 . S
C1591 C1582 1.429 . S
C1591 N1588 1.350 . S
C1591 C1590 1.434 . S
C1592 C1593 1.369 . S
C1592 C1594 1.419 . S
C1592 H1596 0.930 . S
C1593 C1592 1.369 . S
C1593 C1602 1.429 . S
C1594 C1592 1.419 . S
C1594 C1595 1.363 . S
C1594 H1597 0.929 . S
C1595 C1594 1.363 . S
C1595 C1601 1.428 . S
H1596 C1592 0.930 . S
H1597 C1594 0.929 . S
S1598 N1599 1.613 . S
S1598 N1600 1.610 . S
N1599 S1598 1.613 . S
N1599 C1602 1.350 . S
N1600 S1598 1.610 . S
N1600 C1601 1.351 . S
C1601 C1595 1.428 . S
C1601 N1600 1.351 . S
C1601 C1602 1.434 . S
C1602 C1593 1.429 . S
C1602 N1599 1.350 . S
C1602 C1601 1.434 . S
C1603 C1604 1.369 . S
C1603 C1605 1.419 . S
C1603 H1607 0.930 . S
C1604 C1603 1.369 . S
C1604 C1613 1.429 . S
C1605 C1603 1.419 . S
C1605 C1606 1.363 . S
C1605 H1608 0.929 . S
C1606 C1605 1.363 . S
C1606 C1612 1.428 . S
H1607 C1603 0.930 . S
H1608 C1605 0.929 . S
S1609 N1610 1.613 . S
S1609 N1611 1.610 . S
N1610 S1609 1.613 . S
N1610 C1613 1.350 . S
N1611 S1609 1.610 . S
N1611 C1612 1.351 . S
C1612 C1606 1.428 . S
C1612 N1611 1.351 . S
C1612 C1613 1.434 . S
C1613 C1604 1.429 . S
C1613 N1610 1.350 . S
C1613 C1612 1.434 . S
C1614 C1615 1.369 . S
C1614 C1616 1.419 . S
C1614 H1618 0.930 . S
C1615 C1614 1.369 . S
C1615 C1624 1.429 . S
C1616 C1614 1.419 . S
C1616 C1617 1.363 . S
C1616 H1619 0.929 . S
C1617 C1616 1.363 . S
C1617 C1623 1.428 . S
H1618 C1614 0.930 . S
H1619 C1616 0.929 . S
S1620 N1621 1.613 . S
S1620 N1622 1.610 . S
N1621 S1620 1.613 . S
N1621 C1624 1.350 . S
N1622 S1620 1.610 . S
N1622 C1623 1.351 . S
C1623 C1617 1.428 . S
C1623 N1622 1.351 . S
C1623 C1624 1.434 . S
C1624 C1615 1.429 . S
C1624 N1621 1.350 . S
C1624 C1623 1.434 . S
C1625 C1626 1.369 . S
C1625 C1627 1.419 . S
C1625 H1629 0.930 . S
C1626 C1625 1.369 . S
C1626 C1635 1.429 . S
C1627 C1625 1.419 . S
C1627 C1628 1.363 . S
C1627 H1630 0.929 . S
C1628 C1627 1.363 . S
C1628 C1634 1.428 . S
H1629 C1625 0.930 . S
H1630 C1627 0.929 . S
S1631 N1632 1.613 . S
S1631 N1633 1.610 . S
N1632 S1631 1.613 . S
N1632 C1635 1.350 . S
N1633 S1631 1.610 . S
N1633 C1634 1.351 . S
C1634 C1628 1.428 . S
C1634 N1633 1.351 . S
C1634 C1635 1.434 . S
C1635 C1626 1.429 . S
C1635 N1632 1.350 . S
C1635 C1634 1.434 . S
C1636 C1637 1.369 . S
C1636 C1638 1.419 . S
C1636 H1640 0.930 . S
C1637 C1636 1.369 . S
C1637 C1646 1.429 . S
C1638 C1636 1.419 . S
C1638 C1639 1.363 . S
C1638 H1641 0.929 . S
C1639 C1638 1.363 . S
C1639 C1645 1.428 . S
H1640 C1636 0.930 . S
H1641 C1638 0.929 . S
S1642 N1643 1.613 . S
S1642 N1644 1.610 . S
N1643 S1642 1.613 . S
N1643 C1646 1.350 . S
N1644 S1642 1.610 . S
N1644 C1645 1.351 . S
C1645 C1639 1.428 . S
C1645 N1644 1.351 . S
C1645 C1646 1.434 . S
C1646 C1637 1.429 . S
C1646 N1643 1.350 . S
C1646 C1645 1.434 . S
C1647 C1648 1.369 . S
C1647 C1649 1.419 . S
C1647 H1651 0.930 . S
C1648 C1647 1.369 . S
C1648 C1657 1.429 . S
C1649 C1647 1.419 . S
C1649 C1650 1.363 . S
C1649 H1652 0.929 . S
C1650 C1649 1.363 . S
C1650 C1656 1.428 . S
H1651 C1647 0.930 . S
H1652 C1649 0.929 . S
S1653 N1654 1.613 . S
S1653 N1655 1.610 . S
N1654 S1653 1.613 . S
N1654 C1657 1.350 . S
N1655 S1653 1.610 . S
N1655 C1656 1.351 . S
C1656 C1650 1.428 . S
C1656 N1655 1.351 . S
C1656 C1657 1.434 . S
C1657 C1648 1.429 . S
C1657 N1654 1.350 . S
C1657 C1656 1.434 . S
C1658 C1659 1.369 . S
C1658 C1660 1.419 . S
C1658 H1662 0.930 . S
C1659 C1658 1.369 . S
C1659 C1668 1.429 . S
C1660 C1658 1.419 . S
C1660 C1661 1.363 . S
C1660 H1663 0.929 . S
C1661 C1660 1.363 . S
C1661 C1667 1.428 . S
H1662 C1658 0.930 . S
H1663 C1660 0.929 . S
S1664 N1665 1.613 . S
S1664 N1666 1.610 . S
N1665 S1664 1.613 . S
N1665 C1668 1.350 . S
N1666 S1664 1.610 . S
N1666 C1667 1.351 . S
C1667 C1661 1.428 . S
C1667 N1666 1.351 . S
C1667 C1668 1.434 . S
C1668 C1659 1.429 . S
C1668 N1665 1.350 . S
C1668 C1667 1.434 . S
C1669 C1670 1.369 . S
C1669 C1671 1.419 . S
C1669 H1673 0.930 . S
C1670 C1669 1.369 . S
C1670 C1679 1.429 . S
C1671 C1669 1.419 . S
C1671 C1672 1.363 . S
C1671 H1674 0.929 . S
C1672 C1671 1.363 . S
C1672 C1678 1.428 . S
H1673 C1669 0.930 . S
H1674 C1671 0.929 . S
S1675 N1676 1.613 . S
S1675 N1677 1.610 . S
N1676 S1675 1.613 . S
N1676 C1679 1.350 . S
N1677 S1675 1.610 . S
N1677 C1678 1.351 . S
C1678 C1672 1.428 . S
C1678 N1677 1.351 . S
C1678 C1679 1.434 . S
C1679 C1670 1.429 . S
C1679 N1676 1.350 . S
C1679 C1678 1.434 . S
C1680 C1681 1.369 . S
C1680 C1682 1.419 . S
C1680 H1684 0.930 . S
C1681 C1680 1.369 . S
C1681 C1690 1.429 . S
C1682 C1680 1.419 . S
C1682 C1683 1.363 . S
C1682 H1685 0.929 . S
C1683 C1682 1.363 . S
C1683 C1689 1.428 . S
H1684 C1680 0.930 . S
H1685 C1682 0.929 . S
S1686 N1687 1.613 . S
S1686 N1688 1.610 . S
N1687 S1686 1.613 . S
N1687 C1690 1.350 . S
N1688 S1686 1.610 . S
N1688 C1689 1.351 . S
C1689 C1683 1.428 . S
C1689 N1688 1.351 . S
C1689 C1690 1.434 . S
C1690 C1681 1.429 . S
C1690 N1687 1.350 . S
C1690 C1689 1.434 . S
C1691 C1692 1.369 . S
C1691 C1693 1.419 . S
C1691 H1695 0.930 . S
C1692 C1691 1.369 . S
C1692 C1701 1.429 . S
C1693 C1691 1.419 . S
C1693 C1694 1.363 . S
C1693 H1696 0.929 . S
C1694 C1693 1.363 . S
C1694 C1700 1.428 . S
H1695 C1691 0.930 . S
H1696 C1693 0.929 . S
S1697 N1698 1.613 . S
S1697 N1699 1.610 . S
N1698 S1697 1.613 . S
N1698 C1701 1.350 . S
N1699 S1697 1.610 . S
N1699 C1700 1.351 . S
C1700 C1694 1.428 . S
C1700 N1699 1.351 . S
C1700 C1701 1.434 . S
C1701 C1692 1.429 . S
C1701 N1698 1.350 . S
C1701 C1700 1.434 . S
C1702 C1703 1.369 . S
C1702 C1704 1.419 1_545 S
C1702 H1706 0.930 . S
C1703 C1702 1.369 . S
C1703 C1712 1.429 . S
C1704 C1702 1.419 1_565 S
C1704 C1705 1.363 . S
C1704 H1707 0.929 . S
C1705 C1704 1.363 . S
C1705 C1711 1.428 . S
H1706 C1702 0.930 . S
H1707 C1704 0.929 . S
S1708 N1709 1.613 1_565 S
S1708 N1710 1.610 . S
N1709 S1708 1.613 1_545 S
N1709 C1712 1.350 . S
N1710 S1708 1.610 . S
N1710 C1711 1.351 . S
C1711 C1705 1.428 . S
C1711 N1710 1.351 . S
C1711 C1712 1.434 1_565 S
C1712 C1703 1.429 . S
C1712 N1709 1.350 . S
C1712 C1711 1.434 1_545 S
C1713 C1714 1.369 . S
C1713 C1715 1.419 . S
C1713 H1717 0.930 . S
C1714 C1713 1.369 . S
C1714 C1723 1.435 . S
C1715 C1713 1.419 . S
C1715 C1716 1.363 . S
C1715 H1718 0.929 . S
C1716 C1715 1.363 . S
C1716 C1722 1.428 . S
H1717 C1713 0.930 . S
H1718 C1715 0.929 . S
S1719 N1720 1.613 . S
S1719 N1721 1.610 . S
N1720 S1719 1.613 . S
N1720 C1723 1.343 1_556 S
N1721 S1719 1.610 . S
N1721 C1722 1.351 1_556 S
C1722 C1716 1.428 . S
C1722 N1721 1.351 1_554 S
C1722 C1723 1.434 . S
C1723 C1714 1.435 . S
C1723 N1720 1.343 1_554 S
C1723 C1722 1.434 . S
C1724 C1725 1.369 . S
C1724 C1726 1.419 . S
C1724 H1728 0.930 . S
C1725 C1724 1.369 . S
C1725 C1734 1.429 . S
C1726 C1724 1.419 . S
C1726 C1727 1.363 . S
C1726 H1729 0.929 . S
C1727 C1726 1.363 . S
C1727 C1733 1.428 . S
H1728 C1724 0.930 . S
H1729 C1726 0.929 . S
S1730 N1731 1.613 . S
S1730 N1732 1.610 . S
N1731 S1730 1.613 . S
N1731 C1734 1.350 . S
N1732 S1730 1.610 . S
N1732 C1733 1.351 . S
C1733 C1727 1.428 . S
C1733 N1732 1.351 . S
C1733 C1734 1.434 . S
C1734 C1725 1.429 . S
C1734 N1731 1.350 . S
C1734 C1733 1.434 . S
C1735 C1736 1.369 . S
C1735 C1737 1.419 . S
C1735 H1739 0.930 . S
C1736 C1735 1.369 . S
C1736 C1745 1.429 . S
C1737 C1735 1.419 . S
C1737 C1738 1.363 . S
C1737 H1740 0.929 . S
C1738 C1737 1.363 . S
C1738 C1744 1.428 . S
H1739 C1735 0.930 . S
H1740 C1737 0.929 . S
S1741 N1742 1.613 . S
S1741 N1743 1.610 . S
N1742 S1741 1.613 . S
N1742 C1745 1.350 . S
N1743 S1741 1.610 . S
N1743 C1744 1.351 . S
C1744 C1738 1.428 . S
C1744 N1743 1.351 . S
C1744 C1745 1.434 . S
C1745 C1736 1.429 . S
C1745 N1742 1.350 . S
C1745 C1744 1.434 . S
C1746 C1747 1.369 . S
C1746 C1748 1.419 . S
C1746 H1750 0.930 . S
C1747 C1746 1.369 . S
C1747 C1756 1.429 . S
C1748 C1746 1.419 . S
C1748 C1749 1.363 . S
C1748 H1751 0.929 . S
C1749 C1748 1.363 . S
C1749 C1755 1.428 . S
H1750 C1746 0.930 . S
H1751 C1748 0.929 . S
S1752 N1753 1.613 . S
S1752 N1754 1.610 . S
N1753 S1752 1.613 . S
N1753 C1756 1.350 . S
N1754 S1752 1.610 . S
N1754 C1755 1.351 . S
C1755 C1749 1.428 . S
C1755 N1754 1.351 . S
C1755 C1756 1.434 . S
C1756 C1747 1.429 . S
C1756 N1753 1.350 . S
C1756 C1755 1.434 . S
C1757 C1758 1.369 . S
C1757 C1759 1.419 . S
C1757 H1761 0.930 . S
C1758 C1757 1.369 . S
C1758 C1767 1.429 . S
C1759 C1757 1.419 . S
C1759 C1760 1.363 . S
C1759 H1762 0.929 . S
C1760 C1759 1.363 . S
C1760 C1766 1.428 . S
H1761 C1757 0.930 . S
H1762 C1759 0.929 . S
S1763 N1764 1.613 . S
S1763 N1765 1.610 . S
N1764 S1763 1.613 . S
N1764 C1767 1.350 . S
N1765 S1763 1.610 . S
N1765 C1766 1.351 . S
C1766 C1760 1.428 . S
C1766 N1765 1.351 . S
C1766 C1767 1.434 . S
C1767 C1758 1.429 . S
C1767 N1764 1.350 . S
C1767 C1766 1.434 . S
C1768 C1769 1.369 . S
C1768 C1770 1.419 . S
C1768 H1772 0.930 . S
C1769 C1768 1.369 . S
C1769 C1778 1.429 . S
C1770 C1768 1.419 . S
C1770 C1771 1.363 . S
C1770 H1773 0.929 . S
C1771 C1770 1.363 . S
C1771 C1777 1.428 . S
H1772 C1768 0.930 . S
H1773 C1770 0.929 . S
S1774 N1775 1.613 . S
S1774 N1776 1.610 . S
N1775 S1774 1.613 . S
N1775 C1778 1.350 . S
N1776 S1774 1.610 . S
N1776 C1777 1.351 . S
C1777 C1771 1.428 . S
C1777 N1776 1.351 . S
C1777 C1778 1.434 . S
C1778 C1769 1.429 . S
C1778 N1775 1.350 . S
C1778 C1777 1.434 . S
C1779 C1780 1.369 . S
C1779 C1781 1.419 . S
C1779 H1783 0.930 . S
C1780 C1779 1.369 . S
C1780 C1789 1.429 . S
C1781 C1779 1.419 . S
C1781 C1782 1.363 . S
C1781 H1784 0.929 . S
C1782 C1781 1.363 . S
C1782 C1788 1.428 . S
H1783 C1779 0.930 . S
H1784 C1781 0.929 . S
S1785 N1786 1.613 . S
S1785 N1787 1.610 . S
N1786 S1785 1.613 . S
N1786 C1789 1.350 . S
N1787 S1785 1.610 . S
N1787 C1788 1.351 . S
C1788 C1782 1.428 . S
C1788 N1787 1.351 . S
C1788 C1789 1.434 . S
C1789 C1780 1.429 . S
C1789 N1786 1.350 . S
C1789 C1788 1.434 . S
C1790 C1791 1.369 . S
C1790 C1792 1.419 . S
C1790 H1794 0.930 . S
C1791 C1790 1.369 . S
C1791 C1800 1.429 . S
C1792 C1790 1.419 . S
C1792 C1793 1.363 . S
C1792 H1795 0.929 . S
C1793 C1792 1.363 . S
C1793 C1799 1.428 . S
H1794 C1790 0.930 . S
H1795 C1792 0.929 . S
S1796 N1797 1.613 . S
S1796 N1798 1.610 . S
N1797 S1796 1.613 . S
N1797 C1800 1.350 . S
N1798 S1796 1.610 . S
N1798 C1799 1.351 . S
C1799 C1793 1.428 . S
C1799 N1798 1.351 . S
C1799 C1800 1.434 . S
C1800 C1791 1.429 . S
C1800 N1797 1.350 . S
C1800 C1799 1.434 . S
C1801 C1802 1.369 . S
C1801 C1803 1.419 . S
C1801 H1805 0.930 . S
C1802 C1801 1.369 . S
C1802 C1811 1.429 . S
C1803 C1801 1.419 . S
C1803 C1804 1.363 . S
C1803 H1806 0.929 . S
C1804 C1803 1.363 . S
C1804 C1810 1.428 . S
H1805 C1801 0.930 . S
H1806 C1803 0.929 . S
S1807 N1808 1.622 . S
S1807 N1809 1.610 1_554 S
N1808 S1807 1.622 . S
N1808 C1811 1.316 1_554 S
N1809 S1807 1.610 1_556 S
N1809 C1810 1.351 . S
C1810 C1804 1.428 . S
C1810 N1809 1.351 . S
C1810 C1811 1.434 . S
C1811 C1802 1.429 . S
C1811 N1808 1.316 1_556 S
C1811 C1810 1.434 . S
C1812 C1813 1.369 . S
C1812 C1814 1.419 . S
C1812 H1816 0.930 . S
C1813 C1812 1.369 . S
C1813 C1822 1.429 . S
C1814 C1812 1.419 . S
C1814 C1815 1.363 . S
C1814 H1817 0.929 . S
C1815 C1814 1.363 . S
C1815 C1821 1.428 1_556 S
H1816 C1812 0.930 . S
H1817 C1814 0.929 . S
S1818 N1819 1.613 . S
S1818 N1820 1.610 . S
N1819 S1818 1.613 . S
N1819 C1822 1.350 1_554 S
N1820 S1818 1.610 . S
N1820 C1821 1.351 . S
C1821 C1815 1.428 1_554 S
C1821 N1820 1.351 . S
C1821 C1822 1.434 1_554 S
C1822 C1813 1.429 . S
C1822 N1819 1.350 1_556 S
C1822 C1821 1.434 1_556 S
C1823 C1824 1.369 . S
C1823 C1825 1.419 . S
C1823 H1827 0.930 . S
C1824 C1823 1.369 . S
C1824 C1833 1.429 . S
C1825 C1823 1.419 . S
C1825 C1826 1.363 . S
C1825 H1828 0.929 . S
C1826 C1825 1.363 . S
C1826 C1832 1.428 . S
H1827 C1823 0.930 . S
H1828 C1825 0.929 . S
S1829 N1830 1.613 . S
S1829 N1831 1.610 . S
N1830 S1829 1.613 . S
N1830 C1833 1.350 . S
N1831 S1829 1.610 . S
N1831 C1832 1.351 . S
C1832 C1826 1.428 . S
C1832 N1831 1.351 . S
C1832 C1833 1.434 . S
C1833 C1824 1.429 . S
C1833 N1830 1.350 . S
C1833 C1832 1.434 . S
C1834 C1835 1.369 . S
C1834 C1836 1.419 . S
C1834 H1838 0.930 . S
C1835 C1834 1.369 . S
C1835 C1844 1.429 . S
C1836 C1834 1.419 . S
C1836 C1837 1.363 . S
C1836 H1839 0.929 . S
C1837 C1836 1.363 . S
C1837 C1843 1.428 . S
H1838 C1834 0.930 . S
H1839 C1836 0.929 . S
S1840 N1841 1.613 . S
S1840 N1842 1.610 1_655 S
N1841 S1840 1.613 . S
N1841 C1844 1.350 1_655 S
N1842 S1840 1.610 1_455 S
N1842 C1843 1.351 . S
C1843 C1837 1.428 . S
C1843 N1842 1.351 . S
C1843 C1844 1.434 . S
C1844 C1835 1.429 . S
C1844 N1841 1.350 1_455 S
C1844 C1843 1.434 . S
C1845 C1846 1.369 . S
C1845 C1847 1.419 . S
C1845 H1849 0.930 . S
C1846 C1845 1.369 . S
C1846 C1855 1.429 . S
C1847 C1845 1.419 . S
C1847 C1848 1.363 . S
C1847 H1850 0.929 . S
C1848 C1847 1.363 . S
C1848 C1854 1.428 . S
H1849 C1845 0.930 . S
H1850 C1847 0.929 . S
S1851 N1852 1.613 . S
S1851 N1853 1.610 . S
N1852 S1851 1.613 . S
N1852 C1855 1.350 . S
N1853 S1851 1.610 . S
N1853 C1854 1.351 . S
C1854 C1848 1.428 . S
C1854 N1853 1.351 . S
C1854 C1855 1.434 . S
C1855 C1846 1.429 . S
C1855 N1852 1.350 . S
C1855 C1854 1.434 . S
C1856 C1857 1.369 . S
C1856 C1858 1.419 . S
C1856 H1860 0.930 . S
C1857 C1856 1.369 . S
C1857 C1866 1.429 . S
C1858 C1856 1.419 . S
C1858 C1859 1.363 . S
C1858 H1861 0.929 . S
C1859 C1858 1.363 . S
C1859 C1865 1.428 . S
H1860 C1856 0.930 . S
H1861 C1858 0.929 . S
S1862 N1863 1.613 . S
S1862 N1864 1.610 . S
N1863 S1862 1.613 . S
N1863 C1866 1.350 . S
N1864 S1862 1.610 . S
N1864 C1865 1.351 . S
C1865 C1859 1.428 . S
C1865 N1864 1.351 . S
C1865 C1866 1.434 . S
C1866 C1857 1.429 . S
C1866 N1863 1.350 . S
C1866 C1865 1.434 . S
C1867 C1868 1.369 . S
C1867 C1869 1.419 . S
C1867 H1871 0.930 . S
C1868 C1867 1.369 . S
C1868 C1877 1.429 . S
C1869 C1867 1.419 . S
C1869 C1870 1.363 . S
C1869 H1872 0.929 . S
C1870 C1869 1.363 . S
C1870 C1876 1.428 . S
H1871 C1867 0.930 . S
H1872 C1869 0.929 . S
S1873 N1874 1.613 . S
S1873 N1875 1.610 . S
N1874 S1873 1.613 . S
N1874 C1877 1.350 . S
N1875 S1873 1.610 . S
N1875 C1876 1.351 . S
C1876 C1870 1.428 . S
C1876 N1875 1.351 . S
C1876 C1877 1.434 . S
C1877 C1868 1.429 . S
C1877 N1874 1.350 . S
C1877 C1876 1.434 . S
C1878 C1879 1.369 . S
C1878 C1880 1.419 . S
C1878 H1882 0.930 . S
C1879 C1878 1.369 . S
C1879 C1888 1.429 . S
C1880 C1878 1.419 . S
C1880 C1881 1.363 . S
C1880 H1883 0.929 . S
C1881 C1880 1.363 . S
C1881 C1887 1.428 . S
H1882 C1878 0.930 . S
H1883 C1880 0.929 . S
S1884 N1885 1.613 . S
S1884 N1886 1.610 . S
N1885 S1884 1.613 . S
N1885 C1888 1.350 . S
N1886 S1884 1.610 . S
N1886 C1887 1.351 . S
C1887 C1881 1.428 . S
C1887 N1886 1.351 . S
C1887 C1888 1.434 . S
C1888 C1879 1.429 . S
C1888 N1885 1.350 . S
C1888 C1887 1.434 . S
C1889 C1890 1.369 . S
C1889 C1891 1.419 . S
C1889 H1893 0.930 . S
C1890 C1889 1.369 . S
C1890 C1899 1.429 . S
C1891 C1889 1.419 . S
C1891 C1892 1.363 . S
C1891 H1894 0.929 . S
C1892 C1891 1.363 . S
C1892 C1898 1.428 . S
H1893 C1889 0.930 . S
H1894 C1891 0.929 . S
S1895 N1896 1.613 . S
S1895 N1897 1.610 . S
N1896 S1895 1.613 . S
N1896 C1899 1.350 . S
N1897 S1895 1.610 . S
N1897 C1898 1.351 . S
C1898 C1892 1.428 . S
C1898 N1897 1.351 . S
C1898 C1899 1.434 . S
C1899 C1890 1.429 . S
C1899 N1896 1.350 . S
C1899 C1898 1.434 . S
C1900 C1901 1.369 . S
C1900 C1902 1.419 . S
C1900 H1904 0.930 . S
C1901 C1900 1.369 . S
C1901 C1910 1.429 . S
C1902 C1900 1.419 . S
C1902 C1903 1.363 . S
C1902 H1905 0.929 . S
C1903 C1902 1.363 . S
C1903 C1909 1.428 . S
H1904 C1900 0.930 . S
H1905 C1902 0.929 . S
S1906 N1907 1.613 . S
S1906 N1908 1.610 . S
N1907 S1906 1.613 . S
N1907 C1910 1.350 . S
N1908 S1906 1.610 . S
N1908 C1909 1.351 . S
C1909 C1903 1.428 . S
C1909 N1908 1.351 . S
C1909 C1910 1.434 . S
C1910 C1901 1.429 . S
C1910 N1907 1.350 . S
C1910 C1909 1.434 . S
C1911 C1912 1.369 . S
C1911 C1913 1.419 . S
C1911 H1915 0.930 . S
C1912 C1911 1.369 . S
C1912 C1921 1.429 . S
C1913 C1911 1.419 . S
C1913 C1914 1.363 . S
C1913 H1916 0.929 . S
C1914 C1913 1.363 . S
C1914 C1920 1.428 . S
H1915 C1911 0.930 . S
H1916 C1913 0.929 . S
S1917 N1918 1.613 . S
S1917 N1919 1.610 . S
N1918 S1917 1.613 . S
N1918 C1921 1.350 . S
N1919 S1917 1.610 . S
N1919 C1920 1.351 . S
C1920 C1914 1.428 . S
C1920 N1919 1.351 . S
C1920 C1921 1.434 . S
C1921 C1912 1.429 . S
C1921 N1918 1.350 . S
C1921 C1920 1.434 . S
C1922 C1923 1.369 . S
C1922 C1924 1.419 . S
C1922 H1926 0.930 . S
C1923 C1922 1.369 . S
C1923 C1932 1.429 . S
C1924 C1922 1.419 . S
C1924 C1925 1.363 . S
C1924 H1927 0.929 . S
C1925 C1924 1.363 . S
C1925 C1931 1.428 . S
H1926 C1922 0.930 . S
H1927 C1924 0.929 . S
S1928 N1929 1.613 . S
S1928 N1930 1.610 1_655 S
N1929 S1928 1.613 . S
N1929 C1932 1.350 . S
N1930 S1928 1.610 1_455 S
N1930 C1931 1.351 1_455 S
C1931 C1925 1.428 . S
C1931 N1930 1.351 1_655 S
C1931 C1932 1.434 . S
C1932 C1923 1.429 . S
C1932 N1929 1.350 . S
C1932 C1931 1.434 . S
C1933 C1934 1.369 . S
C1933 C1935 1.419 . S
C1933 H1937 0.930 . S
C1934 C1933 1.369 . S
C1934 C1943 1.429 . S
C1935 C1933 1.419 . S
C1935 C1936 1.363 . S
C1935 H1938 0.929 . S
C1936 C1935 1.363 . S
C1936 C1942 1.428 . S
H1937 C1933 0.930 . S
H1938 C1935 0.929 . S
S1939 N1940 1.613 . S
S1939 N1941 1.610 . S
N1940 S1939 1.613 . S
N1940 C1943 1.350 . S
N1941 S1939 1.610 . S
N1941 C1942 1.351 . S
C1942 C1936 1.428 . S
C1942 N1941 1.351 . S
C1942 C1943 1.434 . S
C1943 C1934 1.429 . S
C1943 N1940 1.350 . S
C1943 C1942 1.434 . S
C1944 C1945 1.369 . S
C1944 C1946 1.419 . S
C1944 H1948 0.930 . S
C1945 C1944 1.369 . S
C1945 C1954 1.429 . S
C1946 C1944 1.419 . S
C1946 C1947 1.363 . S
C1946 H1949 0.929 . S
C1947 C1946 1.363 . S
C1947 C1953 1.428 . S
H1948 C1944 0.930 . S
H1949 C1946 0.929 . S
S1950 N1951 1.613 . S
S1950 N1952 1.610 . S
N1951 S1950 1.613 . S
N1951 C1954 1.350 . S
N1952 S1950 1.610 . S
N1952 C1953 1.351 . S
C1953 C1947 1.428 . S
C1953 N1952 1.351 . S
C1953 C1954 1.434 . S
C1954 C1945 1.429 . S
C1954 N1951 1.350 . S
C1954 C1953 1.434 . S
C1955 C1956 1.369 . S
C1955 C1957 1.419 . S
C1955 H1959 0.930 . S
C1956 C1955 1.369 . S
C1956 C1965 1.429 . S
C1957 C1955 1.419 . S
C1957 C1958 1.363 . S
C1957 H1960 0.929 . S
C1958 C1957 1.363 . S
C1958 C1964 1.428 1_565 S
H1959 C1955 0.930 . S
H1960 C1957 0.929 . S
S1961 N1962 1.613 . S
S1961 N1963 1.610 . S
N1962 S1961 1.613 . S
N1962 C1965 1.350 1_545 S
N1963 S1961 1.610 . S
N1963 C1964 1.351 . S
C1964 C1958 1.428 1_545 S
C1964 N1963 1.351 . S
C1964 C1965 1.434 1_545 S
C1965 C1956 1.429 . S
C1965 N1962 1.350 1_565 S
C1965 C1964 1.434 1_565 S
C1966 C1967 1.369 . S
C1966 C1968 1.419 . S
C1966 H1970 0.930 . S
C1967 C1966 1.369 . S
C1967 C1976 1.429 . S
C1968 C1966 1.419 . S
C1968 C1969 1.363 . S
C1968 H1971 0.929 . S
C1969 C1968 1.363 . S
C1969 C1975 1.428 . S
H1970 C1966 0.930 . S
H1971 C1968 0.929 . S
S1972 N1973 1.613 . S
S1972 N1974 1.610 . S
N1973 S1972 1.613 . S
N1973 C1976 1.350 . S
N1974 S1972 1.610 . S
N1974 C1975 1.351 . S
C1975 C1969 1.428 . S
C1975 N1974 1.351 . S
C1975 C1976 1.434 . S
C1976 C1967 1.429 . S
C1976 N1973 1.350 . S
C1976 C1975 1.434 . S
C1977 C1978 1.369 . S
C1977 C1979 1.419 . S
C1977 H1981 0.930 . S
C1978 C1977 1.369 . S
C1978 C1987 1.429 . S
C1979 C1977 1.419 . S
C1979 C1980 1.363 . S
C1979 H1982 0.929 . S
C1980 C1979 1.363 . S
C1980 C1986 1.428 . S
H1981 C1977 0.930 . S
H1982 C1979 0.929 . S
S1983 N1984 1.613 . S
S1983 N1985 1.610 . S
N1984 S1983 1.613 . S
N1984 C1987 1.350 . S
N1985 S1983 1.610 . S
N1985 C1986 1.351 . S
C1986 C1980 1.428 . S
C1986 N1985 1.351 . S
C1986 C1987 1.434 . S
C1987 C1978 1.429 . S
C1987 N1984 1.350 . S
C1987 C1986 1.434 . S
C1988 C1989 1.369 . S
C1988 C1990 1.419 . S
C1988 H1992 0.930 . S
C1989 C1988 1.369 . S
C1989 C1998 1.429 . S
C1990 C1988 1.419 . S
C1990 C1991 1.363 . S
C1990 H1993 0.929 . S
C1991 C1990 1.363 . S
C1991 C1997 1.428 . S
H1992 C1988 0.930 . S
H1993 C1990 0.929 . S
S1994 N1995 1.613 . S
S1994 N1996 1.610 . S
N1995 S1994 1.613 . S
N1995 C1998 1.350 . S
N1996 S1994 1.610 . S
N1996 C1997 1.351 . S
C1997 C1991 1.428 . S
C1997 N1996 1.351 . S
C1997 C1998 1.434 . S
C1998 C1989 1.429 . S
C1998 N1995 1.350 . S
C1998 C1997 1.434 . S
C1999 C2000 1.369 . S
C1999 C2001 1.419 . S
C1999 H2003 0.930 . S
C2000 C1999 1.369 . S
C2000 C2009 1.429 . S
C2001 C1999 1.419 . S
C2001 C2002 1.363 . S
C2001 H2004 0.929 . S
C2002 C2001 1.363 . S
C2002 C2008 1.428 . S
H2003 C1999 0.930 . S
H2004 C2001 0.929 . S
S2005 N2006 1.613 . S
S2005 N2007 1.610 . S
N2006 S2005 1.613 . S
N2006 C2009 1.350 . S
N2007 S2005 1.610 . S
N2007 C2008 1.351 . S
C2008 C2002 1.428 . S
C2008 N2007 1.351 . S
C2008 C2009 1.434 . S
C2009 C2000 1.429 . S
C2009 N2006 1.350 . S
C2009 C2008 1.434 . S
C2010 C2011 1.369 . S
C2010 C2012 1.419 . S
C2010 H2014 0.930 . S
C2011 C2010 1.369 . S
C2011 C2020 1.429 . S
C2012 C2010 1.419 . S
C2012 C2013 1.363 . S
C2012 H2015 0.929 . S
C2013 C2012 1.363 . S
C2013 C2019 1.428 . S
H2014 C2010 0.930 . S
H2015 C2012 0.929 . S
S2016 N2017 1.613 . S
S2016 N2018 1.610 . S
N2017 S2016 1.613 . S
N2017 C2020 1.350 . S
N2018 S2016 1.610 . S
N2018 C2019 1.351 . S
C2019 C2013 1.428 . S
C2019 N2018 1.351 . S
C2019 C2020 1.434 . S
C2020 C2011 1.429 . S
C2020 N2017 1.350 . S
C2020 C2019 1.434 . S
C2021 C2022 1.369 . S
C2021 C2023 1.419 . S
C2021 H2025 0.930 . S
C2022 C2021 1.369 . S
C2022 C2031 1.429 . S
C2023 C2021 1.419 . S
C2023 C2024 1.363 . S
C2023 H2026 0.929 . S
C2024 C2023 1.363 . S
C2024 C2030 1.428 . S
H2025 C2021 0.930 . S
H2026 C2023 0.929 . S
S2027 N2028 1.613 . S
S2027 N2029 1.610 . S
N2028 S2027 1.613 . S
N2028 C2031 1.350 . S
N2029 S2027 1.610 . S
N2029 C2030 1.351 . S
C2030 C2024 1.428 . S
C2030 N2029 1.351 . S
C2030 C2031 1.434 . S
C2031 C2022 1.429 . S
C2031 N2028 1.350 . S
C2031 C2030 1.434 . S
C977 C109 2.316 . S
C979 C346 2.215 . S
C988 C61 1.816 . S
C990 C394 1.961 . S
C999 C74 1.516 . S
C1001 C426 1.569 . S
C1012 C471 1.698 . S
C1010 C96 1.785 . S
C1021 C25 0.895 . S
C1023 C511 0.893 . S
C1034 C546 1.262 . S
C1032 C40 1.181 . S
C1045 C585 1.236 . S
C1043 C46 1.199 . S
C1054 C5 0.929 . S
C1056 C622 1.265 . S
C1067 C354 2.091 . S
C1065 C229 1.574 . S
C1076 C249 1.030 . S
C1078 C391 0.950 . S
C1089 C434 2.208 . S
C1087 C271 2.035 . S
C1100 C466 1.334 . S
C1098 C172 1.270 . S
C1109 C236 1.422 . S
C1111 C506 1.434 . S
C1122 C554 0.785 . S
C1120 C242 0.812 . S
C1133 C595 2.094 . S
C1131 C278 2.188 . S
C1144 C625 2.091 . S
C1142 C179 2.116 . S
C1155 C351 1.933 . S
C1153 C159 1.186 . S
C1164 C285 1.892 . S
C1166 C674 2.033 . S
C1177 C711 1.069 . S
C1175 C333 1.077 . S
C1188 C742 1.033 . S
C1186 C320 1.086 . S
C1197 C123 2.664 . S
C1199 C635 2.619 . S
C1208 C138 1.494 . S
C1210 C431 1.447 . S
C1219 C326 1.803 . S
C1221 C794 1.817 . S
C1232 C826 1.962 . S
C1230 C298 1.816 . S
C1243 C355 2.226 . S
C1241 C67 2.274 . S
C1254 C825 1.874 . S
C1252 C110 1.886 . S
C1263 C88 1.525 . S
C1265 C435 1.551 . S
C1274 C75 1.658 . S
C1276 C782 1.608 . S
C1287 C502 0.881 . S
C1285 C11 0.889 . S
C1296 C47 1.118 . S
C1298 C715 1.249 . S
C1309 C594 1.220 . S
C1307 C32 1.178 . S
C1320 C871 1.329 . S
C1318 C26 1.322 . S
C1331 C345 2.238 1_556 S
C1329 C152 2.200 . S
C1342 C822 0.995 . S
C1340 C319 0.906 . S
C1351 C124 2.227 . S
C1353 C425 2.206 . S
C1362 C284 1.328 . S
C1364 C795 1.344 . S
C1373 C145 1.186 . S
C1375 C515 1.371 . S
C1386 C705 0.747 . S
C1384 C312 0.751 . S
C1395 C117 1.711 . S
C1397 C586 1.905 . S
C1406 C291 2.020 1_556 S
C1408 C874 2.065 . S
C1417 C194 2.195 . S
C1419 C342 2.153 . S
C1428 C180 2.006 . S
C1430 C665 1.972 . S
C1439 C263 1.048 . S
C1441 C542 1.061 . S
C1450 C243 0.793 . S
C1452 C751 0.978 . S
C1463 C866 2.636 . S
C1461 C277 2.667 1_565 S
C1472 C215 1.357 . S
C1474 C422 1.410 . S
C1485 C465 1.693 . S
C1483 C256 1.525 . S
C1496 C395 2.027 . S
C1494 C200 2.048 . S
C1505 C81 2.315 . S
C1507 C906 2.213 . S
C1518 C834 1.961 . S
C1516 C89 1.814 . S
C1527 C102 1.515 . S
C1529 C946 1.568 . S
C1538 C68 1.786 . S
C1540 C791 1.696 . S
C1549 C53 0.892 . S
C1551 C671 0.893 . S
C1562 C706 1.258 . S
C1560 C12 1.195 . S
C1573 C745 1.235 . S
C1571 C18 1.196 . S
C1584 C862 1.265 . S
C1582 C33 0.928 . S
C1595 C914 2.092 . S
C1593 C257 1.558 . S
C1604 C193 1.030 . S
C1606 C831 0.950 . S
C1617 C954 2.210 . S
C1615 C201 2.042 . S
C1628 C786 1.334 . S
C1626 C214 1.269 . S
C1639 C666 1.432 1_556 S
C1637 C264 1.422 . S
C1648 C186 0.812 . S
C1650 C714 0.784 . S
C1661 C755 2.096 . S
C1659 C208 2.188 . S
C1670 C221 2.115 . S
C1672 C865 2.092 . S
C1683 C911 1.926 . S
C1681 C313 1.201 . S
C1692 C131 1.891 . S
C1694 C514 2.033 . S
C1705 C551 1.071 . S
C1703 C151 1.077 . S
C1716 C582 1.036 . S
C1714 C166 1.084 . S
C1727 C875 2.618 . S
C1725 C305 2.663 . S
C1736 C292 1.489 . S
C1738 C951 1.454 . S
C1749 C474 1.821 . S
C1747 C144 1.804 . S
C1760 C386 1.962 . S
C1758 C116 1.815 . S
C1769 C95 2.273 . S
C1771 C915 2.226 . S
C1782 C385 1.872 . S
C1780 C82 1.888 . S
C1791 C60 1.526 . S
C1793 C955 1.550 . S
C1802 C103 1.667 . S
C1804 C462 1.616 . S
C1813 C39 0.884 . S
C1815 C662 0.881 . S
C1826 C555 1.248 . S
C1824 C19 1.135 . S
C1835 C4 1.181 . S
C1837 C754 1.219 . S
C1846 C54 1.319 . S
C1848 C631 1.328 . S
C1859 C905 2.239 . S
C1857 C334 2.199 . S
C1868 C165 0.927 . S
C1870 C382 0.978 . S
C1881 C945 2.205 1_656 S
C1879 C306 2.227 . S
C1890 C130 1.328 . S
C1892 C475 1.344 . S
C1901 C327 1.201 . S
C1903 C675 1.368 . S
C1914 C545 0.762 . S
C1912 C158 0.750 . S
C1923 C299 1.704 . S
C1925 C746 1.906 1_655 S
C1936 C634 2.065 . S
C1934 C137 2.020 . S
C1947 C902 2.149 . S
C1945 C250 2.201 . S
C1958 C505 1.972 1_565 S
C1956 C222 2.005 . S
C1967 C235 1.037 . S
C1969 C702 1.067 . S
C1980 C591 0.990 . S
C1978 C187 0.768 . S
C1989 C207 2.670 . S
C1991 C626 2.633 . S
C2000 C173 1.351 . S
C2002 C942 1.405 . S
C2013 C785 1.694 . S
C2011 C228 1.519 . S
C2024 C835 2.029 . S
C2022 C270 2.048 . S
