# Generated by pormake.
# Topology gar, (4,6)-cn, num edge types: 1
# Building blocks:
#     Node 0, Type 0, BuildingBlock: GALJAG_clean_sbu_0, # of connection points: 4
#     Node 1, Type 0, BuildingBlock: GALJAG_clean_sbu_0, # of connection points: 4
#     Node 2, Type 0, BuildingBlock: GALJAG_clean_sbu_0, # of connection points: 4
#     Node 3, Type 0, BuildingBlock: GALJAG_clean_sbu_0, # of connection points: 4
#     Node 4, Type 0, BuildingBlock: GALJAG_clean_sbu_0, # of connection points: 4
#     Node 5, Type 0, BuildingBlock: GALJAG_clean_sbu_0, # of connection points: 4
#     Node 6, Type 0, BuildingBlock: GALJAG_clean_sbu_0, # of connection points: 4
#     Node 7, Type 0, BuildingBlock: GALJAG_clean_sbu_0, # of connection points: 4
#     Node 8, Type 0, BuildingBlock: GALJAG_clean_sbu_0, # of connection points: 4
#     Node 9, Type 0, BuildingBlock: GALJAG_clean_sbu_0, # of connection points: 4
#     Node 10, Type 0, BuildingBlock: GALJAG_clean_sbu_0, # of connection points: 4
#     Node 11, Type 0, BuildingBlock: GALJAG_clean_sbu_0, # of connection points: 4
#     Node 12, Type 0, BuildingBlock: GALJAG_clean_sbu_0, # of connection points: 4
#     Node 13, Type 0, BuildingBlock: GALJAG_clean_sbu_0, # of connection points: 4
#     Node 14, Type 0, BuildingBlock: GALJAG_clean_sbu_0, # of connection points: 4
#     Node 15, Type 0, BuildingBlock: GALJAG_clean_sbu_0, # of connection points: 4
#     Node 16, Type 0, BuildingBlock: GALJAG_clean_sbu_0, # of connection points: 4
#     Node 17, Type 0, BuildingBlock: GALJAG_clean_sbu_0, # of connection points: 4
#     Node 18, Type 0, BuildingBlock: GALJAG_clean_sbu_0, # of connection points: 4
#     Node 19, Type 0, BuildingBlock: GALJAG_clean_sbu_0, # of connection points: 4
#     Node 20, Type 0, BuildingBlock: GALJAG_clean_sbu_0, # of connection points: 4
#     Node 21, Type 0, BuildingBlock: GALJAG_clean_sbu_0, # of connection points: 4
#     Node 22, Type 0, BuildingBlock: GALJAG_clean_sbu_0, # of connection points: 4
#     Node 23, Type 0, BuildingBlock: GALJAG_clean_sbu_0, # of connection points: 4
#     Node 24, Type 1, BuildingBlock: BETDEL_clean_sbu_0, # of connection points: 6
#     Node 25, Type 1, BuildingBlock: BETDEL_clean_sbu_0, # of connection points: 6
#     Node 26, Type 1, BuildingBlock: BETDEL_clean_sbu_0, # of connection points: 6
#     Node 27, Type 1, BuildingBlock: BETDEL_clean_sbu_0, # of connection points: 6
#     Node 28, Type 1, BuildingBlock: BETDEL_clean_sbu_0, # of connection points: 6
#     Node 29, Type 1, BuildingBlock: BETDEL_clean_sbu_0, # of connection points: 6
#     Node 30, Type 1, BuildingBlock: BETDEL_clean_sbu_0, # of connection points: 6
#     Node 31, Type 1, BuildingBlock: BETDEL_clean_sbu_0, # of connection points: 6
#     Node 32, Type 1, BuildingBlock: BETDEL_clean_sbu_0, # of connection points: 6
#     Node 33, Type 1, BuildingBlock: BETDEL_clean_sbu_0, # of connection points: 6
#     Node 34, Type 1, BuildingBlock: BETDEL_clean_sbu_0, # of connection points: 6
#     Node 35, Type 1, BuildingBlock: BETDEL_clean_sbu_0, # of connection points: 6
#     Node 36, Type 1, BuildingBlock: BETDEL_clean_sbu_0, # of connection points: 6
#     Node 37, Type 1, BuildingBlock: BETDEL_clean_sbu_0, # of connection points: 6
#     Node 38, Type 1, BuildingBlock: BETDEL_clean_sbu_0, # of connection points: 6
#     Node 39, Type 1, BuildingBlock: BETDEL_clean_sbu_0, # of connection points: 6
#     Edge 40, Type (0, 1), BuildingBlock: XUDNAN_clean_linker_2, # of connection points: 2
#     Edge 41, Type (0, 1), BuildingBlock: XUDNAN_clean_linker_2, # of connection points: 2
#     Edge 42, Type (0, 1), BuildingBlock: XUDNAN_clean_linker_2, # of connection points: 2
#     Edge 43, Type (0, 1), BuildingBlock: XUDNAN_clean_linker_2, # of connection points: 2
#     Edge 44, Type (0, 1), BuildingBlock: XUDNAN_clean_linker_2, # of connection points: 2
#     Edge 45, Type (0, 1), BuildingBlock: XUDNAN_clean_linker_2, # of connection points: 2
#     Edge 46, Type (0, 1), BuildingBlock: XUDNAN_clean_linker_2, # of connection points: 2
#     Edge 47, Type (0, 1), BuildingBlock: XUDNAN_clean_linker_2, # of connection points: 2
#     Edge 48, Type (0, 1), BuildingBlock: XUDNAN_clean_linker_2, # of connection points: 2
#     Edge 49, Type (0, 1), BuildingBlock: XUDNAN_clean_linker_2, # of connection points: 2
#     Edge 50, Type (0, 1), BuildingBlock: XUDNAN_clean_linker_2, # of connection points: 2
#     Edge 51, Type (0, 1), BuildingBlock: XUDNAN_clean_linker_2, # of connection points: 2
#     Edge 52, Type (0, 1), BuildingBlock: XUDNAN_clean_linker_2, # of connection points: 2
#     Edge 53, Type (0, 1), BuildingBlock: XUDNAN_clean_linker_2, # of connection points: 2
#     Edge 54, Type (0, 1), BuildingBlock: XUDNAN_clean_linker_2, # of connection points: 2
#     Edge 55, Type (0, 1), BuildingBlock: XUDNAN_clean_linker_2, # of connection points: 2
#     Edge 56, Type (0, 1), BuildingBlock: XUDNAN_clean_linker_2, # of connection points: 2
#     Edge 57, Type (0, 1), BuildingBlock: XUDNAN_clean_linker_2, # of connection points: 2
#     Edge 58, Type (0, 1), BuildingBlock: XUDNAN_clean_linker_2, # of connection points: 2
#     Edge 59, Type (0, 1), BuildingBlock: XUDNAN_clean_linker_2, # of connection points: 2
#     Edge 60, Type (0, 1), BuildingBlock: XUDNAN_clean_linker_2, # of connection points: 2
#     Edge 61, Type (0, 1), BuildingBlock: XUDNAN_clean_linker_2, # of connection points: 2
#     Edge 62, Type (0, 1), BuildingBlock: XUDNAN_clean_linker_2, # of connection points: 2
#     Edge 63, Type (0, 1), BuildingBlock: XUDNAN_clean_linker_2, # of connection points: 2
#     Edge 64, Type (0, 1), BuildingBlock: XUDNAN_clean_linker_2, # of connection points: 2
#     Edge 65, Type (0, 1), BuildingBlock: XUDNAN_clean_linker_2, # of connection points: 2
#     Edge 66, Type (0, 1), BuildingBlock: XUDNAN_clean_linker_2, # of connection points: 2
#     Edge 67, Type (0, 1), BuildingBlock: XUDNAN_clean_linker_2, # of connection points: 2
#     Edge 68, Type (0, 1), BuildingBlock: XUDNAN_clean_linker_2, # of connection points: 2
#     Edge 69, Type (0, 1), BuildingBlock: XUDNAN_clean_linker_2, # of connection points: 2
#     Edge 70, Type (0, 1), BuildingBlock: XUDNAN_clean_linker_2, # of connection points: 2
#     Edge 71, Type (0, 1), BuildingBlock: XUDNAN_clean_linker_2, # of connection points: 2
#     Edge 72, Type (0, 1), BuildingBlock: XUDNAN_clean_linker_2, # of connection points: 2
#     Edge 73, Type (0, 1), BuildingBlock: XUDNAN_clean_linker_2, # of connection points: 2
#     Edge 74, Type (0, 1), BuildingBlock: XUDNAN_clean_linker_2, # of connection points: 2
#     Edge 75, Type (0, 1), BuildingBlock: XUDNAN_clean_linker_2, # of connection points: 2
#     Edge 76, Type (0, 1), BuildingBlock: XUDNAN_clean_linker_2, # of connection points: 2
#     Edge 77, Type (0, 1), BuildingBlock: XUDNAN_clean_linker_2, # of connection points: 2
#     Edge 78, Type (0, 1), BuildingBlock: XUDNAN_clean_linker_2, # of connection points: 2
#     Edge 79, Type (0, 1), BuildingBlock: XUDNAN_clean_linker_2, # of connection points: 2
#     Edge 80, Type (0, 1), BuildingBlock: XUDNAN_clean_linker_2, # of connection points: 2
#     Edge 81, Type (0, 1), BuildingBlock: XUDNAN_clean_linker_2, # of connection points: 2
#     Edge 82, Type (0, 1), BuildingBlock: XUDNAN_clean_linker_2, # of connection points: 2
#     Edge 83, Type (0, 1), BuildingBlock: XUDNAN_clean_linker_2, # of connection points: 2
#     Edge 84, Type (0, 1), BuildingBlock: XUDNAN_clean_linker_2, # of connection points: 2
#     Edge 85, Type (0, 1), BuildingBlock: XUDNAN_clean_linker_2, # of connection points: 2
#     Edge 86, Type (0, 1), BuildingBlock: XUDNAN_clean_linker_2, # of connection points: 2
#     Edge 87, Type (0, 1), BuildingBlock: XUDNAN_clean_linker_2, # of connection points: 2
#     Edge 88, Type (0, 1), BuildingBlock: XUDNAN_clean_linker_2, # of connection points: 2
#     Edge 89, Type (0, 1), BuildingBlock: XUDNAN_clean_linker_2, # of connection points: 2
#     Edge 90, Type (0, 1), BuildingBlock: XUDNAN_clean_linker_2, # of connection points: 2
#     Edge 91, Type (0, 1), BuildingBlock: XUDNAN_clean_linker_2, # of connection points: 2
#     Edge 92, Type (0, 1), BuildingBlock: XUDNAN_clean_linker_2, # of connection points: 2
#     Edge 93, Type (0, 1), BuildingBlock: XUDNAN_clean_linker_2, # of connection points: 2
#     Edge 94, Type (0, 1), BuildingBlock: XUDNAN_clean_linker_2, # of connection points: 2
#     Edge 95, Type (0, 1), BuildingBlock: XUDNAN_clean_linker_2, # of connection points: 2
#     Edge 96, Type (0, 1), BuildingBlock: XUDNAN_clean_linker_2, # of connection points: 2
#     Edge 97, Type (0, 1), BuildingBlock: XUDNAN_clean_linker_2, # of connection points: 2
#     Edge 98, Type (0, 1), BuildingBlock: XUDNAN_clean_linker_2, # of connection points: 2
#     Edge 99, Type (0, 1), BuildingBlock: XUDNAN_clean_linker_2, # of connection points: 2
#     Edge 100, Type (0, 1), BuildingBlock: XUDNAN_clean_linker_2, # of connection points: 2
#     Edge 101, Type (0, 1), BuildingBlock: XUDNAN_clean_linker_2, # of connection points: 2
#     Edge 102, Type (0, 1), BuildingBlock: XUDNAN_clean_linker_2, # of connection points: 2
#     Edge 103, Type (0, 1), BuildingBlock: XUDNAN_clean_linker_2, # of connection points: 2
#     Edge 104, Type (0, 1), BuildingBlock: XUDNAN_clean_linker_2, # of connection points: 2
#     Edge 105, Type (0, 1), BuildingBlock: XUDNAN_clean_linker_2, # of connection points: 2
#     Edge 106, Type (0, 1), BuildingBlock: XUDNAN_clean_linker_2, # of connection points: 2
#     Edge 107, Type (0, 1), BuildingBlock: XUDNAN_clean_linker_2, # of connection points: 2
#     Edge 108, Type (0, 1), BuildingBlock: XUDNAN_clean_linker_2, # of connection points: 2
#     Edge 109, Type (0, 1), BuildingBlock: XUDNAN_clean_linker_2, # of connection points: 2
#     Edge 110, Type (0, 1), BuildingBlock: XUDNAN_clean_linker_2, # of connection points: 2
#     Edge 111, Type (0, 1), BuildingBlock: XUDNAN_clean_linker_2, # of connection points: 2
#     Edge 112, Type (0, 1), BuildingBlock: XUDNAN_clean_linker_2, # of connection points: 2
#     Edge 113, Type (0, 1), BuildingBlock: XUDNAN_clean_linker_2, # of connection points: 2
#     Edge 114, Type (0, 1), BuildingBlock: XUDNAN_clean_linker_2, # of connection points: 2
#     Edge 115, Type (0, 1), BuildingBlock: XUDNAN_clean_linker_2, # of connection points: 2
#     Edge 116, Type (0, 1), BuildingBlock: XUDNAN_clean_linker_2, # of connection points: 2
#     Edge 117, Type (0, 1), BuildingBlock: XUDNAN_clean_linker_2, # of connection points: 2
#     Edge 118, Type (0, 1), BuildingBlock: XUDNAN_clean_linker_2, # of connection points: 2
#     Edge 119, Type (0, 1), BuildingBlock: XUDNAN_clean_linker_2, # of connection points: 2
#     Edge 120, Type (0, 1), BuildingBlock: XUDNAN_clean_linker_2, # of connection points: 2
#     Edge 121, Type (0, 1), BuildingBlock: XUDNAN_clean_linker_2, # of connection points: 2
#     Edge 122, Type (0, 1), BuildingBlock: XUDNAN_clean_linker_2, # of connection points: 2
#     Edge 123, Type (0, 1), BuildingBlock: XUDNAN_clean_linker_2, # of connection points: 2
#     Edge 124, Type (0, 1), BuildingBlock: XUDNAN_clean_linker_2, # of connection points: 2
#     Edge 125, Type (0, 1), BuildingBlock: XUDNAN_clean_linker_2, # of connection points: 2
#     Edge 126, Type (0, 1), BuildingBlock: XUDNAN_clean_linker_2, # of connection points: 2
#     Edge 127, Type (0, 1), BuildingBlock: XUDNAN_clean_linker_2, # of connection points: 2
#     Edge 128, Type (0, 1), BuildingBlock: XUDNAN_clean_linker_2, # of connection points: 2
#     Edge 129, Type (0, 1), BuildingBlock: XUDNAN_clean_linker_2, # of connection points: 2
#     Edge 130, Type (0, 1), BuildingBlock: XUDNAN_clean_linker_2, # of connection points: 2
#     Edge 131, Type (0, 1), BuildingBlock: XUDNAN_clean_linker_2, # of connection points: 2
#     Edge 132, Type (0, 1), BuildingBlock: XUDNAN_clean_linker_2, # of connection points: 2
#     Edge 133, Type (0, 1), BuildingBlock: XUDNAN_clean_linker_2, # of connection points: 2
#     Edge 134, Type (0, 1), BuildingBlock: XUDNAN_clean_linker_2, # of connection points: 2
#     Edge 135, Type (0, 1), BuildingBlock: XUDNAN_clean_linker_2, # of connection points: 2
# Relax obj value: 0.162
# Max RMSD: 0.265
# Mean RMSD: 0.166
data_MOF--net-gar--node1-GALJAG_clean_sbu_0--node2-BETDEL_clean_sbu_0--edge1-XUDNAN_clean_linker_2
_symmetry_space_group_name_H-M    P1
_symmetry_Int_Tables_number       1
_symmetry_cell_setting            triclinic
loop_
_symmetry_equiv_pos_as_xyz
'x, y, z'
_cell_length_a     55.852412
_cell_length_b     53.119281
_cell_length_c     54.596698
_cell_angle_alpha  95.170309
_cell_angle_beta   92.378476
_cell_angle_gamma 100.01646
loop_
_atom_site_label
_atom_site_type_symbol
_atom_site_fract_x
_atom_site_fract_y
_atom_site_fract_z
_atom_type_partial_charge
In0 In 0.03879 0.27236 0.39935 0.0
O1 O 0.05274 0.24939 0.36706 0.0
O2 O 0.07312 0.28615 0.37886 0.0
C3 C 0.9934 0.27556 0.38206 0.0
C4 C 0.03714 0.23375 0.42939 0.0
C5 C 0.05079 0.31933 0.42491 0.0
O6 O 0.01133 0.27753 0.36856 0.0
O7 O 0.99828 0.27118 0.40389 0.0
O8 O 0.06295 0.30169 0.42757 0.0
O9 O 0.03306 0.31337 0.40921 0.0
C10 C 0.07101 0.26617 0.3641 0.0
O11 O 0.04828 0.25633 0.43542 0.0
O12 O 0.02678 0.23042 0.4081 0.0
In13 In 1.00167 0.76593 0.63333 0.0
O14 O 0.99115 0.79292 0.60513 0.0
O15 O 0.01824 0.80806 0.63368 0.0
C16 C 0.00277 0.72999 0.59471 0.0
C17 C 0.0395 0.7581 0.66338 0.0
C18 C 0.96284 0.76203 0.66237 0.0
O19 O 0.98343 0.73185 0.60532 0.0
O20 O 0.02082 0.74666 0.60287 0.0
O21 O 0.97425 0.7835 0.65746 0.0
O22 O 0.97061 0.743 0.65226 0.0
C23 C 0.00654 0.81208 0.61455 0.0
O24 O 0.01791 0.74684 0.66479 0.0
O25 O 0.04194 0.77403 0.64755 0.0
In26 In 0.5341 0.76887 0.89829 0.0
O27 O 0.54899 0.74873 0.86481 0.0
O28 O 0.57408 0.77663 0.88742 0.0
C29 C 0.49696 0.7798 0.86947 0.0
C30 C 0.52673 0.72677 0.92374 0.0
C31 C 0.53545 0.80777 0.93465 0.0
O32 O 0.51745 0.79431 0.87283 0.0
O33 O 0.4955 0.75929 0.87971 0.0
O34 O 0.52328 0.78559 0.93513 0.0
O35 O 0.54816 0.8104 0.91616 0.0
C36 C 0.57064 0.7606 0.86852 0.0
O37 O 0.54736 0.74116 0.92411 0.0
O38 O 0.51048 0.73319 0.91009 0.0
In39 In 0.50188 0.26732 0.13186 0.0
O40 O 0.49978 0.24486 0.09377 0.0
O41 O 0.50445 0.22454 0.1247 0.0
C42 C 0.50022 0.30759 0.10501 0.0
C43 C 0.46178 0.26312 0.15876 0.0
C44 C 0.54302 0.27228 0.16127 0.0
O45 O 0.48517 0.28674 0.10152 0.0
O46 O 0.51633 0.30828 0.12216 0.0
O47 O 0.52222 0.27188 0.16947 0.0
O48 O 0.54338 0.27157 0.13813 0.0
C49 C 0.50239 0.22383 0.10159 0.0
O50 O 0.4696 0.24403 0.14887 0.0
O51 O 0.4738 0.28455 0.15472 0.0
In52 In 0.04719 0.79534 0.15611 0.0
O53 O 0.03843 0.76257 0.12461 0.0
O54 O 0.05316 0.7542 0.15875 0.0
C55 C 0.04096 0.82936 0.12314 0.0
C56 C 0.01181 0.80114 0.18807 0.0
C57 C 0.09411 0.80435 0.17417 0.0
O58 O 0.05802 0.83365 0.13966 0.0
O59 O 0.02722 0.8078 0.12303 0.0
O60 O 0.07642 0.80163 0.18801 0.0
O61 O 0.08805 0.80316 0.1515 0.0
C62 C 0.0458 0.74606 0.13686 0.0
O63 O 0.03 0.81842 0.18615 0.0
O64 O 0.01173 0.78072 0.17438 0.0
In65 In 0.51202 0.76088 0.38242 0.0
O66 O 0.52898 0.76495 0.34499 0.0
O67 O 0.55078 0.75483 0.37368 0.0
C68 C 0.46748 0.7444 0.35937 0.0
C69 C 0.51682 0.72894 0.41768 0.0
C70 C 0.51225 0.81027 0.40068 0.0
O71 O 0.48557 0.73381 0.35462 0.0
O72 O 0.47156 0.76237 0.3766 0.0
O73 O 0.51282 0.79248 0.41433 0.0
O74 O 0.51219 0.80339 0.378 0.0
C75 C 0.54914 0.7594 0.35153 0.0
O76 O 0.49959 0.72414 0.40127 0.0
O77 O 0.53127 0.7498 0.41638 0.0
In78 In 0.54047 0.29602 0.64949 0.0
O79 O 0.53835 0.26289 0.61898 0.0
O80 O 0.53934 0.25395 0.65606 0.0
C81 C 0.53673 0.32924 0.61494 0.0
C82 C 0.50182 0.297 0.67853 0.0
C83 C 0.58636 0.30897 0.67071 0.0
O84 O 0.55001 0.33566 0.63457 0.0
O85 O 0.52586 0.30622 0.61269 0.0
O86 O 0.56907 0.31992 0.6776 0.0
O87 O 0.58082 0.29245 0.65233 0.0
C88 C 0.53852 0.24583 0.63358 0.0
O89 O 0.52299 0.29632 0.68694 0.0
O90 O 0.50006 0.29741 0.65554 0.0
In91 In 1.00042 0.2573 0.88631 0.0
O92 O 0.02052 0.24953 0.92125 0.0
O93 O 0.99208 0.22005 0.9056 0.0
C94 C 0.99836 0.30401 0.90962 0.0
C95 C 0.0374 0.25925 0.8553 0.0
C96 C 0.9579 0.24305 0.85802 0.0
O97 O 0.9827 0.28421 0.91148 0.0
O98 O 0.01565 0.30034 0.89632 0.0
O99 O 0.97615 0.23237 0.85452 0.0
O100 O 0.96095 0.26012 0.87594 0.0
C101 C 0.00869 0.22728 0.92245 0.0
O102 O 0.03504 0.24471 0.87237 0.0
O103 O 0.02101 0.27277 0.85364 0.0
In104 In 0.41773 0.04943 0.29089 0.0
O105 O 0.44863 0.03141 0.27479 0.0
O106 O 0.44341 0.06737 0.26339 0.0
C107 C 0.43852 0.06691 0.33604 0.0
C108 C 0.38313 0.07704 0.28048 0.0
C109 C 0.39067 0.00189 0.28152 0.0
O110 O 0.44465 0.07778 0.31705 0.0
O111 O 0.42146 0.04778 0.33229 0.0
O112 O 0.38942 0.01993 0.2684 0.0
O113 O 0.40604 0.00752 0.29965 0.0
C114 C 0.45525 0.0492 0.26139 0.0
O115 O 0.38744 0.07167 0.30211 0.0
O116 O 0.39702 0.06974 0.26482 0.0
In117 In 0.26751 0.15161 0.49654 0.0
O118 O 0.25122 0.18017 0.52189 0.0
O119 O 0.28037 0.16501 0.53731 0.0
C120 C 0.27533 0.17978 0.45685 0.0
C121 C 0.30275 0.12229 0.50118 0.0
C122 C 0.22362 0.1195 0.49118 0.0
O123 O 0.26068 0.15874 0.45564 0.0
O124 O 0.28574 0.18665 0.47791 0.0
O125 O 0.22688 0.14133 0.50321 0.0
O126 O 0.2423 0.11411 0.48109 0.0
C127 C 0.26462 0.17914 0.5408 0.0
O128 O 0.28086 0.11508 0.50593 0.0
O129 O 0.30717 0.14458 0.49425 0.0
In130 In 0.15101 0.01052 0.79769 0.0
O131 O 0.11607 0.01884 0.77938 0.0
O132 O 0.14397 0.01075 0.75614 0.0
C133 C 0.13148 0.01099 0.84282 0.0
C134 C 0.1685 0.96598 0.78813 0.0
C135 C 0.18267 0.05535 0.79708 0.0
O136 O 0.15148 0.02426 0.83845 0.0
O137 O 0.12111 0.99655 0.82444 0.0
O138 O 0.16007 0.05331 0.79265 0.0
O139 O 0.18947 0.03475 0.80183 0.0
C140 C 0.12313 0.01673 0.75771 0.0
O141 O 0.18112 0.98578 0.79972 0.0
O142 O 0.14709 0.96846 0.78199 0.0
In143 In 0.26268 0.90793 0.00634 0.0
O144 O 0.24407 0.87715 0.029 0.0
O145 O 0.28198 0.8904 0.0366 0.0
C146 C 0.25254 0.8758 0.96464 0.0
C147 C 0.2318 0.94176 0.01014 0.0
C148 C 0.30724 0.93707 0.00958 0.0
O149 O 0.24157 0.87225 0.98404 0.0
O150 O 0.26805 0.89624 0.96581 0.0
O151 O 0.28988 0.94331 0.02142 0.0
O152 O 0.30225 0.91579 0.99647 0.0
C153 C 0.26311 0.87528 0.04136 0.0
O154 O 0.24178 0.93664 0.99045 0.0
O155 O 0.23685 0.92932 0.02764 0.0
In156 In 0.26771 0.38796 0.03179 0.0
O157 O 0.2752 0.37638 0.07109 0.0
O158 O 0.24823 0.35167 0.04791 0.0
C159 C 0.27145 0.36056 0.98774 0.0
C160 C 0.23367 0.41885 0.02682 0.0
C161 C 0.3106 0.42164 0.04027 0.0
O162 O 0.25355 0.37156 0.99202 0.0
O163 O 0.28662 0.36244 0.00586 0.0
O164 O 0.29217 0.42342 0.05257 0.0
O165 O 0.30761 0.40254 0.02428 0.0
C166 C 0.25955 0.356 0.06875 0.0
O167 O 0.25431 0.42284 0.01798 0.0
O168 O 0.22982 0.39899 0.03815 0.0
In169 In 0.78241 0.14728 0.02519 0.0
O170 O 0.8178 0.13488 0.03702 0.0
O171 O 0.80104 0.11999 0.00171 0.0
C172 C 0.7476 0.10749 0.03264 0.0
C173 C 0.78149 0.18285 0.06328 0.0
C174 C 0.77712 0.17661 0.98841 0.0
O175 O 0.76264 0.11891 0.04961 0.0
O176 O 0.7504 0.11594 0.0119 0.0
O177 O 0.79791 0.1741 0.99676 0.0
O178 O 0.75947 0.16413 0.99827 0.0
C179 C 0.81815 0.12016 0.01756 0.0
O180 O 0.80113 0.17585 0.05727 0.0
O181 O 0.76287 0.17198 0.05015 0.0
In182 In 0.13614 0.50067 0.24163 0.0
O183 O 0.15964 0.47759 0.26261 0.0
O184 O 0.1679 0.48405 0.22594 0.0
C185 C 0.15493 0.55106 0.24462 0.0
C186 C 0.1102 0.48536 0.19832 0.0
C187 C 0.10452 0.49623 0.27761 0.0
O188 O 0.13559 0.54113 0.23204 0.0
O189 O 0.16462 0.53564 0.25636 0.0
O190 O 0.1164 0.51754 0.27297 0.0
O191 O 0.10859 0.47705 0.2641 0.0
C192 C 0.17321 0.47436 0.24519 0.0
O193 O 0.12964 0.50164 0.20033 0.0
O194 O 0.10399 0.47628 0.21811 0.0
In195 In 0.76977 0.89417 0.53702 0.0
O196 O 0.76022 0.85807 0.55869 0.0
O197 O 0.77811 0.89275 0.57822 0.0
C198 C 0.76848 0.86458 0.49314 0.0
C199 C 0.73369 0.92244 0.53155 0.0
C200 C 0.8129 0.92712 0.54261 0.0
O201 O 0.78688 0.88068 0.50158 0.0
O202 O 0.75091 0.86279 0.50709 0.0
O203 O 0.79275 0.93398 0.54663 0.0
O204 O 0.81144 0.90339 0.53617 0.0
C205 C 0.76904 0.86949 0.57919 0.0
O206 O 0.75238 0.92452 0.51925 0.0
O207 O 0.73272 0.90567 0.54658 0.0
In208 In 0.89027 0.04245 0.25291 0.0
O209 O 0.9249 0.06429 0.23774 0.0
O210 O 0.90352 0.03448 0.21396 0.0
C211 C 0.90626 0.03847 0.29992 0.0
C212 C 0.86237 0.07996 0.25543 0.0
C213 C 0.86542 0.99398 0.2422 0.0
O214 O 0.91971 0.03697 0.28199 0.0
O215 O 0.88535 0.04276 0.29417 0.0
O216 O 0.85968 0.01291 0.23238 0.0
O217 O 0.88403 0.99939 0.25688 0.0
C218 C 0.9222 0.05177 0.21676 0.0
O219 O 0.85383 0.05647 0.25004 0.0
O220 O 0.88521 0.08485 0.25926 0.0
In221 In 0.29208 0.65614 0.51913 0.0
O222 O 0.31731 0.63281 0.49913 0.0
O223 O 0.31771 0.63378 0.5381 0.0
C224 C 0.25121 0.62147 0.50636 0.0
C225 C 0.28715 0.68154 0.56299 0.0
C226 C 0.29695 0.6945 0.4896 0.0
O227 O 0.26165 0.62455 0.52754 0.0
O228 O 0.26183 0.63531 0.49106 0.0
O229 O 0.27834 0.68848 0.50155 0.0
O230 O 0.31353 0.68157 0.49292 0.0
C231 C 0.32556 0.62506 0.51835 0.0
O232 O 0.30739 0.68474 0.55302 0.0
O233 O 0.27033 0.66605 0.55081 0.0
In234 In 0.38683 0.53123 0.74399 0.0
O235 O 0.35649 0.55547 0.74163 0.0
O236 O 0.38975 0.57272 0.76104 0.0
C237 C 0.3552 0.48603 0.74041 0.0
C238 C 0.40874 0.53496 0.70028 0.0
C239 C 0.41201 0.52286 0.78509 0.0
O240 O 0.34849 0.50712 0.73748 0.0
O241 O 0.37773 0.48775 0.74514 0.0
O242 O 0.42011 0.52083 0.76386 0.0
O243 O 0.39151 0.5298 0.78568 0.0
C244 C 0.3685 0.57506 0.75411 0.0
O245 O 0.38829 0.52144 0.70263 0.0
O246 O 0.41847 0.54723 0.72008 0.0
In247 In 0.6353 0.99491 0.74772 0.0
O248 O 0.66645 0.98561 0.77153 0.0
O249 O 0.6589 0.96532 0.73603 0.0
C250 C 0.66204 0.04081 0.74159 0.0
C251 C 0.60409 0.98547 0.70746 0.0
C252 C 0.60586 0.98952 0.78568 0.0
O253 O 0.66237 0.02092 0.72714 0.0
O254 O 0.64804 0.03758 0.75909 0.0
O255 O 0.61831 0.01076 0.78166 0.0
O256 O 0.60785 0.97096 0.77027 0.0
C257 C 0.67214 0.96924 0.75576 0.0
O258 O 0.61427 0.00772 0.71604 0.0
O259 O 0.60914 0.96766 0.71942 0.0
In260 In 0.76641 0.64871 0.00614 0.0
O261 O 0.78034 0.61066 0.0068 0.0
O262 O 0.80691 0.64441 0.00783 0.0
C263 C 0.72149 0.62045 0.00948 0.0
C264 C 0.77311 0.68188 0.04831 0.0
C265 C 0.76608 0.6662 0.96055 0.0
O266 O 0.74056 0.61563 0.01991 0.0
O267 O 0.72498 0.6396 0.99703 0.0
O268 O 0.76439 0.68043 0.98 0.0
O269 O 0.7676 0.64341 0.96414 0.0
C270 C 0.80266 0.6203 0.00769 0.0
O271 O 0.78791 0.68322 0.03146 0.0
O272 O 0.75474 0.66445 0.04363 0.0
In273 In 0.9188 0.54229 0.77802 0.0
O274 O 0.89498 0.56504 0.75692 0.0
O275 O 0.88463 0.55541 0.79227 0.0
C276 C 0.89561 0.49372 0.78102 0.0
C277 C 0.94968 0.54968 0.74149 0.0
C278 C 0.94919 0.55705 0.8185 0.0
O279 O 0.89643 0.5037 0.76085 0.0
O280 O 0.90678 0.508 0.79907 0.0
O281 O 0.94908 0.53662 0.80479 0.0
O282 O 0.93435 0.57073 0.81143 0.0
C283 C 0.87984 0.56589 0.77331 0.0
O284 O 0.939 0.52762 0.74564 0.0
O285 O 0.94484 0.56789 0.7558 0.0
In286 In 0.76184 0.41362 0.51083 0.0
O287 O 0.74273 0.37738 0.52602 0.0
O288 O 0.7701 0.40268 0.54898 0.0
C289 C 0.75435 0.3954 0.46283 0.0
C290 C 0.7335 0.44934 0.52005 0.0
C291 C 0.8107 0.42458 0.51568 0.0
O292 O 0.74785 0.38174 0.47992 0.0
O293 O 0.76344 0.41843 0.46994 0.0
O294 O 0.79764 0.4402 0.52397 0.0
O295 O 0.79907 0.40368 0.50512 0.0
C296 C 0.75502 0.38186 0.54637 0.0
O297 O 0.75446 0.45473 0.51215 0.0
O298 O 0.72672 0.42596 0.52289 0.0
In299 In 0.66387 0.5217 0.29112 0.0
O300 O 0.69512 0.49851 0.29214 0.0
O301 O 0.66188 0.48052 0.27324 0.0
C302 C 0.69144 0.56898 0.30031 0.0
C303 C 0.6449 0.52954 0.24652 0.0
C304 C 0.64006 0.51614 0.33367 0.0
O305 O 0.6689 0.56563 0.29464 0.0
O306 O 0.69994 0.54861 0.30166 0.0
O307 O 0.62876 0.51408 0.31288 0.0
O308 O 0.66284 0.52039 0.33275 0.0
C309 C 0.68351 0.47891 0.27942 0.0
O310 O 0.63158 0.52105 0.26324 0.0
O311 O 0.66746 0.53368 0.2523 0.0
Dy312 Dy 0.0038 0.02877 0.02491 0.0
C313 C 0.10696 0.04383 0.04353 0.0
C314 C 0.95536 0.03011 0.0225 0.0
Dy315 Dy 0.05792 0.04321 0.04201 0.0
O316 O 0.96641 0.01813 0.00585 0.0
O317 O 0.9707 0.04077 0.0405 0.0
O318 O 0.0135 0.00735 0.98958 0.0
O319 O 0.03738 0.03886 0.0072 0.0
C320 C 0.03521 0.02122 0.98994 0.0
C321 C 0.028 0.0545 0.07649 0.0
O322 O 0.05334 0.08083 0.02819 0.0
O323 O 0.01128 0.07102 0.02057 0.0
O324 O 0.09249 0.03497 0.06 0.0
O325 O 0.09471 0.05309 0.02697 0.0
O326 O 0.05006 0.06713 0.07525 0.0
O327 O 0.02412 0.03479 0.06093 0.0
O328 O 0.0076 0.99233 0.04011 0.0
O329 O 0.04985 0.9997 0.04049 0.0
C330 C 0.03226 0.08733 0.02152 0.0
C331 C 0.02864 0.98438 0.04249 0.0
Dy332 Dy 0.28872 0.76927 0.22815 0.0
C333 C 0.28903 0.7674 0.33383 0.0
C334 C 0.28574 0.77609 0.17932 0.0
Dy335 Dy 0.28313 0.77296 0.28496 0.0
O336 O 0.30324 0.78765 0.19494 0.0
O337 O 0.27031 0.76036 0.19028 0.0
O338 O 0.31678 0.74406 0.2319 0.0
O339 O 0.31315 0.77176 0.26082 0.0
C340 C 0.32337 0.753 0.25459 0.0
C341 C 0.24797 0.78897 0.25874 0.0
O342 O 0.30649 0.81094 0.28088 0.0
O343 O 0.29445 0.8114 0.23975 0.0
O344 O 0.27551 0.78213 0.32451 0.0
O345 O 0.29924 0.75552 0.31643 0.0
O346 O 0.25282 0.79625 0.28209 0.0
O347 O 0.25942 0.77132 0.25239 0.0
O348 O 0.26289 0.73292 0.23081 0.0
O349 O 0.26592 0.73148 0.2734 0.0
C350 C 0.30456 0.82326 0.26102 0.0
C351 C 0.25808 0.72096 0.2508 0.0
Dy352 Dy 0.54791 0.02481 0.52111 0.0
C353 C 0.44657 0.03863 0.51435 0.0
C354 C 0.59312 0.01177 0.52624 0.0
Dy355 Dy 0.49153 0.02532 0.5209 0.0
O356 O 0.58774 0.02993 0.51373 0.0
O357 O 0.57382 1.00095 0.53638 0.0
O358 O 0.55168 0.05447 0.49363 0.0
O359 O 0.51917 0.02814 0.49424 0.0
C360 C 0.52913 0.04792 0.48515 0.0
C361 C 0.51036 0.00302 0.55754 0.0
O362 O 0.49216 0.99202 0.49265 0.0
O363 O 0.53095 0.98502 0.50411 0.0
O364 O 0.45066 0.01758 0.52286 0.0
O365 O 0.46704 0.05234 0.50928 0.0
O366 O 0.48768 0.99661 0.54947 0.0
O367 O 0.5202 0.02235 0.54776 0.0
O368 O 0.54801 0.05876 0.54857 0.0
O369 O 0.50866 0.06513 0.53816 0.0
C370 C 0.50929 0.97747 0.49217 0.0
C371 C 0.53065 0.07302 0.54941 0.0
Dy372 Dy 0.24041 0.26886 0.76513 0.0
C373 C 0.34291 0.28237 0.75227 0.0
C374 C 0.19207 0.26185 0.77514 0.0
Dy375 Dy 0.29483 0.27202 0.76291 0.0
O376 O 0.20214 0.2756 0.75864 0.0
O377 O 0.2084 0.25135 0.78608 0.0
O378 O 0.24169 0.30093 0.74105 0.0
O379 O 0.27147 0.30073 0.7655 0.0
C380 C 0.26372 0.31191 0.74821 0.0
C381 C 0.2721 0.22884 0.78 0.0
O382 O 0.29392 0.29501 0.79933 0.0
O383 O 0.25298 0.2814 0.8049 0.0
O384 O 0.33451 0.2711 0.77105 0.0
O385 O 0.32503 0.28822 0.73926 0.0
O386 O 0.29438 0.23969 0.78638 0.0
O387 O 0.2639 0.23996 0.76285 0.0
O388 O 0.24081 0.24611 0.72852 0.0
O389 O 0.28207 0.25858 0.72332 0.0
C390 C 0.27514 0.29271 0.81361 0.0
C391 C 0.25979 0.24776 0.7145 0.0
Dy392 Dy 0.00982 0.01346 0.49995 0.0
C393 C 0.05159 0.04573 0.59754 0.0
C394 C 0.97965 0.00506 0.45803 0.0
Dy395 Dy 0.0288 0.03538 0.55139 0.0
O396 O 0.00287 0.00459 0.45867 0.0
O397 O 0.97293 0.00907 0.48031 0.0
O398 O 0.04607 0.00384 0.49102 0.0
O399 O 0.04448 0.03654 0.51537 0.0
C400 C 0.05855 0.02268 0.50575 0.0
C401 C 0.97992 0.02445 0.54434 0.0
O402 O 0.03442 0.07233 0.53433 0.0
O403 O 0.00897 0.05621 0.49988 0.0
O404 O 0.03125 0.05245 0.59085 0.0
O405 O 0.06001 0.03408 0.57871 0.0
O406 O 0.99144 0.04392 0.55869 0.0
O407 O 0.9949 0.01134 0.53585 0.0
O408 O 0.00885 0.97571 0.51629 0.0
O409 O 0.03349 0.99424 0.55079 0.0
C410 C 0.02189 0.07593 0.51419 0.0
C411 C 0.02231 0.97373 0.53647 0.0
Dy412 Dy 0.29317 0.78646 0.77582 0.0
C413 C 0.19733 0.7374 0.73754 0.0
C414 C 0.33777 0.8026 0.80026 0.0
Dy415 Dy 0.24211 0.75307 0.76179 0.0
O416 O 0.33094 0.81068 0.77972 0.0
O417 O 0.31983 0.78682 0.80786 0.0
O418 O 0.29947 0.79067 0.73531 0.0
O419 O 0.27702 0.75849 0.74594 0.0
C420 C 0.28392 0.76996 0.72779 0.0
C421 C 0.25142 0.76734 0.80997 0.0
O422 O 0.26418 0.72126 0.76131 0.0
O423 O 0.29691 0.74653 0.78456 0.0
O424 O 0.2044 0.72868 0.75767 0.0
O425 O 0.21509 0.75364 0.73028 0.0
O426 O 0.23679 0.7464 0.80121 0.0
O427 O 0.25809 0.7806 0.79265 0.0
O428 O 0.27152 0.81854 0.77629 0.0
O429 O 0.23804 0.79327 0.75427 0.0
C430 C 0.28501 0.7237 0.77487 0.0
C431 C 0.2502 0.81607 0.76368 0.0
Dy432 Dy 0.52734 0.01707 0.0552 0.0
C433 C 0.5413 0.9988 0.94935 0.0
C434 C 0.52682 0.02893 0.1047 0.0
Dy435 Dy 0.53307 0.01294 0.99691 0.0
O436 O 0.53733 0.01113 0.09424 0.0
O437 O 0.51667 0.04038 0.08808 0.0
O438 O 0.51094 0.97507 0.05128 0.0
O439 O 0.53684 0.98912 0.02685 0.0
C440 C 0.52221 0.9696 0.03168 0.0
C441 C 0.52784 0.06089 0.01461 0.0
O442 O 0.49275 1.00097 1.0001 0.0
O443 O 0.49019 0.01921 0.04036 0.0
O444 O 0.52511 0.98575 0.96207 0.0
O445 O 0.5528 0.01909 0.96269 0.0
O446 O 0.52932 0.05393 0.99138 0.0
O447 O 0.52937 0.04171 0.02602 0.0
O448 O 0.56716 0.03074 0.05312 0.0
O449 O 0.57142 0.01616 0.01212 0.0
C450 C 0.48011 0.00879 0.01855 0.0
C451 C 0.58067 0.02584 0.03447 0.0
Dy452 Dy 0.27028 0.29194 0.26582 0.0
C453 C 0.2635 0.1842 0.25667 0.0
C454 C 0.2694 0.34301 0.26504 0.0
Dy455 Dy 0.26001 0.23458 0.25506 0.0
O456 O 0.26504 0.33019 0.28398 0.0
O457 O 0.27451 0.32801 0.2467 0.0
O458 O 0.29381 0.28923 0.29932 0.0
O459 O 0.26342 0.26023 0.28906 0.0
C460 C 0.28186 0.26703 0.30398 0.0
C461 C 0.24943 0.26005 0.21662 0.0
O462 O 0.2242 0.2381 0.26932 0.0
O463 O 0.22912 0.2821 0.26701 0.0
O464 O 0.25873 0.19462 0.23682 0.0
O465 O 0.26555 0.20117 0.27557 0.0
O466 O 0.23722 0.23781 0.22086 0.0
O467 O 0.26745 0.26639 0.23202 0.0
O468 O 0.30668 0.28758 0.25172 0.0
O469 O 0.30052 0.24356 0.25343 0.0
C470 C 0.2155 0.25972 0.27059 0.0
C471 C 0.31474 0.26549 0.25014 0.0
Dy472 Dy 0.50286 0.51352 0.99344 0.0
C473 C 0.55453 0.54213 0.09083 0.0
C474 C 0.47915 0.49825 0.94841 0.0
Dy475 Dy 0.52423 0.53206 0.04914 0.0
O476 O 0.49935 0.49154 0.9559 0.0
O477 O 0.47138 0.51242 0.96599 0.0
O478 O 0.53873 0.53333 0.98093 0.0
O479 O 0.53765 0.51766 0.01472 0.0
C480 C 0.55114 0.53076 1.00088 0.0
C481 C 0.47501 0.5246 0.04567 0.0
O482 O 0.52609 0.56957 0.03195 0.0
O483 O 0.49826 0.5545 0.99832 0.0
O484 O 0.53339 0.52719 0.08867 0.0
O485 O 0.55907 0.55213 0.0702 0.0
O486 O 0.48793 0.53371 0.06593 0.0
O487 O 0.4895 0.52193 0.02904 0.0
O488 O 0.49742 0.47623 0.01047 0.0
O489 O 0.523 0.48929 0.04605 0.0
C490 C 0.51204 0.57339 0.01278 0.0
C491 C 0.50889 0.47121 0.03083 0.0
Dy492 Dy 0.80214 0.29579 0.27072 0.0
C493 C 0.70039 0.25774 0.24026 0.0
C494 C 0.84355 0.30798 0.30072 0.0
Dy495 Dy 0.74739 0.2709 0.25939 0.0
O496 O 0.84298 0.30758 0.27678 0.0
O497 O 0.82157 0.3027 0.308 0.0
O498 O 0.80899 0.29938 0.23115 0.0
O499 O 0.7814 0.26997 0.2413 0.0
C500 C 0.79021 0.28167 0.22359 0.0
C501 C 0.76047 0.29157 0.30612 0.0
O502 O 0.76249 0.23467 0.26028 0.0
O503 O 0.80096 0.25388 0.27725 0.0
O504 O 0.70778 0.25438 0.2624 0.0
O505 O 0.71883 0.26748 0.22834 0.0
O506 O 0.74286 0.27214 0.30079 0.0
O507 O 0.76809 0.29909 0.28641 0.0
O508 O 0.78668 0.33167 0.26533 0.0
O509 O 0.74958 0.31019 0.2464 0.0
C510 C 0.78428 0.2331 0.27008 0.0
C511 C 0.76557 0.33161 0.25293 0.0
Dy512 Dy 0.03496 0.52815 0.53856 0.0
C513 C 0.02635 0.51144 0.43257 0.0
C514 C 0.03167 0.54228 0.58742 0.0
Dy515 Dy 0.02509 0.52194 0.48227 0.0
O516 O 0.03154 0.519 0.57778 0.0
O517 O 0.03431 0.55801 0.57043 0.0
O518 O 0.05881 0.49822 0.53658 0.0
O519 O 0.02965 0.49602 0.51018 0.0
C520 C 0.04802 0.48647 0.51602 0.0
C521 C 0.01327 0.56423 0.50637 0.0
O522 O 0.99105 0.49821 0.49188 0.0
O523 O 0.99417 0.5139 0.53327 0.0
O524 O 0.0325 0.53404 0.44453 0.0
O525 O 0.01914 0.49458 0.44772 0.0
O526 O 1.00146 0.55238 0.48641 0.0
O527 O 0.03153 0.55411 0.51072 0.0
O528 O 0.07155 0.54693 0.52782 0.0
O529 O 0.06568 0.52976 0.48683 0.0
C530 C 0.98186 0.50029 0.51368 0.0
C531 C 0.07984 0.54224 0.50571 0.0
Dy532 Dy 0.75146 0.77504 0.26511 0.0
C533 C 0.85604 0.79656 0.26598 0.0
C534 C 0.7027 0.76029 0.271 0.0
Dy535 Dy 0.80713 0.78523 0.27278 0.0
O536 O 0.7119 0.77296 0.25332 0.0
O537 O 0.72015 0.75509 0.28503 0.0
O538 O 0.7528 0.8083 0.24233 0.0
O539 O 0.77973 0.80958 0.27053 0.0
C540 C 0.7734 0.82066 0.25251 0.0
C541 C 0.78482 0.74053 0.28663 0.0
O542 O 0.79943 0.80159 0.31064 0.0
O543 O 0.75767 0.78628 0.3058 0.0
O544 O 0.84274 0.77382 0.26331 0.0
O545 O 0.84272 0.8134 0.27306 0.0
O546 O 0.80508 0.75345 0.29721 0.0
O547 O 0.77878 0.75076 0.26787 0.0
O548 O 0.76045 0.75403 0.23029 0.0
O549 O 0.79917 0.77829 0.23152 0.0
C550 C 0.7775 0.79707 0.31971 0.0
C551 C 0.78064 0.7624 0.21931 0.0
Dy552 Dy 0.77602 0.27213 0.73392 0.0
C553 C 0.7675 0.25724 0.83592 0.0
C554 C 0.77069 0.28346 0.68669 0.0
Dy555 Dy 0.768 0.26841 0.78827 0.0
O556 O 0.79086 0.28964 0.70036 0.0
O557 O 0.75375 0.27104 0.69873 0.0
O558 O 0.80439 0.24687 0.73449 0.0
O559 O 0.79972 0.27049 0.76625 0.0
C560 C 0.81038 0.25274 0.75789 0.0
C561 C 0.73481 0.28911 0.76377 0.0
O562 O 0.79319 0.3059 0.79095 0.0
O563 O 0.78672 0.31341 0.75025 0.0
O564 O 0.75069 0.26659 0.82455 0.0
O565 O 0.78463 0.25392 0.82127 0.0
O566 O 0.74207 0.29625 0.78666 0.0
O567 O 0.74434 0.27032 0.75589 0.0
O568 O 0.75628 0.23178 0.73093 0.0
O569 O 0.75518 0.22739 0.77287 0.0
C570 C 0.7954 0.32139 0.77318 0.0
C571 C 0.75113 0.2178 0.7495 0.0
Dy572 Dy 0.7736 0.78904 0.77477 0.0
C573 C 0.76503 0.67875 0.74595 0.0
C574 C 0.76926 0.83841 0.77106 0.0
Dy575 Dy 0.76172 0.72947 0.75273 0.0
O576 O 0.78553 0.83149 0.78572 0.0
O577 O 0.75572 0.8185 0.75888 0.0
O578 O 0.77946 0.78263 0.81504 0.0
O579 O 0.77042 0.75206 0.78779 0.0
C580 C 0.77472 0.75759 0.81067 0.0
C581 C 0.7575 0.76477 0.72086 0.0
O582 O 0.72611 0.73289 0.76865 0.0
O583 O 0.73306 0.77746 0.77886 0.0
O584 O 0.77452 0.69621 0.73224 0.0
O585 O 0.75261 0.68886 0.76258 0.0
O586 O 0.74529 0.74129 0.71741 0.0
O587 O 0.77197 0.76647 0.7394 0.0
O588 O 0.81016 0.78381 0.76117 0.0
O589 O 0.80257 0.73889 0.75859 0.0
C590 C 0.71886 0.75438 0.77717 0.0
C591 C 0.81752 0.76123 0.75782 0.0
Dy592 Dy 0.49885 0.52161 0.50353 0.0
C593 C 0.59809 0.5384 0.54321 0.0
C594 C 0.45005 0.52018 0.49459 0.0
Dy595 Dy 0.55012 0.53655 0.53008 0.0
O596 O 0.46718 0.53296 0.4829 0.0
O597 O 0.45968 0.50716 0.51005 0.0
O598 O 0.51256 0.50228 0.46991 0.0
O599 O 0.53568 0.53206 0.49178 0.0
C600 C 0.53488 0.51455 0.47431 0.0
C601 C 0.51315 0.54207 0.55907 0.0
O602 O 0.5473 0.57413 0.51633 0.0
O603 O 0.50538 0.56497 0.50817 0.0
O604 O 0.57993 0.52446 0.55245 0.0
O605 O 0.59 0.55209 0.52729 0.0
O606 O 0.53495 0.55563 0.56338 0.0
O607 O 0.51352 0.52516 0.54146 0.0
O608 O 0.50261 0.48366 0.51657 0.0
O609 O 0.54459 0.49345 0.52443 0.0
C610 C 0.52647 0.58122 0.51014 0.0
C611 C 0.52371 0.47694 0.52262 0.0
Dy612 Dy 0.05141 0.52759 0.01377 0.0
C613 C 0.95065 0.54281 0.01235 0.0
C614 C 0.09566 0.51204 0.01818 0.0
Dy615 Dy 0.99605 0.53002 0.01624 0.0
O616 O 0.09169 0.53225 0.00795 0.0
O617 O 0.0755 0.50052 0.02624 0.0
O618 O 0.05489 0.55639 0.98566 0.0
O619 O 0.02192 0.53114 0.9875 0.0
C620 C 0.03208 0.55059 0.97796 0.0
C621 C 0.01531 0.50708 0.05202 0.0
O622 O 0.99365 0.49502 0.98955 0.0
O623 O 0.03323 0.48809 0.99711 0.0
O624 O 0.97043 0.55632 0.00535 0.0
O625 O 0.9557 0.52234 0.02121 0.0
O626 O 0.99238 0.5016 0.04486 0.0
O627 O 0.02541 0.52621 0.04207 0.0
O628 O 0.05336 0.56189 0.04149 0.0
O629 O 0.01422 0.56964 0.03287 0.0
C630 C 0.01053 0.48025 0.98773 0.0
C631 C 0.03662 0.57689 0.0433 0.0
H632 H 0.98312 0.18064 0.93278 0.0
H633 H 0.04878 0.23631 0.95439 0.0
H634 H 0.06112 0.20776 0.98396 0.0
H635 H 0.97253 0.16015 0.99459 0.0
H636 H 0.96154 0.12712 0.98301 0.0
H637 H 0.95731 0.15252 0.96439 0.0
H638 H 0.97909 0.13158 0.92904 0.0
H639 H 0.98337 0.10616 0.94754 0.0
H640 H 0.00925 0.12495 0.9351 0.0
H641 H 0.06807 0.17132 0.00868 0.0
H642 H 0.06773 0.13081 0.028 0.0
H643 H 0.99661 0.10022 0.99186 0.0
C644 C 0.99995 0.18692 0.94394 0.0
C645 C 0.01499 0.21069 0.94127 0.0
C646 C 0.03691 0.21822 0.95617 0.0
C647 C 0.0441 0.20213 0.97303 0.0
C648 C 0.02902 0.17869 0.97505 0.0
C649 C 0.00726 0.17123 0.96111 0.0
C650 C 0.9946 0.14486 0.96649 0.0
C651 C 0.97004 0.14626 0.97779 0.0
C652 C 0.9914 0.12577 0.94316 0.0
C653 C 0.01288 0.13846 0.98519 0.0
C654 C 0.03263 0.15817 0.9899 0.0
C655 C 0.0525 0.15591 0.00543 0.0
C656 C 0.05219 0.13284 0.0163 0.0
C657 C 0.03205 0.11246 0.01175 0.0
C658 C 0.01209 0.11559 0.99618 0.0
H659 H 0.1121 0.80483 0.22201 0.0
H660 H 0.13418 0.80864 0.14695 0.0
H661 H 0.17666 0.80867 0.16121 0.0
H662 H 0.16797 0.84565 0.2521 0.0
H663 H 0.16801 0.82663 0.27782 0.0
H664 H 0.13962 0.82914 0.26211 0.0
H665 H 0.12884 0.77953 0.25442 0.0
H666 H 0.15717 0.77687 0.27002 0.0
H667 H 0.14977 0.76212 0.23897 0.0
H668 H 0.21574 0.80385 0.18261 0.0
H669 H 0.24927 0.79628 0.21039 0.0
H670 H 0.20281 0.79694 0.2719 0.0
C671 C 0.12596 0.80615 0.20867 0.0
C672 C 0.11982 0.80682 0.18336 0.0
C673 C 0.13844 0.80822 0.16643 0.0
C674 C 0.16264 0.80827 0.17435 0.0
C675 C 0.16803 0.80714 0.19932 0.0
C676 C 0.1503 0.80635 0.2163 0.0
C677 C 0.16085 0.80403 0.24191 0.0
C678 C 0.159 0.82778 0.25953 0.0
C679 C 0.14842 0.77916 0.2519 0.0
C680 C 0.18711 0.80303 0.23654 0.0
C681 C 0.19084 0.80491 0.21183 0.0
C682 C 0.21311 0.80271 0.20204 0.0
C683 C 0.23199 0.79821 0.21786 0.0
C684 C 0.22856 0.7961 0.24313 0.0
C685 C 0.20598 0.79899 0.25269 0.0
H686 H 0.52877 0.83578 0.44577 0.0
H687 H 0.49009 0.84381 0.3772 0.0
H688 H 0.48353 0.8868 0.39384 0.0
H689 H 0.49319 0.86828 0.48696 0.0
H690 H 0.51887 0.88426 0.50696 0.0
H691 H 0.51992 0.85379 0.49002 0.0
H692 H 0.55957 0.87374 0.47071 0.0
H693 H 0.55875 0.9042 0.48776 0.0
H694 H 0.56003 0.90206 0.45472 0.0
H695 H 0.47931 0.92792 0.41885 0.0
H696 H 0.4828 0.96692 0.44816 0.0
H697 H 0.52738 0.93379 0.49896 0.0
C698 C 0.51896 0.84666 0.43431 0.0
C699 C 0.50979 0.83652 0.41028 0.0
C700 C 0.4973 0.85134 0.39564 0.0
C701 C 0.49337 0.87567 0.40498 0.0
C702 C 0.50245 0.88508 0.42883 0.0
C703 C 0.51542 0.87127 0.44312 0.0
C704 C 0.52433 0.88637 0.46766 0.0
C705 C 0.51342 0.87233 0.48916 0.0
C706 C 0.55233 0.89192 0.47036 0.0
C707 C 0.51417 0.9107 0.465 0.0
C708 C 0.50126 0.9094 0.44264 0.0
C709 C 0.48955 0.92925 0.43633 0.0
C710 C 0.49149 0.95123 0.45313 0.0
C711 C 0.50541 0.95332 0.47572 0.0
C712 C 0.51676 0.93272 0.48172 0.0
H713 H 0.45483 0.30135 0.6648 0.0
H714 H 0.50107 0.29114 0.72768 0.0
H715 H 0.46574 0.28823 0.75368 0.0
H716 H 0.417 0.34039 0.69903 0.0
H717 H 0.38953 0.32608 0.68086 0.0
H718 H 0.41861 0.32832 0.66731 0.0
H719 H 0.40991 0.27919 0.65504 0.0
H720 H 0.38084 0.2768 0.66855 0.0
H721 H 0.40243 0.25765 0.67839 0.0
H722 H 0.42509 0.28366 0.77223 0.0
H723 H 0.38198 0.27923 0.78247 0.0
H724 H 0.36203 0.29406 0.7082 0.0
C725 C 0.45754 0.29871 0.68409 0.0
C726 C 0.48073 0.29646 0.69423 0.0
C727 C 0.48351 0.29296 0.71953 0.0
C728 C 0.46355 0.29129 0.73445 0.0
C729 C 0.44092 0.29337 0.72387 0.0
C730 C 0.43781 0.29719 0.69932 0.0
C731 C 0.41142 0.29837 0.69248 0.0
C732 C 0.40901 0.32487 0.68445 0.0
C733 C 0.40052 0.27671 0.67243 0.0
C734 C 0.40013 0.29421 0.71693 0.0
C735 C 0.41751 0.29136 0.73476 0.0
C736 C 0.41138 0.28614 0.7585 0.0
C737 C 0.38686 0.28363 0.76414 0.0
C738 C 0.36877 0.28651 0.7462 0.0
C739 C 0.37556 0.29212 0.72236 0.0
H740 H 0.97845 0.83333 0.58119 0.0
H741 H 0.0486 0.84626 0.62204 0.0
H742 H 0.06083 0.88632 0.60296 0.0
H743 H 0.99968 0.86037 0.5249 0.0
H744 H 0.97387 0.87593 0.52018 0.0
H745 H 0.97053 0.84703 0.53564 0.0
H746 H 0.9539 0.87044 0.57317 0.0
H747 H 0.95695 0.89924 0.55765 0.0
H748 H 0.97154 0.90002 0.58785 0.0
H749 H 0.06595 0.92464 0.58068 0.0
H750 H 0.06215 0.96276 0.55957 0.0
H751 H 0.98824 0.92817 0.53346 0.0
C752 C 0.99639 0.8446 0.58596 0.0
C753 C 0.01263 0.83655 0.60307 0.0
C754 C 0.03582 0.85199 0.60909 0.0
C755 C 0.04304 0.87473 0.5982 0.0
C756 C 0.0268 0.88211 0.58142 0.0
C757 C 0.00381 0.86786 0.57551 0.0
C758 C 0.98955 0.88151 0.55809 0.0
C759 C 0.98302 0.86523 0.53322 0.0
C760 C 0.96663 0.8882 0.5699 0.0
C761 C 0.00812 0.90561 0.55536 0.0
C762 C 0.02955 0.90515 0.56879 0.0
C763 C 0.04931 0.92524 0.57005 0.0
C764 C 0.04696 0.94683 0.55794 0.0
C765 C 0.02498 0.94845 0.54475 0.0
C766 C 0.00543 0.92727 0.54297 0.0
H767 H 0.44893 0.75717 0.8692 0.0
H768 H 0.49715 0.81951 0.8407 0.0
H769 H 0.4616 0.8333 0.82081 0.0
H770 H 0.40564 0.74222 0.81664 0.0
H771 H 0.37971 0.73565 0.83513 0.0
H772 H 0.40906 0.7304 0.84629 0.0
H773 H 0.40637 0.76028 0.88595 0.0
H774 H 0.37711 0.76582 0.87479 0.0
H775 H 0.40145 0.79263 0.88341 0.0
H776 H 0.42034 0.83964 0.80324 0.0
H777 H 0.37704 0.83799 0.78987 0.0
H778 H 0.35609 0.77319 0.83212 0.0
C779 C 0.45204 0.77357 0.85857 0.0
C780 C 0.47584 0.78715 0.85632 0.0
C781 C 0.47909 0.80875 0.84256 0.0
C782 C 0.459 0.81675 0.83124 0.0
C783 C 0.43574 0.80311 0.83407 0.0
C784 C 0.43219 0.78199 0.84744 0.0
C785 C 0.40534 0.77093 0.84811 0.0
C786 C 0.39961 0.74316 0.83581 0.0
C787 C 0.39709 0.77252 0.87464 0.0
C788 C 0.39432 0.78903 0.83296 0.0
C789 C 0.41211 0.8074 0.82489 0.0
C790 C 0.40627 0.82549 0.80967 0.0
C791 C 0.38166 0.82449 0.80223 0.0
C792 C 0.36324 0.80576 0.81029 0.0
C793 C 0.36973 0.78809 0.8261 0.0
H794 H 0.5106 0.17666 0.11397 0.0
H795 H 0.49745 0.21859 0.05151 0.0
H796 H 0.50125 0.18086 0.02318 0.0
H797 H 0.55547 0.14417 0.08734 0.0
H798 H 0.54534 0.11433 0.10024 0.0
H799 H 0.54047 0.14415 0.11595 0.0
H800 H 0.49444 0.12596 0.11571 0.0
H801 H 0.49895 0.09618 0.09957 0.0
H802 H 0.47762 0.11406 0.08687 0.0
H803 H 0.50808 0.14011 0.00159 0.0
H804 H 0.5171 0.09771 0.9874 0.0
H805 H 0.52602 0.08088 0.06321 0.0
C806 C 0.50831 0.17777 0.09432 0.0
C807 C 0.50368 0.20058 0.08491 0.0
C808 C 0.50096 0.20136 0.05912 0.0
C809 C 0.50307 0.18001 0.04288 0.0
C810 C 0.50784 0.15796 0.05269 0.0
C811 C 0.51036 0.15654 0.07777 0.0
C812 C 0.51599 0.13053 0.08324 0.0
C813 C 0.5408 0.13349 0.09753 0.0
C814 C 0.49553 0.11582 0.09718 0.0
C815 C 0.51666 0.11781 0.05728 0.0
C816 C 0.51175 0.13405 0.04004 0.0
C817 C 0.51179 0.12715 0.01488 0.0
C818 C 0.51699 0.10301 0.00702 0.0
C819 C 0.5221 0.08594 0.02421 0.0
C820 C 0.52188 0.09342 0.0497 0.0
H821 H 0.11261 0.29934 0.35505 0.0
H822 H 0.06975 0.22425 0.33099 0.0
H823 H 0.1003 0.21658 0.30114 0.0
H824 H 0.13479 0.31389 0.29393 0.0
H825 H 0.16451 0.32952 0.30667 0.0
H826 H 0.13822 0.33026 0.3246 0.0
H827 H 0.15902 0.31064 0.35975 0.0
H828 H 0.18534 0.30994 0.34197 0.0
H829 H 0.16987 0.28086 0.35307 0.0
H830 H 0.137 0.2151 0.27711 0.0
H831 H 0.17768 0.21994 0.26025 0.0
H832 H 0.1967 0.29651 0.2985 0.0
C833 C 0.10949 0.28146 0.34322 0.0
C834 C 0.08876 0.26239 0.3453 0.0
C835 C 0.08545 0.23914 0.32969 0.0
C836 C 0.10266 0.23464 0.31261 0.0
C837 C 0.12301 0.25368 0.31119 0.0
C838 C 0.12649 0.27669 0.32596 0.0
C839 C 0.15068 0.29328 0.3217 0.0
C840 C 0.14681 0.31821 0.31109 0.0
C841 C 0.1672 0.299 0.34554 0.0
C842 C 0.16055 0.27567 0.30275 0.0
C843 C 0.14417 0.25301 0.29684 0.0
C844 C 0.14981 0.23292 0.28124 0.0
C845 C 0.17296 0.23583 0.27179 0.0
C846 C 0.19017 0.2587 0.27782 0.0
C847 C 0.18366 0.27908 0.29309 0.0
H848 H 0.92277 0.02425 0.17141 0.0
H849 H 0.96084 0.09113 0.21773 0.0
H850 H 0.99015 0.10007 0.18569 0.0
H851 H 0.97554 0.00378 0.14806 0.0
H852 H 0.96224 0.99344 0.11738 0.0
H853 H 0.94311 0.99303 0.14314 0.0
H854 H 0.91702 0.02158 0.12184 0.0
H855 H 0.93614 0.02213 0.09602 0.0
H856 H 0.9316 0.05183 0.11227 0.0
H857 H 0.01584 0.10144 0.14961 0.0
H858 H 0.03792 0.09407 0.11233 0.0
H859 H 0.98453 0.02556 0.08887 0.0
C860 C 0.93718 0.04088 0.1747 0.0
C861 C 0.93948 0.05706 0.19711 0.0
C862 C 0.95869 0.07849 0.20077 0.0
C863 C 0.97539 0.08378 0.18262 0.0
C864 C 0.97269 0.06746 0.16083 0.0
C865 C 0.95414 0.0464 0.15673 0.0
C866 C 0.95612 0.03143 0.132 0.0
C867 C 0.95945 0.00378 0.13536 0.0
C868 C 0.9339 0.03176 0.11451 0.0
C869 C 0.97901 0.04705 0.12317 0.0
C870 C 0.98797 0.06795 0.14 0.0
C871 C 0.00899 0.08516 0.13629 0.0
C872 C 0.02142 0.08077 0.11502 0.0
C873 C 0.01304 0.0592 0.09771 0.0
C874 C 0.99135 0.04225 0.10173 0.0
H875 H 0.3228 0.69576 0.44838 0.0
H876 H 0.2717 0.7339 0.48856 0.0
H877 H 0.26834 0.76099 0.45451 0.0
H878 H 0.35212 0.75216 0.41604 0.0
H879 H 0.35417 0.73068 0.38902 0.0
H880 H 0.35565 0.71944 0.419 0.0
H881 H 0.31993 0.68219 0.40313 0.0
H882 H 0.31779 0.69501 0.37391 0.0
H883 H 0.29148 0.68997 0.39211 0.0
H884 H 0.2667 0.78 0.41457 0.0
H885 H 0.26594 0.78894 0.37097 0.0
H886 H 0.31664 0.737 0.35583 0.0
C887 C 0.31158 0.71045 0.45032 0.0
C888 C 0.29781 0.71313 0.47116 0.0
C889 C 0.28259 0.73183 0.47278 0.0
C890 C 0.28062 0.74731 0.45359 0.0
C891 C 0.29389 0.74369 0.4329 0.0
C892 C 0.30908 0.72572 0.43113 0.0
C893 C 0.31909 0.7235 0.40583 0.0
C894 C 0.3469 0.73199 0.40758 0.0
C895 C 0.31161 0.69604 0.39301 0.0
C896 C 0.30649 0.74238 0.39335 0.0
C897 C 0.29242 0.75417 0.40946 0.0
C898 C 0.2779 0.77119 0.40186 0.0
C899 C 0.27752 0.77607 0.37707 0.0
C900 C 0.29129 0.76371 0.36017 0.0
C901 C 0.30618 0.74692 0.36849 0.0
H902 H 0.60788 0.01396 0.66873 0.0
H903 H 0.56481 0.94692 0.69512 0.0
H904 H 0.53677 0.94181 0.65778 0.0
H905 H 0.56099 0.0404 0.64385 0.0
H906 H 0.57667 0.05067 0.61729 0.0
H907 H 0.59381 0.04767 0.64514 0.0
H908 H 0.61756 0.01665 0.62082 0.0
H909 H 0.60036 0.01958 0.59288 0.0
H910 H 0.60097 0.98832 0.60296 0.0
H911 H 0.51119 0.9474 0.61927 0.0
H912 H 0.49217 0.96145 0.5821 0.0
H913 H 0.55418 0.02294 0.58076 0.0
C914 C 0.59265 0.99807 0.66651 0.0
C915 C 0.58823 0.98095 0.68474 0.0
C916 C 0.56838 0.9602 0.68122 0.0
C917 C 0.55243 0.95718 0.66012 0.0
C918 C 0.5571 0.97469 0.64257 0.0
C919 C 0.57704 0.99443 0.64539 0.0
C920 C 0.57806 0.0109 0.62417 0.0
C921 C 0.57732 0.03906 0.63316 0.0
C922 C 0.60057 0.00872 0.60934 0.0
C923 C 0.55493 0.99818 0.60954 0.0
C924 C 0.54309 0.97721 0.62022 0.0
C925 C 0.52053 0.96352 0.61055 0.0
C926 C 0.50984 0.97164 0.58954 0.0
C927 C 0.5218 0.99314 0.57858 0.0
C928 C 0.54472 0.00625 0.58859 0.0
H929 H 0.23867 0.34493 0.94747 0.0
H930 H 0.31447 0.35009 0.97185 0.0
H931 H 0.3235 0.33381 0.93014 0.0
H932 H 0.23501 0.28511 0.90717 0.0
H933 H 0.21496 0.29434 0.88422 0.0
H934 H 0.2143 0.30636 0.91608 0.0
H935 H 0.22218 0.35298 0.90393 0.0
H936 H 0.22303 0.34109 0.87208 0.0
H937 H 0.24842 0.36371 0.88694 0.0
H938 H 0.32507 0.31959 0.88532 0.0
H939 H 0.31823 0.30393 0.84123 0.0
H940 H 0.24098 0.30498 0.84576 0.0
C941 C 0.25711 0.34243 0.94403 0.0
C942 C 0.27589 0.34881 0.96296 0.0
C943 C 0.29976 0.3452 0.95773 0.0
C944 C 0.30511 0.33607 0.93404 0.0
C945 C 0.28633 0.3302 0.91573 0.0
C946 C 0.26271 0.33281 0.92048 0.0
C947 C 0.24587 0.3245 0.8975 0.0
C948 C 0.22638 0.30119 0.90149 0.0
C949 C 0.23419 0.34691 0.88965 0.0
C950 C 0.2638 0.31724 0.87908 0.0
C951 C 0.28706 0.32091 0.88999 0.0
C952 C 0.30688 0.31639 0.87663 0.0
C953 C 0.30282 0.3076 0.85153 0.0
C954 C 0.27907 0.30309 0.83998 0.0
C955 C 0.25933 0.30803 0.85406 0.0
H956 H 0.95109 0.03101 0.3184 0.0
H957 H 0.87726 0.03416 0.33872 0.0
H958 H 0.88757 0.02336 0.38037 0.0
H959 H 0.96012 0.97812 0.35272 0.0
H960 H 0.9914 0.99134 0.36228 0.0
H961 H 0.9784 0.99903 0.33374 0.0
H962 H 0.9902 0.04763 0.34816 0.0
H963 H 0.00349 0.04006 0.3766 0.0
H964 H 0.98033 0.05985 0.3772 0.0
H965 H 0.90548 0.01219 0.41971 0.0
H966 H 0.93091 0.00459 0.45543 0.0
H967 H 0.99349 0.00901 0.41048 0.0
C968 C 0.93714 0.02949 0.33166 0.0
C969 C 0.91334 0.03341 0.32526 0.0
C970 C 0.89562 0.03131 0.34316 0.0
C971 C 0.90126 0.02506 0.36686 0.0
C972 C 0.92476 0.02105 0.37252 0.0
C973 C 0.94252 0.02342 0.35557 0.0
C974 C 0.96656 0.01886 0.36678 0.0
C975 C 0.97459 0.99544 0.35306 0.0
C976 C 0.98631 0.04304 0.36721 0.0
C977 C 0.95948 0.01354 0.39263 0.0
C978 C 0.93521 0.01476 0.39543 0.0
C979 C 0.92449 0.01113 0.41773 0.0
C980 C 0.93905 0.00674 0.43789 0.0
C981 C 0.96409 0.00603 0.43567 0.0
C982 C 0.97431 0.00909 0.41261 0.0
H983 H 0.31562 0.72322 0.59104 0.0
H984 H 0.24854 0.66747 0.58979 0.0
H985 H 0.23969 0.68653 0.63017 0.0
H986 H 0.33154 0.72477 0.65532 0.0
H987 H 0.34289 0.75886 0.65999 0.0
H988 H 0.34404 0.74164 0.63022 0.0
H989 H 0.31994 0.77279 0.61029 0.0
H990 H 0.31863 0.79003 0.64005 0.0
H991 H 0.29094 0.77713 0.62166 0.0
H992 H 0.23955 0.70748 0.6713 0.0
H993 H 0.24704 0.73181 0.71191 0.0
H994 H 0.31184 0.77801 0.6874 0.0
C995 C 0.29908 0.71519 0.59932 0.0
C996 C 0.28278 0.69385 0.58729 0.0
C997 C 0.26127 0.68384 0.59859 0.0
C998 C 0.25602 0.69454 0.62154 0.0
C999 C 0.27229 0.71548 0.63292 0.0
C1000 C 0.2933 0.72595 0.62232 0.0
C1001 C 0.30764 0.74835 0.63918 0.0
C1002 C 0.33303 0.74308 0.64662 0.0
C1003 C 0.30938 0.77357 0.62706 0.0
C1004 C 0.29158 0.74825 0.661 0.0
C1005 C 0.27136 0.729 0.65677 0.0
C1006 C 0.25486 0.72318 0.67463 0.0
C1007 C 0.25914 0.73731 0.69761 0.0
C1008 C 0.27934 0.75752 0.70244 0.0
C1009 C 0.29575 0.76327 0.68383 0.0
H1010 H 0.60787 0.02377 0.82617 0.0
H1011 H 0.57195 0.948 0.79491 0.0
H1012 H 0.54969 0.9423 0.83294 0.0
H1013 H 0.61735 0.00674 0.88637 0.0
H1014 H 0.61256 0.03694 0.90139 0.0
H1015 H 0.62394 0.03562 0.87104 0.0
H1016 H 0.58829 0.05621 0.85487 0.0
H1017 H 0.57684 0.05769 0.88523 0.0
H1018 H 0.55737 0.04152 0.85932 0.0
H1019 H 0.53193 0.94504 0.8754 0.0
H1020 H 0.52186 0.95536 0.91864 0.0
H1021 H 0.57156 0.02816 0.92162 0.0
C1022 C 0.59506 0.00612 0.82715 0.0
C1023 C 0.59142 0.98641 0.80758 0.0
C1024 C 0.57486 0.96339 0.80973 0.0
C1025 C 0.56214 0.96001 0.83122 0.0
C1026 C 0.56638 0.97977 0.85036 0.0
C1027 C 0.58253 0.00233 0.84849 0.0
C1028 C 0.58498 0.0201 0.872 0.0
C1029 C 0.61126 0.02513 0.88336 0.0
C1030 C 0.57634 0.04537 0.86758 0.0
C1031 C 0.56778 0.00403 0.8875 0.0
C1032 C 0.55698 0.98093 0.87474 0.0
C1033 C 0.54035 0.96306 0.88556 0.0
C1034 C 0.53479 0.969 0.91007 0.0
C1035 C 0.54616 0.99237 0.92344 0.0
C1036 C 0.56271 0.01004 0.91188 0.0
H1037 H 0.28384 0.359 0.11458 0.0
H1038 H 0.22362 0.3139 0.06833 0.0
H1039 H 0.21421 0.28536 0.10123 0.0
H1040 H 0.30312 0.30529 0.1413 0.0
H1041 H 0.31097 0.32238 0.17139 0.0
H1042 H 0.31287 0.33967 0.14443 0.0
H1043 H 0.28412 0.36889 0.16295 0.0
H1044 H 0.28244 0.35159 0.18989 0.0
H1045 H 0.2549 0.3544 0.17277 0.0
H1046 H 0.21083 0.26182 0.1393 0.0
H1047 H 0.21489 0.24383 0.17913 0.0
H1048 H 0.27795 0.30299 0.20086 0.0
C1049 C 0.26867 0.34312 0.1114 0.0
C1050 C 0.25442 0.33879 0.08879 0.0
C1051 C 0.2348 0.3177 0.0854 0.0
C1052 C 0.22928 0.30137 0.10404 0.0
C1053 C 0.24357 0.30619 0.12608 0.0
C1054 C 0.26297 0.32645 0.12983 0.0
C1055 C 0.27565 0.327 0.15515 0.0
C1056 C 0.30223 0.32336 0.15292 0.0
C1057 C 0.27417 0.35197 0.17112 0.0
C1058 C 0.26036 0.30392 0.165 0.0
C1059 C 0.24187 0.29231 0.14794 0.0
C1060 C 0.22528 0.27075 0.15277 0.0
C1061 C 0.22771 0.26067 0.17549 0.0
C1062 C 0.24667 0.27196 0.1932 0.0
C1063 C 0.26316 0.29398 0.18781 0.0
H1064 H 0.20149 0.94954 0.04704 0.0
H1065 H 0.22748 0.97867 0.97941 0.0
H1066 H 0.20236 0.01256 0.98441 0.0
H1067 H 0.14066 0.9572 0.03627 0.0
H1068 H 0.13598 0.96612 0.06811 0.0
H1069 H 0.15789 0.946 0.06041 0.0
H1070 H 0.19121 0.97843 0.08687 0.0
H1071 H 0.16933 0.9988 0.09429 0.0
H1072 H 0.19706 0.01159 0.0805 0.0
H1073 H 0.1728 0.04129 0.99519 0.0
H1074 H 0.1374 0.05993 0.0084 0.0
H1075 H 0.12999 0.01184 0.06875 0.0
C1076 C 0.20207 0.96325 0.03344 0.0
C1077 C 0.21648 0.96166 0.01291 0.0
C1078 C 0.21652 0.9796 0.99527 0.0
C1079 C 0.2025 0.99903 0.99807 0.0
C1080 C 0.18855 1.00015 0.01858 0.0
C1081 C 0.188 0.98258 0.03583 0.0
C1082 C 0.1698 0.9866 0.05497 0.0
C1083 C 0.14991 0.96255 0.05491 0.0
C1084 C 0.18263 0.99432 0.08068 0.0
C1085 C 0.15972 0.00877 0.0454 0.0
C1086 C 0.17115 0.0166 0.02468 0.0
C1087 C 0.16393 0.03558 0.01157 0.0
C1088 C 0.14387 0.04612 0.01927 0.0
C1089 C 0.13121 0.03747 0.03972 0.0
C1090 C 0.13972 0.01918 0.05339 0.0
H1091 H 0.67804 0.62246 0.98447 0.0
H1092 H 0.7098 0.58358 0.04078 0.0
H1093 H 0.66944 0.55769 0.04585 0.0
H1094 H 0.62052 0.62424 0.01284 0.0
H1095 H 0.60254 0.61829 0.98413 0.0
H1096 H 0.63365 0.63476 0.98506 0.0
H1097 H 0.6438 0.60119 0.9516 0.0
H1098 H 0.61262 0.58485 0.94998 0.0
H1099 H 0.63692 0.56753 0.95606 0.0
H1100 H 0.62558 0.53592 0.04492 0.0
H1101 H 0.58183 0.51793 0.03596 0.0
H1102 H 0.5787 0.56957 0.97921 0.0
C1103 C 0.67646 0.60857 0.99792 0.0
C1104 C 0.69709 0.60508 0.01227 0.0
C1105 C 0.69428 0.58659 0.02957 0.0
C1106 C 0.67141 0.57183 0.03265 0.0
C1107 C 0.65145 0.57567 0.01821 0.0
C1108 C 0.65374 0.59348 1.00109 0.0
C1109 C 0.62949 0.59326 0.98743 0.0
C1110 C 0.62107 0.61919 0.99268 0.0
C1111 C 0.6308 0.58628 0.95962 0.0
C1112 C 0.61337 0.57216 0.99912 0.0
C1113 C 0.62631 0.56258 0.01715 0.0
C1114 C 0.61529 0.5432 0.03076 0.0
C1115 C 0.59046 0.53312 0.02559 0.0
C1116 C 0.57702 0.54223 0.0068 0.0
C1117 C 0.58863 0.56209 0.99352 0.0
H1118 H 0.72284 0.46214 0.30066 0.0
H1119 H 0.66966 0.4457 0.23852 0.0
H1120 H 0.68904 0.40975 0.22241 0.0
H1121 H 0.77494 0.44509 0.26877 0.0
H1122 H 0.78598 0.4298 0.29404 0.0
H1123 H 0.7694 0.45574 0.29998 0.0
H1124 H 0.73843 0.42677 0.32406 0.0
H1125 H 0.75514 0.40094 0.31849 0.0
H1126 H 0.72314 0.39607 0.30942 0.0
H1127 H 0.71297 0.37525 0.21341 0.0
H1128 H 0.73634 0.34011 0.21496 0.0
H1129 H 0.77348 0.37677 0.28372 0.0
C1130 C 0.71544 0.45103 0.28358 0.0
C1131 C 0.69485 0.45679 0.2707 0.0
C1132 C 0.68538 0.44159 0.24867 0.0
C1133 C 0.6964 0.42128 0.23927 0.0
C1134 C 0.71674 0.41617 0.25225 0.0
C1135 C 0.72596 0.43025 0.27416 0.0
C1136 C 0.7467 0.41916 0.28547 0.0
C1137 C 0.77068 0.43862 0.28716 0.0
C1138 C 0.74047 0.4102 0.31085 0.0
C1139 C 0.7475 0.39653 0.26657 0.0
C1140 C 0.73031 0.39556 0.24737 0.0
C1141 C 0.7266 0.37588 0.22824 0.0
C1142 C 0.74005 0.35606 0.22923 0.0
C1143 C 0.75693 0.35587 0.24927 0.0
C1144 C 0.76122 0.37679 0.26782 0.0
H1145 H 0.84043 0.4691 0.53558 0.0
H1146 H 0.84133 0.39305 0.49944 0.0
H1147 H 0.88602 0.40319 0.49936 0.0
H1148 H 0.88536 0.50219 0.50241 0.0
H1149 H 0.89949 0.52474 0.52772 0.0
H1150 H 0.86777 0.51071 0.52784 0.0
H1151 H 0.87547 0.49418 0.57018 0.0
H1152 H 0.90727 0.50826 0.57022 0.0
H1153 H 0.89843 0.47456 0.57379 0.0
H1154 H 0.92901 0.42268 0.49813 0.0
H1155 H 0.96915 0.45041 0.49723 0.0
H1156 H 0.94186 0.51371 0.53567 0.0
C1157 C 0.85012 0.45446 0.52809 0.0
C1158 C 0.83749 0.43029 0.51753 0.0
C1159 C 0.85068 0.41167 0.50765 0.0
C1160 C 0.87606 0.4172 0.5076 0.0
C1161 C 0.88796 0.44133 0.51772 0.0
C1162 C 0.87556 0.45964 0.528 0.0
C1163 C 0.89279 0.48464 0.53615 0.0
C1164 C 0.88594 0.50687 0.52272 0.0
C1165 C 0.89353 0.49076 0.56426 0.0
C1166 C 0.91663 0.47775 0.52797 0.0
C1167 C 0.91334 0.45257 0.51757 0.0
C1168 C 0.93199 0.44224 0.50666 0.0
C1169 C 0.95462 0.45814 0.50612 0.0
C1170 C 0.9584 0.48396 0.51657 0.0
C1171 C 0.93938 0.49382 0.52805 0.0
H1172 H 0.35651 0.10501 0.31003 0.0
H1173 H 0.36222 0.07463 0.23444 0.0
H1174 H 0.32646 0.09262 0.22156 0.0
H1175 H 0.28906 0.09762 0.30862 0.0
H1176 H 0.28995 0.12778 0.32696 0.0
H1177 H 0.31387 0.10947 0.3312 0.0
H1178 H 0.34626 0.14874 0.3232 0.0
H1179 H 0.32245 0.16714 0.31946 0.0
H1180 H 0.34317 0.16407 0.29537 0.0
H1181 H 0.2928 0.11661 0.216 0.0
H1182 H 0.26692 0.14988 0.21735 0.0
H1183 H 0.28307 0.1656 0.2962 0.0
C1184 C 0.34995 0.10189 0.29086 0.0
C1185 C 0.36198 0.08838 0.27323 0.0
C1186 C 0.35327 0.08501 0.24822 0.0
C1187 C 0.3328 0.09489 0.24076 0.0
C1188 C 0.3213 0.10814 0.25853 0.0
C1189 C 0.32969 0.11195 0.28303 0.0
C1190 C 0.31574 0.12949 0.2978 0.0
C1191 C 0.3013 0.11523 0.3173 0.0
C1192 C 0.33293 0.1538 0.30963 0.0
C1193 C 0.29887 0.1356 0.2776 0.0
C1194 C 0.30195 0.12255 0.25522 0.0
C1195 C 0.2899 0.12666 0.23345 0.0
C1196 C 0.27518 0.14551 0.23439 0.0
C1197 C 0.27295 0.16008 0.25687 0.0
C1198 C 0.28413 0.15434 0.27885 0.0
H1199 H 0.35213 0.13389 0.49434 0.0
H1200 H 0.2955 0.07294 0.51312 0.0
H1201 H 0.32585 0.04473 0.51714 0.0
H1202 H 0.38671 0.09284 0.45871 0.0
H1203 H 0.41588 0.11145 0.46977 0.0
H1204 H 0.38963 0.12681 0.46763 0.0
H1205 H 0.39689 0.14381 0.51385 0.0
H1206 H 0.42312 0.12845 0.51605 0.0
H1207 H 0.39882 0.12142 0.53648 0.0
H1208 H 0.36224 0.02325 0.52008 0.0
H1209 H 0.40257 0.01018 0.52222 0.0
H1210 H 0.43605 0.08457 0.50141 0.0
C1211 C 0.34613 0.11458 0.4992 0.0
C1212 C 0.32138 0.10564 0.50341 0.0
C1213 C 0.31431 0.08026 0.50984 0.0
C1214 C 0.33143 0.06404 0.51212 0.0
C1215 C 0.35563 0.0734 0.50792 0.0
C1216 C 0.36305 0.09806 0.50161 0.0
C1217 C 0.39035 0.10343 0.49864 0.0
C1218 C 0.39596 0.10896 0.47211 0.0
C1219 C 0.40304 0.12559 0.51737 0.0
C1220 C 0.39706 0.078 0.50437 0.0
C1221 C 0.37672 0.06095 0.50962 0.0
C1222 C 0.37829 0.03641 0.51593 0.0
C1223 C 0.40127 0.02915 0.51711 0.0
C1224 C 0.42239 0.04632 0.51197 0.0
C1225 C 0.42018 0.071 0.50535 0.0
H1226 H 0.68436 0.61253 0.27983 0.0
H1227 H 0.73405 0.58271 0.32804 0.0
H1228 H 0.7618 0.62469 0.33205 0.0
H1229 H 0.72989 0.6466 0.24674 0.0
H1230 H 0.71472 0.67342 0.24295 0.0
H1231 H 0.69713 0.64227 0.24628 0.0
H1232 H 0.67656 0.66168 0.28341 0.0
H1233 H 0.69408 0.69294 0.28013 0.0
H1234 H 0.69524 0.6794 0.30916 0.0
H1235 H 0.78469 0.66891 0.32979 0.0
H1236 H 0.803 0.71191 0.31909 0.0
H1237 H 0.74024 0.7123 0.26962 0.0
C1238 C 0.70084 0.6151 0.29164 0.0
C1239 C 0.70701 0.59459 0.30393 0.0
C1240 C 0.72901 0.59829 0.31863 0.0
C1241 C 0.7448 0.62206 0.32108 0.0
C1242 C 0.73842 0.6418 0.30846 0.0
C1243 C 0.71707 0.63859 0.29389 0.0
C1244 C 0.71566 0.66225 0.2806 0.0
C1245 C 0.71428 0.65573 0.25248 0.0
C1246 C 0.69411 0.6748 0.28882 0.0
C1247 C 0.73977 0.67899 0.28964 0.0
C1248 C 0.75233 0.66699 0.30609 0.0
C1249 C 0.77503 0.67852 0.31696 0.0
C1250 C 0.78529 0.70292 0.31075 0.0
C1251 C 0.77305 0.71531 0.29349 0.0
C1252 C 0.74996 0.70322 0.28287 0.0
H1253 H 0.86814 0.45891 0.74565 0.0
H1254 H 0.89188 0.47037 0.82325 0.0
H1255 H 0.86779 0.42831 0.82953 0.0
H1256 H 0.80679 0.42709 0.75347 0.0
H1257 H 0.80532 0.40463 0.72642 0.0
H1258 H 0.82446 0.43579 0.72765 0.0
H1259 H 0.86179 0.41432 0.71833 0.0
H1260 H 0.84268 0.38313 0.71691 0.0
H1261 H 0.86947 0.39075 0.73764 0.0
H1262 H 0.84126 0.38583 0.82794 0.0
H1263 H 0.81508 0.34362 0.81817 0.0
H1264 H 0.80821 0.35851 0.74141 0.0
C1265 C 0.86831 0.45247 0.76391 0.0
C1266 C 0.88186 0.46791 0.78397 0.0
C1267 C 0.88163 0.45888 0.80761 0.0
C1268 C 0.86796 0.43504 0.8114 0.0
C1269 C 0.85462 0.4204 0.79136 0.0
C1270 C 0.85474 0.42858 0.76804 0.0
C1271 C 0.8389 0.40875 0.74973 0.0
C1272 C 0.8176 0.41973 0.73867 0.0
C1273 C 0.85413 0.39864 0.72946 0.0
C1274 C 0.83001 0.38821 0.76646 0.0
C1275 C 0.83925 0.39549 0.7904 0.0
C1276 C 0.83389 0.37985 0.80926 0.0
C1277 C 0.81894 0.35588 0.80348 0.0
C1278 C 0.80954 0.34767 0.779 0.0
C1279 C 0.815 0.36424 0.76031 0.0
H1280 H 0.06992 0.87577 0.11782 0.0
H1281 H 1.00209 0.82645 0.09033 0.0
H1282 H 0.99323 0.85961 0.0641 0.0
H1283 H 0.04811 0.93401 0.12173 0.0
H1284 H 0.07527 0.95299 0.11174 0.0
H1285 H 0.07729 0.92463 0.12686 0.0
H1286 H 0.0987 0.90656 0.08975 0.0
H1287 H 0.09664 0.93484 0.07443 0.0
H1288 H 0.08418 0.90348 0.05924 0.0
H1289 H 0.98969 0.89953 0.04422 0.0
H1290 H 0.99249 0.94299 0.03065 0.0
H1291 H 0.06347 0.96604 0.06931 0.0
C1292 C 0.05338 0.87182 0.10601 0.0
C1293 C 0.03668 0.84851 0.1061 0.0
C1294 C 0.01517 0.84411 0.0905 0.0
C1295 C 0.00999 0.86283 0.07551 0.0
C1296 C 0.02665 0.88572 0.0761 0.0
C1297 C 0.04804 0.89021 0.09073 0.0
C1298 C 0.06239 0.91687 0.08859 0.0
C1299 C 0.06596 0.93307 0.11372 0.0
C1300 C 0.08693 0.91533 0.07733 0.0
C1301 C 0.04539 0.92692 0.07101 0.0
C1302 C 0.02492 0.90858 0.06399 0.0
C1303 C 0.00581 0.9139 0.04925 0.0
C1304 C 0.00753 0.93865 0.04169 0.0
C1305 C 0.02829 0.95777 0.04869 0.0
C1306 C 0.04762 0.95164 0.06322 0.0
H1307 H 0.91746 0.26551 0.86205 0.0
H1308 H 0.94764 0.20895 0.81649 0.0
H1309 H 0.91152 0.20291 0.78729 0.0
H1310 H 0.85273 0.23438 0.85135 0.0
H1311 H 0.84265 0.26479 0.85099 0.0
H1312 H 0.86961 0.26248 0.86933 0.0
H1313 H 0.89419 0.29888 0.8471 0.0
H1314 H 0.86732 0.30094 0.82857 0.0
H1315 H 0.89452 0.29531 0.81396 0.0
H1316 H 0.87354 0.20565 0.76141 0.0
H1317 H 0.83682 0.21672 0.74114 0.0
H1318 H 0.8316 0.27158 0.80364 0.0
C1319 C 0.91629 0.25151 0.84616 0.0
C1320 C 0.93535 0.23759 0.8416 0.0
C1321 C 0.93323 0.2197 0.82043 0.0
C1322 C 0.91276 0.21615 0.80376 0.0
C1323 C 0.8945 0.23051 0.80859 0.0
C1324 C 0.896 0.24772 0.82939 0.0
C1325 C 0.87457 0.26179 0.82969 0.0
C1326 C 0.85897 0.25546 0.85164 0.0
C1327 C 0.88318 0.29095 0.82983 0.0
C1328 C 0.86108 0.25032 0.8055 0.0
C1329 C 0.87272 0.23213 0.79371 0.0
C1330 C 0.86417 0.21967 0.77061 0.0
C1331 C 0.84333 0.22612 0.75921 0.0
C1332 C 0.83133 0.24492 0.77084 0.0
C1333 C 0.84024 0.25693 0.79441 0.0
H1334 H 0.51917 0.21862 0.59012 0.0
H1335 H 0.55962 0.2123 0.65814 0.0
H1336 H 0.56289 0.16764 0.64355 0.0
H1337 H 0.48424 0.15378 0.58572 0.0
H1338 H 0.48408 0.14937 0.55259 0.0
H1339 H 0.48561 0.18106 0.56809 0.0
H1340 H 0.52499 0.19706 0.54637 0.0
H1341 H 0.52366 0.16538 0.53091 0.0
H1342 H 0.55062 0.18086 0.54932 0.0
H1343 H 0.56382 0.12467 0.6205 0.0
H1344 H 0.55784 0.08427 0.59284 0.0
H1345 H 0.51349 0.11701 0.54152 0.0
C1346 C 0.52868 0.20777 0.60188 0.0
C1347 C 0.5393 0.21883 0.62516 0.0
C1348 C 0.55134 0.20406 0.64026 0.0
C1349 C 0.55338 0.17877 0.63209 0.0
C1350 C 0.54284 0.16841 0.60898 0.0
C1351 C 0.53032 0.18225 0.59427 0.0
C1352 C 0.51973 0.16616 0.57071 0.0
C1353 C 0.49176 0.16237 0.5692 0.0
C1354 C 0.5304 0.17808 0.54799 0.0
C1355 C 0.52851 0.14125 0.57434 0.0
C1356 C 0.54211 0.14308 0.59637 0.0
C1357 C 0.55299 0.12291 0.60332 0.0
C1358 C 0.54962 0.10012 0.58747 0.0
C1359 C 0.53512 0.09758 0.56521 0.0
C1360 C 0.52445 0.11842 0.5586 0.0
H1361 H 0.594 0.7468 0.36145 0.0
H1362 H 0.5494 0.76974 0.3034 0.0
H1363 H 0.58283 0.7689 0.27525 0.0
H1364 H 0.64979 0.78437 0.34801 0.0
H1365 H 0.66815 0.76085 0.35483 0.0
H1366 H 0.64019 0.76169 0.36987 0.0
H1367 H 0.6249 0.71382 0.35424 0.0
H1368 H 0.6528 0.71288 0.33899 0.0
H1369 H 0.6239 0.70379 0.32172 0.0
H1370 H 0.62199 0.76831 0.25425 0.0
H1371 H 0.66428 0.76869 0.24227 0.0
H1372 H 0.68311 0.74506 0.3135 0.0
C1373 C 0.5912 0.75144 0.34275 0.0
C1374 C 0.56908 0.75833 0.3346 0.0
C1375 C 0.56618 0.76439 0.31003 0.0
C1376 C 0.58503 0.76388 0.29389 0.0
C1377 C 0.60665 0.75711 0.30251 0.0
C1378 C 0.60982 0.75094 0.32635 0.0
C1379 C 0.63519 0.74529 0.33129 0.0
C1380 C 0.64915 0.76418 0.35224 0.0
C1381 C 0.63412 0.71728 0.33689 0.0
C1382 C 0.64594 0.74979 0.30669 0.0
C1383 C 0.62912 0.75642 0.29028 0.0
C1384 C 0.63522 0.76284 0.26683 0.0
C1385 C 0.65925 0.76297 0.26017 0.0
C1386 C 0.67683 0.75667 0.27686 0.0
C1387 C 0.66992 0.74954 0.30022 0.0
H1388 H 0.01552 0.18272 0.42016 0.0
H1389 H 0.05706 0.23803 0.47635 0.0
H1390 H 0.05624 0.20406 0.50444 0.0
H1391 H 0.97699 0.14645 0.46156 0.0
H1392 H 0.9771 0.11582 0.44448 0.0
H1393 H 0.9804 0.14454 0.42879 0.0
H1394 H 0.0207 0.13468 0.41164 0.0
H1395 H 0.01742 0.1059 0.4272 0.0
H1396 H 0.04479 0.12973 0.43269 0.0
H1397 H 0.05184 0.16418 0.52618 0.0
H1398 H 0.04466 0.12079 0.54005 0.0
H1399 H 0.00575 0.09077 0.47006 0.0
C1400 C 0.02436 0.18767 0.43841 0.0
C1401 C 0.03634 0.21308 0.44607 0.0
C1402 C 0.04777 0.21875 0.47006 0.0
C1403 C 0.04738 0.19957 0.48618 0.0
C1404 C 0.03545 0.17476 0.47809 0.0
C1405 C 0.02416 0.1687 0.45478 0.0
C1406 C 0.01304 0.14034 0.4506 0.0
C1407 C 0.98523 0.13658 0.4461 0.0
C1408 C 0.02469 0.12687 0.42927 0.0
C1409 C 0.01997 0.13144 0.47516 0.0
C1410 C 0.03284 0.15166 0.49073 0.0
C1411 C 0.04168 0.14822 0.51419 0.0
C1412 C 0.03748 0.12343 0.52191 0.0
C1413 C 0.02453 0.10227 0.50625 0.0
C1414 C 0.01551 0.10651 0.48261 0.0
H1415 H 0.59073 0.27634 0.14896 0.0
H1416 H 0.54378 0.26385 0.20974 0.0
H1417 H 0.57861 0.25661 0.23578 0.0
H1418 H 0.62731 0.22922 0.16023 0.0
H1419 H 0.65543 0.24835 0.1526 0.0
H1420 H 0.62692 0.25281 0.13853 0.0
H1421 H 0.63636 0.30122 0.1542 0.0
H1422 H 0.66505 0.29698 0.168 0.0
H1423 H 0.64371 0.31072 0.18655 0.0
H1424 H 0.61795 0.24896 0.25473 0.0
H1425 H 0.66051 0.24652 0.26699 0.0
H1426 H 0.68246 0.26546 0.1946 0.0
C1427 C 0.58786 0.27231 0.16782 0.0
C1428 C 0.56455 0.27063 0.17733 0.0
C1429 C 0.5615 0.26533 0.20209 0.0
C1430 C 0.58114 0.26103 0.21699 0.0
C1431 C 0.60377 0.26232 0.20693 0.0
C1432 C 0.60736 0.26824 0.18306 0.0
C1433 C 0.63373 0.26908 0.17703 0.0
C1434 C 0.63597 0.24865 0.15584 0.0
C1435 C 0.6454 0.29611 0.17111 0.0
C1436 C 0.64433 0.26261 0.2012 0.0
C1437 C 0.62666 0.25852 0.2181 0.0
C1438 C 0.63198 0.25222 0.2417 0.0
C1439 C 0.65615 0.25073 0.24845 0.0
C1440 C 0.67467 0.25574 0.23173 0.0
C1441 C 0.66859 0.2614 0.2077 0.0
H1442 H 0.55708 0.85903 0.93684 0.0
H1443 H 0.5071 0.80495 0.97387 0.0
H1444 H 0.49862 0.84043 0.00243 0.0
H1445 H 0.58117 0.90092 0.99313 0.0
H1446 H 0.5837 0.92995 0.97795 0.0
H1447 H 0.58678 0.90018 0.96081 0.0
H1448 H 0.55226 0.90551 0.92944 0.0
H1449 H 0.54943 0.93526 0.94668 0.0
H1450 H 0.52316 0.91006 0.94045 0.0
H1451 H 0.49334 0.88145 0.02533 0.0
H1452 H 0.49412 0.92584 0.04356 0.0
H1453 H 0.54816 0.95406 0.993 0.0
C1454 C 0.54463 0.85467 0.95118 0.0
C1455 C 0.53276 0.82918 0.95311 0.0
C1456 C 0.51646 0.82427 0.97204 0.0
C1457 C 0.51145 0.84432 0.98834 0.0
C1458 C 0.52301 0.86924 0.98567 0.0
C1459 C 0.53949 0.87454 0.96782 0.0
C1460 C 0.5493 0.90319 0.96912 0.0
C1461 C 0.57688 0.90889 0.97565 0.0
C1462 C 0.54314 0.91412 0.94497 0.0
C1463 C 0.5353 0.91308 0.99008 0.0
C1464 C 0.52026 0.8931 0.99932 0.0
C1465 C 0.50519 0.89727 0.01841 0.0
C1466 C 0.5057 0.92254 0.02859 0.0
C1467 C 0.5212 0.94332 0.01973 0.0
C1468 C 0.53611 0.93851 1.00013 0.0
H1469 H 0.93361 0.79698 0.67772 0.0
H1470 H 0.94684 0.71996 0.68583 0.0
H1471 H 0.91401 0.71369 0.71462 0.0
H1472 H 0.91727 0.81221 0.74115 0.0
H1473 H 0.89329 0.8288 0.73207 0.0
H1474 H 0.91918 0.82841 0.71348 0.0
H1475 H 0.89045 0.80943 0.67534 0.0
H1476 H 0.86451 0.80998 0.69376 0.0
H1477 H 0.86869 0.78037 0.67704 0.0
H1478 H 0.87921 0.71469 0.74113 0.0
H1479 H 0.8418 0.72133 0.76098 0.0
H1480 H 0.84905 0.79723 0.7354 0.0
C1481 C 0.9297 0.77893 0.68579 0.0
C1482 C 0.94291 0.75899 0.67963 0.0
C1483 C 0.937 0.73549 0.69024 0.0
C1484 C 0.91846 0.73179 0.70676 0.0
C1485 C 0.90577 0.75172 0.71245 0.0
C1486 C 0.91088 0.77475 0.70214 0.0
C1487 C 0.89312 0.79219 0.71013 0.0
C1488 C 0.90652 0.81687 0.7251 0.0
C1489 C 0.87832 0.79834 0.68774 0.0
C1490 C 0.87714 0.77521 0.72627 0.0
C1491 C 0.88508 0.75211 0.72755 0.0
C1492 C 0.8729 0.73277 0.74041 0.0
C1493 C 0.85163 0.73677 0.75168 0.0
C1494 C 0.84248 0.75988 0.74996 0.0
C1495 C 0.8558 0.77959 0.73752 0.0
H1496 H 0.08979 0.9825 0.85977 0.0
H1497 H 0.14887 0.04659 0.88085 0.0
H1498 H 0.13089 0.05464 0.92042 0.0
H1499 H 0.04236 0.01058 0.88693 0.0
H1500 H 0.02675 0.98159 0.89808 0.0
H1501 H 0.04441 0.97971 0.87132 0.0
H1502 H 0.06963 0.95015 0.89217 0.0
H1503 H 0.05195 0.95184 0.91897 0.0
H1504 H 0.08466 0.96069 0.92212 0.0
H1505 H 0.10533 0.05907 0.95522 0.0
H1506 H 0.07513 0.05709 0.98647 0.0
H1507 H 0.03339 0.9877 0.947 0.0
C1508 C 0.099 0.99804 0.87286 0.0
C1509 C 0.12077 0.01396 0.86713 0.0
C1510 C 0.13226 0.0341 0.88474 0.0
C1511 C 0.12216 0.03889 0.90731 0.0
C1512 C 0.10065 0.02317 0.9123 0.0
C1513 C 0.08927 0.00292 0.89588 0.0
C1514 C 0.0662 0.98919 0.9063 0.0
C1515 C 0.04359 0.99034 0.88966 0.0
C1516 C 0.06824 0.96131 0.91011 0.0
C1517 C 0.06627 0.0053 0.93085 0.0
C1518 C 0.08635 0.02483 0.93364 0.0
C1519 C 0.08995 0.0434 0.95367 0.0
C1520 C 0.07278 0.04188 0.97158 0.0
C1521 C 0.05249 0.02156 0.96996 0.0
C1522 C 0.04906 0.00307 0.94912 0.0
H1523 H 0.78581 0.38328 0.58662 0.0
H1524 H 0.72037 0.33886 0.54799 0.0
H1525 H 0.71848 0.30722 0.5788 0.0
H1526 H 0.81218 0.32931 0.60238 0.0
H1527 H 0.82467 0.3446 0.63209 0.0
H1528 H 0.82074 0.3638 0.60715 0.0
H1529 H 0.79466 0.39005 0.63397 0.0
H1530 H 0.79874 0.37113 0.65905 0.0
H1531 H 0.76847 0.37344 0.64781 0.0
H1532 H 0.72305 0.2815 0.61454 0.0
H1533 H 0.73374 0.26344 0.65289 0.0
H1534 H 0.79717 0.32382 0.6668 0.0
C1535 C 0.771 0.36697 0.58471 0.0
C1536 C 0.75313 0.36349 0.56508 0.0
C1537 C 0.73418 0.34182 0.563 0.0
C1538 C 0.73301 0.32376 0.58032 0.0
C1539 C 0.75108 0.32764 0.59935 0.0
C1540 C 0.76973 0.34868 0.60161 0.0
C1541 C 0.78687 0.34845 0.62374 0.0
C1542 C 0.81264 0.34641 0.61586 0.0
C1543 C 0.78719 0.37217 0.64223 0.0
C1544 C 0.7748 0.32411 0.63377 0.0
C1545 C 0.75417 0.31239 0.61946 0.0
C1546 C 0.73929 0.29034 0.62575 0.0
C1547 C 0.74547 0.28026 0.6475 0.0
C1548 C 0.76632 0.29221 0.66249 0.0
C1549 C 0.78139 0.31409 0.65532 0.0
H1550 H 0.42896 0.0452 0.37874 0.0
H1551 H 0.47943 0.1035 0.34729 0.0
H1552 H 0.50605 0.10958 0.38544 0.0
H1553 H 0.43976 0.07471 0.44521 0.0
H1554 H 0.43701 0.04329 0.45594 0.0
H1555 H 0.41974 0.04778 0.42855 0.0
H1556 H 0.43819 0.01201 0.40437 0.0
H1557 H 0.45575 0.00793 0.43157 0.0
H1558 H 0.47084 0.01515 0.40383 0.0
H1559 H 0.53025 0.10407 0.42394 0.0
H1560 H 0.54925 0.08799 0.45987 0.0
H1561 H 0.48296 0.0331 0.46535 0.0
C1562 C 0.4452 0.05987 0.38021 0.0
C1563 C 0.45212 0.07395 0.36015 0.0
C1564 C 0.47371 0.09264 0.36255 0.0
C1565 C 0.48892 0.09626 0.38416 0.0
C1566 C 0.48206 0.08129 0.40327 0.0
C1567 C 0.46049 0.06372 0.40162 0.0
C1568 C 0.45848 0.04804 0.42349 0.0
C1569 C 0.43751 0.05381 0.43922 0.0
C1570 C 0.45567 0.01909 0.41531 0.0
C1571 C 0.4829 0.05843 0.43689 0.0
C1572 C 0.49606 0.07799 0.42533 0.0
C1573 C 0.51991 0.08913 0.43343 0.0
C1574 C 0.5306 0.07984 0.45373 0.0
C1575 C 0.51749 0.05944 0.46535 0.0
C1576 C 0.49328 0.04897 0.45701 0.0
H1577 H 0.74452 0.68008 0.08817 0.0
H1578 H 0.81184 0.72032 0.06262 0.0
H1579 H 0.82041 0.7459 0.10314 0.0
H1580 H 0.7289 0.73488 0.12538 0.0
H1581 H 0.71685 0.71589 0.14929 0.0
H1582 H 0.71552 0.7015 0.11798 0.0
H1583 H 0.73825 0.66636 0.13225 0.0
H1584 H 0.73974 0.68068 0.16358 0.0
H1585 H 0.76727 0.6757 0.14928 0.0
H1586 H 0.82252 0.76582 0.14691 0.0
H1587 H 0.81781 0.77946 0.19048 0.0
H1588 H 0.7489 0.7265 0.18802 0.0
C1589 C 0.76095 0.69447 0.09102 0.0
C1590 C 0.7775 0.69827 0.07215 0.0
C1591 C 0.79887 0.71713 0.07672 0.0
C1592 C 0.8039 0.73173 0.0997 0.0
C1593 C 0.78735 0.72731 0.11796 0.0
C1594 C 0.76625 0.70922 0.11387 0.0
C1595 C 0.75177 0.70789 0.13682 0.0
C1596 C 0.72678 0.7155 0.13208 0.0
C1597 C 0.74911 0.68106 0.14602 0.0
C1598 C 0.76813 0.72791 0.15453 0.0
C1599 C 0.78853 0.73888 0.14323 0.0
C1600 C 0.80655 0.75746 0.1559 0.0
C1601 C 0.8037 0.76505 0.18073 0.0
C1602 C 0.78294 0.75415 0.19283 0.0
C1603 C 0.76491 0.73534 0.17938 0.0
H1604 H 0.13218 0.00898 0.70877 0.0
H1605 H 0.08248 0.03879 0.75805 0.0
H1606 H 0.06037 0.05173 0.72251 0.0
H1607 H 0.13522 0.05752 0.66648 0.0
H1608 H 0.13568 0.03547 0.63947 0.0
H1609 H 0.14795 0.02881 0.66875 0.0
H1610 H 0.11924 0.98454 0.66498 0.0
H1611 H 0.10709 0.99095 0.63557 0.0
H1612 H 0.08691 0.98297 0.65974 0.0
H1613 H 0.044 0.06198 0.68183 0.0
H1614 H 0.03202 0.06516 0.63832 0.0
H1615 H 0.09158 0.02773 0.6151 0.0
C1616 C 0.1166 0.01817 0.71205 0.0
C1617 C 0.10905 0.02292 0.73618 0.0
C1618 C 0.08853 0.03489 0.73973 0.0
C1619 C 0.07594 0.04244 0.71967 0.0
C1620 C 0.08401 0.03775 0.69616 0.0
C1621 C 0.10368 0.02563 0.6922 0.0
C1622 C 0.10808 0.02211 0.66497 0.0
C1623 C 0.13323 0.03686 0.65961 0.0
C1624 C 0.10515 0.99344 0.65578 0.0
C1625 C 0.08778 0.03411 0.65424 0.0
C1626 C 0.07428 0.04325 0.6726 0.0
C1627 C 0.05443 0.05489 0.6673 0.0
C1628 C 0.04783 0.05671 0.64254 0.0
C1629 C 0.06093 0.04678 0.6234 0.0
C1630 C 0.08137 0.03568 0.62939 0.0
H1631 H 0.73374 0.34692 0.44196 0.0
H1632 H 0.77682 0.41917 0.42582 0.0
H1633 H 0.78338 0.39961 0.3846 0.0
H1634 H 0.76873 0.30565 0.41195 0.0
H1635 H 0.74336 0.28154 0.39936 0.0
H1636 H 0.7406 0.30121 0.42739 0.0
H1637 H 0.70278 0.31583 0.40806 0.0
H1638 H 0.70515 0.29583 0.38011 0.0
H1639 H 0.70485 0.32959 0.37905 0.0
H1640 H 0.78919 0.37179 0.34771 0.0
H1641 H 0.78828 0.33896 0.31307 0.0
H1642 H 0.73888 0.28465 0.3505 0.0
C1643 C 0.74417 0.3587 0.42954 0.0
C1644 C 0.75483 0.38455 0.43707 0.0
C1645 C 0.76842 0.39938 0.4204 0.0
C1646 C 0.77238 0.38841 0.39701 0.0
C1647 C 0.76232 0.36271 0.39045 0.0
C1648 C 0.74801 0.34814 0.40588 0.0
C1649 C 0.73926 0.32095 0.39393 0.0
C1650 C 0.74855 0.30118 0.40907 0.0
C1651 C 0.71135 0.31522 0.39005 0.0
C1652 C 0.75132 0.32248 0.36958 0.0
C1653 C 0.76473 0.34674 0.36826 0.0
C1654 C 0.77842 0.35286 0.34829 0.0
C1655 C 0.77781 0.33396 0.32871 0.0
C1656 C 0.76322 0.30931 0.3289 0.0
C1657 C 0.75008 0.30336 0.34981 0.0
H1658 H 0.46177 0.07625 0.22138 0.0
H1659 H 0.48883 0.01743 0.25897 0.0
H1660 H 0.5154 0.01056 0.2248 0.0
H1661 H 0.45555 0.04329 0.16419 0.0
H1662 H 0.46427 0.07066 0.14716 0.0
H1663 H 0.45134 0.07477 0.17653 0.0
H1664 H 0.48909 0.10889 0.19241 0.0
H1665 H 0.50212 0.10489 0.16295 0.0
H1666 H 0.51909 0.10089 0.19071 0.0
H1667 H 0.53465 0.00608 0.18454 0.0
H1668 H 0.54387 0.00307 0.14061 0.0
H1669 H 0.50306 0.06368 0.12864 0.0
C1670 C 0.47392 0.06256 0.22279 0.0
C1671 C 0.47355 0.04758 0.2429 0.0
C1672 C 0.48906 0.02924 0.24378 0.0
C1673 C 0.50426 0.0253 0.22452 0.0
C1674 C 0.50368 0.03986 0.20456 0.0
C1675 C 0.48893 0.05818 0.20358 0.0
C1676 C 0.48928 0.06888 0.17877 0.0
C1677 C 0.46359 0.06409 0.16592 0.0
C1678 C 0.50057 0.09759 0.18137 0.0
C1679 C 0.50572 0.05298 0.16563 0.0
C1680 C 0.51429 0.03677 0.18098 0.0
C1681 C 0.5284 0.01897 0.17247 0.0
C1682 C 0.5335 0.01736 0.14751 0.0
C1683 C 0.52423 0.03323 0.13138 0.0
C1684 C 0.51063 0.05159 0.14069 0.0
H1685 H 0.76644 0.71543 0.94776 0.0
H1686 H 0.76738 0.63752 0.91669 0.0
H1687 H 0.76945 0.65215 0.87505 0.0
H1688 H 0.72943 0.73282 0.89789 0.0
H1689 H 0.74598 0.76527 0.89932 0.0
H1690 H 0.74402 0.74857 0.92666 0.0
H1691 H 0.79111 0.75696 0.93242 0.0
H1692 H 0.7932 0.77362 0.90507 0.0
H1693 H 0.80871 0.74684 0.90763 0.0
H1694 H 0.77194 0.67544 0.83646 0.0
H1695 H 0.77473 0.7058 0.80438 0.0
H1696 H 0.77241 0.76844 0.86031 0.0
C1697 C 0.76696 0.70144 0.93218 0.0
C1698 C 0.7667 0.67529 0.93554 0.0
C1699 C 0.76754 0.65764 0.91464 0.0
C1700 C 0.76872 0.66577 0.89086 0.0
C1701 C 0.76908 0.69167 0.88818 0.0
C1702 C 0.76822 0.70926 0.90826 0.0
C1703 C 0.76917 0.73606 0.90033 0.0
C1704 C 0.74575 0.74627 0.90641 0.0
C1705 C 0.79191 0.75445 0.91206 0.0
C1706 C 0.77083 0.73081 0.87271 0.0
C1707 C 0.77064 0.70506 0.86604 0.0
C1708 C 0.77197 0.69562 0.8415 0.0
C1709 C 0.7734 0.71294 0.82335 0.0
C1710 C 0.77354 0.73935 0.82979 0.0
C1711 C 0.77237 0.74832 0.85484 0.0
H1712 H 0.85494 0.11488 0.05026 0.0
H1713 H 0.82178 0.08677 0.97739 0.0
H1714 H 0.85093 0.0569 0.97237 0.0
H1715 H 0.91595 0.11414 0.03535 0.0
H1716 H 0.92494 0.10414 0.06452 0.0
H1717 H 0.9006 0.12216 0.06262 0.0
H1718 H 0.87211 0.08611 0.08179 0.0
H1719 H 0.89635 0.06781 0.08336 0.0
H1720 H 0.86764 0.05362 0.06735 0.0
H1721 H 0.88492 0.03166 0.97452 0.0
H1722 H 0.92296 0.01512 0.98276 0.0
H1723 H 0.93301 0.05915 0.05446 0.0
C1724 C 0.85379 0.10241 0.03327 0.0
C1725 C 0.83616 0.10311 0.0142 0.0
C1726 C 0.83521 0.08653 0.99222 0.0
C1727 C 0.85156 0.0694 0.98926 0.0
C1728 C 0.86861 0.06902 0.00851 0.0
C1729 C 0.86989 0.08516 0.03005 0.0
C1730 C 0.89062 0.08184 0.04746 0.0
C1731 C 0.90912 0.10706 0.05278 0.0
C1732 C 0.8811 0.07174 0.0714 0.0
C1733 C 0.90112 0.06172 0.03212 0.0
C1734 C 0.88803 0.05433 0.00983 0.0
C1735 C 0.89517 0.03706 0.99203 0.0
C1736 C 0.91669 0.0277 0.99687 0.0
C1737 C 0.9307 0.03579 0.01925 0.0
C1738 C 0.92243 0.05242 0.0373 0.0
H1739 H 0.3522 0.42242 0.01469 0.0
H1740 H 0.32069 0.46457 0.07313 0.0
H1741 H 0.35824 0.49733 0.07816 0.0
H1742 H 0.413 0.43383 0.04222 0.0
H1743 H 0.42751 0.43712 0.01353 0.0
H1744 H 0.39787 0.41741 0.01395 0.0
H1745 H 0.38106 0.44377 0.98166 0.0
H1746 H 0.41063 0.46374 0.98136 0.0
H1747 H 0.38438 0.47814 0.98799 0.0
H1748 H 0.39963 0.52428 0.0784 0.0
H1749 H 0.44281 0.54311 0.07472 0.0
H1750 H 0.44768 0.48481 0.01516 0.0
C1751 C 0.3532 0.43858 0.02852 0.0
C1752 C 0.33346 0.44093 0.04356 0.0
C1753 C 0.33552 0.46233 0.06144 0.0
C1754 C 0.35676 0.4811 0.06436 0.0
C1755 C 0.37579 0.4783 0.04918 0.0
C1756 C 0.37429 0.45757 0.03164 0.0
C1757 C 0.39775 0.45883 0.01825 0.0
C1758 C 0.40973 0.43541 0.02223 0.0
C1759 C 0.39317 0.46127 0.99068 0.0
C1760 C 0.41275 0.48336 0.03121 0.0
C1761 C 0.39964 0.49427 0.04893 0.0
C1762 C 0.40995 0.51611 0.06438 0.0
C1763 C 0.43446 0.52672 0.0621 0.0
C1764 C 0.44838 0.5157 0.04438 0.0
C1765 C 0.43723 0.49404 0.02838 0.0
H1766 H 0.32708 0.58945 0.73448 0.0
H1767 H 0.38683 0.61358 0.78967 0.0
H1768 H 0.36987 0.6522 0.80263 0.0
H1769 H 0.32495 0.65284 0.71703 0.0
H1770 H 0.29227 0.64745 0.71217 0.0
H1771 H 0.3083 0.6209 0.70795 0.0
H1772 H 0.28146 0.59702 0.7392 0.0
H1773 H 0.26547 0.62362 0.74366 0.0
H1774 H 0.27994 0.6125 0.76973 0.0
H1775 H 0.34717 0.68802 0.8096 0.0
H1776 H 0.32202 0.72143 0.80801 0.0
H1777 H 0.277 0.67598 0.74731 0.0
C1778 C 0.33649 0.60284 0.74936 0.0
C1779 C 0.35825 0.59845 0.76117 0.0
C1780 C 0.37019 0.61654 0.78036 0.0
C1781 C 0.36062 0.63847 0.78794 0.0
C1782 C 0.33915 0.64221 0.77604 0.0
C1783 C 0.32731 0.62512 0.75698 0.0
C1784 C 0.30519 0.63462 0.74656 0.0
C1785 C 0.30785 0.63923 0.71931 0.0
C1786 C 0.28162 0.61581 0.75 0.0
C1787 C 0.30655 0.65974 0.7627 0.0
C1788 C 0.32618 0.66347 0.77972 0.0
C1789 C 0.33174 0.68532 0.79638 0.0
C1790 C 0.31726 0.70423 0.79528 0.0
C1791 C 0.29745 0.70144 0.77752 0.0
C1792 C 0.29179 0.67859 0.76129 0.0
H1793 H 0.21906 0.60411 0.53966 0.0
H1794 H 0.22862 0.60364 0.46117 0.0
H1795 H 0.18627 0.58034 0.45268 0.0
H1796 H 0.17825 0.5414 0.5382 0.0
H1797 H 0.16008 0.55299 0.56178 0.0
H1798 H 0.19197 0.56652 0.56156 0.0
H1799 H 0.18115 0.61198 0.56106 0.0
H1800 H 0.14926 0.59862 0.56104 0.0
H1801 H 0.16033 0.61806 0.53708 0.0
H1802 H 0.14262 0.55989 0.45286 0.0
H1803 H 0.09996 0.54447 0.46117 0.0
H1804 H 0.11814 0.56025 0.53988 0.0
C1805 C 0.21243 0.59852 0.52068 0.0
C1806 C 0.22708 0.60529 0.50101 0.0
C1807 C 0.21764 0.59838 0.47644 0.0
C1808 C 0.19369 0.58515 0.47148 0.0
C1809 C 0.17952 0.57926 0.49133 0.0
C1810 C 0.1885 0.58573 0.51545 0.0
C1811 C 0.16893 0.57917 0.53339 0.0
C1812 C 0.17518 0.55881 0.54969 0.0
C1813 C 0.16467 0.6034 0.54906 0.0
C1814 C 0.14737 0.56835 0.51558 0.0
C1815 C 0.15401 0.56827 0.49145 0.0
C1816 C 0.13724 0.55969 0.47167 0.0
C1817 C 0.11302 0.55098 0.47665 0.0
C1818 C 0.10568 0.55114 0.50123 0.0
C1819 C 0.12317 0.55992 0.52092 0.0
H1820 H 0.68501 0.9302 0.7262 0.0
H1821 H 0.70503 0.97751 0.79542 0.0
H1822 H 0.73782 0.95311 0.80381 0.0
H1823 H 0.69056 0.87289 0.74821 0.0
H1824 H 0.70241 0.85925 0.72084 0.0
H1825 H 0.68352 0.88315 0.71857 0.0
H1826 H 0.71748 0.91108 0.69683 0.0
H1827 H 0.73659 0.88723 0.69929 0.0
H1828 H 0.74761 0.92002 0.71164 0.0
H1829 H 0.76508 0.92028 0.80689 0.0
H1830 H 0.78204 0.88003 0.80557 0.0
H1831 H 0.74385 0.85462 0.73454 0.0
C1832 C 0.69664 0.93577 0.74286 0.0
C1833 C 0.6926 0.95574 0.76012 0.0
C1834 C 0.7079 0.96225 0.78193 0.0
C1835 C 0.72667 0.94864 0.78676 0.0
C1836 C 0.72998 0.92875 0.7695 0.0
C1837 C 0.71536 0.92236 0.74797 0.0
C1838 C 0.72077 0.89846 0.73373 0.0
C1839 C 0.69797 0.87719 0.73015 0.0
C1840 C 0.73124 0.90458 0.7089 0.0
C1841 C 0.73989 0.89173 0.75114 0.0
C1842 C 0.74546 0.90971 0.7714 0.0
C1843 C 0.76121 0.90631 0.7909 0.0
C1844 C 0.77082 0.88351 0.79 0.0
C1845 C 0.76421 0.86447 0.76994 0.0
C1846 C 0.74929 0.86907 0.74999 0.0
H1847 H 0.6889 0.91921 0.55228 0.0
H1848 H 0.73657 0.96348 0.50475 0.0
H1849 H 0.70668 0.99203 0.50012 0.0
H1850 H 0.63294 0.92239 0.51849 0.0
H1851 H 0.61564 0.9252 0.54544 0.0
H1852 H 0.64116 0.90864 0.54597 0.0
H1853 H 0.66048 0.93873 0.58432 0.0
H1854 H 0.63506 0.95548 0.5838 0.0
H1855 H 0.66564 0.97303 0.58301 0.0
H1856 H 0.67191 0.01567 0.50011 0.0
H1857 H 0.63309 0.03162 0.50291 0.0
H1858 H 0.6068 0.97213 0.54972 0.0
C1859 C 0.69303 0.93497 0.54098 0.0
C1860 C 0.71515 0.93913 0.52891 0.0
C1861 C 0.7198 0.95986 0.51415 0.0
C1862 C 0.70295 0.97627 0.51147 0.0
C1863 C 0.6814 0.97173 0.52358 0.0
C1864 C 0.67625 0.95154 0.53794 0.0
C1865 C 0.65124 0.95057 0.54821 0.0
C1866 C 0.63424 0.92519 0.53897 0.0
C1867 C 0.65324 0.9547 0.57651 0.0
C1868 C 0.64316 0.97323 0.53722 0.0
C1869 C 0.66099 0.98525 0.52326 0.0
C1870 C 0.65782 0.00644 0.51101 0.0
C1871 C 0.63571 0.0154 0.51275 0.0
C1872 C 0.61696 0.00315 0.52652 0.0
C1873 C 0.62087 0.98193 0.53913 0.0
H1874 H 0.36308 0.44076 0.75678 0.0
H1875 H 0.30891 0.47544 0.71935 0.0
H1876 H 0.28052 0.43383 0.71532 0.0
H1877 H 0.34932 0.37784 0.72203 0.0
H1878 H 0.35368 0.36076 0.74845 0.0
H1879 H 0.37034 0.39284 0.74724 0.0
H1880 H 0.35364 0.40741 0.78877 0.0
H1881 H 0.33705 0.37537 0.79016 0.0
H1882 H 0.3212 0.40222 0.79197 0.0
H1883 H 0.2582 0.38866 0.71519 0.0
H1884 H 0.24186 0.34382 0.72217 0.0
H1885 H 0.30964 0.33886 0.76171 0.0
C1886 C 0.34529 0.43951 0.74759 0.0
C1887 C 0.33818 0.46123 0.73821 0.0
C1888 C 0.31467 0.45901 0.72663 0.0
C1889 C 0.2985 0.43545 0.72416 0.0
C1890 C 0.30606 0.41439 0.73358 0.0
C1891 C 0.3288 0.41623 0.74528 0.0
C1892 C 0.33191 0.39101 0.75491 0.0
C1893 C 0.35254 0.37997 0.74241 0.0
C1894 C 0.3362 0.3942 0.78312 0.0
C1895 C 0.30728 0.37477 0.74695 0.0
C1896 C 0.29281 0.38855 0.73436 0.0
C1897 C 0.26933 0.3777 0.72508 0.0
C1898 C 0.26023 0.35222 0.7291 0.0
C1899 C 0.27446 0.33799 0.74259 0.0
C1900 C 0.29837 0.34936 0.75141 0.0
H1901 H 0.19346 0.57897 0.27398 0.0
H1902 H 0.14176 0.58427 0.21382 0.0
H1903 H 0.16214 0.62862 0.2101 0.0
H1904 H 0.19798 0.64593 0.30114 0.0
H1905 H 0.23001 0.64948 0.30963 0.0
H1906 H 0.2107 0.6184 0.30852 0.0
H1907 H 0.23906 0.5995 0.27829 0.0
H1908 H 0.25833 0.63053 0.27915 0.0
H1909 H 0.24546 0.61391 0.25007 0.0
H1910 H 0.1896 0.67008 0.21008 0.0
H1911 H 0.22089 0.7091 0.21624 0.0
H1912 H 0.25421 0.67912 0.27805 0.0
C1913 C 0.18629 0.58964 0.26025 0.0
C1914 C 0.16607 0.57825 0.24415 0.0
C1915 C 0.15718 0.59269 0.22639 0.0
C1916 C 0.16864 0.61786 0.2241 0.0
C1917 C 0.18875 0.62839 0.23993 0.0
C1918 C 0.19735 0.615 0.25792 0.0
C1919 C 0.2195 0.63101 0.27234 0.0
C1920 C 0.21422 0.63653 0.29952 0.0
C1921 C 0.24191 0.61795 0.26979 0.0
C1922 C 0.22227 0.65522 0.25919 0.0
C1923 C 0.20433 0.65309 0.24051 0.0
C1924 C 0.20358 0.67216 0.22483 0.0
C1925 C 0.22157 0.69415 0.22837 0.0
C1926 C 0.23995 0.69705 0.24761 0.0
C1927 C 0.24022 0.67742 0.26336 0.0
H1928 H 0.48713 0.6838 0.42606 0.0
H1929 H 0.55534 0.73377 0.45119 0.0
H1930 H 0.56343 0.70312 0.48053 0.0
H1931 H 0.47231 0.66224 0.4869 0.0
H1932 H 0.45962 0.62983 0.4747 0.0
H1933 H 0.45761 0.65606 0.45638 0.0
H1934 H 0.47889 0.63486 0.42103 0.0
H1935 H 0.48023 0.608 0.43858 0.0
H1936 H 0.50772 0.62523 0.42748 0.0
H1937 H 0.56608 0.66527 0.50418 0.0
H1938 H 0.5627 0.62319 0.52089 0.0
H1939 H 0.49211 0.59833 0.48172 0.0
C1940 C 0.5036 0.68843 0.43798 0.0
C1941 C 0.52061 0.71119 0.43634 0.0
C1942 C 0.54201 0.71651 0.45216 0.0
C1943 C 0.54676 0.69922 0.46893 0.0
C1944 C 0.52979 0.67682 0.4699 0.0
C1945 C 0.50854 0.67146 0.455 0.0
C1946 C 0.49379 0.64554 0.45908 0.0
C1947 C 0.46938 0.64863 0.4699 0.0
C1948 C 0.48995 0.62734 0.43512 0.0
C1949 C 0.51051 0.63676 0.47786 0.0
C1950 C 0.53107 0.6552 0.48402 0.0
C1951 C 0.54988 0.65084 0.49979 0.0
C1952 C 0.54782 0.62685 0.50917 0.0
C1953 C 0.52705 0.60753 0.50284 0.0
C1954 C 0.50799 0.61285 0.48734 0.0
H1955 H 0.62284 0.28055 0.66538 0.0
H1956 H 0.60364 0.34618 0.70824 0.0
H1957 H 0.6414 0.35025 0.73464 0.0
H1958 H 0.64491 0.2527 0.71519 0.0
H1959 H 0.66943 0.24135 0.69967 0.0
H1960 H 0.64259 0.24543 0.68219 0.0
H1961 H 0.66912 0.2757 0.65518 0.0
H1962 H 0.69596 0.27125 0.67252 0.0
H1963 H 0.69002 0.30319 0.6698 0.0
H1964 H 0.67923 0.34487 0.75863 0.0
H1965 H 0.71452 0.3306 0.77832 0.0
H1966 H 0.70918 0.2681 0.72036 0.0
C1967 C 0.62689 0.29617 0.67994 0.0
C1968 C 0.61037 0.31323 0.68461 0.0
C1969 C 0.61607 0.33302 0.70421 0.0
C1970 C 0.6375 0.33549 0.71929 0.0
C1971 C 0.65312 0.31803 0.71455 0.0
C1972 C 0.64818 0.29882 0.69527 0.0
C1973 C 0.66711 0.28147 0.69523 0.0
C1974 C 0.6553 0.2536 0.69826 0.0
C1975 C 0.68139 0.28302 0.67178 0.0
C1976 C 0.68316 0.29356 0.71781 0.0
C1977 C 0.67488 0.31478 0.72854 0.0
C1978 C 0.68602 0.32846 0.75022 0.0
C1979 C 0.70602 0.32018 0.76131 0.0
C1980 C 0.71468 0.29836 0.7508 0.0
C1981 C 0.70319 0.28507 0.72862 0.0
H1982 H 0.03405 0.34666 0.9215 0.0
H1983 H 0.95646 0.31883 0.92369 0.0
H1984 H 0.95099 0.36145 0.94216 0.0
H1985 H 0.04015 0.38458 0.98029 0.0
H1986 H 0.0626 0.41 0.97088 0.0
H1987 H 0.06032 0.37768 0.95664 0.0
H1988 H 0.05472 0.39371 0.91367 0.0
H1989 H 0.05689 0.42607 0.92782 0.0
H1990 H 0.03066 0.41146 0.90792 0.0
H1991 H 0.95367 0.40709 0.95958 0.0
H1992 H 0.96487 0.45175 0.97868 0.0
H1993 H 0.04108 0.44949 0.96782 0.0
C1994 C 0.01593 0.34964 0.9258 0.0
C1995 C 0.99564 0.32955 0.92107 0.0
C1996 C 0.97224 0.33399 0.92722 0.0
C1997 C 0.96893 0.35814 0.9376 0.0
C1998 C 0.98926 0.37758 0.94204 0.0
C1999 C 0.01236 0.37357 0.93665 0.0
C2000 C 0.03125 0.39742 0.94448 0.0
C2001 C 0.04966 0.3921 0.96425 0.0
C2002 C 0.04413 0.40777 0.92214 0.0
C2003 C 0.01512 0.41541 0.95505 0.0
C2004 C 0.99094 0.40367 0.95313 0.0
C2005 C 0.97256 0.41647 0.96128 0.0
C2006 C 0.9791 0.44187 0.97202 0.0
C2007 C 0.00383 0.45408 0.97482 0.0
C2008 C 0.02202 0.44063 0.96607 0.0
H2009 H 0.97152 0.76591 0.19606 0.0
H2010 H 0.00599 0.84531 0.21539 0.0
H2011 H 0.97076 0.85261 0.23936 0.0
H2012 H 0.9114 0.77721 0.18768 0.0
H2013 H 0.89738 0.74859 0.20062 0.0
H2014 H 0.9259 0.74936 0.18627 0.0
H2015 H 0.94547 0.73682 0.22624 0.0
H2016 H 0.91696 0.73596 0.24071 0.0
H2017 H 0.94424 0.756 0.25499 0.0
H2018 H 0.93002 0.85184 0.25895 0.0
H2019 H 0.88816 0.84242 0.27342 0.0
H2020 H 0.88131 0.7634 0.24207 0.0
C2021 C 0.9718 0.78476 0.20558 0.0
C2022 C 0.99154 0.80503 0.2039 0.0
C2023 C 0.99112 0.82946 0.21651 0.0
C2024 C 0.97117 0.83379 0.23015 0.0
C2025 C 0.95185 0.81346 0.23119 0.0
C2026 C 0.95212 0.78936 0.21938 0.0
C2027 C 0.92888 0.77089 0.2228 0.0
C2028 C 0.91508 0.76094 0.19786 0.0
C2029 C 0.93421 0.7486 0.23704 0.0
C2030 C 0.9153 0.78841 0.23807 0.0
C2031 C 0.92879 0.81291 0.24276 0.0
C2032 C 0.91943 0.83264 0.2556 0.0
C2033 C 0.89565 0.82717 0.26372 0.0
C2034 C 0.88161 0.80219 0.25903 0.0
C2035 C 0.89174 0.78261 0.24624 0.0
H2036 H 0.52712 0.35666 0.11192 0.0
H2037 H 0.46999 0.30781 0.06453 0.0
H2038 H 0.46691 0.34385 0.03972 0.0
H2039 H 0.50108 0.41388 0.11225 0.0
H2040 H 0.52994 0.43519 0.11205 0.0
H2041 H 0.52824 0.40533 0.12564 0.0
H2042 H 0.56098 0.39249 0.09709 0.0
H2043 H 0.56272 0.42232 0.08339 0.0
H2044 H 0.55618 0.39222 0.0642 0.0
H2045 H 0.46957 0.38531 0.02029 0.0
H2046 H 0.47709 0.42953 0.00826 0.0
H2047 H 0.53217 0.45183 0.06851 0.0
C2048 C 0.51406 0.35353 0.09625 0.0
C2049 C 0.49884 0.32937 0.09012 0.0
C2050 C 0.48185 0.32612 0.06958 0.0
C2051 C 0.47999 0.34647 0.05533 0.0
C2052 C 0.49519 0.37005 0.06187 0.0
C2053 C 0.51186 0.37373 0.08188 0.0
C2054 C 0.52561 0.4012 0.08526 0.0
C2055 C 0.52093 0.41469 0.11028 0.0
C2056 C 0.55299 0.4021 0.0823 0.0
C2057 C 0.51399 0.41236 0.0641 0.0
C2058 C 0.49658 0.39403 0.05077 0.0
C2059 C 0.48324 0.39981 0.03053 0.0
C2060 C 0.4877 0.42502 0.0238 0.0
C2061 C 0.50531 0.44426 0.03731 0.0
C2062 C 0.51864 0.43765 0.05769 0.0
H2063 H 0.97671 0.28151 0.33511 0.0
H2064 H 0.95585 0.28195 0.41084 0.0
H2065 H 0.91669 0.29384 0.39842 0.0
H2066 H 0.94918 0.33489 0.3191 0.0
H2067 H 0.93877 0.32066 0.28845 0.0
H2068 H 0.9656 0.31269 0.30312 0.0
H2069 H 0.94659 0.26427 0.2966 0.0
H2070 H 0.91991 0.27209 0.28159 0.0
H2071 H 0.91695 0.2535 0.30767 0.0
H2072 H 0.88001 0.30558 0.3782 0.0
H2073 H 0.84605 0.31219 0.3506 0.0
H2074 H 0.88982 0.30363 0.28758 0.0
C2075 C 0.96385 0.28405 0.34903 0.0
C2076 C 0.96933 0.28085 0.37396 0.0
C2077 C 0.95201 0.28422 0.39164 0.0
C2078 C 0.92978 0.29115 0.38479 0.0
C2079 C 0.92506 0.2945 0.36017 0.0
C2080 C 0.94141 0.29075 0.34247 0.0
C2081 C 0.93127 0.29454 0.3171 0.0
C2082 C 0.94715 0.31704 0.30631 0.0
C2083 C 0.92851 0.26962 0.29972 0.0
C2084 C 0.90666 0.30095 0.32335 0.0
C2085 C 0.90362 0.30105 0.34836 0.0
C2086 C 0.88219 0.30565 0.3586 0.0
C2087 C 0.86304 0.30948 0.34279 0.0
C2088 C 0.86541 0.30861 0.31704 0.0
C2089 C 0.88769 0.30484 0.30726 0.0
H2090 H 0.97259 0.68285 0.58439 0.0
H2091 H 0.03917 0.72899 0.56346 0.0
H2092 H 0.04697 0.69229 0.53596 0.0
H2093 H 0.99627 0.62613 0.58761 0.0
H2094 H 0.96904 0.60447 0.57544 0.0
H2095 H 0.96684 0.63511 0.59131 0.0
H2096 H 0.9429 0.6463 0.55329 0.0
H2097 H 0.94494 0.61558 0.53735 0.0
H2098 H 0.95583 0.64472 0.52359 0.0
H2099 H 0.05032 0.65001 0.51469 0.0
H2100 H 0.04797 0.60444 0.49915 0.0
H2101 H 0.97902 0.58476 0.53256 0.0
C2102 C 0.98842 0.68537 0.57347 0.0
C2103 C 0.00517 0.70887 0.57586 0.0
C2104 C 0.02604 0.71124 0.5618 0.0
C2105 C 0.03063 0.6905 0.54611 0.0
C2106 C 0.01417 0.66742 0.54463 0.0
C2107 C 0.99338 0.66469 0.55775 0.0
C2108 C 0.97965 0.63716 0.55398 0.0
C2109 C 0.97786 0.62502 0.57855 0.0
C2110 C 0.95432 0.63587 0.54129 0.0
C2111 C 0.99619 0.62485 0.53706 0.0
C2112 C 0.01596 0.64277 0.53191 0.0
C2113 C 0.0347 0.6359 0.51816 0.0
C2114 C 0.03326 0.61003 0.50947 0.0
C2115 C 0.01315 0.5914 0.51435 0.0
C2116 C 0.99427 0.59887 0.52814 0.0
H2117 H 0.61697 0.789 0.8676 0.0
H2118 H 0.5686 0.72177 0.83176 0.0
H2119 H 0.60073 0.71355 0.80395 0.0
H2120 H 0.64469 0.80959 0.81216 0.0
H2121 H 0.67457 0.8204 0.8271 0.0
H2122 H 0.64789 0.821 0.84444 0.0
H2123 H 0.66424 0.7933 0.87577 0.0
H2124 H 0.691 0.79272 0.85857 0.0
H2125 H 0.67235 0.76302 0.86486 0.0
H2126 H 0.63866 0.71158 0.78098 0.0
H2127 H 0.67919 0.71687 0.76362 0.0
H2128 H 0.7026 0.78655 0.8127 0.0
C2129 C 0.61317 0.77254 0.85391 0.0
C2130 C 0.59024 0.75596 0.85194 0.0
C2131 C 0.58597 0.73474 0.83366 0.0
C2132 C 0.60413 0.7299 0.81776 0.0
C2133 C 0.62649 0.7466 0.82013 0.0
C2134 C 0.63106 0.76758 0.83765 0.0
C2135 C 0.65663 0.78261 0.83613 0.0
C2136 C 0.65589 0.81003 0.82956 0.0
C2137 C 0.67195 0.78292 0.86027 0.0
C2138 C 0.66574 0.76672 0.81515 0.0
C2139 C 0.64809 0.74595 0.80629 0.0
C2140 C 0.65254 0.72791 0.78763 0.0
C2141 C 0.67564 0.73107 0.77788 0.0
C2142 C 0.69402 0.75227 0.78654 0.0
C2143 C 0.68881 0.77041 0.80532 0.0
H2144 H 0.45266 0.56353 0.68878 0.0
H2145 H 0.39112 0.50652 0.65751 0.0
H2146 H 0.41033 0.50429 0.61786 0.0
H2147 H 0.46301 0.59642 0.63237 0.0
H2148 H 0.4957 0.6022 0.6373 0.0
H2149 H 0.47677 0.60049 0.66326 0.0
H2150 H 0.49795 0.56476 0.67876 0.0
H2151 H 0.51692 0.56635 0.65286 0.0
H2152 H 0.49862 0.53619 0.65848 0.0
H2153 H 0.43719 0.50478 0.58313 0.0
H2154 H 0.46963 0.5098 0.55409 0.0
H2155 H 0.51335 0.56887 0.60515 0.0
C2156 C 0.44317 0.5508 0.67348 0.0
C2157 C 0.42034 0.53518 0.6763 0.0
C2158 C 0.40855 0.51869 0.65587 0.0
C2159 C 0.41932 0.51728 0.63321 0.0
C2160 C 0.44184 0.53266 0.63107 0.0
C2161 C 0.45362 0.5493 0.65049 0.0
C2162 C 0.47801 0.56324 0.64307 0.0
C2163 C 0.47838 0.59232 0.64406 0.0
C2164 C 0.49912 0.55727 0.65926 0.0
C2165 C 0.47821 0.55139 0.61668 0.0
C2166 C 0.45709 0.5338 0.61028 0.0
C2167 C 0.45352 0.519 0.58766 0.0
C2168 C 0.47198 0.52219 0.57108 0.0
C2169 C 0.49363 0.54039 0.57679 0.0
C2170 C 0.49673 0.55526 0.59996 0.0
H2171 H 0.80792 0.19127 0.95236 0.0
H2172 H 0.73733 0.19798 0.97997 0.0
H2173 H 0.7291 0.22318 0.94581 0.0
H2174 H 0.82091 0.25499 0.92822 0.0
H2175 H 0.83447 0.24269 0.90132 0.0
H2176 H 0.83636 0.228 0.92967 0.0
H2177 H 0.8167 0.18382 0.90694 0.0
H2178 H 0.81479 0.19841 0.8786 0.0
H2179 H 0.78774 0.18062 0.89 0.0
H2180 H 0.72711 0.24482 0.90774 0.0
H2181 H 0.73065 0.25997 0.8664 0.0
H2182 H 0.80167 0.2378 0.86208 0.0
C2183 C 0.79099 0.19855 0.95141 0.0
C2184 C 0.77331 0.19295 0.96879 0.0
C2185 C 0.75109 0.20216 0.96678 0.0
C2186 C 0.74631 0.21659 0.94755 0.0
C2187 C 0.76389 0.22146 0.93045 0.0
C2188 C 0.78575 0.21268 0.93206 0.0
C2189 C 0.8005 0.21866 0.90995 0.0
C2190 C 0.82448 0.23719 0.91777 0.0
C2191 C 0.80519 0.1939 0.89553 0.0
C2192 C 0.78322 0.23159 0.89548 0.0
C2193 C 0.76242 0.23339 0.90788 0.0
C2194 C 0.74338 0.24375 0.89791 0.0
C2195 C 0.74553 0.25225 0.87445 0.0
C2196 C 0.76642 0.25004 0.86122 0.0
C2197 C 0.7856 0.23985 0.87196 0.0
H2198 H 0.11839 0.50658 0.15518 0.0
H2199 H 0.06676 0.45203 0.18979 0.0
H2200 H 0.03834 0.44736 0.15305 0.0
H2201 H 0.07719 0.53956 0.13186 0.0
H2202 H 0.09139 0.54537 0.10336 0.0
H2203 H 0.10952 0.54072 0.12997 0.0
H2204 H 0.12504 0.50313 0.10533 0.0
H2205 H 0.10718 0.50816 0.07853 0.0
H2206 H 0.10328 0.47693 0.08977 0.0
H2207 H 0.0135 0.45317 0.11511 0.0
H2208 H 0.99445 0.46904 0.07912 0.0
H2209 H 0.06216 0.52057 0.07044 0.0
C2210 C 0.10142 0.49306 0.15473 0.0
C2211 C 0.09478 0.47954 0.17522 0.0
C2212 C 0.07223 0.46242 0.17418 0.0
C2213 C 0.05602 0.45961 0.15337 0.0
C2214 C 0.06278 0.47389 0.13377 0.0
C2215 C 0.08507 0.49011 0.13419 0.0
C2216 C 0.08701 0.50533 0.11201 0.0
C2217 C 0.09153 0.53445 0.11978 0.0
C2218 C 0.1068 0.49794 0.09543 0.0
C2219 C 0.0619 0.4961 0.09969 0.0
C2220 C 0.04834 0.47756 0.11216 0.0
C2221 C 0.02408 0.46736 0.10496 0.0
C2222 C 0.01339 0.47652 0.08462 0.0
C2223 C 0.02692 0.49588 0.07204 0.0
C2224 C 0.05151 0.50549 0.07953 0.0
H2225 H 0.80171 0.87016 0.457 0.0
H2226 H 0.73198 0.82642 0.47313 0.0
H2227 H 0.72822 0.80356 0.43139 0.0
H2228 H 0.78509 0.87837 0.3948 0.0
H2229 H 0.81419 0.8751 0.38304 0.0
H2230 H 0.81241 0.88713 0.4147 0.0
H2231 H 0.83438 0.85147 0.42903 0.0
H2232 H 0.83629 0.83936 0.39739 0.0
H2233 H 0.82218 0.81832 0.41885 0.0
H2234 H 0.73076 0.7869 0.38798 0.0
H2235 H 0.73913 0.77681 0.34489 0.0
H2236 H 0.80753 0.83097 0.35516 0.0
C2237 C 0.7858 0.85553 0.45182 0.0
C2238 C 0.76715 0.84997 0.46844 0.0
C2239 C 0.7465 0.83096 0.46083 0.0
C2240 C 0.74422 0.81785 0.43714 0.0
C2241 C 0.76274 0.82394 0.42117 0.0
C2242 C 0.78318 0.84226 0.4281 0.0
C2243 C 0.79993 0.84561 0.40685 0.0
C2244 C 0.80308 0.87319 0.39941 0.0
C2245 C 0.82466 0.83825 0.41343 0.0
C2246 C 0.78555 0.82649 0.38684 0.0
C2247 C 0.76421 0.81422 0.39571 0.0
C2248 C 0.74744 0.79629 0.38086 0.0
C2249 C 0.7524 0.7908 0.35625 0.0
C2250 C 0.77401 0.80313 0.34639 0.0
C2251 C 0.79096 0.82107 0.36209 0.0
H2252 H 0.40189 0.53223 0.83356 0.0
H2253 H 0.45076 0.49785 0.7866 0.0
H2254 H 0.471 0.48465 0.82322 0.0
H2255 H 0.44671 0.55775 0.88244 0.0
H2256 H 0.42597 0.55192 0.90657 0.0
H2257 H 0.41466 0.55749 0.87655 0.0
H2258 H 0.38431 0.51436 0.87415 0.0
H2259 H 0.39574 0.50853 0.90408 0.0
H2260 H 0.39563 0.4851 0.87803 0.0
H2261 H 0.48615 0.47546 0.86494 0.0
H2262 H 0.49776 0.47466 0.909 0.0
H2263 H 0.43985 0.516 0.92907 0.0
C2264 C 0.41682 0.52187 0.831 0.0
C2265 C 0.42472 0.51599 0.80722 0.0
C2266 C 0.44444 0.50261 0.80464 0.0
C2267 C 0.45595 0.49489 0.82532 0.0
C2268 C 0.44762 0.50082 0.84848 0.0
C2269 C 0.42869 0.51425 0.85148 0.0
C2270 C 0.42407 0.51931 0.87851 0.0
C2271 C 0.42811 0.54834 0.88648 0.0
C2272 C 0.39841 0.50603 0.88401 0.0
C2273 C 0.44351 0.50682 0.89026 0.0
C2274 C 0.45668 0.49597 0.87258 0.0
C2275 C 0.47593 0.48382 0.87894 0.0
C2276 C 0.48232 0.48336 0.90401 0.0
C2277 C 0.46964 0.49515 0.92242 0.0
C2278 C 0.4497 0.50659 0.91539 0.0
H2279 H 0.81663 0.20291 0.09997 0.0
H2280 H 0.74212 0.20421 0.07482 0.0
H2281 H 0.73739 0.2325 0.11191 0.0
H2282 H 0.80518 0.19916 0.16238 0.0
H2283 H 0.83326 0.21948 0.17429 0.0
H2284 H 0.83182 0.20142 0.14459 0.0
H2285 H 0.84687 0.24335 0.12461 0.0
H2286 H 0.84845 0.26155 0.15431 0.0
H2287 H 0.83066 0.26981 0.12891 0.0
H2288 H 0.73932 0.25741 0.15291 0.0
H2289 H 0.7485 0.2783 0.19545 0.0
H2290 H 0.82145 0.26112 0.19433 0.0
C2291 C 0.79951 0.20957 0.10209 0.0
C2292 C 0.77977 0.20147 0.08454 0.0
C2293 C 0.75749 0.21022 0.08806 0.0
C2294 C 0.75463 0.22635 0.10902 0.0
C2295 C 0.77424 0.23362 0.12623 0.0
C2296 C 0.7963 0.22567 0.123 0.0
C2297 C 0.81395 0.23509 0.14505 0.0
C2298 C 0.82148 0.21244 0.1573 0.0
C2299 C 0.8363 0.25355 0.13778 0.0
C2300 C 0.79818 0.2491 0.16132 0.0
C2301 C 0.77537 0.24811 0.15003 0.0
C2302 C 0.75717 0.2585 0.16189 0.0
C2303 C 0.76238 0.27004 0.18605 0.0
C2304 C 0.78548 0.27101 0.19789 0.0
C2305 C 0.80371 0.26078 0.18534 0.0
H2306 H 0.09744 0.53423 0.31208 0.0
H2307 H 0.0741 0.45307 0.28875 0.0
H2308 H 0.04752 0.44912 0.32385 0.0
H2309 H 0.10204 0.52789 0.37509 0.0
H2310 H 0.0915 0.55729 0.38449 0.0
H2311 H 0.10638 0.55418 0.35607 0.0
H2312 H 0.06903 0.56533 0.33234 0.0
H2313 H 0.05397 0.5684 0.36074 0.0
H2314 H 0.03921 0.54669 0.33511 0.0
H2315 H 0.02614 0.45342 0.36331 0.0
H2316 H 0.01292 0.46534 0.4048 0.0
H2317 H 0.05076 0.54346 0.4022 0.0
C2318 C 0.08642 0.51571 0.31411 0.0
C2319 C 0.08767 0.49397 0.29768 0.0
C2320 C 0.07331 0.46997 0.30113 0.0
C2321 C 0.0581 0.46758 0.32093 0.0
C2322 C 0.05749 0.48938 0.33698 0.0
C2323 C 0.07129 0.51298 0.33377 0.0
C2324 C 0.06885 0.533 0.35459 0.0
C2325 C 0.09366 0.5437 0.36837 0.0
C2326 C 0.05706 0.55463 0.34512 0.0
C2327 C 0.05195 0.51685 0.37034 0.0
C2328 C 0.04535 0.49182 0.35975 0.0
C2329 C 0.03098 0.47302 0.37164 0.0
C2330 C 0.02364 0.47991 0.3952 0.0
C2331 C 0.03087 0.50525 0.40657 0.0
C2332 C 0.04471 0.52402 0.39374 0.0
H2333 H 0.74401 0.82185 0.58962 0.0
H2334 H 0.7944 0.88937 0.62205 0.0
H2335 H 0.79553 0.8703 0.66141 0.0
H2336 H 0.71004 0.81178 0.64486 0.0
H2337 H 0.7057 0.77723 0.64008 0.0
H2338 H 0.70853 0.79594 0.61406 0.0
H2339 H 0.74432 0.77425 0.59974 0.0
H2340 H 0.74156 0.75545 0.62567 0.0
H2341 H 0.7703 0.77521 0.62077 0.0
H2342 H 0.79345 0.84366 0.69636 0.0
H2343 H 0.78693 0.8114 0.726 0.0
H2344 H 0.73545 0.76128 0.67354 0.0
C2345 C 0.75527 0.83256 0.60503 0.0
C2346 C 0.76921 0.85715 0.60264 0.0
C2347 C 0.78357 0.87058 0.62332 0.0
C2348 C 0.78435 0.8599 0.64582 0.0
C2349 C 0.77046 0.83576 0.64762 0.0
C2350 C 0.75604 0.82223 0.62792 0.0
C2351 C 0.74287 0.79662 0.63521 0.0
C2352 C 0.71514 0.79532 0.63345 0.0
C2353 C 0.75021 0.77405 0.6194 0.0
C2354 C 0.75246 0.79781 0.6619 0.0
C2355 C 0.7684 0.82063 0.66849 0.0
C2356 C 0.78065 0.82594 0.69159 0.0
C2357 C 0.77663 0.8075 0.70843 0.0
C2358 C 0.76005 0.7841 0.70254 0.0
C2359 C 0.74778 0.77922 0.67886 0.0
H2360 H 0.69039 0.44265 0.54224 0.0
H2361 H 0.74168 0.49961 0.51002 0.0
H2362 H 0.71454 0.53134 0.51756 0.0
H2363 H 0.63826 0.45875 0.51616 0.0
H2364 H 0.61993 0.45344 0.54218 0.0
H2365 H 0.64445 0.43604 0.53717 0.0
H2366 H 0.66393 0.45265 0.58071 0.0
H2367 H 0.63922 0.46977 0.58639 0.0
H2368 H 0.67027 0.4867 0.59001 0.0
H2369 H 0.67932 0.55477 0.52377 0.0
H2370 H 0.63919 0.56793 0.52865 0.0
H2371 H 0.61259 0.49645 0.55919 0.0
C2372 C 0.6961 0.46192 0.53711 0.0
C2373 C 0.71808 0.46875 0.52556 0.0
C2374 C 0.72489 0.49406 0.51896 0.0
C2375 C 0.70965 0.51221 0.52325 0.0
C2376 C 0.68793 0.50478 0.53449 0.0
C2377 C 0.68127 0.48027 0.5415 0.0
C2378 C 0.65627 0.47644 0.55162 0.0
C2379 C 0.63871 0.4549 0.53585 0.0
C2380 C 0.65751 0.47108 0.5788 0.0
C2381 C 0.64965 0.50247 0.54883 0.0
C2382 C 0.66811 0.51861 0.53893 0.0
C2383 C 0.66499 0.54259 0.53212 0.0
C2384 C 0.64223 0.54994 0.53499 0.0
C2385 C 0.62313 0.53343 0.54478 0.0
C2386 C 0.62717 0.50979 0.5524 0.0
H2387 H 0.18103 0.12721 0.51167 0.0
H2388 H 0.21347 0.07015 0.46924 0.0
H2389 H 0.1753 0.0387 0.4698 0.0
H2390 H 0.14751 0.08436 0.55048 0.0
H2391 H 0.12134 0.09999 0.55069 0.0
H2392 H 0.15109 0.11818 0.54683 0.0
H2393 H 0.13521 0.13281 0.50613 0.0
H2394 H 0.10537 0.11485 0.51 0.0
H2395 H 0.12051 0.10899 0.48207 0.0
H2396 H 0.13363 0.01336 0.47515 0.0
H2397 H 0.09081 0.99666 0.48309 0.0
H2398 H 0.08546 0.07006 0.52228 0.0
C2399 C 0.18006 0.10813 0.50239 0.0
C2400 C 0.20025 0.10113 0.49036 0.0
C2401 C 0.19824 0.07597 0.47848 0.0
C2402 C 0.17666 0.05795 0.47879 0.0
C2403 C 0.1572 0.06537 0.49103 0.0
C2404 C 0.15863 0.08992 0.50248 0.0
C2405 C 0.13497 0.09306 0.51411 0.0
C2406 C 0.13898 0.09926 0.5422 0.0
C2407 C 0.12333 0.11365 0.50237 0.0
C2408 C 0.12003 0.06645 0.50743 0.0
C2409 C 0.13322 0.05076 0.49416 0.0
C2410 C 0.12315 0.02547 0.48554 0.0
C2411 C 0.09884 0.01613 0.49019 0.0
C2412 C 0.08484 0.032 0.50334 0.0
C2413 C 0.09576 0.05738 0.51235 0.0
H2414 H 0.211 0.95174 0.80548 0.0
H2415 H 0.14792 0.92658 0.75442 0.0
H2416 H 0.16391 0.88751 0.74092 0.0
H2417 H 0.25532 0.92721 0.7671 0.0
H2418 H 0.27164 0.91678 0.79237 0.0
H2419 H 0.25605 0.94361 0.79759 0.0
H2420 H 0.23137 0.92097 0.83121 0.0
H2421 H 0.24762 0.8947 0.82632 0.0
H2422 H 0.2148 0.88868 0.82386 0.0
H2423 H 0.18609 0.85153 0.73273 0.0
H2424 H 0.21121 0.81803 0.73291 0.0
H2425 H 0.2599 0.86433 0.7905 0.0
C2426 C 0.20063 0.938 0.79142 0.0
C2427 C 0.17821 0.94226 0.78093 0.0
C2428 C 0.16507 0.92374 0.76275 0.0
C2429 C 0.17408 0.90154 0.75485 0.0
C2430 C 0.19621 0.89794 0.76542 0.0
C2431 C 0.20924 0.91543 0.7835 0.0
C2432 C 0.23199 0.90606 0.79253 0.0
C2433 C 0.25512 0.92452 0.78706 0.0
C2434 C 0.23138 0.90238 0.82012 0.0
C2435 C 0.22951 0.88047 0.77685 0.0
C2436 C 0.20886 0.87651 0.76113 0.0
C2437 C 0.20228 0.85437 0.74498 0.0
C2438 C 0.21677 0.8354 0.74526 0.0
C2439 C 0.23761 0.83839 0.76175 0.0
C2440 C 0.24427 0.86152 0.77749 0.0
H2441 H 0.34796 0.92673 0.98733 0.0
H2442 H 0.32122 0.98418 0.03521 0.0
H2443 H 0.36213 0.01116 0.0387 0.0
H2444 H 0.40433 0.93139 0.0195 0.0
H2445 H 0.42133 0.92704 0.99257 0.0
H2446 H 0.38944 0.91346 0.99177 0.0
H2447 H 0.38158 0.93757 0.95384 0.0
H2448 H 0.4135 0.95134 0.95459 0.0
H2449 H 0.39103 0.97195 0.95564 0.0
H2450 H 0.40605 0.02981 0.04024 0.0
H2451 H 0.45088 0.03881 0.04037 0.0
H2452 H 0.4494 0.96986 0.99084 0.0
C2453 C 0.35067 0.94515 0.99828 0.0
C2454 C 0.33149 0.95344 0.01098 0.0
C2455 C 0.33571 0.97751 0.02532 0.0
C2456 C 0.35882 0.99301 0.02731 0.0
C2457 C 0.3774 0.98421 0.01471 0.0
C2458 C 0.37362 0.96088 1.00044 0.0
C2459 C 0.3971 0.95518 0.99015 0.0
C2460 C 0.40341 0.9303 0.99904 0.0
C2461 C 0.39571 0.95394 0.96188 0.0
C2462 C 0.41478 0.97862 1.00148 0.0
C2463 C 0.40294 0.99522 0.01536 0.0
C2464 C 0.41551 0.01721 0.02914 0.0
C2465 C 0.44093 0.0221 0.02916 0.0
C2466 C 0.45344 0.0051 0.01546 0.0
C2467 C 0.44018 0.98343 1.001 0.0
H2468 H 0.87048 0.59791 0.73899 0.0
H2469 H 0.84016 0.56077 0.8012 0.0
H2470 H 0.80375 0.58093 0.79663 0.0
H2471 H 0.85238 0.65703 0.75506 0.0
H2472 H 0.8461 0.66342 0.72381 0.0
H2473 H 0.86823 0.64371 0.73035 0.0
H2474 H 0.84465 0.60714 0.69915 0.0
H2475 H 0.82224 0.62672 0.6928 0.0
H2476 H 0.81287 0.59525 0.70279 0.0
H2477 H 0.77246 0.60787 0.7876 0.0
H2478 H 0.75048 0.64236 0.77707 0.0
H2479 H 0.80109 0.66182 0.72071 0.0
C2480 C 0.85599 0.59373 0.7514 0.0
C2481 C 0.858 0.57768 0.77035 0.0
C2482 C 0.83893 0.57302 0.78655 0.0
C2483 C 0.81812 0.58421 0.78397 0.0
C2484 C 0.8167 0.60002 0.76513 0.0
C2485 C 0.83522 0.60494 0.74923 0.0
C2486 C 0.8303 0.62451 0.73203 0.0
C2487 C 0.85043 0.64858 0.73554 0.0
C2488 C 0.82733 0.61269 0.7051 0.0
C2489 C 0.80637 0.63023 0.74108 0.0
C2490 C 0.79864 0.61564 0.75994 0.0
C2491 C 0.77808 0.61909 0.77258 0.0
C2492 C 0.76564 0.63862 0.7664 0.0
C2493 C 0.77391 0.65445 0.74787 0.0
C2494 C 0.79401 0.64958 0.73454 0.0
H2495 H 0.85198 0.63528 0.00292 0.0
H2496 H 0.79711 0.56947 0.01444 0.0
H2497 H 0.82891 0.54264 0.01629 0.0
H2498 H 0.88828 0.60003 0.96374 0.0
H2499 H 0.91697 0.61877 0.97611 0.0
H2500 H 0.88997 0.63305 0.97585 0.0
H2501 H 0.89662 0.64539 0.02295 0.0
H2502 H 0.92364 0.63118 0.02334 0.0
H2503 H 0.89949 0.62081 0.04304 0.0
H2504 H 0.86656 0.52317 0.01822 0.0
H2505 H 0.90764 0.51191 0.01865 0.0
H2506 H 0.93839 0.58953 0.00415 0.0
C2507 C 0.84669 0.61522 0.00585 0.0
C2508 C 0.82204 0.60447 0.00861 0.0
C2509 C 0.81584 0.57812 0.01227 0.0
C2510 C 0.83379 0.56272 0.01336 0.0
C2511 C 0.85789 0.57385 0.01057 0.0
C2512 C 0.8644 0.59945 0.00675 0.0
C2513 C 0.89166 0.60648 0.00408 0.0
C2514 C 0.89703 0.61509 0.97842 0.0
C2515 C 0.90355 0.62719 0.02457 0.0
C2516 C 0.89942 0.58089 0.00717 0.0
C2517 C 0.87962 0.56239 0.011 0.0
C2518 C 0.88217 0.53744 0.01507 0.0
C2519 C 0.90558 0.53123 0.0153 0.0
C2520 C 0.92612 0.54977 0.01127 0.0
C2521 C 0.92294 0.5749 0.00702 0.0
H2522 H 0.17396 0.09914 0.77799 0.0
H2523 H 0.22963 0.06723 0.81623 0.0
H2524 H 0.25779 0.10877 0.81723 0.0
H2525 H 0.21454 0.13586 0.7396 0.0
H2526 H 0.19841 0.16249 0.74058 0.0
H2527 H 0.18225 0.13061 0.74371 0.0
H2528 H 0.16654 0.14705 0.7851 0.0
H2529 H 0.18275 0.17896 0.78215 0.0
H2530 H 0.18808 0.16337 0.80934 0.0
H2531 H 0.27948 0.15359 0.81485 0.0
H2532 H 0.29495 0.19803 0.80625 0.0
H2533 H 0.22613 0.20076 0.76751 0.0
C2534 C 0.19206 0.10096 0.78664 0.0
C2535 C 0.19963 0.08004 0.79717 0.0
C2536 C 0.2235 0.08302 0.80807 0.0
C2537 C 0.23956 0.10655 0.8088 0.0
C2538 C 0.23152 0.12681 0.79835 0.0
C2539 C 0.20844 0.12424 0.78725 0.0
C2540 C 0.20475 0.14879 0.77654 0.0
C2541 C 0.1997 0.14415 0.74844 0.0
C2542 C 0.18432 0.16021 0.78903 0.0
C2543 C 0.22941 0.16555 0.78332 0.0
C2544 C 0.24442 0.15252 0.79615 0.0
C2545 C 0.26796 0.16393 0.80471 0.0
C2546 C 0.27656 0.18922 0.79975 0.0
C2547 C 0.26179 0.20275 0.78607 0.0
C2548 C 0.23783 0.1908 0.7779 0.0
H2549 H 0.3899 0.95836 0.30582 0.0
H2550 H 0.35583 0.98827 0.24439 0.0
H2551 H 0.32916 0.94639 0.23406 0.0
H2552 H 0.38984 0.89569 0.27537 0.0
H2553 H 0.38306 0.87899 0.30226 0.0
H2554 H 0.39915 0.91169 0.30567 0.0
H2555 H 0.36651 0.92483 0.33416 0.0
H2556 H 0.35029 0.89216 0.33079 0.0
H2557 H 0.3349 0.91787 0.32334 0.0
H2558 H 0.30733 0.90183 0.22918 0.0
H2559 H 0.29117 0.85584 0.2297 0.0
H2560 H 0.33847 0.85358 0.2944 0.0
C2561 C 0.37675 0.95605 0.29028 0.0
C2562 C 0.37492 0.97654 0.27589 0.0
C2563 C 0.35757 0.97283 0.25564 0.0
C2564 C 0.34228 0.94914 0.24965 0.0
C2565 C 0.34452 0.92933 0.2641 0.0
C2566 C 0.36125 0.93239 0.28398 0.0
C2567 C 0.3601 0.90755 0.29597 0.0
C2568 C 0.38449 0.89791 0.29473 0.0
C2569 C 0.35249 0.9108 0.32265 0.0
C2570 C 0.34028 0.89011 0.27951 0.0
C2571 C 0.33159 0.90322 0.26133 0.0
C2572 C 0.31386 0.89132 0.24337 0.0
C2573 C 0.30487 0.86515 0.2438 0.0
C2574 C 0.31357 0.85114 0.26209 0.0
C2575 C 0.33132 0.86388 0.28036 0.0
H2576 H 0.56172 0.37839 0.61238 0.0
H2577 H 0.50306 0.32108 0.57612 0.0
H2578 H 0.49482 0.35169 0.54677 0.0
H2579 H 0.53266 0.43204 0.60775 0.0
H2580 H 0.55986 0.45389 0.60193 0.0
H2581 H 0.56202 0.42707 0.61931 0.0
H2582 H 0.59191 0.41135 0.58863 0.0
H2583 H 0.58998 0.43861 0.57177 0.0
H2584 H 0.58321 0.40659 0.55613 0.0
H2585 H 0.49037 0.38993 0.52381 0.0
H2586 H 0.49192 0.43221 0.50749 0.0
H2587 H 0.55509 0.4636 0.55672 0.0
C2588 C 0.54734 0.37221 0.59808 0.0
C2589 C 0.53304 0.34733 0.59655 0.0
C2590 C 0.51432 0.34 0.57762 0.0
C2591 C 0.50948 0.35726 0.56084 0.0
C2592 C 0.52373 0.38172 0.56298 0.0
C2593 C 0.54247 0.38912 0.58094 0.0
C2594 C 0.55467 0.41674 0.57958 0.0
C2595 C 0.55214 0.43341 0.60356 0.0
C2596 C 0.58154 0.41839 0.57365 0.0
C2597 C 0.5397 0.42377 0.55826 0.0
C2598 C 0.52182 0.40337 0.54902 0.0
C2599 C 0.50459 0.4059 0.53056 0.0
C2600 C 0.50556 0.42995 0.52141 0.0
C2601 C 0.52387 0.451 0.53047 0.0
C2602 C 0.54128 0.44766 0.54892 0.0
H2603 H 0.42973 0.77117 0.36006 0.0
H2604 H 0.45342 0.7046 0.32344 0.0
H2605 H 0.41724 0.69771 0.29436 0.0
H2606 H 0.36274 0.7461 0.35116 0.0
H2607 H 0.35658 0.77755 0.3466 0.0
H2608 H 0.38235 0.77427 0.36633 0.0
H2609 H 0.41018 0.80419 0.33959 0.0
H2610 H 0.38437 0.80631 0.31953 0.0
H2611 H 0.41042 0.79515 0.30697 0.0
H2612 H 0.38059 0.70036 0.26704 0.0
H2613 H 0.3458 0.71204 0.24387 0.0
H2614 H 0.34624 0.77717 0.29795 0.0
C2615 C 0.42698 0.75475 0.34632 0.0
C2616 C 0.44428 0.73826 0.34413 0.0
C2617 C 0.44031 0.71735 0.32556 0.0
C2618 C 0.41982 0.71328 0.30896 0.0
C2619 C 0.40344 0.73029 0.31121 0.0
C2620 C 0.40669 0.75052 0.32953 0.0
C2621 C 0.38732 0.76704 0.32688 0.0
C2622 C 0.37132 0.76622 0.3491 0.0
C2623 C 0.39876 0.79481 0.323 0.0
C2624 C 0.37306 0.75332 0.30388 0.0
C2625 C 0.38249 0.73202 0.29527 0.0
C2626 C 0.37289 0.71682 0.27377 0.0
C2627 C 0.35318 0.72362 0.26071 0.0
C2628 C 0.34332 0.74541 0.26919 0.0
C2629 C 0.35329 0.76027 0.29117 0.0
H2630 H 0.02081 0.7187 0.09549 0.0
H2631 H 0.07422 0.71412 0.15417 0.0
H2632 H 0.07849 0.67099 0.13595 0.0
H2633 H 0.99135 0.65189 0.09269 0.0
H2634 H 0.98555 0.64856 0.05973 0.0
H2635 H 0.98714 0.67939 0.07701 0.0
H2636 H 0.02064 0.69935 0.04949 0.0
H2637 H 0.01924 0.66853 0.03223 0.0
H2638 H 0.04785 0.68562 0.04652 0.0
H2639 H 0.0783 0.62916 0.11053 0.0
H2640 H 0.07048 0.58944 0.082 0.0
H2641 H 0.0152 0.61956 0.04121 0.0
C2642 C 0.03337 0.70857 0.10447 0.0
C2643 C 0.04728 0.71978 0.12619 0.0
C2644 C 0.06335 0.70586 0.13756 0.0
C2645 C 0.06599 0.6814 0.12729 0.0
C2646 C 0.05215 0.67091 0.10581 0.0
C2647 C 0.03588 0.68385 0.09471 0.0
C2648 C 0.02255 0.66774 0.07225 0.0
C2649 C 0.99502 0.66153 0.07564 0.0
C2650 C 0.0279 0.68111 0.04873 0.0
C2651 C 0.03401 0.64386 0.0724 0.0
C2652 C 0.05125 0.64625 0.09175 0.0
C2653 C 0.06472 0.627 0.0954 0.0
C2654 C 0.06025 0.60456 0.07901 0.0
C2655 C 0.04221 0.60137 0.05943 0.0
C2656 C 0.029 0.62138 0.05612 0.0
H2657 H 0.07867 0.23815 0.86038 0.0
H2658 H 0.04279 0.28368 0.81337 0.0
H2659 H 0.07745 0.28677 0.78641 0.0
H2660 H 0.13861 0.27353 0.85724 0.0
H2661 H 0.15335 0.24591 0.85718 0.0
H2662 H 0.12508 0.24583 0.87188 0.0
H2663 H 0.1059 0.20396 0.84492 0.0
H2664 H 0.13411 0.20395 0.83005 0.0
H2665 H 0.10625 0.20303 0.81184 0.0
H2666 H 0.11634 0.28614 0.76535 0.0
H2667 H 0.15773 0.28354 0.7525 0.0
H2668 H 0.16913 0.23903 0.81342 0.0
C2669 C 0.07801 0.24855 0.84426 0.0
C2670 C 0.05796 0.26057 0.83886 0.0
C2671 C 0.05792 0.2743 0.81782 0.0
C2672 C 0.07749 0.27608 0.80236 0.0
C2673 C 0.09701 0.26411 0.80825 0.0
C2674 C 0.0975 0.2507 0.82874 0.0
C2675 C 0.12123 0.24067 0.83153 0.0
C2676 C 0.1354 0.25218 0.8559 0.0
C2677 C 0.11659 0.21115 0.82946 0.0
C2678 C 0.13411 0.25076 0.80953 0.0
C2679 C 0.11968 0.26403 0.79626 0.0
C2680 C 0.12774 0.27569 0.77553 0.0
C2681 C 0.15128 0.27408 0.76836 0.0
C2682 C 0.16658 0.26101 0.7819 0.0
C2683 C 0.15774 0.24895 0.8026 0.0
H2684 H 0.55808 0.69792 0.94393 0.0
H2685 H 0.48241 0.70716 0.93893 0.0
H2686 H 0.47177 0.67213 0.96535 0.0
H2687 H 0.54403 0.62956 0.93897 0.0
H2688 H 0.56853 0.62504 0.95959 0.0
H2689 H 0.57189 0.65286 0.94262 0.0
H2690 H 0.5815 0.68326 0.98263 0.0
H2691 H 0.57898 0.65594 1.00031 0.0
H2692 H 0.56081 0.68034 0.00713 0.0
H2693 H 0.46849 0.63508 0.99023 0.0
H2694 H 0.47231 0.59556 0.00954 0.0
H2695 H 0.54973 0.60868 0.99872 0.0
C2696 C 0.53936 0.69271 0.94869 0.0
C2697 C 0.52108 0.70541 0.93952 0.0
C2698 C 0.49669 0.69771 0.9457 0.0
C2699 C 0.49049 0.67794 0.96085 0.0
C2700 C 0.50881 0.66577 0.9696 0.0
C2701 C 0.53272 0.67257 0.96357 0.0
C2702 C 0.54833 0.65464 0.97365 0.0
C2703 C 0.55883 0.63965 0.95246 0.0
C2704 C 0.56861 0.66944 0.99202 0.0
C2705 C 0.52951 0.637 0.98652 0.0
C2706 C 0.50687 0.64393 0.98397 0.0
C2707 C 0.48618 0.62969 0.9927 0.0
C2708 C 0.48852 0.60738 0.00377 0.0
C2709 C 0.51138 0.59962 0.00627 0.0
C2710 C 0.53224 0.61483 0.9979 0.0
H2711 H 0.08805 0.77757 0.66066 0.0
H2712 H 0.03827 0.72369 0.69797 0.0
H2713 H 0.07327 0.71094 0.71985 0.0
H2714 H 0.13366 0.73839 0.65185 0.0
H2715 H 0.15888 0.76485 0.6573 0.0
H2716 H 0.12995 0.7701 0.64493 0.0
H2717 H 0.12882 0.80535 0.68072 0.0
H2718 H 0.15786 0.80041 0.69304 0.0
H2719 H 0.13213 0.79785 0.7121 0.0
H2720 H 0.11412 0.7042 0.73786 0.0
H2721 H 0.15725 0.70544 0.75152 0.0
H2722 H 0.17992 0.7629 0.70155 0.0
C2723 C 0.08449 0.76322 0.67356 0.0
C2724 C 0.06041 0.75168 0.67767 0.0
C2725 C 0.05656 0.73286 0.6946 0.0
C2726 C 0.07633 0.72542 0.70705 0.0
C2727 C 0.09986 0.73694 0.70234 0.0
C2728 C 0.104 0.75554 0.68609 0.0
C2729 C 0.13101 0.76503 0.68433 0.0
C2730 C 0.13882 0.75924 0.65804 0.0
C2731 C 0.13785 0.79386 0.69307 0.0
C2732 C 0.14144 0.74889 0.70212 0.0
C2733 C 0.12322 0.73279 0.71235 0.0
C2734 C 0.12852 0.71664 0.72986 0.0
C2735 C 0.15304 0.71737 0.73743 0.0
C2736 C 0.17188 0.73403 0.72741 0.0
C2737 C 0.16592 0.74966 0.70928 0.0
H2738 H 0.02332 0.35713 0.42578 0.0
H2739 H 0.08978 0.33846 0.45755 0.0
H2740 H 0.09733 0.38024 0.48325 0.0
H2741 H 0.04476 0.42575 0.42426 0.0
H2742 H 0.01587 0.43368 0.43255 0.0
H2743 H 0.01697 0.40322 0.41565 0.0
H2744 H 0.99308 0.38026 0.44958 0.0
H2745 H 0.99243 0.41082 0.46648 0.0
H2746 H 0.00498 0.38657 0.48117 0.0
H2747 H 0.09665 0.42352 0.50654 0.0
H2748 H 0.08762 0.46456 0.52584 0.0
H2749 H 0.02139 0.45431 0.47889 0.0
C2750 C 0.03962 0.36193 0.43794 0.0
C2751 C 0.05607 0.34465 0.4396 0.0
C2752 C 0.077 0.35149 0.45596 0.0
C2753 C 0.08144 0.37516 0.47058 0.0
C2754 C 0.06472 0.39169 0.46862 0.0
C2755 C 0.04423 0.38534 0.4527 0.0
C2756 C 0.02855 0.40592 0.45479 0.0
C2757 C 0.02645 0.41784 0.43033 0.0
C2758 C 0.00327 0.39525 0.46353 0.0
C2759 C 0.04341 0.4249 0.47435 0.0
C2760 C 0.06424 0.41639 0.48209 0.0
C2761 C 0.08046 0.43041 0.50052 0.0
C2762 C 0.07518 0.45365 0.51138 0.0
C2763 C 0.05389 0.46257 0.50377 0.0
C2764 C 0.03793 0.44806 0.4849 0.0
H2765 H 0.43143 0.29767 0.1704 0.0
H2766 H 0.44584 0.22227 0.18386 0.0
H2767 H 0.4124 0.21726 0.2121 0.0
H2768 H 0.4135 0.31662 0.23207 0.0
H2769 H 0.38925 0.33183 0.22105 0.0
H2770 H 0.41559 0.33074 0.20324 0.0
H2771 H 0.38776 0.3087 0.16542 0.0
H2772 H 0.36138 0.30996 0.18304 0.0
H2773 H 0.36644 0.27966 0.16849 0.0
H2774 H 0.37758 0.21968 0.23799 0.0
H2775 H 0.33976 0.22691 0.25658 0.0
H2776 H 0.34549 0.29995 0.22532 0.0
C2777 C 0.42759 0.28023 0.17949 0.0
C2778 C 0.44129 0.2604 0.17513 0.0
C2779 C 0.43555 0.23766 0.18695 0.0
C2780 C 0.41671 0.23472 0.20315 0.0
C2781 C 0.40359 0.25458 0.20714 0.0
C2782 C 0.40845 0.27675 0.19542 0.0
C2783 C 0.39018 0.29416 0.20161 0.0
C2784 C 0.4029 0.31986 0.21531 0.0
C2785 C 0.37558 0.29836 0.17825 0.0
C2786 C 0.37423 0.27816 0.21845 0.0
C2787 C 0.38265 0.25562 0.22162 0.0
C2788 C 0.37079 0.23726 0.23569 0.0
C2789 C 0.34928 0.24158 0.24618 0.0
C2790 C 0.33961 0.26399 0.24241 0.0
C2791 C 0.3526 0.28282 0.22882 0.0
H2792 H 0.59089 0.50352 0.34161 0.0
H2793 H 0.6622 0.52669 0.37966 0.0
H2794 H 0.64316 0.52723 0.41956 0.0
H2795 H 0.55924 0.5417 0.38144 0.0
H2796 H 0.53183 0.51796 0.38063 0.0
H2797 H 0.55099 0.51856 0.35488 0.0
H2798 H 0.55439 0.47097 0.35829 0.0
H2799 H 0.53521 0.47022 0.38406 0.0
H2800 H 0.56491 0.46154 0.38718 0.0
H2801 H 0.61652 0.52802 0.45532 0.0
H2802 H 0.5838 0.5268 0.48456 0.0
H2803 H 0.52966 0.50118 0.42427 0.0
C2804 C 0.60247 0.50851 0.35836 0.0
C2805 C 0.62807 0.51508 0.35746 0.0
C2806 C 0.64258 0.52153 0.37982 0.0
C2807 C 0.63193 0.52192 0.40263 0.0
C2808 C 0.6067 0.51555 0.40291 0.0
C2809 C 0.59211 0.50873 0.38143 0.0
C2810 C 0.56541 0.5029 0.38705 0.0
C2811 C 0.55103 0.52139 0.3753 0.0
C2812 C 0.55433 0.47473 0.37864 0.0
C2813 C 0.5673 0.50788 0.41497 0.0
C2814 C 0.59131 0.51525 0.4237 0.0
C2815 C 0.59766 0.52204 0.4487 0.0
C2816 C 0.579 0.52143 0.46519 0.0
C2817 C 0.55431 0.51385 0.45673 0.0
C2818 C 0.54844 0.50671 0.4313 0.0
H2819 H 0.29887 0.87343 0.07667 0.0
H2820 H 0.22784 0.83395 0.04618 0.0
H2821 H 0.2282 0.8013 0.07558 0.0
H2822 H 0.3238 0.81653 0.08983 0.0
H2823 H 0.33924 0.83161 0.11845 0.0
H2824 H 0.33441 0.85078 0.0937 0.0
H2825 H 0.31247 0.87954 0.12272 0.0
H2826 H 0.31744 0.86063 0.14757 0.0
H2827 H 0.28701 0.86487 0.13889 0.0
H2828 H 0.2353 0.77421 0.10917 0.0
H2829 H 0.24708 0.7565 0.14725 0.0
H2830 H 0.31309 0.81397 0.15658 0.0
C2831 C 0.28352 0.85776 0.07607 0.0
C2832 C 0.26337 0.85607 0.05915 0.0
C2833 C 0.24344 0.83556 0.05907 0.0
C2834 C 0.24355 0.81684 0.07554 0.0
C2835 C 0.2637 0.81902 0.092 0.0
C2836 C 0.28322 0.83906 0.09257 0.0
C2837 C 0.30175 0.83796 0.1133 0.0
C2838 C 0.32625 0.83397 0.10321 0.0
C2839 C 0.30483 0.86218 0.13171 0.0
C2840 C 0.2894 0.8144 0.12453 0.0
C2841 C 0.26764 0.80355 0.11172 0.0
C2842 C 0.2524 0.78235 0.11923 0.0
C2843 C 0.25927 0.77239 0.14081 0.0
C2844 C 0.28105 0.78378 0.15463 0.0
C2845 C 0.29653 0.80468 0.1461 0.0
H2846 H 0.973 0.52473 0.84176 0.0
H2847 H 0.95787 0.60233 0.84877 0.0
H2848 H 0.98029 0.61052 0.88969 0.0
H2849 H 0.96286 0.51277 0.90276 0.0
H2850 H 0.98643 0.49375 0.9055 0.0
H2851 H 0.97174 0.49519 0.87584 0.0
H2852 H 0.01368 0.51066 0.8584 0.0
H2853 H 0.02853 0.50917 0.88804 0.0
H2854 H 0.03354 0.53864 0.87351 0.0
H2855 H 0.00351 0.60933 0.93079 0.0
H2856 H 0.0228 0.59782 0.96914 0.0
H2857 H 0.01956 0.52026 0.93542 0.0
C2858 C 0.97478 0.54363 0.85167 0.0
C2859 C 0.96399 0.56303 0.84202 0.0
C2860 C 0.96622 0.5873 0.85579 0.0
C2861 C 0.97894 0.59211 0.87899 0.0
C2862 C 0.98912 0.57237 0.88813 0.0
C2863 C 0.98703 0.54858 0.87487 0.0
C2864 C 0.99791 0.52992 0.88934 0.0
C2865 C 0.97858 0.50654 0.89361 0.0
C2866 C 0.01971 0.52162 0.87656 0.0
C2867 C 0.00606 0.54672 0.91304 0.0
C2868 C 1.00132 0.57132 0.91191 0.0
C2869 C 0.00735 0.59016 0.93181 0.0
C2870 C 0.01829 0.58355 0.95342 0.0
C2871 C 0.02253 0.55827 0.95493 0.0
C2872 C 0.01643 0.53973 0.93453 0.0
H2873 H 0.29588 0.1899 0.5826 0.0
H2874 H 0.22329 0.19552 0.55476 0.0
H2875 H 0.2141 0.21281 0.59609 0.0
H2876 H 0.28026 0.1717 0.64229 0.0
H2877 H 0.30697 0.19098 0.65844 0.0
H2878 H 0.30809 0.17891 0.62667 0.0
H2879 H 0.32265 0.22519 0.61533 0.0
H2880 H 0.32175 0.23737 0.6471 0.0
H2881 H 0.30492 0.2497 0.62342 0.0
H2882 H 0.21173 0.22692 0.64092 0.0
H2883 H 0.21796 0.24184 0.68528 0.0
H2884 H 0.29302 0.2305 0.68401 0.0
C2885 C 0.27813 0.19494 0.58522 0.0
C2886 C 0.26027 0.19131 0.56542 0.0
C2887 C 0.23729 0.19824 0.56957 0.0
C2888 C 0.23185 0.20797 0.59303 0.0
C2889 C 0.2497 0.2111 0.6122 0.0
C2890 C 0.27253 0.20524 0.60851 0.0
C2891 C 0.28859 0.2112 0.63222 0.0
C2892 C 0.29643 0.18674 0.64038 0.0
C2893 C 0.31079 0.23211 0.62934 0.0
C2894 C 0.27112 0.22103 0.6498 0.0
C2895 C 0.24869 0.22048 0.63789 0.0
C2896 C 0.22929 0.22769 0.65039 0.0
C2897 C 0.23297 0.23601 0.67563 0.0
C2898 C 0.25598 0.23748 0.68812 0.0
C2899 C 0.27527 0.22983 0.67493 0.0
H2900 H 0.59803 0.51534 0.22589 0.0
H2901 H 0.6699 0.55574 0.21211 0.0
H2902 H 0.65432 0.56495 0.17151 0.0
H2903 H 0.58346 0.48569 0.16408 0.0
H2904 H 0.55175 0.48842 0.16423 0.0
H2905 H 0.56834 0.48586 0.19262 0.0
H2906 H 0.55636 0.52811 0.21159 0.0
H2907 H 0.53979 0.53083 0.18321 0.0
H2908 H 0.56337 0.55682 0.19607 0.0
H2909 H 0.63099 0.56951 0.13203 0.0
H2910 H 0.6019 0.56723 0.09602 0.0
H2911 H 0.54558 0.52315 0.13505 0.0
C2912 C 0.61043 0.52622 0.21436 0.0
C2913 C 0.63517 0.53489 0.22221 0.0
C2914 C 0.65088 0.54888 0.20649 0.0
C2915 C 0.64219 0.55428 0.18341 0.0
C2916 C 0.61774 0.54545 0.17618 0.0
C2917 C 0.6021 0.53159 0.19112 0.0
C2918 C 0.57683 0.52359 0.17858 0.0
C2919 C 0.56969 0.49415 0.17464 0.0
C2920 C 0.55798 0.53556 0.19324 0.0
C2921 C 0.58074 0.53509 0.15431 0.0
C2922 C 0.60441 0.54776 0.15333 0.0
C2923 C 0.61237 0.55968 0.13262 0.0
C2924 C 0.59575 0.55838 0.11229 0.0
C2925 C 0.57153 0.54515 0.11282 0.0
C2926 C 0.56398 0.53352 0.13419 0.0
H2927 H 0.27295 0.87935 0.91993 0.0
H2928 H 0.22475 0.82802 0.96134 0.0
H2929 H 0.22146 0.79379 0.92709 0.0
H2930 H 0.24169 0.85811 0.86047 0.0
H2931 H 0.26931 0.86103 0.84419 0.0
H2932 H 0.26803 0.88145 0.87211 0.0
H2933 H 0.30575 0.8659 0.89067 0.0
H2934 H 0.30686 0.84518 0.86289 0.0
H2935 H 0.30498 0.832 0.89218 0.0
H2936 H 0.22386 0.76501 0.88903 0.0
H2937 H 0.22836 0.74472 0.84739 0.0
H2938 H 0.27437 0.81481 0.83025 0.0
C2939 C 0.2616 0.86095 0.9217 0.0
C2940 C 0.24911 0.85628 0.94325 0.0
C2941 C 0.23442 0.832 0.94493 0.0
C2942 C 0.23255 0.8124 0.92566 0.0
C2943 C 0.24541 0.81745 0.90484 0.0
C2944 C 0.25941 0.84119 0.90256 0.0
C2945 C 0.2708 0.84172 0.87787 0.0
C2946 C 0.26192 0.86176 0.86278 0.0
C2947 C 0.29876 0.84648 0.88111 0.0
C2948 C 0.26085 0.81464 0.86662 0.0
C2949 C 0.24649 0.80089 0.88262 0.0
C2950 C 0.23502 0.77556 0.87629 0.0
C2951 C 0.23775 0.76419 0.85267 0.0
C2952 C 0.25162 0.77827 0.83569 0.0
C2953 C 0.2637 0.80362 0.84294 0.0
H2954 H 0.96443 0.51337 0.70955 0.0
H2955 H 0.97122 0.59573 0.72694 0.0
H2956 H 0.99638 0.60304 0.69121 0.0
H2957 H 0.02616 0.51449 0.68808 0.0
H2958 H 0.01603 0.48884 0.66403 0.0
H2959 H 1.00014 0.49017 0.69205 0.0
H2960 H 0.95967 0.48928 0.66668 0.0
H2961 H 0.9754 0.48788 0.63864 0.0
H2962 H 0.95805 0.51303 0.64535 0.0
H2963 H 0.0174 0.60125 0.65132 0.0
H2964 H 0.03328 0.59032 0.61078 0.0
H2965 H 0.01413 0.5093 0.6205 0.0
C2966 C 0.97148 0.53295 0.70603 0.0
C2967 C 0.96591 0.55399 0.72101 0.0
C2968 C 0.97534 0.57932 0.71573 0.0
C2969 C 0.98968 0.58367 0.69551 0.0
C2970 C 0.99462 0.56248 0.68093 0.0
C2971 C 0.98595 0.53762 0.68604 0.0
C2972 C 0.99293 0.51819 0.66688 0.0
C2973 C 0.00982 0.50197 0.67846 0.0
C2974 C 0.97016 0.5011 0.6536 0.0
C2975 C 0.00639 0.53599 0.64986 0.0
C2976 C 0.00727 0.56148 0.65831 0.0
C2977 C 0.01723 0.58138 0.64474 0.0
C2978 C 0.02621 0.57502 0.62179 0.0
C2979 C 0.02524 0.54902 0.61278 0.0
C2980 C 0.01558 0.52935 0.62722 0.0
H2981 H 0.25169 0.17229 0.41033 0.0
H2982 H 0.31043 0.22204 0.45493 0.0
H2983 H 0.31942 0.24799 0.42011 0.0
H2984 H 0.28159 0.17455 0.35163 0.0
H2985 H 0.25388 0.17503 0.33371 0.0
H2986 H 0.25275 0.15928 0.36164 0.0
H2987 H 0.22236 0.18748 0.37844 0.0
H2988 H 0.22351 0.20326 0.35056 0.0
H2989 H 0.23055 0.22197 0.38 0.0
H2990 H 0.32207 0.26896 0.38093 0.0
H2991 H 0.31671 0.28522 0.34054 0.0
H2992 H 0.25525 0.22348 0.32092 0.0
C2993 C 0.26652 0.18856 0.41269 0.0
C2994 C 0.2804 0.19507 0.43545 0.0
C2995 C 0.29953 0.21664 0.43778 0.0
C2996 C 0.30485 0.23147 0.41804 0.0
C2997 C 0.29086 0.22464 0.39594 0.0
C2998 C 0.27201 0.20377 0.3931 0.0
C2999 C 0.25929 0.20133 0.36755 0.0
C3000 C 0.26205 0.17605 0.35277 0.0
C3001 C 0.23233 0.20366 0.36925 0.0
C3002 C 0.27365 0.22434 0.35673 0.0
C3003 C 0.292 0.23723 0.37336 0.0
C3004 C 0.30775 0.25904 0.36777 0.0
C3005 C 0.30455 0.26814 0.34474 0.0
C3006 C 0.28556 0.25571 0.32752 0.0
C3007 C 0.27001 0.23336 0.33361 0.0
H3008 H 0.35659 0.61515 0.4827 0.0
H3009 H 0.3302 0.59125 0.55208 0.0
H3010 H 0.355 0.55692 0.5497 0.0
H3011 H 0.36111 0.55153 0.45327 0.0
H3012 H 0.3891 0.56295 0.43928 0.0
H3013 H 0.36744 0.58401 0.44494 0.0
H3014 H 0.4007 0.61754 0.47038 0.0
H3015 H 0.42235 0.59674 0.46408 0.0
H3016 H 0.41766 0.60759 0.49548 0.0
H3017 H 0.38306 0.52605 0.54038 0.0
H3018 H 0.41798 0.50574 0.52892 0.0
H3019 H 0.42832 0.55138 0.46692 0.0
C3020 C 0.35595 0.60254 0.49727 0.0
C3021 C 0.34143 0.60563 0.5175 0.0
C3022 C 0.3413 0.58915 0.53647 0.0
C3023 C 0.35508 0.56946 0.53513 0.0
C3024 C 0.36906 0.56672 0.51482 0.0
C3025 C 0.36999 0.58311 0.49647 0.0
C3026 C 0.38835 0.57764 0.47794 0.0
C3027 C 0.37574 0.56848 0.45234 0.0
C3028 C 0.40845 0.60129 0.47694 0.0
C3029 C 0.39806 0.55606 0.48912 0.0
C3030 C 0.38614 0.54957 0.50997 0.0
C3031 C 0.39245 0.53085 0.52402 0.0
C3032 C 0.41222 0.5193 0.51726 0.0
C3033 C 0.42572 0.52693 0.49697 0.0
C3034 C 0.41805 0.54493 0.48228 0.0
H3035 H 0.85781 0.91898 0.52804 0.0
H3036 H 0.82054 0.9773 0.56166 0.0
H3037 H 0.8589 0.00882 0.56459 0.0
H3038 H 0.91466 0.93837 0.56384 0.0
H3039 H 0.93317 0.93209 0.53851 0.0
H3040 H 0.90281 0.91402 0.53909 0.0
H3041 H 0.89202 0.92767 0.49616 0.0
H3042 H 0.92237 0.94585 0.49557 0.0
H3043 H 0.89639 0.96133 0.49162 0.0
H3044 H 0.90144 0.03382 0.56479 0.0
H3045 H 0.94536 0.05053 0.56211 0.0
H3046 H 0.95487 0.97658 0.52713 0.0
C3047 C 0.85777 0.93836 0.5361 0.0
C3048 C 0.83619 0.94567 0.54473 0.0
C3049 C 0.83684 0.97126 0.55496 0.0
C3050 C 0.85854 0.98932 0.55668 0.0
C3051 C 0.87945 0.98157 0.54792 0.0
C3052 C 0.87928 0.95672 0.53777 0.0
C3053 C 0.9043 0.95347 0.5296 0.0
C3054 C 0.91432 0.9333 0.54361 0.0
C3055 C 0.90372 0.94668 0.50157 0.0
C3056 C 0.91859 0.98025 0.53705 0.0
C3057 C 0.9039 0.99616 0.54756 0.0
C3058 C 0.9131 0.02159 0.55648 0.0
C3059 C 0.93803 0.03091 0.55488 0.0
C3060 C 0.95343 0.0149 0.54434 0.0
C3061 C 0.94347 0.98933 0.53508 0.0
H3062 H 0.87617 0.13246 0.26651 0.0
H3063 H 0.81286 0.07233 0.24938 0.0
H3064 H 0.78609 0.10465 0.25337 0.0
H3065 H 0.84863 0.17138 0.3116 0.0
H3066 H 0.86352 0.2015 0.30202 0.0
H3067 H 0.87789 0.17364 0.29838 0.0
H3068 H 0.88101 0.1786 0.25178 0.0
H3069 H 0.8668 0.20654 0.25538 0.0
H3070 H 0.8539 0.17994 0.23318 0.0
H3071 H 0.76609 0.14339 0.25823 0.0
H3072 H 0.75429 0.18614 0.26245 0.0
H3073 H 0.83031 0.22159 0.2768 0.0
C3074 C 0.85667 0.12612 0.26365 0.0
C3075 C 0.84662 0.09981 0.25764 0.0
C3076 C 0.82101 0.09233 0.25398 0.0
C3077 C 0.80562 0.11056 0.25627 0.0
C3078 C 0.81606 0.13628 0.26227 0.0
C3079 C 0.84098 0.14413 0.26586 0.0
C3080 C 0.84745 0.17311 0.27159 0.0
C3081 C 0.86012 0.18032 0.29744 0.0
C3082 C 0.86322 0.18526 0.2518 0.0
C3083 C 0.82228 0.18027 0.27052 0.0
C3084 C 0.80445 0.1587 0.26519 0.0
C3085 C 0.77988 0.16042 0.26253 0.0
C3086 C 0.77335 0.18483 0.26498 0.0
C3087 C 0.79129 0.20732 0.2701 0.0
C3088 C 0.81607 0.20483 0.27321 0.0
H3089 H 0.71312 0.08095 0.99882 0.0
H3090 H 0.73431 0.09108 0.07692 0.0
H3091 H 0.69512 0.06477 0.08534 0.0
H3092 H 0.65556 0.08987 0.00404 0.0
H3093 H 0.64157 0.06632 0.97944 0.0
H3094 H 0.67306 0.08072 0.97876 0.0
H3095 H 0.68535 0.03574 0.97543 0.0
H3096 H 0.65373 0.02109 0.97577 0.0
H3097 H 0.67572 0.01384 0.99796 0.0
H3098 H 0.65135 0.04553 0.08604 0.0
H3099 H 0.60689 0.03205 0.0787 0.0
H3100 H 0.61445 0.03358 1.00002 0.0
C3101 C 0.70986 0.07685 0.01759 0.0
C3102 C 0.72664 0.08795 0.03723 0.0
C3103 C 0.72167 0.08258 0.06161 0.0
C3104 C 0.69951 0.06762 0.06655 0.0
C3105 C 0.68281 0.05791 0.04686 0.0
C3106 C 0.68789 0.06191 0.02279 0.0
C3107 C 0.66592 0.05194 0.00527 0.0
C3108 C 0.65861 0.0735 0.99107 0.0
C3109 C 0.67046 0.0293 0.98757 0.0
C3110 C 0.64729 0.04313 0.0234 0.0
C3111 C 0.65745 0.04635 0.04725 0.0
C3112 C 0.64328 0.04224 0.0674 0.0
C3113 C 0.61805 0.03482 0.06307 0.0
C3114 C 0.60732 0.03164 0.03878 0.0
C3115 C 0.62222 0.03536 0.01874 0.0
H3116 H 0.1828 0.44439 0.28119 0.0
H3117 H 0.20882 0.47168 0.21285 0.0
H3118 H 0.24132 0.44565 0.21445 0.0
H3119 H 0.24314 0.43938 0.31023 0.0
H3120 H 0.23083 0.41025 0.32334 0.0
H3121 H 0.212 0.434 0.3189 0.0
H3122 H 0.17992 0.39953 0.29314 0.0
H3123 H 0.19853 0.37575 0.29765 0.0
H3124 H 0.18922 0.38129 0.26688 0.0
H3125 H 0.26744 0.41304 0.22059 0.0
H3126 H 0.28398 0.3745 0.22988 0.0
H3127 H 0.24113 0.36836 0.29413 0.0
C3128 C 0.1957 0.44531 0.26688 0.0
C3129 C 0.19347 0.4601 0.24698 0.0
C3130 C 0.21031 0.46047 0.22829 0.0
C3131 C 0.22891 0.44591 0.22914 0.0
C3132 C 0.23043 0.43121 0.24883 0.0
C3133 C 0.21426 0.43077 0.26737 0.0
C3134 C 0.21819 0.41128 0.28502 0.0
C3135 C 0.22654 0.42453 0.31091 0.0
C3136 C 0.1951 0.39075 0.28569 0.0
C3137 C 0.23849 0.40017 0.273 0.0
C3138 C 0.24557 0.41224 0.25239 0.0
C3139 C 0.26239 0.40375 0.23693 0.0
C3140 C 0.27161 0.38184 0.24226 0.0
C3141 C 0.26387 0.36872 0.26272 0.0
C3142 C 0.24776 0.37848 0.27871 0.0
H3143 H 0.18621 0.41328 0.04134 0.0
H3144 H 0.24084 0.46426 0.00634 0.0
H3145 H 0.21201 0.49399 0.00167 0.0
H3146 H 0.13505 0.42222 0.0028 0.0
H3147 H 0.11425 0.4213 0.02721 0.0
H3148 H 0.13935 0.40418 0.02857 0.0
H3149 H 0.15421 0.42858 0.07134 0.0
H3150 H 0.12891 0.44541 0.07001 0.0
H3151 H 0.15956 0.46322 0.07477 0.0
H3152 H 0.17734 0.51814 1.00021 0.0
H3153 H 0.13854 0.53448 1.00108 0.0
H3154 H 0.10575 0.46819 0.03668 0.0
C3155 C 0.1921 0.43074 0.03278 0.0
C3156 C 0.21587 0.43643 0.02424 0.0
C3157 C 0.22279 0.45943 0.01302 0.0
C3158 C 0.20653 0.47651 0.01032 0.0
C3159 C 0.1833 0.47039 0.01889 0.0
C3160 C 0.17599 0.44805 0.02984 0.0
C3161 C 0.14971 0.4459 0.0369 0.0
C3162 C 0.13364 0.42198 0.02304 0.0
C3163 C 0.14801 0.44578 0.06492 0.0
C3164 C 0.14344 0.47044 0.02813 0.0
C3165 C 0.16314 0.48431 0.0179 0.0
C3166 C 0.1618 0.50747 0.00822 0.0
C3167 C 0.13969 0.51663 0.00881 0.0
C3168 C 0.11917 0.50266 0.01896 0.0
C3169 C 0.12117 0.47934 0.02888 0.0
H3170 H 0.86826 0.95304 0.26864 0.0
H3171 H 0.82892 0.9762 0.20676 0.0
H3172 H 0.80251 0.93338 0.2014 0.0
H3173 H 0.86514 0.88551 0.24487 0.0
H3174 H 0.86066 0.87425 0.2748 0.0
H3175 H 0.87784 0.90581 0.27222 0.0
H3176 H 0.84897 0.92536 0.30151 0.0
H3177 H 0.83171 0.89382 0.30384 0.0
H3178 H 0.81663 0.91881 0.29387 0.0
H3179 H 0.77926 0.88898 0.20395 0.0
H3180 H 0.76018 0.84615 0.21463 0.0
H3181 H 0.81383 0.85215 0.27563 0.0
C3182 C 0.85435 0.94894 0.2537 0.0
C3183 C 0.85073 0.96784 0.23796 0.0
C3184 C 0.83205 0.96194 0.21893 0.0
C3185 C 0.817 0.93768 0.21573 0.0
C3186 C 0.82083 0.91959 0.23177 0.0
C3187 C 0.83903 0.9249 0.25039 0.0
C3188 C 0.83837 0.90259 0.26599 0.0
C3189 C 0.86191 0.89139 0.26435 0.0
C3190 C 0.83363 0.91063 0.29289 0.0
C3191 C 0.81682 0.88399 0.25336 0.0
C3192 C 0.8071 0.89412 0.23356 0.0
C3193 C 0.78678 0.8808 0.21933 0.0
C3194 C 0.77605 0.85653 0.22557 0.0
C3195 C 0.78557 0.84589 0.24591 0.0
C3196 C 0.8063 0.85977 0.25988 0.0
H3197 H 0.67178 0.08363 0.77469 0.0
H3198 H 0.68574 0.05449 0.7008 0.0
H3199 H 0.7104 0.09663 0.69485 0.0
H3200 H 0.66672 0.14743 0.76146 0.0
H3201 H 0.68201 0.16255 0.79014 0.0
H3202 H 0.66533 0.13016 0.78847 0.0
H3203 H 0.70396 0.11472 0.8049 0.0
H3204 H 0.72076 0.14706 0.80659 0.0
H3205 H 0.73173 0.1214 0.78911 0.0
H3206 H 0.73236 0.1422 0.69652 0.0
H3207 H 0.75174 0.18764 0.70632 0.0
H3208 H 0.72491 0.18641 0.7798 0.0
C3209 C 0.68 0.08616 0.75725 0.0
C3210 C 0.67682 0.06591 0.73814 0.0
C3211 C 0.688 0.06981 0.71566 0.0
C3212 C 0.70199 0.09365 0.71211 0.0
C3213 C 0.70478 0.11323 0.73132 0.0
C3214 C 0.69426 0.10971 0.75351 0.0
C3215 C 0.7004 0.13377 0.77131 0.0
C3216 C 0.67723 0.14408 0.77824 0.0
C3217 C 0.71509 0.12894 0.79434 0.0
C3218 C 0.71588 0.15144 0.75558 0.0
C3219 C 0.71807 0.13926 0.73254 0.0
C3220 C 0.73091 0.1519 0.71456 0.0
C3221 C 0.74179 0.17771 0.72028 0.0
C3222 C 0.73993 0.1905 0.74385 0.0
C3223 C 0.72689 0.17707 0.76172 0.0
loop_
_geom_bond_atom_site_label_1
_geom_bond_atom_site_label_2
_geom_bond_distance
_geom_bond_site_symmetry_2
_ccdc_geom_bond_type
In0 O1 2.294 . S
In0 O2 2.326 . S
In0 O6 2.295 . S
In0 O7 2.326 1_455 S
In0 O8 2.266 . S
In0 O9 2.326 . S
In0 O11 2.294 . S
In0 O12 2.326 . S
O1 In0 2.294 . S
O1 C10 1.240 . S
O2 In0 2.326 . S
O2 C10 1.252 . S
C3 O6 1.216 1_655 S
C3 O7 1.260 . S
C4 O11 1.240 . S
C4 O12 1.252 . S
C5 O8 1.252 . S
C5 O9 1.260 . S
O6 In0 2.295 . S
O6 C3 1.216 1_455 S
O7 In0 2.326 1_655 S
O7 C3 1.260 . S
O8 In0 2.266 . S
O8 C5 1.252 . S
O9 In0 2.326 . S
O9 C5 1.260 . S
C10 O1 1.240 . S
C10 O2 1.252 . S
O11 In0 2.294 . S
O11 C4 1.240 . S
O12 In0 2.326 . S
O12 C4 1.252 . S
In13 O14 2.294 . S
In13 O15 2.326 . S
In13 O19 2.266 . S
In13 O20 2.326 . S
In13 O21 2.266 1_455 S
In13 O22 2.326 1_455 S
In13 O24 2.294 . S
In13 O25 2.326 . S
O14 In13 2.294 . S
O14 C23 1.240 . S
O15 In13 2.326 . S
O15 C23 1.252 . S
C16 O19 1.252 . S
C16 O20 1.260 . S
C17 O24 1.240 . S
C17 O25 1.252 . S
C18 O21 1.252 . S
C18 O22 1.260 . S
O19 In13 2.266 . S
O19 C16 1.252 . S
O20 In13 2.326 . S
O20 C16 1.260 . S
O21 In13 2.266 1_655 S
O21 C18 1.252 . S
O22 In13 2.326 1_655 S
O22 C18 1.260 . S
C23 O14 1.240 . S
C23 O15 1.252 . S
O24 In13 2.294 . S
O24 C17 1.240 . S
O25 In13 2.326 . S
O25 C17 1.252 . S
In26 O27 2.294 . S
In26 O28 2.326 . S
In26 O32 2.266 . S
In26 O33 2.326 . S
In26 O34 2.266 . S
In26 O35 2.326 . S
In26 O37 2.294 . S
In26 O38 2.326 . S
O27 In26 2.294 . S
O27 C36 1.240 . S
O28 In26 2.326 . S
O28 C36 1.252 . S
C29 O32 1.252 . S
C29 O33 1.260 . S
C30 O37 1.240 . S
C30 O38 1.252 . S
C31 O34 1.252 . S
C31 O35 1.260 . S
O32 In26 2.266 . S
O32 C29 1.252 . S
O33 In26 2.326 . S
O33 C29 1.260 . S
O34 In26 2.266 . S
O34 C31 1.252 . S
O35 In26 2.326 . S
O35 C31 1.260 . S
C36 O27 1.240 . S
C36 O28 1.252 . S
O37 In26 2.294 . S
O37 C30 1.240 . S
O38 In26 2.326 . S
O38 C30 1.252 . S
In39 O40 2.294 . S
In39 O41 2.326 . S
In39 O45 2.266 . S
In39 O46 2.326 . S
In39 O47 2.266 . S
In39 O48 2.326 . S
In39 O50 2.294 . S
In39 O51 2.326 . S
O40 In39 2.294 . S
O40 C49 1.240 . S
O41 In39 2.326 . S
O41 C49 1.252 . S
C42 O45 1.252 . S
C42 O46 1.260 . S
C43 O50 1.240 . S
C43 O51 1.252 . S
C44 O47 1.252 . S
C44 O48 1.260 . S
O45 In39 2.266 . S
O45 C42 1.252 . S
O46 In39 2.326 . S
O46 C42 1.260 . S
O47 In39 2.266 . S
O47 C44 1.252 . S
O48 In39 2.326 . S
O48 C44 1.260 . S
C49 O40 1.240 . S
C49 O41 1.252 . S
O50 In39 2.294 . S
O50 C43 1.240 . S
O51 In39 2.326 . S
O51 C43 1.252 . S
In52 O53 2.294 . S
In52 O54 2.326 . S
In52 O58 2.266 . S
In52 O59 2.326 . S
In52 O60 2.266 . S
In52 O61 2.326 . S
In52 O63 2.294 . S
In52 O64 2.326 1_455 S
O53 In52 2.294 . S
O53 C62 1.240 . S
O54 In52 2.326 . S
O54 C62 1.252 . S
C55 O58 1.252 . S
C55 O59 1.260 . S
C56 O63 1.240 1_655 S
C56 O64 1.252 . S
C57 O60 1.252 . S
C57 O61 1.260 . S
O58 In52 2.266 . S
O58 C55 1.252 . S
O59 In52 2.326 . S
O59 C55 1.260 . S
O60 In52 2.266 . S
O60 C57 1.252 . S
O61 In52 2.326 . S
O61 C57 1.260 . S
C62 O53 1.240 . S
C62 O54 1.252 . S
O63 In52 2.294 . S
O63 C56 1.240 1_455 S
O64 In52 2.326 1_655 S
O64 C56 1.252 . S
In65 O66 2.294 . S
In65 O67 2.326 . S
In65 O71 2.266 . S
In65 O72 2.326 . S
In65 O73 2.266 . S
In65 O74 2.326 . S
In65 O76 2.294 . S
In65 O77 2.326 . S
O66 In65 2.294 . S
O66 C75 1.240 . S
O67 In65 2.326 . S
O67 C75 1.252 . S
C68 O71 1.252 . S
C68 O72 1.260 . S
C69 O76 1.240 . S
C69 O77 1.252 . S
C70 O73 1.252 . S
C70 O74 1.260 . S
O71 In65 2.266 . S
O71 C68 1.252 . S
O72 In65 2.326 . S
O72 C68 1.260 . S
O73 In65 2.266 . S
O73 C70 1.252 . S
O74 In65 2.326 . S
O74 C70 1.260 . S
C75 O66 1.240 . S
C75 O67 1.252 . S
O76 In65 2.294 . S
O76 C69 1.240 . S
O77 In65 2.326 . S
O77 C69 1.252 . S
In78 O79 2.294 . S
In78 O80 2.326 . S
In78 O84 2.266 . S
In78 O85 2.326 . S
In78 O86 2.266 . S
In78 O87 2.326 . S
In78 O89 2.294 . S
In78 O90 2.326 . S
O79 In78 2.294 . S
O79 C88 1.240 . S
O80 In78 2.326 . S
O80 C88 1.252 . S
C81 O84 1.252 . S
C81 O85 1.260 . S
C82 O89 1.240 . S
C82 O90 1.252 . S
C83 O86 1.252 . S
C83 O87 1.260 . S
O84 In78 2.266 . S
O84 C81 1.252 . S
O85 In78 2.326 . S
O85 C81 1.260 . S
O86 In78 2.266 . S
O86 C83 1.252 . S
O87 In78 2.326 . S
O87 C83 1.260 . S
C88 O79 1.240 . S
C88 O80 1.252 . S
O89 In78 2.294 . S
O89 C82 1.240 . S
O90 In78 2.326 . S
O90 C82 1.252 . S
In91 O92 2.294 . S
In91 O93 2.326 . S
In91 O97 2.266 . S
In91 O98 2.326 . S
In91 O99 2.266 1_455 S
In91 O100 2.326 1_455 S
In91 O102 2.294 . S
In91 O103 2.326 . S
O92 In91 2.294 . S
O92 C101 1.240 . S
O93 In91 2.326 . S
O93 C101 1.252 . S
C94 O97 1.252 . S
C94 O98 1.260 . S
C95 O102 1.240 . S
C95 O103 1.252 . S
C96 O99 1.252 . S
C96 O100 1.260 . S
O97 In91 2.266 . S
O97 C94 1.252 . S
O98 In91 2.326 . S
O98 C94 1.260 . S
O99 In91 2.266 1_655 S
O99 C96 1.252 . S
O100 In91 2.326 1_655 S
O100 C96 1.260 . S
C101 O92 1.240 . S
C101 O93 1.252 . S
O102 In91 2.294 . S
O102 C95 1.240 . S
O103 In91 2.326 . S
O103 C95 1.252 . S
In104 O105 2.294 . S
In104 O106 2.326 . S
In104 O110 2.266 . S
In104 O111 2.326 . S
In104 O112 2.266 1_545 S
In104 O113 2.326 1_545 S
In104 O115 2.294 . S
In104 O116 2.326 . S
O105 In104 2.294 . S
O105 C114 1.240 . S
O106 In104 2.326 . S
O106 C114 1.252 . S
C107 O110 1.252 . S
C107 O111 1.260 . S
C108 O115 1.240 . S
C108 O116 1.252 . S
C109 O112 1.252 . S
C109 O113 1.260 . S
O110 In104 2.266 . S
O110 C107 1.252 . S
O111 In104 2.326 . S
O111 C107 1.260 . S
O112 In104 2.266 1_565 S
O112 C109 1.252 . S
O113 In104 2.326 1_565 S
O113 C109 1.260 . S
C114 O105 1.240 . S
C114 O106 1.252 . S
O115 In104 2.294 . S
O115 C108 1.240 . S
O116 In104 2.326 . S
O116 C108 1.252 . S
In117 O118 2.294 . S
In117 O119 2.326 . S
In117 O123 2.266 . S
In117 O124 2.326 . S
In117 O125 2.266 . S
In117 O126 2.326 . S
In117 O128 2.294 . S
In117 O129 2.326 . S
O118 In117 2.294 . S
O118 C127 1.240 . S
O119 In117 2.326 . S
O119 C127 1.252 . S
C120 O123 1.252 . S
C120 O124 1.260 . S
C121 O128 1.240 . S
C121 O129 1.252 . S
C122 O125 1.252 . S
C122 O126 1.260 . S
O123 In117 2.266 . S
O123 C120 1.252 . S
O124 In117 2.326 . S
O124 C120 1.260 . S
O125 In117 2.266 . S
O125 C122 1.252 . S
O126 In117 2.326 . S
O126 C122 1.260 . S
C127 O118 1.240 . S
C127 O119 1.252 . S
O128 In117 2.294 . S
O128 C121 1.240 . S
O129 In117 2.326 . S
O129 C121 1.252 . S
In130 O131 2.294 1_545 S
In130 O132 2.326 1_545 S
In130 O136 2.266 . S
In130 O137 2.326 . S
In130 O138 2.264 . S
In130 O139 2.322 . S
In130 O141 2.296 1_545 S
In130 O142 2.330 1_545 S
O131 In130 2.294 1_565 S
O131 C140 1.240 . S
O132 In130 2.326 1_565 S
O132 C140 1.252 . S
C133 O136 1.252 . S
C133 O137 1.260 . S
C134 O141 1.240 . S
C134 O142 1.252 . S
C135 O138 1.252 . S
C135 O139 1.260 . S
O136 In130 2.266 . S
O136 C133 1.252 . S
O137 In130 2.326 . S
O137 C133 1.260 . S
O138 In130 2.264 . S
O138 C135 1.252 . S
O139 In130 2.322 . S
O139 C135 1.260 . S
C140 O131 1.240 . S
C140 O132 1.252 . S
O141 In130 2.296 1_565 S
O141 C134 1.240 . S
O142 In130 2.330 1_565 S
O142 C134 1.252 . S
In143 O144 2.294 . S
In143 O145 2.326 . S
In143 O149 2.266 1_554 S
In143 O150 2.326 1_554 S
In143 O151 2.266 . S
In143 O152 2.326 . S
In143 O154 2.294 . S
In143 O155 2.326 . S
O144 In143 2.294 . S
O144 C153 1.240 . S
O145 In143 2.326 . S
O145 C153 1.252 . S
C146 O149 1.252 . S
C146 O150 1.260 . S
C147 O154 1.240 . S
C147 O155 1.252 . S
C148 O151 1.252 . S
C148 O152 1.260 . S
O149 In143 2.266 1_556 S
O149 C146 1.252 . S
O150 In143 2.326 1_556 S
O150 C146 1.260 . S
O151 In143 2.266 . S
O151 C148 1.252 . S
O152 In143 2.326 . S
O152 C148 1.260 . S
C153 O144 1.240 . S
C153 O145 1.252 . S
O154 In143 2.294 . S
O154 C147 1.240 . S
O155 In143 2.326 . S
O155 C147 1.252 . S
In156 O157 2.294 . S
In156 O158 2.326 . S
In156 O162 2.266 1_554 S
In156 O163 2.326 1_554 S
In156 O164 2.266 . S
In156 O165 2.326 . S
In156 O167 2.294 . S
In156 O168 2.326 . S
O157 In156 2.294 . S
O157 C166 1.240 . S
O158 In156 2.326 . S
O158 C166 1.252 . S
C159 O162 1.252 . S
C159 O163 1.260 . S
C160 O167 1.240 . S
C160 O168 1.252 . S
C161 O164 1.252 . S
C161 O165 1.260 . S
O162 In156 2.266 1_556 S
O162 C159 1.252 . S
O163 In156 2.326 1_556 S
O163 C159 1.260 . S
O164 In156 2.266 . S
O164 C161 1.252 . S
O165 In156 2.326 . S
O165 C161 1.260 . S
C166 O157 1.240 . S
C166 O158 1.252 . S
O167 In156 2.294 . S
O167 C160 1.240 . S
O168 In156 2.326 . S
O168 C160 1.252 . S
In169 O170 2.294 . S
In169 O171 2.326 . S
In169 O175 2.266 1_554 S
In169 O176 2.326 . S
In169 O177 2.266 1_554 S
In169 O178 2.326 1_554 S
In169 O180 2.294 . S
In169 O181 2.326 . S
O170 In169 2.294 . S
O170 C179 1.240 . S
O171 In169 2.326 . S
O171 C179 1.252 . S
C172 O175 1.252 . S
C172 O176 1.260 1_556 S
C173 O180 1.240 . S
C173 O181 1.252 . S
C174 O177 1.252 . S
C174 O178 1.260 . S
O175 In169 2.266 1_556 S
O175 C172 1.252 . S
O176 In169 2.326 . S
O176 C172 1.260 1_554 S
O177 In169 2.266 1_556 S
O177 C174 1.252 . S
O178 In169 2.326 1_556 S
O178 C174 1.260 . S
C179 O170 1.240 . S
C179 O171 1.252 . S
O180 In169 2.294 . S
O180 C173 1.240 . S
O181 In169 2.326 . S
O181 C173 1.252 . S
In182 O183 2.294 . S
In182 O184 2.326 . S
In182 O188 2.266 . S
In182 O189 2.326 . S
In182 O190 2.266 . S
In182 O191 2.326 . S
In182 O193 2.294 . S
In182 O194 2.326 . S
O183 In182 2.294 . S
O183 C192 1.240 . S
O184 In182 2.326 . S
O184 C192 1.252 . S
C185 O188 1.252 . S
C185 O189 1.260 . S
C186 O193 1.240 . S
C186 O194 1.252 . S
C187 O190 1.252 . S
C187 O191 1.260 . S
O188 In182 2.266 . S
O188 C185 1.252 . S
O189 In182 2.326 . S
O189 C185 1.260 . S
O190 In182 2.266 . S
O190 C187 1.252 . S
O191 In182 2.326 . S
O191 C187 1.260 . S
C192 O183 1.240 . S
C192 O184 1.252 . S
O193 In182 2.294 . S
O193 C186 1.240 . S
O194 In182 2.326 . S
O194 C186 1.252 . S
In195 O196 2.294 . S
In195 O197 2.326 . S
In195 O201 2.266 . S
In195 O202 2.326 . S
In195 O203 2.266 . S
In195 O204 2.326 . S
In195 O206 2.294 . S
In195 O207 2.326 . S
O196 In195 2.294 . S
O196 C205 1.240 . S
O197 In195 2.326 . S
O197 C205 1.252 . S
C198 O201 1.252 . S
C198 O202 1.260 . S
C199 O206 1.240 . S
C199 O207 1.252 . S
C200 O203 1.252 . S
C200 O204 1.260 . S
O201 In195 2.266 . S
O201 C198 1.252 . S
O202 In195 2.326 . S
O202 C198 1.260 . S
O203 In195 2.266 . S
O203 C200 1.252 . S
O204 In195 2.326 . S
O204 C200 1.260 . S
C205 O196 1.240 . S
C205 O197 1.252 . S
O206 In195 2.294 . S
O206 C199 1.240 . S
O207 In195 2.326 . S
O207 C199 1.252 . S
In208 O209 2.294 . S
In208 O210 2.326 . S
In208 O214 2.266 . S
In208 O215 2.326 . S
In208 O216 2.266 . S
In208 O217 2.326 . S
In208 O219 2.294 . S
In208 O220 2.326 . S
O209 In208 2.294 . S
O209 C218 1.240 . S
O210 In208 2.326 . S
O210 C218 1.252 . S
C211 O214 1.252 . S
C211 O215 1.260 . S
C212 O219 1.240 . S
C212 O220 1.252 . S
C213 O216 1.252 1_565 S
C213 O217 1.260 1_565 S
O214 In208 2.266 . S
O214 C211 1.252 . S
O215 In208 2.326 . S
O215 C211 1.260 . S
O216 In208 2.266 . S
O216 C213 1.252 1_545 S
O217 In208 2.326 . S
O217 C213 1.260 1_545 S
C218 O209 1.240 . S
C218 O210 1.252 . S
O219 In208 2.294 . S
O219 C212 1.240 . S
O220 In208 2.326 . S
O220 C212 1.252 . S
In221 O222 2.294 . S
In221 O223 2.326 . S
In221 O227 2.266 . S
In221 O228 2.326 . S
In221 O229 2.266 . S
In221 O230 2.326 . S
In221 O232 2.294 . S
In221 O233 2.326 . S
O222 In221 2.294 . S
O222 C231 1.240 . S
O223 In221 2.326 . S
O223 C231 1.252 . S
C224 O227 1.252 . S
C224 O228 1.260 . S
C225 O232 1.240 . S
C225 O233 1.252 . S
C226 O229 1.252 . S
C226 O230 1.260 . S
O227 In221 2.266 . S
O227 C224 1.252 . S
O228 In221 2.326 . S
O228 C224 1.260 . S
O229 In221 2.266 . S
O229 C226 1.252 . S
O230 In221 2.326 . S
O230 C226 1.260 . S
C231 O222 1.240 . S
C231 O223 1.252 . S
O232 In221 2.294 . S
O232 C225 1.240 . S
O233 In221 2.326 . S
O233 C225 1.252 . S
In234 O235 2.294 . S
In234 O236 2.326 . S
In234 O240 2.266 . S
In234 O241 2.326 . S
In234 O242 2.266 . S
In234 O243 2.326 . S
In234 O245 2.294 . S
In234 O246 2.326 . S
O235 In234 2.294 . S
O235 C244 1.240 . S
O236 In234 2.326 . S
O236 C244 1.252 . S
C237 O240 1.252 . S
C237 O241 1.260 . S
C238 O245 1.240 . S
C238 O246 1.252 . S
C239 O242 1.252 . S
C239 O243 1.260 . S
O240 In234 2.266 . S
O240 C237 1.252 . S
O241 In234 2.326 . S
O241 C237 1.260 . S
O242 In234 2.266 . S
O242 C239 1.252 . S
O243 In234 2.326 . S
O243 C239 1.260 . S
C244 O235 1.240 . S
C244 O236 1.252 . S
O245 In234 2.294 . S
O245 C238 1.240 . S
O246 In234 2.326 . S
O246 C238 1.252 . S
In247 O248 2.294 . S
In247 O249 2.326 1_545 S
In247 O253 2.266 . S
In247 O254 2.326 . S
In247 O255 2.266 . S
In247 O256 2.326 . S
In247 O258 2.294 . S
In247 O259 2.326 . S
O248 In247 2.294 . S
O248 C257 1.240 1_545 S
O249 In247 2.326 1_565 S
O249 C257 1.252 . S
C250 O253 1.252 . S
C250 O254 1.260 . S
C251 O258 1.240 . S
C251 O259 1.252 . S
C252 O255 1.252 . S
C252 O256 1.260 . S
O253 In247 2.266 . S
O253 C250 1.252 . S
O254 In247 2.326 . S
O254 C250 1.260 . S
O255 In247 2.266 . S
O255 C252 1.252 . S
O256 In247 2.326 . S
O256 C252 1.260 . S
C257 O248 1.240 1_565 S
C257 O249 1.252 . S
O258 In247 2.294 . S
O258 C251 1.240 . S
O259 In247 2.326 . S
O259 C251 1.252 . S
In260 O261 2.294 . S
In260 O262 2.326 . S
In260 O266 2.266 . S
In260 O267 2.326 . S
In260 O268 2.266 1_554 S
In260 O269 2.326 1_554 S
In260 O271 2.294 . S
In260 O272 2.326 . S
O261 In260 2.294 . S
O261 C270 1.240 . S
O262 In260 2.326 . S
O262 C270 1.252 . S
C263 O266 1.252 . S
C263 O267 1.260 . S
C264 O271 1.240 . S
C264 O272 1.252 . S
C265 O268 1.252 . S
C265 O269 1.260 . S
O266 In260 2.266 . S
O266 C263 1.252 . S
O267 In260 2.326 . S
O267 C263 1.260 . S
O268 In260 2.266 1_556 S
O268 C265 1.252 . S
O269 In260 2.326 1_556 S
O269 C265 1.260 . S
C270 O261 1.240 . S
C270 O262 1.252 . S
O271 In260 2.294 . S
O271 C264 1.240 . S
O272 In260 2.326 . S
O272 C264 1.252 . S
In273 O274 2.294 . S
In273 O275 2.326 . S
In273 O279 2.266 . S
In273 O280 2.326 . S
In273 O281 2.266 . S
In273 O282 2.326 . S
In273 O284 2.294 . S
In273 O285 2.326 . S
O274 In273 2.294 . S
O274 C283 1.240 . S
O275 In273 2.326 . S
O275 C283 1.252 . S
C276 O279 1.252 . S
C276 O280 1.260 . S
C277 O284 1.240 . S
C277 O285 1.252 . S
C278 O281 1.252 . S
C278 O282 1.260 . S
O279 In273 2.266 . S
O279 C276 1.252 . S
O280 In273 2.326 . S
O280 C276 1.260 . S
O281 In273 2.266 . S
O281 C278 1.252 . S
O282 In273 2.326 . S
O282 C278 1.260 . S
C283 O274 1.240 . S
C283 O275 1.252 . S
O284 In273 2.294 . S
O284 C277 1.240 . S
O285 In273 2.326 . S
O285 C277 1.252 . S
In286 O287 2.294 . S
In286 O288 2.326 . S
In286 O292 2.266 . S
In286 O293 2.326 . S
In286 O294 2.266 . S
In286 O295 2.326 . S
In286 O297 2.294 . S
In286 O298 2.326 . S
O287 In286 2.294 . S
O287 C296 1.240 . S
O288 In286 2.326 . S
O288 C296 1.252 . S
C289 O292 1.252 . S
C289 O293 1.260 . S
C290 O297 1.240 . S
C290 O298 1.252 . S
C291 O294 1.252 . S
C291 O295 1.260 . S
O292 In286 2.266 . S
O292 C289 1.252 . S
O293 In286 2.326 . S
O293 C289 1.260 . S
O294 In286 2.266 . S
O294 C291 1.252 . S
O295 In286 2.326 . S
O295 C291 1.260 . S
C296 O287 1.240 . S
C296 O288 1.252 . S
O297 In286 2.294 . S
O297 C290 1.240 . S
O298 In286 2.326 . S
O298 C290 1.252 . S
In299 O300 2.294 . S
In299 O301 2.326 . S
In299 O305 2.266 . S
In299 O306 2.326 . S
In299 O307 2.266 . S
In299 O308 2.326 . S
In299 O310 2.294 . S
In299 O311 2.326 . S
O300 In299 2.294 . S
O300 C309 1.240 . S
O301 In299 2.326 . S
O301 C309 1.252 . S
C302 O305 1.252 . S
C302 O306 1.260 . S
C303 O310 1.240 . S
C303 O311 1.252 . S
C304 O307 1.252 . S
C304 O308 1.260 . S
O305 In299 2.266 . S
O305 C302 1.252 . S
O306 In299 2.326 . S
O306 C302 1.260 . S
O307 In299 2.266 . S
O307 C304 1.252 . S
O308 In299 2.326 . S
O308 C304 1.260 . S
C309 O300 1.240 . S
C309 O301 1.252 . S
O310 In299 2.294 . S
O310 C303 1.240 . S
O311 In299 2.326 . S
O311 C303 1.252 . S
Dy312 O316 2.398 1_554 S
Dy312 O317 2.491 . S
Dy312 O318 2.403 1_654 S
Dy312 O319 2.664 1_655 S
Dy312 O323 2.326 1_655 S
Dy312 O327 2.310 1_655 S
Dy312 O328 2.351 1_645 S
C313 O324 1.185 . S
C313 O325 1.355 . S
C314 O316 1.185 1_554 S
C314 O317 1.355 . S
Dy315 O319 2.310 . S
Dy315 O322 2.351 . S
Dy315 O324 2.398 . S
Dy315 O325 2.491 . S
Dy315 O326 2.403 . S
Dy315 O327 2.664 . S
Dy315 O329 2.326 . S
O316 Dy312 2.398 1_556 S
O316 C314 1.185 1_556 S
O317 Dy312 2.491 . S
O317 C314 1.355 . S
O318 Dy312 2.403 1_456 S
O318 C320 1.254 . S
O319 Dy312 2.664 1_455 S
O319 Dy315 2.310 . S
O319 C320 1.268 1_554 S
C320 O318 1.254 . S
C320 O319 1.268 1_556 S
C321 O326 1.254 . S
C321 O327 1.268 . S
O322 Dy315 2.351 . S
O322 C330 1.249 . S
O323 Dy312 2.326 1_455 S
O323 C330 1.267 . S
O324 C313 1.185 . S
O324 Dy315 2.398 . S
O325 C313 1.355 . S
O325 Dy315 2.491 . S
O326 Dy315 2.403 . S
O326 C321 1.254 . S
O327 Dy312 2.310 1_455 S
O327 Dy315 2.664 . S
O327 C321 1.268 . S
O328 Dy312 2.351 1_465 S
O328 C331 1.249 . S
O329 Dy315 2.326 . S
O329 C331 1.267 1_545 S
C330 O322 1.249 . S
C330 O323 1.267 . S
C331 O328 1.249 . S
C331 O329 1.267 1_565 S
Dy332 O336 2.398 . S
Dy332 O337 2.491 . S
Dy332 O338 2.403 . S
Dy332 O339 2.664 . S
Dy332 O343 2.326 . S
Dy332 O347 2.310 . S
Dy332 O348 2.351 . S
C333 O344 1.185 . S
C333 O345 1.355 . S
C334 O336 1.185 . S
C334 O337 1.355 . S
Dy335 O339 2.310 . S
Dy335 O342 2.351 . S
Dy335 O344 2.398 . S
Dy335 O345 2.491 . S
Dy335 O346 2.403 . S
Dy335 O347 2.664 . S
Dy335 O349 2.326 . S
O336 Dy332 2.398 . S
O336 C334 1.185 . S
O337 Dy332 2.491 . S
O337 C334 1.355 . S
O338 Dy332 2.403 . S
O338 C340 1.254 . S
O339 Dy332 2.664 . S
O339 Dy335 2.310 . S
O339 C340 1.268 . S
C340 O338 1.254 . S
C340 O339 1.268 . S
C341 O346 1.254 . S
C341 O347 1.268 . S
O342 Dy335 2.351 . S
O342 C350 1.249 . S
O343 Dy332 2.326 . S
O343 C350 1.267 . S
O344 C333 1.185 . S
O344 Dy335 2.398 . S
O345 C333 1.355 . S
O345 Dy335 2.491 . S
O346 Dy335 2.403 . S
O346 C341 1.254 . S
O347 Dy332 2.310 . S
O347 Dy335 2.664 . S
O347 C341 1.268 . S
O348 Dy332 2.351 . S
O348 C351 1.249 . S
O349 Dy335 2.326 . S
O349 C351 1.267 . S
C350 O342 1.249 . S
C350 O343 1.267 . S
C351 O348 1.249 . S
C351 O349 1.267 . S
Dy352 O356 2.398 1_545 S
Dy352 O357 2.491 1_545 S
Dy352 O358 2.403 . S
Dy352 O359 2.664 . S
Dy352 O363 2.326 1_545 S
Dy352 O367 2.310 . S
Dy352 O368 2.351 . S
C353 O364 1.185 . S
C353 O365 1.355 . S
C354 O356 1.185 . S
C354 O357 1.355 . S
Dy355 O359 2.310 . S
Dy355 O362 2.351 1_545 S
Dy355 O364 2.398 . S
Dy355 O365 2.491 . S
Dy355 O366 2.403 . S
Dy355 O367 2.664 . S
Dy355 O369 2.326 . S
O356 Dy352 2.398 1_565 S
O356 C354 1.185 . S
O357 Dy352 2.491 1_565 S
O357 C354 1.355 . S
O358 Dy352 2.403 . S
O358 C360 1.254 . S
O359 Dy352 2.664 . S
O359 Dy355 2.310 . S
O359 C360 1.268 . S
C360 O358 1.254 . S
C360 O359 1.268 . S
C361 O366 1.254 . S
C361 O367 1.268 . S
O362 Dy355 2.351 1_565 S
O362 C370 1.249 . S
O363 Dy352 2.326 1_565 S
O363 C370 1.267 . S
O364 C353 1.185 . S
O364 Dy355 2.398 . S
O365 C353 1.355 . S
O365 Dy355 2.491 . S
O366 Dy355 2.403 . S
O366 C361 1.254 . S
O367 Dy352 2.310 . S
O367 Dy355 2.664 . S
O367 C361 1.268 . S
O368 Dy352 2.351 . S
O368 C371 1.249 . S
O369 Dy355 2.326 . S
O369 C371 1.267 . S
C370 O362 1.249 . S
C370 O363 1.267 . S
C371 O368 1.249 . S
C371 O369 1.267 . S
Dy372 O376 2.398 . S
Dy372 O377 2.491 . S
Dy372 O378 2.403 . S
Dy372 O379 2.664 . S
Dy372 O383 2.326 . S
Dy372 O387 2.310 . S
Dy372 O388 2.351 . S
C373 O384 1.185 . S
C373 O385 1.355 . S
C374 O376 1.185 . S
C374 O377 1.355 . S
Dy375 O379 2.310 . S
Dy375 O382 2.351 . S
Dy375 O384 2.398 . S
Dy375 O385 2.491 . S
Dy375 O386 2.403 . S
Dy375 O387 2.664 . S
Dy375 O389 2.326 . S
O376 Dy372 2.398 . S
O376 C374 1.185 . S
O377 Dy372 2.491 . S
O377 C374 1.355 . S
O378 Dy372 2.403 . S
O378 C380 1.254 . S
O379 Dy372 2.664 . S
O379 Dy375 2.310 . S
O379 C380 1.268 . S
C380 O378 1.254 . S
C380 O379 1.268 . S
C381 O386 1.254 . S
C381 O387 1.268 . S
O382 Dy375 2.351 . S
O382 C390 1.249 . S
O383 Dy372 2.326 . S
O383 C390 1.267 . S
O384 C373 1.185 . S
O384 Dy375 2.398 . S
O385 C373 1.355 . S
O385 Dy375 2.491 . S
O386 Dy375 2.403 . S
O386 C381 1.254 . S
O387 Dy372 2.310 . S
O387 Dy375 2.664 . S
O387 C381 1.268 . S
O388 Dy372 2.351 . S
O388 C391 1.249 . S
O389 Dy375 2.326 . S
O389 C391 1.267 . S
C390 O382 1.249 . S
C390 O383 1.267 . S
C391 O388 1.249 . S
C391 O389 1.267 . S
Dy392 O396 2.398 1_565 S
Dy392 O397 2.491 1_465 S
Dy392 O398 2.403 1_565 S
Dy392 O399 2.664 1_565 S
Dy392 O403 2.326 1_565 S
Dy392 O407 2.310 1_565 S
Dy392 O408 2.351 . S
C393 O404 1.185 . S
C393 O405 1.355 . S
C394 O396 1.185 . S
C394 O397 1.355 1_455 S
Dy395 O399 2.310 . S
Dy395 O402 2.351 . S
Dy395 O404 2.398 . S
Dy395 O405 2.491 . S
Dy395 O406 2.403 1_455 S
Dy395 O407 2.664 . S
Dy395 O409 2.326 1_545 S
O396 Dy392 2.398 1_545 S
O396 C394 1.185 . S
O397 Dy392 2.491 1_645 S
O397 C394 1.355 1_655 S
O398 Dy392 2.403 1_545 S
O398 C400 1.254 . S
O399 Dy392 2.664 1_545 S
O399 Dy395 2.310 . S
O399 C400 1.268 . S
C400 O398 1.254 . S
C400 O399 1.268 . S
C401 O406 1.255 . S
C401 O407 1.268 1_655 S
O402 Dy395 2.351 . S
O402 C410 1.249 . S
O403 Dy392 2.326 1_545 S
O403 C410 1.267 . S
O404 C393 1.185 . S
O404 Dy395 2.398 . S
O405 C393 1.355 . S
O405 Dy395 2.491 . S
O406 Dy395 2.403 1_655 S
O406 C401 1.255 . S
O407 Dy392 2.310 1_545 S
O407 Dy395 2.664 . S
O407 C401 1.268 1_455 S
O408 Dy392 2.351 . S
O408 C411 1.249 . S
O409 Dy395 2.326 1_565 S
O409 C411 1.267 . S
C410 O402 1.249 . S
C410 O403 1.267 . S
C411 O408 1.249 . S
C411 O409 1.267 . S
Dy412 O416 2.398 . S
Dy412 O417 2.491 . S
Dy412 O418 2.403 . S
Dy412 O419 2.664 . S
Dy412 O423 2.326 . S
Dy412 O427 2.310 . S
Dy412 O428 2.351 . S
C413 O424 1.185 . S
C413 O425 1.355 . S
C414 O416 1.185 . S
C414 O417 1.355 . S
Dy415 O419 2.310 . S
Dy415 O422 2.351 . S
Dy415 O424 2.398 . S
Dy415 O425 2.491 . S
Dy415 O426 2.403 . S
Dy415 O427 2.664 . S
Dy415 O429 2.326 . S
O416 Dy412 2.398 . S
O416 C414 1.185 . S
O417 Dy412 2.491 . S
O417 C414 1.355 . S
O418 Dy412 2.403 . S
O418 C420 1.254 . S
O419 Dy412 2.664 . S
O419 Dy415 2.310 . S
O419 C420 1.268 . S
C420 O418 1.254 . S
C420 O419 1.268 . S
C421 O426 1.254 . S
C421 O427 1.268 . S
O422 Dy415 2.351 . S
O422 C430 1.249 . S
O423 Dy412 2.326 . S
O423 C430 1.267 . S
O424 C413 1.185 . S
O424 Dy415 2.398 . S
O425 C413 1.355 . S
O425 Dy415 2.491 . S
O426 Dy415 2.403 . S
O426 C421 1.254 . S
O427 Dy412 2.310 . S
O427 Dy415 2.664 . S
O427 C421 1.268 . S
O428 Dy412 2.351 . S
O428 C431 1.249 . S
O429 Dy415 2.326 . S
O429 C431 1.267 . S
C430 O422 1.249 . S
C430 O423 1.267 . S
C431 O428 1.249 . S
C431 O429 1.267 . S
Dy432 O436 2.398 1_545 S
Dy432 O437 2.491 . S
Dy432 O438 2.403 1_545 S
Dy432 O439 2.664 1_554 S
Dy432 O443 2.326 . S
Dy432 O447 2.310 . S
Dy432 O448 2.351 . S
C433 O444 1.185 . S
C433 O445 1.355 . S
C434 O436 1.185 1_545 S
C434 O437 1.355 . S
Dy435 O439 2.310 . S
Dy435 O442 2.351 . S
Dy435 O444 2.398 . S
Dy435 O445 2.491 . S
Dy435 O446 2.403 . S
Dy435 O447 2.664 1_556 S
Dy435 O449 2.326 . S
O436 Dy432 2.398 1_565 S
O436 C434 1.185 1_565 S
O437 Dy432 2.491 . S
O437 C434 1.355 . S
O438 Dy432 2.403 1_565 S
O438 C440 1.254 1_554 S
O439 Dy432 2.664 1_556 S
O439 Dy435 2.310 . S
O439 C440 1.268 1_545 S
C440 O438 1.254 1_556 S
C440 O439 1.268 1_565 S
C441 O446 1.254 1_554 S
C441 O447 1.268 . S
O442 Dy435 2.351 . S
O442 C450 1.249 1_556 S
O443 Dy432 2.326 . S
O443 C450 1.267 . S
O444 C433 1.185 . S
O444 Dy435 2.398 . S
O445 C433 1.355 . S
O445 Dy435 2.491 . S
O446 Dy435 2.403 . S
O446 C441 1.254 1_556 S
O447 Dy432 2.310 . S
O447 Dy435 2.664 1_554 S
O447 C441 1.268 . S
O448 Dy432 2.351 . S
O448 C451 1.249 . S
O449 Dy435 2.326 . S
O449 C451 1.267 1_556 S
C450 O442 1.249 1_554 S
C450 O443 1.267 . S
C451 O448 1.249 . S
C451 O449 1.267 1_554 S
Dy452 O456 2.398 . S
Dy452 O457 2.491 . S
Dy452 O458 2.403 . S
Dy452 O459 2.664 . S
Dy452 O463 2.326 . S
Dy452 O467 2.310 . S
Dy452 O468 2.351 . S
C453 O464 1.185 . S
C453 O465 1.355 . S
C454 O456 1.185 . S
C454 O457 1.355 . S
Dy455 O459 2.310 . S
Dy455 O462 2.351 . S
Dy455 O464 2.398 . S
Dy455 O465 2.491 . S
Dy455 O466 2.403 . S
Dy455 O467 2.664 . S
Dy455 O469 2.326 . S
O456 Dy452 2.398 . S
O456 C454 1.185 . S
O457 Dy452 2.491 . S
O457 C454 1.355 . S
O458 Dy452 2.403 . S
O458 C460 1.254 . S
O459 Dy452 2.664 . S
O459 Dy455 2.310 . S
O459 C460 1.268 . S
C460 O458 1.254 . S
C460 O459 1.268 . S
C461 O466 1.254 . S
C461 O467 1.268 . S
O462 Dy455 2.351 . S
O462 C470 1.249 . S
O463 Dy452 2.326 . S
O463 C470 1.267 . S
O464 C453 1.185 . S
O464 Dy455 2.398 . S
O465 C453 1.355 . S
O465 Dy455 2.491 . S
O466 Dy455 2.403 . S
O466 C461 1.254 . S
O467 Dy452 2.310 . S
O467 Dy455 2.664 . S
O467 C461 1.268 . S
O468 Dy452 2.351 . S
O468 C471 1.249 . S
O469 Dy455 2.326 . S
O469 C471 1.267 . S
C470 O462 1.249 . S
C470 O463 1.267 . S
C471 O468 1.249 . S
C471 O469 1.267 . S
Dy472 O476 2.398 . S
Dy472 O477 2.491 . S
Dy472 O478 2.403 . S
Dy472 O479 2.664 1_556 S
Dy472 O483 2.326 . S
Dy472 O487 2.314 . S
Dy472 O488 2.351 . S
C473 O484 1.185 . S
C473 O485 1.355 . S
C474 O476 1.185 . S
C474 O477 1.355 . S
Dy475 O479 2.310 . S
Dy475 O482 2.351 . S
Dy475 O484 2.398 . S
Dy475 O485 2.491 . S
Dy475 O486 2.403 . S
Dy475 O487 2.660 1_554 S
Dy475 O489 2.326 . S
O476 Dy472 2.398 . S
O476 C474 1.185 . S
O477 Dy472 2.491 . S
O477 C474 1.355 . S
O478 Dy472 2.403 . S
O478 C480 1.254 . S
O479 Dy472 2.664 1_554 S
O479 Dy475 2.310 . S
O479 C480 1.268 1_554 S
C480 O478 1.254 . S
C480 O479 1.268 1_556 S
C481 O486 1.254 . S
C481 O487 1.264 1_554 S
O482 Dy475 2.351 . S
O482 C490 1.249 1_554 S
O483 Dy472 2.326 . S
O483 C490 1.267 . S
O484 C473 1.185 . S
O484 Dy475 2.398 . S
O485 C473 1.355 . S
O485 Dy475 2.491 . S
O486 Dy475 2.403 . S
O486 C481 1.254 . S
O487 Dy472 2.314 . S
O487 Dy475 2.660 1_556 S
O487 C481 1.264 1_556 S
O488 Dy472 2.351 . S
O488 C491 1.249 1_556 S
O489 Dy475 2.326 . S
O489 C491 1.267 . S
C490 O482 1.249 1_556 S
C490 O483 1.267 . S
C491 O488 1.249 1_554 S
C491 O489 1.267 . S
Dy492 O496 2.398 . S
Dy492 O497 2.491 . S
Dy492 O498 2.403 . S
Dy492 O499 2.664 . S
Dy492 O503 2.326 . S
Dy492 O507 2.310 . S
Dy492 O508 2.351 . S
C493 O504 1.185 . S
C493 O505 1.355 . S
C494 O496 1.185 . S
C494 O497 1.355 . S
Dy495 O499 2.310 . S
Dy495 O502 2.351 . S
Dy495 O504 2.398 . S
Dy495 O505 2.491 . S
Dy495 O506 2.403 . S
Dy495 O507 2.664 . S
Dy495 O509 2.326 . S
O496 Dy492 2.398 . S
O496 C494 1.185 . S
O497 Dy492 2.491 . S
O497 C494 1.355 . S
O498 Dy492 2.403 . S
O498 C500 1.254 . S
O499 Dy492 2.664 . S
O499 Dy495 2.310 . S
O499 C500 1.268 . S
C500 O498 1.254 . S
C500 O499 1.268 . S
C501 O506 1.254 . S
C501 O507 1.268 . S
O502 Dy495 2.351 . S
O502 C510 1.249 . S
O503 Dy492 2.326 . S
O503 C510 1.267 . S
O504 C493 1.185 . S
O504 Dy495 2.398 . S
O505 C493 1.355 . S
O505 Dy495 2.491 . S
O506 Dy495 2.403 . S
O506 C501 1.254 . S
O507 Dy492 2.310 . S
O507 Dy495 2.664 . S
O507 C501 1.268 . S
O508 Dy492 2.351 . S
O508 C511 1.249 . S
O509 Dy495 2.326 . S
O509 C511 1.267 . S
C510 O502 1.249 . S
C510 O503 1.267 . S
C511 O508 1.249 . S
C511 O509 1.267 . S
Dy512 O516 2.398 1_455 S
Dy512 O517 2.491 1_455 S
Dy512 O518 2.403 . S
Dy512 O519 2.664 . S
Dy512 O523 2.326 1_455 S
Dy512 O527 2.310 . S
Dy512 O528 2.351 . S
C513 O524 1.185 . S
C513 O525 1.355 . S
C514 O516 1.185 . S
C514 O517 1.355 . S
Dy515 O519 2.310 . S
Dy515 O522 2.351 1_455 S
Dy515 O524 2.398 . S
Dy515 O525 2.491 . S
Dy515 O526 2.403 . S
Dy515 O527 2.664 . S
Dy515 O529 2.326 . S
O516 Dy512 2.398 1_655 S
O516 C514 1.185 . S
O517 Dy512 2.491 1_655 S
O517 C514 1.355 . S
O518 Dy512 2.403 . S
O518 C520 1.254 . S
O519 Dy512 2.664 . S
O519 Dy515 2.310 . S
O519 C520 1.268 . S
C520 O518 1.254 . S
C520 O519 1.268 . S
C521 O526 1.254 . S
C521 O527 1.268 . S
O522 Dy515 2.351 1_655 S
O522 C530 1.249 . S
O523 Dy512 2.326 1_655 S
O523 C530 1.267 . S
O524 C513 1.185 . S
O524 Dy515 2.398 . S
O525 C513 1.355 . S
O525 Dy515 2.491 . S
O526 Dy515 2.403 . S
O526 C521 1.254 . S
O527 Dy512 2.310 . S
O527 Dy515 2.664 . S
O527 C521 1.268 . S
O528 Dy512 2.351 . S
O528 C531 1.249 . S
O529 Dy515 2.326 . S
O529 C531 1.267 . S
C530 O522 1.249 . S
C530 O523 1.267 . S
C531 O528 1.249 . S
C531 O529 1.267 . S
Dy532 O536 2.398 . S
Dy532 O537 2.491 . S
Dy532 O538 2.403 . S
Dy532 O539 2.664 . S
Dy532 O543 2.326 . S
Dy532 O547 2.310 . S
Dy532 O548 2.351 . S
C533 O544 1.185 . S
C533 O545 1.355 . S
C534 O536 1.185 . S
C534 O537 1.355 . S
Dy535 O539 2.310 . S
Dy535 O542 2.351 . S
Dy535 O544 2.398 . S
Dy535 O545 2.491 . S
Dy535 O546 2.403 . S
Dy535 O547 2.664 . S
Dy535 O549 2.326 . S
O536 Dy532 2.398 . S
O536 C534 1.185 . S
O537 Dy532 2.491 . S
O537 C534 1.355 . S
O538 Dy532 2.403 . S
O538 C540 1.254 . S
O539 Dy532 2.664 . S
O539 Dy535 2.310 . S
O539 C540 1.268 . S
C540 O538 1.254 . S
C540 O539 1.268 . S
C541 O546 1.254 . S
C541 O547 1.268 . S
O542 Dy535 2.351 . S
O542 C550 1.249 . S
O543 Dy532 2.326 . S
O543 C550 1.267 . S
O544 C533 1.185 . S
O544 Dy535 2.398 . S
O545 C533 1.355 . S
O545 Dy535 2.491 . S
O546 Dy535 2.403 . S
O546 C541 1.254 . S
O547 Dy532 2.310 . S
O547 Dy535 2.664 . S
O547 C541 1.268 . S
O548 Dy532 2.351 . S
O548 C551 1.249 . S
O549 Dy535 2.326 . S
O549 C551 1.267 . S
C550 O542 1.249 . S
C550 O543 1.267 . S
C551 O548 1.249 . S
C551 O549 1.267 . S
Dy552 O556 2.398 . S
Dy552 O557 2.491 . S
Dy552 O558 2.403 . S
Dy552 O559 2.664 . S
Dy552 O563 2.326 . S
Dy552 O567 2.310 . S
Dy552 O568 2.351 . S
C553 O564 1.185 . S
C553 O565 1.355 . S
C554 O556 1.185 . S
C554 O557 1.355 . S
Dy555 O559 2.310 . S
Dy555 O562 2.351 . S
Dy555 O564 2.398 . S
Dy555 O565 2.491 . S
Dy555 O566 2.403 . S
Dy555 O567 2.664 . S
Dy555 O569 2.326 . S
O556 Dy552 2.398 . S
O556 C554 1.185 . S
O557 Dy552 2.491 . S
O557 C554 1.355 . S
O558 Dy552 2.403 . S
O558 C560 1.254 . S
O559 Dy552 2.664 . S
O559 Dy555 2.310 . S
O559 C560 1.268 . S
C560 O558 1.254 . S
C560 O559 1.268 . S
C561 O566 1.254 . S
C561 O567 1.268 . S
O562 Dy555 2.351 . S
O562 C570 1.249 . S
O563 Dy552 2.326 . S
O563 C570 1.267 . S
O564 C553 1.185 . S
O564 Dy555 2.398 . S
O565 C553 1.355 . S
O565 Dy555 2.491 . S
O566 Dy555 2.403 . S
O566 C561 1.254 . S
O567 Dy552 2.310 . S
O567 Dy555 2.664 . S
O567 C561 1.268 . S
O568 Dy552 2.351 . S
O568 C571 1.249 . S
O569 Dy555 2.326 . S
O569 C571 1.267 . S
C570 O562 1.249 . S
C570 O563 1.267 . S
C571 O568 1.249 . S
C571 O569 1.267 . S
Dy572 O576 2.398 . S
Dy572 O577 2.491 . S
Dy572 O578 2.403 . S
Dy572 O579 2.664 . S
Dy572 O583 2.326 . S
Dy572 O587 2.310 . S
Dy572 O588 2.351 . S
C573 O584 1.185 . S
C573 O585 1.355 . S
C574 O576 1.185 . S
C574 O577 1.355 . S
Dy575 O579 2.310 . S
Dy575 O582 2.351 . S
Dy575 O584 2.398 . S
Dy575 O585 2.491 . S
Dy575 O586 2.403 . S
Dy575 O587 2.664 . S
Dy575 O589 2.326 . S
O576 Dy572 2.398 . S
O576 C574 1.185 . S
O577 Dy572 2.491 . S
O577 C574 1.355 . S
O578 Dy572 2.403 . S
O578 C580 1.254 . S
O579 Dy572 2.664 . S
O579 Dy575 2.310 . S
O579 C580 1.268 . S
C580 O578 1.254 . S
C580 O579 1.268 . S
C581 O586 1.254 . S
C581 O587 1.268 . S
O582 Dy575 2.351 . S
O582 C590 1.249 . S
O583 Dy572 2.326 . S
O583 C590 1.267 . S
O584 C573 1.185 . S
O584 Dy575 2.398 . S
O585 C573 1.355 . S
O585 Dy575 2.491 . S
O586 Dy575 2.403 . S
O586 C581 1.254 . S
O587 Dy572 2.310 . S
O587 Dy575 2.664 . S
O587 C581 1.268 . S
O588 Dy572 2.351 . S
O588 C591 1.249 . S
O589 Dy575 2.326 . S
O589 C591 1.267 . S
C590 O582 1.249 . S
C590 O583 1.267 . S
C591 O588 1.249 . S
C591 O589 1.267 . S
Dy592 O596 2.398 . S
Dy592 O597 2.491 . S
Dy592 O598 2.403 . S
Dy592 O599 2.664 . S
Dy592 O603 2.326 . S
Dy592 O607 2.310 . S
Dy592 O608 2.351 . S
C593 O604 1.185 . S
C593 O605 1.355 . S
C594 O596 1.185 . S
C594 O597 1.355 . S
Dy595 O599 2.310 . S
Dy595 O602 2.351 . S
Dy595 O604 2.398 . S
Dy595 O605 2.491 . S
Dy595 O606 2.403 . S
Dy595 O607 2.664 . S
Dy595 O609 2.326 . S
O596 Dy592 2.398 . S
O596 C594 1.185 . S
O597 Dy592 2.491 . S
O597 C594 1.355 . S
O598 Dy592 2.403 . S
O598 C600 1.254 . S
O599 Dy592 2.664 . S
O599 Dy595 2.310 . S
O599 C600 1.268 . S
C600 O598 1.254 . S
C600 O599 1.268 . S
C601 O606 1.254 . S
C601 O607 1.268 . S
O602 Dy595 2.351 . S
O602 C610 1.249 . S
O603 Dy592 2.326 . S
O603 C610 1.267 . S
O604 C593 1.185 . S
O604 Dy595 2.398 . S
O605 C593 1.355 . S
O605 Dy595 2.491 . S
O606 Dy595 2.403 . S
O606 C601 1.254 . S
O607 Dy592 2.310 . S
O607 Dy595 2.664 . S
O607 C601 1.268 . S
O608 Dy592 2.351 . S
O608 C611 1.249 . S
O609 Dy595 2.326 . S
O609 C611 1.267 . S
C610 O602 1.249 . S
C610 O603 1.267 . S
C611 O608 1.249 . S
C611 O609 1.267 . S
Dy612 O616 2.398 1_554 S
Dy612 O617 2.491 . S
Dy612 O618 2.403 1_554 S
Dy612 O619 2.664 1_455 S
Dy612 O623 2.326 . S
Dy612 O627 2.310 . S
Dy612 O628 2.351 . S
C613 O624 1.185 . S
C613 O625 1.355 . S
C614 O616 1.185 1_554 S
C614 O617 1.355 . S
Dy615 O619 2.310 . S
Dy615 O622 2.351 . S
Dy615 O624 2.398 . S
Dy615 O625 2.491 . S
Dy615 O626 2.403 . S
Dy615 O627 2.664 1_655 S
Dy615 O629 2.326 . S
O616 Dy612 2.398 1_556 S
O616 C614 1.185 1_556 S
O617 Dy612 2.491 . S
O617 C614 1.355 . S
O618 Dy612 2.403 1_556 S
O618 C620 1.254 . S
O619 Dy612 2.664 1_655 S
O619 Dy615 2.310 . S
O619 C620 1.268 1_654 S
C620 O618 1.254 . S
C620 O619 1.268 1_456 S
C621 O626 1.254 1_455 S
C621 O627 1.268 . S
O622 Dy615 2.351 . S
O622 C630 1.249 1_655 S
O623 Dy612 2.326 . S
O623 C630 1.267 . S
O624 C613 1.185 . S
O624 Dy615 2.398 . S
O625 C613 1.355 . S
O625 Dy615 2.491 . S
O626 Dy615 2.403 . S
O626 C621 1.254 1_655 S
O627 Dy612 2.310 . S
O627 Dy615 2.664 1_455 S
O627 C621 1.268 . S
O628 Dy612 2.351 . S
O628 C631 1.249 . S
O629 Dy615 2.326 . S
O629 C631 1.267 1_655 S
C630 O622 1.249 1_455 S
C630 O623 1.267 . S
C631 O628 1.249 . S
C631 O629 1.267 1_455 S
H632 C644 0.918 1_655 S
H633 C646 0.930 . S
H634 C647 0.930 . S
H635 C651 0.959 . S
H636 C651 0.959 . S
H637 C651 0.961 . S
H638 C652 0.960 . S
H639 C652 0.961 . S
H640 C652 0.959 1_455 S
H641 C655 0.929 . S
H642 C656 0.931 . S
H643 C658 0.929 1_655 S
C644 H632 0.918 1_455 S
C644 C645 1.405 . S
C644 C649 1.405 . S
C645 C644 1.405 . S
C645 C646 1.376 . S
C646 H633 0.930 . S
C646 C645 1.376 . S
C646 C647 1.388 . S
C647 H634 0.930 . S
C647 C646 1.388 . S
C647 C648 1.390 . S
C648 C647 1.390 . S
C648 C649 1.394 . S
C648 C654 1.465 . S
C649 C644 1.405 . S
C649 C648 1.394 . S
C649 C650 1.516 1_455 S
C650 C649 1.516 1_655 S
C650 C651 1.502 . S
C650 C652 1.561 . S
C650 C653 1.526 1_655 S
C651 H635 0.959 . S
C651 H636 0.959 . S
C651 H637 0.961 . S
C651 C650 1.502 . S
C652 H638 0.960 . S
C652 H639 0.961 . S
C652 H640 0.959 1_655 S
C652 C650 1.561 . S
C653 C650 1.526 1_455 S
C653 C654 1.396 . S
C653 C658 1.390 . S
C654 C648 1.465 . S
C654 C653 1.396 . S
C654 C655 1.399 1_556 S
C655 H641 0.929 . S
C655 C654 1.399 1_554 S
C655 C656 1.385 . S
C656 H642 0.931 . S
C656 C655 1.385 . S
C656 C657 1.389 . S
C657 C656 1.389 . S
C657 C658 1.387 1_554 S
C658 H643 0.929 1_455 S
C658 C653 1.390 . S
C658 C657 1.387 1_556 S
H659 C671 0.930 . S
H660 C673 0.930 . S
H661 C674 0.930 . S
H662 C678 0.959 . S
H663 C678 0.959 . S
H664 C678 0.961 . S
H665 C679 0.960 . S
H666 C679 0.961 . S
H667 C679 0.959 . S
H668 C682 0.929 . S
H669 C683 0.931 . S
H670 C685 0.930 . S
C671 H659 0.930 . S
C671 C672 1.399 . S
C671 C676 1.399 . S
C672 C671 1.399 . S
C672 C673 1.376 . S
C673 H660 0.930 . S
C673 C672 1.376 . S
C673 C674 1.388 . S
C674 H661 0.930 . S
C674 C673 1.388 . S
C674 C675 1.390 . S
C675 C674 1.390 . S
C675 C676 1.394 . S
C675 C681 1.465 . S
C676 C671 1.399 . S
C676 C675 1.394 . S
C676 C677 1.516 . S
C677 C676 1.516 . S
C677 C678 1.502 . S
C677 C679 1.561 . S
C677 C680 1.526 . S
C678 H662 0.959 . S
C678 H663 0.959 . S
C678 H664 0.961 . S
C678 C677 1.502 . S
C679 H665 0.960 . S
C679 H666 0.961 . S
C679 H667 0.959 . S
C679 C677 1.561 . S
C680 C677 1.526 . S
C680 C681 1.396 . S
C680 C685 1.390 . S
C681 C675 1.465 . S
C681 C680 1.396 . S
C681 C682 1.399 . S
C682 H668 0.929 . S
C682 C681 1.399 . S
C682 C683 1.385 . S
C683 H669 0.931 . S
C683 C682 1.385 . S
C683 C684 1.389 . S
C684 C683 1.389 . S
C684 C685 1.387 . S
C685 H670 0.930 . S
C685 C680 1.390 . S
C685 C684 1.387 . S
H686 C698 0.930 . S
H687 C700 0.930 . S
H688 C701 0.930 . S
H689 C705 0.959 . S
H690 C705 0.959 . S
H691 C705 0.961 . S
H692 C706 0.960 . S
H693 C706 0.961 . S
H694 C706 0.959 . S
H695 C709 0.929 . S
H696 C710 0.931 . S
H697 C712 0.930 . S
C698 H686 0.930 . S
C698 C699 1.399 . S
C698 C703 1.399 . S
C699 C698 1.399 . S
C699 C700 1.376 . S
C700 H687 0.930 . S
C700 C699 1.376 . S
C700 C701 1.388 . S
C701 H688 0.930 . S
C701 C700 1.388 . S
C701 C702 1.390 . S
C702 C701 1.390 . S
C702 C703 1.394 . S
C702 C708 1.465 . S
C703 C698 1.399 . S
C703 C702 1.394 . S
C703 C704 1.516 . S
C704 C703 1.516 . S
C704 C705 1.502 . S
C704 C706 1.561 . S
C704 C707 1.526 . S
C705 H689 0.959 . S
C705 H690 0.959 . S
C705 H691 0.961 . S
C705 C704 1.502 . S
C706 H692 0.960 . S
C706 H693 0.961 . S
C706 H694 0.959 . S
C706 C704 1.561 . S
C707 C704 1.526 . S
C707 C708 1.396 . S
C707 C712 1.390 . S
C708 C702 1.465 . S
C708 C707 1.396 . S
C708 C709 1.399 . S
C709 H695 0.929 . S
C709 C708 1.399 . S
C709 C710 1.385 . S
C710 H696 0.931 . S
C710 C709 1.385 . S
C710 C711 1.389 . S
C711 C710 1.389 . S
C711 C712 1.387 . S
C712 H697 0.930 . S
C712 C707 1.390 . S
C712 C711 1.387 . S
H713 C725 0.930 . S
H714 C727 0.930 . S
H715 C728 0.930 . S
H716 C732 0.959 . S
H717 C732 0.959 . S
H718 C732 0.961 . S
H719 C733 0.960 . S
H720 C733 0.961 . S
H721 C733 0.959 . S
H722 C736 0.929 . S
H723 C737 0.931 . S
H724 C739 0.930 . S
C725 H713 0.930 . S
C725 C726 1.399 . S
C725 C730 1.399 . S
C726 C725 1.399 . S
C726 C727 1.376 . S
C727 H714 0.930 . S
C727 C726 1.376 . S
C727 C728 1.388 . S
C728 H715 0.930 . S
C728 C727 1.388 . S
C728 C729 1.390 . S
C729 C728 1.390 . S
C729 C730 1.394 . S
C729 C735 1.465 . S
C730 C725 1.399 . S
C730 C729 1.394 . S
C730 C731 1.516 . S
C731 C730 1.516 . S
C731 C732 1.502 . S
C731 C733 1.561 . S
C731 C734 1.526 . S
C732 H716 0.959 . S
C732 H717 0.959 . S
C732 H718 0.961 . S
C732 C731 1.502 . S
C733 H719 0.960 . S
C733 H720 0.961 . S
C733 H721 0.959 . S
C733 C731 1.561 . S
C734 C731 1.526 . S
C734 C735 1.396 . S
C734 C739 1.390 . S
C735 C729 1.465 . S
C735 C734 1.396 . S
C735 C736 1.399 . S
C736 H722 0.929 . S
C736 C735 1.399 . S
C736 C737 1.385 . S
C737 H723 0.931 . S
C737 C736 1.385 . S
C737 C738 1.389 . S
C738 C737 1.389 . S
C738 C739 1.387 . S
C739 H724 0.930 . S
C739 C734 1.390 . S
C739 C738 1.387 . S
H740 C752 0.930 . S
H741 C754 0.930 . S
H742 C755 0.930 . S
H743 C759 0.959 . S
H744 C759 0.959 . S
H745 C759 0.961 . S
H746 C760 0.960 . S
H747 C760 0.961 . S
H748 C760 0.959 1_655 S
H749 C763 0.929 . S
H750 C764 0.931 . S
H751 C766 0.930 . S
C752 H740 0.930 . S
C752 C753 1.399 . S
C752 C757 1.399 . S
C753 C752 1.399 . S
C753 C754 1.376 . S
C754 H741 0.930 . S
C754 C753 1.376 . S
C754 C755 1.388 . S
C755 H742 0.930 . S
C755 C754 1.388 . S
C755 C756 1.390 . S
C756 C755 1.390 . S
C756 C757 1.394 . S
C756 C762 1.465 . S
C757 C752 1.399 . S
C757 C756 1.394 . S
C757 C758 1.516 . S
C758 C757 1.516 . S
C758 C759 1.502 . S
C758 C760 1.561 . S
C758 C761 1.526 . S
C759 H743 0.959 . S
C759 H744 0.959 . S
C759 H745 0.961 . S
C759 C758 1.502 . S
C760 H746 0.960 . S
C760 H747 0.961 . S
C760 H748 0.959 1_455 S
C760 C758 1.561 . S
C761 C758 1.526 . S
C761 C762 1.396 . S
C761 C766 1.390 . S
C762 C756 1.465 . S
C762 C761 1.396 . S
C762 C763 1.399 . S
C763 H749 0.929 . S
C763 C762 1.399 . S
C763 C764 1.385 . S
C764 H750 0.931 . S
C764 C763 1.385 . S
C764 C765 1.389 . S
C765 C764 1.389 . S
C765 C766 1.387 . S
C766 H751 0.930 . S
C766 C761 1.390 . S
C766 C765 1.387 . S
H767 C779 0.930 . S
H768 C781 0.930 . S
H769 C782 0.930 . S
H770 C786 0.959 . S
H771 C786 0.959 . S
H772 C786 0.961 . S
H773 C787 0.960 . S
H774 C787 0.961 . S
H775 C787 0.959 . S
H776 C790 0.929 . S
H777 C791 0.931 . S
H778 C793 0.930 . S
C779 H767 0.930 . S
C779 C780 1.399 . S
C779 C784 1.399 . S
C780 C779 1.399 . S
C780 C781 1.376 . S
C781 H768 0.930 . S
C781 C780 1.376 . S
C781 C782 1.388 . S
C782 H769 0.930 . S
C782 C781 1.388 . S
C782 C783 1.390 . S
C783 C782 1.390 . S
C783 C784 1.394 . S
C783 C789 1.465 . S
C784 C779 1.399 . S
C784 C783 1.394 . S
C784 C785 1.516 . S
C785 C784 1.516 . S
C785 C786 1.502 . S
C785 C787 1.561 . S
C785 C788 1.526 . S
C786 H770 0.959 . S
C786 H771 0.959 . S
C786 H772 0.961 . S
C786 C785 1.502 . S
C787 H773 0.960 . S
C787 H774 0.961 . S
C787 H775 0.959 . S
C787 C785 1.561 . S
C788 C785 1.526 . S
C788 C789 1.396 . S
C788 C793 1.390 . S
C789 C783 1.465 . S
C789 C788 1.396 . S
C789 C790 1.399 . S
C790 H776 0.929 . S
C790 C789 1.399 . S
C790 C791 1.385 . S
C791 H777 0.931 . S
C791 C790 1.385 . S
C791 C792 1.389 . S
C792 C791 1.389 . S
C792 C793 1.387 . S
C793 H778 0.930 . S
C793 C788 1.390 . S
C793 C792 1.387 . S
H794 C806 0.930 . S
H795 C808 0.930 . S
H796 C809 0.930 . S
H797 C813 0.959 . S
H798 C813 0.959 . S
H799 C813 0.961 . S
H800 C814 0.960 . S
H801 C814 0.961 . S
H802 C814 0.959 . S
H803 C817 0.929 . S
H804 C818 0.931 . S
H805 C820 0.930 . S
C806 H794 0.930 . S
C806 C807 1.399 . S
C806 C811 1.399 . S
C807 C806 1.399 . S
C807 C808 1.376 . S
C808 H795 0.930 . S
C808 C807 1.376 . S
C808 C809 1.388 . S
C809 H796 0.930 . S
C809 C808 1.388 . S
C809 C810 1.390 . S
C810 C809 1.390 . S
C810 C811 1.394 . S
C810 C816 1.465 . S
C811 C806 1.399 . S
C811 C810 1.394 . S
C811 C812 1.516 . S
C812 C811 1.516 . S
C812 C813 1.502 . S
C812 C814 1.561 . S
C812 C815 1.526 . S
C813 H797 0.959 . S
C813 H798 0.959 . S
C813 H799 0.961 . S
C813 C812 1.502 . S
C814 H800 0.960 . S
C814 H801 0.961 . S
C814 H802 0.959 . S
C814 C812 1.561 . S
C815 C812 1.526 . S
C815 C816 1.396 . S
C815 C820 1.390 . S
C816 C810 1.465 . S
C816 C815 1.396 . S
C816 C817 1.399 . S
C817 H803 0.929 . S
C817 C816 1.399 . S
C817 C818 1.385 . S
C818 H804 0.931 . S
C818 C817 1.385 . S
C818 C819 1.389 . S
C819 C818 1.389 . S
C819 C820 1.387 . S
C820 H805 0.930 . S
C820 C815 1.390 . S
C820 C819 1.387 . S
H821 C833 0.930 . S
H822 C835 0.930 . S
H823 C836 0.930 . S
H824 C840 0.959 . S
H825 C840 0.959 . S
H826 C840 0.961 . S
H827 C841 0.960 . S
H828 C841 0.961 . S
H829 C841 0.959 . S
H830 C844 0.929 . S
H831 C845 0.931 . S
H832 C847 0.930 . S
C833 H821 0.930 . S
C833 C834 1.399 . S
C833 C838 1.399 . S
C834 C833 1.399 . S
C834 C835 1.376 . S
C835 H822 0.930 . S
C835 C834 1.376 . S
C835 C836 1.388 . S
C836 H823 0.930 . S
C836 C835 1.388 . S
C836 C837 1.390 . S
C837 C836 1.390 . S
C837 C838 1.394 . S
C837 C843 1.465 . S
C838 C833 1.399 . S
C838 C837 1.394 . S
C838 C839 1.516 . S
C839 C838 1.516 . S
C839 C840 1.502 . S
C839 C841 1.561 . S
C839 C842 1.526 . S
C840 H824 0.959 . S
C840 H825 0.959 . S
C840 H826 0.961 . S
C840 C839 1.502 . S
C841 H827 0.960 . S
C841 H828 0.961 . S
C841 H829 0.959 . S
C841 C839 1.561 . S
C842 C839 1.526 . S
C842 C843 1.396 . S
C842 C847 1.390 . S
C843 C837 1.465 . S
C843 C842 1.396 . S
C843 C844 1.399 . S
C844 H830 0.929 . S
C844 C843 1.399 . S
C844 C845 1.385 . S
C845 H831 0.931 . S
C845 C844 1.385 . S
C845 C846 1.389 . S
C846 C845 1.389 . S
C846 C847 1.387 . S
C847 H832 0.930 . S
C847 C842 1.390 . S
C847 C846 1.387 . S
H848 C860 0.930 . S
H849 C862 0.930 . S
H850 C863 0.930 . S
H851 C867 0.959 . S
H852 C867 0.959 . S
H853 C867 0.961 . S
H854 C868 0.960 . S
H855 C868 0.961 . S
H856 C868 0.959 . S
H857 C871 0.929 . S
H858 C872 0.931 . S
H859 C874 0.930 . S
C860 H848 0.930 . S
C860 C861 1.399 . S
C860 C865 1.399 . S
C861 C860 1.399 . S
C861 C862 1.376 . S
C862 H849 0.930 . S
C862 C861 1.376 . S
C862 C863 1.388 . S
C863 H850 0.930 . S
C863 C862 1.388 . S
C863 C864 1.390 . S
C864 C863 1.390 . S
C864 C865 1.394 . S
C864 C870 1.465 . S
C865 C860 1.399 . S
C865 C864 1.394 . S
C865 C866 1.516 . S
C866 C865 1.516 . S
C866 C867 1.502 . S
C866 C868 1.561 . S
C866 C869 1.526 . S
C867 H851 0.959 . S
C867 H852 0.959 . S
C867 H853 0.961 . S
C867 C866 1.502 . S
C868 H854 0.960 . S
C868 H855 0.961 . S
C868 H856 0.959 . S
C868 C866 1.561 . S
C869 C866 1.526 . S
C869 C870 1.396 . S
C869 C874 1.390 . S
C870 C864 1.465 . S
C870 C869 1.396 . S
C870 C871 1.399 1_655 S
C871 H857 0.929 . S
C871 C870 1.399 1_455 S
C871 C872 1.385 . S
C872 H858 0.931 . S
C872 C871 1.385 . S
C872 C873 1.389 . S
C873 C872 1.389 . S
C873 C874 1.387 1_455 S
C874 H859 0.930 . S
C874 C869 1.390 . S
C874 C873 1.387 1_655 S
H875 C887 0.930 . S
H876 C889 0.930 . S
H877 C890 0.930 . S
H878 C894 0.959 . S
H879 C894 0.959 . S
H880 C894 0.961 . S
H881 C895 0.960 . S
H882 C895 0.961 . S
H883 C895 0.959 . S
H884 C898 0.929 . S
H885 C899 0.931 . S
H886 C901 0.930 . S
C887 H875 0.930 . S
C887 C888 1.399 . S
C887 C892 1.399 . S
C888 C887 1.399 . S
C888 C889 1.376 . S
C889 H876 0.930 . S
C889 C888 1.376 . S
C889 C890 1.388 . S
C890 H877 0.930 . S
C890 C889 1.388 . S
C890 C891 1.390 . S
C891 C890 1.390 . S
C891 C892 1.394 . S
C891 C897 1.465 . S
C892 C887 1.399 . S
C892 C891 1.394 . S
C892 C893 1.516 . S
C893 C892 1.516 . S
C893 C894 1.502 . S
C893 C895 1.561 . S
C893 C896 1.526 . S
C894 H878 0.959 . S
C894 H879 0.959 . S
C894 H880 0.961 . S
C894 C893 1.502 . S
C895 H881 0.960 . S
C895 H882 0.961 . S
C895 H883 0.959 . S
C895 C893 1.561 . S
C896 C893 1.526 . S
C896 C897 1.396 . S
C896 C901 1.390 . S
C897 C891 1.465 . S
C897 C896 1.396 . S
C897 C898 1.399 . S
C898 H884 0.929 . S
C898 C897 1.399 . S
C898 C899 1.385 . S
C899 H885 0.931 . S
C899 C898 1.385 . S
C899 C900 1.389 . S
C900 C899 1.389 . S
C900 C901 1.387 . S
C901 H886 0.930 . S
C901 C896 1.390 . S
C901 C900 1.387 . S
H902 C914 0.930 . S
H903 C916 0.930 . S
H904 C917 0.930 . S
H905 C921 0.959 . S
H906 C921 0.959 . S
H907 C921 0.961 . S
H908 C922 0.960 . S
H909 C922 0.961 . S
H910 C922 0.959 . S
H911 C925 0.929 . S
H912 C926 0.931 . S
H913 C928 0.930 . S
C914 H902 0.930 . S
C914 C915 1.399 . S
C914 C919 1.399 . S
C915 C914 1.399 . S
C915 C916 1.376 1_545 S
C916 H903 0.930 . S
C916 C915 1.376 1_565 S
C916 C917 1.388 . S
C917 H904 0.930 . S
C917 C916 1.388 . S
C917 C918 1.390 . S
C918 C917 1.390 . S
C918 C919 1.394 1_565 S
C918 C924 1.465 . S
C919 C914 1.399 . S
C919 C918 1.394 1_545 S
C919 C920 1.516 . S
C920 C919 1.516 . S
C920 C921 1.502 . S
C920 C922 1.561 . S
C920 C923 1.526 . S
C921 H905 0.959 . S
C921 H906 0.959 . S
C921 H907 0.961 . S
C921 C920 1.502 . S
C922 H908 0.960 . S
C922 H909 0.961 . S
C922 H910 0.959 . S
C922 C920 1.561 . S
C923 C920 1.526 . S
C923 C924 1.396 1_545 S
C923 C928 1.390 . S
C924 C918 1.465 . S
C924 C923 1.396 1_565 S
C924 C925 1.399 . S
C925 H911 0.929 . S
C925 C924 1.399 . S
C925 C926 1.385 . S
C926 H912 0.931 . S
C926 C925 1.385 . S
C926 C927 1.389 1_565 S
C927 C926 1.389 1_545 S
C927 C928 1.387 . S
C928 H913 0.930 . S
C928 C923 1.390 . S
C928 C927 1.387 . S
H929 C941 0.930 . S
H930 C943 0.930 . S
H931 C944 0.930 . S
H932 C948 0.959 . S
H933 C948 0.959 . S
H934 C948 0.961 . S
H935 C949 0.960 . S
H936 C949 0.961 . S
H937 C949 0.959 . S
H938 C952 0.929 . S
H939 C953 0.931 . S
H940 C955 0.930 . S
C941 H929 0.930 . S
C941 C942 1.399 . S
C941 C946 1.399 . S
C942 C941 1.399 . S
C942 C943 1.376 . S
C943 H930 0.930 . S
C943 C942 1.376 . S
C943 C944 1.388 . S
C944 H931 0.930 . S
C944 C943 1.388 . S
C944 C945 1.390 . S
C945 C944 1.390 . S
C945 C946 1.394 . S
C945 C951 1.465 . S
C946 C941 1.399 . S
C946 C945 1.394 . S
C946 C947 1.516 . S
C947 C946 1.516 . S
C947 C948 1.502 . S
C947 C949 1.561 . S
C947 C950 1.526 . S
C948 H932 0.959 . S
C948 H933 0.959 . S
C948 H934 0.961 . S
C948 C947 1.502 . S
C949 H935 0.960 . S
C949 H936 0.961 . S
C949 H937 0.959 . S
C949 C947 1.561 . S
C950 C947 1.526 . S
C950 C951 1.396 . S
C950 C955 1.390 . S
C951 C945 1.465 . S
C951 C950 1.396 . S
C951 C952 1.399 . S
C952 H938 0.929 . S
C952 C951 1.399 . S
C952 C953 1.385 . S
C953 H939 0.931 . S
C953 C952 1.385 . S
C953 C954 1.389 . S
C954 C953 1.389 . S
C954 C955 1.387 . S
C955 H940 0.930 . S
C955 C950 1.390 . S
C955 C954 1.387 . S
H956 C968 0.930 . S
H957 C970 0.930 . S
H958 C971 0.930 . S
H959 C975 0.959 . S
H960 C975 0.959 . S
H961 C975 0.961 . S
H962 C976 0.958 1_655 S
H963 C976 0.961 . S
H964 C976 0.959 . S
H965 C979 0.929 . S
H966 C980 0.931 . S
H967 C982 0.930 1_565 S
C968 H956 0.930 . S
C968 C969 1.399 . S
C968 C973 1.399 . S
C969 C968 1.399 . S
C969 C970 1.376 . S
C970 H957 0.930 . S
C970 C969 1.376 . S
C970 C971 1.388 . S
C971 H958 0.930 . S
C971 C970 1.388 . S
C971 C972 1.390 . S
C972 C971 1.390 . S
C972 C973 1.394 . S
C972 C978 1.465 . S
C973 C968 1.399 . S
C973 C972 1.394 . S
C973 C974 1.516 . S
C974 C973 1.516 . S
C974 C975 1.502 1_545 S
C974 C976 1.561 1_655 S
C974 C977 1.526 . S
C975 H959 0.959 . S
C975 H960 0.959 . S
C975 H961 0.961 . S
C975 C974 1.502 1_565 S
C976 H962 0.958 1_455 S
C976 H963 0.961 . S
C976 H964 0.959 . S
C976 C974 1.561 1_455 S
C977 C974 1.526 . S
C977 C978 1.396 . S
C977 C982 1.390 1_655 S
C978 C972 1.465 . S
C978 C977 1.396 . S
C978 C979 1.399 . S
C979 H965 0.929 . S
C979 C978 1.399 . S
C979 C980 1.385 . S
C980 H966 0.931 . S
C980 C979 1.385 . S
C980 C981 1.389 1_655 S
C981 C980 1.389 1_455 S
C981 C982 1.387 . S
C982 H967 0.930 1_545 S
C982 C977 1.390 1_455 S
C982 C981 1.387 . S
H983 C995 0.930 . S
H984 C997 0.930 . S
H985 C998 0.930 . S
H986 C1002 0.959 . S
H987 C1002 0.959 . S
H988 C1002 0.961 . S
H989 C1003 0.960 . S
H990 C1003 0.961 . S
H991 C1003 0.959 . S
H992 C1006 0.929 . S
H993 C1007 0.931 . S
H994 C1009 0.930 . S
C995 H983 0.930 . S
C995 C996 1.399 . S
C995 C1000 1.399 . S
C996 C995 1.399 . S
C996 C997 1.376 . S
C997 H984 0.930 . S
C997 C996 1.376 . S
C997 C998 1.388 . S
C998 H985 0.930 . S
C998 C997 1.388 . S
C998 C999 1.390 . S
C999 C998 1.390 . S
C999 C1000 1.394 . S
C999 C1005 1.465 . S
C1000 C995 1.399 . S
C1000 C999 1.394 . S
C1000 C1001 1.516 . S
C1001 C1000 1.516 . S
C1001 C1002 1.502 . S
C1001 C1003 1.561 . S
C1001 C1004 1.526 . S
C1002 H986 0.959 . S
C1002 H987 0.959 . S
C1002 H988 0.961 . S
C1002 C1001 1.502 . S
C1003 H989 0.960 . S
C1003 H990 0.961 . S
C1003 H991 0.959 . S
C1003 C1001 1.561 . S
C1004 C1001 1.526 . S
C1004 C1005 1.396 . S
C1004 C1009 1.390 . S
C1005 C999 1.465 . S
C1005 C1004 1.396 . S
C1005 C1006 1.399 . S
C1006 H992 0.929 . S
C1006 C1005 1.399 . S
C1006 C1007 1.385 . S
C1007 H993 0.931 . S
C1007 C1006 1.385 . S
C1007 C1008 1.389 . S
C1008 C1007 1.389 . S
C1008 C1009 1.387 . S
C1009 H994 0.930 . S
C1009 C1004 1.390 . S
C1009 C1008 1.387 . S
H1010 C1022 0.930 . S
H1011 C1024 0.930 1_565 S
H1012 C1025 0.930 1_565 S
H1013 C1029 0.959 . S
H1014 C1029 0.959 . S
H1015 C1029 0.961 . S
H1016 C1030 0.960 . S
H1017 C1030 0.961 . S
H1018 C1030 0.959 . S
H1019 C1033 0.908 1_565 S
H1020 C1034 0.931 . S
H1021 C1036 0.930 . S
C1022 H1010 0.930 . S
C1022 C1023 1.399 . S
C1022 C1027 1.399 . S
C1023 C1022 1.399 . S
C1023 C1024 1.376 . S
C1024 H1011 0.930 1_545 S
C1024 C1023 1.376 . S
C1024 C1025 1.388 . S
C1025 H1012 0.930 1_545 S
C1025 C1024 1.388 . S
C1025 C1026 1.390 . S
C1026 C1025 1.390 . S
C1026 C1027 1.394 . S
C1026 C1032 1.465 . S
C1027 C1022 1.399 . S
C1027 C1026 1.394 . S
C1027 C1028 1.516 . S
C1028 C1027 1.516 . S
C1028 C1029 1.502 . S
C1028 C1030 1.561 . S
C1028 C1031 1.526 . S
C1029 H1013 0.959 . S
C1029 H1014 0.959 . S
C1029 H1015 0.961 . S
C1029 C1028 1.502 . S
C1030 H1016 0.960 . S
C1030 H1017 0.961 . S
C1030 H1018 0.959 . S
C1030 C1028 1.561 . S
C1031 C1028 1.526 . S
C1031 C1032 1.396 . S
C1031 C1036 1.390 . S
C1032 C1026 1.465 . S
C1032 C1031 1.396 . S
C1032 C1033 1.399 . S
C1033 H1019 0.908 1_545 S
C1033 C1032 1.399 . S
C1033 C1034 1.385 . S
C1034 H1020 0.931 . S
C1034 C1033 1.385 . S
C1034 C1035 1.389 . S
C1035 C1034 1.389 . S
C1035 C1036 1.387 . S
C1036 H1021 0.930 . S
C1036 C1031 1.390 . S
C1036 C1035 1.387 . S
H1037 C1049 0.930 . S
H1038 C1051 0.930 . S
H1039 C1052 0.930 . S
H1040 C1056 0.959 . S
H1041 C1056 0.959 . S
H1042 C1056 0.961 . S
H1043 C1057 0.960 . S
H1044 C1057 0.961 . S
H1045 C1057 0.959 . S
H1046 C1060 0.929 . S
H1047 C1061 0.931 . S
H1048 C1063 0.930 . S
C1049 H1037 0.930 . S
C1049 C1050 1.399 . S
C1049 C1054 1.399 . S
C1050 C1049 1.399 . S
C1050 C1051 1.376 . S
C1051 H1038 0.930 . S
C1051 C1050 1.376 . S
C1051 C1052 1.388 . S
C1052 H1039 0.930 . S
C1052 C1051 1.388 . S
C1052 C1053 1.390 . S
C1053 C1052 1.390 . S
C1053 C1054 1.394 . S
C1053 C1059 1.465 . S
C1054 C1049 1.399 . S
C1054 C1053 1.394 . S
C1054 C1055 1.516 . S
C1055 C1054 1.516 . S
C1055 C1056 1.502 . S
C1055 C1057 1.561 . S
C1055 C1058 1.526 . S
C1056 H1040 0.959 . S
C1056 H1041 0.959 . S
C1056 H1042 0.961 . S
C1056 C1055 1.502 . S
C1057 H1043 0.960 . S
C1057 H1044 0.961 . S
C1057 H1045 0.959 . S
C1057 C1055 1.561 . S
C1058 C1055 1.526 . S
C1058 C1059 1.396 . S
C1058 C1063 1.390 . S
C1059 C1053 1.465 . S
C1059 C1058 1.396 . S
C1059 C1060 1.399 . S
C1060 H1046 0.929 . S
C1060 C1059 1.399 . S
C1060 C1061 1.385 . S
C1061 H1047 0.931 . S
C1061 C1060 1.385 . S
C1061 C1062 1.389 . S
C1062 C1061 1.389 . S
C1062 C1063 1.387 . S
C1063 H1048 0.930 . S
C1063 C1058 1.390 . S
C1063 C1062 1.387 . S
H1064 C1076 0.930 . S
H1065 C1078 0.930 . S
H1066 C1079 0.930 . S
H1067 C1083 0.959 . S
H1068 C1083 0.959 . S
H1069 C1083 0.961 . S
H1070 C1084 0.960 . S
H1071 C1084 0.961 . S
H1072 C1084 0.959 . S
H1073 C1087 0.929 . S
H1074 C1088 0.931 . S
H1075 C1090 0.930 . S
C1076 H1064 0.930 . S
C1076 C1077 1.399 . S
C1076 C1081 1.399 . S
C1077 C1076 1.399 . S
C1077 C1078 1.376 . S
C1078 H1065 0.930 . S
C1078 C1077 1.376 . S
C1078 C1079 1.388 . S
C1079 H1066 0.930 . S
C1079 C1078 1.388 . S
C1079 C1080 1.390 . S
C1080 C1079 1.390 . S
C1080 C1081 1.394 . S
C1080 C1086 1.465 . S
C1081 C1076 1.399 . S
C1081 C1080 1.394 . S
C1081 C1082 1.516 . S
C1082 C1081 1.516 . S
C1082 C1083 1.502 . S
C1082 C1084 1.561 . S
C1082 C1085 1.526 . S
C1083 H1067 0.959 . S
C1083 H1068 0.959 . S
C1083 H1069 0.961 . S
C1083 C1082 1.502 . S
C1084 H1070 0.960 . S
C1084 H1071 0.961 . S
C1084 H1072 0.959 . S
C1084 C1082 1.561 . S
C1085 C1082 1.526 . S
C1085 C1086 1.396 . S
C1085 C1090 1.390 . S
C1086 C1080 1.465 . S
C1086 C1085 1.396 . S
C1086 C1087 1.399 1_565 S
C1087 H1073 0.929 . S
C1087 C1086 1.399 1_545 S
C1087 C1088 1.385 . S
C1088 H1074 0.931 . S
C1088 C1087 1.385 . S
C1088 C1089 1.389 . S
C1089 C1088 1.389 . S
C1089 C1090 1.387 1_545 S
C1090 H1075 0.930 . S
C1090 C1085 1.390 . S
C1090 C1089 1.387 1_565 S
H1091 C1103 0.930 . S
H1092 C1105 0.930 . S
H1093 C1106 0.930 . S
H1094 C1110 0.959 . S
H1095 C1110 0.959 . S
H1096 C1110 0.961 . S
H1097 C1111 0.960 . S
H1098 C1111 0.961 . S
H1099 C1111 0.959 . S
H1100 C1114 0.929 . S
H1101 C1115 0.931 . S
H1102 C1117 0.930 . S
C1103 H1091 0.930 . S
C1103 C1104 1.399 1_556 S
C1103 C1108 1.399 . S
C1104 C1103 1.399 1_554 S
C1104 C1105 1.376 . S
C1105 H1092 0.930 . S
C1105 C1104 1.376 . S
C1105 C1106 1.388 . S
C1106 H1093 0.930 . S
C1106 C1105 1.388 . S
C1106 C1107 1.390 . S
C1107 C1106 1.390 . S
C1107 C1108 1.394 1_554 S
C1107 C1113 1.465 . S
C1108 C1103 1.399 . S
C1108 C1107 1.394 1_556 S
C1108 C1109 1.516 . S
C1109 C1108 1.516 . S
C1109 C1110 1.502 . S
C1109 C1111 1.561 . S
C1109 C1112 1.526 . S
C1110 H1094 0.959 . S
C1110 H1095 0.959 . S
C1110 H1096 0.961 . S
C1110 C1109 1.502 . S
C1111 H1097 0.960 . S
C1111 H1098 0.961 . S
C1111 H1099 0.959 . S
C1111 C1109 1.561 . S
C1112 C1109 1.526 . S
C1112 C1113 1.396 1_556 S
C1112 C1117 1.390 . S
C1113 C1107 1.465 . S
C1113 C1112 1.396 1_554 S
C1113 C1114 1.399 . S
C1114 H1100 0.929 . S
C1114 C1113 1.399 . S
C1114 C1115 1.385 . S
C1115 H1101 0.931 . S
C1115 C1114 1.385 . S
C1115 C1116 1.389 . S
C1116 C1115 1.389 . S
C1116 C1117 1.387 1_554 S
C1117 H1102 0.930 . S
C1117 C1112 1.390 . S
C1117 C1116 1.387 1_556 S
H1118 C1130 0.930 . S
H1119 C1132 0.930 . S
H1120 C1133 0.930 . S
H1121 C1137 0.959 . S
H1122 C1137 0.959 . S
H1123 C1137 0.961 . S
H1124 C1138 0.960 . S
H1125 C1138 0.961 . S
H1126 C1138 0.959 . S
H1127 C1141 0.929 . S
H1128 C1142 0.931 . S
H1129 C1144 0.930 . S
C1130 H1118 0.930 . S
C1130 C1131 1.399 . S
C1130 C1135 1.399 . S
C1131 C1130 1.399 . S
C1131 C1132 1.376 . S
C1132 H1119 0.930 . S
C1132 C1131 1.376 . S
C1132 C1133 1.388 . S
C1133 H1120 0.930 . S
C1133 C1132 1.388 . S
C1133 C1134 1.390 . S
C1134 C1133 1.390 . S
C1134 C1135 1.394 . S
C1134 C1140 1.465 . S
C1135 C1130 1.399 . S
C1135 C1134 1.394 . S
C1135 C1136 1.516 . S
C1136 C1135 1.516 . S
C1136 C1137 1.502 . S
C1136 C1138 1.561 . S
C1136 C1139 1.526 . S
C1137 H1121 0.959 . S
C1137 H1122 0.959 . S
C1137 H1123 0.961 . S
C1137 C1136 1.502 . S
C1138 H1124 0.960 . S
C1138 H1125 0.961 . S
C1138 H1126 0.959 . S
C1138 C1136 1.561 . S
C1139 C1136 1.526 . S
C1139 C1140 1.396 . S
C1139 C1144 1.390 . S
C1140 C1134 1.465 . S
C1140 C1139 1.396 . S
C1140 C1141 1.399 . S
C1141 H1127 0.929 . S
C1141 C1140 1.399 . S
C1141 C1142 1.385 . S
C1142 H1128 0.931 . S
C1142 C1141 1.385 . S
C1142 C1143 1.389 . S
C1143 C1142 1.389 . S
C1143 C1144 1.387 . S
C1144 H1129 0.930 . S
C1144 C1139 1.390 . S
C1144 C1143 1.387 . S
H1145 C1157 0.930 . S
H1146 C1159 0.930 . S
H1147 C1160 0.930 . S
H1148 C1164 0.959 . S
H1149 C1164 0.959 . S
H1150 C1164 0.961 . S
H1151 C1165 0.960 . S
H1152 C1165 0.961 . S
H1153 C1165 0.959 . S
H1154 C1168 0.929 . S
H1155 C1169 0.931 . S
H1156 C1171 0.930 . S
C1157 H1145 0.930 . S
C1157 C1158 1.399 . S
C1157 C1162 1.399 . S
C1158 C1157 1.399 . S
C1158 C1159 1.376 . S
C1159 H1146 0.930 . S
C1159 C1158 1.376 . S
C1159 C1160 1.388 . S
C1160 H1147 0.930 . S
C1160 C1159 1.388 . S
C1160 C1161 1.390 . S
C1161 C1160 1.390 . S
C1161 C1162 1.394 . S
C1161 C1167 1.465 . S
C1162 C1157 1.399 . S
C1162 C1161 1.394 . S
C1162 C1163 1.516 . S
C1163 C1162 1.516 . S
C1163 C1164 1.502 . S
C1163 C1165 1.561 . S
C1163 C1166 1.526 . S
C1164 H1148 0.959 . S
C1164 H1149 0.959 . S
C1164 H1150 0.961 . S
C1164 C1163 1.502 . S
C1165 H1151 0.960 . S
C1165 H1152 0.961 . S
C1165 H1153 0.959 . S
C1165 C1163 1.561 . S
C1166 C1163 1.526 . S
C1166 C1167 1.396 . S
C1166 C1171 1.390 . S
C1167 C1161 1.465 . S
C1167 C1166 1.396 . S
C1167 C1168 1.399 . S
C1168 H1154 0.929 . S
C1168 C1167 1.399 . S
C1168 C1169 1.385 . S
C1169 H1155 0.931 . S
C1169 C1168 1.385 . S
C1169 C1170 1.389 . S
C1170 C1169 1.389 . S
C1170 C1171 1.387 . S
C1171 H1156 0.930 . S
C1171 C1166 1.390 . S
C1171 C1170 1.387 . S
H1172 C1184 0.930 . S
H1173 C1186 0.930 . S
H1174 C1187 0.930 . S
H1175 C1191 0.959 . S
H1176 C1191 0.959 . S
H1177 C1191 0.961 . S
H1178 C1192 0.960 . S
H1179 C1192 0.961 . S
H1180 C1192 0.959 . S
H1181 C1195 0.929 . S
H1182 C1196 0.931 . S
H1183 C1198 0.930 . S
C1184 H1172 0.930 . S
C1184 C1185 1.399 . S
C1184 C1189 1.399 . S
C1185 C1184 1.399 . S
C1185 C1186 1.376 . S
C1186 H1173 0.930 . S
C1186 C1185 1.376 . S
C1186 C1187 1.388 . S
C1187 H1174 0.930 . S
C1187 C1186 1.388 . S
C1187 C1188 1.390 . S
C1188 C1187 1.390 . S
C1188 C1189 1.394 . S
C1188 C1194 1.465 . S
C1189 C1184 1.399 . S
C1189 C1188 1.394 . S
C1189 C1190 1.516 . S
C1190 C1189 1.516 . S
C1190 C1191 1.502 . S
C1190 C1192 1.561 . S
C1190 C1193 1.526 . S
C1191 H1175 0.959 . S
C1191 H1176 0.959 . S
C1191 H1177 0.961 . S
C1191 C1190 1.502 . S
C1192 H1178 0.960 . S
C1192 H1179 0.961 . S
C1192 H1180 0.959 . S
C1192 C1190 1.561 . S
C1193 C1190 1.526 . S
C1193 C1194 1.396 . S
C1193 C1198 1.390 . S
C1194 C1188 1.465 . S
C1194 C1193 1.396 . S
C1194 C1195 1.399 . S
C1195 H1181 0.929 . S
C1195 C1194 1.399 . S
C1195 C1196 1.385 . S
C1196 H1182 0.931 . S
C1196 C1195 1.385 . S
C1196 C1197 1.389 . S
C1197 C1196 1.389 . S
C1197 C1198 1.387 . S
C1198 H1183 0.930 . S
C1198 C1193 1.390 . S
C1198 C1197 1.387 . S
H1199 C1211 0.930 . S
H1200 C1213 0.930 . S
H1201 C1214 0.930 . S
H1202 C1218 0.959 . S
H1203 C1218 0.959 . S
H1204 C1218 0.961 . S
H1205 C1219 0.960 . S
H1206 C1219 0.961 . S
H1207 C1219 0.959 . S
H1208 C1222 0.929 . S
H1209 C1223 0.931 . S
H1210 C1225 0.930 . S
C1211 H1199 0.930 . S
C1211 C1212 1.399 . S
C1211 C1216 1.399 . S
C1212 C1211 1.399 . S
C1212 C1213 1.376 . S
C1213 H1200 0.930 . S
C1213 C1212 1.376 . S
C1213 C1214 1.388 . S
C1214 H1201 0.930 . S
C1214 C1213 1.388 . S
C1214 C1215 1.390 . S
C1215 C1214 1.390 . S
C1215 C1216 1.394 . S
C1215 C1221 1.465 . S
C1216 C1211 1.399 . S
C1216 C1215 1.394 . S
C1216 C1217 1.516 . S
C1217 C1216 1.516 . S
C1217 C1218 1.502 . S
C1217 C1219 1.561 . S
C1217 C1220 1.526 . S
C1218 H1202 0.959 . S
C1218 H1203 0.959 . S
C1218 H1204 0.961 . S
C1218 C1217 1.502 . S
C1219 H1205 0.960 . S
C1219 H1206 0.961 . S
C1219 H1207 0.959 . S
C1219 C1217 1.561 . S
C1220 C1217 1.526 . S
C1220 C1221 1.396 . S
C1220 C1225 1.390 . S
C1221 C1215 1.465 . S
C1221 C1220 1.396 . S
C1221 C1222 1.399 . S
C1222 H1208 0.929 . S
C1222 C1221 1.399 . S
C1222 C1223 1.385 . S
C1223 H1209 0.931 . S
C1223 C1222 1.385 . S
C1223 C1224 1.389 . S
C1224 C1223 1.389 . S
C1224 C1225 1.387 . S
C1225 H1210 0.930 . S
C1225 C1220 1.390 . S
C1225 C1224 1.387 . S
H1226 C1238 0.930 . S
H1227 C1240 0.930 . S
H1228 C1241 0.930 . S
H1229 C1245 0.959 . S
H1230 C1245 0.959 . S
H1231 C1245 0.961 . S
H1232 C1246 0.960 . S
H1233 C1246 0.961 . S
H1234 C1246 0.959 . S
H1235 C1249 0.929 . S
H1236 C1250 0.931 . S
H1237 C1252 0.930 . S
C1238 H1226 0.930 . S
C1238 C1239 1.399 . S
C1238 C1243 1.399 . S
C1239 C1238 1.399 . S
C1239 C1240 1.376 . S
C1240 H1227 0.930 . S
C1240 C1239 1.376 . S
C1240 C1241 1.388 . S
C1241 H1228 0.930 . S
C1241 C1240 1.388 . S
C1241 C1242 1.390 . S
C1242 C1241 1.390 . S
C1242 C1243 1.394 . S
C1242 C1248 1.465 . S
C1243 C1238 1.399 . S
C1243 C1242 1.394 . S
C1243 C1244 1.516 . S
C1244 C1243 1.516 . S
C1244 C1245 1.502 . S
C1244 C1246 1.561 . S
C1244 C1247 1.526 . S
C1245 H1229 0.959 . S
C1245 H1230 0.959 . S
C1245 H1231 0.961 . S
C1245 C1244 1.502 . S
C1246 H1232 0.960 . S
C1246 H1233 0.961 . S
C1246 H1234 0.959 . S
C1246 C1244 1.561 . S
C1247 C1244 1.526 . S
C1247 C1248 1.396 . S
C1247 C1252 1.390 . S
C1248 C1242 1.465 . S
C1248 C1247 1.396 . S
C1248 C1249 1.399 . S
C1249 H1235 0.929 . S
C1249 C1248 1.399 . S
C1249 C1250 1.385 . S
C1250 H1236 0.931 . S
C1250 C1249 1.385 . S
C1250 C1251 1.389 . S
C1251 C1250 1.389 . S
C1251 C1252 1.387 . S
C1252 H1237 0.930 . S
C1252 C1247 1.390 . S
C1252 C1251 1.387 . S
H1253 C1265 0.930 . S
H1254 C1267 0.930 . S
H1255 C1268 0.930 . S
H1256 C1272 0.959 . S
H1257 C1272 0.959 . S
H1258 C1272 0.961 . S
H1259 C1273 0.960 . S
H1260 C1273 0.961 . S
H1261 C1273 0.959 . S
H1262 C1276 0.929 . S
H1263 C1277 0.931 . S
H1264 C1279 0.930 . S
C1265 H1253 0.930 . S
C1265 C1266 1.399 . S
C1265 C1270 1.399 . S
C1266 C1265 1.399 . S
C1266 C1267 1.376 . S
C1267 H1254 0.930 . S
C1267 C1266 1.376 . S
C1267 C1268 1.388 . S
C1268 H1255 0.930 . S
C1268 C1267 1.388 . S
C1268 C1269 1.390 . S
C1269 C1268 1.390 . S
C1269 C1270 1.394 . S
C1269 C1275 1.465 . S
C1270 C1265 1.399 . S
C1270 C1269 1.394 . S
C1270 C1271 1.516 . S
C1271 C1270 1.516 . S
C1271 C1272 1.502 . S
C1271 C1273 1.561 . S
C1271 C1274 1.526 . S
C1272 H1256 0.959 . S
C1272 H1257 0.959 . S
C1272 H1258 0.961 . S
C1272 C1271 1.502 . S
C1273 H1259 0.960 . S
C1273 H1260 0.961 . S
C1273 H1261 0.959 . S
C1273 C1271 1.561 . S
C1274 C1271 1.526 . S
C1274 C1275 1.396 . S
C1274 C1279 1.390 . S
C1275 C1269 1.465 . S
C1275 C1274 1.396 . S
C1275 C1276 1.399 . S
C1276 H1262 0.929 . S
C1276 C1275 1.399 . S
C1276 C1277 1.385 . S
C1277 H1263 0.931 . S
C1277 C1276 1.385 . S
C1277 C1278 1.389 . S
C1278 C1277 1.389 . S
C1278 C1279 1.387 . S
C1279 H1264 0.930 . S
C1279 C1274 1.390 . S
C1279 C1278 1.387 . S
H1280 C1292 0.930 . S
H1281 C1294 0.930 . S
H1282 C1295 0.930 . S
H1283 C1299 0.959 . S
H1284 C1299 0.959 . S
H1285 C1299 0.961 . S
H1286 C1300 0.960 . S
H1287 C1300 0.961 . S
H1288 C1300 0.959 . S
H1289 C1303 0.929 . S
H1290 C1304 0.931 . S
H1291 C1306 0.930 . S
C1292 H1280 0.930 . S
C1292 C1293 1.399 . S
C1292 C1297 1.399 . S
C1293 C1292 1.399 . S
C1293 C1294 1.376 . S
C1294 H1281 0.930 . S
C1294 C1293 1.376 . S
C1294 C1295 1.388 . S
C1295 H1282 0.930 . S
C1295 C1294 1.388 . S
C1295 C1296 1.390 . S
C1296 C1295 1.390 . S
C1296 C1297 1.394 . S
C1296 C1302 1.465 . S
C1297 C1292 1.399 . S
C1297 C1296 1.394 . S
C1297 C1298 1.516 . S
C1298 C1297 1.516 . S
C1298 C1299 1.502 . S
C1298 C1300 1.561 . S
C1298 C1301 1.526 . S
C1299 H1283 0.959 . S
C1299 H1284 0.959 . S
C1299 H1285 0.961 . S
C1299 C1298 1.502 . S
C1300 H1286 0.960 . S
C1300 H1287 0.961 . S
C1300 H1288 0.959 . S
C1300 C1298 1.561 . S
C1301 C1298 1.526 . S
C1301 C1302 1.396 . S
C1301 C1306 1.390 . S
C1302 C1296 1.465 . S
C1302 C1301 1.396 . S
C1302 C1303 1.399 . S
C1303 H1289 0.929 . S
C1303 C1302 1.399 . S
C1303 C1304 1.385 . S
C1304 H1290 0.931 . S
C1304 C1303 1.385 . S
C1304 C1305 1.389 . S
C1305 C1304 1.389 . S
C1305 C1306 1.387 . S
C1306 H1291 0.930 . S
C1306 C1301 1.390 . S
C1306 C1305 1.387 . S
H1307 C1319 0.930 . S
H1308 C1321 0.930 . S
H1309 C1322 0.930 . S
H1310 C1326 0.959 . S
H1311 C1326 0.959 . S
H1312 C1326 0.961 . S
H1313 C1327 0.960 . S
H1314 C1327 0.961 . S
H1315 C1327 0.959 . S
H1316 C1330 0.929 . S
H1317 C1331 0.931 . S
H1318 C1333 0.930 . S
C1319 H1307 0.930 . S
C1319 C1320 1.399 . S
C1319 C1324 1.399 . S
C1320 C1319 1.399 . S
C1320 C1321 1.376 . S
C1321 H1308 0.930 . S
C1321 C1320 1.376 . S
C1321 C1322 1.388 . S
C1322 H1309 0.930 . S
C1322 C1321 1.388 . S
C1322 C1323 1.390 . S
C1323 C1322 1.390 . S
C1323 C1324 1.394 . S
C1323 C1329 1.465 . S
C1324 C1319 1.399 . S
C1324 C1323 1.394 . S
C1324 C1325 1.516 . S
C1325 C1324 1.516 . S
C1325 C1326 1.502 . S
C1325 C1327 1.561 . S
C1325 C1328 1.526 . S
C1326 H1310 0.959 . S
C1326 H1311 0.959 . S
C1326 H1312 0.961 . S
C1326 C1325 1.502 . S
C1327 H1313 0.960 . S
C1327 H1314 0.961 . S
C1327 H1315 0.959 . S
C1327 C1325 1.561 . S
C1328 C1325 1.526 . S
C1328 C1329 1.396 . S
C1328 C1333 1.390 . S
C1329 C1323 1.465 . S
C1329 C1328 1.396 . S
C1329 C1330 1.399 . S
C1330 H1316 0.929 . S
C1330 C1329 1.399 . S
C1330 C1331 1.385 . S
C1331 H1317 0.931 . S
C1331 C1330 1.385 . S
C1331 C1332 1.389 . S
C1332 C1331 1.389 . S
C1332 C1333 1.387 . S
C1333 H1318 0.930 . S
C1333 C1328 1.390 . S
C1333 C1332 1.387 . S
H1334 C1346 0.930 . S
H1335 C1348 0.930 . S
H1336 C1349 0.930 . S
H1337 C1353 0.959 . S
H1338 C1353 0.959 . S
H1339 C1353 0.961 . S
H1340 C1354 0.960 . S
H1341 C1354 0.961 . S
H1342 C1354 0.959 . S
H1343 C1357 0.929 . S
H1344 C1358 0.931 . S
H1345 C1360 0.930 . S
C1346 H1334 0.930 . S
C1346 C1347 1.399 . S
C1346 C1351 1.399 . S
C1347 C1346 1.399 . S
C1347 C1348 1.376 . S
C1348 H1335 0.930 . S
C1348 C1347 1.376 . S
C1348 C1349 1.388 . S
C1349 H1336 0.930 . S
C1349 C1348 1.388 . S
C1349 C1350 1.390 . S
C1350 C1349 1.390 . S
C1350 C1351 1.394 . S
C1350 C1356 1.465 . S
C1351 C1346 1.399 . S
C1351 C1350 1.394 . S
C1351 C1352 1.516 . S
C1352 C1351 1.516 . S
C1352 C1353 1.502 . S
C1352 C1354 1.561 . S
C1352 C1355 1.526 . S
C1353 H1337 0.959 . S
C1353 H1338 0.959 . S
C1353 H1339 0.961 . S
C1353 C1352 1.502 . S
C1354 H1340 0.960 . S
C1354 H1341 0.961 . S
C1354 H1342 0.959 . S
C1354 C1352 1.561 . S
C1355 C1352 1.526 . S
C1355 C1356 1.396 . S
C1355 C1360 1.390 . S
C1356 C1350 1.465 . S
C1356 C1355 1.396 . S
C1356 C1357 1.399 . S
C1357 H1343 0.929 . S
C1357 C1356 1.399 . S
C1357 C1358 1.385 . S
C1358 H1344 0.931 . S
C1358 C1357 1.385 . S
C1358 C1359 1.389 . S
C1359 C1358 1.389 . S
C1359 C1360 1.387 . S
C1360 H1345 0.930 . S
C1360 C1355 1.390 . S
C1360 C1359 1.387 . S
H1361 C1373 0.930 . S
H1362 C1375 0.930 . S
H1363 C1376 0.930 . S
H1364 C1380 0.959 . S
H1365 C1380 0.959 . S
H1366 C1380 0.961 . S
H1367 C1381 0.960 . S
H1368 C1381 0.961 . S
H1369 C1381 0.959 . S
H1370 C1384 0.929 . S
H1371 C1385 0.931 . S
H1372 C1387 0.930 . S
C1373 H1361 0.930 . S
C1373 C1374 1.399 . S
C1373 C1378 1.399 . S
C1374 C1373 1.399 . S
C1374 C1375 1.376 . S
C1375 H1362 0.930 . S
C1375 C1374 1.376 . S
C1375 C1376 1.388 . S
C1376 H1363 0.930 . S
C1376 C1375 1.388 . S
C1376 C1377 1.390 . S
C1377 C1376 1.390 . S
C1377 C1378 1.394 . S
C1377 C1383 1.465 . S
C1378 C1373 1.399 . S
C1378 C1377 1.394 . S
C1378 C1379 1.516 . S
C1379 C1378 1.516 . S
C1379 C1380 1.502 . S
C1379 C1381 1.561 . S
C1379 C1382 1.526 . S
C1380 H1364 0.959 . S
C1380 H1365 0.959 . S
C1380 H1366 0.961 . S
C1380 C1379 1.502 . S
C1381 H1367 0.960 . S
C1381 H1368 0.961 . S
C1381 H1369 0.959 . S
C1381 C1379 1.561 . S
C1382 C1379 1.526 . S
C1382 C1383 1.396 . S
C1382 C1387 1.390 . S
C1383 C1377 1.465 . S
C1383 C1382 1.396 . S
C1383 C1384 1.399 . S
C1384 H1370 0.929 . S
C1384 C1383 1.399 . S
C1384 C1385 1.385 . S
C1385 H1371 0.931 . S
C1385 C1384 1.385 . S
C1385 C1386 1.389 . S
C1386 C1385 1.389 . S
C1386 C1387 1.387 . S
C1387 H1372 0.930 . S
C1387 C1382 1.390 . S
C1387 C1386 1.387 . S
H1388 C1400 0.930 . S
H1389 C1402 0.930 . S
H1390 C1403 0.930 . S
H1391 C1407 0.959 . S
H1392 C1407 0.959 . S
H1393 C1407 0.961 . S
H1394 C1408 0.960 . S
H1395 C1408 0.961 . S
H1396 C1408 0.959 . S
H1397 C1411 0.929 . S
H1398 C1412 0.931 . S
H1399 C1414 0.930 . S
C1400 H1388 0.930 . S
C1400 C1401 1.399 . S
C1400 C1405 1.399 . S
C1401 C1400 1.399 . S
C1401 C1402 1.376 . S
C1402 H1389 0.930 . S
C1402 C1401 1.376 . S
C1402 C1403 1.388 . S
C1403 H1390 0.930 . S
C1403 C1402 1.388 . S
C1403 C1404 1.390 . S
C1404 C1403 1.390 . S
C1404 C1405 1.394 . S
C1404 C1410 1.465 . S
C1405 C1400 1.399 . S
C1405 C1404 1.394 . S
C1405 C1406 1.516 . S
C1406 C1405 1.516 . S
C1406 C1407 1.502 1_455 S
C1406 C1408 1.561 . S
C1406 C1409 1.526 . S
C1407 H1391 0.959 . S
C1407 H1392 0.959 . S
C1407 H1393 0.961 . S
C1407 C1406 1.502 1_655 S
C1408 H1394 0.960 . S
C1408 H1395 0.961 . S
C1408 H1396 0.959 . S
C1408 C1406 1.561 . S
C1409 C1406 1.526 . S
C1409 C1410 1.396 . S
C1409 C1414 1.390 . S
C1410 C1404 1.465 . S
C1410 C1409 1.396 . S
C1410 C1411 1.399 . S
C1411 H1397 0.929 . S
C1411 C1410 1.399 . S
C1411 C1412 1.385 . S
C1412 H1398 0.931 . S
C1412 C1411 1.385 . S
C1412 C1413 1.389 . S
C1413 C1412 1.389 . S
C1413 C1414 1.387 . S
C1414 H1399 0.930 . S
C1414 C1409 1.390 . S
C1414 C1413 1.387 . S
H1415 C1427 0.930 . S
H1416 C1429 0.930 . S
H1417 C1430 0.930 . S
H1418 C1434 0.959 . S
H1419 C1434 0.959 . S
H1420 C1434 0.961 . S
H1421 C1435 0.960 . S
H1422 C1435 0.961 . S
H1423 C1435 0.959 . S
H1424 C1438 0.929 . S
H1425 C1439 0.931 . S
H1426 C1441 0.930 . S
C1427 H1415 0.930 . S
C1427 C1428 1.399 . S
C1427 C1432 1.399 . S
C1428 C1427 1.399 . S
C1428 C1429 1.376 . S
C1429 H1416 0.930 . S
C1429 C1428 1.376 . S
C1429 C1430 1.388 . S
C1430 H1417 0.930 . S
C1430 C1429 1.388 . S
C1430 C1431 1.390 . S
C1431 C1430 1.390 . S
C1431 C1432 1.394 . S
C1431 C1437 1.465 . S
C1432 C1427 1.399 . S
C1432 C1431 1.394 . S
C1432 C1433 1.516 . S
C1433 C1432 1.516 . S
C1433 C1434 1.502 . S
C1433 C1435 1.561 . S
C1433 C1436 1.526 . S
C1434 H1418 0.959 . S
C1434 H1419 0.959 . S
C1434 H1420 0.961 . S
C1434 C1433 1.502 . S
C1435 H1421 0.960 . S
C1435 H1422 0.961 . S
C1435 H1423 0.959 . S
C1435 C1433 1.561 . S
C1436 C1433 1.526 . S
C1436 C1437 1.396 . S
C1436 C1441 1.390 . S
C1437 C1431 1.465 . S
C1437 C1436 1.396 . S
C1437 C1438 1.399 . S
C1438 H1424 0.929 . S
C1438 C1437 1.399 . S
C1438 C1439 1.385 . S
C1439 H1425 0.931 . S
C1439 C1438 1.385 . S
C1439 C1440 1.389 . S
C1440 C1439 1.389 . S
C1440 C1441 1.387 . S
C1441 H1426 0.930 . S
C1441 C1436 1.390 . S
C1441 C1440 1.387 . S
H1442 C1454 0.930 . S
H1443 C1456 0.930 . S
H1444 C1457 0.930 . S
H1445 C1461 0.959 . S
H1446 C1461 0.959 . S
H1447 C1461 0.961 . S
H1448 C1462 0.960 . S
H1449 C1462 0.961 . S
H1450 C1462 0.959 . S
H1451 C1465 0.929 . S
H1452 C1466 0.931 1_554 S
H1453 C1468 0.930 . S
C1454 H1442 0.930 . S
C1454 C1455 1.399 . S
C1454 C1459 1.399 . S
C1455 C1454 1.399 . S
C1455 C1456 1.376 . S
C1456 H1443 0.930 . S
C1456 C1455 1.376 . S
C1456 C1457 1.388 . S
C1457 H1444 0.930 . S
C1457 C1456 1.388 . S
C1457 C1458 1.390 . S
C1458 C1457 1.390 . S
C1458 C1459 1.394 . S
C1458 C1464 1.465 . S
C1459 C1454 1.399 . S
C1459 C1458 1.394 . S
C1459 C1460 1.516 . S
C1460 C1459 1.516 . S
C1460 C1461 1.502 . S
C1460 C1462 1.561 . S
C1460 C1463 1.526 . S
C1461 H1445 0.959 . S
C1461 H1446 0.959 . S
C1461 H1447 0.961 . S
C1461 C1460 1.502 . S
C1462 H1448 0.960 . S
C1462 H1449 0.961 . S
C1462 H1450 0.959 . S
C1462 C1460 1.561 . S
C1463 C1460 1.526 . S
C1463 C1464 1.396 . S
C1463 C1468 1.390 . S
C1464 C1458 1.465 . S
C1464 C1463 1.396 . S
C1464 C1465 1.399 . S
C1465 H1451 0.929 . S
C1465 C1464 1.399 . S
C1465 C1466 1.385 . S
C1466 H1452 0.931 1_556 S
C1466 C1465 1.385 . S
C1466 C1467 1.389 . S
C1467 C1466 1.389 . S
C1467 C1468 1.387 . S
C1468 H1453 0.930 . S
C1468 C1463 1.390 . S
C1468 C1467 1.387 . S
H1469 C1481 0.930 . S
H1470 C1483 0.930 . S
H1471 C1484 0.930 . S
H1472 C1488 0.959 . S
H1473 C1488 0.959 . S
H1474 C1488 0.961 . S
H1475 C1489 0.960 . S
H1476 C1489 0.961 . S
H1477 C1489 0.959 . S
H1478 C1492 0.929 . S
H1479 C1493 0.931 . S
H1480 C1495 0.930 . S
C1481 H1469 0.930 . S
C1481 C1482 1.399 . S
C1481 C1486 1.399 . S
C1482 C1481 1.399 . S
C1482 C1483 1.376 . S
C1483 H1470 0.930 . S
C1483 C1482 1.376 . S
C1483 C1484 1.388 . S
C1484 H1471 0.930 . S
C1484 C1483 1.388 . S
C1484 C1485 1.390 . S
C1485 C1484 1.390 . S
C1485 C1486 1.394 . S
C1485 C1491 1.465 . S
C1486 C1481 1.399 . S
C1486 C1485 1.394 . S
C1486 C1487 1.516 . S
C1487 C1486 1.516 . S
C1487 C1488 1.502 . S
C1487 C1489 1.561 . S
C1487 C1490 1.526 . S
C1488 H1472 0.959 . S
C1488 H1473 0.959 . S
C1488 H1474 0.961 . S
C1488 C1487 1.502 . S
C1489 H1475 0.960 . S
C1489 H1476 0.961 . S
C1489 H1477 0.959 . S
C1489 C1487 1.561 . S
C1490 C1487 1.526 . S
C1490 C1491 1.396 . S
C1490 C1495 1.390 . S
C1491 C1485 1.465 . S
C1491 C1490 1.396 . S
C1491 C1492 1.399 . S
C1492 H1478 0.929 . S
C1492 C1491 1.399 . S
C1492 C1493 1.385 . S
C1493 H1479 0.931 . S
C1493 C1492 1.385 . S
C1493 C1494 1.389 . S
C1494 C1493 1.389 . S
C1494 C1495 1.387 . S
C1495 H1480 0.930 . S
C1495 C1490 1.390 . S
C1495 C1494 1.387 . S
H1496 C1508 0.930 . S
H1497 C1510 0.930 . S
H1498 C1511 0.930 . S
H1499 C1515 0.959 . S
H1500 C1515 0.959 . S
H1501 C1515 0.961 . S
H1502 C1516 0.960 . S
H1503 C1516 0.961 . S
H1504 C1516 0.959 . S
H1505 C1519 0.929 . S
H1506 C1520 0.931 . S
H1507 C1522 0.891 1_565 S
C1508 H1496 0.930 . S
C1508 C1509 1.399 1_565 S
C1508 C1513 1.404 . S
C1509 C1508 1.399 1_545 S
C1509 C1510 1.376 . S
C1510 H1497 0.930 . S
C1510 C1509 1.376 . S
C1510 C1511 1.388 . S
C1511 H1498 0.930 . S
C1511 C1510 1.388 . S
C1511 C1512 1.390 . S
C1512 C1511 1.390 . S
C1512 C1513 1.378 1_545 S
C1512 C1518 1.465 . S
C1513 C1508 1.404 . S
C1513 C1512 1.378 1_565 S
C1513 C1514 1.525 . S
C1514 C1513 1.525 . S
C1514 C1515 1.502 . S
C1514 C1516 1.561 . S
C1514 C1517 1.526 1_565 S
C1515 H1499 0.959 . S
C1515 H1500 0.959 . S
C1515 H1501 0.961 . S
C1515 C1514 1.502 . S
C1516 H1502 0.960 . S
C1516 H1503 0.961 . S
C1516 H1504 0.959 . S
C1516 C1514 1.561 . S
C1517 C1514 1.526 1_545 S
C1517 C1518 1.396 . S
C1517 C1522 1.394 . S
C1518 C1512 1.465 . S
C1518 C1517 1.396 . S
C1518 C1519 1.399 . S
C1519 H1505 0.929 . S
C1519 C1518 1.399 . S
C1519 C1520 1.385 . S
C1520 H1506 0.931 . S
C1520 C1519 1.385 . S
C1520 C1521 1.389 . S
C1521 C1520 1.389 . S
C1521 C1522 1.422 . S
C1522 H1507 0.891 1_545 S
C1522 C1517 1.394 . S
C1522 C1521 1.422 . S
H1523 C1535 0.930 . S
H1524 C1537 0.930 . S
H1525 C1538 0.930 . S
H1526 C1542 0.959 . S
H1527 C1542 0.959 . S
H1528 C1542 0.961 . S
H1529 C1543 0.960 . S
H1530 C1543 0.961 . S
H1531 C1543 0.959 . S
H1532 C1546 0.929 . S
H1533 C1547 0.931 . S
H1534 C1549 0.930 . S
C1535 H1523 0.930 . S
C1535 C1536 1.399 . S
C1535 C1540 1.399 . S
C1536 C1535 1.399 . S
C1536 C1537 1.376 . S
C1537 H1524 0.930 . S
C1537 C1536 1.376 . S
C1537 C1538 1.388 . S
C1538 H1525 0.930 . S
C1538 C1537 1.388 . S
C1538 C1539 1.390 . S
C1539 C1538 1.390 . S
C1539 C1540 1.394 . S
C1539 C1545 1.465 . S
C1540 C1535 1.399 . S
C1540 C1539 1.394 . S
C1540 C1541 1.516 . S
C1541 C1540 1.516 . S
C1541 C1542 1.502 . S
C1541 C1543 1.561 . S
C1541 C1544 1.526 . S
C1542 H1526 0.959 . S
C1542 H1527 0.959 . S
C1542 H1528 0.961 . S
C1542 C1541 1.502 . S
C1543 H1529 0.960 . S
C1543 H1530 0.961 . S
C1543 H1531 0.959 . S
C1543 C1541 1.561 . S
C1544 C1541 1.526 . S
C1544 C1545 1.396 . S
C1544 C1549 1.390 . S
C1545 C1539 1.465 . S
C1545 C1544 1.396 . S
C1545 C1546 1.399 . S
C1546 H1532 0.929 . S
C1546 C1545 1.399 . S
C1546 C1547 1.385 . S
C1547 H1533 0.931 . S
C1547 C1546 1.385 . S
C1547 C1548 1.389 . S
C1548 C1547 1.389 . S
C1548 C1549 1.387 . S
C1549 H1534 0.930 . S
C1549 C1544 1.390 . S
C1549 C1548 1.387 . S
H1550 C1562 0.930 1_565 S
H1551 C1564 0.930 . S
H1552 C1565 0.930 . S
H1553 C1569 0.959 . S
H1554 C1569 0.959 . S
H1555 C1569 0.961 . S
H1556 C1570 0.960 . S
H1557 C1570 0.961 . S
H1558 C1570 0.959 . S
H1559 C1573 0.929 . S
H1560 C1574 0.931 . S
H1561 C1576 0.930 1_565 S
C1562 H1550 0.930 1_545 S
C1562 C1563 1.399 . S
C1562 C1567 1.399 . S
C1563 C1562 1.399 . S
C1563 C1564 1.376 . S
C1564 H1551 0.930 . S
C1564 C1563 1.376 . S
C1564 C1565 1.388 . S
C1565 H1552 0.930 . S
C1565 C1564 1.388 . S
C1565 C1566 1.390 . S
C1566 C1565 1.390 . S
C1566 C1567 1.394 . S
C1566 C1572 1.465 . S
C1567 C1562 1.399 . S
C1567 C1566 1.394 . S
C1567 C1568 1.516 1_545 S
C1568 C1567 1.516 1_565 S
C1568 C1569 1.502 . S
C1568 C1570 1.561 . S
C1568 C1571 1.526 1_565 S
C1569 H1553 0.959 . S
C1569 H1554 0.959 . S
C1569 H1555 0.961 . S
C1569 C1568 1.502 . S
C1570 H1556 0.960 . S
C1570 H1557 0.961 . S
C1570 H1558 0.959 . S
C1570 C1568 1.561 . S
C1571 C1568 1.526 1_545 S
C1571 C1572 1.396 . S
C1571 C1576 1.390 . S
C1572 C1566 1.465 . S
C1572 C1571 1.396 . S
C1572 C1573 1.399 . S
C1573 H1559 0.929 . S
C1573 C1572 1.399 . S
C1573 C1574 1.385 . S
C1574 H1560 0.931 . S
C1574 C1573 1.385 . S
C1574 C1575 1.389 . S
C1575 C1574 1.389 . S
C1575 C1576 1.387 . S
C1576 H1561 0.930 1_545 S
C1576 C1571 1.390 . S
C1576 C1575 1.387 . S
H1577 C1589 0.930 . S
H1578 C1591 0.930 . S
H1579 C1592 0.930 . S
H1580 C1596 0.959 . S
H1581 C1596 0.959 . S
H1582 C1596 0.961 . S
H1583 C1597 0.960 . S
H1584 C1597 0.961 . S
H1585 C1597 0.959 . S
H1586 C1600 0.929 . S
H1587 C1601 0.931 . S
H1588 C1603 0.930 . S
C1589 H1577 0.930 . S
C1589 C1590 1.399 . S
C1589 C1594 1.399 . S
C1590 C1589 1.399 . S
C1590 C1591 1.376 . S
C1591 H1578 0.930 . S
C1591 C1590 1.376 . S
C1591 C1592 1.388 . S
C1592 H1579 0.930 . S
C1592 C1591 1.388 . S
C1592 C1593 1.390 . S
C1593 C1592 1.390 . S
C1593 C1594 1.394 . S
C1593 C1599 1.465 . S
C1594 C1589 1.399 . S
C1594 C1593 1.394 . S
C1594 C1595 1.516 . S
C1595 C1594 1.516 . S
C1595 C1596 1.502 . S
C1595 C1597 1.561 . S
C1595 C1598 1.526 . S
C1596 H1580 0.959 . S
C1596 H1581 0.959 . S
C1596 H1582 0.961 . S
C1596 C1595 1.502 . S
C1597 H1583 0.960 . S
C1597 H1584 0.961 . S
C1597 H1585 0.959 . S
C1597 C1595 1.561 . S
C1598 C1595 1.526 . S
C1598 C1599 1.396 . S
C1598 C1603 1.390 . S
C1599 C1593 1.465 . S
C1599 C1598 1.396 . S
C1599 C1600 1.399 . S
C1600 H1586 0.929 . S
C1600 C1599 1.399 . S
C1600 C1601 1.385 . S
C1601 H1587 0.931 . S
C1601 C1600 1.385 . S
C1601 C1602 1.389 . S
C1602 C1601 1.389 . S
C1602 C1603 1.387 . S
C1603 H1588 0.930 . S
C1603 C1598 1.390 . S
C1603 C1602 1.387 . S
H1604 C1616 0.930 1_545 S
H1605 C1618 0.930 . S
H1606 C1619 0.930 . S
H1607 C1623 0.959 . S
H1608 C1623 0.959 . S
H1609 C1623 0.961 . S
H1610 C1624 0.960 . S
H1611 C1624 0.961 . S
H1612 C1624 0.959 . S
H1613 C1627 0.929 . S
H1614 C1628 0.931 . S
H1615 C1630 0.930 . S
C1616 H1604 0.930 1_565 S
C1616 C1617 1.399 . S
C1616 C1621 1.399 . S
C1617 C1616 1.399 . S
C1617 C1618 1.376 . S
C1618 H1605 0.930 . S
C1618 C1617 1.376 . S
C1618 C1619 1.388 . S
C1619 H1606 0.930 . S
C1619 C1618 1.388 . S
C1619 C1620 1.390 . S
C1620 C1619 1.390 . S
C1620 C1621 1.394 . S
C1620 C1626 1.465 . S
C1621 C1616 1.399 . S
C1621 C1620 1.394 . S
C1621 C1622 1.516 1_565 S
C1622 C1621 1.516 1_545 S
C1622 C1623 1.502 . S
C1622 C1624 1.561 1_545 S
C1622 C1625 1.526 . S
C1623 H1607 0.959 . S
C1623 H1608 0.959 . S
C1623 H1609 0.961 . S
C1623 C1622 1.502 . S
C1624 H1610 0.960 . S
C1624 H1611 0.961 . S
C1624 H1612 0.959 . S
C1624 C1622 1.561 1_565 S
C1625 C1622 1.526 . S
C1625 C1626 1.396 1_545 S
C1625 C1630 1.390 . S
C1626 C1620 1.465 . S
C1626 C1625 1.396 1_565 S
C1626 C1627 1.399 . S
C1627 H1613 0.929 . S
C1627 C1626 1.399 . S
C1627 C1628 1.385 . S
C1628 H1614 0.931 . S
C1628 C1627 1.385 . S
C1628 C1629 1.389 1_565 S
C1629 C1628 1.389 1_545 S
C1629 C1630 1.387 . S
C1630 H1615 0.930 . S
C1630 C1625 1.390 . S
C1630 C1629 1.387 . S
H1631 C1643 0.930 . S
H1632 C1645 0.930 . S
H1633 C1646 0.930 . S
H1634 C1650 0.959 . S
H1635 C1650 0.959 . S
H1636 C1650 0.961 . S
H1637 C1651 0.960 . S
H1638 C1651 0.961 . S
H1639 C1651 0.959 . S
H1640 C1654 0.929 . S
H1641 C1655 0.931 . S
H1642 C1657 0.930 . S
C1643 H1631 0.930 . S
C1643 C1644 1.399 . S
C1643 C1648 1.399 . S
C1644 C1643 1.399 . S
C1644 C1645 1.376 . S
C1645 H1632 0.930 . S
C1645 C1644 1.376 . S
C1645 C1646 1.388 . S
C1646 H1633 0.930 . S
C1646 C1645 1.388 . S
C1646 C1647 1.390 . S
C1647 C1646 1.390 . S
C1647 C1648 1.394 . S
C1647 C1653 1.465 . S
C1648 C1643 1.399 . S
C1648 C1647 1.394 . S
C1648 C1649 1.516 . S
C1649 C1648 1.516 . S
C1649 C1650 1.502 . S
C1649 C1651 1.561 . S
C1649 C1652 1.526 . S
C1650 H1634 0.959 . S
C1650 H1635 0.959 . S
C1650 H1636 0.961 . S
C1650 C1649 1.502 . S
C1651 H1637 0.960 . S
C1651 H1638 0.961 . S
C1651 H1639 0.959 . S
C1651 C1649 1.561 . S
C1652 C1649 1.526 . S
C1652 C1653 1.396 . S
C1652 C1657 1.390 . S
C1653 C1647 1.465 . S
C1653 C1652 1.396 . S
C1653 C1654 1.399 . S
C1654 H1640 0.929 . S
C1654 C1653 1.399 . S
C1654 C1655 1.385 . S
C1655 H1641 0.931 . S
C1655 C1654 1.385 . S
C1655 C1656 1.389 . S
C1656 C1655 1.389 . S
C1656 C1657 1.387 . S
C1657 H1642 0.930 . S
C1657 C1652 1.390 . S
C1657 C1656 1.387 . S
H1658 C1670 0.930 . S
H1659 C1672 0.921 1_565 S
H1660 C1673 0.930 . S
H1661 C1677 0.959 . S
H1662 C1677 0.959 . S
H1663 C1677 0.961 . S
H1664 C1678 0.960 . S
H1665 C1678 0.961 . S
H1666 C1678 0.959 . S
H1667 C1681 0.929 . S
H1668 C1682 0.931 . S
H1669 C1684 0.930 . S
C1670 H1658 0.930 . S
C1670 C1671 1.399 . S
C1670 C1675 1.399 . S
C1671 C1670 1.399 . S
C1671 C1672 1.390 . S
C1672 H1659 0.921 1_545 S
C1672 C1671 1.390 . S
C1672 C1673 1.384 1_545 S
C1673 H1660 0.930 . S
C1673 C1672 1.384 1_565 S
C1673 C1674 1.390 1_565 S
C1674 C1673 1.390 1_545 S
C1674 C1675 1.394 . S
C1674 C1680 1.465 . S
C1675 C1670 1.399 . S
C1675 C1674 1.394 . S
C1675 C1676 1.516 . S
C1676 C1675 1.516 . S
C1676 C1677 1.502 . S
C1676 C1678 1.561 . S
C1676 C1679 1.526 . S
C1677 H1661 0.959 . S
C1677 H1662 0.959 . S
C1677 H1663 0.961 . S
C1677 C1676 1.502 . S
C1678 H1664 0.960 . S
C1678 H1665 0.961 . S
C1678 H1666 0.959 . S
C1678 C1676 1.561 . S
C1679 C1676 1.526 . S
C1679 C1680 1.396 . S
C1679 C1684 1.390 . S
C1680 C1674 1.465 . S
C1680 C1679 1.396 . S
C1680 C1681 1.399 1_545 S
C1681 H1667 0.929 . S
C1681 C1680 1.399 1_565 S
C1681 C1682 1.385 . S
C1682 H1668 0.931 . S
C1682 C1681 1.385 . S
C1682 C1683 1.389 1_565 S
C1683 C1682 1.389 1_545 S
C1683 C1684 1.387 . S
C1684 H1669 0.930 . S
C1684 C1679 1.390 . S
C1684 C1683 1.387 . S
H1685 C1697 0.930 . S
H1686 C1699 0.930 . S
H1687 C1700 0.930 . S
H1688 C1704 0.959 . S
H1689 C1704 0.959 . S
H1690 C1704 0.961 . S
H1691 C1705 0.960 . S
H1692 C1705 0.961 . S
H1693 C1705 0.959 . S
H1694 C1708 0.929 . S
H1695 C1709 0.931 . S
H1696 C1711 0.930 . S
C1697 H1685 0.930 . S
C1697 C1698 1.399 . S
C1697 C1702 1.399 . S
C1698 C1697 1.399 . S
C1698 C1699 1.376 . S
C1699 H1686 0.930 . S
C1699 C1698 1.376 . S
C1699 C1700 1.388 . S
C1700 H1687 0.930 . S
C1700 C1699 1.388 . S
C1700 C1701 1.390 . S
C1701 C1700 1.390 . S
C1701 C1702 1.394 . S
C1701 C1707 1.465 . S
C1702 C1697 1.399 . S
C1702 C1701 1.394 . S
C1702 C1703 1.516 . S
C1703 C1702 1.516 . S
C1703 C1704 1.502 . S
C1703 C1705 1.561 . S
C1703 C1706 1.526 . S
C1704 H1688 0.959 . S
C1704 H1689 0.959 . S
C1704 H1690 0.961 . S
C1704 C1703 1.502 . S
C1705 H1691 0.960 . S
C1705 H1692 0.961 . S
C1705 H1693 0.959 . S
C1705 C1703 1.561 . S
C1706 C1703 1.526 . S
C1706 C1707 1.396 . S
C1706 C1711 1.390 . S
C1707 C1701 1.465 . S
C1707 C1706 1.396 . S
C1707 C1708 1.399 . S
C1708 H1694 0.929 . S
C1708 C1707 1.399 . S
C1708 C1709 1.385 . S
C1709 H1695 0.931 . S
C1709 C1708 1.385 . S
C1709 C1710 1.389 . S
C1710 C1709 1.389 . S
C1710 C1711 1.387 . S
C1711 H1696 0.930 . S
C1711 C1706 1.390 . S
C1711 C1710 1.387 . S
H1712 C1724 0.930 . S
H1713 C1726 0.930 . S
H1714 C1727 0.930 . S
H1715 C1731 0.959 . S
H1716 C1731 0.959 . S
H1717 C1731 0.961 . S
H1718 C1732 0.960 . S
H1719 C1732 0.961 . S
H1720 C1732 0.959 . S
H1721 C1735 0.929 . S
H1722 C1736 0.931 . S
H1723 C1738 0.930 . S
C1724 H1712 0.930 . S
C1724 C1725 1.399 . S
C1724 C1729 1.399 . S
C1725 C1724 1.399 . S
C1725 C1726 1.376 1_554 S
C1726 H1713 0.930 . S
C1726 C1725 1.376 1_556 S
C1726 C1727 1.388 . S
C1727 H1714 0.930 . S
C1727 C1726 1.388 . S
C1727 C1728 1.390 . S
C1728 C1727 1.390 . S
C1728 C1729 1.394 1_556 S
C1728 C1734 1.465 . S
C1729 C1724 1.399 . S
C1729 C1728 1.394 1_554 S
C1729 C1730 1.516 . S
C1730 C1729 1.516 . S
C1730 C1731 1.502 . S
C1730 C1732 1.561 . S
C1730 C1733 1.526 . S
C1731 H1715 0.959 . S
C1731 H1716 0.959 . S
C1731 H1717 0.961 . S
C1731 C1730 1.502 . S
C1732 H1718 0.960 . S
C1732 H1719 0.961 . S
C1732 H1720 0.959 . S
C1732 C1730 1.561 . S
C1733 C1730 1.526 . S
C1733 C1734 1.396 1_554 S
C1733 C1738 1.390 . S
C1734 C1728 1.465 . S
C1734 C1733 1.396 1_556 S
C1734 C1735 1.399 . S
C1735 H1721 0.929 . S
C1735 C1734 1.399 . S
C1735 C1736 1.385 . S
C1736 H1722 0.931 . S
C1736 C1735 1.385 . S
C1736 C1737 1.389 . S
C1737 C1736 1.389 . S
C1737 C1738 1.387 1_556 S
C1738 H1723 0.930 . S
C1738 C1733 1.390 . S
C1738 C1737 1.387 1_554 S
H1739 C1751 0.930 . S
H1740 C1753 0.930 . S
H1741 C1754 0.930 . S
H1742 C1758 0.992 . S
H1743 C1758 0.959 . S
H1744 C1758 0.961 . S
H1745 C1759 0.960 . S
H1746 C1759 0.961 . S
H1747 C1759 0.959 . S
H1748 C1762 0.929 . S
H1749 C1763 0.931 . S
H1750 C1765 0.930 . S
C1751 H1739 0.930 . S
C1751 C1752 1.399 1_556 S
C1751 C1756 1.399 1_556 S
C1752 C1751 1.399 1_554 S
C1752 C1753 1.376 . S
C1753 H1740 0.930 . S
C1753 C1752 1.376 . S
C1753 C1754 1.388 . S
C1754 H1741 0.930 . S
C1754 C1753 1.388 . S
C1754 C1755 1.390 . S
C1755 C1754 1.390 . S
C1755 C1756 1.394 . S
C1755 C1761 1.465 . S
C1756 C1751 1.399 1_554 S
C1756 C1755 1.394 . S
C1756 C1757 1.516 1_554 S
C1757 C1756 1.516 1_556 S
C1757 C1758 1.502 . S
C1757 C1759 1.561 . S
C1757 C1760 1.517 1_556 S
C1758 H1742 0.992 . S
C1758 H1743 0.959 . S
C1758 H1744 0.961 . S
C1758 C1757 1.502 . S
C1759 H1745 0.960 . S
C1759 H1746 0.961 . S
C1759 H1747 0.959 . S
C1759 C1757 1.561 . S
C1760 C1757 1.517 1_554 S
C1760 C1761 1.411 . S
C1760 C1765 1.385 1_554 S
C1761 C1755 1.465 . S
C1761 C1760 1.411 . S
C1761 C1762 1.399 . S
C1762 H1748 0.929 . S
C1762 C1761 1.399 . S
C1762 C1763 1.385 . S
C1763 H1749 0.931 . S
C1763 C1762 1.385 . S
C1763 C1764 1.389 . S
C1764 C1763 1.389 . S
C1764 C1765 1.387 1_554 S
C1765 H1750 0.930 . S
C1765 C1760 1.385 1_556 S
C1765 C1764 1.387 1_556 S
H1766 C1778 0.930 . S
H1767 C1780 0.930 . S
H1768 C1781 0.930 . S
H1769 C1785 0.959 . S
H1770 C1785 0.959 . S
H1771 C1785 0.961 . S
H1772 C1786 0.960 . S
H1773 C1786 0.961 . S
H1774 C1786 0.959 . S
H1775 C1789 0.929 . S
H1776 C1790 0.931 . S
H1777 C1792 0.930 . S
C1778 H1766 0.930 . S
C1778 C1779 1.399 . S
C1778 C1783 1.399 . S
C1779 C1778 1.399 . S
C1779 C1780 1.376 . S
C1780 H1767 0.930 . S
C1780 C1779 1.376 . S
C1780 C1781 1.388 . S
C1781 H1768 0.930 . S
C1781 C1780 1.388 . S
C1781 C1782 1.390 . S
C1782 C1781 1.390 . S
C1782 C1783 1.394 . S
C1782 C1788 1.465 . S
C1783 C1778 1.399 . S
C1783 C1782 1.394 . S
C1783 C1784 1.516 . S
C1784 C1783 1.516 . S
C1784 C1785 1.502 . S
C1784 C1786 1.561 . S
C1784 C1787 1.526 . S
C1785 H1769 0.959 . S
C1785 H1770 0.959 . S
C1785 H1771 0.961 . S
C1785 C1784 1.502 . S
C1786 H1772 0.960 . S
C1786 H1773 0.961 . S
C1786 H1774 0.959 . S
C1786 C1784 1.561 . S
C1787 C1784 1.526 . S
C1787 C1788 1.396 . S
C1787 C1792 1.390 . S
C1788 C1782 1.465 . S
C1788 C1787 1.396 . S
C1788 C1789 1.399 . S
C1789 H1775 0.929 . S
C1789 C1788 1.399 . S
C1789 C1790 1.385 . S
C1790 H1776 0.931 . S
C1790 C1789 1.385 . S
C1790 C1791 1.389 . S
C1791 C1790 1.389 . S
C1791 C1792 1.387 . S
C1792 H1777 0.930 . S
C1792 C1787 1.390 . S
C1792 C1791 1.387 . S
H1793 C1805 0.930 . S
H1794 C1807 0.930 . S
H1795 C1808 0.930 . S
H1796 C1812 0.959 . S
H1797 C1812 0.959 . S
H1798 C1812 0.961 . S
H1799 C1813 0.960 . S
H1800 C1813 0.961 . S
H1801 C1813 0.959 . S
H1802 C1816 0.929 . S
H1803 C1817 0.931 . S
H1804 C1819 0.930 . S
C1805 H1793 0.930 . S
C1805 C1806 1.399 . S
C1805 C1810 1.399 . S
C1806 C1805 1.399 . S
C1806 C1807 1.376 . S
C1807 H1794 0.930 . S
C1807 C1806 1.376 . S
C1807 C1808 1.388 . S
C1808 H1795 0.930 . S
C1808 C1807 1.388 . S
C1808 C1809 1.390 . S
C1809 C1808 1.390 . S
C1809 C1810 1.394 . S
C1809 C1815 1.465 . S
C1810 C1805 1.399 . S
C1810 C1809 1.394 . S
C1810 C1811 1.516 . S
C1811 C1810 1.516 . S
C1811 C1812 1.502 . S
C1811 C1813 1.561 . S
C1811 C1814 1.526 . S
C1812 H1796 0.959 . S
C1812 H1797 0.959 . S
C1812 H1798 0.961 . S
C1812 C1811 1.502 . S
C1813 H1799 0.960 . S
C1813 H1800 0.961 . S
C1813 H1801 0.959 . S
C1813 C1811 1.561 . S
C1814 C1811 1.526 . S
C1814 C1815 1.396 . S
C1814 C1819 1.390 . S
C1815 C1809 1.465 . S
C1815 C1814 1.396 . S
C1815 C1816 1.399 . S
C1816 H1802 0.929 . S
C1816 C1815 1.399 . S
C1816 C1817 1.385 . S
C1817 H1803 0.931 . S
C1817 C1816 1.385 . S
C1817 C1818 1.389 . S
C1818 C1817 1.389 . S
C1818 C1819 1.387 . S
C1819 H1804 0.930 . S
C1819 C1814 1.390 . S
C1819 C1818 1.387 . S
H1820 C1832 0.930 . S
H1821 C1834 0.930 . S
H1822 C1835 0.930 . S
H1823 C1839 0.959 . S
H1824 C1839 0.959 . S
H1825 C1839 0.961 . S
H1826 C1840 0.960 . S
H1827 C1840 0.961 . S
H1828 C1840 0.959 . S
H1829 C1843 0.929 . S
H1830 C1844 0.931 . S
H1831 C1846 0.930 . S
C1832 H1820 0.930 . S
C1832 C1833 1.399 . S
C1832 C1837 1.399 . S
C1833 C1832 1.399 . S
C1833 C1834 1.376 . S
C1834 H1821 0.930 . S
C1834 C1833 1.376 . S
C1834 C1835 1.388 . S
C1835 H1822 0.930 . S
C1835 C1834 1.388 . S
C1835 C1836 1.390 . S
C1836 C1835 1.390 . S
C1836 C1837 1.394 . S
C1836 C1842 1.465 . S
C1837 C1832 1.399 . S
C1837 C1836 1.394 . S
C1837 C1838 1.516 . S
C1838 C1837 1.516 . S
C1838 C1839 1.502 . S
C1838 C1840 1.561 . S
C1838 C1841 1.526 . S
C1839 H1823 0.959 . S
C1839 H1824 0.959 . S
C1839 H1825 0.961 . S
C1839 C1838 1.502 . S
C1840 H1826 0.960 . S
C1840 H1827 0.961 . S
C1840 H1828 0.959 . S
C1840 C1838 1.561 . S
C1841 C1838 1.526 . S
C1841 C1842 1.396 . S
C1841 C1846 1.390 . S
C1842 C1836 1.465 . S
C1842 C1841 1.396 . S
C1842 C1843 1.399 . S
C1843 H1829 0.929 . S
C1843 C1842 1.399 . S
C1843 C1844 1.385 . S
C1844 H1830 0.931 . S
C1844 C1843 1.385 . S
C1844 C1845 1.389 . S
C1845 C1844 1.389 . S
C1845 C1846 1.387 . S
C1846 H1831 0.930 . S
C1846 C1841 1.390 . S
C1846 C1845 1.387 . S
H1847 C1859 0.930 . S
H1848 C1861 0.930 . S
H1849 C1862 0.930 . S
H1850 C1866 0.959 . S
H1851 C1866 0.959 . S
H1852 C1866 0.961 . S
H1853 C1867 0.960 . S
H1854 C1867 0.961 . S
H1855 C1867 0.959 . S
H1856 C1870 0.929 . S
H1857 C1871 0.931 . S
H1858 C1873 0.930 . S
C1859 H1847 0.930 . S
C1859 C1860 1.399 . S
C1859 C1864 1.399 . S
C1860 C1859 1.399 . S
C1860 C1861 1.376 . S
C1861 H1848 0.930 . S
C1861 C1860 1.376 . S
C1861 C1862 1.388 . S
C1862 H1849 0.930 . S
C1862 C1861 1.388 . S
C1862 C1863 1.390 . S
C1863 C1862 1.390 . S
C1863 C1864 1.394 . S
C1863 C1869 1.465 . S
C1864 C1859 1.399 . S
C1864 C1863 1.394 . S
C1864 C1865 1.516 . S
C1865 C1864 1.516 . S
C1865 C1866 1.502 . S
C1865 C1867 1.561 . S
C1865 C1868 1.526 . S
C1866 H1850 0.959 . S
C1866 H1851 0.959 . S
C1866 H1852 0.961 . S
C1866 C1865 1.502 . S
C1867 H1853 0.960 . S
C1867 H1854 0.961 . S
C1867 H1855 0.959 . S
C1867 C1865 1.561 . S
C1868 C1865 1.526 . S
C1868 C1869 1.396 . S
C1868 C1873 1.390 . S
C1869 C1863 1.465 . S
C1869 C1868 1.396 . S
C1869 C1870 1.399 . S
C1870 H1856 0.929 . S
C1870 C1869 1.399 . S
C1870 C1871 1.385 . S
C1871 H1857 0.931 . S
C1871 C1870 1.385 . S
C1871 C1872 1.389 . S
C1872 C1871 1.389 . S
C1872 C1873 1.387 . S
C1873 H1858 0.930 . S
C1873 C1868 1.390 . S
C1873 C1872 1.387 . S
H1874 C1886 0.930 . S
H1875 C1888 0.930 . S
H1876 C1889 0.930 . S
H1877 C1893 0.959 . S
H1878 C1893 0.959 . S
H1879 C1893 0.961 . S
H1880 C1894 0.960 . S
H1881 C1894 0.961 . S
H1882 C1894 0.959 . S
H1883 C1897 0.929 . S
H1884 C1898 0.931 . S
H1885 C1900 0.930 . S
C1886 H1874 0.930 . S
C1886 C1887 1.399 . S
C1886 C1891 1.399 . S
C1887 C1886 1.399 . S
C1887 C1888 1.376 . S
C1888 H1875 0.930 . S
C1888 C1887 1.376 . S
C1888 C1889 1.388 . S
C1889 H1876 0.930 . S
C1889 C1888 1.388 . S
C1889 C1890 1.390 . S
C1890 C1889 1.390 . S
C1890 C1891 1.394 . S
C1890 C1896 1.465 . S
C1891 C1886 1.399 . S
C1891 C1890 1.394 . S
C1891 C1892 1.516 . S
C1892 C1891 1.516 . S
C1892 C1893 1.502 . S
C1892 C1894 1.561 . S
C1892 C1895 1.526 . S
C1893 H1877 0.959 . S
C1893 H1878 0.959 . S
C1893 H1879 0.961 . S
C1893 C1892 1.502 . S
C1894 H1880 0.960 . S
C1894 H1881 0.961 . S
C1894 H1882 0.959 . S
C1894 C1892 1.561 . S
C1895 C1892 1.526 . S
C1895 C1896 1.396 . S
C1895 C1900 1.390 . S
C1896 C1890 1.465 . S
C1896 C1895 1.396 . S
C1896 C1897 1.399 . S
C1897 H1883 0.929 . S
C1897 C1896 1.399 . S
C1897 C1898 1.385 . S
C1898 H1884 0.931 . S
C1898 C1897 1.385 . S
C1898 C1899 1.389 . S
C1899 C1898 1.389 . S
C1899 C1900 1.387 . S
C1900 H1885 0.930 . S
C1900 C1895 1.390 . S
C1900 C1899 1.387 . S
H1901 C1913 0.930 . S
H1902 C1915 0.930 . S
H1903 C1916 0.930 . S
H1904 C1920 0.959 . S
H1905 C1920 0.959 . S
H1906 C1920 0.961 . S
H1907 C1921 0.960 . S
H1908 C1921 0.961 . S
H1909 C1921 0.959 . S
H1910 C1924 0.929 . S
H1911 C1925 0.931 . S
H1912 C1927 0.930 . S
C1913 H1901 0.930 . S
C1913 C1914 1.399 . S
C1913 C1918 1.399 . S
C1914 C1913 1.399 . S
C1914 C1915 1.376 . S
C1915 H1902 0.930 . S
C1915 C1914 1.376 . S
C1915 C1916 1.388 . S
C1916 H1903 0.930 . S
C1916 C1915 1.388 . S
C1916 C1917 1.390 . S
C1917 C1916 1.390 . S
C1917 C1918 1.394 . S
C1917 C1923 1.465 . S
C1918 C1913 1.399 . S
C1918 C1917 1.394 . S
C1918 C1919 1.516 . S
C1919 C1918 1.516 . S
C1919 C1920 1.502 . S
C1919 C1921 1.561 . S
C1919 C1922 1.526 . S
C1920 H1904 0.959 . S
C1920 H1905 0.959 . S
C1920 H1906 0.961 . S
C1920 C1919 1.502 . S
C1921 H1907 0.960 . S
C1921 H1908 0.961 . S
C1921 H1909 0.959 . S
C1921 C1919 1.561 . S
C1922 C1919 1.526 . S
C1922 C1923 1.396 . S
C1922 C1927 1.390 . S
C1923 C1917 1.465 . S
C1923 C1922 1.396 . S
C1923 C1924 1.399 . S
C1924 H1910 0.929 . S
C1924 C1923 1.399 . S
C1924 C1925 1.385 . S
C1925 H1911 0.931 . S
C1925 C1924 1.385 . S
C1925 C1926 1.389 . S
C1926 C1925 1.389 . S
C1926 C1927 1.387 . S
C1927 H1912 0.930 . S
C1927 C1922 1.390 . S
C1927 C1926 1.387 . S
H1928 C1940 0.930 . S
H1929 C1942 0.930 . S
H1930 C1943 0.930 . S
H1931 C1947 0.959 . S
H1932 C1947 0.959 . S
H1933 C1947 0.961 . S
H1934 C1948 0.960 . S
H1935 C1948 0.961 . S
H1936 C1948 0.959 . S
H1937 C1951 0.929 . S
H1938 C1952 0.931 . S
H1939 C1954 0.930 . S
C1940 H1928 0.930 . S
C1940 C1941 1.399 . S
C1940 C1945 1.399 . S
C1941 C1940 1.399 . S
C1941 C1942 1.376 . S
C1942 H1929 0.930 . S
C1942 C1941 1.376 . S
C1942 C1943 1.388 . S
C1943 H1930 0.930 . S
C1943 C1942 1.388 . S
C1943 C1944 1.390 . S
C1944 C1943 1.390 . S
C1944 C1945 1.394 . S
C1944 C1950 1.465 . S
C1945 C1940 1.399 . S
C1945 C1944 1.394 . S
C1945 C1946 1.516 . S
C1946 C1945 1.516 . S
C1946 C1947 1.502 . S
C1946 C1948 1.561 . S
C1946 C1949 1.526 . S
C1947 H1931 0.959 . S
C1947 H1932 0.959 . S
C1947 H1933 0.961 . S
C1947 C1946 1.502 . S
C1948 H1934 0.960 . S
C1948 H1935 0.961 . S
C1948 H1936 0.959 . S
C1948 C1946 1.561 . S
C1949 C1946 1.526 . S
C1949 C1950 1.396 . S
C1949 C1954 1.390 . S
C1950 C1944 1.465 . S
C1950 C1949 1.396 . S
C1950 C1951 1.399 . S
C1951 H1937 0.929 . S
C1951 C1950 1.399 . S
C1951 C1952 1.385 . S
C1952 H1938 0.931 . S
C1952 C1951 1.385 . S
C1952 C1953 1.389 . S
C1953 C1952 1.389 . S
C1953 C1954 1.387 . S
C1954 H1939 0.930 . S
C1954 C1949 1.390 . S
C1954 C1953 1.387 . S
H1955 C1967 0.930 . S
H1956 C1969 0.930 . S
H1957 C1970 0.930 . S
H1958 C1974 0.959 . S
H1959 C1974 0.959 . S
H1960 C1974 0.961 . S
H1961 C1975 0.960 . S
H1962 C1975 0.961 . S
H1963 C1975 0.959 . S
H1964 C1978 0.929 . S
H1965 C1979 0.931 . S
H1966 C1981 0.930 . S
C1967 H1955 0.930 . S
C1967 C1968 1.399 . S
C1967 C1972 1.399 . S
C1968 C1967 1.399 . S
C1968 C1969 1.376 . S
C1969 H1956 0.930 . S
C1969 C1968 1.376 . S
C1969 C1970 1.388 . S
C1970 H1957 0.930 . S
C1970 C1969 1.388 . S
C1970 C1971 1.390 . S
C1971 C1970 1.390 . S
C1971 C1972 1.394 . S
C1971 C1977 1.465 . S
C1972 C1967 1.399 . S
C1972 C1971 1.394 . S
C1972 C1973 1.516 . S
C1973 C1972 1.516 . S
C1973 C1974 1.502 . S
C1973 C1975 1.561 . S
C1973 C1976 1.526 . S
C1974 H1958 0.959 . S
C1974 H1959 0.959 . S
C1974 H1960 0.961 . S
C1974 C1973 1.502 . S
C1975 H1961 0.960 . S
C1975 H1962 0.961 . S
C1975 H1963 0.959 . S
C1975 C1973 1.561 . S
C1976 C1973 1.526 . S
C1976 C1977 1.396 . S
C1976 C1981 1.390 . S
C1977 C1971 1.465 . S
C1977 C1976 1.396 . S
C1977 C1978 1.399 . S
C1978 H1964 0.929 . S
C1978 C1977 1.399 . S
C1978 C1979 1.385 . S
C1979 H1965 0.931 . S
C1979 C1978 1.385 . S
C1979 C1980 1.389 . S
C1980 C1979 1.389 . S
C1980 C1981 1.387 . S
C1981 H1966 0.930 . S
C1981 C1976 1.390 . S
C1981 C1980 1.387 . S
H1982 C1994 0.930 . S
H1983 C1996 0.930 . S
H1984 C1997 0.930 . S
H1985 C2001 0.959 1_554 S
H1986 C2001 0.959 1_554 S
H1987 C2001 0.961 . S
H1988 C2002 0.960 . S
H1989 C2002 0.961 . S
H1990 C2002 0.959 . S
H1991 C2005 0.929 . S
H1992 C2006 0.946 . S
H1993 C2008 0.930 . S
C1994 H1982 0.930 . S
C1994 C1995 1.399 . S
C1994 C1999 1.399 . S
C1995 C1994 1.399 . S
C1995 C1996 1.376 1_455 S
C1996 H1983 0.930 . S
C1996 C1995 1.376 1_655 S
C1996 C1997 1.388 . S
C1997 H1984 0.930 . S
C1997 C1996 1.388 . S
C1997 C1998 1.390 . S
C1998 C1997 1.390 . S
C1998 C1999 1.394 1_655 S
C1998 C2004 1.465 . S
C1999 C1994 1.399 . S
C1999 C1998 1.394 1_455 S
C1999 C2000 1.516 . S
C2000 C1999 1.516 . S
C2000 C2001 1.502 . S
C2000 C2002 1.561 . S
C2000 C2003 1.526 . S
C2001 H1985 0.959 1_556 S
C2001 H1986 0.959 1_556 S
C2001 H1987 0.961 . S
C2001 C2000 1.502 . S
C2002 H1988 0.960 . S
C2002 H1989 0.961 . S
C2002 H1990 0.959 . S
C2002 C2000 1.561 . S
C2003 C2000 1.526 . S
C2003 C2004 1.396 1_455 S
C2003 C2008 1.390 1_556 S
C2004 C1998 1.465 . S
C2004 C2003 1.396 1_655 S
C2004 C2005 1.399 . S
C2005 H1991 0.929 . S
C2005 C2004 1.399 . S
C2005 C2006 1.359 1_556 S
C2006 H1992 0.946 . S
C2006 C2005 1.359 1_554 S
C2006 C2007 1.403 1_655 S
C2007 C2006 1.403 1_455 S
C2007 C2008 1.387 . S
C2008 H1993 0.930 . S
C2008 C2003 1.390 1_554 S
C2008 C2007 1.387 . S
H2009 C2021 0.930 . S
H2010 C2023 0.930 . S
H2011 C2024 0.930 . S
H2012 C2028 0.959 . S
H2013 C2028 0.959 . S
H2014 C2028 0.961 . S
H2015 C2029 0.960 . S
H2016 C2029 0.961 . S
H2017 C2029 0.959 . S
H2018 C2032 0.929 . S
H2019 C2033 0.931 . S
H2020 C2035 0.930 . S
C2021 H2009 0.930 . S
C2021 C2022 1.399 . S
C2021 C2026 1.399 . S
C2022 C2021 1.399 . S
C2022 C2023 1.376 . S
C2023 H2010 0.930 . S
C2023 C2022 1.376 . S
C2023 C2024 1.388 . S
C2024 H2011 0.930 . S
C2024 C2023 1.388 . S
C2024 C2025 1.390 . S
C2025 C2024 1.390 . S
C2025 C2026 1.394 . S
C2025 C2031 1.465 . S
C2026 C2021 1.399 . S
C2026 C2025 1.394 . S
C2026 C2027 1.516 . S
C2027 C2026 1.516 . S
C2027 C2028 1.502 . S
C2027 C2029 1.561 . S
C2027 C2030 1.526 . S
C2028 H2012 0.959 . S
C2028 H2013 0.959 . S
C2028 H2014 0.961 . S
C2028 C2027 1.502 . S
C2029 H2015 0.960 . S
C2029 H2016 0.961 . S
C2029 H2017 0.959 . S
C2029 C2027 1.561 . S
C2030 C2027 1.526 . S
C2030 C2031 1.396 . S
C2030 C2035 1.390 . S
C2031 C2025 1.465 . S
C2031 C2030 1.396 . S
C2031 C2032 1.399 . S
C2032 H2018 0.929 . S
C2032 C2031 1.399 . S
C2032 C2033 1.385 . S
C2033 H2019 0.931 . S
C2033 C2032 1.385 . S
C2033 C2034 1.389 . S
C2034 C2033 1.389 . S
C2034 C2035 1.387 . S
C2035 H2020 0.930 . S
C2035 C2030 1.390 . S
C2035 C2034 1.387 . S
H2036 C2048 0.930 . S
H2037 C2050 0.930 . S
H2038 C2051 0.930 . S
H2039 C2055 0.959 . S
H2040 C2055 0.959 . S
H2041 C2055 0.961 . S
H2042 C2056 0.960 . S
H2043 C2056 0.961 . S
H2044 C2056 0.959 . S
H2045 C2059 0.929 . S
H2046 C2060 0.931 . S
H2047 C2062 0.930 . S
C2048 H2036 0.930 . S
C2048 C2049 1.399 . S
C2048 C2053 1.399 . S
C2049 C2048 1.399 . S
C2049 C2050 1.376 . S
C2050 H2037 0.930 . S
C2050 C2049 1.376 . S
C2050 C2051 1.388 . S
C2051 H2038 0.930 . S
C2051 C2050 1.388 . S
C2051 C2052 1.390 . S
C2052 C2051 1.390 . S
C2052 C2053 1.394 . S
C2052 C2058 1.465 . S
C2053 C2048 1.399 . S
C2053 C2052 1.394 . S
C2053 C2054 1.516 . S
C2054 C2053 1.516 . S
C2054 C2055 1.502 . S
C2054 C2056 1.561 . S
C2054 C2057 1.526 . S
C2055 H2039 0.959 . S
C2055 H2040 0.959 . S
C2055 H2041 0.961 . S
C2055 C2054 1.502 . S
C2056 H2042 0.960 . S
C2056 H2043 0.961 . S
C2056 H2044 0.959 . S
C2056 C2054 1.561 . S
C2057 C2054 1.526 . S
C2057 C2058 1.396 . S
C2057 C2062 1.390 . S
C2058 C2052 1.465 . S
C2058 C2057 1.396 . S
C2058 C2059 1.399 . S
C2059 H2045 0.929 . S
C2059 C2058 1.399 . S
C2059 C2060 1.385 . S
C2060 H2046 0.931 . S
C2060 C2059 1.385 . S
C2060 C2061 1.389 . S
C2061 C2060 1.389 . S
C2061 C2062 1.387 . S
C2062 H2047 0.930 . S
C2062 C2057 1.390 . S
C2062 C2061 1.387 . S
H2063 C2075 0.930 . S
H2064 C2077 0.930 . S
H2065 C2078 0.930 . S
H2066 C2082 0.959 . S
H2067 C2082 0.959 . S
H2068 C2082 0.961 . S
H2069 C2083 0.960 . S
H2070 C2083 0.961 . S
H2071 C2083 0.959 . S
H2072 C2086 0.929 . S
H2073 C2087 0.931 . S
H2074 C2089 0.930 . S
C2075 H2063 0.930 . S
C2075 C2076 1.399 . S
C2075 C2080 1.399 . S
C2076 C2075 1.399 . S
C2076 C2077 1.376 . S
C2077 H2064 0.930 . S
C2077 C2076 1.376 . S
C2077 C2078 1.388 . S
C2078 H2065 0.930 . S
C2078 C2077 1.388 . S
C2078 C2079 1.390 . S
C2079 C2078 1.390 . S
C2079 C2080 1.394 . S
C2079 C2085 1.465 . S
C2080 C2075 1.399 . S
C2080 C2079 1.394 . S
C2080 C2081 1.516 . S
C2081 C2080 1.516 . S
C2081 C2082 1.502 . S
C2081 C2083 1.561 . S
C2081 C2084 1.526 . S
C2082 H2066 0.959 . S
C2082 H2067 0.959 . S
C2082 H2068 0.961 . S
C2082 C2081 1.502 . S
C2083 H2069 0.960 . S
C2083 H2070 0.961 . S
C2083 H2071 0.959 . S
C2083 C2081 1.561 . S
C2084 C2081 1.526 . S
C2084 C2085 1.396 . S
C2084 C2089 1.390 . S
C2085 C2079 1.465 . S
C2085 C2084 1.396 . S
C2085 C2086 1.399 . S
C2086 H2072 0.929 . S
C2086 C2085 1.399 . S
C2086 C2087 1.385 . S
C2087 H2073 0.931 . S
C2087 C2086 1.385 . S
C2087 C2088 1.389 . S
C2088 C2087 1.389 . S
C2088 C2089 1.387 . S
C2089 H2074 0.930 . S
C2089 C2084 1.390 . S
C2089 C2088 1.387 . S
H2090 C2102 0.930 . S
H2091 C2104 0.930 . S
H2092 C2105 0.930 . S
H2093 C2109 0.959 . S
H2094 C2109 0.959 . S
H2095 C2109 0.961 . S
H2096 C2110 0.960 . S
H2097 C2110 0.961 . S
H2098 C2110 0.959 . S
H2099 C2113 0.929 . S
H2100 C2114 0.931 . S
H2101 C2116 0.930 . S
C2102 H2090 0.930 . S
C2102 C2103 1.399 1_655 S
C2102 C2107 1.399 . S
C2103 C2102 1.399 1_455 S
C2103 C2104 1.376 . S
C2104 H2091 0.930 . S
C2104 C2103 1.376 . S
C2104 C2105 1.388 . S
C2105 H2092 0.930 . S
C2105 C2104 1.388 . S
C2105 C2106 1.390 . S
C2106 C2105 1.390 . S
C2106 C2107 1.394 1_455 S
C2106 C2112 1.465 . S
C2107 C2102 1.399 . S
C2107 C2106 1.394 1_655 S
C2107 C2108 1.516 . S
C2108 C2107 1.516 . S
C2108 C2109 1.502 . S
C2108 C2110 1.561 1_655 S
C2108 C2111 1.526 . S
C2109 H2093 0.959 . S
C2109 H2094 0.959 . S
C2109 H2095 0.961 . S
C2109 C2108 1.502 . S
C2110 H2096 0.960 . S
C2110 H2097 0.961 . S
C2110 H2098 0.959 . S
C2110 C2108 1.561 1_455 S
C2111 C2108 1.526 . S
C2111 C2112 1.396 1_655 S
C2111 C2116 1.390 . S
C2112 C2106 1.465 . S
C2112 C2111 1.396 1_455 S
C2112 C2113 1.399 . S
C2113 H2099 0.929 . S
C2113 C2112 1.399 . S
C2113 C2114 1.385 . S
C2114 H2100 0.931 . S
C2114 C2113 1.385 . S
C2114 C2115 1.389 . S
C2115 C2114 1.389 . S
C2115 C2116 1.387 1_455 S
C2116 H2101 0.930 . S
C2116 C2111 1.390 . S
C2116 C2115 1.387 1_655 S
H2117 C2129 0.930 . S
H2118 C2131 0.930 . S
H2119 C2132 0.930 . S
H2120 C2136 0.959 . S
H2121 C2136 0.959 . S
H2122 C2136 0.961 . S
H2123 C2137 0.960 . S
H2124 C2137 0.961 . S
H2125 C2137 0.959 . S
H2126 C2140 0.929 . S
H2127 C2141 0.931 . S
H2128 C2143 0.930 . S
C2129 H2117 0.930 . S
C2129 C2130 1.399 . S
C2129 C2134 1.399 . S
C2130 C2129 1.399 . S
C2130 C2131 1.376 . S
C2131 H2118 0.930 . S
C2131 C2130 1.376 . S
C2131 C2132 1.388 . S
C2132 H2119 0.930 . S
C2132 C2131 1.388 . S
C2132 C2133 1.390 . S
C2133 C2132 1.390 . S
C2133 C2134 1.394 . S
C2133 C2139 1.465 . S
C2134 C2129 1.399 . S
C2134 C2133 1.394 . S
C2134 C2135 1.516 . S
C2135 C2134 1.516 . S
C2135 C2136 1.502 . S
C2135 C2137 1.561 . S
C2135 C2138 1.526 . S
C2136 H2120 0.959 . S
C2136 H2121 0.959 . S
C2136 H2122 0.961 . S
C2136 C2135 1.502 . S
C2137 H2123 0.960 . S
C2137 H2124 0.961 . S
C2137 H2125 0.959 . S
C2137 C2135 1.561 . S
C2138 C2135 1.526 . S
C2138 C2139 1.396 . S
C2138 C2143 1.390 . S
C2139 C2133 1.465 . S
C2139 C2138 1.396 . S
C2139 C2140 1.399 . S
C2140 H2126 0.929 . S
C2140 C2139 1.399 . S
C2140 C2141 1.385 . S
C2141 H2127 0.931 . S
C2141 C2140 1.385 . S
C2141 C2142 1.389 . S
C2142 C2141 1.389 . S
C2142 C2143 1.387 . S
C2143 H2128 0.930 . S
C2143 C2138 1.390 . S
C2143 C2142 1.387 . S
H2144 C2156 0.930 . S
H2145 C2158 0.930 . S
H2146 C2159 0.930 . S
H2147 C2163 0.959 . S
H2148 C2163 0.959 . S
H2149 C2163 0.961 . S
H2150 C2164 0.960 . S
H2151 C2164 0.961 . S
H2152 C2164 0.959 . S
H2153 C2167 0.929 . S
H2154 C2168 0.931 . S
H2155 C2170 0.930 . S
C2156 H2144 0.930 . S
C2156 C2157 1.399 . S
C2156 C2161 1.399 . S
C2157 C2156 1.399 . S
C2157 C2158 1.376 . S
C2158 H2145 0.930 . S
C2158 C2157 1.376 . S
C2158 C2159 1.388 . S
C2159 H2146 0.930 . S
C2159 C2158 1.388 . S
C2159 C2160 1.390 . S
C2160 C2159 1.390 . S
C2160 C2161 1.394 . S
C2160 C2166 1.465 . S
C2161 C2156 1.399 . S
C2161 C2160 1.394 . S
C2161 C2162 1.516 . S
C2162 C2161 1.516 . S
C2162 C2163 1.502 . S
C2162 C2164 1.561 . S
C2162 C2165 1.526 . S
C2163 H2147 0.959 . S
C2163 H2148 0.959 . S
C2163 H2149 0.961 . S
C2163 C2162 1.502 . S
C2164 H2150 0.960 . S
C2164 H2151 0.961 . S
C2164 H2152 0.959 . S
C2164 C2162 1.561 . S
C2165 C2162 1.526 . S
C2165 C2166 1.396 . S
C2165 C2170 1.390 . S
C2166 C2160 1.465 . S
C2166 C2165 1.396 . S
C2166 C2167 1.399 . S
C2167 H2153 0.929 . S
C2167 C2166 1.399 . S
C2167 C2168 1.385 . S
C2168 H2154 0.931 . S
C2168 C2167 1.385 . S
C2168 C2169 1.389 . S
C2169 C2168 1.389 . S
C2169 C2170 1.387 . S
C2170 H2155 0.930 . S
C2170 C2165 1.390 . S
C2170 C2169 1.387 . S
H2171 C2183 0.930 . S
H2172 C2185 0.930 . S
H2173 C2186 0.930 . S
H2174 C2190 0.959 . S
H2175 C2190 0.959 . S
H2176 C2190 0.961 . S
H2177 C2191 0.960 . S
H2178 C2191 0.961 . S
H2179 C2191 0.959 . S
H2180 C2194 0.929 . S
H2181 C2195 0.931 . S
H2182 C2197 0.930 . S
C2183 H2171 0.930 . S
C2183 C2184 1.399 . S
C2183 C2188 1.399 . S
C2184 C2183 1.399 . S
C2184 C2185 1.376 . S
C2185 H2172 0.930 . S
C2185 C2184 1.376 . S
C2185 C2186 1.388 . S
C2186 H2173 0.930 . S
C2186 C2185 1.388 . S
C2186 C2187 1.390 . S
C2187 C2186 1.390 . S
C2187 C2188 1.394 . S
C2187 C2193 1.465 . S
C2188 C2183 1.399 . S
C2188 C2187 1.394 . S
C2188 C2189 1.516 . S
C2189 C2188 1.516 . S
C2189 C2190 1.502 . S
C2189 C2191 1.561 . S
C2189 C2192 1.526 . S
C2190 H2174 0.959 . S
C2190 H2175 0.959 . S
C2190 H2176 0.961 . S
C2190 C2189 1.502 . S
C2191 H2177 0.960 . S
C2191 H2178 0.961 . S
C2191 H2179 0.959 . S
C2191 C2189 1.561 . S
C2192 C2189 1.526 . S
C2192 C2193 1.396 . S
C2192 C2197 1.390 . S
C2193 C2187 1.465 . S
C2193 C2192 1.396 . S
C2193 C2194 1.399 . S
C2194 H2180 0.929 . S
C2194 C2193 1.399 . S
C2194 C2195 1.385 . S
C2195 H2181 0.931 . S
C2195 C2194 1.385 . S
C2195 C2196 1.389 . S
C2196 C2195 1.389 . S
C2196 C2197 1.387 . S
C2197 H2182 0.930 . S
C2197 C2192 1.390 . S
C2197 C2196 1.387 . S
H2198 C2210 0.930 . S
H2199 C2212 0.930 . S
H2200 C2213 0.930 . S
H2201 C2217 0.959 . S
H2202 C2217 0.959 . S
H2203 C2217 0.961 . S
H2204 C2218 0.960 . S
H2205 C2218 0.961 . S
H2206 C2218 0.959 . S
H2207 C2221 0.929 . S
H2208 C2222 0.931 . S
H2209 C2224 0.930 . S
C2210 H2198 0.930 . S
C2210 C2211 1.399 . S
C2210 C2215 1.399 . S
C2211 C2210 1.399 . S
C2211 C2212 1.376 . S
C2212 H2199 0.930 . S
C2212 C2211 1.376 . S
C2212 C2213 1.388 . S
C2213 H2200 0.930 . S
C2213 C2212 1.388 . S
C2213 C2214 1.390 . S
C2214 C2213 1.390 . S
C2214 C2215 1.394 . S
C2214 C2220 1.465 . S
C2215 C2210 1.399 . S
C2215 C2214 1.394 . S
C2215 C2216 1.516 . S
C2216 C2215 1.516 . S
C2216 C2217 1.502 . S
C2216 C2218 1.561 . S
C2216 C2219 1.526 . S
C2217 H2201 0.959 . S
C2217 H2202 0.959 . S
C2217 H2203 0.961 . S
C2217 C2216 1.502 . S
C2218 H2204 0.960 . S
C2218 H2205 0.961 . S
C2218 H2206 0.959 . S
C2218 C2216 1.561 . S
C2219 C2216 1.526 . S
C2219 C2220 1.396 . S
C2219 C2224 1.390 . S
C2220 C2214 1.465 . S
C2220 C2219 1.396 . S
C2220 C2221 1.399 . S
C2221 H2207 0.929 . S
C2221 C2220 1.399 . S
C2221 C2222 1.385 . S
C2222 H2208 0.931 . S
C2222 C2221 1.385 . S
C2222 C2223 1.389 . S
C2223 C2222 1.389 . S
C2223 C2224 1.387 . S
C2224 H2209 0.930 . S
C2224 C2219 1.390 . S
C2224 C2223 1.387 . S
H2225 C2237 0.930 . S
H2226 C2239 0.930 . S
H2227 C2240 0.930 . S
H2228 C2244 0.959 . S
H2229 C2244 0.959 . S
H2230 C2244 0.961 . S
H2231 C2245 0.960 . S
H2232 C2245 0.961 . S
H2233 C2245 0.959 . S
H2234 C2248 0.929 . S
H2235 C2249 0.931 . S
H2236 C2251 0.930 . S
C2237 H2225 0.930 . S
C2237 C2238 1.399 . S
C2237 C2242 1.399 . S
C2238 C2237 1.399 . S
C2238 C2239 1.376 . S
C2239 H2226 0.930 . S
C2239 C2238 1.376 . S
C2239 C2240 1.388 . S
C2240 H2227 0.930 . S
C2240 C2239 1.388 . S
C2240 C2241 1.390 . S
C2241 C2240 1.390 . S
C2241 C2242 1.394 . S
C2241 C2247 1.465 . S
C2242 C2237 1.399 . S
C2242 C2241 1.394 . S
C2242 C2243 1.516 . S
C2243 C2242 1.516 . S
C2243 C2244 1.502 . S
C2243 C2245 1.561 . S
C2243 C2246 1.526 . S
C2244 H2228 0.959 . S
C2244 H2229 0.959 . S
C2244 H2230 0.961 . S
C2244 C2243 1.502 . S
C2245 H2231 0.960 . S
C2245 H2232 0.961 . S
C2245 H2233 0.959 . S
C2245 C2243 1.561 . S
C2246 C2243 1.526 . S
C2246 C2247 1.396 . S
C2246 C2251 1.390 . S
C2247 C2241 1.465 . S
C2247 C2246 1.396 . S
C2247 C2248 1.399 . S
C2248 H2234 0.929 . S
C2248 C2247 1.399 . S
C2248 C2249 1.385 . S
C2249 H2235 0.931 . S
C2249 C2248 1.385 . S
C2249 C2250 1.389 . S
C2250 C2249 1.389 . S
C2250 C2251 1.387 . S
C2251 H2236 0.930 . S
C2251 C2246 1.390 . S
C2251 C2250 1.387 . S
H2252 C2264 0.930 . S
H2253 C2266 0.930 . S
H2254 C2267 0.930 . S
H2255 C2271 0.959 . S
H2256 C2271 0.959 . S
H2257 C2271 0.961 . S
H2258 C2272 0.960 . S
H2259 C2272 0.961 . S
H2260 C2272 0.959 . S
H2261 C2275 0.929 . S
H2262 C2276 0.931 . S
H2263 C2278 0.930 . S
C2264 H2252 0.930 . S
C2264 C2265 1.399 . S
C2264 C2269 1.399 . S
C2265 C2264 1.399 . S
C2265 C2266 1.376 . S
C2266 H2253 0.930 . S
C2266 C2265 1.376 . S
C2266 C2267 1.388 . S
C2267 H2254 0.930 . S
C2267 C2266 1.388 . S
C2267 C2268 1.390 . S
C2268 C2267 1.390 . S
C2268 C2269 1.394 . S
C2268 C2274 1.465 . S
C2269 C2264 1.399 . S
C2269 C2268 1.394 . S
C2269 C2270 1.516 . S
C2270 C2269 1.516 . S
C2270 C2271 1.502 . S
C2270 C2272 1.561 . S
C2270 C2273 1.526 . S
C2271 H2255 0.959 . S
C2271 H2256 0.959 . S
C2271 H2257 0.961 . S
C2271 C2270 1.502 . S
C2272 H2258 0.960 . S
C2272 H2259 0.961 . S
C2272 H2260 0.959 . S
C2272 C2270 1.561 . S
C2273 C2270 1.526 . S
C2273 C2274 1.396 . S
C2273 C2278 1.390 . S
C2274 C2268 1.465 . S
C2274 C2273 1.396 . S
C2274 C2275 1.399 . S
C2275 H2261 0.929 . S
C2275 C2274 1.399 . S
C2275 C2276 1.385 . S
C2276 H2262 0.931 . S
C2276 C2275 1.385 . S
C2276 C2277 1.389 . S
C2277 C2276 1.389 . S
C2277 C2278 1.387 . S
C2278 H2263 0.930 . S
C2278 C2273 1.390 . S
C2278 C2277 1.387 . S
H2279 C2291 0.930 . S
H2280 C2293 0.930 . S
H2281 C2294 0.930 . S
H2282 C2298 0.959 . S
H2283 C2298 0.959 . S
H2284 C2298 0.961 . S
H2285 C2299 0.960 . S
H2286 C2299 0.961 . S
H2287 C2299 0.959 . S
H2288 C2302 0.929 . S
H2289 C2303 0.931 . S
H2290 C2305 0.930 . S
C2291 H2279 0.930 . S
C2291 C2292 1.399 . S
C2291 C2296 1.399 . S
C2292 C2291 1.399 . S
C2292 C2293 1.376 . S
C2293 H2280 0.930 . S
C2293 C2292 1.376 . S
C2293 C2294 1.388 . S
C2294 H2281 0.930 . S
C2294 C2293 1.388 . S
C2294 C2295 1.390 . S
C2295 C2294 1.390 . S
C2295 C2296 1.394 . S
C2295 C2301 1.465 . S
C2296 C2291 1.399 . S
C2296 C2295 1.394 . S
C2296 C2297 1.516 . S
C2297 C2296 1.516 . S
C2297 C2298 1.502 . S
C2297 C2299 1.561 . S
C2297 C2300 1.526 . S
C2298 H2282 0.959 . S
C2298 H2283 0.959 . S
C2298 H2284 0.961 . S
C2298 C2297 1.502 . S
C2299 H2285 0.960 . S
C2299 H2286 0.961 . S
C2299 H2287 0.959 . S
C2299 C2297 1.561 . S
C2300 C2297 1.526 . S
C2300 C2301 1.396 . S
C2300 C2305 1.390 . S
C2301 C2295 1.465 . S
C2301 C2300 1.396 . S
C2301 C2302 1.399 . S
C2302 H2288 0.929 . S
C2302 C2301 1.399 . S
C2302 C2303 1.385 . S
C2303 H2289 0.931 . S
C2303 C2302 1.385 . S
C2303 C2304 1.389 . S
C2304 C2303 1.389 . S
C2304 C2305 1.387 . S
C2305 H2290 0.930 . S
C2305 C2300 1.390 . S
C2305 C2304 1.387 . S
H2306 C2318 0.930 . S
H2307 C2320 0.930 . S
H2308 C2321 0.930 . S
H2309 C2325 0.959 . S
H2310 C2325 0.959 . S
H2311 C2325 0.961 . S
H2312 C2326 0.960 . S
H2313 C2326 0.961 . S
H2314 C2326 0.959 . S
H2315 C2329 0.929 . S
H2316 C2330 0.931 . S
H2317 C2332 0.930 . S
C2318 H2306 0.930 . S
C2318 C2319 1.399 . S
C2318 C2323 1.399 . S
C2319 C2318 1.399 . S
C2319 C2320 1.376 . S
C2320 H2307 0.930 . S
C2320 C2319 1.376 . S
C2320 C2321 1.388 . S
C2321 H2308 0.930 . S
C2321 C2320 1.388 . S
C2321 C2322 1.390 . S
C2322 C2321 1.390 . S
C2322 C2323 1.394 . S
C2322 C2328 1.465 . S
C2323 C2318 1.399 . S
C2323 C2322 1.394 . S
C2323 C2324 1.516 . S
C2324 C2323 1.516 . S
C2324 C2325 1.502 . S
C2324 C2326 1.561 . S
C2324 C2327 1.526 . S
C2325 H2309 0.959 . S
C2325 H2310 0.959 . S
C2325 H2311 0.961 . S
C2325 C2324 1.502 . S
C2326 H2312 0.960 . S
C2326 H2313 0.961 . S
C2326 H2314 0.959 . S
C2326 C2324 1.561 . S
C2327 C2324 1.526 . S
C2327 C2328 1.396 . S
C2327 C2332 1.390 . S
C2328 C2322 1.465 . S
C2328 C2327 1.396 . S
C2328 C2329 1.399 . S
C2329 H2315 0.929 . S
C2329 C2328 1.399 . S
C2329 C2330 1.385 . S
C2330 H2316 0.931 . S
C2330 C2329 1.385 . S
C2330 C2331 1.389 . S
C2331 C2330 1.389 . S
C2331 C2332 1.387 . S
C2332 H2317 0.930 . S
C2332 C2327 1.390 . S
C2332 C2331 1.387 . S
H2333 C2345 0.930 . S
H2334 C2347 0.930 . S
H2335 C2348 0.930 . S
H2336 C2352 0.959 . S
H2337 C2352 0.959 . S
H2338 C2352 0.961 . S
H2339 C2353 0.960 . S
H2340 C2353 0.961 . S
H2341 C2353 0.959 . S
H2342 C2356 0.929 . S
H2343 C2357 0.931 . S
H2344 C2359 0.930 . S
C2345 H2333 0.930 . S
C2345 C2346 1.399 . S
C2345 C2350 1.399 . S
C2346 C2345 1.399 . S
C2346 C2347 1.376 . S
C2347 H2334 0.930 . S
C2347 C2346 1.376 . S
C2347 C2348 1.388 . S
C2348 H2335 0.930 . S
C2348 C2347 1.388 . S
C2348 C2349 1.390 . S
C2349 C2348 1.390 . S
C2349 C2350 1.394 . S
C2349 C2355 1.465 . S
C2350 C2345 1.399 . S
C2350 C2349 1.394 . S
C2350 C2351 1.516 . S
C2351 C2350 1.516 . S
C2351 C2352 1.502 . S
C2351 C2353 1.561 . S
C2351 C2354 1.526 . S
C2352 H2336 0.959 . S
C2352 H2337 0.959 . S
C2352 H2338 0.961 . S
C2352 C2351 1.502 . S
C2353 H2339 0.960 . S
C2353 H2340 0.961 . S
C2353 H2341 0.959 . S
C2353 C2351 1.561 . S
C2354 C2351 1.526 . S
C2354 C2355 1.396 . S
C2354 C2359 1.390 . S
C2355 C2349 1.465 . S
C2355 C2354 1.396 . S
C2355 C2356 1.399 . S
C2356 H2342 0.929 . S
C2356 C2355 1.399 . S
C2356 C2357 1.385 . S
C2357 H2343 0.931 . S
C2357 C2356 1.385 . S
C2357 C2358 1.389 . S
C2358 C2357 1.389 . S
C2358 C2359 1.387 . S
C2359 H2344 0.930 . S
C2359 C2354 1.390 . S
C2359 C2358 1.387 . S
H2360 C2372 0.930 . S
H2361 C2374 0.930 . S
H2362 C2375 0.930 . S
H2363 C2379 0.959 . S
H2364 C2379 0.959 . S
H2365 C2379 0.961 . S
H2366 C2380 0.960 . S
H2367 C2380 0.961 . S
H2368 C2380 0.959 . S
H2369 C2383 0.929 . S
H2370 C2384 0.931 . S
H2371 C2386 0.930 . S
C2372 H2360 0.930 . S
C2372 C2373 1.399 . S
C2372 C2377 1.399 . S
C2373 C2372 1.399 . S
C2373 C2374 1.376 . S
C2374 H2361 0.930 . S
C2374 C2373 1.376 . S
C2374 C2375 1.388 . S
C2375 H2362 0.930 . S
C2375 C2374 1.388 . S
C2375 C2376 1.390 . S
C2376 C2375 1.390 . S
C2376 C2377 1.394 . S
C2376 C2382 1.465 . S
C2377 C2372 1.399 . S
C2377 C2376 1.394 . S
C2377 C2378 1.516 . S
C2378 C2377 1.516 . S
C2378 C2379 1.502 . S
C2378 C2380 1.561 . S
C2378 C2381 1.526 . S
C2379 H2363 0.959 . S
C2379 H2364 0.959 . S
C2379 H2365 0.961 . S
C2379 C2378 1.502 . S
C2380 H2366 0.960 . S
C2380 H2367 0.961 . S
C2380 H2368 0.959 . S
C2380 C2378 1.561 . S
C2381 C2378 1.526 . S
C2381 C2382 1.396 . S
C2381 C2386 1.390 . S
C2382 C2376 1.465 . S
C2382 C2381 1.396 . S
C2382 C2383 1.399 . S
C2383 H2369 0.929 . S
C2383 C2382 1.399 . S
C2383 C2384 1.385 . S
C2384 H2370 0.931 . S
C2384 C2383 1.385 . S
C2384 C2385 1.389 . S
C2385 C2384 1.389 . S
C2385 C2386 1.387 . S
C2386 H2371 0.930 . S
C2386 C2381 1.390 . S
C2386 C2385 1.387 . S
H2387 C2399 0.930 . S
H2388 C2401 0.930 . S
H2389 C2402 0.930 . S
H2390 C2406 0.959 . S
H2391 C2406 0.959 . S
H2392 C2406 0.961 . S
H2393 C2407 0.960 . S
H2394 C2407 0.961 . S
H2395 C2407 0.959 . S
H2396 C2410 0.929 . S
H2397 C2411 0.931 . S
H2398 C2413 0.930 . S
C2399 H2387 0.930 . S
C2399 C2400 1.399 . S
C2399 C2404 1.399 . S
C2400 C2399 1.399 . S
C2400 C2401 1.376 . S
C2401 H2388 0.930 . S
C2401 C2400 1.376 . S
C2401 C2402 1.388 . S
C2402 H2389 0.930 . S
C2402 C2401 1.388 . S
C2402 C2403 1.390 . S
C2403 C2402 1.390 . S
C2403 C2404 1.394 . S
C2403 C2409 1.465 . S
C2404 C2399 1.399 . S
C2404 C2403 1.394 . S
C2404 C2405 1.516 . S
C2405 C2404 1.516 . S
C2405 C2406 1.502 . S
C2405 C2407 1.561 . S
C2405 C2408 1.526 . S
C2406 H2390 0.959 . S
C2406 H2391 0.959 . S
C2406 H2392 0.961 . S
C2406 C2405 1.502 . S
C2407 H2393 0.960 . S
C2407 H2394 0.961 . S
C2407 H2395 0.959 . S
C2407 C2405 1.561 . S
C2408 C2405 1.526 . S
C2408 C2409 1.396 . S
C2408 C2413 1.390 . S
C2409 C2403 1.465 . S
C2409 C2408 1.396 . S
C2409 C2410 1.399 . S
C2410 H2396 0.929 . S
C2410 C2409 1.399 . S
C2410 C2411 1.385 . S
C2411 H2397 0.931 . S
C2411 C2410 1.385 . S
C2411 C2412 1.389 . S
C2412 C2411 1.389 . S
C2412 C2413 1.387 . S
C2413 H2398 0.930 . S
C2413 C2408 1.390 . S
C2413 C2412 1.387 . S
H2414 C2426 0.930 . S
H2415 C2428 0.930 . S
H2416 C2429 0.930 . S
H2417 C2433 0.959 . S
H2418 C2433 0.959 . S
H2419 C2433 0.961 . S
H2420 C2434 0.960 . S
H2421 C2434 0.961 . S
H2422 C2434 0.959 . S
H2423 C2437 0.929 . S
H2424 C2438 0.931 . S
H2425 C2440 0.930 . S
C2426 H2414 0.930 . S
C2426 C2427 1.399 . S
C2426 C2431 1.399 . S
C2427 C2426 1.399 . S
C2427 C2428 1.376 . S
C2428 H2415 0.930 . S
C2428 C2427 1.376 . S
C2428 C2429 1.388 . S
C2429 H2416 0.930 . S
C2429 C2428 1.388 . S
C2429 C2430 1.390 . S
C2430 C2429 1.390 . S
C2430 C2431 1.394 . S
C2430 C2436 1.465 . S
C2431 C2426 1.399 . S
C2431 C2430 1.394 . S
C2431 C2432 1.516 . S
C2432 C2431 1.516 . S
C2432 C2433 1.502 . S
C2432 C2434 1.561 . S
C2432 C2435 1.526 . S
C2433 H2417 0.959 . S
C2433 H2418 0.959 . S
C2433 H2419 0.961 . S
C2433 C2432 1.502 . S
C2434 H2420 0.960 . S
C2434 H2421 0.961 . S
C2434 H2422 0.959 . S
C2434 C2432 1.561 . S
C2435 C2432 1.526 . S
C2435 C2436 1.396 . S
C2435 C2440 1.390 . S
C2436 C2430 1.465 . S
C2436 C2435 1.396 . S
C2436 C2437 1.399 . S
C2437 H2423 0.929 . S
C2437 C2436 1.399 . S
C2437 C2438 1.385 . S
C2438 H2424 0.931 . S
C2438 C2437 1.385 . S
C2438 C2439 1.389 . S
C2439 C2438 1.389 . S
C2439 C2440 1.387 . S
C2440 H2425 0.930 . S
C2440 C2435 1.390 . S
C2440 C2439 1.387 . S
H2441 C2453 0.930 1_556 S
H2442 C2455 0.930 . S
H2443 C2456 0.930 . S
H2444 C2460 0.959 1_554 S
H2445 C2460 0.959 . S
H2446 C2460 0.961 . S
H2447 C2461 0.960 . S
H2448 C2461 0.961 . S
H2449 C2461 0.959 . S
H2450 C2464 0.929 . S
H2451 C2465 0.931 . S
H2452 C2467 0.930 . S
C2453 H2441 0.930 1_554 S
C2453 C2454 1.399 . S
C2453 C2458 1.399 . S
C2454 C2453 1.399 . S
C2454 C2455 1.376 . S
C2455 H2442 0.930 . S
C2455 C2454 1.376 . S
C2455 C2456 1.388 . S
C2456 H2443 0.930 . S
C2456 C2455 1.388 . S
C2456 C2457 1.390 . S
C2457 C2456 1.390 . S
C2457 C2458 1.394 . S
C2457 C2463 1.465 . S
C2458 C2453 1.399 . S
C2458 C2457 1.394 . S
C2458 C2459 1.516 1_554 S
C2459 C2458 1.516 1_556 S
C2459 C2460 1.502 . S
C2459 C2461 1.561 . S
C2459 C2462 1.526 1_556 S
C2460 H2444 0.959 1_556 S
C2460 H2445 0.959 . S
C2460 H2446 0.961 . S
C2460 C2459 1.502 . S
C2461 H2447 0.960 . S
C2461 H2448 0.961 . S
C2461 H2449 0.959 . S
C2461 C2459 1.561 . S
C2462 C2459 1.526 1_554 S
C2462 C2463 1.396 . S
C2462 C2467 1.390 1_554 S
C2463 C2457 1.465 . S
C2463 C2462 1.396 . S
C2463 C2464 1.399 1_565 S
C2464 H2450 0.929 . S
C2464 C2463 1.399 1_545 S
C2464 C2465 1.385 . S
C2465 H2451 0.931 . S
C2465 C2464 1.385 . S
C2465 C2466 1.389 . S
C2466 C2465 1.389 . S
C2466 C2467 1.387 1_544 S
C2467 H2452 0.930 . S
C2467 C2462 1.390 1_556 S
C2467 C2466 1.387 1_566 S
H2468 C2480 0.930 . S
H2469 C2482 0.930 . S
H2470 C2483 0.930 . S
H2471 C2487 0.959 . S
H2472 C2487 0.959 . S
H2473 C2487 0.961 . S
H2474 C2488 0.960 . S
H2475 C2488 0.961 . S
H2476 C2488 0.959 . S
H2477 C2491 0.929 . S
H2478 C2492 0.931 . S
H2479 C2494 0.930 . S
C2480 H2468 0.930 . S
C2480 C2481 1.399 . S
C2480 C2485 1.399 . S
C2481 C2480 1.399 . S
C2481 C2482 1.376 . S
C2482 H2469 0.930 . S
C2482 C2481 1.376 . S
C2482 C2483 1.388 . S
C2483 H2470 0.930 . S
C2483 C2482 1.388 . S
C2483 C2484 1.390 . S
C2484 C2483 1.390 . S
C2484 C2485 1.394 . S
C2484 C2490 1.465 . S
C2485 C2480 1.399 . S
C2485 C2484 1.394 . S
C2485 C2486 1.516 . S
C2486 C2485 1.516 . S
C2486 C2487 1.502 . S
C2486 C2488 1.561 . S
C2486 C2489 1.526 . S
C2487 H2471 0.959 . S
C2487 H2472 0.959 . S
C2487 H2473 0.961 . S
C2487 C2486 1.502 . S
C2488 H2474 0.960 . S
C2488 H2475 0.961 . S
C2488 H2476 0.959 . S
C2488 C2486 1.561 . S
C2489 C2486 1.526 . S
C2489 C2490 1.396 . S
C2489 C2494 1.390 . S
C2490 C2484 1.465 . S
C2490 C2489 1.396 . S
C2490 C2491 1.399 . S
C2491 H2477 0.929 . S
C2491 C2490 1.399 . S
C2491 C2492 1.385 . S
C2492 H2478 0.931 . S
C2492 C2491 1.385 . S
C2492 C2493 1.389 . S
C2493 C2492 1.389 . S
C2493 C2494 1.387 . S
C2494 H2479 0.930 . S
C2494 C2489 1.390 . S
C2494 C2493 1.387 . S
H2495 C2507 0.930 . S
H2496 C2509 0.930 1_556 S
H2497 C2510 0.930 1_556 S
H2498 C2514 0.959 . S
H2499 C2514 0.959 . S
H2500 C2514 0.961 . S
H2501 C2515 0.960 . S
H2502 C2515 0.961 . S
H2503 C2515 0.959 . S
H2504 C2518 0.929 . S
H2505 C2519 0.931 . S
H2506 C2521 0.930 . S
C2507 H2495 0.930 . S
C2507 C2508 1.399 . S
C2507 C2512 1.399 . S
C2508 C2507 1.399 . S
C2508 C2509 1.376 . S
C2509 H2496 0.930 1_554 S
C2509 C2508 1.376 . S
C2509 C2510 1.388 . S
C2510 H2497 0.930 1_554 S
C2510 C2509 1.388 . S
C2510 C2511 1.390 . S
C2511 C2510 1.390 . S
C2511 C2512 1.394 . S
C2511 C2517 1.465 . S
C2512 C2507 1.399 . S
C2512 C2511 1.394 . S
C2512 C2513 1.516 . S
C2513 C2512 1.516 . S
C2513 C2514 1.502 . S
C2513 C2515 1.561 . S
C2513 C2516 1.526 . S
C2514 H2498 0.959 . S
C2514 H2499 0.959 . S
C2514 H2500 0.961 . S
C2514 C2513 1.502 . S
C2515 H2501 0.960 . S
C2515 H2502 0.961 . S
C2515 H2503 0.959 . S
C2515 C2513 1.561 . S
C2516 C2513 1.526 . S
C2516 C2517 1.396 . S
C2516 C2521 1.390 . S
C2517 C2511 1.465 . S
C2517 C2516 1.396 . S
C2517 C2518 1.399 . S
C2518 H2504 0.929 . S
C2518 C2517 1.399 . S
C2518 C2519 1.385 . S
C2519 H2505 0.931 . S
C2519 C2518 1.385 . S
C2519 C2520 1.389 . S
C2520 C2519 1.389 . S
C2520 C2521 1.387 . S
C2521 H2506 0.930 . S
C2521 C2516 1.390 . S
C2521 C2520 1.387 . S
H2522 C2534 0.930 . S
H2523 C2536 0.930 . S
H2524 C2537 0.930 . S
H2525 C2541 0.959 . S
H2526 C2541 0.959 . S
H2527 C2541 0.961 . S
H2528 C2542 0.960 . S
H2529 C2542 0.961 . S
H2530 C2542 0.959 . S
H2531 C2545 0.929 . S
H2532 C2546 0.931 . S
H2533 C2548 0.930 . S
C2534 H2522 0.930 . S
C2534 C2535 1.399 . S
C2534 C2539 1.399 . S
C2535 C2534 1.399 . S
C2535 C2536 1.376 . S
C2536 H2523 0.930 . S
C2536 C2535 1.376 . S
C2536 C2537 1.388 . S
C2537 H2524 0.930 . S
C2537 C2536 1.388 . S
C2537 C2538 1.390 . S
C2538 C2537 1.390 . S
C2538 C2539 1.394 . S
C2538 C2544 1.465 . S
C2539 C2534 1.399 . S
C2539 C2538 1.394 . S
C2539 C2540 1.516 . S
C2540 C2539 1.516 . S
C2540 C2541 1.502 . S
C2540 C2542 1.561 . S
C2540 C2543 1.526 . S
C2541 H2525 0.959 . S
C2541 H2526 0.959 . S
C2541 H2527 0.961 . S
C2541 C2540 1.502 . S
C2542 H2528 0.960 . S
C2542 H2529 0.961 . S
C2542 H2530 0.959 . S
C2542 C2540 1.561 . S
C2543 C2540 1.526 . S
C2543 C2544 1.396 . S
C2543 C2548 1.390 . S
C2544 C2538 1.465 . S
C2544 C2543 1.396 . S
C2544 C2545 1.399 . S
C2545 H2531 0.929 . S
C2545 C2544 1.399 . S
C2545 C2546 1.385 . S
C2546 H2532 0.931 . S
C2546 C2545 1.385 . S
C2546 C2547 1.389 . S
C2547 C2546 1.389 . S
C2547 C2548 1.387 . S
C2548 H2533 0.930 . S
C2548 C2543 1.390 . S
C2548 C2547 1.387 . S
H2549 C2561 0.930 . S
H2550 C2563 0.930 . S
H2551 C2564 0.930 . S
H2552 C2568 0.959 . S
H2553 C2568 0.959 . S
H2554 C2568 0.961 . S
H2555 C2569 0.960 . S
H2556 C2569 0.961 . S
H2557 C2569 0.959 . S
H2558 C2572 0.929 . S
H2559 C2573 0.931 . S
H2560 C2575 0.930 . S
C2561 H2549 0.930 . S
C2561 C2562 1.399 . S
C2561 C2566 1.399 . S
C2562 C2561 1.399 . S
C2562 C2563 1.376 . S
C2563 H2550 0.930 . S
C2563 C2562 1.376 . S
C2563 C2564 1.388 . S
C2564 H2551 0.930 . S
C2564 C2563 1.388 . S
C2564 C2565 1.390 . S
C2565 C2564 1.390 . S
C2565 C2566 1.394 . S
C2565 C2571 1.465 . S
C2566 C2561 1.399 . S
C2566 C2565 1.394 . S
C2566 C2567 1.516 . S
C2567 C2566 1.516 . S
C2567 C2568 1.502 . S
C2567 C2569 1.561 . S
C2567 C2570 1.526 . S
C2568 H2552 0.959 . S
C2568 H2553 0.959 . S
C2568 H2554 0.961 . S
C2568 C2567 1.502 . S
C2569 H2555 0.960 . S
C2569 H2556 0.961 . S
C2569 H2557 0.959 . S
C2569 C2567 1.561 . S
C2570 C2567 1.526 . S
C2570 C2571 1.396 . S
C2570 C2575 1.390 . S
C2571 C2565 1.465 . S
C2571 C2570 1.396 . S
C2571 C2572 1.399 . S
C2572 H2558 0.929 . S
C2572 C2571 1.399 . S
C2572 C2573 1.385 . S
C2573 H2559 0.931 . S
C2573 C2572 1.385 . S
C2573 C2574 1.389 . S
C2574 C2573 1.389 . S
C2574 C2575 1.387 . S
C2575 H2560 0.930 . S
C2575 C2570 1.390 . S
C2575 C2574 1.387 . S
H2576 C2588 0.930 . S
H2577 C2590 0.930 . S
H2578 C2591 0.930 . S
H2579 C2595 0.959 . S
H2580 C2595 0.959 . S
H2581 C2595 0.961 . S
H2582 C2596 0.960 . S
H2583 C2596 0.961 . S
H2584 C2596 0.959 . S
H2585 C2599 0.929 . S
H2586 C2600 0.931 . S
H2587 C2602 0.930 . S
C2588 H2576 0.930 . S
C2588 C2589 1.399 . S
C2588 C2593 1.399 . S
C2589 C2588 1.399 . S
C2589 C2590 1.376 . S
C2590 H2577 0.930 . S
C2590 C2589 1.376 . S
C2590 C2591 1.388 . S
C2591 H2578 0.930 . S
C2591 C2590 1.388 . S
C2591 C2592 1.390 . S
C2592 C2591 1.390 . S
C2592 C2593 1.394 . S
C2592 C2598 1.465 . S
C2593 C2588 1.399 . S
C2593 C2592 1.394 . S
C2593 C2594 1.516 . S
C2594 C2593 1.516 . S
C2594 C2595 1.502 . S
C2594 C2596 1.561 . S
C2594 C2597 1.526 . S
C2595 H2579 0.959 . S
C2595 H2580 0.959 . S
C2595 H2581 0.961 . S
C2595 C2594 1.502 . S
C2596 H2582 0.960 . S
C2596 H2583 0.961 . S
C2596 H2584 0.959 . S
C2596 C2594 1.561 . S
C2597 C2594 1.526 . S
C2597 C2598 1.396 . S
C2597 C2602 1.390 . S
C2598 C2592 1.465 . S
C2598 C2597 1.396 . S
C2598 C2599 1.399 . S
C2599 H2585 0.929 . S
C2599 C2598 1.399 . S
C2599 C2600 1.385 . S
C2600 H2586 0.931 . S
C2600 C2599 1.385 . S
C2600 C2601 1.389 . S
C2601 C2600 1.389 . S
C2601 C2602 1.387 . S
C2602 H2587 0.930 . S
C2602 C2597 1.390 . S
C2602 C2601 1.387 . S
H2603 C2615 0.930 . S
H2604 C2617 0.930 . S
H2605 C2618 0.930 . S
H2606 C2622 0.959 . S
H2607 C2622 0.959 . S
H2608 C2622 0.961 . S
H2609 C2623 0.960 . S
H2610 C2623 0.961 . S
H2611 C2623 0.959 . S
H2612 C2626 0.929 . S
H2613 C2627 0.931 . S
H2614 C2629 0.930 . S
C2615 H2603 0.930 . S
C2615 C2616 1.399 . S
C2615 C2620 1.399 . S
C2616 C2615 1.399 . S
C2616 C2617 1.376 . S
C2617 H2604 0.930 . S
C2617 C2616 1.376 . S
C2617 C2618 1.388 . S
C2618 H2605 0.930 . S
C2618 C2617 1.388 . S
C2618 C2619 1.390 . S
C2619 C2618 1.390 . S
C2619 C2620 1.394 . S
C2619 C2625 1.465 . S
C2620 C2615 1.399 . S
C2620 C2619 1.394 . S
C2620 C2621 1.516 . S
C2621 C2620 1.516 . S
C2621 C2622 1.502 . S
C2621 C2623 1.561 . S
C2621 C2624 1.526 . S
C2622 H2606 0.959 . S
C2622 H2607 0.959 . S
C2622 H2608 0.961 . S
C2622 C2621 1.502 . S
C2623 H2609 0.960 . S
C2623 H2610 0.961 . S
C2623 H2611 0.959 . S
C2623 C2621 1.561 . S
C2624 C2621 1.526 . S
C2624 C2625 1.396 . S
C2624 C2629 1.390 . S
C2625 C2619 1.465 . S
C2625 C2624 1.396 . S
C2625 C2626 1.399 . S
C2626 H2612 0.929 . S
C2626 C2625 1.399 . S
C2626 C2627 1.385 . S
C2627 H2613 0.931 . S
C2627 C2626 1.385 . S
C2627 C2628 1.389 . S
C2628 C2627 1.389 . S
C2628 C2629 1.387 . S
C2629 H2614 0.930 . S
C2629 C2624 1.390 . S
C2629 C2628 1.387 . S
H2630 C2642 0.930 1_655 S
H2631 C2644 0.930 . S
H2632 C2645 0.930 . S
H2633 C2649 0.959 . S
H2634 C2649 0.959 . S
H2635 C2649 0.961 . S
H2636 C2650 0.960 . S
H2637 C2650 0.961 . S
H2638 C2650 0.959 . S
H2639 C2653 0.929 . S
H2640 C2654 0.931 . S
H2641 C2656 0.930 1_655 S
C2642 H2630 0.930 1_455 S
C2642 C2643 1.399 . S
C2642 C2647 1.399 . S
C2643 C2642 1.399 . S
C2643 C2644 1.376 . S
C2644 H2631 0.930 . S
C2644 C2643 1.376 . S
C2644 C2645 1.388 . S
C2645 H2632 0.930 . S
C2645 C2644 1.388 . S
C2645 C2646 1.390 . S
C2646 C2645 1.390 . S
C2646 C2647 1.394 . S
C2646 C2652 1.465 . S
C2647 C2642 1.399 . S
C2647 C2646 1.394 . S
C2647 C2648 1.516 . S
C2648 C2647 1.516 . S
C2648 C2649 1.502 1_455 S
C2648 C2650 1.561 . S
C2648 C2651 1.526 . S
C2649 H2633 0.959 . S
C2649 H2634 0.959 . S
C2649 H2635 0.961 . S
C2649 C2648 1.502 1_655 S
C2650 H2636 0.960 . S
C2650 H2637 0.961 . S
C2650 H2638 0.959 . S
C2650 C2648 1.561 . S
C2651 C2648 1.526 . S
C2651 C2652 1.396 . S
C2651 C2656 1.390 . S
C2652 C2646 1.465 . S
C2652 C2651 1.396 . S
C2652 C2653 1.399 . S
C2653 H2639 0.929 . S
C2653 C2652 1.399 . S
C2653 C2654 1.385 . S
C2654 H2640 0.931 . S
C2654 C2653 1.385 . S
C2654 C2655 1.389 . S
C2655 C2654 1.389 . S
C2655 C2656 1.387 . S
C2656 H2641 0.930 1_455 S
C2656 C2651 1.390 . S
C2656 C2655 1.387 . S
H2657 C2669 0.930 . S
H2658 C2671 0.930 . S
H2659 C2672 0.930 . S
H2660 C2676 0.959 . S
H2661 C2676 0.959 . S
H2662 C2676 0.961 . S
H2663 C2677 0.960 . S
H2664 C2677 0.961 . S
H2665 C2677 0.959 . S
H2666 C2680 0.929 . S
H2667 C2681 0.931 . S
H2668 C2683 0.930 . S
C2669 H2657 0.930 . S
C2669 C2670 1.399 . S
C2669 C2674 1.399 . S
C2670 C2669 1.399 . S
C2670 C2671 1.376 . S
C2671 H2658 0.930 . S
C2671 C2670 1.376 . S
C2671 C2672 1.388 . S
C2672 H2659 0.930 . S
C2672 C2671 1.388 . S
C2672 C2673 1.390 . S
C2673 C2672 1.390 . S
C2673 C2674 1.394 . S
C2673 C2679 1.465 . S
C2674 C2669 1.399 . S
C2674 C2673 1.394 . S
C2674 C2675 1.516 . S
C2675 C2674 1.516 . S
C2675 C2676 1.502 . S
C2675 C2677 1.561 . S
C2675 C2678 1.526 . S
C2676 H2660 0.959 . S
C2676 H2661 0.959 . S
C2676 H2662 0.961 . S
C2676 C2675 1.502 . S
C2677 H2663 0.960 . S
C2677 H2664 0.961 . S
C2677 H2665 0.959 . S
C2677 C2675 1.561 . S
C2678 C2675 1.526 . S
C2678 C2679 1.396 . S
C2678 C2683 1.390 . S
C2679 C2673 1.465 . S
C2679 C2678 1.396 . S
C2679 C2680 1.399 . S
C2680 H2666 0.929 . S
C2680 C2679 1.399 . S
C2680 C2681 1.385 . S
C2681 H2667 0.931 . S
C2681 C2680 1.385 . S
C2681 C2682 1.389 . S
C2682 C2681 1.389 . S
C2682 C2683 1.387 . S
C2683 H2668 0.930 . S
C2683 C2678 1.390 . S
C2683 C2682 1.387 . S
H2684 C2696 0.930 . S
H2685 C2698 0.930 . S
H2686 C2699 0.930 . S
H2687 C2703 0.959 . S
H2688 C2703 0.959 . S
H2689 C2703 0.961 . S
H2690 C2704 0.960 . S
H2691 C2704 0.946 1_554 S
H2692 C2704 0.959 . S
H2693 C2707 0.929 . S
H2694 C2708 0.931 . S
H2695 C2710 0.930 . S
C2696 H2684 0.930 . S
C2696 C2697 1.399 . S
C2696 C2701 1.399 . S
C2697 C2696 1.399 . S
C2697 C2698 1.376 . S
C2698 H2685 0.930 . S
C2698 C2697 1.376 . S
C2698 C2699 1.388 . S
C2699 H2686 0.930 . S
C2699 C2698 1.388 . S
C2699 C2700 1.390 . S
C2700 C2699 1.390 . S
C2700 C2701 1.394 . S
C2700 C2706 1.465 . S
C2701 C2696 1.399 . S
C2701 C2700 1.394 . S
C2701 C2702 1.516 . S
C2702 C2701 1.516 . S
C2702 C2703 1.502 . S
C2702 C2704 1.561 . S
C2702 C2705 1.526 . S
C2703 H2687 0.959 . S
C2703 H2688 0.959 . S
C2703 H2689 0.961 . S
C2703 C2702 1.502 . S
C2704 H2690 0.960 . S
C2704 H2691 0.946 1_556 S
C2704 H2692 0.959 . S
C2704 C2702 1.561 . S
C2705 C2702 1.526 . S
C2705 C2706 1.396 . S
C2705 C2710 1.390 . S
C2706 C2700 1.465 . S
C2706 C2705 1.396 . S
C2706 C2707 1.399 . S
C2707 H2693 0.929 . S
C2707 C2706 1.399 . S
C2707 C2708 1.385 . S
C2708 H2694 0.931 . S
C2708 C2707 1.385 . S
C2708 C2709 1.389 . S
C2709 C2708 1.389 . S
C2709 C2710 1.387 . S
C2710 H2695 0.930 . S
C2710 C2705 1.390 . S
C2710 C2709 1.387 . S
H2711 C2723 0.930 . S
H2712 C2725 0.930 . S
H2713 C2726 0.930 . S
H2714 C2730 0.959 . S
H2715 C2730 0.959 . S
H2716 C2730 0.961 . S
H2717 C2731 0.960 . S
H2718 C2731 0.961 . S
H2719 C2731 0.959 . S
H2720 C2734 0.929 . S
H2721 C2735 0.931 . S
H2722 C2737 0.930 . S
C2723 H2711 0.930 . S
C2723 C2724 1.399 . S
C2723 C2728 1.399 . S
C2724 C2723 1.399 . S
C2724 C2725 1.376 . S
C2725 H2712 0.930 . S
C2725 C2724 1.376 . S
C2725 C2726 1.388 . S
C2726 H2713 0.930 . S
C2726 C2725 1.388 . S
C2726 C2727 1.390 . S
C2727 C2726 1.390 . S
C2727 C2728 1.394 . S
C2727 C2733 1.465 . S
C2728 C2723 1.399 . S
C2728 C2727 1.394 . S
C2728 C2729 1.516 . S
C2729 C2728 1.516 . S
C2729 C2730 1.502 . S
C2729 C2731 1.561 . S
C2729 C2732 1.526 . S
C2730 H2714 0.959 . S
C2730 H2715 0.959 . S
C2730 H2716 0.961 . S
C2730 C2729 1.502 . S
C2731 H2717 0.960 . S
C2731 H2718 0.961 . S
C2731 H2719 0.959 . S
C2731 C2729 1.561 . S
C2732 C2729 1.526 . S
C2732 C2733 1.396 . S
C2732 C2737 1.390 . S
C2733 C2727 1.465 . S
C2733 C2732 1.396 . S
C2733 C2734 1.399 . S
C2734 H2720 0.929 . S
C2734 C2733 1.399 . S
C2734 C2735 1.385 . S
C2735 H2721 0.931 . S
C2735 C2734 1.385 . S
C2735 C2736 1.389 . S
C2736 C2735 1.389 . S
C2736 C2737 1.387 . S
C2737 H2722 0.930 . S
C2737 C2732 1.390 . S
C2737 C2736 1.387 . S
H2738 C2750 0.930 . S
H2739 C2752 0.930 . S
H2740 C2753 0.930 . S
H2741 C2757 0.959 . S
H2742 C2757 0.959 . S
H2743 C2757 0.961 . S
H2744 C2758 0.960 . S
H2745 C2758 0.961 . S
H2746 C2758 0.959 1_655 S
H2747 C2761 0.929 . S
H2748 C2762 0.931 . S
H2749 C2764 0.930 . S
C2750 H2738 0.930 . S
C2750 C2751 1.399 . S
C2750 C2755 1.399 . S
C2751 C2750 1.399 . S
C2751 C2752 1.376 . S
C2752 H2739 0.930 . S
C2752 C2751 1.376 . S
C2752 C2753 1.388 . S
C2753 H2740 0.930 . S
C2753 C2752 1.388 . S
C2753 C2754 1.390 . S
C2754 C2753 1.390 . S
C2754 C2755 1.394 . S
C2754 C2760 1.465 . S
C2755 C2750 1.399 . S
C2755 C2754 1.394 . S
C2755 C2756 1.516 . S
C2756 C2755 1.516 . S
C2756 C2757 1.502 . S
C2756 C2758 1.561 . S
C2756 C2759 1.526 . S
C2757 H2741 0.959 . S
C2757 H2742 0.959 . S
C2757 H2743 0.961 . S
C2757 C2756 1.502 . S
C2758 H2744 0.960 . S
C2758 H2745 0.961 . S
C2758 H2746 0.959 1_455 S
C2758 C2756 1.561 . S
C2759 C2756 1.526 . S
C2759 C2760 1.396 . S
C2759 C2764 1.390 . S
C2760 C2754 1.465 . S
C2760 C2759 1.396 . S
C2760 C2761 1.399 . S
C2761 H2747 0.929 . S
C2761 C2760 1.399 . S
C2761 C2762 1.385 . S
C2762 H2748 0.931 . S
C2762 C2761 1.385 . S
C2762 C2763 1.389 . S
C2763 C2762 1.389 . S
C2763 C2764 1.387 . S
C2764 H2749 0.930 . S
C2764 C2759 1.390 . S
C2764 C2763 1.387 . S
H2765 C2777 0.930 . S
H2766 C2779 0.930 . S
H2767 C2780 0.930 . S
H2768 C2784 0.959 . S
H2769 C2784 0.959 . S
H2770 C2784 0.961 . S
H2771 C2785 0.960 . S
H2772 C2785 0.961 . S
H2773 C2785 0.959 . S
H2774 C2788 0.929 . S
H2775 C2789 0.931 . S
H2776 C2791 0.930 . S
C2777 H2765 0.930 . S
C2777 C2778 1.399 . S
C2777 C2782 1.399 . S
C2778 C2777 1.399 . S
C2778 C2779 1.376 . S
C2779 H2766 0.930 . S
C2779 C2778 1.376 . S
C2779 C2780 1.388 . S
C2780 H2767 0.930 . S
C2780 C2779 1.388 . S
C2780 C2781 1.390 . S
C2781 C2780 1.390 . S
C2781 C2782 1.394 . S
C2781 C2787 1.465 . S
C2782 C2777 1.399 . S
C2782 C2781 1.394 . S
C2782 C2783 1.516 . S
C2783 C2782 1.516 . S
C2783 C2784 1.502 . S
C2783 C2785 1.561 . S
C2783 C2786 1.526 . S
C2784 H2768 0.959 . S
C2784 H2769 0.959 . S
C2784 H2770 0.961 . S
C2784 C2783 1.502 . S
C2785 H2771 0.960 . S
C2785 H2772 0.961 . S
C2785 H2773 0.959 . S
C2785 C2783 1.561 . S
C2786 C2783 1.526 . S
C2786 C2787 1.396 . S
C2786 C2791 1.390 . S
C2787 C2781 1.465 . S
C2787 C2786 1.396 . S
C2787 C2788 1.399 . S
C2788 H2774 0.929 . S
C2788 C2787 1.399 . S
C2788 C2789 1.385 . S
C2789 H2775 0.931 . S
C2789 C2788 1.385 . S
C2789 C2790 1.389 . S
C2790 C2789 1.389 . S
C2790 C2791 1.387 . S
C2791 H2776 0.930 . S
C2791 C2786 1.390 . S
C2791 C2790 1.387 . S
H2792 C2804 0.930 . S
H2793 C2806 0.930 . S
H2794 C2807 0.930 . S
H2795 C2811 0.959 . S
H2796 C2811 0.959 . S
H2797 C2811 0.961 . S
H2798 C2812 0.960 . S
H2799 C2812 0.961 . S
H2800 C2812 0.959 . S
H2801 C2815 0.929 . S
H2802 C2816 0.931 . S
H2803 C2818 0.930 . S
C2804 H2792 0.930 . S
C2804 C2805 1.399 . S
C2804 C2809 1.399 . S
C2805 C2804 1.399 . S
C2805 C2806 1.376 . S
C2806 H2793 0.930 . S
C2806 C2805 1.376 . S
C2806 C2807 1.388 . S
C2807 H2794 0.930 . S
C2807 C2806 1.388 . S
C2807 C2808 1.390 . S
C2808 C2807 1.390 . S
C2808 C2809 1.394 . S
C2808 C2814 1.465 . S
C2809 C2804 1.399 . S
C2809 C2808 1.394 . S
C2809 C2810 1.516 . S
C2810 C2809 1.516 . S
C2810 C2811 1.502 . S
C2810 C2812 1.561 . S
C2810 C2813 1.526 . S
C2811 H2795 0.959 . S
C2811 H2796 0.959 . S
C2811 H2797 0.961 . S
C2811 C2810 1.502 . S
C2812 H2798 0.960 . S
C2812 H2799 0.961 . S
C2812 H2800 0.959 . S
C2812 C2810 1.561 . S
C2813 C2810 1.526 . S
C2813 C2814 1.396 . S
C2813 C2818 1.390 . S
C2814 C2808 1.465 . S
C2814 C2813 1.396 . S
C2814 C2815 1.399 . S
C2815 H2801 0.929 . S
C2815 C2814 1.399 . S
C2815 C2816 1.385 . S
C2816 H2802 0.931 . S
C2816 C2815 1.385 . S
C2816 C2817 1.389 . S
C2817 C2816 1.389 . S
C2817 C2818 1.387 . S
C2818 H2803 0.930 . S
C2818 C2813 1.390 . S
C2818 C2817 1.387 . S
H2819 C2831 0.930 . S
H2820 C2833 0.930 . S
H2821 C2834 0.930 . S
H2822 C2838 0.959 . S
H2823 C2838 0.959 . S
H2824 C2838 0.961 . S
H2825 C2839 0.960 . S
H2826 C2839 0.961 . S
H2827 C2839 0.959 . S
H2828 C2842 0.929 . S
H2829 C2843 0.931 . S
H2830 C2845 0.930 . S
C2831 H2819 0.930 . S
C2831 C2832 1.399 . S
C2831 C2836 1.399 . S
C2832 C2831 1.399 . S
C2832 C2833 1.376 . S
C2833 H2820 0.930 . S
C2833 C2832 1.376 . S
C2833 C2834 1.388 . S
C2834 H2821 0.930 . S
C2834 C2833 1.388 . S
C2834 C2835 1.390 . S
C2835 C2834 1.390 . S
C2835 C2836 1.394 . S
C2835 C2841 1.465 . S
C2836 C2831 1.399 . S
C2836 C2835 1.394 . S
C2836 C2837 1.516 . S
C2837 C2836 1.516 . S
C2837 C2838 1.502 . S
C2837 C2839 1.561 . S
C2837 C2840 1.526 . S
C2838 H2822 0.959 . S
C2838 H2823 0.959 . S
C2838 H2824 0.961 . S
C2838 C2837 1.502 . S
C2839 H2825 0.960 . S
C2839 H2826 0.961 . S
C2839 H2827 0.959 . S
C2839 C2837 1.561 . S
C2840 C2837 1.526 . S
C2840 C2841 1.396 . S
C2840 C2845 1.390 . S
C2841 C2835 1.465 . S
C2841 C2840 1.396 . S
C2841 C2842 1.399 . S
C2842 H2828 0.929 . S
C2842 C2841 1.399 . S
C2842 C2843 1.385 . S
C2843 H2829 0.931 . S
C2843 C2842 1.385 . S
C2843 C2844 1.389 . S
C2844 C2843 1.389 . S
C2844 C2845 1.387 . S
C2845 H2830 0.930 . S
C2845 C2840 1.390 . S
C2845 C2844 1.387 . S
H2846 C2858 0.930 . S
H2847 C2860 0.930 . S
H2848 C2861 0.930 . S
H2849 C2865 0.959 1_455 S
H2850 C2865 0.959 1_455 S
H2851 C2865 0.961 . S
H2852 C2866 0.960 . S
H2853 C2866 0.961 . S
H2854 C2866 0.959 . S
H2855 C2869 0.929 . S
H2856 C2870 0.931 . S
H2857 C2872 0.930 . S
C2858 H2846 0.930 . S
C2858 C2859 1.399 . S
C2858 C2863 1.399 . S
C2859 C2858 1.399 . S
C2859 C2860 1.376 . S
C2860 H2847 0.930 . S
C2860 C2859 1.376 . S
C2860 C2861 1.388 . S
C2861 H2848 0.930 . S
C2861 C2860 1.388 . S
C2861 C2862 1.390 . S
C2862 C2861 1.390 . S
C2862 C2863 1.394 . S
C2862 C2868 1.465 . S
C2863 C2858 1.399 . S
C2863 C2862 1.394 . S
C2863 C2864 1.516 . S
C2864 C2863 1.516 . S
C2864 C2865 1.502 . S
C2864 C2866 1.561 . S
C2864 C2867 1.526 . S
C2865 H2849 0.959 1_655 S
C2865 H2850 0.959 1_655 S
C2865 H2851 0.961 . S
C2865 C2864 1.502 . S
C2866 H2852 0.960 . S
C2866 H2853 0.961 . S
C2866 H2854 0.959 . S
C2866 C2864 1.561 . S
C2867 C2864 1.526 . S
C2867 C2868 1.396 . S
C2867 C2872 1.390 . S
C2868 C2862 1.465 . S
C2868 C2867 1.396 . S
C2868 C2869 1.399 . S
C2869 H2855 0.929 . S
C2869 C2868 1.399 . S
C2869 C2870 1.385 . S
C2870 H2856 0.931 . S
C2870 C2869 1.385 . S
C2870 C2871 1.389 . S
C2871 C2870 1.389 . S
C2871 C2872 1.387 . S
C2872 H2857 0.930 . S
C2872 C2867 1.390 . S
C2872 C2871 1.387 . S
H2873 C2885 0.930 . S
H2874 C2887 0.930 . S
H2875 C2888 0.930 . S
H2876 C2892 0.959 . S
H2877 C2892 0.959 . S
H2878 C2892 0.961 . S
H2879 C2893 0.960 . S
H2880 C2893 0.961 . S
H2881 C2893 0.959 . S
H2882 C2896 0.929 . S
H2883 C2897 0.931 . S
H2884 C2899 0.930 . S
C2885 H2873 0.930 . S
C2885 C2886 1.399 . S
C2885 C2890 1.399 . S
C2886 C2885 1.399 . S
C2886 C2887 1.376 . S
C2887 H2874 0.930 . S
C2887 C2886 1.376 . S
C2887 C2888 1.388 . S
C2888 H2875 0.930 . S
C2888 C2887 1.388 . S
C2888 C2889 1.390 . S
C2889 C2888 1.390 . S
C2889 C2890 1.394 . S
C2889 C2895 1.465 . S
C2890 C2885 1.399 . S
C2890 C2889 1.394 . S
C2890 C2891 1.516 . S
C2891 C2890 1.516 . S
C2891 C2892 1.502 . S
C2891 C2893 1.561 . S
C2891 C2894 1.526 . S
C2892 H2876 0.959 . S
C2892 H2877 0.959 . S
C2892 H2878 0.961 . S
C2892 C2891 1.502 . S
C2893 H2879 0.960 . S
C2893 H2880 0.961 . S
C2893 H2881 0.959 . S
C2893 C2891 1.561 . S
C2894 C2891 1.526 . S
C2894 C2895 1.396 . S
C2894 C2899 1.390 . S
C2895 C2889 1.465 . S
C2895 C2894 1.396 . S
C2895 C2896 1.399 . S
C2896 H2882 0.929 . S
C2896 C2895 1.399 . S
C2896 C2897 1.385 . S
C2897 H2883 0.931 . S
C2897 C2896 1.385 . S
C2897 C2898 1.389 . S
C2898 C2897 1.389 . S
C2898 C2899 1.387 . S
C2899 H2884 0.930 . S
C2899 C2894 1.390 . S
C2899 C2898 1.387 . S
H2900 C2912 0.930 . S
H2901 C2914 0.930 . S
H2902 C2915 0.930 . S
H2903 C2919 0.959 . S
H2904 C2919 0.959 . S
H2905 C2919 0.961 . S
H2906 C2920 0.960 . S
H2907 C2920 0.961 . S
H2908 C2920 0.959 . S
H2909 C2923 0.929 . S
H2910 C2924 0.931 . S
H2911 C2926 0.930 . S
C2912 H2900 0.930 . S
C2912 C2913 1.399 . S
C2912 C2917 1.399 . S
C2913 C2912 1.399 . S
C2913 C2914 1.376 . S
C2914 H2901 0.930 . S
C2914 C2913 1.376 . S
C2914 C2915 1.388 . S
C2915 H2902 0.930 . S
C2915 C2914 1.388 . S
C2915 C2916 1.390 . S
C2916 C2915 1.390 . S
C2916 C2917 1.394 . S
C2916 C2922 1.465 . S
C2917 C2912 1.399 . S
C2917 C2916 1.394 . S
C2917 C2918 1.516 . S
C2918 C2917 1.516 . S
C2918 C2919 1.502 . S
C2918 C2920 1.561 . S
C2918 C2921 1.526 . S
C2919 H2903 0.959 . S
C2919 H2904 0.959 . S
C2919 H2905 0.961 . S
C2919 C2918 1.502 . S
C2920 H2906 0.960 . S
C2920 H2907 0.961 . S
C2920 H2908 0.959 . S
C2920 C2918 1.561 . S
C2921 C2918 1.526 . S
C2921 C2922 1.396 . S
C2921 C2926 1.390 . S
C2922 C2916 1.465 . S
C2922 C2921 1.396 . S
C2922 C2923 1.399 . S
C2923 H2909 0.929 . S
C2923 C2922 1.399 . S
C2923 C2924 1.385 . S
C2924 H2910 0.931 . S
C2924 C2923 1.385 . S
C2924 C2925 1.389 . S
C2925 C2924 1.389 . S
C2925 C2926 1.387 . S
C2926 H2911 0.930 . S
C2926 C2921 1.390 . S
C2926 C2925 1.387 . S
H2927 C2939 0.930 . S
H2928 C2941 0.930 . S
H2929 C2942 0.930 . S
H2930 C2946 0.959 . S
H2931 C2946 0.959 . S
H2932 C2946 0.961 . S
H2933 C2947 0.960 . S
H2934 C2947 0.961 . S
H2935 C2947 0.959 . S
H2936 C2950 0.929 . S
H2937 C2951 0.931 . S
H2938 C2953 0.930 . S
C2939 H2927 0.930 . S
C2939 C2940 1.399 . S
C2939 C2944 1.399 . S
C2940 C2939 1.399 . S
C2940 C2941 1.376 . S
C2941 H2928 0.930 . S
C2941 C2940 1.376 . S
C2941 C2942 1.388 . S
C2942 H2929 0.930 . S
C2942 C2941 1.388 . S
C2942 C2943 1.390 . S
C2943 C2942 1.390 . S
C2943 C2944 1.394 . S
C2943 C2949 1.465 . S
C2944 C2939 1.399 . S
C2944 C2943 1.394 . S
C2944 C2945 1.516 . S
C2945 C2944 1.516 . S
C2945 C2946 1.502 . S
C2945 C2947 1.561 . S
C2945 C2948 1.526 . S
C2946 H2930 0.959 . S
C2946 H2931 0.959 . S
C2946 H2932 0.961 . S
C2946 C2945 1.502 . S
C2947 H2933 0.960 . S
C2947 H2934 0.961 . S
C2947 H2935 0.959 . S
C2947 C2945 1.561 . S
C2948 C2945 1.526 . S
C2948 C2949 1.396 . S
C2948 C2953 1.390 . S
C2949 C2943 1.465 . S
C2949 C2948 1.396 . S
C2949 C2950 1.399 . S
C2950 H2936 0.929 . S
C2950 C2949 1.399 . S
C2950 C2951 1.385 . S
C2951 H2937 0.931 . S
C2951 C2950 1.385 . S
C2951 C2952 1.389 . S
C2952 C2951 1.389 . S
C2952 C2953 1.387 . S
C2953 H2938 0.930 . S
C2953 C2948 1.390 . S
C2953 C2952 1.387 . S
H2954 C2966 0.930 . S
H2955 C2968 0.930 . S
H2956 C2969 0.930 . S
H2957 C2973 0.959 . S
H2958 C2973 0.959 . S
H2959 C2973 0.961 . S
H2960 C2974 0.960 . S
H2961 C2974 0.961 . S
H2962 C2974 0.959 . S
H2963 C2977 0.929 . S
H2964 C2978 0.931 . S
H2965 C2980 0.930 . S
C2966 H2954 0.930 . S
C2966 C2967 1.399 . S
C2966 C2971 1.399 . S
C2967 C2966 1.399 . S
C2967 C2968 1.376 . S
C2968 H2955 0.930 . S
C2968 C2967 1.376 . S
C2968 C2969 1.388 . S
C2969 H2956 0.930 . S
C2969 C2968 1.388 . S
C2969 C2970 1.390 . S
C2970 C2969 1.390 . S
C2970 C2971 1.394 . S
C2970 C2976 1.465 . S
C2971 C2966 1.399 . S
C2971 C2970 1.394 . S
C2971 C2972 1.516 . S
C2972 C2971 1.516 . S
C2972 C2973 1.502 . S
C2972 C2974 1.561 . S
C2972 C2975 1.526 . S
C2973 H2957 0.959 . S
C2973 H2958 0.959 . S
C2973 H2959 0.961 . S
C2973 C2972 1.502 . S
C2974 H2960 0.960 . S
C2974 H2961 0.961 . S
C2974 H2962 0.959 . S
C2974 C2972 1.561 . S
C2975 C2972 1.526 . S
C2975 C2976 1.396 . S
C2975 C2980 1.390 . S
C2976 C2970 1.465 . S
C2976 C2975 1.396 . S
C2976 C2977 1.399 . S
C2977 H2963 0.929 . S
C2977 C2976 1.399 . S
C2977 C2978 1.385 . S
C2978 H2964 0.931 . S
C2978 C2977 1.385 . S
C2978 C2979 1.389 . S
C2979 C2978 1.389 . S
C2979 C2980 1.387 . S
C2980 H2965 0.930 . S
C2980 C2975 1.390 . S
C2980 C2979 1.387 . S
H2981 C2993 0.930 . S
H2982 C2995 0.930 . S
H2983 C2996 0.930 . S
H2984 C3000 0.959 . S
H2985 C3000 0.959 . S
H2986 C3000 0.961 . S
H2987 C3001 0.960 . S
H2988 C3001 0.961 . S
H2989 C3001 0.959 . S
H2990 C3004 0.929 . S
H2991 C3005 0.931 . S
H2992 C3007 0.930 . S
C2993 H2981 0.930 . S
C2993 C2994 1.399 . S
C2993 C2998 1.399 . S
C2994 C2993 1.399 . S
C2994 C2995 1.376 . S
C2995 H2982 0.930 . S
C2995 C2994 1.376 . S
C2995 C2996 1.388 . S
C2996 H2983 0.930 . S
C2996 C2995 1.388 . S
C2996 C2997 1.390 . S
C2997 C2996 1.390 . S
C2997 C2998 1.394 . S
C2997 C3003 1.465 . S
C2998 C2993 1.399 . S
C2998 C2997 1.394 . S
C2998 C2999 1.516 . S
C2999 C2998 1.516 . S
C2999 C3000 1.502 . S
C2999 C3001 1.561 . S
C2999 C3002 1.526 . S
C3000 H2984 0.959 . S
C3000 H2985 0.959 . S
C3000 H2986 0.961 . S
C3000 C2999 1.502 . S
C3001 H2987 0.960 . S
C3001 H2988 0.961 . S
C3001 H2989 0.959 . S
C3001 C2999 1.561 . S
C3002 C2999 1.526 . S
C3002 C3003 1.396 . S
C3002 C3007 1.390 . S
C3003 C2997 1.465 . S
C3003 C3002 1.396 . S
C3003 C3004 1.399 . S
C3004 H2990 0.929 . S
C3004 C3003 1.399 . S
C3004 C3005 1.385 . S
C3005 H2991 0.931 . S
C3005 C3004 1.385 . S
C3005 C3006 1.389 . S
C3006 C3005 1.389 . S
C3006 C3007 1.387 . S
C3007 H2992 0.930 . S
C3007 C3002 1.390 . S
C3007 C3006 1.387 . S
H3008 C3020 0.930 . S
H3009 C3022 0.930 . S
H3010 C3023 0.930 . S
H3011 C3027 0.959 . S
H3012 C3027 0.959 . S
H3013 C3027 0.961 . S
H3014 C3028 0.960 . S
H3015 C3028 0.961 . S
H3016 C3028 0.959 . S
H3017 C3031 0.929 . S
H3018 C3032 0.931 . S
H3019 C3034 0.930 . S
C3020 H3008 0.930 . S
C3020 C3021 1.399 . S
C3020 C3025 1.399 . S
C3021 C3020 1.399 . S
C3021 C3022 1.376 . S
C3022 H3009 0.930 . S
C3022 C3021 1.376 . S
C3022 C3023 1.388 . S
C3023 H3010 0.930 . S
C3023 C3022 1.388 . S
C3023 C3024 1.390 . S
C3024 C3023 1.390 . S
C3024 C3025 1.394 . S
C3024 C3030 1.465 . S
C3025 C3020 1.399 . S
C3025 C3024 1.394 . S
C3025 C3026 1.516 . S
C3026 C3025 1.516 . S
C3026 C3027 1.502 . S
C3026 C3028 1.561 . S
C3026 C3029 1.526 . S
C3027 H3011 0.959 . S
C3027 H3012 0.959 . S
C3027 H3013 0.961 . S
C3027 C3026 1.502 . S
C3028 H3014 0.960 . S
C3028 H3015 0.961 . S
C3028 H3016 0.959 . S
C3028 C3026 1.561 . S
C3029 C3026 1.526 . S
C3029 C3030 1.396 . S
C3029 C3034 1.390 . S
C3030 C3024 1.465 . S
C3030 C3029 1.396 . S
C3030 C3031 1.399 . S
C3031 H3017 0.929 . S
C3031 C3030 1.399 . S
C3031 C3032 1.385 . S
C3032 H3018 0.931 . S
C3032 C3031 1.385 . S
C3032 C3033 1.389 . S
C3033 C3032 1.389 . S
C3033 C3034 1.387 . S
C3034 H3019 0.930 . S
C3034 C3029 1.390 . S
C3034 C3033 1.387 . S
H3035 C3047 0.930 . S
H3036 C3049 0.930 . S
H3037 C3050 0.930 . S
H3038 C3054 0.959 . S
H3039 C3054 0.959 . S
H3040 C3054 0.961 . S
H3041 C3055 0.960 . S
H3042 C3055 0.961 . S
H3043 C3055 0.959 . S
H3044 C3058 0.929 . S
H3045 C3059 0.931 1_545 S
H3046 C3061 0.930 . S
C3047 H3035 0.930 . S
C3047 C3048 1.399 . S
C3047 C3052 1.399 . S
C3048 C3047 1.399 . S
C3048 C3049 1.376 . S
C3049 H3036 0.930 . S
C3049 C3048 1.376 . S
C3049 C3050 1.388 . S
C3050 H3037 0.930 . S
C3050 C3049 1.388 . S
C3050 C3051 1.390 . S
C3051 C3050 1.390 . S
C3051 C3052 1.394 . S
C3051 C3057 1.465 . S
C3052 C3047 1.399 . S
C3052 C3051 1.394 . S
C3052 C3053 1.516 . S
C3053 C3052 1.516 . S
C3053 C3054 1.502 . S
C3053 C3055 1.561 . S
C3053 C3056 1.526 . S
C3054 H3038 0.959 . S
C3054 H3039 0.959 . S
C3054 H3040 0.961 . S
C3054 C3053 1.502 . S
C3055 H3041 0.960 . S
C3055 H3042 0.961 . S
C3055 H3043 0.959 . S
C3055 C3053 1.561 . S
C3056 C3053 1.526 . S
C3056 C3057 1.396 . S
C3056 C3061 1.390 . S
C3057 C3051 1.465 . S
C3057 C3056 1.396 . S
C3057 C3058 1.399 . S
C3058 H3044 0.929 . S
C3058 C3057 1.399 . S
C3058 C3059 1.385 . S
C3059 H3045 0.931 1_565 S
C3059 C3058 1.385 . S
C3059 C3060 1.389 . S
C3060 C3059 1.389 . S
C3060 C3061 1.387 . S
C3061 H3046 0.930 . S
C3061 C3056 1.390 . S
C3061 C3060 1.387 . S
H3062 C3074 0.930 . S
H3063 C3076 0.930 . S
H3064 C3077 0.930 . S
H3065 C3081 0.959 . S
H3066 C3081 0.959 . S
H3067 C3081 0.961 . S
H3068 C3082 0.960 . S
H3069 C3082 0.961 . S
H3070 C3082 0.959 . S
H3071 C3085 0.929 . S
H3072 C3086 0.931 . S
H3073 C3088 0.930 . S
C3074 H3062 0.930 . S
C3074 C3075 1.399 . S
C3074 C3079 1.399 . S
C3075 C3074 1.399 . S
C3075 C3076 1.376 . S
C3076 H3063 0.930 . S
C3076 C3075 1.376 . S
C3076 C3077 1.388 . S
C3077 H3064 0.930 . S
C3077 C3076 1.388 . S
C3077 C3078 1.390 . S
C3078 C3077 1.390 . S
C3078 C3079 1.394 . S
C3078 C3084 1.465 . S
C3079 C3074 1.399 . S
C3079 C3078 1.394 . S
C3079 C3080 1.516 . S
C3080 C3079 1.516 . S
C3080 C3081 1.502 . S
C3080 C3082 1.561 . S
C3080 C3083 1.526 . S
C3081 H3065 0.959 . S
C3081 H3066 0.959 . S
C3081 H3067 0.961 . S
C3081 C3080 1.502 . S
C3082 H3068 0.960 . S
C3082 H3069 0.961 . S
C3082 H3070 0.959 . S
C3082 C3080 1.561 . S
C3083 C3080 1.526 . S
C3083 C3084 1.396 . S
C3083 C3088 1.390 . S
C3084 C3078 1.465 . S
C3084 C3083 1.396 . S
C3084 C3085 1.399 . S
C3085 H3071 0.929 . S
C3085 C3084 1.399 . S
C3085 C3086 1.385 . S
C3086 H3072 0.931 . S
C3086 C3085 1.385 . S
C3086 C3087 1.389 . S
C3087 C3086 1.389 . S
C3087 C3088 1.387 . S
C3088 H3073 0.930 . S
C3088 C3083 1.390 . S
C3088 C3087 1.387 . S
H3089 C3101 0.930 . S
H3090 C3103 0.930 . S
H3091 C3104 0.930 . S
H3092 C3108 0.959 . S
H3093 C3108 0.959 . S
H3094 C3108 0.961 . S
H3095 C3109 0.960 . S
H3096 C3109 0.961 . S
H3097 C3109 0.959 . S
H3098 C3112 0.929 . S
H3099 C3113 0.931 . S
H3100 C3115 0.930 . S
C3101 H3089 0.930 . S
C3101 C3102 1.399 . S
C3101 C3106 1.399 . S
C3102 C3101 1.399 . S
C3102 C3103 1.376 1_556 S
C3103 H3090 0.930 . S
C3103 C3102 1.376 1_554 S
C3103 C3104 1.388 . S
C3104 H3091 0.930 . S
C3104 C3103 1.388 . S
C3104 C3105 1.390 . S
C3105 C3104 1.390 . S
C3105 C3106 1.394 1_554 S
C3105 C3111 1.465 . S
C3106 C3101 1.399 . S
C3106 C3105 1.394 1_556 S
C3106 C3107 1.516 . S
C3107 C3106 1.516 . S
C3107 C3108 1.502 . S
C3107 C3109 1.561 . S
C3107 C3110 1.526 . S
C3108 H3092 0.959 . S
C3108 H3093 0.959 . S
C3108 H3094 0.961 . S
C3108 C3107 1.502 . S
C3109 H3095 0.960 . S
C3109 H3096 0.961 . S
C3109 H3097 0.959 . S
C3109 C3107 1.561 . S
C3110 C3107 1.526 . S
C3110 C3111 1.396 1_556 S
C3110 C3115 1.390 . S
C3111 C3105 1.465 . S
C3111 C3110 1.396 1_554 S
C3111 C3112 1.399 . S
C3112 H3098 0.929 . S
C3112 C3111 1.399 . S
C3112 C3113 1.385 . S
C3113 H3099 0.931 . S
C3113 C3112 1.385 . S
C3113 C3114 1.389 . S
C3114 C3113 1.389 . S
C3114 C3115 1.387 1_554 S
C3115 H3100 0.930 . S
C3115 C3110 1.390 . S
C3115 C3114 1.387 1_556 S
H3116 C3128 0.930 . S
H3117 C3130 0.930 . S
H3118 C3131 0.930 . S
H3119 C3135 0.959 . S
H3120 C3135 0.959 . S
H3121 C3135 0.961 . S
H3122 C3136 0.960 . S
H3123 C3136 0.961 . S
H3124 C3136 0.959 . S
H3125 C3139 0.929 . S
H3126 C3140 0.931 . S
H3127 C3142 0.930 . S
C3128 H3116 0.930 . S
C3128 C3129 1.399 . S
C3128 C3133 1.399 . S
C3129 C3128 1.399 . S
C3129 C3130 1.376 . S
C3130 H3117 0.930 . S
C3130 C3129 1.376 . S
C3130 C3131 1.388 . S
C3131 H3118 0.930 . S
C3131 C3130 1.388 . S
C3131 C3132 1.390 . S
C3132 C3131 1.390 . S
C3132 C3133 1.394 . S
C3132 C3138 1.465 . S
C3133 C3128 1.399 . S
C3133 C3132 1.394 . S
C3133 C3134 1.516 . S
C3134 C3133 1.516 . S
C3134 C3135 1.502 . S
C3134 C3136 1.561 . S
C3134 C3137 1.526 . S
C3135 H3119 0.959 . S
C3135 H3120 0.959 . S
C3135 H3121 0.961 . S
C3135 C3134 1.502 . S
C3136 H3122 0.960 . S
C3136 H3123 0.961 . S
C3136 H3124 0.959 . S
C3136 C3134 1.561 . S
C3137 C3134 1.526 . S
C3137 C3138 1.396 . S
C3137 C3142 1.390 . S
C3138 C3132 1.465 . S
C3138 C3137 1.396 . S
C3138 C3139 1.399 . S
C3139 H3125 0.929 . S
C3139 C3138 1.399 . S
C3139 C3140 1.385 . S
C3140 H3126 0.931 . S
C3140 C3139 1.385 . S
C3140 C3141 1.389 . S
C3141 C3140 1.389 . S
C3141 C3142 1.387 . S
C3142 H3127 0.930 . S
C3142 C3137 1.390 . S
C3142 C3141 1.387 . S
H3143 C3155 0.930 . S
H3144 C3157 0.930 . S
H3145 C3158 0.930 . S
H3146 C3162 0.959 . S
H3147 C3162 0.959 . S
H3148 C3162 0.961 . S
H3149 C3163 0.960 . S
H3150 C3163 0.961 . S
H3151 C3163 0.959 . S
H3152 C3166 0.929 . S
H3153 C3167 0.931 . S
H3154 C3169 0.930 . S
C3155 H3143 0.930 . S
C3155 C3156 1.399 . S
C3155 C3160 1.399 . S
C3156 C3155 1.399 . S
C3156 C3157 1.376 1_554 S
C3157 H3144 0.930 . S
C3157 C3156 1.376 1_556 S
C3157 C3158 1.388 . S
C3158 H3145 0.930 . S
C3158 C3157 1.388 . S
C3158 C3159 1.390 1_556 S
C3159 C3158 1.390 1_554 S
C3159 C3160 1.394 . S
C3159 C3165 1.465 . S
C3160 C3155 1.399 . S
C3160 C3159 1.394 . S
C3160 C3161 1.516 . S
C3161 C3160 1.516 . S
C3161 C3162 1.502 . S
C3161 C3163 1.561 . S
C3161 C3164 1.526 . S
C3162 H3146 0.959 . S
C3162 H3147 0.959 . S
C3162 H3148 0.961 . S
C3162 C3161 1.502 . S
C3163 H3149 0.960 . S
C3163 H3150 0.961 . S
C3163 H3151 0.959 . S
C3163 C3161 1.561 . S
C3164 C3161 1.526 . S
C3164 C3165 1.396 . S
C3164 C3169 1.390 . S
C3165 C3159 1.465 . S
C3165 C3164 1.396 . S
C3165 C3166 1.399 1_554 S
C3166 H3152 0.929 . S
C3166 C3165 1.399 1_556 S
C3166 C3167 1.385 . S
C3167 H3153 0.931 . S
C3167 C3166 1.385 . S
C3167 C3168 1.389 1_556 S
C3168 C3167 1.389 1_554 S
C3168 C3169 1.387 . S
C3169 H3154 0.930 . S
C3169 C3164 1.390 . S
C3169 C3168 1.387 . S
H3170 C3182 0.930 . S
H3171 C3184 0.930 . S
H3172 C3185 0.930 . S
H3173 C3189 0.959 . S
H3174 C3189 0.959 . S
H3175 C3189 0.961 . S
H3176 C3190 0.960 . S
H3177 C3190 0.961 . S
H3178 C3190 0.959 . S
H3179 C3193 0.929 . S
H3180 C3194 0.931 . S
H3181 C3196 0.930 . S
C3182 H3170 0.930 . S
C3182 C3183 1.399 . S
C3182 C3187 1.399 . S
C3183 C3182 1.399 . S
C3183 C3184 1.376 . S
C3184 H3171 0.930 . S
C3184 C3183 1.376 . S
C3184 C3185 1.388 . S
C3185 H3172 0.930 . S
C3185 C3184 1.388 . S
C3185 C3186 1.390 . S
C3186 C3185 1.390 . S
C3186 C3187 1.394 . S
C3186 C3192 1.465 . S
C3187 C3182 1.399 . S
C3187 C3186 1.394 . S
C3187 C3188 1.516 . S
C3188 C3187 1.516 . S
C3188 C3189 1.502 . S
C3188 C3190 1.561 . S
C3188 C3191 1.526 . S
C3189 H3173 0.959 . S
C3189 H3174 0.959 . S
C3189 H3175 0.961 . S
C3189 C3188 1.502 . S
C3190 H3176 0.960 . S
C3190 H3177 0.961 . S
C3190 H3178 0.959 . S
C3190 C3188 1.561 . S
C3191 C3188 1.526 . S
C3191 C3192 1.396 . S
C3191 C3196 1.390 . S
C3192 C3186 1.465 . S
C3192 C3191 1.396 . S
C3192 C3193 1.399 . S
C3193 H3179 0.929 . S
C3193 C3192 1.399 . S
C3193 C3194 1.385 . S
C3194 H3180 0.931 . S
C3194 C3193 1.385 . S
C3194 C3195 1.389 . S
C3195 C3194 1.389 . S
C3195 C3196 1.387 . S
C3196 H3181 0.930 . S
C3196 C3191 1.390 . S
C3196 C3195 1.387 . S
H3197 C3209 0.930 . S
H3198 C3211 0.930 . S
H3199 C3212 0.930 . S
H3200 C3216 0.959 . S
H3201 C3216 0.959 . S
H3202 C3216 0.961 . S
H3203 C3217 0.960 . S
H3204 C3217 0.961 . S
H3205 C3217 0.959 . S
H3206 C3220 0.929 . S
H3207 C3221 0.931 . S
H3208 C3223 0.930 . S
C3209 H3197 0.930 . S
C3209 C3210 1.399 . S
C3209 C3214 1.399 . S
C3210 C3209 1.399 . S
C3210 C3211 1.376 . S
C3211 H3198 0.930 . S
C3211 C3210 1.376 . S
C3211 C3212 1.388 . S
C3212 H3199 0.930 . S
C3212 C3211 1.388 . S
C3212 C3213 1.390 . S
C3213 C3212 1.390 . S
C3213 C3214 1.394 . S
C3213 C3219 1.465 . S
C3214 C3209 1.399 . S
C3214 C3213 1.394 . S
C3214 C3215 1.516 . S
C3215 C3214 1.516 . S
C3215 C3216 1.502 . S
C3215 C3217 1.561 . S
C3215 C3218 1.526 . S
C3216 H3200 0.959 . S
C3216 H3201 0.959 . S
C3216 H3202 0.961 . S
C3216 C3215 1.502 . S
C3217 H3203 0.960 . S
C3217 H3204 0.961 . S
C3217 H3205 0.959 . S
C3217 C3215 1.561 . S
C3218 C3215 1.526 . S
C3218 C3219 1.396 . S
C3218 C3223 1.390 . S
C3219 C3213 1.465 . S
C3219 C3218 1.396 . S
C3219 C3220 1.399 . S
C3220 H3206 0.929 . S
C3220 C3219 1.399 . S
C3220 C3221 1.385 . S
C3221 H3207 0.931 . S
C3221 C3220 1.385 . S
C3221 C3222 1.389 . S
C3222 C3221 1.389 . S
C3222 C3223 1.387 . S
C3223 H3208 0.930 . S
C3223 C3218 1.390 . S
C3223 C3222 1.387 . S
C645 C101 1.493 . S
C657 C330 1.461 . S
C672 C57 1.586 . S
C684 C341 1.617 . S
C699 C70 0.939 . S
C711 C370 0.831 . S
C738 C373 1.434 . S
C726 C82 1.421 . S
C753 C23 1.623 . S
C765 C411 1.521 . S
C792 C414 0.976 . S
C780 C29 0.923 . S
C819 C441 1.417 . S
C807 C49 1.381 . S
C834 C10 1.643 . S
C846 C470 1.543 . S
C873 C321 1.528 . S
C861 C218 1.500 . S
C888 C226 0.864 . S
C900 C333 0.932 . S
C927 C361 1.568 . S
C915 C251 1.566 . S
C954 C390 0.946 . S
C942 C159 1.026 . S
C969 C211 1.031 . S
C981 C394 0.979 . S
C1008 C420 1.586 . S
C996 C225 1.619 . S
C1035 C433 0.693 . S
C1023 C252 0.758 . S
C1062 C461 1.559 . S
C1050 C166 1.563 . S
C1089 C313 1.494 . S
C1077 C147 1.517 . S
C1104 C263 1.682 . S
C1116 C480 1.708 1_554 S
C1143 C511 1.568 . S
C1131 C309 1.624 . S
C1170 C530 0.762 . S
C1158 C291 0.873 . S
C1185 C108 1.400 . S
C1197 C453 1.408 . S
C1212 C121 1.477 . S
C1224 C353 1.499 . S
C1239 C302 1.536 . S
C1251 C541 1.529 . S
C1278 C570 0.846 . S
C1266 C276 0.891 . S
C1305 C331 1.646 . S
C1293 C55 1.706 . S
C1332 C560 1.774 . S
C1320 C96 1.775 . S
C1347 C88 1.200 . S
C1359 C371 1.169 . S
C1374 C75 1.604 . S
C1386 C534 1.603 . S
C1413 C410 1.717 . S
C1401 C4 1.782 . S
C1428 C44 1.157 . S
C1440 C493 1.145 . S
C1467 C440 1.633 . S
C1455 C31 1.649 . S
C1494 C591 1.733 . S
C1482 C18 1.810 . S
C1521 C320 1.692 . S
C1509 C133 1.700 . S
C1548 C554 1.032 . S
C1536 C296 1.084 . S
C1563 C107 1.733 . S
C1575 C360 1.711 . S
C1590 C264 1.366 . S
C1602 C551 1.349 . S
C1617 C140 1.197 . S
C1629 C393 1.208 . S
C1656 C501 1.717 . S
C1644 C289 1.760 . S
C1671 C114 0.957 . S
C1683 C434 0.970 . S
C1698 C265 1.770 . S
C1710 C580 1.772 . S
C1725 C179 1.632 . S
C1737 C314 1.630 1_556 S
C1752 C161 1.859 . S
C1764 C481 1.821 . S
C1779 C244 1.764 . S
C1791 C430 1.661 . S
C1806 C224 1.194 . S
C1818 C531 1.163 . S
C1845 C574 1.479 . S
C1833 C257 1.472 . S
C1860 C199 1.603 . S
C1872 C354 1.616 . S
C1899 C380 1.705 . S
C1887 C237 1.742 . S
C1926 C351 1.119 . S
C1914 C185 1.113 . S
C1941 C69 1.525 . S
C1953 C610 1.404 . S
C1980 C561 1.625 . S
C1968 C83 1.614 . S
C1995 C94 0.927 . S
C2007 C630 0.876 . S
C2022 C56 1.426 . S
C2034 C533 1.424 . S
C2049 C42 1.604 . S
C2061 C491 1.583 . S
C2088 C494 0.910 . S
C2076 C3 0.970 . S
C2115 C521 1.433 . S
C2103 C16 1.413 . S
C2142 C590 1.570 . S
C2130 C36 1.632 . S
C2169 C601 1.524 . S
C2157 C238 1.498 . S
C2184 C174 0.941 . S
C2196 C553 0.867 . S
C2223 C621 1.554 . S
C2211 C186 1.545 . S
C2250 C550 0.943 . S
C2238 C198 1.025 . S
C2277 C474 0.995 . S
C2265 C239 0.981 . S
C2292 C173 1.607 . S
C2304 C500 1.604 . S
C2331 C513 0.696 . S
C2319 C187 0.763 . S
C2346 C205 1.562 . S
C2358 C581 1.556 . S
C2385 C593 1.488 . S
C2373 C290 1.521 . S
C2400 C122 1.685 . S
C2412 C400 1.707 . S
C2439 C431 1.518 . S
C2427 C134 1.642 . S
C2466 C450 0.898 . S
C2454 C148 0.822 . S
C2493 C573 1.362 . S
C2481 C283 1.404 . S
C2508 C270 1.479 . S
C2520 C613 1.493 . S
C2547 C381 1.528 . S
C2535 C135 1.529 . S
C2574 C350 0.906 . S
C2562 C109 0.855 . S
C2589 C81 1.707 . S
C2601 C611 1.646 . S
C2628 C340 1.765 . S
C2616 C68 1.775 . S
C2643 C62 1.203 . S
C2655 C631 1.146 . S
C2670 C95 1.606 . S
C2682 C374 1.612 . S
C2697 C30 1.783 . S
C2709 C490 1.755 . S
C2736 C413 1.146 . S
C2724 C17 1.141 . S
C2751 C5 1.650 . S
C2763 C520 1.630 . S
C2778 C43 1.800 . S
C2790 C471 1.733 . S
C2817 C600 1.697 . S
C2805 C304 1.702 . S
C2832 C153 1.084 . S
C2844 C334 1.022 . S
C2871 C620 1.723 1_655 S
C2859 C278 1.732 . S
C2886 C127 1.347 . S
C2898 C391 1.349 . S
C2913 C303 1.208 . S
C2925 C473 1.197 . S
C2952 C421 1.726 . S
C2940 C146 1.757 . S
C2967 C277 0.976 . S
C2979 C514 0.957 . S
C3006 C460 1.756 . S
C2994 C120 1.770 . S
C3033 C594 1.615 . S
C3021 C231 1.643 . S
C3060 C401 1.814 1_565 S
C3048 C200 1.859 . S
C3075 C212 1.740 . S
C3087 C510 1.718 . S
C3114 C451 1.178 . S
C3102 C172 1.176 . S
C3129 C192 1.500 . S
C3141 C454 1.457 . S
C3156 C160 1.603 . S
C3168 C614 1.616 . S
C3195 C540 1.715 . S
C3183 C213 1.746 . S
C3222 C571 1.112 . S
C3210 C250 1.114 . S
