# Generated by pormake.
# Topology pyr, (3,6)-cn, num edge types: 1
# Building blocks:
#     Node 0, Type 0, BuildingBlock: WUSLED_clean_sbu_0, # of connection points: 3
#     Node 1, Type 0, BuildingBlock: WUSLED_clean_sbu_0, # of connection points: 3
#     Node 2, Type 0, BuildingBlock: WUSLED_clean_sbu_0, # of connection points: 3
#     Node 3, Type 0, BuildingBlock: WUSLED_clean_sbu_0, # of connection points: 3
#     Node 4, Type 0, BuildingBlock: WUSLED_clean_sbu_0, # of connection points: 3
#     Node 5, Type 0, BuildingBlock: WUSLED_clean_sbu_0, # of connection points: 3
#     Node 6, Type 0, BuildingBlock: WUSLED_clean_sbu_0, # of connection points: 3
#     Node 7, Type 0, BuildingBlock: WUSLED_clean_sbu_0, # of connection points: 3
#     Node 8, Type 1, BuildingBlock: FUNLAD_clean_sbu_0, # of connection points: 6
#     Node 9, Type 1, BuildingBlock: FUNLAD_clean_sbu_0, # of connection points: 6
#     Node 10, Type 1, BuildingBlock: FUNLAD_clean_sbu_0, # of connection points: 6
#     Node 11, Type 1, BuildingBlock: FUNLAD_clean_sbu_0, # of connection points: 6
#     Edge 12, Type (0, 1), BuildingBlock: MIFKUJ_clean_linker_0, # of connection points: 2
#     Edge 13, Type (0, 1), BuildingBlock: MIFKUJ_clean_linker_0, # of connection points: 2
#     Edge 14, Type (0, 1), BuildingBlock: MIFKUJ_clean_linker_0, # of connection points: 2
#     Edge 15, Type (0, 1), BuildingBlock: MIFKUJ_clean_linker_0, # of connection points: 2
#     Edge 16, Type (0, 1), BuildingBlock: MIFKUJ_clean_linker_0, # of connection points: 2
#     Edge 17, Type (0, 1), BuildingBlock: MIFKUJ_clean_linker_0, # of connection points: 2
#     Edge 18, Type (0, 1), BuildingBlock: MIFKUJ_clean_linker_0, # of connection points: 2
#     Edge 19, Type (0, 1), BuildingBlock: MIFKUJ_clean_linker_0, # of connection points: 2
#     Edge 20, Type (0, 1), BuildingBlock: MIFKUJ_clean_linker_0, # of connection points: 2
#     Edge 21, Type (0, 1), BuildingBlock: MIFKUJ_clean_linker_0, # of connection points: 2
#     Edge 22, Type (0, 1), BuildingBlock: MIFKUJ_clean_linker_0, # of connection points: 2
#     Edge 23, Type (0, 1), BuildingBlock: MIFKUJ_clean_linker_0, # of connection points: 2
#     Edge 24, Type (0, 1), BuildingBlock: MIFKUJ_clean_linker_0, # of connection points: 2
#     Edge 25, Type (0, 1), BuildingBlock: MIFKUJ_clean_linker_0, # of connection points: 2
#     Edge 26, Type (0, 1), BuildingBlock: MIFKUJ_clean_linker_0, # of connection points: 2
#     Edge 27, Type (0, 1), BuildingBlock: MIFKUJ_clean_linker_0, # of connection points: 2
#     Edge 28, Type (0, 1), BuildingBlock: MIFKUJ_clean_linker_0, # of connection points: 2
#     Edge 29, Type (0, 1), BuildingBlock: MIFKUJ_clean_linker_0, # of connection points: 2
#     Edge 30, Type (0, 1), BuildingBlock: MIFKUJ_clean_linker_0, # of connection points: 2
#     Edge 31, Type (0, 1), BuildingBlock: MIFKUJ_clean_linker_0, # of connection points: 2
#     Edge 32, Type (0, 1), BuildingBlock: MIFKUJ_clean_linker_0, # of connection points: 2
#     Edge 33, Type (0, 1), BuildingBlock: MIFKUJ_clean_linker_0, # of connection points: 2
#     Edge 34, Type (0, 1), BuildingBlock: MIFKUJ_clean_linker_0, # of connection points: 2
#     Edge 35, Type (0, 1), BuildingBlock: MIFKUJ_clean_linker_0, # of connection points: 2
# Relax obj value: 0.037
# Max RMSD: 0.055
# Mean RMSD: 0.025
data_MOF--net-pry--node1-WUSLED_clean_sbu_0--node2-FUNLAD_clean_sbu_0--edge1-MIFKUJ_clean_linker_0
_symmetry_space_group_name_H-M    P1
_symmetry_Int_Tables_number       1
_symmetry_cell_setting            triclinic
loop_
_symmetry_equiv_pos_as_xyz
'x, y, z'
_cell_length_a     57.741527
_cell_length_b     60.159391
_cell_length_c     60.585415
_cell_angle_alpha  90.145886
_cell_angle_beta   90.023674
_cell_angle_gamma 86.730047
loop_
_atom_site_label
_atom_site_type_symbol
_atom_site_fract_x
_atom_site_fract_y
_atom_site_fract_z
_atom_type_partial_charge
C0 C 0.12986 0.2361 0.16799 0.0
C1 C 0.12827 0.25733 0.17779 0.0
C2 C 0.11497 0.2746 0.14312 0.0
C3 C 0.12102 0.27627 0.16558 0.0
C4 C 0.11711 0.25336 0.13315 0.0
C5 C 0.12438 0.23436 0.14541 0.0
U6 U 0.16505 0.18166 0.1871 0.0
O7 O 0.17957 0.16807 0.15584 0.0
O8 O 0.2007 0.18846 0.17702 0.0
C9 C 0.19998 0.1762 0.15905 0.0
C10 C 0.13501 0.21612 0.18219 0.0
C11 C 0.22119 0.16195 0.15321 0.0
C12 C 0.23991 0.13095 0.13238 0.0
C13 C 0.2198 0.14221 0.14083 0.0
C14 C 0.26337 0.15857 0.14879 0.0
C15 C 0.26199 0.1392 0.13586 0.0
C16 C 0.24331 0.16978 0.15726 0.0
C17 C 0.14645 0.14748 0.23954 0.0
C18 C 0.11919 0.12308 0.25688 0.0
C19 C 0.14086 0.1475 0.27966 0.0
C20 C 0.15159 0.15564 0.26071 0.0
C21 C 0.12477 0.13079 0.27812 0.0
C22 C 0.12991 0.13123 0.23794 0.0
C23 C 0.16071 0.15316 0.21986 0.0
O24 O 0.15334 0.21639 0.19506 0.0
O25 O 0.13215 0.19636 0.1736 0.0
O26 O 0.15177 0.15053 0.2001 0.0
O27 O 0.17322 0.17072 0.22113 0.0
H28 H 0.13219 0.25926 0.19516 0.0
H29 H 0.12005 0.29227 0.17386 0.0
H30 H 0.11245 0.25125 0.11599 0.0
H31 H 0.12519 0.21828 0.13729 0.0
H32 H 0.23801 0.11625 0.12233 0.0
H33 H 0.2031 0.13583 0.13698 0.0
H34 H 0.28001 0.16531 0.15217 0.0
H35 H 0.24509 0.18508 0.16642 0.0
H36 H 0.10669 0.11049 0.25483 0.0
H37 H 0.14594 0.15373 0.29562 0.0
H38 H 0.16457 0.16778 0.26277 0.0
H39 H 0.12572 0.12423 0.22204 0.0
C40 C 0.30419 0.87528 0.64787 0.0
C41 C 0.28941 0.88799 0.66208 0.0
C42 C 0.26405 0.89933 0.63102 0.0
C43 C 0.26956 0.89989 0.65374 0.0
C44 C 0.27914 0.88666 0.61697 0.0
C45 C 0.29887 0.87488 0.62528 0.0
U46 U 0.35768 0.85767 0.68587 0.0
O47 O 0.36905 0.82349 0.69591 0.0
O48 O 0.39132 0.84246 0.67465 0.0
C49 C 0.38826 0.82329 0.68425 0.0
C50 C 0.32449 0.86119 0.65584 0.0
C51 C 0.39438 0.80284 0.67117 0.0
C52 C 0.39013 0.77857 0.63916 0.0
C53 C 0.38342 0.79802 0.65113 0.0
C54 C 0.41876 0.76857 0.66707 0.0
C55 C 0.40791 0.76348 0.64698 0.0
C56 C 0.41207 0.78792 0.67895 0.0
C57 C 0.37347 0.89616 0.73624 0.0
C58 C 0.39815 0.8895 0.76866 0.0
C59 C 0.38213 0.92667 0.76105 0.0
C60 C 0.37124 0.91875 0.74214 0.0
C61 C 0.39578 0.91224 0.77473 0.0
C62 C 0.38711 0.88155 0.74965 0.0
C63 C 0.36028 0.88864 0.71671 0.0
O64 O 0.34511 0.86892 0.65307 0.0
O65 O 0.32243 0.85071 0.6747 0.0
O66 O 0.3483 0.87084 0.71892 0.0
O67 O 0.37023 0.88982 0.69727 0.0
H68 H 0.29306 0.88858 0.6796 0.0
H69 H 0.25861 0.9096 0.66511 0.0
H70 H 0.27544 0.88532 0.59951 0.0
H71 H 0.30984 0.86504 0.61399 0.0
H72 H 0.38118 0.77523 0.62391 0.0
H73 H 0.36972 0.80927 0.64476 0.0
H74 H 0.43279 0.75778 0.67354 0.0
H75 H 0.42091 0.79131 0.69427 0.0
H76 H 0.40866 0.87782 0.77851 0.0
H77 H 0.37933 0.94413 0.76518 0.0
H78 H 0.36064 0.93036 0.73224 0.0
H79 H 0.3891 0.86401 0.74553 0.0
C80 C 0.59519 0.41563 0.87542 0.0
C81 C 0.60462 0.43453 0.86631 0.0
C82 C 0.58166 0.43028 0.83306 0.0
C83 C 0.59782 0.44187 0.8453 0.0
C84 C 0.57186 0.41169 0.84253 0.0
C85 C 0.57858 0.40443 0.86357 0.0
U86 U 0.63994 0.41287 0.9214 0.0
O87 O 0.63608 0.40678 0.95699 0.0
O88 O 0.6576 0.38347 0.93667 0.0
C89 C 0.64718 0.3871 0.95572 0.0
C90 C 0.6039 0.40639 0.89636 0.0
C91 C 0.63433 0.36826 0.96348 0.0
C92 C 0.60008 0.34677 0.9612 0.0
C93 C 0.61127 0.36622 0.9568 0.0
C94 C 0.63467 0.33135 0.97954 0.0
C95 C 0.61183 0.32889 0.97215 0.0
C96 C 0.64584 0.3509 0.97519 0.0
C97 C 0.69124 0.44951 0.91949 0.0
C98 C 0.72152 0.44611 0.94727 0.0
C99 C 0.72677 0.46858 0.91467 0.0
C100 C 0.70482 0.46347 0.90713 0.0
C101 C 0.73545 0.45976 0.93471 0.0
C102 C 0.69961 0.44096 0.93967 0.0
C103 C 0.6691 0.44284 0.91054 0.0
O104 O 0.62365 0.39456 0.89474 0.0
O105 O 0.60311 0.4201 0.91332 0.0
O106 O 0.65078 0.44731 0.92303 0.0
O107 O 0.66981 0.42269 0.90206 0.0
H108 H 0.61768 0.44321 0.8752 0.0
H109 H 0.60584 0.4561 0.83832 0.0
H110 H 0.55918 0.4026 0.83357 0.0
H111 H 0.57124 0.38975 0.87038 0.0
H112 H 0.58239 0.34552 0.95557 0.0
H113 H 0.60218 0.37937 0.94748 0.0
H114 H 0.6443 0.3178 0.98777 0.0
H115 H 0.66375 0.35209 0.98017 0.0
H116 H 0.72784 0.43886 0.96263 0.0
H117 H 0.73699 0.47934 0.90477 0.0
H118 H 0.69861 0.47013 0.89148 0.0
H119 H 0.68937 0.42995 0.9493 0.0
C120 C 0.82949 0.58351 0.42869 0.0
C121 C 0.82041 0.59683 0.44601 0.0
C122 C 0.78748 0.57352 0.4489 0.0
C123 C 0.79956 0.59188 0.45604 0.0
C124 C 0.79709 0.55981 0.432 0.0
C125 C 0.81793 0.56483 0.42193 0.0
U126 U 0.87644 0.62383 0.41968 0.0
O127 O 0.91269 0.61861 0.40875 0.0
O128 O 0.8879 0.63935 0.38913 0.0
C129 C 0.90886 0.62975 0.39034 0.0
C130 C 0.84989 0.59008 0.41648 0.0
C131 C 0.91694 0.61858 0.37004 0.0
C132 C 0.91482 0.58873 0.34324 0.0
C133 C 0.90831 0.59825 0.36355 0.0
C134 C 0.93886 0.61966 0.33602 0.0
C135 C 0.92996 0.59948 0.32913 0.0
C136 C 0.93239 0.6291 0.35632 0.0
C137 C 0.88154 0.6747 0.4543 0.0
C138 C 0.90235 0.70518 0.43934 0.0
C139 C 0.89379 0.70407 0.47849 0.0
C140 C 0.88279 0.68412 0.47542 0.0
C141 C 0.90342 0.71486 0.46039 0.0
C142 C 0.89166 0.68522 0.43635 0.0
C143 C 0.8701 0.6538 0.45078 0.0
O144 O 0.84643 0.60853 0.4051 0.0
O145 O 0.86955 0.58909 0.42751 0.0
O146 O 0.88349 0.63557 0.45339 0.0
O147 O 0.85722 0.65343 0.4329 0.0
H148 H 0.82916 0.61137 0.45136 0.0
H149 H 0.79273 0.60257 0.4692 0.0
H150 H 0.78807 0.54571 0.42597 0.0
H151 H 0.82466 0.55449 0.40846 0.0
H152 H 0.90786 0.57306 0.33852 0.0
H153 H 0.89625 0.58998 0.37399 0.0
H154 H 0.95023 0.62857 0.32543 0.0
H155 H 0.93902 0.64492 0.36106 0.0
H156 H 0.90996 0.71299 0.42519 0.0
H157 H 0.8944 0.71125 0.49487 0.0
H158 H 0.87523 0.67611 0.48947 0.0
H159 H 0.89122 0.67802 0.41995 0.0
C160 C 0.8749 0.80291 0.87832 0.0
C161 C 0.87475 0.78266 0.86659 0.0
C162 C 0.89734 0.76314 0.89569 0.0
C163 C 0.88592 0.76309 0.8751 0.0
C164 C 0.89802 0.78357 0.90702 0.0
C165 C 0.88694 0.80308 0.8985 0.0
U166 U 0.85426 0.85598 0.84309 0.0
O167 O 0.81807 0.86754 0.83585 0.0
O168 O 0.83981 0.88808 0.85625 0.0
C169 C 0.81917 0.88579 0.84768 0.0
C170 C 0.86006 0.82301 0.87171 0.0
C171 C 0.79886 0.89237 0.86174 0.0
C172 C 0.77303 0.88713 0.89301 0.0
C173 C 0.79238 0.87994 0.88012 0.0
C174 C 0.76647 0.91912 0.86925 0.0
C175 C 0.75986 0.90696 0.88783 0.0
C176 C 0.78567 0.91193 0.85646 0.0
C177 C 0.88828 0.87473 0.79063 0.0
C178 C 0.88063 0.88728 0.75274 0.0
C179 C 0.91521 0.89806 0.77142 0.0
C180 C 0.90879 0.88629 0.79025 0.0
C181 C 0.9014 0.89855 0.75222 0.0
C182 C 0.87419 0.87552 0.77163 0.0
C183 C 0.88346 0.86015 0.80992 0.0
O184 O 0.86854 0.84264 0.87453 0.0
O185 O 0.84737 0.82191 0.85373 0.0
O186 O 0.86522 0.84805 0.80892 0.0
O187 O 0.88676 0.86833 0.82976 0.0
H188 H 0.86539 0.78172 0.85116 0.0
H189 H 0.88479 0.74773 0.86592 0.0
H190 H 0.90691 0.78448 0.92271 0.0
H191 H 0.88718 0.81826 0.90815 0.0
H192 H 0.76865 0.87737 0.90724 0.0
H193 H 0.80231 0.86478 0.88455 0.0
H194 H 0.75664 0.93417 0.86438 0.0
H195 H 0.79024 0.92175 0.84231 0.0
H196 H 0.86931 0.88744 0.73848 0.0
H197 H 0.93147 0.90616 0.77171 0.0
H198 H 0.92029 0.88574 0.8044 0.0
H199 H 0.85836 0.86671 0.77114 0.0
C200 C 0.62962 0.15857 0.29419 0.0
C201 C 0.64362 0.15771 0.27513 0.0
C202 C 0.61651 0.1343 0.25592 0.0
C203 C 0.63719 0.14573 0.25632 0.0
C204 C 0.6028 0.13486 0.27518 0.0
C205 C 0.60922 0.14684 0.29394 0.0
U206 U 0.66323 0.17795 0.34681 0.0
O207 O 0.66996 0.21216 0.35734 0.0
O208 O 0.64857 0.19164 0.37805 0.0
C209 C 0.65718 0.2112 0.37525 0.0
C210 C 0.63439 0.17342 0.31337 0.0
C211 C 0.64247 0.23138 0.38189 0.0
C212 C 0.6294 0.27054 0.37716 0.0
C213 C 0.64045 0.25076 0.36886 0.0
C214 C 0.62179 0.25192 0.41146 0.0
C215 C 0.62032 0.27155 0.39879 0.0
C216 C 0.6327 0.23221 0.40315 0.0
C217 C 0.71807 0.1416 0.36704 0.0
C218 C 0.75363 0.14947 0.38685 0.0
C219 C 0.74213 0.11157 0.38394 0.0
C220 C 0.72238 0.11896 0.372 0.0
C221 C 0.75828 0.12663 0.3913 0.0
C222 C 0.7338 0.15687 0.37478 0.0
C223 C 0.69812 0.14815 0.35238 0.0
O224 O 0.6308 0.1656 0.33325 0.0
O225 O 0.65276 0.18537 0.31242 0.0
O226 O 0.69948 0.16617 0.34031 0.0
O227 O 0.67721 0.14583 0.36029 0.0
H228 H 0.65936 0.16665 0.27453 0.0
H229 H 0.64843 0.14553 0.24201 0.0
H230 H 0.58661 0.12664 0.27557 0.0
H231 H 0.59778 0.14745 0.30812 0.0
H232 H 0.62879 0.28529 0.36692 0.0
H233 H 0.648 0.25088 0.35251 0.0
H234 H 0.61471 0.25182 0.42801 0.0
H235 H 0.63415 0.2177 0.41373 0.0
H236 H 0.76568 0.16158 0.3921 0.0
H237 H 0.74476 0.09394 0.38734 0.0
H238 H 0.71061 0.1068 0.36622 0.0
H239 H 0.73104 0.17444 0.37116 0.0
C240 C 0.32542 0.58882 0.11274 0.0
C241 C 0.31699 0.59831 0.09298 0.0
C242 C 0.2823 0.57734 0.09576 0.0
C243 C 0.29561 0.59258 0.08452 0.0
C244 C 0.29111 0.56755 0.11534 0.0
C245 C 0.31251 0.57327 0.12375 0.0
U246 U 0.37486 0.62742 0.11276 0.0
O247 O 0.38959 0.64628 0.13993 0.0
O248 O 0.4117 0.62176 0.12159 0.0
C249 C 0.40989 0.63535 0.13861 0.0
C250 C 0.34688 0.59612 0.12262 0.0
C251 C 0.41867 0.62634 0.15964 0.0
C252 C 0.41695 0.59977 0.18957 0.0
C253 C 0.40979 0.60714 0.16867 0.0
C254 C 0.44209 0.63059 0.19243 0.0
C255 C 0.43293 0.61161 0.20179 0.0
C256 C 0.43499 0.63788 0.1715 0.0
C257 C 0.37911 0.67217 0.07037 0.0
C258 C 0.41166 0.69584 0.07311 0.0
C259 C 0.37764 0.70796 0.05192 0.0
C260 C 0.36742 0.68806 0.05695 0.0
C261 C 0.39971 0.7122 0.06028 0.0
C262 C 0.4014 0.67604 0.07819 0.0
C263 C 0.36717 0.65282 0.07822 0.0
O264 O 0.36576 0.59244 0.11071 0.0
O265 O 0.34505 0.61618 0.13129 0.0
O266 O 0.35635 0.65614 0.0971 0.0
O267 O 0.37927 0.63364 0.07727 0.0
H268 H 0.32671 0.61051 0.08438 0.0
H269 H 0.28919 0.6006 0.06956 0.0
H270 H 0.28139 0.55556 0.12421 0.0
H271 H 0.31879 0.56585 0.13906 0.0
H272 H 0.40941 0.58524 0.19646 0.0
H273 H 0.39697 0.59817 0.15975 0.0
H274 H 0.45461 0.63989 0.20136 0.0
H275 H 0.44192 0.65279 0.16475 0.0
H276 H 0.42851 0.69874 0.08007 0.0
H277 H 0.36811 0.7202 0.04186 0.0
H278 H 0.35011 0.6854 0.05095 0.0
H279 H 0.41054 0.66408 0.08889 0.0
C280 C 0.09972 0.37218 0.61308 0.0
C281 C 0.11356 0.35855 0.59895 0.0
C282 C 0.08479 0.33055 0.59968 0.0
C283 C 0.10617 0.33785 0.59234 0.0
C284 C 0.07068 0.34462 0.61329 0.0
C285 C 0.07814 0.36527 0.61998 0.0
U286 U 0.14359 0.41691 0.61274 0.0
O287 O 0.13871 0.45298 0.61894 0.0
O288 O 0.16149 0.43212 0.64039 0.0
C289 C 0.15061 0.45166 0.63746 0.0
C290 C 0.10819 0.39302 0.62163 0.0
C291 C 0.13837 0.46027 0.65715 0.0
C292 C 0.10955 0.45534 0.68556 0.0
C293 C 0.11941 0.44925 0.66526 0.0
C294 C 0.13685 0.48425 0.6894 0.0
C295 C 0.11843 0.47263 0.6981 0.0
C296 C 0.1468 0.47804 0.66909 0.0
C297 C 0.19473 0.41324 0.57342 0.0
C298 C 0.22023 0.44355 0.56818 0.0
C299 C 0.23438 0.40549 0.56114 0.0
C300 C 0.21267 0.39805 0.56674 0.0
C301 C 0.23842 0.42829 0.56199 0.0
C302 C 0.19859 0.43608 0.57401 0.0
C303 C 0.1728 0.40484 0.58128 0.0
O304 O 0.1281 0.39084 0.63212 0.0
O305 O 0.10688 0.40997 0.60794 0.0
O306 O 0.15396 0.41772 0.57782 0.0
O307 O 0.17383 0.39628 0.6012 0.0
H308 H 0.13026 0.36373 0.59342 0.0
H309 H 0.11726 0.32747 0.58163 0.0
H310 H 0.05423 0.33934 0.61937 0.0
H311 H 0.06731 0.37562 0.63095 0.0
H312 H 0.09566 0.44578 0.69185 0.0
H313 H 0.11283 0.43533 0.65629 0.0
H314 H 0.1439 0.49784 0.6985 0.0
H315 H 0.16149 0.48667 0.66304 0.0
H316 H 0.22296 0.46119 0.5692 0.0
H317 H 0.24806 0.3934 0.55625 0.0
H318 H 0.21004 0.38036 0.56632 0.0
H319 H 0.18507 0.44808 0.57944 0.0
C320 C 0.03237 0.03326 0.47774 0.0
N321 N 0.01867 0.06374 0.53941 0.0
C322 C 0.03984 0.0721 0.53659 0.0
C323 C 0.04412 0.09327 0.54441 0.0
C324 C 0.02646 0.10601 0.55529 0.0
C325 C 1.00491 0.09675 0.55847 0.0
C326 C 1.00137 0.07544 0.55035 0.0
Zn327 Zn 0.01299 0.03398 0.52491 0.0
C328 C 0.9683 0.03604 0.49918 0.0
N329 N 1.00252 0.97247 0.49282 0.0
C330 C 0.02038 0.95904 0.48484 0.0
C331 C 0.9805 0.96556 0.49345 0.0
C332 C 0.97582 0.94426 0.48634 0.0
C333 C 0.99403 0.92975 0.4789 0.0
C334 C 0.01653 0.93736 0.47794 0.0
Zn335 Zn 0.00836 1.00233 0.50718 0.0
O336 O 0.02925 0.04523 0.49499 0.0
C337 C 0.0531 1.00039 0.53292 0.0
O338 O 0.02575 0.01341 0.478 0.0
H339 H 0.96662 0.97627 0.50027 0.0
H340 H 0.05329 0.06258 0.5277 0.0
H341 H 0.03776 0.96485 0.48451 0.0
O342 O 0.04591 0.02032 0.53725 0.0
O343 O 0.04079 0.98872 0.52047 0.0
H344 H 0.98466 0.06844 0.55237 0.0
O345 O 0.99094 0.99147 0.53658 0.0
O346 O 0.99666 0.02234 0.55446 0.0
O347 O 0.97612 0.01652 0.49399 0.0
O348 O 0.97996 0.04734 0.51256 0.0
C349 C 0.98886 1.00296 0.55423 0.0
H350 H 0.06087 0.09986 0.54124 0.0
H351 H 0.99089 0.10593 0.56696 0.0
H352 H 0.9583 0.93881 0.48764 0.0
H353 H 0.03097 0.92656 0.47227 0.0
C354 C 0.55357 0.99823 1.00049 0.0
N355 N 0.52312 0.06344 0.99525 0.0
C356 C 0.54512 0.06943 0.99914 0.0
C357 C 0.55124 0.09104 0.9949 0.0
C358 C 0.53458 0.10675 0.98667 0.0
C359 C 0.51235 0.09986 0.98157 0.0
C360 C 0.50692 0.07795 0.9861 0.0
Zn361 Zn 0.5147 0.03352 1.00782 0.0
C362 C 0.49068 1.00453 0.97639 0.0
N363 N 0.4995 0.97204 0.03726 0.0
C364 C 0.51539 0.95825 0.0478 0.0
C365 C 0.4776 0.96581 0.03335 0.0
C366 C 0.47107 0.94483 0.03955 0.0
C367 C 0.48721 0.92996 0.04992 0.0
C368 C 0.50957 0.93697 0.05429 0.0
Zn369 Zn 0.50793 1.00174 0.02438 0.0
O370 O 0.54706 0.01828 0.996 0.0
C371 C 0.53202 0.03065 0.05577 0.0
O372 O 0.54062 0.98696 0.01265 0.0
H373 H 0.46532 0.97689 0.0247 0.0
H374 H 0.5577 0.05776 1.00658 0.0
H375 H 0.53273 0.96355 0.05067 0.0
O376 O 0.53082 0.0426 0.03846 0.0
O377 O 0.52372 1.01148 0.05512 0.0
H378 H 0.48949 0.07285 0.9833 0.0
O379 O 0.47533 0.01683 0.03584 0.0
O380 O 0.48223 0.04839 0.01994 0.0
O381 O 0.49235 0.9924 0.99358 0.0
O382 O 0.49838 0.02397 0.97721 0.0
C383 C 0.46905 0.03701 0.03172 0.0
H384 H 0.56868 0.09559 0.9987 0.0
H385 H 0.499 0.11154 0.97527 0.0
H386 H 0.45381 0.94001 0.03542 0.0
H387 H 0.52248 0.92604 0.06236 0.0
C388 C 0.52593 0.47835 0.49842 0.0
N389 N 0.52462 0.50263 0.56391 0.0
C390 C 0.51835 0.48258 0.57149 0.0
C391 C 0.52344 0.47613 0.59317 0.0
C392 C 0.5352 0.49042 0.60712 0.0
C393 C 0.54192 0.51078 0.59862 0.0
C394 C 0.53633 0.51662 0.57694 0.0
Zn395 Zn 0.51528 0.51304 0.53305 0.0
C396 C 0.5536 0.53471 0.51034 0.0
N397 N 0.49525 0.53638 0.46927 0.0
C398 C 0.48317 0.52262 0.45632 0.0
C399 C 0.50185 0.5563 0.46165 0.0
C400 C 0.49667 0.56287 0.44003 0.0
C401 C 0.4845 0.54883 0.42616 0.0
C402 C 0.47752 0.52857 0.43467 0.0
Zn403 Zn 0.50463 0.52592 0.50012 0.0
O404 O 0.52796 0.48167 0.51909 0.0
C405 C 0.46642 0.50394 0.52275 0.0
O406 O 0.51642 0.49383 0.48662 0.0
H407 H 0.5115 0.56694 0.47223 0.0
H408 H 0.50901 0.47174 0.56085 0.0
H409 H 0.47813 0.50683 0.4627 0.0
O410 O 0.48203 0.50058 0.53732 0.0
O411 O 0.47107 0.51446 0.5053 0.0
H412 H 0.54111 0.5325 0.5706 0.0
O413 O 0.49303 0.55781 0.51404 0.0
O414 O 0.50248 0.5446 0.54668 0.0
O415 O 0.53832 0.53723 0.49533 0.0
O416 O 0.54845 0.52539 0.52832 0.0
C417 C 0.49405 0.56058 0.53487 0.0
H418 H 0.5177 0.46039 0.59907 0.0
H419 H 0.55137 0.52215 0.60861 0.0
H420 H 0.50264 0.57851 0.4341 0.0
H421 H 0.46778 0.5174 0.42473 0.0
C422 C 0.99439 0.55831 0.99583 0.0
N423 N 0.99107 0.53148 0.06001 0.0
C424 C 0.9964 0.55151 0.06849 0.0
C425 C 0.99016 0.55729 0.09008 0.0
C426 C 0.97823 0.54234 0.10301 0.0
C427 C 0.97231 0.52208 0.09361 0.0
C428 C 0.97901 0.51693 0.07199 0.0
Zn429 Zn 1.00312 0.52235 0.02956 0.0
C430 C 0.96751 0.50095 1.00275 0.0
N431 N 0.02919 0.5026 0.9664 0.0
C432 C 0.04218 0.51736 0.95571 0.0
C433 C 0.02373 0.48315 0.95668 0.0
C434 C 0.03114 0.47814 0.93518 0.0
C435 C 0.04449 0.49319 0.9238 0.0
C436 C 0.05014 0.51291 0.93438 0.0
Zn437 Zn 0.01686 0.51132 0.99692 0.0
O438 O 0.99133 0.55432 0.01623 0.0
C439 C 0.05247 0.53276 0.0239 0.0
O440 O 1.00484 0.54336 0.984 0.0
H441 H 0.01336 0.47167 0.9655 0.0
H442 H 1.00595 0.56284 0.05864 0.0
H443 H 0.04605 0.53286 0.9636 0.0
O444 O 0.03574 0.53457 0.0375 0.0
O445 O 0.04935 0.52378 1.00522 0.0
H446 H 0.97506 0.50104 0.06494 0.0
O447 O 0.0287 0.47928 1.01029 0.0
O448 O 0.01496 0.49034 0.04244 0.0
O449 O 0.98418 0.49902 0.98905 0.0
O450 O 0.97073 0.50998 0.02139 0.0
C451 C 0.02543 0.47534 0.03069 0.0
H452 H 0.99478 0.5732 0.09665 0.0
H453 H 0.9633 0.51003 0.10311 0.0
H454 H 0.02653 0.4627 0.92756 0.0
H455 H 0.0601 0.52509 0.92601 0.0
H456 H 0.11129 0.15177 0.3171 0.0
H457 H 0.09598 0.13526 0.35053 0.0
H458 H 0.09971 0.07073 0.31925 0.0
H459 H 0.11513 0.08706 0.28582 0.0
H460 H 0.06018 0.07616 0.34149 0.0
H461 H 0.14018 0.08628 0.3587 0.0
H462 H 0.1753 0.10744 0.36274 0.0
H463 H 0.14027 0.15072 0.41002 0.0
H464 H 0.10483 0.12999 0.40603 0.0
H465 H 0.04397 1.01205 0.43853 0.0
H466 H 0.05978 0.02813 0.40505 0.0
H467 H 0.05949 0.09231 0.43695 0.0
H468 H 0.04434 0.0762 0.47062 0.0
H469 H 0.09735 0.08696 0.41424 0.0
H470 H 0.01741 0.07762 0.39714 0.0
H471 H 0.98186 0.0571 0.39318 0.0
H472 H 0.01599 0.01327 0.34583 0.0
H473 H 0.05186 0.03336 0.34973 0.0
C474 C 0.10905 0.13402 0.31731 0.0
C475 C 0.11461 0.12085 0.29855 0.0
C476 C 0.10023 0.12456 0.33654 0.0
C477 C 0.09688 0.10159 0.33773 0.0
C478 C 0.10203 0.08847 0.31892 0.0
C479 C 0.11081 0.09792 0.29967 0.0
C480 C 0.08807 0.09122 0.35848 0.0
C481 C 0.06854 0.07831 0.35733 0.0
C482 C 0.09847 0.09431 0.37941 0.0
C483 C 0.11979 0.10672 0.38191 0.0
C484 C 0.13992 0.10041 0.36984 0.0
C485 C 0.15989 0.11231 0.37214 0.0
C486 C 0.15999 0.13044 0.38658 0.0
C487 C 0.14015 0.13668 0.39881 0.0
C488 C 0.12013 0.12486 0.39655 0.0
C489 C 0.04733 0.02958 0.43848 0.0
C490 C 0.04275 0.04277 0.45739 0.0
C491 C 0.05626 0.03884 0.41918 0.0
C492 C 0.06056 0.06165 0.4181 0.0
C493 C 0.05637 0.07472 0.43713 0.0
C494 C 0.04761 0.06545 0.45646 0.0
C495 C 0.06941 0.07191 0.39729 0.0
C496 C 0.08897 0.0848 0.39841 0.0
C497 C 0.05895 0.06889 0.37635 0.0
C498 C 0.03738 0.05686 0.37389 0.0
C499 C 0.01738 0.06351 0.386 0.0
C500 C 0.99717 0.05197 0.38375 0.0
C501 C 0.99669 0.03385 0.36931 0.0
C502 C 0.0164 0.02728 0.35704 0.0
C503 C 0.03667 0.03875 0.35925 0.0
H504 H 0.98102 0.02494 0.36759 0.0
H505 H 0.17547 0.13963 0.38834 0.0
H506 H 0.41433 0.95307 0.78128 0.0
H507 H 0.43015 0.96825 0.81502 0.0
H508 H 0.4198 0.90657 0.84872 0.0
H509 H 0.40273 0.89162 0.81522 0.0
H510 H 0.40738 0.93902 0.87514 0.0
H511 H 0.47525 0.92339 0.8316 0.0
H512 H 0.50046 0.92436 0.79882 0.0
H513 H 0.50038 0.9956 0.80352 0.0
H514 H 0.4749 0.99508 0.83617 0.0
H515 H 0.47555 0.96275 0.96926 0.0
H516 H 0.46033 0.94714 0.9354 0.0
H517 H 0.4674 1.00973 0.90228 0.0
H518 H 0.48327 0.02538 0.93617 0.0
H519 H 0.48166 0.97654 0.87576 0.0
H520 H 0.41322 0.99107 0.92023 0.0
H521 H 0.38928 0.98861 0.95375 0.0
H522 H 0.3919 0.91737 0.94785 0.0
H523 H 0.41612 0.91938 0.91446 0.0
C524 C 0.41517 0.94267 0.79585 0.0
C525 C 0.40702 0.921 0.79527 0.0
C526 C 0.4246 0.95135 0.81521 0.0
C527 C 0.42659 0.93858 0.83461 0.0
C528 C 0.41861 0.91688 0.83409 0.0
C529 C 0.40903 0.90821 0.81473 0.0
C530 C 0.43643 0.94802 0.85546 0.0
C531 C 0.4238 0.94692 0.87525 0.0
C532 C 0.45767 0.95882 0.85585 0.0
C533 C 0.47297 0.95921 0.83621 0.0
C534 C 0.48045 0.93928 0.82554 0.0
C535 C 0.49482 0.93975 0.807 0.0
C536 C 0.50196 0.96004 0.79905 0.0
C537 C 0.4948 0.9799 0.80967 0.0
C538 C 0.48041 0.97953 0.82821 0.0
C539 C 0.47381 0.97332 0.95485 0.0
C540 C 0.48059 0.99546 0.95564 0.0
C541 C 0.46494 0.96433 0.9354 0.0
C542 C 0.46224 0.97725 0.91615 0.0
C543 C 0.46915 0.99933 0.91682 0.0
C544 C 0.47817 1.00834 0.93629 0.0
C545 C 0.45255 0.96761 0.89535 0.0
C546 C 0.46522 0.96866 0.87559 0.0
C547 C 0.43146 0.95657 0.89504 0.0
C548 C 0.41664 0.95537 0.91495 0.0
C549 C 0.4088 0.97487 0.92616 0.0
C550 C 0.39518 0.97356 0.94513 0.0
C551 C 0.38913 0.95285 0.95297 0.0
C552 C 0.39663 0.9334 0.9418 0.0
C553 C 0.41028 0.93462 0.92283 0.0
H554 H 0.3786 0.95186 0.96767 0.0
H555 H 0.51309 0.96036 0.7847 0.0
H556 H 0.57194 0.47226 0.81695 0.0
H557 H 0.56381 0.48291 0.77858 0.0
H558 H 0.57043 0.41384 0.75902 0.0
H559 H 0.57891 0.40312 0.79721 0.0
H560 H 0.59463 0.44103 0.73188 0.0
H561 H 0.51793 0.4393 0.76314 0.0
H562 H 0.48708 0.44949 0.79005 0.0
H563 H 0.49017 0.51836 0.77247 0.0
H564 H 0.52128 0.5086 0.74565 0.0
H565 H 0.54836 0.44937 0.62404 0.0
H566 H 0.55573 0.43965 0.66261 0.0
H567 H 0.5413 0.50823 0.68157 0.0
H568 H 0.53269 0.51786 0.64324 0.0
H569 H 0.52146 0.48204 0.70938 0.0
H570 H 0.59739 0.4849 0.67837 0.0
H571 H 0.62899 0.47593 0.65189 0.0
H572 H 0.62864 0.40683 0.6694 0.0
H573 H 0.5968 0.41535 0.69579 0.0
C574 C 0.57168 0.45937 0.80444 0.0
C575 C 0.57594 0.43686 0.81006 0.0
C576 C 0.56691 0.46546 0.78259 0.0
C577 C 0.56638 0.44913 0.76604 0.0
C578 C 0.57072 0.42667 0.77159 0.0
C579 C 0.57536 0.42057 0.79342 0.0
C580 C 0.5616 0.45542 0.74283 0.0
C581 C 0.57852 0.44975 0.72687 0.0
C582 C 0.54087 0.46737 0.73651 0.0
C583 C 0.52209 0.47324 0.75255 0.0
C584 C 0.51216 0.45663 0.76514 0.0
C585 C 0.4946 0.46233 0.78035 0.0
C586 C 0.48671 0.48456 0.78301 0.0
C587 C 0.49632 0.50115 0.77042 0.0
C588 C 0.5139 0.49554 0.75519 0.0
C589 C 0.54651 0.46235 0.63643 0.0
C590 C 0.54004 0.48442 0.6305 0.0
C591 C 0.551 0.45681 0.65845 0.0
C592 C 0.54942 0.47328 0.67493 0.0
C593 C 0.54275 0.49527 0.66911 0.0
C594 C 0.53808 0.50079 0.64714 0.0
C595 C 0.55446 0.46756 0.6983 0.0
C596 C 0.53761 0.47335 0.71433 0.0
C597 C 0.57537 0.45592 0.70472 0.0
C598 C 0.59455 0.45074 0.6889 0.0
C599 C 0.60393 0.46777 0.67645 0.0
C600 C 0.6219 0.46277 0.66148 0.0
C601 C 0.63077 0.44082 0.65892 0.0
C602 C 0.62173 0.42382 0.67138 0.0
C603 C 0.60373 0.42873 0.68636 0.0
H604 H 0.64469 0.43698 0.64733 0.0
H605 H 0.47312 0.48894 0.7948 0.0
H606 H 0.90073 0.58071 0.29978 0.0
H607 H 0.90932 0.56867 0.26196 0.0
H608 H 0.98019 0.58634 0.26994 0.0
H609 H 0.97189 0.59804 0.30793 0.0
H610 H 0.95978 0.60426 0.23265 0.0
H611 H 0.96808 0.53277 0.26791 0.0
H612 H 0.95582 0.50205 0.29125 0.0
H613 H 0.89745 0.49355 0.24875 0.0
H614 H 0.90918 0.52445 0.22531 0.0
H615 H 1.00678 0.55933 0.1338 0.0
H616 H 0.99826 0.56748 0.17254 0.0
H617 H 0.92918 0.54498 0.16401 0.0
H618 H 0.93772 0.53655 0.12517 0.0
H619 H 0.94789 0.52936 0.2016 0.0
H620 H 0.93868 0.6005 0.16657 0.0
H621 H 0.94992 0.63155 0.14313 0.0
H622 H 0.00842 0.64136 0.18509 0.0
H623 H 0.99772 0.61015 0.20862 0.0
C624 C 0.91828 0.58159 0.29367 0.0
C625 C 0.93562 0.5904 0.30685 0.0
C626 C 0.92312 0.57477 0.27203 0.0
C627 C 0.94539 0.57659 0.2632 0.0
C628 C 0.96287 0.5849 0.27644 0.0
C629 C 0.95807 0.59164 0.2981 0.0
C630 C 0.95015 0.57097 0.2398 0.0
C631 C 0.95752 0.58779 0.22591 0.0
C632 C 0.94644 0.5497 0.23094 0.0
C633 C 0.93938 0.53108 0.24498 0.0
C634 C 0.95252 0.52449 0.26364 0.0
C635 C 0.94569 0.50701 0.27687 0.0
C636 C 0.92584 0.4959 0.27152 0.0
C637 C 0.9128 0.5022 0.25289 0.0
C638 C 0.91955 0.51967 0.23962 0.0
C639 C 0.9897 0.55633 0.14012 0.0
C640 C 0.97284 0.5475 0.12643 0.0
C641 C 0.98487 0.56095 0.16226 0.0
C642 C 0.96297 0.55713 0.17108 0.0
C643 C 0.94618 0.54806 0.15752 0.0
C644 C 0.95107 0.54327 0.13537 0.0
C645 C 0.95771 0.56262 0.19446 0.0
C646 C 0.95017 0.54582 0.20833 0.0
C647 C 0.96109 0.58399 0.20331 0.0
C648 C 0.96752 0.60285 0.18924 0.0
C649 C 0.95404 0.60917 0.17071 0.0
C650 C 0.9603 0.62681 0.15742 0.0
C651 C 0.9799 0.63838 0.16258 0.0
C652 C 0.99326 0.63237 0.18109 0.0
C653 C 0.98709 0.61471 0.19443 0.0
H654 H 0.98471 0.65204 0.15227 0.0
H655 H 0.92058 0.48237 0.28178 0.0
H656 H 0.29895 0.1592 0.11725 0.0
H657 H 0.33342 0.14164 0.09971 0.0
H658 H 0.30797 0.07687 0.11216 0.0
H659 H 0.27362 0.09434 0.13032 0.0
H660 H 0.35393 0.07711 0.12111 0.0
H661 H 0.30476 0.10053 0.06042 0.0
H662 H 0.28058 0.12735 0.03843 0.0
H663 H 0.33904 0.16733 0.02905 0.0
H664 H 0.36351 0.14089 0.05124 0.0
H665 H 0.43376 0.01604 0.05185 0.0
H666 H 0.39852 0.03286 0.06874 0.0
H667 H 0.41954 0.09814 0.05109 0.0
H668 H 0.45445 0.0813 0.03343 0.0
H669 H 0.37542 0.09744 0.04482 0.0
H670 H 0.42455 0.07554 0.10561 0.0
H671 H 0.4494 0.04976 0.12814 0.0
H672 H 0.39215 1.0084 0.13825 0.0
H673 H 0.36703 0.0338 0.11553 0.0
C674 C 0.30071 0.1412 0.11653 0.0
C675 C 0.28332 0.12827 0.12532 0.0
C676 C 0.32041 0.13115 0.10623 0.0
C677 C 0.32331 0.10786 0.10428 0.0
C678 C 0.30619 0.09486 0.11331 0.0
C679 C 0.28641 0.10491 0.12358 0.0
C680 C 0.34417 0.09713 0.09286 0.0
C681 C 0.35843 0.08134 0.10431 0.0
C682 C 0.35056 0.10299 0.07113 0.0
C683 C 0.33591 0.11883 0.05766 0.0
C684 C 0.31242 0.11512 0.0538 0.0
C685 C 0.29867 0.13024 0.04128 0.0
C686 C 0.30825 0.14906 0.03239 0.0
C687 C 0.33163 0.15276 0.03596 0.0
C688 C 0.34545 0.1377 0.04849 0.0
C689 C 0.43088 0.03399 0.05148 0.0
C690 C 0.44709 0.04728 0.04131 0.0
C691 C 0.41071 0.04364 0.06133 0.0
C692 C 0.40638 0.06692 0.06172 0.0
C693 C 0.42234 0.08018 0.05116 0.0
C694 C 0.44239 0.07051 0.04106 0.0
C695 C 0.3853 0.0774 0.07307 0.0
C696 C 0.37097 0.09317 0.06162 0.0
C697 C 0.37897 0.07167 0.09489 0.0
C698 C 0.39398 0.05646 0.10869 0.0
C699 C 0.41731 0.06088 0.11252 0.0
C700 C 0.43143 0.04634 0.12534 0.0
C701 C 0.42238 0.02743 0.13457 0.0
C702 C 0.39915 0.02305 0.13106 0.0
C703 C 0.38496 0.03751 0.11823 0.0
H704 H 0.43334 0.01619 0.14449 0.0
H705 H 0.29757 0.16075 0.02271 0.0
H706 H 0.22064 0.9056 0.6501 0.0
H707 H 0.18549 0.92374 0.63426 0.0
H708 H 0.22307 0.93777 0.57489 0.0
H709 H 0.25846 0.92071 0.591 0.0
H710 H 0.19543 0.97183 0.58332 0.0
H711 H 0.18547 0.89344 0.57923 0.0
H712 H 0.18358 0.85521 0.59346 0.0
H713 H 0.12733 0.87665 0.63623 0.0
H714 H 0.12909 0.91508 0.62245 0.0
H715 H 0.07479 0.95923 0.52522 0.0
H716 H 0.11058 0.94315 0.54179 0.0
H717 H 0.1169 1.00294 0.58021 0.0
H718 H 0.08147 0.01932 0.56328 0.0
H719 H 0.12285 0.93158 0.5814 0.0
H720 H 0.1733 1.01157 0.59102 0.0
H721 H 0.17647 0.04781 0.57261 0.0
H722 H 0.15403 0.01979 0.5115 0.0
H723 H 0.15102 0.98333 0.52947 0.0
C724 C 0.22159 0.91283 0.63381 0.0
C725 C 0.24258 0.9114 0.62186 0.0
C726 C 0.2013 0.923 0.62461 0.0
C727 C 0.20131 0.93186 0.60311 0.0
C728 C 0.22237 0.93102 0.59142 0.0
C729 C 0.24266 0.92097 0.60063 0.0
C730 C 0.17947 0.94175 0.59262 0.0
C731 C 0.17957 0.96301 0.58302 0.0
C732 C 0.1587 0.93025 0.59168 0.0
C733 C 0.15757 0.90717 0.59997 0.0
C734 C 0.17281 0.89003 0.59178 0.0
C735 C 0.17175 0.86832 0.59975 0.0
C736 C 0.15539 0.86351 0.61579 0.0
C737 C 0.14002 0.8804 0.62384 0.0
C738 C 0.14103 0.90214 0.61595 0.0
C739 C 0.08385 0.96905 0.5371 0.0
C740 C 0.0752 0.99068 0.54275 0.0
C741 C 0.10434 0.95976 0.54668 0.0
C742 C 0.11679 0.97181 0.56219 0.0
C743 C 0.10804 0.99335 0.56802 0.0
C744 C 0.08763 1.0027 0.55834 0.0
C745 C 0.13875 0.96177 0.57231 0.0
C746 C 0.13867 0.94047 0.58184 0.0
C747 C 0.1597 0.97301 0.5727 0.0
C748 C 0.1617 0.9948 0.56167 0.0
C749 C 0.16912 0.01313 0.57364 0.0
C750 C 0.17088 0.03371 0.56328 0.0
C751 C 0.16538 0.03612 0.54092 0.0
C752 C 0.1582 0.01793 0.52884 0.0
C753 C 0.15644 0.99731 0.53911 0.0
H754 H 0.16673 0.05207 0.53294 0.0
H755 H 0.15459 0.8467 0.62193 0.0
H756 H 0.77486 0.45908 0.90976 0.0
H757 H 0.81429 0.46535 0.92203 0.0
H758 H 0.78951 0.47599 0.98859 0.0
H759 H 0.74986 0.47019 0.97634 0.0
H760 H 0.82009 0.50697 0.97595 0.0
H761 H 0.81653 0.42736 0.97501 0.0
H762 H 0.80904 0.39093 0.95855 0.0
H763 H 0.86003 0.40078 0.90848 0.0
H764 H 0.86759 0.43743 0.92446 0.0
H765 H 0.92904 0.50048 0.02892 0.0
H766 H 0.88976 0.49222 0.01788 0.0
H767 H 0.91373 0.47825 0.95157 0.0
H768 H 0.9532 0.48607 0.96257 0.0
H769 H 0.88337 0.44874 0.96448 0.0
H770 H 0.88691 0.52826 0.96481 0.0
H771 H 0.89466 0.56478 0.98096 0.0
H772 H 0.84377 0.55563 0.03126 0.0
H773 H 0.83603 0.51884 0.01571 0.0
C774 C 0.77776 0.463 0.92697 0.0
C775 C 0.75927 0.46413 0.9421 0.0
C776 C 0.80032 0.46638 0.93398 0.0
C777 C 0.80483 0.47088 0.95626 0.0
C778 C 0.78638 0.47244 0.97134 0.0
C779 C 0.76379 0.46898 0.96435 0.0
C780 C 0.82885 0.47389 0.96379 0.0
C781 C 0.83388 0.49413 0.97374 0.0
C782 C 0.8469 0.45732 0.96039 0.0
C783 C 0.84246 0.43523 0.95081 0.0
C784 C 0.82601 0.42183 0.96039 0.0
C785 C 0.82178 0.40113 0.95116 0.0
C786 C 0.83401 0.39357 0.93245 0.0
C787 C 0.85055 0.40667 0.92296 0.0
C788 C 0.85483 0.4274 0.9321 0.0
C789 C 0.92601 0.49547 1.01203 0.0
C790 C 0.9442 0.49409 0.99657 0.0
C791 C 0.90353 0.49085 1.00573 0.0
C792 C 0.89876 0.48502 0.98381 0.0
C793 C 0.91703 0.48281 0.96855 0.0
C794 C 0.93956 0.48731 0.97486 0.0
C795 C 0.87463 0.48182 0.97666 0.0
C796 C 0.86959 0.46156 0.96675 0.0
C797 C 0.85659 0.49844 0.97999 0.0
C798 C 0.86104 0.52068 0.98922 0.0
C799 C 0.87748 0.53395 0.97941 0.0
C800 C 0.88186 0.55471 0.98844 0.0
C801 C 0.86973 0.5625 1.00712 0.0
C802 C 0.85317 0.54956 0.0168 0.0
C803 C 0.84878 0.52875 1.00789 0.0
H804 H 0.87315 0.57857 0.01408 0.0
H805 H 0.8307 0.37754 0.92533 0.0
H806 H 0.75187 0.6041 0.45744 0.0
H807 H 0.71307 0.59728 0.47085 0.0
H808 H 0.73172 0.52689 0.47435 0.0
H809 H 0.77066 0.53362 0.46083 0.0
H810 H 0.69099 0.53382 0.45496 0.0
H811 H 0.72601 0.55863 0.52126 0.0
H812 H 0.7478 0.58359 0.54482 0.0
H813 H 0.69578 0.63641 0.53442 0.0
H814 H 0.67383 0.61185 0.51053 0.0
H815 H 0.59035 0.53128 0.53883 0.0
H816 H 0.63083 0.53808 0.53084 0.0
H817 H 0.61167 0.55929 0.46504 0.0
H818 H 0.57118 0.55235 0.47277 0.0
H819 H 0.65381 0.5742 0.51838 0.0
H820 H 0.6531 0.53821 0.42958 0.0
H821 H 0.63215 0.51082 0.40809 0.0
H822 H 0.61771 0.47548 0.46756 0.0
H823 H 0.63888 0.50245 0.48934 0.0
C824 C 0.74785 0.58721 0.46141 0.0
C825 C 0.76435 0.5694 0.45817 0.0
C826 C 0.72564 0.58333 0.46905 0.0
C827 C 0.71957 0.5616 0.47381 0.0
C828 C 0.73605 0.54379 0.47075 0.0
C829 C 0.75825 0.54765 0.463 0.0
C830 C 0.69572 0.55743 0.48116 0.0
C831 C 0.6829 0.54261 0.46886 0.0
C832 C 0.68527 0.56864 0.49951 0.0
C833 C 0.69837 0.58344 0.51396 0.0
C834 C 0.7193 0.57561 0.52387 0.0
C835 C 0.73167 0.58969 0.5373 0.0
C836 C 0.72321 0.61159 0.54108 0.0
C837 C 0.70232 0.61945 0.53146 0.0
C838 C 0.68989 0.60545 0.518 0.0
C839 C 0.5947 0.5376 0.52272 0.0
C840 C 0.57759 0.54108 0.50636 0.0
C841 C 0.61783 0.54153 0.51822 0.0
C842 C 0.62425 0.54888 0.49727 0.0
C843 C 0.60708 0.5533 0.48122 0.0
C844 C 0.58395 0.54939 0.4857 0.0
C845 C 0.64903 0.55101 0.49186 0.0
C846 C 0.66197 0.56541 0.50451 0.0
C847 C 0.65977 0.53906 0.47411 0.0
C848 C 0.64739 0.52249 0.4611 0.0
C849 C 0.64555 0.52453 0.43805 0.0
C850 C 0.63363 0.50909 0.42582 0.0
C851 C 0.62355 0.49146 0.43646 0.0
C852 C 0.62546 0.48918 0.45934 0.0
C853 C 0.6374 0.50456 0.47164 0.0
H854 H 0.61429 0.47954 0.42697 0.0
H855 H 0.73281 0.62246 0.55148 0.0
H856 H 0.12299 0.28575 0.09961 0.0
H857 H 0.10777 0.31855 0.0793 0.0
H858 H 0.07146 0.34248 0.1376 0.0
H859 H 0.08591 0.30945 0.15775 0.0
H860 H 0.04404 0.34837 0.10313 0.0
H861 H 0.12279 0.36474 0.11901 0.0
H862 H 0.16533 0.35809 0.11914 0.0
H863 H 0.16578 0.35644 0.04828 0.0
H864 H 0.12318 0.36278 0.04774 0.0
H865 H 0.01924 0.46126 0.0732 0.0
H866 H 0.03425 0.42676 0.09051 0.0
H867 H 0.06664 0.40592 0.02919 0.0
H868 H 0.05177 0.44064 1.01174 0.0
H869 H 0.09594 0.39752 0.0633 0.0
H870 H 0.01719 0.38263 0.04752 0.0
H871 H 0.97471 0.38972 0.04757 0.0
H872 H 0.97429 0.3888 0.11843 0.0
H873 H 0.01683 0.38202 0.11882 0.0
C874 C 0.11163 0.29788 0.10812 0.0
C875 C 0.10589 0.29482 0.13049 0.0
C876 C 0.10309 0.31683 0.09649 0.0
C877 C 0.08861 0.33334 0.10688 0.0
C878 C 0.08263 0.33017 0.12911 0.0
C879 C 0.09116 0.31127 0.14073 0.0
C880 C 0.0795 0.35378 0.09471 0.0
C881 C 0.05548 0.35922 0.09466 0.0
C882 C 0.09418 0.36782 0.08306 0.0
C883 C 0.11978 0.36399 0.08334 0.0
C884 C 0.13194 0.36277 0.10346 0.0
C885 C 0.15607 0.35909 0.10361 0.0
C886 C 0.16824 0.35678 0.08373 0.0
C887 C 0.15632 0.35819 0.06366 0.0
C888 C 0.13219 0.36184 0.06342 0.0
C889 C 0.02947 0.44935 0.06329 0.0
C890 C 0.03416 0.45383 0.04097 0.0
C891 C 0.03802 0.42949 0.07324 0.0
C892 C 0.05145 0.41344 0.06118 0.0
C893 C 0.05631 0.41792 0.03892 0.0
C894 C 0.04769 0.43779 0.02891 0.0
C895 C 0.06053 0.39219 0.07193 0.0
C896 C 0.08451 0.38661 0.0717 0.0
C897 C 0.04583 0.37802 0.08336 0.0
C898 C 0.02023 0.38202 0.0832 0.0
C899 C 1.00807 0.38411 0.06312 0.0
C900 C 0.98397 0.38804 0.06307 0.0
C901 C 0.97182 0.38976 0.08299 0.0
C902 C 0.98373 0.38749 0.10301 0.0
C903 C 1.00783 0.38358 0.10316 0.0
H904 H 0.95316 0.39281 0.08292 0.0
H905 H 0.18692 0.35394 0.08388 0.0
H906 H 0.61325 0.3008 1.00777 0.0
H907 H 0.59777 0.26385 1.01012 0.0
H908 H 0.57039 0.27109 0.94412 0.0
H909 H 0.58598 0.30788 0.94153 0.0
H910 H 0.53976 0.25214 0.97191 0.0
H911 H 0.6202 0.2416 0.95211 0.0
H912 H 0.66215 0.24622 0.95612 0.0
H913 H 0.66152 0.21487 0.01969 0.0
H914 H 0.61947 0.21034 0.01619 0.0
H915 H 0.52475 0.13596 0.95273 0.0
H916 H 0.53548 0.17478 0.95011 0.0
H917 H 0.56716 0.16964 0.01456 0.0
H918 H 0.55668 0.13105 0.01717 0.0
H919 H 0.59528 0.18779 0.98623 0.0
H920 H 0.51471 0.19836 1.00616 0.0
H921 H 0.47274 0.19384 1.00217 0.0
H922 H 0.47348 0.22491 0.93847 0.0
H923 H 0.51555 0.22935 0.94195 0.0
C924 C 0.60392 0.29453 0.99377 0.0
C925 C 0.60093 0.30725 0.97444 0.0
C926 C 0.59504 0.27346 0.99516 0.0
C927 C 0.58316 0.26467 0.9772 0.0
C928 C 0.57946 0.27761 0.95818 0.0
C929 C 0.58832 0.29866 0.95677 0.0
C930 C 0.57549 0.24161 0.97786 0.0
C931 C 0.5519 0.23801 0.9748 0.0
C932 C 0.59133 0.22326 0.9819 0.0
C933 C 0.61665 0.22583 0.98398 0.0
C934 C 0.62897 0.23584 0.96702 0.0
C935 C 0.65277 0.23842 0.96918 0.0
C936 C 0.66448 0.2309 0.98817 0.0
C937 C 0.65242 0.22072 1.005 0.0
C938 C 0.62861 0.21813 1.00293 0.0
C939 C 0.53384 0.14323 0.96636 0.0
C940 C 0.54012 0.13044 0.98503 0.0
C941 C 0.53992 0.16537 0.96488 0.0
C942 C 0.55207 0.17511 0.98218 0.0
C943 C 0.55795 0.16243 1.00095 0.0
C944 C 0.55202 0.14036 1.00238 0.0
C945 C 0.55945 0.19825 0.98062 0.0
C946 C 0.58307 0.20187 0.98338 0.0
C947 C 0.54362 0.21657 0.97632 0.0
C948 C 0.51832 0.21397 0.97422 0.0
C949 C 0.50596 0.20406 0.99122 0.0
C950 C 0.48215 0.20155 0.98907 0.0
C951 C 0.47046 0.20902 0.97005 0.0
C952 C 0.48256 0.21909 0.95317 0.0
C953 C 0.50639 0.22163 0.95524 0.0
H954 H 0.45202 0.20706 0.96841 0.0
H955 H 0.68291 0.2329 0.98982 0.0
H956 H 0.89543 0.75247 0.43622 0.0
H957 H 0.91488 0.78733 0.43916 0.0
H958 H 0.9561 0.76036 0.4933 0.0
H959 H 0.93612 0.7255 0.49073 0.0
H960 H 0.9426 0.80175 0.50182 0.0
H961 H 0.979 0.76463 0.44062 0.0
H962 H 0.98142 0.74429 0.40524 0.0
H963 H 0.94751 0.80027 0.3723 0.0
H964 H 0.94456 0.82084 0.40755 0.0
H965 H 0.01665 0.89254 0.49548 0.0
H966 H 1.00544 0.85398 0.49163 0.0
H967 H 0.94991 0.87583 0.44775 0.0
H968 H 0.96089 0.91441 0.45174 0.0
H969 H 0.9757 0.83503 0.43478 0.0
H970 H 0.93657 0.86998 0.49805 0.0
H971 H 0.93562 0.88983 0.53373 0.0
H972 H 0.97752 0.83649 0.56301 0.0
H973 H 0.97903 0.81648 0.52737 0.0
C974 C 0.90866 0.754 0.44873 0.0
C975 C 0.91444 0.73629 0.46314 0.0
C976 C 0.91984 0.77386 0.45034 0.0
C977 C 0.93736 0.77627 0.46609 0.0
C978 C 0.94275 0.75881 0.48092 0.0
C979 C 0.93132 0.73896 0.47949 0.0
C980 C 0.94975 0.79718 0.46713 0.0
C981 C 0.95023 0.80877 0.48724 0.0
C982 C 0.95959 0.80649 0.44807 0.0
C983 C 0.96141 0.79422 0.42678 0.0
C984 C 0.97191 0.77255 0.42586 0.0
C985 C 0.9734 0.76099 0.40582 0.0
C986 C 0.96458 0.77097 0.38654 0.0
C987 C 0.95431 0.79255 0.38725 0.0
C988 C 0.95276 0.80419 0.40725 0.0
C989 C 1.00238 0.88899 0.48464 0.0
C990 C 0.98956 0.90634 0.47392 0.0
C991 C 0.99595 0.86705 0.48256 0.0
C992 C 0.97678 0.86219 0.46954 0.0
C993 C 0.96476 0.87932 0.45786 0.0
C994 C 0.97097 0.90128 0.46019 0.0
C995 C 0.9681 0.83957 0.46929 0.0
C996 C 0.96834 0.82773 0.44936 0.0
C997 C 0.9592 0.82991 0.48854 0.0
C998 C 0.95816 0.84187 0.50999 0.0
C999 C 0.94577 0.86258 0.51204 0.0
C1000 C 0.94509 0.87385 0.53226 0.0
C1001 C 0.95656 0.86446 0.55061 0.0
C1002 C 0.96868 0.84376 0.54878 0.0
C1003 C 0.96945 0.83245 0.52857 0.0
H1004 H 0.95601 0.8732 0.56626 0.0
H1005 H 0.96575 0.76198 0.37105 0.0
H1006 H 0.4211 0.72204 0.66353 0.0
H1007 H 0.43527 0.68876 0.64352 0.0
H1008 H 0.42559 0.72355 0.58182 0.0
H1009 H 0.41159 0.75717 0.6018 0.0
H1010 H 0.4115 0.68133 0.57838 0.0
H1011 H 0.47982 0.71469 0.6045 0.0
H1012 H 0.50525 0.73085 0.63225 0.0
H1013 H 0.50846 0.66937 0.66827 0.0
H1014 H 0.48277 0.65294 0.64089 0.0
H1015 H 0.47718 0.59935 0.51487 0.0
H1016 H 0.46245 0.63401 0.53252 0.0
H1017 H 0.47549 0.60482 0.59658 0.0
H1018 H 0.49075 0.57042 0.57906 0.0
H1019 H 0.48828 0.64539 0.59757 0.0
H1020 H 0.41926 0.61219 0.5726 0.0
H1021 H 0.39338 0.59574 0.54542 0.0
H1022 H 0.39099 0.65627 0.50786 0.0
H1023 H 0.41711 0.67299 0.53468 0.0
C1024 C 0.42213 0.72281 0.64571 0.0
C1025 C 0.41537 0.74261 0.63442 0.0
C1026 C 0.43023 0.70362 0.63423 0.0
C1027 C 0.43194 0.70357 0.61107 0.0
C1028 C 0.42454 0.72305 0.59966 0.0
C1029 C 0.41643 0.74232 0.61116 0.0
C1030 C 0.44171 0.6833 0.59895 0.0
C1031 C 0.42844 0.67368 0.58237 0.0
C1032 C 0.46363 0.67286 0.60433 0.0
C1033 C 0.4792 0.68265 0.62074 0.0
C1034 C 0.48582 0.70467 0.61842 0.0
C1035 C 0.5003 0.71387 0.63407 0.0
C1036 C 0.50842 0.70116 0.65204 0.0
C1037 C 0.50213 0.67921 0.65436 0.0
C1038 C 0.48763 0.66993 0.63877 0.0
C1039 C 0.47694 0.60029 0.53272 0.0
C1040 C 0.48517 0.58194 0.54547 0.0
C1041 C 0.46834 0.62016 0.54285 0.0
C1042 C 0.46744 0.62215 0.56602 0.0
C1043 C 0.47589 0.6039 0.57873 0.0
C1044 C 0.48461 0.58411 0.56863 0.0
C1045 C 0.45799 0.6432 0.57711 0.0
C1046 C 0.47135 0.65302 0.5935 0.0
C1047 C 0.43611 0.65373 0.57161 0.0
C1048 C 0.42033 0.64376 0.55552 0.0
C1049 C 0.41335 0.62194 0.55846 0.0
C1050 C 0.39862 0.61257 0.54313 0.0
C1051 C 0.3906 0.62493 0.52489 0.0
C1052 C 0.39725 0.6467 0.52198 0.0
C1053 C 0.412 0.65614 0.53725 0.0
H1054 H 0.3792 0.61765 0.51304 0.0
H1055 H 0.51963 0.70832 0.66414 0.0
H1056 H 0.8967 0.88571 0.70872 0.0
H1057 H 0.91007 0.90402 0.67548 0.0
H1058 H 0.93759 0.95571 0.71542 0.0
H1059 H 0.92356 0.93791 0.74873 0.0
H1060 H 0.9171 0.97368 0.67973 0.0
H1061 H 0.97273 0.9125 0.69238 0.0
H1062 H 0.9858 0.87324 0.69837 0.0
H1063 H 0.95721 0.8555 0.63573 0.0
H1064 H 0.94368 0.89462 0.62951 0.0
H1065 H 0.98819 0.0194 0.59673 0.0
H1066 H 0.97275 1.0025 0.62993 0.0
H1067 H 0.94978 0.94794 0.59081 0.0
H1068 H 0.96589 0.96439 0.55774 0.0
H1069 H 0.9677 0.93151 0.62626 0.0
H1070 H 0.91179 0.99203 0.61324 0.0
H1071 H 0.89813 0.03107 0.60687 0.0
H1072 H 0.92615 0.04983 0.66943 0.0
H1073 H 0.94025 1.01092 0.67605 0.0
C1074 C 0.90532 0.90113 0.71052 0.0
C1075 C 0.90903 0.91017 0.73164 0.0
C1076 C 0.91324 0.9115 0.6914 0.0
C1077 C 0.92525 0.93118 0.69276 0.0
C1078 C 0.92853 0.94052 0.71377 0.0
C1079 C 0.92063 0.93016 0.7329 0.0
C1080 C 0.93449 0.94192 0.67241 0.0
C1081 C 0.9284 0.96449 0.6682 0.0
C1082 C 0.94882 0.92998 0.65689 0.0
C1083 C 0.95698 0.90646 0.66059 0.0
C1084 C 0.96907 0.9002 0.67997 0.0
C1085 C 0.97659 0.87797 0.68339 0.0
C1086 C 0.97228 0.86187 0.66747 0.0
C1087 C 0.9605 0.86798 0.64807 0.0
C1088 C 0.95291 0.89018 0.64458 0.0
C1089 C 0.97971 1.00388 0.59514 0.0
C1090 C 0.97827 0.99337 0.57442 0.0
C1091 C 0.97074 0.99422 0.61421 0.0
C1092 C 0.95968 0.97395 0.61309 0.0
C1093 C 0.95816 0.96352 0.59235 0.0
C1094 C 0.96734 0.97304 0.57334 0.0
C1095 C 0.95025 0.9633 0.63346 0.0
C1096 C 0.95634 0.94073 0.63772 0.0
C1097 C 0.9358 0.97522 0.64894 0.0
C1098 C 0.92727 0.9986 0.64504 0.0
C1099 C 0.91518 1.00451 0.62557 0.0
C1100 C 0.90734 0.02661 0.62192 0.0
C1101 C 0.91132 0.04293 0.63771 0.0
C1102 C 0.92311 0.03717 0.6572 0.0
C1103 C 0.93101 0.0151 0.66092 0.0
H1104 H 0.90524 0.06003 0.63485 0.0
H1105 H 0.97812 0.84468 0.67015 0.0
H1106 H 0.59444 0.09483 0.25258 0.0
H1107 H 0.58062 0.07661 0.21936 0.0
H1108 H 0.60763 0.12821 0.17921 0.0
H1109 H 0.6208 0.14695 0.21241 0.0
H1110 H 0.5657 0.11937 0.16503 0.0
H1111 H 0.63465 0.07452 0.18319 0.0
H1112 H 0.66057 0.0512 0.20714 0.0
H1113 H 0.60781 1.00425 0.21436 0.0
H1114 H 0.58146 0.02745 0.19067 0.0
H1115 H 0.5562 0.06823 0.06061 0.0
H1116 H 0.5711 0.08431 0.09441 0.0
H1117 H 0.54527 0.03032 0.13214 0.0
H1118 H 0.53086 0.01372 0.09809 0.0
H1119 H 0.5858 0.03989 0.14816 0.0
H1120 H 0.51686 0.08406 0.13028 0.0
H1121 H 0.49045 0.10702 0.10646 0.0
H1122 H 0.5422 0.155 0.0993 0.0
H1123 H 0.56904 0.13217 0.12285 0.0
C1124 C 0.59738 0.10244 0.23673 0.0
C1125 C 0.60887 0.12248 0.2354 0.0
C1126 C 0.58963 0.09181 0.21762 0.0
C1127 C 0.59323 0.10079 0.19654 0.0
C1128 C 0.60464 0.12079 0.19516 0.0
C1129 C 0.61241 0.13142 0.21425 0.0
C1130 C 0.58476 0.08964 0.17601 0.0
C1131 C 0.5704 0.10207 0.16124 0.0
C1132 C 0.59017 0.06683 0.17116 0.0
C1133 C 0.60601 0.05284 0.18534 0.0
C1134 C 0.62852 0.05931 0.19002 0.0
C1135 C 0.6433 0.0461 0.20352 0.0
C1136 C 0.63582 0.02629 0.21231 0.0
C1137 C 0.61357 0.01961 0.20757 0.0
C1138 C 0.59872 0.03278 0.19409 0.0
C1139 C 0.55373 0.05965 0.07606 0.0
C1140 C 0.54215 0.03966 0.07651 0.0
C1141 C 0.56217 0.069 0.09551 0.0
C1142 C 0.55896 0.05891 0.11613 0.0
C1143 C 0.54795 0.0386 0.11658 0.0
C1144 C 0.53966 0.0291 0.09704 0.0
C1145 C 0.56689 0.06967 0.13709 0.0
C1146 C 0.58109 0.05718 0.15195 0.0
C1147 C 0.56123 0.09241 0.14212 0.0
C1148 C 0.54503 0.10631 0.12817 0.0
C1149 C 0.52265 0.09945 0.12352 0.0
C1150 C 0.5076 0.11244 0.11008 0.0
C1151 C 0.51466 0.13243 0.10133 0.0
C1152 C 0.53676 0.1395 0.10607 0.0
C1153 C 0.55189 0.12656 0.11948 0.0
H1154 H 0.503 0.14246 0.09092 0.0
H1155 H 0.64729 0.01608 0.22277 0.0
H1156 H 0.44398 0.56952 0.21698 0.0
H1157 H 0.45345 0.55831 0.25489 0.0
H1158 H 0.44542 0.62692 0.27589 0.0
H1159 H 0.43613 0.63821 0.23805 0.0
H1160 H 0.48284 0.60713 0.29415 0.0
H1161 H 0.40307 0.5902 0.28534 0.0
H1162 H 0.36994 0.57309 0.26769 0.0
H1163 H 0.40229 0.50801 0.27866 0.0
H1164 H 0.43578 0.52475 0.29612 0.0
H1165 H 0.47145 0.59006 0.40963 0.0
H1166 H 0.46383 0.60011 0.37112 0.0
H1167 H 0.47813 0.53175 0.35151 0.0
H1168 H 0.48631 0.52159 0.38985 0.0
H1169 H 0.43823 0.55062 0.33246 0.0
H1170 H 0.51769 0.56812 0.34221 0.0
H1171 H 0.55021 0.58571 0.36039 0.0
H1172 H 0.51754 0.65042 0.34816 0.0
H1173 H 0.48463 0.63319 0.33017 0.0
C1174 C 0.44417 0.58218 0.22972 0.0
C1175 C 0.43931 0.60473 0.22457 0.0
C1176 C 0.44957 0.57577 0.25135 0.0
C1177 C 0.44987 0.59176 0.26826 0.0
C1178 C 0.44533 0.61431 0.26309 0.0
C1179 C 0.44009 0.62074 0.24146 0.0
C1180 C 0.45485 0.58506 0.29139 0.0
C1181 C 0.4729 0.59497 0.3026 0.0
C1182 C 0.44219 0.56886 0.30227 0.0
C1183 C 0.42205 0.55874 0.29182 0.0
C1184 C 0.40321 0.57225 0.28383 0.0
C1185 C 0.38435 0.56261 0.27389 0.0
C1186 C 0.38404 0.53948 0.272 0.0
C1187 C 0.40257 0.52593 0.2801 0.0
C1188 C 0.42149 0.53548 0.29004 0.0
C1189 C 0.47322 0.57719 0.39711 0.0
C1190 C 0.47952 0.55502 0.40284 0.0
C1191 C 0.46878 0.58296 0.37514 0.0
C1192 C 0.47058 0.56668 0.3585 0.0
C1193 C 0.47659 0.54452 0.36415 0.0
C1194 C 0.48115 0.53875 0.38609 0.0
C1195 C 0.4661 0.57277 0.33517 0.0
C1196 C 0.44817 0.56274 0.32395 0.0
C1197 C 0.47877 0.58895 0.32432 0.0
C1198 C 0.49859 0.59935 0.33504 0.0
C1199 C 0.51734 0.5861 0.34356 0.0
C1200 C 0.53587 0.596 0.3538 0.0
C1201 C 0.53591 0.61917 0.35548 0.0
C1202 C 0.51746 0.63248 0.34687 0.0
C1203 C 0.49888 0.62265 0.33663 0.0
H1204 H 0.55027 0.62681 0.36341 0.0
H1205 H 0.36942 0.53205 0.2643 0.0
H1206 H 0.14359 0.48225 0.73484 0.0
H1207 H 0.12983 0.48607 0.77277 0.0
H1208 H 0.06005 0.47575 0.75115 0.0
H1209 H 0.07349 0.47303 0.71293 0.0
H1210 H 0.05959 0.50668 0.78238 0.0
H1211 H 0.09424 0.43317 0.77356 0.0
H1212 H 0.12476 0.40463 0.76344 0.0
H1213 H 0.1707 0.4314 0.81115 0.0
H1214 H 0.14054 0.46031 0.82134 0.0
H1215 H 0.01826 0.47946 0.88937 0.0
H1216 H 0.02992 0.47537 0.85059 0.0
H1217 H 0.09894 0.49353 0.86747 0.0
H1218 H 0.08743 0.49751 0.90623 0.0
H1219 H 0.09828 0.45731 0.83846 0.0
H1220 H 0.06264 0.53158 0.84624 0.0
H1221 H 0.03105 0.559 0.8564 0.0
H1222 H 0.9855 0.52895 0.81047 0.0
H1223 H 0.01675 0.50112 0.80027 0.0
C1224 C 0.12522 0.48131 0.73803 0.0
C1225 C 0.10967 0.47718 0.72082 0.0
C1226 C 0.11743 0.4832 0.75979 0.0
C1227 C 0.094 0.48067 0.76485 0.0
C1228 C 0.07824 0.47754 0.74764 0.0
C1229 C 0.08599 0.47582 0.72583 0.0
C1230 C 0.08612 0.48067 0.78813 0.0
C1231 C 0.06784 0.49566 0.79457 0.0
C1232 C 0.09703 0.46644 0.80409 0.0
C1233 C 0.1152 0.44903 0.79806 0.0
C1234 C 0.11091 0.43308 0.78178 0.0
C1235 C 0.12814 0.41682 0.77605 0.0
C1236 C 0.14968 0.41624 0.78661 0.0
C1237 C 0.15401 0.43189 0.80296 0.0
C1238 C 0.13685 0.4482 0.80873 0.0
C1239 C 0.03599 0.48225 0.88482 0.0
C1240 C 0.05194 0.48888 0.90074 0.0
C1241 C 0.04257 0.48008 0.8627 0.0
C1242 C 0.06521 0.48438 0.8562 0.0
C1243 C 0.08137 0.49021 0.87218 0.0
C1244 C 0.07476 0.49258 0.89425 0.0
C1245 C 0.07198 0.48344 0.83266 0.0
C1246 C 0.09001 0.46824 0.82621 0.0
C1247 C 0.06069 0.4973 0.81667 0.0
C1248 C 0.04195 0.51412 0.82267 0.0
C1249 C 0.04583 0.5307 0.83844 0.0
C1250 C 0.028 0.54634 0.84418 0.0
C1251 C 1.00626 0.54568 0.83413 0.0
C1252 C 1.00234 0.52942 0.81827 0.0
C1253 C 0.0201 0.51372 0.81249 0.0
H1254 H 0.99248 0.5578 0.8386 0.0
H1255 H 0.16299 0.40363 0.78215 0.0
H1256 H 0.74659 0.95009 0.89927 0.0
H1257 H 0.71235 0.96381 0.91975 0.0
H1258 H 0.69241 0.89646 0.92882 0.0
H1259 H 0.72636 0.88259 0.90752 0.0
H1260 H 0.65532 0.92223 0.91828 0.0
H1261 H 0.71542 0.92705 0.97163 0.0
H1262 H 0.75305 0.93728 0.98666 0.0
H1263 H 0.73315 1.00657 0.97799 0.0
H1264 H 0.69549 0.99675 0.96261 0.0
H1265 H 0.56836 0.95396 0.9989 0.0
H1266 H 0.60358 0.93726 0.98151 0.0
H1267 H 0.62391 1.00249 0.96307 0.0
H1268 H 0.58868 0.01929 0.9802 0.0
H1269 H 0.66079 0.97595 0.98007 0.0
H1270 H 0.60101 0.97022 0.92532 0.0
H1271 H 0.56321 0.95938 0.91119 0.0
H1272 H 0.58266 0.89064 0.92385 0.0
H1273 H 0.62047 0.90111 0.93838 0.0
C1274 C 0.73491 0.93811 0.90545 0.0
C1275 C 0.73938 0.91515 0.90155 0.0
C1276 C 0.71536 0.94602 0.91745 0.0
C1277 C 0.69974 0.93124 0.92617 0.0
C1278 C 0.70413 0.90829 0.92239 0.0
C1279 C 0.72374 0.90033 0.91034 0.0
C1280 C 0.67867 0.93987 0.93877 0.0
C1281 C 0.65662 0.93367 0.93203 0.0
C1282 C 0.68007 0.95515 0.95655 0.0
C1283 C 0.70271 0.96115 0.96577 0.0
C1284 C 0.71914 0.94447 0.97276 0.0
C1285 C 0.74046 0.95019 0.98137 0.0
C1286 C 0.74551 0.97256 0.98323 0.0
C1287 C 0.72922 0.98925 0.97652 0.0
C1288 C 0.70787 0.98361 0.96787 0.0
C1289 C 0.58037 0.96479 0.99125 0.0
C1290 C 0.57557 0.98801 0.99095 0.0
C1291 C 0.60049 0.95518 0.98121 0.0
C1292 C 0.61642 0.96856 0.97079 0.0
C1293 C 0.61195 0.99177 0.97096 0.0
C1294 C 0.59171 1.00136 0.98073 0.0
C1295 C 0.63756 0.95843 0.95943 0.0
C1296 C 0.65957 0.96438 0.9664 0.0
C1297 C 0.63613 0.94281 0.94199 0.0
C1298 C 0.61347 0.93647 0.93317 0.0
C1299 C 0.59715 0.95281 0.92527 0.0
C1300 C 0.57574 0.94673 0.91716 0.0
C1301 C 0.57051 0.92434 0.91668 0.0
C1302 C 0.58672 0.90798 0.92427 0.0
C1303 C 0.60815 0.91397 0.93243 0.0
H1304 H 0.55392 0.91967 0.91039 0.0
H1305 H 0.76203 0.97695 0.98991 0.0
H1306 H 0.78016 0.14518 0.42692 0.0
H1307 H 0.81518 0.13084 0.44622 0.0
H1308 H 0.82089 0.07488 0.40156 0.0
H1309 H 0.78598 0.08903 0.38232 0.0
H1310 H 0.8285 0.06066 0.44195 0.0
H1311 H 0.85678 0.12053 0.39857 0.0
H1312 H 0.85767 0.15929 0.38557 0.0
H1313 H 0.87023 0.18137 0.45173 0.0
H1314 H 0.86912 0.14276 0.46518 0.0
H1315 H 0.94309 0.0191 0.46532 0.0
H1316 H 0.90775 0.03521 0.44818 0.0
H1317 H 0.90766 0.09076 0.49334 0.0
H1318 H 0.94359 0.07503 0.51009 0.0
H1319 H 0.89641 0.10594 0.45455 0.0
H1320 H 0.86929 0.04644 0.49806 0.0
H1321 H 0.86826 1.00788 0.51157 0.0
H1322 H 0.85295 0.98534 0.44614 0.0
H1323 H 0.85419 0.02374 0.43218 0.0
C1324 C 0.78897 0.12993 0.42106 0.0
C1325 C 0.78004 0.11829 0.40302 0.0
C1326 C 0.80908 0.1217 0.43215 0.0
C1327 C 0.82099 0.10177 0.42534 0.0
C1328 C 0.8121 0.0902 0.40732 0.0
C1329 C 0.792 0.09833 0.39632 0.0
C1330 C 0.84247 0.0927 0.43701 0.0
C1331 C 0.84343 0.07053 0.44445 0.0
C1332 C 0.86186 0.10561 0.44099 0.0
C1333 C 0.86263 0.1288 0.43291 0.0
C1334 C 0.85957 0.13368 0.41037 0.0
C1335 C 0.86014 0.15561 0.40292 0.0
C1336 C 0.86394 0.17279 0.41782 0.0
C1337 C 0.86725 0.16806 0.44021 0.0
C1338 C 0.86667 0.14615 0.44775 0.0
C1339 C 0.93553 0.0347 0.47172 0.0
C1340 C 0.94623 0.04565 0.48923 0.0
C1341 C 0.91515 0.0439 0.46193 0.0
C1342 C 0.90456 0.06411 0.46961 0.0
C1343 C 0.9153 0.07515 0.48704 0.0
C1344 C 0.93586 0.06607 0.49669 0.0
C1345 C 0.88254 0.07381 0.45929 0.0
C1346 C 0.88146 0.09608 0.45214 0.0
C1347 C 0.86296 0.06103 0.45567 0.0
C1348 C 0.86203 0.03795 0.46405 0.0
C1349 C 0.86584 0.03324 0.48653 0.0
C1350 C 0.8652 1.01141 0.49427 0.0
C1351 C 0.86059 0.99416 0.47971 0.0
C1352 C 0.85654 0.99871 0.45739 0.0
C1353 C 0.85718 0.02051 0.44956 0.0
H1354 H 0.86011 0.97727 0.48574 0.0
H1355 H 0.86438 0.18976 0.41202 0.0
H1356 H 0.24273 0.57411 0.11989 0.0
H1357 H 0.20404 0.56675 0.10649 0.0
H1358 H 0.23007 0.56236 0.03978 0.0
H1359 H 0.26895 0.56974 0.05312 0.0
H1360 H 0.18987 0.58688 0.04151 0.0
H1361 H 0.21795 0.51564 0.06785 0.0
H1362 H 0.23545 0.48861 0.0944 0.0
H1363 H 0.17946 0.50339 0.13967 0.0
H1364 H 0.16177 0.53077 0.11352 0.0
H1365 H 0.09077 0.53511 0.99764 0.0
H1366 H 0.12991 0.54386 1.00899 0.0
H1367 H 0.10593 0.55451 0.0758 0.0
H1368 H 0.06675 0.54586 0.06463 0.0
H1369 H 0.1455 0.52614 0.07281 0.0
H1370 H 0.11787 0.59793 0.04571 0.0
H1371 H 0.10058 0.62418 0.01831 0.0
H1372 H 0.15617 0.60705 0.97324 0.0
H1373 H 0.17363 0.58044 1.00027 0.0
C1374 C 0.2403 0.57129 0.1024 0.0
C1375 C 0.25893 0.57235 0.08758 0.0
C1376 C 0.21816 0.56714 0.09475 0.0
C1377 C 0.21423 0.56375 0.07216 0.0
C1378 C 0.23274 0.56493 0.05728 0.0
C1379 C 0.25491 0.56917 0.06492 0.0
C1380 C 0.19069 0.55925 0.06412 0.0
C1381 C 0.1803 0.57339 0.0481 0.0
C1382 C 0.17807 0.54188 0.07301 0.0
C1383 C 0.18865 0.52542 0.0888 0.0
C1384 C 0.20946 0.51327 0.08354 0.0
C1385 C 0.2194 0.49786 0.09851 0.0
C1386 C 0.20861 0.49433 0.11873 0.0
C1387 C 0.18781 0.50617 0.12401 0.0
C1388 C 0.17781 0.52162 0.10911 0.0
C1389 C 0.09378 0.53952 0.0147 0.0
C1390 C 0.07568 0.53975 0.03025 0.0
C1391 C 0.11612 0.54456 0.02113 0.0
C1392 C 0.12075 0.54985 0.04321 0.0
C1393 C 0.10267 0.55043 0.05868 0.0
C1394 C 0.08029 0.54557 0.05225 0.0
C1395 C 0.14465 0.55388 0.05039 0.0
C1396 C 0.15512 0.5396 0.0662 0.0
C1397 C 0.15737 0.57099 0.04118 0.0
C1398 C 0.14693 0.58701 0.02492 0.0
C1399 C 0.1263 0.5996 0.02988 0.0
C1400 C 0.11649 0.61458 0.01443 0.0
C1401 C 0.12723 0.61723 0.99402 0.0
C1402 C 0.14785 0.60495 0.98904 0.0
C1403 C 0.15772 0.58993 1.00443 0.0
H1404 H 0.11961 0.62884 0.98208 0.0
H1405 H 0.21632 0.48238 0.13029 0.0
H1406 H 0.24965 0.46301 0.53581 0.0
H1407 H 0.28843 0.47605 0.52867 0.0
H1408 H 0.31849 0.42426 0.57064 0.0
H1409 H 0.27982 0.41118 0.57785 0.0
H1410 H 0.33482 0.46703 0.57894 0.0
H1411 H 0.32307 0.4174 0.51763 0.0
H1412 H 0.30182 0.40358 0.48555 0.0
H1413 H 0.30654 0.46661 0.45324 0.0
H1414 H 0.32756 0.4809 0.48528 0.0
H1415 H 0.45318 0.47341 0.55279 0.0
H1416 H 0.41429 0.46066 0.55881 0.0
H1417 H 0.38766 0.50431 0.50714 0.0
H1418 H 0.42671 0.51647 0.50046 0.0
H1419 H 0.36878 0.4665 0.5037 0.0
H1420 H 0.38013 0.51685 0.56334 0.0
H1421 H 0.40031 0.53247 0.59519 0.0
H1422 H 0.39488 0.47121 0.63054 0.0
H1423 H 0.37493 0.45511 0.59876 0.0
C1424 C 0.26455 0.45445 0.54351 0.0
C1425 C 0.26179 0.43603 0.55729 0.0
C1426 C 0.28664 0.46184 0.53936 0.0
C1427 C 0.30626 0.45102 0.54906 0.0
C1428 C 0.30353 0.43278 0.56299 0.0
C1429 C 0.28149 0.42524 0.56695 0.0
C1430 C 0.32969 0.45876 0.54477 0.0
C1431 C 0.34242 0.46669 0.56255 0.0
C1432 C 0.33917 0.45892 0.52327 0.0
C1433 C 0.32668 0.45029 0.50395 0.0
C1434 C 0.31941 0.42837 0.50376 0.0
C1435 C 0.30744 0.42044 0.48557 0.0
C1436 C 0.30278 0.43423 0.46739 0.0
C1437 C 0.31014 0.45596 0.46734 0.0
C1438 C 0.3221 0.46397 0.48551 0.0
C1439 C 0.43904 0.48027 0.5427 0.0
C1440 C 0.44297 0.49601 0.52622 0.0
C1441 C 0.41678 0.47306 0.54623 0.0
C1442 C 0.39794 0.48184 0.53371 0.0
C1443 C 0.4019 0.49734 0.51704 0.0
C1444 C 0.42422 0.5043 0.51327 0.0
C1445 C 0.37413 0.47475 0.53791 0.0
C1446 C 0.36126 0.46694 0.52011 0.0
C1447 C 0.36437 0.47503 0.55937 0.0
C1448 C 0.37622 0.4847 0.57859 0.0
C1449 C 0.38337 0.50665 0.57785 0.0
C1450 C 0.39476 0.5156 0.5959 0.0
C1451 C 0.39893 0.50282 0.61486 0.0
C1452 C 0.39166 0.48108 0.61583 0.0
C1453 C 0.38029 0.47204 0.59781 0.0
H1454 H 0.40775 0.50977 0.62882 0.0
H1455 H 0.29351 0.42806 0.45332 0.0
H1456 H 0.89661 0.75007 0.93917 0.0
H1457 H 0.91331 0.71585 0.95569 0.0
H1458 H 0.93816 0.69348 0.89185 0.0
H1459 H 0.92133 0.72777 0.87514 0.0
H1460 H 0.92108 0.65975 0.9128 0.0
H1461 H 0.97488 0.71412 0.93262 0.0
H1462 H 0.98732 0.74944 0.94816 0.0
H1463 H 0.96163 0.73171 1.01185 0.0
H1464 H 0.94875 0.69639 0.99663 0.0
H1465 H 0.99746 0.57161 0.95264 0.0
H1466 H 0.98149 0.60604 0.93576 0.0
H1467 H 0.95418 0.62808 0.99883 0.0
H1468 H 0.97041 0.59373 0.01592 0.0
H1469 H 0.97285 0.66188 0.97804 0.0
H1470 H 0.91904 0.60725 0.95779 0.0
H1471 H 0.90725 0.5718 0.94195 0.0
H1472 H 0.93379 0.58993 0.87873 0.0
H1473 H 0.94601 0.62538 0.89423 0.0
C1474 C 0.90586 0.73805 0.9286 0.0
C1475 C 0.90773 0.74198 0.90575 0.0
C1476 C 0.91543 0.71836 0.93813 0.0
C1477 C 0.92744 0.70202 0.92519 0.0
C1478 C 0.92906 0.70571 0.90231 0.0
C1479 C 0.91937 0.7254 0.89273 0.0
C1480 C 0.93808 0.6811 0.93549 0.0
C1481 C 0.93266 0.66029 0.92687 0.0
C1482 C 0.95286 0.68152 0.95421 0.0
C1483 C 0.96065 0.70271 0.96343 0.0
C1484 C 0.97173 0.71783 0.94991 0.0
C1485 C 0.97889 0.73783 0.95866 0.0
C1486 C 0.97522 0.74284 0.98096 0.0
C1487 C 0.96444 0.72782 0.99457 0.0
C1488 C 0.95722 0.70779 0.98589 0.0
C1489 C 0.98811 0.58377 0.96299 0.0
C1490 C 0.98523 0.57974 0.9857 0.0
C1491 C 0.97883 0.60348 0.95324 0.0
C1492 C 0.96625 0.6197 0.96587 0.0
C1493 C 0.96372 0.6159 0.98863 0.0
C1494 C 0.97301 0.59618 0.99841 0.0
C1495 C 0.95581 0.64056 0.95537 0.0
C1496 C 0.96127 0.66136 0.96397 0.0
C1497 C 0.94113 0.64013 0.9366 0.0
C1498 C 0.93363 0.61889 0.92723 0.0
C1499 C 0.92251 0.60362 0.94055 0.0
C1500 C 0.91572 0.58354 0.93163 0.0
C1501 C 0.91982 0.5786 0.90938 0.0
C1502 C 0.93065 0.59377 0.89597 0.0
C1503 C 0.93749 0.61387 0.90481 0.0
H1504 H 0.91456 0.56305 0.90251 0.0
H1505 H 0.98077 0.75834 0.98771 0.0
H1506 H 0.44448 0.72086 0.04998 0.0
H1507 H 0.46127 0.75727 0.04808 0.0
H1508 H 0.39415 0.78947 0.06198 0.0
H1509 H 0.37728 0.7532 0.0638 0.0
H1510 H 0.41571 0.81132 0.03072 0.0
H1511 H 0.4353 0.78157 0.10235 0.0
H1512 H 0.45183 0.75371 0.12861 0.0
H1513 H 0.51927 0.75898 0.09992 0.0
H1514 H 0.50307 0.78666 0.07327 0.0
H1515 H 0.44633 0.91651 0.06657 0.0
H1516 H 0.43365 0.87852 0.06848 0.0
H1517 H 0.50093 0.85316 0.046 0.0
H1518 H 0.51366 0.89122 0.04356 0.0
H1519 H 0.48129 0.82741 0.08019 0.0
H1520 H 0.46104 0.85878 1.00938 0.0
H1521 H 0.44391 0.88761 0.98447 0.0
H1522 H 0.37678 0.87988 0.01296 0.0
H1523 H 0.39359 0.85124 0.03831 0.0
C1524 C 0.43332 0.73573 0.05255 0.0
C1525 C 0.40958 0.73418 0.05709 0.0
C1526 C 0.44292 0.75649 0.0515 0.0
C1527 C 0.42902 0.77605 0.05522 0.0
C1528 C 0.40519 0.77458 0.05905 0.0
C1529 C 0.39556 0.75385 0.05999 0.0
C1530 C 0.43929 0.79807 0.05562 0.0
C1531 C 0.42991 0.81487 0.04169 0.0
C1532 C 0.45813 0.80259 0.06962 0.0
C1533 C 0.46792 0.78599 0.08566 0.0
C1534 C 0.45362 0.77665 0.10152 0.0
C1535 C 0.46293 0.76092 0.1165 0.0
C1536 C 0.48657 0.75453 0.11589 0.0
C1537 C 0.50096 0.76391 0.10034 0.0
C1538 C 0.49172 0.77963 0.08531 0.0
C1539 C 0.45849 0.90285 0.06216 0.0
C1540 C 0.48089 0.90689 0.05461 0.0
C1541 C 0.45124 0.88118 0.06333 0.0
C1542 C 0.46626 0.86314 0.05703 0.0
C1543 C 0.4891 0.86692 0.05087 0.0
C1544 C 0.49636 0.88866 0.04958 0.0
C1545 C 0.45751 0.84058 0.0555 0.0
C1546 C 0.46719 0.82374 0.06916 0.0
C1547 C 0.43885 0.83603 0.04136 0.0
C1548 C 0.42862 0.853 0.02588 0.0
C1549 C 0.44265 0.86334 1.01044 0.0
C1550 C 0.433 0.87963 0.99623 0.0
C1551 C 0.40928 0.88561 0.99717 0.0
C1552 C 0.39516 0.87525 1.01227 0.0
C1553 C 0.40473 0.85897 0.02655 0.0
H1554 H 0.40184 0.89825 0.98618 0.0
H1555 H 0.49376 0.74235 0.12751 0.0
H1556 H 0.04212 0.31817 0.58618 0.0
H1557 H 0.03042 0.28044 0.57844 0.0
H1558 H 0.09978 0.25418 0.59328 0.0
H1559 H 0.11159 0.29179 0.60079 0.0
H1560 H 0.08396 0.2349 0.55752 0.0
H1561 H 0.05476 0.25137 0.63057 0.0
H1562 H 0.0324 0.27318 0.65866 0.0
H1563 H 0.96951 0.26432 0.62265 0.0
H1564 H 0.99156 0.2427 0.59417 0.0
H1565 H 0.0653 0.12175 0.57426 0.0
H1566 H 0.07324 0.16051 0.58169 0.0
H1567 H 1.00446 0.18151 0.55958 0.0
H1568 H 0.99646 0.14276 0.55172 0.0
H1569 H 0.01808 0.20394 0.59747 0.0
H1570 H 0.04758 0.18601 0.52519 0.0
H1571 H 0.07023 0.16371 0.49768 0.0
H1572 H 0.13303 0.17504 0.53291 0.0
H1573 H 0.11069 0.19713 0.56084 0.0
C1574 C 0.05483 0.30432 0.58781 0.0
C1575 C 0.07776 0.30791 0.5941 0.0
C1576 C 0.04813 0.2828 0.58341 0.0
C1577 C 0.06416 0.26447 0.58555 0.0
C1578 C 0.08714 0.26808 0.59148 0.0
C1579 C 0.09388 0.28958 0.59571 0.0
C1580 C 0.05709 0.24147 0.58173 0.0
C1581 C 0.06971 0.22807 0.56644 0.0
C1582 C 0.03813 0.23273 0.59297 0.0
C1583 C 0.02484 0.24563 0.61013 0.0
C1584 C 0.03619 0.25422 0.62856 0.0
C1585 C 0.02357 0.26652 0.64456 0.0
C1586 C 0.99956 0.27019 0.64241 0.0
C1587 C 0.98811 0.2615 0.62428 0.0
C1588 C 1.00066 0.24921 0.60821 0.0
C1589 C 0.05184 0.1346 0.57098 0.0
C1590 C 0.03033 0.1292 0.56218 0.0
C1591 C 0.05639 0.15671 0.5753 0.0
C1592 C 0.03954 0.17384 0.57087 0.0
C1593 C 0.01768 0.16849 0.56307 0.0
C1594 C 0.01312 0.14634 0.55868 0.0
C1595 C 0.04518 0.19738 0.57354 0.0
C1596 C 0.03226 0.21085 0.58853 0.0
C1597 C 0.06392 0.20619 0.5621 0.0
C1598 C 0.07743 0.19306 0.54522 0.0
C1599 C 0.0662 0.1836 0.52717 0.0
C1600 C 0.07898 0.17102 0.51148 0.0
C1601 C 0.10305 0.16792 0.51357 0.0
C1602 C 0.11438 0.17744 0.53133 0.0
C1603 C 0.10167 0.19001 0.54708 0.0
H1604 H 0.11292 0.15817 0.50141 0.0
H1605 H 0.98982 0.27971 0.65482 0.0
H1606 H 0.59211 0.30434 0.37884 0.0
H1607 H 0.57564 0.33909 0.39502 0.0
H1608 H 0.60919 0.32248 0.45688 0.0
H1609 H 0.62548 0.28773 0.4409 0.0
H1610 H 0.56721 0.33838 0.46512 0.0
H1611 H 0.629 0.36289 0.41951 0.0
H1612 H 0.65088 0.36675 0.38491 0.0
H1613 H 0.59102 0.39941 0.35451 0.0
H1614 H 0.56868 0.39548 0.38885 0.0
H1615 H 0.55278 0.44431 0.51738 0.0
H1616 H 0.56834 0.4098 0.50019 0.0
H1617 H 0.53497 0.42894 0.43888 0.0
H1618 H 0.51998 0.46384 0.45582 0.0
H1619 H 0.57597 0.41169 0.42983 0.0
H1620 H 0.51426 0.38769 0.47545 0.0
H1621 H 0.49227 0.38391 0.51 0.0
H1622 H 0.55165 0.35023 0.54025 0.0
H1623 H 0.57409 0.35406 0.50595 0.0
C1624 C 0.59614 0.30813 0.39584 0.0
C1625 C 0.61017 0.29303 0.40849 0.0
C1626 C 0.5867 0.32811 0.40512 0.0
C1627 C 0.59128 0.33376 0.42723 0.0
C1628 C 0.60521 0.31866 0.43986 0.0
C1629 C 0.61451 0.29865 0.43066 0.0
C1630 C 0.58148 0.35518 0.43734 0.0
C1631 C 0.56942 0.35441 0.45748 0.0
C1632 C 0.58368 0.37624 0.4273 0.0
C1633 C 0.59711 0.37869 0.40668 0.0
C1634 C 0.62046 0.37075 0.40539 0.0
C1635 C 0.63295 0.37298 0.38584 0.0
C1636 C 0.62233 0.38326 0.3675 0.0
C1637 C 0.59921 0.39141 0.36871 0.0
C1638 C 0.58664 0.38921 0.38822 0.0
C1639 C 0.54865 0.44117 0.50025 0.0
C1640 C 0.53496 0.45693 0.48808 0.0
C1641 C 0.5575 0.42128 0.49041 0.0
C1642 C 0.55261 0.41633 0.46821 0.0
C1643 C 0.53906 0.43215 0.456 0.0
C1644 C 0.53039 0.45215 0.46577 0.0
C1645 C 0.56178 0.3949 0.45766 0.0
C1646 C 0.57371 0.39566 0.43745 0.0
C1647 C 0.55942 0.37381 0.46762 0.0
C1648 C 0.54591 0.37134 0.4882 0.0
C1649 C 0.52267 0.3796 0.48952 0.0
C1650 C 0.51012 0.37743 0.50905 0.0
C1651 C 0.52057 0.36689 0.52732 0.0
C1652 C 0.54358 0.35842 0.52608 0.0
C1653 C 0.55622 0.36057 0.5066 0.0
H1654 H 0.51083 0.36523 0.54243 0.0
H1655 H 0.63203 0.38497 0.35237 0.0
loop_
_geom_bond_atom_site_label_1
_geom_bond_atom_site_label_2
_geom_bond_distance
_geom_bond_site_symmetry_2
_ccdc_geom_bond_type
C0 C1 1.264 . S
C0 C5 1.479 . S
C0 C10 1.465 . S
C1 C0 1.264 . S
C1 C3 1.339 . S
C1 H28 0.931 . S
C2 C3 1.395 . S
C2 C4 1.320 . S
C3 C1 1.339 . S
C3 C2 1.395 . S
C3 H29 0.929 . S
C4 C2 1.320 . S
C4 C5 1.405 . S
C4 H30 0.930 . S
C5 C0 1.479 . S
C5 C4 1.405 . S
C5 H31 0.931 . S
U6 O7 2.454 . S
U6 O8 2.458 . S
U6 C9 2.984 . S
U6 C10 2.847 . S
U6 C23 2.882 . S
U6 O24 2.441 . S
U6 O25 2.420 . S
U6 O26 2.455 . S
U6 O27 2.449 . S
O7 U6 2.454 . S
O7 C9 1.353 . S
O8 U6 2.458 . S
O8 C9 1.286 . S
C9 U6 2.984 . S
C9 O7 1.353 . S
C9 O8 1.286 . S
C9 C11 1.363 . S
C10 C0 1.465 . S
C10 U6 2.847 . S
C10 O24 1.249 . S
C10 O25 1.202 . S
C11 C9 1.363 . S
C11 C13 1.408 . S
C11 C16 1.342 . S
C12 C13 1.310 . S
C12 C15 1.461 . S
C12 H32 0.932 . S
C13 C11 1.408 . S
C13 C12 1.310 . S
C13 H33 0.930 . S
C14 C15 1.474 . S
C14 C16 1.285 . S
C14 H34 0.929 . S
C15 C12 1.461 . S
C15 C14 1.474 . S
C16 C11 1.342 . S
C16 C14 1.285 . S
C16 H35 0.930 . S
C17 C20 1.424 . S
C17 C22 1.245 . S
C17 C23 1.428 . S
C18 C21 1.260 . S
C18 C22 1.477 . S
C18 H36 0.932 . S
C19 C20 1.384 . S
C19 C21 1.479 . S
C19 H37 0.929 . S
C20 C17 1.424 . S
C20 C19 1.384 . S
C20 H38 0.928 . S
C21 C18 1.260 . S
C21 C19 1.479 . S
C22 C17 1.245 . S
C22 C18 1.477 . S
C22 H39 0.932 . S
C23 U6 2.882 . S
C23 C17 1.428 . S
C23 O26 1.301 . S
C23 O27 1.282 . S
O24 U6 2.441 . S
O24 C10 1.249 . S
O25 U6 2.420 . S
O25 C10 1.202 . S
O26 U6 2.455 . S
O26 C23 1.301 . S
O27 U6 2.449 . S
O27 C23 1.282 . S
H28 C1 0.931 . S
H29 C3 0.929 . S
H30 C4 0.930 . S
H31 C5 0.931 . S
H32 C12 0.932 . S
H33 C13 0.930 . S
H34 C14 0.929 . S
H35 C16 0.930 . S
H36 C18 0.932 . S
H37 C19 0.929 . S
H38 C20 0.928 . S
H39 C22 0.932 . S
C40 C41 1.264 . S
C40 C45 1.479 . S
C40 C50 1.465 . S
C41 C40 1.264 . S
C41 C43 1.339 . S
C41 H68 0.931 . S
C42 C43 1.395 . S
C42 C44 1.320 . S
C43 C41 1.339 . S
C43 C42 1.395 . S
C43 H69 0.929 . S
C44 C42 1.320 . S
C44 C45 1.405 . S
C44 H70 0.930 . S
C45 C40 1.479 . S
C45 C44 1.405 . S
C45 H71 0.931 . S
U46 O47 2.454 . S
U46 O48 2.458 . S
U46 C49 2.984 . S
U46 C50 2.847 . S
U46 C63 2.882 . S
U46 O64 2.441 . S
U46 O65 2.420 . S
U46 O66 2.455 . S
U46 O67 2.449 . S
O47 U46 2.454 . S
O47 C49 1.353 . S
O48 U46 2.458 . S
O48 C49 1.286 . S
C49 U46 2.984 . S
C49 O47 1.353 . S
C49 O48 1.286 . S
C49 C51 1.363 . S
C50 C40 1.465 . S
C50 U46 2.847 . S
C50 O64 1.249 . S
C50 O65 1.202 . S
C51 C49 1.363 . S
C51 C53 1.408 . S
C51 C56 1.342 . S
C52 C53 1.310 . S
C52 C55 1.461 . S
C52 H72 0.932 . S
C53 C51 1.408 . S
C53 C52 1.310 . S
C53 H73 0.930 . S
C54 C55 1.474 . S
C54 C56 1.285 . S
C54 H74 0.929 . S
C55 C52 1.461 . S
C55 C54 1.474 . S
C56 C51 1.342 . S
C56 C54 1.285 . S
C56 H75 0.930 . S
C57 C60 1.424 . S
C57 C62 1.245 . S
C57 C63 1.428 . S
C58 C61 1.260 . S
C58 C62 1.477 . S
C58 H76 0.932 . S
C59 C60 1.384 . S
C59 C61 1.479 . S
C59 H77 0.929 . S
C60 C57 1.424 . S
C60 C59 1.384 . S
C60 H78 0.928 . S
C61 C58 1.260 . S
C61 C59 1.479 . S
C62 C57 1.245 . S
C62 C58 1.477 . S
C62 H79 0.932 . S
C63 U46 2.882 . S
C63 C57 1.428 . S
C63 O66 1.301 . S
C63 O67 1.282 . S
O64 U46 2.441 . S
O64 C50 1.249 . S
O65 U46 2.420 . S
O65 C50 1.202 . S
O66 U46 2.455 . S
O66 C63 1.301 . S
O67 U46 2.449 . S
O67 C63 1.282 . S
H68 C41 0.931 . S
H69 C43 0.929 . S
H70 C44 0.930 . S
H71 C45 0.931 . S
H72 C52 0.932 . S
H73 C53 0.930 . S
H74 C54 0.929 . S
H75 C56 0.930 . S
H76 C58 0.932 . S
H77 C59 0.929 . S
H78 C60 0.928 . S
H79 C62 0.932 . S
C80 C81 1.264 . S
C80 C85 1.479 . S
C80 C90 1.465 . S
C81 C80 1.264 . S
C81 C83 1.339 . S
C81 H108 0.931 . S
C82 C83 1.395 . S
C82 C84 1.320 . S
C83 C81 1.339 . S
C83 C82 1.395 . S
C83 H109 0.929 . S
C84 C82 1.320 . S
C84 C85 1.405 . S
C84 H110 0.930 . S
C85 C80 1.479 . S
C85 C84 1.405 . S
C85 H111 0.931 . S
U86 O87 2.454 . S
U86 O88 2.458 . S
U86 C89 2.984 . S
U86 C90 2.847 . S
U86 C103 2.882 . S
U86 O104 2.441 . S
U86 O105 2.420 . S
U86 O106 2.455 . S
U86 O107 2.449 . S
O87 U86 2.454 . S
O87 C89 1.353 . S
O88 U86 2.458 . S
O88 C89 1.286 . S
C89 U86 2.984 . S
C89 O87 1.353 . S
C89 O88 1.286 . S
C89 C91 1.363 . S
C90 C80 1.465 . S
C90 U86 2.847 . S
C90 O104 1.249 . S
C90 O105 1.202 . S
C91 C89 1.363 . S
C91 C93 1.408 . S
C91 C96 1.342 . S
C92 C93 1.310 . S
C92 C95 1.461 . S
C92 H112 0.932 . S
C93 C91 1.408 . S
C93 C92 1.310 . S
C93 H113 0.930 . S
C94 C95 1.474 . S
C94 C96 1.285 . S
C94 H114 0.929 . S
C95 C92 1.461 . S
C95 C94 1.474 . S
C96 C91 1.342 . S
C96 C94 1.285 . S
C96 H115 0.930 . S
C97 C100 1.424 . S
C97 C102 1.245 . S
C97 C103 1.428 . S
C98 C101 1.260 . S
C98 C102 1.477 . S
C98 H116 0.932 . S
C99 C100 1.384 . S
C99 C101 1.479 . S
C99 H117 0.929 . S
C100 C97 1.424 . S
C100 C99 1.384 . S
C100 H118 0.928 . S
C101 C98 1.260 . S
C101 C99 1.479 . S
C102 C97 1.245 . S
C102 C98 1.477 . S
C102 H119 0.932 . S
C103 U86 2.882 . S
C103 C97 1.428 . S
C103 O106 1.301 . S
C103 O107 1.282 . S
O104 U86 2.441 . S
O104 C90 1.249 . S
O105 U86 2.420 . S
O105 C90 1.202 . S
O106 U86 2.455 . S
O106 C103 1.301 . S
O107 U86 2.449 . S
O107 C103 1.282 . S
H108 C81 0.931 . S
H109 C83 0.929 . S
H110 C84 0.930 . S
H111 C85 0.931 . S
H112 C92 0.932 . S
H113 C93 0.930 . S
H114 C94 0.929 . S
H115 C96 0.930 . S
H116 C98 0.932 . S
H117 C99 0.929 . S
H118 C100 0.928 . S
H119 C102 0.932 . S
C120 C121 1.264 . S
C120 C125 1.479 . S
C120 C130 1.465 . S
C121 C120 1.264 . S
C121 C123 1.339 . S
C121 H148 0.931 . S
C122 C123 1.395 . S
C122 C124 1.320 . S
C123 C121 1.339 . S
C123 C122 1.395 . S
C123 H149 0.929 . S
C124 C122 1.320 . S
C124 C125 1.405 . S
C124 H150 0.930 . S
C125 C120 1.479 . S
C125 C124 1.405 . S
C125 H151 0.931 . S
U126 O127 2.454 . S
U126 O128 2.458 . S
U126 C129 2.984 . S
U126 C130 2.847 . S
U126 C143 2.882 . S
U126 O144 2.441 . S
U126 O145 2.420 . S
U126 O146 2.455 . S
U126 O147 2.449 . S
O127 U126 2.454 . S
O127 C129 1.353 . S
O128 U126 2.458 . S
O128 C129 1.286 . S
C129 U126 2.984 . S
C129 O127 1.353 . S
C129 O128 1.286 . S
C129 C131 1.363 . S
C130 C120 1.465 . S
C130 U126 2.847 . S
C130 O144 1.249 . S
C130 O145 1.202 . S
C131 C129 1.363 . S
C131 C133 1.408 . S
C131 C136 1.342 . S
C132 C133 1.310 . S
C132 C135 1.461 . S
C132 H152 0.932 . S
C133 C131 1.408 . S
C133 C132 1.310 . S
C133 H153 0.930 . S
C134 C135 1.474 . S
C134 C136 1.285 . S
C134 H154 0.929 . S
C135 C132 1.461 . S
C135 C134 1.474 . S
C136 C131 1.342 . S
C136 C134 1.285 . S
C136 H155 0.930 . S
C137 C140 1.424 . S
C137 C142 1.245 . S
C137 C143 1.428 . S
C138 C141 1.260 . S
C138 C142 1.477 . S
C138 H156 0.932 . S
C139 C140 1.384 . S
C139 C141 1.479 . S
C139 H157 0.929 . S
C140 C137 1.424 . S
C140 C139 1.384 . S
C140 H158 0.928 . S
C141 C138 1.260 . S
C141 C139 1.479 . S
C142 C137 1.245 . S
C142 C138 1.477 . S
C142 H159 0.932 . S
C143 U126 2.882 . S
C143 C137 1.428 . S
C143 O146 1.301 . S
C143 O147 1.282 . S
O144 U126 2.441 . S
O144 C130 1.249 . S
O145 U126 2.420 . S
O145 C130 1.202 . S
O146 U126 2.455 . S
O146 C143 1.301 . S
O147 U126 2.449 . S
O147 C143 1.282 . S
H148 C121 0.931 . S
H149 C123 0.929 . S
H150 C124 0.930 . S
H151 C125 0.931 . S
H152 C132 0.932 . S
H153 C133 0.930 . S
H154 C134 0.929 . S
H155 C136 0.930 . S
H156 C138 0.932 . S
H157 C139 0.929 . S
H158 C140 0.928 . S
H159 C142 0.932 . S
C160 C161 1.264 . S
C160 C165 1.479 . S
C160 C170 1.465 . S
C161 C160 1.264 . S
C161 C163 1.339 . S
C161 H188 0.931 . S
C162 C163 1.395 . S
C162 C164 1.320 . S
C163 C161 1.339 . S
C163 C162 1.395 . S
C163 H189 0.929 . S
C164 C162 1.320 . S
C164 C165 1.405 . S
C164 H190 0.930 . S
C165 C160 1.479 . S
C165 C164 1.405 . S
C165 H191 0.931 . S
U166 O167 2.454 . S
U166 O168 2.458 . S
U166 C169 2.984 . S
U166 C170 2.847 . S
U166 C183 2.882 . S
U166 O184 2.441 . S
U166 O185 2.420 . S
U166 O186 2.455 . S
U166 O187 2.449 . S
O167 U166 2.454 . S
O167 C169 1.353 . S
O168 U166 2.458 . S
O168 C169 1.286 . S
C169 U166 2.984 . S
C169 O167 1.353 . S
C169 O168 1.286 . S
C169 C171 1.363 . S
C170 C160 1.465 . S
C170 U166 2.847 . S
C170 O184 1.249 . S
C170 O185 1.202 . S
C171 C169 1.363 . S
C171 C173 1.408 . S
C171 C176 1.342 . S
C172 C173 1.310 . S
C172 C175 1.461 . S
C172 H192 0.932 . S
C173 C171 1.408 . S
C173 C172 1.310 . S
C173 H193 0.930 . S
C174 C175 1.474 . S
C174 C176 1.285 . S
C174 H194 0.929 . S
C175 C172 1.461 . S
C175 C174 1.474 . S
C176 C171 1.342 . S
C176 C174 1.285 . S
C176 H195 0.930 . S
C177 C180 1.424 . S
C177 C182 1.245 . S
C177 C183 1.428 . S
C178 C181 1.260 . S
C178 C182 1.477 . S
C178 H196 0.932 . S
C179 C180 1.384 . S
C179 C181 1.479 . S
C179 H197 0.929 . S
C180 C177 1.424 . S
C180 C179 1.384 . S
C180 H198 0.928 . S
C181 C178 1.260 . S
C181 C179 1.479 . S
C182 C177 1.245 . S
C182 C178 1.477 . S
C182 H199 0.932 . S
C183 U166 2.882 . S
C183 C177 1.428 . S
C183 O186 1.301 . S
C183 O187 1.282 . S
O184 U166 2.441 . S
O184 C170 1.249 . S
O185 U166 2.420 . S
O185 C170 1.202 . S
O186 U166 2.455 . S
O186 C183 1.301 . S
O187 U166 2.449 . S
O187 C183 1.282 . S
H188 C161 0.931 . S
H189 C163 0.929 . S
H190 C164 0.930 . S
H191 C165 0.931 . S
H192 C172 0.932 . S
H193 C173 0.930 . S
H194 C174 0.929 . S
H195 C176 0.930 . S
H196 C178 0.932 . S
H197 C179 0.929 . S
H198 C180 0.928 . S
H199 C182 0.932 . S
C200 C201 1.264 . S
C200 C205 1.479 . S
C200 C210 1.465 . S
C201 C200 1.264 . S
C201 C203 1.339 . S
C201 H228 0.931 . S
C202 C203 1.395 . S
C202 C204 1.320 . S
C203 C201 1.339 . S
C203 C202 1.395 . S
C203 H229 0.929 . S
C204 C202 1.320 . S
C204 C205 1.405 . S
C204 H230 0.930 . S
C205 C200 1.479 . S
C205 C204 1.405 . S
C205 H231 0.931 . S
U206 O207 2.454 . S
U206 O208 2.458 . S
U206 C209 2.984 . S
U206 C210 2.847 . S
U206 C223 2.882 . S
U206 O224 2.441 . S
U206 O225 2.420 . S
U206 O226 2.455 . S
U206 O227 2.449 . S
O207 U206 2.454 . S
O207 C209 1.353 . S
O208 U206 2.458 . S
O208 C209 1.286 . S
C209 U206 2.984 . S
C209 O207 1.353 . S
C209 O208 1.286 . S
C209 C211 1.363 . S
C210 C200 1.465 . S
C210 U206 2.847 . S
C210 O224 1.249 . S
C210 O225 1.202 . S
C211 C209 1.363 . S
C211 C213 1.408 . S
C211 C216 1.342 . S
C212 C213 1.310 . S
C212 C215 1.461 . S
C212 H232 0.932 . S
C213 C211 1.408 . S
C213 C212 1.310 . S
C213 H233 0.930 . S
C214 C215 1.474 . S
C214 C216 1.285 . S
C214 H234 0.929 . S
C215 C212 1.461 . S
C215 C214 1.474 . S
C216 C211 1.342 . S
C216 C214 1.285 . S
C216 H235 0.930 . S
C217 C220 1.424 . S
C217 C222 1.245 . S
C217 C223 1.428 . S
C218 C221 1.260 . S
C218 C222 1.477 . S
C218 H236 0.932 . S
C219 C220 1.384 . S
C219 C221 1.479 . S
C219 H237 0.929 . S
C220 C217 1.424 . S
C220 C219 1.384 . S
C220 H238 0.928 . S
C221 C218 1.260 . S
C221 C219 1.479 . S
C222 C217 1.245 . S
C222 C218 1.477 . S
C222 H239 0.932 . S
C223 U206 2.882 . S
C223 C217 1.428 . S
C223 O226 1.301 . S
C223 O227 1.282 . S
O224 U206 2.441 . S
O224 C210 1.249 . S
O225 U206 2.420 . S
O225 C210 1.202 . S
O226 U206 2.455 . S
O226 C223 1.301 . S
O227 U206 2.449 . S
O227 C223 1.282 . S
H228 C201 0.931 . S
H229 C203 0.929 . S
H230 C204 0.930 . S
H231 C205 0.931 . S
H232 C212 0.932 . S
H233 C213 0.930 . S
H234 C214 0.929 . S
H235 C216 0.930 . S
H236 C218 0.932 . S
H237 C219 0.929 . S
H238 C220 0.928 . S
H239 C222 0.932 . S
C240 C241 1.264 . S
C240 C245 1.479 . S
C240 C250 1.465 . S
C241 C240 1.264 . S
C241 C243 1.339 . S
C241 H268 0.931 . S
C242 C243 1.395 . S
C242 C244 1.320 . S
C243 C241 1.339 . S
C243 C242 1.395 . S
C243 H269 0.929 . S
C244 C242 1.320 . S
C244 C245 1.405 . S
C244 H270 0.930 . S
C245 C240 1.479 . S
C245 C244 1.405 . S
C245 H271 0.931 . S
U246 O247 2.454 . S
U246 O248 2.458 . S
U246 C249 2.984 . S
U246 C250 2.847 . S
U246 C263 2.882 . S
U246 O264 2.441 . S
U246 O265 2.420 . S
U246 O266 2.455 . S
U246 O267 2.449 . S
O247 U246 2.454 . S
O247 C249 1.353 . S
O248 U246 2.458 . S
O248 C249 1.286 . S
C249 U246 2.984 . S
C249 O247 1.353 . S
C249 O248 1.286 . S
C249 C251 1.363 . S
C250 C240 1.465 . S
C250 U246 2.847 . S
C250 O264 1.249 . S
C250 O265 1.202 . S
C251 C249 1.363 . S
C251 C253 1.408 . S
C251 C256 1.342 . S
C252 C253 1.310 . S
C252 C255 1.461 . S
C252 H272 0.932 . S
C253 C251 1.408 . S
C253 C252 1.310 . S
C253 H273 0.930 . S
C254 C255 1.474 . S
C254 C256 1.285 . S
C254 H274 0.929 . S
C255 C252 1.461 . S
C255 C254 1.474 . S
C256 C251 1.342 . S
C256 C254 1.285 . S
C256 H275 0.930 . S
C257 C260 1.424 . S
C257 C262 1.245 . S
C257 C263 1.428 . S
C258 C261 1.260 . S
C258 C262 1.477 . S
C258 H276 0.932 . S
C259 C260 1.384 . S
C259 C261 1.479 . S
C259 H277 0.929 . S
C260 C257 1.424 . S
C260 C259 1.384 . S
C260 H278 0.928 . S
C261 C258 1.260 . S
C261 C259 1.479 . S
C262 C257 1.245 . S
C262 C258 1.477 . S
C262 H279 0.932 . S
C263 U246 2.882 . S
C263 C257 1.428 . S
C263 O266 1.301 . S
C263 O267 1.282 . S
O264 U246 2.441 . S
O264 C250 1.249 . S
O265 U246 2.420 . S
O265 C250 1.202 . S
O266 U246 2.455 . S
O266 C263 1.301 . S
O267 U246 2.449 . S
O267 C263 1.282 . S
H268 C241 0.931 . S
H269 C243 0.929 . S
H270 C244 0.930 . S
H271 C245 0.931 . S
H272 C252 0.932 . S
H273 C253 0.930 . S
H274 C254 0.929 . S
H275 C256 0.930 . S
H276 C258 0.932 . S
H277 C259 0.929 . S
H278 C260 0.928 . S
H279 C262 0.932 . S
C280 C281 1.264 . S
C280 C285 1.479 . S
C280 C290 1.465 . S
C281 C280 1.264 . S
C281 C283 1.339 . S
C281 H308 0.931 . S
C282 C283 1.395 . S
C282 C284 1.320 . S
C283 C281 1.339 . S
C283 C282 1.395 . S
C283 H309 0.929 . S
C284 C282 1.320 . S
C284 C285 1.405 . S
C284 H310 0.930 . S
C285 C280 1.479 . S
C285 C284 1.405 . S
C285 H311 0.931 . S
U286 O287 2.454 . S
U286 O288 2.458 . S
U286 C289 2.984 . S
U286 C290 2.847 . S
U286 C303 2.882 . S
U286 O304 2.441 . S
U286 O305 2.420 . S
U286 O306 2.455 . S
U286 O307 2.449 . S
O287 U286 2.454 . S
O287 C289 1.353 . S
O288 U286 2.458 . S
O288 C289 1.286 . S
C289 U286 2.984 . S
C289 O287 1.353 . S
C289 O288 1.286 . S
C289 C291 1.363 . S
C290 C280 1.465 . S
C290 U286 2.847 . S
C290 O304 1.249 . S
C290 O305 1.202 . S
C291 C289 1.363 . S
C291 C293 1.408 . S
C291 C296 1.342 . S
C292 C293 1.310 . S
C292 C295 1.461 . S
C292 H312 0.932 . S
C293 C291 1.408 . S
C293 C292 1.310 . S
C293 H313 0.930 . S
C294 C295 1.474 . S
C294 C296 1.285 . S
C294 H314 0.929 . S
C295 C292 1.461 . S
C295 C294 1.474 . S
C296 C291 1.342 . S
C296 C294 1.285 . S
C296 H315 0.930 . S
C297 C300 1.424 . S
C297 C302 1.245 . S
C297 C303 1.428 . S
C298 C301 1.260 . S
C298 C302 1.477 . S
C298 H316 0.932 . S
C299 C300 1.384 . S
C299 C301 1.479 . S
C299 H317 0.929 . S
C300 C297 1.424 . S
C300 C299 1.384 . S
C300 H318 0.928 . S
C301 C298 1.260 . S
C301 C299 1.479 . S
C302 C297 1.245 . S
C302 C298 1.477 . S
C302 H319 0.932 . S
C303 U286 2.882 . S
C303 C297 1.428 . S
C303 O306 1.301 . S
C303 O307 1.282 . S
O304 U286 2.441 . S
O304 C290 1.249 . S
O305 U286 2.420 . S
O305 C290 1.202 . S
O306 U286 2.455 . S
O306 C303 1.301 . S
O307 U286 2.449 . S
O307 C303 1.282 . S
H308 C281 0.931 . S
H309 C283 0.929 . S
H310 C284 0.930 . S
H311 C285 0.931 . S
H312 C292 0.932 . S
H313 C293 0.930 . S
H314 C294 0.929 . S
H315 C296 0.930 . S
H316 C298 0.932 . S
H317 C299 0.929 . S
H318 C300 0.928 . S
H319 C302 0.932 . S
C320 O336 1.251 . S
C320 O338 1.254 1_545 S
N321 C322 1.333 . S
N321 C326 1.307 . S
N321 Zn327 2.020 . S
C322 N321 1.333 . S
C322 C323 1.379 . S
C322 H340 0.952 . S
C323 C322 1.379 . S
C323 C324 1.390 . S
C323 H350 0.949 . S
C324 C323 1.390 . S
C324 C325 1.357 . S
C325 C324 1.357 . S
C325 C326 1.370 . S
C325 H351 0.950 . S
C326 N321 1.307 . S
C326 C325 1.370 . S
C326 H344 0.948 1_455 S
Zn327 N321 2.020 . S
Zn327 O336 2.039 . S
Zn327 O342 2.034 . S
Zn327 O346 2.025 1_455 S
Zn327 O348 2.024 1_455 S
C328 O347 1.269 . S
C328 O348 1.249 . S
N329 C330 1.307 . S
N329 C331 1.333 . S
N329 Zn335 2.020 . S
C330 N329 1.307 . S
C330 C334 1.370 . S
C330 H341 0.948 1_655 S
C331 N329 1.333 . S
C331 C332 1.379 . S
C331 H339 0.952 . S
C332 C331 1.379 . S
C332 C333 1.390 . S
C332 H352 0.949 . S
C333 C332 1.390 . S
C333 C334 1.357 . S
C334 C330 1.370 . S
C334 C333 1.357 . S
C334 H353 0.964 . S
Zn335 N329 2.020 . S
Zn335 O338 2.025 1_655 S
Zn335 O343 2.024 1_655 S
Zn335 O345 2.039 . S
Zn335 O347 2.022 1_565 S
O336 C320 1.251 . S
O336 Zn327 2.039 . S
C337 O342 1.246 1_565 S
C337 O343 1.249 . S
O338 C320 1.254 1_565 S
O338 Zn335 2.025 1_455 S
H339 C331 0.952 . S
H340 C322 0.952 . S
H341 C330 0.948 1_455 S
O342 Zn327 2.034 . S
O342 C337 1.246 1_545 S
O343 Zn335 2.024 1_455 S
O343 C337 1.249 . S
H344 C326 0.948 1_655 S
O345 Zn335 2.039 . S
O345 C349 1.251 . S
O346 Zn327 2.025 1_655 S
O346 C349 1.254 1_545 S
O347 C328 1.269 . S
O347 Zn335 2.022 1_545 S
O348 Zn327 2.024 1_655 S
O348 C328 1.249 . S
C349 O345 1.251 . S
C349 O346 1.254 1_565 S
H350 C323 0.949 . S
H351 C325 0.950 . S
H352 C332 0.949 . S
H353 C334 0.964 . S
C354 O370 1.251 1_565 S
C354 O372 1.254 1_556 S
N355 C356 1.333 . S
N355 C360 1.307 . S
N355 Zn361 2.020 . S
C356 N355 1.333 . S
C356 C357 1.379 . S
C356 H374 0.952 . S
C357 C356 1.379 . S
C357 C358 1.390 . S
C357 H384 0.949 . S
C358 C357 1.390 . S
C358 C359 1.357 . S
C359 C358 1.357 . S
C359 C360 1.370 . S
C359 H385 0.950 . S
C360 N355 1.307 . S
C360 C359 1.370 . S
C360 H378 0.948 . S
Zn361 N355 2.020 . S
Zn361 O370 2.039 . S
Zn361 O376 2.034 1_556 S
Zn361 O380 2.025 1_556 S
Zn361 O382 2.024 . S
C362 O381 1.246 . S
C362 O382 1.249 1_565 S
N363 C364 1.307 . S
N363 C365 1.333 . S
N363 Zn369 2.020 . S
C364 N363 1.307 . S
C364 C368 1.370 . S
C364 H375 0.948 . S
C365 N363 1.333 . S
C365 C366 1.379 . S
C365 H373 0.952 . S
C366 C365 1.379 . S
C366 C367 1.390 . S
C366 H386 0.949 . S
C367 C366 1.390 . S
C367 C368 1.357 . S
C368 C364 1.370 . S
C368 C367 1.357 . S
C368 H387 0.950 . S
Zn369 N363 2.020 . S
Zn369 O372 2.025 . S
Zn369 O377 2.024 . S
Zn369 O379 2.039 . S
Zn369 O381 2.034 1_554 S
O370 C354 1.251 1_545 S
O370 Zn361 2.039 . S
C371 O376 1.246 . S
C371 O377 1.249 1_545 S
O372 C354 1.254 1_554 S
O372 Zn369 2.025 . S
H373 C365 0.952 . S
H374 C356 0.952 . S
H375 C364 0.948 . S
O376 Zn361 2.034 1_554 S
O376 C371 1.246 . S
O377 Zn369 2.024 . S
O377 C371 1.249 1_565 S
H378 C360 0.948 . S
O379 Zn369 2.039 . S
O379 C383 1.251 1_565 S
O380 Zn361 2.025 1_554 S
O380 C383 1.254 . S
O381 C362 1.246 . S
O381 Zn369 2.034 1_556 S
O382 Zn361 2.024 . S
O382 C362 1.249 1_545 S
C383 O379 1.251 1_545 S
C383 O380 1.254 . S
H384 C357 0.949 . S
H385 C359 0.950 . S
H386 C366 0.949 . S
H387 C368 0.950 . S
C388 O404 1.251 . S
C388 O406 1.254 . S
N389 C390 1.333 . S
N389 C394 1.307 . S
N389 Zn395 2.020 . S
C390 N389 1.333 . S
C390 C391 1.379 . S
C390 H408 0.952 . S
C391 C390 1.379 . S
C391 C392 1.390 . S
C391 H418 0.949 . S
C392 C391 1.390 . S
C392 C393 1.357 . S
C393 C392 1.357 . S
C393 C394 1.370 . S
C393 H419 0.950 . S
C394 N389 1.307 . S
C394 C393 1.370 . S
C394 H412 0.948 . S
Zn395 N389 2.020 . S
Zn395 O404 2.039 . S
Zn395 O410 2.034 . S
Zn395 O414 2.025 . S
Zn395 O416 2.024 . S
C396 O415 1.246 . S
C396 O416 1.249 . S
N397 C398 1.307 . S
N397 C399 1.333 . S
N397 Zn403 2.020 . S
C398 N397 1.307 . S
C398 C402 1.370 . S
C398 H409 0.948 . S
C399 N397 1.333 . S
C399 C400 1.379 . S
C399 H407 0.952 . S
C400 C399 1.379 . S
C400 C401 1.390 . S
C400 H420 0.949 . S
C401 C400 1.390 . S
C401 C402 1.357 . S
C402 C398 1.370 . S
C402 C401 1.357 . S
C402 H421 0.950 . S
Zn403 N397 2.020 . S
Zn403 O406 2.025 . S
Zn403 O411 2.024 . S
Zn403 O413 2.039 . S
Zn403 O415 2.034 . S
O404 C388 1.251 . S
O404 Zn395 2.039 . S
C405 O410 1.246 . S
C405 O411 1.249 . S
O406 C388 1.254 . S
O406 Zn403 2.025 . S
H407 C399 0.952 . S
H408 C390 0.952 . S
H409 C398 0.948 . S
O410 Zn395 2.034 . S
O410 C405 1.246 . S
O411 Zn403 2.024 . S
O411 C405 1.249 . S
H412 C394 0.948 . S
O413 Zn403 2.039 . S
O413 C417 1.251 . S
O414 Zn395 2.025 . S
O414 C417 1.254 . S
O415 C396 1.246 . S
O415 Zn403 2.034 . S
O416 Zn395 2.024 . S
O416 C396 1.249 . S
C417 O413 1.251 . S
C417 O414 1.254 . S
H418 C391 0.949 . S
H419 C393 0.950 . S
H420 C400 0.949 . S
H421 C402 0.950 . S
C422 O438 1.251 1_556 S
C422 O440 1.262 . S
N423 C424 1.333 . S
N423 C428 1.307 . S
N423 Zn429 2.020 . S
C424 N423 1.333 . S
C424 C425 1.379 . S
C424 H442 0.952 . S
C425 C424 1.379 . S
C425 C426 1.390 . S
C425 H452 0.949 . S
C426 C425 1.390 . S
C426 C427 1.357 . S
C427 C426 1.357 . S
C427 C428 1.370 . S
C427 H453 0.950 . S
C428 N423 1.307 . S
C428 C427 1.370 . S
C428 H446 0.948 . S
Zn429 N423 2.020 . S
Zn429 O438 2.039 . S
Zn429 O444 2.034 1_655 S
Zn429 O448 2.025 1_655 S
Zn429 O450 2.024 . S
C430 O449 1.246 . S
C430 O450 1.249 1_556 S
N431 C432 1.307 . S
N431 C433 1.333 . S
N431 Zn437 2.020 . S
C432 N431 1.307 . S
C432 C436 1.370 . S
C432 H443 0.948 . S
C433 N431 1.333 . S
C433 C434 1.379 . S
C433 H441 0.952 . S
C434 C433 1.379 . S
C434 C435 1.390 . S
C434 H454 0.949 . S
C435 C434 1.390 . S
C435 C436 1.357 . S
C436 C432 1.370 . S
C436 C435 1.357 . S
C436 H455 0.950 . S
Zn437 N431 2.020 . S
Zn437 O440 2.020 1_455 S
Zn437 O445 2.024 . S
Zn437 O447 2.039 . S
Zn437 O449 2.034 1_455 S
O438 C422 1.251 1_554 S
O438 Zn429 2.039 . S
C439 O444 1.246 . S
C439 O445 1.249 1_554 S
O440 C422 1.262 . S
O440 Zn437 2.020 1_655 S
H441 C433 0.952 . S
H442 C424 0.952 . S
H443 C432 0.948 . S
O444 Zn429 2.034 1_455 S
O444 C439 1.246 . S
O445 Zn437 2.024 . S
O445 C439 1.249 1_556 S
H446 C428 0.948 . S
O447 Zn437 2.039 . S
O447 C451 1.251 1_556 S
O448 Zn429 2.025 1_455 S
O448 C451 1.254 . S
O449 C430 1.246 . S
O449 Zn437 2.034 1_655 S
O450 Zn429 2.024 . S
O450 C430 1.249 1_554 S
C451 O447 1.251 1_554 S
C451 O448 1.254 . S
H452 C425 0.949 . S
H453 C427 0.950 . S
H454 C434 0.949 . S
H455 C436 0.950 . S
H456 C474 0.951 . S
H457 C476 0.951 . S
H458 C478 0.950 . S
H459 C479 0.950 . S
H460 C481 0.950 . S
H461 C484 0.950 . S
H462 C485 0.950 . S
H463 C487 0.950 . S
H464 C488 0.950 . S
H465 C489 0.951 . S
H466 C491 0.951 . S
H467 C493 0.950 . S
H468 C494 0.950 1_655 S
H469 C496 0.950 . S
H470 C499 0.925 1_545 S
H471 C500 0.950 . S
H472 C502 0.950 . S
H473 C503 0.950 . S
C474 H456 0.951 . S
C474 C475 1.366 . S
C474 C476 1.388 . S
C475 C474 1.366 . S
C475 C479 1.385 . S
C476 H457 0.951 . S
C476 C474 1.388 . S
C476 C477 1.366 . S
C477 C476 1.366 . S
C477 C478 1.414 . S
C477 C480 1.499 . S
C478 H458 0.950 . S
C478 C477 1.414 . S
C478 C479 1.374 . S
C479 H459 0.950 . S
C479 C475 1.385 . S
C479 C478 1.374 . S
C480 C477 1.499 . S
C480 C481 1.373 . S
C480 C482 1.389 . S
C481 H460 0.950 . S
C481 C480 1.373 . S
C481 C497 1.377 . S
C482 C480 1.389 . S
C482 C483 1.524 . S
C482 C496 1.377 . S
C483 C482 1.524 . S
C483 C484 1.397 . S
C483 C488 1.363 . S
C484 H461 0.950 . S
C484 C483 1.397 . S
C484 C485 1.334 . S
C485 H462 0.950 . S
C485 C484 1.334 . S
C485 C486 1.287 . S
C486 C485 1.287 . S
C486 C487 1.524 . S
C486 H505 0.913 . S
C487 H463 0.950 . S
C487 C486 1.524 . S
C487 C488 1.415 . S
C488 H464 0.950 . S
C488 C483 1.363 . S
C488 C487 1.415 . S
C489 H465 0.951 . S
C489 C490 1.366 . S
C489 C491 1.388 . S
C490 C489 1.366 . S
C490 C494 1.385 . S
C491 H466 0.951 . S
C491 C489 1.388 . S
C491 C492 1.366 . S
C492 C491 1.366 . S
C492 C493 1.414 . S
C492 C495 1.499 . S
C493 H467 0.950 . S
C493 C492 1.414 . S
C493 C494 1.374 . S
C494 H468 0.950 1_455 S
C494 C490 1.385 . S
C494 C493 1.374 . S
C495 C492 1.499 . S
C495 C496 1.373 . S
C495 C497 1.389 . S
C496 H469 0.950 . S
C496 C482 1.377 . S
C496 C495 1.373 . S
C497 C481 1.377 . S
C497 C495 1.389 . S
C497 C498 1.524 . S
C498 C497 1.524 . S
C498 C499 1.385 1_545 S
C498 C503 1.363 1_545 S
C499 H470 0.925 1_565 S
C499 C498 1.385 1_565 S
C499 C500 1.371 . S
C500 H471 0.950 . S
C500 C499 1.371 . S
C500 C501 1.287 . S
C501 C500 1.287 . S
C501 C502 1.524 . S
C501 H504 0.999 . S
C502 H472 0.950 . S
C502 C501 1.524 . S
C502 C503 1.415 . S
C503 H473 0.950 . S
C503 C498 1.363 1_565 S
C503 C502 1.415 . S
H504 C501 0.999 . S
H505 C486 0.913 . S
H506 C524 0.951 . S
H507 C526 0.951 . S
H508 C528 0.950 . S
H509 C529 0.950 . S
H510 C531 0.950 . S
H511 C534 0.950 . S
H512 C535 0.950 . S
H513 C537 0.992 . S
H514 C538 0.950 1_545 S
H515 C539 0.951 . S
H516 C541 0.951 . S
H517 C543 0.950 1_545 S
H518 C544 0.935 1_545 S
H519 C546 0.950 . S
H520 C549 0.950 . S
H521 C550 0.950 . S
H522 C552 0.950 . S
H523 C553 0.950 . S
C524 H506 0.951 . S
C524 C525 1.366 . S
C524 C526 1.388 . S
C525 C524 1.366 . S
C525 C529 1.385 . S
C526 H507 0.951 . S
C526 C524 1.388 . S
C526 C527 1.366 . S
C527 C526 1.366 . S
C527 C528 1.414 . S
C527 C530 1.499 . S
C528 H508 0.950 . S
C528 C527 1.414 . S
C528 C529 1.374 . S
C529 H509 0.950 . S
C529 C525 1.385 . S
C529 C528 1.374 . S
C530 C527 1.499 . S
C530 C531 1.373 . S
C530 C532 1.389 . S
C531 H510 0.950 . S
C531 C530 1.373 . S
C531 C547 1.377 . S
C532 C530 1.389 . S
C532 C533 1.524 . S
C532 C546 1.377 . S
C533 C532 1.524 . S
C533 C534 1.397 . S
C533 C538 1.363 . S
C534 H511 0.950 . S
C534 C533 1.397 . S
C534 C535 1.334 . S
C535 H512 0.950 . S
C535 C534 1.334 . S
C535 C536 1.287 . S
C536 C535 1.287 . S
C536 C537 1.489 1_565 S
C536 H555 0.913 . S
C537 H513 0.992 . S
C537 C536 1.489 1_545 S
C537 C538 1.403 1_545 S
C538 H514 0.950 1_565 S
C538 C533 1.363 . S
C538 C537 1.403 1_565 S
C539 H515 0.951 . S
C539 C540 1.366 . S
C539 C541 1.388 . S
C540 C539 1.366 . S
C540 C544 1.396 . S
C541 H516 0.951 . S
C541 C539 1.388 . S
C541 C542 1.366 . S
C542 C541 1.366 . S
C542 C543 1.414 . S
C542 C545 1.499 . S
C543 H517 0.950 1_565 S
C543 C542 1.414 . S
C543 C544 1.378 . S
C544 H518 0.935 1_565 S
C544 C540 1.396 . S
C544 C543 1.378 . S
C545 C542 1.499 . S
C545 C546 1.373 . S
C545 C547 1.389 . S
C546 H519 0.950 . S
C546 C532 1.377 . S
C546 C545 1.373 . S
C547 C531 1.377 . S
C547 C545 1.389 . S
C547 C548 1.524 . S
C548 C547 1.524 . S
C548 C549 1.397 . S
C548 C553 1.363 . S
C549 H520 0.950 . S
C549 C548 1.397 . S
C549 C550 1.334 . S
C550 H521 0.950 . S
C550 C549 1.334 . S
C550 C551 1.287 . S
C551 C550 1.287 . S
C551 C552 1.524 . S
C551 H554 0.999 . S
C552 H522 0.950 . S
C552 C551 1.524 . S
C552 C553 1.415 . S
C553 H523 0.950 . S
C553 C548 1.363 . S
C553 C552 1.415 . S
H554 C551 0.999 . S
H555 C536 0.913 . S
H556 C574 0.951 . S
H557 C576 0.951 . S
H558 C578 0.950 . S
H559 C579 0.950 . S
H560 C581 0.950 . S
H561 C584 0.950 . S
H562 C585 0.950 . S
H563 C587 0.950 . S
H564 C588 0.950 . S
H565 C589 0.951 . S
H566 C591 0.951 . S
H567 C593 0.950 . S
H568 C594 0.950 . S
H569 C596 0.950 . S
H570 C599 0.950 . S
H571 C600 0.950 . S
H572 C602 0.950 . S
H573 C603 0.950 . S
C574 H556 0.951 . S
C574 C575 1.366 . S
C574 C576 1.388 . S
C575 C574 1.366 . S
C575 C579 1.385 . S
C576 H557 0.951 . S
C576 C574 1.388 . S
C576 C577 1.366 . S
C577 C576 1.366 . S
C577 C578 1.414 . S
C577 C580 1.499 . S
C578 H558 0.950 . S
C578 C577 1.414 . S
C578 C579 1.374 . S
C579 H559 0.950 . S
C579 C575 1.385 . S
C579 C578 1.374 . S
C580 C577 1.499 . S
C580 C581 1.373 . S
C580 C582 1.389 . S
C581 H560 0.950 . S
C581 C580 1.373 . S
C581 C597 1.377 . S
C582 C580 1.389 . S
C582 C583 1.524 . S
C582 C596 1.377 . S
C583 C582 1.524 . S
C583 C584 1.397 . S
C583 C588 1.363 . S
C584 H561 0.950 . S
C584 C583 1.397 . S
C584 C585 1.334 . S
C585 H562 0.950 . S
C585 C584 1.334 . S
C585 C586 1.287 . S
C586 C585 1.287 . S
C586 C587 1.524 . S
C586 H605 0.913 . S
C587 H563 0.950 . S
C587 C586 1.524 . S
C587 C588 1.415 . S
C588 H564 0.950 . S
C588 C583 1.363 . S
C588 C587 1.415 . S
C589 H565 0.951 . S
C589 C590 1.366 . S
C589 C591 1.388 . S
C590 C589 1.366 . S
C590 C594 1.385 . S
C591 H566 0.951 . S
C591 C589 1.388 . S
C591 C592 1.366 . S
C592 C591 1.366 . S
C592 C593 1.414 . S
C592 C595 1.499 . S
C593 H567 0.950 . S
C593 C592 1.414 . S
C593 C594 1.374 . S
C594 H568 0.950 . S
C594 C590 1.385 . S
C594 C593 1.374 . S
C595 C592 1.499 . S
C595 C596 1.373 . S
C595 C597 1.389 . S
C596 H569 0.950 . S
C596 C582 1.377 . S
C596 C595 1.373 . S
C597 C581 1.377 . S
C597 C595 1.389 . S
C597 C598 1.524 . S
C598 C597 1.524 . S
C598 C599 1.397 . S
C598 C603 1.363 . S
C599 H570 0.950 . S
C599 C598 1.397 . S
C599 C600 1.334 . S
C600 H571 0.950 . S
C600 C599 1.334 . S
C600 C601 1.287 . S
C601 C600 1.287 . S
C601 C602 1.524 . S
C601 H604 0.999 . S
C602 H572 0.950 . S
C602 C601 1.524 . S
C602 C603 1.415 . S
C603 H573 0.950 . S
C603 C598 1.363 . S
C603 C602 1.415 . S
H604 C601 0.999 . S
H605 C586 0.913 . S
H606 C624 0.951 . S
H607 C626 0.951 . S
H608 C628 0.950 . S
H609 C629 0.950 . S
H610 C631 0.950 . S
H611 C634 0.950 . S
H612 C635 0.950 . S
H613 C637 0.950 . S
H614 C638 0.950 . S
H615 C639 0.951 . S
H616 C641 0.951 . S
H617 C643 0.950 . S
H618 C644 0.950 . S
H619 C646 0.950 . S
H620 C649 0.950 . S
H621 C650 0.950 . S
H622 C652 0.950 . S
H623 C653 0.950 . S
C624 H606 0.951 . S
C624 C625 1.366 . S
C624 C626 1.388 . S
C625 C624 1.366 . S
C625 C629 1.385 . S
C626 H607 0.951 . S
C626 C624 1.388 . S
C626 C627 1.366 . S
C627 C626 1.366 . S
C627 C628 1.414 . S
C627 C630 1.499 . S
C628 H608 0.950 . S
C628 C627 1.414 . S
C628 C629 1.374 . S
C629 H609 0.950 . S
C629 C625 1.385 . S
C629 C628 1.374 . S
C630 C627 1.499 . S
C630 C631 1.373 . S
C630 C632 1.389 . S
C631 H610 0.950 . S
C631 C630 1.373 . S
C631 C647 1.377 . S
C632 C630 1.389 . S
C632 C633 1.524 . S
C632 C646 1.377 . S
C633 C632 1.524 . S
C633 C634 1.397 . S
C633 C638 1.363 . S
C634 H611 0.950 . S
C634 C633 1.397 . S
C634 C635 1.334 . S
C635 H612 0.950 . S
C635 C634 1.334 . S
C635 C636 1.287 . S
C636 C635 1.287 . S
C636 C637 1.524 . S
C636 H655 0.913 . S
C637 H613 0.950 . S
C637 C636 1.524 . S
C637 C638 1.415 . S
C638 H614 0.950 . S
C638 C633 1.363 . S
C638 C637 1.415 . S
C639 H615 0.951 . S
C639 C640 1.366 . S
C639 C641 1.388 . S
C640 C639 1.366 . S
C640 C644 1.385 . S
C641 H616 0.951 . S
C641 C639 1.388 . S
C641 C642 1.366 . S
C642 C641 1.366 . S
C642 C643 1.414 . S
C642 C645 1.499 . S
C643 H617 0.950 . S
C643 C642 1.414 . S
C643 C644 1.374 . S
C644 H618 0.950 . S
C644 C640 1.385 . S
C644 C643 1.374 . S
C645 C642 1.499 . S
C645 C646 1.373 . S
C645 C647 1.389 . S
C646 H619 0.950 . S
C646 C632 1.377 . S
C646 C645 1.373 . S
C647 C631 1.377 . S
C647 C645 1.389 . S
C647 C648 1.524 . S
C648 C647 1.524 . S
C648 C649 1.397 . S
C648 C653 1.363 . S
C649 H620 0.950 . S
C649 C648 1.397 . S
C649 C650 1.334 . S
C650 H621 0.950 . S
C650 C649 1.334 . S
C650 C651 1.287 . S
C651 C650 1.287 . S
C651 C652 1.524 . S
C651 H654 0.999 . S
C652 H622 0.950 . S
C652 C651 1.524 . S
C652 C653 1.415 . S
C653 H623 0.950 . S
C653 C648 1.363 . S
C653 C652 1.415 . S
H654 C651 0.999 . S
H655 C636 0.913 . S
H656 C674 0.951 . S
H657 C676 0.951 . S
H658 C678 0.950 . S
H659 C679 0.950 . S
H660 C681 0.950 . S
H661 C684 0.950 . S
H662 C685 0.950 . S
H663 C687 0.950 . S
H664 C688 0.950 . S
H665 C689 0.947 1_556 S
H666 C691 0.951 . S
H667 C693 0.950 . S
H668 C694 0.950 . S
H669 C696 0.950 . S
H670 C699 0.923 1_545 S
H671 C700 0.950 . S
H672 C702 0.950 . S
H673 C703 0.959 . S
C674 H656 0.951 . S
C674 C675 1.366 . S
C674 C676 1.388 . S
C675 C674 1.366 . S
C675 C679 1.385 . S
C676 H657 0.951 . S
C676 C674 1.388 . S
C676 C677 1.366 . S
C677 C676 1.366 . S
C677 C678 1.414 . S
C677 C680 1.499 . S
C678 H658 0.950 . S
C678 C677 1.414 . S
C678 C679 1.374 . S
C679 H659 0.950 . S
C679 C675 1.385 . S
C679 C678 1.374 . S
C680 C677 1.499 . S
C680 C681 1.373 . S
C680 C682 1.389 . S
C681 H660 0.950 . S
C681 C680 1.373 . S
C681 C697 1.377 . S
C682 C680 1.389 . S
C682 C683 1.524 . S
C682 C696 1.377 . S
C683 C682 1.524 . S
C683 C684 1.397 . S
C683 C688 1.363 . S
C684 H661 0.950 . S
C684 C683 1.397 . S
C684 C685 1.334 . S
C685 H662 0.950 . S
C685 C684 1.334 . S
C685 C686 1.287 . S
C686 C685 1.287 . S
C686 C687 1.524 . S
C686 H705 0.913 . S
C687 H663 0.950 . S
C687 C686 1.524 . S
C687 C688 1.415 . S
C688 H664 0.950 . S
C688 C683 1.363 . S
C688 C687 1.415 . S
C689 H665 0.947 1_554 S
C689 C690 1.366 . S
C689 C691 1.388 . S
C690 C689 1.366 . S
C690 C694 1.385 . S
C691 H666 0.951 . S
C691 C689 1.388 . S
C691 C692 1.366 . S
C692 C691 1.366 . S
C692 C693 1.414 . S
C692 C695 1.499 . S
C693 H667 0.950 . S
C693 C692 1.414 . S
C693 C694 1.374 . S
C694 H668 0.950 . S
C694 C690 1.385 . S
C694 C693 1.374 . S
C695 C692 1.499 . S
C695 C696 1.373 . S
C695 C697 1.389 . S
C696 H669 0.950 . S
C696 C682 1.377 . S
C696 C695 1.373 . S
C697 C681 1.377 . S
C697 C695 1.389 . S
C697 C698 1.524 . S
C698 C697 1.524 . S
C698 C699 1.397 1_545 S
C698 C703 1.363 1_545 S
C699 H670 0.923 1_565 S
C699 C698 1.397 1_565 S
C699 C700 1.334 . S
C700 H671 0.950 . S
C700 C699 1.334 . S
C700 C701 1.287 . S
C701 C700 1.287 . S
C701 C702 1.524 . S
C701 H704 0.999 . S
C702 H672 0.950 . S
C702 C701 1.524 . S
C702 C703 1.415 . S
C703 H673 0.959 . S
C703 C698 1.363 1_565 S
C703 C702 1.415 . S
H704 C701 0.999 . S
H705 C686 0.913 . S
H706 C724 0.951 . S
H707 C726 0.951 . S
H708 C728 0.950 . S
H709 C729 0.950 . S
H710 C731 0.950 . S
H711 C734 0.950 . S
H712 C735 0.950 . S
H713 C737 0.950 . S
H714 C738 0.950 . S
H715 C739 0.951 . S
H716 C741 0.951 . S
H717 C743 0.950 . S
H718 C744 0.950 . S
H719 C746 0.950 . S
H720 C749 0.950 . S
H721 C750 0.950 . S
H722 C752 0.950 . S
H723 C753 0.950 . S
C724 H706 0.951 . S
C724 C725 1.366 . S
C724 C726 1.388 . S
C725 C724 1.366 . S
C725 C729 1.385 . S
C726 H707 0.951 . S
C726 C724 1.388 . S
C726 C727 1.366 . S
C727 C726 1.366 . S
C727 C728 1.414 . S
C727 C730 1.499 . S
C728 H708 0.950 . S
C728 C727 1.414 . S
C728 C729 1.374 . S
C729 H709 0.950 . S
C729 C725 1.385 . S
C729 C728 1.374 . S
C730 C727 1.499 . S
C730 C731 1.373 . S
C730 C732 1.389 . S
C731 H710 0.950 . S
C731 C730 1.373 . S
C731 C747 1.377 . S
C732 C730 1.389 . S
C732 C733 1.524 . S
C732 C746 1.377 . S
C733 C732 1.524 . S
C733 C734 1.397 . S
C733 C738 1.363 . S
C734 H711 0.950 . S
C734 C733 1.397 . S
C734 C735 1.334 . S
C735 H712 0.950 . S
C735 C734 1.334 . S
C735 C736 1.287 . S
C736 C735 1.287 . S
C736 C737 1.524 . S
C736 H755 0.913 . S
C737 H713 0.950 . S
C737 C736 1.524 . S
C737 C738 1.415 . S
C738 H714 0.950 . S
C738 C733 1.363 . S
C738 C737 1.415 . S
C739 H715 0.951 . S
C739 C740 1.366 . S
C739 C741 1.388 . S
C740 C739 1.366 . S
C740 C744 1.385 . S
C741 H716 0.951 . S
C741 C739 1.388 . S
C741 C742 1.366 . S
C742 C741 1.366 . S
C742 C743 1.414 . S
C742 C745 1.499 . S
C743 H717 0.950 . S
C743 C742 1.414 . S
C743 C744 1.374 . S
C744 H718 0.950 . S
C744 C740 1.385 . S
C744 C743 1.374 . S
C745 C742 1.499 . S
C745 C746 1.373 . S
C745 C747 1.389 . S
C746 H719 0.950 . S
C746 C732 1.377 . S
C746 C745 1.373 . S
C747 C731 1.377 . S
C747 C745 1.389 . S
C747 C748 1.524 . S
C748 C747 1.524 . S
C748 C749 1.397 1_565 S
C748 C753 1.363 . S
C749 H720 0.950 . S
C749 C748 1.397 1_545 S
C749 C750 1.334 . S
C750 H721 0.950 . S
C750 C749 1.334 . S
C750 C751 1.287 . S
C751 C750 1.287 . S
C751 C752 1.524 . S
C751 H754 0.999 . S
C752 H722 0.950 . S
C752 C751 1.524 . S
C752 C753 1.415 1_545 S
C753 H723 0.950 . S
C753 C748 1.363 . S
C753 C752 1.415 1_565 S
H754 C751 0.999 . S
H755 C736 0.913 . S
H756 C774 0.951 . S
H757 C776 0.951 . S
H758 C778 0.950 . S
H759 C779 0.950 . S
H760 C781 0.950 . S
H761 C784 0.950 . S
H762 C785 0.950 . S
H763 C787 0.950 . S
H764 C788 0.950 . S
H765 C789 0.951 1_554 S
H766 C791 0.951 1_554 S
H767 C793 0.950 . S
H768 C794 0.950 . S
H769 C796 0.950 . S
H770 C799 0.950 1_556 S
H771 C800 0.950 . S
H772 C802 0.950 . S
H773 C803 0.950 . S
C774 H756 0.951 . S
C774 C775 1.366 . S
C774 C776 1.388 . S
C775 C774 1.366 . S
C775 C779 1.385 . S
C776 H757 0.951 . S
C776 C774 1.388 . S
C776 C777 1.366 . S
C777 C776 1.366 . S
C777 C778 1.414 . S
C777 C780 1.499 . S
C778 H758 0.950 . S
C778 C777 1.414 . S
C778 C779 1.374 . S
C779 H759 0.950 . S
C779 C775 1.385 . S
C779 C778 1.374 . S
C780 C777 1.499 . S
C780 C781 1.373 . S
C780 C782 1.389 . S
C781 H760 0.950 . S
C781 C780 1.373 . S
C781 C797 1.377 . S
C782 C780 1.389 . S
C782 C783 1.524 . S
C782 C796 1.377 . S
C783 C782 1.524 . S
C783 C784 1.397 . S
C783 C788 1.363 . S
C784 H761 0.950 . S
C784 C783 1.397 . S
C784 C785 1.334 . S
C785 H762 0.950 . S
C785 C784 1.334 . S
C785 C786 1.287 . S
C786 C785 1.287 . S
C786 C787 1.524 . S
C786 H805 0.913 . S
C787 H763 0.950 . S
C787 C786 1.524 . S
C787 C788 1.415 . S
C788 H764 0.950 . S
C788 C783 1.363 . S
C788 C787 1.415 . S
C789 H765 0.951 1_556 S
C789 C790 1.366 . S
C789 C791 1.388 . S
C790 C789 1.366 . S
C790 C794 1.385 . S
C791 H766 0.951 1_556 S
C791 C789 1.388 . S
C791 C792 1.366 . S
C792 C791 1.366 . S
C792 C793 1.414 . S
C792 C795 1.499 . S
C793 H767 0.950 . S
C793 C792 1.414 . S
C793 C794 1.374 . S
C794 H768 0.950 . S
C794 C790 1.385 . S
C794 C793 1.374 . S
C795 C792 1.499 . S
C795 C796 1.373 . S
C795 C797 1.389 . S
C796 H769 0.950 . S
C796 C782 1.377 . S
C796 C795 1.373 . S
C797 C781 1.377 . S
C797 C795 1.389 . S
C797 C798 1.524 1_556 S
C798 C797 1.524 1_554 S
C798 C799 1.397 . S
C798 C803 1.363 . S
C799 H770 0.950 1_554 S
C799 C798 1.397 . S
C799 C800 1.334 . S
C800 H771 0.950 . S
C800 C799 1.334 . S
C800 C801 1.287 . S
C801 C800 1.287 . S
C801 C802 1.524 . S
C801 H804 0.999 . S
C802 H772 0.950 . S
C802 C801 1.524 . S
C802 C803 1.415 . S
C803 H773 0.950 . S
C803 C798 1.363 . S
C803 C802 1.415 . S
H804 C801 0.999 . S
H805 C786 0.913 . S
H806 C824 0.951 . S
H807 C826 0.951 . S
H808 C828 0.950 . S
H809 C829 0.950 . S
H810 C831 0.950 . S
H811 C834 0.950 . S
H812 C835 0.950 . S
H813 C837 0.950 . S
H814 C838 0.950 . S
H815 C839 0.951 . S
H816 C841 0.951 . S
H817 C843 0.950 . S
H818 C844 0.950 . S
H819 C846 0.950 . S
H820 C849 0.950 . S
H821 C850 0.950 . S
H822 C852 0.950 . S
H823 C853 0.950 . S
C824 H806 0.951 . S
C824 C825 1.366 . S
C824 C826 1.388 . S
C825 C824 1.366 . S
C825 C829 1.385 . S
C826 H807 0.951 . S
C826 C824 1.388 . S
C826 C827 1.366 . S
C827 C826 1.366 . S
C827 C828 1.414 . S
C827 C830 1.499 . S
C828 H808 0.950 . S
C828 C827 1.414 . S
C828 C829 1.374 . S
C829 H809 0.950 . S
C829 C825 1.385 . S
C829 C828 1.374 . S
C830 C827 1.499 . S
C830 C831 1.373 . S
C830 C832 1.389 . S
C831 H810 0.950 . S
C831 C830 1.373 . S
C831 C847 1.377 . S
C832 C830 1.389 . S
C832 C833 1.524 . S
C832 C846 1.377 . S
C833 C832 1.524 . S
C833 C834 1.397 . S
C833 C838 1.363 . S
C834 H811 0.950 . S
C834 C833 1.397 . S
C834 C835 1.334 . S
C835 H812 0.950 . S
C835 C834 1.334 . S
C835 C836 1.287 . S
C836 C835 1.287 . S
C836 C837 1.524 . S
C836 H855 0.913 . S
C837 H813 0.950 . S
C837 C836 1.524 . S
C837 C838 1.415 . S
C838 H814 0.950 . S
C838 C833 1.363 . S
C838 C837 1.415 . S
C839 H815 0.951 . S
C839 C840 1.366 . S
C839 C841 1.388 . S
C840 C839 1.366 . S
C840 C844 1.385 . S
C841 H816 0.951 . S
C841 C839 1.388 . S
C841 C842 1.366 . S
C842 C841 1.366 . S
C842 C843 1.414 . S
C842 C845 1.499 . S
C843 H817 0.950 . S
C843 C842 1.414 . S
C843 C844 1.374 . S
C844 H818 0.950 . S
C844 C840 1.385 . S
C844 C843 1.374 . S
C845 C842 1.499 . S
C845 C846 1.373 . S
C845 C847 1.389 . S
C846 H819 0.950 . S
C846 C832 1.377 . S
C846 C845 1.373 . S
C847 C831 1.377 . S
C847 C845 1.389 . S
C847 C848 1.524 . S
C848 C847 1.524 . S
C848 C849 1.397 . S
C848 C853 1.363 . S
C849 H820 0.950 . S
C849 C848 1.397 . S
C849 C850 1.334 . S
C850 H821 0.950 . S
C850 C849 1.334 . S
C850 C851 1.287 . S
C851 C850 1.287 . S
C851 C852 1.524 . S
C851 H854 0.999 . S
C852 H822 0.950 . S
C852 C851 1.524 . S
C852 C853 1.415 . S
C853 H823 0.950 . S
C853 C848 1.363 . S
C853 C852 1.415 . S
H854 C851 0.999 . S
H855 C836 0.913 . S
H856 C874 0.951 . S
H857 C876 0.951 . S
H858 C878 0.950 . S
H859 C879 0.950 . S
H860 C881 0.950 . S
H861 C884 0.950 . S
H862 C885 0.950 . S
H863 C887 0.950 . S
H864 C888 0.950 . S
H865 C889 0.951 1_655 S
H866 C891 0.951 . S
H867 C893 0.950 . S
H868 C894 0.950 . S
H869 C896 0.950 . S
H870 C899 0.967 . S
H871 C900 0.950 . S
H872 C902 0.950 . S
H873 C903 0.950 . S
C874 H856 0.951 . S
C874 C875 1.366 . S
C874 C876 1.388 . S
C875 C874 1.366 . S
C875 C879 1.385 . S
C876 H857 0.951 . S
C876 C874 1.388 . S
C876 C877 1.366 . S
C877 C876 1.366 . S
C877 C878 1.414 . S
C877 C880 1.499 . S
C878 H858 0.950 . S
C878 C877 1.414 . S
C878 C879 1.374 . S
C879 H859 0.950 . S
C879 C875 1.385 . S
C879 C878 1.374 . S
C880 C877 1.499 . S
C880 C881 1.373 . S
C880 C882 1.389 . S
C881 H860 0.950 . S
C881 C880 1.373 . S
C881 C897 1.377 . S
C882 C880 1.389 . S
C882 C883 1.524 . S
C882 C896 1.377 . S
C883 C882 1.524 . S
C883 C884 1.397 . S
C883 C888 1.363 . S
C884 H861 0.950 . S
C884 C883 1.397 . S
C884 C885 1.334 . S
C885 H862 0.950 . S
C885 C884 1.334 . S
C885 C886 1.287 . S
C886 C885 1.287 . S
C886 C887 1.524 . S
C886 H905 0.913 . S
C887 H863 0.950 . S
C887 C886 1.524 . S
C887 C888 1.415 . S
C888 H864 0.950 . S
C888 C883 1.363 . S
C888 C887 1.415 . S
C889 H865 0.951 1_455 S
C889 C890 1.366 . S
C889 C891 1.388 . S
C890 C889 1.366 . S
C890 C894 1.385 . S
C891 H866 0.951 . S
C891 C889 1.388 . S
C891 C892 1.366 . S
C892 C891 1.366 . S
C892 C893 1.414 . S
C892 C895 1.499 . S
C893 H867 0.950 . S
C893 C892 1.414 . S
C893 C894 1.374 . S
C894 H868 0.950 . S
C894 C890 1.385 . S
C894 C893 1.374 . S
C895 C892 1.499 . S
C895 C896 1.373 . S
C895 C897 1.389 . S
C896 H869 0.950 . S
C896 C882 1.377 . S
C896 C895 1.373 . S
C897 C881 1.377 . S
C897 C895 1.389 . S
C897 C898 1.524 . S
C898 C897 1.524 . S
C898 C899 1.397 . S
C898 C903 1.363 1_455 S
C899 H870 0.967 . S
C899 C898 1.397 . S
C899 C900 1.334 1_454 S
C900 H871 0.950 . S
C900 C899 1.334 1_656 S
C900 C901 1.287 . S
C901 C900 1.287 . S
C901 C902 1.524 1_556 S
C901 H904 0.999 . S
C902 H872 0.950 . S
C902 C901 1.524 1_554 S
C902 C903 1.415 . S
C903 H873 0.950 . S
C903 C898 1.363 1_655 S
C903 C902 1.415 . S
H904 C901 0.999 . S
H905 C886 0.913 . S
H906 C924 0.951 . S
H907 C926 0.951 . S
H908 C928 0.950 . S
H909 C929 0.950 . S
H910 C931 0.950 . S
H911 C934 0.950 . S
H912 C935 0.950 . S
H913 C937 0.950 . S
H914 C938 0.950 . S
H915 C939 0.951 . S
H916 C941 0.951 . S
H917 C943 0.950 . S
H918 C944 0.950 . S
H919 C946 0.950 . S
H920 C949 0.950 . S
H921 C950 0.950 . S
H922 C952 0.950 . S
H923 C953 0.950 . S
C924 H906 0.951 . S
C924 C925 1.366 . S
C924 C926 1.388 . S
C925 C924 1.366 . S
C925 C929 1.385 . S
C926 H907 0.951 . S
C926 C924 1.388 . S
C926 C927 1.366 . S
C927 C926 1.366 . S
C927 C928 1.414 . S
C927 C930 1.499 . S
C928 H908 0.950 . S
C928 C927 1.414 . S
C928 C929 1.374 . S
C929 H909 0.950 . S
C929 C925 1.385 . S
C929 C928 1.374 . S
C930 C927 1.499 . S
C930 C931 1.373 . S
C930 C932 1.389 . S
C931 H910 0.950 . S
C931 C930 1.373 . S
C931 C947 1.377 . S
C932 C930 1.389 . S
C932 C933 1.524 . S
C932 C946 1.377 . S
C933 C932 1.524 . S
C933 C934 1.397 . S
C933 C938 1.363 . S
C934 H911 0.950 . S
C934 C933 1.397 . S
C934 C935 1.334 . S
C935 H912 0.950 . S
C935 C934 1.334 . S
C935 C936 1.287 . S
C936 C935 1.287 . S
C936 C937 1.524 . S
C936 H955 0.913 . S
C937 H913 0.950 . S
C937 C936 1.524 . S
C937 C938 1.415 . S
C938 H914 0.950 . S
C938 C933 1.363 . S
C938 C937 1.415 . S
C939 H915 0.951 . S
C939 C940 1.366 . S
C939 C941 1.388 . S
C940 C939 1.366 . S
C940 C944 1.385 . S
C941 H916 0.951 . S
C941 C939 1.388 . S
C941 C942 1.366 . S
C942 C941 1.366 . S
C942 C943 1.414 . S
C942 C945 1.499 . S
C943 H917 0.950 . S
C943 C942 1.414 . S
C943 C944 1.374 . S
C944 H918 0.950 . S
C944 C940 1.385 . S
C944 C943 1.374 . S
C945 C942 1.499 . S
C945 C946 1.373 . S
C945 C947 1.389 . S
C946 H919 0.950 . S
C946 C932 1.377 . S
C946 C945 1.373 . S
C947 C931 1.377 . S
C947 C945 1.389 . S
C947 C948 1.524 . S
C948 C947 1.524 . S
C948 C949 1.397 . S
C948 C953 1.363 . S
C949 H920 0.950 . S
C949 C948 1.397 . S
C949 C950 1.334 . S
C950 H921 0.950 . S
C950 C949 1.334 . S
C950 C951 1.287 . S
C951 C950 1.287 . S
C951 C952 1.524 . S
C951 H954 0.999 . S
C952 H922 0.950 . S
C952 C951 1.524 . S
C952 C953 1.415 . S
C953 H923 0.950 . S
C953 C948 1.363 . S
C953 C952 1.415 . S
H954 C951 0.999 . S
H955 C936 0.913 . S
H956 C974 0.951 . S
H957 C976 0.951 . S
H958 C978 0.950 . S
H959 C979 0.950 . S
H960 C981 0.950 . S
H961 C984 0.950 . S
H962 C985 0.950 . S
H963 C987 0.950 . S
H964 C988 0.950 . S
H965 C989 0.951 . S
H966 C991 0.951 . S
H967 C993 0.950 . S
H968 C994 0.950 . S
H969 C996 0.950 . S
H970 C999 0.950 . S
H971 C1000 0.950 . S
H972 C1002 0.950 . S
H973 C1003 0.950 . S
C974 H956 0.951 . S
C974 C975 1.366 . S
C974 C976 1.388 . S
C975 C974 1.366 . S
C975 C979 1.385 . S
C976 H957 0.951 . S
C976 C974 1.388 . S
C976 C977 1.366 . S
C977 C976 1.366 . S
C977 C978 1.414 . S
C977 C980 1.499 . S
C978 H958 0.950 . S
C978 C977 1.414 . S
C978 C979 1.374 . S
C979 H959 0.950 . S
C979 C975 1.385 . S
C979 C978 1.374 . S
C980 C977 1.499 . S
C980 C981 1.373 . S
C980 C982 1.389 . S
C981 H960 0.950 . S
C981 C980 1.373 . S
C981 C997 1.377 . S
C982 C980 1.389 . S
C982 C983 1.524 . S
C982 C996 1.377 . S
C983 C982 1.524 . S
C983 C984 1.397 . S
C983 C988 1.363 . S
C984 H961 0.950 . S
C984 C983 1.397 . S
C984 C985 1.334 . S
C985 H962 0.950 . S
C985 C984 1.334 . S
C985 C986 1.287 . S
C986 C985 1.287 . S
C986 C987 1.524 . S
C986 H1005 0.913 . S
C987 H963 0.950 . S
C987 C986 1.524 . S
C987 C988 1.415 . S
C988 H964 0.950 . S
C988 C983 1.363 . S
C988 C987 1.415 . S
C989 H965 0.951 . S
C989 C990 1.366 . S
C989 C991 1.388 . S
C990 C989 1.366 . S
C990 C994 1.385 . S
C991 H966 0.951 . S
C991 C989 1.388 . S
C991 C992 1.366 . S
C992 C991 1.366 . S
C992 C993 1.414 . S
C992 C995 1.499 . S
C993 H967 0.950 . S
C993 C992 1.414 . S
C993 C994 1.374 . S
C994 H968 0.950 . S
C994 C990 1.385 . S
C994 C993 1.374 . S
C995 C992 1.499 . S
C995 C996 1.373 . S
C995 C997 1.389 . S
C996 H969 0.950 . S
C996 C982 1.377 . S
C996 C995 1.373 . S
C997 C981 1.377 . S
C997 C995 1.389 . S
C997 C998 1.524 . S
C998 C997 1.524 . S
C998 C999 1.397 . S
C998 C1003 1.363 . S
C999 H970 0.950 . S
C999 C998 1.397 . S
C999 C1000 1.334 . S
C1000 H971 0.950 . S
C1000 C999 1.334 . S
C1000 C1001 1.287 . S
C1001 C1000 1.287 . S
C1001 C1002 1.524 . S
C1001 H1004 0.999 . S
C1002 H972 0.950 . S
C1002 C1001 1.524 . S
C1002 C1003 1.415 . S
C1003 H973 0.950 . S
C1003 C998 1.363 . S
C1003 C1002 1.415 . S
H1004 C1001 0.999 . S
H1005 C986 0.913 . S
H1006 C1024 0.951 . S
H1007 C1026 0.951 . S
H1008 C1028 0.950 . S
H1009 C1029 0.950 . S
H1010 C1031 0.950 . S
H1011 C1034 0.950 . S
H1012 C1035 0.950 . S
H1013 C1037 0.950 . S
H1014 C1038 0.950 . S
H1015 C1039 0.951 . S
H1016 C1041 0.951 . S
H1017 C1043 0.950 . S
H1018 C1044 0.950 . S
H1019 C1046 0.950 . S
H1020 C1049 0.950 . S
H1021 C1050 0.950 . S
H1022 C1052 0.950 . S
H1023 C1053 0.950 . S
C1024 H1006 0.951 . S
C1024 C1025 1.366 . S
C1024 C1026 1.388 . S
C1025 C1024 1.366 . S
C1025 C1029 1.385 . S
C1026 H1007 0.951 . S
C1026 C1024 1.388 . S
C1026 C1027 1.366 . S
C1027 C1026 1.366 . S
C1027 C1028 1.414 . S
C1027 C1030 1.499 . S
C1028 H1008 0.950 . S
C1028 C1027 1.414 . S
C1028 C1029 1.374 . S
C1029 H1009 0.950 . S
C1029 C1025 1.385 . S
C1029 C1028 1.374 . S
C1030 C1027 1.499 . S
C1030 C1031 1.373 . S
C1030 C1032 1.389 . S
C1031 H1010 0.950 . S
C1031 C1030 1.373 . S
C1031 C1047 1.377 . S
C1032 C1030 1.389 . S
C1032 C1033 1.524 . S
C1032 C1046 1.377 . S
C1033 C1032 1.524 . S
C1033 C1034 1.397 . S
C1033 C1038 1.363 . S
C1034 H1011 0.950 . S
C1034 C1033 1.397 . S
C1034 C1035 1.334 . S
C1035 H1012 0.950 . S
C1035 C1034 1.334 . S
C1035 C1036 1.287 . S
C1036 C1035 1.287 . S
C1036 C1037 1.524 . S
C1036 H1055 0.913 . S
C1037 H1013 0.950 . S
C1037 C1036 1.524 . S
C1037 C1038 1.415 . S
C1038 H1014 0.950 . S
C1038 C1033 1.363 . S
C1038 C1037 1.415 . S
C1039 H1015 0.951 . S
C1039 C1040 1.366 . S
C1039 C1041 1.388 . S
C1040 C1039 1.366 . S
C1040 C1044 1.385 . S
C1041 H1016 0.951 . S
C1041 C1039 1.388 . S
C1041 C1042 1.366 . S
C1042 C1041 1.366 . S
C1042 C1043 1.414 . S
C1042 C1045 1.499 . S
C1043 H1017 0.950 . S
C1043 C1042 1.414 . S
C1043 C1044 1.374 . S
C1044 H1018 0.950 . S
C1044 C1040 1.385 . S
C1044 C1043 1.374 . S
C1045 C1042 1.499 . S
C1045 C1046 1.373 . S
C1045 C1047 1.389 . S
C1046 H1019 0.950 . S
C1046 C1032 1.377 . S
C1046 C1045 1.373 . S
C1047 C1031 1.377 . S
C1047 C1045 1.389 . S
C1047 C1048 1.524 . S
C1048 C1047 1.524 . S
C1048 C1049 1.397 . S
C1048 C1053 1.363 . S
C1049 H1020 0.950 . S
C1049 C1048 1.397 . S
C1049 C1050 1.334 . S
C1050 H1021 0.950 . S
C1050 C1049 1.334 . S
C1050 C1051 1.287 . S
C1051 C1050 1.287 . S
C1051 C1052 1.524 . S
C1051 H1054 0.999 . S
C1052 H1022 0.950 . S
C1052 C1051 1.524 . S
C1052 C1053 1.415 . S
C1053 H1023 0.950 . S
C1053 C1048 1.363 . S
C1053 C1052 1.415 . S
H1054 C1051 0.999 . S
H1055 C1036 0.913 . S
H1056 C1074 0.951 . S
H1057 C1076 0.951 . S
H1058 C1078 0.950 . S
H1059 C1079 0.950 . S
H1060 C1081 0.950 . S
H1061 C1084 0.950 . S
H1062 C1085 0.950 . S
H1063 C1087 0.950 . S
H1064 C1088 0.950 . S
H1065 C1089 0.951 1_455 S
H1066 C1091 0.951 1_455 S
H1067 C1093 0.950 . S
H1068 C1094 0.950 . S
H1069 C1096 0.950 . S
H1070 C1099 0.950 . S
H1071 C1100 0.950 . S
H1072 C1102 0.950 . S
H1073 C1103 0.950 . S
C1074 H1056 0.951 . S
C1074 C1075 1.366 . S
C1074 C1076 1.388 . S
C1075 C1074 1.366 . S
C1075 C1079 1.385 . S
C1076 H1057 0.951 . S
C1076 C1074 1.388 . S
C1076 C1077 1.366 . S
C1077 C1076 1.366 . S
C1077 C1078 1.414 . S
C1077 C1080 1.499 . S
C1078 H1058 0.950 . S
C1078 C1077 1.414 . S
C1078 C1079 1.374 . S
C1079 H1059 0.950 . S
C1079 C1075 1.385 . S
C1079 C1078 1.374 . S
C1080 C1077 1.499 . S
C1080 C1081 1.373 . S
C1080 C1082 1.389 . S
C1081 H1060 0.950 . S
C1081 C1080 1.373 . S
C1081 C1097 1.377 . S
C1082 C1080 1.389 . S
C1082 C1083 1.524 . S
C1082 C1096 1.377 . S
C1083 C1082 1.524 . S
C1083 C1084 1.397 . S
C1083 C1088 1.363 . S
C1084 H1061 0.950 . S
C1084 C1083 1.397 . S
C1084 C1085 1.334 . S
C1085 H1062 0.950 . S
C1085 C1084 1.334 . S
C1085 C1086 1.287 . S
C1086 C1085 1.287 . S
C1086 C1087 1.524 . S
C1086 H1105 0.913 . S
C1087 H1063 0.950 . S
C1087 C1086 1.524 . S
C1087 C1088 1.415 . S
C1088 H1064 0.950 . S
C1088 C1083 1.363 . S
C1088 C1087 1.415 . S
C1089 H1065 0.951 1_655 S
C1089 C1090 1.366 . S
C1089 C1091 1.388 . S
C1090 C1089 1.366 . S
C1090 C1094 1.385 . S
C1091 H1066 0.951 1_655 S
C1091 C1089 1.388 . S
C1091 C1092 1.366 . S
C1092 C1091 1.366 . S
C1092 C1093 1.414 . S
C1092 C1095 1.499 . S
C1093 H1067 0.950 . S
C1093 C1092 1.414 . S
C1093 C1094 1.374 . S
C1094 H1068 0.950 . S
C1094 C1090 1.385 . S
C1094 C1093 1.374 . S
C1095 C1092 1.499 . S
C1095 C1096 1.373 . S
C1095 C1097 1.389 . S
C1096 H1069 0.950 . S
C1096 C1082 1.377 . S
C1096 C1095 1.373 . S
C1097 C1081 1.377 . S
C1097 C1095 1.389 . S
C1097 C1098 1.524 . S
C1098 C1097 1.524 . S
C1098 C1099 1.397 1_565 S
C1098 C1103 1.363 1_655 S
C1099 H1070 0.950 . S
C1099 C1098 1.397 1_545 S
C1099 C1100 1.334 . S
C1100 H1071 0.950 . S
C1100 C1099 1.334 . S
C1100 C1101 1.287 1_655 S
C1101 C1100 1.287 1_455 S
C1101 C1102 1.524 . S
C1101 H1104 0.999 . S
C1102 H1072 0.950 . S
C1102 C1101 1.524 . S
C1102 C1103 1.415 1_545 S
C1103 H1073 0.950 . S
C1103 C1098 1.363 1_455 S
C1103 C1102 1.415 1_565 S
H1104 C1101 0.999 . S
H1105 C1086 0.913 . S
H1106 C1124 0.951 . S
H1107 C1126 0.951 . S
H1108 C1128 0.950 . S
H1109 C1129 0.950 . S
H1110 C1131 0.950 . S
H1111 C1134 0.950 . S
H1112 C1135 0.950 . S
H1113 C1137 0.950 . S
H1114 C1138 0.950 . S
H1115 C1139 0.951 . S
H1116 C1141 0.951 . S
H1117 C1143 0.950 . S
H1118 C1144 0.950 . S
H1119 C1146 0.950 . S
H1120 C1149 0.950 . S
H1121 C1150 0.950 . S
H1122 C1152 0.950 . S
H1123 C1153 0.950 . S
C1124 H1106 0.951 . S
C1124 C1125 1.366 . S
C1124 C1126 1.388 . S
C1125 C1124 1.366 . S
C1125 C1129 1.385 . S
C1126 H1107 0.951 . S
C1126 C1124 1.388 . S
C1126 C1127 1.366 . S
C1127 C1126 1.366 . S
C1127 C1128 1.414 . S
C1127 C1130 1.499 . S
C1128 H1108 0.950 . S
C1128 C1127 1.414 . S
C1128 C1129 1.374 . S
C1129 H1109 0.950 . S
C1129 C1125 1.385 . S
C1129 C1128 1.374 . S
C1130 C1127 1.499 . S
C1130 C1131 1.373 . S
C1130 C1132 1.389 . S
C1131 H1110 0.950 . S
C1131 C1130 1.373 . S
C1131 C1147 1.377 . S
C1132 C1130 1.389 . S
C1132 C1133 1.524 . S
C1132 C1146 1.377 . S
C1133 C1132 1.524 . S
C1133 C1134 1.397 . S
C1133 C1138 1.363 . S
C1134 H1111 0.950 . S
C1134 C1133 1.397 . S
C1134 C1135 1.334 1_545 S
C1135 H1112 0.950 . S
C1135 C1134 1.334 1_565 S
C1135 C1136 1.287 . S
C1136 C1135 1.287 . S
C1136 C1137 1.524 . S
C1136 H1155 0.913 . S
C1137 H1113 0.950 . S
C1137 C1136 1.524 . S
C1137 C1138 1.415 1_565 S
C1138 H1114 0.950 . S
C1138 C1133 1.363 . S
C1138 C1137 1.415 1_545 S
C1139 H1115 0.951 . S
C1139 C1140 1.366 . S
C1139 C1141 1.388 . S
C1140 C1139 1.366 . S
C1140 C1144 1.385 . S
C1141 H1116 0.951 . S
C1141 C1139 1.388 . S
C1141 C1142 1.366 . S
C1142 C1141 1.366 . S
C1142 C1143 1.414 . S
C1142 C1145 1.499 . S
C1143 H1117 0.950 . S
C1143 C1142 1.414 . S
C1143 C1144 1.374 . S
C1144 H1118 0.950 . S
C1144 C1140 1.385 . S
C1144 C1143 1.374 . S
C1145 C1142 1.499 . S
C1145 C1146 1.373 . S
C1145 C1147 1.389 . S
C1146 H1119 0.950 . S
C1146 C1132 1.377 . S
C1146 C1145 1.373 . S
C1147 C1131 1.377 . S
C1147 C1145 1.389 . S
C1147 C1148 1.524 . S
C1148 C1147 1.524 . S
C1148 C1149 1.397 . S
C1148 C1153 1.363 . S
C1149 H1120 0.950 . S
C1149 C1148 1.397 . S
C1149 C1150 1.334 . S
C1150 H1121 0.950 . S
C1150 C1149 1.334 . S
C1150 C1151 1.287 . S
C1151 C1150 1.287 . S
C1151 C1152 1.524 . S
C1151 H1154 0.999 . S
C1152 H1122 0.950 . S
C1152 C1151 1.524 . S
C1152 C1153 1.415 . S
C1153 H1123 0.950 . S
C1153 C1148 1.363 . S
C1153 C1152 1.415 . S
H1154 C1151 0.999 . S
H1155 C1136 0.913 . S
H1156 C1174 0.951 . S
H1157 C1176 0.951 . S
H1158 C1178 0.950 . S
H1159 C1179 0.950 . S
H1160 C1181 0.950 . S
H1161 C1184 0.950 . S
H1162 C1185 0.950 . S
H1163 C1187 0.950 . S
H1164 C1188 0.950 . S
H1165 C1189 0.951 . S
H1166 C1191 0.951 . S
H1167 C1193 0.950 . S
H1168 C1194 0.950 . S
H1169 C1196 0.950 . S
H1170 C1199 0.950 . S
H1171 C1200 0.950 . S
H1172 C1202 0.950 . S
H1173 C1203 0.950 . S
C1174 H1156 0.951 . S
C1174 C1175 1.366 . S
C1174 C1176 1.388 . S
C1175 C1174 1.366 . S
C1175 C1179 1.385 . S
C1176 H1157 0.951 . S
C1176 C1174 1.388 . S
C1176 C1177 1.366 . S
C1177 C1176 1.366 . S
C1177 C1178 1.414 . S
C1177 C1180 1.499 . S
C1178 H1158 0.950 . S
C1178 C1177 1.414 . S
C1178 C1179 1.374 . S
C1179 H1159 0.950 . S
C1179 C1175 1.385 . S
C1179 C1178 1.374 . S
C1180 C1177 1.499 . S
C1180 C1181 1.373 . S
C1180 C1182 1.389 . S
C1181 H1160 0.950 . S
C1181 C1180 1.373 . S
C1181 C1197 1.377 . S
C1182 C1180 1.389 . S
C1182 C1183 1.524 . S
C1182 C1196 1.377 . S
C1183 C1182 1.524 . S
C1183 C1184 1.397 . S
C1183 C1188 1.363 . S
C1184 H1161 0.950 . S
C1184 C1183 1.397 . S
C1184 C1185 1.334 . S
C1185 H1162 0.950 . S
C1185 C1184 1.334 . S
C1185 C1186 1.287 . S
C1186 C1185 1.287 . S
C1186 C1187 1.524 . S
C1186 H1205 0.913 . S
C1187 H1163 0.950 . S
C1187 C1186 1.524 . S
C1187 C1188 1.415 . S
C1188 H1164 0.950 . S
C1188 C1183 1.363 . S
C1188 C1187 1.415 . S
C1189 H1165 0.951 . S
C1189 C1190 1.366 . S
C1189 C1191 1.388 . S
C1190 C1189 1.366 . S
C1190 C1194 1.385 . S
C1191 H1166 0.951 . S
C1191 C1189 1.388 . S
C1191 C1192 1.366 . S
C1192 C1191 1.366 . S
C1192 C1193 1.414 . S
C1192 C1195 1.499 . S
C1193 H1167 0.950 . S
C1193 C1192 1.414 . S
C1193 C1194 1.374 . S
C1194 H1168 0.950 . S
C1194 C1190 1.385 . S
C1194 C1193 1.374 . S
C1195 C1192 1.499 . S
C1195 C1196 1.373 . S
C1195 C1197 1.389 . S
C1196 H1169 0.950 . S
C1196 C1182 1.377 . S
C1196 C1195 1.373 . S
C1197 C1181 1.377 . S
C1197 C1195 1.389 . S
C1197 C1198 1.524 . S
C1198 C1197 1.524 . S
C1198 C1199 1.397 . S
C1198 C1203 1.363 . S
C1199 H1170 0.950 . S
C1199 C1198 1.397 . S
C1199 C1200 1.334 . S
C1200 H1171 0.950 . S
C1200 C1199 1.334 . S
C1200 C1201 1.287 . S
C1201 C1200 1.287 . S
C1201 C1202 1.524 . S
C1201 H1204 0.999 . S
C1202 H1172 0.950 . S
C1202 C1201 1.524 . S
C1202 C1203 1.415 . S
C1203 H1173 0.950 . S
C1203 C1198 1.363 . S
C1203 C1202 1.415 . S
H1204 C1201 0.999 . S
H1205 C1186 0.913 . S
H1206 C1224 0.951 . S
H1207 C1226 0.951 . S
H1208 C1228 0.950 . S
H1209 C1229 0.950 . S
H1210 C1231 0.950 . S
H1211 C1234 0.950 . S
H1212 C1235 0.950 . S
H1213 C1237 0.950 . S
H1214 C1238 0.950 . S
H1215 C1239 0.951 . S
H1216 C1241 0.951 . S
H1217 C1243 0.950 . S
H1218 C1244 0.950 . S
H1219 C1246 0.950 . S
H1220 C1249 0.950 . S
H1221 C1250 0.950 . S
H1222 C1252 0.950 . S
H1223 C1253 0.950 . S
C1224 H1206 0.951 . S
C1224 C1225 1.366 . S
C1224 C1226 1.388 . S
C1225 C1224 1.366 . S
C1225 C1229 1.385 . S
C1226 H1207 0.951 . S
C1226 C1224 1.388 . S
C1226 C1227 1.366 . S
C1227 C1226 1.366 . S
C1227 C1228 1.414 . S
C1227 C1230 1.499 . S
C1228 H1208 0.950 . S
C1228 C1227 1.414 . S
C1228 C1229 1.374 . S
C1229 H1209 0.950 . S
C1229 C1225 1.385 . S
C1229 C1228 1.374 . S
C1230 C1227 1.499 . S
C1230 C1231 1.373 . S
C1230 C1232 1.389 . S
C1231 H1210 0.950 . S
C1231 C1230 1.373 . S
C1231 C1247 1.377 . S
C1232 C1230 1.389 . S
C1232 C1233 1.524 . S
C1232 C1246 1.377 . S
C1233 C1232 1.524 . S
C1233 C1234 1.397 . S
C1233 C1238 1.363 . S
C1234 H1211 0.950 . S
C1234 C1233 1.397 . S
C1234 C1235 1.334 . S
C1235 H1212 0.950 . S
C1235 C1234 1.334 . S
C1235 C1236 1.287 . S
C1236 C1235 1.287 . S
C1236 C1237 1.524 . S
C1236 H1255 0.913 . S
C1237 H1213 0.950 . S
C1237 C1236 1.524 . S
C1237 C1238 1.415 . S
C1238 H1214 0.950 . S
C1238 C1233 1.363 . S
C1238 C1237 1.415 . S
C1239 H1215 0.951 . S
C1239 C1240 1.366 . S
C1239 C1241 1.388 . S
C1240 C1239 1.366 . S
C1240 C1244 1.385 . S
C1241 H1216 0.951 . S
C1241 C1239 1.388 . S
C1241 C1242 1.366 . S
C1242 C1241 1.366 . S
C1242 C1243 1.414 . S
C1242 C1245 1.499 . S
C1243 H1217 0.950 . S
C1243 C1242 1.414 . S
C1243 C1244 1.374 . S
C1244 H1218 0.950 . S
C1244 C1240 1.385 . S
C1244 C1243 1.374 . S
C1245 C1242 1.499 . S
C1245 C1246 1.373 . S
C1245 C1247 1.389 . S
C1246 H1219 0.950 . S
C1246 C1232 1.377 . S
C1246 C1245 1.373 . S
C1247 C1231 1.377 . S
C1247 C1245 1.389 . S
C1247 C1248 1.524 . S
C1248 C1247 1.524 . S
C1248 C1249 1.397 . S
C1248 C1253 1.363 . S
C1249 H1220 0.950 . S
C1249 C1248 1.397 . S
C1249 C1250 1.334 . S
C1250 H1221 0.950 . S
C1250 C1249 1.334 . S
C1250 C1251 1.287 . S
C1251 C1250 1.287 . S
C1251 C1252 1.524 . S
C1251 H1254 0.999 . S
C1252 H1222 0.950 . S
C1252 C1251 1.524 . S
C1252 C1253 1.415 . S
C1253 H1223 0.950 . S
C1253 C1248 1.363 . S
C1253 C1252 1.415 . S
H1254 C1251 0.999 . S
H1255 C1236 0.913 . S
H1256 C1274 0.951 . S
H1257 C1276 0.951 . S
H1258 C1278 0.950 . S
H1259 C1279 0.950 . S
H1260 C1281 0.950 . S
H1261 C1284 0.950 . S
H1262 C1285 0.950 . S
H1263 C1287 0.950 . S
H1264 C1288 0.950 . S
H1265 C1289 0.951 . S
H1266 C1291 0.951 . S
H1267 C1293 0.950 . S
H1268 C1294 0.950 1_545 S
H1269 C1296 0.950 . S
H1270 C1299 0.950 . S
H1271 C1300 0.950 1_545 S
H1272 C1302 0.950 . S
H1273 C1303 0.950 . S
C1274 H1256 0.951 . S
C1274 C1275 1.366 . S
C1274 C1276 1.388 . S
C1275 C1274 1.366 . S
C1275 C1279 1.385 . S
C1276 H1257 0.951 . S
C1276 C1274 1.388 . S
C1276 C1277 1.366 . S
C1277 C1276 1.366 . S
C1277 C1278 1.414 . S
C1277 C1280 1.499 . S
C1278 H1258 0.950 . S
C1278 C1277 1.414 . S
C1278 C1279 1.374 . S
C1279 H1259 0.950 . S
C1279 C1275 1.385 . S
C1279 C1278 1.374 . S
C1280 C1277 1.499 . S
C1280 C1281 1.373 . S
C1280 C1282 1.389 . S
C1281 H1260 0.950 . S
C1281 C1280 1.373 . S
C1281 C1297 1.377 . S
C1282 C1280 1.389 . S
C1282 C1283 1.524 . S
C1282 C1296 1.377 . S
C1283 C1282 1.524 . S
C1283 C1284 1.397 . S
C1283 C1288 1.363 1_556 S
C1284 H1261 0.950 . S
C1284 C1283 1.397 . S
C1284 C1285 1.334 1_556 S
C1285 H1262 0.950 . S
C1285 C1284 1.334 1_554 S
C1285 C1286 1.287 . S
C1286 C1285 1.287 . S
C1286 C1287 1.524 . S
C1286 H1305 0.913 . S
C1287 H1263 0.950 . S
C1287 C1286 1.524 . S
C1287 C1288 1.415 . S
C1288 H1264 0.950 . S
C1288 C1283 1.363 1_554 S
C1288 C1287 1.415 . S
C1289 H1265 0.951 . S
C1289 C1290 1.366 . S
C1289 C1291 1.388 . S
C1290 C1289 1.366 . S
C1290 C1294 1.385 . S
C1291 H1266 0.951 . S
C1291 C1289 1.388 . S
C1291 C1292 1.366 . S
C1292 C1291 1.366 . S
C1292 C1293 1.414 . S
C1292 C1295 1.499 . S
C1293 H1267 0.950 . S
C1293 C1292 1.414 . S
C1293 C1294 1.374 . S
C1294 H1268 0.950 1_565 S
C1294 C1290 1.385 . S
C1294 C1293 1.374 . S
C1295 C1292 1.499 . S
C1295 C1296 1.373 . S
C1295 C1297 1.389 . S
C1296 H1269 0.950 . S
C1296 C1282 1.377 . S
C1296 C1295 1.373 . S
C1297 C1281 1.377 . S
C1297 C1295 1.389 . S
C1297 C1298 1.524 . S
C1298 C1297 1.524 . S
C1298 C1299 1.397 . S
C1298 C1303 1.363 . S
C1299 H1270 0.950 . S
C1299 C1298 1.397 . S
C1299 C1300 1.334 . S
C1300 H1271 0.950 1_565 S
C1300 C1299 1.334 . S
C1300 C1301 1.287 . S
C1301 C1300 1.287 . S
C1301 C1302 1.524 . S
C1301 H1304 0.999 . S
C1302 H1272 0.950 . S
C1302 C1301 1.524 . S
C1302 C1303 1.415 . S
C1303 H1273 0.950 . S
C1303 C1298 1.363 . S
C1303 C1302 1.415 . S
H1304 C1301 0.999 . S
H1305 C1286 0.913 . S
H1306 C1324 0.951 . S
H1307 C1326 0.951 . S
H1308 C1328 0.950 . S
H1309 C1329 0.950 . S
H1310 C1331 0.950 . S
H1311 C1334 0.950 . S
H1312 C1335 0.950 . S
H1313 C1337 0.950 . S
H1314 C1338 0.950 . S
H1315 C1339 0.951 . S
H1316 C1341 0.951 . S
H1317 C1343 0.950 . S
H1318 C1344 0.950 . S
H1319 C1346 0.950 . S
H1320 C1349 0.951 . S
H1321 C1350 0.950 . S
H1322 C1352 0.950 . S
H1323 C1353 0.950 . S
C1324 H1306 0.951 . S
C1324 C1325 1.366 . S
C1324 C1326 1.388 . S
C1325 C1324 1.366 . S
C1325 C1329 1.385 . S
C1326 H1307 0.951 . S
C1326 C1324 1.388 . S
C1326 C1327 1.366 . S
C1327 C1326 1.366 . S
C1327 C1328 1.414 . S
C1327 C1330 1.499 . S
C1328 H1308 0.950 . S
C1328 C1327 1.414 . S
C1328 C1329 1.374 . S
C1329 H1309 0.950 . S
C1329 C1325 1.385 . S
C1329 C1328 1.374 . S
C1330 C1327 1.499 . S
C1330 C1331 1.373 . S
C1330 C1332 1.389 . S
C1331 H1310 0.950 . S
C1331 C1330 1.373 . S
C1331 C1347 1.377 . S
C1332 C1330 1.389 . S
C1332 C1333 1.524 . S
C1332 C1346 1.377 . S
C1333 C1332 1.524 . S
C1333 C1334 1.397 . S
C1333 C1338 1.363 . S
C1334 H1311 0.950 . S
C1334 C1333 1.397 . S
C1334 C1335 1.334 . S
C1335 H1312 0.950 . S
C1335 C1334 1.334 . S
C1335 C1336 1.287 . S
C1336 C1335 1.287 . S
C1336 C1337 1.524 . S
C1336 H1355 0.913 . S
C1337 H1313 0.950 . S
C1337 C1336 1.524 . S
C1337 C1338 1.415 . S
C1338 H1314 0.950 . S
C1338 C1333 1.363 . S
C1338 C1337 1.415 . S
C1339 H1315 0.951 . S
C1339 C1340 1.366 . S
C1339 C1341 1.388 . S
C1340 C1339 1.366 . S
C1340 C1344 1.385 . S
C1341 H1316 0.951 . S
C1341 C1339 1.388 . S
C1341 C1342 1.366 . S
C1342 C1341 1.366 . S
C1342 C1343 1.414 . S
C1342 C1345 1.499 . S
C1343 H1317 0.950 . S
C1343 C1342 1.414 . S
C1343 C1344 1.374 . S
C1344 H1318 0.950 . S
C1344 C1340 1.385 . S
C1344 C1343 1.374 . S
C1345 C1342 1.499 . S
C1345 C1346 1.373 . S
C1345 C1347 1.389 . S
C1346 H1319 0.950 . S
C1346 C1332 1.377 . S
C1346 C1345 1.373 . S
C1347 C1331 1.377 . S
C1347 C1345 1.389 . S
C1347 C1348 1.524 . S
C1348 C1347 1.524 . S
C1348 C1349 1.383 1_545 S
C1348 C1353 1.363 . S
C1349 H1320 0.951 . S
C1349 C1348 1.383 1_565 S
C1349 C1350 1.347 . S
C1350 H1321 0.950 . S
C1350 C1349 1.347 . S
C1350 C1351 1.287 . S
C1351 C1350 1.287 . S
C1351 C1352 1.524 1_565 S
C1351 H1354 0.999 . S
C1352 H1322 0.950 . S
C1352 C1351 1.524 1_545 S
C1352 C1353 1.415 . S
C1353 H1323 0.950 . S
C1353 C1348 1.363 . S
C1353 C1352 1.415 . S
H1354 C1351 0.999 . S
H1355 C1336 0.913 . S
H1356 C1374 0.951 . S
H1357 C1376 0.951 . S
H1358 C1378 0.950 . S
H1359 C1379 0.950 . S
H1360 C1381 0.950 . S
H1361 C1384 0.950 . S
H1362 C1385 0.950 . S
H1363 C1387 0.950 . S
H1364 C1388 0.950 . S
H1365 C1389 0.951 1_556 S
H1366 C1391 0.955 1_556 S
H1367 C1393 0.950 . S
H1368 C1394 0.950 . S
H1369 C1396 0.950 . S
H1370 C1399 0.950 . S
H1371 C1400 0.950 . S
H1372 C1402 0.950 1_556 S
H1373 C1403 0.950 . S
C1374 H1356 0.951 . S
C1374 C1375 1.366 . S
C1374 C1376 1.388 . S
C1375 C1374 1.366 . S
C1375 C1379 1.385 . S
C1376 H1357 0.951 . S
C1376 C1374 1.388 . S
C1376 C1377 1.366 . S
C1377 C1376 1.366 . S
C1377 C1378 1.414 . S
C1377 C1380 1.499 . S
C1378 H1358 0.950 . S
C1378 C1377 1.414 . S
C1378 C1379 1.374 . S
C1379 H1359 0.950 . S
C1379 C1375 1.385 . S
C1379 C1378 1.374 . S
C1380 C1377 1.499 . S
C1380 C1381 1.373 . S
C1380 C1382 1.389 . S
C1381 H1360 0.950 . S
C1381 C1380 1.373 . S
C1381 C1397 1.377 . S
C1382 C1380 1.389 . S
C1382 C1383 1.524 . S
C1382 C1396 1.377 . S
C1383 C1382 1.524 . S
C1383 C1384 1.397 . S
C1383 C1388 1.363 . S
C1384 H1361 0.950 . S
C1384 C1383 1.397 . S
C1384 C1385 1.334 . S
C1385 H1362 0.950 . S
C1385 C1384 1.334 . S
C1385 C1386 1.287 . S
C1386 C1385 1.287 . S
C1386 C1387 1.524 . S
C1386 H1405 0.913 . S
C1387 H1363 0.950 . S
C1387 C1386 1.524 . S
C1387 C1388 1.415 . S
C1388 H1364 0.950 . S
C1388 C1383 1.363 . S
C1388 C1387 1.415 . S
C1389 H1365 0.951 1_554 S
C1389 C1390 1.366 . S
C1389 C1391 1.388 . S
C1390 C1389 1.366 . S
C1390 C1394 1.385 . S
C1391 H1366 0.955 1_554 S
C1391 C1389 1.388 . S
C1391 C1392 1.366 . S
C1392 C1391 1.366 . S
C1392 C1393 1.414 . S
C1392 C1395 1.499 . S
C1393 H1367 0.950 . S
C1393 C1392 1.414 . S
C1393 C1394 1.374 . S
C1394 H1368 0.950 . S
C1394 C1390 1.385 . S
C1394 C1393 1.374 . S
C1395 C1392 1.499 . S
C1395 C1396 1.373 . S
C1395 C1397 1.389 . S
C1396 H1369 0.950 . S
C1396 C1382 1.377 . S
C1396 C1395 1.373 . S
C1397 C1381 1.377 . S
C1397 C1395 1.389 . S
C1397 C1398 1.524 . S
C1398 C1397 1.524 . S
C1398 C1399 1.397 . S
C1398 C1403 1.363 . S
C1399 H1370 0.950 . S
C1399 C1398 1.397 . S
C1399 C1400 1.334 . S
C1400 H1371 0.950 . S
C1400 C1399 1.334 . S
C1400 C1401 1.287 . S
C1401 C1400 1.287 . S
C1401 C1402 1.524 . S
C1401 H1404 0.999 . S
C1402 H1372 0.950 1_554 S
C1402 C1401 1.524 . S
C1402 C1403 1.415 . S
C1403 H1373 0.950 . S
C1403 C1398 1.363 . S
C1403 C1402 1.415 . S
H1404 C1401 0.999 . S
H1405 C1386 0.913 . S
H1406 C1424 0.951 . S
H1407 C1426 0.951 . S
H1408 C1428 0.950 . S
H1409 C1429 0.950 . S
H1410 C1431 0.950 . S
H1411 C1434 0.950 . S
H1412 C1435 0.950 . S
H1413 C1437 0.950 . S
H1414 C1438 0.950 . S
H1415 C1439 0.951 . S
H1416 C1441 0.951 . S
H1417 C1443 0.950 . S
H1418 C1444 0.950 . S
H1419 C1446 0.950 . S
H1420 C1449 0.950 . S
H1421 C1450 0.950 . S
H1422 C1452 0.950 . S
H1423 C1453 0.950 . S
C1424 H1406 0.951 . S
C1424 C1425 1.366 . S
C1424 C1426 1.388 . S
C1425 C1424 1.366 . S
C1425 C1429 1.385 . S
C1426 H1407 0.951 . S
C1426 C1424 1.388 . S
C1426 C1427 1.366 . S
C1427 C1426 1.366 . S
C1427 C1428 1.414 . S
C1427 C1430 1.499 . S
C1428 H1408 0.950 . S
C1428 C1427 1.414 . S
C1428 C1429 1.374 . S
C1429 H1409 0.950 . S
C1429 C1425 1.385 . S
C1429 C1428 1.374 . S
C1430 C1427 1.499 . S
C1430 C1431 1.373 . S
C1430 C1432 1.389 . S
C1431 H1410 0.950 . S
C1431 C1430 1.373 . S
C1431 C1447 1.377 . S
C1432 C1430 1.389 . S
C1432 C1433 1.524 . S
C1432 C1446 1.377 . S
C1433 C1432 1.524 . S
C1433 C1434 1.397 . S
C1433 C1438 1.363 . S
C1434 H1411 0.950 . S
C1434 C1433 1.397 . S
C1434 C1435 1.334 . S
C1435 H1412 0.950 . S
C1435 C1434 1.334 . S
C1435 C1436 1.287 . S
C1436 C1435 1.287 . S
C1436 C1437 1.524 . S
C1436 H1455 0.913 . S
C1437 H1413 0.950 . S
C1437 C1436 1.524 . S
C1437 C1438 1.415 . S
C1438 H1414 0.950 . S
C1438 C1433 1.363 . S
C1438 C1437 1.415 . S
C1439 H1415 0.951 . S
C1439 C1440 1.366 . S
C1439 C1441 1.388 . S
C1440 C1439 1.366 . S
C1440 C1444 1.385 . S
C1441 H1416 0.951 . S
C1441 C1439 1.388 . S
C1441 C1442 1.366 . S
C1442 C1441 1.366 . S
C1442 C1443 1.414 . S
C1442 C1445 1.499 . S
C1443 H1417 0.950 . S
C1443 C1442 1.414 . S
C1443 C1444 1.374 . S
C1444 H1418 0.950 . S
C1444 C1440 1.385 . S
C1444 C1443 1.374 . S
C1445 C1442 1.499 . S
C1445 C1446 1.373 . S
C1445 C1447 1.389 . S
C1446 H1419 0.950 . S
C1446 C1432 1.377 . S
C1446 C1445 1.373 . S
C1447 C1431 1.377 . S
C1447 C1445 1.389 . S
C1447 C1448 1.524 . S
C1448 C1447 1.524 . S
C1448 C1449 1.397 . S
C1448 C1453 1.363 . S
C1449 H1420 0.950 . S
C1449 C1448 1.397 . S
C1449 C1450 1.334 . S
C1450 H1421 0.950 . S
C1450 C1449 1.334 . S
C1450 C1451 1.287 . S
C1451 C1450 1.287 . S
C1451 C1452 1.524 . S
C1451 H1454 0.999 . S
C1452 H1422 0.950 . S
C1452 C1451 1.524 . S
C1452 C1453 1.415 . S
C1453 H1423 0.950 . S
C1453 C1448 1.363 . S
C1453 C1452 1.415 . S
H1454 C1451 0.999 . S
H1455 C1436 0.913 . S
H1456 C1474 0.951 . S
H1457 C1476 0.951 . S
H1458 C1478 0.950 . S
H1459 C1479 0.950 . S
H1460 C1481 0.950 . S
H1461 C1484 0.950 . S
H1462 C1485 0.950 . S
H1463 C1487 0.950 . S
H1464 C1488 0.950 . S
H1465 C1489 0.951 1_455 S
H1466 C1491 0.963 . S
H1467 C1493 0.950 . S
H1468 C1494 0.950 . S
H1469 C1496 0.950 . S
H1470 C1499 0.950 . S
H1471 C1500 0.950 . S
H1472 C1502 0.950 1_455 S
H1473 C1503 0.950 . S
C1474 H1456 0.951 . S
C1474 C1475 1.366 . S
C1474 C1476 1.388 . S
C1475 C1474 1.366 . S
C1475 C1479 1.385 . S
C1476 H1457 0.951 . S
C1476 C1474 1.388 . S
C1476 C1477 1.366 . S
C1477 C1476 1.366 . S
C1477 C1478 1.414 . S
C1477 C1480 1.499 . S
C1478 H1458 0.950 . S
C1478 C1477 1.414 . S
C1478 C1479 1.374 . S
C1479 H1459 0.950 . S
C1479 C1475 1.385 . S
C1479 C1478 1.374 . S
C1480 C1477 1.499 . S
C1480 C1481 1.373 . S
C1480 C1482 1.389 . S
C1481 H1460 0.950 . S
C1481 C1480 1.373 . S
C1481 C1497 1.377 . S
C1482 C1480 1.389 . S
C1482 C1483 1.524 . S
C1482 C1496 1.377 . S
C1483 C1482 1.524 . S
C1483 C1484 1.397 . S
C1483 C1488 1.363 1_556 S
C1484 H1461 0.950 . S
C1484 C1483 1.397 . S
C1484 C1485 1.334 1_556 S
C1485 H1462 0.950 . S
C1485 C1484 1.334 1_554 S
C1485 C1486 1.287 . S
C1486 C1485 1.287 . S
C1486 C1487 1.524 . S
C1486 H1505 0.913 . S
C1487 H1463 0.950 . S
C1487 C1486 1.524 . S
C1487 C1488 1.415 . S
C1488 H1464 0.950 . S
C1488 C1483 1.363 1_554 S
C1488 C1487 1.415 . S
C1489 H1465 0.951 1_655 S
C1489 C1490 1.366 . S
C1489 C1491 1.388 . S
C1490 C1489 1.366 . S
C1490 C1494 1.385 . S
C1491 H1466 0.963 . S
C1491 C1489 1.388 . S
C1491 C1492 1.366 . S
C1492 C1491 1.366 . S
C1492 C1493 1.414 . S
C1492 C1495 1.499 . S
C1493 H1467 0.950 . S
C1493 C1492 1.414 . S
C1493 C1494 1.374 . S
C1494 H1468 0.950 . S
C1494 C1490 1.385 . S
C1494 C1493 1.374 . S
C1495 C1492 1.499 . S
C1495 C1496 1.373 . S
C1495 C1497 1.389 . S
C1496 H1469 0.950 . S
C1496 C1482 1.377 . S
C1496 C1495 1.373 . S
C1497 C1481 1.377 . S
C1497 C1495 1.389 . S
C1497 C1498 1.524 . S
C1498 C1497 1.524 . S
C1498 C1499 1.397 . S
C1498 C1503 1.363 . S
C1499 H1470 0.950 . S
C1499 C1498 1.397 . S
C1499 C1500 1.334 . S
C1500 H1471 0.950 . S
C1500 C1499 1.334 . S
C1500 C1501 1.287 . S
C1501 C1500 1.287 . S
C1501 C1502 1.524 . S
C1501 H1504 0.999 . S
C1502 H1472 0.950 1_655 S
C1502 C1501 1.524 . S
C1502 C1503 1.415 . S
C1503 H1473 0.950 . S
C1503 C1498 1.363 . S
C1503 C1502 1.415 . S
H1504 C1501 0.999 . S
H1505 C1486 0.913 . S
H1506 C1524 0.951 . S
H1507 C1526 0.951 . S
H1508 C1528 0.950 . S
H1509 C1529 0.950 . S
H1510 C1531 0.950 . S
H1511 C1534 0.950 . S
H1512 C1535 0.950 . S
H1513 C1537 0.950 . S
H1514 C1538 0.950 . S
H1515 C1539 0.951 . S
H1516 C1541 0.951 . S
H1517 C1543 0.950 . S
H1518 C1544 0.950 . S
H1519 C1546 0.950 . S
H1520 C1549 0.950 . S
H1521 C1550 0.950 . S
H1522 C1552 0.952 . S
H1523 C1553 0.950 . S
C1524 H1506 0.951 . S
C1524 C1525 1.366 . S
C1524 C1526 1.388 . S
C1525 C1524 1.366 . S
C1525 C1529 1.385 . S
C1526 H1507 0.951 . S
C1526 C1524 1.388 . S
C1526 C1527 1.366 . S
C1527 C1526 1.366 . S
C1527 C1528 1.414 . S
C1527 C1530 1.499 . S
C1528 H1508 0.950 . S
C1528 C1527 1.414 . S
C1528 C1529 1.374 . S
C1529 H1509 0.950 . S
C1529 C1525 1.385 . S
C1529 C1528 1.374 . S
C1530 C1527 1.499 . S
C1530 C1531 1.373 . S
C1530 C1532 1.389 . S
C1531 H1510 0.950 . S
C1531 C1530 1.373 . S
C1531 C1547 1.377 . S
C1532 C1530 1.389 . S
C1532 C1533 1.524 . S
C1532 C1546 1.377 . S
C1533 C1532 1.524 . S
C1533 C1534 1.397 . S
C1533 C1538 1.363 . S
C1534 H1511 0.950 . S
C1534 C1533 1.397 . S
C1534 C1535 1.334 . S
C1535 H1512 0.950 . S
C1535 C1534 1.334 . S
C1535 C1536 1.287 . S
C1536 C1535 1.287 . S
C1536 C1537 1.524 . S
C1536 H1555 0.913 . S
C1537 H1513 0.950 . S
C1537 C1536 1.524 . S
C1537 C1538 1.415 . S
C1538 H1514 0.950 . S
C1538 C1533 1.363 . S
C1538 C1537 1.415 . S
C1539 H1515 0.951 . S
C1539 C1540 1.366 . S
C1539 C1541 1.388 . S
C1540 C1539 1.366 . S
C1540 C1544 1.385 . S
C1541 H1516 0.951 . S
C1541 C1539 1.388 . S
C1541 C1542 1.366 . S
C1542 C1541 1.366 . S
C1542 C1543 1.414 . S
C1542 C1545 1.499 . S
C1543 H1517 0.950 . S
C1543 C1542 1.414 . S
C1543 C1544 1.374 . S
C1544 H1518 0.950 . S
C1544 C1540 1.385 . S
C1544 C1543 1.374 . S
C1545 C1542 1.499 . S
C1545 C1546 1.373 . S
C1545 C1547 1.389 . S
C1546 H1519 0.950 . S
C1546 C1532 1.377 . S
C1546 C1545 1.373 . S
C1547 C1531 1.377 . S
C1547 C1545 1.389 . S
C1547 C1548 1.524 . S
C1548 C1547 1.524 . S
C1548 C1549 1.397 . S
C1548 C1553 1.363 . S
C1549 H1520 0.950 . S
C1549 C1548 1.397 . S
C1549 C1550 1.334 1_554 S
C1550 H1521 0.950 . S
C1550 C1549 1.334 1_556 S
C1550 C1551 1.287 . S
C1551 C1550 1.287 . S
C1551 C1552 1.524 1_556 S
C1551 H1554 0.999 . S
C1552 H1522 0.952 . S
C1552 C1551 1.524 1_554 S
C1552 C1553 1.415 . S
C1553 H1523 0.950 . S
C1553 C1548 1.363 . S
C1553 C1552 1.415 . S
H1554 C1551 0.999 . S
H1555 C1536 0.913 . S
H1556 C1574 0.951 . S
H1557 C1576 0.951 . S
H1558 C1578 0.950 . S
H1559 C1579 0.950 . S
H1560 C1581 0.950 . S
H1561 C1584 0.950 . S
H1562 C1585 0.950 . S
H1563 C1587 0.950 . S
H1564 C1588 0.950 . S
H1565 C1589 0.951 . S
H1566 C1591 0.951 . S
H1567 C1593 0.950 . S
H1568 C1594 0.950 . S
H1569 C1596 0.950 . S
H1570 C1599 0.950 . S
H1571 C1600 0.950 . S
H1572 C1602 0.950 . S
H1573 C1603 0.950 . S
C1574 H1556 0.951 . S
C1574 C1575 1.366 . S
C1574 C1576 1.388 . S
C1575 C1574 1.366 . S
C1575 C1579 1.385 . S
C1576 H1557 0.951 . S
C1576 C1574 1.388 . S
C1576 C1577 1.366 . S
C1577 C1576 1.366 . S
C1577 C1578 1.414 . S
C1577 C1580 1.499 . S
C1578 H1558 0.950 . S
C1578 C1577 1.414 . S
C1578 C1579 1.374 . S
C1579 H1559 0.950 . S
C1579 C1575 1.385 . S
C1579 C1578 1.374 . S
C1580 C1577 1.499 . S
C1580 C1581 1.373 . S
C1580 C1582 1.389 . S
C1581 H1560 0.950 . S
C1581 C1580 1.373 . S
C1581 C1597 1.377 . S
C1582 C1580 1.389 . S
C1582 C1583 1.524 . S
C1582 C1596 1.377 . S
C1583 C1582 1.524 . S
C1583 C1584 1.397 . S
C1583 C1588 1.363 . S
C1584 H1561 0.950 . S
C1584 C1583 1.397 . S
C1584 C1585 1.334 . S
C1585 H1562 0.950 . S
C1585 C1584 1.334 . S
C1585 C1586 1.287 1_455 S
C1586 C1585 1.287 1_655 S
C1586 C1587 1.524 . S
C1586 H1605 0.913 . S
C1587 H1563 0.950 . S
C1587 C1586 1.524 . S
C1587 C1588 1.415 1_655 S
C1588 H1564 0.950 . S
C1588 C1583 1.363 . S
C1588 C1587 1.415 1_455 S
C1589 H1565 0.951 . S
C1589 C1590 1.366 . S
C1589 C1591 1.388 . S
C1590 C1589 1.366 . S
C1590 C1594 1.385 . S
C1591 H1566 0.951 . S
C1591 C1589 1.388 . S
C1591 C1592 1.366 . S
C1592 C1591 1.366 . S
C1592 C1593 1.414 . S
C1592 C1595 1.499 . S
C1593 H1567 0.950 . S
C1593 C1592 1.414 . S
C1593 C1594 1.374 . S
C1594 H1568 0.950 . S
C1594 C1590 1.385 . S
C1594 C1593 1.374 . S
C1595 C1592 1.499 . S
C1595 C1596 1.373 . S
C1595 C1597 1.389 . S
C1596 H1569 0.950 . S
C1596 C1582 1.377 . S
C1596 C1595 1.373 . S
C1597 C1581 1.377 . S
C1597 C1595 1.389 . S
C1597 C1598 1.524 . S
C1598 C1597 1.524 . S
C1598 C1599 1.397 . S
C1598 C1603 1.363 . S
C1599 H1570 0.950 . S
C1599 C1598 1.397 . S
C1599 C1600 1.334 . S
C1600 H1571 0.950 . S
C1600 C1599 1.334 . S
C1600 C1601 1.287 . S
C1601 C1600 1.287 . S
C1601 C1602 1.524 . S
C1601 H1604 0.999 . S
C1602 H1572 0.950 . S
C1602 C1601 1.524 . S
C1602 C1603 1.415 . S
C1603 H1573 0.950 . S
C1603 C1598 1.363 . S
C1603 C1602 1.415 . S
H1604 C1601 0.999 . S
H1605 C1586 0.913 . S
H1606 C1624 0.951 . S
H1607 C1626 0.951 . S
H1608 C1628 0.950 . S
H1609 C1629 0.950 . S
H1610 C1631 0.950 . S
H1611 C1634 0.950 . S
H1612 C1635 0.950 . S
H1613 C1637 0.950 . S
H1614 C1638 0.950 . S
H1615 C1639 0.951 . S
H1616 C1641 0.951 . S
H1617 C1643 0.950 . S
H1618 C1644 0.950 . S
H1619 C1646 0.950 . S
H1620 C1649 0.950 . S
H1621 C1650 0.950 . S
H1622 C1652 0.950 . S
H1623 C1653 0.950 . S
C1624 H1606 0.951 . S
C1624 C1625 1.366 . S
C1624 C1626 1.388 . S
C1625 C1624 1.366 . S
C1625 C1629 1.385 . S
C1626 H1607 0.951 . S
C1626 C1624 1.388 . S
C1626 C1627 1.366 . S
C1627 C1626 1.366 . S
C1627 C1628 1.414 . S
C1627 C1630 1.499 . S
C1628 H1608 0.950 . S
C1628 C1627 1.414 . S
C1628 C1629 1.374 . S
C1629 H1609 0.950 . S
C1629 C1625 1.385 . S
C1629 C1628 1.374 . S
C1630 C1627 1.499 . S
C1630 C1631 1.373 . S
C1630 C1632 1.389 . S
C1631 H1610 0.950 . S
C1631 C1630 1.373 . S
C1631 C1647 1.377 . S
C1632 C1630 1.389 . S
C1632 C1633 1.524 . S
C1632 C1646 1.377 . S
C1633 C1632 1.524 . S
C1633 C1634 1.397 . S
C1633 C1638 1.363 . S
C1634 H1611 0.950 . S
C1634 C1633 1.397 . S
C1634 C1635 1.334 . S
C1635 H1612 0.950 . S
C1635 C1634 1.334 . S
C1635 C1636 1.287 . S
C1636 C1635 1.287 . S
C1636 C1637 1.524 . S
C1636 H1655 0.913 . S
C1637 H1613 0.950 . S
C1637 C1636 1.524 . S
C1637 C1638 1.415 . S
C1638 H1614 0.950 . S
C1638 C1633 1.363 . S
C1638 C1637 1.415 . S
C1639 H1615 0.951 . S
C1639 C1640 1.366 . S
C1639 C1641 1.388 . S
C1640 C1639 1.366 . S
C1640 C1644 1.385 . S
C1641 H1616 0.951 . S
C1641 C1639 1.388 . S
C1641 C1642 1.366 . S
C1642 C1641 1.366 . S
C1642 C1643 1.414 . S
C1642 C1645 1.499 . S
C1643 H1617 0.950 . S
C1643 C1642 1.414 . S
C1643 C1644 1.374 . S
C1644 H1618 0.950 . S
C1644 C1640 1.385 . S
C1644 C1643 1.374 . S
C1645 C1642 1.499 . S
C1645 C1646 1.373 . S
C1645 C1647 1.389 . S
C1646 H1619 0.950 . S
C1646 C1632 1.377 . S
C1646 C1645 1.373 . S
C1647 C1631 1.377 . S
C1647 C1645 1.389 . S
C1647 C1648 1.524 . S
C1648 C1647 1.524 . S
C1648 C1649 1.397 . S
C1648 C1653 1.363 . S
C1649 H1620 0.950 . S
C1649 C1648 1.397 . S
C1649 C1650 1.334 . S
C1650 H1621 0.950 . S
C1650 C1649 1.334 . S
C1650 C1651 1.287 . S
C1651 C1650 1.287 . S
C1651 C1652 1.524 . S
C1651 H1654 0.999 . S
C1652 H1622 0.950 . S
C1652 C1651 1.524 . S
C1652 C1653 1.415 . S
C1653 H1623 0.950 . S
C1653 C1648 1.363 . S
C1653 C1652 1.415 . S
H1654 C1651 0.999 . S
H1655 C1636 0.913 . S
C475 C21 2.393 . S
C490 C320 2.392 . S
C525 C61 2.279 . S
C540 C362 2.341 . S
C590 C392 0.950 . S
C575 C82 0.951 . S
C625 C135 1.071 . S
C640 C426 1.075 . S
C690 C383 1.906 . S
C675 C15 1.894 . S
C740 C337 1.929 . S
C725 C42 1.871 . S
C790 C430 1.383 . S
C775 C101 1.386 . S
C840 C396 1.410 . S
C825 C122 1.406 . S
C875 C2 2.286 . S
C890 C451 2.293 . S
C940 C358 1.096 . S
C925 C95 1.092 . S
C975 C141 1.166 . S
C990 C333 1.167 . S
C1025 C55 2.184 . S
C1040 C417 2.201 . S
C1090 C349 2.403 . S
C1075 C181 2.343 . S
C1125 C202 2.254 . S
C1140 C371 2.315 . S
C1175 C255 0.963 . S
C1190 C401 0.968 . S
C1225 C295 1.045 . S
C1240 C435 1.049 . S
C1275 C175 1.885 . S
C1290 C354 1.902 . S
C1340 C328 1.939 . S
C1325 C221 1.886 . S
C1390 C439 1.324 . S
C1375 C242 1.270 . S
C1440 C405 1.490 . S
C1425 C301 1.493 . S
C1475 C162 2.170 . S
C1490 C422 2.236 . S
C1540 C367 1.122 . S
C1525 C261 1.090 . S
C1590 C324 1.156 . S
C1575 C282 1.145 . S
C1625 C215 2.227 . S
C1640 C388 2.244 . S
