# Generated by pormake.
# Topology gar, (4,6)-cn, num edge types: 1
# Building blocks:
#     Node 0, Type 0, BuildingBlock: GALJAG_clean_sbu_0, # of connection points: 4
#     Node 1, Type 0, BuildingBlock: GALJAG_clean_sbu_0, # of connection points: 4
#     Node 2, Type 0, BuildingBlock: GALJAG_clean_sbu_0, # of connection points: 4
#     Node 3, Type 0, BuildingBlock: GALJAG_clean_sbu_0, # of connection points: 4
#     Node 4, Type 0, BuildingBlock: GALJAG_clean_sbu_0, # of connection points: 4
#     Node 5, Type 0, BuildingBlock: GALJAG_clean_sbu_0, # of connection points: 4
#     Node 6, Type 0, BuildingBlock: GALJAG_clean_sbu_0, # of connection points: 4
#     Node 7, Type 0, BuildingBlock: GALJAG_clean_sbu_0, # of connection points: 4
#     Node 8, Type 0, BuildingBlock: GALJAG_clean_sbu_0, # of connection points: 4
#     Node 9, Type 0, BuildingBlock: GALJAG_clean_sbu_0, # of connection points: 4
#     Node 10, Type 0, BuildingBlock: GALJAG_clean_sbu_0, # of connection points: 4
#     Node 11, Type 0, BuildingBlock: GALJAG_clean_sbu_0, # of connection points: 4
#     Node 12, Type 0, BuildingBlock: GALJAG_clean_sbu_0, # of connection points: 4
#     Node 13, Type 0, BuildingBlock: GALJAG_clean_sbu_0, # of connection points: 4
#     Node 14, Type 0, BuildingBlock: GALJAG_clean_sbu_0, # of connection points: 4
#     Node 15, Type 0, BuildingBlock: GALJAG_clean_sbu_0, # of connection points: 4
#     Node 16, Type 0, BuildingBlock: GALJAG_clean_sbu_0, # of connection points: 4
#     Node 17, Type 0, BuildingBlock: GALJAG_clean_sbu_0, # of connection points: 4
#     Node 18, Type 0, BuildingBlock: GALJAG_clean_sbu_0, # of connection points: 4
#     Node 19, Type 0, BuildingBlock: GALJAG_clean_sbu_0, # of connection points: 4
#     Node 20, Type 0, BuildingBlock: GALJAG_clean_sbu_0, # of connection points: 4
#     Node 21, Type 0, BuildingBlock: GALJAG_clean_sbu_0, # of connection points: 4
#     Node 22, Type 0, BuildingBlock: GALJAG_clean_sbu_0, # of connection points: 4
#     Node 23, Type 0, BuildingBlock: GALJAG_clean_sbu_0, # of connection points: 4
#     Node 24, Type 1, BuildingBlock: PAMTOO_clean_sbu_0, # of connection points: 6
#     Node 25, Type 1, BuildingBlock: PAMTOO_clean_sbu_0, # of connection points: 6
#     Node 26, Type 1, BuildingBlock: PAMTOO_clean_sbu_0, # of connection points: 6
#     Node 27, Type 1, BuildingBlock: PAMTOO_clean_sbu_0, # of connection points: 6
#     Node 28, Type 1, BuildingBlock: PAMTOO_clean_sbu_0, # of connection points: 6
#     Node 29, Type 1, BuildingBlock: PAMTOO_clean_sbu_0, # of connection points: 6
#     Node 30, Type 1, BuildingBlock: PAMTOO_clean_sbu_0, # of connection points: 6
#     Node 31, Type 1, BuildingBlock: PAMTOO_clean_sbu_0, # of connection points: 6
#     Node 32, Type 1, BuildingBlock: PAMTOO_clean_sbu_0, # of connection points: 6
#     Node 33, Type 1, BuildingBlock: PAMTOO_clean_sbu_0, # of connection points: 6
#     Node 34, Type 1, BuildingBlock: PAMTOO_clean_sbu_0, # of connection points: 6
#     Node 35, Type 1, BuildingBlock: PAMTOO_clean_sbu_0, # of connection points: 6
#     Node 36, Type 1, BuildingBlock: PAMTOO_clean_sbu_0, # of connection points: 6
#     Node 37, Type 1, BuildingBlock: PAMTOO_clean_sbu_0, # of connection points: 6
#     Node 38, Type 1, BuildingBlock: PAMTOO_clean_sbu_0, # of connection points: 6
#     Node 39, Type 1, BuildingBlock: PAMTOO_clean_sbu_0, # of connection points: 6
#     Edge 40, Type (0, 1), BuildingBlock: EZIPEK_clean_linker_0, # of connection points: 2
#     Edge 41, Type (0, 1), BuildingBlock: EZIPEK_clean_linker_0, # of connection points: 2
#     Edge 42, Type (0, 1), BuildingBlock: EZIPEK_clean_linker_0, # of connection points: 2
#     Edge 43, Type (0, 1), BuildingBlock: EZIPEK_clean_linker_0, # of connection points: 2
#     Edge 44, Type (0, 1), BuildingBlock: EZIPEK_clean_linker_0, # of connection points: 2
#     Edge 45, Type (0, 1), BuildingBlock: EZIPEK_clean_linker_0, # of connection points: 2
#     Edge 46, Type (0, 1), BuildingBlock: EZIPEK_clean_linker_0, # of connection points: 2
#     Edge 47, Type (0, 1), BuildingBlock: EZIPEK_clean_linker_0, # of connection points: 2
#     Edge 48, Type (0, 1), BuildingBlock: EZIPEK_clean_linker_0, # of connection points: 2
#     Edge 49, Type (0, 1), BuildingBlock: EZIPEK_clean_linker_0, # of connection points: 2
#     Edge 50, Type (0, 1), BuildingBlock: EZIPEK_clean_linker_0, # of connection points: 2
#     Edge 51, Type (0, 1), BuildingBlock: EZIPEK_clean_linker_0, # of connection points: 2
#     Edge 52, Type (0, 1), BuildingBlock: EZIPEK_clean_linker_0, # of connection points: 2
#     Edge 53, Type (0, 1), BuildingBlock: EZIPEK_clean_linker_0, # of connection points: 2
#     Edge 54, Type (0, 1), BuildingBlock: EZIPEK_clean_linker_0, # of connection points: 2
#     Edge 55, Type (0, 1), BuildingBlock: EZIPEK_clean_linker_0, # of connection points: 2
#     Edge 56, Type (0, 1), BuildingBlock: EZIPEK_clean_linker_0, # of connection points: 2
#     Edge 57, Type (0, 1), BuildingBlock: EZIPEK_clean_linker_0, # of connection points: 2
#     Edge 58, Type (0, 1), BuildingBlock: EZIPEK_clean_linker_0, # of connection points: 2
#     Edge 59, Type (0, 1), BuildingBlock: EZIPEK_clean_linker_0, # of connection points: 2
#     Edge 60, Type (0, 1), BuildingBlock: EZIPEK_clean_linker_0, # of connection points: 2
#     Edge 61, Type (0, 1), BuildingBlock: EZIPEK_clean_linker_0, # of connection points: 2
#     Edge 62, Type (0, 1), BuildingBlock: EZIPEK_clean_linker_0, # of connection points: 2
#     Edge 63, Type (0, 1), BuildingBlock: EZIPEK_clean_linker_0, # of connection points: 2
#     Edge 64, Type (0, 1), BuildingBlock: EZIPEK_clean_linker_0, # of connection points: 2
#     Edge 65, Type (0, 1), BuildingBlock: EZIPEK_clean_linker_0, # of connection points: 2
#     Edge 66, Type (0, 1), BuildingBlock: EZIPEK_clean_linker_0, # of connection points: 2
#     Edge 67, Type (0, 1), BuildingBlock: EZIPEK_clean_linker_0, # of connection points: 2
#     Edge 68, Type (0, 1), BuildingBlock: EZIPEK_clean_linker_0, # of connection points: 2
#     Edge 69, Type (0, 1), BuildingBlock: EZIPEK_clean_linker_0, # of connection points: 2
#     Edge 70, Type (0, 1), BuildingBlock: EZIPEK_clean_linker_0, # of connection points: 2
#     Edge 71, Type (0, 1), BuildingBlock: EZIPEK_clean_linker_0, # of connection points: 2
#     Edge 72, Type (0, 1), BuildingBlock: EZIPEK_clean_linker_0, # of connection points: 2
#     Edge 73, Type (0, 1), BuildingBlock: EZIPEK_clean_linker_0, # of connection points: 2
#     Edge 74, Type (0, 1), BuildingBlock: EZIPEK_clean_linker_0, # of connection points: 2
#     Edge 75, Type (0, 1), BuildingBlock: EZIPEK_clean_linker_0, # of connection points: 2
#     Edge 76, Type (0, 1), BuildingBlock: EZIPEK_clean_linker_0, # of connection points: 2
#     Edge 77, Type (0, 1), BuildingBlock: EZIPEK_clean_linker_0, # of connection points: 2
#     Edge 78, Type (0, 1), BuildingBlock: EZIPEK_clean_linker_0, # of connection points: 2
#     Edge 79, Type (0, 1), BuildingBlock: EZIPEK_clean_linker_0, # of connection points: 2
#     Edge 80, Type (0, 1), BuildingBlock: EZIPEK_clean_linker_0, # of connection points: 2
#     Edge 81, Type (0, 1), BuildingBlock: EZIPEK_clean_linker_0, # of connection points: 2
#     Edge 82, Type (0, 1), BuildingBlock: EZIPEK_clean_linker_0, # of connection points: 2
#     Edge 83, Type (0, 1), BuildingBlock: EZIPEK_clean_linker_0, # of connection points: 2
#     Edge 84, Type (0, 1), BuildingBlock: EZIPEK_clean_linker_0, # of connection points: 2
#     Edge 85, Type (0, 1), BuildingBlock: EZIPEK_clean_linker_0, # of connection points: 2
#     Edge 86, Type (0, 1), BuildingBlock: EZIPEK_clean_linker_0, # of connection points: 2
#     Edge 87, Type (0, 1), BuildingBlock: EZIPEK_clean_linker_0, # of connection points: 2
#     Edge 88, Type (0, 1), BuildingBlock: EZIPEK_clean_linker_0, # of connection points: 2
#     Edge 89, Type (0, 1), BuildingBlock: EZIPEK_clean_linker_0, # of connection points: 2
#     Edge 90, Type (0, 1), BuildingBlock: EZIPEK_clean_linker_0, # of connection points: 2
#     Edge 91, Type (0, 1), BuildingBlock: EZIPEK_clean_linker_0, # of connection points: 2
#     Edge 92, Type (0, 1), BuildingBlock: EZIPEK_clean_linker_0, # of connection points: 2
#     Edge 93, Type (0, 1), BuildingBlock: EZIPEK_clean_linker_0, # of connection points: 2
#     Edge 94, Type (0, 1), BuildingBlock: EZIPEK_clean_linker_0, # of connection points: 2
#     Edge 95, Type (0, 1), BuildingBlock: EZIPEK_clean_linker_0, # of connection points: 2
#     Edge 96, Type (0, 1), BuildingBlock: EZIPEK_clean_linker_0, # of connection points: 2
#     Edge 97, Type (0, 1), BuildingBlock: EZIPEK_clean_linker_0, # of connection points: 2
#     Edge 98, Type (0, 1), BuildingBlock: EZIPEK_clean_linker_0, # of connection points: 2
#     Edge 99, Type (0, 1), BuildingBlock: EZIPEK_clean_linker_0, # of connection points: 2
#     Edge 100, Type (0, 1), BuildingBlock: EZIPEK_clean_linker_0, # of connection points: 2
#     Edge 101, Type (0, 1), BuildingBlock: EZIPEK_clean_linker_0, # of connection points: 2
#     Edge 102, Type (0, 1), BuildingBlock: EZIPEK_clean_linker_0, # of connection points: 2
#     Edge 103, Type (0, 1), BuildingBlock: EZIPEK_clean_linker_0, # of connection points: 2
#     Edge 104, Type (0, 1), BuildingBlock: EZIPEK_clean_linker_0, # of connection points: 2
#     Edge 105, Type (0, 1), BuildingBlock: EZIPEK_clean_linker_0, # of connection points: 2
#     Edge 106, Type (0, 1), BuildingBlock: EZIPEK_clean_linker_0, # of connection points: 2
#     Edge 107, Type (0, 1), BuildingBlock: EZIPEK_clean_linker_0, # of connection points: 2
#     Edge 108, Type (0, 1), BuildingBlock: EZIPEK_clean_linker_0, # of connection points: 2
#     Edge 109, Type (0, 1), BuildingBlock: EZIPEK_clean_linker_0, # of connection points: 2
#     Edge 110, Type (0, 1), BuildingBlock: EZIPEK_clean_linker_0, # of connection points: 2
#     Edge 111, Type (0, 1), BuildingBlock: EZIPEK_clean_linker_0, # of connection points: 2
#     Edge 112, Type (0, 1), BuildingBlock: EZIPEK_clean_linker_0, # of connection points: 2
#     Edge 113, Type (0, 1), BuildingBlock: EZIPEK_clean_linker_0, # of connection points: 2
#     Edge 114, Type (0, 1), BuildingBlock: EZIPEK_clean_linker_0, # of connection points: 2
#     Edge 115, Type (0, 1), BuildingBlock: EZIPEK_clean_linker_0, # of connection points: 2
#     Edge 116, Type (0, 1), BuildingBlock: EZIPEK_clean_linker_0, # of connection points: 2
#     Edge 117, Type (0, 1), BuildingBlock: EZIPEK_clean_linker_0, # of connection points: 2
#     Edge 118, Type (0, 1), BuildingBlock: EZIPEK_clean_linker_0, # of connection points: 2
#     Edge 119, Type (0, 1), BuildingBlock: EZIPEK_clean_linker_0, # of connection points: 2
#     Edge 120, Type (0, 1), BuildingBlock: EZIPEK_clean_linker_0, # of connection points: 2
#     Edge 121, Type (0, 1), BuildingBlock: EZIPEK_clean_linker_0, # of connection points: 2
#     Edge 122, Type (0, 1), BuildingBlock: EZIPEK_clean_linker_0, # of connection points: 2
#     Edge 123, Type (0, 1), BuildingBlock: EZIPEK_clean_linker_0, # of connection points: 2
#     Edge 124, Type (0, 1), BuildingBlock: EZIPEK_clean_linker_0, # of connection points: 2
#     Edge 125, Type (0, 1), BuildingBlock: EZIPEK_clean_linker_0, # of connection points: 2
#     Edge 126, Type (0, 1), BuildingBlock: EZIPEK_clean_linker_0, # of connection points: 2
#     Edge 127, Type (0, 1), BuildingBlock: EZIPEK_clean_linker_0, # of connection points: 2
#     Edge 128, Type (0, 1), BuildingBlock: EZIPEK_clean_linker_0, # of connection points: 2
#     Edge 129, Type (0, 1), BuildingBlock: EZIPEK_clean_linker_0, # of connection points: 2
#     Edge 130, Type (0, 1), BuildingBlock: EZIPEK_clean_linker_0, # of connection points: 2
#     Edge 131, Type (0, 1), BuildingBlock: EZIPEK_clean_linker_0, # of connection points: 2
#     Edge 132, Type (0, 1), BuildingBlock: EZIPEK_clean_linker_0, # of connection points: 2
#     Edge 133, Type (0, 1), BuildingBlock: EZIPEK_clean_linker_0, # of connection points: 2
#     Edge 134, Type (0, 1), BuildingBlock: EZIPEK_clean_linker_0, # of connection points: 2
#     Edge 135, Type (0, 1), BuildingBlock: EZIPEK_clean_linker_0, # of connection points: 2
# Relax obj value: 0.196
# Max RMSD: 0.282
# Mean RMSD: 0.181
data_MOF--net-gar--node1-GALJAG_clean_sbu_0--node2-PAMTOO_clean_sbu_0--edge1-EZIPEK_clean_linker_0
_symmetry_space_group_name_H-M    P1
_symmetry_Int_Tables_number       1
_symmetry_cell_setting            triclinic
loop_
_symmetry_equiv_pos_as_xyz
'x, y, z'
_cell_length_a     44.783286
_cell_length_b     44.832756
_cell_length_c     42.724777
_cell_angle_alpha  97.582288
_cell_angle_beta   96.955182
_cell_angle_gamma 104.81706
loop_
_atom_site_label
_atom_site_type_symbol
_atom_site_fract_x
_atom_site_fract_y
_atom_site_fract_z
_atom_type_partial_charge
In0 In 0.08954 0.36729 0.38189 0.0
O1 O 0.12036 0.35948 0.34032 0.0
O2 O 0.14331 0.3685 0.38757 0.0
C3 C 1.02622 0.35699 0.35402 0.0
C4 C 0.08094 0.31749 0.41283 0.0
C5 C 0.09704 0.42513 0.41886 0.0
O6 O 0.04904 0.37027 0.34106 0.0
O7 O 0.03528 0.34797 0.37924 0.0
O8 O 0.09577 0.40033 0.43006 0.0
O9 O 0.09604 0.42157 0.38884 0.0
C10 C 0.1459 0.36221 0.35853 0.0
O11 O 0.09007 0.34555 0.42714 0.0
O12 O 0.07676 0.31429 0.38258 0.0
In13 In 0.04874 0.77896 0.7333 0.0
O14 O 0.04299 0.80392 0.69101 0.0
O15 O 0.0683 0.83193 0.73504 0.0
C16 C 0.04316 0.72333 0.69239 0.0
C17 C 0.11245 0.78933 0.7597 0.0
C18 C 0.99213 0.78251 0.75781 0.0
O19 O 0.04711 0.74986 0.68424 0.0
O20 O 0.0391 0.7239 0.72137 0.0
O21 O 1.01525 0.77688 0.77408 0.0
O22 O 0.99722 0.78507 0.7297 0.0
C23 C 0.05866 0.83069 0.70571 0.0
O24 O 0.0914 0.79002 0.77715 0.0
O25 O 0.10111 0.78289 0.73044 0.0
In26 In 0.58701 0.86958 0.88552 0.0
O27 O 0.61882 0.86637 0.84375 0.0
O28 O 0.6396 0.86715 0.89044 0.0
C29 C 0.52268 0.85869 0.86071 0.0
C30 C 0.57863 0.81853 0.91451 0.0
C31 C 0.59616 0.92797 0.92221 0.0
O32 O 0.544 0.86305 0.84321 0.0
O33 O 0.53371 0.85954 0.88946 0.0
O34 O 0.59676 0.90352 0.9335 0.0
O35 O 0.59287 0.92388 0.89193 0.0
C36 C 0.64329 0.86509 0.8615 0.0
O37 O 0.58984 0.84615 0.92955 0.0
O38 O 0.57202 0.81631 0.88449 0.0
In39 In 0.55518 0.28105 0.23593 0.0
O40 O 0.55318 0.2498 0.18797 0.0
O41 O 0.55035 0.22701 0.22806 0.0
C42 C 0.56258 0.32859 0.20211 0.0
C43 C 0.49925 0.28626 0.26045 0.0
C44 C 0.61821 0.29077 0.2633 0.0
O45 O 0.54785 0.30063 0.19006 0.0
O46 O 0.57257 0.33304 0.23185 0.0
O47 O 0.59548 0.27597 0.27547 0.0
O48 O 0.60911 0.30203 0.23961 0.0
C49 C 0.55252 0.2248 0.1986 0.0
O50 O 0.52601 0.29316 0.27781 0.0
O51 O 0.50052 0.27571 0.23191 0.0
In52 In 0.10684 0.84322 0.1385 0.0
O53 O 0.1172 0.80305 0.10161 0.0
O54 O 0.08365 0.78888 0.13076 0.0
C55 C 0.1022 0.89922 0.11356 0.0
C56 C 0.05524 0.83264 0.16697 0.0
C57 C 0.16123 0.85085 0.18154 0.0
O58 O 0.09943 0.87316 0.09596 0.0
O59 O 0.10897 0.89739 0.14265 0.0
O60 O 0.13598 0.85412 0.18964 0.0
O61 O 0.16006 0.84546 0.1515 0.0
C62 C 0.09877 0.77997 0.11015 0.0
O63 O 0.08276 0.84149 0.18236 0.0
O64 O 0.05343 0.82957 0.13686 0.0
In65 In 0.51366 0.79834 0.48415 0.0
O66 O 0.53126 0.79286 0.43627 0.0
O67 O 0.56535 0.81198 0.47827 0.0
C68 C 0.45446 0.79413 0.45238 0.0
C69 C 0.52003 0.74273 0.50853 0.0
C70 C 0.52612 0.86277 0.50989 0.0
O71 O 0.4773 0.7922 0.43838 0.0
O72 O 0.4605 0.79568 0.48237 0.0
O73 O 0.5108 0.84109 0.52294 0.0
O74 O 0.53674 0.85187 0.48629 0.0
C75 C 0.5599 0.80427 0.44811 0.0
O76 O 0.52625 0.76963 0.52582 0.0
O77 O 0.50926 0.7438 0.48011 0.0
In78 In 0.60834 0.33668 0.62675 0.0
O79 O 0.61593 0.29605 0.58828 0.0
O80 O 0.5839 0.28265 0.61908 0.0
C81 C 0.60421 0.39255 0.60132 0.0
C82 C 0.56048 0.33078 0.6614 0.0
C83 C 0.66494 0.34106 0.66453 0.0
O84 O 0.5932 0.3649 0.58572 0.0
O85 O 0.61871 0.39219 0.62848 0.0
O86 O 0.63984 0.34061 0.67527 0.0
O87 O 0.66231 0.34075 0.63461 0.0
C88 C 0.59766 0.27329 0.5974 0.0
O89 O 0.58895 0.34131 0.67396 0.0
O90 O 0.55591 0.32404 0.63119 0.0
In91 In 1.01769 0.30549 0.98713 0.0
O92 O 0.0359 0.27657 0.02578 0.0
O93 O 1.00234 0.2502 0.98749 0.0
C94 C 1.02776 0.36842 0.01754 0.0
C95 C 0.06681 0.31003 0.95448 0.0
C96 C 0.96309 0.30155 0.94595 0.0
O97 O 1.01339 0.34506 0.02904 0.0
O98 O 0.03746 0.35988 0.99235 0.0
O99 O 0.98953 0.3038 0.93758 0.0
O100 O 0.96335 0.29958 0.97537 0.0
C101 C 1.02068 0.2491 0.01201 0.0
O102 O 0.03865 0.29888 0.9412 0.0
O103 O 0.07044 0.31793 0.9845 0.0
In104 In 0.40858 0.03626 0.32 0.0
O105 O 0.44853 0.0424 0.29162 0.0
O106 O 0.41252 0.9992 0.28008 0.0
C107 C 0.45198 0.05863 0.37259 0.0
C108 C 0.37511 0.06829 0.28935 0.0
C109 C 0.36795 0.99846 0.34796 0.0
O110 O 0.44638 0.03126 0.35735 0.0
O111 O 0.43615 0.0754 0.36111 0.0
O112 O 0.37183 0.02764 0.35278 0.0
O113 O 0.38423 0.98854 0.32916 0.0
C114 C 0.43808 1.01561 0.27462 0.0
O115 O 0.36646 0.0389 0.2864 0.0
O116 O 0.40109 0.0816 0.307 0.0
In117 In 0.2976 0.24198 0.5484 0.0
O118 O 0.28623 0.27983 0.58403 0.0
O119 O 0.31721 0.25525 0.60199 0.0
C120 C 0.30427 0.264 0.49193 0.0
C121 C 0.34301 0.21287 0.55181 0.0
C122 C 0.24078 0.20179 0.54615 0.0
O123 O 0.31416 0.28141 0.51892 0.0
O124 O 0.29023 0.23615 0.49338 0.0
O125 O 0.26592 0.19414 0.55036 0.0
O126 O 0.24383 0.22972 0.54191 0.0
C127 C 0.30221 0.27487 0.60826 0.0
O128 O 0.31429 0.19869 0.54794 0.0
O129 O 0.34926 0.24226 0.55344 0.0
In130 In 0.14577 0.09636 0.82466 0.0
O131 O 0.10157 0.09497 0.78835 0.0
O132 O 0.14286 0.09212 0.77035 0.0
C133 C 0.1188 0.09029 0.87911 0.0
C134 C 0.17479 0.05079 0.82314 0.0
C135 C 0.1903 0.15121 0.82989 0.0
O136 O 0.13083 0.11644 0.87143 0.0
O137 O 0.11829 0.06738 0.85831 0.0
O138 O 0.19661 0.12568 0.83202 0.0
O139 O 0.1615 0.14966 0.82654 0.0
C140 C 0.11507 0.09321 0.76407 0.0
O141 O 0.1866 0.07754 0.84001 0.0
O142 O 0.14782 0.04653 0.80736 0.0
In143 In 0.33477 0.97523 0.02458 0.0
O144 O 0.3188 0.93399 0.0506 0.0
O145 O 0.35752 0.9723 0.07376 0.0
C146 C 0.32075 0.93483 0.96966 0.0
C147 C 0.2965 1.01185 0.03069 0.0
C148 C 0.39326 1.00921 0.02752 0.0
O149 O 0.30336 0.93205 0.99083 0.0
O150 O 0.34423 0.95834 0.97565 0.0
O151 O 0.37102 0.02172 0.02782 0.0
O152 O 0.38588 0.97983 0.02511 0.0
C153 C 0.33971 0.94585 0.07478 0.0
O154 O 0.30576 0.99921 0.05315 0.0
O155 O 0.30556 1.00533 1.0045 0.0
In156 In 0.33791 0.41349 0.07252 0.0
O157 O 0.32395 0.37341 0.10194 0.0
O158 O 0.34452 0.41924 0.12764 0.0
C159 C 0.33326 0.3828 0.01158 0.0
C160 C 0.29046 0.44056 0.06491 0.0
C161 C 0.39751 0.44863 0.07687 0.0
O162 O 0.33209 0.36849 0.03524 0.0
O163 O 0.33638 0.41168 0.01883 0.0
O164 O 0.37495 0.46021 0.07966 0.0
O165 O 0.39055 0.41911 0.07382 0.0
C166 C 0.33273 0.39083 0.12901 0.0
O167 O 0.31871 0.45591 0.07323 0.0
O168 O 0.28556 0.41121 0.06108 0.0
In169 In 0.83854 0.20603 0.08103 0.0
O170 O 0.87422 0.17971 0.07041 0.0
O171 O 0.84442 0.18644 0.03088 0.0
C172 C 0.7809 0.1683 0.07784 0.0
C173 C 0.86186 0.2246 0.14415 0.0
C174 C 0.83535 0.25833 0.05855 0.0
O175 O 0.80447 0.15781 0.07778 0.0
O176 O 0.78635 0.19746 0.07907 0.0
O177 O 0.85981 0.24911 0.06021 0.0
O178 O 0.81272 0.24081 0.06819 0.0
C179 C 0.86575 0.17458 0.04044 0.0
O180 O 0.84277 0.19847 0.13264 0.0
O181 O 0.87047 0.24069 0.12319 0.0
In182 In 0.25093 0.58309 0.26264 0.0
O183 O 0.28897 0.56647 0.23944 0.0
O184 O 0.27494 0.54867 0.28045 0.0
C185 C 0.27144 0.64352 0.25785 0.0
C186 C 0.19865 0.56041 0.21903 0.0
C187 C 0.23189 0.59184 0.31975 0.0
O188 O 0.28606 0.63103 0.27704 0.0
O189 O 0.24751 0.62524 0.2401 0.0
O190 O 0.22097 0.56662 0.29999 0.0
O191 O 0.25313 0.61208 0.31128 0.0
C192 C 0.29289 0.54962 0.25999 0.0
O193 O 0.19918 0.55708 0.24787 0.0
O194 O 0.2248 0.57314 0.21175 0.0
In195 In 0.83581 0.91236 0.57441 0.0
O196 O 0.81964 0.87282 0.60412 0.0
O197 O 0.84203 0.91854 0.62942 0.0
C198 C 0.83122 0.88149 0.51335 0.0
C199 C 0.78891 0.93967 0.56874 0.0
C200 C 0.89468 0.94968 0.57876 0.0
O201 O 0.8404 0.87083 0.53764 0.0
O202 O 0.82362 0.90641 0.52002 0.0
O203 O 0.87066 0.95933 0.57505 0.0
O204 O 0.88937 0.92118 0.58163 0.0
C205 C 0.82904 0.89047 0.63108 0.0
O206 O 0.81726 0.95496 0.57718 0.0
O207 O 0.78375 0.91022 0.5645 0.0
In208 In 0.98063 0.0534 0.30269 0.0
O209 O 1.02112 0.07088 0.27431 0.0
O210 O 0.97592 0.04888 0.24789 0.0
C211 C 1.01199 0.05424 0.3621 0.0
C212 C 0.95453 0.10111 0.31058 0.0
C213 C 0.94029 0.9959 0.29718 0.0
O214 O 1.02085 0.04393 0.33685 0.0
O215 O 0.98866 0.06466 0.35717 0.0
O216 O 0.9334 0.02088 0.30589 0.0
O217 O 0.96744 0.99964 0.29008 0.0
C218 C 1.00416 0.06218 0.24703 0.0
O219 O 0.93896 0.07341 0.29877 0.0
O220 O 0.98378 0.10537 0.317 0.0
In221 In 0.29783 0.65927 0.61092 0.0
O222 O 0.33856 0.63913 0.624 0.0
O223 O 0.31079 0.62314 0.57756 0.0
C224 C 0.24961 0.6258 0.63418 0.0
C225 C 0.32262 0.71223 0.65326 0.0
C226 C 0.27728 0.67788 0.55718 0.0
O227 O 0.27438 0.61745 0.63316 0.0
O228 O 0.24987 0.65113 0.62424 0.0
O229 O 0.30376 0.69119 0.57372 0.0
O230 O 0.26144 0.65453 0.56703 0.0
C231 C 0.33344 0.62152 0.59717 0.0
O232 O 0.336 0.70521 0.63018 0.0
O233 O 0.29804 0.69208 0.65568 0.0
In234 In 0.48396 0.54778 0.79138 0.0
O235 O 0.44013 0.56224 0.77776 0.0
O236 O 0.48018 0.59785 0.80315 0.0
C237 C 0.44275 0.49221 0.79147 0.0
C238 C 0.5084 0.55517 0.73619 0.0
C239 C 0.51654 0.55223 0.85112 0.0
O240 O 0.43746 0.5181 0.79969 0.0
O241 O 0.469 0.4939 0.7826 0.0
O242 O 0.52193 0.53649 0.82667 0.0
O243 O 0.49649 0.56674 0.84512 0.0
C244 C 0.45166 0.5905 0.79063 0.0
O245 O 0.52304 0.56989 0.76329 0.0
O246 O 0.48271 0.53596 0.73723 0.0
In247 In 0.72873 0.09452 0.76156 0.0
O248 O 0.7658 0.08949 0.79974 0.0
O249 O 0.74905 0.05286 0.75917 0.0
C250 C 0.76481 0.14051 0.73795 0.0
C251 C 0.6805 0.07087 0.71395 0.0
C252 C 0.70037 0.10914 0.81071 0.0
O253 O 0.76823 0.11325 0.73364 0.0
O254 O 0.7435 0.14399 0.75359 0.0
O255 O 0.68961 0.08395 0.79103 0.0
O256 O 0.72574 0.12663 0.80605 0.0
C257 C 0.76706 0.06347 0.78563 0.0
O258 O 0.69144 0.05328 0.73007 0.0
O259 O 0.69429 0.09964 0.72139 0.0
In260 In 0.80185 0.73794 0.05106 0.0
O261 O 0.82224 0.69647 0.04746 0.0
O262 O 0.85007 0.7387 0.07736 0.0
C263 C 0.74616 0.69362 0.03996 0.0
C264 C 0.8017 0.77096 0.11009 0.0
C265 C 0.80977 0.76189 0.99501 0.0
O266 O 0.77189 0.68717 0.03954 0.0
O267 O 0.74811 0.72252 0.0442 0.0
O268 O 0.7874 0.76357 1.00988 0.0
O269 O 0.82879 0.74967 1.00899 0.0
C270 C 0.84713 0.71021 0.06673 0.0
O271 O 0.81382 0.78424 0.08844 0.0
O272 O 0.78951 0.74201 0.10164 0.0
In273 In 0.90914 0.55482 0.84532 0.0
O274 O 0.86518 0.55579 0.81407 0.0
O275 O 0.8953 0.59933 0.83963 0.0
C276 C 0.87435 0.50339 0.86193 0.0
C277 C 0.94074 0.54788 0.79692 0.0
C278 C 0.94922 0.57633 0.89995 0.0
O279 O 0.86984 0.52975 0.87011 0.0
O280 O 0.89667 0.50341 0.84663 0.0
O281 O 0.95109 0.55421 0.87954 0.0
O282 O 0.92714 0.58824 0.89291 0.0
C283 C 0.87028 0.58501 0.82076 0.0
O284 O 0.94972 0.57169 0.81866 0.0
O285 O 0.9159 0.52813 0.79941 0.0
In286 In 0.85349 0.49825 0.51642 0.0
O287 O 0.88526 0.47488 0.54414 0.0
O288 O 0.8514 0.49061 0.56769 0.0
C289 C 0.82611 0.44854 0.47051 0.0
C290 C 0.8192 0.53555 0.53532 0.0
C291 C 0.90129 0.53401 0.49499 0.0
O292 O 0.82424 0.44762 0.49953 0.0
O293 O 0.83997 0.47477 0.46451 0.0
O294 O 0.87379 0.53584 0.48764 0.0
O295 O 0.90448 0.51451 0.51297 0.0
C296 C 0.87305 0.47738 0.56912 0.0
O297 O 0.84846 0.54283 0.54369 0.0
O298 O 0.80711 0.5095 0.5171 0.0
In299 In 0.65403 0.58698 0.31515 0.0
O300 O 0.69534 0.56645 0.3161 0.0
O301 O 0.65046 0.53523 0.29708 0.0
C302 C 0.69228 0.6458 0.32405 0.0
C303 C 0.6239 0.58443 0.25464 0.0
C304 C 0.63143 0.58068 0.37183 0.0
O305 O 0.70209 0.62184 0.32367 0.0
O306 O 0.66291 0.6405 0.32169 0.0
O307 O 0.61507 0.58468 0.34729 0.0
O308 O 0.65863 0.58002 0.36786 0.0
C309 C 0.67963 0.53912 0.3034 0.0
O310 O 0.60932 0.57411 0.27635 0.0
O311 O 0.6529 0.59583 0.2635 0.0
Dy312 Dy 0.09495 0.09448 0.07942 0.0
Dy313 Dy 1.02619 0.05317 0.04601 0.0
C314 C 0.08022 0.07404 1.00399 0.0
O315 O 0.07332 0.13137 0.06109 0.0
O316 O 1.02182 0.1033 0.04633 0.0
O317 O 0.13435 0.13445 0.08105 0.0
O318 O 0.13515 0.10462 0.11665 0.0
O319 O 1.02648 0.05396 0.09877 0.0
O320 O 0.06597 0.09861 0.11812 0.0
O321 O 0.04995 1.01478 0.05535 0.0
O322 O 0.09574 0.04461 0.08705 0.0
O323 O 0.97701 0.03676 0.04739 0.0
O324 O 0.99556 0.02098 1.00562 0.0
C325 C 0.04401 0.1302 0.05021 0.0
O326 O 0.10061 0.07603 0.02953 0.0
O327 O 0.05065 0.07035 1.00629 0.0
C328 C 0.18132 0.12137 0.09517 0.0
C329 C 0.2265 0.09519 0.07233 0.0
C330 C 0.21196 0.11235 0.05351 0.0
C331 C 0.18958 0.12556 0.06493 0.0
C332 C 0.19848 0.10706 0.1152 0.0
C333 C 0.22089 0.09387 0.10375 0.0
C334 C 0.15168 0.12629 0.10326 0.0
C335 C 0.04232 0.07621 0.12245 0.0
C336 C 0.07625 1.01671 0.07448 0.0
C337 C 0.94828 0.03565 0.99829 0.0
C338 C 0.91705 0.08076 0.98759 0.0
C339 C 0.90349 0.05577 1.00255 0.0
C340 C 0.91893 0.03311 1.00764 0.0
C341 C 0.9593 0.05779 0.97886 0.0
C342 C 0.94339 0.08007 0.9731 0.0
C343 C 0.97053 0.02349 0.01738 0.0
H344 H 0.21627 0.11359 0.02924 0.0
H345 H 0.17719 0.13693 0.04909 0.0
H346 H 0.19282 0.10386 0.1387 0.0
H347 H 0.23219 0.08073 0.1185 0.0
H348 H 0.88277 0.05566 0.01333 0.0
H349 H 0.91002 1.01619 0.02256 0.0
H350 H 0.98192 0.06025 0.97133 0.0
H351 H 0.95379 0.09897 0.961 0.0
Dy352 Dy 0.33114 0.8462 0.31239 0.0
Dy353 Dy 0.2746 0.81663 0.34928 0.0
C354 C 0.30978 0.88613 0.3658 0.0
O355 O 0.35469 0.82239 0.34674 0.0
O356 O 0.31902 0.81598 0.38158 0.0
O357 O 0.35937 0.88895 0.30136 0.0
O358 O 0.36909 0.84469 0.28611 0.0
O359 O 0.29003 0.77731 0.32635 0.0
O360 O 0.30655 0.79904 0.28384 0.0
O361 O 0.24934 0.82063 0.30138 0.0
O362 O 0.28898 0.85549 0.28464 0.0
O363 O 0.23245 0.78154 0.35275 0.0
O364 O 0.25217 0.82167 0.39064 0.0
C365 C 0.34689 0.8156 0.3742 0.0
O366 O 0.33363 0.87607 0.35931 0.0
O367 O 0.2818 0.86793 0.35498 0.0
C368 C 0.37436 0.88174 0.25099 0.0
C369 C 0.36517 0.89826 0.19032 0.0
C370 C 0.37937 0.92144 0.21705 0.0
C371 C 0.38415 0.91321 0.24722 0.0
C372 C 0.36123 0.85843 0.22389 0.0
C373 C 0.35688 0.86667 0.19366 0.0
C374 C 0.37452 0.87423 0.28343 0.0
C375 C 0.29641 0.77453 0.29725 0.0
C376 C 0.25917 0.83999 0.28165 0.0
C377 C 0.23112 0.77335 0.40647 0.0
C378 C 0.23879 0.73666 0.45362 0.0
C379 C 0.23036 0.72264 0.4213 0.0
C380 C 0.22666 0.74091 0.39781 0.0
C381 C 0.23739 0.78671 0.43906 0.0
C382 C 0.24148 0.76856 0.46242 0.0
C383 C 0.23222 0.79397 0.38214 0.0
H384 H 0.38583 0.94589 0.21467 0.0
H385 H 0.3942 0.93151 0.26781 0.0
H386 H 0.35324 0.83399 0.22613 0.0
H387 H 0.3459 0.84861 0.17309 0.0
H388 H 0.228 0.69791 0.41427 0.0
H389 H 0.2215 0.72984 0.37291 0.0
H390 H 0.24051 0.81152 0.44646 0.0
H391 H 0.24775 0.77959 0.48733 0.0
Dy392 Dy 0.52874 0.06615 0.56607 0.0
Dy393 Dy 0.59232 0.07019 0.53506 0.0
C394 C 0.53019 0.07178 0.49302 0.0
O395 O 0.52423 1.01499 0.54587 0.0
O396 O 0.57491 0.01852 0.53833 0.0
O397 O 0.47854 0.0488 0.56086 0.0
O398 O 0.50449 0.08138 0.6033 0.0
O399 O 0.60545 0.07148 0.58724 0.0
O400 O 0.55812 0.05038 0.6024 0.0
O401 O 0.58749 0.12026 0.54042 0.0
O402 O 0.55782 0.11713 0.58046 0.0
O403 O 0.64199 0.09127 0.53832 0.0
O404 O 0.61727 0.05472 0.49872 0.0
C405 C 0.54644 1.00146 0.53968 0.0
O406 O 0.52213 0.08287 0.51957 0.0
O407 O 0.55419 0.06021 0.49337 0.0
C408 C 0.45754 0.08924 0.57993 0.0
C409 C 0.42313 0.13233 0.56942 0.0
C410 C 0.44137 0.12437 0.547 0.0
C411 C 0.45825 0.10283 0.5521 0.0
C412 C 0.43946 0.09734 0.6025 0.0
C413 C 0.4222 0.11871 0.59721 0.0
C414 C 0.47706 0.06812 0.58591 0.0
C415 C 0.5887 0.05853 0.60749 0.0
C416 C 0.57586 0.13431 0.56339 0.0
C417 C 0.66576 0.05192 0.5234 0.0
C418 C 0.70458 1.01414 0.53967 0.0
C419 C 0.67758 1.01284 0.55349 0.0
C420 C 0.65838 0.03165 0.54545 0.0
C421 C 0.69279 0.05334 0.50954 0.0
C422 C 0.71216 0.03451 0.51767 0.0
C423 C 0.6445 0.07074 0.51489 0.0
H424 H 0.44236 0.13469 0.52547 0.0
H425 H 0.47209 0.09703 0.53438 0.0
H426 H 0.43883 0.08728 0.6242 0.0
H427 H 0.40818 0.12466 0.61473 0.0
H428 H 0.67135 0.99717 0.57037 0.0
H429 H 0.63757 0.03028 0.55625 0.0
H430 H 0.69877 0.0688 0.49242 0.0
H431 H 0.73293 0.03566 0.50673 0.0
Dy432 Dy 0.34813 0.30893 0.81215 0.0
Dy433 Dy 0.28414 0.33487 0.80918 0.0
C434 C 0.3515 0.37911 0.80345 0.0
O435 O 0.34927 0.3341 0.86192 0.0
O436 O 0.29656 0.3277 0.85926 0.0
O437 O 0.3977 0.31713 0.82798 0.0
O438 O 0.37133 0.27392 0.79699 0.0
O439 O 0.26847 0.28277 0.80288 0.0
O440 O 0.31198 0.27183 0.82785 0.0
O441 O 0.29325 0.33123 0.75853 0.0
O442 O 0.32478 0.29777 0.76069 0.0
O443 O 0.23506 0.32871 0.79203 0.0
O444 O 0.26091 0.36838 0.82807 0.0
C445 C 0.32479 0.33509 0.8759 0.0
O446 O 0.36106 0.3544 0.79545 0.0
O447 O 0.32483 0.37759 0.81398 0.0
C448 C 0.42192 0.29787 0.78687 0.0
C449 C 0.46589 0.30977 0.74464 0.0
C450 C 0.43942 0.32115 0.74147 0.0
C451 C 0.41763 0.31524 0.7624 0.0
C452 C 0.44832 0.28643 0.79 0.0
C453 C 0.47012 0.29228 0.76901 0.0
C454 C 0.39913 0.29226 0.80925 0.0
C455 C 0.28171 0.26435 0.8175 0.0
C456 C 0.30763 0.31228 0.74451 0.0
C457 C 0.20914 0.34417 0.8337 0.0
C458 C 0.16397 0.3312 0.87442 0.0
C459 C 0.1886 0.31705 0.87566 0.0
C460 C 0.211 0.32346 0.85543 0.0
C461 C 0.18453 0.35824 0.83242 0.0
C462 C 0.16209 0.3518 0.85261 0.0
C463 C 0.23335 0.35177 0.81319 0.0
H464 H 0.43564 0.33454 0.72277 0.0
H465 H 0.39742 0.32428 0.75956 0.0
H466 H 0.45209 0.27303 0.8087 0.0
H467 H 0.49034 0.28323 0.77177 0.0
H468 H 0.19052 0.30119 0.89237 0.0
H469 H 0.22989 0.31243 0.85687 0.0
H470 H 0.18279 0.37437 0.81595 0.0
H471 H 0.14332 0.363 0.85137 0.0
Dy472 Dy 0.08362 0.04647 0.56338 0.0
Dy473 Dy 0.05186 0.10564 0.56144 0.0
C474 C 1.01202 0.03767 0.5701 0.0
O475 O 0.05868 0.04014 0.513 0.0
O476 O 0.05988 0.09133 0.5116 0.0
O477 O 0.08148 0.99816 0.5476 0.0
O478 O 0.1203 0.02735 0.58288 0.0
O479 O 0.10363 0.12587 0.56789 0.0
O480 O 0.11877 0.08338 0.54631 0.0
O481 O 0.05539 0.09876 0.61304 0.0
O482 O 0.09419 0.07351 0.61334 0.0
O483 O 0.05263 0.15381 0.5771 0.0
O484 O 1.01669 0.12477 0.53904 0.0
C485 C 0.05603 0.06267 0.49699 0.0
O486 O 0.03808 0.03141 0.58058 0.0
O487 O 1.01176 0.06259 0.55705 0.0
C488 C 0.09921 0.97529 0.59046 0.0
C489 C 0.0884 0.93077 0.63168 0.0
C490 C 0.06331 0.93943 0.61607 0.0
C491 C 0.06866 0.96163 0.5958 0.0
C492 C 0.12433 0.9669 0.60641 0.0
C493 C 0.119 0.94489 0.62697 0.0
C494 C 0.10505 0.99885 0.56913 0.0
C495 C 0.12391 0.11371 0.55507 0.0
C496 C 0.0768 0.08817 0.62846 0.0
C497 C 0.03855 0.17685 0.53306 0.0
C498 C 0.05351 0.22098 0.49193 0.0
C499 C 0.06951 0.19796 0.49383 0.0
C500 C 0.06209 0.17613 0.51426 0.0
C501 C 1.02246 0.19976 0.53113 0.0
C502 C 0.0299 0.2217 0.5107 0.0
C503 C 0.03053 0.1532 0.55393 0.0
H504 H 0.03956 0.92881 0.61941 0.0
H505 H 0.04884 0.96797 0.58422 0.0
H506 H 0.14807 0.97734 0.6029 0.0
H507 H 0.13864 0.93849 0.63886 0.0
H508 H 0.08772 0.19693 0.47953 0.0
H509 H 0.07464 0.15856 0.51537 0.0
H510 H 1.00413 0.20063 0.54531 0.0
H511 H 1.01727 0.23925 0.50952 0.0
Dy512 Dy 0.32291 0.86203 0.80248 0.0
Dy513 Dy 0.31189 0.78504 0.82223 0.0
C514 C 0.30694 0.83381 0.86674 0.0
O515 O 0.37264 0.85768 0.81395 0.0
O516 O 0.36467 0.81051 0.8338 0.0
O517 O 0.33236 0.906 0.83436 0.0
O518 O 0.32182 0.90342 0.78252 0.0
O519 O 0.32593 0.78856 0.77339 0.0
O520 O 0.32875 0.83705 0.75686 0.0
O521 O 0.26261 0.78998 0.80552 0.0
O522 O 0.27 0.8395 0.7905 0.0
O523 O 0.29407 0.73595 0.80175 0.0
O524 O 0.32034 0.75032 0.84985 0.0
C525 C 0.38359 0.83637 0.82708 0.0
O526 O 0.31073 0.83473 0.83769 0.0
O527 O 0.30463 0.80574 0.87142 0.0
C528 C 0.30233 0.93789 0.81509 0.0
C529 C 0.257 0.97079 0.81941 0.0
C530 C 0.24877 0.93838 0.81902 0.0
C531 C 0.27132 0.92199 0.81674 0.0
C532 C 0.31064 0.97034 0.81601 0.0
C533 C 0.28806 0.98673 0.81811 0.0
C534 C 0.32563 0.92051 0.81086 0.0
C535 C 0.32988 0.80775 0.75213 0.0
C536 C 0.25138 0.8121 0.79424 0.0
C537 C 0.32946 0.70743 0.81841 0.0
C538 C 0.37104 0.67143 0.80614 0.0
C539 C 0.35406 0.67999 0.7807 0.0
C540 C 0.3335 0.69805 0.78678 0.0
C541 C 0.34645 0.69861 0.84371 0.0
C542 C 0.36724 0.68097 0.83765 0.0
C543 C 0.30884 0.72743 0.82577 0.0
H544 H 0.22485 0.92577 0.81991 0.0
H545 H 0.26446 0.89687 0.81569 0.0
H546 H 0.33443 0.98291 0.8146 0.0
H547 H 0.29469 1.01176 0.81832 0.0
H548 H 0.3566 0.67255 0.75623 0.0
H549 H 0.32087 0.70463 0.76676 0.0
H550 H 0.34379 0.70554 0.86826 0.0
H551 H 0.38004 0.67432 0.8575 0.0
Dy552 Dy 0.58722 0.1079 0.03481 0.0
Dy553 Dy 0.58996 0.0602 0.08621 0.0
C554 C 0.59413 0.03807 0.01275 0.0
O555 O 0.53837 0.09234 0.04308 0.0
O556 O 0.54078 0.0467 0.06088 0.0
O557 O 0.56788 0.11871 0.99029 0.0
O558 O 0.60547 0.15351 0.02271 0.0
O559 O 0.5707 0.09727 0.1107 0.0
O560 O 0.58988 0.13666 0.08319 0.0
O561 O 0.63766 0.09309 0.09307 0.0
O562 O 0.63591 0.10435 0.04238 0.0
O563 O 0.60727 0.05154 0.13251 0.0
O564 O 0.57638 1.01348 0.09741 0.0
C565 C 0.52501 0.06492 0.04961 0.0
O566 O 0.58197 0.06051 1.005 0.0
O567 O 0.60461 0.03747 0.04274 0.0
C568 C 0.60765 0.14866 0.9676 0.0
C569 C 0.6387 0.14248 0.91512 0.0
C570 C 0.65429 0.14424 0.94603 0.0
C571 C 0.63883 0.14714 0.97213 0.0
C572 C 0.5927 0.14872 0.93682 0.0
C573 C 0.60816 0.14556 0.9106 0.0
C574 C 0.58942 0.1453 0.99383 0.0
C575 C 0.57739 0.12703 0.10773 0.0
C576 C 0.65159 0.10406 0.07012 0.0
C577 C 0.56749 1.01571 0.15022 0.0
C578 C 0.52162 1.0012 0.18911 0.0
C579 C 0.53205 0.03176 0.18305 0.0
C580 C 0.55473 0.03897 0.16367 0.0
C581 C 0.55715 0.98506 0.15634 0.0
C582 C 0.5342 0.97778 0.17576 0.0
C583 C 0.58906 0.02296 0.12735 0.0
H584 H 0.67783 0.14171 0.94973 0.0
H585 H 0.65078 0.14659 0.99557 0.0
H586 H 0.56858 0.14953 0.93289 0.0
H587 H 0.59588 0.14406 0.88674 0.0
H588 H 0.52244 0.05001 0.19321 0.0
H589 H 0.5619 0.06266 0.15884 0.0
H590 H 0.56641 0.96676 0.14567 0.0
H591 H 0.52619 0.95406 0.1803 0.0
Dy592 Dy 0.30282 0.29112 0.29111 0.0
Dy593 Dy 0.34367 0.35989 0.32893 0.0
C594 C 0.32268 0.3036 0.3688 0.0
O595 O 0.26359 0.31208 0.30349 0.0
O596 O 0.29258 0.35959 0.33298 0.0
O597 O 0.26834 0.24664 0.28709 0.0
O598 O 0.29323 0.25702 0.24786 0.0
O599 O 0.33949 0.36639 0.2775 0.0
O600 O 0.30143 0.32156 0.25364 0.0
O601 O 0.38111 0.34023 0.30918 0.0
O602 O 0.3538 0.28876 0.29238 0.0
O603 O 0.38798 0.39233 0.35223 0.0
O604 O 0.34532 0.40644 0.35079 0.0
C605 C 0.26505 0.33893 0.32151 0.0
O606 O 0.30611 0.28498 0.34268 0.0
O607 O 0.34112 0.3314 0.36823 0.0
C608 C 0.28486 0.2067 0.25958 0.0
C609 C 0.30811 0.15437 0.25734 0.0
C610 C 0.31814 0.17842 0.28392 0.0
C611 C 0.30673 0.2045 0.28498 0.0
C612 C 0.27464 0.18259 0.23295 0.0
C613 C 0.28628 0.1564 0.2318 0.0
C614 C 0.27519 0.23545 0.26 0.0
C615 C 0.32066 0.34867 0.25216 0.0
C616 C 0.38051 0.31132 0.2973 0.0
C617 C 0.38875 0.44293 0.34202 0.0
C618 C 0.37924 0.4869 0.3045 0.0
C619 C 0.38667 0.46017 0.29059 0.0
C620 C 0.39155 0.43817 0.30943 0.0
C621 C 0.38722 0.47221 0.35671 0.0
C622 C 0.38256 0.4943 0.33791 0.0
C623 C 0.37576 0.41567 0.35649 0.0
H624 H 0.33507 0.17708 0.30372 0.0
H625 H 0.31533 0.2232 0.30545 0.0
H626 H 0.25812 0.18429 0.21298 0.0
H627 H 0.27845 0.13788 0.21115 0.0
H628 H 0.38415 0.4542 0.26481 0.0
H629 H 0.39285 0.4157 0.29769 0.0
H630 H 0.38502 0.47624 0.3818 0.0
H631 H 0.37693 0.51495 0.34891 0.0
Dy632 Dy 0.58599 0.53643 0.05054 0.0
Dy633 Dy 0.55803 0.59895 0.05365 0.0
C634 C 0.51545 0.53133 0.06148 0.0
O635 O 0.56128 0.53375 1.0007 0.0
O636 O 0.56321 0.58564 1.00259 0.0
O637 O 0.58063 0.48759 0.03333 0.0
O638 O 0.62204 0.51493 0.06646 0.0
O639 O 0.60994 0.61664 0.05814 0.0
O640 O 0.62231 0.57311 0.03453 0.0
O641 O 0.56362 0.59113 0.10484 0.0
O642 O 0.59738 0.55999 0.10194 0.0
O643 O 0.56237 0.64781 0.07075 0.0
O644 O 0.52307 0.62038 0.0352 0.0
C645 C 0.55887 0.55749 0.98644 0.0
O646 O 0.54042 0.52169 0.06752 0.0
O647 O 0.51623 0.55799 0.05147 0.0
C648 C 0.59914 0.46355 0.07492 0.0
C649 C 0.58892 0.42085 0.11817 0.0
C650 C 0.564 0.43062 0.1038 0.0
C651 C 0.56907 0.45191 0.08255 0.0
C652 C 0.62407 0.45384 0.08938 0.0
C653 C 0.61904 0.43274 0.11092 0.0
C654 C 0.60485 0.4869 0.05327 0.0
C655 C 0.62908 0.60347 0.04436 0.0
C656 C 0.583 0.57716 0.11856 0.0
C657 C 0.54494 0.67264 0.02951 0.0
C658 C 0.55639 0.71861 0.98988 0.0
C659 C 0.56691 0.69176 0.9841 0.0
C660 C 0.5612 0.66896 1.00376 0.0
C661 C 0.53444 0.69946 0.0353 0.0
C662 C 0.5401 0.72229 0.0156 0.0
C663 C 0.53871 0.64838 0.04999 0.0
H664 H 0.54063 0.42179 0.10913 0.0
H665 H 0.54943 0.45933 0.0722 0.0
H666 H 0.64748 0.46275 0.08416 0.0
H667 H 0.63858 0.42554 0.12186 0.0
H668 H 0.57949 0.68848 0.96438 0.0
H669 H 0.56933 0.64836 0.99878 0.0
H670 H 0.52182 0.70271 0.055 0.0
H671 H 0.53181 0.74286 0.02041 0.0
Dy672 Dy 0.82417 0.35223 0.29094 0.0
Dy673 Dy 0.81797 0.29045 0.32601 0.0
C674 C 0.81509 0.35467 0.3635 0.0
O675 O 0.87521 0.35206 0.30161 0.0
O676 O 0.87039 0.31598 0.33585 0.0
O677 O 0.83909 0.40237 0.29207 0.0
O678 O 0.80918 0.37194 0.25038 0.0
O679 O 0.83708 0.27847 0.28228 0.0
O680 O 0.8275 0.31496 0.25223 0.0
O681 O 0.76834 0.28379 0.30055 0.0
O682 O 0.77279 0.33482 0.29555 0.0
O683 O 0.80135 0.24056 0.32445 0.0
O684 O 0.82833 0.27065 0.36808 0.0
C685 C 0.88806 0.33689 0.3216 0.0
O686 O 0.83084 0.36876 0.34327 0.0
O687 O 0.80249 0.32443 0.35839 0.0
C688 C 0.79771 0.41927 0.26779 0.0
C689 C 0.75546 0.45539 0.27677 0.0
C690 C 0.74637 0.42329 0.27778 0.0
C691 C 0.76728 0.40536 0.27324 0.0
C692 C 0.80666 0.45136 0.26638 0.0
C693 C 0.78561 0.46932 0.27076 0.0
C694 C 0.82044 0.40066 0.26557 0.0
C695 C 0.8362 0.28957 0.25554 0.0
C696 C 0.75523 0.30626 0.29504 0.0
C697 C 0.8402 0.22332 0.35199 0.0
C698 C 0.88104 0.18618 0.3416 0.0
C699 C 0.89082 0.21831 0.34093 0.0
C700 C 0.87055 0.23675 0.34616 0.0
C701 C 0.83069 0.1913 0.35348 0.0
C702 C 0.85111 0.1728 0.34844 0.0
C703 C 0.81762 0.242 0.35238 0.0
H704 H 0.72324 0.41222 0.28251 0.0
H705 H 0.75972 0.38071 0.27443 0.0
H706 H 0.83004 0.46257 0.26242 0.0
H707 H 0.79298 0.49417 0.27009 0.0
H708 H 0.91385 0.22891 0.33565 0.0
H709 H 0.87825 0.26135 0.34465 0.0
H710 H 0.80723 0.18048 0.35751 0.0
H711 H 0.84329 0.14793 0.34889 0.0
Dy712 Dy 0.0969 0.6054 0.53685 0.0
Dy713 Dy 0.05655 0.55064 0.57017 0.0
C714 C 0.08637 0.53202 0.50806 0.0
O715 O 0.04714 0.60514 0.52492 0.0
O716 O 0.02862 0.55291 0.52446 0.0
O717 O 0.10153 0.6309 0.49749 0.0
O718 O 0.13971 0.64135 0.53718 0.0
O719 O 0.04819 0.59484 0.59541 0.0
O720 O 0.08799 0.63248 0.58195 0.0
O721 O 0.10057 0.57311 0.6041 0.0
O722 O 0.12936 0.58461 0.56472 0.0
O723 O 1.01202 0.52534 0.58042 0.0
O724 O 0.05369 0.51062 0.59378 0.0
C725 C 1.02467 0.57908 0.51682 0.0
O726 O 0.08931 0.56054 0.50166 0.0
O727 O 0.07949 0.52503 0.53575 0.0
C728 C 0.15197 0.64113 0.4848 0.0
C729 C 0.18332 0.62608 0.43443 0.0
C730 C 0.18454 0.61136 0.46138 0.0
C731 C 0.16912 0.61899 0.48652 0.0
C732 C 0.15165 0.65653 0.45831 0.0
C733 C 0.16754 0.64935 0.43346 0.0
C734 C 0.13099 0.64507 0.50799 0.0
C735 C 0.06543 0.6242 0.59909 0.0
C736 C 0.12754 0.58044 0.59425 0.0
C737 C 1.01763 0.50837 0.62928 0.0
C738 C 0.99846 0.51793 0.68863 0.0
C739 C 1.02691 0.53685 0.68338 0.0
C740 C 0.03647 0.53207 0.65378 0.0
C741 C 0.99016 0.48823 0.63518 0.0
C742 C 0.98075 0.49288 0.66495 0.0
C743 C 1.02445 0.50764 0.59674 0.0
H744 H 0.19651 0.59327 0.46242 0.0
H745 H 0.16948 0.60664 0.50664 0.0
H746 H 0.13828 0.67341 0.45642 0.0
H747 H 0.16638 0.66089 0.41279 0.0
H748 H 0.04077 0.55626 0.70156 0.0
H749 H 0.05773 0.54781 0.64947 0.0
H750 H 0.97535 0.46996 0.61641 0.0
H751 H 0.95901 0.47794 0.66905 0.0
Dy752 Dy 0.8438 0.80823 0.31325 0.0
Dy753 Dy 0.78224 0.83715 0.31043 0.0
C754 C 0.85074 0.87927 0.30452 0.0
O755 O 0.84639 0.83337 0.36312 0.0
O756 O 0.79437 0.83074 0.36116 0.0
O757 O 0.89283 0.8134 0.32893 0.0
O758 O 0.86406 0.77077 0.29852 0.0
O759 O 0.76408 0.78519 0.30386 0.0
O760 O 0.80641 0.77297 0.32944 0.0
O761 O 0.79155 0.83299 0.25955 0.0
O762 O 0.82107 0.79778 0.26168 0.0
O763 O 0.73451 0.83462 0.29135 0.0
O764 O 0.75983 0.87056 0.33145 0.0
C765 C 0.82247 0.83568 0.37741 0.0
O766 O 0.85957 0.85393 0.29724 0.0
O767 O 0.82388 0.87878 0.3143 0.0
C768 C 0.91435 0.79223 0.28697 0.0
C769 C 0.95727 0.80424 0.2441 0.0
C770 C 0.9301 0.81435 0.24051 0.0
C771 C 0.9088 0.80835 0.26178 0.0
C772 C 0.9413 0.78172 0.29033 0.0
C773 C 0.96265 0.78764 0.26894 0.0
C774 C 0.89251 0.78785 0.31018 0.0
C775 C 0.77635 0.76619 0.31852 0.0
C776 C 0.80509 0.8132 0.24543 0.0
C777 C 0.70642 0.84726 0.33277 0.0
C778 C 0.65857 0.83179 0.37029 0.0
C779 C 0.66752 0.8081 0.35201 0.0
C780 C 0.69135 0.81574 0.33356 0.0
C781 C 0.69734 0.87089 0.35098 0.0
C782 C 0.67371 0.86325 0.36964 0.0
C783 C 0.73256 0.85586 0.31446 0.0
H784 H 0.92564 0.82723 0.22154 0.0
H785 H 0.88816 0.81669 0.25892 0.0
H786 H 0.94601 0.76936 0.30968 0.0
H787 H 0.9836 0.77979 0.27204 0.0
H788 H 0.65617 0.7837 0.35218 0.0
H789 H 0.69808 0.79697 0.32012 0.0
H790 H 0.70875 0.89531 0.35099 0.0
H791 H 0.66719 0.88188 0.38357 0.0
Dy792 Dy 0.84397 0.33628 0.78161 0.0
Dy793 Dy 0.78908 0.30576 0.82113 0.0
C794 C 0.82222 0.37707 0.83392 0.0
O795 O 0.87076 0.33161 0.82839 0.0
O796 O 0.83243 0.29742 0.84759 0.0
O797 O 0.88444 0.37446 0.7807 0.0
O798 O 0.86833 0.3355 0.74117 0.0
O799 O 0.78705 0.26988 0.77914 0.0
O800 O 0.83863 0.2851 0.77347 0.0
O801 O 0.76337 0.32322 0.78187 0.0
O802 O 0.79921 0.33061 0.74722 0.0
O803 O 0.76453 0.26829 0.84338 0.0
O804 O 0.74947 0.31063 0.8434 0.0
C805 C 0.86208 0.31273 0.84887 0.0
O806 O 0.82496 0.37363 0.80369 0.0
O807 O 0.81513 0.35285 0.8482 0.0
C808 C 0.8892 0.38521 0.72905 0.0
C809 C 0.8916 0.42219 0.68107 0.0
C810 C 0.86312 0.40989 0.69133 0.0
C811 C 0.86192 0.39155 0.71529 0.0
C812 C 0.91795 0.39862 0.71981 0.0
C813 C 0.91919 0.41715 0.69587 0.0
C814 C 0.88732 0.36338 0.75177 0.0
C815 C 0.81159 0.26395 0.76867 0.0
C816 C 0.77066 0.32845 0.75372 0.0
C817 C 0.75324 0.29064 0.89141 0.0
C818 C 0.77877 0.29572 0.95555 0.0
C819 C 0.75776 0.26753 0.93926 0.0
C820 C 0.74503 0.26498 0.90722 0.0
C821 C 0.7721 0.31962 0.90876 0.0
C822 C 0.7848 0.32212 0.94068 0.0
C823 C 0.74835 0.28563 0.85633 0.0
H824 H 0.84167 0.41357 0.67998 0.0
H825 H 0.83959 0.38144 0.72235 0.0
H826 H 0.93919 0.39397 0.73037 0.0
H827 H 0.94128 0.42639 0.68797 0.0
H828 H 0.75318 0.24692 0.95058 0.0
H829 H 0.73091 0.24241 0.89417 0.0
H830 H 0.77912 0.33974 0.89708 0.0
H831 H 0.80121 0.3439 0.953 0.0
Dy832 Dy 0.79653 0.79128 0.79271 0.0
Dy833 Dy 0.84016 0.85844 0.83125 0.0
C834 C 0.82076 0.80109 0.86975 0.0
O835 O 0.75986 0.8168 0.80257 0.0
O836 O 0.79014 0.86052 0.83718 0.0
O837 O 0.75436 0.75323 0.78673 0.0
O838 O 0.78681 0.75284 0.75336 0.0
O839 O 0.82894 0.86894 0.78182 0.0
O840 O 0.8031 0.81986 0.75364 0.0
O841 O 0.87637 0.83573 0.81268 0.0
O842 O 0.84632 0.78553 0.79305 0.0
O843 O 0.8821 0.89691 0.838 0.0
O844 O 0.84877 0.89699 0.8704 0.0
C845 C 0.76218 0.8423 0.82313 0.0
O846 O 0.80123 0.78435 0.84427 0.0
O847 O 0.84095 0.82774 0.86851 0.0
C848 C 0.7644 0.70553 0.76891 0.0
C849 C 0.78673 0.65444 0.77898 0.0
C850 C 0.78322 0.67481 0.80517 0.0
C851 C 0.77219 0.70033 0.80019 0.0
C852 C 0.7648 0.68327 0.74271 0.0
C853 C 0.77595 0.65765 0.74774 0.0
C854 C 0.76265 0.73665 0.76373 0.0
C855 C 0.81628 0.84974 0.75474 0.0
C856 C 0.87406 0.80678 0.79908 0.0
C857 C 0.86971 0.94417 0.85329 0.0
C858 C 0.84592 0.99293 0.83695 0.0
C859 C 0.85559 0.97426 0.81357 0.0
C860 C 0.8674 0.94998 0.82164 0.0
C861 C 0.86292 0.96491 0.87723 0.0
C862 C 0.85098 0.98923 0.86907 0.0
C863 C 0.87263 0.91363 0.85995 0.0
H864 H 0.79155 0.67249 0.82938 0.0
H865 H 0.77229 0.71728 0.8208 0.0
H866 H 0.75905 0.6871 0.71847 0.0
H867 H 0.77869 0.64197 0.72739 0.0
H868 H 0.85174 0.97696 0.78868 0.0
H869 H 0.87235 0.93436 0.8026 0.0
H870 H 0.86445 0.96075 0.90172 0.0
H871 H 0.84353 1.00361 0.8873 0.0
Dy872 Dy 0.59913 0.58976 0.5708 0.0
Dy873 Dy 0.53252 0.54765 0.53494 0.0
C874 C 0.58949 0.56683 0.49521 0.0
O875 O 0.57729 0.62426 0.54805 0.0
O876 O 0.52612 0.59743 0.54333 0.0
O877 O 0.63615 0.63275 0.57724 0.0
O878 O 0.63887 0.59904 0.60837 0.0
O879 O 0.52957 0.54879 0.58724 0.0
O880 O 0.56801 0.59391 0.60739 0.0
O881 O 0.55939 0.51106 0.54024 0.0
O882 O 0.59857 0.54 0.58023 0.0
O883 O 0.49524 0.50464 0.52744 0.0
O884 O 0.49155 0.54056 0.49948 0.0
C885 C 0.54754 0.62392 0.54268 0.0
O886 O 0.60918 0.57307 0.52222 0.0
O887 O 0.55914 0.55945 0.49492 0.0
C888 C 0.68496 0.62397 0.59157 0.0
C889 C 0.73853 0.60742 0.57805 0.0
C890 C 0.7158 0.60839 0.55298 0.0
C891 C 0.68907 0.61654 0.55968 0.0
C892 C 0.70904 0.62577 0.61658 0.0
C893 C 0.73591 0.61756 0.60983 0.0
C894 C 0.65388 0.62414 0.59866 0.0
C895 C 0.54452 0.57109 0.61123 0.0
C896 C 0.58212 0.51224 0.56368 0.0
C897 C 0.44697 0.51675 0.51974 0.0
C898 C 0.40196 0.53982 0.5469 0.0
C899 C 0.42049 0.52542 0.56503 0.0
C900 C 0.443 0.51398 0.55155 0.0
C901 C 0.42584 0.52788 0.50071 0.0
C902 C 0.40352 0.5396 0.51432 0.0
C903 C 0.47658 0.5153 0.50898 0.0
H904 H 0.71762 0.6005 0.52837 0.0
H905 H 0.67071 0.61483 0.53999 0.0
H906 H 0.70609 0.63127 0.64129 0.0
H907 H 0.75338 0.61672 0.62934 0.0
H908 H 0.41941 0.52554 0.59024 0.0
H909 H 0.45895 0.50553 0.56689 0.0
H910 H 0.42851 0.53024 0.47621 0.0
H911 H 0.38919 0.5507 0.50016 0.0
Dy912 Dy 0.03616 0.57213 0.08944 0.0
Dy913 Dy 0.09586 0.57603 0.04964 0.0
C914 C 0.03102 0.58136 0.01468 0.0
O915 O 0.03731 0.52087 0.07665 0.0
O916 O 0.0709 0.52418 0.0397 0.0
O917 O 0.98694 0.55169 0.08947 0.0
O918 O 1.0145 0.58719 0.12901 0.0
O919 O 0.10938 0.56166 0.09611 0.0
O920 O 0.07414 0.57257 0.12776 0.0
O921 O 0.09591 0.62741 0.06221 0.0
O922 O 0.05766 0.62457 0.09409 0.0
O923 O 0.14601 0.59389 0.05292 0.0
O924 O 0.11827 0.56398 1.00966 0.0
C925 C 0.0509 0.50718 0.05511 0.0
O926 O 1.02018 0.582 0.04176 0.0
O927 O 0.05867 0.57786 0.01144 0.0
C928 C 0.96489 0.59172 0.10898 0.0
C929 C 0.92826 0.63348 0.09999 0.0
C930 C 0.93905 0.61947 0.07398 0.0
C931 C 0.95726 0.59885 0.07842 0.0
C932 C 0.95408 0.60577 0.13503 0.0
C933 C 0.93588 0.62655 0.13058 0.0
C934 C 0.98644 0.57212 0.11408 0.0
C935 C 0.1 0.5652 0.12386 0.0
C936 C 0.0797 0.64125 0.08048 0.0
C937 C 0.16662 0.55472 0.02883 0.0
C938 C 0.2042 0.514 0.03908 0.0
C939 C 0.21606 0.54626 0.05047 0.0
C940 C 0.19747 0.56646 0.04527 0.0
C941 C 0.15491 0.52232 0.01724 0.0
C942 C 0.17363 0.50218 0.02218 0.0
C943 C 0.14626 0.57596 0.02631 0.0
H944 H 0.93339 0.62454 0.05023 0.0
H945 H 0.96563 0.58878 0.05794 0.0
H946 H 0.96008 0.60101 0.15885 0.0
H947 H 0.92772 0.6372 0.15091 0.0
H948 H 0.23971 0.55575 0.0634 0.0
H949 H 0.20701 0.59123 0.0546 0.0
H950 H 0.13113 0.51238 1.0048 0.0
H951 H 0.16417 0.47734 0.01316 0.0
C952 C 0.02925 0.21389 0.05493 0.0
C953 C 1.02558 0.21812 0.02214 0.0
C954 C 0.02915 0.16299 1.00792 0.0
C955 C 0.03627 0.16012 0.04073 0.0
N956 N 0.04614 0.18542 0.09564 0.0
N957 N 0.02921 0.19714 0.96812 0.0
C958 C 0.03735 0.18647 0.06416 0.0
C959 C 1.02719 0.19261 0.99889 0.0
N960 N 1.02326 0.23527 0.07741 0.0
N961 N 1.02424 0.13727 0.9849 0.0
H962 H 0.02979 0.21838 0.96055 0.0
H963 H 0.03398 0.18103 0.95091 0.0
H964 H 1.02667 0.11587 0.99005 0.0
H965 H 1.01515 0.13642 0.96107 0.0
H966 H 1.02207 0.23221 0.101 0.0
H967 H 1.01626 0.25463 0.07175 0.0
H968 H 0.05119 0.2048 0.11375 0.0
H969 H 0.05041 0.16556 0.1034 0.0
C970 C 0.20885 0.8761 0.22503 0.0
C971 C 0.18804 0.84873 0.20559 0.0
C972 C 0.2176 0.81684 0.23215 0.0
C973 C 0.23584 0.84363 0.25444 0.0
N974 N 0.24683 0.89902 0.27349 0.0
N975 N 0.16943 0.79239 0.1949 0.0
C976 C 0.23109 0.87341 0.25106 0.0
C977 C 0.1916 0.81893 0.21033 0.0
N978 N 0.20771 0.90476 0.21825 0.0
N979 N 0.22612 0.78961 0.23058 0.0
H980 H 0.14986 0.79285 0.17922 0.0
H981 H 0.16891 0.77016 0.19993 0.0
H982 H 0.24625 0.78792 0.24445 0.0
H983 H 0.21556 0.77004 0.213 0.0
H984 H 0.22424 0.92561 0.22904 0.0
H985 H 0.19156 0.90744 0.19981 0.0
H986 H 0.24203 0.92062 0.27464 0.0
H987 H 0.26327 0.89812 0.29255 0.0
C988 C 0.52386 0.91564 0.49382 0.0
C989 C 0.52909 0.89804 0.51858 0.0
C990 C 0.54021 0.94764 0.55775 0.0
C991 C 0.5391 0.9656 0.53262 0.0
N992 N 0.53319 0.96616 0.47601 0.0
N993 N 0.54631 0.89929 0.57451 0.0
C994 C 0.53198 0.94936 0.5005 0.0
C995 C 0.53812 0.91462 0.5507 0.0
N996 N 0.50925 0.90009 0.46399 0.0
N997 N 0.54286 0.96206 0.58857 0.0
H998 H 0.54558 0.87566 0.57044 0.0
H999 H 0.55641 0.91054 0.5977 0.0
H1000 H 0.54464 0.98584 0.59451 0.0
H1001 H 0.54059 0.95005 0.6078 0.0
H1002 H 0.50182 0.91123 0.44586 0.0
H1003 H 0.50116 0.87577 0.4583 0.0
H1004 H 0.53217 0.95626 0.4523 0.0
H1005 H 0.53754 0.99046 0.47966 0.0
C1006 C 0.53271 0.35105 0.70391 0.0
C1007 C 0.53465 0.32588 0.68098 0.0
C1008 C 0.48844 0.29168 0.69673 0.0
C1009 C 0.48901 0.31573 0.72213 0.0
N1010 N 0.51379 0.36731 0.75247 0.0
N1011 N 0.51684 0.27069 0.65865 0.0
C1012 C 0.51171 0.34519 0.72639 0.0
C1013 C 0.51301 0.2958 0.67801 0.0
N1014 N 0.55002 0.38085 0.70338 0.0
N1015 N 0.46406 0.26502 0.69014 0.0
H1016 H 0.53458 0.27233 0.64483 0.0
H1017 H 0.50413 0.24767 0.65836 0.0
H1018 H 0.44582 0.26104 0.70347 0.0
H1019 H 0.46045 0.24804 0.6699 0.0
H1020 H 0.54732 0.40061 0.71725 0.0
H1021 H 0.56495 0.38621 0.68673 0.0
H1022 H 0.53205 0.38782 0.75895 0.0
H1023 H 0.49856 0.36408 0.76914 0.0
C1024 C 0.06133 0.8862 0.69808 0.0
C1025 C 0.06814 0.85744 0.68855 0.0
C1026 C 0.08698 0.87633 0.64126 0.0
C1027 C 0.08234 0.9059 0.6519 0.0
N1028 N 0.07096 0.94115 0.69359 0.0
N1029 N 0.09534 0.82852 0.65604 0.0
C1030 C 0.07127 0.91151 0.68132 0.0
C1031 C 0.08329 0.85349 0.66158 0.0
N1032 N 0.04421 0.88894 0.72216 0.0
N1033 N 0.09369 0.86949 0.61121 0.0
H1034 H 0.09432 0.81186 0.67106 0.0
H1035 H 0.10937 0.82623 0.63861 0.0
H1036 H 0.09614 0.88534 0.59525 0.0
H1037 H 0.09388 0.84712 0.60101 0.0
H1038 H 0.03561 0.90813 0.72783 0.0
H1039 H 0.03633 0.87087 0.7348 0.0
H1040 H 0.06617 0.94733 0.71642 0.0
H1041 H 0.07826 0.96023 0.68206 0.0
C1042 C 0.47233 0.87635 0.86225 0.0
C1043 C 0.48745 0.85399 0.84969 0.0
C1044 C 0.4347 0.81918 0.82403 0.0
C1045 C 0.4195 0.84212 0.83539 0.0
N1046 N 0.4247 0.89276 0.86617 0.0
N1047 N 0.48293 0.8055 0.81554 0.0
C1048 C 0.43873 0.8708 0.85461 0.0
C1049 C 0.4685 0.82588 0.82969 0.0
N1050 N 0.49035 0.90303 0.88205 0.0
N1051 N 0.41683 0.79041 0.80832 0.0
H1052 H 0.50707 0.80883 0.82006 0.0
H1053 H 0.47153 0.7865 0.79764 0.0
H1054 H 0.39271 0.78488 0.80145 0.0
H1055 H 0.42553 0.77119 0.80338 0.0
H1056 H 0.48158 0.91884 0.89559 0.0
H1057 H 0.51475 0.90922 0.88571 0.0
H1058 H 0.43665 0.91564 0.8767 0.0
H1059 H 0.40055 0.88834 0.8649 0.0
C1060 C 0.53806 0.18665 0.1464 0.0
C1061 C 0.55588 0.19622 0.17765 0.0
C1062 C 0.58444 0.15668 0.1646 0.0
C1063 C 0.56951 0.15033 0.1321 0.0
N1064 N 0.53358 0.1617 0.09149 0.0
N1065 N 0.59862 0.19198 0.21562 0.0
C1066 C 0.54681 0.16608 0.12288 0.0
C1067 C 0.57946 0.18133 0.1867 0.0
N1068 N 0.5117 0.19619 0.13955 0.0
N1069 N 0.60387 0.13947 0.17442 0.0
H1070 H 0.59594 0.20947 0.23273 0.0
H1071 H 0.61879 0.18519 0.22186 0.0
H1072 H 0.61024 0.12316 0.15879 0.0
H1073 H 0.61215 0.1399 0.19837 0.0
H1074 H 0.49573 0.18758 0.11844 0.0
H1075 H 0.50389 0.21013 0.15645 0.0
H1076 H 0.52013 0.17548 0.08262 0.0
H1077 H 0.53761 0.14565 0.07372 0.0
C1078 C 0.18629 0.33 0.35607 0.0
C1079 C 0.1759 0.35592 0.34759 0.0
C1080 C 0.22298 0.36998 0.32032 0.0
C1081 C 0.23437 0.34523 0.33064 0.0
N1082 N 0.22821 0.30457 0.36287 0.0
N1083 N 0.18704 0.4028 0.32449 0.0
C1084 C 0.21621 0.32603 0.34964 0.0
C1085 C 0.19501 0.37638 0.33035 0.0
N1086 N 0.16684 0.30818 0.36937 0.0
N1087 N 0.2384 0.38687 0.2999 0.0
H1088 H 0.16687 0.40785 0.33084 0.0
H1089 H 0.20131 0.42073 0.31546 0.0
H1090 H 0.25871 0.38316 0.29254 0.0
H1091 H 0.23004 0.4029 0.28843 0.0
H1092 H 0.17083 0.28688 0.37281 0.0
H1093 H 0.14512 0.31005 0.37444 0.0
H1094 H 0.21863 0.29259 0.38018 0.0
H1095 H 0.24942 0.3006 0.35864 0.0
C1096 C 1.00025 0.08322 0.195 0.0
C1097 C 1.0158 0.06797 0.2162 0.0
C1098 C 0.0521 0.06324 0.17795 0.0
C1099 C 0.03408 0.0749 0.15528 0.0
N1100 N 0.98907 0.09324 0.14089 0.0
N1101 N 0.05397 0.03939 0.22572 0.0
C1102 C 1.00753 0.084 0.16342 0.0
C1103 C 0.04126 0.05713 0.20724 0.0
N1104 N 0.97963 0.09843 0.20563 0.0
N1105 N 0.07968 0.058 0.17156 0.0
H1106 H 0.04647 0.03392 0.24696 0.0
H1107 H 0.07002 0.02773 0.21865 0.0
H1108 H 0.08788 0.06115 0.15008 0.0
H1109 H 0.09559 0.05285 0.18843 0.0
H1110 H 0.96974 0.11253 0.19255 0.0
H1111 H 0.97497 0.09972 0.229 0.0
H1112 H 0.96737 0.09656 0.14404 0.0
H1113 H 0.99447 0.09559 0.1181 0.0
C1114 C 0.23784 0.69991 0.52863 0.0
C1115 C 0.26543 0.68977 0.52907 0.0
C1116 C 0.2756 0.7105 0.48013 0.0
C1117 C 0.24692 0.71868 0.4784 0.0
N1118 N 0.19847 0.7176 0.49796 0.0
N1119 N 0.30679 0.67905 0.50214 0.0
C1120 C 0.22724 0.71211 0.50168 0.0
C1121 C 0.28323 0.6932 0.50389 0.0
N1122 N 0.22283 0.69961 0.5547 0.0
N1123 N 0.29621 0.72039 0.46 0.0
H1124 H 0.3126 0.66558 0.51881 0.0
H1125 H 0.31847 0.67802 0.48254 0.0
H1126 H 0.29175 0.73334 0.44231 0.0
H1127 H 0.31891 0.71811 0.46259 0.0
H1128 H 0.20466 0.70983 0.55725 0.0
H1129 H 0.2301 0.69148 0.57524 0.0
H1130 H 0.18186 0.71091 0.5126 0.0
H1131 H 0.18996 0.72642 0.47838 0.0
C1132 C 0.62752 0.07418 0.6938 0.0
C1133 C 0.6519 0.05981 0.68996 0.0
C1134 C 0.62554 0.03443 0.63618 0.0
C1135 C 0.60565 0.05443 0.63759 0.0
N1136 N 0.58728 0.09376 0.66759 0.0
N1137 N 0.67479 0.02618 0.65751 0.0
C1138 C 0.60598 0.07397 0.66657 0.0
C1139 C 0.6508 0.03928 0.66142 0.0
N1140 N 0.62514 0.088 0.72354 0.0
N1141 N 0.62006 1.01079 0.61077 0.0
H1142 H 0.69361 0.02893 0.67558 0.0
H1143 H 0.67701 1.0142 0.63568 0.0
H1144 H 0.60148 1.00673 0.5921 0.0
H1145 H 0.63188 0.99355 0.60982 0.0
H1146 H 0.60633 0.09656 0.72833 0.0
H1147 H 0.64041 0.08795 0.74402 0.0
H1148 H 0.58941 0.11127 0.68701 0.0
H1149 H 0.57086 0.09406 0.64822 0.0
C1150 C 0.34829 0.34757 0.96759 0.0
C1151 C 0.32988 0.36764 0.97742 0.0
C1152 C 0.31333 0.37001 0.9212 0.0
C1153 C 0.32843 0.34702 0.91103 0.0
N1154 N 0.35549 0.30939 0.92532 0.0
N1155 N 0.28766 0.38996 0.96242 0.0
C1156 C 0.34461 0.33447 0.93444 0.0
C1157 C 0.3102 0.3764 0.95384 0.0
N1158 N 0.37028 0.34208 0.98945 0.0
N1159 N 0.30333 0.38708 0.90001 0.0
H1160 H 0.28319 0.39318 0.98585 0.0
H1161 H 0.271 0.39434 0.94572 0.0
H1162 H 0.30762 0.38512 0.87649 0.0
H1163 H 0.2945 0.40588 0.9069 0.0
H1164 H 0.38651 0.33037 0.98302 0.0
H1165 H 0.37419 0.35161 0.01367 0.0
H1166 H 0.36462 0.29735 0.9416 0.0
H1167 H 0.35272 0.29881 0.90151 0.0
C1168 C 1.00486 0.03605 0.41454 0.0
C1169 C 1.02529 0.05187 0.39524 0.0
C1170 C 0.06798 0.06703 0.4413 0.0
C1171 C 0.04631 0.05561 0.46152 0.0
N1172 N 0.99347 0.0306 0.46792 0.0
N1173 N 0.07602 0.08437 0.39068 0.0
C1174 C 1.01463 0.04016 0.44822 0.0
C1175 C 0.05693 0.06757 0.40862 0.0
N1176 N 0.9763 1.01641 0.40049 0.0
N1177 N 0.09923 0.07665 0.45324 0.0
H1178 H 0.06888 0.08517 0.36673 0.0
H1179 H 0.09814 0.09929 0.40011 0.0
H1180 H 0.10789 0.07566 0.47677 0.0
H1181 H 0.11659 0.08267 0.43922 0.0
H1182 H 0.9617 1.00163 0.41258 0.0
H1183 H 0.96841 1.01257 0.37593 0.0
H1184 H 0.96939 0.02283 0.46025 0.0
H1185 H 0.99976 0.03234 0.49254 0.0
C1186 C 0.35759 0.75434 0.6964 0.0
C1187 C 0.33087 0.74379 0.67232 0.0
C1188 C 0.3094 0.78528 0.6946 0.0
C1189 C 0.33451 0.79374 0.72052 0.0
N1190 N 0.38762 0.79573 0.73975 0.0
N1191 N 0.28761 0.75513 0.6416 0.0
C1192 C 0.36047 0.7814 0.71915 0.0
C1193 C 0.30891 0.76145 0.66906 0.0
N1194 N 0.37899 0.7375 0.6987 0.0
N1195 N 0.28513 0.79846 0.69545 0.0
H1196 H 0.28711 0.73789 0.6224 0.0
H1197 H 0.27254 0.76874 0.6366 0.0
H1198 H 0.28571 0.81727 0.71285 0.0
H1199 H 0.26413 0.79023 0.67955 0.0
H1200 H 0.39702 0.74204 0.71802 0.0
H1201 H 0.37771 0.71792 0.68187 0.0
H1202 H 0.40833 0.7894 0.73861 0.0
H1203 H 0.38992 0.81609 0.75596 0.0
C1204 C 0.67462 0.09604 0.85769 0.0
C1205 C 0.68418 0.1177 0.83705 0.0
C1206 C 0.66539 0.15663 0.86873 0.0
C1207 C 0.6533 0.13392 0.88741 0.0
N1208 N 0.63986 0.07998 0.89516 0.0
N1209 N 0.68246 0.16601 0.81844 0.0
C1210 C 0.65589 0.10296 0.88049 0.0
C1211 C 0.67791 0.14736 0.8413 0.0
N1212 N 0.68468 0.06963 0.8567 0.0
N1213 N 0.66558 0.18711 0.87759 0.0
H1214 H 0.69035 0.15955 0.79727 0.0
H1215 H 0.6754 0.18644 0.81891 0.0
H1216 H 0.65635 0.19468 0.89747 0.0
H1217 H 0.67711 0.20527 0.86677 0.0
H1218 H 0.68091 0.05475 0.87349 0.0
H1219 H 0.69959 0.06423 0.84126 0.0
H1220 H 0.63834 0.05637 0.88845 0.0
H1221 H 0.62555 0.08404 0.91185 0.0
C1222 C 0.34158 0.35488 0.16825 0.0
C1223 C 0.3287 0.37924 0.1601 0.0
C1224 C 0.31153 0.38447 0.21289 0.0
C1225 C 0.32256 0.35877 0.22014 0.0
N1226 N 0.34374 0.31617 0.20255 0.0
N1227 N 0.29621 0.41323 0.17225 0.0
C1228 C 0.33609 0.34287 0.19705 0.0
C1229 C 0.31233 0.39303 0.18185 0.0
N1230 N 0.36065 0.34439 0.14942 0.0
N1231 N 0.3002 0.40076 0.23572 0.0
H1232 H 0.29565 0.41957 0.14963 0.0
H1233 H 0.28102 0.42153 0.18538 0.0
H1234 H 0.29791 0.39437 0.25808 0.0
H1235 H 0.29489 0.42166 0.23324 0.0
H1236 H 0.37375 0.3294 0.15591 0.0
H1237 H 0.36577 0.35289 0.12855 0.0
H1238 H 0.35004 0.30145 0.18515 0.0
H1239 H 0.34183 0.30744 0.22387 0.0
C1240 C 0.24549 0.02127 0.03869 0.0
C1241 C 0.27721 0.03346 0.03558 0.0
C1242 C 0.27539 0.08678 0.05454 0.0
C1243 C 0.24365 0.07456 0.05762 0.0
N1244 N 0.1962 0.03193 0.04595 0.0
N1245 N 0.32099 0.07739 0.03407 0.0
C1246 C 0.22795 0.04229 0.04756 0.0
C1247 C 0.29168 0.06617 0.04124 0.0
N1248 N 0.23245 0.98958 0.03399 0.0
N1249 N 0.2902 0.11775 0.06559 0.0
H1250 H 0.33381 0.06285 0.02491 0.0
H1251 H 0.33169 0.10104 0.03476 0.0
H1252 H 0.27869 0.13355 0.07492 0.0
H1253 H 0.3142 0.1275 0.0674 0.0
H1254 H 0.21078 0.97911 0.03992 0.0
H1255 H 0.24408 0.9735 0.02558 0.0
H1256 H 0.183 1.00932 0.03566 0.0
H1257 H 0.18248 0.04662 0.05245 0.0
C1258 C 0.71439 0.65054 0.06415 0.0
C1259 C 0.71656 0.66924 0.03964 0.0
C1260 C 0.66135 0.64391 0.01733 0.0
C1261 C 0.65975 0.62402 0.04076 0.0
N1262 N 0.68573 0.60456 0.08306 0.0
N1263 N 0.69412 0.68045 0.98992 0.0
C1264 C 0.68669 0.626 0.06294 0.0
C1265 C 0.69056 0.66505 0.01539 0.0
N1266 N 0.73798 0.65754 0.08976 0.0
N1267 N 0.63482 0.64289 0.99723 0.0
H1268 H 0.71521 0.69598 0.98771 0.0
H1269 H 0.67707 0.67602 0.96974 0.0
H1270 H 0.61355 0.62637 0.99656 0.0
H1271 H 0.6334 0.65933 0.98245 0.0
H1272 H 0.73635 0.64705 0.11006 0.0
H1273 H 0.75818 0.67602 0.09232 0.0
H1274 H 0.70552 0.60255 0.09721 0.0
H1275 H 0.66553 0.58702 0.08378 0.0
C1276 C 0.71242 0.50559 0.32215 0.0
C1277 C 0.69504 0.51402 0.29641 0.0
C1278 C 0.71337 0.47983 0.25799 0.0
C1279 C 0.73379 0.47468 0.28355 0.0
N1280 N 0.75451 0.48367 0.33983 0.0
N1281 N 0.68038 0.51145 0.23967 0.0
C1282 C 0.73368 0.48771 0.31565 0.0
C1283 C 0.69554 0.50145 0.26424 0.0
N1284 N 0.70785 0.51401 0.35278 0.0
N1285 N 0.71085 0.46379 0.22782 0.0
H1286 H 0.66679 0.52696 0.24319 0.0
H1287 H 0.68286 0.50608 0.21584 0.0
H1288 H 0.72419 0.44844 0.22227 0.0
H1289 H 0.69394 0.4638 0.20882 0.0
H1290 H 0.7174 0.50611 0.37244 0.0
H1291 H 0.69203 0.52668 0.35824 0.0
H1292 H 0.75814 0.49546 0.36324 0.0
H1293 H 0.76981 0.46996 0.33615 0.0
C1294 C 0.9473 0.54125 0.46758 0.0
C1295 C 0.92878 0.55484 0.48629 0.0
C1296 C 0.97449 0.59436 0.51614 0.0
C1297 C 0.99353 0.57827 0.50044 0.0
N1298 N 0.99914 0.54446 0.45426 0.0
N1299 N 0.92235 0.60065 0.51734 0.0
C1300 C 0.98015 0.55466 0.47332 0.0
C1301 C 0.94168 0.58406 0.50628 0.0
N1302 N 0.93347 0.51436 0.44617 0.0
N1303 N 0.98711 0.61688 0.5425 0.0
H1304 H 0.89812 0.5928 0.5104 0.0
H1305 H 0.93041 0.62328 0.5304 0.0
H1306 H 1.01092 0.62456 0.55104 0.0
H1307 H 0.97379 0.62653 0.55713 0.0
H1308 H 0.94582 0.50106 0.43412 0.0
H1309 H 0.90916 0.5051 0.44124 0.0
H1310 H 0.99087 0.52834 0.43314 0.0
H1311 H 1.02336 0.55436 0.45848 0.0
C1312 C 0.32562 0.08456 0.28568 0.0
C1313 C 0.35499 0.08617 0.27562 0.0
C1314 C 0.35015 0.12879 0.24689 0.0
C1315 C 0.32098 0.12724 0.25723 0.0
N1316 N 0.27688 0.09886 0.27836 0.0
N1317 N 0.39168 0.10381 0.24061 0.0
C1318 C 0.30725 0.10324 0.27368 0.0
C1319 C 0.36613 0.10639 0.25419 0.0
N1320 N 0.31639 0.06722 0.30862 0.0
N1321 N 0.36309 0.15248 0.23137 0.0
H1322 H 0.40365 0.08734 0.24537 0.0
H1323 H 0.39933 0.11597 0.22263 0.0
H1324 H 0.35124 0.16839 0.22442 0.0
H1325 H 0.38596 0.15727 0.2267 0.0
H1326 H 0.29687 0.06795 0.31937 0.0
H1327 H 0.32973 0.05422 0.3192 0.0
H1328 H 0.26457 0.07985 0.28754 0.0
H1329 H 0.26305 0.11263 0.27011 0.0
C1330 C 0.39185 0.20365 0.58028 0.0
C1331 C 0.36694 0.19545 0.55397 0.0
C1332 C 0.37863 0.14573 0.53817 0.0
C1333 C 0.40451 0.15458 0.56338 0.0
N1334 N 0.44074 0.19527 0.60286 0.0
N1335 N 0.34293 0.16337 0.50276 0.0
C1336 C 0.41273 0.18464 0.58269 0.0
C1337 C 0.36233 0.16792 0.53129 0.0
N1338 N 0.39456 0.22828 0.604 0.0
N1339 N 0.36873 0.11576 0.52164 0.0
H1340 H 0.33154 0.17981 0.49637 0.0
H1341 H 0.34093 0.1451 0.48413 0.0
H1342 H 0.37964 0.09849 0.52629 0.0
H1343 H 0.34798 0.10727 0.50535 0.0
H1344 H 0.41019 0.23292 0.62534 0.0
H1345 H 0.37951 0.24255 0.60379 0.0
H1346 H 0.44943 0.21831 0.61476 0.0
H1347 H 0.45669 0.18201 0.60516 0.0
C1348 C 0.71482 0.70341 0.34583 0.0
C1349 C 0.71352 0.67693 0.32295 0.0
C1350 C 0.75606 0.70843 0.29993 0.0
C1351 C 0.75559 0.73539 0.32105 0.0
N1352 N 0.7317 0.75994 0.36106 0.0
N1353 N 0.72784 0.6559 0.27364 0.0
C1354 C 0.73404 0.73332 0.34305 0.0
C1355 C 0.73288 0.67982 0.29883 0.0
N1356 N 0.69881 0.69978 0.37098 0.0
N1357 N 0.77853 0.71014 0.2807 0.0
H1358 H 0.71027 0.63498 0.27094 0.0
H1359 H 0.73884 0.65795 0.2536 0.0
H1360 H 0.79492 0.73099 0.27942 0.0
H1361 H 0.78241 0.6905 0.26774 0.0
H1362 H 0.70145 0.71754 0.39031 0.0
H1363 H 0.6848 0.67821 0.37399 0.0
H1364 H 0.714 0.76037 0.37469 0.0
H1365 H 0.7462 0.7821 0.36068 0.0
C1366 C 0.86924 0.45442 0.88307 0.0
C1367 C 0.85428 0.47373 0.86739 0.0
C1368 C 0.81078 0.42834 0.84284 0.0
C1369 C 0.82957 0.40895 0.85196 0.0
N1370 N 0.87626 0.40265 0.88191 0.0
N1371 N 0.80937 0.48053 0.83494 0.0
C1372 C 0.85825 0.42159 0.87332 0.0
C1373 C 0.82407 0.46125 0.84884 0.0
N1374 N 0.8947 0.46785 0.9063 0.0
N1375 N 0.78062 0.41503 0.82788 0.0
H1376 H 0.81797 0.50482 0.83992 0.0
H1377 H 0.78924 0.47254 0.81779 0.0
H1378 H 0.77065 0.39082 0.82337 0.0
H1379 H 0.76478 0.42778 0.82259 0.0
H1380 H 0.90545 0.45524 0.92061 0.0
H1381 H 0.90311 0.49209 0.91311 0.0
H1382 H 0.89903 0.41096 0.89434 0.0
H1383 H 0.8691 0.37848 0.87496 0.0
C1384 C 0.07234 0.94201 0.11504 0.0
C1385 C 0.09509 0.92877 0.1021 0.0
C1386 C 0.10383 0.97175 0.06894 0.0
C1387 C 0.08304 0.98633 0.08391 0.0
N1388 N 0.05069 0.98649 0.12488 0.0
N1389 N 0.13519 0.93429 0.06892 0.0
C1390 C 0.06828 0.97165 0.10795 0.0
C1391 C 0.11136 0.94451 0.07946 0.0
N1392 N 0.05313 0.92533 0.13297 0.0
N1393 N 0.11596 0.98354 0.04388 0.0
H1394 H 0.14116 0.91481 0.07577 0.0
H1395 H 0.15054 0.94635 0.05545 0.0
H1396 H 0.1118 1.00352 0.03632 0.0
H1397 H 0.12809 0.97233 0.02914 0.0
H1398 H 0.03385 0.93149 0.14027 0.0
H1399 H 0.05443 0.9035 0.13792 0.0
H1400 H 0.04263 0.97975 0.14544 0.0
H1401 H 0.04623 1.00721 0.11986 0.0
C1402 C 0.91468 0.32111 0.93047 0.0
C1403 C 0.9348 0.30213 0.92249 0.0
C1404 C 0.90891 0.29252 0.86601 0.0
C1405 C 0.88678 0.30872 0.87443 0.0
N1406 N 0.86597 0.33451 0.91631 0.0
N1407 N 0.94432 0.26298 0.88351 0.0
C1408 C 0.88872 0.32152 0.90724 0.0
C1409 C 0.92992 0.28592 0.89048 0.0
N1410 N 0.92134 0.34039 0.95946 0.0
N1411 N 0.9105 0.28383 0.83453 0.0
H1412 H 0.95831 0.25604 0.90089 0.0
H1413 H 0.93938 0.24831 0.86139 0.0
H1414 H 0.89587 0.28821 0.81586 0.0
H1415 H 0.92828 0.27495 0.82703 0.0
H1416 H 0.9098 0.35727 0.96533 0.0
H1417 H 0.94039 0.34182 0.9767 0.0
H1418 H 0.86444 0.34183 0.94008 0.0
H1419 H 0.84696 0.33557 0.90026 0.0
C1420 C 0.61834 0.22428 0.58805 0.0
C1421 C 0.59293 0.23815 0.58521 0.0
C1422 C 0.55659 0.18427 0.56795 0.0
C1423 C 0.58205 0.17035 0.56977 0.0
N1424 N 0.6379 0.17836 0.57828 0.0
N1425 N 0.53824 0.23105 0.56716 0.0
C1426 C 0.6131 0.19085 0.57857 0.0
C1427 C 0.56218 0.21791 0.57386 0.0
N1428 N 0.64746 0.24282 0.60182 0.0
N1429 N 0.52667 0.16522 0.56035 0.0
H1430 H 0.54144 0.25519 0.57037 0.0
H1431 H 0.51583 0.21845 0.55577 0.0
H1432 H 0.52148 0.14124 0.55231 0.0
H1433 H 0.50693 0.17283 0.56325 0.0
H1434 H 0.66629 0.2342 0.60867 0.0
H1435 H 0.65244 0.26697 0.60868 0.0
H1436 H 0.66097 0.19172 0.58014 0.0
H1437 H 0.63538 0.15435 0.57436 0.0
C1438 C 0.58197 0.82771 0.40249 0.0
C1439 C 0.58499 0.81061 0.4279 0.0
C1440 C 0.63753 0.80966 0.41729 0.0
C1441 C 0.63302 0.82379 0.38985 0.0
N1442 N 0.59807 0.84018 0.35257 0.0
N1443 N 0.61329 0.78016 0.45565 0.0
C1444 C 0.60435 0.83099 0.38133 0.0
C1445 C 0.61216 0.80016 0.43428 0.0
N1446 N 0.55875 0.84237 0.3995 0.0
N1447 N 0.66635 0.80628 0.42781 0.0
H1448 H 0.59495 0.77206 0.46799 0.0
H1449 H 0.63108 0.76922 0.45883 0.0
H1450 H 0.68557 0.81317 0.41624 0.0
H1451 H 0.67192 0.79926 0.44955 0.0
H1452 H 0.55752 0.85781 0.38349 0.0
H1453 H 0.54264 0.84193 0.41525 0.0
H1454 H 0.57623 0.84252 0.34365 0.0
H1455 H 0.61365 0.84248 0.33618 0.0
C1456 C 0.04558 0.26744 0.42414 0.0
C1457 C 0.07493 0.29069 0.43073 0.0
C1458 C 0.08995 0.26867 0.47801 0.0
C1459 C 0.06148 0.24437 0.47025 0.0
N1460 N 1.01577 0.2163 0.43166 0.0
N1461 N 0.12795 0.3083 0.45906 0.0
C1462 C 0.04041 0.24241 0.44195 0.0
C1463 C 0.09799 0.28979 0.45626 0.0
N1464 N 1.02188 0.27011 0.40227 0.0
N1465 N 0.10887 0.27232 0.50666 0.0
H1466 H 0.13502 0.32316 0.44288 0.0
H1467 H 0.14647 0.30647 0.47527 0.0
H1468 H 0.10384 0.2574 0.52326 0.0
H1469 H 0.12813 0.29164 0.51513 0.0
H1470 H 0.99904 0.25577 0.39919 0.0
H1471 H 1.02411 0.28838 0.38926 0.0
H1472 H 1.00188 0.21199 0.40926 0.0
H1473 H 1.01112 0.19754 0.4441 0.0
C1474 C 0.66913 0.27942 0.25038 0.0
C1475 C 0.65278 0.29235 0.273 0.0
C1476 C 0.7028 0.31039 0.31158 0.0
C1477 C 0.71956 0.29977 0.28803 0.0
N1478 N 0.71878 0.277 0.23366 0.0
N1479 N 0.65527 0.32314 0.32423 0.0
C1480 C 0.70262 0.28489 0.25715 0.0
C1481 C 0.66998 0.30842 0.30347 0.0
N1482 N 0.65242 0.26092 0.22254 0.0
N1483 N 0.7182 0.32179 0.34213 0.0
H1484 H 0.63154 0.32185 0.31936 0.0
H1485 H 0.66683 0.33837 0.34521 0.0
H1486 H 0.74187 0.3237 0.34877 0.0
H1487 H 0.7072 0.32703 0.36141 0.0
H1488 H 0.66187 0.24764 0.20671 0.0
H1489 H 0.62828 0.25664 0.21639 0.0
H1490 H 0.7089 0.26976 0.20964 0.0
H1491 H 0.74286 0.27977 0.2378 0.0
C1492 C 0.6171 0.98669 0.94479 0.0
C1493 C 0.59455 0.95738 0.94305 0.0
C1494 C 0.57161 0.98132 0.98634 0.0
C1495 C 0.59349 1.01085 0.98751 0.0
N1496 N 0.63421 0.04296 0.96484 0.0
N1497 N 0.54581 0.92909 0.95692 0.0
C1498 C 0.61525 1.01394 0.96562 0.0
C1499 C 0.57059 0.95539 0.96243 0.0
N1500 N 0.64108 0.98817 0.92755 0.0
N1501 N 0.55185 0.97782 1.00845 0.0
H1502 H 0.54368 0.90983 0.9394 0.0
H1503 H 0.52577 0.92745 0.96741 0.0
H1504 H 0.55028 0.99641 0.02499 0.0
H1505 H 0.53838 0.95617 0.01178 0.0
H1506 H 0.66016 1.00773 0.9299 0.0
H1507 H 0.64299 0.96891 0.91216 0.0
H1508 H 0.64897 0.04764 0.94804 0.0
H1509 H 0.63377 0.06304 0.97999 0.0
C1510 C 0.9619 0.80472 0.80033 0.0
C1511 C 0.96154 0.78657 0.76996 0.0
C1512 C 0.90417 0.78279 0.75807 0.0
C1513 C 0.90393 0.79842 0.78947 0.0
N1514 N 0.93303 0.81786 0.84264 0.0
N1515 N 0.92874 0.75187 0.72362 0.0
C1516 C 0.933 0.80751 0.81111 0.0
C1517 C 0.93159 0.77383 0.75 0.0
N1518 N 0.98999 0.82095 0.81857 0.0
N1519 N 0.87872 0.77785 0.73493 0.0
H1520 H 0.94735 0.74355 0.71757 0.0
H1521 H 0.90723 0.73929 0.70996 0.0
H1522 H 0.85887 0.78486 0.73902 0.0
H1523 H 0.87867 0.76987 0.71089 0.0
H1524 H 0.99205 0.83732 0.83899 0.0
H1525 H 1.01141 0.8205 0.81167 0.0
H1526 H 0.95244 0.82173 0.86031 0.0
H1527 H 0.91273 0.81927 0.85166 0.0
C1528 C 0.08068 0.06357 0.91324 0.0
C1529 C 0.1086 0.08654 0.91109 0.0
C1530 C 0.11605 0.10339 0.96952 0.0
C1531 C 0.09063 0.07779 0.97213 0.0
N1532 N 0.05281 0.02948 0.94611 0.0
N1533 N 0.15717 0.12269 0.93948 0.0
C1534 C 0.07407 0.05673 0.94385 0.0
C1535 C 0.12751 0.10491 0.93986 0.0
N1536 N 0.05966 0.04911 0.88621 0.0
N1537 N 0.12842 0.12728 0.99477 0.0
H1538 H 0.16755 0.1232 0.91894 0.0
H1539 H 0.17278 0.13401 0.96031 0.0
H1540 H 0.11968 0.1282 0.01628 0.0
H1541 H 0.14493 0.14786 0.99301 0.0
H1542 H 0.03759 0.03446 0.88674 0.0
H1543 H 0.06278 0.0544 0.86359 0.0
H1544 H 0.04229 1.01191 0.92648 0.0
H1545 H 0.04826 0.02291 0.96795 0.0
C1546 C 0.89307 0.48368 0.62748 0.0
C1547 C 0.88172 0.46387 0.59735 0.0
C1548 C 0.88431 0.41813 0.62186 0.0
C1549 C 0.89149 0.43732 0.65241 0.0
N1550 N 0.90133 0.48787 0.68532 0.0
N1551 N 0.86192 0.41183 0.56622 0.0
C1552 C 0.89556 0.47004 0.65555 0.0
C1553 C 0.87646 0.43099 0.59449 0.0
N1554 N 0.90219 0.51543 0.62904 0.0
N1555 N 0.88486 0.38754 0.61904 0.0
H1556 H 0.85477 0.42015 0.54578 0.0
H1557 H 0.85424 0.38754 0.56375 0.0
H1558 H 0.88975 0.37699 0.63867 0.0
H1559 H 0.88319 0.37338 0.59716 0.0
H1560 H 0.91326 0.53111 0.64988 0.0
H1561 H 0.9011 0.52607 0.6088 0.0
H1562 H 0.9012 0.51124 0.68935 0.0
H1563 H 0.9048 0.47878 0.7063 0.0
C1564 C 0.50518 0.07803 0.40615 0.0
C1565 C 0.47223 0.06809 0.404 0.0
C1566 C 0.47756 0.05883 0.45898 0.0
C1567 C 0.51055 0.071 0.46228 0.0
N1568 N 0.5552 0.09899 0.44115 0.0
N1569 N 0.42715 0.05784 0.43069 0.0
C1570 C 0.52431 0.08263 0.43647 0.0
C1571 C 0.45849 0.06167 0.4313 0.0
N1572 N 0.51814 0.08257 0.37921 0.0
N1573 N 0.46449 0.04224 0.48091 0.0
H1574 H 0.4124 0.05965 0.41061 0.0
H1575 H 0.41655 0.05589 0.45103 0.0
H1576 H 0.47781 0.03671 0.49986 0.0
H1577 H 0.44074 0.03058 0.47796 0.0
H1578 H 0.54199 0.08634 0.37864 0.0
H1579 H 0.50467 0.08077 0.35697 0.0
H1580 H 0.56569 0.11037 0.4239 0.0
H1581 H 0.56964 0.10381 0.46331 0.0
C1582 C 0.8303 0.80469 0.16332 0.0
C1583 C 0.80182 0.78703 0.14333 0.0
C1584 C 0.77435 0.78911 0.19004 0.0
C1585 C 0.80262 0.8075 0.20967 0.0
N1586 N 0.85504 0.84021 0.21288 0.0
N1587 N 0.74548 0.7695 0.13619 0.0
C1588 C 0.82981 0.81763 0.19558 0.0
C1589 C 0.77345 0.78145 0.1563 0.0
N1590 N 0.85816 0.80752 0.15236 0.0
N1591 N 0.74864 0.7778 0.20373 0.0
H1592 H 0.7439 0.76455 0.11139 0.0
H1593 H 0.72389 0.76757 0.14369 0.0
H1594 H 0.7482 0.78344 0.22812 0.0
H1595 H 0.72852 0.76117 0.19134 0.0
H1596 H 0.87979 0.81685 0.16711 0.0
H1597 H 0.85989 0.79813 0.12924 0.0
H1598 H 0.87449 0.85075 0.20312 0.0
H1599 H 0.855 0.85074 0.23611 0.0
C1600 C 0.07488 0.07082 0.71355 0.0
C1601 C 0.10109 0.09488 0.73084 0.0
C1602 C 0.10893 0.1169 0.68153 0.0
C1603 C 0.08258 0.09306 0.66427 0.0
N1604 N 0.03678 0.0511 0.66477 0.0
N1605 N 0.13805 0.14506 0.73324 0.0
C1606 C 0.06427 0.07135 0.68069 0.0
C1607 C 0.11658 0.11921 0.71535 0.0
N1608 N 0.06129 0.04646 0.72792 0.0
N1609 N 0.12718 0.13688 0.66541 0.0
H1610 H 0.14348 0.14793 0.75809 0.0
H1611 H 0.1482 0.16493 0.72404 0.0
H1612 H 0.12136 0.13702 0.64103 0.0
H1613 H 0.14891 0.15211 0.6757 0.0
H1614 H 0.04465 0.02627 0.7157 0.0
H1615 H 0.06818 0.04542 0.75186 0.0
H1616 H 1.02069 0.03676 0.67586 0.0
H1617 H 0.02878 0.05056 0.64072 0.0
C1618 C 0.79591 0.41817 0.41837 0.0
C1619 C 0.81782 0.4203 0.44593 0.0
C1620 C 0.82988 0.3729 0.42222 0.0
C1621 C 0.81199 0.3739 0.39291 0.0
N1622 N 0.77766 0.39684 0.36213 0.0
N1623 N 0.85872 0.40222 0.47316 0.0
C1624 C 0.79462 0.39619 0.39077 0.0
C1625 C 0.83518 0.39797 0.44799 0.0
N1626 N 0.77627 0.43704 0.41886 0.0
N1627 N 0.84263 0.34856 0.42518 0.0
H1628 H 0.86445 0.4209 0.4921 0.0
H1629 H 0.8746 0.38884 0.47398 0.0
H1630 H 0.84078 0.33057 0.40633 0.0
H1631 H 0.85282 0.34481 0.44702 0.0
H1632 H 0.75791 0.43496 0.40053 0.0
H1633 H 0.77669 0.45318 0.43901 0.0
H1634 H 0.76765 0.41477 0.3579 0.0
H1635 H 0.77471 0.37993 0.34192 0.0
C1636 C 0.44606 1.00005 0.21852 0.0
C1637 C 0.45609 1.00366 0.25189 0.0
C1638 C 0.50698 0.99685 0.24314 0.0
C1639 C 0.49754 0.99474 0.20988 0.0
N1640 N 0.45648 0.98555 0.16495 0.0
N1641 N 0.49145 0.99642 0.29556 0.0
C1642 C 0.46632 0.99315 0.19726 0.0
C1643 C 0.48507 0.99896 0.26405 0.0
N1644 N 0.41817 1.00515 0.20738 0.0
N1645 N 0.53732 0.99871 0.25483 0.0
H1646 H 0.4756 0.99766 0.31137 0.0
H1647 H 0.51099 0.99022 0.30532 0.0
H1648 H 0.55375 0.99618 0.24008 0.0
H1649 H 0.54667 1.00432 0.27907 0.0
H1650 H 0.41106 1.00627 0.18355 0.0
H1651 H 0.40259 1.00984 0.22235 0.0
H1652 H 0.43336 0.98157 0.15421 0.0
H1653 H 0.47113 0.98041 0.14903 0.0
C1654 C 0.81217 0.80269 0.95854 0.0
C1655 C 0.81271 0.77194 0.96289 0.0
C1656 C 0.82147 0.76108 0.90686 0.0
C1657 C 0.81821 0.79087 0.90181 0.0
N1658 N 0.80323 0.83712 0.92134 0.0
N1659 N 0.81151 0.7197 0.9388 0.0
C1660 C 0.8116 0.81088 0.92727 0.0
C1661 C 0.81571 0.75055 0.93639 0.0
N1662 N 0.81343 0.82462 0.98448 0.0
N1663 N 0.83103 0.74313 0.88383 0.0
H1664 H 0.80634 0.71076 0.95944 0.0
H1665 H 0.81003 0.70238 0.91941 0.0
H1666 H 0.83563 0.75007 0.86213 0.0
H1667 H 0.83708 0.72274 0.88732 0.0
H1668 H 0.81659 0.84827 0.98334 0.0
H1669 H 0.81439 0.81983 1.00776 0.0
H1670 H 0.79475 0.85064 0.93796 0.0
H1671 H 0.80163 0.84366 0.89882 0.0
C1672 C 0.86108 0.12965 0.99565 0.0
C1673 C 0.87988 0.1556 0.01874 0.0
C1674 C 0.92554 0.13596 0.01541 0.0
C1675 C 0.90675 0.10964 0.99286 0.0
N1676 N 0.86015 0.08662 0.95416 0.0
N1677 N 0.93147 0.18934 0.04005 0.0
C1678 C 0.8757 0.10846 0.9803 0.0
C1679 C 0.91268 0.16076 0.0249 0.0
N1680 N 0.82925 0.12369 0.99005 0.0
N1681 N 0.95458 0.13634 0.02994 0.0
H1682 H 0.92255 0.2082 0.0466 0.0
H1683 H 0.95582 0.19518 0.04267 0.0
H1684 H 0.96507 0.11846 0.02481 0.0
H1685 H 0.96724 0.15335 0.0493 0.0
H1686 H 0.81447 0.10295 0.9766 0.0
H1687 H 0.81719 0.13833 1.00034 0.0
H1688 H 0.83836 0.08624 0.94208 0.0
H1689 H 0.87061 0.07087 0.94271 0.0
C1690 C 0.44467 0.49415 0.09843 0.0
C1691 C 0.42885 0.46838 0.07392 0.0
C1692 C 0.47103 0.48288 0.04233 0.0
C1693 C 0.48515 0.51034 0.06535 0.0
N1694 N 0.48445 0.54402 0.11396 0.0
N1695 N 0.42408 0.44122 0.01996 0.0
C1696 C 0.47162 0.51658 0.09299 0.0
C1697 C 0.44134 0.46336 0.04525 0.0
N1698 N 0.43459 0.49643 0.12739 0.0
N1699 N 0.48606 0.47528 0.0177 0.0
H1700 H 0.40205 0.4266 0.02062 0.0
H1701 H 0.43031 0.43911 0.99724 0.0
H1702 H 0.50705 0.48966 0.01368 0.0
H1703 H 0.4789 0.45368 1.00255 0.0
H1704 H 0.44678 0.5128 0.14739 0.0
H1705 H 0.41535 0.48005 0.13237 0.0
H1706 H 0.47387 0.5516 0.13269 0.0
H1707 H 0.50478 0.56043 0.11133 0.0
C1708 C 0.40439 0.60234 0.80841 0.0
C1709 C 0.43174 0.61194 0.7945 0.0
C1710 C 0.42033 0.66184 0.78939 0.0
C1711 C 0.39136 0.65062 0.80011 0.0
N1712 N 0.35256 0.60742 0.81255 0.0
N1713 N 0.46338 0.64852 0.76685 0.0
C1714 C 0.38238 0.61997 0.80734 0.0
C1715 C 0.43915 0.64111 0.78362 0.0
N1716 N 0.40019 0.57737 0.82426 0.0
N1717 N 0.43032 0.69246 0.78575 0.0
H1718 H 0.47747 0.63376 0.76196 0.0
H1719 H 0.46781 0.66799 0.75547 0.0
H1720 H 0.41714 0.70829 0.78969 0.0
H1721 H 0.45268 0.70276 0.78129 0.0
H1722 H 0.38209 0.57136 0.83744 0.0
H1723 H 0.41671 0.5649 0.82748 0.0
H1724 H 0.34396 0.58402 0.81474 0.0
H1725 H 0.33546 0.61944 0.8114 0.0
C1726 C 0.19989 0.62175 0.65391 0.0
C1727 C 0.22019 0.60593 0.64102 0.0
C1728 C 0.17597 0.56492 0.60999 0.0
C1729 C 0.1567 0.58491 0.61649 0.0
N1730 N 0.14848 0.63041 0.64753 0.0
N1731 N 0.22767 0.55649 0.62021 0.0
C1732 C 0.16777 0.6122 0.64032 0.0
C1733 C 0.20818 0.57522 0.62365 0.0
N1734 N 0.21217 0.64675 0.67803 0.0
N1735 N 0.1636 0.53705 0.58961 0.0
H1736 H 0.25063 0.5633 0.63231 0.0
H1737 H 0.22056 0.53343 0.60836 0.0
H1738 H 0.1397 0.52858 0.58066 0.0
H1739 H 0.17671 0.52253 0.58124 0.0
H1740 H 0.19885 0.65876 0.69022 0.0
H1741 H 0.23601 0.65359 0.68748 0.0
H1742 H 0.15594 0.65223 0.6622 0.0
H1743 H 0.12488 0.6242 0.63777 0.0
C1744 C 0.82035 0.05786 0.80292 0.0
C1745 C 0.78737 0.04615 0.79994 0.0
C1746 C 0.79291 1.00006 0.82217 0.0
C1747 C 0.82594 1.0125 0.82664 0.0
N1748 N 0.87144 0.05489 0.82642 0.0
N1749 N 0.74221 1.01003 0.8125 0.0
C1750 C 0.83979 0.042 0.81861 0.0
C1751 C 0.7736 0.01836 0.81125 0.0
N1752 N 0.83294 0.08339 0.78963 0.0
N1753 N 0.77999 0.97028 0.82719 0.0
H1754 H 0.72723 0.02288 0.80462 0.0
H1755 H 0.73143 0.992 0.82388 0.0
H1756 H 0.79318 0.95605 0.8356 0.0
H1757 H 0.75626 0.95874 0.82081 0.0
H1758 H 0.85657 0.09114 0.78793 0.0
H1759 H 0.81931 0.09559 0.77804 0.0
H1760 H 0.88273 0.07766 0.82408 0.0
H1761 H 0.88625 0.04359 0.83772 0.0
C1762 C 0.74583 0.9498 0.53156 0.0
C1763 C 0.76423 0.95572 0.56244 0.0
C1764 C 0.74401 1.00045 0.57819 0.0
C1765 C 0.72456 0.99359 0.5479 0.0
N1766 N 0.70137 0.95766 0.4987 0.0
N1767 N 0.77541 0.98175 0.61733 0.0
C1768 C 0.72372 0.96695 0.5255 0.0
C1769 C 0.76167 0.97961 0.58644 0.0
N1770 N 0.75065 0.9292 0.5074 0.0
N1771 N 0.74643 0.02744 0.59865 0.0
H1772 H 0.78786 0.96632 0.6243 0.0
H1773 H 0.77189 0.99667 0.63651 0.0
H1774 H 0.73379 0.04326 0.59351 0.0
H1775 H 0.76277 0.03543 0.61954 0.0
H1776 H 0.74062 0.9269 0.48359 0.0
H1777 H 0.76664 0.91616 0.51041 0.0
H1778 H 0.69738 0.93648 0.48333 0.0
H1779 H 0.68485 0.96973 0.49335 0.0
C1780 C 0.42649 0.44465 0.81689 0.0
C1781 C 0.41975 0.46244 0.79322 0.0
C1782 C 0.3671 0.42605 0.77665 0.0
C1783 C 0.37317 0.40966 0.80179 0.0
N1784 N 0.40597 0.40623 0.84945 0.0
N1785 N 0.38305 0.47238 0.75239 0.0
C1786 C 0.40217 0.41977 0.8229 0.0
C1787 C 0.38979 0.45388 0.77372 0.0
N1788 N 0.45615 0.45139 0.83355 0.0
N1789 N 0.34028 0.41423 0.75475 0.0
H1790 H 0.39973 0.4915 0.74767 0.0
H1791 H 0.36061 0.46972 0.74043 0.0
H1792 H 0.32283 0.39439 0.75667 0.0
H1793 H 0.33611 0.4228 0.73364 0.0
H1794 H 0.46336 0.43712 0.84848 0.0
H1795 H 0.47445 0.47004 0.83073 0.0
H1796 H 0.42523 0.41457 0.86764 0.0
H1797 H 0.38839 0.38836 0.8549 0.0
C1798 C 0.30577 0.69722 0.25818 0.0
C1799 C 0.27671 0.67758 0.2622 0.0
C1800 C 0.25831 0.72314 0.2778 0.0
C1801 C 0.28893 0.74261 0.2792 0.0
N1802 N 0.3428 0.74874 0.27249 0.0
N1803 N 0.22727 0.67186 0.28178 0.0
C1804 C 0.31293 0.72996 0.26934 0.0
C1805 C 0.25323 0.69044 0.2731 0.0
N1806 N 0.32633 0.68454 0.24369 0.0
N1807 N 0.23412 0.73597 0.28164 0.0
H1808 H 0.22312 0.64783 0.28084 0.0
H1809 H 0.21139 0.68074 0.29334 0.0
H1810 H 0.23713 0.76003 0.28612 0.0
H1811 H 0.21075 0.72281 0.27736 0.0
H1812 H 0.34668 0.69792 0.23742 0.0
H1813 H 0.32162 0.66057 0.23548 0.0
H1814 H 0.36196 0.7402 0.26934 0.0
H1815 H 0.34882 0.77286 0.28025 0.0
C1816 C 0.55283 0.71296 0.54155 0.0
C1817 C 0.52579 0.71241 0.51953 0.0
C1818 C 0.51353 0.65367 0.51121 0.0
C1819 C 0.5387 0.65426 0.53564 0.0
N1820 N 0.5767 0.6868 0.5799 0.0
N1821 N 0.47603 0.67997 0.49038 0.0
C1822 C 0.55664 0.68462 0.55242 0.0
C1823 C 0.50495 0.68206 0.50647 0.0
N1824 N 0.57613 0.74024 0.5511 0.0
N1825 N 0.49852 0.62628 0.49099 0.0
H1826 H 0.46802 0.69953 0.48783 0.0
H1827 H 0.4587 0.65881 0.48308 0.0
H1828 H 0.50468 0.60554 0.49214 0.0
H1829 H 0.48235 0.62501 0.47081 0.0
H1830 H 0.59769 0.74134 0.56423 0.0
H1831 H 0.57547 0.761 0.54303 0.0
H1832 H 0.58812 0.70803 0.59483 0.0
H1833 H 0.57891 0.6673 0.58984 0.0
C1834 C 0.72121 0.36256 0.69432 0.0
C1835 C 0.69346 0.33733 0.68497 0.0
C1836 C 0.71794 0.30517 0.71736 0.0
C1837 C 0.74505 0.33104 0.72828 0.0
N1838 N 0.77125 0.38539 0.72968 0.0
N1839 N 0.66701 0.28306 0.68325 0.0
C1840 C 0.74651 0.35989 0.71703 0.0
C1841 C 0.69228 0.30824 0.69548 0.0
N1842 N 0.72345 0.38908 0.68115 0.0
N1843 N 0.71663 0.27763 0.72839 0.0
H1844 H 0.64806 0.28433 0.66722 0.0
H1845 H 0.66517 0.26032 0.68715 0.0
H1846 H 0.73561 0.27366 0.74218 0.0
H1847 H 0.69675 0.25875 0.72482 0.0
H1848 H 0.74392 0.40718 0.68387 0.0
H1849 H 0.70512 0.39214 0.6655 0.0
H1850 H 0.77257 0.40799 0.72551 0.0
H1851 H 0.78989 0.38447 0.74634 0.0
C1852 C 1.00828 0.41683 0.03548 0.0
C1853 C 0.03355 0.40337 0.03148 0.0
C1854 C 0.0701 0.45728 0.04768 0.0
C1855 C 0.04463 0.47114 0.04827 0.0
N1856 N 0.98879 0.46301 0.03765 0.0
N1857 N 0.08904 0.41196 0.03257 0.0
C1858 C 1.01356 0.45051 0.0412 0.0
C1859 C 0.06451 0.42407 0.03717 0.0
N1860 N 0.97886 0.39746 0.0335 0.0
N1861 N 0.09997 0.47563 0.05878 0.0
H1862 H 0.08691 0.388 0.02895 0.0
H1863 H 0.11127 0.42558 0.031 0.0
H1864 H 0.10545 0.49958 0.06713 0.0
H1865 H 0.11921 0.46683 0.06273 0.0
H1866 H 0.96006 0.40524 0.03983 0.0
H1867 H 0.97366 0.37319 0.02798 0.0
H1868 H 0.96588 0.44977 0.02878 0.0
H1869 H 0.99136 0.48701 0.04066 0.0
C1870 C 1.02525 0.84969 0.20833 0.0
C1871 C 1.02754 0.8263 0.1836 0.0
C1872 C 0.98022 0.79035 0.19514 0.0
C1873 C 0.98076 0.8122 0.22256 0.0
N1874 N 1.00508 0.86175 0.2572 0.0
N1875 N 1.00878 0.77305 0.15502 0.0
C1876 C 1.00358 0.84169 0.22963 0.0
C1877 C 1.00523 0.79635 0.17711 0.0
N1878 N 0.04303 0.87989 0.21068 0.0
N1879 N 0.95558 0.76403 0.18612 0.0
H1880 H 1.02639 0.77628 0.14099 0.0
H1881 H 0.99559 0.74979 0.15211 0.0
H1882 H 0.93726 0.75857 0.19918 0.0
H1883 H 0.95193 0.74896 0.16441 0.0
H1884 H 0.04022 0.89864 0.22609 0.0
H1885 H 0.05848 0.88681 0.19488 0.0
H1886 H 1.02341 0.88193 0.26558 0.0
H1887 H 0.98916 0.8571 0.27304 0.0
C1888 C 0.56548 0.38297 0.18991 0.0
C1889 C 0.57075 0.35318 0.18186 0.0
C1890 C 0.58607 0.36717 0.1313 0.0
C1891 C 0.58326 0.39778 0.14046 0.0
N1892 N 0.57659 0.4369 0.18142 0.0
N1893 N 0.59482 0.32075 0.14922 0.0
C1894 C 0.57481 0.40631 0.17068 0.0
C1895 C 0.58353 0.34634 0.15377 0.0
N1896 N 0.5504 0.38866 0.21506 0.0
N1897 N 0.59014 0.35753 0.10079 0.0
H1898 H 0.59529 0.30584 0.16594 0.0
H1899 H 0.60709 0.31643 0.13069 0.0
H1900 H 0.59172 0.3719 0.08339 0.0
H1901 H 0.58893 0.33439 0.09191 0.0
H1902 H 0.54279 0.40865 0.21978 0.0
H1903 H 0.54308 0.37227 0.22967 0.0
H1904 H 0.57392 0.44511 0.20459 0.0
H1905 H 0.58364 0.45462 0.16813 0.0
C1906 C 0.97066 0.3219 0.33114 0.0
C1907 C 0.99135 0.35251 0.34191 0.0
C1908 C 0.94448 0.37316 0.34019 0.0
C1909 C 0.92389 0.34269 0.32781 0.0
N1910 N 0.91937 0.2895 0.30436 0.0
N1911 N 0.99765 0.40803 0.35157 0.0
C1912 C 0.93762 0.31749 0.32145 0.0
C1913 C 0.97809 0.37833 0.34463 0.0
N1914 N 0.98254 0.29665 0.33022 0.0
N1915 N 0.93194 0.39703 0.34944 0.0
H1916 H 1.02196 0.41268 0.35565 0.0
H1917 H 0.99 0.42801 0.3507 0.0
H1918 H 0.90788 0.39421 0.34708 0.0
H1919 H 0.94515 0.41887 0.36195 0.0
H1920 H 0.9686 0.27364 0.32698 0.0
H1921 H 1.00649 0.29882 0.3345 0.0
H1922 H 0.92823 0.27126 0.29573 0.0
H1923 H 0.89566 0.28556 0.296 0.0
C1924 C 0.0369 0.69336 0.63596 0.0
C1925 C 0.04569 0.69517 0.66952 0.0
C1926 C 0.06302 0.64718 0.65683 0.0
C1927 C 0.05901 0.64881 0.6235 0.0
N1928 N 0.04805 0.67909 0.5829 0.0
N1929 N 0.07388 0.676 0.71095 0.0
C1930 C 0.04791 0.67368 0.61359 0.0
C1931 C 0.06033 0.67249 0.67978 0.0
N1932 N 1.01665 0.70931 0.62512 0.0
N1933 N 0.07004 0.62177 0.66694 0.0
H1934 H 0.07438 0.69465 0.72845 0.0
H1935 H 0.08775 0.66214 0.71877 0.0
H1936 H 0.07417 0.60377 0.65156 0.0
H1937 H 0.06948 0.61754 0.6903 0.0
H1938 H 1.00736 0.70667 0.60102 0.0
H1939 H 1.00593 0.72181 0.64041 0.0
H1940 H 0.04313 0.69882 0.57551 0.0
H1941 H 0.05583 0.66564 0.5656 0.0
C1942 C 0.69193 0.87936 0.83226 0.0
C1943 C 0.67321 0.85902 0.84996 0.0
C1944 C 0.71424 0.82998 0.85233 0.0
C1945 C 0.73184 0.84889 0.83278 0.0
N1946 N 0.73459 0.88941 0.8008 0.0
N1947 N 0.66469 0.81087 0.87114 0.0
C1948 C 0.7198 0.87299 0.8219 0.0
C1949 C 0.68405 0.83332 0.85847 0.0
N1950 N 0.68387 0.90573 0.82644 0.0
N1951 N 0.72685 0.80917 0.86608 0.0
H1952 H 0.64235 0.81168 0.87505 0.0
H1953 H 0.66931 0.78986 0.87471 0.0
H1954 H 0.74831 0.80568 0.86203 0.0
H1955 H 0.71751 0.79742 0.88365 0.0
H1956 H 0.69795 0.92347 0.81698 0.0
H1957 H 0.66402 0.91103 0.83336 0.0
H1958 H 0.72544 0.90461 0.78872 0.0
H1959 H 0.7551 0.88604 0.79357 0.0
C1960 C 0.54754 0.55627 0.69789 0.0
C1961 C 0.51895 0.56138 0.70512 0.0
C1962 C 0.50676 0.57241 0.65061 0.0
C1963 C 0.53613 0.56899 0.64394 0.0
N1964 N 0.58636 0.56136 0.66247 0.0
N1965 N 0.4744 0.5806 0.69084 0.0
C1966 C 0.55717 0.56228 0.66808 0.0
C1967 C 0.49936 0.57111 0.6821 0.0
N1968 N 0.56466 0.54391 0.71875 0.0
N1969 N 0.48581 0.57676 0.62678 0.0
H1970 H 0.46872 0.5809 0.71382 0.0
H1971 H 0.46108 0.59101 0.6764 0.0
H1972 H 0.49103 0.57975 0.60407 0.0
H1973 H 0.4626 0.57551 0.62884 0.0
H1974 H 0.58369 0.53603 0.71342 0.0
H1975 H 0.55841 0.53914 0.74067 0.0
H1976 H 0.60413 0.5606 0.68022 0.0
H1977 H 0.59368 0.56333 0.64044 0.0
C1978 C 0.80378 0.29399 0.04291 0.0
C1979 C 0.83049 0.28299 0.04019 0.0
C1980 C 0.82779 0.28919 0.9846 0.0
C1981 C 0.79858 0.29589 0.98574 0.0
N1982 N 0.76251 0.31281 0.01654 0.0
N1983 N 0.87655 0.28841 0.01537 0.0
C1984 C 0.78793 0.30137 0.01531 0.0
C1985 C 0.84555 0.28687 0.01333 0.0
N1986 N 0.79354 0.29636 0.07173 0.0
N1987 N 0.83763 0.28305 0.95599 0.0
H1988 H 0.89041 0.28939 0.03716 0.0
H1989 H 0.88913 0.29306 0.99675 0.0
H1990 H 0.82513 0.2841 0.93412 0.0
H1991 H 0.8571 0.2747 0.95382 0.0
H1992 H 0.77283 0.30168 0.07544 0.0
H1993 H 0.80664 0.29321 0.09237 0.0
H1994 H 0.75396 0.31844 0.03745 0.0
H1995 H 0.75068 0.3182 0.9964 0.0
C1996 C 0.1549 0.53253 0.17419 0.0
C1997 C 0.16939 0.55882 0.19829 0.0
C1998 C 0.13573 0.58843 0.17572 0.0
C1999 C 0.1207 0.56191 0.15193 0.0
N2000 N 0.10949 0.50644 0.13384 0.0
N2001 N 0.1681 0.60832 0.22752 0.0
C2002 C 0.1283 0.53317 0.1528 0.0
C2003 C 0.15785 0.58558 0.20095 0.0
N2004 N 0.16695 0.5074 0.17131 0.0
N2005 N 0.13054 0.61686 0.17316 0.0
H2006 H 0.18431 0.60707 0.24658 0.0
H2007 H 0.15823 0.6268 0.2321 0.0
H2008 H 0.11474 0.62025 0.15487 0.0
H2009 H 0.14381 0.63769 0.18769 0.0
H2010 H 0.15952 0.48905 0.15196 0.0
H2011 H 0.18573 0.50588 0.18746 0.0
H2012 H 0.11239 0.48428 0.13506 0.0
H2013 H 0.08898 0.50619 0.11921 0.0
C2014 C 0.84819 0.88765 0.4599 0.0
C2015 C 0.83165 0.86801 0.47941 0.0
C2016 C 0.81376 0.82528 0.43287 0.0
C2017 C 0.82731 0.84612 0.41283 0.0
N2018 N 0.85338 0.89859 0.40646 0.0
N2019 N 0.79569 0.81907 0.48367 0.0
C2020 C 0.84363 0.87764 0.42618 0.0
C2021 C 0.81384 0.83693 0.46575 0.0
N2022 N 0.86896 0.91573 0.47372 0.0
N2023 N 0.80128 0.7942 0.42055 0.0
H2024 H 0.79508 0.82671 0.50765 0.0
H2025 H 0.77942 0.79766 0.47423 0.0
H2026 H 0.80084 0.78503 0.3967 0.0
H2027 H 0.7938 0.77715 0.4344 0.0
H2028 H 0.88439 0.92935 0.4614 0.0
H2029 H 0.87295 0.92416 0.4982 0.0
H2030 H 0.86207 0.92263 0.41433 0.0
H2031 H 0.85022 0.8924 0.38165 0.0
C2032 C 0.50713 0.53641 0.90419 0.0
C2033 C 0.52866 0.55027 0.8848 0.0
C2034 C 0.5712 0.56299 0.93094 0.0
C2035 C 0.54899 0.55246 0.95101 0.0
N2036 N 0.49534 0.53183 0.95762 0.0
N2037 N 0.58081 0.57862 0.87979 0.0
C2038 C 0.51685 0.53964 0.93781 0.0
C2039 C 0.56071 0.5638 0.89812 0.0
N2040 N 0.47745 0.51942 0.89028 0.0
N2041 N 0.60239 0.5717 0.94321 0.0
H2042 H 0.574 0.57914 0.85568 0.0
H2043 H 0.60361 0.59206 0.8888 0.0
H2044 H 0.61067 0.57124 0.96699 0.0
H2045 H 0.6201 0.57692 0.92946 0.0
H2046 H 0.46175 0.50573 0.90228 0.0
H2047 H 0.4693 0.51668 0.86587 0.0
H2048 H 0.47126 0.52604 0.95018 0.0
H2049 H 0.5015 0.53325 0.98222 0.0
C2050 C 0.8457 0.22248 0.19767 0.0
C2051 C 0.86572 0.23856 0.17857 0.0
C2052 C 0.87282 0.28759 0.21536 0.0
C2053 C 0.84641 0.27254 0.22863 0.0
N2054 N 0.8061 0.22538 0.23052 0.0
N2055 N 0.90588 0.28443 0.17452 0.0
C2056 C 0.83263 0.2398 0.21957 0.0
C2057 C 0.88186 0.27059 0.18925 0.0
N2058 N 0.83984 0.1908 0.19535 0.0
N2059 N 0.88986 0.31749 0.22845 0.0
H2060 H 0.91606 0.27127 0.15925 0.0
H2061 H 0.91594 0.30848 0.1776 0.0
H2062 H 0.88396 0.33061 0.24743 0.0
H2063 H 0.91095 0.32883 0.222 0.0
H2064 H 0.82706 0.17813 0.21046 0.0
H2065 H 0.85145 0.17814 0.18129 0.0
H2066 H 0.7937 0.20206 0.22209 0.0
H2067 H 0.79468 0.23742 0.24543 0.0
C2068 C 0.24022 0.60993 0.37907 0.0
C2069 C 0.21938 0.59832 0.34966 0.0
C2070 C 0.17496 0.5995 0.37753 0.0
C2071 C 0.19602 0.61522 0.40586 0.0
N2072 N 0.24895 0.63865 0.43304 0.0
N2073 N 0.16725 0.58812 0.31986 0.0
C2074 C 0.22878 0.62128 0.40654 0.0
C2075 C 0.18678 0.59454 0.34856 0.0
N2076 N 0.27068 0.60906 0.38105 0.0
N2077 N 0.14368 0.58865 0.3784 0.0
H2078 H 0.1749 0.58565 0.29785 0.0
H2079 H 0.14394 0.58852 0.31785 0.0
H2080 H 0.13411 0.59132 0.39933 0.0
H2081 H 0.12776 0.57424 0.35911 0.0
H2082 H 0.28616 0.61436 0.40254 0.0
H2083 H 0.27967 0.60003 0.36166 0.0
H2084 H 0.27299 0.64695 0.43358 0.0
H2085 H 0.24135 0.64682 0.45377 0.0
C2086 C 0.79539 0.86957 0.67142 0.0
C2087 C 0.82556 0.87946 0.66252 0.0
C2088 C 0.84939 0.86933 0.71384 0.0
C2089 C 0.8195 0.86144 0.72363 0.0
N2090 N 0.76456 0.85771 0.71376 0.0
N2091 N 0.88169 0.89213 0.67661 0.0
C2092 C 0.79261 0.86242 0.70286 0.0
C2093 C 0.85265 0.88048 0.68424 0.0
N2094 N 0.76936 0.86703 0.6498 0.0
N2095 N 0.87452 0.86455 0.73204 0.0
H2096 H 0.88525 0.89818 0.65433 0.0
H2097 H 0.90233 0.8975 0.69293 0.0
H2098 H 0.8733 0.85657 0.75381 0.0
H2099 H 0.89602 0.86601 0.72451 0.0
H2100 H 0.74665 0.85664 0.65316 0.0
H2101 H 0.77043 0.87372 0.62741 0.0
H2102 H 0.74457 0.86119 0.70144 0.0
H2103 H 0.76184 0.85259 0.73655 0.0
C2104 C 0.77733 0.54203 0.56654 0.0
C2105 C 0.80022 0.55495 0.54827 0.0
C2106 C 0.78734 0.60491 0.55652 0.0
C2107 C 0.76171 0.59054 0.57082 0.0
N2108 N 0.72918 0.54412 0.58549 0.0
N2109 N 0.82546 0.59738 0.52276 0.0
C2110 C 0.7559 0.55877 0.57495 0.0
C2111 C 0.80509 0.58619 0.54262 0.0
N2112 N 0.77672 0.51425 0.57677 0.0
N2113 N 0.79471 0.63643 0.55645 0.0
H2114 H 0.83849 0.58413 0.51169 0.0
H2115 H 0.82759 0.61882 0.51511 0.0
H2116 H 0.78191 0.65064 0.56639 0.0
H2117 H 0.81491 0.64887 0.54913 0.0
H2118 H 0.7627 0.50549 0.59307 0.0
H2119 H 0.79242 0.50139 0.57156 0.0
H2120 H 0.72213 0.52008 0.58532 0.0
H2121 H 0.7126 0.55536 0.59201 0.0
C2122 C 0.18608 0.17028 0.52158 0.0
C2123 C 0.21043 0.17989 0.54833 0.0
C2124 C 0.17934 0.14314 0.57776 0.0
C2125 C 0.15413 0.13525 0.55194 0.0
N2126 N 0.13137 0.14454 0.50129 0.0
N2127 N 0.22833 0.18015 0.60401 0.0
C2128 C 0.15687 0.14979 0.52442 0.0
C2129 C 0.20659 0.16753 0.57701 0.0
N2130 N 0.1913 0.17964 0.49304 0.0
N2131 N 0.17734 0.12707 0.60285 0.0
H2132 H 0.24832 0.19845 0.60467 0.0
H2133 H 0.22522 0.17458 0.62651 0.0
H2134 H 0.15747 0.10951 0.60452 0.0
H2135 H 0.19615 0.12934 0.62075 0.0
H2136 H 0.17574 0.1706 0.47172 0.0
H2137 H 0.21238 0.19464 0.49001 0.0
H2138 H 0.13074 0.15724 0.48261 0.0
H2139 H 0.10995 0.1289 0.50203 0.0
C2140 C 0.20063 1.01601 0.79184 0.0
C2141 C 0.19226 0.02687 0.82138 0.0
C2142 C 0.22536 0.99973 0.8497 0.0
C2143 C 0.23294 0.98815 0.82004 0.0
N2144 N 0.22288 0.97929 0.7624 0.0
N2145 N 0.19082 0.02383 0.8771 0.0
C2146 C 0.2189 0.99434 0.79093 0.0
C2147 C 0.2029 0.01713 0.84996 0.0
N2148 N 0.19287 0.02785 0.76504 0.0
N2149 N 0.24034 0.99489 0.87763 0.0
H2150 H 0.1739 0.03606 0.87791 0.0
H2151 H 0.19529 1.01488 0.8979 0.0
H2152 H 0.25625 0.98148 0.87829 0.0
H2153 H 0.23859 1.00576 0.90015 0.0
H2154 H 0.2015 0.02363 0.74382 0.0
H2155 H 0.17981 0.04403 0.76458 0.0
H2156 H 0.21051 0.98016 0.74042 0.0
H2157 H 0.23658 0.96367 0.76083 0.0
C2158 C 0.44352 0.02172 1.00691 0.0
C2159 C 0.42601 0.02735 0.0314 0.0
C2160 C 0.47291 0.06233 0.06537 0.0
C2161 C 0.49089 0.05343 0.04261 0.0
N2162 N 0.49458 0.02346 0.99268 0.0
N2163 N 0.42369 0.04992 0.08534 0.0
C2164 C 0.47656 0.03286 0.01354 0.0
C2165 C 0.44046 0.04718 0.0609 0.0
N2166 N 0.42838 1.0064 0.97714 0.0
N2167 N 0.48686 0.08516 0.09126 0.0
H2168 H 0.39979 0.03922 0.08318 0.0
H2169 H 0.43385 0.06089 0.10861 0.0
H2170 H 0.51084 0.09585 0.09598 0.0
H2171 H 0.47444 0.0952 0.10669 0.0
H2172 H 0.43961 1.00409 0.95737 0.0
H2173 H 0.40404 0.99842 0.97144 0.0
H2174 H 0.48573 1.00559 0.97302 0.0
H2175 H 0.51887 0.03222 0.99608 0.0
C2176 C 0.81646 0.59195 0.81202 0.0
C2177 C 0.84824 0.60117 0.80757 0.0
C2178 C 0.83901 0.64426 0.78206 0.0
C2179 C 0.80686 0.63384 0.78477 0.0
N2180 N 0.76352 0.59461 0.79591 0.0
N2181 N 0.88804 0.63111 0.78183 0.0
C2182 C 0.79508 0.60649 0.79754 0.0
C2183 C 0.85903 0.62583 0.79059 0.0
N2184 N 0.80714 0.57087 0.83173 0.0
N2185 N 0.85079 0.67248 0.77286 0.0
H2186 H 0.90334 0.61786 0.78742 0.0
H2187 H 0.89575 0.64659 0.76645 0.0
H2188 H 0.83701 0.6868 0.76603 0.0
H2189 H 0.87466 0.68288 0.77437 0.0
H2190 H 0.78498 0.56563 0.83828 0.0
H2191 H 0.82245 0.56088 0.8442 0.0
H2192 H 0.75333 0.57303 0.80208 0.0
H2193 H 0.74737 0.60506 0.78553 0.0
C2194 C 0.85689 0.665 0.09078 0.0
C2195 C 0.86908 0.69279 0.07854 0.0
C2196 C 0.9215 0.6849 0.08736 0.0
C2197 C 0.90825 0.6548 0.09469 0.0
N2198 N 0.86245 0.61428 0.09924 0.0
N2199 N 0.9126 0.72799 0.0622 0.0
C2200 C 0.8757 0.64435 0.09541 0.0
C2201 C 0.90139 0.70266 0.0763 0.0
N2202 N 0.82771 0.65892 0.09921 0.0
N2203 N 0.9533 0.69667 0.09148 0.0
H2204 H 0.8986 0.74139 0.05352 0.0
H2205 H 0.93518 0.73422 0.05674 0.0
H2206 H 0.96863 0.68431 0.09969 0.0
H2207 H 0.96445 0.71965 0.08963 0.0
H2208 H 0.81881 0.64057 0.1111 0.0
H2209 H 0.81374 0.67421 0.09763 0.0
H2210 H 0.83834 0.60439 0.09624 0.0
H2211 H 0.87532 0.59828 0.10269 0.0
C2212 C 0.22565 0.18234 0.7976 0.0
C2213 C 0.21467 0.17973 0.82724 0.0
C2214 C 0.25234 0.22993 0.85194 0.0
C2215 C 0.26121 0.2339 0.82159 0.0
N2216 N 0.25526 0.21548 0.76497 0.0
N2217 N 0.21506 0.20146 0.88193 0.0
C2218 C 0.2476 0.21048 0.79427 0.0
C2219 C 0.22737 0.20364 0.85427 0.0
N2220 N 0.21542 0.15768 0.77275 0.0
N2221 N 0.26795 0.25121 0.87853 0.0
H2222 H 0.19744 0.18208 0.88467 0.0
H2223 H 0.2207 0.21952 0.90147 0.0
H2224 H 0.28601 0.27088 0.87765 0.0
H2225 H 0.26482 0.24828 0.90178 0.0
H2226 H 0.22501 0.1566 0.75177 0.0
H2227 H 0.19852 0.13712 0.77377 0.0
H2228 H 0.24327 0.20147 0.74346 0.0
H2229 H 0.27283 0.23474 0.76191 0.0
C2230 C 0.36201 0.96416 0.38896 0.0
C2231 C 0.34773 0.97713 0.36471 0.0
C2232 C 0.29851 0.93704 0.36122 0.0
C2233 C 0.31553 0.91991 0.37781 0.0
N2234 N 0.35612 0.92202 0.42033 0.0
N2235 N 0.30155 0.97931 0.33067 0.0
C2236 C 0.34487 0.93554 0.39645 0.0
C2237 C 0.31535 0.96518 0.35243 0.0
N2238 N 0.39242 0.97806 0.40281 0.0
N2239 N 0.2667 0.92645 0.35429 0.0
H2240 H 0.31342 1.00028 0.32433 0.0
H2241 H 0.27894 0.96967 0.31809 0.0
H2242 H 0.25431 0.90692 0.36274 0.0
H2243 H 0.25267 0.93881 0.34363 0.0
H2244 H 0.40519 0.96857 0.41881 0.0
H2245 H 0.40518 0.99926 0.39764 0.0
H2246 H 0.37712 0.93207 0.43589 0.0
H2247 H 0.34238 0.90145 0.42592 0.0
C2248 C 0.56785 0.42673 0.5842 0.0
C2249 C 0.59867 0.42282 0.59017 0.0
C2250 C 0.61861 0.47643 0.5761 0.0
C2251 C 0.58808 0.4813 0.57269 0.0
N2252 N 0.53465 0.46205 0.58064 0.0
N2253 N 0.654 0.44683 0.59515 0.0
C2254 C 0.56301 0.45651 0.57841 0.0
C2255 C 0.62413 0.44866 0.58723 0.0
N2256 N 0.54273 0.40194 0.58439 0.0
N2257 N 0.64238 0.49765 0.56707 0.0
H2258 H 0.65906 0.42666 0.60118 0.0
H2259 H 0.6737 0.46584 0.59764 0.0
H2260 H 0.63937 0.51757 0.55846 0.0
H2261 H 0.66421 0.49412 0.56517 0.0
H2262 H 0.51974 0.40151 0.57614 0.0
H2263 H 0.54488 0.38084 0.59074 0.0
H2264 H 0.51639 0.44677 0.58833 0.0
H2265 H 0.53031 0.48343 0.57816 0.0
C2266 C 0.41348 0.82414 0.44388 0.0
C2267 C 0.42417 0.79736 0.43494 0.0
C2268 C 0.38215 0.78091 0.38762 0.0
C2269 C 0.37092 0.80722 0.3971 0.0
N2270 N 0.372 0.84989 0.4383 0.0
N2271 N 0.41454 0.74704 0.40187 0.0
C2272 C 0.38524 0.82737 0.42663 0.0
C2273 C 0.40728 0.77486 0.40776 0.0
N2274 N 0.43141 0.84776 0.46748 0.0
N2275 N 0.36882 0.76165 0.35911 0.0
H2276 H 0.4322 0.74162 0.41638 0.0
H2277 H 0.40137 0.72823 0.38452 0.0
H2278 H 0.34878 0.7635 0.3452 0.0
H2279 H 0.37829 0.74469 0.34851 0.0
H2280 H 0.42711 0.86952 0.47234 0.0
H2281 H 0.45234 0.84693 0.48043 0.0
H2282 H 0.37915 0.86307 0.46121 0.0
H2283 H 0.35194 0.85343 0.42623 0.0
C2284 C 0.12062 0.73158 0.1052 0.0
C2285 C 0.09526 0.74496 0.09854 0.0
C2286 C 0.06034 0.69077 0.07835 0.0
C2287 C 0.08558 0.67725 0.0855 0.0
N2288 N 0.14059 0.68557 0.10369 0.0
N2289 N 0.04194 0.73735 0.07465 0.0
C2290 C 0.11597 0.69801 0.09807 0.0
C2291 C 0.06537 0.7244 0.08414 0.0
N2292 N 0.14901 0.75097 0.12005 0.0
N2293 N 0.03133 0.67128 0.06555 0.0
H2294 H 0.04501 0.76147 0.07769 0.0
H2295 H 1.02011 0.72481 0.06183 0.0
H2296 H 1.02735 0.64744 0.05733 0.0
H2297 H 1.01085 0.67823 0.0634 0.0
H2298 H 0.16765 0.74337 0.12964 0.0
H2299 H 0.15376 0.77527 0.12417 0.0
H2300 H 0.16392 0.69864 0.10878 0.0
H2301 H 0.13792 0.66163 0.10221 0.0
C2302 C 0.09542 0.28978 0.9128 0.0
C2303 C 0.09327 0.3148 0.9358 0.0
C2304 C 0.14083 0.34856 0.92214 0.0
C2305 C 0.14035 0.32494 0.89633 0.0
N2306 N 0.11473 0.27427 0.86432 0.0
N2307 N 0.1111 0.36997 0.95834 0.0
C2308 C 0.117 0.29581 0.89093 0.0
C2309 C 0.11536 0.3447 0.93961 0.0
N2310 N 0.0777 0.25998 0.9126 0.0
N2311 N 0.16593 0.37453 0.93036 0.0
H2312 H 0.09221 0.36872 0.97058 0.0
H2313 H 0.12456 0.39284 0.95921 0.0
H2314 H 0.18501 0.37818 0.91814 0.0
H2315 H 0.1692 0.3909 0.95107 0.0
H2316 H 0.08049 0.24035 0.89858 0.0
H2317 H 0.0624 0.25446 0.92887 0.0
H2318 H 0.09607 0.25415 0.85719 0.0
H2319 H 0.13013 0.27772 0.84783 0.0
C2320 C 0.54266 0.77076 0.92887 0.0
C2321 C 0.57328 0.79107 0.93137 0.0
C2322 C 0.59269 0.76432 0.97277 0.0
C2323 C 0.5625 0.74297 0.969 0.0
N2324 N 0.51035 0.72179 0.93915 0.0
N2325 N 0.62863 0.80293 0.95041 0.0
C2326 C 0.53797 0.74495 0.94568 0.0
C2327 C 0.59866 0.78661 0.95182 0.0
N2328 N 0.51774 0.77704 0.91186 0.0
N2329 N 0.61541 0.76402 0.99709 0.0
H2330 H 0.63396 0.819 0.93495 0.0
H2331 H 0.64833 0.7984 0.96219 0.0
H2332 H 0.61207 0.74789 0.01273 0.0
H2333 H 0.63671 0.78123 1.00337 0.0
H2334 H 0.49454 0.76526 0.91222 0.0
H2335 H 0.51996 0.79576 0.8994 0.0
H2336 H 0.49284 0.72003 0.92003 0.0
H2337 H 0.50599 0.7027 0.95116 0.0
C2338 C 0.16928 0.81504 0.75391 0.0
C2339 C 0.14797 0.7969 0.77109 0.0
C2340 C 0.19461 0.79245 0.80654 0.0
C2341 C 0.21552 0.8064 0.78625 0.0
N2342 N 0.21941 0.82413 0.73552 0.0
N2343 N 0.14172 0.76372 0.81123 0.0
C2344 C 0.20185 0.81584 0.75859 0.0
C2345 C 0.16107 0.78441 0.79677 0.0
N2346 N 0.15881 0.83282 0.73381 0.0
N2347 N 0.20646 0.78811 0.83605 0.0
H2348 H 0.11746 0.75688 0.80476 0.0
H2349 H 0.14995 0.75113 0.82751 0.0
H2350 H 0.23029 0.7947 0.84505 0.0
H2351 H 0.19247 0.78119 0.85303 0.0
H2352 H 0.17376 0.84872 0.72302 0.0
H2353 H 0.13593 0.83467 0.73108 0.0
H2354 H 0.20991 0.82818 0.7135 0.0
H2355 H 0.24249 0.82321 0.73666 0.0
C2356 C 0.06454 0.4555 0.44663 0.0
C2357 C 0.09428 0.45432 0.43892 0.0
C2358 C 0.11824 0.5063 0.47287 0.0
C2359 C 0.08895 0.50616 0.48282 0.0
N2360 N 0.0342 0.48009 0.47994 0.0
N2361 N 0.14975 0.47758 0.4453 0.0
C2362 C 0.06212 0.4806 0.4698 0.0
C2363 C 0.12117 0.47965 0.45197 0.0
N2364 N 0.03835 0.43287 0.43101 0.0
N2365 N 0.14337 0.53187 0.48368 0.0
H2366 H 0.15243 0.45894 0.42953 0.0
H2367 H 0.17094 0.49328 0.45637 0.0
H2368 H 0.14263 0.55064 0.50048 0.0
H2369 H 0.16449 0.5354 0.47499 0.0
H2370 H 1.01559 0.4339 0.43236 0.0
H2371 H 0.03921 0.41389 0.41452 0.0
H2372 H 1.01478 0.4606 0.47502 0.0
H2373 H 0.03066 0.49886 0.49472 0.0
C2374 C 0.45748 0.317 0.25973 0.0
C2375 C 0.46931 0.29301 0.27118 0.0
C2376 C 0.42401 0.28192 0.30137 0.0
C2377 C 0.41103 0.30449 0.28813 0.0
N2378 N 0.41416 0.34012 0.25029 0.0
N2379 N 0.46092 0.24996 0.30011 0.0
C2380 C 0.42763 0.32114 0.26625 0.0
C2381 C 0.45171 0.27485 0.29131 0.0
N2382 N 0.47541 0.3368 0.24323 0.0
N2383 N 0.41062 0.26805 0.32478 0.0
H2384 H 0.48103 0.24465 0.29392 0.0
H2385 H 0.44761 0.23333 0.31143 0.0
H2386 H 0.39089 0.27261 0.33279 0.0
H2387 H 0.42038 0.25406 0.33811 0.0
H2388 H 0.47059 0.35713 0.23751 0.0
H2389 H 0.49674 0.33436 0.23754 0.0
H2390 H 0.42255 0.34981 0.23115 0.0
H2391 H 0.39289 0.34408 0.25422 0.0
C2392 C 0.59844 0.54926 0.40682 0.0
C2393 C 0.62017 0.57739 0.40323 0.0
C2394 C 0.62125 0.59902 0.4597 0.0
C2395 C 0.60148 0.56996 0.46404 0.0
N2396 N 0.57564 0.51567 0.44302 0.0
N2397 N 0.65569 0.62757 0.42735 0.0
C2398 C 0.59116 0.54463 0.43786 0.0
C2399 C 0.63273 0.60172 0.43009 0.0
N2400 N 0.5847 0.52687 0.38051 0.0
N2401 N 0.62756 0.62474 0.48311 0.0
H2402 H 0.66328 0.6315 0.40574 0.0
H2403 H 0.66864 0.64416 0.44689 0.0
H2404 H 0.61915 0.62423 0.50477 0.0
H2405 H 0.63875 0.64731 0.48002 0.0
H2406 H 0.56606 0.5075 0.3807 0.0
H2407 H 0.59043 0.52874 0.35777 0.0
H2408 H 0.57023 0.49546 0.42592 0.0
H2409 H 0.57072 0.5112 0.46548 0.0
C2410 C 0.32149 0.92498 0.12267 0.0
C2411 C 0.34423 0.92982 0.10213 0.0
C2412 C 0.38046 0.91304 0.13894 0.0
C2413 C 0.35743 0.90741 0.15908 0.0
N2414 N 0.30443 0.90272 0.16837 0.0
N2415 N 0.39229 0.92269 0.08667 0.0
C2416 C 0.32734 0.91158 0.15029 0.0
C2417 C 0.37286 0.92214 0.10909 0.0
N2418 N 0.29517 0.93483 0.11675 0.0
N2419 N 0.40975 0.91037 0.14874 0.0
H2420 H 0.38709 0.92868 0.06426 0.0
H2421 H 0.4121 0.91456 0.08895 0.0
H2422 H 0.41579 0.90261 0.16997 0.0
H2423 H 0.42866 0.9176 0.13693 0.0
H2424 H 0.27952 0.93544 0.1328 0.0
H2425 H 0.28991 0.94455 0.09662 0.0
H2426 H 0.28109 0.90181 0.16132 0.0
H2427 H 0.30819 0.89405 0.18956 0.0
C2428 C 0.95741 0.56421 0.95424 0.0
C2429 C 0.96808 0.58326 0.93185 0.0
C2430 C 1.01854 0.60559 0.96677 0.0
C2431 C 1.00958 0.58256 0.98623 0.0
N2432 N 0.9722 0.53601 0.99501 0.0
N2433 N 1.00877 0.62135 0.91514 0.0
C2434 C 0.97934 0.56095 0.97927 0.0
C2435 C 0.99865 0.60393 0.93767 0.0
N2436 N 0.92634 0.54904 0.95141 0.0
N2437 N 0.04536 0.62949 0.97657 0.0
H2438 H 0.9941 0.62161 0.89429 0.0
H2439 H 0.03195 0.6342 0.91638 0.0
H2440 H 0.06006 0.6318 0.99817 0.0
H2441 H 0.05154 0.64852 0.96477 0.0
H2442 H 0.91688 0.53714 0.96886 0.0
H2443 H 0.90959 0.55101 0.93316 0.0
H2444 H 0.95154 0.51793 0.98846 0.0
H2445 H 0.9882 0.53143 0.01226 0.0
C2446 C 0.27455 0.27926 0.65609 0.0
C2447 C 0.30192 0.28875 0.64196 0.0
C2448 C 0.33048 0.31915 0.69401 0.0
C2449 C 0.30446 0.30648 0.70885 0.0
N2450 N 0.25235 0.27271 0.70481 0.0
N2451 N 0.35658 0.31628 0.64755 0.0
C2452 C 0.27649 0.28636 0.69003 0.0
C2453 C 0.33005 0.30836 0.66098 0.0
N2454 N 0.24675 0.26309 0.63715 0.0
N2455 N 0.35525 0.34234 0.71134 0.0
H2456 H 0.35671 0.31072 0.62308 0.0
H2457 H 0.37875 0.32691 0.6608 0.0
H2458 H 0.35588 0.35128 0.73524 0.0
H2459 H 0.3737 0.35478 0.70146 0.0
H2460 H 0.22535 0.2584 0.64534 0.0
H2461 H 0.24454 0.25613 0.61254 0.0
H2462 H 0.23286 0.25482 0.6932 0.0
H2463 H 0.25267 0.27782 0.7294 0.0
C2464 C 0.59318 0.55381 0.20125 0.0
C2465 C 0.60896 0.58305 0.22093 0.0
C2466 C 0.60588 0.60925 0.17376 0.0
C2467 C 0.58913 0.58014 0.15431 0.0
N2468 N 0.56031 0.5262 0.15115 0.0
N2469 N 0.6241 0.63936 0.2274 0.0
C2470 C 0.58076 0.55289 0.16862 0.0
C2471 C 0.61338 0.61101 0.20758 0.0
N2472 N 0.59157 0.52667 0.21309 0.0
N2473 N 0.61604 0.63493 0.1598 0.0
H2474 H 0.62932 0.64151 0.25221 0.0
H2475 H 0.62495 0.6606 0.21968 0.0
H2476 H 0.61084 0.6347 0.13529 0.0
H2477 H 0.63151 0.65584 0.17208 0.0
H2478 H 0.58362 0.5046 0.19893 0.0
H2479 H 0.60052 0.5261 0.23662 0.0
H2480 H 0.55082 0.50646 0.16089 0.0
H2481 H 0.55029 0.52492 0.12755 0.0
C2482 C 0.3389 0.89142 0.94353 0.0
C2483 C 0.31732 0.9097 0.94272 0.0
C2484 C 0.2885 0.87802 0.89203 0.0
C2485 C 0.31121 0.86098 0.89187 0.0
N2486 N 0.36161 0.85576 0.91344 0.0
N2487 N 0.27518 0.92467 0.91424 0.0
C2488 C 0.3375 0.86893 0.91645 0.0
C2489 C 0.29314 0.90429 0.91636 0.0
N2490 N 0.35997 0.89468 0.97065 0.0
N2491 N 0.26187 0.8683 0.86981 0.0
H2492 H 0.27777 0.94394 0.93199 0.0
H2493 H 0.25952 0.92397 0.89386 0.0
H2494 H 0.25783 0.84932 0.85151 0.0
H2495 H 0.24288 0.87759 0.87081 0.0
H2496 H 0.37385 0.87955 0.97379 0.0
H2497 H 0.36175 0.91081 0.99123 0.0
H2498 H 0.38292 0.86331 0.92889 0.0
H2499 H 0.36156 0.83932 0.89374 0.0
C2500 C 0.9606 0.56143 0.74707 0.0
C2501 C 0.95854 0.54232 0.77105 0.0
C2502 C 0.98628 0.5094 0.74284 0.0
C2503 C 0.98544 0.52661 0.71742 0.0
N2504 N 0.96852 0.56623 0.6927 0.0
N2505 N 0.96817 0.49769 0.79223 0.0
C2506 C 0.97192 0.55205 0.71889 0.0
C2507 C 0.97104 0.51614 0.76907 0.0
N2508 N 0.95167 0.58847 0.75117 0.0
N2509 N 1.00243 0.48728 0.74221 0.0
H2510 H 0.95972 0.5034 0.81327 0.0
H2511 H 0.97296 0.47606 0.79016 0.0
H2512 H 1.01362 0.48164 0.72314 0.0
H2513 H 1.00676 0.47605 0.76139 0.0
H2514 H 0.95595 0.6052 0.73631 0.0
H2515 H 0.94211 0.59556 0.77092 0.0
H2516 H 0.95556 0.58235 0.69089 0.0
H2517 H 0.97638 0.56003 0.67144 0.0
C2518 C 0.29745 0.299 0.45125 0.0
C2519 C 0.30974 0.2748 0.46081 0.0
C2520 C 0.32896 0.26805 0.40921 0.0
C2521 C 0.31867 0.29377 0.40064 0.0
N2522 N 0.29597 0.33611 0.415 0.0
N2523 N 0.34184 0.23982 0.4514 0.0
C2524 C 0.30395 0.31005 0.42223 0.0
C2525 C 0.32663 0.26016 0.44037 0.0
N2526 N 0.27804 0.31026 0.46903 0.0
N2527 N 0.341 0.25109 0.38756 0.0
H2528 H 0.34136 0.23401 0.47422 0.0
H2529 H 0.35724 0.23082 0.43922 0.0
H2530 H 0.34492 0.25725 0.36541 0.0
H2531 H 0.34532 0.22984 0.39064 0.0
H2532 H 0.26519 0.3251 0.46155 0.0
H2533 H 0.27255 0.30269 0.49022 0.0
H2534 H 0.28901 0.35131 0.43133 0.0
H2535 H 0.29794 0.34376 0.39317 0.0
C2536 C 0.38375 0.61288 0.5845 0.0
C2537 C 0.35241 0.6003 0.58877 0.0
C2538 C 0.35375 0.54749 0.56684 0.0
C2539 C 0.38524 0.55999 0.56314 0.0
N2540 N 0.43248 0.60293 0.57373 0.0
N2541 N 0.30937 0.5558 0.59055 0.0
C2542 C 0.401 0.59219 0.5738 0.0
C2543 C 0.33792 0.56758 0.58191 0.0
N2544 N 0.39639 0.64462 0.58881 0.0
N2545 N 0.33882 0.51668 0.55511 0.0
H2546 H 0.29737 0.56998 0.60197 0.0
H2547 H 0.29877 0.532 0.589 0.0
H2548 H 0.35014 0.50114 0.54483 0.0
H2549 H 0.31488 0.50688 0.55376 0.0
H2550 H 0.41768 0.65523 0.5822 0.0
H2551 H 0.38461 0.66066 0.59691 0.0
H2552 H 0.44594 0.62526 0.58468 0.0
H2553 H 0.44584 0.58881 0.56486 0.0
C2554 C 0.94508 0.96257 0.55608 0.0
C2555 C 0.92636 0.97057 0.57868 0.0
C2556 C 0.96258 0.02346 0.59382 0.0
C2557 C 0.98207 1.015 0.57242 0.0
N2558 N 0.99426 0.97558 0.53585 0.0
N2559 N 0.92082 1.00573 0.62398 0.0
C2560 C 0.97412 0.98419 0.55454 0.0
C2561 C 0.93609 1.00026 0.59889 0.0
N2562 N 0.93439 0.93512 0.53476 0.0
N2563 N 0.96927 0.05368 0.60926 0.0
H2564 H 0.90208 0.98886 0.62914 0.0
H2565 H 0.92856 0.02563 0.64158 0.0
H2566 H 0.98922 0.07104 0.60745 0.0
H2567 H 0.95402 0.06215 0.62217 0.0
H2568 H 0.94473 0.92996 0.51493 0.0
H2569 H 0.91384 0.91807 0.53533 0.0
H2570 H 0.99211 0.95248 0.52597 0.0
H2571 H 1.01427 0.9913 0.5315 0.0
C2572 C 0.94124 0.14024 0.35053 0.0
C2573 C 0.93886 0.12593 0.3182 0.0
C2574 C 0.89862 0.15137 0.30131 0.0
C2575 C 0.90169 0.16626 0.33342 0.0
N2576 N 0.92898 0.17958 0.38767 0.0
N2577 N 0.91994 0.12209 0.26216 0.0
C2578 C 0.9241 0.16226 0.35772 0.0
C2579 C 0.91885 0.13274 0.29339 0.0
N2580 N 0.95836 0.13143 0.37458 0.0
N2581 N 0.87588 0.15451 0.27855 0.0
H2582 H 0.9345 0.10841 0.25554 0.0
H2583 H 0.90852 0.12886 0.24276 0.0
H2584 H 0.8615 0.16905 0.2831 0.0
H2585 H 0.86984 0.14135 0.25562 0.0
H2586 H 0.95799 0.13808 0.39878 0.0
H2587 H 0.97137 0.11553 0.3706 0.0
H2588 H 0.94709 0.18022 0.40568 0.0
H2589 H 0.91612 0.19517 0.39406 0.0
C2590 C 0.73326 0.15643 0.10348 0.0
C2591 C 0.74927 0.14849 0.07837 0.0
C2592 C 0.7033 0.10564 0.05356 0.0
C2593 C 0.68581 0.11718 0.07541 0.0
N2594 N 0.68315 0.15628 0.11904 0.0
N2595 N 0.74892 0.11751 0.02751 0.0
C2596 C 0.70052 0.14309 0.1001 0.0
C2597 C 0.7343 0.12337 0.05299 0.0
N2598 N 0.74945 0.17625 0.13081 0.0
N2599 N 0.69042 0.07748 0.03379 0.0
H2600 H 0.77154 0.13019 0.026 0.0
H2601 H 0.73769 0.10181 1.00669 0.0
H2602 H 0.66802 0.06348 0.03435 0.0
H2603 H 0.703 0.06655 0.01932 0.0
H2604 H 0.73941 0.18045 0.15112 0.0
H2605 H 0.77367 0.18592 0.13442 0.0
H2606 H 0.69244 0.17734 0.13491 0.0
H2607 H 0.65893 0.14787 0.11705 0.0
C2608 C 0.30503 0.49975 0.2636 0.0
C2609 C 0.31602 0.53149 0.26065 0.0
C2610 C 0.37004 0.52981 0.27575 0.0
C2611 C 0.35828 0.5005 0.28512 0.0
N2612 N 0.31392 0.45868 0.29131 0.0
N2613 N 0.35904 0.57764 0.26365 0.0
C2614 C 0.32561 0.48544 0.27948 0.0
C2615 C 0.34864 0.54669 0.26587 0.0
N2616 N 0.27466 0.48354 0.25156 0.0
N2617 N 0.40152 0.54154 0.27686 0.0
H2618 H 0.34421 0.59065 0.25598 0.0
H2619 H 0.3822 0.59089 0.27097 0.0
H2620 H 0.41749 0.52959 0.28446 0.0
H2621 H 0.41147 0.56156 0.26776 0.0
H2622 H 0.26583 0.45954 0.25088 0.0
H2623 H 0.25926 0.49362 0.23924 0.0
H2624 H 0.29013 0.44935 0.29152 0.0
H2625 H 0.32785 0.44677 0.30289 0.0
C2626 C 0.24365 0.45853 0.07722 0.0
C2627 C 0.26581 0.45615 0.05661 0.0
C2628 C 0.24661 0.49046 0.02377 0.0
C2629 C 0.2243 0.49275 0.04423 0.0
N2630 N 0.19808 0.47598 0.08756 0.0
N2631 N 0.28476 0.46441 1.00712 0.0
C2632 C 0.22166 0.47571 0.07004 0.0
C2633 C 0.26621 0.47056 0.02895 0.0
N2634 N 0.24458 0.44545 0.10436 0.0
N2635 N 0.2495 0.50793 0.99978 0.0
H2636 H 0.29964 0.45021 0.01025 0.0
H2637 H 0.28369 0.47118 0.98473 0.0
H2638 H 0.23443 0.52141 0.99404 0.0
H2639 H 0.26781 0.51057 0.98662 0.0
H2640 H 0.2317 0.44921 0.12245 0.0
H2641 H 0.25967 0.43189 0.10966 0.0
H2642 H 0.19266 0.46161 0.10449 0.0
H2643 H 0.18244 0.48936 0.08387 0.0
C2644 C 0.92614 0.94532 0.31839 0.0
C2645 C 0.91824 0.96484 0.29698 0.0
C2646 C 0.86619 0.9274 0.27923 0.0
C2647 C 0.87314 0.90949 0.30269 0.0
N2648 N 0.90782 0.90321 0.34761 0.0
N2649 N 0.88046 0.97587 0.25814 0.0
C2650 C 0.90268 0.91885 0.32295 0.0
C2651 C 0.88811 0.95631 0.27781 0.0
N2652 N 0.95603 0.952 0.33446 0.0
N2653 N 0.83932 0.91603 0.25735 0.0
H2654 H 0.89664 0.99573 0.25411 0.0
H2655 H 0.85779 0.97323 0.24682 0.0
H2656 H 0.82268 0.89509 0.25779 0.0
H2657 H 0.83446 0.92599 0.23734 0.0
H2658 H 0.96418 0.93661 0.34717 0.0
H2659 H 0.97364 0.97197 0.33344 0.0
H2660 H 0.9272 0.91106 0.36568 0.0
H2661 H 0.89139 0.88363 0.35175 0.0
C2662 C 0.81513 0.18021 0.75034 0.0
C2663 C 0.7862 0.1681 0.72989 0.0
C2664 C 0.78496 0.22096 0.72338 0.0
C2665 C 0.80808 0.23242 0.7511 0.0
N2666 N 0.84573 0.22292 0.7915 0.0
N2667 N 0.74609 0.1754 0.69176 0.0
C2668 C 0.82419 0.21229 0.76419 0.0
C2669 C 0.77246 0.18813 0.71397 0.0
N2670 N 0.83262 0.16058 0.75785 0.0
N2671 N 0.7747 0.24147 0.70684 0.0
H2672 H 0.73756 0.15119 0.68427 0.0
H2673 H 0.73248 0.18842 0.68163 0.0
H2674 H 0.78402 0.26568 0.71337 0.0
H2675 H 0.75909 0.23464 0.68539 0.0
H2676 H 0.85492 0.1683 0.77148 0.0
H2677 H 0.82596 0.13708 0.7471 0.0
H2678 H 0.85575 0.20834 0.80372 0.0
H2679 H 0.85163 0.24589 0.80347 0.0
loop_
_geom_bond_atom_site_label_1
_geom_bond_atom_site_label_2
_geom_bond_distance
_geom_bond_site_symmetry_2
_ccdc_geom_bond_type
In0 O1 2.294 . S
In0 O2 2.326 . S
In0 O6 2.266 . S
In0 O7 2.326 1_455 S
In0 O8 2.266 . S
In0 O9 2.326 . S
In0 O11 2.294 . S
In0 O12 2.326 . S
O1 In0 2.294 . S
O1 C10 1.240 . S
O2 In0 2.326 . S
O2 C10 1.252 . S
C3 O6 1.252 1_655 S
C3 O7 1.260 . S
C4 O11 1.240 . S
C4 O12 1.252 . S
C5 O8 1.252 . S
C5 O9 1.260 . S
O6 In0 2.266 . S
O6 C3 1.252 1_455 S
O7 In0 2.326 1_655 S
O7 C3 1.260 . S
O8 In0 2.266 . S
O8 C5 1.252 . S
O9 In0 2.326 . S
O9 C5 1.260 . S
C10 O1 1.240 . S
C10 O2 1.252 . S
O11 In0 2.294 . S
O11 C4 1.240 . S
O12 In0 2.326 . S
O12 C4 1.252 . S
In13 O14 2.294 . S
In13 O15 2.326 . S
In13 O19 2.266 . S
In13 O20 2.326 . S
In13 O21 2.266 . S
In13 O22 2.326 1_455 S
In13 O24 2.294 . S
In13 O25 2.326 . S
O14 In13 2.294 . S
O14 C23 1.240 . S
O15 In13 2.326 . S
O15 C23 1.252 . S
C16 O19 1.252 . S
C16 O20 1.260 . S
C17 O24 1.240 . S
C17 O25 1.252 . S
C18 O21 1.252 1_655 S
C18 O22 1.260 . S
O19 In13 2.266 . S
O19 C16 1.252 . S
O20 In13 2.326 . S
O20 C16 1.260 . S
O21 In13 2.266 . S
O21 C18 1.252 1_455 S
O22 In13 2.326 1_655 S
O22 C18 1.260 . S
C23 O14 1.240 . S
C23 O15 1.252 . S
O24 In13 2.294 . S
O24 C17 1.240 . S
O25 In13 2.326 . S
O25 C17 1.252 . S
In26 O27 2.294 . S
In26 O28 2.326 . S
In26 O32 2.266 . S
In26 O33 2.326 . S
In26 O34 2.266 . S
In26 O35 2.326 . S
In26 O37 2.294 . S
In26 O38 2.326 . S
O27 In26 2.294 . S
O27 C36 1.240 . S
O28 In26 2.326 . S
O28 C36 1.252 . S
C29 O32 1.252 . S
C29 O33 1.260 . S
C30 O37 1.240 . S
C30 O38 1.252 . S
C31 O34 1.252 . S
C31 O35 1.260 . S
O32 In26 2.266 . S
O32 C29 1.252 . S
O33 In26 2.326 . S
O33 C29 1.260 . S
O34 In26 2.266 . S
O34 C31 1.252 . S
O35 In26 2.326 . S
O35 C31 1.260 . S
C36 O27 1.240 . S
C36 O28 1.252 . S
O37 In26 2.294 . S
O37 C30 1.240 . S
O38 In26 2.326 . S
O38 C30 1.252 . S
In39 O40 2.294 . S
In39 O41 2.326 . S
In39 O45 2.266 . S
In39 O46 2.326 . S
In39 O47 2.266 . S
In39 O48 2.326 . S
In39 O50 2.294 . S
In39 O51 2.326 . S
O40 In39 2.294 . S
O40 C49 1.240 . S
O41 In39 2.326 . S
O41 C49 1.252 . S
C42 O45 1.252 . S
C42 O46 1.260 . S
C43 O50 1.240 . S
C43 O51 1.252 . S
C44 O47 1.252 . S
C44 O48 1.260 . S
O45 In39 2.266 . S
O45 C42 1.252 . S
O46 In39 2.326 . S
O46 C42 1.260 . S
O47 In39 2.266 . S
O47 C44 1.252 . S
O48 In39 2.326 . S
O48 C44 1.260 . S
C49 O40 1.240 . S
C49 O41 1.252 . S
O50 In39 2.294 . S
O50 C43 1.240 . S
O51 In39 2.326 . S
O51 C43 1.252 . S
In52 O53 2.294 . S
In52 O54 2.326 . S
In52 O58 2.266 . S
In52 O59 2.326 . S
In52 O60 2.266 . S
In52 O61 2.326 . S
In52 O63 2.294 . S
In52 O64 2.326 . S
O53 In52 2.294 . S
O53 C62 1.240 . S
O54 In52 2.326 . S
O54 C62 1.252 . S
C55 O58 1.252 . S
C55 O59 1.260 . S
C56 O63 1.240 . S
C56 O64 1.252 . S
C57 O60 1.252 . S
C57 O61 1.260 . S
O58 In52 2.266 . S
O58 C55 1.252 . S
O59 In52 2.326 . S
O59 C55 1.260 . S
O60 In52 2.266 . S
O60 C57 1.252 . S
O61 In52 2.326 . S
O61 C57 1.260 . S
C62 O53 1.240 . S
C62 O54 1.252 . S
O63 In52 2.294 . S
O63 C56 1.240 . S
O64 In52 2.326 . S
O64 C56 1.252 . S
In65 O66 2.294 . S
In65 O67 2.326 . S
In65 O71 2.266 . S
In65 O72 2.326 . S
In65 O73 2.266 . S
In65 O74 2.326 . S
In65 O76 2.294 . S
In65 O77 2.326 . S
O66 In65 2.294 . S
O66 C75 1.240 . S
O67 In65 2.326 . S
O67 C75 1.252 . S
C68 O71 1.252 . S
C68 O72 1.260 . S
C69 O76 1.240 . S
C69 O77 1.252 . S
C70 O73 1.252 . S
C70 O74 1.260 . S
O71 In65 2.266 . S
O71 C68 1.252 . S
O72 In65 2.326 . S
O72 C68 1.260 . S
O73 In65 2.266 . S
O73 C70 1.252 . S
O74 In65 2.326 . S
O74 C70 1.260 . S
C75 O66 1.240 . S
C75 O67 1.252 . S
O76 In65 2.294 . S
O76 C69 1.240 . S
O77 In65 2.326 . S
O77 C69 1.252 . S
In78 O79 2.294 . S
In78 O80 2.326 . S
In78 O84 2.266 . S
In78 O85 2.326 . S
In78 O86 2.266 . S
In78 O87 2.326 . S
In78 O89 2.294 . S
In78 O90 2.326 . S
O79 In78 2.294 . S
O79 C88 1.240 . S
O80 In78 2.326 . S
O80 C88 1.252 . S
C81 O84 1.252 . S
C81 O85 1.260 . S
C82 O89 1.240 . S
C82 O90 1.252 . S
C83 O86 1.252 . S
C83 O87 1.260 . S
O84 In78 2.266 . S
O84 C81 1.252 . S
O85 In78 2.326 . S
O85 C81 1.260 . S
O86 In78 2.266 . S
O86 C83 1.252 . S
O87 In78 2.326 . S
O87 C83 1.260 . S
C88 O79 1.240 . S
C88 O80 1.252 . S
O89 In78 2.294 . S
O89 C82 1.240 . S
O90 In78 2.326 . S
O90 C82 1.252 . S
In91 O92 2.294 1_556 S
In91 O93 2.326 1_455 S
In91 O97 2.266 1_556 S
In91 O98 2.326 . S
In91 O99 2.266 1_455 S
In91 O100 2.326 1_455 S
In91 O102 2.294 . S
In91 O103 2.326 . S
O92 In91 2.294 1_554 S
O92 C101 1.240 . S
O93 In91 2.326 1_655 S
O93 C101 1.252 1_656 S
C94 O97 1.252 . S
C94 O98 1.260 1_554 S
C95 O102 1.240 . S
C95 O103 1.252 . S
C96 O99 1.252 . S
C96 O100 1.260 . S
O97 In91 2.266 1_554 S
O97 C94 1.252 . S
O98 In91 2.326 . S
O98 C94 1.260 1_556 S
O99 In91 2.266 1_655 S
O99 C96 1.252 . S
O100 In91 2.326 1_655 S
O100 C96 1.260 . S
C101 O92 1.240 . S
C101 O93 1.252 1_454 S
O102 In91 2.294 . S
O102 C95 1.240 . S
O103 In91 2.326 . S
O103 C95 1.252 . S
In104 O105 2.294 . S
In104 O106 2.327 1_545 S
In104 O110 2.265 . S
In104 O111 2.327 . S
In104 O112 2.263 1_545 S
In104 O113 2.319 1_545 S
In104 O115 2.298 . S
In104 O116 2.332 . S
O105 In104 2.294 . S
O105 C114 1.240 . S
O106 In104 2.327 1_565 S
O106 C114 1.252 1_565 S
C107 O110 1.252 . S
C107 O111 1.256 . S
C108 O115 1.240 . S
C108 O116 1.252 . S
C109 O112 1.252 . S
C109 O113 1.260 . S
O110 In104 2.265 . S
O110 C107 1.252 . S
O111 In104 2.327 . S
O111 C107 1.256 . S
O112 In104 2.263 1_565 S
O112 C109 1.252 . S
O113 In104 2.319 1_565 S
O113 C109 1.260 . S
C114 O105 1.240 . S
C114 O106 1.252 1_545 S
O115 In104 2.298 . S
O115 C108 1.240 . S
O116 In104 2.332 . S
O116 C108 1.252 . S
In117 O118 2.294 . S
In117 O119 2.326 . S
In117 O123 2.266 . S
In117 O124 2.326 . S
In117 O125 2.266 . S
In117 O126 2.326 . S
In117 O128 2.294 . S
In117 O129 2.326 . S
O118 In117 2.294 . S
O118 C127 1.240 . S
O119 In117 2.326 . S
O119 C127 1.252 . S
C120 O123 1.252 . S
C120 O124 1.260 . S
C121 O128 1.240 . S
C121 O129 1.252 . S
C122 O125 1.252 . S
C122 O126 1.260 . S
O123 In117 2.266 . S
O123 C120 1.252 . S
O124 In117 2.326 . S
O124 C120 1.260 . S
O125 In117 2.266 . S
O125 C122 1.252 . S
O126 In117 2.326 . S
O126 C122 1.260 . S
C127 O118 1.240 . S
C127 O119 1.252 . S
O128 In117 2.294 . S
O128 C121 1.240 . S
O129 In117 2.326 . S
O129 C121 1.252 . S
In130 O131 2.294 . S
In130 O132 2.326 . S
In130 O136 2.266 . S
In130 O137 2.326 . S
In130 O138 2.266 . S
In130 O139 2.326 . S
In130 O141 2.294 . S
In130 O142 2.326 . S
O131 In130 2.294 . S
O131 C140 1.240 . S
O132 In130 2.326 . S
O132 C140 1.252 . S
C133 O136 1.252 . S
C133 O137 1.260 . S
C134 O141 1.240 . S
C134 O142 1.252 . S
C135 O138 1.252 . S
C135 O139 1.260 . S
O136 In130 2.266 . S
O136 C133 1.252 . S
O137 In130 2.326 . S
O137 C133 1.260 . S
O138 In130 2.266 . S
O138 C135 1.252 . S
O139 In130 2.326 . S
O139 C135 1.260 . S
C140 O131 1.240 . S
C140 O132 1.252 . S
O141 In130 2.294 . S
O141 C134 1.240 . S
O142 In130 2.326 . S
O142 C134 1.252 . S
In143 O144 2.296 . S
In143 O145 2.329 . S
In143 O149 2.264 1_554 S
In143 O150 2.322 1_554 S
In143 O151 2.268 . S
In143 O152 2.327 . S
In143 O154 2.294 . S
In143 O155 2.327 . S
O144 In143 2.296 . S
O144 C153 1.240 . S
O145 In143 2.329 . S
O145 C153 1.252 . S
C146 O149 1.252 . S
C146 O150 1.260 . S
C147 O154 1.240 . S
C147 O155 1.252 . S
C148 O151 1.252 . S
C148 O152 1.263 . S
O149 In143 2.264 1_556 S
O149 C146 1.252 . S
O150 In143 2.322 1_556 S
O150 C146 1.260 . S
O151 In143 2.268 . S
O151 C148 1.252 . S
O152 In143 2.327 . S
O152 C148 1.263 . S
C153 O144 1.240 . S
C153 O145 1.252 . S
O154 In143 2.294 . S
O154 C147 1.240 . S
O155 In143 2.327 . S
O155 C147 1.252 . S
In156 O157 2.294 . S
In156 O158 2.326 . S
In156 O162 2.266 . S
In156 O163 2.348 . S
In156 O164 2.266 . S
In156 O165 2.326 . S
In156 O167 2.294 . S
In156 O168 2.326 . S
O157 In156 2.294 . S
O157 C166 1.240 . S
O158 In156 2.326 . S
O158 C166 1.252 . S
C159 O162 1.252 1_556 S
C159 O163 1.259 1_556 S
C160 O167 1.240 . S
C160 O168 1.252 . S
C161 O164 1.252 . S
C161 O165 1.260 . S
O162 In156 2.266 . S
O162 C159 1.252 1_554 S
O163 In156 2.348 . S
O163 C159 1.259 1_554 S
O164 In156 2.266 . S
O164 C161 1.252 . S
O165 In156 2.326 . S
O165 C161 1.260 . S
C166 O157 1.240 . S
C166 O158 1.252 . S
O167 In156 2.294 . S
O167 C160 1.240 . S
O168 In156 2.326 . S
O168 C160 1.252 . S
In169 O170 2.294 . S
In169 O171 2.326 . S
In169 O175 2.266 . S
In169 O176 2.326 . S
In169 O177 2.266 . S
In169 O178 2.326 . S
In169 O180 2.294 . S
In169 O181 2.326 . S
O170 In169 2.294 . S
O170 C179 1.240 . S
O171 In169 2.326 . S
O171 C179 1.252 . S
C172 O175 1.252 . S
C172 O176 1.260 . S
C173 O180 1.240 . S
C173 O181 1.252 . S
C174 O177 1.252 . S
C174 O178 1.260 . S
O175 In169 2.266 . S
O175 C172 1.252 . S
O176 In169 2.326 . S
O176 C172 1.260 . S
O177 In169 2.266 . S
O177 C174 1.252 . S
O178 In169 2.326 . S
O178 C174 1.260 . S
C179 O170 1.240 . S
C179 O171 1.252 . S
O180 In169 2.294 . S
O180 C173 1.240 . S
O181 In169 2.326 . S
O181 C173 1.252 . S
In182 O183 2.294 . S
In182 O184 2.326 . S
In182 O188 2.266 . S
In182 O189 2.326 . S
In182 O190 2.266 . S
In182 O191 2.326 . S
In182 O193 2.294 . S
In182 O194 2.326 . S
O183 In182 2.294 . S
O183 C192 1.240 . S
O184 In182 2.326 . S
O184 C192 1.252 . S
C185 O188 1.252 . S
C185 O189 1.260 . S
C186 O193 1.240 . S
C186 O194 1.252 . S
C187 O190 1.252 . S
C187 O191 1.260 . S
O188 In182 2.266 . S
O188 C185 1.252 . S
O189 In182 2.326 . S
O189 C185 1.260 . S
O190 In182 2.266 . S
O190 C187 1.252 . S
O191 In182 2.326 . S
O191 C187 1.260 . S
C192 O183 1.240 . S
C192 O184 1.252 . S
O193 In182 2.294 . S
O193 C186 1.240 . S
O194 In182 2.326 . S
O194 C186 1.252 . S
In195 O196 2.294 . S
In195 O197 2.326 . S
In195 O201 2.266 . S
In195 O202 2.326 . S
In195 O203 2.266 . S
In195 O204 2.326 . S
In195 O206 2.294 . S
In195 O207 2.326 . S
O196 In195 2.294 . S
O196 C205 1.240 . S
O197 In195 2.326 . S
O197 C205 1.252 . S
C198 O201 1.252 . S
C198 O202 1.260 . S
C199 O206 1.240 . S
C199 O207 1.252 . S
C200 O203 1.252 . S
C200 O204 1.260 . S
O201 In195 2.266 . S
O201 C198 1.252 . S
O202 In195 2.326 . S
O202 C198 1.260 . S
O203 In195 2.266 . S
O203 C200 1.252 . S
O204 In195 2.326 . S
O204 C200 1.260 . S
C205 O196 1.240 . S
C205 O197 1.252 . S
O206 In195 2.294 . S
O206 C199 1.240 . S
O207 In195 2.326 . S
O207 C199 1.252 . S
In208 O209 2.294 . S
In208 O210 2.326 . S
In208 O214 2.266 . S
In208 O215 2.326 . S
In208 O216 2.266 1_545 S
In208 O217 2.326 1_545 S
In208 O219 2.294 . S
In208 O220 2.326 . S
O209 In208 2.294 . S
O209 C218 1.240 . S
O210 In208 2.326 . S
O210 C218 1.252 . S
C211 O214 1.252 . S
C211 O215 1.260 . S
C212 O219 1.240 . S
C212 O220 1.252 . S
C213 O216 1.252 . S
C213 O217 1.260 . S
O214 In208 2.266 . S
O214 C211 1.252 . S
O215 In208 2.326 . S
O215 C211 1.260 . S
O216 In208 2.266 1_565 S
O216 C213 1.252 . S
O217 In208 2.326 1_565 S
O217 C213 1.260 . S
C218 O209 1.240 . S
C218 O210 1.252 . S
O219 In208 2.294 . S
O219 C212 1.240 . S
O220 In208 2.326 . S
O220 C212 1.252 . S
In221 O222 2.294 . S
In221 O223 2.326 . S
In221 O227 2.266 . S
In221 O228 2.326 . S
In221 O229 2.266 . S
In221 O230 2.326 . S
In221 O232 2.294 . S
In221 O233 2.326 . S
O222 In221 2.294 . S
O222 C231 1.240 . S
O223 In221 2.326 . S
O223 C231 1.252 . S
C224 O227 1.252 . S
C224 O228 1.260 . S
C225 O232 1.240 . S
C225 O233 1.252 . S
C226 O229 1.252 . S
C226 O230 1.260 . S
O227 In221 2.266 . S
O227 C224 1.252 . S
O228 In221 2.326 . S
O228 C224 1.260 . S
O229 In221 2.266 . S
O229 C226 1.252 . S
O230 In221 2.326 . S
O230 C226 1.260 . S
C231 O222 1.240 . S
C231 O223 1.252 . S
O232 In221 2.294 . S
O232 C225 1.240 . S
O233 In221 2.326 . S
O233 C225 1.252 . S
In234 O235 2.294 . S
In234 O236 2.326 . S
In234 O240 2.266 . S
In234 O241 2.326 . S
In234 O242 2.266 . S
In234 O243 2.326 . S
In234 O245 2.294 . S
In234 O246 2.326 . S
O235 In234 2.294 . S
O235 C244 1.240 . S
O236 In234 2.326 . S
O236 C244 1.252 . S
C237 O240 1.252 . S
C237 O241 1.260 . S
C238 O245 1.240 . S
C238 O246 1.252 . S
C239 O242 1.252 . S
C239 O243 1.260 . S
O240 In234 2.266 . S
O240 C237 1.252 . S
O241 In234 2.326 . S
O241 C237 1.260 . S
O242 In234 2.266 . S
O242 C239 1.252 . S
O243 In234 2.326 . S
O243 C239 1.260 . S
C244 O235 1.240 . S
C244 O236 1.252 . S
O245 In234 2.294 . S
O245 C238 1.240 . S
O246 In234 2.326 . S
O246 C238 1.252 . S
In247 O248 2.294 . S
In247 O249 2.326 . S
In247 O253 2.266 . S
In247 O254 2.326 . S
In247 O255 2.266 . S
In247 O256 2.326 . S
In247 O258 2.294 . S
In247 O259 2.326 . S
O248 In247 2.294 . S
O248 C257 1.240 . S
O249 In247 2.326 . S
O249 C257 1.252 . S
C250 O253 1.252 . S
C250 O254 1.260 . S
C251 O258 1.240 . S
C251 O259 1.252 . S
C252 O255 1.252 . S
C252 O256 1.260 . S
O253 In247 2.266 . S
O253 C250 1.252 . S
O254 In247 2.326 . S
O254 C250 1.260 . S
O255 In247 2.266 . S
O255 C252 1.252 . S
O256 In247 2.326 . S
O256 C252 1.260 . S
C257 O248 1.240 . S
C257 O249 1.252 . S
O258 In247 2.294 . S
O258 C251 1.240 . S
O259 In247 2.326 . S
O259 C251 1.252 . S
In260 O261 2.294 . S
In260 O262 2.326 . S
In260 O266 2.266 . S
In260 O267 2.326 . S
In260 O268 2.266 . S
In260 O269 2.326 1_554 S
In260 O271 2.294 . S
In260 O272 2.326 . S
O261 In260 2.294 . S
O261 C270 1.240 . S
O262 In260 2.326 . S
O262 C270 1.252 . S
C263 O266 1.252 . S
C263 O267 1.260 . S
C264 O271 1.240 . S
C264 O272 1.252 . S
C265 O268 1.252 1_556 S
C265 O269 1.260 . S
O266 In260 2.266 . S
O266 C263 1.252 . S
O267 In260 2.326 . S
O267 C263 1.260 . S
O268 In260 2.266 . S
O268 C265 1.252 1_554 S
O269 In260 2.326 1_556 S
O269 C265 1.260 . S
C270 O261 1.240 . S
C270 O262 1.252 . S
O271 In260 2.294 . S
O271 C264 1.240 . S
O272 In260 2.326 . S
O272 C264 1.252 . S
In273 O274 2.294 . S
In273 O275 2.326 . S
In273 O279 2.266 . S
In273 O280 2.326 . S
In273 O281 2.266 . S
In273 O282 2.326 . S
In273 O284 2.294 . S
In273 O285 2.326 . S
O274 In273 2.294 . S
O274 C283 1.240 . S
O275 In273 2.326 . S
O275 C283 1.252 . S
C276 O279 1.252 . S
C276 O280 1.260 . S
C277 O284 1.240 . S
C277 O285 1.252 . S
C278 O281 1.252 . S
C278 O282 1.260 . S
O279 In273 2.266 . S
O279 C276 1.252 . S
O280 In273 2.326 . S
O280 C276 1.260 . S
O281 In273 2.266 . S
O281 C278 1.252 . S
O282 In273 2.326 . S
O282 C278 1.260 . S
C283 O274 1.240 . S
C283 O275 1.252 . S
O284 In273 2.294 . S
O284 C277 1.240 . S
O285 In273 2.326 . S
O285 C277 1.252 . S
In286 O287 2.294 . S
In286 O288 2.326 . S
In286 O292 2.266 . S
In286 O293 2.326 . S
In286 O294 2.266 . S
In286 O295 2.326 . S
In286 O297 2.294 . S
In286 O298 2.326 . S
O287 In286 2.294 . S
O287 C296 1.240 . S
O288 In286 2.326 . S
O288 C296 1.252 . S
C289 O292 1.252 . S
C289 O293 1.260 . S
C290 O297 1.240 . S
C290 O298 1.252 . S
C291 O294 1.252 . S
C291 O295 1.260 . S
O292 In286 2.266 . S
O292 C289 1.252 . S
O293 In286 2.326 . S
O293 C289 1.260 . S
O294 In286 2.266 . S
O294 C291 1.252 . S
O295 In286 2.326 . S
O295 C291 1.260 . S
C296 O287 1.240 . S
C296 O288 1.252 . S
O297 In286 2.294 . S
O297 C290 1.240 . S
O298 In286 2.326 . S
O298 C290 1.252 . S
In299 O300 2.294 . S
In299 O301 2.326 . S
In299 O305 2.266 . S
In299 O306 2.326 . S
In299 O307 2.266 . S
In299 O308 2.326 . S
In299 O310 2.294 . S
In299 O311 2.326 . S
O300 In299 2.294 . S
O300 C309 1.240 . S
O301 In299 2.326 . S
O301 C309 1.252 . S
C302 O305 1.252 . S
C302 O306 1.260 . S
C303 O310 1.240 . S
C303 O311 1.252 . S
C304 O307 1.252 . S
C304 O308 1.260 . S
O305 In299 2.266 . S
O305 C302 1.252 . S
O306 In299 2.326 . S
O306 C302 1.260 . S
O307 In299 2.266 . S
O307 C304 1.252 . S
O308 In299 2.326 . S
O308 C304 1.260 . S
C309 O300 1.240 . S
C309 O301 1.252 . S
O310 In299 2.294 . S
O310 C303 1.240 . S
O311 In299 2.326 . S
O311 C303 1.252 . S
Dy312 O315 2.307 . S
Dy312 O317 2.395 . S
Dy312 O318 2.379 . S
Dy312 O320 2.339 . S
Dy312 O322 2.298 . S
Dy312 O326 2.275 . S
Dy312 C334 2.738 . S
Dy313 O316 2.298 . S
Dy313 O319 2.275 . S
Dy313 O321 2.307 . S
Dy313 O323 2.395 1_455 S
Dy313 O324 2.379 1_455 S
Dy313 O327 2.339 1_554 S
Dy313 C343 2.738 1_455 S
C314 O326 1.254 . S
C314 O327 1.257 1_554 S
O315 Dy312 2.307 . S
O315 C325 1.266 . S
O316 Dy313 2.298 . S
O316 C325 1.236 . S
O317 Dy312 2.395 . S
O317 C334 1.255 . S
O318 Dy312 2.379 . S
O318 C334 1.249 . S
O319 Dy313 2.275 . S
O319 C335 1.254 . S
O320 Dy312 2.339 . S
O320 C335 1.257 . S
O321 Dy313 2.307 . S
O321 C336 1.266 . S
O322 Dy312 2.298 . S
O322 C336 1.236 . S
O323 Dy313 2.395 1_655 S
O323 C343 1.255 . S
O324 Dy313 2.379 1_655 S
O324 C343 1.249 . S
C325 O315 1.266 . S
C325 O316 1.236 . S
O326 Dy312 2.275 . S
O326 C314 1.254 . S
O327 Dy313 2.339 1_556 S
O327 C314 1.257 1_556 S
C328 C331 1.344 . S
C328 C332 1.328 . S
C328 C334 1.516 . S
C329 C330 1.304 . S
C329 C333 1.323 . S
C330 C329 1.304 . S
C330 C331 1.371 . S
C330 H344 0.930 . S
C331 C328 1.344 . S
C331 C330 1.371 . S
C331 H345 0.931 . S
C332 C328 1.328 . S
C332 C333 1.433 . S
C332 H346 0.931 . S
C333 C329 1.323 . S
C333 C332 1.433 . S
C333 H347 0.933 . S
C334 Dy312 2.738 . S
C334 O317 1.255 . S
C334 O318 1.249 . S
C334 C328 1.516 . S
C335 O319 1.254 . S
C335 O320 1.257 . S
C336 O321 1.266 . S
C336 O322 1.236 . S
C337 C340 1.344 . S
C337 C341 1.328 . S
C337 C343 1.516 . S
C338 C339 1.304 . S
C338 C342 1.323 . S
C339 C338 1.304 . S
C339 C340 1.371 . S
C339 H348 0.930 . S
C340 C337 1.344 . S
C340 C339 1.371 . S
C340 H349 0.931 . S
C341 C337 1.328 . S
C341 C342 1.433 . S
C341 H350 0.931 1_554 S
C342 C338 1.323 . S
C342 C341 1.433 . S
C342 H351 0.933 1_554 S
C343 Dy313 2.738 1_655 S
C343 O323 1.255 . S
C343 O324 1.249 . S
C343 C337 1.516 . S
H344 C330 0.930 . S
H345 C331 0.931 . S
H346 C332 0.931 . S
H347 C333 0.933 . S
H348 C339 0.930 . S
H349 C340 0.931 . S
H350 C341 0.931 1_556 S
H351 C342 0.933 1_556 S
Dy352 O355 2.307 . S
Dy352 O357 2.395 . S
Dy352 O358 2.379 . S
Dy352 O360 2.339 . S
Dy352 O362 2.298 . S
Dy352 O366 2.275 . S
Dy352 C374 2.738 . S
Dy353 O356 2.298 . S
Dy353 O359 2.275 . S
Dy353 O361 2.307 . S
Dy353 O363 2.395 . S
Dy353 O364 2.379 . S
Dy353 O367 2.339 . S
Dy353 C383 2.738 . S
C354 O366 1.254 . S
C354 O367 1.257 . S
O355 Dy352 2.307 . S
O355 C365 1.266 . S
O356 Dy353 2.298 . S
O356 C365 1.236 . S
O357 Dy352 2.395 . S
O357 C374 1.255 . S
O358 Dy352 2.379 . S
O358 C374 1.249 . S
O359 Dy353 2.275 . S
O359 C375 1.254 . S
O360 Dy352 2.339 . S
O360 C375 1.257 . S
O361 Dy353 2.307 . S
O361 C376 1.266 . S
O362 Dy352 2.298 . S
O362 C376 1.236 . S
O363 Dy353 2.395 . S
O363 C383 1.255 . S
O364 Dy353 2.379 . S
O364 C383 1.249 . S
C365 O355 1.266 . S
C365 O356 1.236 . S
O366 Dy352 2.275 . S
O366 C354 1.254 . S
O367 Dy353 2.339 . S
O367 C354 1.257 . S
C368 C371 1.344 . S
C368 C372 1.328 . S
C368 C374 1.516 . S
C369 C370 1.304 . S
C369 C373 1.323 . S
C370 C369 1.304 . S
C370 C371 1.371 . S
C370 H384 0.930 . S
C371 C368 1.344 . S
C371 C370 1.371 . S
C371 H385 0.931 . S
C372 C368 1.328 . S
C372 C373 1.433 . S
C372 H386 0.931 . S
C373 C369 1.323 . S
C373 C372 1.433 . S
C373 H387 0.933 . S
C374 Dy352 2.738 . S
C374 O357 1.255 . S
C374 O358 1.249 . S
C374 C368 1.516 . S
C375 O359 1.254 . S
C375 O360 1.257 . S
C376 O361 1.266 . S
C376 O362 1.236 . S
C377 C380 1.344 . S
C377 C381 1.328 . S
C377 C383 1.516 . S
C378 C379 1.304 . S
C378 C382 1.323 . S
C379 C378 1.304 . S
C379 C380 1.371 . S
C379 H388 0.930 . S
C380 C377 1.344 . S
C380 C379 1.371 . S
C380 H389 0.931 . S
C381 C377 1.328 . S
C381 C382 1.433 . S
C381 H390 0.931 . S
C382 C378 1.323 . S
C382 C381 1.433 . S
C382 H391 0.933 . S
C383 Dy353 2.738 . S
C383 O363 1.255 . S
C383 O364 1.249 . S
C383 C377 1.516 . S
H384 C370 0.930 . S
H385 C371 0.931 . S
H386 C372 0.931 . S
H387 C373 0.933 . S
H388 C379 0.930 . S
H389 C380 0.931 . S
H390 C381 0.931 . S
H391 C382 0.933 . S
Dy392 O395 2.307 1_545 S
Dy392 O397 2.395 . S
Dy392 O398 2.379 . S
Dy392 O400 2.339 . S
Dy392 O402 2.298 . S
Dy392 O406 2.275 . S
Dy392 C414 2.738 . S
Dy393 O396 2.303 . S
Dy393 O399 2.275 . S
Dy393 O401 2.307 . S
Dy393 O403 2.395 . S
Dy393 O404 2.379 . S
Dy393 O407 2.339 . S
Dy393 C423 2.738 . S
C394 O406 1.254 . S
C394 O407 1.257 . S
O395 Dy392 2.307 1_565 S
O395 C405 1.267 . S
O396 Dy393 2.303 . S
O396 C405 1.234 1_545 S
O397 Dy392 2.395 . S
O397 C414 1.255 . S
O398 Dy392 2.379 . S
O398 C414 1.249 . S
O399 Dy393 2.275 . S
O399 C415 1.254 . S
O400 Dy392 2.339 . S
O400 C415 1.257 . S
O401 Dy393 2.307 . S
O401 C416 1.266 . S
O402 Dy392 2.298 . S
O402 C416 1.236 . S
O403 Dy393 2.395 . S
O403 C423 1.255 . S
O404 Dy393 2.379 . S
O404 C423 1.249 . S
C405 O395 1.267 . S
C405 O396 1.234 1_565 S
O406 Dy392 2.275 . S
O406 C394 1.254 . S
O407 Dy393 2.339 . S
O407 C394 1.257 . S
C408 C411 1.344 . S
C408 C412 1.328 . S
C408 C414 1.516 . S
C409 C410 1.304 . S
C409 C413 1.323 . S
C410 C409 1.304 . S
C410 C411 1.371 . S
C410 H424 0.930 . S
C411 C408 1.344 . S
C411 C410 1.371 . S
C411 H425 0.931 . S
C412 C408 1.328 . S
C412 C413 1.433 . S
C412 H426 0.931 . S
C413 C409 1.323 . S
C413 C412 1.433 . S
C413 H427 0.933 . S
C414 Dy392 2.738 . S
C414 O397 1.255 . S
C414 O398 1.249 . S
C414 C408 1.516 . S
C415 O399 1.254 . S
C415 O400 1.257 . S
C416 O401 1.266 . S
C416 O402 1.236 . S
C417 C420 1.344 1_545 S
C417 C421 1.328 1_545 S
C417 C423 1.515 . S
C418 C419 1.304 . S
C418 C422 1.323 . S
C419 C418 1.304 . S
C419 C420 1.371 . S
C419 H428 0.930 . S
C420 C417 1.344 1_565 S
C420 C419 1.371 . S
C420 H429 0.931 . S
C421 C417 1.328 1_565 S
C421 C422 1.433 . S
C421 H430 0.936 . S
C422 C418 1.323 . S
C422 C421 1.433 . S
C422 H431 0.933 . S
C423 Dy393 2.738 . S
C423 O403 1.255 . S
C423 O404 1.249 . S
C423 C417 1.515 . S
H424 C410 0.930 . S
H425 C411 0.931 . S
H426 C412 0.931 . S
H427 C413 0.933 . S
H428 C419 0.930 . S
H429 C420 0.931 . S
H430 C421 0.936 . S
H431 C422 0.933 . S
Dy432 O435 2.307 . S
Dy432 O437 2.395 . S
Dy432 O438 2.379 . S
Dy432 O440 2.339 . S
Dy432 O442 2.298 . S
Dy432 O446 2.275 . S
Dy432 C454 2.738 . S
Dy433 O436 2.298 . S
Dy433 O439 2.275 . S
Dy433 O441 2.307 . S
Dy433 O443 2.395 . S
Dy433 O444 2.379 . S
Dy433 O447 2.339 . S
Dy433 C463 2.738 . S
C434 O446 1.254 . S
C434 O447 1.257 . S
O435 Dy432 2.307 . S
O435 C445 1.266 . S
O436 Dy433 2.298 . S
O436 C445 1.236 . S
O437 Dy432 2.395 . S
O437 C454 1.255 . S
O438 Dy432 2.379 . S
O438 C454 1.249 . S
O439 Dy433 2.275 . S
O439 C455 1.254 . S
O440 Dy432 2.339 . S
O440 C455 1.257 . S
O441 Dy433 2.307 . S
O441 C456 1.266 . S
O442 Dy432 2.298 . S
O442 C456 1.236 . S
O443 Dy433 2.395 . S
O443 C463 1.255 . S
O444 Dy433 2.379 . S
O444 C463 1.249 . S
C445 O435 1.266 . S
C445 O436 1.236 . S
O446 Dy432 2.275 . S
O446 C434 1.254 . S
O447 Dy433 2.339 . S
O447 C434 1.257 . S
C448 C451 1.344 . S
C448 C452 1.328 . S
C448 C454 1.516 . S
C449 C450 1.304 . S
C449 C453 1.323 . S
C450 C449 1.304 . S
C450 C451 1.371 . S
C450 H464 0.930 . S
C451 C448 1.344 . S
C451 C450 1.371 . S
C451 H465 0.931 . S
C452 C448 1.328 . S
C452 C453 1.433 . S
C452 H466 0.931 . S
C453 C449 1.323 . S
C453 C452 1.433 . S
C453 H467 0.933 . S
C454 Dy432 2.738 . S
C454 O437 1.255 . S
C454 O438 1.249 . S
C454 C448 1.516 . S
C455 O439 1.254 . S
C455 O440 1.257 . S
C456 O441 1.266 . S
C456 O442 1.236 . S
C457 C460 1.344 . S
C457 C461 1.328 . S
C457 C463 1.516 . S
C458 C459 1.304 . S
C458 C462 1.323 . S
C459 C458 1.304 . S
C459 C460 1.371 . S
C459 H468 0.930 . S
C460 C457 1.344 . S
C460 C459 1.371 . S
C460 H469 0.931 . S
C461 C457 1.328 . S
C461 C462 1.433 . S
C461 H470 0.931 . S
C462 C458 1.323 . S
C462 C461 1.433 . S
C462 H471 0.933 . S
C463 Dy433 2.738 . S
C463 O443 1.255 . S
C463 O444 1.249 . S
C463 C457 1.516 . S
H464 C450 0.930 . S
H465 C451 0.931 . S
H466 C452 0.931 . S
H467 C453 0.933 . S
H468 C459 0.930 . S
H469 C460 0.931 . S
H470 C461 0.931 . S
H471 C462 0.933 . S
Dy472 O475 2.307 . S
Dy472 O477 2.395 1_545 S
Dy472 O478 2.379 1_545 S
Dy472 O480 2.339 . S
Dy472 O482 2.298 . S
Dy472 O486 2.275 . S
Dy472 C494 2.738 1_545 S
Dy473 O476 2.298 . S
Dy473 O479 2.275 . S
Dy473 O481 2.307 . S
Dy473 O483 2.395 . S
Dy473 O484 2.379 . S
Dy473 O487 2.339 1_455 S
Dy473 C503 2.738 . S
C474 O486 1.254 1_655 S
C474 O487 1.257 . S
O475 Dy472 2.307 . S
O475 C485 1.266 . S
O476 Dy473 2.298 . S
O476 C485 1.236 . S
O477 Dy472 2.395 1_565 S
O477 C494 1.255 . S
O478 Dy472 2.379 1_565 S
O478 C494 1.249 . S
O479 Dy473 2.275 . S
O479 C495 1.254 . S
O480 Dy472 2.339 . S
O480 C495 1.257 . S
O481 Dy473 2.307 . S
O481 C496 1.266 . S
O482 Dy472 2.298 . S
O482 C496 1.236 . S
O483 Dy473 2.395 . S
O483 C503 1.255 . S
O484 Dy473 2.379 . S
O484 C503 1.249 . S
C485 O475 1.266 . S
C485 O476 1.236 . S
O486 Dy472 2.275 . S
O486 C474 1.254 1_455 S
O487 Dy473 2.339 1_655 S
O487 C474 1.257 . S
C488 C491 1.344 . S
C488 C492 1.328 . S
C488 C494 1.516 . S
C489 C490 1.304 . S
C489 C493 1.323 . S
C490 C489 1.304 . S
C490 C491 1.371 . S
C490 H504 0.930 . S
C491 C488 1.344 . S
C491 C490 1.371 . S
C491 H505 0.931 . S
C492 C488 1.328 . S
C492 C493 1.433 . S
C492 H506 0.931 . S
C493 C489 1.323 . S
C493 C492 1.433 . S
C493 H507 0.933 . S
C494 Dy472 2.738 1_565 S
C494 O477 1.255 . S
C494 O478 1.249 . S
C494 C488 1.516 . S
C495 O479 1.254 . S
C495 O480 1.257 . S
C496 O481 1.266 . S
C496 O482 1.236 . S
C497 C500 1.344 . S
C497 C501 1.333 . S
C497 C503 1.516 . S
C498 C499 1.304 . S
C498 C502 1.323 1_455 S
C499 C498 1.304 . S
C499 C500 1.371 . S
C499 H508 0.930 . S
C500 C497 1.344 . S
C500 C499 1.371 . S
C500 H509 0.931 . S
C501 C497 1.333 . S
C501 C502 1.431 1_455 S
C501 H510 0.927 1_455 S
C502 C498 1.323 1_655 S
C502 C501 1.431 1_655 S
C502 H511 0.933 . S
C503 Dy473 2.738 . S
C503 O483 1.255 . S
C503 O484 1.249 . S
C503 C497 1.516 . S
H504 C490 0.930 . S
H505 C491 0.931 . S
H506 C492 0.931 . S
H507 C493 0.933 . S
H508 C499 0.930 . S
H509 C500 0.931 . S
H510 C501 0.927 1_655 S
H511 C502 0.933 . S
Dy512 O515 2.307 . S
Dy512 O517 2.395 . S
Dy512 O518 2.379 . S
Dy512 O520 2.339 . S
Dy512 O522 2.298 . S
Dy512 O526 2.275 . S
Dy512 C534 2.738 . S
Dy513 O516 2.298 . S
Dy513 O519 2.275 . S
Dy513 O521 2.307 . S
Dy513 O523 2.395 . S
Dy513 O524 2.379 . S
Dy513 O527 2.339 . S
Dy513 C543 2.738 . S
C514 O526 1.254 . S
C514 O527 1.257 . S
O515 Dy512 2.307 . S
O515 C525 1.266 . S
O516 Dy513 2.298 . S
O516 C525 1.236 . S
O517 Dy512 2.395 . S
O517 C534 1.255 . S
O518 Dy512 2.379 . S
O518 C534 1.249 . S
O519 Dy513 2.275 . S
O519 C535 1.254 . S
O520 Dy512 2.339 . S
O520 C535 1.257 . S
O521 Dy513 2.307 . S
O521 C536 1.266 . S
O522 Dy512 2.298 . S
O522 C536 1.236 . S
O523 Dy513 2.395 . S
O523 C543 1.255 . S
O524 Dy513 2.379 . S
O524 C543 1.249 . S
C525 O515 1.266 . S
C525 O516 1.236 . S
O526 Dy512 2.275 . S
O526 C514 1.254 . S
O527 Dy513 2.339 . S
O527 C514 1.257 . S
C528 C531 1.344 . S
C528 C532 1.328 . S
C528 C534 1.516 . S
C529 C530 1.304 . S
C529 C533 1.323 . S
C530 C529 1.304 . S
C530 C531 1.371 . S
C530 H544 0.930 . S
C531 C528 1.344 . S
C531 C530 1.371 . S
C531 H545 0.931 . S
C532 C528 1.328 . S
C532 C533 1.433 . S
C532 H546 0.931 . S
C533 C529 1.323 . S
C533 C532 1.433 . S
C533 H547 0.933 . S
C534 Dy512 2.738 . S
C534 O517 1.255 . S
C534 O518 1.249 . S
C534 C528 1.516 . S
C535 O519 1.254 . S
C535 O520 1.257 . S
C536 O521 1.266 . S
C536 O522 1.236 . S
C537 C540 1.344 . S
C537 C541 1.328 . S
C537 C543 1.516 . S
C538 C539 1.304 . S
C538 C542 1.323 . S
C539 C538 1.304 . S
C539 C540 1.371 . S
C539 H548 0.930 . S
C540 C537 1.344 . S
C540 C539 1.371 . S
C540 H549 0.931 . S
C541 C537 1.328 . S
C541 C542 1.433 . S
C541 H550 0.931 . S
C542 C538 1.323 . S
C542 C541 1.433 . S
C542 H551 0.933 . S
C543 Dy513 2.738 . S
C543 O523 1.255 . S
C543 O524 1.249 . S
C543 C537 1.516 . S
H544 C530 0.930 . S
H545 C531 0.931 . S
H546 C532 0.931 . S
H547 C533 0.933 . S
H548 C539 0.930 . S
H549 C540 0.931 . S
H550 C541 0.931 . S
H551 C542 0.933 . S
Dy552 O555 2.307 1_556 S
Dy552 O557 2.395 . S
Dy552 O558 2.379 . S
Dy552 O560 2.339 1_556 S
Dy552 O562 2.298 1_556 S
Dy552 O566 2.275 1_556 S
Dy552 C574 2.738 . S
Dy553 O556 2.298 . S
Dy553 O559 2.275 . S
Dy553 O561 2.307 . S
Dy553 O563 2.395 . S
Dy553 O564 2.379 . S
Dy553 O567 2.339 . S
Dy553 C583 2.738 . S
C554 O566 1.254 . S
C554 O567 1.257 . S
O555 Dy552 2.307 1_554 S
O555 C565 1.266 . S
O556 Dy553 2.298 . S
O556 C565 1.236 . S
O557 Dy552 2.395 . S
O557 C574 1.255 . S
O558 Dy552 2.379 . S
O558 C574 1.249 . S
O559 Dy553 2.275 . S
O559 C575 1.254 . S
O560 Dy552 2.339 1_554 S
O560 C575 1.257 . S
O561 Dy553 2.307 . S
O561 C576 1.266 . S
O562 Dy552 2.298 1_554 S
O562 C576 1.236 . S
O563 Dy553 2.395 . S
O563 C583 1.255 . S
O564 Dy553 2.379 . S
O564 C583 1.249 . S
C565 O555 1.266 . S
C565 O556 1.236 . S
O566 Dy552 2.275 1_554 S
O566 C554 1.254 . S
O567 Dy553 2.339 . S
O567 C554 1.257 . S
C568 C571 1.344 . S
C568 C572 1.328 . S
C568 C574 1.516 . S
C569 C570 1.304 . S
C569 C573 1.323 . S
C570 C569 1.304 . S
C570 C571 1.371 . S
C570 H584 0.930 . S
C571 C568 1.344 . S
C571 C570 1.371 . S
C571 H585 0.931 . S
C572 C568 1.328 . S
C572 C573 1.433 . S
C572 H586 0.931 . S
C573 C569 1.323 . S
C573 C572 1.433 . S
C573 H587 0.933 . S
C574 Dy552 2.738 . S
C574 O557 1.255 . S
C574 O558 1.249 . S
C574 C568 1.516 . S
C575 O559 1.254 . S
C575 O560 1.257 . S
C576 O561 1.266 . S
C576 O562 1.236 . S
C577 C580 1.344 . S
C577 C581 1.328 1_545 S
C577 C583 1.516 . S
C578 C579 1.304 1_565 S
C578 C582 1.323 . S
C579 C578 1.304 1_545 S
C579 C580 1.371 . S
C579 H588 0.930 . S
C580 C577 1.344 . S
C580 C579 1.371 . S
C580 H589 0.931 . S
C581 C577 1.328 1_565 S
C581 C582 1.433 . S
C581 H590 0.931 . S
C582 C578 1.323 . S
C582 C581 1.433 . S
C582 H591 0.933 . S
C583 Dy553 2.738 . S
C583 O563 1.255 . S
C583 O564 1.249 . S
C583 C577 1.516 . S
H584 C570 0.930 . S
H585 C571 0.931 . S
H586 C572 0.931 . S
H587 C573 0.933 . S
H588 C579 0.930 . S
H589 C580 0.931 . S
H590 C581 0.931 . S
H591 C582 0.933 . S
Dy592 O595 2.307 . S
Dy592 O597 2.395 . S
Dy592 O598 2.379 . S
Dy592 O600 2.339 . S
Dy592 O602 2.298 . S
Dy592 O606 2.275 . S
Dy592 C614 2.738 . S
Dy593 O596 2.298 . S
Dy593 O599 2.275 . S
Dy593 O601 2.307 . S
Dy593 O603 2.395 . S
Dy593 O604 2.379 . S
Dy593 O607 2.339 . S
Dy593 C623 2.738 . S
C594 O606 1.254 . S
C594 O607 1.257 . S
O595 Dy592 2.307 . S
O595 C605 1.266 . S
O596 Dy593 2.298 . S
O596 C605 1.236 . S
O597 Dy592 2.395 . S
O597 C614 1.255 . S
O598 Dy592 2.379 . S
O598 C614 1.249 . S
O599 Dy593 2.275 . S
O599 C615 1.254 . S
O600 Dy592 2.339 . S
O600 C615 1.257 . S
O601 Dy593 2.307 . S
O601 C616 1.266 . S
O602 Dy592 2.298 . S
O602 C616 1.236 . S
O603 Dy593 2.395 . S
O603 C623 1.255 . S
O604 Dy593 2.379 . S
O604 C623 1.249 . S
C605 O595 1.266 . S
C605 O596 1.236 . S
O606 Dy592 2.275 . S
O606 C594 1.254 . S
O607 Dy593 2.339 . S
O607 C594 1.257 . S
C608 C611 1.344 . S
C608 C612 1.328 . S
C608 C614 1.516 . S
C609 C610 1.304 . S
C609 C613 1.323 . S
C610 C609 1.304 . S
C610 C611 1.371 . S
C610 H624 0.930 . S
C611 C608 1.344 . S
C611 C610 1.371 . S
C611 H625 0.931 . S
C612 C608 1.328 . S
C612 C613 1.433 . S
C612 H626 0.931 . S
C613 C609 1.323 . S
C613 C612 1.433 . S
C613 H627 0.933 . S
C614 Dy592 2.738 . S
C614 O597 1.255 . S
C614 O598 1.249 . S
C614 C608 1.516 . S
C615 O599 1.254 . S
C615 O600 1.257 . S
C616 O601 1.266 . S
C616 O602 1.236 . S
C617 C620 1.344 . S
C617 C621 1.328 . S
C617 C623 1.516 . S
C618 C619 1.304 . S
C618 C622 1.323 . S
C619 C618 1.304 . S
C619 C620 1.371 . S
C619 H628 0.930 . S
C620 C617 1.344 . S
C620 C619 1.371 . S
C620 H629 0.931 . S
C621 C617 1.328 . S
C621 C622 1.433 . S
C621 H630 0.931 . S
C622 C618 1.323 . S
C622 C621 1.433 . S
C622 H631 0.933 . S
C623 Dy593 2.738 . S
C623 O603 1.255 . S
C623 O604 1.249 . S
C623 C617 1.516 . S
H624 C610 0.930 . S
H625 C611 0.931 . S
H626 C612 0.931 . S
H627 C613 0.933 . S
H628 C619 0.930 . S
H629 C620 0.931 . S
H630 C621 0.931 . S
H631 C622 0.933 . S
Dy632 O635 2.307 1_554 S
Dy632 O637 2.395 . S
Dy632 O638 2.379 . S
Dy632 O640 2.339 . S
Dy632 O642 2.298 . S
Dy632 O646 2.275 . S
Dy632 C654 2.738 . S
Dy633 O636 2.298 1_554 S
Dy633 O639 2.275 . S
Dy633 O641 2.307 . S
Dy633 O643 2.395 . S
Dy633 O644 2.379 . S
Dy633 O647 2.339 . S
Dy633 C663 2.738 . S
C634 O646 1.254 . S
C634 O647 1.257 . S
O635 Dy632 2.307 1_556 S
O635 C645 1.266 . S
O636 Dy633 2.298 1_556 S
O636 C645 1.236 . S
O637 Dy632 2.395 . S
O637 C654 1.255 . S
O638 Dy632 2.379 . S
O638 C654 1.249 . S
O639 Dy633 2.275 . S
O639 C655 1.254 . S
O640 Dy632 2.339 . S
O640 C655 1.257 . S
O641 Dy633 2.307 . S
O641 C656 1.266 . S
O642 Dy632 2.298 . S
O642 C656 1.236 . S
O643 Dy633 2.395 . S
O643 C663 1.255 . S
O644 Dy633 2.379 . S
O644 C663 1.249 . S
C645 O635 1.266 . S
C645 O636 1.236 . S
O646 Dy632 2.275 . S
O646 C634 1.254 . S
O647 Dy633 2.339 . S
O647 C634 1.257 . S
C648 C651 1.344 . S
C648 C652 1.328 . S
C648 C654 1.516 . S
C649 C650 1.304 . S
C649 C653 1.323 . S
C650 C649 1.304 . S
C650 C651 1.371 . S
C650 H664 0.930 . S
C651 C648 1.344 . S
C651 C650 1.371 . S
C651 H665 0.931 . S
C652 C648 1.328 . S
C652 C653 1.433 . S
C652 H666 0.931 . S
C653 C649 1.323 . S
C653 C652 1.433 . S
C653 H667 0.933 . S
C654 Dy632 2.738 . S
C654 O637 1.255 . S
C654 O638 1.249 . S
C654 C648 1.516 . S
C655 O639 1.254 . S
C655 O640 1.257 . S
C656 O641 1.266 . S
C656 O642 1.236 . S
C657 C660 1.344 . S
C657 C661 1.328 . S
C657 C663 1.516 1_556 S
C658 C659 1.304 . S
C658 C662 1.323 . S
C659 C658 1.304 . S
C659 C660 1.371 . S
C659 H668 0.930 . S
C660 C657 1.344 . S
C660 C659 1.371 . S
C660 H669 0.931 . S
C661 C657 1.328 . S
C661 C662 1.433 . S
C661 H670 0.908 1_556 S
C662 C658 1.323 . S
C662 C661 1.433 . S
C662 H671 0.933 . S
C663 Dy633 2.738 . S
C663 O643 1.255 . S
C663 O644 1.249 . S
C663 C657 1.516 1_554 S
H664 C650 0.930 . S
H665 C651 0.931 . S
H666 C652 0.931 . S
H667 C653 0.933 . S
H668 C659 0.930 . S
H669 C660 0.931 . S
H670 C661 0.908 1_554 S
H671 C662 0.933 . S
Dy672 O675 2.307 . S
Dy672 O677 2.395 . S
Dy672 O678 2.379 . S
Dy672 O680 2.339 . S
Dy672 O682 2.298 . S
Dy672 O686 2.275 . S
Dy672 C694 2.738 . S
Dy673 O676 2.298 . S
Dy673 O679 2.275 . S
Dy673 O681 2.307 . S
Dy673 O683 2.395 . S
Dy673 O684 2.379 . S
Dy673 O687 2.339 . S
Dy673 C703 2.738 . S
C674 O686 1.254 . S
C674 O687 1.257 . S
O675 Dy672 2.307 . S
O675 C685 1.266 . S
O676 Dy673 2.298 . S
O676 C685 1.236 . S
O677 Dy672 2.395 . S
O677 C694 1.255 . S
O678 Dy672 2.379 . S
O678 C694 1.249 . S
O679 Dy673 2.275 . S
O679 C695 1.254 . S
O680 Dy672 2.339 . S
O680 C695 1.257 . S
O681 Dy673 2.307 . S
O681 C696 1.266 . S
O682 Dy672 2.298 . S
O682 C696 1.236 . S
O683 Dy673 2.395 . S
O683 C703 1.255 . S
O684 Dy673 2.379 . S
O684 C703 1.249 . S
C685 O675 1.266 . S
C685 O676 1.236 . S
O686 Dy672 2.275 . S
O686 C674 1.254 . S
O687 Dy673 2.339 . S
O687 C674 1.257 . S
C688 C691 1.344 . S
C688 C692 1.328 . S
C688 C694 1.516 . S
C689 C690 1.304 . S
C689 C693 1.323 . S
C690 C689 1.304 . S
C690 C691 1.371 . S
C690 H704 0.930 . S
C691 C688 1.344 . S
C691 C690 1.371 . S
C691 H705 0.931 . S
C692 C688 1.328 . S
C692 C693 1.433 . S
C692 H706 0.931 . S
C693 C689 1.323 . S
C693 C692 1.433 . S
C693 H707 0.933 . S
C694 Dy672 2.738 . S
C694 O677 1.255 . S
C694 O678 1.249 . S
C694 C688 1.516 . S
C695 O679 1.254 . S
C695 O680 1.257 . S
C696 O681 1.266 . S
C696 O682 1.236 . S
C697 C700 1.344 . S
C697 C701 1.328 . S
C697 C703 1.516 . S
C698 C699 1.304 . S
C698 C702 1.323 . S
C699 C698 1.304 . S
C699 C700 1.371 . S
C699 H708 0.930 . S
C700 C697 1.344 . S
C700 C699 1.371 . S
C700 H709 0.931 . S
C701 C697 1.328 . S
C701 C702 1.433 . S
C701 H710 0.931 . S
C702 C698 1.323 . S
C702 C701 1.433 . S
C702 H711 0.933 . S
C703 Dy673 2.738 . S
C703 O683 1.255 . S
C703 O684 1.249 . S
C703 C697 1.516 . S
H704 C690 0.930 . S
H705 C691 0.931 . S
H706 C692 0.931 . S
H707 C693 0.933 . S
H708 C699 0.930 . S
H709 C700 0.931 . S
H710 C701 0.931 . S
H711 C702 0.933 . S
Dy712 O715 2.307 1_455 S
Dy712 O717 2.395 . S
Dy712 O718 2.379 . S
Dy712 O720 2.339 . S
Dy712 O722 2.298 . S
Dy712 O726 2.275 . S
Dy712 C734 2.738 . S
Dy713 O716 2.298 1_455 S
Dy713 O719 2.275 . S
Dy713 O721 2.307 . S
Dy713 O723 2.397 1_455 S
Dy713 O724 2.379 . S
Dy713 O727 2.339 . S
Dy713 C743 2.738 1_455 S
C714 O726 1.254 . S
C714 O727 1.257 . S
O715 Dy712 2.307 1_655 S
O715 C725 1.266 . S
O716 Dy713 2.298 1_655 S
O716 C725 1.236 . S
O717 Dy712 2.395 . S
O717 C734 1.255 . S
O718 Dy712 2.379 . S
O718 C734 1.249 . S
O719 Dy713 2.275 . S
O719 C735 1.254 . S
O720 Dy712 2.339 . S
O720 C735 1.257 . S
O721 Dy713 2.307 . S
O721 C736 1.266 . S
O722 Dy712 2.298 . S
O722 C736 1.236 . S
O723 Dy713 2.397 1_655 S
O723 C743 1.256 . S
O724 Dy713 2.379 . S
O724 C743 1.249 1_455 S
C725 O715 1.266 . S
C725 O716 1.236 . S
O726 Dy712 2.275 . S
O726 C714 1.254 . S
O727 Dy713 2.339 . S
O727 C714 1.257 . S
C728 C731 1.344 . S
C728 C732 1.328 . S
C728 C734 1.516 . S
C729 C730 1.304 . S
C729 C733 1.323 . S
C730 C729 1.304 . S
C730 C731 1.371 . S
C730 H744 0.930 . S
C731 C728 1.344 . S
C731 C730 1.371 . S
C731 H745 0.931 . S
C732 C728 1.328 . S
C732 C733 1.433 . S
C732 H746 0.931 . S
C733 C729 1.323 . S
C733 C732 1.433 . S
C733 H747 0.933 . S
C734 Dy712 2.738 . S
C734 O717 1.255 . S
C734 O718 1.249 . S
C734 C728 1.516 . S
C735 O719 1.254 . S
C735 O720 1.257 . S
C736 O721 1.266 . S
C736 O722 1.236 . S
C737 C740 1.344 . S
C737 C741 1.328 . S
C737 C743 1.516 . S
C738 C739 1.304 . S
C738 C742 1.323 . S
C739 C738 1.304 . S
C739 C740 1.371 . S
C739 H748 0.930 . S
C740 C737 1.344 . S
C740 C739 1.371 . S
C740 H749 0.931 . S
C741 C737 1.328 . S
C741 C742 1.433 . S
C741 H750 0.931 . S
C742 C738 1.323 . S
C742 C741 1.433 . S
C742 H751 0.933 . S
C743 Dy713 2.738 1_655 S
C743 O723 1.256 . S
C743 O724 1.249 1_655 S
C743 C737 1.516 . S
H744 C730 0.930 . S
H745 C731 0.931 . S
H746 C732 0.931 . S
H747 C733 0.933 . S
H748 C739 0.930 . S
H749 C740 0.931 . S
H750 C741 0.931 . S
H751 C742 0.933 . S
Dy752 O755 2.307 . S
Dy752 O757 2.395 . S
Dy752 O758 2.379 . S
Dy752 O760 2.339 . S
Dy752 O762 2.298 . S
Dy752 O766 2.275 . S
Dy752 C774 2.738 . S
Dy753 O756 2.298 . S
Dy753 O759 2.275 . S
Dy753 O761 2.307 . S
Dy753 O763 2.395 . S
Dy753 O764 2.379 . S
Dy753 O767 2.339 . S
Dy753 C783 2.738 . S
C754 O766 1.254 . S
C754 O767 1.257 . S
O755 Dy752 2.307 . S
O755 C765 1.266 . S
O756 Dy753 2.298 . S
O756 C765 1.236 . S
O757 Dy752 2.395 . S
O757 C774 1.255 . S
O758 Dy752 2.379 . S
O758 C774 1.249 . S
O759 Dy753 2.275 . S
O759 C775 1.254 . S
O760 Dy752 2.339 . S
O760 C775 1.257 . S
O761 Dy753 2.307 . S
O761 C776 1.266 . S
O762 Dy752 2.298 . S
O762 C776 1.236 . S
O763 Dy753 2.395 . S
O763 C783 1.255 . S
O764 Dy753 2.379 . S
O764 C783 1.249 . S
C765 O755 1.266 . S
C765 O756 1.236 . S
O766 Dy752 2.275 . S
O766 C754 1.254 . S
O767 Dy753 2.339 . S
O767 C754 1.257 . S
C768 C771 1.344 . S
C768 C772 1.328 . S
C768 C774 1.516 . S
C769 C770 1.304 . S
C769 C773 1.323 . S
C770 C769 1.304 . S
C770 C771 1.371 . S
C770 H784 0.930 . S
C771 C768 1.344 . S
C771 C770 1.371 . S
C771 H785 0.931 . S
C772 C768 1.328 . S
C772 C773 1.433 . S
C772 H786 0.931 . S
C773 C769 1.323 . S
C773 C772 1.433 . S
C773 H787 0.933 . S
C774 Dy752 2.738 . S
C774 O757 1.255 . S
C774 O758 1.249 . S
C774 C768 1.516 . S
C775 O759 1.254 . S
C775 O760 1.257 . S
C776 O761 1.266 . S
C776 O762 1.236 . S
C777 C780 1.344 . S
C777 C781 1.328 . S
C777 C783 1.516 . S
C778 C779 1.304 . S
C778 C782 1.323 . S
C779 C778 1.304 . S
C779 C780 1.371 . S
C779 H788 0.930 . S
C780 C777 1.344 . S
C780 C779 1.371 . S
C780 H789 0.931 . S
C781 C777 1.328 . S
C781 C782 1.433 . S
C781 H790 0.931 . S
C782 C778 1.323 . S
C782 C781 1.433 . S
C782 H791 0.933 . S
C783 Dy753 2.738 . S
C783 O763 1.255 . S
C783 O764 1.249 . S
C783 C777 1.516 . S
H784 C770 0.930 . S
H785 C771 0.931 . S
H786 C772 0.931 . S
H787 C773 0.933 . S
H788 C779 0.930 . S
H789 C780 0.931 . S
H790 C781 0.931 . S
H791 C782 0.933 . S
Dy792 O795 2.307 . S
Dy792 O797 2.395 . S
Dy792 O798 2.379 . S
Dy792 O800 2.339 . S
Dy792 O802 2.298 . S
Dy792 O806 2.275 . S
Dy792 C814 2.738 . S
Dy793 O796 2.298 . S
Dy793 O799 2.275 . S
Dy793 O801 2.307 . S
Dy793 O803 2.395 . S
Dy793 O804 2.379 . S
Dy793 O807 2.339 . S
Dy793 C823 2.738 . S
C794 O806 1.254 . S
C794 O807 1.257 . S
O795 Dy792 2.307 . S
O795 C805 1.266 . S
O796 Dy793 2.298 . S
O796 C805 1.236 . S
O797 Dy792 2.395 . S
O797 C814 1.255 . S
O798 Dy792 2.379 . S
O798 C814 1.249 . S
O799 Dy793 2.275 . S
O799 C815 1.254 . S
O800 Dy792 2.339 . S
O800 C815 1.257 . S
O801 Dy793 2.307 . S
O801 C816 1.266 . S
O802 Dy792 2.298 . S
O802 C816 1.236 . S
O803 Dy793 2.395 . S
O803 C823 1.255 . S
O804 Dy793 2.379 . S
O804 C823 1.249 . S
C805 O795 1.266 . S
C805 O796 1.236 . S
O806 Dy792 2.275 . S
O806 C794 1.254 . S
O807 Dy793 2.339 . S
O807 C794 1.257 . S
C808 C811 1.344 . S
C808 C812 1.328 . S
C808 C814 1.516 . S
C809 C810 1.304 . S
C809 C813 1.323 . S
C810 C809 1.304 . S
C810 C811 1.371 . S
C810 H824 0.930 . S
C811 C808 1.344 . S
C811 C810 1.371 . S
C811 H825 0.931 . S
C812 C808 1.328 . S
C812 C813 1.433 . S
C812 H826 0.931 . S
C813 C809 1.323 . S
C813 C812 1.433 . S
C813 H827 0.933 . S
C814 Dy792 2.738 . S
C814 O797 1.255 . S
C814 O798 1.249 . S
C814 C808 1.516 . S
C815 O799 1.254 . S
C815 O800 1.257 . S
C816 O801 1.266 . S
C816 O802 1.236 . S
C817 C820 1.344 . S
C817 C821 1.328 . S
C817 C823 1.516 . S
C818 C819 1.304 . S
C818 C822 1.323 . S
C819 C818 1.304 . S
C819 C820 1.371 . S
C819 H828 0.930 . S
C820 C817 1.344 . S
C820 C819 1.371 . S
C820 H829 0.931 . S
C821 C817 1.328 . S
C821 C822 1.433 . S
C821 H830 0.931 . S
C822 C818 1.323 . S
C822 C821 1.433 . S
C822 H831 0.933 1_556 S
C823 Dy793 2.738 . S
C823 O803 1.255 . S
C823 O804 1.249 . S
C823 C817 1.516 . S
H824 C810 0.930 . S
H825 C811 0.931 . S
H826 C812 0.931 . S
H827 C813 0.933 . S
H828 C819 0.930 . S
H829 C820 0.931 . S
H830 C821 0.931 . S
H831 C822 0.933 1_554 S
Dy832 O835 2.307 . S
Dy832 O837 2.395 . S
Dy832 O838 2.379 . S
Dy832 O840 2.339 . S
Dy832 O842 2.298 . S
Dy832 O846 2.275 . S
Dy832 C854 2.738 . S
Dy833 O836 2.298 . S
Dy833 O839 2.275 . S
Dy833 O841 2.307 . S
Dy833 O843 2.395 . S
Dy833 O844 2.379 . S
Dy833 O847 2.339 . S
Dy833 C863 2.738 . S
C834 O846 1.254 . S
C834 O847 1.257 . S
O835 Dy832 2.307 . S
O835 C845 1.266 . S
O836 Dy833 2.298 . S
O836 C845 1.236 . S
O837 Dy832 2.395 . S
O837 C854 1.255 . S
O838 Dy832 2.379 . S
O838 C854 1.249 . S
O839 Dy833 2.275 . S
O839 C855 1.254 . S
O840 Dy832 2.339 . S
O840 C855 1.257 . S
O841 Dy833 2.307 . S
O841 C856 1.266 . S
O842 Dy832 2.298 . S
O842 C856 1.236 . S
O843 Dy833 2.395 . S
O843 C863 1.255 . S
O844 Dy833 2.379 . S
O844 C863 1.249 . S
C845 O835 1.266 . S
C845 O836 1.236 . S
O846 Dy832 2.275 . S
O846 C834 1.254 . S
O847 Dy833 2.339 . S
O847 C834 1.257 . S
C848 C851 1.344 . S
C848 C852 1.328 . S
C848 C854 1.516 . S
C849 C850 1.304 . S
C849 C853 1.323 . S
C850 C849 1.304 . S
C850 C851 1.371 . S
C850 H864 0.930 . S
C851 C848 1.344 . S
C851 C850 1.371 . S
C851 H865 0.931 . S
C852 C848 1.328 . S
C852 C853 1.433 . S
C852 H866 0.931 . S
C853 C849 1.323 . S
C853 C852 1.433 . S
C853 H867 0.933 . S
C854 Dy832 2.738 . S
C854 O837 1.255 . S
C854 O838 1.249 . S
C854 C848 1.516 . S
C855 O839 1.254 . S
C855 O840 1.257 . S
C856 O841 1.266 . S
C856 O842 1.236 . S
C857 C860 1.344 . S
C857 C861 1.328 . S
C857 C863 1.516 . S
C858 C859 1.304 . S
C858 C862 1.323 . S
C859 C858 1.304 . S
C859 C860 1.371 . S
C859 H868 0.930 . S
C860 C857 1.344 . S
C860 C859 1.371 . S
C860 H869 0.931 . S
C861 C857 1.328 . S
C861 C862 1.433 . S
C861 H870 0.931 . S
C862 C858 1.323 . S
C862 C861 1.433 . S
C862 H871 0.933 . S
C863 Dy833 2.738 . S
C863 O843 1.255 . S
C863 O844 1.249 . S
C863 C857 1.516 . S
H864 C850 0.930 . S
H865 C851 0.931 . S
H866 C852 0.931 . S
H867 C853 0.933 . S
H868 C859 0.930 . S
H869 C860 0.931 . S
H870 C861 0.931 . S
H871 C862 0.933 . S
Dy872 O875 2.307 . S
Dy872 O877 2.395 . S
Dy872 O878 2.379 . S
Dy872 O880 2.339 . S
Dy872 O882 2.298 . S
Dy872 O886 2.275 . S
Dy872 C894 2.738 . S
Dy873 O876 2.298 . S
Dy873 O879 2.275 . S
Dy873 O881 2.307 . S
Dy873 O883 2.395 . S
Dy873 O884 2.379 . S
Dy873 O887 2.339 . S
Dy873 C903 2.738 . S
C874 O886 1.254 . S
C874 O887 1.257 . S
O875 Dy872 2.307 . S
O875 C885 1.266 . S
O876 Dy873 2.298 . S
O876 C885 1.236 . S
O877 Dy872 2.395 . S
O877 C894 1.255 . S
O878 Dy872 2.379 . S
O878 C894 1.249 . S
O879 Dy873 2.275 . S
O879 C895 1.254 . S
O880 Dy872 2.339 . S
O880 C895 1.257 . S
O881 Dy873 2.307 . S
O881 C896 1.266 . S
O882 Dy872 2.298 . S
O882 C896 1.236 . S
O883 Dy873 2.395 . S
O883 C903 1.255 . S
O884 Dy873 2.379 . S
O884 C903 1.249 . S
C885 O875 1.266 . S
C885 O876 1.236 . S
O886 Dy872 2.275 . S
O886 C874 1.254 . S
O887 Dy873 2.339 . S
O887 C874 1.257 . S
C888 C891 1.344 . S
C888 C892 1.328 . S
C888 C894 1.516 . S
C889 C890 1.304 . S
C889 C893 1.323 . S
C890 C889 1.304 . S
C890 C891 1.371 . S
C890 H904 0.930 . S
C891 C888 1.344 . S
C891 C890 1.371 . S
C891 H905 0.931 . S
C892 C888 1.328 . S
C892 C893 1.433 . S
C892 H906 0.931 . S
C893 C889 1.323 . S
C893 C892 1.433 . S
C893 H907 0.933 . S
C894 Dy872 2.738 . S
C894 O877 1.255 . S
C894 O878 1.249 . S
C894 C888 1.516 . S
C895 O879 1.254 . S
C895 O880 1.257 . S
C896 O881 1.266 . S
C896 O882 1.236 . S
C897 C900 1.344 . S
C897 C901 1.328 . S
C897 C903 1.516 . S
C898 C899 1.304 . S
C898 C902 1.323 . S
C899 C898 1.304 . S
C899 C900 1.371 . S
C899 H908 0.930 . S
C900 C897 1.344 . S
C900 C899 1.371 . S
C900 H909 0.931 . S
C901 C897 1.328 . S
C901 C902 1.433 . S
C901 H910 0.931 . S
C902 C898 1.323 . S
C902 C901 1.433 . S
C902 H911 0.933 . S
C903 Dy873 2.738 . S
C903 O883 1.255 . S
C903 O884 1.249 . S
C903 C897 1.516 . S
H904 C890 0.930 . S
H905 C891 0.931 . S
H906 C892 0.931 . S
H907 C893 0.933 . S
H908 C899 0.930 . S
H909 C900 0.931 . S
H910 C901 0.931 . S
H911 C902 0.933 . S
Dy912 O915 2.307 1_655 S
Dy912 O917 2.395 . S
Dy912 O918 2.379 . S
Dy912 O920 2.339 1_655 S
Dy912 O922 2.298 1_655 S
Dy912 O926 2.275 1_655 S
Dy912 C934 2.738 . S
Dy913 O916 2.298 . S
Dy913 O919 2.275 . S
Dy913 O921 2.307 . S
Dy913 O923 2.395 . S
Dy913 O924 2.379 . S
Dy913 O927 2.339 1_554 S
Dy913 C943 2.738 . S
C914 O926 1.254 . S
C914 O927 1.257 1_554 S
O915 Dy912 2.307 1_455 S
O915 C925 1.266 . S
O916 Dy913 2.298 . S
O916 C925 1.236 . S
O917 Dy912 2.395 . S
O917 C934 1.255 . S
O918 Dy912 2.379 . S
O918 C934 1.249 . S
O919 Dy913 2.275 . S
O919 C935 1.254 . S
O920 Dy912 2.339 1_455 S
O920 C935 1.257 . S
O921 Dy913 2.307 . S
O921 C936 1.266 . S
O922 Dy912 2.298 1_455 S
O922 C936 1.236 . S
O923 Dy913 2.395 . S
O923 C943 1.255 . S
O924 Dy913 2.379 . S
O924 C943 1.249 . S
C925 O915 1.266 . S
C925 O916 1.236 . S
O926 Dy912 2.275 1_455 S
O926 C914 1.254 . S
O927 Dy913 2.339 1_556 S
O927 C914 1.257 1_556 S
C928 C931 1.344 . S
C928 C932 1.328 . S
C928 C934 1.516 . S
C929 C930 1.304 . S
C929 C933 1.323 . S
C930 C929 1.304 . S
C930 C931 1.371 . S
C930 H944 0.930 . S
C931 C928 1.344 . S
C931 C930 1.371 . S
C931 H945 0.931 . S
C932 C928 1.328 . S
C932 C933 1.433 . S
C932 H946 0.931 . S
C933 C929 1.323 . S
C933 C932 1.433 . S
C933 H947 0.933 . S
C934 Dy912 2.738 . S
C934 O917 1.255 . S
C934 O918 1.249 . S
C934 C928 1.516 . S
C935 O919 1.254 . S
C935 O920 1.257 . S
C936 O921 1.266 . S
C936 O922 1.236 . S
C937 C940 1.344 . S
C937 C941 1.328 . S
C937 C943 1.516 . S
C938 C939 1.304 . S
C938 C942 1.323 1_554 S
C939 C938 1.304 . S
C939 C940 1.371 . S
C939 H948 0.930 . S
C940 C937 1.344 . S
C940 C939 1.371 . S
C940 H949 0.931 . S
C941 C937 1.328 . S
C941 C942 1.433 1_554 S
C941 H950 0.931 1_554 S
C942 C938 1.323 1_556 S
C942 C941 1.433 1_556 S
C942 H951 0.933 . S
C943 Dy913 2.738 . S
C943 O923 1.255 . S
C943 O924 1.249 . S
C943 C937 1.516 . S
H944 C930 0.930 . S
H945 C931 0.931 . S
H946 C932 0.931 . S
H947 C933 0.933 . S
H948 C939 0.930 . S
H949 C940 0.931 . S
H950 C941 0.931 1_556 S
H951 C942 0.933 . S
C952 C953 1.363 . S
C952 C958 1.379 . S
C952 N960 1.356 1_455 S
C953 C952 1.363 . S
C953 C959 1.363 . S
C954 C955 1.363 . S
C954 C959 1.379 . S
C954 N961 1.356 . S
C955 C954 1.363 . S
C955 C958 1.363 . S
N956 C958 1.356 . S
N956 H968 0.984 . S
N956 H969 0.985 . S
N957 C959 1.356 1_556 S
N957 H962 0.984 . S
N957 H963 0.985 . S
C958 C952 1.379 . S
C958 C955 1.363 . S
C958 N956 1.356 . S
C959 C953 1.363 . S
C959 C954 1.379 . S
C959 N957 1.356 1_554 S
N960 C952 1.356 1_655 S
N960 H966 0.984 . S
N960 H967 0.984 . S
N961 C954 1.356 . S
N961 H964 0.984 . S
N961 H965 0.985 1_554 S
H962 N957 0.984 . S
H963 N957 0.985 . S
H964 N961 0.984 . S
H965 N961 0.985 1_556 S
H966 N960 0.984 . S
H967 N960 0.984 . S
H968 N956 0.984 . S
H969 N956 0.985 . S
C970 C971 1.363 . S
C970 C976 1.379 . S
C970 N978 1.356 . S
C971 C970 1.363 . S
C971 C977 1.363 . S
C972 C973 1.363 . S
C972 C977 1.379 . S
C972 N979 1.356 . S
C973 C972 1.363 . S
C973 C976 1.363 . S
N974 C976 1.356 . S
N974 H986 0.984 . S
N974 H987 0.985 . S
N975 C977 1.356 . S
N975 H980 0.984 . S
N975 H981 0.985 . S
C976 C970 1.379 . S
C976 C973 1.363 . S
C976 N974 1.356 . S
C977 C971 1.363 . S
C977 C972 1.379 . S
C977 N975 1.356 . S
N978 C970 1.356 . S
N978 H984 0.984 . S
N978 H985 0.984 . S
N979 C972 1.356 . S
N979 H982 0.984 . S
N979 H983 0.985 . S
H980 N975 0.984 . S
H981 N975 0.985 . S
H982 N979 0.984 . S
H983 N979 0.985 . S
H984 N978 0.984 . S
H985 N978 0.984 . S
H986 N974 0.984 . S
H987 N974 0.985 . S
C988 C989 1.363 . S
C988 C994 1.379 . S
C988 N996 1.356 . S
C989 C988 1.363 . S
C989 C995 1.363 . S
C990 C991 1.363 . S
C990 C995 1.379 . S
C990 N997 1.356 . S
C991 C990 1.363 . S
C991 C994 1.363 . S
N992 C994 1.356 . S
N992 H1004 0.984 . S
N992 H1005 0.985 . S
N993 C995 1.356 . S
N993 H998 0.984 . S
N993 H999 0.985 . S
C994 C988 1.379 . S
C994 C991 1.363 . S
C994 N992 1.356 . S
C995 C989 1.363 . S
C995 C990 1.379 . S
C995 N993 1.356 . S
N996 C988 1.356 . S
N996 H1002 0.984 . S
N996 H1003 0.984 . S
N997 C990 1.356 . S
N997 H1000 0.984 . S
N997 H1001 0.985 . S
H998 N993 0.984 . S
H999 N993 0.985 . S
H1000 N997 0.984 . S
H1001 N997 0.985 . S
H1002 N996 0.984 . S
H1003 N996 0.984 . S
H1004 N992 0.984 . S
H1005 N992 0.985 . S
C1006 C1007 1.363 . S
C1006 C1012 1.379 . S
C1006 N1014 1.356 . S
C1007 C1006 1.363 . S
C1007 C1013 1.363 . S
C1008 C1009 1.363 . S
C1008 C1013 1.379 . S
C1008 N1015 1.356 . S
C1009 C1008 1.363 . S
C1009 C1012 1.363 . S
N1010 C1012 1.356 . S
N1010 H1022 0.984 . S
N1010 H1023 0.985 . S
N1011 C1013 1.356 . S
N1011 H1016 0.984 . S
N1011 H1017 0.985 . S
C1012 C1006 1.379 . S
C1012 C1009 1.363 . S
C1012 N1010 1.356 . S
C1013 C1007 1.363 . S
C1013 C1008 1.379 . S
C1013 N1011 1.356 . S
N1014 C1006 1.356 . S
N1014 H1020 0.984 . S
N1014 H1021 0.984 . S
N1015 C1008 1.356 . S
N1015 H1018 0.984 . S
N1015 H1019 0.985 . S
H1016 N1011 0.984 . S
H1017 N1011 0.985 . S
H1018 N1015 0.984 . S
H1019 N1015 0.985 . S
H1020 N1014 0.984 . S
H1021 N1014 0.984 . S
H1022 N1010 0.984 . S
H1023 N1010 0.985 . S
C1024 C1025 1.363 . S
C1024 C1030 1.379 . S
C1024 N1032 1.356 . S
C1025 C1024 1.363 . S
C1025 C1031 1.363 . S
C1026 C1027 1.363 . S
C1026 C1031 1.379 . S
C1026 N1033 1.356 . S
C1027 C1026 1.363 . S
C1027 C1030 1.363 . S
N1028 C1030 1.356 . S
N1028 H1040 0.984 . S
N1028 H1041 0.985 . S
N1029 C1031 1.356 . S
N1029 H1034 0.984 . S
N1029 H1035 0.985 . S
C1030 C1024 1.379 . S
C1030 C1027 1.363 . S
C1030 N1028 1.356 . S
C1031 C1025 1.363 . S
C1031 C1026 1.379 . S
C1031 N1029 1.356 . S
N1032 C1024 1.356 . S
N1032 H1038 0.984 . S
N1032 H1039 0.984 . S
N1033 C1026 1.356 . S
N1033 H1036 0.984 . S
N1033 H1037 0.985 . S
H1034 N1029 0.984 . S
H1035 N1029 0.985 . S
H1036 N1033 0.984 . S
H1037 N1033 0.985 . S
H1038 N1032 0.984 . S
H1039 N1032 0.984 . S
H1040 N1028 0.984 . S
H1041 N1028 0.985 . S
C1042 C1043 1.363 . S
C1042 C1048 1.379 . S
C1042 N1050 1.356 . S
C1043 C1042 1.363 . S
C1043 C1049 1.363 . S
C1044 C1045 1.363 . S
C1044 C1049 1.379 . S
C1044 N1051 1.356 . S
C1045 C1044 1.363 . S
C1045 C1048 1.363 . S
N1046 C1048 1.356 . S
N1046 H1058 0.984 . S
N1046 H1059 0.985 . S
N1047 C1049 1.356 . S
N1047 H1052 0.984 . S
N1047 H1053 0.985 . S
C1048 C1042 1.379 . S
C1048 C1045 1.363 . S
C1048 N1046 1.356 . S
C1049 C1043 1.363 . S
C1049 C1044 1.379 . S
C1049 N1047 1.356 . S
N1050 C1042 1.356 . S
N1050 H1056 0.984 . S
N1050 H1057 0.984 . S
N1051 C1044 1.356 . S
N1051 H1054 0.984 . S
N1051 H1055 0.985 . S
H1052 N1047 0.984 . S
H1053 N1047 0.985 . S
H1054 N1051 0.984 . S
H1055 N1051 0.985 . S
H1056 N1050 0.984 . S
H1057 N1050 0.984 . S
H1058 N1046 0.984 . S
H1059 N1046 0.985 . S
C1060 C1061 1.363 . S
C1060 C1066 1.379 . S
C1060 N1068 1.356 . S
C1061 C1060 1.363 . S
C1061 C1067 1.363 . S
C1062 C1063 1.363 . S
C1062 C1067 1.379 . S
C1062 N1069 1.356 . S
C1063 C1062 1.363 . S
C1063 C1066 1.363 . S
N1064 C1066 1.356 . S
N1064 H1076 0.984 . S
N1064 H1077 0.985 . S
N1065 C1067 1.356 . S
N1065 H1070 0.984 . S
N1065 H1071 0.985 . S
C1066 C1060 1.379 . S
C1066 C1063 1.363 . S
C1066 N1064 1.356 . S
C1067 C1061 1.363 . S
C1067 C1062 1.379 . S
C1067 N1065 1.356 . S
N1068 C1060 1.356 . S
N1068 H1074 0.984 . S
N1068 H1075 0.984 . S
N1069 C1062 1.356 . S
N1069 H1072 0.984 . S
N1069 H1073 0.985 . S
H1070 N1065 0.984 . S
H1071 N1065 0.985 . S
H1072 N1069 0.984 . S
H1073 N1069 0.985 . S
H1074 N1068 0.984 . S
H1075 N1068 0.984 . S
H1076 N1064 0.984 . S
H1077 N1064 0.985 . S
C1078 C1079 1.363 . S
C1078 C1084 1.379 . S
C1078 N1086 1.356 . S
C1079 C1078 1.363 . S
C1079 C1085 1.363 . S
C1080 C1081 1.363 . S
C1080 C1085 1.379 . S
C1080 N1087 1.356 . S
C1081 C1080 1.363 . S
C1081 C1084 1.363 . S
N1082 C1084 1.356 . S
N1082 H1094 0.984 . S
N1082 H1095 0.985 . S
N1083 C1085 1.356 . S
N1083 H1088 0.984 . S
N1083 H1089 0.985 . S
C1084 C1078 1.379 . S
C1084 C1081 1.363 . S
C1084 N1082 1.356 . S
C1085 C1079 1.363 . S
C1085 C1080 1.379 . S
C1085 N1083 1.356 . S
N1086 C1078 1.356 . S
N1086 H1092 0.984 . S
N1086 H1093 0.984 . S
N1087 C1080 1.356 . S
N1087 H1090 0.984 . S
N1087 H1091 0.985 . S
H1088 N1083 0.984 . S
H1089 N1083 0.985 . S
H1090 N1087 0.984 . S
H1091 N1087 0.985 . S
H1092 N1086 0.984 . S
H1093 N1086 0.984 . S
H1094 N1082 0.984 . S
H1095 N1082 0.985 . S
C1096 C1097 1.363 . S
C1096 C1102 1.379 1_655 S
C1096 N1104 1.356 . S
C1097 C1096 1.363 . S
C1097 C1103 1.363 1_655 S
C1098 C1099 1.363 . S
C1098 C1103 1.379 . S
C1098 N1105 1.356 . S
C1099 C1098 1.363 . S
C1099 C1102 1.363 . S
N1100 C1102 1.356 . S
N1100 H1112 0.984 . S
N1100 H1113 0.985 . S
N1101 C1103 1.356 . S
N1101 H1106 0.984 1_455 S
N1101 H1107 0.985 1_545 S
C1102 C1096 1.379 1_455 S
C1102 C1099 1.363 . S
C1102 N1100 1.356 . S
C1103 C1097 1.363 1_455 S
C1103 C1098 1.379 . S
C1103 N1101 1.356 . S
N1104 C1096 1.356 . S
N1104 H1110 0.984 . S
N1104 H1111 0.984 . S
N1105 C1098 1.356 . S
N1105 H1108 0.984 . S
N1105 H1109 0.985 . S
H1106 N1101 0.984 1_655 S
H1107 N1101 0.985 1_565 S
H1108 N1105 0.984 . S
H1109 N1105 0.985 . S
H1110 N1104 0.984 . S
H1111 N1104 0.984 . S
H1112 N1100 0.984 . S
H1113 N1100 0.985 . S
C1114 C1115 1.363 . S
C1114 C1120 1.379 . S
C1114 N1122 1.356 . S
C1115 C1114 1.363 . S
C1115 C1121 1.363 . S
C1116 C1117 1.363 . S
C1116 C1121 1.379 . S
C1116 N1123 1.356 . S
C1117 C1116 1.363 . S
C1117 C1120 1.363 . S
N1118 C1120 1.356 . S
N1118 H1130 0.984 . S
N1118 H1131 0.985 . S
N1119 C1121 1.356 . S
N1119 H1124 0.984 . S
N1119 H1125 0.985 . S
C1120 C1114 1.379 . S
C1120 C1117 1.363 . S
C1120 N1118 1.356 . S
C1121 C1115 1.363 . S
C1121 C1116 1.379 . S
C1121 N1119 1.356 . S
N1122 C1114 1.356 . S
N1122 H1128 0.984 . S
N1122 H1129 0.984 . S
N1123 C1116 1.356 . S
N1123 H1126 0.984 . S
N1123 H1127 0.985 . S
H1124 N1119 0.984 . S
H1125 N1119 0.985 . S
H1126 N1123 0.984 . S
H1127 N1123 0.985 . S
H1128 N1122 0.984 . S
H1129 N1122 0.984 . S
H1130 N1118 0.984 . S
H1131 N1118 0.985 . S
C1132 C1133 1.363 . S
C1132 C1138 1.379 . S
C1132 N1140 1.356 . S
C1133 C1132 1.363 . S
C1133 C1139 1.363 . S
C1134 C1135 1.363 . S
C1134 C1139 1.379 . S
C1134 N1141 1.356 . S
C1135 C1134 1.363 . S
C1135 C1138 1.363 . S
N1136 C1138 1.356 . S
N1136 H1148 0.984 . S
N1136 H1149 0.985 . S
N1137 C1139 1.356 . S
N1137 H1142 0.984 . S
N1137 H1143 0.985 . S
C1138 C1132 1.379 . S
C1138 C1135 1.363 . S
C1138 N1136 1.356 . S
C1139 C1133 1.363 . S
C1139 C1134 1.379 . S
C1139 N1137 1.356 . S
N1140 C1132 1.356 . S
N1140 H1146 0.984 . S
N1140 H1147 0.984 . S
N1141 C1134 1.356 . S
N1141 H1144 0.984 . S
N1141 H1145 0.985 . S
H1142 N1137 0.984 . S
H1143 N1137 0.985 . S
H1144 N1141 0.984 . S
H1145 N1141 0.985 . S
H1146 N1140 0.984 . S
H1147 N1140 0.984 . S
H1148 N1136 0.984 . S
H1149 N1136 0.985 . S
C1150 C1151 1.363 . S
C1150 C1156 1.379 . S
C1150 N1158 1.356 . S
C1151 C1150 1.363 . S
C1151 C1157 1.363 . S
C1152 C1153 1.363 . S
C1152 C1157 1.379 . S
C1152 N1159 1.356 . S
C1153 C1152 1.363 . S
C1153 C1156 1.363 . S
N1154 C1156 1.356 . S
N1154 H1166 0.984 . S
N1154 H1167 0.985 . S
N1155 C1157 1.356 . S
N1155 H1160 0.984 . S
N1155 H1161 0.985 . S
C1156 C1150 1.379 . S
C1156 C1153 1.363 . S
C1156 N1154 1.356 . S
C1157 C1151 1.363 . S
C1157 C1152 1.379 . S
C1157 N1155 1.356 . S
N1158 C1150 1.356 . S
N1158 H1164 0.984 . S
N1158 H1165 0.984 1_556 S
N1159 C1152 1.356 . S
N1159 H1162 0.984 . S
N1159 H1163 0.985 . S
H1160 N1155 0.984 . S
H1161 N1155 0.985 . S
H1162 N1159 0.984 . S
H1163 N1159 0.985 . S
H1164 N1158 0.984 . S
H1165 N1158 0.984 1_554 S
H1166 N1154 0.984 . S
H1167 N1154 0.985 . S
C1168 C1169 1.363 . S
C1168 C1174 1.379 1_655 S
C1168 N1176 1.356 1_545 S
C1169 C1168 1.363 . S
C1169 C1175 1.363 1_655 S
C1170 C1171 1.363 . S
C1170 C1175 1.379 . S
C1170 N1177 1.356 . S
C1171 C1170 1.363 . S
C1171 C1174 1.363 . S
N1172 C1174 1.356 . S
N1172 H1184 0.983 1_445 S
N1172 H1185 0.986 . S
N1173 C1175 1.356 . S
N1173 H1178 0.984 . S
N1173 H1179 0.985 . S
C1174 C1168 1.379 1_455 S
C1174 C1171 1.363 . S
C1174 N1172 1.356 . S
C1175 C1169 1.363 1_455 S
C1175 C1170 1.379 . S
C1175 N1173 1.356 . S
N1176 C1168 1.356 1_565 S
N1176 H1182 0.984 . S
N1176 H1183 0.984 1_565 S
N1177 C1170 1.356 . S
N1177 H1180 0.984 . S
N1177 H1181 0.985 . S
H1178 N1173 0.984 . S
H1179 N1173 0.985 . S
H1180 N1177 0.984 . S
H1181 N1177 0.985 . S
H1182 N1176 0.984 . S
H1183 N1176 0.984 1_545 S
H1184 N1172 0.983 1_665 S
H1185 N1172 0.986 . S
C1186 C1187 1.363 . S
C1186 C1192 1.379 . S
C1186 N1194 1.356 . S
C1187 C1186 1.363 . S
C1187 C1193 1.363 . S
C1188 C1189 1.363 . S
C1188 C1193 1.379 . S
C1188 N1195 1.356 . S
C1189 C1188 1.363 . S
C1189 C1192 1.363 . S
N1190 C1192 1.356 . S
N1190 H1202 0.984 . S
N1190 H1203 0.985 . S
N1191 C1193 1.356 . S
N1191 H1196 0.984 . S
N1191 H1197 0.985 . S
C1192 C1186 1.379 . S
C1192 C1189 1.363 . S
C1192 N1190 1.356 . S
C1193 C1187 1.363 . S
C1193 C1188 1.379 . S
C1193 N1191 1.356 . S
N1194 C1186 1.356 . S
N1194 H1200 0.984 . S
N1194 H1201 0.984 . S
N1195 C1188 1.356 . S
N1195 H1198 0.984 . S
N1195 H1199 0.985 . S
H1196 N1191 0.984 . S
H1197 N1191 0.985 . S
H1198 N1195 0.984 . S
H1199 N1195 0.985 . S
H1200 N1194 0.984 . S
H1201 N1194 0.984 . S
H1202 N1190 0.984 . S
H1203 N1190 0.985 . S
C1204 C1205 1.363 . S
C1204 C1210 1.379 . S
C1204 N1212 1.356 . S
C1205 C1204 1.363 . S
C1205 C1211 1.363 . S
C1206 C1207 1.363 . S
C1206 C1211 1.379 . S
C1206 N1213 1.356 . S
C1207 C1206 1.363 . S
C1207 C1210 1.363 . S
N1208 C1210 1.356 . S
N1208 H1220 0.984 . S
N1208 H1221 0.985 . S
N1209 C1211 1.356 . S
N1209 H1214 0.984 . S
N1209 H1215 0.985 . S
C1210 C1204 1.379 . S
C1210 C1207 1.363 . S
C1210 N1208 1.356 . S
C1211 C1205 1.363 . S
C1211 C1206 1.379 . S
C1211 N1209 1.356 . S
N1212 C1204 1.356 . S
N1212 H1218 0.984 . S
N1212 H1219 0.984 . S
N1213 C1206 1.356 . S
N1213 H1216 0.984 . S
N1213 H1217 0.985 . S
H1214 N1209 0.984 . S
H1215 N1209 0.985 . S
H1216 N1213 0.984 . S
H1217 N1213 0.985 . S
H1218 N1212 0.984 . S
H1219 N1212 0.984 . S
H1220 N1208 0.984 . S
H1221 N1208 0.985 . S
C1222 C1223 1.363 . S
C1222 C1228 1.379 . S
C1222 N1230 1.356 . S
C1223 C1222 1.363 . S
C1223 C1229 1.363 . S
C1224 C1225 1.363 . S
C1224 C1229 1.379 . S
C1224 N1231 1.356 . S
C1225 C1224 1.363 . S
C1225 C1228 1.363 . S
N1226 C1228 1.356 . S
N1226 H1238 0.984 . S
N1226 H1239 0.985 . S
N1227 C1229 1.356 . S
N1227 H1232 0.984 . S
N1227 H1233 0.985 . S
C1228 C1222 1.379 . S
C1228 C1225 1.363 . S
C1228 N1226 1.356 . S
C1229 C1223 1.363 . S
C1229 C1224 1.379 . S
C1229 N1227 1.356 . S
N1230 C1222 1.356 . S
N1230 H1236 0.984 . S
N1230 H1237 0.984 . S
N1231 C1224 1.356 . S
N1231 H1234 0.984 . S
N1231 H1235 0.985 . S
H1232 N1227 0.984 . S
H1233 N1227 0.985 . S
H1234 N1231 0.984 . S
H1235 N1231 0.985 . S
H1236 N1230 0.984 . S
H1237 N1230 0.984 . S
H1238 N1226 0.984 . S
H1239 N1226 0.985 . S
C1240 C1241 1.363 . S
C1240 C1246 1.379 . S
C1240 N1248 1.356 . S
C1241 C1240 1.363 . S
C1241 C1247 1.363 1_565 S
C1242 C1243 1.363 . S
C1242 C1247 1.379 . S
C1242 N1249 1.356 . S
C1243 C1242 1.363 . S
C1243 C1246 1.363 1_545 S
N1244 C1246 1.356 . S
N1244 H1256 0.984 . S
N1244 H1257 0.985 1_565 S
N1245 C1247 1.356 . S
N1245 H1250 0.984 1_545 S
N1245 H1251 0.985 . S
C1246 C1240 1.379 . S
C1246 C1243 1.363 1_565 S
C1246 N1244 1.356 . S
C1247 C1241 1.363 1_545 S
C1247 C1242 1.379 . S
C1247 N1245 1.356 . S
N1248 C1240 1.356 . S
N1248 H1254 0.984 . S
N1248 H1255 0.992 . S
N1249 C1242 1.356 . S
N1249 H1252 0.984 . S
N1249 H1253 0.985 . S
H1250 N1245 0.984 1_565 S
H1251 N1245 0.985 . S
H1252 N1249 0.984 . S
H1253 N1249 0.985 . S
H1254 N1248 0.984 . S
H1255 N1248 0.992 . S
H1256 N1244 0.984 . S
H1257 N1244 0.985 1_545 S
C1258 C1259 1.363 . S
C1258 C1264 1.379 . S
C1258 N1266 1.356 . S
C1259 C1258 1.363 . S
C1259 C1265 1.363 . S
C1260 C1261 1.363 . S
C1260 C1265 1.379 . S
C1260 N1267 1.356 1_554 S
C1261 C1260 1.363 . S
C1261 C1264 1.363 . S
N1262 C1264 1.356 . S
N1262 H1274 0.984 . S
N1262 H1275 0.985 . S
N1263 C1265 1.356 1_556 S
N1263 H1268 0.984 . S
N1263 H1269 0.985 . S
C1264 C1258 1.379 . S
C1264 C1261 1.363 . S
C1264 N1262 1.356 . S
C1265 C1259 1.363 . S
C1265 C1260 1.379 . S
C1265 N1263 1.356 1_554 S
N1266 C1258 1.356 . S
N1266 H1272 0.984 . S
N1266 H1273 0.984 . S
N1267 C1260 1.356 1_556 S
N1267 H1270 0.984 1_556 S
N1267 H1271 0.985 . S
H1268 N1263 0.984 . S
H1269 N1263 0.985 . S
H1270 N1267 0.984 1_554 S
H1271 N1267 0.985 . S
H1272 N1266 0.984 . S
H1273 N1266 0.984 . S
H1274 N1262 0.984 . S
H1275 N1262 0.985 . S
C1276 C1277 1.363 . S
C1276 C1282 1.379 . S
C1276 N1284 1.356 . S
C1277 C1276 1.363 . S
C1277 C1283 1.363 . S
C1278 C1279 1.363 . S
C1278 C1283 1.379 . S
C1278 N1285 1.356 . S
C1279 C1278 1.363 . S
C1279 C1282 1.363 . S
N1280 C1282 1.356 . S
N1280 H1292 0.984 . S
N1280 H1293 0.985 . S
N1281 C1283 1.356 . S
N1281 H1286 0.984 . S
N1281 H1287 0.985 . S
C1282 C1276 1.379 . S
C1282 C1279 1.363 . S
C1282 N1280 1.356 . S
C1283 C1277 1.363 . S
C1283 C1278 1.379 . S
C1283 N1281 1.356 . S
N1284 C1276 1.356 . S
N1284 H1290 0.984 . S
N1284 H1291 0.984 . S
N1285 C1278 1.356 . S
N1285 H1288 0.984 . S
N1285 H1289 0.985 . S
H1286 N1281 0.984 . S
H1287 N1281 0.985 . S
H1288 N1285 0.984 . S
H1289 N1285 0.985 . S
H1290 N1284 0.984 . S
H1291 N1284 0.984 . S
H1292 N1280 0.984 . S
H1293 N1280 0.985 . S
C1294 C1295 1.363 . S
C1294 C1300 1.379 . S
C1294 N1302 1.356 . S
C1295 C1294 1.363 . S
C1295 C1301 1.363 . S
C1296 C1297 1.363 . S
C1296 C1301 1.379 . S
C1296 N1303 1.356 . S
C1297 C1296 1.363 . S
C1297 C1300 1.363 . S
N1298 C1300 1.356 . S
N1298 H1310 0.984 . S
N1298 H1311 0.985 . S
N1299 C1301 1.356 . S
N1299 H1304 0.984 . S
N1299 H1305 0.985 . S
C1300 C1294 1.379 . S
C1300 C1297 1.363 . S
C1300 N1298 1.356 . S
C1301 C1295 1.363 . S
C1301 C1296 1.379 . S
C1301 N1299 1.356 . S
N1302 C1294 1.356 . S
N1302 H1308 0.984 . S
N1302 H1309 0.984 . S
N1303 C1296 1.356 . S
N1303 H1306 0.984 . S
N1303 H1307 0.985 . S
H1304 N1299 0.984 . S
H1305 N1299 0.985 . S
H1306 N1303 0.984 . S
H1307 N1303 0.985 . S
H1308 N1302 0.984 . S
H1309 N1302 0.984 . S
H1310 N1298 0.984 . S
H1311 N1298 0.985 . S
C1312 C1313 1.363 . S
C1312 C1318 1.379 . S
C1312 N1320 1.356 . S
C1313 C1312 1.363 . S
C1313 C1319 1.363 . S
C1314 C1315 1.363 . S
C1314 C1319 1.379 . S
C1314 N1321 1.356 . S
C1315 C1314 1.363 . S
C1315 C1318 1.363 . S
N1316 C1318 1.356 . S
N1316 H1328 0.984 . S
N1316 H1329 0.985 . S
N1317 C1319 1.356 . S
N1317 H1322 0.984 . S
N1317 H1323 0.985 . S
C1318 C1312 1.379 . S
C1318 C1315 1.363 . S
C1318 N1316 1.356 . S
C1319 C1313 1.363 . S
C1319 C1314 1.379 . S
C1319 N1317 1.356 . S
N1320 C1312 1.356 . S
N1320 H1326 0.984 . S
N1320 H1327 0.984 . S
N1321 C1314 1.356 . S
N1321 H1324 0.984 . S
N1321 H1325 0.985 . S
H1322 N1317 0.984 . S
H1323 N1317 0.985 . S
H1324 N1321 0.984 . S
H1325 N1321 0.985 . S
H1326 N1320 0.984 . S
H1327 N1320 0.984 . S
H1328 N1316 0.984 . S
H1329 N1316 0.985 . S
C1330 C1331 1.363 . S
C1330 C1336 1.379 . S
C1330 N1338 1.356 . S
C1331 C1330 1.363 . S
C1331 C1337 1.363 . S
C1332 C1333 1.363 . S
C1332 C1337 1.379 . S
C1332 N1339 1.356 . S
C1333 C1332 1.363 . S
C1333 C1336 1.363 . S
N1334 C1336 1.356 . S
N1334 H1346 0.984 . S
N1334 H1347 0.985 . S
N1335 C1337 1.356 . S
N1335 H1340 0.984 . S
N1335 H1341 0.985 . S
C1336 C1330 1.379 . S
C1336 C1333 1.363 . S
C1336 N1334 1.356 . S
C1337 C1331 1.363 . S
C1337 C1332 1.379 . S
C1337 N1335 1.356 . S
N1338 C1330 1.356 . S
N1338 H1344 0.984 . S
N1338 H1345 0.984 . S
N1339 C1332 1.356 . S
N1339 H1342 0.984 . S
N1339 H1343 0.985 . S
H1340 N1335 0.984 . S
H1341 N1335 0.985 . S
H1342 N1339 0.984 . S
H1343 N1339 0.985 . S
H1344 N1338 0.984 . S
H1345 N1338 0.984 . S
H1346 N1334 0.984 . S
H1347 N1334 0.985 . S
C1348 C1349 1.363 . S
C1348 C1354 1.379 . S
C1348 N1356 1.356 . S
C1349 C1348 1.363 . S
C1349 C1355 1.363 . S
C1350 C1351 1.363 . S
C1350 C1355 1.379 . S
C1350 N1357 1.356 . S
C1351 C1350 1.363 . S
C1351 C1354 1.363 . S
N1352 C1354 1.356 . S
N1352 H1364 0.984 . S
N1352 H1365 0.985 . S
N1353 C1355 1.356 . S
N1353 H1358 0.984 . S
N1353 H1359 0.985 . S
C1354 C1348 1.379 . S
C1354 C1351 1.363 . S
C1354 N1352 1.356 . S
C1355 C1349 1.363 . S
C1355 C1350 1.379 . S
C1355 N1353 1.356 . S
N1356 C1348 1.356 . S
N1356 H1362 0.984 . S
N1356 H1363 0.984 . S
N1357 C1350 1.356 . S
N1357 H1360 0.984 . S
N1357 H1361 0.985 . S
H1358 N1353 0.984 . S
H1359 N1353 0.985 . S
H1360 N1357 0.984 . S
H1361 N1357 0.985 . S
H1362 N1356 0.984 . S
H1363 N1356 0.984 . S
H1364 N1352 0.984 . S
H1365 N1352 0.985 . S
C1366 C1367 1.363 . S
C1366 C1372 1.379 . S
C1366 N1374 1.356 . S
C1367 C1366 1.363 . S
C1367 C1373 1.363 . S
C1368 C1369 1.363 . S
C1368 C1373 1.379 . S
C1368 N1375 1.356 . S
C1369 C1368 1.363 . S
C1369 C1372 1.363 . S
N1370 C1372 1.356 . S
N1370 H1382 0.984 . S
N1370 H1383 0.985 . S
N1371 C1373 1.356 . S
N1371 H1376 0.984 . S
N1371 H1377 0.985 . S
C1372 C1366 1.379 . S
C1372 C1369 1.363 . S
C1372 N1370 1.356 . S
C1373 C1367 1.363 . S
C1373 C1368 1.379 . S
C1373 N1371 1.356 . S
N1374 C1366 1.356 . S
N1374 H1380 0.984 . S
N1374 H1381 0.984 . S
N1375 C1368 1.356 . S
N1375 H1378 0.984 . S
N1375 H1379 0.985 . S
H1376 N1371 0.984 . S
H1377 N1371 0.985 . S
H1378 N1375 0.984 . S
H1379 N1375 0.985 . S
H1380 N1374 0.984 . S
H1381 N1374 0.984 . S
H1382 N1370 0.984 . S
H1383 N1370 0.985 . S
C1384 C1385 1.363 . S
C1384 C1390 1.379 . S
C1384 N1392 1.356 . S
C1385 C1384 1.363 . S
C1385 C1391 1.363 . S
C1386 C1387 1.363 . S
C1386 C1391 1.379 . S
C1386 N1393 1.356 . S
C1387 C1386 1.363 . S
C1387 C1390 1.363 . S
N1388 C1390 1.356 . S
N1388 H1400 0.984 . S
N1388 H1401 0.985 . S
N1389 C1391 1.356 . S
N1389 H1394 0.984 . S
N1389 H1395 0.985 . S
C1390 C1384 1.379 . S
C1390 C1387 1.363 . S
C1390 N1388 1.356 . S
C1391 C1385 1.363 . S
C1391 C1386 1.379 . S
C1391 N1389 1.356 . S
N1392 C1384 1.356 . S
N1392 H1398 0.984 . S
N1392 H1399 0.984 . S
N1393 C1386 1.356 . S
N1393 H1396 0.984 . S
N1393 H1397 0.985 . S
H1394 N1389 0.984 . S
H1395 N1389 0.985 . S
H1396 N1393 0.984 . S
H1397 N1393 0.985 . S
H1398 N1392 0.984 . S
H1399 N1392 0.984 . S
H1400 N1388 0.984 . S
H1401 N1388 0.985 . S
C1402 C1403 1.363 . S
C1402 C1408 1.379 . S
C1402 N1410 1.356 . S
C1403 C1402 1.363 . S
C1403 C1409 1.363 . S
C1404 C1405 1.363 . S
C1404 C1409 1.379 . S
C1404 N1411 1.356 . S
C1405 C1404 1.363 . S
C1405 C1408 1.363 . S
N1406 C1408 1.356 . S
N1406 H1418 0.984 . S
N1406 H1419 0.985 . S
N1407 C1409 1.356 . S
N1407 H1412 0.984 . S
N1407 H1413 0.985 . S
C1408 C1402 1.379 . S
C1408 C1405 1.363 . S
C1408 N1406 1.356 . S
C1409 C1403 1.363 . S
C1409 C1404 1.379 . S
C1409 N1407 1.356 . S
N1410 C1402 1.356 . S
N1410 H1416 0.984 . S
N1410 H1417 0.984 . S
N1411 C1404 1.356 . S
N1411 H1414 0.984 . S
N1411 H1415 0.985 . S
H1412 N1407 0.984 . S
H1413 N1407 0.985 . S
H1414 N1411 0.984 . S
H1415 N1411 0.985 . S
H1416 N1410 0.984 . S
H1417 N1410 0.984 . S
H1418 N1406 0.984 . S
H1419 N1406 0.985 . S
C1420 C1421 1.363 . S
C1420 C1426 1.379 . S
C1420 N1428 1.356 . S
C1421 C1420 1.363 . S
C1421 C1427 1.363 . S
C1422 C1423 1.363 . S
C1422 C1427 1.379 . S
C1422 N1429 1.356 . S
C1423 C1422 1.363 . S
C1423 C1426 1.363 . S
N1424 C1426 1.356 . S
N1424 H1436 0.984 . S
N1424 H1437 0.985 . S
N1425 C1427 1.356 . S
N1425 H1430 0.984 . S
N1425 H1431 0.985 . S
C1426 C1420 1.379 . S
C1426 C1423 1.363 . S
C1426 N1424 1.356 . S
C1427 C1421 1.363 . S
C1427 C1422 1.379 . S
C1427 N1425 1.356 . S
N1428 C1420 1.356 . S
N1428 H1434 0.984 . S
N1428 H1435 0.984 . S
N1429 C1422 1.356 . S
N1429 H1432 0.984 . S
N1429 H1433 0.985 . S
H1430 N1425 0.984 . S
H1431 N1425 0.985 . S
H1432 N1429 0.984 . S
H1433 N1429 0.985 . S
H1434 N1428 0.984 . S
H1435 N1428 0.984 . S
H1436 N1424 0.984 . S
H1437 N1424 0.985 . S
C1438 C1439 1.363 . S
C1438 C1444 1.379 . S
C1438 N1446 1.356 . S
C1439 C1438 1.363 . S
C1439 C1445 1.363 . S
C1440 C1441 1.363 . S
C1440 C1445 1.379 . S
C1440 N1447 1.356 . S
C1441 C1440 1.363 . S
C1441 C1444 1.363 . S
N1442 C1444 1.356 . S
N1442 H1454 0.984 . S
N1442 H1455 0.985 . S
N1443 C1445 1.356 . S
N1443 H1448 0.984 . S
N1443 H1449 0.985 . S
C1444 C1438 1.379 . S
C1444 C1441 1.363 . S
C1444 N1442 1.356 . S
C1445 C1439 1.363 . S
C1445 C1440 1.379 . S
C1445 N1443 1.356 . S
N1446 C1438 1.356 . S
N1446 H1452 0.984 . S
N1446 H1453 0.984 . S
N1447 C1440 1.356 . S
N1447 H1450 0.984 . S
N1447 H1451 0.985 . S
H1448 N1443 0.984 . S
H1449 N1443 0.985 . S
H1450 N1447 0.984 . S
H1451 N1447 0.985 . S
H1452 N1446 0.984 . S
H1453 N1446 0.984 . S
H1454 N1442 0.984 . S
H1455 N1442 0.985 . S
C1456 C1457 1.363 . S
C1456 C1462 1.379 . S
C1456 N1464 1.356 . S
C1457 C1456 1.363 . S
C1457 C1463 1.363 . S
C1458 C1459 1.363 . S
C1458 C1463 1.379 . S
C1458 N1465 1.356 . S
C1459 C1458 1.363 . S
C1459 C1462 1.363 . S
N1460 C1462 1.356 1_655 S
N1460 H1472 0.984 . S
N1460 H1473 0.985 . S
N1461 C1463 1.356 . S
N1461 H1466 0.984 . S
N1461 H1467 0.985 . S
C1462 C1456 1.379 . S
C1462 C1459 1.363 . S
C1462 N1460 1.356 1_455 S
C1463 C1457 1.363 . S
C1463 C1458 1.379 . S
C1463 N1461 1.356 . S
N1464 C1456 1.356 . S
N1464 H1470 0.984 1_455 S
N1464 H1471 0.985 . S
N1465 C1458 1.356 . S
N1465 H1468 0.984 . S
N1465 H1469 0.985 . S
H1466 N1461 0.984 . S
H1467 N1461 0.985 . S
H1468 N1465 0.984 . S
H1469 N1465 0.985 . S
H1470 N1464 0.984 1_655 S
H1471 N1464 0.985 . S
H1472 N1460 0.984 . S
H1473 N1460 0.985 . S
C1474 C1475 1.363 . S
C1474 C1480 1.379 . S
C1474 N1482 1.356 . S
C1475 C1474 1.363 . S
C1475 C1481 1.363 . S
C1476 C1477 1.363 . S
C1476 C1481 1.379 . S
C1476 N1483 1.356 . S
C1477 C1476 1.363 . S
C1477 C1480 1.363 . S
N1478 C1480 1.356 . S
N1478 H1490 0.984 . S
N1478 H1491 0.985 . S
N1479 C1481 1.356 . S
N1479 H1484 0.984 . S
N1479 H1485 0.985 . S
C1480 C1474 1.379 . S
C1480 C1477 1.363 . S
C1480 N1478 1.356 . S
C1481 C1475 1.363 . S
C1481 C1476 1.379 . S
C1481 N1479 1.356 . S
N1482 C1474 1.356 . S
N1482 H1488 0.984 . S
N1482 H1489 0.984 . S
N1483 C1476 1.356 . S
N1483 H1486 0.984 . S
N1483 H1487 0.985 . S
H1484 N1479 0.984 . S
H1485 N1479 0.985 . S
H1486 N1483 0.984 . S
H1487 N1483 0.985 . S
H1488 N1482 0.984 . S
H1489 N1482 0.984 . S
H1490 N1478 0.984 . S
H1491 N1478 0.985 . S
C1492 C1493 1.363 . S
C1492 C1498 1.379 . S
C1492 N1500 1.356 . S
C1493 C1492 1.363 . S
C1493 C1499 1.363 . S
C1494 C1495 1.363 . S
C1494 C1499 1.379 . S
C1494 N1501 1.356 1_556 S
C1495 C1494 1.363 . S
C1495 C1498 1.363 . S
N1496 C1498 1.356 1_545 S
N1496 H1508 0.984 . S
N1496 H1509 0.985 . S
N1497 C1499 1.356 . S
N1497 H1502 0.984 . S
N1497 H1503 0.985 . S
C1498 C1492 1.379 . S
C1498 C1495 1.363 . S
C1498 N1496 1.356 1_565 S
C1499 C1493 1.363 . S
C1499 C1494 1.379 . S
C1499 N1497 1.356 . S
N1500 C1492 1.356 . S
N1500 H1506 0.984 . S
N1500 H1507 0.984 . S
N1501 C1494 1.356 1_554 S
N1501 H1504 0.984 . S
N1501 H1505 0.985 . S
H1502 N1497 0.984 . S
H1503 N1497 0.985 . S
H1504 N1501 0.984 . S
H1505 N1501 0.985 . S
H1506 N1500 0.984 . S
H1507 N1500 0.984 . S
H1508 N1496 0.984 . S
H1509 N1496 0.985 . S
C1510 C1511 1.363 . S
C1510 C1516 1.379 . S
C1510 N1518 1.356 . S
C1511 C1510 1.363 . S
C1511 C1517 1.363 . S
C1512 C1513 1.363 . S
C1512 C1517 1.379 . S
C1512 N1519 1.356 . S
C1513 C1512 1.363 . S
C1513 C1516 1.363 . S
N1514 C1516 1.356 . S
N1514 H1526 0.984 . S
N1514 H1527 0.985 . S
N1515 C1517 1.356 . S
N1515 H1520 0.984 . S
N1515 H1521 0.985 . S
C1516 C1510 1.379 . S
C1516 C1513 1.363 . S
C1516 N1514 1.356 . S
C1517 C1511 1.363 . S
C1517 C1512 1.379 . S
C1517 N1515 1.356 . S
N1518 C1510 1.356 . S
N1518 H1524 0.984 . S
N1518 H1525 0.984 . S
N1519 C1512 1.356 . S
N1519 H1522 0.984 . S
N1519 H1523 0.985 . S
H1520 N1515 0.984 . S
H1521 N1515 0.985 . S
H1522 N1519 0.984 . S
H1523 N1519 0.985 . S
H1524 N1518 0.984 . S
H1525 N1518 0.984 . S
H1526 N1514 0.984 . S
H1527 N1514 0.985 . S
C1528 C1529 1.363 . S
C1528 C1534 1.379 . S
C1528 N1536 1.356 . S
C1529 C1528 1.363 . S
C1529 C1535 1.363 . S
C1530 C1531 1.363 . S
C1530 C1535 1.379 . S
C1530 N1537 1.356 . S
C1531 C1530 1.363 . S
C1531 C1534 1.363 . S
N1532 C1534 1.356 . S
N1532 H1544 0.984 1_545 S
N1532 H1545 0.985 . S
N1533 C1535 1.356 . S
N1533 H1538 0.984 . S
N1533 H1539 0.985 . S
C1534 C1528 1.379 . S
C1534 C1531 1.363 . S
C1534 N1532 1.356 . S
C1535 C1529 1.363 . S
C1535 C1530 1.379 . S
C1535 N1533 1.356 . S
N1536 C1528 1.356 . S
N1536 H1542 0.984 . S
N1536 H1543 0.984 . S
N1537 C1530 1.356 . S
N1537 H1540 0.984 1_556 S
N1537 H1541 0.985 . S
H1538 N1533 0.984 . S
H1539 N1533 0.985 . S
H1540 N1537 0.984 1_554 S
H1541 N1537 0.985 . S
H1542 N1536 0.984 . S
H1543 N1536 0.984 . S
H1544 N1532 0.984 1_565 S
H1545 N1532 0.985 . S
C1546 C1547 1.363 . S
C1546 C1552 1.379 . S
C1546 N1554 1.356 . S
C1547 C1546 1.363 . S
C1547 C1553 1.363 . S
C1548 C1549 1.363 . S
C1548 C1553 1.379 . S
C1548 N1555 1.356 . S
C1549 C1548 1.363 . S
C1549 C1552 1.363 . S
N1550 C1552 1.356 . S
N1550 H1562 0.984 . S
N1550 H1563 0.985 . S
N1551 C1553 1.356 . S
N1551 H1556 0.984 . S
N1551 H1557 0.985 . S
C1552 C1546 1.379 . S
C1552 C1549 1.363 . S
C1552 N1550 1.356 . S
C1553 C1547 1.363 . S
C1553 C1548 1.379 . S
C1553 N1551 1.356 . S
N1554 C1546 1.356 . S
N1554 H1560 0.984 . S
N1554 H1561 0.984 . S
N1555 C1548 1.356 . S
N1555 H1558 0.984 . S
N1555 H1559 0.985 . S
H1556 N1551 0.984 . S
H1557 N1551 0.985 . S
H1558 N1555 0.984 . S
H1559 N1555 0.985 . S
H1560 N1554 0.984 . S
H1561 N1554 0.984 . S
H1562 N1550 0.984 . S
H1563 N1550 0.985 . S
C1564 C1565 1.363 . S
C1564 C1570 1.379 . S
C1564 N1572 1.356 . S
C1565 C1564 1.363 . S
C1565 C1571 1.363 . S
C1566 C1567 1.363 . S
C1566 C1571 1.379 . S
C1566 N1573 1.356 . S
C1567 C1566 1.363 . S
C1567 C1570 1.363 . S
N1568 C1570 1.356 . S
N1568 H1580 0.984 . S
N1568 H1581 0.985 . S
N1569 C1571 1.356 1_565 S
N1569 H1574 0.984 . S
N1569 H1575 0.985 . S
C1570 C1564 1.379 . S
C1570 C1567 1.363 . S
C1570 N1568 1.356 . S
C1571 C1565 1.363 . S
C1571 C1566 1.379 . S
C1571 N1569 1.356 1_545 S
N1572 C1564 1.356 . S
N1572 H1578 0.984 . S
N1572 H1579 0.984 . S
N1573 C1566 1.356 . S
N1573 H1576 0.984 . S
N1573 H1577 0.985 . S
H1574 N1569 0.984 . S
H1575 N1569 0.985 . S
H1576 N1573 0.984 . S
H1577 N1573 0.985 . S
H1578 N1572 0.984 . S
H1579 N1572 0.984 . S
H1580 N1568 0.984 . S
H1581 N1568 0.985 . S
C1582 C1583 1.363 . S
C1582 C1588 1.379 . S
C1582 N1590 1.356 . S
C1583 C1582 1.363 . S
C1583 C1589 1.363 . S
C1584 C1585 1.363 . S
C1584 C1589 1.379 . S
C1584 N1591 1.356 . S
C1585 C1584 1.363 . S
C1585 C1588 1.363 . S
N1586 C1588 1.356 . S
N1586 H1598 0.984 . S
N1586 H1599 0.985 . S
N1587 C1589 1.356 . S
N1587 H1592 0.984 . S
N1587 H1593 0.985 . S
C1588 C1582 1.379 . S
C1588 C1585 1.363 . S
C1588 N1586 1.356 . S
C1589 C1583 1.363 . S
C1589 C1584 1.379 . S
C1589 N1587 1.356 . S
N1590 C1582 1.356 . S
N1590 H1596 0.984 . S
N1590 H1597 0.984 . S
N1591 C1584 1.356 . S
N1591 H1594 0.984 . S
N1591 H1595 0.985 . S
H1592 N1587 0.984 . S
H1593 N1587 0.985 . S
H1594 N1591 0.984 . S
H1595 N1591 0.985 . S
H1596 N1590 0.984 . S
H1597 N1590 0.984 . S
H1598 N1586 0.984 . S
H1599 N1586 0.985 . S
C1600 C1601 1.363 . S
C1600 C1606 1.379 . S
C1600 N1608 1.356 . S
C1601 C1600 1.363 . S
C1601 C1607 1.363 . S
C1602 C1603 1.363 . S
C1602 C1607 1.379 . S
C1602 N1609 1.356 . S
C1603 C1602 1.363 . S
C1603 C1606 1.363 . S
N1604 C1606 1.356 . S
N1604 H1616 0.984 . S
N1604 H1617 0.985 . S
N1605 C1607 1.356 . S
N1605 H1610 0.984 . S
N1605 H1611 0.985 . S
C1606 C1600 1.379 . S
C1606 C1603 1.363 . S
C1606 N1604 1.356 . S
C1607 C1601 1.363 . S
C1607 C1602 1.379 . S
C1607 N1605 1.356 . S
N1608 C1600 1.356 . S
N1608 H1614 0.984 . S
N1608 H1615 0.984 . S
N1609 C1602 1.356 . S
N1609 H1612 0.984 . S
N1609 H1613 0.985 . S
H1610 N1605 0.984 . S
H1611 N1605 0.985 . S
H1612 N1609 0.984 . S
H1613 N1609 0.985 . S
H1614 N1608 0.984 . S
H1615 N1608 0.984 . S
H1616 N1604 0.984 . S
H1617 N1604 0.985 . S
C1618 C1619 1.363 . S
C1618 C1624 1.379 . S
C1618 N1626 1.356 . S
C1619 C1618 1.363 . S
C1619 C1625 1.363 . S
C1620 C1621 1.363 . S
C1620 C1625 1.379 . S
C1620 N1627 1.356 . S
C1621 C1620 1.363 . S
C1621 C1624 1.363 . S
N1622 C1624 1.356 . S
N1622 H1634 0.984 . S
N1622 H1635 0.985 . S
N1623 C1625 1.356 . S
N1623 H1628 0.984 . S
N1623 H1629 0.985 . S
C1624 C1618 1.379 . S
C1624 C1621 1.363 . S
C1624 N1622 1.356 . S
C1625 C1619 1.363 . S
C1625 C1620 1.379 . S
C1625 N1623 1.356 . S
N1626 C1618 1.356 . S
N1626 H1632 0.984 . S
N1626 H1633 0.984 . S
N1627 C1620 1.356 . S
N1627 H1630 0.984 . S
N1627 H1631 0.985 . S
H1628 N1623 0.984 . S
H1629 N1623 0.985 . S
H1630 N1627 0.984 . S
H1631 N1627 0.985 . S
H1632 N1626 0.984 . S
H1633 N1626 0.984 . S
H1634 N1622 0.984 . S
H1635 N1622 0.985 . S
C1636 C1637 1.363 . S
C1636 C1642 1.379 . S
C1636 N1644 1.356 . S
C1637 C1636 1.363 . S
C1637 C1643 1.363 1_545 S
C1638 C1639 1.363 . S
C1638 C1643 1.379 . S
C1638 N1645 1.356 . S
C1639 C1638 1.363 . S
C1639 C1642 1.363 1_565 S
N1640 C1642 1.356 . S
N1640 H1652 0.984 . S
N1640 H1653 0.985 . S
N1641 C1643 1.356 . S
N1641 H1646 0.984 . S
N1641 H1647 0.985 . S
C1642 C1636 1.379 . S
C1642 C1639 1.363 1_545 S
C1642 N1640 1.356 . S
C1643 C1637 1.363 1_565 S
C1643 C1638 1.379 . S
C1643 N1641 1.356 . S
N1644 C1636 1.356 . S
N1644 H1650 0.984 . S
N1644 H1651 0.984 . S
N1645 C1638 1.356 . S
N1645 H1648 0.984 . S
N1645 H1649 0.985 . S
H1646 N1641 0.984 . S
H1647 N1641 0.985 . S
H1648 N1645 0.984 . S
H1649 N1645 0.985 . S
H1650 N1644 0.984 . S
H1651 N1644 0.984 . S
H1652 N1640 0.984 . S
H1653 N1640 0.985 . S
C1654 C1655 1.363 . S
C1654 C1660 1.379 . S
C1654 N1662 1.356 . S
C1655 C1654 1.363 . S
C1655 C1661 1.363 . S
C1656 C1657 1.363 . S
C1656 C1661 1.379 . S
C1656 N1663 1.356 . S
C1657 C1656 1.363 . S
C1657 C1660 1.363 . S
N1658 C1660 1.356 . S
N1658 H1670 0.984 . S
N1658 H1671 0.985 . S
N1659 C1661 1.356 . S
N1659 H1664 0.984 . S
N1659 H1665 0.985 . S
C1660 C1654 1.379 . S
C1660 C1657 1.363 . S
C1660 N1658 1.356 . S
C1661 C1655 1.363 . S
C1661 C1656 1.379 . S
C1661 N1659 1.356 . S
N1662 C1654 1.356 . S
N1662 H1668 0.984 . S
N1662 H1669 0.984 . S
N1663 C1656 1.356 . S
N1663 H1666 0.984 . S
N1663 H1667 0.985 . S
H1664 N1659 0.984 . S
H1665 N1659 0.985 . S
H1666 N1663 0.984 . S
H1667 N1663 0.985 . S
H1668 N1662 0.984 . S
H1669 N1662 0.984 . S
H1670 N1658 0.984 . S
H1671 N1658 0.985 . S
C1672 C1673 1.363 . S
C1672 C1678 1.379 . S
C1672 N1680 1.356 . S
C1673 C1672 1.363 . S
C1673 C1679 1.363 . S
C1674 C1675 1.363 . S
C1674 C1679 1.379 . S
C1674 N1681 1.356 . S
C1675 C1674 1.363 . S
C1675 C1678 1.363 . S
N1676 C1678 1.356 . S
N1676 H1688 0.984 . S
N1676 H1689 0.984 . S
N1677 C1679 1.356 . S
N1677 H1682 0.984 . S
N1677 H1683 0.985 . S
C1678 C1672 1.379 . S
C1678 C1675 1.363 . S
C1678 N1676 1.356 . S
C1679 C1673 1.363 . S
C1679 C1674 1.379 . S
C1679 N1677 1.356 . S
N1680 C1672 1.356 . S
N1680 H1686 0.984 . S
N1680 H1687 0.984 . S
N1681 C1674 1.356 . S
N1681 H1684 0.984 . S
N1681 H1685 0.985 . S
H1682 N1677 0.984 . S
H1683 N1677 0.985 . S
H1684 N1681 0.984 . S
H1685 N1681 0.985 . S
H1686 N1680 0.984 . S
H1687 N1680 0.984 . S
H1688 N1676 0.984 . S
H1689 N1676 0.984 . S
C1690 C1691 1.363 . S
C1690 C1696 1.379 . S
C1690 N1698 1.356 . S
C1691 C1690 1.363 . S
C1691 C1697 1.363 . S
C1692 C1693 1.363 . S
C1692 C1697 1.379 . S
C1692 N1699 1.356 . S
C1693 C1692 1.363 . S
C1693 C1696 1.363 . S
N1694 C1696 1.356 . S
N1694 H1706 0.984 . S
N1694 H1707 0.985 . S
N1695 C1697 1.356 . S
N1695 H1700 0.984 . S
N1695 H1701 0.985 1_554 S
C1696 C1690 1.379 . S
C1696 C1693 1.363 . S
C1696 N1694 1.356 . S
C1697 C1691 1.363 . S
C1697 C1692 1.379 . S
C1697 N1695 1.356 . S
N1698 C1690 1.356 . S
N1698 H1704 0.984 . S
N1698 H1705 0.984 . S
N1699 C1692 1.356 . S
N1699 H1702 0.984 . S
N1699 H1703 0.985 1_554 S
H1700 N1695 0.984 . S
H1701 N1695 0.985 1_556 S
H1702 N1699 0.984 . S
H1703 N1699 0.985 1_556 S
H1704 N1698 0.984 . S
H1705 N1698 0.984 . S
H1706 N1694 0.984 . S
H1707 N1694 0.985 . S
C1708 C1709 1.363 . S
C1708 C1714 1.379 . S
C1708 N1716 1.356 . S
C1709 C1708 1.363 . S
C1709 C1715 1.363 . S
C1710 C1711 1.363 . S
C1710 C1715 1.379 . S
C1710 N1717 1.356 . S
C1711 C1710 1.363 . S
C1711 C1714 1.363 . S
N1712 C1714 1.356 . S
N1712 H1724 0.984 . S
N1712 H1725 0.985 . S
N1713 C1715 1.356 . S
N1713 H1718 0.984 . S
N1713 H1719 0.985 . S
C1714 C1708 1.379 . S
C1714 C1711 1.363 . S
C1714 N1712 1.356 . S
C1715 C1709 1.363 . S
C1715 C1710 1.379 . S
C1715 N1713 1.356 . S
N1716 C1708 1.356 . S
N1716 H1722 0.984 . S
N1716 H1723 0.984 . S
N1717 C1710 1.356 . S
N1717 H1720 0.984 . S
N1717 H1721 0.985 . S
H1718 N1713 0.984 . S
H1719 N1713 0.985 . S
H1720 N1717 0.984 . S
H1721 N1717 0.985 . S
H1722 N1716 0.984 . S
H1723 N1716 0.984 . S
H1724 N1712 0.984 . S
H1725 N1712 0.985 . S
C1726 C1727 1.363 . S
C1726 C1732 1.379 . S
C1726 N1734 1.356 . S
C1727 C1726 1.363 . S
C1727 C1733 1.363 . S
C1728 C1729 1.363 . S
C1728 C1733 1.379 . S
C1728 N1735 1.356 . S
C1729 C1728 1.363 . S
C1729 C1732 1.363 . S
N1730 C1732 1.356 . S
N1730 H1742 0.984 . S
N1730 H1743 0.985 . S
N1731 C1733 1.356 . S
N1731 H1736 0.984 . S
N1731 H1737 0.985 . S
C1732 C1726 1.379 . S
C1732 C1729 1.363 . S
C1732 N1730 1.356 . S
C1733 C1727 1.363 . S
C1733 C1728 1.379 . S
C1733 N1731 1.356 . S
N1734 C1726 1.356 . S
N1734 H1740 0.984 . S
N1734 H1741 0.984 . S
N1735 C1728 1.356 . S
N1735 H1738 0.984 . S
N1735 H1739 0.985 . S
H1736 N1731 0.984 . S
H1737 N1731 0.985 . S
H1738 N1735 0.984 . S
H1739 N1735 0.985 . S
H1740 N1734 0.984 . S
H1741 N1734 0.984 . S
H1742 N1730 0.984 . S
H1743 N1730 0.985 . S
C1744 C1745 1.363 . S
C1744 C1750 1.379 . S
C1744 N1752 1.356 . S
C1745 C1744 1.363 . S
C1745 C1751 1.363 . S
C1746 C1747 1.363 . S
C1746 C1751 1.379 . S
C1746 N1753 1.350 1_545 S
C1747 C1746 1.363 . S
C1747 C1750 1.363 . S
N1748 C1750 1.356 . S
N1748 H1760 0.984 . S
N1748 H1761 0.985 1_545 S
N1749 C1751 1.356 . S
N1749 H1754 0.984 . S
N1749 H1755 0.985 . S
C1750 C1744 1.379 . S
C1750 C1747 1.363 . S
C1750 N1748 1.356 . S
C1751 C1745 1.363 . S
C1751 C1746 1.379 . S
C1751 N1749 1.356 . S
N1752 C1744 1.356 . S
N1752 H1758 0.984 . S
N1752 H1759 0.984 . S
N1753 C1746 1.350 1_565 S
N1753 H1756 0.995 . S
N1753 H1757 0.980 1_565 S
H1754 N1749 0.984 . S
H1755 N1749 0.985 . S
H1756 N1753 0.995 . S
H1757 N1753 0.980 1_545 S
H1758 N1752 0.984 . S
H1759 N1752 0.984 . S
H1760 N1748 0.984 . S
H1761 N1748 0.985 1_565 S
C1762 C1763 1.363 . S
C1762 C1768 1.379 . S
C1762 N1770 1.356 . S
C1763 C1762 1.363 . S
C1763 C1769 1.363 . S
C1764 C1765 1.363 . S
C1764 C1769 1.379 . S
C1764 N1771 1.356 . S
C1765 C1764 1.363 . S
C1765 C1768 1.363 . S
N1766 C1768 1.356 . S
N1766 H1778 0.984 . S
N1766 H1779 0.985 . S
N1767 C1769 1.356 . S
N1767 H1772 0.984 . S
N1767 H1773 0.985 . S
C1768 C1762 1.379 . S
C1768 C1765 1.363 . S
C1768 N1766 1.356 . S
C1769 C1763 1.363 . S
C1769 C1764 1.379 . S
C1769 N1767 1.356 . S
N1770 C1762 1.356 . S
N1770 H1776 0.984 . S
N1770 H1777 0.984 . S
N1771 C1764 1.356 . S
N1771 H1774 0.984 . S
N1771 H1775 0.985 1_565 S
H1772 N1767 0.984 . S
H1773 N1767 0.985 . S
H1774 N1771 0.984 . S
H1775 N1771 0.985 1_545 S
H1776 N1770 0.984 . S
H1777 N1770 0.984 . S
H1778 N1766 0.984 . S
H1779 N1766 0.985 . S
C1780 C1781 1.363 . S
C1780 C1786 1.379 . S
C1780 N1788 1.356 . S
C1781 C1780 1.363 . S
C1781 C1787 1.363 . S
C1782 C1783 1.363 . S
C1782 C1787 1.379 . S
C1782 N1789 1.356 . S
C1783 C1782 1.363 . S
C1783 C1786 1.363 . S
N1784 C1786 1.356 . S
N1784 H1796 0.984 . S
N1784 H1797 0.985 . S
N1785 C1787 1.356 . S
N1785 H1790 0.984 . S
N1785 H1791 0.985 . S
C1786 C1780 1.379 . S
C1786 C1783 1.363 . S
C1786 N1784 1.356 . S
C1787 C1781 1.363 . S
C1787 C1782 1.379 . S
C1787 N1785 1.356 . S
N1788 C1780 1.356 . S
N1788 H1794 0.984 . S
N1788 H1795 0.984 . S
N1789 C1782 1.356 . S
N1789 H1792 0.984 . S
N1789 H1793 0.985 . S
H1790 N1785 0.984 . S
H1791 N1785 0.985 . S
H1792 N1789 0.984 . S
H1793 N1789 0.985 . S
H1794 N1788 0.984 . S
H1795 N1788 0.984 . S
H1796 N1784 0.984 . S
H1797 N1784 0.985 . S
C1798 C1799 1.363 . S
C1798 C1804 1.379 . S
C1798 N1806 1.356 . S
C1799 C1798 1.363 . S
C1799 C1805 1.363 . S
C1800 C1801 1.363 . S
C1800 C1805 1.379 . S
C1800 N1807 1.356 . S
C1801 C1800 1.363 . S
C1801 C1804 1.363 . S
N1802 C1804 1.356 . S
N1802 H1814 0.984 . S
N1802 H1815 0.985 . S
N1803 C1805 1.356 . S
N1803 H1808 0.984 . S
N1803 H1809 0.985 . S
C1804 C1798 1.379 . S
C1804 C1801 1.363 . S
C1804 N1802 1.356 . S
C1805 C1799 1.363 . S
C1805 C1800 1.379 . S
C1805 N1803 1.356 . S
N1806 C1798 1.356 . S
N1806 H1812 0.984 . S
N1806 H1813 0.984 . S
N1807 C1800 1.356 . S
N1807 H1810 0.984 . S
N1807 H1811 0.985 . S
H1808 N1803 0.984 . S
H1809 N1803 0.985 . S
H1810 N1807 0.984 . S
H1811 N1807 0.985 . S
H1812 N1806 0.984 . S
H1813 N1806 0.984 . S
H1814 N1802 0.984 . S
H1815 N1802 0.985 . S
C1816 C1817 1.363 . S
C1816 C1822 1.379 . S
C1816 N1824 1.356 . S
C1817 C1816 1.363 . S
C1817 C1823 1.363 . S
C1818 C1819 1.363 . S
C1818 C1823 1.379 . S
C1818 N1825 1.356 . S
C1819 C1818 1.363 . S
C1819 C1822 1.363 . S
N1820 C1822 1.356 . S
N1820 H1832 0.984 . S
N1820 H1833 0.985 . S
N1821 C1823 1.356 . S
N1821 H1826 0.984 . S
N1821 H1827 0.985 . S
C1822 C1816 1.379 . S
C1822 C1819 1.363 . S
C1822 N1820 1.356 . S
C1823 C1817 1.363 . S
C1823 C1818 1.379 . S
C1823 N1821 1.356 . S
N1824 C1816 1.356 . S
N1824 H1830 0.984 . S
N1824 H1831 0.984 . S
N1825 C1818 1.356 . S
N1825 H1828 0.984 . S
N1825 H1829 0.985 . S
H1826 N1821 0.984 . S
H1827 N1821 0.985 . S
H1828 N1825 0.984 . S
H1829 N1825 0.985 . S
H1830 N1824 0.984 . S
H1831 N1824 0.984 . S
H1832 N1820 0.984 . S
H1833 N1820 0.985 . S
C1834 C1835 1.363 . S
C1834 C1840 1.379 . S
C1834 N1842 1.356 . S
C1835 C1834 1.363 . S
C1835 C1841 1.363 . S
C1836 C1837 1.363 . S
C1836 C1841 1.379 . S
C1836 N1843 1.356 . S
C1837 C1836 1.363 . S
C1837 C1840 1.363 . S
N1838 C1840 1.356 . S
N1838 H1850 0.984 . S
N1838 H1851 0.985 . S
N1839 C1841 1.356 . S
N1839 H1844 0.984 . S
N1839 H1845 0.985 . S
C1840 C1834 1.379 . S
C1840 C1837 1.363 . S
C1840 N1838 1.356 . S
C1841 C1835 1.363 . S
C1841 C1836 1.379 . S
C1841 N1839 1.356 . S
N1842 C1834 1.356 . S
N1842 H1848 0.984 . S
N1842 H1849 0.984 . S
N1843 C1836 1.356 . S
N1843 H1846 0.984 . S
N1843 H1847 0.985 . S
H1844 N1839 0.984 . S
H1845 N1839 0.985 . S
H1846 N1843 0.984 . S
H1847 N1843 0.985 . S
H1848 N1842 0.984 . S
H1849 N1842 0.984 . S
H1850 N1838 0.984 . S
H1851 N1838 0.985 . S
C1852 C1853 1.363 1_655 S
C1852 C1858 1.379 . S
C1852 N1860 1.356 . S
C1853 C1852 1.363 1_455 S
C1853 C1859 1.363 . S
C1854 C1855 1.363 . S
C1854 C1859 1.379 . S
C1854 N1861 1.356 . S
C1855 C1854 1.363 . S
C1855 C1858 1.363 1_455 S
N1856 C1858 1.356 . S
N1856 H1868 0.984 . S
N1856 H1869 0.985 . S
N1857 C1859 1.356 . S
N1857 H1862 0.984 . S
N1857 H1863 0.985 . S
C1858 C1852 1.379 . S
C1858 C1855 1.363 1_655 S
C1858 N1856 1.356 . S
C1859 C1853 1.363 . S
C1859 C1854 1.379 . S
C1859 N1857 1.356 . S
N1860 C1852 1.356 . S
N1860 H1866 0.984 . S
N1860 H1867 0.984 . S
N1861 C1854 1.356 . S
N1861 H1864 0.984 . S
N1861 H1865 0.985 . S
H1862 N1857 0.984 . S
H1863 N1857 0.985 . S
H1864 N1861 0.984 . S
H1865 N1861 0.985 . S
H1866 N1860 0.984 . S
H1867 N1860 0.984 . S
H1868 N1856 0.984 . S
H1869 N1856 0.985 . S
C1870 C1871 1.363 1_455 S
C1870 C1876 1.379 1_455 S
C1870 N1878 1.356 . S
C1871 C1870 1.363 1_655 S
C1871 C1877 1.366 . S
C1872 C1873 1.363 . S
C1872 C1877 1.379 . S
C1872 N1879 1.356 . S
C1873 C1872 1.363 . S
C1873 C1876 1.363 . S
N1874 C1876 1.356 . S
N1874 H1886 0.984 1_655 S
N1874 H1887 0.985 . S
N1875 C1877 1.356 . S
N1875 H1880 0.984 . S
N1875 H1881 0.985 . S
C1876 C1870 1.379 1_655 S
C1876 C1873 1.363 . S
C1876 N1874 1.356 . S
C1877 C1871 1.366 . S
C1877 C1872 1.379 . S
C1877 N1875 1.356 . S
N1878 C1870 1.356 . S
N1878 H1884 0.984 . S
N1878 H1885 0.984 . S
N1879 C1872 1.356 . S
N1879 H1882 0.984 . S
N1879 H1883 0.985 . S
H1880 N1875 0.984 . S
H1881 N1875 0.985 . S
H1882 N1879 0.984 . S
H1883 N1879 0.985 . S
H1884 N1878 0.984 . S
H1885 N1878 0.984 . S
H1886 N1874 0.984 1_455 S
H1887 N1874 0.985 . S
C1888 C1889 1.363 . S
C1888 C1894 1.379 . S
C1888 N1896 1.356 . S
C1889 C1888 1.363 . S
C1889 C1895 1.363 . S
C1890 C1891 1.363 . S
C1890 C1895 1.379 . S
C1890 N1897 1.356 . S
C1891 C1890 1.363 . S
C1891 C1894 1.363 . S
N1892 C1894 1.356 . S
N1892 H1904 0.984 . S
N1892 H1905 0.985 . S
N1893 C1895 1.356 . S
N1893 H1898 0.984 . S
N1893 H1899 0.985 . S
C1894 C1888 1.379 . S
C1894 C1891 1.363 . S
C1894 N1892 1.356 . S
C1895 C1889 1.363 . S
C1895 C1890 1.379 . S
C1895 N1893 1.356 . S
N1896 C1888 1.356 . S
N1896 H1902 0.984 . S
N1896 H1903 0.984 . S
N1897 C1890 1.356 . S
N1897 H1900 0.984 . S
N1897 H1901 0.985 . S
H1898 N1893 0.984 . S
H1899 N1893 0.985 . S
H1900 N1897 0.984 . S
H1901 N1897 0.985 . S
H1902 N1896 0.984 . S
H1903 N1896 0.984 . S
H1904 N1892 0.984 . S
H1905 N1892 0.985 . S
C1906 C1907 1.363 . S
C1906 C1912 1.379 . S
C1906 N1914 1.356 . S
C1907 C1906 1.363 . S
C1907 C1913 1.363 . S
C1908 C1909 1.363 . S
C1908 C1913 1.379 . S
C1908 N1915 1.356 . S
C1909 C1908 1.363 . S
C1909 C1912 1.363 . S
N1910 C1912 1.356 . S
N1910 H1922 0.984 . S
N1910 H1923 0.985 . S
N1911 C1913 1.356 . S
N1911 H1916 0.984 . S
N1911 H1917 0.985 . S
C1912 C1906 1.379 . S
C1912 C1909 1.363 . S
C1912 N1910 1.356 . S
C1913 C1907 1.363 . S
C1913 C1908 1.379 . S
C1913 N1911 1.356 . S
N1914 C1906 1.356 . S
N1914 H1920 0.984 . S
N1914 H1921 0.984 . S
N1915 C1908 1.356 . S
N1915 H1918 0.984 . S
N1915 H1919 0.985 . S
H1916 N1911 0.984 . S
H1917 N1911 0.985 . S
H1918 N1915 0.984 . S
H1919 N1915 0.985 . S
H1920 N1914 0.984 . S
H1921 N1914 0.984 . S
H1922 N1910 0.984 . S
H1923 N1910 0.985 . S
C1924 C1925 1.363 . S
C1924 C1930 1.379 . S
C1924 N1932 1.356 . S
C1925 C1924 1.363 . S
C1925 C1931 1.363 . S
C1926 C1927 1.363 . S
C1926 C1931 1.379 . S
C1926 N1933 1.356 . S
C1927 C1926 1.363 . S
C1927 C1930 1.363 . S
N1928 C1930 1.356 . S
N1928 H1940 1.002 . S
N1928 H1941 0.985 . S
N1929 C1931 1.356 . S
N1929 H1934 0.984 . S
N1929 H1935 0.985 . S
C1930 C1924 1.379 . S
C1930 C1927 1.363 . S
C1930 N1928 1.356 . S
C1931 C1925 1.363 . S
C1931 C1926 1.379 . S
C1931 N1929 1.356 . S
N1932 C1924 1.356 . S
N1932 H1938 0.984 1_455 S
N1932 H1939 0.984 . S
N1933 C1926 1.356 . S
N1933 H1936 0.984 . S
N1933 H1937 0.985 . S
H1934 N1929 0.984 . S
H1935 N1929 0.985 . S
H1936 N1933 0.984 . S
H1937 N1933 0.985 . S
H1938 N1932 0.984 1_655 S
H1939 N1932 0.984 . S
H1940 N1928 1.002 . S
H1941 N1928 0.985 . S
C1942 C1943 1.363 . S
C1942 C1948 1.379 . S
C1942 N1950 1.356 . S
C1943 C1942 1.363 . S
C1943 C1949 1.363 . S
C1944 C1945 1.363 . S
C1944 C1949 1.379 . S
C1944 N1951 1.356 . S
C1945 C1944 1.363 . S
C1945 C1948 1.363 . S
N1946 C1948 1.356 . S
N1946 H1958 0.984 . S
N1946 H1959 0.985 . S
N1947 C1949 1.356 . S
N1947 H1952 0.984 . S
N1947 H1953 0.985 . S
C1948 C1942 1.379 . S
C1948 C1945 1.363 . S
C1948 N1946 1.356 . S
C1949 C1943 1.363 . S
C1949 C1944 1.379 . S
C1949 N1947 1.356 . S
N1950 C1942 1.356 . S
N1950 H1956 0.984 . S
N1950 H1957 0.984 . S
N1951 C1944 1.356 . S
N1951 H1954 0.984 . S
N1951 H1955 0.985 . S
H1952 N1947 0.984 . S
H1953 N1947 0.985 . S
H1954 N1951 0.984 . S
H1955 N1951 0.985 . S
H1956 N1950 0.984 . S
H1957 N1950 0.984 . S
H1958 N1946 0.984 . S
H1959 N1946 0.985 . S
C1960 C1961 1.363 . S
C1960 C1966 1.379 . S
C1960 N1968 1.356 . S
C1961 C1960 1.363 . S
C1961 C1967 1.363 . S
C1962 C1963 1.363 . S
C1962 C1967 1.379 . S
C1962 N1969 1.356 . S
C1963 C1962 1.363 . S
C1963 C1966 1.363 . S
N1964 C1966 1.356 . S
N1964 H1976 0.984 . S
N1964 H1977 0.985 . S
N1965 C1967 1.356 . S
N1965 H1970 0.984 . S
N1965 H1971 0.985 . S
C1966 C1960 1.379 . S
C1966 C1963 1.363 . S
C1966 N1964 1.356 . S
C1967 C1961 1.363 . S
C1967 C1962 1.379 . S
C1967 N1965 1.356 . S
N1968 C1960 1.356 . S
N1968 H1974 0.984 . S
N1968 H1975 0.984 . S
N1969 C1962 1.356 . S
N1969 H1972 0.984 . S
N1969 H1973 0.985 . S
H1970 N1965 0.984 . S
H1971 N1965 0.985 . S
H1972 N1969 0.984 . S
H1973 N1969 0.985 . S
H1974 N1968 0.984 . S
H1975 N1968 0.984 . S
H1976 N1964 0.984 . S
H1977 N1964 0.985 . S
C1978 C1979 1.363 . S
C1978 C1984 1.379 . S
C1978 N1986 1.356 . S
C1979 C1978 1.363 . S
C1979 C1985 1.363 . S
C1980 C1981 1.363 . S
C1980 C1985 1.379 . S
C1980 N1987 1.356 . S
C1981 C1980 1.363 . S
C1981 C1984 1.363 . S
N1982 C1984 1.356 . S
N1982 H1994 0.984 . S
N1982 H1995 0.985 . S
N1983 C1985 1.356 . S
N1983 H1988 0.984 . S
N1983 H1989 0.985 . S
C1984 C1978 1.379 . S
C1984 C1981 1.363 . S
C1984 N1982 1.356 . S
C1985 C1979 1.363 . S
C1985 C1980 1.379 . S
C1985 N1983 1.356 . S
N1986 C1978 1.356 . S
N1986 H1992 0.984 . S
N1986 H1993 0.984 . S
N1987 C1980 1.356 . S
N1987 H1990 0.984 . S
N1987 H1991 0.985 . S
H1988 N1983 0.984 . S
H1989 N1983 0.985 . S
H1990 N1987 0.984 . S
H1991 N1987 0.985 . S
H1992 N1986 0.984 . S
H1993 N1986 0.984 . S
H1994 N1982 0.984 . S
H1995 N1982 0.985 . S
C1996 C1997 1.363 . S
C1996 C2002 1.379 . S
C1996 N2004 1.356 . S
C1997 C1996 1.363 . S
C1997 C2003 1.363 . S
C1998 C1999 1.363 . S
C1998 C2003 1.379 . S
C1998 N2005 1.356 . S
C1999 C1998 1.363 . S
C1999 C2002 1.363 . S
N2000 C2002 1.356 . S
N2000 H2012 0.984 . S
N2000 H2013 0.985 . S
N2001 C2003 1.356 . S
N2001 H2006 0.984 . S
N2001 H2007 0.985 . S
C2002 C1996 1.379 . S
C2002 C1999 1.363 . S
C2002 N2000 1.356 . S
C2003 C1997 1.363 . S
C2003 C1998 1.379 . S
C2003 N2001 1.356 . S
N2004 C1996 1.356 . S
N2004 H2010 0.984 . S
N2004 H2011 0.984 . S
N2005 C1998 1.356 . S
N2005 H2008 0.984 . S
N2005 H2009 0.985 . S
H2006 N2001 0.984 . S
H2007 N2001 0.985 . S
H2008 N2005 0.984 . S
H2009 N2005 0.985 . S
H2010 N2004 0.984 . S
H2011 N2004 0.984 . S
H2012 N2000 0.984 . S
H2013 N2000 0.985 . S
C2014 C2015 1.363 . S
C2014 C2020 1.379 . S
C2014 N2022 1.356 . S
C2015 C2014 1.363 . S
C2015 C2021 1.363 . S
C2016 C2017 1.363 . S
C2016 C2021 1.379 . S
C2016 N2023 1.356 . S
C2017 C2016 1.363 . S
C2017 C2020 1.363 . S
N2018 C2020 1.356 . S
N2018 H2030 0.984 . S
N2018 H2031 0.985 . S
N2019 C2021 1.356 . S
N2019 H2024 0.984 . S
N2019 H2025 0.985 . S
C2020 C2014 1.379 . S
C2020 C2017 1.363 . S
C2020 N2018 1.356 . S
C2021 C2015 1.363 . S
C2021 C2016 1.379 . S
C2021 N2019 1.356 . S
N2022 C2014 1.356 . S
N2022 H2028 0.984 . S
N2022 H2029 0.984 . S
N2023 C2016 1.356 . S
N2023 H2026 0.984 . S
N2023 H2027 0.985 . S
H2024 N2019 0.984 . S
H2025 N2019 0.985 . S
H2026 N2023 0.984 . S
H2027 N2023 0.985 . S
H2028 N2022 0.984 . S
H2029 N2022 0.984 . S
H2030 N2018 0.984 . S
H2031 N2018 0.985 . S
C2032 C2033 1.363 . S
C2032 C2038 1.379 . S
C2032 N2040 1.356 . S
C2033 C2032 1.363 . S
C2033 C2039 1.363 . S
C2034 C2035 1.363 . S
C2034 C2039 1.379 . S
C2034 N2041 1.356 . S
C2035 C2034 1.363 . S
C2035 C2038 1.363 . S
N2036 C2038 1.356 . S
N2036 H2048 0.984 . S
N2036 H2049 0.985 . S
N2037 C2039 1.356 . S
N2037 H2042 0.984 . S
N2037 H2043 0.985 . S
C2038 C2032 1.379 . S
C2038 C2035 1.363 . S
C2038 N2036 1.356 . S
C2039 C2033 1.363 . S
C2039 C2034 1.379 . S
C2039 N2037 1.356 . S
N2040 C2032 1.356 . S
N2040 H2046 0.984 . S
N2040 H2047 0.984 . S
N2041 C2034 1.356 . S
N2041 H2044 0.984 . S
N2041 H2045 0.985 . S
H2042 N2037 0.984 . S
H2043 N2037 0.985 . S
H2044 N2041 0.984 . S
H2045 N2041 0.985 . S
H2046 N2040 0.984 . S
H2047 N2040 0.984 . S
H2048 N2036 0.984 . S
H2049 N2036 0.985 . S
C2050 C2051 1.363 . S
C2050 C2056 1.379 . S
C2050 N2058 1.356 . S
C2051 C2050 1.363 . S
C2051 C2057 1.363 . S
C2052 C2053 1.363 . S
C2052 C2057 1.379 . S
C2052 N2059 1.356 . S
C2053 C2052 1.363 . S
C2053 C2056 1.363 . S
N2054 C2056 1.356 . S
N2054 H2066 0.984 . S
N2054 H2067 0.985 . S
N2055 C2057 1.356 . S
N2055 H2060 0.984 . S
N2055 H2061 0.985 . S
C2056 C2050 1.379 . S
C2056 C2053 1.363 . S
C2056 N2054 1.356 . S
C2057 C2051 1.363 . S
C2057 C2052 1.379 . S
C2057 N2055 1.356 . S
N2058 C2050 1.356 . S
N2058 H2064 0.984 . S
N2058 H2065 0.984 . S
N2059 C2052 1.356 . S
N2059 H2062 0.984 . S
N2059 H2063 0.985 . S
H2060 N2055 0.984 . S
H2061 N2055 0.985 . S
H2062 N2059 0.984 . S
H2063 N2059 0.985 . S
H2064 N2058 0.984 . S
H2065 N2058 0.984 . S
H2066 N2054 0.984 . S
H2067 N2054 0.985 . S
C2068 C2069 1.363 . S
C2068 C2074 1.379 . S
C2068 N2076 1.356 . S
C2069 C2068 1.363 . S
C2069 C2075 1.363 . S
C2070 C2071 1.363 . S
C2070 C2075 1.379 . S
C2070 N2077 1.356 . S
C2071 C2070 1.363 . S
C2071 C2074 1.363 . S
N2072 C2074 1.356 . S
N2072 H2084 0.984 . S
N2072 H2085 0.985 . S
N2073 C2075 1.356 . S
N2073 H2078 0.984 . S
N2073 H2079 0.985 . S
C2074 C2068 1.379 . S
C2074 C2071 1.363 . S
C2074 N2072 1.356 . S
C2075 C2069 1.363 . S
C2075 C2070 1.379 . S
C2075 N2073 1.356 . S
N2076 C2068 1.356 . S
N2076 H2082 0.984 . S
N2076 H2083 0.984 . S
N2077 C2070 1.356 . S
N2077 H2080 0.984 . S
N2077 H2081 0.985 . S
H2078 N2073 0.984 . S
H2079 N2073 0.985 . S
H2080 N2077 0.984 . S
H2081 N2077 0.985 . S
H2082 N2076 0.984 . S
H2083 N2076 0.984 . S
H2084 N2072 0.984 . S
H2085 N2072 0.985 . S
C2086 C2087 1.363 . S
C2086 C2092 1.379 . S
C2086 N2094 1.356 . S
C2087 C2086 1.363 . S
C2087 C2093 1.363 . S
C2088 C2089 1.363 . S
C2088 C2093 1.379 . S
C2088 N2095 1.356 . S
C2089 C2088 1.363 . S
C2089 C2092 1.363 . S
N2090 C2092 1.356 . S
N2090 H2102 0.984 . S
N2090 H2103 0.985 . S
N2091 C2093 1.356 . S
N2091 H2096 0.984 . S
N2091 H2097 0.985 . S
C2092 C2086 1.379 . S
C2092 C2089 1.363 . S
C2092 N2090 1.356 . S
C2093 C2087 1.363 . S
C2093 C2088 1.379 . S
C2093 N2091 1.356 . S
N2094 C2086 1.356 . S
N2094 H2100 0.984 . S
N2094 H2101 0.984 . S
N2095 C2088 1.356 . S
N2095 H2098 0.984 . S
N2095 H2099 0.985 . S
H2096 N2091 0.984 . S
H2097 N2091 0.985 . S
H2098 N2095 0.984 . S
H2099 N2095 0.985 . S
H2100 N2094 0.984 . S
H2101 N2094 0.984 . S
H2102 N2090 0.984 . S
H2103 N2090 0.985 . S
C2104 C2105 1.363 . S
C2104 C2110 1.379 . S
C2104 N2112 1.356 . S
C2105 C2104 1.363 . S
C2105 C2111 1.363 . S
C2106 C2107 1.363 . S
C2106 C2111 1.379 . S
C2106 N2113 1.356 . S
C2107 C2106 1.363 . S
C2107 C2110 1.363 . S
N2108 C2110 1.356 . S
N2108 H2120 0.984 . S
N2108 H2121 0.985 . S
N2109 C2111 1.356 . S
N2109 H2114 0.984 . S
N2109 H2115 0.985 . S
C2110 C2104 1.379 . S
C2110 C2107 1.363 . S
C2110 N2108 1.356 . S
C2111 C2105 1.363 . S
C2111 C2106 1.379 . S
C2111 N2109 1.356 . S
N2112 C2104 1.356 . S
N2112 H2118 0.984 . S
N2112 H2119 0.984 . S
N2113 C2106 1.356 . S
N2113 H2116 0.984 . S
N2113 H2117 0.985 . S
H2114 N2109 0.984 . S
H2115 N2109 0.985 . S
H2116 N2113 0.984 . S
H2117 N2113 0.985 . S
H2118 N2112 0.984 . S
H2119 N2112 0.984 . S
H2120 N2108 0.984 . S
H2121 N2108 0.985 . S
C2122 C2123 1.363 . S
C2122 C2128 1.379 . S
C2122 N2130 1.356 . S
C2123 C2122 1.363 . S
C2123 C2129 1.363 . S
C2124 C2125 1.363 . S
C2124 C2129 1.379 . S
C2124 N2131 1.356 . S
C2125 C2124 1.363 . S
C2125 C2128 1.363 . S
N2126 C2128 1.356 . S
N2126 H2138 0.984 . S
N2126 H2139 0.985 . S
N2127 C2129 1.356 . S
N2127 H2132 0.984 . S
N2127 H2133 0.985 . S
C2128 C2122 1.379 . S
C2128 C2125 1.363 . S
C2128 N2126 1.356 . S
C2129 C2123 1.363 . S
C2129 C2124 1.379 . S
C2129 N2127 1.356 . S
N2130 C2122 1.356 . S
N2130 H2136 0.984 . S
N2130 H2137 0.984 . S
N2131 C2124 1.356 . S
N2131 H2134 0.984 . S
N2131 H2135 0.985 . S
H2132 N2127 0.984 . S
H2133 N2127 0.985 . S
H2134 N2131 0.984 . S
H2135 N2131 0.985 . S
H2136 N2130 0.984 . S
H2137 N2130 0.984 . S
H2138 N2126 0.984 . S
H2139 N2126 0.985 . S
C2140 C2141 1.363 . S
C2140 C2146 1.379 1_545 S
C2140 N2148 1.356 . S
C2141 C2140 1.363 . S
C2141 C2147 1.363 1_545 S
C2142 C2143 1.363 . S
C2142 C2147 1.379 . S
C2142 N2149 1.356 . S
C2143 C2142 1.363 . S
C2143 C2146 1.363 . S
N2144 C2146 1.356 . S
N2144 H2156 0.984 . S
N2144 H2157 0.985 . S
N2145 C2147 1.356 . S
N2145 H2150 0.984 1_565 S
N2145 H2151 0.985 . S
C2146 C2140 1.379 1_565 S
C2146 C2143 1.363 . S
C2146 N2144 1.356 . S
C2147 C2141 1.363 1_565 S
C2147 C2142 1.379 . S
C2147 N2145 1.356 . S
N2148 C2140 1.356 . S
N2148 H2154 0.984 . S
N2148 H2155 0.984 . S
N2149 C2142 1.356 . S
N2149 H2152 0.984 . S
N2149 H2153 0.985 . S
H2150 N2145 0.984 1_545 S
H2151 N2145 0.985 . S
H2152 N2149 0.984 . S
H2153 N2149 0.985 . S
H2154 N2148 0.984 . S
H2155 N2148 0.984 . S
H2156 N2144 0.984 . S
H2157 N2144 0.985 . S
C2158 C2159 1.363 1_556 S
C2158 C2164 1.379 1_565 S
C2158 N2166 1.356 . S
C2159 C2158 1.363 1_554 S
C2159 C2165 1.363 . S
C2160 C2161 1.363 . S
C2160 C2165 1.379 1_545 S
C2160 N2167 1.356 . S
C2161 C2160 1.363 . S
C2161 C2164 1.363 1_554 S
N2162 C2164 1.356 . S
N2162 H2174 0.984 . S
N2162 H2175 0.985 . S
N2163 C2165 1.356 . S
N2163 H2168 0.984 . S
N2163 H2169 0.985 . S
C2164 C2158 1.379 1_545 S
C2164 C2161 1.363 1_556 S
C2164 N2162 1.356 . S
C2165 C2159 1.363 . S
C2165 C2160 1.379 1_565 S
C2165 N2163 1.356 . S
N2166 C2158 1.356 . S
N2166 H2172 0.984 . S
N2166 H2173 0.984 . S
N2167 C2160 1.356 . S
N2167 H2170 0.984 . S
N2167 H2171 0.985 . S
H2168 N2163 0.984 . S
H2169 N2163 0.985 . S
H2170 N2167 0.984 . S
H2171 N2167 0.985 . S
H2172 N2166 0.984 . S
H2173 N2166 0.984 . S
H2174 N2162 0.984 . S
H2175 N2162 0.985 . S
C2176 C2177 1.363 . S
C2176 C2182 1.379 . S
C2176 N2184 1.356 . S
C2177 C2176 1.363 . S
C2177 C2183 1.363 . S
C2178 C2179 1.363 . S
C2178 C2183 1.379 . S
C2178 N2185 1.356 . S
C2179 C2178 1.363 . S
C2179 C2182 1.363 . S
N2180 C2182 1.356 . S
N2180 H2192 0.984 . S
N2180 H2193 0.985 . S
N2181 C2183 1.356 . S
N2181 H2186 0.984 . S
N2181 H2187 0.985 . S
C2182 C2176 1.379 . S
C2182 C2179 1.363 . S
C2182 N2180 1.356 . S
C2183 C2177 1.363 . S
C2183 C2178 1.379 . S
C2183 N2181 1.356 . S
N2184 C2176 1.356 . S
N2184 H2190 0.984 . S
N2184 H2191 0.984 . S
N2185 C2178 1.356 . S
N2185 H2188 0.984 . S
N2185 H2189 0.985 . S
H2186 N2181 0.984 . S
H2187 N2181 0.985 . S
H2188 N2185 0.984 . S
H2189 N2185 0.985 . S
H2190 N2184 0.984 . S
H2191 N2184 0.984 . S
H2192 N2180 0.984 . S
H2193 N2180 0.985 . S
C2194 C2195 1.363 . S
C2194 C2200 1.379 . S
C2194 N2202 1.356 . S
C2195 C2194 1.363 . S
C2195 C2201 1.363 . S
C2196 C2197 1.363 . S
C2196 C2201 1.379 . S
C2196 N2203 1.356 . S
C2197 C2196 1.363 . S
C2197 C2200 1.363 . S
N2198 C2200 1.356 . S
N2198 H2210 0.984 . S
N2198 H2211 0.985 . S
N2199 C2201 1.356 . S
N2199 H2204 0.984 . S
N2199 H2205 0.985 . S
C2200 C2194 1.379 . S
C2200 C2197 1.363 . S
C2200 N2198 1.356 . S
C2201 C2195 1.363 . S
C2201 C2196 1.379 . S
C2201 N2199 1.356 . S
N2202 C2194 1.356 . S
N2202 H2208 0.984 . S
N2202 H2209 0.984 . S
N2203 C2196 1.356 . S
N2203 H2206 0.984 . S
N2203 H2207 0.985 . S
H2204 N2199 0.984 . S
H2205 N2199 0.985 . S
H2206 N2203 0.984 . S
H2207 N2203 0.985 . S
H2208 N2202 0.984 . S
H2209 N2202 0.984 . S
H2210 N2198 0.984 . S
H2211 N2198 0.985 . S
C2212 C2213 1.363 . S
C2212 C2218 1.379 . S
C2212 N2220 1.356 . S
C2213 C2212 1.363 . S
C2213 C2219 1.363 . S
C2214 C2215 1.363 . S
C2214 C2219 1.379 . S
C2214 N2221 1.356 . S
C2215 C2214 1.363 . S
C2215 C2218 1.363 . S
N2216 C2218 1.356 . S
N2216 H2228 0.984 . S
N2216 H2229 0.985 . S
N2217 C2219 1.356 . S
N2217 H2222 0.984 . S
N2217 H2223 0.985 . S
C2218 C2212 1.379 . S
C2218 C2215 1.363 . S
C2218 N2216 1.356 . S
C2219 C2213 1.363 . S
C2219 C2214 1.379 . S
C2219 N2217 1.356 . S
N2220 C2212 1.356 . S
N2220 H2226 0.984 . S
N2220 H2227 0.984 . S
N2221 C2214 1.356 . S
N2221 H2224 0.984 . S
N2221 H2225 0.985 . S
H2222 N2217 0.984 . S
H2223 N2217 0.985 . S
H2224 N2221 0.984 . S
H2225 N2221 0.985 . S
H2226 N2220 0.984 . S
H2227 N2220 0.984 . S
H2228 N2216 0.984 . S
H2229 N2216 0.985 . S
C2230 C2231 1.363 . S
C2230 C2236 1.379 . S
C2230 N2238 1.356 . S
C2231 C2230 1.363 . S
C2231 C2237 1.363 . S
C2232 C2233 1.363 . S
C2232 C2237 1.379 . S
C2232 N2239 1.356 . S
C2233 C2232 1.363 . S
C2233 C2236 1.363 . S
N2234 C2236 1.356 . S
N2234 H2246 0.984 . S
N2234 H2247 0.985 . S
N2235 C2237 1.356 . S
N2235 H2240 0.984 . S
N2235 H2241 0.985 . S
C2236 C2230 1.379 . S
C2236 C2233 1.363 . S
C2236 N2234 1.356 . S
C2237 C2231 1.363 . S
C2237 C2232 1.379 . S
C2237 N2235 1.356 . S
N2238 C2230 1.356 . S
N2238 H2244 0.984 . S
N2238 H2245 0.984 . S
N2239 C2232 1.356 . S
N2239 H2242 0.984 . S
N2239 H2243 0.985 . S
H2240 N2235 0.984 . S
H2241 N2235 0.985 . S
H2242 N2239 0.984 . S
H2243 N2239 0.985 . S
H2244 N2238 0.984 . S
H2245 N2238 0.984 . S
H2246 N2234 0.984 . S
H2247 N2234 0.985 . S
C2248 C2249 1.363 . S
C2248 C2254 1.379 . S
C2248 N2256 1.356 . S
C2249 C2248 1.363 . S
C2249 C2255 1.363 . S
C2250 C2251 1.363 . S
C2250 C2255 1.379 . S
C2250 N2257 1.356 . S
C2251 C2250 1.363 . S
C2251 C2254 1.363 . S
N2252 C2254 1.356 . S
N2252 H2264 0.984 . S
N2252 H2265 0.985 . S
N2253 C2255 1.356 . S
N2253 H2258 0.984 . S
N2253 H2259 0.985 . S
C2254 C2248 1.379 . S
C2254 C2251 1.363 . S
C2254 N2252 1.356 . S
C2255 C2249 1.363 . S
C2255 C2250 1.379 . S
C2255 N2253 1.356 . S
N2256 C2248 1.356 . S
N2256 H2262 0.984 . S
N2256 H2263 0.984 . S
N2257 C2250 1.356 . S
N2257 H2260 0.984 . S
N2257 H2261 0.985 . S
H2258 N2253 0.984 . S
H2259 N2253 0.985 . S
H2260 N2257 0.984 . S
H2261 N2257 0.985 . S
H2262 N2256 0.984 . S
H2263 N2256 0.984 . S
H2264 N2252 0.984 . S
H2265 N2252 0.985 . S
C2266 C2267 1.363 . S
C2266 C2272 1.379 . S
C2266 N2274 1.356 . S
C2267 C2266 1.363 . S
C2267 C2273 1.363 . S
C2268 C2269 1.363 . S
C2268 C2273 1.379 . S
C2268 N2275 1.356 . S
C2269 C2268 1.363 . S
C2269 C2272 1.363 . S
N2270 C2272 1.356 . S
N2270 H2282 0.984 . S
N2270 H2283 0.985 . S
N2271 C2273 1.356 . S
N2271 H2276 0.984 . S
N2271 H2277 0.985 . S
C2272 C2266 1.379 . S
C2272 C2269 1.363 . S
C2272 N2270 1.356 . S
C2273 C2267 1.363 . S
C2273 C2268 1.379 . S
C2273 N2271 1.356 . S
N2274 C2266 1.356 . S
N2274 H2280 0.984 . S
N2274 H2281 0.984 . S
N2275 C2268 1.356 . S
N2275 H2278 0.984 . S
N2275 H2279 0.985 . S
H2276 N2271 0.984 . S
H2277 N2271 0.985 . S
H2278 N2275 0.984 . S
H2279 N2275 0.985 . S
H2280 N2274 0.984 . S
H2281 N2274 0.984 . S
H2282 N2270 0.984 . S
H2283 N2270 0.985 . S
C2284 C2285 1.363 . S
C2284 C2290 1.379 . S
C2284 N2292 1.356 . S
C2285 C2284 1.363 . S
C2285 C2291 1.363 . S
C2286 C2287 1.363 . S
C2286 C2291 1.379 . S
C2286 N2293 1.356 . S
C2287 C2286 1.363 . S
C2287 C2290 1.363 . S
N2288 C2290 1.356 . S
N2288 H2300 0.984 . S
N2288 H2301 0.985 . S
N2289 C2291 1.356 . S
N2289 H2294 0.984 . S
N2289 H2295 0.985 . S
C2290 C2284 1.379 . S
C2290 C2287 1.363 . S
C2290 N2288 1.356 . S
C2291 C2285 1.363 . S
C2291 C2286 1.379 . S
C2291 N2289 1.356 . S
N2292 C2284 1.356 . S
N2292 H2298 0.984 . S
N2292 H2299 0.984 . S
N2293 C2286 1.356 . S
N2293 H2296 0.984 . S
N2293 H2297 0.985 . S
H2294 N2289 0.984 . S
H2295 N2289 0.985 . S
H2296 N2293 0.984 . S
H2297 N2293 0.985 . S
H2298 N2292 0.984 . S
H2299 N2292 0.984 . S
H2300 N2288 0.984 . S
H2301 N2288 0.985 . S
C2302 C2303 1.363 . S
C2302 C2308 1.379 . S
C2302 N2310 1.356 . S
C2303 C2302 1.363 . S
C2303 C2309 1.363 . S
C2304 C2305 1.363 . S
C2304 C2309 1.379 . S
C2304 N2311 1.356 . S
C2305 C2304 1.363 . S
C2305 C2308 1.363 . S
N2306 C2308 1.356 . S
N2306 H2318 0.984 . S
N2306 H2319 0.985 . S
N2307 C2309 1.356 . S
N2307 H2312 0.984 . S
N2307 H2313 0.985 . S
C2308 C2302 1.379 . S
C2308 C2305 1.363 . S
C2308 N2306 1.356 . S
C2309 C2303 1.363 . S
C2309 C2304 1.379 . S
C2309 N2307 1.356 . S
N2310 C2302 1.356 . S
N2310 H2316 0.984 . S
N2310 H2317 0.984 . S
N2311 C2304 1.356 . S
N2311 H2314 0.984 . S
N2311 H2315 0.985 . S
H2312 N2307 0.984 . S
H2313 N2307 0.985 . S
H2314 N2311 0.984 . S
H2315 N2311 0.985 . S
H2316 N2310 0.984 . S
H2317 N2310 0.984 . S
H2318 N2306 0.984 . S
H2319 N2306 0.985 . S
C2320 C2321 1.363 . S
C2320 C2326 1.379 . S
C2320 N2328 1.356 . S
C2321 C2320 1.363 . S
C2321 C2327 1.363 . S
C2322 C2323 1.363 . S
C2322 C2327 1.379 . S
C2322 N2329 1.356 . S
C2323 C2322 1.363 . S
C2323 C2326 1.363 . S
N2324 C2326 1.356 . S
N2324 H2336 0.984 . S
N2324 H2337 0.985 . S
N2325 C2327 1.356 . S
N2325 H2330 0.984 . S
N2325 H2331 0.985 . S
C2326 C2320 1.379 . S
C2326 C2323 1.363 . S
C2326 N2324 1.356 . S
C2327 C2321 1.363 . S
C2327 C2322 1.379 . S
C2327 N2325 1.356 . S
N2328 C2320 1.356 . S
N2328 H2334 0.984 . S
N2328 H2335 0.984 . S
N2329 C2322 1.356 . S
N2329 H2332 0.984 . S
N2329 H2333 0.985 1_556 S
H2330 N2325 0.984 . S
H2331 N2325 0.985 . S
H2332 N2329 0.984 . S
H2333 N2329 0.985 1_554 S
H2334 N2328 0.984 . S
H2335 N2328 0.984 . S
H2336 N2324 0.984 . S
H2337 N2324 0.985 . S
C2338 C2339 1.363 . S
C2338 C2344 1.379 . S
C2338 N2346 1.356 . S
C2339 C2338 1.363 . S
C2339 C2345 1.363 . S
C2340 C2341 1.363 . S
C2340 C2345 1.379 . S
C2340 N2347 1.356 . S
C2341 C2340 1.363 . S
C2341 C2344 1.363 . S
N2342 C2344 1.356 . S
N2342 H2354 0.984 . S
N2342 H2355 0.985 . S
N2343 C2345 1.356 . S
N2343 H2348 0.984 . S
N2343 H2349 0.985 . S
C2344 C2338 1.379 . S
C2344 C2341 1.363 . S
C2344 N2342 1.356 . S
C2345 C2339 1.363 . S
C2345 C2340 1.379 . S
C2345 N2343 1.356 . S
N2346 C2338 1.356 . S
N2346 H2352 0.984 . S
N2346 H2353 0.984 . S
N2347 C2340 1.356 . S
N2347 H2350 0.984 . S
N2347 H2351 0.985 . S
H2348 N2343 0.984 . S
H2349 N2343 0.985 . S
H2350 N2347 0.984 . S
H2351 N2347 0.985 . S
H2352 N2346 0.984 . S
H2353 N2346 0.984 . S
H2354 N2342 0.984 . S
H2355 N2342 0.985 . S
C2356 C2357 1.363 . S
C2356 C2362 1.379 . S
C2356 N2364 1.356 . S
C2357 C2356 1.363 . S
C2357 C2363 1.363 . S
C2358 C2359 1.363 . S
C2358 C2363 1.379 . S
C2358 N2365 1.356 . S
C2359 C2358 1.363 . S
C2359 C2362 1.363 . S
N2360 C2362 1.356 . S
N2360 H2372 0.984 1_455 S
N2360 H2373 0.985 . S
N2361 C2363 1.356 . S
N2361 H2366 0.984 . S
N2361 H2367 0.985 . S
C2362 C2356 1.379 . S
C2362 C2359 1.363 . S
C2362 N2360 1.356 . S
C2363 C2357 1.363 . S
C2363 C2358 1.379 . S
C2363 N2361 1.356 . S
N2364 C2356 1.356 . S
N2364 H2370 0.984 . S
N2364 H2371 0.984 . S
N2365 C2358 1.356 . S
N2365 H2368 0.984 . S
N2365 H2369 0.985 . S
H2366 N2361 0.984 . S
H2367 N2361 0.985 . S
H2368 N2365 0.984 . S
H2369 N2365 0.985 . S
H2370 N2364 0.984 . S
H2371 N2364 0.984 . S
H2372 N2360 0.984 1_655 S
H2373 N2360 0.985 . S
C2374 C2375 1.363 . S
C2374 C2380 1.379 . S
C2374 N2382 1.356 . S
C2375 C2374 1.363 . S
C2375 C2381 1.363 . S
C2376 C2377 1.363 . S
C2376 C2381 1.379 . S
C2376 N2383 1.356 . S
C2377 C2376 1.363 . S
C2377 C2380 1.363 . S
N2378 C2380 1.356 . S
N2378 H2390 0.984 . S
N2378 H2391 0.985 . S
N2379 C2381 1.356 . S
N2379 H2384 0.984 . S
N2379 H2385 0.985 . S
C2380 C2374 1.379 . S
C2380 C2377 1.363 . S
C2380 N2378 1.356 . S
C2381 C2375 1.363 . S
C2381 C2376 1.379 . S
C2381 N2379 1.356 . S
N2382 C2374 1.356 . S
N2382 H2388 0.984 . S
N2382 H2389 0.984 . S
N2383 C2376 1.356 . S
N2383 H2386 0.984 . S
N2383 H2387 0.985 . S
H2384 N2379 0.984 . S
H2385 N2379 0.985 . S
H2386 N2383 0.984 . S
H2387 N2383 0.985 . S
H2388 N2382 0.984 . S
H2389 N2382 0.984 . S
H2390 N2378 0.984 . S
H2391 N2378 0.985 . S
C2392 C2393 1.363 . S
C2392 C2398 1.379 . S
C2392 N2400 1.356 . S
C2393 C2392 1.363 . S
C2393 C2399 1.363 . S
C2394 C2395 1.363 . S
C2394 C2399 1.379 . S
C2394 N2401 1.356 . S
C2395 C2394 1.363 . S
C2395 C2398 1.363 . S
N2396 C2398 1.356 . S
N2396 H2408 0.984 . S
N2396 H2409 0.985 . S
N2397 C2399 1.356 . S
N2397 H2402 0.984 . S
N2397 H2403 0.985 . S
C2398 C2392 1.379 . S
C2398 C2395 1.363 . S
C2398 N2396 1.356 . S
C2399 C2393 1.363 . S
C2399 C2394 1.379 . S
C2399 N2397 1.356 . S
N2400 C2392 1.356 . S
N2400 H2406 0.984 . S
N2400 H2407 0.984 . S
N2401 C2394 1.356 . S
N2401 H2404 0.984 . S
N2401 H2405 0.985 . S
H2402 N2397 0.984 . S
H2403 N2397 0.985 . S
H2404 N2401 0.984 . S
H2405 N2401 0.985 . S
H2406 N2400 0.984 . S
H2407 N2400 0.984 . S
H2408 N2396 0.984 . S
H2409 N2396 0.985 . S
C2410 C2411 1.363 . S
C2410 C2416 1.379 . S
C2410 N2418 1.356 . S
C2411 C2410 1.363 . S
C2411 C2417 1.363 . S
C2412 C2413 1.363 . S
C2412 C2417 1.379 . S
C2412 N2419 1.356 . S
C2413 C2412 1.363 . S
C2413 C2416 1.363 . S
N2414 C2416 1.356 . S
N2414 H2426 0.984 . S
N2414 H2427 0.985 . S
N2415 C2417 1.356 . S
N2415 H2420 0.984 . S
N2415 H2421 0.985 . S
C2416 C2410 1.379 . S
C2416 C2413 1.363 . S
C2416 N2414 1.356 . S
C2417 C2411 1.363 . S
C2417 C2412 1.379 . S
C2417 N2415 1.356 . S
N2418 C2410 1.356 . S
N2418 H2424 0.984 . S
N2418 H2425 0.984 . S
N2419 C2412 1.356 . S
N2419 H2422 0.984 . S
N2419 H2423 0.985 . S
H2420 N2415 0.984 . S
H2421 N2415 0.985 . S
H2422 N2419 0.984 . S
H2423 N2419 0.985 . S
H2424 N2418 0.984 . S
H2425 N2418 0.984 . S
H2426 N2414 0.984 . S
H2427 N2414 0.985 . S
C2428 C2429 1.363 . S
C2428 C2434 1.379 . S
C2428 N2436 1.356 . S
C2429 C2428 1.363 . S
C2429 C2435 1.363 . S
C2430 C2431 1.363 . S
C2430 C2435 1.379 . S
C2430 N2437 1.356 1_655 S
C2431 C2430 1.363 . S
C2431 C2434 1.363 . S
N2432 C2434 1.356 1_554 S
N2432 H2444 0.984 . S
N2432 H2445 0.985 . S
N2433 C2435 1.356 . S
N2433 H2438 0.984 . S
N2433 H2439 0.985 . S
C2434 C2428 1.379 . S
C2434 C2431 1.363 . S
C2434 N2432 1.356 1_556 S
C2435 C2429 1.363 . S
C2435 C2430 1.379 . S
C2435 N2433 1.356 . S
N2436 C2428 1.356 . S
N2436 H2442 0.984 . S
N2436 H2443 0.984 . S
N2437 C2430 1.356 1_455 S
N2437 H2440 0.984 . S
N2437 H2441 0.985 . S
H2438 N2433 0.984 . S
H2439 N2433 0.985 . S
H2440 N2437 0.984 . S
H2441 N2437 0.985 . S
H2442 N2436 0.984 . S
H2443 N2436 0.984 . S
H2444 N2432 0.984 . S
H2445 N2432 0.985 . S
C2446 C2447 1.363 . S
C2446 C2452 1.379 . S
C2446 N2454 1.356 . S
C2447 C2446 1.363 . S
C2447 C2453 1.363 . S
C2448 C2449 1.363 . S
C2448 C2453 1.379 . S
C2448 N2455 1.356 . S
C2449 C2448 1.363 . S
C2449 C2452 1.363 . S
N2450 C2452 1.356 . S
N2450 H2462 0.984 . S
N2450 H2463 0.985 . S
N2451 C2453 1.356 . S
N2451 H2456 0.984 . S
N2451 H2457 0.985 . S
C2452 C2446 1.379 . S
C2452 C2449 1.363 . S
C2452 N2450 1.356 . S
C2453 C2447 1.363 . S
C2453 C2448 1.379 . S
C2453 N2451 1.356 . S
N2454 C2446 1.356 . S
N2454 H2460 0.984 . S
N2454 H2461 0.984 . S
N2455 C2448 1.356 . S
N2455 H2458 0.984 . S
N2455 H2459 0.985 . S
H2456 N2451 0.984 . S
H2457 N2451 0.985 . S
H2458 N2455 0.984 . S
H2459 N2455 0.985 . S
H2460 N2454 0.984 . S
H2461 N2454 0.984 . S
H2462 N2450 0.984 . S
H2463 N2450 0.985 . S
C2464 C2465 1.363 . S
C2464 C2470 1.379 . S
C2464 N2472 1.356 . S
C2465 C2464 1.363 . S
C2465 C2471 1.363 . S
C2466 C2467 1.363 . S
C2466 C2471 1.379 . S
C2466 N2473 1.356 . S
C2467 C2466 1.363 . S
C2467 C2470 1.363 . S
N2468 C2470 1.356 . S
N2468 H2480 0.984 . S
N2468 H2481 0.985 . S
N2469 C2471 1.356 . S
N2469 H2474 0.984 . S
N2469 H2475 0.985 . S
C2470 C2464 1.379 . S
C2470 C2467 1.363 . S
C2470 N2468 1.356 . S
C2471 C2465 1.363 . S
C2471 C2466 1.379 . S
C2471 N2469 1.356 . S
N2472 C2464 1.356 . S
N2472 H2478 0.984 . S
N2472 H2479 0.984 . S
N2473 C2466 1.356 . S
N2473 H2476 0.984 . S
N2473 H2477 0.985 . S
H2474 N2469 0.984 . S
H2475 N2469 0.985 . S
H2476 N2473 0.984 . S
H2477 N2473 0.985 . S
H2478 N2472 0.984 . S
H2479 N2472 0.984 . S
H2480 N2468 0.984 . S
H2481 N2468 0.985 . S
C2482 C2483 1.363 . S
C2482 C2488 1.379 . S
C2482 N2490 1.356 . S
C2483 C2482 1.363 . S
C2483 C2489 1.363 . S
C2484 C2485 1.363 . S
C2484 C2489 1.379 . S
C2484 N2491 1.356 . S
C2485 C2484 1.363 . S
C2485 C2488 1.363 . S
N2486 C2488 1.356 . S
N2486 H2498 0.984 . S
N2486 H2499 0.985 . S
N2487 C2489 1.356 . S
N2487 H2492 0.984 . S
N2487 H2493 0.985 . S
C2488 C2482 1.379 . S
C2488 C2485 1.363 . S
C2488 N2486 1.356 . S
C2489 C2483 1.363 . S
C2489 C2484 1.379 . S
C2489 N2487 1.356 . S
N2490 C2482 1.356 . S
N2490 H2496 0.984 . S
N2490 H2497 0.984 . S
N2491 C2484 1.356 . S
N2491 H2494 0.984 . S
N2491 H2495 0.985 . S
H2492 N2487 0.984 . S
H2493 N2487 0.985 . S
H2494 N2491 0.984 . S
H2495 N2491 0.985 . S
H2496 N2490 0.984 . S
H2497 N2490 0.984 . S
H2498 N2486 0.984 . S
H2499 N2486 0.985 . S
C2500 C2501 1.363 . S
C2500 C2506 1.379 . S
C2500 N2508 1.356 . S
C2501 C2500 1.363 . S
C2501 C2507 1.363 . S
C2502 C2503 1.363 . S
C2502 C2507 1.379 . S
C2502 N2509 1.356 . S
C2503 C2502 1.363 . S
C2503 C2506 1.363 . S
N2504 C2506 1.356 . S
N2504 H2516 0.984 . S
N2504 H2517 0.985 . S
N2505 C2507 1.356 . S
N2505 H2510 0.984 . S
N2505 H2511 0.985 . S
C2506 C2500 1.379 . S
C2506 C2503 1.363 . S
C2506 N2504 1.356 . S
C2507 C2501 1.363 . S
C2507 C2502 1.379 . S
C2507 N2505 1.356 . S
N2508 C2500 1.356 . S
N2508 H2514 0.984 . S
N2508 H2515 0.984 . S
N2509 C2502 1.356 . S
N2509 H2512 0.984 . S
N2509 H2513 0.985 . S
H2510 N2505 0.984 . S
H2511 N2505 0.985 . S
H2512 N2509 0.984 . S
H2513 N2509 0.985 . S
H2514 N2508 0.984 . S
H2515 N2508 0.984 . S
H2516 N2504 0.984 . S
H2517 N2504 0.985 . S
C2518 C2519 1.363 . S
C2518 C2524 1.379 . S
C2518 N2526 1.356 . S
C2519 C2518 1.363 . S
C2519 C2525 1.363 . S
C2520 C2521 1.363 . S
C2520 C2525 1.379 . S
C2520 N2527 1.356 . S
C2521 C2520 1.363 . S
C2521 C2524 1.363 . S
N2522 C2524 1.356 . S
N2522 H2534 0.984 . S
N2522 H2535 0.985 . S
N2523 C2525 1.356 . S
N2523 H2528 0.984 . S
N2523 H2529 0.985 . S
C2524 C2518 1.379 . S
C2524 C2521 1.363 . S
C2524 N2522 1.356 . S
C2525 C2519 1.363 . S
C2525 C2520 1.379 . S
C2525 N2523 1.356 . S
N2526 C2518 1.356 . S
N2526 H2532 0.984 . S
N2526 H2533 0.984 . S
N2527 C2520 1.356 . S
N2527 H2530 0.984 . S
N2527 H2531 0.985 . S
H2528 N2523 0.984 . S
H2529 N2523 0.985 . S
H2530 N2527 0.984 . S
H2531 N2527 0.985 . S
H2532 N2526 0.984 . S
H2533 N2526 0.984 . S
H2534 N2522 0.984 . S
H2535 N2522 0.985 . S
C2536 C2537 1.363 . S
C2536 C2542 1.379 . S
C2536 N2544 1.356 . S
C2537 C2536 1.363 . S
C2537 C2543 1.363 . S
C2538 C2539 1.363 . S
C2538 C2543 1.379 . S
C2538 N2545 1.356 . S
C2539 C2538 1.363 . S
C2539 C2542 1.363 . S
N2540 C2542 1.356 . S
N2540 H2552 0.984 . S
N2540 H2553 0.985 . S
N2541 C2543 1.356 . S
N2541 H2546 0.984 . S
N2541 H2547 0.985 . S
C2542 C2536 1.379 . S
C2542 C2539 1.363 . S
C2542 N2540 1.356 . S
C2543 C2537 1.363 . S
C2543 C2538 1.379 . S
C2543 N2541 1.356 . S
N2544 C2536 1.356 . S
N2544 H2550 0.984 . S
N2544 H2551 0.984 . S
N2545 C2538 1.356 . S
N2545 H2548 0.984 . S
N2545 H2549 0.985 . S
H2546 N2541 0.984 . S
H2547 N2541 0.985 . S
H2548 N2545 0.984 . S
H2549 N2545 0.985 . S
H2550 N2544 0.984 . S
H2551 N2544 0.984 . S
H2552 N2540 0.984 . S
H2553 N2540 0.985 . S
C2554 C2555 1.363 . S
C2554 C2560 1.379 . S
C2554 N2562 1.356 . S
C2555 C2554 1.363 . S
C2555 C2561 1.363 . S
C2556 C2557 1.363 . S
C2556 C2561 1.379 . S
C2556 N2563 1.356 1_565 S
C2557 C2556 1.363 . S
C2557 C2560 1.363 . S
N2558 C2560 1.356 . S
N2558 H2570 0.984 . S
N2558 H2571 0.985 . S
N2559 C2561 1.356 . S
N2559 H2564 0.984 . S
N2559 H2565 0.985 . S
C2560 C2554 1.379 . S
C2560 C2557 1.363 . S
C2560 N2558 1.356 . S
C2561 C2555 1.363 . S
C2561 C2556 1.379 . S
C2561 N2559 1.356 . S
N2562 C2554 1.356 . S
N2562 H2568 0.984 . S
N2562 H2569 0.984 . S
N2563 C2556 1.356 1_545 S
N2563 H2566 0.984 . S
N2563 H2567 0.985 . S
H2564 N2559 0.984 . S
H2565 N2559 0.985 . S
H2566 N2563 0.984 . S
H2567 N2563 0.985 . S
H2568 N2562 0.984 . S
H2569 N2562 0.984 . S
H2570 N2558 0.984 . S
H2571 N2558 0.985 . S
C2572 C2573 1.363 . S
C2572 C2578 1.379 . S
C2572 N2580 1.356 . S
C2573 C2572 1.363 . S
C2573 C2579 1.363 . S
C2574 C2575 1.363 . S
C2574 C2579 1.379 . S
C2574 N2581 1.356 . S
C2575 C2574 1.363 . S
C2575 C2578 1.363 . S
N2576 C2578 1.356 . S
N2576 H2588 0.984 . S
N2576 H2589 0.985 . S
N2577 C2579 1.356 . S
N2577 H2582 0.984 . S
N2577 H2583 0.985 . S
C2578 C2572 1.379 . S
C2578 C2575 1.363 . S
C2578 N2576 1.356 . S
C2579 C2573 1.363 . S
C2579 C2574 1.379 . S
C2579 N2577 1.356 . S
N2580 C2572 1.356 . S
N2580 H2586 0.984 . S
N2580 H2587 0.984 . S
N2581 C2574 1.356 . S
N2581 H2584 0.984 . S
N2581 H2585 0.985 . S
H2582 N2577 0.984 . S
H2583 N2577 0.985 . S
H2584 N2581 0.984 . S
H2585 N2581 0.985 . S
H2586 N2580 0.984 . S
H2587 N2580 0.984 . S
H2588 N2576 0.984 . S
H2589 N2576 0.985 . S
C2590 C2591 1.363 . S
C2590 C2596 1.379 . S
C2590 N2598 1.356 . S
C2591 C2590 1.363 . S
C2591 C2597 1.363 . S
C2592 C2593 1.363 . S
C2592 C2597 1.379 . S
C2592 N2599 1.356 . S
C2593 C2592 1.363 . S
C2593 C2596 1.363 . S
N2594 C2596 1.356 . S
N2594 H2606 0.984 . S
N2594 H2607 0.985 . S
N2595 C2597 1.356 . S
N2595 H2600 0.984 . S
N2595 H2601 0.985 . S
C2596 C2590 1.379 . S
C2596 C2593 1.363 . S
C2596 N2594 1.356 . S
C2597 C2591 1.363 . S
C2597 C2592 1.379 . S
C2597 N2595 1.356 . S
N2598 C2590 1.356 . S
N2598 H2604 0.984 . S
N2598 H2605 0.984 . S
N2599 C2592 1.356 . S
N2599 H2602 0.984 . S
N2599 H2603 0.985 1_554 S
H2600 N2595 0.984 . S
H2601 N2595 0.985 . S
H2602 N2599 0.984 . S
H2603 N2599 0.985 1_556 S
H2604 N2598 0.984 . S
H2605 N2598 0.984 . S
H2606 N2594 0.984 . S
H2607 N2594 0.985 . S
C2608 C2609 1.363 . S
C2608 C2614 1.379 . S
C2608 N2616 1.356 . S
C2609 C2608 1.363 . S
C2609 C2615 1.363 . S
C2610 C2611 1.363 . S
C2610 C2615 1.379 . S
C2610 N2617 1.356 . S
C2611 C2610 1.363 . S
C2611 C2614 1.363 . S
N2612 C2614 1.356 . S
N2612 H2624 0.984 . S
N2612 H2625 0.985 . S
N2613 C2615 1.356 . S
N2613 H2618 0.984 . S
N2613 H2619 0.985 . S
C2614 C2608 1.379 . S
C2614 C2611 1.363 . S
C2614 N2612 1.356 . S
C2615 C2609 1.363 . S
C2615 C2610 1.379 . S
C2615 N2613 1.356 . S
N2616 C2608 1.356 . S
N2616 H2622 0.984 . S
N2616 H2623 0.984 . S
N2617 C2610 1.356 . S
N2617 H2620 0.984 . S
N2617 H2621 0.985 . S
H2618 N2613 0.984 . S
H2619 N2613 0.985 . S
H2620 N2617 0.984 . S
H2621 N2617 0.985 . S
H2622 N2616 0.984 . S
H2623 N2616 0.984 . S
H2624 N2612 0.984 . S
H2625 N2612 0.985 . S
C2626 C2627 1.363 . S
C2626 C2632 1.379 . S
C2626 N2634 1.356 . S
C2627 C2626 1.363 . S
C2627 C2633 1.363 . S
C2628 C2629 1.363 . S
C2628 C2633 1.379 . S
C2628 N2635 1.356 1_554 S
C2629 C2628 1.363 . S
C2629 C2632 1.363 . S
N2630 C2632 1.356 . S
N2630 H2642 0.984 . S
N2630 H2643 0.985 . S
N2631 C2633 1.356 . S
N2631 H2636 0.984 . S
N2631 H2637 0.985 1_554 S
C2632 C2626 1.379 . S
C2632 C2629 1.363 . S
C2632 N2630 1.356 . S
C2633 C2627 1.363 . S
C2633 C2628 1.379 . S
C2633 N2631 1.356 . S
N2634 C2626 1.356 . S
N2634 H2640 0.984 . S
N2634 H2641 0.984 . S
N2635 C2628 1.356 1_556 S
N2635 H2638 0.984 . S
N2635 H2639 0.985 . S
H2636 N2631 0.984 . S
H2637 N2631 0.985 1_556 S
H2638 N2635 0.984 . S
H2639 N2635 0.985 . S
H2640 N2634 0.984 . S
H2641 N2634 0.984 . S
H2642 N2630 0.984 . S
H2643 N2630 0.985 . S
C2644 C2645 1.363 . S
C2644 C2650 1.379 . S
C2644 N2652 1.356 . S
C2645 C2644 1.363 . S
C2645 C2651 1.363 . S
C2646 C2647 1.363 . S
C2646 C2651 1.379 . S
C2646 N2653 1.356 . S
C2647 C2646 1.363 . S
C2647 C2650 1.363 . S
N2648 C2650 1.356 . S
N2648 H2660 0.984 . S
N2648 H2661 0.985 . S
N2649 C2651 1.356 . S
N2649 H2654 0.984 . S
N2649 H2655 0.985 . S
C2650 C2644 1.379 . S
C2650 C2647 1.363 . S
C2650 N2648 1.356 . S
C2651 C2645 1.363 . S
C2651 C2646 1.379 . S
C2651 N2649 1.356 . S
N2652 C2644 1.356 . S
N2652 H2658 0.984 . S
N2652 H2659 0.984 . S
N2653 C2646 1.356 . S
N2653 H2656 0.984 . S
N2653 H2657 0.985 . S
H2654 N2649 0.984 . S
H2655 N2649 0.985 . S
H2656 N2653 0.984 . S
H2657 N2653 0.985 . S
H2658 N2652 0.984 . S
H2659 N2652 0.984 . S
H2660 N2648 0.984 . S
H2661 N2648 0.985 . S
C2662 C2663 1.363 . S
C2662 C2668 1.379 . S
C2662 N2670 1.356 . S
C2663 C2662 1.363 . S
C2663 C2669 1.363 . S
C2664 C2665 1.363 . S
C2664 C2669 1.379 . S
C2664 N2671 1.356 . S
C2665 C2664 1.363 . S
C2665 C2668 1.363 . S
N2666 C2668 1.356 . S
N2666 H2678 0.984 . S
N2666 H2679 0.985 . S
N2667 C2669 1.356 . S
N2667 H2672 0.984 . S
N2667 H2673 0.985 . S
C2668 C2662 1.379 . S
C2668 C2665 1.363 . S
C2668 N2666 1.356 . S
C2669 C2663 1.363 . S
C2669 C2664 1.379 . S
C2669 N2667 1.356 . S
N2670 C2662 1.356 . S
N2670 H2676 0.984 . S
N2670 H2677 0.984 . S
N2671 C2664 1.356 . S
N2671 H2674 0.984 . S
N2671 H2675 0.985 . S
H2672 N2667 0.984 . S
H2673 N2667 0.985 . S
H2674 N2671 0.984 . S
H2675 N2671 0.985 . S
H2676 N2670 0.984 . S
H2677 N2670 0.984 . S
H2678 N2666 0.984 . S
H2679 N2666 0.985 . S
C953 C101 2.353 . S
C955 C325 2.305 . S
C971 C57 2.066 . S
C973 C376 2.123 . S
C989 C70 1.661 . S
C991 C405 1.614 . S
C1009 C449 1.500 . S
C1007 C82 1.583 . S
C1025 C23 1.483 . S
C1027 C489 1.397 . S
C1045 C525 1.632 . S
C1043 C29 1.685 . S
C1063 C575 2.032 . S
C1061 C49 1.916 . S
C1079 C10 2.467 . S
C1081 C605 2.416 . S
C1099 C335 2.014 . S
C1097 C218 2.035 . S
C1115 C226 1.082 . S
C1117 C378 1.005 . S
C1135 C415 1.498 . S
C1133 C251 1.416 . S
C1153 C445 1.411 . S
C1151 C159 1.449 . S
C1169 C211 1.498 . S
C1171 C485 1.455 . S
C1189 C535 1.132 . S
C1187 C225 1.080 . S
C1207 C569 1.061 . S
C1205 C252 1.149 . S
C1225 C615 1.999 . S
C1223 C166 2.022 . S
C1243 C329 1.549 . S
C1241 C147 1.669 . S
C1259 C263 1.729 . S
C1261 C655 1.818 . S
C1279 C689 1.644 . S
C1277 C309 1.743 . S
C1297 C725 0.902 . S
C1295 C291 0.932 . S
C1313 C108 1.737 . S
C1315 C609 1.623 . S
C1331 C121 1.795 . S
C1333 C409 1.689 . S
C1349 C302 1.660 . S
C1351 C775 1.749 . S
C1369 C794 0.565 . S
C1367 C276 0.536 . S
C1387 C336 2.465 1_565 S
C1385 C55 2.456 . S
C1405 C805 2.333 . S
C1403 C96 2.302 . S
C1421 C88 1.939 . S
C1423 C416 1.944 . S
C1439 C75 1.611 . S
C1441 C778 1.549 . S
C1459 C498 1.441 . S
C1457 C4 1.503 . S
C1475 C44 1.944 . S
C1477 C696 1.945 . S
C1495 C554 2.181 1_566 S
C1493 C31 2.134 . S
C1513 C856 2.562 . S
C1511 C18 2.561 . S
C1531 C314 2.203 1_556 S
C1529 C133 2.228 . S
C1549 C809 0.878 . S
C1547 C296 0.889 . S
C1565 C107 1.526 . S
C1567 C394 1.545 . S
C1583 C264 1.706 . S
C1585 C776 1.709 . S
C1601 C140 1.751 . S
C1603 C496 1.750 . S
C1621 C674 1.172 . S
C1619 C289 1.168 . S
C1637 C114 1.114 . S
C1639 C578 1.071 . S
C1655 C265 2.222 . S
C1657 C834 2.196 . S
C1673 C179 1.506 . S
C1675 C338 1.431 . S
C1691 C161 1.894 . S
C1693 C634 1.921 . S
C1709 C244 1.598 . S
C1711 C538 1.543 . S
C1727 C224 1.045 . S
C1729 C736 1.031 . S
C1747 C858 1.596 1_545 S
C1745 C257 1.666 . S
C1763 C199 1.661 . S
C1765 C418 1.598 . S
C1783 C434 1.853 . S
C1781 C237 1.824 . S
C1801 C375 0.624 . S
C1799 C185 0.612 . S
C1817 C69 2.353 . S
C1819 C885 2.306 . S
C1837 C816 2.123 . S
C1835 C83 2.066 . S
C1853 C94 1.662 . S
C1855 C925 1.614 . S
C1871 C56 1.578 1_655 S
C1873 C769 1.499 . S
C1889 C42 1.497 . S
C1891 C649 1.402 . S
C1909 C685 1.632 . S
C1907 C3 1.686 . S
C1927 C735 2.041 . S
C1925 C16 1.925 . S
C1945 C845 2.416 . S
C1943 C36 2.467 . S
C1963 C895 2.014 . S
C1961 C238 2.035 . S
C1979 C174 1.080 . S
C1981 C818 1.004 1_554 S
C1999 C935 1.498 . S
C1997 C186 1.415 . S
C2017 C765 1.410 . S
C2015 C198 1.447 . S
C2035 C645 1.456 . S
C2033 C239 1.499 . S
C2051 C173 1.080 . S
C2053 C695 1.134 . S
C2071 C729 1.063 . S
C2069 C187 1.151 . S
C2087 C205 2.022 . S
C2089 C855 2.000 . S
C2107 C889 1.547 . S
C2105 C290 1.669 . S
C2123 C122 1.730 . S
C2125 C495 1.818 . S
C2143 C529 1.644 . S
C2141 C134 1.743 . S
C2161 C565 0.901 . S
C2159 C148 0.927 . S
C2179 C849 1.623 . S
C2177 C283 1.736 . S
C2195 C270 1.793 . S
C2197 C929 1.687 . S
C2215 C455 1.748 . S
C2213 C135 1.659 . S
C2233 C354 0.564 . S
C2231 C109 0.535 . S
C2249 C81 2.456 . S
C2251 C896 2.465 . S
C2269 C365 2.332 . S
C2267 C68 2.301 . S
C2285 C62 1.939 . S
C2287 C936 1.944 . S
C2303 C95 1.610 . S
C2305 C458 1.548 . S
C2321 C30 1.502 . S
C2323 C658 1.441 . S
C2341 C536 1.937 . S
C2339 C17 1.940 . S
C2357 C5 2.134 . S
C2359 C714 2.182 . S
C2375 C43 2.562 . S
C2377 C616 2.553 . S
C2395 C874 2.203 . S
C2393 C304 2.228 . S
C2411 C153 0.888 . S
C2413 C369 0.872 . S
C2431 C914 1.546 1_656 S
C2429 C278 1.527 . S
C2447 C127 1.706 . S
C2449 C456 1.708 . S
C2465 C303 1.748 . S
C2467 C656 1.747 . S
C2485 C514 1.172 . S
C2483 C146 1.172 . S
C2501 C277 1.112 . S
C2503 C738 1.068 . S
C2521 C594 2.195 . S
C2519 C120 2.221 . S
C2539 C898 1.430 . S
C2537 C231 1.506 . S
C2557 C474 1.921 1_565 S
C2555 C200 1.894 . S
C2573 C212 1.598 . S
C2575 C698 1.543 . S
C2593 C576 1.030 . S
C2591 C172 1.044 . S
C2609 C192 1.666 . S
C2611 C618 1.595 . S
C2627 C160 1.662 . S
C2629 C938 1.598 . S
C2647 C754 1.854 . S
C2645 C213 1.825 . S
C2665 C815 0.625 . S
C2663 C250 0.612 . S
