# Generated by pormake.
# Topology pyr, (3,6)-cn, num edge types: 1
# Building blocks:
#     Node 0, Type 0, BuildingBlock: OLANEW_clean_sbu_2, # of connection points: 3
#     Node 1, Type 0, BuildingBlock: OLANEW_clean_sbu_2, # of connection points: 3
#     Node 2, Type 0, BuildingBlock: OLANEW_clean_sbu_2, # of connection points: 3
#     Node 3, Type 0, BuildingBlock: OLANEW_clean_sbu_2, # of connection points: 3
#     Node 4, Type 0, BuildingBlock: OLANEW_clean_sbu_2, # of connection points: 3
#     Node 5, Type 0, BuildingBlock: OLANEW_clean_sbu_2, # of connection points: 3
#     Node 6, Type 0, BuildingBlock: OLANEW_clean_sbu_2, # of connection points: 3
#     Node 7, Type 0, BuildingBlock: OLANEW_clean_sbu_2, # of connection points: 3
#     Node 8, Type 1, BuildingBlock: PAMTUU_clean_sbu_0, # of connection points: 6
#     Node 9, Type 1, BuildingBlock: PAMTUU_clean_sbu_0, # of connection points: 6
#     Node 10, Type 1, BuildingBlock: PAMTUU_clean_sbu_0, # of connection points: 6
#     Node 11, Type 1, BuildingBlock: PAMTUU_clean_sbu_0, # of connection points: 6
#     Edge 12, Type (0, 1), None
#     Edge 13, Type (0, 1), None
#     Edge 14, Type (0, 1), None
#     Edge 15, Type (0, 1), None
#     Edge 16, Type (0, 1), None
#     Edge 17, Type (0, 1), None
#     Edge 18, Type (0, 1), None
#     Edge 19, Type (0, 1), None
#     Edge 20, Type (0, 1), None
#     Edge 21, Type (0, 1), None
#     Edge 22, Type (0, 1), None
#     Edge 23, Type (0, 1), None
#     Edge 24, Type (0, 1), None
#     Edge 25, Type (0, 1), None
#     Edge 26, Type (0, 1), None
#     Edge 27, Type (0, 1), None
#     Edge 28, Type (0, 1), None
#     Edge 29, Type (0, 1), None
#     Edge 30, Type (0, 1), None
#     Edge 31, Type (0, 1), None
#     Edge 32, Type (0, 1), None
#     Edge 33, Type (0, 1), None
#     Edge 34, Type (0, 1), None
#     Edge 35, Type (0, 1), None
# Relax obj value: 0.361
# Max RMSD: 0.216
# Mean RMSD: 0.136
data_MOF--net-pyr--node1-OLANEW_clean_sbu_2--node2-PAMTUU_clean_sbu_0--edge1-none
_symmetry_space_group_name_H-M    P1
_symmetry_Int_Tables_number       1
_symmetry_cell_setting            triclinic
loop_
_symmetry_equiv_pos_as_xyz
'x, y, z'
_cell_length_a     19.878324
_cell_length_b     21.74086
_cell_length_c     20.62586
_cell_angle_alpha  96.300157
_cell_angle_beta   88.869028
_cell_angle_gamma 105.79279
loop_
_atom_site_label
_atom_site_type_symbol
_atom_site_fract_x
_atom_site_fract_y
_atom_site_fract_z
_atom_type_partial_charge
O0 O 0.45786 0.22347 0.24393 0.0
Cd1 Cd 0.39924 0.31346 0.265 0.0
O2 O 0.37027 0.14059 0.21006 0.0
Cd3 Cd 0.32455 1.03682 0.1874 0.0
O4 O 0.27787 0.98924 0.27064 0.0
C5 C 0.31781 1.00036 0.32039 0.0
O6 O 0.38534 1.02381 0.31243 0.0
C7 C 0.43438 0.16352 0.22591 0.0
C8 C 0.27551 0.33748 0.22013 0.0
O9 O 0.33299 0.35309 0.18874 0.0
O10 O 0.27477 0.30578 0.26929 0.0
O11 O 0.11074 0.8639 0.94728 0.0
Cd12 Cd 0.06672 0.81662 0.83976 0.0
O13 O 0.14954 0.95263 0.90051 0.0
Cd14 Cd 0.07378 0.93085 0.82123 0.0
O15 O 0.04528 0.959 0.73019 0.0
C16 C 0.99681 0.98671 0.73042 0.0
O17 O 0.96163 0.99317 0.78415 0.0
C18 C 0.15231 0.91968 0.94707 0.0
C19 C 0.19024 0.7926 0.79439 0.0
O20 O 0.14175 0.74836 0.81686 0.0
O21 O 0.17736 0.84611 0.78728 0.0
O22 O 0.78932 0.51792 0.96586 0.0
Cd23 Cd 0.67398 0.49652 0.89748 0.0
O24 O 0.79215 0.44231 1.03182 0.0
Cd25 Cd 0.70346 0.35275 1.03464 0.0
O26 O 0.646 0.25476 0.06292 0.0
C27 C 0.67425 0.22904 0.10381 0.0
O28 O 0.73608 0.26072 0.1282 0.0
C29 C 0.82022 0.49594 1.00916 0.0
C30 C 0.62639 0.56078 0.79673 0.0
O31 O 0.61676 0.57545 0.85755 0.0
O32 O 0.66201 0.51995 0.78305 0.0
O33 O 0.95953 0.89339 0.40624 0.0
Cd34 Cd 0.9239 0.77814 0.33856 0.0
O35 O 0.88602 0.86882 0.48831 0.0
Cd36 Cd 0.82762 0.76881 0.4861 0.0
O37 O 0.73937 0.71149 0.53765 0.0
C38 C 0.71688 0.73099 0.59232 0.0
O39 O 0.74852 0.78778 0.62212 0.0
C40 C 0.93167 0.91005 0.46017 0.0
C41 C 0.96645 0.70294 0.22595 0.0
O42 O 0.93455 0.74588 0.21883 0.0
O43 O 0.98294 0.69801 0.28468 0.0
O44 O 0.61307 0.84072 0.79111 0.0
Cd45 Cd 0.60015 0.75893 0.86445 0.0
O46 O 0.64344 0.90807 0.8782 0.0
Cd47 Cd 0.68621 0.98947 0.95118 0.0
O48 O 0.75126 0.99604 1.03744 0.0
C49 C 0.7371 1.00032 0.09796 0.0
O50 O 0.78519 0.99878 0.14003 0.0
C51 C 0.63586 0.89828 0.81647 0.0
C52 C 0.73528 0.75276 0.8872 0.0
O53 O 0.69761 0.71636 0.84083 0.0
O54 O 0.70812 0.79075 0.92415 0.0
O55 O 0.94203 0.40172 0.37133 0.0
Cd56 Cd 0.94757 0.36041 0.47711 0.0
O57 O 0.8959 0.40518 0.27648 0.0
Cd58 Cd 0.92846 0.5095 0.29235 0.0
O59 O 0.84407 0.52715 0.35497 0.0
C60 C 0.78228 0.49515 0.33731 0.0
O61 O 0.7728 0.46071 0.28013 0.0
C62 C 0.90221 0.37371 0.32332 0.0
C63 C 0.96256 0.23724 0.48528 0.0
O64 O 0.01603 0.28485 0.47893 0.0
O65 O 0.90191 0.24717 0.48585 0.0
O66 O 0.48922 0.86817 0.31692 0.0
Cd67 Cd 0.43384 0.76681 0.37686 0.0
O68 O 0.43002 0.84225 0.22245 0.0
Cd69 Cd 0.35431 0.74642 0.21946 0.0
O70 O 0.26017 0.67676 0.17267 0.0
C71 C 0.22871 0.69707 0.12985 0.0
O72 O 0.25366 0.75656 0.11605 0.0
C73 C 0.47564 0.88199 0.26022 0.0
C74 C 0.47474 0.70928 0.48563 0.0
O75 O 0.47486 0.68335 0.42672 0.0
O76 O 0.46014 0.76362 0.49359 0.0
O77 O 0.15648 0.52906 0.86665 0.0
Cd78 Cd 0.19577 0.47623 0.76306 0.0
O79 O 0.08498 0.43843 0.8938 0.0
Cd80 Cd 0.10028 0.36695 0.81097 0.0
O81 O 0.08903 0.27963 0.73752 0.0
C82 C 0.0276 0.24959 0.71672 0.0
O83 O 0.97508 0.27155 0.73852 0.0
C84 C 0.11153 0.49924 0.90562 0.0
C85 C 0.32694 0.52792 0.70448 0.0
O86 O 0.27625 0.55353 0.70183 0.0
O87 O 0.31756 0.47918 0.7367 0.0
Tb88 Tb 0.06125 0.09576 0.5605 0.0
Tb89 Tb 0.89481 0.07757 0.59307 0.0
C90 C 0.94885 0.97696 0.49499 0.0
C91 C 0.2221 0.06493 0.48944 0.0
C92 C 0.28737 1.01087 0.38511 0.0
C93 C 0.21492 0.98786 0.39377 0.0
C94 C 0.1825 1.01464 0.4458 0.0
C95 C 0.29503 0.08288 0.48524 0.0
C96 C 0.32768 0.05552 0.43367 0.0
C97 C 0.18736 0.10509 0.53193 0.0
O98 O 0.03129 0.1764 0.52758 0.0
O99 O 0.91529 0.12798 0.50686 0.0
O100 O 0.94836 0.16978 0.64575 0.0
O101 O 0.06306 0.16506 0.64744 0.0
O102 O 0.79099 1.02013 0.57958 0.0
O103 O 0.8141 0.11142 0.63821 0.0
O104 O 0.93731 0.04826 0.67632 0.0
O105 O 0.02961 1.01999 0.62481 0.0
O106 O 1.00588 1.02169 0.48371 0.0
O107 O 0.90782 0.98693 0.54381 0.0
C108 C 0.97116 0.17599 0.50226 0.0
O109 O 0.14674 0.13063 0.50141 0.0
O110 O 0.15807 0.08132 0.58405 0.0
C111 C 1.01304 0.1918 0.66788 0.0
C112 C 0.72683 1.02594 0.67604 0.0
C113 C 0.66061 0.94905 0.7728 0.0
C114 C 0.72065 0.99984 0.78843 0.0
C115 C 0.75389 1.03775 0.74023 0.0
C116 C 0.66404 0.97833 0.6619 0.0
C117 C 0.63135 0.94008 0.70974 0.0
C118 C 0.76708 0.05748 0.62218 0.0
C119 C 0.98658 1.0187 0.6741 0.0
H120 H 0.18265 0.953 0.35754 0.0
H121 H 0.12609 0.99962 0.44891 0.0
H122 H 0.3263 0.12133 0.51891 0.0
H123 H 0.38371 0.07397 0.42867 0.0
H124 H 0.74484 1.00719 0.83627 0.0
H125 H 0.80261 0.07401 0.75243 0.0
H126 H 0.64228 0.96841 0.61288 0.0
H127 H 0.58501 0.90121 0.69639 0.0
Tb128 Tb 0.61856 0.08131 0.24554 0.0
Tb129 Tb 0.5237 1.03071 0.1144 0.0
C130 C 0.67081 1.01099 0.12266 0.0
C131 C 0.75317 0.19352 0.34272 0.0
C132 C 0.85234 0.31089 0.32816 0.0
C133 C 0.87368 0.25959 0.34817 0.0
C134 C 0.8243 0.20098 0.3552 0.0
C135 C 0.73223 0.24516 0.32251 0.0
C136 C 0.78139 0.30318 0.31522 0.0
C137 C 0.70368 0.12924 0.33745 0.0
O138 O 0.6673 0.14856 0.1762 0.0
O139 O 0.57772 0.13147 0.10195 0.0
O140 O 0.46018 0.0639 0.189 0.0
O141 O 0.54726 0.14249 0.24065 0.0
O142 O 0.46699 0.95406 0.04827 0.0
O143 O 0.4678 0.05213 1.03933 0.0
O144 O 0.50793 0.94797 0.17158 0.0
O145 O 0.54288 0.99555 0.27511 0.0
O146 O 0.65944 1.01109 0.18556 0.0
O147 O 0.62734 1.02537 0.08394 0.0
C148 C 0.63796 0.16643 0.12765 0.0
O149 O 0.6372 0.1265 0.34162 0.0
O150 O 0.71611 0.09111 0.28837 0.0
C151 C 0.48187 0.1211 0.22073 0.0
C152 C 0.3607 0.97365 1.01623 0.0
C153 C 0.2167 0.93851 0.98689 0.0
C154 C 0.25438 1.00355 0.99591 0.0
C155 C 0.32566 1.02097 1.01036 0.0
C156 C 0.32165 0.90891 1.01317 0.0
C157 C 0.24996 0.89149 0.99914 0.0
C158 C 0.43789 0.99184 1.02093 0.0
C159 C 0.51154 0.94484 0.23509 0.0
H160 H 0.9285 0.26457 0.35703 0.0
H161 H 0.84183 0.16095 0.36843 0.0
H162 H 0.67814 0.24016 0.31016 0.0
H163 H 0.76371 0.34214 0.29968 0.0
H164 H 0.22998 1.04065 0.9865 0.0
H165 H 0.35391 0.07141 1.01312 0.0
H166 H 0.34707 0.87142 1.01796 0.0
H167 H 0.22235 0.84085 0.99167 0.0
Tb168 Tb 0.53196 0.5602 0.59965 0.0
Tb169 Tb 0.51227 0.68238 0.69517 0.0
C170 C 0.49068 0.67804 0.54281 0.0
C171 C 0.61284 0.47681 0.47349 0.0
C172 C 0.72311 0.49077 0.38301 0.0
C173 C 0.65769 0.44632 0.36795 0.0
C174 C 0.603 0.43945 0.41286 0.0
C175 C 0.67787 0.52172 0.48822 0.0
C176 C 0.73242 0.5285 0.4436 0.0
C177 C 0.55509 0.47161 0.52043 0.0
O178 O 0.61976 0.63955 0.58031 0.0
O179 O 0.62282 0.71356 0.67057 0.0
O180 O 0.55337 0.62497 0.75899 0.0
O181 O 0.60095 0.5646 0.6827 0.0
O182 O 0.50003 0.77579 0.71486 0.0
O183 O 0.47882 0.71001 0.78823 0.0
O184 O 0.41123 0.61753 0.66607 0.0
O185 O 0.44119 0.52445 0.66096 0.0
O186 O 0.48743 0.61603 0.53655 0.0
O187 O 0.50598 0.71358 0.59902 0.0
C188 C 0.65089 0.69242 0.61709 0.0
O189 O 0.57364 0.48108 0.5816 0.0
O190 O 0.50956 0.50246 0.50937 0.0
C191 C 0.59329 0.58594 0.7438 0.0
C192 C 0.39834 0.77055 0.77696 0.0
C193 C 0.26115 0.78433 0.78361 0.0
C194 C 0.27298 0.72386 0.78621 0.0
C195 C 0.34074 0.71697 0.7826 0.0
C196 C 0.3867 0.83092 0.77374 0.0
C197 C 0.31866 0.83779 0.7769 0.0
C198 C 0.46968 0.76275 0.77014 0.0
C199 C 0.3953 0.55701 0.67526 0.0
H200 H 0.64889 0.41621 0.32179 0.0
H201 H 0.55314 0.40501 0.40028 0.0
H202 H 0.68675 0.5516 0.5345 0.0
H203 H 0.78202 0.56307 0.45682 0.0
H204 H 0.2299 0.68182 0.79167 0.0
H205 H 0.34788 0.66954 0.7843 0.0
H206 H 0.43024 0.87271 0.76871 0.0
H207 H 0.3113 0.8852 0.77556 0.0
Tb208 Tb 0.02627 0.64938 1.0183 0.0
Tb209 Tb 0.0318 0.5359 0.10977 0.0
C210 C 0.0869 0.53467 0.96379 0.0
C211 C 0.94325 0.74116 0.92433 0.0
C212 C 0.80782 0.7506 0.89805 0.0
C213 C 0.83429 0.70384 0.86202 0.0
C214 C 0.90129 0.69919 0.87496 0.0
C215 C 0.9182 0.7902 0.9578 0.0
C216 C 0.85102 0.79469 0.94501 0.0
C217 C 1.00908 0.72969 0.94566 0.0
O218 O 0.92984 0.57414 0.99512 0.0
O219 O 0.92001 0.51745 0.08438 0.0
O220 O 1.01077 0.61339 0.17907 0.0
O221 O 0.9734 0.67283 0.10875 0.0
O222 O 0.01608 0.4371 0.11791 0.0
O223 O 0.05983 0.50752 0.19762 0.0
O224 O 0.13942 0.59638 0.10701 0.0
O225 O 0.12186 0.68919 0.07486 0.0
O226 O 0.09585 0.5972 0.9671 0.0
O227 O 0.05219 0.50146 1.0092 0.0
C228 C 0.89309 0.53151 1.03143 0.0
O229 O 0.0244 0.74397 1.0076 0.0
O230 O 0.01982 0.67469 0.92375 0.0
C231 C 0.98454 0.66115 0.16849 0.0
C232 C 0.10286 0.41562 0.18273 0.0
C233 C 0.21392 0.36042 0.20399 0.0
C234 C 0.15332 0.3477 0.24249 0.0
C235 C 0.09854 0.375 0.23197 0.0
C236 C 0.16238 0.42731 0.14311 0.0
C237 C 0.21723 0.39999 0.15356 0.0
C238 C 0.0464 0.4472 0.1749 0.0
C239 C 0.16038 0.65858 0.10215 0.0
H240 H 0.80257 0.66961 0.82499 0.0
H241 H 0.91911 0.66119 0.84773 0.0
H242 H 0.94958 0.82368 0.99559 0.0
H243 H 0.83249 0.83196 0.97284 0.0
H244 H 0.14884 0.31787 0.28196 0.0
H245 H 0.05323 0.3653 0.26321 0.0
H246 H 0.16702 0.45857 0.10485 0.0
H247 H 0.26302 0.41124 0.12311 0.0
loop_
_geom_bond_atom_site_label_1
_geom_bond_atom_site_label_2
_geom_bond_distance
_geom_bond_site_symmetry_2
_ccdc_geom_bond_type
O0 Cd1 2.300 . S
O0 C7 1.275 . S
Cd1 O0 2.300 . S
Cd1 O9 2.381 . S
Cd1 O10 2.378 . S
O2 Cd3 2.385 . S
O2 C7 1.255 . S
Cd3 O2 2.385 . S
Cd3 O4 2.317 . S
O4 Cd3 2.317 . S
O4 C5 1.232 . S
C5 O4 1.232 . S
C5 O6 1.218 . S
O6 C5 1.218 . S
C7 O0 1.275 . S
C7 O2 1.255 . S
C8 O9 1.258 . S
C8 O10 1.256 . S
O9 Cd1 2.381 . S
O9 C8 1.258 . S
O10 Cd1 2.378 . S
O10 C8 1.256 . S
O11 Cd12 2.300 . S
O11 C18 1.275 . S
Cd12 O11 2.300 . S
Cd12 O20 2.381 . S
Cd12 O21 2.378 . S
O13 Cd14 2.385 1_455 S
O13 C18 1.255 . S
Cd14 O13 2.385 1_655 S
Cd14 O15 2.317 . S
O15 Cd14 2.317 . S
O15 C16 1.232 . S
C16 O15 1.232 . S
C16 O17 1.218 . S
O17 C16 1.218 . S
C18 O11 1.275 . S
C18 O13 1.255 . S
C19 O20 1.258 . S
C19 O21 1.256 . S
O20 Cd12 2.381 . S
O20 C19 1.258 . S
O21 Cd12 2.378 . S
O21 C19 1.256 . S
O22 Cd23 2.300 . S
O22 C29 1.275 . S
Cd23 O22 2.300 . S
Cd23 O31 2.381 . S
Cd23 O32 2.378 . S
O24 Cd25 2.385 . S
O24 C29 1.255 . S
Cd25 O24 2.385 . S
Cd25 O26 2.317 . S
O26 Cd25 2.317 . S
O26 C27 1.232 . S
C27 O26 1.232 . S
C27 O28 1.218 . S
O28 C27 1.218 . S
C29 O22 1.275 . S
C29 O24 1.255 . S
C30 O31 1.258 . S
C30 O32 1.256 . S
O31 Cd23 2.381 . S
O31 C30 1.258 . S
O32 Cd23 2.378 . S
O32 C30 1.256 . S
O33 Cd34 2.300 . S
O33 C40 1.275 . S
Cd34 O33 2.300 . S
Cd34 O42 2.381 . S
Cd34 O43 2.378 . S
O35 Cd36 2.385 . S
O35 C40 1.255 . S
Cd36 O35 2.385 . S
Cd36 O37 2.317 . S
O37 Cd36 2.317 . S
O37 C38 1.232 . S
C38 O37 1.232 . S
C38 O39 1.218 . S
O39 C38 1.218 . S
C40 O33 1.275 . S
C40 O35 1.255 . S
C41 O42 1.258 . S
C41 O43 1.256 . S
O42 Cd34 2.381 . S
O42 C41 1.258 . S
O43 Cd34 2.378 . S
O43 C41 1.256 . S
O44 Cd45 2.300 . S
O44 C51 1.275 . S
Cd45 O44 2.300 . S
Cd45 O53 2.381 . S
Cd45 O54 2.378 1_556 S
O46 Cd47 2.385 . S
O46 C51 1.255 . S
Cd47 O46 2.385 . S
Cd47 O48 2.317 . S
O48 Cd47 2.317 . S
O48 C49 1.232 . S
C49 O48 1.232 . S
C49 O50 1.218 . S
O50 C49 1.218 . S
C51 O44 1.275 . S
C51 O46 1.255 . S
C52 O53 1.258 . S
C52 O54 1.256 1_556 S
O53 Cd45 2.381 . S
O53 C52 1.258 . S
O54 Cd45 2.378 1_554 S
O54 C52 1.256 1_554 S
O55 Cd56 2.300 1_655 S
O55 C62 1.275 . S
Cd56 O55 2.300 1_455 S
Cd56 O64 2.381 . S
Cd56 O65 2.378 . S
O57 Cd58 2.385 1_655 S
O57 C62 1.255 . S
Cd58 O57 2.385 1_455 S
Cd58 O59 2.317 1_455 S
O59 Cd58 2.317 1_655 S
O59 C60 1.232 . S
C60 O59 1.232 . S
C60 O61 1.218 . S
O61 C60 1.218 . S
C62 O55 1.275 . S
C62 O57 1.255 . S
C63 O64 1.258 . S
C63 O65 1.256 . S
O64 Cd56 2.381 . S
O64 C63 1.258 . S
O65 Cd56 2.378 . S
O65 C63 1.256 . S
O66 Cd67 2.300 . S
O66 C73 1.275 . S
Cd67 O66 2.300 . S
Cd67 O75 2.381 . S
Cd67 O76 2.378 . S
O68 Cd69 2.385 . S
O68 C73 1.255 . S
Cd69 O68 2.385 . S
Cd69 O70 2.317 . S
O70 Cd69 2.317 . S
O70 C71 1.232 . S
C71 O70 1.232 . S
C71 O72 1.218 . S
O72 C71 1.218 . S
C73 O66 1.275 . S
C73 O68 1.255 . S
C74 O75 1.258 . S
C74 O76 1.256 . S
O75 Cd67 2.381 . S
O75 C74 1.258 . S
O76 Cd67 2.378 . S
O76 C74 1.256 . S
O77 Cd78 2.300 . S
O77 C84 1.275 . S
Cd78 O77 2.300 . S
Cd78 O86 2.381 . S
Cd78 O87 2.378 . S
O79 Cd80 2.385 . S
O79 C84 1.255 . S
Cd80 O79 2.385 . S
Cd80 O81 2.317 . S
O81 Cd80 2.317 . S
O81 C82 1.232 . S
C82 O81 1.232 . S
C82 O83 1.218 1_455 S
O83 C82 1.218 1_655 S
C84 O77 1.275 . S
C84 O79 1.255 . S
C85 O86 1.258 . S
C85 O87 1.256 . S
O86 Cd78 2.381 . S
O86 C85 1.258 . S
O87 Cd78 2.378 . S
O87 C85 1.256 . S
Tb88 C97 2.764 . S
Tb88 O98 2.325 . S
Tb88 O101 2.303 . S
Tb88 O105 2.322 1_545 S
Tb88 O106 2.349 1_545 S
Tb88 O109 2.415 . S
Tb88 O110 2.399 . S
Tb89 O99 2.322 . S
Tb89 O100 2.349 . S
Tb89 O102 2.415 1_545 S
Tb89 O103 2.399 . S
Tb89 O104 2.325 1_545 S
Tb89 O107 2.303 1_545 S
Tb89 C118 2.764 1_545 S
C90 O106 1.261 1_655 S
C90 O107 1.257 . S
C91 C94 1.358 . S
C91 C95 1.332 . S
C91 C97 1.504 . S
C92 C93 1.373 . S
C92 C96 1.308 . S
C93 C92 1.373 . S
C93 C94 1.429 . S
C93 H120 0.932 . S
C94 C91 1.358 . S
C94 C93 1.429 . S
C94 H121 0.930 . S
C95 C91 1.332 . S
C95 C96 1.394 . S
C95 H122 0.932 . S
C96 C92 1.308 . S
C96 C95 1.394 . S
C96 H123 0.929 . S
C97 Tb88 2.764 . S
C97 C91 1.504 . S
C97 O109 1.239 . S
C97 O110 1.263 . S
O98 Tb88 2.325 . S
O98 C108 1.236 1_455 S
O99 Tb89 2.322 . S
O99 C108 1.257 . S
O100 Tb89 2.349 . S
O100 C111 1.261 1_655 S
O101 Tb88 2.303 . S
O101 C111 1.257 . S
O102 Tb89 2.415 1_565 S
O102 C118 1.239 . S
O103 Tb89 2.399 . S
O103 C118 1.263 1_545 S
O104 Tb89 2.325 1_565 S
O104 C119 1.236 1_655 S
O105 Tb88 2.322 1_565 S
O105 C119 1.257 . S
O106 Tb88 2.349 1_565 S
O106 C90 1.261 1_455 S
O107 Tb89 2.303 1_565 S
O107 C90 1.257 . S
C108 O98 1.236 1_655 S
C108 O99 1.257 . S
O109 Tb88 2.415 . S
O109 C97 1.239 . S
O110 Tb88 2.399 . S
O110 C97 1.263 . S
C111 O100 1.261 1_455 S
C111 O101 1.257 . S
C112 C115 1.358 . S
C112 C116 1.332 . S
C112 C118 1.504 . S
C113 C114 1.373 . S
C113 C117 1.308 . S
C114 C113 1.373 . S
C114 C115 1.429 . S
C114 H124 0.932 . S
C115 C112 1.358 . S
C115 C114 1.429 . S
C115 H125 0.930 . S
C116 C112 1.332 . S
C116 C117 1.394 . S
C116 H126 0.932 . S
C117 C113 1.308 . S
C117 C116 1.394 . S
C117 H127 0.929 . S
C118 Tb89 2.764 1_565 S
C118 O102 1.239 . S
C118 O103 1.263 1_565 S
C118 C112 1.504 . S
C119 O104 1.236 1_455 S
C119 O105 1.257 . S
H120 C93 0.932 . S
H121 C94 0.930 . S
H122 C95 0.932 . S
H123 C96 0.929 . S
H124 C114 0.932 . S
H125 C115 0.930 . S
H126 C116 0.932 . S
H127 C117 0.929 . S
Tb128 C137 2.764 . S
Tb128 O138 2.325 . S
Tb128 O141 2.303 . S
Tb128 O145 2.322 1_545 S
Tb128 O146 2.349 . S
Tb128 O149 2.415 . S
Tb128 O150 2.399 . S
Tb129 O139 2.322 . S
Tb129 O140 2.349 . S
Tb129 O142 2.415 1_544 S
Tb129 O143 2.399 . S
Tb129 O144 2.325 1_545 S
Tb129 O147 2.303 . S
Tb129 C158 2.764 1_544 S
C130 O146 1.261 1_565 S
C130 O147 1.257 1_565 S
C131 C134 1.358 . S
C131 C135 1.332 . S
C131 C137 1.504 . S
C132 C133 1.373 . S
C132 C136 1.308 . S
C133 C132 1.373 . S
C133 C134 1.429 . S
C133 H160 0.932 . S
C134 C131 1.358 . S
C134 C133 1.429 . S
C134 H161 0.930 . S
C135 C131 1.332 . S
C135 C136 1.394 . S
C135 H162 0.932 . S
C136 C132 1.308 . S
C136 C135 1.394 . S
C136 H163 0.929 . S
C137 Tb128 2.764 . S
C137 C131 1.504 . S
C137 O149 1.239 . S
C137 O150 1.263 . S
O138 Tb128 2.325 . S
O138 C148 1.236 . S
O139 Tb129 2.322 . S
O139 C148 1.257 . S
O140 Tb129 2.349 . S
O140 C151 1.261 . S
O141 Tb128 2.303 . S
O141 C151 1.257 . S
O142 Tb129 2.415 1_566 S
O142 C158 1.239 . S
O143 Tb129 2.399 . S
O143 C158 1.263 1_544 S
O144 Tb129 2.325 1_565 S
O144 C159 1.236 . S
O145 Tb128 2.322 1_565 S
O145 C159 1.257 . S
O146 Tb128 2.349 . S
O146 C130 1.261 1_545 S
O147 Tb129 2.303 . S
O147 C130 1.257 1_545 S
C148 O138 1.236 . S
C148 O139 1.257 . S
O149 Tb128 2.415 . S
O149 C137 1.239 . S
O150 Tb128 2.399 . S
O150 C137 1.263 . S
C151 O140 1.261 . S
C151 O141 1.257 . S
C152 C155 1.358 . S
C152 C156 1.332 . S
C152 C158 1.504 . S
C153 C154 1.373 . S
C153 C157 1.308 . S
C154 C153 1.373 . S
C154 C155 1.429 . S
C154 H164 0.932 . S
C155 C152 1.358 . S
C155 C154 1.429 . S
C155 H165 0.930 . S
C156 C152 1.332 . S
C156 C157 1.394 . S
C156 H166 0.932 . S
C157 C153 1.308 . S
C157 C156 1.394 . S
C157 H167 0.929 . S
C158 Tb129 2.764 1_566 S
C158 O142 1.239 . S
C158 O143 1.263 1_566 S
C158 C152 1.504 . S
C159 O144 1.236 . S
C159 O145 1.257 . S
H160 C133 0.932 . S
H161 C134 0.930 . S
H162 C135 0.932 . S
H163 C136 0.929 . S
H164 C154 0.932 . S
H165 C155 0.930 . S
H166 C156 0.932 . S
H167 C157 0.929 . S
Tb168 C177 2.764 . S
Tb168 O178 2.325 . S
Tb168 O181 2.303 . S
Tb168 O185 2.322 . S
Tb168 O186 2.349 . S
Tb168 O189 2.415 . S
Tb168 O190 2.399 . S
Tb169 O179 2.322 . S
Tb169 O180 2.349 . S
Tb169 O182 2.415 . S
Tb169 O183 2.399 . S
Tb169 O184 2.325 . S
Tb169 O187 2.303 . S
Tb169 C198 2.764 . S
C170 O186 1.261 . S
C170 O187 1.257 . S
C171 C174 1.358 . S
C171 C175 1.332 . S
C171 C177 1.504 . S
C172 C173 1.373 . S
C172 C176 1.308 . S
C173 C172 1.373 . S
C173 C174 1.429 . S
C173 H200 0.932 . S
C174 C171 1.358 . S
C174 C173 1.429 . S
C174 H201 0.930 . S
C175 C171 1.332 . S
C175 C176 1.394 . S
C175 H202 0.932 . S
C176 C172 1.308 . S
C176 C175 1.394 . S
C176 H203 0.929 . S
C177 Tb168 2.764 . S
C177 C171 1.504 . S
C177 O189 1.239 . S
C177 O190 1.263 . S
O178 Tb168 2.325 . S
O178 C188 1.236 . S
O179 Tb169 2.322 . S
O179 C188 1.257 . S
O180 Tb169 2.349 . S
O180 C191 1.261 . S
O181 Tb168 2.303 . S
O181 C191 1.257 . S
O182 Tb169 2.415 . S
O182 C198 1.239 . S
O183 Tb169 2.399 . S
O183 C198 1.263 . S
O184 Tb169 2.325 . S
O184 C199 1.236 . S
O185 Tb168 2.322 . S
O185 C199 1.257 . S
O186 Tb168 2.349 . S
O186 C170 1.261 . S
O187 Tb169 2.303 . S
O187 C170 1.257 . S
C188 O178 1.236 . S
C188 O179 1.257 . S
O189 Tb168 2.415 . S
O189 C177 1.239 . S
O190 Tb168 2.399 . S
O190 C177 1.263 . S
C191 O180 1.261 . S
C191 O181 1.257 . S
C192 C195 1.358 . S
C192 C196 1.332 . S
C192 C198 1.504 . S
C193 C194 1.373 . S
C193 C197 1.308 . S
C194 C193 1.373 . S
C194 C195 1.429 . S
C194 H204 0.932 . S
C195 C192 1.358 . S
C195 C194 1.429 . S
C195 H205 0.930 . S
C196 C192 1.332 . S
C196 C197 1.394 . S
C196 H206 0.932 . S
C197 C193 1.308 . S
C197 C196 1.394 . S
C197 H207 0.929 . S
C198 Tb169 2.764 . S
C198 O182 1.239 . S
C198 O183 1.263 . S
C198 C192 1.504 . S
C199 O184 1.236 . S
C199 O185 1.257 . S
H200 C173 0.932 . S
H201 C174 0.930 . S
H202 C175 0.932 . S
H203 C176 0.929 . S
H204 C194 0.932 . S
H205 C195 0.930 . S
H206 C196 0.932 . S
H207 C197 0.929 . S
Tb208 C217 2.764 1_455 S
Tb208 O218 2.325 1_455 S
Tb208 O221 2.303 1_456 S
Tb208 O225 2.322 1_556 S
Tb208 O226 2.349 . S
Tb208 O229 2.415 1_456 S
Tb208 O230 2.399 1_455 S
Tb209 O219 2.322 1_455 S
Tb209 O220 2.349 1_455 S
Tb209 O222 2.415 . S
Tb209 O223 2.399 . S
Tb209 O224 2.325 . S
Tb209 O227 2.303 1_554 S
Tb209 C238 2.764 . S
C210 O226 1.261 . S
C210 O227 1.257 . S
C211 C214 1.358 . S
C211 C215 1.332 . S
C211 C217 1.504 . S
C212 C213 1.373 . S
C212 C216 1.308 . S
C213 C212 1.373 . S
C213 C214 1.429 . S
C213 H240 0.932 . S
C214 C211 1.358 . S
C214 C213 1.429 . S
C214 H241 0.930 . S
C215 C211 1.332 . S
C215 C216 1.394 . S
C215 H242 0.932 . S
C216 C212 1.308 . S
C216 C215 1.394 . S
C216 H243 0.929 . S
C217 Tb208 2.764 1_655 S
C217 C211 1.504 . S
C217 O229 1.239 1_556 S
C217 O230 1.263 . S
O218 Tb208 2.325 1_655 S
O218 C228 1.236 . S
O219 Tb209 2.322 1_655 S
O219 C228 1.257 1_554 S
O220 Tb209 2.349 1_655 S
O220 C231 1.261 . S
O221 Tb208 2.303 1_654 S
O221 C231 1.257 . S
O222 Tb209 2.415 . S
O222 C238 1.239 . S
O223 Tb209 2.399 . S
O223 C238 1.263 . S
O224 Tb209 2.325 . S
O224 C239 1.236 . S
O225 Tb208 2.322 1_554 S
O225 C239 1.257 . S
O226 Tb208 2.349 . S
O226 C210 1.261 . S
O227 Tb209 2.303 1_556 S
O227 C210 1.257 . S
C228 O218 1.236 . S
C228 O219 1.257 1_556 S
O229 Tb208 2.415 1_654 S
O229 C217 1.239 1_554 S
O230 Tb208 2.399 1_655 S
O230 C217 1.263 . S
C231 O220 1.261 . S
C231 O221 1.257 . S
C232 C235 1.358 . S
C232 C236 1.332 . S
C232 C238 1.504 . S
C233 C234 1.373 . S
C233 C237 1.308 . S
C234 C233 1.373 . S
C234 C235 1.429 . S
C234 H244 0.932 . S
C235 C232 1.358 . S
C235 C234 1.429 . S
C235 H245 0.930 . S
C236 C232 1.332 . S
C236 C237 1.394 . S
C236 H246 0.932 . S
C237 C233 1.308 . S
C237 C236 1.394 . S
C237 H247 0.929 . S
C238 Tb209 2.764 . S
C238 O222 1.239 . S
C238 O223 1.263 . S
C238 C232 1.504 . S
C239 O224 1.236 . S
C239 O225 1.257 . S
H240 C213 0.932 . S
H241 C214 0.930 . S
H242 C215 0.932 . S
H243 C216 0.929 . S
H244 C234 0.932 . S
H245 C235 0.930 . S
H246 C236 0.932 . S
H247 C237 0.929 . S
C5 C92 1.423 . S
C18 C153 1.024 . S
C191 C30 3.454 . S
C41 C231 3.343 . S
C151 C7 2.017 . S
C119 C16 3.600 1_455 S
C228 C29 2.432 . S
C188 C38 1.888 . S
C8 C233 2.083 . S
C148 C27 3.244 1_554 S
C40 C90 3.482 . S
C19 C193 2.756 . S
C113 C51 1.174 . S
C62 C132 2.257 . S
C74 C170 3.837 . S
C84 C210 3.436 . S
C49 C130 1.874 1_556 S
C108 C63 3.599 1_655 S
C239 C71 1.876 . S
C199 C85 2.423 . S
C52 C212 2.905 . S
C159 C73 4.297 . S
C111 C82 2.814 . S
C60 C172 2.574 . S
