# Generated by pormake.
# Topology tph, (6,8)-cn, num edge types: 1
# Building blocks:
#     Node 0, Type 0, BuildingBlock: MIDCAF_clean_sbu_0, # of connection points: 6
#     Node 1, Type 0, BuildingBlock: MIDCAF_clean_sbu_0, # of connection points: 6
#     Node 2, Type 0, BuildingBlock: MIDCAF_clean_sbu_0, # of connection points: 6
#     Node 3, Type 0, BuildingBlock: MIDCAF_clean_sbu_0, # of connection points: 6
#     Node 4, Type 0, BuildingBlock: MIDCAF_clean_sbu_0, # of connection points: 6
#     Node 5, Type 0, BuildingBlock: MIDCAF_clean_sbu_0, # of connection points: 6
#     Node 6, Type 0, BuildingBlock: MIDCAF_clean_sbu_0, # of connection points: 6
#     Node 7, Type 0, BuildingBlock: MIDCAF_clean_sbu_0, # of connection points: 6
#     Node 8, Type 0, BuildingBlock: MIDCAF_clean_sbu_0, # of connection points: 6
#     Node 9, Type 0, BuildingBlock: MIDCAF_clean_sbu_0, # of connection points: 6
#     Node 10, Type 0, BuildingBlock: MIDCAF_clean_sbu_0, # of connection points: 6
#     Node 11, Type 0, BuildingBlock: MIDCAF_clean_sbu_0, # of connection points: 6
#     Node 12, Type 0, BuildingBlock: MIDCAF_clean_sbu_0, # of connection points: 6
#     Node 13, Type 0, BuildingBlock: MIDCAF_clean_sbu_0, # of connection points: 6
#     Node 14, Type 0, BuildingBlock: MIDCAF_clean_sbu_0, # of connection points: 6
#     Node 15, Type 0, BuildingBlock: MIDCAF_clean_sbu_0, # of connection points: 6
#     Node 16, Type 1, BuildingBlock: TAGTUT_clean_sbu_3, # of connection points: 8
#     Node 17, Type 1, BuildingBlock: TAGTUT_clean_sbu_3, # of connection points: 8
#     Node 18, Type 1, BuildingBlock: TAGTUT_clean_sbu_3, # of connection points: 8
#     Node 19, Type 1, BuildingBlock: TAGTUT_clean_sbu_3, # of connection points: 8
#     Node 20, Type 1, BuildingBlock: TAGTUT_clean_sbu_3, # of connection points: 8
#     Node 21, Type 1, BuildingBlock: TAGTUT_clean_sbu_3, # of connection points: 8
#     Node 22, Type 1, BuildingBlock: TAGTUT_clean_sbu_3, # of connection points: 8
#     Node 23, Type 1, BuildingBlock: TAGTUT_clean_sbu_3, # of connection points: 8
#     Node 24, Type 1, BuildingBlock: TAGTUT_clean_sbu_3, # of connection points: 8
#     Node 25, Type 1, BuildingBlock: TAGTUT_clean_sbu_3, # of connection points: 8
#     Node 26, Type 1, BuildingBlock: TAGTUT_clean_sbu_3, # of connection points: 8
#     Node 27, Type 1, BuildingBlock: TAGTUT_clean_sbu_3, # of connection points: 8
#     Edge 28, Type (0, 1), BuildingBlock: XUDNAN_clean_linker_2, # of connection points: 2
#     Edge 29, Type (0, 1), BuildingBlock: XUDNAN_clean_linker_2, # of connection points: 2
#     Edge 30, Type (0, 1), BuildingBlock: XUDNAN_clean_linker_2, # of connection points: 2
#     Edge 31, Type (0, 1), BuildingBlock: XUDNAN_clean_linker_2, # of connection points: 2
#     Edge 32, Type (0, 1), BuildingBlock: XUDNAN_clean_linker_2, # of connection points: 2
#     Edge 33, Type (0, 1), BuildingBlock: XUDNAN_clean_linker_2, # of connection points: 2
#     Edge 34, Type (0, 1), BuildingBlock: XUDNAN_clean_linker_2, # of connection points: 2
#     Edge 35, Type (0, 1), BuildingBlock: XUDNAN_clean_linker_2, # of connection points: 2
#     Edge 36, Type (0, 1), BuildingBlock: XUDNAN_clean_linker_2, # of connection points: 2
#     Edge 37, Type (0, 1), BuildingBlock: XUDNAN_clean_linker_2, # of connection points: 2
#     Edge 38, Type (0, 1), BuildingBlock: XUDNAN_clean_linker_2, # of connection points: 2
#     Edge 39, Type (0, 1), BuildingBlock: XUDNAN_clean_linker_2, # of connection points: 2
#     Edge 40, Type (0, 1), BuildingBlock: XUDNAN_clean_linker_2, # of connection points: 2
#     Edge 41, Type (0, 1), BuildingBlock: XUDNAN_clean_linker_2, # of connection points: 2
#     Edge 42, Type (0, 1), BuildingBlock: XUDNAN_clean_linker_2, # of connection points: 2
#     Edge 43, Type (0, 1), BuildingBlock: XUDNAN_clean_linker_2, # of connection points: 2
#     Edge 44, Type (0, 1), BuildingBlock: XUDNAN_clean_linker_2, # of connection points: 2
#     Edge 45, Type (0, 1), BuildingBlock: XUDNAN_clean_linker_2, # of connection points: 2
#     Edge 46, Type (0, 1), BuildingBlock: XUDNAN_clean_linker_2, # of connection points: 2
#     Edge 47, Type (0, 1), BuildingBlock: XUDNAN_clean_linker_2, # of connection points: 2
#     Edge 48, Type (0, 1), BuildingBlock: XUDNAN_clean_linker_2, # of connection points: 2
#     Edge 49, Type (0, 1), BuildingBlock: XUDNAN_clean_linker_2, # of connection points: 2
#     Edge 50, Type (0, 1), BuildingBlock: XUDNAN_clean_linker_2, # of connection points: 2
#     Edge 51, Type (0, 1), BuildingBlock: XUDNAN_clean_linker_2, # of connection points: 2
#     Edge 52, Type (0, 1), BuildingBlock: XUDNAN_clean_linker_2, # of connection points: 2
#     Edge 53, Type (0, 1), BuildingBlock: XUDNAN_clean_linker_2, # of connection points: 2
#     Edge 54, Type (0, 1), BuildingBlock: XUDNAN_clean_linker_2, # of connection points: 2
#     Edge 55, Type (0, 1), BuildingBlock: XUDNAN_clean_linker_2, # of connection points: 2
#     Edge 56, Type (0, 1), BuildingBlock: XUDNAN_clean_linker_2, # of connection points: 2
#     Edge 57, Type (0, 1), BuildingBlock: XUDNAN_clean_linker_2, # of connection points: 2
#     Edge 58, Type (0, 1), BuildingBlock: XUDNAN_clean_linker_2, # of connection points: 2
#     Edge 59, Type (0, 1), BuildingBlock: XUDNAN_clean_linker_2, # of connection points: 2
#     Edge 60, Type (0, 1), BuildingBlock: XUDNAN_clean_linker_2, # of connection points: 2
#     Edge 61, Type (0, 1), BuildingBlock: XUDNAN_clean_linker_2, # of connection points: 2
#     Edge 62, Type (0, 1), BuildingBlock: XUDNAN_clean_linker_2, # of connection points: 2
#     Edge 63, Type (0, 1), BuildingBlock: XUDNAN_clean_linker_2, # of connection points: 2
#     Edge 64, Type (0, 1), BuildingBlock: XUDNAN_clean_linker_2, # of connection points: 2
#     Edge 65, Type (0, 1), BuildingBlock: XUDNAN_clean_linker_2, # of connection points: 2
#     Edge 66, Type (0, 1), BuildingBlock: XUDNAN_clean_linker_2, # of connection points: 2
#     Edge 67, Type (0, 1), BuildingBlock: XUDNAN_clean_linker_2, # of connection points: 2
#     Edge 68, Type (0, 1), BuildingBlock: XUDNAN_clean_linker_2, # of connection points: 2
#     Edge 69, Type (0, 1), BuildingBlock: XUDNAN_clean_linker_2, # of connection points: 2
#     Edge 70, Type (0, 1), BuildingBlock: XUDNAN_clean_linker_2, # of connection points: 2
#     Edge 71, Type (0, 1), BuildingBlock: XUDNAN_clean_linker_2, # of connection points: 2
#     Edge 72, Type (0, 1), BuildingBlock: XUDNAN_clean_linker_2, # of connection points: 2
#     Edge 73, Type (0, 1), BuildingBlock: XUDNAN_clean_linker_2, # of connection points: 2
#     Edge 74, Type (0, 1), BuildingBlock: XUDNAN_clean_linker_2, # of connection points: 2
#     Edge 75, Type (0, 1), BuildingBlock: XUDNAN_clean_linker_2, # of connection points: 2
#     Edge 76, Type (0, 1), BuildingBlock: XUDNAN_clean_linker_2, # of connection points: 2
#     Edge 77, Type (0, 1), BuildingBlock: XUDNAN_clean_linker_2, # of connection points: 2
#     Edge 78, Type (0, 1), BuildingBlock: XUDNAN_clean_linker_2, # of connection points: 2
#     Edge 79, Type (0, 1), BuildingBlock: XUDNAN_clean_linker_2, # of connection points: 2
#     Edge 80, Type (0, 1), BuildingBlock: XUDNAN_clean_linker_2, # of connection points: 2
#     Edge 81, Type (0, 1), BuildingBlock: XUDNAN_clean_linker_2, # of connection points: 2
#     Edge 82, Type (0, 1), BuildingBlock: XUDNAN_clean_linker_2, # of connection points: 2
#     Edge 83, Type (0, 1), BuildingBlock: XUDNAN_clean_linker_2, # of connection points: 2
#     Edge 84, Type (0, 1), BuildingBlock: XUDNAN_clean_linker_2, # of connection points: 2
#     Edge 85, Type (0, 1), BuildingBlock: XUDNAN_clean_linker_2, # of connection points: 2
#     Edge 86, Type (0, 1), BuildingBlock: XUDNAN_clean_linker_2, # of connection points: 2
#     Edge 87, Type (0, 1), BuildingBlock: XUDNAN_clean_linker_2, # of connection points: 2
#     Edge 88, Type (0, 1), BuildingBlock: XUDNAN_clean_linker_2, # of connection points: 2
#     Edge 89, Type (0, 1), BuildingBlock: XUDNAN_clean_linker_2, # of connection points: 2
#     Edge 90, Type (0, 1), BuildingBlock: XUDNAN_clean_linker_2, # of connection points: 2
#     Edge 91, Type (0, 1), BuildingBlock: XUDNAN_clean_linker_2, # of connection points: 2
#     Edge 92, Type (0, 1), BuildingBlock: XUDNAN_clean_linker_2, # of connection points: 2
#     Edge 93, Type (0, 1), BuildingBlock: XUDNAN_clean_linker_2, # of connection points: 2
#     Edge 94, Type (0, 1), BuildingBlock: XUDNAN_clean_linker_2, # of connection points: 2
#     Edge 95, Type (0, 1), BuildingBlock: XUDNAN_clean_linker_2, # of connection points: 2
#     Edge 96, Type (0, 1), BuildingBlock: XUDNAN_clean_linker_2, # of connection points: 2
#     Edge 97, Type (0, 1), BuildingBlock: XUDNAN_clean_linker_2, # of connection points: 2
#     Edge 98, Type (0, 1), BuildingBlock: XUDNAN_clean_linker_2, # of connection points: 2
#     Edge 99, Type (0, 1), BuildingBlock: XUDNAN_clean_linker_2, # of connection points: 2
#     Edge 100, Type (0, 1), BuildingBlock: XUDNAN_clean_linker_2, # of connection points: 2
#     Edge 101, Type (0, 1), BuildingBlock: XUDNAN_clean_linker_2, # of connection points: 2
#     Edge 102, Type (0, 1), BuildingBlock: XUDNAN_clean_linker_2, # of connection points: 2
#     Edge 103, Type (0, 1), BuildingBlock: XUDNAN_clean_linker_2, # of connection points: 2
#     Edge 104, Type (0, 1), BuildingBlock: XUDNAN_clean_linker_2, # of connection points: 2
#     Edge 105, Type (0, 1), BuildingBlock: XUDNAN_clean_linker_2, # of connection points: 2
#     Edge 106, Type (0, 1), BuildingBlock: XUDNAN_clean_linker_2, # of connection points: 2
#     Edge 107, Type (0, 1), BuildingBlock: XUDNAN_clean_linker_2, # of connection points: 2
#     Edge 108, Type (0, 1), BuildingBlock: XUDNAN_clean_linker_2, # of connection points: 2
#     Edge 109, Type (0, 1), BuildingBlock: XUDNAN_clean_linker_2, # of connection points: 2
#     Edge 110, Type (0, 1), BuildingBlock: XUDNAN_clean_linker_2, # of connection points: 2
#     Edge 111, Type (0, 1), BuildingBlock: XUDNAN_clean_linker_2, # of connection points: 2
#     Edge 112, Type (0, 1), BuildingBlock: XUDNAN_clean_linker_2, # of connection points: 2
#     Edge 113, Type (0, 1), BuildingBlock: XUDNAN_clean_linker_2, # of connection points: 2
#     Edge 114, Type (0, 1), BuildingBlock: XUDNAN_clean_linker_2, # of connection points: 2
#     Edge 115, Type (0, 1), BuildingBlock: XUDNAN_clean_linker_2, # of connection points: 2
#     Edge 116, Type (0, 1), BuildingBlock: XUDNAN_clean_linker_2, # of connection points: 2
#     Edge 117, Type (0, 1), BuildingBlock: XUDNAN_clean_linker_2, # of connection points: 2
#     Edge 118, Type (0, 1), BuildingBlock: XUDNAN_clean_linker_2, # of connection points: 2
#     Edge 119, Type (0, 1), BuildingBlock: XUDNAN_clean_linker_2, # of connection points: 2
#     Edge 120, Type (0, 1), BuildingBlock: XUDNAN_clean_linker_2, # of connection points: 2
#     Edge 121, Type (0, 1), BuildingBlock: XUDNAN_clean_linker_2, # of connection points: 2
#     Edge 122, Type (0, 1), BuildingBlock: XUDNAN_clean_linker_2, # of connection points: 2
#     Edge 123, Type (0, 1), BuildingBlock: XUDNAN_clean_linker_2, # of connection points: 2
# Relax obj value: 0.139
# Max RMSD: 0.250
# Mean RMSD: 0.163
data_MOF--net-tph--node1-MIDCAF_clean_sbu_0--node2-TAGTUT_clean_sbu_3--edge1-XUDNAN_clean_linker_2
_symmetry_space_group_name_H-M    P1
_symmetry_Int_Tables_number       1
_symmetry_cell_setting            triclinic
loop_
_symmetry_equiv_pos_as_xyz
'x, y, z'
_cell_length_a     46.821003
_cell_length_b     46.770737
_cell_length_c     47.032096
_cell_angle_alpha  89.370225
_cell_angle_beta   90.05005
_cell_angle_gamma 89.819946
loop_
_atom_site_label
_atom_site_type_symbol
_atom_site_fract_x
_atom_site_fract_y
_atom_site_fract_z
_atom_type_partial_charge
Zn0 Zn 0.22549 0.22161 0.19755 0.0
Zn1 Zn 0.13084 0.1436 0.15448 0.0
Zn2 Zn 0.18677 0.18791 0.18577 0.0
C3 C 0.15062 0.15213 0.21379 0.0
C4 C 0.12965 0.20678 0.1452 0.0
O5 O 0.22504 0.17323 0.16191 0.0
O6 O 0.25537 0.20752 0.17264 0.0
C7 C 0.21009 0.19737 0.24954 0.0
O8 O 0.16955 0.16721 0.22565 0.0
O9 O 0.1504 0.1545 0.18746 0.0
O10 O 0.11901 0.1822 0.14081 0.0
O11 O 0.15243 0.21066 0.16048 0.0
O12 O 0.22813 0.21435 0.23885 0.0
O13 O 0.19203 0.18469 0.23327 0.0
O14 O 0.17121 0.23114 0.17424 0.0
O15 O 0.20809 0.25786 0.1858 0.0
C16 C 0.183 0.25588 0.17634 0.0
O17 O 0.20129 0.15438 0.15501 0.0
O18 O 0.16583 0.12797 0.13581 0.0
C19 C 0.24959 0.18523 0.15903 0.0
C20 C 0.19215 0.1343 0.13849 0.0
Zn21 Zn 0.40031 0.59814 0.14438 0.0
Zn22 Zn 0.4439 0.53989 0.0298 0.0
Zn23 Zn 0.42165 0.56673 0.06939 0.0
C24 C 0.42569 0.49721 0.06474 0.0
C25 C 0.48788 0.57306 0.04741 0.0
O26 O 0.38665 0.59813 0.06597 0.0
O27 O 0.37728 0.61401 0.11043 0.0
C28 C 0.39909 0.54102 0.12505 0.0
O29 O 0.41792 0.5199 0.07803 0.0
O30 O 0.43815 0.49957 0.04108 0.0
O31 O 0.4836 0.55374 0.02944 0.0
O32 O 0.46733 0.58114 0.06374 0.0
O33 O 0.41622 0.55901 0.13557 0.0
O34 O 0.40265 0.53537 0.09872 0.0
O35 O 0.4536 0.59424 0.08751 0.0
O36 O 0.43768 0.58075 0.12889 0.0
C37 C 0.45303 0.5977 0.11438 0.0
O38 O 0.39225 0.58152 0.03658 0.0
O39 O 0.41518 0.5569 0.00381 0.0
C40 C 0.37262 0.61395 0.08364 0.0
C41 C 0.39473 0.57306 0.01087 0.0
Zn42 Zn 0.78553 0.28652 0.20999 0.0
Zn43 Zn 0.83037 0.33976 0.13013 0.0
Zn44 Zn 0.80652 0.31321 0.16813 0.0
C45 C 0.86653 0.34492 0.17441 0.0
C46 C 0.82582 0.28571 0.1098 0.0
O47 O 0.76051 0.32382 0.16805 0.0
O48 O 0.74607 0.30091 0.20676 0.0
C49 C 0.82127 0.32335 0.23523 0.0
O50 O 0.84311 0.33714 0.18652 0.0
O51 O 0.86864 0.34415 0.14771 0.0
O52 O 0.82604 0.31091 0.09999 0.0
O53 O 0.82212 0.2813 0.13667 0.0
O54 O 0.80666 0.30181 0.24213 0.0
O55 O 0.82456 0.33008 0.20875 0.0
O56 O 0.81227 0.26593 0.1607 0.0
O57 O 0.79178 0.24699 0.19882 0.0
C58 C 0.80446 0.24385 0.17545 0.0
O59 O 0.77417 0.343 0.1493 0.0
O60 O 0.80457 0.37344 0.13001 0.0
C61 C 0.74057 0.31679 0.18562 0.0
C62 C 0.77943 0.36745 0.13756 0.0
Zn63 Zn 0.55521 0.9645 0.04618 0.0
Zn64 Zn 0.60654 0.89477 0.10474 0.0
Zn65 Zn 0.57987 0.92687 0.07736 0.0
C66 C 0.55752 0.8679 0.10044 0.0
C67 C 0.60799 0.93798 0.1389 0.0
O68 O 0.60015 0.92725 0.03467 0.0
O69 O 0.58122 0.96519 0.0133 0.0
C70 C 0.51501 0.92089 0.05712 0.0
O71 O 0.55074 0.89397 0.09443 0.0
O72 O 0.58322 0.8603 0.09807 0.0
O73 O 0.6063 0.9114 0.1434 0.0
O74 O 0.60012 0.94811 0.11448 0.0
O75 O 0.51927 0.94297 0.04204 0.0
O76 O 0.53467 0.91188 0.0742 0.0
O77 O 0.58373 0.968 0.09899 0.0
O78 O 0.55707 0.99683 0.07242 0.0
C79 C 0.57238 0.99259 0.09413 0.0
O80 O 0.61496 0.90738 0.05204 0.0
O81 O 0.64429 0.89433 0.08635 0.0
C82 C 0.59877 0.94472 0.01335 0.0
C83 C 0.63935 0.89724 0.06016 0.0
Zn84 Zn 0.15337 0.85413 0.33216 0.0
Zn85 Zn 0.20976 0.7828 0.28311 0.0
Zn86 Zn 0.17845 0.82159 0.30696 0.0
C87 C 0.24181 0.80902 0.32595 0.0
C88 C 0.16253 0.75486 0.30446 0.0
O89 O 0.15077 0.84304 0.27459 0.0
O90 O 0.11935 0.85166 0.30805 0.0
C91 C 0.20181 0.87869 0.33567 0.0
O92 O 0.22137 0.82737 0.32414 0.0
O93 O 0.24097 0.78611 0.31204 0.0
O94 O 0.18229 0.75079 0.28675 0.0
O95 O 0.1595 0.77928 0.31646 0.0
O96 O 0.17739 0.88876 0.33017 0.0
O97 O 0.20644 0.85182 0.33162 0.0
O98 O 0.15099 0.79843 0.33685 0.0
O99 O 0.15152 0.83248 0.36871 0.0
C100 C 0.14603 0.80695 0.36231 0.0
O101 O 0.17597 0.83185 0.2617 0.0
O102 O 0.21102 0.80425 0.24609 0.0
C103 C 0.125 0.8492 0.282 0.0
C104 C 0.19269 0.82371 0.24159 0.0
Zn105 Zn 0.05142 0.53403 0.94411 0.0
Zn106 Zn 0.10579 0.59544 0.88982 0.0
Zn107 Zn 0.07565 0.56836 0.91603 0.0
C108 C 0.13557 0.59169 0.93595 0.0
C109 C 0.0608 0.62782 0.89048 0.0
O110 O 0.08052 0.52438 0.89735 0.0
O111 O 0.06421 0.49662 0.93168 0.0
C112 C 0.08065 0.56117 0.98424 0.0
O113 O 0.10935 0.58752 0.94331 0.0
O114 O 0.14242 0.58907 0.91022 0.0
O115 O 0.08645 0.63257 0.89694 0.0
O116 O 0.05096 0.60242 0.89446 0.0
O117 O 0.06107 0.54288 0.98315 0.0
O118 O 0.09003 0.57287 0.96119 0.0
O119 O 0.03136 0.58433 0.91193 0.0
O120 O 0.01322 0.54586 0.93197 0.0
C121 C 0.00952 0.56989 0.92005 0.0
O122 O 0.09885 0.5445 0.88304 0.0
O123 O 0.10378 0.57852 0.85102 0.0
C124 C 0.07544 0.4992 0.9075 0.0
C125 C 0.10807 0.55285 0.85848 0.0
Zn126 Zn 0.79598 0.71774 0.2886 0.0
Zn127 Zn 0.84611 0.64932 0.33976 0.0
Zn128 Zn 0.81899 0.68274 0.3163 0.0
C129 C 0.8428 0.69382 0.37614 0.0
C130 C 0.79386 0.62539 0.33522 0.0
O131 O 0.82683 0.67014 0.27231 0.0
O132 O 0.78812 0.69172 0.25637 0.0
C133 C 0.84352 0.74381 0.30969 0.0
O134 O 0.83918 0.70594 0.35166 0.0
O135 O 0.84289 0.66688 0.37775 0.0
O136 O 0.81941 0.61761 0.33136 0.0
O137 O 0.78787 0.6523 0.33482 0.0
O138 O 0.82943 0.74404 0.28682 0.0
O139 O 0.83887 0.72403 0.32841 0.0
O140 O 0.77248 0.67853 0.32407 0.0
O141 O 0.76346 0.72395 0.31507 0.0
C142 C 0.75513 0.69997 0.32452 0.0
O143 O 0.85089 0.66365 0.2863 0.0
O144 O 0.8829 0.65208 0.31883 0.0
C145 C 0.80749 0.67325 0.25305 0.0
C146 C 0.8766 0.65624 0.29307 0.0
Zn147 Zn 0.95953 0.95431 0.95213 0.0
Zn148 Zn 0.83651 0.89191 0.91569 0.0
Zn149 Zn 0.92576 0.9223 0.92713 0.0
C150 C 0.88081 0.88526 0.95833 0.0
C151 C 0.88943 0.87079 0.88833 0.0
O152 O 0.91653 0.96752 0.91372 0.0
O153 O 0.94022 0.99121 0.94625 0.0
C154 C 0.93659 0.92558 0.99495 0.0
O155 O 0.90694 0.89319 0.95955 0.0
O156 O 0.86352 0.90341 0.94746 0.0
O157 O 0.86225 0.8678 0.88985 0.0
O158 O 0.9027 0.88984 0.9027 0.0
O159 O 0.95957 0.93902 0.99132 0.0
O160 O 0.92089 0.9193 0.97358 0.0
O161 O 0.9703 0.91056 0.91525 0.0
O162 O 0.99443 0.94766 0.93016 0.0
C163 C 0.99413 0.92389 0.91779 0.0
O164 O 0.89518 0.94635 0.9 0.0
O165 O 0.86151 0.92684 0.92572 0.0
C166 C 0.92346 0.99135 0.92527 0.0
C167 C 0.86847 0.94128 0.90385 0.0
Zn168 Zn 0.36773 0.39561 0.41012 0.0
Zn169 Zn 0.46763 0.46333 0.45475 0.0
Zn170 Zn 0.43408 0.43443 0.43512 0.0
C171 C 0.49666 0.4163 0.43489 0.0
C172 C 0.43421 0.45043 0.49897 0.0
O173 O 0.40232 0.45907 0.41034 0.0
O174 O 0.36821 0.43459 0.43024 0.0
C175 C 0.43186 0.39167 0.38479 0.0
O176 O 0.4744 0.41582 0.4188 0.0
O177 O 0.49723 0.43294 0.45582 0.0
O178 O 0.44702 0.47267 0.49064 0.0
O179 O 0.4307 0.42975 0.48164 0.0
O180 O 0.40476 0.38912 0.38678 0.0
O181 O 0.44729 0.40543 0.40271 0.0
O182 O 0.41614 0.40606 0.46815 0.0
O183 O 0.37405 0.41085 0.45006 0.0
C184 C 0.39086 0.39621 0.46553 0.0
O185 O 0.42502 0.47902 0.42095 0.0
O186 O 0.46953 0.4933 0.42469 0.0
C187 C 0.37561 0.45337 0.41212 0.0
C188 C 0.44438 0.49789 0.41613 0.0
Zn189 Zn 0.33703 0.85206 0.64443 0.0
Zn190 Zn 0.28303 0.79879 0.71285 0.0
Zn191 Zn 0.30898 0.8205 0.67542 0.0
C192 C 0.3159 0.75589 0.6889 0.0
C193 C 0.31036 0.83728 0.74194 0.0
O194 O 0.27831 0.8522 0.65711 0.0
O195 O 0.30997 0.88471 0.64394 0.0
C196 C 0.33438 0.79946 0.61768 0.0
O197 O 0.31686 0.77425 0.66825 0.0
O198 O 0.30574 0.76336 0.71256 0.0
O199 O 0.28649 0.82536 0.74496 0.0
O200 O 0.3241 0.83467 0.71836 0.0
O201 O 0.33603 0.82584 0.61207 0.0
O202 O 0.32756 0.79113 0.64304 0.0
O203 O 0.34378 0.84162 0.69881 0.0
O204 O 0.3737 0.85622 0.66541 0.0
C205 C 0.36812 0.85194 0.6913 0.0
O206 O 0.26267 0.83005 0.66905 0.0
O207 O 0.24518 0.79601 0.69657 0.0
C208 C 0.28434 0.87765 0.64819 0.0
C209 C 0.24119 0.81544 0.67826 0.0
Zn210 Zn 0.04686 0.44945 0.55042 0.0
Zn211 Zn 0.11223 0.39324 0.59866 0.0
Zn212 Zn 0.08056 0.4203 0.57479 0.0
C213 C 0.07116 0.35852 0.60169 0.0
C214 C 0.10643 0.43476 0.63469 0.0
O215 O 0.09723 0.42348 0.5302 0.0
O216 O 0.07058 0.46023 0.51752 0.0
C217 C 0.01696 0.40123 0.56137 0.0
O218 O 0.05971 0.38326 0.59691 0.0
O219 O 0.09639 0.35438 0.59332 0.0
O220 O 0.10847 0.40806 0.63773 0.0
O221 O 0.09904 0.44525 0.61031 0.0
O222 O 0.01612 0.42206 0.54418 0.0
O223 O 0.03888 0.39752 0.57749 0.0
O224 O 0.08014 0.46378 0.59489 0.0
O225 O 0.03897 0.47947 0.57821 0.0
C226 C 0.05996 0.48263 0.59465 0.0
O227 O 0.11469 0.40261 0.54652 0.0
O228 O 0.14853 0.40122 0.57871 0.0
C229 C 0.09095 0.44344 0.51213 0.0
C230 C 0.14082 0.39697 0.55342 0.0
Zn231 Zn 0.96145 0.03691 0.52495 0.0
Zn232 Zn 0.87303 0.11835 0.61719 0.0
Zn233 Zn 0.9314 0.06534 0.55677 0.0
C234 C 0.93818 0.11169 0.59709 0.0
C235 C 0.8917 0.05271 0.60298 0.0
O236 O 0.91155 0.07346 0.51577 0.0
O237 O 0.9406 0.0473 0.48976 0.0
C238 C 0.99818 0.07291 0.55406 0.0
O239 O 0.95483 0.09706 0.58133 0.0
O240 O 0.91208 0.10406 0.59836 0.0
O241 O 0.89231 0.08003 0.60054 0.0
O242 O 0.90799 0.03863 0.58641 0.0
O243 O 0.9985 0.05389 0.53522 0.0
O244 O 0.97442 0.08112 0.56492 0.0
O245 O 0.92529 0.0204 0.5708 0.0
O246 O 0.95322 0.99833 0.5402 0.0
C247 C 0.93617 0.99719 0.56094 0.0
O248 O 0.90118 0.09433 0.53457 0.0
O249 O 0.88514 0.10162 0.57713 0.0
C250 C 0.9184 0.06254 0.49186 0.0
C251 C 0.88533 0.10923 0.55099 0.0
Zn252 Zn 0.72604 0.71823 0.69352 0.0
Zn253 Zn 0.65337 0.6522 0.66262 0.0
Zn254 Zn 0.68774 0.68517 0.68252 0.0
C255 C 0.64308 0.64946 0.71931 0.0
C256 C 0.64463 0.70547 0.63707 0.0
O257 O 0.72763 0.67606 0.65865 0.0
O258 O 0.74956 0.71778 0.65856 0.0
C259 C 0.71846 0.67799 0.73823 0.0
O260 O 0.6675 0.66209 0.71917 0.0
O261 O 0.62995 0.64536 0.69632 0.0
O262 O 0.64063 0.67919 0.63305 0.0
O263 O 0.659 0.71371 0.65877 0.0
O264 O 0.73734 0.69304 0.72608 0.0
O265 O 0.69392 0.67485 0.72652 0.0
O266 O 0.67173 0.73022 0.67943 0.0
O267 O 0.70548 0.75338 0.70247 0.0
C268 C 0.68098 0.75314 0.6914 0.0
O269 O 0.70847 0.6546 0.65332 0.0
O270 O 0.67648 0.62045 0.64816 0.0
C271 C 0.7476 0.69264 0.64945 0.0
C272 C 0.70128 0.62993 0.64384 0.0
Zn273 Zn 0.68771 0.28472 0.76969 0.0
Zn274 Zn 0.64781 0.3595 0.81889 0.0
Zn275 Zn 0.67187 0.32073 0.79903 0.0
C276 C 0.65369 0.31579 0.8612 0.0
C277 C 0.70111 0.38001 0.81466 0.0
O278 O 0.70581 0.33987 0.77222 0.0
O279 O 0.68912 0.31361 0.73756 0.0
C280 C 0.65002 0.2604 0.80368 0.0
O281 O 0.66294 0.30168 0.83994 0.0
O282 O 0.64617 0.34161 0.85804 0.0
O283 O 0.6762 0.39044 0.81473 0.0
O284 O 0.70464 0.35337 0.80882 0.0
O285 O 0.65267 0.26175 0.77701 0.0
O286 O 0.66253 0.2791 0.81905 0.0
O287 O 0.71822 0.32584 0.79909 0.0
O288 O 0.72408 0.27939 0.79527 0.0
C289 C 0.73399 0.30339 0.80272 0.0
O290 O 0.63812 0.32588 0.76827 0.0
O291 O 0.61438 0.35766 0.79307 0.0
C292 C 0.70239 0.33564 0.74543 0.0
C293 C 0.61613 0.34154 0.77177 0.0
Zn294 Zn 0.60574 0.14231 0.40277 0.0
Zn295 Zn 0.53099 0.03336 0.43318 0.0
Zn296 Zn 0.56453 0.07072 0.42574 0.0
C297 C 0.49554 0.07628 0.42513 0.0
C298 C 0.56256 0.039 0.48448 0.0
O299 O 0.60066 0.06604 0.39653 0.0
O300 O 0.62336 0.10706 0.3835 0.0
C301 C 0.54873 0.12416 0.39236 0.0
O302 O 0.52027 0.08562 0.41793 0.0
O303 O 0.49298 0.05149 0.43547 0.0
O304 O 0.54792 0.02144 0.47036 0.0
O305 O 0.57043 0.06256 0.47244 0.0
O306 O 0.56422 0.13579 0.41108 0.0
O307 O 0.53819 0.10002 0.39967 0.0
O308 O 0.58652 0.08759 0.4621 0.0
O309 O 0.58125 0.12566 0.43598 0.0
C310 C 0.59313 0.11357 0.45707 0.0
O311 O 0.58262 0.03639 0.3999 0.0
O312 O 0.5419 0.01305 0.39812 0.0
C313 C 0.62004 0.07992 0.3825 0.0
C314 C 0.56727 0.0163 0.38964 0.0
Zn315 Zn 0.33708 0.15346 0.85242 0.0
Zn316 Zn 0.29051 0.21425 0.78685 0.0
Zn317 Zn 0.31402 0.18326 0.82025 0.0
C318 C 0.24839 0.19641 0.82266 0.0
C319 C 0.33244 0.24648 0.812 0.0
O320 O 0.34894 0.16327 0.79622 0.0
O321 O 0.37545 0.15953 0.83473 0.0
C322 C 0.2887 0.12572 0.83931 0.0
O323 O 0.26769 0.17699 0.82622 0.0
O324 O 0.25466 0.21917 0.80937 0.0
O325 O 0.32133 0.24409 0.78764 0.0
O326 O 0.32816 0.22678 0.83084 0.0
O327 O 0.31457 0.11891 0.84273 0.0
O328 O 0.28189 0.15219 0.83553 0.0
O329 O 0.33252 0.20941 0.85495 0.0
O330 O 0.32745 0.17547 0.88729 0.0
C331 C 0.33195 0.20142 0.88125 0.0
O332 O 0.32713 0.16779 0.77801 0.0
O333 O 0.28905 0.18497 0.75619 0.0
C334 C 0.37357 0.16002 0.80796 0.0
C335 C 0.31002 0.16797 0.75655 0.0
C336 C 0.04749 0.21064 0.87931 0.0
C337 C 0.02305 0.24632 0.9802 0.0
C338 C 0.93539 0.23777 0.95434 0.0
Mg339 Mg 0.01534 0.21894 0.81998 0.0
Mg340 Mg 0.97268 0.27289 0.80728 0.0
O341 O 0.98035 0.24127 0.83058 0.0
Mg342 Mg 0.98851 0.24707 0.87191 0.0
O343 O -0.00116 0.24954 0.91294 0.0
Mg344 Mg 0.99541 0.20858 0.9256 0.0
Mg345 Mg 0.98376 0.27758 0.93644 0.0
C346 C 0.92951 0.28397 0.85791 0.0
O347 O 0.00482 0.29366 0.86652 0.0
O348 O 0.99391 0.2121 0.7765 0.0
O349 O 0.99449 0.31356 0.90892 0.0
O350 O 0.03763 0.25729 0.79747 0.0
O351 O 0.96436 0.2495 0.76892 0.0
O352 O 0.01066 0.29644 0.79866 0.0
O353 O 0.97323 0.20088 0.88117 0.0
O354 O 0.99094 0.18205 0.84124 0.0
C355 C 0.9767 0.17958 0.86444 0.0
C356 C 0.97594 0.22603 0.76095 0.0
O357 O 0.94262 0.26684 0.87524 0.0
O358 O 0.01932 0.22247 0.96726 0.0
O359 O 0.93896 0.29046 0.83304 0.0
O360 O 0.95229 0.21704 0.9487 0.0
O361 O 0.01175 0.26988 0.97186 0.0
O362 O 0.94163 0.26372 0.94839 0.0
O363 O 0.03301 0.22861 0.86446 0.0
O364 O 0.03807 0.2008 0.90298 0.0
C365 C 0.03332 0.2836 0.79085 0.0
C366 C 0.00416 0.31513 0.88337 0.0
C367 C 0.55454 0.72645 0.37839 0.0
C368 C 0.53124 0.76516 0.47876 0.0
C369 C 0.44391 0.75605 0.45515 0.0
Mg370 Mg 0.51962 0.73271 0.32083 0.0
Mg371 Mg 0.47277 0.78411 0.30699 0.0
O372 O 0.48485 0.75512 0.33194 0.0
Mg373 Mg 0.49572 0.76299 0.37219 0.0
O374 O 0.50771 0.76709 0.41244 0.0
Mg375 Mg 0.50355 0.72641 0.42579 0.0
Mg376 Mg 0.4916 0.79557 0.43515 0.0
C377 C 0.43455 0.79746 0.36136 0.0
O378 O 0.51178 0.80946 0.36462 0.0
O379 O 0.49617 0.72333 0.27945 0.0
O380 O 0.50293 0.83082 0.40666 0.0
O381 O 0.53883 0.77077 0.29598 0.0
O382 O 0.46372 0.7577 0.27006 0.0
O383 O 0.50963 0.80843 0.29598 0.0
O384 O 0.4807 0.7174 0.38308 0.0
O385 O 0.49811 0.69567 0.34468 0.0
C386 C 0.48455 0.69481 0.36835 0.0
C387 C 0.4768 0.73451 0.26351 0.0
O388 O 0.45078 0.78256 0.37796 0.0
O389 O 0.5276 0.74144 0.46567 0.0
O390 O 0.44026 0.80189 0.33491 0.0
O391 O 0.46117 0.73575 0.44915 0.0
O392 O 0.51928 0.7886 0.47092 0.0
O393 O 0.44932 0.78197 0.44813 0.0
O394 O 0.53995 0.74431 0.3635 0.0
O395 O 0.54564 0.71728 0.40251 0.0
C396 C 0.53257 0.79626 0.28787 0.0
C397 C 0.51207 0.83145 0.38086 0.0
C398 C 0.97356 0.8078 0.63033 0.0
C399 C 0.9704 0.76239 0.73311 0.0
C400 C 0.03541 0.70999 0.70513 0.0
Mg401 Mg 0.99593 0.77945 0.57106 0.0
Mg402 Mg 0.99278 0.70944 0.56222 0.0
O403 O 0.00619 0.7397 0.58424 0.0
Mg404 Mg 0.99353 0.74213 0.62431 0.0
O405 O 0.98123 0.7475 0.66439 0.0
Mg406 Mg 0.0129 0.77331 0.67687 0.0
Mg407 Mg 0.97434 0.71507 0.68686 0.0
C408 C 0.01403 0.67508 0.6168 0.0
O409 O 0.95184 0.71752 0.6174 0.0
O410 O 0.02077 0.76695 0.53043 0.0
O411 O 0.94358 0.69451 0.65894 0.0
O412 O 0.95436 0.76595 0.54902 0.0
O413 O 0.01881 0.71893 0.52607 0.0
O414 O 0.94983 0.71855 0.54949 0.0
O415 O 0.03454 0.76632 0.63345 0.0
O416 O 0.03636 0.79265 0.59354 0.0
C417 C 0.0464 0.78568 0.61795 0.0
C418 C 0.02716 0.74362 0.51757 0.0
O419 O 0.01448 0.69775 0.632 0.0
O420 O 0.9878 0.77794 0.71864 0.0
O421 O 0.00415 0.67464 0.59131 0.0
O422 O 0.0374 0.73684 0.69988 0.0
O423 O 0.9621 0.73769 0.72486 0.0
O424 O 0.01451 0.69547 0.69572 0.0
O425 O 0.97314 0.78572 0.61435 0.0
O426 O 0.98644 0.80752 0.65438 0.0
C427 C 0.94024 0.74343 0.54335 0.0
C428 C 0.93737 0.69992 0.63279 0.0
C429 C 0.87178 0.98461 0.17868 0.0
C430 C 0.78354 0.95426 0.23533 0.0
C431 C 0.79114 0.02188 0.28215 0.0
Mg432 Mg 0.92658 0.01096 0.21228 0.0
Mg433 Mg 0.9366 0.99662 0.28031 0.0
O434 O 0.91228 0.01181 0.25228 0.0
Mg435 Mg 0.87417 0.99324 0.2464 0.0
O436 O 0.83472 0.97644 0.2381 0.0
Mg437 Mg 0.8175 0.01245 0.2143 0.0
Mg438 Mg 0.82016 0.9622 0.275 0.0
C439 C 0.87857 0.00454 0.31447 0.0
O440 O 0.88957 0.9487 0.26475 0.0
O441 O 0.96571 0.03725 0.22871 0.0
O442 O 0.85382 0.9383 0.29457 0.0
O443 O 0.95365 0.97027 0.21908 0.0
O444 O 0.97007 0.02825 0.27572 0.0
O445 O 0.95326 0.95668 0.26467 0.0
O446 O 0.85859 0.03509 0.22826 0.0
O447 O 0.89809 0.05076 0.20643 0.0
C448 C 0.87183 0.05417 0.21344 0.0
C449 C 0.97826 0.04093 0.25282 0.0
O450 O 0.86369 0.0055 0.29166 0.0
O451 O 0.80683 0.9674 0.22913 0.0
O452 O 0.90548 0.99885 0.31492 0.0
O453 O 0.79232 0.0282 0.25537 0.0
O454 O 0.7843 0.9389 0.25783 0.0
O455 O 0.80347 -6e-05 0.29305 0.0
O456 O 0.88629 0.98374 0.20176 0.0
O457 O 0.84586 0.99402 0.17796 0.0
C458 C 0.96051 0.9526 0.23884 0.0
C459 C 0.87875 0.93332 0.28484 0.0
C460 C 0.21431 0.88539 0.04306 0.0
C461 C 0.2482 0.98603 0.01036 0.0
C462 C 0.24035 0.95443 0.92651 0.0
Mg463 Mg 0.22409 0.82364 0.01459 0.0
Mg464 Mg 0.27959 0.81093 0.97429 0.0
O465 O 0.24726 0.83361 0.97972 0.0
Mg466 Mg 0.25214 0.8757 0.98611 0.0
O467 O 0.25359 0.91742 0.99376 0.0
Mg468 Mg 0.21235 0.92814 0.98784 0.0
Mg469 Mg 0.28065 0.94027 0.97518 0.0
C470 C 0.29353 0.86199 0.93095 0.0
O471 O 0.29888 0.87279 0.00349 0.0
O472 O 0.21878 0.77866 0.99578 0.0
O473 O 0.31774 0.91381 0.98593 0.0
O474 O 0.26242 0.80316 0.03906 0.0
O475 O 0.25767 0.7705 0.96882 0.0
O476 O 0.30209 0.80612 0.01332 0.0
O477 O 0.20584 0.88246 0.96877 0.0
O478 O 0.18717 0.84284 0.98834 0.0
C479 C 0.18459 0.86547 0.97285 0.0
C480 C 0.23398 0.76233 0.97998 0.0
O481 O 0.27459 0.8787 0.94187 0.0
O482 O 0.22523 0.97114 0.00837 0.0
O483 O 0.29918 0.83697 0.94113 0.0
O484 O 0.22022 0.94947 0.94415 0.0
O485 O 0.27196 0.97852 -0.00092 0.0
O486 O 0.26629 0.94832 0.93234 0.0
O487 O 0.23233 0.86938 0.03026 0.0
O488 O 0.20489 0.90829 0.03132 0.0
C489 C 0.28911 0.79807 0.03578 0.0
C490 C 0.32029 0.88946 -0.00126 0.0
C491 C 0.12408 0.45075 0.21075 0.0
C492 C 0.02075 0.46538 0.23742 0.0
C493 C 0.03979 0.55597 0.23736 0.0
Mg494 Mg 0.18364 0.48452 0.21561 0.0
Mg495 Mg 0.18685 0.53269 0.27759 0.0
O496 O 0.16905 0.51907 0.24226 0.0
Mg497 Mg 0.12713 0.50784 0.24702 0.0
O498 O 0.08617 0.495 0.24766 0.0
Mg499 Mg 0.07573 0.50128 0.20677 0.0
Mg500 Mg 0.0585 0.50455 0.27468 0.0
C501 C 0.12889 0.56482 0.28776 0.0
O502 O 0.13098 0.49097 0.29378 0.0
O503 O 0.19496 0.52894 0.23034 0.0
O504 O 0.08641 0.49779 0.31148 0.0
O505 O 0.21044 0.46695 0.25517 0.0
O506 O 0.22152 0.55587 0.25621 0.0
O507 O 0.20466 0.49383 0.29446 0.0
O508 O 0.11925 0.5245 0.20152 0.0
O509 O 0.1577 0.50596 0.17966 0.0
C510 C 0.13444 0.52057 0.17921 0.0
C511 C 0.21866 0.54242 0.233 0.0
O512 O 0.11686 0.55164 0.26715 0.0
O513 O 0.0353 0.47411 0.2159 0.0
O514 O 0.15357 0.55764 0.29726 0.0
O515 O 0.04954 0.54283 0.21566 0.0
O516 O 0.02616 0.4734 0.26285 0.0
O517 O 0.04272 0.54612 0.26262 0.0
O518 O 0.13944 0.46496 0.22834 0.0
O519 O 0.10065 0.46069 0.20072 0.0
C520 C 0.21543 0.47231 0.28161 0.0
C521 C 0.11297 0.49114 0.31451 0.0
C522 C 0.68261 0.62848 -0.00282 0.0
C523 C 0.73178 0.72995 0.00344 0.0
C524 C 0.80048 0.69411 0.96452 0.0
Mg525 Mg 0.71 0.56579 0.98424 0.0
Mg526 Mg 0.7745 0.5476 0.00685 0.0
O527 O 0.75172 0.57448 0.98846 0.0
Mg528 Mg 0.7506 0.61569 -0.00141 0.0
O529 O 0.74548 0.65799 0.00573 0.0
Mg530 Mg 0.73176 0.66966 0.96674 0.0
Mg531 Mg 0.77379 0.68086 0.02126 0.0
C532 C 0.81912 0.59751 0.99488 0.0
O533 O 0.76156 0.60995 0.04609 0.0
O534 O 0.72441 0.52414 0.96206 0.0
O535 O 0.78216 0.65233 0.05719 0.0
O536 O 0.70868 0.54102 0.02806 0.0
O537 O 0.76896 0.5134 0.97686 0.0
O538 O 0.753 0.53741 0.0455 0.0
O539 O 0.74225 0.62439 0.95275 0.0
O540 O 0.71302 0.58892 0.94098 0.0
C541 C 0.72741 0.61119 0.93442 0.0
C542 C 0.7471 0.50862 0.96124 0.0
O543 O 0.79971 0.61668 0.99063 0.0
O544 O 0.72254 0.71366 0.98382 0.0
O545 O 0.8134 0.57223 0.0042 0.0
O546 O 0.7758 0.68988 0.95343 0.0
O547 O 0.75074 0.72166 0.02155 0.0
O548 O 0.8061 0.68631 0.98994 0.0
O549 O 0.70199 0.61052 0.00493 0.0
O550 O 0.68891 0.65137 0.98322 0.0
C551 C 0.72616 0.53332 0.04778 0.0
C552 C 0.77507 0.6264 0.06319 0.0
C553 C 0.18536 0.14035 0.51437 0.0
C554 C 0.24466 0.22214 0.54516 0.0
C555 C 0.29838 0.21204 0.4819 0.0
Mg556 Mg 0.21585 0.08093 0.4929 0.0
Mg557 Mg 0.28272 0.06588 0.51065 0.0
O558 O 0.25683 0.09177 0.49412 0.0
Mg559 Mg 0.25322 0.13067 0.5107 0.0
O560 O 0.24807 0.17155 0.5248 0.0
Mg561 Mg 0.2283 0.18944 0.48693 0.0
Mg562 Mg 0.28519 0.1846 0.54035 0.0
C563 C 0.32144 0.12019 0.50011 0.0
O564 O 0.2679 0.11548 0.55564 0.0
O565 O 0.23125 0.04111 0.46733 0.0
O566 O 0.30007 0.14932 0.56602 0.0
O567 O 0.21926 0.05291 0.5345 0.0
O568 O 0.27655 0.03157 0.48084 0.0
O569 O 0.26437 0.05256 0.55032 0.0
O570 O 0.24027 0.14613 0.46802 0.0
O571 O 0.21485 0.10922 0.45217 0.0
C572 C 0.22569 0.13414 0.44839 0.0
C573 C 0.25431 0.02608 0.46597 0.0
O574 O 0.29961 0.13662 0.49955 0.0
O575 O 0.23949 0.19822 0.53297 0.0
O576 O 0.32017 0.09345 0.50664 0.0
O577 O 0.27179 0.2121 0.47486 0.0
O578 O 0.26722 0.22269 0.56031 0.0
O579 O 0.30805 0.1983 0.50348 0.0
O580 O 0.20612 0.12277 0.51878 0.0
O581 O 0.18903 0.16512 0.50284 0.0
C582 C 0.23808 0.0461 0.55325 0.0
C583 C 0.28854 0.125 0.57076 0.0
C584 C 0.38732 0.5619 0.72492 0.0
C585 C 0.48857 0.53687 0.7686 0.0
C586 C 0.45929 0.44941 0.7565 0.0
Mg587 Mg 0.32866 0.52767 0.73079 0.0
Mg588 Mg 0.31864 0.48332 0.78355 0.0
O589 O 0.34064 0.49124 0.75152 0.0
Mg590 Mg 0.38098 0.5026 0.76077 0.0
O591 O 0.42095 0.51528 0.76701 0.0
Mg592 Mg 0.43545 0.51144 0.72702 0.0
Mg593 Mg 0.44211 0.49767 0.79645 0.0
C594 C 0.37032 0.44185 0.79632 0.0
O595 O 0.37251 0.51792 0.8061 0.0
O596 O 0.28557 0.5053 0.72255 0.0
O597 O 0.41211 0.50677 0.83119 0.0
O598 O 0.30382 0.54688 0.76958 0.0
O599 O 0.27814 0.47846 0.76197 0.0
O600 O 0.31736 0.52142 0.80695 0.0
O601 O 0.39224 0.48935 0.71599 0.0
O602 O 0.35317 0.50649 0.69367 0.0
C603 C 0.37747 0.49352 0.69332 0.0
C604 C 0.26972 0.48895 0.73803 0.0
O605 O 0.38713 0.45684 0.78046 0.0
O606 O 0.4766 0.53422 0.74408 0.0
O607 O 0.34438 0.44911 0.80134 0.0
O608 O 0.45619 0.46771 0.73637 0.0
O609 O 0.47895 0.52498 0.79131 0.0
O610 O 0.45224 0.45495 0.7821 0.0
O611 O 0.37222 0.54677 0.74205 0.0
O612 O 0.41242 0.55401 0.71738 0.0
C613 C 0.30251 0.54152 0.79631 0.0
C614 C 0.38643 0.51647 0.82954 0.0
C615 C 0.73505 0.38268 0.54917 0.0
C616 C 0.76528 0.48405 0.51853 0.0
C617 C 0.74657 0.45854 0.43461 0.0
Mg618 Mg 0.73471 0.3235 0.51516 0.0
Mg619 Mg 0.77691 0.30964 0.46077 0.0
O620 O 0.75099 0.33471 0.477 0.0
Mg621 Mg 0.76056 0.37548 0.48547 0.0
O622 O 0.7659 0.41622 0.49607 0.0
Mg623 Mg 0.72489 0.42878 0.49715 0.0
Mg624 Mg 0.79222 0.43997 0.47792 0.0
C625 C 0.78687 0.36423 0.42103 0.0
O626 O 0.80871 0.36863 0.49522 0.0
O627 O 0.72174 0.28104 0.49513 0.0
O628 O 0.82855 0.41144 0.48435 0.0
O629 O 0.77742 0.3002 0.52983 0.0
O630 O 0.74997 0.27189 0.45762 0.0
O631 O 0.80734 0.30125 0.49282 0.0
O632 O 0.7134 0.38517 0.47687 0.0
O633 O 0.69389 0.3466 0.49759 0.0
C634 C 0.69143 0.37006 0.48324 0.0
C635 C 0.72946 0.26511 0.47448 0.0
O636 O 0.77436 0.38137 0.43828 0.0
O637 O 0.74148 0.47055 0.51685 0.0
O638 O 0.79063 0.33746 0.42622 0.0
O639 O 0.728 0.45172 0.45345 0.0
O640 O 0.78817 0.47566 0.50626 0.0
O641 O 0.7731 0.45269 0.43787 0.0
O642 O 0.74911 0.36724 0.53174 0.0
O643 O 0.72384 0.40647 0.54119 0.0
C644 C 0.80196 0.29507 0.51868 0.0
C645 C 0.83044 0.38525 0.49277 0.0
C646 C 0.61345 0.00808 0.6858 0.0
C647 C 0.72293 0.00999 0.71417 0.0
C648 C 0.69926 0.96418 0.78606 0.0
Mg649 Mg 0.55753 0.99728 0.72516 0.0
Mg650 Mg 0.55486 0.00768 0.79488 0.0
O651 O 0.5755 0.99477 0.76379 0.0
Mg652 Mg 0.61601 0.0039 0.75449 0.0
O653 O 0.65599 0.01104 0.74132 0.0
Mg654 Mg 0.6629 0.973 0.72311 0.0
Mg655 Mg 0.68444 0.02392 0.76582 0.0
C656 C 0.614 0.99056 0.82417 0.0
O657 O 0.61551 0.05062 0.77084 0.0
O658 O 0.51805 0.97516 0.74467 0.0
O659 O 0.66126 0.05987 0.7832 0.0
O660 O 0.53755 0.04189 0.73534 0.0
O661 O 0.51964 0.97825 0.79233 0.0
O662 O 0.5416 0.04964 0.7822 0.0
O663 O 0.61965 0.95794 0.73974 0.0
O664 O 0.57736 0.9535 0.71815 0.0
C665 C 0.60168 0.94325 0.72546 0.0
C666 C 0.50828 0.96909 0.76946 0.0
O667 O 0.62804 0.99039 0.80069 0.0
O668 O 0.7047 0.99097 0.70726 0.0
O669 O 0.58772 0.99828 0.82598 0.0
O670 O 0.69017 0.95514 0.76198 0.0
O671 O 0.71939 0.02652 0.7355 0.0
O672 O 0.69461 0.9897 0.79403 0.0
O673 O 0.60102 0.01575 0.70894 0.0
O674 O 0.63637 0.99284 0.68624 0.0
C675 C 0.53413 0.05769 0.75723 0.0
C676 C 0.63471 0.06679 0.78195 0.0
C677 C 0.47614 0.3081 0.13115 0.0
C678 C 0.46272 0.2646 0.22909 0.0
C679 C 0.52791 0.20433 0.20684 0.0
Mg680 Mg 0.50292 0.28456 0.07222 0.0
Mg681 Mg 0.50475 0.2159 0.05469 0.0
O682 O 0.50981 0.2435 0.0826 0.0
Mg683 Mg 0.49408 0.24256 0.12218 0.0
O684 O 0.4803 0.24569 0.16235 0.0
Mg685 Mg 0.512 0.26957 0.17818 0.0
Mg686 Mg 0.46698 0.21592 0.18544 0.0
C687 C 0.51923 0.17789 0.11004 0.0
O688 O 0.45138 0.21915 0.11171 0.0
O689 O 0.53325 0.27753 0.03433 0.0
O690 O 0.44032 0.19655 0.15318 0.0
O691 O 0.46356 0.27255 0.04419 0.0
O692 O 0.53676 0.23061 0.0249 0.0
O693 O 0.46313 0.22511 0.03745 0.0
O694 O 0.53537 0.26407 0.1361 0.0
O695 O 0.54178 0.29448 0.09972 0.0
C696 C 0.54941 0.28415 0.12384 0.0
C697 C 0.54416 0.25662 0.02059 0.0
O698 O 0.51358 0.1979 0.12764 0.0
O699 O 0.4847 0.27542 0.21715 0.0
O700 O 0.51546 0.18024 0.08299 0.0
O701 O 0.53404 0.23054 0.20131 0.0
O702 O 0.45035 0.24202 0.22004 0.0
O703 O 0.50397 0.19349 0.19997 0.0
O704 O 0.47573 0.28722 0.11368 0.0
O705 O 0.48813 0.30588 0.1556 0.0
C706 C 0.45208 0.24994 0.03416 0.0
C707 C 0.43628 0.20141 0.12652 0.0
H708 H 0.03527 0.37245 0.64578 0.0
H709 H 0.08624 0.30314 0.61174 0.0
H710 H 0.08597 0.27915 0.65861 0.0
H711 H 0.06804 0.37683 0.71098 0.0
H712 H 0.03644 0.38285 0.73197 0.0
H713 H 0.03707 0.3935 0.69506 0.0
H714 H 0.99236 0.36284 0.6845 0.0
H715 H 0.99073 0.35325 0.72166 0.0
H716 H 0.99198 0.3257 0.69518 0.0
H717 H 0.0872 0.26685 0.71043 0.0
H718 H 0.07655 0.25814 0.76097 0.0
H719 H 0.02278 0.33407 0.76154 0.0
C720 C 0.04521 0.35158 0.64781 0.0
C721 C 0.06089 0.33973 0.62504 0.0
C722 C 0.07406 0.31261 0.62882 0.0
C723 C 0.07439 0.299 0.65549 0.0
C724 C 0.06093 0.31248 0.67808 0.0
C725 C 0.04552 0.33749 0.67433 0.0
C726 C 0.03286 0.3473 0.70229 0.0
C727 C 0.0443 0.37688 0.71054 0.0
C728 C 4e-05 0.34725 0.70082 0.0
C729 C 0.044 0.32414 0.72232 0.0
C730 C 0.06059 0.30462 0.70793 0.0
C731 C 0.07371 0.28164 0.72184 0.0
C732 C 0.06782 0.27711 0.75075 0.0
C733 C 0.04839 0.29507 0.76535 0.0
C734 C 0.03767 0.31982 0.75118 0.0
H735 H 0.64379 0.69549 0.58128 0.0
H736 H 0.62106 0.7592 0.64325 0.0
H737 H 0.59535 0.78687 0.60614 0.0
H738 H 0.64738 0.74461 0.51665 0.0
H739 H 0.63168 0.7173 0.49492 0.0
H740 H 0.65456 0.70743 0.5243 0.0
H741 H 0.61432 0.67524 0.54457 0.0
H742 H 0.59113 0.68541 0.5158 0.0
H743 H 0.57985 0.69075 0.552 0.0
H744 H 0.56449 0.80179 0.56458 0.0
H745 H 0.53251 0.80335 0.52264 0.0
H746 H 0.57439 0.72789 0.48944 0.0
C747 C 0.63419 0.71579 0.58683 0.0
C748 C 0.63434 0.72543 0.61507 0.0
C749 C 0.62153 0.75185 0.6217 0.0
C750 C 0.60685 0.76758 0.60068 0.0
C751 C 0.60571 0.75656 0.57324 0.0
C752 C 0.61948 0.73141 0.56625 0.0
C753 C 0.61181 0.72161 0.53677 0.0
C754 C 0.63791 0.72283 0.51699 0.0
C755 C 0.59848 0.6915 0.53736 0.0
C756 C 0.59015 0.74418 0.52885 0.0
C757 C 0.58739 0.76462 0.54971 0.0
C758 C 0.56691 0.78626 0.54785 0.0
C759 C 0.54877 0.78687 0.52411 0.0
C760 C 0.55095 0.76558 0.50303 0.0
C761 C 0.57218 0.74434 0.50533 0.0
H762 H 0.98204 0.1151 0.63472 0.0
H763 H 0.91272 0.16326 0.59618 0.0
H764 H 0.91953 0.20179 0.63092 0.0
H765 H 0.96145 0.12625 0.702 0.0
H766 H 0.99631 0.12931 0.71794 0.0
H767 H 0.99193 0.10922 0.6859 0.0
H768 H 0.02983 0.1404 0.66023 0.0
H769 H 0.03494 0.16024 0.6925 0.0
H770 H 0.02601 0.17877 0.65986 0.0
H771 H 0.92754 0.23021 0.67414 0.0
H772 H 0.93762 0.24796 0.72225 0.0
H773 H 0.00025 0.18013 0.73442 0.0
C774 C 0.96943 0.13449 0.63286 0.0
C775 C 0.94737 0.13682 0.61268 0.0
C776 C 0.93009 0.16163 0.61138 0.0
C777 C 0.9338 0.18354 0.63097 0.0
C778 C 0.95475 0.18008 0.65175 0.0
C779 C 0.97251 0.15633 0.65271 0.0
C780 C 0.99026 0.15579 0.67961 0.0
C781 C 0.98463 0.12853 0.6974 0.0
C782 C 0.02216 0.159 0.67263 0.0
C783 C 0.97872 0.1821 0.69414 0.0
C784 C 0.9587 0.19611 0.67748 0.0
C785 C 0.94361 0.21978 0.6872 0.0
C786 C 0.94931 0.22955 0.71466 0.0
C787 C 0.96967 0.2154 0.73217 0.0
C788 C 0.9846 0.19148 0.72158 0.0
H789 H 0.32653 0.80855 0.56153 0.0
H790 H 0.36551 0.74952 0.62149 0.0
H791 H 0.38784 0.72364 0.58174 0.0
H792 H 0.32284 0.76101 0.49622 0.0
H793 H 0.33428 0.79019 0.47367 0.0
H794 H 0.31281 0.79717 0.50468 0.0
H795 H 0.35119 0.8324 0.5227 0.0
H796 H 0.37273 0.82545 0.49202 0.0
H797 H 0.38749 0.82012 0.5271 0.0
H798 H 0.41228 0.70945 0.53669 0.0
H799 H 0.44244 0.71261 0.49405 0.0
H800 H 0.3946 0.78691 0.46491 0.0
C801 C 0.33862 0.78927 0.56615 0.0
C802 C 0.3427 0.77982 0.59458 0.0
C803 C 0.36005 0.7556 0.59992 0.0
C804 C 0.37327 0.74114 0.57735 0.0
C805 C 0.36958 0.75169 0.54963 0.0
C806 C 0.35288 0.77551 0.54405 0.0
C807 C 0.35749 0.78676 0.51399 0.0
C808 C 0.33023 0.78358 0.49608 0.0
C809 C 0.36786 0.81801 0.51399 0.0
C810 C 0.38061 0.76658 0.50397 0.0
C811 C 0.38624 0.74568 0.52431 0.0
C812 C 0.4078 0.72552 0.52056 0.0
C813 C 0.42481 0.72749 0.49611 0.0
C814 C 0.42093 0.7501 0.47609 0.0
C815 C 0.39792 0.76931 0.47971 0.0
H816 H 0.03146 0.61289 0.84299 0.0
H817 H 0.06581 0.68557 0.88792 0.0
H818 H 0.06768 0.7131 0.84294 0.0
H819 H 0.0742 0.61774 0.7851 0.0
H820 H 0.04817 0.60853 0.75849 0.0
H821 H 0.04406 0.59568 0.79448 0.0
H822 H 0.99377 0.61874 0.79825 0.0
H823 H 0.99695 0.63005 0.76167 0.0
H824 H 0.98912 0.65591 0.78873 0.0
H825 H 0.07474 0.72896 0.79249 0.0
H826 H 0.07049 0.73929 0.74129 0.0
H827 H 0.03118 0.65625 0.72904 0.0
C828 C 0.03772 0.63515 0.84366 0.0
C829 C 0.04844 0.64718 0.86891 0.0
C830 C 0.05726 0.67613 0.86879 0.0
C831 C 0.05892 0.69172 0.84327 0.0
C832 C 0.05117 0.67814 0.81825 0.0
C833 C 0.03955 0.651 0.81832 0.0
C834 C 0.03363 0.6411 0.78833 0.0
C835 C 0.05105 0.61417 0.78121 0.0
C836 C 0.00146 0.63618 0.78399 0.0
C837 C 0.04408 0.66676 0.77146 0.0
C838 C 0.05461 0.68763 0.78912 0.0
C839 C 0.06588 0.71307 0.77846 0.0
C840 C 0.06379 0.71853 0.74919 0.0
C841 C 0.04978 0.69892 0.7311 0.0
C842 C 0.04176 0.67185 0.7422 0.0
H843 H 0.84604 0.6724 0.42981 0.0
H844 H 0.85262 0.75165 0.38174 0.0
H845 H 0.86752 0.77659 0.42543 0.0
H846 H 0.8253 0.70432 0.50095 0.0
H847 H 0.84718 0.6784 0.51949 0.0
H848 H 0.82952 0.66887 0.48685 0.0
H849 H 0.87819 0.65365 0.46527 0.0
H850 H 0.89572 0.66288 0.49775 0.0
H851 H 0.90724 0.67889 0.46467 0.0
H852 H 0.88995 0.79034 0.47173 0.0
H853 H 0.92208 0.79061 0.51319 0.0
H854 H 0.90237 0.70147 0.53002 0.0
C855 C 0.84977 0.69521 0.42854 0.0
C856 C 0.84813 0.71018 0.40234 0.0
C857 C 0.85353 0.73988 0.4016 0.0
C858 C 0.86181 0.75419 0.42639 0.0
C859 C 0.8642 0.73848 0.45175 0.0
C860 C 0.85818 0.70957 0.45292 0.0
C861 C 0.86692 0.69629 0.48109 0.0
C862 C 0.84066 0.68639 0.4981 0.0
C863 C 0.88829 0.67151 0.47692 0.0
C864 C 0.88079 0.72172 0.49487 0.0
C865 C 0.878 0.74616 0.4782 0.0
C866 C 0.89176 0.7715 0.48519 0.0
C867 C 0.90999 0.77143 0.50887 0.0
C868 C 0.91484 0.74594 0.52478 0.0
C869 C 0.89888 0.72132 0.51847 0.0
H870 H 0.92522 0.88174 0.84394 0.0
H871 H 0.88757 0.81355 0.89427 0.0
H872 H 0.90887 0.77767 0.86241 0.0
H873 H 0.90896 0.85126 0.77903 0.0
H874 H 0.9407 0.86293 0.76068 0.0
H875 H 0.92723 0.88313 0.79014 0.0
H876 H 0.97609 0.87849 0.81575 0.0
H877 H 0.98986 0.85851 0.78619 0.0
H878 H 0.99151 0.84356 0.82165 0.0
H879 H 0.92884 0.74989 0.82247 0.0
H880 H 0.94692 0.73154 0.77689 0.0
H881 H 0.97025 0.81783 0.75118 0.0
C882 C 0.92243 0.85919 0.84864 0.0
C883 C 0.90543 0.85008 0.87165 0.0
C884 C 0.901 0.82062 0.87683 0.0
C885 C 0.91299 0.80019 0.85891 0.0
C886 C 0.929 0.80973 0.83578 0.0
C887 C 0.93379 0.83852 0.83055 0.0
C888 C 0.94883 0.84313 0.8024 0.0
C889 C 0.93032 0.86117 0.78186 0.0
C890 C 0.97833 0.85672 0.80677 0.0
C891 C 0.95137 0.81253 0.79254 0.0
C892 C 0.93998 0.79362 0.81219 0.0
C893 C 0.93817 0.76441 0.80703 0.0
C894 C 0.94827 0.75423 0.78101 0.0
C895 C 0.95999 0.77325 0.76054 0.0
C896 C 0.96173 0.80272 0.76657 0.0
H897 H 0.14297 0.81541 0.41915 0.0
H898 H 0.11595 0.75783 0.35286 0.0
H899 H 0.08786 0.73024 0.38781 0.0
H900 H 0.142 0.76292 0.48018 0.0
H901 H 0.12759 0.78952 0.50365 0.0
H902 H 0.15116 0.80004 0.47513 0.0
H903 H 0.11277 0.83575 0.45663 0.0
H904 H 0.08897 0.82509 0.4847 0.0
H905 H 0.07756 0.82282 0.44818 0.0
H906 H 0.05748 0.71334 0.42845 0.0
H907 H 0.02644 0.70934 0.47092 0.0
H908 H 0.07021 0.78115 0.50871 0.0
C909 C 0.13185 0.79647 0.41215 0.0
C910 C 0.13229 0.78818 0.38345 0.0
C911 C 0.11691 0.76375 0.37494 0.0
C912 C 0.10067 0.74812 0.39464 0.0
C913 C 0.09995 0.75747 0.42265 0.0
C914 C 0.11521 0.78108 0.43139 0.0
C915 C 0.10783 0.78927 0.46146 0.0
C916 C 0.13369 0.78518 0.48128 0.0
C917 C 0.09608 0.82004 0.46279 0.0
C918 C 0.08494 0.76753 0.46778 0.0
C919 C 0.08124 0.74883 0.44552 0.0
C920 C 0.06041 0.72762 0.44615 0.0
C921 C 0.04286 0.7256 0.4702 0.0
C922 C 0.04592 0.74516 0.49273 0.0
C923 C 0.06734 0.76615 0.49156 0.0
H924 H 0.63766 0.08089 0.32693 0.0
H925 H 0.65694 0.04608 0.41058 0.0
H926 H 0.70521 0.03261 0.39427 0.0
H927 H 0.67741 0.02324 0.28806 0.0
H928 H 0.68839 0.04769 0.2603 0.0
H929 H 0.65501 0.05326 0.27847 0.0
H930 H 0.67143 0.10454 0.2908 0.0
H931 H 0.70534 0.09869 0.27372 0.0
H932 H 0.70413 0.10942 0.31039 0.0
H933 H 0.75281 0.03043 0.37174 0.0
H934 H 0.79333 0.02264 0.33975 0.0
H935 H 0.74231 0.05262 0.26809 0.0
C936 C 0.65176 0.06941 0.34134 0.0
C937 C 0.64376 0.06413 0.36987 0.0
C938 C 0.66268 0.04966 0.38851 0.0
C939 C 0.69022 0.04242 0.37957 0.0
C940 C 0.69806 0.04919 0.35174 0.0
C941 C 0.67906 0.06103 0.33243 0.0
C942 C 0.6928 0.06459 0.30336 0.0
C943 C 0.6775 0.04609 0.28124 0.0
C944 C 0.69345 0.0962 0.29403 0.0
C945 C 0.72266 0.05347 0.30962 0.0
C946 C 0.72526 0.04557 0.33792 0.0
C947 C 0.75086 0.03577 0.34937 0.0
C948 C 0.77385 0.0317 0.33099 0.0
C949 C 0.77086 0.03648 0.30126 0.0
C950 C 0.74532 0.04883 0.29065 0.0
H951 H 0.25404 0.11349 0.88368 0.0
H952 H 0.27977 0.08463 0.80058 0.0
H953 H 0.25876 0.03721 0.8106 0.0
H954 H 0.27536 0.0569 0.91887 0.0
H955 H 0.24726 0.05468 0.94496 0.0
H956 H 0.25528 0.08836 0.92835 0.0
H957 H 0.20288 0.09356 0.91133 0.0
H958 H 0.19448 0.05991 0.92841 0.0
H959 H 0.18667 0.06533 0.8912 0.0
H960 H 0.24808 0.99046 0.83419 0.0
H961 H 0.24546 0.94976 0.86866 0.0
H962 H 0.22585 0.00866 0.93598 0.0
C963 C 0.25339 0.0977 0.86702 0.0
C964 C 0.26749 0.10277 0.84105 0.0
C965 C 0.2681 0.08125 0.82021 0.0
C966 C 0.25632 0.05424 0.8258 0.0
C967 C 0.24395 0.04918 0.85234 0.0
C968 C 0.24183 0.07057 0.87244 0.0
C969 C 0.23206 0.05861 0.90084 0.0
C970 C 0.25379 0.065 0.92461 0.0
C971 C 0.20224 0.07002 0.90838 0.0
C972 C 0.23111 0.02701 0.89419 0.0
C973 C 0.23747 0.02194 0.86597 0.0
C974 C 0.24213 0.99419 0.85607 0.0
C975 C 0.24094 0.97125 0.87563 0.0
C976 C 0.23518 0.97633 0.90452 0.0
C977 C 0.22926 0.00434 0.91364 0.0
H978 H 0.31874 0.46279 0.41388 0.0
H979 H 0.38889 0.45142 0.35503 0.0
H980 H 0.35432 0.44881 0.31505 0.0
H981 H 0.26957 0.41577 0.38175 0.0
H982 H 0.23872 0.43801 0.38792 0.0
H983 H 0.2689 0.43959 0.41162 0.0
H984 H 0.2734 0.49426 0.40291 0.0
H985 H 0.2426 0.49293 0.38006 0.0
H986 H 0.27558 0.50784 0.36695 0.0
H987 H 0.31088 0.44559 0.28178 0.0
H988 H 0.26436 0.4515 0.25741 0.0
H989 H 0.22335 0.4653 0.33875 0.0
C990 C 0.32683 0.4603 0.39247 0.0
C991 C 0.35643 0.4576 0.38743 0.0
C992 C 0.36631 0.45409 0.35923 0.0
C993 C 0.34679 0.45215 0.33651 0.0
C994 C 0.31757 0.45396 0.3424 0.0
C995 C 0.30776 0.45864 0.36967 0.0
C996 C 0.27552 0.46099 0.37048 0.0
C997 C 0.26242 0.43716 0.38904 0.0
C998 C 0.26623 0.49077 0.38068 0.0
C999 C 0.26853 0.45683 0.33939 0.0
C1000 C 0.29295 0.45239 0.3235 0.0
C1001 C 0.29166 0.449 0.29408 0.0
C1002 C 0.26502 0.45192 0.28043 0.0
C1003 C 0.2401 0.45858 0.29618 0.0
C1004 C 0.24189 0.4598 0.32615 0.0
H1005 H 0.7063 0.43759 0.81581 0.0
H1006 H 0.74197 0.35923 0.85042 0.0
H1007 H 0.76623 0.38631 0.88769 0.0
H1008 H 0.76437 0.48983 0.84175 0.0
H1009 H 0.73709 0.51555 0.85047 0.0
H1010 H 0.73236 0.49228 0.82053 0.0
H1011 H 0.68414 0.47567 0.84177 0.0
H1012 H 0.68904 0.49793 0.87219 0.0
H1013 H 0.68339 0.46008 0.87701 0.0
H1014 H 0.77709 0.4198 0.92744 0.0
H1015 H 0.77421 0.45663 0.96489 0.0
H1016 H 0.72542 0.51137 0.9078 0.0
C1017 C 0.72076 0.42648 0.83017 0.0
C1018 C 0.7235 0.39646 0.82923 0.0
C1019 C 0.74122 0.38232 0.84936 0.0
C1020 C 0.75462 0.39759 0.8711 0.0
C1021 C 0.74968 0.42694 0.87271 0.0
C1022 C 0.73335 0.44132 0.85254 0.0
C1023 C 0.72632 0.4714 0.86195 0.0
C1024 C 0.74092 0.49358 0.84252 0.0
C1025 C 0.69381 0.47652 0.86332 0.0
C1026 C 0.73953 0.47102 0.89127 0.0
C1027 C 0.75378 0.44564 0.89677 0.0
C1028 C 0.76638 0.43993 0.92316 0.0
C1029 C 0.76445 0.46079 0.94436 0.0
C1030 C 0.74922 0.48651 0.93926 0.0
C1031 C 0.73685 0.49167 0.91233 0.0
H1032 H 0.6247 0.9237 0.19265 0.0
H1033 H 0.63378 0.98936 0.12753 0.0
H1034 H 0.67716 0.00673 0.15115 0.0
H1035 H 0.66055 0.96567 0.25388 0.0
H1036 H 0.67686 0.933 0.26662 0.0
H1037 H 0.64193 0.93218 0.25047 0.0
H1038 H 0.66041 0.8944 0.21502 0.0
H1039 H 0.6955 0.89576 0.23023 0.0
H1040 H 0.69067 0.90279 0.19277 0.0
H1041 H 0.72595 0.00725 0.17256 0.0
H1042 H 0.77244 0.99562 0.19462 0.0
H1043 H 0.73192 0.92984 0.24609 0.0
C1044 C 0.63492 0.94274 0.18426 0.0
C1045 C 0.62587 0.95511 0.15823 0.0
C1046 C 0.64005 0.97969 0.14761 0.0
C1047 C 0.66492 0.98963 0.16083 0.0
C1048 C 0.67492 0.97513 0.18495 0.0
C1049 C 0.65984 0.95274 0.19713 0.0
C1050 C 0.67705 0.93794 0.2203 0.0
C1051 C 0.66328 0.94249 0.24955 0.0
C1052 C 0.68114 0.90585 0.21418 0.0
C1053 C 0.70489 0.95403 0.21775 0.0
C1054 C 0.70316 0.97574 0.19764 0.0
C1055 C 0.72726 0.99105 0.18911 0.0
C1056 C 0.75367 0.98415 0.20163 0.0
C1057 C 0.75576 0.96214 0.22243 0.0
C1058 C 0.73092 0.94719 0.23068 0.0
H1059 H 0.1951 0.07724 0.13988 0.0
H1060 H 0.23134 0.15187 0.09874 0.0
H1061 H 0.25595 0.12068 0.06407 0.0
H1062 H 0.25544 0.02539 0.12474 0.0
H1063 H 0.23021 0.99705 0.11874 0.0
H1064 H 0.22223 0.02458 0.14409 0.0
H1065 H 0.17475 0.03515 0.1176 0.0
H1066 H 0.1828 0.00828 0.09183 0.0
H1067 H 0.1756 0.04448 0.0803 0.0
H1068 H 0.27031 0.08126 0.02976 0.0
H1069 H 0.27276 0.03815 -0.00055 0.0
H1070 H 0.2229 0.99101 0.06164 0.0
C1071 C 0.20927 0.08682 0.12428 0.0
C1072 C 0.21225 0.11669 0.12236 0.0
C1073 C 0.22987 0.12887 0.10112 0.0
C1074 C 0.24367 0.11131 0.08126 0.0
C1075 C 0.23932 0.08179 0.08303 0.0
C1076 C 0.2227 0.06969 0.10427 0.0
C1077 C 0.21792 0.03816 0.09959 0.0
C1078 C 0.23232 0.02024 0.12319 0.0
C1079 C 0.18588 0.03114 0.09717 0.0
C1080 C 0.23303 0.0346 0.07155 0.0
C1081 C 0.24602 0.05967 0.06264 0.0
C1082 C 0.26049 0.06149 0.03674 0.0
C1083 C 0.26168 0.03704 0.01964 0.0
C1084 C 0.24772 0.01159 0.02824 0.0
C1085 C 0.23344 0.0104 0.05453 0.0
H1086 H 0.37839 0.56197 0.17564 0.0
H1087 H 0.35569 0.5076 0.10494 0.0
H1088 H 0.30761 0.50088 0.12551 0.0
H1089 H 0.33878 0.52371 0.23041 0.0
H1090 H 0.32795 0.5559 0.24823 0.0
H1091 H 0.36108 0.55505 0.2288 0.0
H1092 H 0.34468 0.59901 0.19892 0.0
H1093 H 0.31146 0.59993 0.21816 0.0
H1094 H 0.31126 0.59764 0.17992 0.0
H1095 H 0.26102 0.50201 0.15266 0.0
H1096 H 0.2201 0.51013 0.18468 0.0
H1097 H 0.27302 0.5641 0.23744 0.0
C1098 C 0.3634 0.54853 0.16449 0.0
C1099 C 0.37084 0.53549 0.13848 0.0
C1100 C 0.35052 0.51796 0.12477 0.0
C1101 C 0.32313 0.51399 0.13631 0.0
C1102 C 0.3163 0.52768 0.16162 0.0
C1103 C 0.33589 0.54453 0.17559 0.0
C1104 C 0.32288 0.55766 0.20195 0.0
C1105 C 0.33861 0.54746 0.22894 0.0
C1106 C 0.32255 0.5905 0.19958 0.0
C1107 C 0.2929 0.54558 0.20064 0.0
C1108 C 0.28954 0.52831 0.17723 0.0
C1109 C 0.26351 0.51531 0.17118 0.0
C1110 C 0.24035 0.52002 0.18955 0.0
C1111 C 0.24333 0.53751 0.21378 0.0
C1112 C 0.27004 0.55044 0.21924 0.0
H1113 H 0.784 0.42241 0.15215 0.0
H1114 H 0.72707 0.3629 0.11153 0.0
H1115 H 0.69671 0.40322 0.095 0.0
H1116 H 0.72804 0.48158 0.16764 0.0
H1117 H 0.75424 0.50854 0.15925 0.0
H1118 H 0.76515 0.47535 0.17595 0.0
H1119 H 0.80141 0.46689 0.13527 0.0
H1120 H 0.79071 0.49979 0.11865 0.0
H1121 H 0.78891 0.46696 0.09898 0.0
H1122 H 0.68047 0.44958 0.07289 0.0
H1123 H 0.68245 0.49469 0.04535 0.0
H1124 H 0.7508 0.52443 0.09943 0.0
C1125 C 0.76431 0.41793 0.14097 0.0
C1126 C 0.7573 0.38965 0.13375 0.0
C1127 C 0.73205 0.38433 0.11828 0.0
C1128 C 0.71483 0.40722 0.10868 0.0
C1129 C 0.72312 0.43518 0.11501 0.0
C1130 C 0.7472 0.44049 0.13119 0.0
C1131 C 0.75487 0.47191 0.13072 0.0
C1132 C 0.75029 0.48512 0.16014 0.0
C1133 C 0.78576 0.47663 0.12025 0.0
C1134 C 0.73309 0.48317 0.1096 0.0
C1135 C 0.71414 0.46201 0.10166 0.0
C1136 C 0.69466 0.46646 0.07953 0.0
C1137 C 0.69581 0.49232 0.06405 0.0
C1138 C 0.71681 0.51306 0.07032 0.0
C1139 C 0.73429 0.50908 0.0945 0.0
H1140 H 0.38165 0.65556 0.04332 0.0
H1141 H 0.31994 0.62384 0.10448 0.0
H1142 H 0.29391 0.66974 0.10187 0.0
H1143 H 0.38684 0.72383 0.06964 0.0
H1144 H 0.38921 0.74251 0.036 0.0
H1145 H 0.4011 0.70595 0.03897 0.0
H1146 H 0.36681 0.69067 -0.00142 0.0
H1147 H 0.35592 0.72746 0.99451 0.0
H1148 H 0.32952 0.70012 0.00066 0.0
H1149 H 0.27798 0.72069 0.09714 0.0
H1150 H 0.2664 0.76998 0.08205 0.0
H1151 H 0.33918 0.76934 0.02477 0.0
C1152 C 0.36185 0.65785 0.05498 0.0
C1153 C 0.35242 0.63605 0.07368 0.0
C1154 C 0.3271 0.64017 0.08961 0.0
C1155 C 0.31243 0.66629 0.08858 0.0
C1156 C 0.32334 0.6881 0.07146 0.0
C1157 C 0.34694 0.68395 0.05428 0.0
C1158 C 0.35456 0.71126 0.03839 0.0
C1159 C 0.38472 0.72148 0.04623 0.0
C1160 C 0.35151 0.70713 0.00613 0.0
C1161 C 0.33187 0.73139 0.04971 0.0
C1162 C 0.31423 0.71763 0.06891 0.0
C1163 C 0.29148 0.73165 0.08189 0.0
C1164 C 0.28531 0.75987 0.07348 0.0
C1165 C 0.30173 0.77375 0.05212 0.0
C1166 C 0.32622 0.75965 0.04129 0.0
H1167 H 0.36265 0.36537 0.50574 0.0
H1168 H 0.40997 0.35686 0.42748 0.0
H1169 H 0.3916 0.30776 0.42166 0.0
H1170 H 0.37773 0.28815 0.52806 0.0
H1171 H 0.34392 0.28596 0.54623 0.0
H1172 H 0.36279 0.31947 0.54444 0.0
H1173 H 0.3176 0.34298 0.523 0.0
H1174 H 0.29902 0.30933 0.52276 0.0
H1175 H 0.30297 0.3296 0.49023 0.0
H1176 H 0.36097 0.26198 0.42148 0.0
H1177 H 0.32894 0.22057 0.43195 0.0
H1178 H 0.30739 0.2579 0.513 0.0
C1179 C 0.3698 0.35279 0.48789 0.0
C1180 C 0.38682 0.36504 0.46644 0.0
C1181 C 0.39597 0.34809 0.44343 0.0
C1182 C 0.38587 0.32009 0.44016 0.0
C1183 C 0.3678 0.30898 0.46099 0.0
C1184 C 0.361 0.3244 0.48506 0.0
C1185 C 0.34182 0.30749 0.50467 0.0
C1186 C 0.3575 0.2998 0.53249 0.0
C1187 C 0.3137 0.32337 0.51047 0.0
C1188 C 0.33695 0.28128 0.48689 0.0
C1189 C 0.3522 0.28218 0.4618 0.0
C1190 C 0.34942 0.26077 0.44138 0.0
C1191 C 0.33105 0.23759 0.44723 0.0
C1192 C 0.31589 0.23644 0.47314 0.0
C1193 C 0.31891 0.2585 0.49301 0.0
H1194 H 0.60271 0.37655 0.72804 0.0
H1195 H 0.57199 0.30569 0.77882 0.0
H1196 H 0.52238 0.32057 0.76952 0.0
H1197 H 0.56521 0.42442 0.75322 0.0
H1198 H 0.55577 0.44565 0.72237 0.0
H1199 H 0.58704 0.42366 0.72162 0.0
H1200 H 0.56876 0.39725 0.67727 0.0
H1201 H 0.53754 0.41995 0.67702 0.0
H1202 H 0.53361 0.38163 0.67741 0.0
H1203 H 0.48122 0.35318 0.7727 0.0
H1204 H 0.45009 0.39557 0.7786 0.0
H1205 H 0.50488 0.44416 0.72206 0.0
C1206 C 0.58536 0.36291 0.73497 0.0
C1207 C 0.59088 0.33979 0.75358 0.0
C1208 C 0.568 0.323 0.7638 0.0
C1209 C 0.53971 0.33153 0.75883 0.0
C1210 C 0.5348 0.35642 0.74294 0.0
C1211 C 0.55698 0.37118 0.72992 0.0
C1212 C 0.54677 0.39975 0.7182 0.0
C1213 C 0.56475 0.42479 0.72958 0.0
C1214 C 0.54665 0.39962 0.68553 0.0
C1215 C 0.51662 0.40029 0.72979 0.0
C1216 C 0.50983 0.3749 0.74353 0.0
C1217 C 0.48561 0.3726 0.76079 0.0
C1218 C 0.46818 0.39681 0.76431 0.0
C1219 C 0.47488 0.42279 0.75029 0.0
C1220 C 0.49881 0.42416 0.73214 0.0
H1221 H 0.59825 0.15995 0.48929 0.0
H1222 H 0.64707 0.09663 0.4437 0.0
H1223 H 0.68986 0.12764 0.44602 0.0
H1224 H 0.62307 0.21731 0.45441 0.0
H1225 H 0.62449 0.24147 0.48397 0.0
H1226 H 0.59982 0.21213 0.48457 0.0
H1227 H 0.62101 0.19338 0.53217 0.0
H1228 H 0.64519 0.22328 0.53232 0.0
H1229 H 0.65894 0.18732 0.53514 0.0
H1230 H 0.72392 0.16982 0.4453 0.0
H1231 H 0.74853 0.21661 0.44761 0.0
H1232 H 0.67667 0.25135 0.49426 0.0
C1233 C 0.61845 0.152 0.48133 0.0
C1234 C 0.61991 0.12572 0.46719 0.0
C1235 C 0.64608 0.11633 0.45557 0.0
C1236 C 0.67031 0.13395 0.45652 0.0
C1237 C 0.66782 0.16059 0.46943 0.0
C1238 C 0.64269 0.16921 0.48231 0.0
C1239 C 0.64446 0.19972 0.49236 0.0
C1240 C 0.62161 0.21875 0.47796 0.0
C1241 C 0.64229 0.20099 0.52494 0.0
C1242 C 0.67407 0.20736 0.48222 0.0
C1243 C 0.68733 0.18462 0.46908 0.0
C1244 C 0.71399 0.18756 0.45612 0.0
C1245 C 0.72765 0.21426 0.45724 0.0
C1246 C 0.71458 0.23753 0.47126 0.0
C1247 C 0.68743 0.23387 0.48374 0.0
H1248 H 0.88458 0.608 0.26294 0.0
H1249 H 0.91998 0.69155 0.2787 0.0
H1250 H 0.96494 0.67732 0.25507 0.0
H1251 H 0.94086 0.57077 0.28215 0.0
H1252 H 0.93904 0.54279 0.25615 0.0
H1253 H 0.90726 0.56182 0.26576 0.0
H1254 H 0.89842 0.5759 0.21305 0.0
H1255 H 0.93012 0.5564 0.20315 0.0
H1256 H 0.92621 0.59349 0.19304 0.0
H1257 H 0.009 0.65067 0.24114 0.0
H1258 H 0.04736 0.61435 0.23698 0.0
H1259 H 0.98372 0.54792 0.23047 0.0
C1260 C 0.90126 0.6237 0.25977 0.0
C1261 C 0.89874 0.65109 0.27164 0.0
C1262 C 0.92139 0.67078 0.26881 0.0
C1263 C 0.94697 0.66282 0.25548 0.0
C1264 C 0.94946 0.6351 0.24507 0.0
C1265 C 0.92695 0.61595 0.24661 0.0
C1266 C 0.93636 0.58623 0.23811 0.0
C1267 C 0.93055 0.56414 0.26197 0.0
C1268 C 0.92192 0.57749 0.21017 0.0
C1269 C 0.96804 0.5911 0.23386 0.0
C1270 C 0.97513 0.61956 0.23715 0.0
C1271 C 0.00361 0.6285 0.23767 0.0
C1272 C 0.0253 0.60778 0.2355 0.0
C1273 C 0.01829 0.57858 0.23308 0.0
C1274 C 0.98942 0.57033 0.23145 0.0
H1275 H 0.19644 0.38312 0.56239 0.0
H1276 H 0.12351 0.36276 0.50958 0.0
H1277 H 0.14715 0.31815 0.49514 0.0
H1278 H 0.25487 0.34423 0.52219 0.0
H1279 H 0.26996 0.33334 0.55607 0.0
H1280 H 0.25133 0.36688 0.55273 0.0
H1281 H 0.21991 0.34983 0.59525 0.0
H1282 H 0.23714 0.31549 0.59626 0.0
H1283 H 0.19898 0.31777 0.59172 0.0
H1284 H 0.17245 0.2711 0.49613 0.0
H1285 H 0.19915 0.22741 0.50895 0.0
H1286 H 0.25466 0.27685 0.56344 0.0
C1287 C 0.1861 0.37008 0.54654 0.0
C1288 C 0.1584 0.37696 0.53656 0.0
C1289 C 0.14516 0.3587 0.51668 0.0
C1290 C 0.15831 0.33298 0.50869 0.0
C1291 C 0.18457 0.32573 0.52091 0.0
C1292 C 0.19845 0.34395 0.53922 0.0
C1293 C 0.22361 0.32934 0.55358 0.0
C1294 C 0.25163 0.34431 0.5456 0.0
C1295 C 0.21964 0.32804 0.5861 0.0
C1296 C 0.22162 0.29985 0.54079 0.0
C1297 C 0.19901 0.29824 0.52192 0.0
C1298 C 0.19077 0.27235 0.51011 0.0
C1299 C 0.20608 0.24757 0.51759 0.0
C1300 C 0.22944 0.24874 0.53671 0.0
C1301 C 0.23734 0.27534 0.54826 0.0
H1302 H 0.64198 0.59413 0.73343 0.0
H1303 H 0.61126 0.67719 0.75864 0.0
H1304 H 0.57048 0.65449 0.78322 0.0
H1305 H 0.58303 0.57056 0.71048 0.0
H1306 H 0.58475 0.53364 0.72179 0.0
H1307 H 0.61708 0.55348 0.71686 0.0
H1308 H 0.63305 0.54284 0.76855 0.0
H1309 H 0.60129 0.52162 0.77352 0.0
H1310 H 0.60914 0.55033 0.79755 0.0
H1311 H 0.52707 0.625 0.79207 0.0
H1312 H 0.48703 0.5907 0.7888 0.0
H1313 H 0.54432 0.52698 0.75459 0.0
C1314 C 0.62783 0.60718 0.74612 0.0
C1315 C 0.63004 0.63722 0.74498 0.0
C1316 C 0.61042 0.65408 0.76025 0.0
C1317 C 0.58699 0.6413 0.77397 0.0
C1318 C 0.58378 0.61167 0.77228 0.0
C1319 C 0.60416 0.59467 0.75938 0.0
C1320 C 0.59345 0.56434 0.75567 0.0
C1321 C 0.59464 0.55501 0.72435 0.0
C1322 C 0.61022 0.54355 0.77497 0.0
C1323 C 0.56298 0.56758 0.76584 0.0
C1324 C 0.55811 0.59473 0.7763 0.0
C1325 C 0.53091 0.6035 0.78469 0.0
C1326 C 0.50828 0.58404 0.78252 0.0
C1327 C 0.51286 0.55645 0.77144 0.0
C1328 C 0.54052 0.54802 0.76324 0.0
H1329 H 0.3656 0.89976 0.7226 0.0
H1330 H 0.41684 0.82454 0.70668 0.0
H1331 H 0.45488 0.84319 0.73787 0.0
H1332 H 0.41668 0.9469 0.7137 0.0
H1333 H 0.40673 0.97184 0.74097 0.0
H1334 H 0.3802 0.94901 0.72585 0.0
H1335 H 0.36735 0.92932 0.77597 0.0
H1336 H 0.39383 0.95246 0.79138 0.0
H1337 H 0.395 0.9145 0.79837 0.0
H1338 H 0.4902 0.87321 0.76104 0.0
H1339 H 0.5221 0.91375 0.77079 0.0
H1340 H 0.44986 0.97167 0.76934 0.0
C1341 C 0.38445 0.8869 0.72678 0.0
C1342 C 0.38853 0.86072 0.71291 0.0
C1343 C 0.41353 0.84452 0.71765 0.0
C1344 C 0.43501 0.85485 0.73549 0.0
C1345 C 0.43098 0.88138 0.74822 0.0
C1346 C 0.40626 0.89722 0.74414 0.0
C1347 C 0.40937 0.92719 0.75565 0.0
C1348 C 0.40289 0.95005 0.73266 0.0
C1349 C 0.39026 0.9311 0.7819 0.0
C1350 C 0.44066 0.92674 0.76391 0.0
C1351 C 0.4522 0.89961 0.76092 0.0
C1352 C 0.48129 0.8943 0.76429 0.0
C1353 C 0.49924 0.9174 0.76976 0.0
C1354 C 0.48808 0.94541 0.7713 0.0
C1355 C 0.45846 0.95016 0.76911 0.0
H1356 H 0.52676 0.88757 0.145 0.0
H1357 H 0.55353 0.81015 0.1027 0.0
H1358 H 0.55219 0.78403 0.1484 0.0
H1359 H 0.56843 0.88133 0.20125 0.0
H1360 H 0.54442 0.89356 0.22852 0.0
H1361 H 0.53957 0.90541 0.19231 0.0
H1362 H 0.48773 0.88632 0.19124 0.0
H1363 H 0.49162 0.87617 0.22811 0.0
H1364 H 0.48071 0.85002 0.20244 0.0
H1365 H 0.56214 0.77092 0.19857 0.0
H1366 H 0.56272 0.76392 0.25023 0.0
H1367 H 0.52653 0.84885 0.26109 0.0
C1368 C 0.53024 0.86467 0.14502 0.0
C1369 C 0.5404 0.85082 0.12042 0.0
C1370 C 0.54553 0.82099 0.12134 0.0
C1371 C 0.5454 0.80615 0.14731 0.0
C1372 C 0.53912 0.82135 0.17181 0.0
C1373 C 0.53007 0.8495 0.17085 0.0
C1374 C 0.52616 0.86115 0.20062 0.0
C1375 C 0.54581 0.88688 0.20596 0.0
C1376 C 0.49468 0.86885 0.20592 0.0
C1377 C 0.53538 0.83545 0.21828 0.0
C1378 C 0.54337 0.81304 0.20114 0.0
C1379 C 0.55487 0.78788 0.21228 0.0
C1380 C 0.55563 0.78439 0.24182 0.0
C1381 C 0.54397 0.80557 0.25991 0.0
C1382 C 0.5353 0.83211 0.24792 0.0
H1383 H 0.07402 0.22024 0.13794 0.0
H1384 H 0.15917 0.24195 0.10967 0.0
H1385 H 0.1393 0.26144 0.06483 0.0
H1386 H 0.05108 0.19217 0.08091 0.0
H1387 H 0.01488 0.20541 0.0797 0.0
H1388 H 0.03322 0.20278 0.11312 0.0
H1389 H 0.02508 0.2565 0.12277 0.0
H1390 H 0.00535 0.25924 0.08989 0.0
H1391 H 0.0351 0.2827 0.09625 0.0
H1392 H 0.11237 0.26474 0.01896 0.0
H1393 H 0.07902 0.26012 0.97832 0.0
H1394 H 0.01111 0.2361 0.03614 0.0
C1395 C 0.08815 0.23098 0.12309 0.0
C1396 C 0.118 0.22994 0.12721 0.0
C1397 C 0.1362 0.24319 0.10712 0.0
C1398 C 0.12506 0.25402 0.08143 0.0
C1399 C 0.09567 0.2521 0.07672 0.0
C1400 C 0.07727 0.24197 0.0975 0.0
C1401 C 0.04719 0.23863 0.08599 0.0
C1402 C 0.03599 0.20792 0.09017 0.0
C1403 C 0.02698 0.26058 0.09952 0.0
C1404 C 0.05213 0.24558 0.05492 0.0
C1405 C 0.08005 0.25399 0.05009 0.0
C1406 C 0.09029 0.25902 0.02265 0.0
C1407 C 0.0714 0.25599 -0.00029 0.0
C1408 C 0.04281 0.24755 0.00437 0.0
C1409 C 0.03299 0.24248 0.03224 0.0
H1410 H 0.49189 0.60864 0.15444 0.0
H1411 H 0.42598 0.64836 0.10292 0.0
H1412 H 0.42733 0.6913 0.13345 0.0
H1413 H 0.46739 0.6277 0.21796 0.0
H1414 H 0.50129 0.63473 0.23463 0.0
H1415 H 0.49937 0.61019 0.20562 0.0
H1416 H 0.53696 0.63953 0.17735 0.0
H1417 H 0.53964 0.66388 0.20667 0.0
H1418 H 0.53139 0.6773 0.17154 0.0
H1419 H 0.43045 0.72583 0.17532 0.0
H1420 H 0.43834 0.75029 0.22122 0.0
H1421 H 0.50282 0.6869 0.24336 0.0
C1422 C 0.47877 0.62699 0.14889 0.0
C1423 C 0.45924 0.62571 0.12633 0.0
C1424 C 0.44153 0.64947 0.11993 0.0
C1425 C 0.44208 0.6738 0.13721 0.0
C1426 C 0.46086 0.67397 0.16029 0.0
C1427 C 0.47941 0.6514 0.16561 0.0
C1428 C 0.49583 0.65539 0.19285 0.0
C1429 C 0.49063 0.63054 0.21399 0.0
C1430 C 0.52785 0.65927 0.18673 0.0
C1431 C 0.48248 0.6828 0.203 0.0
C1432 C 0.46264 0.69359 0.18395 0.0
C1433 C 0.44637 0.71784 0.19011 0.0
C1434 C 0.45081 0.73145 0.21631 0.0
C1435 C 0.47112 0.72051 0.236 0.0
C1436 C 0.48712 0.69598 0.22892 0.0
H1437 H 0.87376 0.25322 0.10632 0.0
H1438 H 0.79232 0.27008 0.06612 0.0
H1439 H 0.8095 0.24791 0.02201 0.0
H1440 H 0.9133 0.27533 0.05444 0.0
H1441 H 0.94198 0.24956 0.05625 0.0
H1442 H 0.92105 0.25658 0.08729 0.0
H1443 H 0.90831 0.20307 0.09214 0.0
H1444 H 0.92969 0.19555 0.06122 0.0
H1445 H 0.89281 0.18461 0.06246 0.0
H1446 H 0.83921 0.23986 0.97953 0.0
H1447 H 0.8779 0.24037 0.94355 0.0
H1448 H 0.94031 0.22642 0.01016 0.0
C1449 C 0.85904 0.25025 0.08883 0.0
C1450 C 0.83152 0.26252 0.0897 0.0
C1451 C 0.81318 0.25998 0.066 0.0
C1452 C 0.82286 0.24755 0.0408 0.0
C1453 C 0.85094 0.23762 0.03968 0.0
C1454 C 0.86861 0.23803 0.06337 0.0
C1455 C 0.89911 0.2306 0.05533 0.0
C1456 C 0.92005 0.25445 0.06381 0.0
C1457 C 0.90799 0.20173 0.06856 0.0
C1458 C 0.89626 0.2285 0.02329 0.0
C1459 C 0.86821 0.23207 0.01468 0.0
C1460 C 0.86104 0.23576 0.98597 0.0
C1461 C 0.88306 0.23617 0.96566 0.0
C1462 C 0.91173 0.23255 0.97421 0.0
C1463 C 0.91829 0.22802 0.0032 0.0
H1464 H 0.55876 0.17617 0.36729 0.0
H1465 H 0.54863 0.08622 0.34843 0.0
H1466 H 0.55346 0.09697 0.29724 0.0
H1467 H 0.51577 0.20099 0.31284 0.0
H1468 H 0.53636 0.23256 0.30481 0.0
H1469 H 0.5376 0.21706 0.33988 0.0
H1470 H 0.59276 0.21326 0.33617 0.0
H1471 H 0.59152 0.22839 0.30075 0.0
H1472 H 0.60857 0.19428 0.30695 0.0
H1473 H 0.55182 0.11772 0.2485 0.0
H1474 H 0.53947 0.14725 0.20646 0.0
H1475 H 0.55122 0.22399 0.25569 0.0
C1476 C 0.55829 0.15873 0.35234 0.0
C1477 C 0.55345 0.13039 0.3618 0.0
C1478 C 0.55225 0.10812 0.34167 0.0
C1479 C 0.55528 0.11398 0.31253 0.0
C1480 C 0.5595 0.14223 0.30378 0.0
C1481 C 0.5609 0.16429 0.32308 0.0
C1482 C 0.56176 0.19309 0.30795 0.0
C1483 C 0.53637 0.21201 0.31689 0.0
C1484 C 0.59036 0.20814 0.31327 0.0
C1485 C 0.55923 0.18385 0.27722 0.0
C1486 C 0.55868 0.15436 0.27526 0.0
C1487 C 0.55298 0.14078 0.24963 0.0
C1488 C 0.54616 0.1577 0.22576 0.0
C1489 C 0.54513 0.18786 0.22765 0.0
C1490 C 0.55307 0.20104 0.25336 0.0
H1491 H 0.37952 0.23451 0.88503 0.0
H1492 H 0.30382 0.20809 0.93087 0.0
H1493 H 0.32365 0.2278 0.97509 0.0
H1494 H 0.42619 0.21198 0.93293 0.0
H1495 H 0.45203 0.24035 0.9299 0.0
H1496 H 0.42901 0.23265 0.90045 0.0
H1497 H 0.41085 0.28498 0.89936 0.0
H1498 H 0.43431 0.29311 0.92861 0.0
H1499 H 0.39662 0.30057 0.93124 0.0
H1500 H 0.35545 0.23835 0.01504 0.0
H1501 H 0.39639 0.24185 0.04836 0.0
H1502 H 0.45227 0.26167 0.97769 0.0
C1503 C 0.36656 0.2345 0.90409 0.0
C1504 C 0.33989 0.22056 0.90457 0.0
C1505 C 0.32401 0.21934 0.93009 0.0
C1506 C 0.33513 0.23047 0.95529 0.0
C1507 C 0.36221 0.24273 0.95461 0.0
C1508 C 0.37761 0.24526 0.92957 0.0
C1509 C 0.40787 0.25515 0.93542 0.0
C1510 C 0.43005 0.23374 0.92401 0.0
C1511 C 0.4127 0.28524 0.92293 0.0
C1512 C 0.40769 0.25558 0.96769 0.0
C1513 C 0.38092 0.24907 0.97827 0.0
C1514 C 0.37625 0.24456 0.00727 0.0
C1515 C 0.39953 0.24644 0.02597 0.0
C1516 C 0.42704 0.25271 0.01549 0.0
C1517 C 0.43109 0.25782 0.98614 0.0
H1518 H 0.45719 0.33946 0.37943 0.0
H1519 H 0.43045 0.41543 0.33299 0.0
H1520 H 0.43199 0.38874 0.28808 0.0
H1521 H 0.50585 0.31132 0.32117 0.0
H1522 H 0.49646 0.27489 0.32974 0.0
H1523 H 0.4971 0.30137 0.35726 0.0
H1524 H 0.4449 0.28799 0.36987 0.0
H1525 H 0.4436 0.26256 0.34142 0.0
H1526 H 0.4176 0.29101 0.34294 0.0
H1527 H 0.42794 0.35274 0.25057 0.0
H1528 H 0.43329 0.31216 0.21801 0.0
H1529 H 0.46591 0.25943 0.28716 0.0
C1530 C 0.45334 0.35073 0.35954 0.0
C1531 C 0.4444 0.37954 0.35927 0.0
C1532 C 0.43813 0.39353 0.33323 0.0
C1533 C 0.43848 0.37844 0.30778 0.0
C1534 C 0.44549 0.34952 0.30888 0.0
C1535 C 0.45406 0.33601 0.33376 0.0
C1536 C 0.46014 0.30456 0.32882 0.0
C1537 C 0.49177 0.29763 0.33457 0.0
C1538 C 0.44038 0.28541 0.34684 0.0
C1539 C 0.453 0.3025 0.29746 0.0
C1540 C 0.44398 0.32864 0.28669 0.0
C1541 C 0.43534 0.33224 0.25859 0.0
C1542 C 0.43791 0.30898 0.24042 0.0
C1543 C 0.44938 0.28273 0.25036 0.0
C1544 C 0.45627 0.27909 0.27938 0.0
H1545 H 0.62457 0.26691 0.87347 0.0
H1546 H 0.67218 0.33605 0.91123 0.0
H1547 H 0.65584 0.32099 0.95883 0.0
H1548 H 0.5656 0.27666 0.9101 0.0
H1549 H 0.55513 0.23997 0.91573 0.0
H1550 H 0.57729 0.24932 0.88593 0.0
H1551 H 0.6158 0.21297 0.90221 0.0
H1552 H 0.59347 0.20278 0.93185 0.0
H1553 H 0.62962 0.21435 0.93795 0.0
H1554 H 0.62597 0.30768 -0.00128 0.0
H1555 H 0.58627 0.2944 0.03035 0.0
H1556 H 0.55639 0.2332 0.96849 0.0
C1557 C 0.63267 0.27773 0.89204 0.0
C1558 C 0.64994 0.30222 0.8891 0.0
C1559 C 0.65924 0.31697 0.9134 0.0
C1560 C 0.65014 0.3085 0.94045 0.0
C1561 C 0.63167 0.28531 0.94272 0.0
C1562 C 0.6233 0.26975 0.91927 0.0
C1563 C 0.59966 0.24893 0.927 0.0
C1564 C 0.57285 0.25406 0.90861 0.0
C1565 C 0.61028 0.21792 0.92462 0.0
C1566 C 0.59454 0.25693 0.95777 0.0
C1567 C 0.61379 0.27746 0.96646 0.0
C1568 C 0.61131 0.29103 0.99254 0.0
C1569 C 0.58848 0.28363 0.01018 0.0
C1570 C 0.56844 0.26282 0.00174 0.0
C1571 C 0.57183 0.24881 0.97551 0.0
H1572 H 0.13441 0.5634 0.8071 0.0
H1573 H 0.13986 0.51069 0.88357 0.0
H1574 H 0.19143 0.50553 0.87654 0.0
H1575 H 0.19353 0.52114 0.7682 0.0
H1576 H 0.20576 0.55308 0.75033 0.0
H1577 H 0.16838 0.54874 0.7584 0.0
H1578 H 0.16898 0.59677 0.78496 0.0
H1579 H 0.20656 0.60109 0.77827 0.0
H1580 H 0.19334 0.60153 0.81425 0.0
H1581 H 0.24222 0.51869 0.87 0.0
H1582 H 0.29024 0.52874 0.85166 0.0
H1583 H 0.253 0.56677 0.77533 0.0
C1584 C 0.14618 0.54944 0.82145 0.0
C1585 C 0.13318 0.53819 0.84634 0.0
C1586 C 0.14926 0.51991 0.86456 0.0
C1587 C 0.17875 0.51714 0.86098 0.0
C1588 C 0.19144 0.53147 0.83825 0.0
C1589 C 0.17561 0.5456 0.81765 0.0
C1590 C 0.19496 0.55894 0.79526 0.0
C1591 C 0.1904 0.54464 0.76632 0.0
C1592 C 0.19068 0.59152 0.79308 0.0
C1593 C 0.22402 0.55156 0.80762 0.0
C1594 C 0.22131 0.53629 0.83275 0.0
C1595 C 0.24476 0.5294 0.84964 0.0
C1596 C 0.27196 0.53571 0.8392 0.0
C1597 C 0.27555 0.54765 0.81155 0.0
C1598 C 0.25114 0.55725 0.79634 0.0
H1599 H 0.79691 0.56947 0.32182 0.0
H1600 H 0.74647 0.63001 0.36951 0.0
H1601 H 0.71845 0.59017 0.38999 0.0
H1602 H 0.74183 0.50931 0.31571 0.0
H1603 H 0.76924 0.48292 0.32236 0.0
H1604 H 0.77774 0.51552 0.30338 0.0
H1605 H 0.81788 0.52597 0.33975 0.0
H1606 H 0.80954 0.49363 0.3587 0.0
H1607 H 0.80926 0.52726 0.37708 0.0
H1608 H 0.70239 0.54418 0.41196 0.0
H1609 H 0.7051 0.49902 0.43904 0.0
H1610 H 0.77149 0.46867 0.38263 0.0
C1611 C 0.77907 0.5744 0.33558 0.0
C1612 C 0.77294 0.60298 0.34302 0.0
C1613 C 0.75036 0.60852 0.36212 0.0
C1614 C 0.73454 0.58588 0.37407 0.0
C1615 C 0.74193 0.55782 0.3671 0.0
C1616 C 0.76392 0.55206 0.3484 0.0
C1617 C 0.77222 0.52069 0.34924 0.0
C1618 C 0.76481 0.50626 0.32099 0.0
C1619 C 0.80408 0.51669 0.35666 0.0
C1620 C 0.75303 0.51001 0.37291 0.0
C1621 C 0.73463 0.53136 0.38181 0.0
C1622 C 0.71636 0.52724 0.40483 0.0
C1623 C 0.71799 0.50134 0.42004 0.0
C1624 C 0.73853 0.48027 0.41287 0.0
C1625 C 0.75538 0.48425 0.3883 0.0
H1626 H 0.81413 0.95976 0.90885 0.0
H1627 H 0.87433 0.92651 0.84757 0.0
H1628 H 0.83507 0.92222 0.81223 0.0
H1629 H 0.75433 0.91676 0.89059 0.0
H1630 H 0.72838 0.94493 0.89502 0.0
H1631 H 0.76102 0.94513 0.91535 0.0
H1632 H 0.77314 0.99588 0.89622 0.0
H1633 H 0.74006 0.99611 0.87673 0.0
H1634 H 0.77327 0.00248 0.85839 0.0
H1635 H 0.78791 0.92012 0.78436 0.0
H1636 H 0.74054 0.93004 0.7631 0.0
H1637 H 0.71216 0.96634 0.84268 0.0
C1638 C 0.8191 0.95205 0.88778 0.0
C1639 C 0.84721 0.94376 0.88072 0.0
C1640 C 0.853 0.93351 0.85312 0.0
C1641 C 0.83074 0.93059 0.83315 0.0
C1642 C 0.80298 0.93824 0.84112 0.0
C1643 C 0.79733 0.94945 0.8676 0.0
C1644 C 0.76615 0.95764 0.87061 0.0
C1645 C 0.75162 0.94006 0.8943 0.0
C1646 C 0.76298 0.98994 0.87577 0.0
C1647 C 0.75499 0.94946 0.84161 0.0
C1648 C 0.77635 0.93772 0.82507 0.0
C1649 C 0.77109 0.92928 0.79718 0.0
C1650 C 0.74392 0.93459 0.78539 0.0
C1651 C 0.72251 0.94875 0.80129 0.0
C1652 C 0.72791 0.9551 0.83012 0.0
H1653 H 0.20361 0.93648 0.33415 0.0
H1654 H 0.24395 0.86251 0.37341 0.0
H1655 H 0.26841 0.89403 0.40748 0.0
H1656 H 0.26285 0.99001 0.34905 0.0
H1657 H 0.23673 0.01749 0.35588 0.0
H1658 H 0.22936 0.99021 0.33011 0.0
H1659 H 0.18265 0.9778 0.35695 0.0
H1660 H 0.19011 0.00439 0.38313 0.0
H1661 H 0.18435 0.96779 0.39406 0.0
H1662 H 0.28113 0.9329 0.44257 0.0
H1663 H 0.28165 0.97488 0.47425 0.0
H1664 H 0.22931 0.0221 0.41381 0.0
C1665 C 0.21853 0.92703 0.34917 0.0
C1666 C 0.2223 0.8971 0.35081 0.0
C1667 C 0.24147 0.88542 0.37115 0.0
C1668 C 0.25524 0.90321 0.39078 0.0
C1669 C 0.24962 0.93256 0.38965 0.0
C1670 C 0.23199 0.94439 0.36902 0.0
C1671 C 0.22614 0.9757 0.37441 0.0
C1672 C 0.23958 0.99446 0.35097 0.0
C1673 C 0.19391 0.98173 0.37732 0.0
C1674 C 0.24155 0.97929 0.40235 0.0
C1675 C 0.25576 0.95451 0.41041 0.0
C1676 C 0.27045 0.9525 0.43618 0.0
C1677 C 0.27055 0.97638 0.45407 0.0
C1678 C 0.25538 0.00158 0.44645 0.0
C1679 C 0.24094 0.00302 0.42018 0.0
H1680 H 0.14298 0.47893 0.62821 0.0
H1681 H 0.09916 0.4275 0.69142 0.0
H1682 H 0.13319 0.44327 0.72798 0.0
H1683 H 0.20684 0.45977 0.64504 0.0
H1684 H 0.22563 0.49308 0.6404 0.0
H1685 H 0.193 0.48712 0.6214 0.0
H1686 H 0.17016 0.53266 0.64258 0.0
H1687 H 0.20331 0.53964 0.66078 0.0
H1688 H 0.17039 0.53763 0.68054 0.0
H1689 H 0.17819 0.45256 0.75319 0.0
H1690 H 0.22801 0.46053 0.76769 0.0
H1691 H 0.24382 0.50572 0.68809 0.0
C1692 C 0.13941 0.47276 0.65018 0.0
C1693 C 0.11827 0.45256 0.65728 0.0
C1694 C 0.115 0.44345 0.68585 0.0
C1695 C 0.1343 0.45222 0.7067 0.0
C1696 C 0.15656 0.47024 0.69858 0.0
C1697 C 0.15881 0.48111 0.67116 0.0
C1698 C 0.18712 0.49615 0.66678 0.0
C1699 C 0.20412 0.48323 0.64195 0.0
C1700 C 0.18247 0.52844 0.66242 0.0
C1701 C 0.20132 0.48985 0.69509 0.0
C1702 C 0.1831 0.47547 0.71334 0.0
C1703 C 0.19239 0.46458 0.73945 0.0
C1704 C 0.22088 0.46889 0.74732 0.0
C1705 C 0.23991 0.48377 0.72904 0.0
C1706 C 0.22979 0.49451 0.70268 0.0
H1707 H 0.68804 0.61144 0.59202 0.0
H1708 H 0.75611 0.61183 0.65421 0.0
H1709 H 0.78514 0.58017 0.6234 0.0
H1710 H 0.68976 0.54162 0.57834 0.0
H1711 H 0.68217 0.54425 0.54081 0.0
H1712 H 0.67037 0.57195 0.56414 0.0
H1713 H 0.6973 0.60986 0.53381 0.0
H1714 H 0.70909 0.58218 0.5101 0.0
H1715 H 0.73485 0.60517 0.52674 0.0
H1716 H 0.80266 0.54229 0.58914 0.0
H1717 H 0.80623 0.50127 0.55623 0.0
H1718 H 0.72514 0.5253 0.51847 0.0
C1719 C 0.70941 0.60542 0.59868 0.0
C1720 C 0.72028 0.61415 0.62499 0.0
C1721 C 0.748 0.60579 0.63358 0.0
C1722 C 0.76448 0.58783 0.61627 0.0
C1723 C 0.75278 0.57888 0.59052 0.0
C1724 C 0.72591 0.58771 0.58172 0.0
C1725 C 0.71642 0.57262 0.55519 0.0
C1726 C 0.68803 0.55666 0.55994 0.0
C1727 C 0.7143 0.59372 0.52997 0.0
C1728 C 0.7411 0.55227 0.55154 0.0
C1729 C 0.76239 0.55674 0.57142 0.0
C1730 C 0.78637 0.53898 0.57317 0.0
C1731 C 0.78822 0.51579 0.55451 0.0
C1732 C 0.76584 0.51036 0.53512 0.0
C1733 C 0.74246 0.52917 0.53321 0.0
H1734 H 0.86477 0.0759 0.6485 0.0
H1735 H 0.87063 0.99887 0.59825 0.0
H1736 H 0.8313 0.97757 0.62587 0.0
H1737 H 0.84192 0.04105 0.71695 0.0
H1738 H 0.81767 0.06991 0.72478 0.0
H1739 H 0.84994 0.0769 0.70505 0.0
H1740 H 0.8199 0.10003 0.66455 0.0
H1741 H 0.78756 0.09277 0.68389 0.0
H1742 H 0.79178 0.07967 0.64824 0.0
H1743 H 0.7878 0.96772 0.65289 0.0
H1744 H 0.74309 0.96823 0.67986 0.0
H1745 H 0.76371 0.05238 0.71233 0.0
C1746 C 0.85823 0.05426 0.64387 0.0
C1747 C 0.87108 0.03866 0.62178 0.0
C1748 C 0.86172 0.01067 0.61583 0.0
C1749 C 0.83927 0.99852 0.63124 0.0
C1750 C 0.8265 0.01477 0.65238 0.0
C1751 C 0.83572 0.04193 0.65893 0.0
C1752 C 0.81637 0.05592 0.68054 0.0
C1753 C 0.83244 0.06125 0.70849 0.0
C1754 C 0.80313 0.08373 0.66857 0.0
C1755 C 0.79417 0.03278 0.68418 0.0
C1756 C 0.80072 0.00916 0.66796 0.0
C1757 C 0.78262 0.98584 0.66607 0.0
C1758 C 0.75712 0.98653 0.68128 0.0
C1759 C 0.74988 0.01046 0.69815 0.0
C1760 C 0.76881 0.03377 0.6998 0.0
H1761 H 0.2544 0.8882 0.5999 0.0
H1762 H 0.26902 0.91866 0.68505 0.0
H1763 H 0.24744 0.96524 0.67196 0.0
H1764 H 0.27606 0.94533 0.56594 0.0
H1765 H 0.25053 0.94603 0.53723 0.0
H1766 H 0.25859 0.91292 0.55507 0.0
H1767 H 0.20513 0.90557 0.56703 0.0
H1768 H 0.19671 0.93862 0.54869 0.0
H1769 H 0.18565 0.93328 0.58507 0.0
H1770 H 0.23908 0.01132 0.64625 0.0
H1771 H 0.23904 0.0513 0.61121 0.0
H1772 H 0.2257 0.99126 0.54326 0.0
C1773 C 0.25119 0.90411 0.61616 0.0
C1774 C 0.26238 0.89973 0.64368 0.0
C1775 C 0.25959 0.92143 0.66415 0.0
C1776 C 0.2475 0.94799 0.65681 0.0
C1777 C 0.23804 0.95236 0.62896 0.0
C1778 C 0.23897 0.93069 0.60911 0.0
C1779 C 0.23136 0.94193 0.5797 0.0
C1780 C 0.25558 0.93622 0.55827 0.0
C1781 C 0.20302 0.92909 0.56953 0.0
C1782 C 0.22816 0.97356 0.58568 0.0
C1783 C 0.23175 0.97919 0.61428 0.0
C1784 C 0.23485 0.00716 0.62405 0.0
C1785 C 0.23481 0.02977 0.60409 0.0
C1786 C 0.23114 0.02426 0.57486 0.0
C1787 C 0.22698 0.99596 0.56574 0.0
H1788 H 0.83741 0.13774 0.5683 0.0
H1789 H 0.91445 0.14712 0.51802 0.0
H1790 H 0.90524 0.19901 0.51327 0.0
H1791 H 0.79546 0.18666 0.52542 0.0
H1792 H 0.77539 0.1999 0.55523 0.0
H1793 H 0.78963 0.16414 0.55622 0.0
H1794 H 0.81541 0.17599 0.60349 0.0
H1795 H 0.80205 0.21218 0.60195 0.0
H1796 H 0.83993 0.2056 0.60454 0.0
H1797 H 0.88871 0.24949 0.515 0.0
H1798 H 0.85919 0.29273 0.51015 0.0
H1799 H 0.79035 0.25076 0.55574 0.0
C1800 C 0.85205 0.15076 0.55596 0.0
C1801 C 0.87653 0.13855 0.54335 0.0
C1802 C 0.89534 0.15607 0.52743 0.0
C1803 C 0.89057 0.1856 0.52511 0.0
C1804 C 0.86668 0.19716 0.53849 0.0
C1805 C 0.84717 0.1802 0.55274 0.0
C1806 C 0.82164 0.19762 0.56243 0.0
C1807 C 0.7939 0.18643 0.54901 0.0
C1808 C 0.81965 0.19785 0.59505 0.0
C1809 C 0.82955 0.22694 0.55078 0.0
C1810 C 0.85617 0.22628 0.53806 0.0
C1811 C 0.86783 0.25026 0.52482 0.0
C1812 C 0.85097 0.2749 0.52245 0.0
C1813 C 0.82245 0.27519 0.53254 0.0
C1814 C 0.81224 0.25144 0.54835 0.0
H1815 H 0.82829 0.85909 0.95263 0.0
H1816 H 0.91851 0.84052 0.96397 0.0
H1817 H 0.90854 0.78897 0.96011 0.0
H1818 H 0.80106 0.79967 0.99149 0.0
H1819 H 0.7716 0.79383 0.9676 0.0
H1820 H 0.78632 0.82907 0.97112 0.0
H1821 H 0.79458 0.83117 0.91657 0.0
H1822 H 0.78047 0.79555 0.91309 0.0
H1823 H 0.81568 0.80377 0.89989 0.0
H1824 H 0.88833 0.73917 0.95812 0.0
H1825 H 0.85888 0.69549 0.96124 0.0
H1826 H 0.78271 0.74624 0.94637 0.0
C1827 C 0.84604 0.84427 0.95392 0.0
C1828 C 0.87428 0.85409 0.95814 0.0
C1829 C 0.89669 0.83372 0.96061 0.0
C1830 C 0.89128 0.80433 0.95823 0.0
C1831 C 0.86336 0.79549 0.95312 0.0
C1832 C 0.84109 0.81486 0.9511 0.0
C1833 C 0.81291 0.79974 0.94631 0.0
C1834 C 0.79175 0.80593 0.97057 0.0
C1835 C 0.80016 0.80805 0.91723 0.0
C1836 C 0.82271 0.76877 0.94676 0.0
C1837 C 0.85194 0.76678 0.95053 0.0
C1838 C 0.86553 0.74043 0.95447 0.0
C1839 C 0.8487 0.71562 0.9559 0.0
C1840 C 0.81866 0.71725 0.95292 0.0
C1841 C 0.80575 0.74412 0.94726 0.0
H1842 H 0.06963 0.83966 0.2925 0.0
H1843 H 0.12635 0.87241 0.22743 0.0
H1844 H 0.08493 0.89291 0.20166 0.0
H1845 H 0.00203 0.83115 0.24652 0.0
H1846 H 0.98062 0.84362 0.27574 0.0
H1847 H 0.01244 0.82285 0.2826 0.0
H1848 H 0.03102 0.86321 0.31512 0.0
H1849 H -0.00031 0.88407 0.30787 0.0
H1850 H 0.03448 0.89895 0.30076 0.0
H1851 H 0.03951 0.91903 0.18956 0.0
H1852 H 0.99726 0.95021 0.1938 0.0
H1853 H 0.97171 0.90419 0.27007 0.0
C1854 C 0.07324 0.85011 0.27216 0.0
C1855 C 0.10124 0.85439 0.26185 0.0
C1856 C 0.10518 0.86843 0.23544 0.0
C1857 C 0.08163 0.88018 0.22072 0.0
C1858 C 0.0544 0.8774 0.2327 0.0
C1859 C 0.05016 0.86239 0.25781 0.0
C1860 C 0.02048 0.86718 0.26965 0.0
C1861 C 0.00285 0.83956 0.26854 0.0
C1862 C 0.02152 0.87908 0.30011 0.0
C1863 C 0.00935 0.88912 0.2486 0.0
C1864 C 0.02861 0.89376 0.2267 0.0
C1865 C 0.02407 0.91508 0.20625 0.0
C1866 C -5e-05 0.93273 0.20887 0.0
C1867 C 0.98116 0.92957 0.23233 0.0
C1868 C 0.98546 0.90683 0.25176 0.0
H1869 H 0.1238 0.63472 0.97216 0.0
H1870 H 0.19294 0.58382 0.93823 0.0
H1871 H 0.22753 0.62046 0.95281 0.0
H1872 H 0.14444 0.69544 0.94451 0.0
H1873 H 0.13525 0.71923 0.97299 0.0
H1874 H 0.11674 0.6859 0.96946 0.0
H1875 H 0.1306 0.6707 0.02074 0.0
H1876 H 0.14827 0.7046 0.02501 0.0
H1877 H 0.16751 0.67174 0.03159 0.0
H1878 H 0.25211 0.66671 0.95862 0.0
H1879 H 0.26646 0.71723 0.96195 0.0
H1880 H 0.18131 0.73925 0.99115 0.0
C1881 C 0.14641 0.6305 0.96963 0.0
C1882 C 0.15588 0.60636 0.95457 0.0
C1883 C 0.18545 0.60201 0.95024 0.0
C1884 C 0.20521 0.62281 0.9583 0.0
C1885 C 0.19499 0.64769 0.97079 0.0
C1886 C 0.16634 0.65137 0.97716 0.0
C1887 C 0.16031 0.68173 0.98646 0.0
C1888 C 0.13788 0.69641 0.9672 0.0
C1889 C 0.15114 0.68222 0.01782 0.0
C1890 C 0.18954 0.69492 0.98247 0.0
C1891 C 0.20933 0.67484 0.97388 0.0
C1892 C 0.23702 0.68249 0.96611 0.0
C1893 C 0.24485 0.71133 0.96767 0.0
C1894 C 0.22501 0.73223 0.97679 0.0
C1895 C 0.19706 0.72375 0.98438 0.0
H1896 H 0.38449 0.12354 0.76419 0.0
H1897 H 0.42223 0.18887 0.81655 0.0
H1898 H 0.46973 0.17723 0.79761 0.0
H1899 H 0.43072 0.07366 0.77498 0.0
H1900 H 0.43349 0.05871 0.73991 0.0
H1901 H 0.40186 0.0778 0.74981 0.0
H1902 H 0.40806 0.11179 0.70682 0.0
H1903 H 0.43999 0.09301 0.69644 0.0
H1904 H 0.44097 0.13109 0.70194 0.0
H1905 H 0.51089 0.14806 0.78877 0.0
H1906 H 0.54342 0.10736 0.78446 0.0
H1907 H 0.48364 0.06468 0.72968 0.0
C1908 C 0.40259 0.13657 0.77002 0.0
C1909 C 0.39987 0.15745 0.79123 0.0
C1910 C 0.42405 0.173 0.80002 0.0
C1911 C 0.45106 0.16666 0.78922 0.0
C1912 C 0.45347 0.14495 0.76933 0.0
C1913 C 0.42983 0.13061 0.75906 0.0
C1914 C 0.43888 0.10533 0.74115 0.0
C1915 C 0.42546 0.07725 0.75216 0.0
C1916 C 0.43156 0.11065 0.70971 0.0
C1917 C 0.47094 0.10584 0.74575 0.0
C1918 C 0.47889 0.12925 0.76166 0.0
C1919 C 0.50562 0.13083 0.77454 0.0
C1920 C 0.52436 0.10777 0.77167 0.0
C1921 C 0.51715 0.08412 0.7548 0.0
C1922 C 0.4904 0.08355 0.74098 0.0
H1923 H 0.69267 0.87703 0.07134 0.0
H1924 H 0.62935 0.88451 0.00438 0.0
H1925 H 0.65517 0.84872 0.97669 0.0
H1926 H 0.75653 0.85189 0.02321 0.0
H1927 H 0.76768 0.8276 0.0511 0.0
H1928 H 0.75225 0.86176 0.05992 0.0
H1929 H 0.71483 0.83564 0.09121 0.0
H1930 H 0.7293 0.80152 0.08183 0.0
H1931 H 0.69207 0.80913 0.07536 0.0
H1932 H 0.67707 0.8035 0.9639 0.0
H1933 H 0.69596 0.75467 0.96452 0.0
H1934 H 0.74393 0.77287 0.0413 0.0
C1935 C 0.68515 0.87224 0.05015 0.0
C1936 C 0.65918 0.88385 0.03986 0.0
C1937 C 0.64957 0.87663 0.01238 0.0
C1938 C 0.6641 0.85606 0.99653 0.0
C1939 C 0.68816 0.84299 0.00848 0.0
C1940 C 0.69908 0.85122 0.03446 0.0
C1941 C 0.72137 0.83012 0.0453 0.0
C1942 C 0.75123 0.84365 0.04485 0.0
C1943 C 0.7139 0.81842 0.07516 0.0
C1944 C 0.71892 0.80725 0.02299 0.0
C1945 C 0.70052 0.81566 0.00141 0.0
C1946 C 0.69218 0.79702 0.98019 0.0
C1947 C 0.70278 0.7691 0.98102 0.0
C1948 C 0.72134 0.7598 0.00316 0.0
C1949 C 0.7299 0.77938 0.02408 0.0
H1950 H 0.11854 0.11112 0.18993 0.0
H1951 H 0.13283 0.15337 0.27026 0.0
H1952 H 0.09075 0.12785 0.29057 0.0
H1953 H 0.04478 0.11923 0.18934 0.0
H1954 H 0.03802 0.08556 0.17236 0.0
H1955 H 0.07117 0.1039 0.16611 0.0
H1956 H 0.09956 0.05908 0.18283 0.0
H1957 H 0.06649 0.0404 0.18879 0.0
H1958 H 0.09214 0.04339 0.2172 0.0
H1959 H 0.04432 0.09878 0.30023 0.0
H1960 H -0.00014 0.07013 0.29854 0.0
H1961 H 0.01576 0.05178 0.20978 0.0
C1962 C 0.11307 0.11507 0.21187 0.0
C1963 C 0.12879 0.13449 0.22843 0.0
C1964 C 0.12112 0.13847 0.25722 0.0
C1965 C 0.09719 0.12417 0.26881 0.0
C1966 C 0.08136 0.10612 0.25123 0.0
C1967 C 0.08927 0.10156 0.22338 0.0
C1968 C 0.06823 0.08285 0.20793 0.0
C1969 C 0.05476 0.09885 0.18244 0.0
C1970 C 0.08246 0.05477 0.19865 0.0
C1971 C 0.04671 0.07772 0.23123 0.0
C1972 C 0.05469 0.09085 0.25625 0.0
C1973 C 0.03799 0.08852 0.28071 0.0
C1974 C 0.01275 0.07226 0.27953 0.0
C1975 C 0.00418 0.05902 0.25391 0.0
C1976 C 0.02144 0.06201 0.22954 0.0
H1977 H 0.87035 0.38971 0.21165 0.0
H1978 H 0.91919 0.3223 0.17184 0.0
H1979 H 0.96378 0.343 0.19019 0.0
H1980 H 0.91536 0.44403 0.19328 0.0
H1981 H 0.91253 0.4645 0.22541 0.0
H1982 H 0.88376 0.44145 0.21503 0.0
H1983 H 0.88637 0.41487 0.26346 0.0
H1984 H 0.91499 0.43808 0.27431 0.0
H1985 H 0.91985 0.39982 0.27533 0.0
H1986 H 0.0025 0.37467 0.20382 0.0
H1987 H 0.03434 0.41468 0.21532 0.0
H1988 H 0.96246 0.46286 0.24782 0.0
C1989 C 0.89042 0.37877 0.20798 0.0
C1990 C 0.89153 0.35414 0.19087 0.0
C1991 C 0.91806 0.34091 0.18532 0.0
C1992 C 0.94345 0.35253 0.19565 0.0
C1993 C 0.94194 0.37748 0.21145 0.0
C1994 C 0.91618 0.39039 0.21798 0.0
C1995 C 0.92109 0.41887 0.23253 0.0
C1996 C 0.90737 0.44366 0.21554 0.0
C1997 C 0.90992 0.41784 0.26324 0.0
C1998 C 0.95353 0.4205 0.2318 0.0
C1999 C 0.96495 0.39612 0.21982 0.0
C2000 C 0.99396 0.39351 0.21396 0.0
C2001 C 0.01186 0.41638 0.22041 0.0
C2002 C 0.00089 0.44148 0.23283 0.0
C2003 C 0.97139 0.44351 0.23899 0.0
H2004 H 0.20488 0.23553 0.82145 0.0
H2005 H 0.22448 0.14806 0.84647 0.0
H2006 H 0.17448 0.14134 0.86175 0.0
H2007 H 0.15712 0.24998 0.87934 0.0
H2008 H 0.1336 0.272 0.85802 0.0
H2009 H 0.17094 0.26961 0.84919 0.0
H2010 H 0.15754 0.25372 0.79827 0.0
H2011 H 0.12016 0.25575 0.80705 0.0
H2012 H 0.13497 0.22296 0.7936 0.0
H2013 H 0.12249 0.14494 0.87566 0.0
H2014 H 0.07279 0.15858 0.88739 0.0
H2015 H 0.08695 0.24292 0.85099 0.0
C2016 C 0.19874 0.2149 0.8301 0.0
C2017 C 0.21871 0.19226 0.83278 0.0
C2018 C 0.2097 0.16572 0.84435 0.0
C2019 C 0.18127 0.16169 0.85296 0.0
C2020 C 0.16214 0.18442 0.84978 0.0
C2021 C 0.17053 0.21053 0.83868 0.0
C2022 C 0.14602 0.23174 0.83799 0.0
C2023 C 0.1523 0.25734 0.85728 0.0
C2024 C 0.13928 0.24161 0.8074 0.0
C2025 C 0.12235 0.21337 0.85008 0.0
C2026 C 0.13212 0.18623 0.85701 0.0
C2027 C 0.11454 0.16602 0.87008 0.0
C2028 C 0.08641 0.17393 0.87664 0.0
C2029 C 0.07606 0.20164 0.86974 0.0
C2030 C 0.09416 0.22139 0.85589 0.0
H2031 H 0.47404 0.52591 0.37549 0.0
H2032 H 0.40228 0.53455 0.43272 0.0
H2033 H 0.40252 0.58707 0.42473 0.0
H2034 H 0.51164 0.5822 0.39762 0.0
H2035 H 0.52483 0.59411 0.36351 0.0
H2036 H 0.51555 0.55721 0.36894 0.0
H2037 H 0.48011 0.55935 0.32663 0.0
H2038 H 0.48998 0.5961 0.32035 0.0
H2039 H 0.453 0.5868 0.32549 0.0
H2040 H 0.41753 0.63915 0.41778 0.0
H2041 H 0.44016 0.68559 0.40569 0.0
H2042 H 0.50085 0.64165 0.35175 0.0
C2043 C 0.45751 0.53879 0.38519 0.0
C2044 C 0.43788 0.52639 0.40434 0.0
C2045 C 0.41701 0.54374 0.41742 0.0
C2046 C 0.41723 0.57357 0.41323 0.0
C2047 C 0.43807 0.58539 0.39544 0.0
C2048 C 0.45721 0.56836 0.38089 0.0
C2049 C 0.47871 0.5861 0.36453 0.0
C2050 C 0.50948 0.5795 0.37425 0.0
C2051 C 0.47523 0.58184 0.33234 0.0
C2052 C 0.46958 0.61576 0.37313 0.0
C2053 C 0.44613 0.61508 0.39095 0.0
C2054 C 0.43544 0.63994 0.40328 0.0
C2055 C 0.44861 0.66616 0.39656 0.0
C2056 C 0.4721 0.66723 0.3776 0.0
C2057 C 0.48267 0.6416 0.36598 0.0
H2058 H 0.76738 0.26169 0.82827 0.0
H2059 H 0.76716 0.35098 0.80238 0.0
H2060 H 0.81403 0.3575 0.82513 0.0
H2061 H 0.80692 0.26966 0.89612 0.0
H2062 H 0.82754 0.23751 0.8911 0.0
H2063 H 0.79192 0.24027 0.87669 0.0
H2064 H 0.81093 0.22901 0.82623 0.0
H2065 H 0.84629 0.22535 0.84075 0.0
H2066 H 0.83977 0.25005 0.81174 0.0
H2067 H 0.86181 0.35403 0.84678 0.0
H2068 H 0.9112 0.3387 0.85706 0.0
H2069 H 0.88261 0.25136 0.86805 0.0
C2070 C 0.77716 0.28264 0.82764 0.0
C2071 C 0.76319 0.30612 0.81442 0.0
C2072 C 0.77702 0.33296 0.81326 0.0
C2073 C 0.8036 0.3369 0.82624 0.0
C2074 C 0.81642 0.31363 0.83993 0.0
C2075 C 0.80402 0.28685 0.8402 0.0
C2076 C 0.82411 0.2647 0.85309 0.0
C2077 C 0.81188 0.25231 0.8809 0.0
C2078 C 0.83067 0.24089 0.83167 0.0
C2079 C 0.85016 0.28303 0.85884 0.0
C2080 C 0.84481 0.31138 0.85194 0.0
C2081 C 0.86616 0.33203 0.85275 0.0
C2082 C 0.8941 0.32322 0.85888 0.0
C2083 C 0.90043 0.29405 0.86401 0.0
C2084 C 0.87802 0.27394 0.86537 0.0
H2085 H 0.59451 0.97207 0.41269 0.0
H2086 H 0.5608 0.0049 0.33343 0.0
H2087 H 0.55198 0.95571 0.31728 0.0
H2088 H 0.6184 0.89597 0.38684 0.0
H2089 H 0.60514 0.88108 0.41976 0.0
H2090 H 0.62123 0.91606 0.41921 0.0
H2091 H 0.5757 0.93632 0.44274 0.0
H2092 H 0.55882 0.90205 0.44224 0.0
H2093 H 0.5417 0.93225 0.42518 0.0
H2094 H 0.53343 0.90514 0.31591 0.0
H2095 H 0.5095 0.85945 0.32888 0.0
H2096 H 0.54949 0.86169 0.41185 0.0
C2097 C 0.58769 0.96862 0.39098 0.0
C2098 C 0.57914 0.99209 0.37396 0.0
C2099 C 0.56845 0.98713 0.34633 0.0
C2100 C 0.56296 0.95915 0.33721 0.0
C2101 C 0.56819 0.93645 0.35606 0.0
C2102 C 0.58088 0.94091 0.38231 0.0
C2103 C 0.57807 0.91477 0.40143 0.0
C2104 C 0.60746 0.90116 0.40713 0.0
C2105 C 0.56264 0.9218 0.4295 0.0
C2106 C 0.56001 0.89586 0.38281 0.0
C2107 C 0.55542 0.90806 0.3563 0.0
C2108 C 0.53742 0.89519 0.33642 0.0
C2109 C 0.52375 0.86939 0.34395 0.0
C2110 C 0.5274 0.85744 0.37146 0.0
C2111 C 0.54614 0.87063 0.39076 0.0
H2112 H 0.19335 0.79023 0.6987 0.0
H2113 H 0.22248 0.85109 0.63476 0.0
H2114 H 0.17297 0.85544 0.61662 0.0
H2115 H 0.14957 0.75264 0.65447 0.0
H2116 H 0.12259 0.74514 0.68081 0.0
H2117 H 0.1589 0.75084 0.69165 0.0
H2118 H 0.14237 0.79142 0.72507 0.0
H2119 H 0.10589 0.78573 0.71428 0.0
H2120 H 0.12157 0.82076 0.71083 0.0
H2121 H 0.12181 0.84852 0.60239 0.0
H2122 H 0.07403 0.82991 0.59149 0.0
H2123 H 0.07953 0.77217 0.66428 0.0
C2124 C 0.18939 0.80499 0.68122 0.0
C2125 C 0.21177 0.82056 0.66824 0.0
C2126 C 0.20561 0.8393 0.64523 0.0
C2127 C 0.17757 0.84189 0.63486 0.0
C2128 C 0.15616 0.82566 0.64789 0.0
C2129 C 0.16183 0.80759 0.67061 0.0
C2130 C 0.13605 0.79003 0.67897 0.0
C2131 C 0.14216 0.75777 0.67629 0.0
C2132 C 0.12587 0.79745 0.70907 0.0
C2133 C 0.11506 0.8003 0.65677 0.0
C2134 C 0.12687 0.82121 0.63938 0.0
C2135 C 0.11223 0.83248 0.6161 0.0
C2136 C 0.08512 0.82164 0.61007 0.0
C2137 C 0.07307 0.79949 0.62707 0.0
C2138 C 0.08801 0.78927 0.65111 0.0
H2139 H 0.01457 0.51014 0.61626 0.0
H2140 H 0.10666 0.51464 0.61032 0.0
H2141 H 0.10509 0.56441 0.62787 0.0
H2142 H 0.00097 0.5714 0.58574 0.0
H2143 H 0.97054 0.58181 0.60675 0.0
H2144 H 0.97942 0.54474 0.60346 0.0
H2145 H 0.98243 0.53937 0.6583 0.0
H2146 H 0.97318 0.57664 0.66181 0.0
H2147 H 0.00526 0.56281 0.6782 0.0
H2148 H 0.09223 0.61657 0.63478 0.0
H2149 H 0.06997 0.66446 0.62885 0.0
H2150 H 0.98633 0.62567 0.62729 0.0
C2151 C 0.0345 0.52122 0.61987 0.0
C2152 C 0.06074 0.50861 0.61219 0.0
C2153 C 0.0864 0.52375 0.61668 0.0
C2154 C 0.08562 0.55208 0.62656 0.0
C2155 C 0.05905 0.56461 0.63221 0.0
C2156 C 0.03396 0.54934 0.62941 0.0
C2157 C 0.00794 0.56842 0.63189 0.0
C2158 C 0.98864 0.56648 0.60538 0.0
C2159 C 0.99122 0.56139 0.65918 0.0
C2160 C 0.02214 0.59725 0.63392 0.0
C2161 C 0.05161 0.59467 0.63533 0.0
C2162 C 0.06921 0.61872 0.63448 0.0
C2163 C 0.05645 0.64583 0.63116 0.0
C2164 C 0.02652 0.64843 0.62805 0.0
C2165 C 0.00922 0.62402 0.63029 0.0
H2166 H 0.78604 0.65335 0.66534 0.0
H2167 H 0.76232 0.71023 0.59637 0.0
H2168 H 0.80962 0.70339 0.57447 0.0
H2169 H 0.8442 0.68046 0.67983 0.0
H2170 H 0.86616 0.64966 0.68785 0.0
H2171 H 0.82825 0.64703 0.69078 0.0
H2172 H 0.82767 0.60479 0.65586 0.0
H2173 H 0.86605 0.60682 0.65302 0.0
H2174 H 0.84423 0.60847 0.62145 0.0
H2175 H 0.86047 0.70638 0.57104 0.0
H2176 H 0.90915 0.71786 0.58525 0.0
H2177 H 0.90364 0.65785 0.65562 0.0
C2178 C 0.79038 0.66252 0.64456 0.0
C2179 C 0.77071 0.68152 0.63191 0.0
C2180 C 0.77713 0.69499 0.60578 0.0
C2181 C 0.8039 0.69107 0.59322 0.0
C2182 C 0.82394 0.67382 0.60728 0.0
C2183 C 0.81729 0.65914 0.63217 0.0
C2184 C 0.84397 0.64768 0.64667 0.0
C2185 C 0.84572 0.65681 0.67808 0.0
C2186 C 0.84558 0.615 0.64408 0.0
C2187 C 0.86667 0.66192 0.62858 0.0
C2188 C 0.85471 0.67554 0.60509 0.0
C2189 C 0.87035 0.69463 0.58841 0.0
C2190 C 0.89828 0.70097 0.59655 0.0
C2191 C 0.91061 0.68817 0.62102 0.0
C2192 C 0.89497 0.66745 0.63642 0.0
H2193 H 0.94339 0.94503 0.53697 0.0
H2194 H 0.91881 0.98604 0.61554 0.0
H2195 H 0.91624 0.93886 0.63928 0.0
H2196 H 0.9032 0.87553 0.54829 0.0
H2197 H 0.93214 0.85519 0.53326 0.0
H2198 H 0.92491 0.89101 0.52052 0.0
H2199 H 0.97721 0.90519 0.53135 0.0
H2200 H 0.98456 0.86964 0.54422 0.0
H2201 H 0.99115 0.89984 0.56677 0.0
H2202 H 0.92526 0.88988 0.65649 0.0
H2203 H 0.94584 0.84243 0.66665 0.0
H2204 H 0.96621 0.83231 0.57738 0.0
C2205 C 0.93653 0.94397 0.55894 0.0
C2206 C 0.93052 0.96912 0.57428 0.0
C2207 C 0.92241 0.96701 0.60315 0.0
C2208 C 0.92105 0.94028 0.61681 0.0
C2209 C 0.9279 0.91596 0.60127 0.0
C2210 C 0.93536 0.91752 0.5729 0.0
C2211 C 0.94583 0.88888 0.56213 0.0
C2212 C 0.92529 0.87695 0.53972 0.0
C2213 C 0.9765 0.89104 0.55046 0.0
C2214 C 0.94475 0.87137 0.58934 0.0
C2215 C 0.93367 0.88728 0.61144 0.0
C2216 C 0.93334 0.87701 0.63928 0.0
C2217 C 0.94527 0.85013 0.64484 0.0
C2218 C 0.95747 0.83382 0.62271 0.0
C2219 C 0.95643 0.84416 0.59448 0.0
H2220 H 0.85572 0.21714 0.1661 0.0
H2221 H 0.76431 0.20382 0.16826 0.0
H2222 H 0.77182 0.15181 0.17219 0.0
H2223 H 0.8738 0.14573 0.12821 0.0
H2224 H 0.90583 0.14173 0.1492 0.0
H2225 H 0.89341 0.1769 0.13896 0.0
H2226 H 0.89362 0.19157 0.19177 0.0
H2227 H 0.90519 0.1564 0.20245 0.0
H2228 H 0.87292 0.17124 0.21717 0.0
H2229 H 0.78852 0.10451 0.18918 0.0
H2230 H 0.81368 0.06256 0.20883 0.0
H2231 H 0.89493 0.1043 0.19335 0.0
C2232 C 0.83743 0.20303 0.16553 0.0
C2233 C 0.80945 0.21428 0.1663 0.0
C2234 C 0.78588 0.19543 0.16703 0.0
C2235 C 0.78995 0.16587 0.16946 0.0
C2236 C 0.81778 0.15542 0.17078 0.0
C2237 C 0.84121 0.17324 0.16789 0.0
C2238 C 0.86873 0.15674 0.17316 0.0
C2239 C 0.88649 0.15517 0.14575 0.0
C2240 C 0.88611 0.16977 0.19759 0.0
C2241 C 0.85696 0.12759 0.18139 0.0
C2242 C 0.82753 0.12728 0.17966 0.0
C2243 C 0.81163 0.10405 0.18952 0.0
C2244 C 0.82616 0.08027 0.20088 0.0
C2245 C 0.85637 0.07963 0.20204 0.0
C2246 C 0.87184 0.10373 0.19206 0.0
H2247 H 0.4841 0.92034 0.00895 0.0
H2248 H 0.48375 0.88758 0.09548 0.0
H2249 H 0.43465 0.86866 0.08781 0.0
H2250 H 0.41642 0.94655 0.00805 0.0
H2251 H 0.40913 0.93778 0.97154 0.0
H2252 H 0.44523 0.9438 0.98279 0.0
H2253 H 0.45992 0.89385 0.96425 0.0
H2254 H 0.42371 0.88763 0.9529 0.0
H2255 H 0.4411 0.86254 0.97661 0.0
H2256 H 0.38236 0.85896 0.07112 0.0
H2257 H 0.33425 0.86151 0.04885 0.0
H2258 H 0.37106 0.90186 0.97419 0.0
C2259 C 0.474 0.90872 0.02624 0.0
C2260 C 0.48766 0.90555 0.05287 0.0
C2261 C 0.47372 0.8901 0.07485 0.0
C2262 C 0.44585 0.87932 0.07061 0.0
C2263 C 0.43263 0.88376 0.04416 0.0
C2264 C 0.44661 0.89791 0.02233 0.0
C2265 C 0.4276 0.90249 0.99671 0.0
C2266 C 0.42441 0.93454 0.98938 0.0
C2267 C 0.43875 0.88562 0.97111 0.0
C2268 C 0.40006 0.89001 0.00778 0.0
C2269 C 0.40327 0.87863 0.0349 0.0
C2270 C 0.37988 0.86748 0.04977 0.0
C2271 C 0.35264 0.86889 0.03693 0.0
C2272 C 0.34901 0.8819 0.0098 0.0
C2273 C 0.37323 0.89171 0.9949 0.0
H2274 H 0.20468 0.30845 0.16434 0.0
H2275 H 0.12531 0.26384 0.18138 0.0
H2276 H 0.10123 0.31013 0.18912 0.0
H2277 H 0.20036 0.3557 0.21707 0.0
H2278 H 0.21454 0.38649 0.19858 0.0
H2279 H 0.22446 0.35114 0.18756 0.0
H2280 H 0.20658 0.36163 0.13639 0.0
H2281 H 0.19754 0.39751 0.14688 0.0
H2282 H 0.17084 0.37508 0.13094 0.0
H2283 H 0.08862 0.35908 0.20413 0.0
H2284 H 0.08538 0.40953 0.21803 0.0
H2285 H 0.17311 0.42329 0.19202 0.0
C2286 C 0.18194 0.30852 0.16855 0.0
C2287 C 0.16675 0.28262 0.17215 0.0
C2288 C 0.13717 0.28342 0.17802 0.0
C2289 C 0.12342 0.30962 0.18272 0.0
C2290 C 0.13956 0.33463 0.18103 0.0
C2291 C 0.16797 0.33443 0.1733 0.0
C2292 C 0.18103 0.36403 0.17526 0.0
C2293 C 0.2066 0.36433 0.19585 0.0
C2294 C 0.18949 0.37523 0.1456 0.0
C2295 C 0.15597 0.38062 0.187 0.0
C2296 C 0.13222 0.36321 0.18979 0.0
C2297 C 0.10683 0.37303 0.2014 0.0
C2298 C 0.10529 0.40162 0.2094 0.0
C2299 C 0.12895 0.42014 0.20593 0.0
C2300 C 0.15483 0.40946 0.19501 0.0
H2301 H 0.53914 0.54683 0.03972 0.0
H2302 H 0.50065 0.6296 0.05523 0.0
H2303 H 0.54745 0.65279 0.04641 0.0
H2304 H 0.61003 0.56413 0.07291 0.0
H2305 H 0.62904 0.54289 0.04734 0.0
H2306 H 0.59343 0.53296 0.05802 0.0
H2307 H 0.57768 0.53374 0.0052 0.0
H2308 H 0.61302 0.54416 0.9944 0.0
H2309 H 0.5827 0.56581 0.98418 0.0
H2310 H 0.59612 0.66695 0.02811 0.0
H2311 H 0.64506 0.67117 0.00922 0.0
H2312 H 0.65319 0.57873 0.00923 0.0
C2313 C 0.54079 0.56979 0.04201 0.0
C2314 C 0.51638 0.58654 0.0481 0.0
C2315 C 0.51919 0.61646 0.05084 0.0
C2316 C 0.54563 0.62975 0.04572 0.0
C2317 C 0.56907 0.61267 0.03865 0.0
C2318 C 0.56709 0.58325 0.03765 0.0
C2319 C 0.59525 0.56978 0.02892 0.0
C2320 C 0.60767 0.55135 0.05325 0.0
C2321 C 0.59194 0.55236 0.00155 0.0
C2322 C 0.61309 0.59629 0.02382 0.0
C2323 C 0.59756 0.6208 0.02951 0.0
C2324 C 0.60866 0.64791 0.02422 0.0
C2325 C 0.63641 0.65005 0.01321 0.0
C2326 C 0.65299 0.62526 0.00786 0.0
C2327 C 0.64116 0.59804 0.01345 0.0
H2328 H 0.84239 0.78771 0.34719 0.0
H2329 H 0.89038 0.75211 0.27757 0.0
H2330 H 0.91691 0.79731 0.27215 0.0
H2331 H 0.82819 0.84856 0.31918 0.0
H2332 H 0.83197 0.87134 0.34962 0.0
H2333 H 0.82439 0.83419 0.35473 0.0
H2334 H 0.86926 0.82837 0.38649 0.0
H2335 H 0.87692 0.8659 0.38169 0.0
H2336 H 0.90362 0.8395 0.37322 0.0
H2337 H 0.92624 0.84884 0.26435 0.0
H2338 H 0.91798 0.90042 0.25625 0.0
H2339 H 0.86747 0.90348 0.33327 0.0
C2340 C 0.86 0.78886 0.33235 0.0
C2341 C 0.86512 0.76627 0.31347 0.0
C2342 C 0.88681 0.76903 0.29274 0.0
C2343 C 0.902 0.79465 0.28953 0.0
C2344 C 0.89546 0.81729 0.30746 0.0
C2345 C 0.87544 0.81439 0.32903 0.0
C2346 C 0.86876 0.84308 0.34216 0.0
C2347 C 0.83645 0.84965 0.34131 0.0
C2348 C 0.88034 0.84428 0.3727 0.0
C2349 C 0.88551 0.86279 0.32255 0.0
C2350 C 0.90159 0.84754 0.30326 0.0
C2351 C 0.9147 0.86107 0.28003 0.0
C2352 C 0.91001 0.89051 0.27558 0.0
C2353 C 0.89221 0.90602 0.29419 0.0
C2354 C 0.88148 0.89222 0.31887 0.0
H2355 H 0.04649 0.94942 0.91847 0.0
H2356 H 0.00588 0.86682 0.90888 0.0
H2357 H 0.05276 0.84321 0.91591 0.0
H2358 H 0.11848 0.9301 0.88731 0.0
H2359 H 0.1367 0.95152 0.91325 0.0
H2360 H 0.10168 0.96191 0.90083 0.0
H2361 H 0.08383 0.96265 0.95288 0.0
H2362 H 0.11848 0.95171 0.96545 0.0
H2363 H 0.08744 0.93092 0.97474 0.0
H2364 H 0.10128 0.82863 0.93342 0.0
H2365 H 0.14844 0.82373 0.95603 0.0
H2366 H 0.15817 0.91596 0.95514 0.0
C2367 C 0.04754 0.92638 0.91664 0.0
C2368 C 0.02235 0.90998 0.91292 0.0
C2369 C 0.02477 0.87989 0.91123 0.0
C2370 C 0.05136 0.86631 0.91541 0.0
C2371 C 0.07536 0.88312 0.92094 0.0
C2372 C 0.07379 0.91257 0.92102 0.0
C2373 C 0.10183 0.92568 0.93069 0.0
C2374 C 0.11548 0.94335 0.90658 0.0
C2375 C 0.09762 0.9438 0.95753 0.0
C2376 C 0.11917 0.89897 0.93718 0.0
C2377 C 0.10353 0.87468 0.93112 0.0
C2378 C 0.11387 0.84748 0.93764 0.0
C2379 C 0.14067 0.84498 0.95074 0.0
C2380 C 0.15714 0.86948 0.9573 0.0
C2381 C 0.14636 0.89685 0.94995 0.0
H2382 H 0.1689 0.71144 0.34216 0.0
H2383 H 0.11306 0.74518 0.27673 0.0
H2384 H 0.08669 0.6995 0.27598 0.0
H2385 H 0.1816 0.65059 0.31494 0.0
H2386 H 0.18158 0.62821 0.34641 0.0
H2387 H 0.18873 0.66557 0.34941 0.0
H2388 H 0.14726 0.67072 0.38543 0.0
H2389 H 0.13994 0.633 0.38259 0.0
H2390 H 0.11196 0.65881 0.37605 0.0
H2391 H 0.07719 0.64804 0.2715 0.0
H2392 H 0.08595 0.59671 0.26367 0.0
H2393 H 0.14596 0.59527 0.33372 0.0
C2394 C 0.15007 0.70948 0.32896 0.0
C2395 C 0.14246 0.73156 0.30991 0.0
C2396 C 0.11859 0.72845 0.29189 0.0
C2397 C 0.10348 0.70264 0.29145 0.0
C2398 C 0.11236 0.68041 0.30947 0.0
C2399 C 0.13475 0.68383 0.32845 0.0
C2400 C 0.1435 0.65553 0.34174 0.0
C2401 C 0.17572 0.64965 0.33783 0.0
C2402 C 0.13516 0.65445 0.37333 0.0
C2403 C 0.12526 0.63533 0.3246 0.0
C2404 C 0.10649 0.65008 0.30701 0.0
C2405 C 0.09103 0.6362 0.28585 0.0
C2406 C 0.09609 0.60698 0.2815 0.0
C2407 C 0.1167 0.59209 0.29796 0.0
C2408 C 0.12994 0.6061 0.32091 0.0
H2409 H 0.96194 0.53979 0.93029 0.0
H2410 H 0.99085 0.62642 0.91389 0.0
H2411 H 0.9435 0.64472 0.9298 0.0
H2412 H 0.88615 0.54651 0.91692 0.0
H2413 H 0.878 0.52401 0.94718 0.0
H2414 H 0.91086 0.51894 0.92806 0.0
H2415 H 0.93885 0.5246 0.97534 0.0
H2416 H 0.90619 0.53073 0.99444 0.0
H2417 H 0.93443 0.55678 0.99564 0.0
H2418 H 0.892 0.65227 0.95208 0.0
H2419 H 0.84528 0.64795 0.97704 0.0
H2420 H 0.85873 0.55653 0.98548 0.0
C2421 C 0.9583 0.56267 0.92914 0.0
C2422 C 0.98012 0.58166 0.92075 0.0
C2423 C 0.97429 0.61141 0.91988 0.0
C2424 C 0.94757 0.62195 0.9292 0.0
C2425 C 0.92741 0.60243 0.93967 0.0
C2426 C 0.93283 0.57337 0.93961 0.0
C2427 C 0.91047 0.55654 0.95544 0.0
C2428 C 0.89548 0.53527 0.93571 0.0
C2429 C 0.92326 0.54128 0.98176 0.0
C2430 C 0.8909 0.58044 0.96399 0.0
C2431 C 0.90045 0.60683 0.9546 0.0
C2432 C 0.88461 0.63165 0.95964 0.0
C2433 C 0.85822 0.62909 0.97399 0.0
C2434 C 0.84839 0.60204 0.98365 0.0
C2435 C 0.86552 0.57771 0.97895 0.0
H2436 H 0.2082 0.79995 0.19104 0.0
H2437 H 0.17572 0.87801 0.2282 0.0
H2438 H 0.17399 0.90065 0.18049 0.0
H2439 H 0.25489 0.83394 0.14276 0.0
H2440 H 0.24974 0.80909 0.11423 0.0
H2441 H 0.2454 0.79735 0.15054 0.0
H2442 H 0.1942 0.77991 0.13979 0.0
H2443 H 0.19839 0.79099 0.10321 0.0
H2444 H 0.16879 0.80425 0.12377 0.0
H2445 H 0.17734 0.91513 0.12968 0.0
H2446 H 0.18841 0.92237 0.07915 0.0
H2447 H 0.22183 0.83572 0.07476 0.0
C2448 C 0.20039 0.82171 0.18905 0.0
C2449 C 0.19107 0.83702 0.2131 0.0
C2450 C 0.18168 0.8656 0.20983 0.0
C2451 C 0.18089 0.87866 0.18289 0.0
C2452 C 0.18995 0.86288 0.15958 0.0
C2453 C 0.19974 0.83512 0.16235 0.0
C2454 C 0.21006 0.82362 0.13412 0.0
C2455 C 0.24191 0.81553 0.13552 0.0
C2456 C 0.19176 0.79818 0.12467 0.0
C2457 C 0.20509 0.8495 0.11513 0.0
C2458 C 0.19304 0.87169 0.13024 0.0
C2459 C 0.18665 0.8979 0.11759 0.0
C2460 C 0.19301 0.90172 0.08878 0.0
C2461 C 0.20599 0.87956 0.07289 0.0
C2462 C 0.21192 0.85302 0.08629 0.0
H2463 H 0.19038 0.15139 0.28198 0.0
H2464 H 0.22999 0.235 0.28783 0.0
H2465 H 0.23419 0.22906 0.3395 0.0
H2466 H 0.15125 0.15499 0.35091 0.0
H2467 H 0.15744 0.11777 0.35922 0.0
H2468 H 0.15449 0.12944 0.32267 0.0
H2469 H 0.20385 0.10693 0.3119 0.0
H2470 H 0.20701 0.09528 0.34838 0.0
H2471 H 0.23446 0.11726 0.33264 0.0
H2472 H 0.2384 0.21342 0.38899 0.0
H2473 H 0.24224 0.18848 0.43489 0.0
H2474 H 0.20004 0.11442 0.3993 0.0
C2475 C 0.19937 0.16861 0.29428 0.0
C2476 C 0.20985 0.19367 0.28083 0.0
C2477 C 0.22195 0.21555 0.29758 0.0
C2478 C 0.22432 0.21248 0.32703 0.0
C2479 C 0.21444 0.18741 0.33961 0.0
C2480 C 0.20212 0.16581 0.32398 0.0
C2481 C 0.19505 0.14035 0.34304 0.0
C2482 C 0.16263 0.13535 0.34402 0.0
C2483 C 0.21106 0.11337 0.33341 0.0
C2484 C 0.20617 0.15084 0.37147 0.0
C2485 C 0.2169 0.1782 0.36886 0.0
C2486 C 0.22968 0.19215 0.3915 0.0
C2487 C 0.23177 0.17773 0.41758 0.0
C2488 C 0.22121 0.14957 0.421 0.0
C2489 C 0.20797 0.13608 0.39757 0.0
H2490 H 0.36273 0.53096 0.99249 0.0
H2491 H 0.38088 0.6204 0.97855 0.0
H2492 H 0.3663 0.61595 0.92827 0.0
H2493 H 0.40183 0.51189 0.94128 0.0
H2494 H 0.38265 0.48096 0.92915 0.0
H2495 H 0.37865 0.49238 0.96512 0.0
H2496 H 0.32392 0.49693 0.95908 0.0
H2497 H 0.32742 0.4843 0.92314 0.0
H2498 H 0.30942 0.51767 0.92989 0.0
H2499 H 0.36378 0.59921 0.87809 0.0
H2500 H 0.37623 0.57296 0.83441 0.0
H2501 H 0.37043 0.49266 0.88052 0.0
C2502 C 0.36131 0.55003 0.97926 0.0
C2503 C 0.37209 0.57616 0.98941 0.0
C2504 C 0.37172 0.60048 0.97141 0.0
C2505 C 0.3638 0.59791 0.94266 0.0
C2506 C 0.3569 0.57081 0.93234 0.0
C2507 C 0.3555 0.54719 0.9503 0.0
C2508 C 0.35608 0.51948 0.93374 0.0
C2509 C 0.3813 0.5001 0.94286 0.0
C2510 C 0.3275 0.50367 0.93663 0.0
C2511 C 0.36007 0.53098 0.90387 0.0
C2512 C 0.35894 0.56059 0.90328 0.0
C2513 C 0.36416 0.57607 0.87832 0.0
C2514 C 0.37135 0.56103 0.85367 0.0
C2515 C 0.37429 0.53094 0.85441 0.0
C2516 C 0.36805 0.5157 0.87959 0.0
H2517 H 0.77918 0.35144 0.25952 0.0
H2518 H 0.87085 0.34067 0.26202 0.0
H2519 H 0.87224 0.36513 0.30862 0.0
H2520 H 0.77234 0.41932 0.30485 0.0
H2521 H 0.74104 0.40456 0.32171 0.0
H2522 H 0.74851 0.39683 0.28497 0.0
H2523 H 0.74597 0.34261 0.29648 0.0
H2524 H 0.73884 0.35006 0.33302 0.0
H2525 H 0.76883 0.32776 0.3238 0.0
H2526 H 0.86207 0.37693 0.35908 0.0
H2527 H 0.84214 0.37382 0.40766 0.0
H2528 H 0.75654 0.37526 0.3733 0.0
C2529 C 0.79968 0.35577 0.26928 0.0
C2530 C 0.82497 0.34488 0.2573 0.0
C2531 C 0.85141 0.34956 0.27077 0.0
C2532 C 0.85225 0.36339 0.29721 0.0
C2533 C 0.82647 0.37215 0.30959 0.0
C2534 C 0.80063 0.36873 0.29577 0.0
C2535 C 0.77552 0.37361 0.31544 0.0
C2536 C 0.75836 0.40018 0.30619 0.0
C2537 C 0.75621 0.34694 0.31729 0.0
C2538 C 0.79108 0.37862 0.34307 0.0
C2539 C 0.82046 0.37855 0.33917 0.0
C2540 C 0.83921 0.37807 0.36223 0.0
C2541 C 0.82775 0.37633 0.38974 0.0
C2542 C 0.79791 0.37513 0.39388 0.0
C2543 C 0.77939 0.37743 0.37045 0.0
H2544 H 0.08964 0.49087 0.47886 0.0
H2545 H 0.12515 0.40529 0.48236 0.0
H2546 H 0.14283 0.41142 0.43293 0.0
H2547 H 0.06105 0.486 0.41335 0.0
H2548 H 0.06756 0.52256 0.40277 0.0
H2549 H 0.06379 0.51354 0.43974 0.0
H2550 H 0.11326 0.53588 0.45029 0.0
H2551 H 0.11716 0.5451 0.41317 0.0
H2552 H 0.14421 0.52396 0.43091 0.0
H2553 H 0.15057 0.42552 0.38014 0.0
H2554 H 0.14451 0.44408 0.33076 0.0
H2555 H 0.10112 0.51878 0.36313 0.0
C2556 C 0.10174 0.47353 0.46961 0.0
C2557 C 0.10602 0.4475 0.48458 0.0
C2558 C 0.12187 0.42546 0.47149 0.0
C2559 C 0.13197 0.42885 0.44338 0.0
C2560 C 0.12628 0.45453 0.42886 0.0
C2561 C 0.11163 0.47652 0.44181 0.0
C2562 C 0.10486 0.50063 0.42122 0.0
C2563 C 0.07241 0.50596 0.41915 0.0
C2564 C 0.12083 0.52801 0.42939 0.0
C2565 C 0.11662 0.4883 0.39413 0.0
C2566 C 0.12974 0.46211 0.39888 0.0
C2567 C 0.14068 0.44616 0.37638 0.0
C2568 C 0.13726 0.45686 0.34843 0.0
C2569 C 0.12239 0.48282 0.34337 0.0
C2570 C 0.11272 0.49895 0.36656 0.0
H2571 H 0.26806 0.14142 0.72781 0.0
H2572 H 0.35967 0.15238 0.73017 0.0
H2573 H 0.36408 0.12517 0.68562 0.0
H2574 H 0.26771 0.06881 0.68775 0.0
H2575 H 0.23668 0.08011 0.66787 0.0
H2576 H 0.2412 0.0912 0.70422 0.0
H2577 H 0.23623 0.14431 0.68854 0.0
H2578 H 0.23127 0.13332 0.65258 0.0
H2579 H 0.25935 0.15815 0.66102 0.0
H2580 H 0.35817 0.10879 0.63701 0.0
H2581 H 0.34223 0.11127 0.58717 0.0
H2582 H 0.25415 0.11024 0.61449 0.0
C2583 C 0.28914 0.13693 0.71947 0.0
C2584 C 0.31367 0.1482 0.73267 0.0
C2585 C 0.34085 0.14279 0.72101 0.0
C2586 C 0.34349 0.12731 0.69574 0.0
C2587 C 0.31878 0.11704 0.68271 0.0
C2588 C 0.29203 0.12153 0.69432 0.0
C2589 C 0.26854 0.11368 0.67364 0.0
C2590 C 0.2526 0.08685 0.684 0.0
C2591 C 0.24768 0.13887 0.66864 0.0
C2592 C 0.28614 0.10726 0.64745 0.0
C2593 C 0.31512 0.10785 0.65357 0.0
C2594 C 0.33563 0.10735 0.63211 0.0
C2595 C 0.32643 0.10864 0.60381 0.0
C2596 C 0.29702 0.11047 0.59728 0.0
C2597 C 0.27668 0.10773 0.61916 0.0
H2598 H 0.40747 0.4927 0.52724 0.0
H2599 H 0.43724 0.40528 0.53642 0.0
H2600 H 0.42532 0.40626 0.58788 0.0
H2601 H 0.43272 0.51916 0.59099 0.0
H2602 H 0.40216 0.54142 0.59834 0.0
H2603 H 0.41122 0.53313 0.56217 0.0
H2604 H 0.36061 0.51255 0.55383 0.0
H2605 H 0.35114 0.52129 0.58983 0.0
H2606 H 0.34712 0.48517 0.57748 0.0
H2607 H 0.41636 0.41992 0.63942 0.0
H2608 H 0.40281 0.44166 0.68535 0.0
H2609 H 0.37464 0.51832 0.64079 0.0
C2610 C 0.41104 0.47363 0.54006 0.0
C2611 C 0.42346 0.449 0.52825 0.0
C2612 C 0.42766 0.42429 0.54533 0.0
C2613 C 0.4211 0.42475 0.57448 0.0
C2614 C 0.40969 0.44982 0.58575 0.0
C2615 C 0.40391 0.47349 0.56883 0.0
C2616 C 0.39142 0.49774 0.58586 0.0
C2617 C 0.41053 0.52443 0.58424 0.0
C2618 C 0.36075 0.50458 0.57618 0.0
C2619 C 0.39189 0.48442 0.61525 0.0
C2620 C 0.40279 0.45689 0.61488 0.0
C2621 C 0.40723 0.4412 0.63987 0.0
C2622 C 0.39974 0.45377 0.66581 0.0
C2623 C 0.38751 0.48147 0.66636 0.0
C2624 C 0.38359 0.49693 0.64079 0.0
H2625 H 0.58282 0.07307 0.52933 0.0
H2626 H 0.55719 0.98652 0.50831 0.0
H2627 H 0.56312 0.97177 0.55786 0.0
H2628 H 0.63726 0.05183 0.58053 0.0
H2629 H 0.62994 0.08046 0.60485 0.0
H2630 H 0.62287 0.08528 0.56745 0.0
H2631 H 0.5705 0.09868 0.57896 0.0
H2632 H 0.57733 0.09349 0.6164 0.0
H2633 H 0.54887 0.07419 0.59943 0.0
H2634 H 0.57137 0.96496 0.60862 0.0
H2635 H 0.58727 0.96557 0.65857 0.0
H2636 H 0.60902 0.05526 0.64981 0.0
C2637 C 0.57865 0.05103 0.53521 0.0
C2638 C 0.56922 0.03113 0.51465 0.0
C2639 C 0.56407 0.00244 0.52339 0.0
C2640 C 0.56729 0.99371 0.55166 0.0
C2641 C 0.57585 0.01375 0.57143 0.0
C2642 C 0.58188 0.04172 0.56378 0.0
C2643 C 0.59182 0.05824 0.58975 0.0
C2644 C 0.62229 0.06962 0.58538 0.0
C2645 C 0.57088 0.0826 0.59653 0.0
C2646 C 0.5909 0.03493 0.61272 0.0
C2647 C 0.58109 0.00963 0.6015 0.0
C2648 C 0.57887 0.98468 0.6178 0.0
C2649 C 0.58773 0.98525 0.6462 0.0
C2650 C 0.59865 0.01054 0.65814 0.0
C2651 C 0.59993 0.03587 0.64133 0.0
H2652 H 0.71776 0.74322 0.33608 0.0
H2653 H 0.72333 0.65095 0.33073 0.0
H2654 H 0.67244 0.64716 0.34454 0.0
H2655 H 0.66799 0.74844 0.3938 0.0
H2656 H 0.64897 0.77823 0.37808 0.0
H2657 H 0.68629 0.77308 0.37043 0.0
H2658 H 0.67487 0.77301 0.31648 0.0
H2659 H 0.63746 0.77785 0.32398 0.0
H2660 H 0.6491 0.74804 0.30292 0.0
H2661 H 0.62079 0.65418 0.36053 0.0
H2662 H 0.5724 0.67123 0.37379 0.0
H2663 H 0.59966 0.75891 0.36158 0.0
C2664 C 0.70844 0.72213 0.33813 0.0
C2665 C 0.72496 0.69717 0.33374 0.0
C2666 C 0.71161 0.67015 0.3358 0.0
C2667 C 0.68256 0.66789 0.34306 0.0
C2668 C 0.66697 0.69298 0.34733 0.0
C2669 C 0.67943 0.71959 0.34454 0.0
C2670 C 0.65782 0.74336 0.34859 0.0
C2671 C 0.66574 0.76186 0.37425 0.0
C2672 C 0.65463 0.76163 0.32137 0.0
C2673 C 0.63119 0.72603 0.35435 0.0
C2674 C 0.63693 0.69699 0.3539 0.0
C2675 C 0.61599 0.67683 0.36047 0.0
C2676 C 0.58864 0.68665 0.36793 0.0
C2677 C 0.58239 0.71627 0.36806 0.0
C2678 C 0.60382 0.73613 0.36085 0.0
H2679 H 0.92489 0.04318 0.95083 0.0
H2680 H 0.90976 0.00306 0.86954 0.0
H2681 H 0.91489 0.05006 0.84556 0.0
H2682 H 0.8918 0.11617 0.93194 0.0
H2683 H 0.91897 0.13409 0.95218 0.0
H2684 H 0.90651 0.0993 0.96336 0.0
H2685 H 0.95863 0.08072 0.96286 0.0
H2686 H 0.97122 0.11505 0.95099 0.0
H2687 H 0.97924 0.08363 0.93059 0.0
H2688 H 0.93307 0.09763 0.82998 0.0
H2689 H 0.95729 0.14383 0.82376 0.0
H2690 H 0.9606 0.15409 0.91528 0.0
C2691 C 0.92133 0.0445 0.92809 0.0
C2692 C 0.91685 0.01947 0.91201 0.0
C2693 C 0.91278 0.02195 0.8823 0.0
C2694 C 0.91583 0.04858 0.86852 0.0
C2695 C 0.92238 0.07249 0.88485 0.0
C2696 C 0.92434 0.07085 0.91412 0.0
C2697 C 0.93497 0.09875 0.92649 0.0
C2698 C 0.91167 0.11292 0.94456 0.0
C2699 C 0.96265 0.09424 0.94373 0.0
C2700 C 0.94046 0.11579 0.89951 0.0
C2701 C 0.93267 0.10035 0.87578 0.0
C2702 C 0.9385 0.11019 0.8484 0.0
C2703 C 0.95258 0.13637 0.84513 0.0
C2704 C 0.96077 0.15261 0.86908 0.0
C2705 C 0.95415 0.14237 0.89662 0.0
H2706 H 0.28424 0.84742 0.31842 0.0
H2707 H 0.25467 0.77958 0.374 0.0
H2708 H 0.30045 0.7804 0.40012 0.0
H2709 H 0.34639 0.82014 0.30542 0.0
H2710 H 0.36745 0.85236 0.30439 0.0
H2711 H 0.32991 0.85422 0.29746 0.0
H2712 H 0.32381 0.89111 0.33775 0.0
H2713 H 0.36166 0.88935 0.34486 0.0
H2714 H 0.33643 0.88261 0.37305 0.0
H2715 H 0.35156 0.77988 0.41201 0.0
H2716 H 0.40331 0.77404 0.40484 0.0
H2717 H 0.4015 0.84063 0.34006 0.0
C2718 C 0.28715 0.83387 0.33702 0.0
C2719 C 0.26615 0.81389 0.34479 0.0
C2720 C 0.2706 0.79538 0.36829 0.0
C2721 C 0.29641 0.7959 0.38333 0.0
C2722 C 0.31753 0.81497 0.37443 0.0
C2723 C 0.3131 0.83379 0.35184 0.0
C2724 C 0.34076 0.84766 0.34258 0.0
C2725 C 0.34645 0.84328 0.3106 0.0
C2726 C 0.34066 0.87958 0.35001 0.0
C2727 C 0.36178 0.83124 0.36107 0.0
C2728 C 0.34787 0.81374 0.38048 0.0
C2729 C 0.36271 0.79397 0.39739 0.0
C2730 C 0.39218 0.79078 0.39319 0.0
C2731 C 0.40628 0.80678 0.37173 0.0
C2732 C 0.39115 0.82826 0.35667 0.0
H2733 H 0.09277 0.44804 0.92696 0.0
H2734 H 0.06139 0.49137 0.85149 0.0
H2735 H 0.04685 0.4448 0.83151 0.0
H2736 H 0.11202 0.37568 0.89294 0.0
H2737 H 0.09906 0.35749 0.92433 0.0
H2738 H 0.11601 0.39189 0.92731 0.0
H2739 H 0.0714 0.41064 0.95383 0.0
H2740 H 0.05388 0.37691 0.95016 0.0
H2741 H 0.03695 0.409 0.93675 0.0
H2742 H 0.02493 0.39495 0.82572 0.0
H2743 H 0.00046 0.34841 0.83435 0.0
H2744 H 0.04356 0.34038 0.9155 0.0
C2745 C 0.08445 0.44745 0.90547 0.0
C2746 C 0.07843 0.47304 0.8906 0.0
C2747 C 0.06675 0.47183 0.8629 0.0
C2748 C 0.0582 0.44544 0.85155 0.0
C2749 C 0.06193 0.42065 0.86806 0.0
C2750 C 0.07546 0.42151 0.89427 0.0
C2751 C 0.07246 0.39358 0.91042 0.0
C2752 C 0.10162 0.37878 0.91394 0.0
C2753 C 0.05779 0.39782 0.93946 0.0
C2754 C 0.05358 0.37746 0.89021 0.0
C2755 C 0.04831 0.39281 0.86545 0.0
C2756 C 0.02943 0.3826 0.84481 0.0
C2757 C 0.01551 0.35632 0.84987 0.0
C2758 C 0.01999 0.34125 0.87572 0.0
C2759 C 0.03967 0.35173 0.89565 0.0
H2760 H 0.71306 0.32002 0.13467 0.0
H2761 H 0.70048 0.3281 0.22543 0.0
H2762 H 0.64834 0.32782 0.21841 0.0
H2763 H 0.64579 0.36307 0.11263 0.0
H2764 H 0.63961 0.33948 0.0832 0.0
H2765 H 0.6756 0.34726 0.09429 0.0
H2766 H 0.6858 0.29321 0.1 0.0
H2767 H 0.64993 0.28498 0.08942 0.0
H2768 H 0.66343 0.27185 0.12303 0.0
H2769 H 0.59984 0.31435 0.20347 0.0
H2770 H 0.55661 0.29556 0.18033 0.0
H2771 H 0.59927 0.29928 0.09862 0.0
C2772 C 0.69927 0.32363 0.15274 0.0
C2773 C 0.7106 0.32465 0.18046 0.0
C2774 C 0.69205 0.32759 0.20398 0.0
C2775 C 0.66244 0.3275 0.2002 0.0
C2776 C 0.6518 0.32488 0.17272 0.0
C2777 C 0.66958 0.32379 0.14924 0.0
C2778 C 0.65278 0.31761 0.12246 0.0
C2779 C 0.65348 0.3434 0.10194 0.0
C2780 C 0.66364 0.29029 0.10791 0.0
C2781 C 0.62326 0.31342 0.13491 0.0
C2782 C 0.62312 0.31797 0.16389 0.0
C2783 C 0.59935 0.31169 0.18065 0.0
C2784 C 0.57501 0.30067 0.16742 0.0
C2785 C 0.57463 0.29631 0.13775 0.0
C2786 C 0.5989 0.30315 0.12129 0.0
H2787 H 0.60135 0.03929 0.08027 0.0
H2788 H 0.55159 0.00061 0.1475 0.0
H2789 H 0.54258 0.04831 0.16788 0.0
H2790 H 0.62505 0.10848 0.12211 0.0
H2791 H 0.62071 0.12882 0.08961 0.0
H2792 H 0.63393 0.09258 0.0885 0.0
H2793 H 0.59382 0.08033 0.05284 0.0
H2794 H 0.57983 0.11584 0.05447 0.0
H2795 H 0.55705 0.08592 0.06287 0.0
H2796 H 0.52593 0.09878 0.17088 0.0
H2797 H 0.50559 0.1461 0.15747 0.0
H2798 H 0.56392 0.15133 0.08631 0.0
C2799 C 0.59032 0.04098 0.10043 0.0
C2800 C 0.5775 0.01678 0.11273 0.0
C2801 C 0.56211 0.01914 0.13835 0.0
C2802 C 0.55685 0.04618 0.14994 0.0
C2803 C 0.56743 0.07027 0.13565 0.0
C2804 C 0.5846 0.06779 0.11175 0.0
C2805 C 0.58803 0.09614 0.09641 0.0
C2806 C 0.61876 0.10716 0.09936 0.0
C2807 C 0.57911 0.09441 0.06484 0.0
C2808 C 0.56753 0.11414 0.11331 0.0
C2809 C 0.55682 0.09943 0.13664 0.0
C2810 C 0.53482 0.11076 0.15319 0.0
C2811 C 0.52323 0.13745 0.14536 0.0
C2812 C 0.53316 0.15183 0.12075 0.0
C2813 C 0.55604 0.14046 0.10518 0.0
H2814 H 0.27621 0.21754 0.12057 0.0
H2815 H 0.27369 0.13167 0.1552 0.0
H2816 H 0.32112 0.12185 0.13411 0.0
H2817 H 0.32775 0.20448 0.05582 0.0
H2818 H 0.34312 0.23883 0.06378 0.0
H2819 H 0.3056 0.23282 0.06945 0.0
H2820 H 0.31384 0.25043 0.12129 0.0
H2821 H 0.35133 0.2539 0.11524 0.0
H2822 H 0.33873 0.23124 0.14381 0.0
H2823 H 0.37262 0.12676 0.12462 0.0
H2824 H 0.42165 0.14539 0.12847 0.0
H2825 H 0.3925 0.22884 0.10069 0.0
C2826 C 0.28506 0.19615 0.12216 0.0
C2827 C 0.2714 0.17519 0.13899 0.0
C2828 C 0.28366 0.14773 0.14177 0.0
C2829 C 0.31063 0.14209 0.12986 0.0
C2830 C 0.32481 0.16418 0.11533 0.0
C2831 C 0.31212 0.19065 0.11109 0.0
C2832 C 0.33354 0.21286 0.10127 0.0
C2833 C 0.32711 0.22277 0.07072 0.0
C2834 C 0.33441 0.23855 0.12163 0.0
C2835 C 0.36081 0.19548 0.1027 0.0
C2836 C 0.35525 0.16719 0.10995 0.0
C2837 C 0.37717 0.14846 0.11784 0.0
C2838 C 0.40501 0.15918 0.11996 0.0
C2839 C 0.41071 0.18831 0.11411 0.0
C2840 C 0.3887 0.2062 0.10389 0.0
H2841 H 0.43684 0.4457 0.04014 0.0
H2842 H 0.40917 0.48362 0.1194 0.0
H2843 H 0.41236 0.43674 0.14299 0.0
H2844 H 0.40225 0.37334 0.05262 0.0
H2845 H 0.432 0.3552 0.03642 0.0
H2846 H 0.42175 0.39043 0.02414 0.0
H2847 H 0.47329 0.40821 0.0331 0.0
H2848 H 0.48361 0.37328 0.04572 0.0
H2849 H 0.48879 0.40395 0.06801 0.0
H2850 H 0.42729 0.38916 0.16006 0.0
H2851 H 0.45018 0.34255 0.1691 0.0
H2852 H 0.4677 0.334 0.07899 0.0
C2853 C 0.43057 0.44402 0.06225 0.0
C2854 C 0.42263 0.4685 0.07784 0.0
C2855 C 0.41499 0.46537 0.10681 0.0
C2856 C 0.41674 0.4387 0.12046 0.0
C2857 C 0.42579 0.41529 0.10476 0.0
C2858 C 0.43216 0.41752 0.07617 0.0
C2859 C 0.44427 0.38972 0.06495 0.0
C2860 C 0.42384 0.37638 0.04325 0.0
C2861 C 0.47426 0.39407 0.05222 0.0
C2862 C 0.44539 0.37214 0.09213 0.0
C2863 C 0.43417 0.38721 0.1147 0.0
C2864 C 0.43546 0.37684 0.14249 0.0
C2865 C 0.44875 0.35048 0.14741 0.0
C2866 C 0.46057 0.33474 0.12467 0.0
C2867 C 0.45834 0.34542 0.09661 0.0
H2868 H 0.32316 0.71793 0.7324 0.0
H2869 H 0.32912 0.72482 0.64068 0.0
H2870 H 0.34842 0.67528 0.6391 0.0
H2871 H 0.38342 0.67584 0.74687 0.0
H2872 H 0.36615 0.65439 0.77385 0.0
H2873 H 0.35429 0.69047 0.76718 0.0
H2874 H 0.30283 0.67219 0.7584 0.0
H2875 H 0.31455 0.63599 0.76499 0.0
H2876 H 0.29678 0.64511 0.7321 0.0
H2877 H 0.3709 0.62567 0.64947 0.0
H2878 H 0.38879 0.5796 0.66941 0.0
H2879 H 0.36005 0.60421 0.75318 0.0
C2880 C 0.32852 0.70925 0.71182 0.0
C2881 C 0.32622 0.72594 0.68662 0.0
C2882 C 0.3327 0.71318 0.66029 0.0
C2883 C 0.34304 0.68486 0.65925 0.0
C2884 C 0.3456 0.66932 0.68471 0.0
C2885 C 0.3378 0.68099 0.71039 0.0
C2886 C 0.34115 0.65985 0.73472 0.0
C2887 C 0.36253 0.6708 0.75695 0.0
C2888 C 0.3121 0.65288 0.74834 0.0
C2889 C 0.35294 0.63449 0.71899 0.0
C2890 C 0.35565 0.64032 0.69018 0.0
C2891 C 0.36831 0.62076 0.67186 0.0
C2892 C 0.37848 0.59477 0.68334 0.0
C2893 C 0.37537 0.58845 0.71269 0.0
C2894 C 0.36208 0.60838 0.73056 0.0
H2895 H 0.96695 0.41807 0.58203 0.0
H2896 H 0.00881 0.34767 0.54033 0.0
H2897 H 0.96185 0.3299 0.52389 0.0
H2898 H 0.8947 0.38167 0.59777 0.0
H2899 H 0.87652 0.41468 0.58918 0.0
H2900 H 0.91128 0.4154 0.60568 0.0
H2901 H 0.92926 0.44788 0.56456 0.0
H2902 H 0.89511 0.44653 0.54739 0.0
H2903 H 0.92668 0.43553 0.52846 0.0
H2904 H 0.91162 0.3269 0.50266 0.0
H2905 H 0.86424 0.33826 0.48102 0.0
H2906 H 0.85753 0.41288 0.53419 0.0
C2907 C 0.96589 0.39776 0.57121 0.0
C2908 C 0.99116 0.38361 0.56325 0.0
C2909 C 0.98947 0.35808 0.54756 0.0
C2910 C 0.96287 0.34808 0.53788 0.0
C2911 C 0.93835 0.36393 0.54417 0.0
C2912 C 0.93969 0.38802 0.56102 0.0
C2913 C 0.91185 0.40448 0.56055 0.0
C2914 C 0.89775 0.40401 0.59005 0.0
C2915 C 0.91601 0.4354 0.54958 0.0
C2916 C 0.89511 0.38692 0.53965 0.0
C2917 C 0.91023 0.36316 0.53088 0.0
C2918 C 0.89946 0.34515 0.50987 0.0
C2919 C 0.87269 0.35173 0.49759 0.0
C2920 C 0.85762 0.37645 0.50596 0.0
C2921 C 0.86884 0.39387 0.52744 0.0
H2922 H 0.70005 0.80772 0.69602 0.0
H2923 H 0.62269 0.75709 0.69326 0.0
H2924 H 0.59375 0.80116 0.69831 0.0
H2925 H 0.67617 0.85293 0.75111 0.0
H2926 H 0.69399 0.88434 0.73755 0.0
H2927 H 0.70834 0.84941 0.73038 0.0
H2928 H 0.70679 0.86044 0.67624 0.0
H2929 H 0.69248 0.89545 0.68329 0.0
H2930 H 0.67363 0.87162 0.66002 0.0
H2931 H 0.57368 0.85047 0.70443 0.0
H2932 H 0.5635 0.90091 0.71537 0.0
H2933 H 0.65445 0.9184 0.71874 0.0
C2934 C 0.67698 0.80595 0.69604 0.0
C2935 C 0.66342 0.77922 0.69302 0.0
C2936 C 0.63332 0.77759 0.69418 0.0
C2937 C 0.6168 0.80243 0.69729 0.0
C2938 C 0.63088 0.82849 0.69996 0.0
C2939 C 0.6603 0.83036 0.69975 0.0
C2940 C 0.67029 0.86054 0.70534 0.0
C2941 C 0.68825 0.86187 0.73272 0.0
C2942 C 0.68677 0.87273 0.67969 0.0
C2943 C 0.64183 0.87538 0.70891 0.0
C2944 C 0.61939 0.85661 0.70528 0.0
C2945 C 0.59106 0.86536 0.70734 0.0
C2946 C 0.58553 0.89405 0.71348 0.0
C2947 C 0.60823 0.91349 0.71792 0.0
C2948 C 0.63671 0.90399 0.71558 0.0
H2949 H 0.05045 0.04848 0.5529 0.0
H2950 H 0.00671 0.12816 0.57052 0.0
H2951 H 0.05298 0.15341 0.56997 0.0
H2952 H 0.12053 0.06711 0.59224 0.0
H2953 H 0.14093 0.04869 0.56556 0.0
H2954 H 0.10598 0.0359 0.57544 0.0
H2955 H 0.09069 0.03856 0.52256 0.0
H2956 H 0.1251 0.05209 0.51255 0.0
H2957 H 0.09335 0.07212 0.50349 0.0
H2958 H 0.10008 0.17111 0.55446 0.0
H2959 H 0.14686 0.1798 0.53236 0.0
H2960 H 0.16108 0.08833 0.52615 0.0
C2961 C 0.05084 0.07104 0.55783 0.0
C2962 C 0.02526 0.08655 0.56157 0.0
C2963 C 0.02622 0.11599 0.56781 0.0
C2964 C 0.05238 0.13044 0.56751 0.0
C2965 C 0.07714 0.11485 0.5617 0.0
C2966 C 0.07673 0.0856 0.55788 0.0
C2967 C 0.10556 0.07436 0.54851 0.0
C2968 C 0.11905 0.0554 0.57184 0.0
C2969 C 0.10352 0.05837 0.5201 0.0
C2970 C 0.12155 0.10216 0.54519 0.0
C2971 C 0.10494 0.12518 0.55339 0.0
C2972 C 0.11364 0.15325 0.54887 0.0
C2973 C 0.14006 0.15793 0.53589 0.0
C2974 C 0.15749 0.13464 0.52756 0.0
C2975 C 0.14829 0.10644 0.53269 0.0
H2976 H 0.36191 0.27959 0.77448 0.0
H2977 H 0.33879 0.27288 0.86343 0.0
H2978 H 0.35894 0.32088 0.87165 0.0
H2979 H 0.42888 0.32665 0.78558 0.0
H2980 H 0.42116 0.34598 0.7531 0.0
H2981 H 0.41256 0.3085 0.75613 0.0
H2982 H 0.36005 0.31997 0.74247 0.0
H2983 H 0.36854 0.35721 0.73955 0.0
H2984 H 0.34031 0.34567 0.76303 0.0
H2985 H 0.36888 0.37289 0.86725 0.0
H2986 H 0.36894 0.4233 0.85108 0.0
H2987 H 0.38826 0.39667 0.76546 0.0
C2988 C 0.36203 0.28788 0.79589 0.0
C2989 C 0.34897 0.27254 0.8184 0.0
C2990 C 0.34918 0.28406 0.84605 0.0
C2991 C 0.36058 0.31134 0.85085 0.0
C2992 C 0.37221 0.32652 0.82787 0.0
C2993 C 0.37358 0.3149 0.801 0.0
C2994 C 0.38351 0.33677 0.77914 0.0
C2995 C 0.4133 0.32901 0.76783 0.0
C2996 C 0.36179 0.3401 0.75465 0.0
C2997 C 0.38478 0.36327 0.79732 0.0
C2998 C 0.37904 0.35674 0.82556 0.0
C2999 C 0.3745 0.37813 0.8455 0.0
C3000 C 0.37459 0.40672 0.83617 0.0
C3001 C 0.37941 0.41367 0.80725 0.0
C3002 C 0.38579 0.3918 0.78789 0.0
H3003 H 0.52166 0.37736 0.46956 0.0
H3004 H 0.53297 0.42352 0.39021 0.0
H3005 H 0.58503 0.41411 0.39253 0.0
H3006 H 0.57792 0.40395 0.50366 0.0
H3007 H 0.58906 0.37213 0.52264 0.0
H3008 H 0.55241 0.37628 0.51194 0.0
H3009 H 0.55416 0.32873 0.48438 0.0
H3010 H 0.59058 0.32371 0.4959 0.0
H3011 H 0.58198 0.32301 0.45856 0.0
H3012 H 0.63624 0.40931 0.40951 0.0
H3013 H 0.68208 0.40076 0.43426 0.0
H3014 H 0.63746 0.35561 0.50184 0.0
C3015 C 0.53492 0.38383 0.45177 0.0
C3016 C 0.52326 0.40042 0.42924 0.0
C3017 C 0.54135 0.40989 0.40704 0.0
C3018 C 0.57101 0.40501 0.40849 0.0
C3019 C 0.58209 0.39023 0.43205 0.0
C3020 C 0.56445 0.37887 0.45282 0.0
C3021 C 0.58169 0.36584 0.4771 0.0
C3022 C 0.57485 0.38043 0.50549 0.0
C3023 C 0.57682 0.33339 0.47909 0.0
C3024 C 0.61179 0.37261 0.46738 0.0
C3025 C 0.61158 0.38681 0.44142 0.0
C3026 C 0.63664 0.39751 0.42944 0.0
C3027 C 0.66258 0.39284 0.44386 0.0
C3028 C 0.66345 0.37733 0.46994 0.0
C3029 C 0.63758 0.36721 0.48179 0.0
H3030 H 0.67158 0.21825 0.83726 0.0
H3031 H 0.5954 0.24675 0.79331 0.0
H3032 H 0.57694 0.19762 0.79364 0.0
H3033 H 0.68542 0.16498 0.7997 0.0
H3034 H 0.69711 0.13881 0.82567 0.0
H3035 H 0.69938 0.17609 0.8336 0.0
H3036 H 0.66873 0.16913 0.87881 0.0
H3037 H 0.66706 0.13133 0.87173 0.0
H3038 H 0.63462 0.15158 0.87647 0.0
H3039 H 0.57656 0.14763 0.78117 0.0
H3040 H 0.58851 0.09852 0.76645 0.0
H3041 H 0.66364 0.09984 0.82008 0.0
C3042 C 0.6501 0.21423 0.82979 0.0
C3043 C 0.63459 0.23599 0.81569 0.0
C3044 C 0.60718 0.23023 0.80468 0.0
C3045 C 0.59662 0.20234 0.80468 0.0
C3046 C 0.61367 0.18059 0.81607 0.0
C3047 C 0.6394 0.18625 0.82949 0.0
C3048 C 0.6558 0.15878 0.83542 0.0
C3049 C 0.68618 0.15976 0.82281 0.0
C3050 C 0.65659 0.15232 0.86752 0.0
C3051 C 0.63708 0.13751 0.8201 0.0
C3052 C 0.61254 0.15042 0.80977 0.0
C3053 C 0.59462 0.13662 0.79066 0.0
C3054 C 0.60156 0.10879 0.78234 0.0
C3055 C 0.62628 0.09504 0.79294 0.0
C3056 C 0.64408 0.10955 0.8123 0.0
H3057 H 0.48105 0.10071 0.47341 0.0
H3058 H 0.45726 0.09509 0.38489 0.0
H3059 H 0.41255 0.12179 0.3948 0.0
H3060 H 0.42211 0.08102 0.50014 0.0
H3061 H 0.4202 0.10408 0.53058 0.0
H3062 H 0.45414 0.09595 0.51527 0.0
H3063 H 0.46446 0.14997 0.50823 0.0
H3064 H 0.43032 0.15834 0.5239 0.0
H3065 H 0.43928 0.17222 0.48915 0.0
H3066 H 0.36721 0.13784 0.41572 0.0
H3067 H 0.3238 0.13522 0.44518 0.0
H3068 H 0.37541 0.12531 0.52095 0.0
C3069 C 0.46686 0.10643 0.45604 0.0
C3070 C 0.47218 0.09649 0.42851 0.0
C3071 C 0.45334 0.10317 0.40604 0.0
C3072 C 0.42816 0.1185 0.41151 0.0
C3073 C 0.42264 0.12698 0.43943 0.0
C3074 C 0.44168 0.12129 0.46134 0.0
C3075 C 0.42847 0.12657 0.49015 0.0
C3076 C 0.43137 0.10033 0.51014 0.0
C3077 C 0.4414 0.15337 0.50365 0.0
C3078 C 0.39795 0.13204 0.48133 0.0
C3079 C 0.39548 0.13441 0.45199 0.0
C3080 C 0.36901 0.13676 0.43865 0.0
C3081 C 0.3445 0.13518 0.45551 0.0
C3082 C 0.34677 0.13018 0.48512 0.0
C3083 C 0.3736 0.12962 0.49835 0.0
H3084 H 0.67753 0.37199 0.70804 0.0
H3085 H 0.75823 0.33288 0.73104 0.0
H3086 H 0.77705 0.34386 0.68299 0.0
H3087 H 0.67176 0.34528 0.64337 0.0
H3088 H 0.65692 0.37598 0.62509 0.0
H3089 H 0.65171 0.37165 0.66275 0.0
H3090 H 0.67426 0.42105 0.67222 0.0
H3091 H 0.67856 0.42625 0.63443 0.0
H3092 H 0.70894 0.42934 0.65775 0.0
H3093 H 0.78227 0.34824 0.62998 0.0
H3094 H 0.77792 0.35548 0.57803 0.0
H3095 H 0.69474 0.39467 0.58976 0.0
C3096 C 0.69975 0.36749 0.70343 0.0
C3097 C 0.71682 0.35242 0.72328 0.0
C3098 C 0.7453 0.34536 0.71632 0.0
C3099 C 0.75597 0.35119 0.68897 0.0
C3100 C 0.73795 0.3645 0.66917 0.0
C3101 C 0.71078 0.37357 0.67638 0.0
C3102 C 0.6949 0.38529 0.65063 0.0
C3103 C 0.6672 0.36854 0.64516 0.0
C3104 C 0.68882 0.41739 0.65395 0.0
C3105 C 0.71677 0.38001 0.62755 0.0
C3106 C 0.74141 0.36792 0.63866 0.0
C3107 C 0.76344 0.35848 0.62115 0.0
C3108 C 0.7606 0.3623 0.59164 0.0
C3109 C 0.73605 0.37574 0.57992 0.0
C3110 C 0.71388 0.38464 0.59819 0.0
H3111 H 0.68204 0.65056 0.7756 0.0
H3112 H 0.77062 0.67537 0.76319 0.0
H3113 H 0.78245 0.65704 0.81072 0.0
H3114 H 0.67658 0.67055 0.84579 0.0
H3115 H 0.65501 0.64091 0.85773 0.0
H3116 H 0.65343 0.65251 0.82116 0.0
H3117 H 0.66644 0.60162 0.80457 0.0
H3118 H 0.66778 0.58957 0.84109 0.0
H3119 H 0.69818 0.58437 0.81822 0.0
H3120 H 0.78394 0.6433 0.86036 0.0
H3121 H 0.77596 0.62988 0.91033 0.0
H3122 H 0.68723 0.61075 0.89163 0.0
C3123 C 0.704 0.65151 0.78265 0.0
C3124 C 0.72534 0.66451 0.76575 0.0
C3125 C 0.75382 0.66571 0.77584 0.0
C3126 C 0.76085 0.65521 0.80275 0.0
C3127 C 0.73926 0.64326 0.81916 0.0
C3128 C 0.71149 0.64089 0.80953 0.0
C3129 C 0.69222 0.62852 0.83242 0.0
C3130 C 0.66789 0.64938 0.8397 0.0
C3131 C 0.68047 0.59927 0.82354 0.0
C3132 C 0.71341 0.62557 0.85668 0.0
C3133 C 0.74038 0.63414 0.8483 0.0
C3134 C 0.76312 0.63593 0.86716 0.0
C3135 C 0.75829 0.62858 0.89549 0.0
C3136 C 0.73102 0.61932 0.90457 0.0
C3137 C 0.70833 0.61746 0.88494 0.0
H3138 H 0.89942 0.01339 0.47284 0.0
H3139 H 0.89025 0.10471 0.46084 0.0
H3140 H 0.86199 0.09635 0.41694 0.0
H3141 H 0.91931 0.99911 0.41023 0.0
H3142 H 0.90186 0.96511 0.40585 0.0
H3143 H 0.90984 0.97742 0.44073 0.0
H3144 H 0.85656 0.97273 0.45481 0.0
H3145 H 0.84837 0.96021 0.41959 0.0
H3146 H 0.82947 0.99049 0.4338 0.0
H3147 H 0.84736 0.07879 0.36953 0.0
H3148 H 0.85366 0.05591 0.32288 0.0
H3149 H 0.87636 0.97629 0.36459 0.0
C3150 C 0.89041 0.03154 0.46141 0.0
C3151 C 0.89691 0.05957 0.4696 0.0
C3152 C 0.88521 0.08307 0.45462 0.0
C3153 C 0.86899 0.0784 0.42991 0.0
C3154 C 0.86451 0.05021 0.42115 0.0
C3155 C 0.87476 0.02712 0.43681 0.0
C3156 C 0.87345 -0.00042 0.42039 0.0
C3157 C 0.90285 0.98451 0.41921 0.0
C3158 C 0.85059 0.97958 0.43289 0.0
C3159 C 0.86433 0.01118 0.39177 0.0
C3160 C 0.85737 0.04003 0.39302 0.0
C3161 C 0.85201 0.05615 0.36846 0.0
C3162 C 0.85568 0.04304 0.34208 0.0
C3163 C 0.86548 0.0145 0.3407 0.0
C3164 C 0.86842 0.99803 0.36559 0.0
H3165 H 0.28389 0.87879 0.77095 0.0
H3166 H 0.36212 0.8297 0.76754 0.0
H3167 H 0.37416 0.84491 0.81627 0.0
H3168 H 0.31746 0.93624 0.82302 0.0
H3169 H 0.28409 0.94085 0.84102 0.0
H3170 H 0.28457 0.93545 0.80313 0.0
H3171 H 0.25163 0.89194 0.80637 0.0
H3172 H 0.24836 0.89708 0.8438 0.0
H3173 H 0.26024 0.86297 0.83059 0.0
H3174 H 0.36821 0.84968 0.86782 0.0
H3175 H 0.34729 0.84656 0.91565 0.0
H3176 H 0.27387 0.89542 0.88691 0.0
C3177 C 0.30426 0.87265 0.7801 0.0
C3178 C 0.32214 0.85323 0.7659 0.0
C3179 C 0.34843 0.84494 0.77816 0.0
C3180 C 0.35539 0.85355 0.8058 0.0
C3181 C 0.33619 0.87109 0.82031 0.0
C3182 C 0.31163 0.88151 0.80742 0.0
C3183 C 0.29271 0.89674 0.82855 0.0
C3184 C 0.29479 0.92922 0.82363 0.0
C3185 C 0.26144 0.88651 0.82725 0.0
C3186 C 0.3073 0.88811 0.8561 0.0
C3187 C 0.3333 0.87489 0.85078 0.0
C3188 C 0.34847 0.86085 0.8723 0.0
C3189 C 0.33623 0.8589 0.89938 0.0
C3190 C 0.3089 0.87068 0.9048 0.0
C3191 C 0.29503 0.88679 0.88334 0.0
H3192 H 0.58295 0.9166 0.96688 0.0
H3193 H 0.65114 0.96709 0.00204 0.0
H3194 H 0.67133 0.97434 0.95386 0.0
H3195 H 0.62443 0.88812 0.9007 0.0
H3196 H 0.59233 0.89196 0.87978 0.0
H3197 H 0.59007 0.88176 0.9168 0.0
H3198 H 0.5556 0.92419 0.92541 0.0
H3199 H 0.55806 0.93481 0.88886 0.0
H3200 H 0.56691 0.95996 0.91626 0.0
H3201 H 0.6757 0.98729 0.90206 0.0
H3202 H 0.66309 0.00453 0.85343 0.0
H3203 H 0.59124 0.94668 0.85248 0.0
C3204 C 0.60316 0.92757 0.9644 0.0
C3205 C 0.61607 0.94063 0.98783 0.0
C3206 C 0.64158 0.95624 0.98418 0.0
C3207 C 0.65312 0.96045 0.95689 0.0
C3208 C 0.63881 0.94882 0.93366 0.0
C3209 C 0.61457 0.93217 0.93731 0.0
C3210 C 0.59967 0.92697 0.90934 0.0
C3211 C 0.60177 0.89532 0.90117 0.0
C3212 C 0.56826 0.93712 0.91004 0.0
C3213 C 0.61762 0.94541 0.88983 0.0
C3214 C 0.6408 0.95702 0.9038 0.0
C3215 C 0.65809 0.97771 0.89073 0.0
C3216 C 0.65083 0.98745 0.8632 0.0
C3217 C 0.62624 0.9768 0.84962 0.0
C3218 C 0.6103 0.95483 0.8626 0.0
H3219 H 0.76143 0.66278 0.22035 0.0
H3220 H 0.85161 0.64327 0.2284 0.0
H3221 H 0.84978 0.61682 0.18311 0.0
H3222 H 0.73976 0.59507 0.18276 0.0
H3223 H 0.71465 0.61479 0.161 0.0
H3224 H 0.72177 0.62594 0.1969 0.0
H3225 H 0.73509 0.67664 0.1784 0.0
H3226 H 0.72773 0.66573 0.14275 0.0
H3227 H 0.76222 0.68032 0.15142 0.0
H3228 H 0.84035 0.60266 0.13285 0.0
H3229 H 0.82483 0.6036 0.08251 0.0
H3230 H 0.74048 0.63072 0.10809 0.0
C3231 C 0.78069 0.65239 0.21292 0.0
C3232 C 0.80671 0.65508 0.22771 0.0
C3233 C 0.83144 0.64123 0.21742 0.0
C3234 C 0.8305 0.62607 0.19181 0.0
C3235 C 0.80452 0.62455 0.17725 0.0
C3236 C 0.77999 0.63717 0.18769 0.0
C3237 C 0.75574 0.63618 0.16654 0.0
C3238 C 0.73156 0.61683 0.17746 0.0
C3239 C 0.74459 0.6665 0.15935 0.0
C3240 C 0.77093 0.6229 0.14164 0.0
C3241 C 0.79887 0.61559 0.14839 0.0
C3242 C 0.8183 0.60726 0.12756 0.0
C3243 C 0.80936 0.60775 0.09909 0.0
C3244 C 0.78131 0.61639 0.09199 0.0
C3245 C 0.76162 0.62284 0.11346 0.0
H3246 H 0.88614 0.94332 0.01583 0.0
H3247 H 0.96554 0.90146 0.039 0.0
H3248 H 0.95398 0.90719 0.08986 0.0
H3249 H 0.89316 0.99643 0.06252 0.0
H3250 H 0.85608 0.00066 0.07189 0.0
H3251 H 0.86556 0.98632 0.03787 0.0
H3252 H 0.83586 0.94073 0.04796 0.0
H3253 H 0.82541 0.95528 0.08174 0.0
H3254 H 0.84197 0.92048 0.08025 0.0
H3255 H 0.93916 0.92552 0.13626 0.0
H3256 H 0.91997 0.95181 0.17684 0.0
H3257 H 0.85096 0.98474 0.12387 0.0
C3258 C 0.90018 0.93399 0.03175 0.0
C3259 C 0.92629 0.9213 0.02393 0.0
C3260 C 0.94516 0.91065 0.04494 0.0
C3261 C 0.93878 0.9139 0.07376 0.0
C3262 C 0.91366 0.92814 0.08093 0.0
C3263 C 0.89443 0.93776 0.0606 0.0
C3264 C 0.87142 0.95632 0.07366 0.0
C3265 C 0.87159 0.98671 0.06071 0.0
C3266 C 0.84192 0.94235 0.07074 0.0
C3267 C 0.88129 0.95638 0.10429 0.0
C3268 C 0.90549 0.93974 0.10799 0.0
C3269 C 0.9199 0.93816 0.1338 0.0
C3270 C 0.90899 0.95354 0.15664 0.0
C3271 C 0.88395 0.97045 0.15355 0.0
C3272 C 0.87 0.97186 0.12695 0.0
H3273 H 0.10504 0.51903 0.01386 0.0
H3274 H 0.08629 0.60962 0.01666 0.0
H3275 H 0.09914 0.60985 0.06808 0.0
H3276 H 0.07402 0.50157 0.07797 0.0
H3277 H 0.09953 0.47424 0.08774 0.0
H3278 H 0.09287 0.48225 0.05082 0.0
H3279 H 0.14665 0.49235 0.04244 0.0
H3280 H 0.15368 0.48354 0.07916 0.0
H3281 H 0.16489 0.51757 0.06474 0.0
H3282 H 0.10692 0.59728 0.12104 0.0
H3283 H 0.11688 0.57537 0.16842 0.0
H3284 H 0.13178 0.49356 0.12872 0.0
C3285 C 0.10469 0.53913 0.02511 0.0
C3286 C 0.09512 0.56438 0.0116 0.0
C3287 C 0.09414 0.59023 0.0268 0.0
C3288 C 0.1011 0.59041 0.05596 0.0
C3289 C 0.10908 0.56459 0.06909 0.0
C3290 C 0.11151 0.5396 0.05385 0.0
C3291 C 0.11884 0.51428 0.07267 0.0
C3292 C 0.09489 0.49177 0.07226 0.0
C3293 C 0.14774 0.50118 0.06426 0.0
C3294 C 0.12036 0.52876 0.10108 0.0
C3295 C 0.11419 0.55766 0.09885 0.0
C3296 C 0.11229 0.57481 0.12287 0.0
C3297 C 0.11764 0.56219 0.14964 0.0
C3298 C 0.12519 0.53293 0.1519 0.0
C3299 C 0.12635 0.51607 0.12737 0.0
loop_
_geom_bond_atom_site_label_1
_geom_bond_atom_site_label_2
_geom_bond_distance
_geom_bond_site_symmetry_2
_ccdc_geom_bond_type
Zn0 O6 1.920 . S
Zn0 O12 1.898 . S
Zn0 O15 1.905 . S
Zn1 O9 1.905 . S
Zn1 O10 1.898 . S
Zn1 O18 1.920 . S
Zn2 O5 2.080 . S
Zn2 O8 2.114 . S
Zn2 O11 2.120 . S
Zn2 O13 2.120 . S
Zn2 O14 2.114 . S
Zn2 O17 2.080 . S
C3 O8 1.166 . S
C3 O9 1.182 . S
C4 O10 1.167 . S
C4 O11 1.299 . S
O5 Zn2 2.080 . S
O5 C19 1.305 . S
O6 Zn0 1.920 . S
O6 C19 1.234 . S
C7 O12 1.167 . S
C7 O13 1.299 . S
O8 Zn2 2.114 . S
O8 C3 1.166 . S
O9 Zn1 1.905 . S
O9 C3 1.182 . S
O10 Zn1 1.898 . S
O10 C4 1.167 . S
O11 Zn2 2.120 . S
O11 C4 1.299 . S
O12 Zn0 1.898 . S
O12 C7 1.167 . S
O13 Zn2 2.120 . S
O13 C7 1.299 . S
O14 Zn2 2.114 . S
O14 C16 1.166 . S
O15 Zn0 1.905 . S
O15 C16 1.182 . S
C16 O14 1.166 . S
C16 O15 1.182 . S
O17 Zn2 2.080 . S
O17 C20 1.305 . S
O18 Zn1 1.920 . S
O18 C20 1.234 . S
C19 O5 1.305 . S
C19 O6 1.234 . S
C20 O17 1.305 . S
C20 O18 1.234 . S
Zn21 O27 1.920 . S
Zn21 O33 1.898 . S
Zn21 O36 1.905 . S
Zn22 O30 1.905 . S
Zn22 O31 1.898 . S
Zn22 O39 1.920 . S
Zn23 O26 2.080 . S
Zn23 O29 2.114 . S
Zn23 O32 2.120 . S
Zn23 O34 2.120 . S
Zn23 O35 2.114 . S
Zn23 O38 2.080 . S
C24 O29 1.166 . S
C24 O30 1.182 . S
C25 O31 1.167 . S
C25 O32 1.299 . S
O26 Zn23 2.080 . S
O26 C40 1.305 . S
O27 Zn21 1.920 . S
O27 C40 1.234 . S
C28 O33 1.167 . S
C28 O34 1.299 . S
O29 Zn23 2.114 . S
O29 C24 1.166 . S
O30 Zn22 1.905 . S
O30 C24 1.182 . S
O31 Zn22 1.898 . S
O31 C25 1.167 . S
O32 Zn23 2.120 . S
O32 C25 1.299 . S
O33 Zn21 1.898 . S
O33 C28 1.167 . S
O34 Zn23 2.120 . S
O34 C28 1.299 . S
O35 Zn23 2.114 . S
O35 C37 1.166 . S
O36 Zn21 1.905 . S
O36 C37 1.182 . S
C37 O35 1.166 . S
C37 O36 1.182 . S
O38 Zn23 2.080 . S
O38 C41 1.305 . S
O39 Zn22 1.920 . S
O39 C41 1.234 . S
C40 O26 1.305 . S
C40 O27 1.234 . S
C41 O38 1.305 . S
C41 O39 1.234 . S
Zn42 O48 1.920 . S
Zn42 O54 1.898 . S
Zn42 O57 1.905 . S
Zn43 O51 1.905 . S
Zn43 O52 1.898 . S
Zn43 O60 1.920 . S
Zn44 O47 2.080 . S
Zn44 O50 2.114 . S
Zn44 O53 2.120 . S
Zn44 O55 2.120 . S
Zn44 O56 2.114 . S
Zn44 O59 2.080 . S
C45 O50 1.166 . S
C45 O51 1.182 . S
C46 O52 1.167 . S
C46 O53 1.299 . S
O47 Zn44 2.080 . S
O47 C61 1.305 . S
O48 Zn42 1.920 . S
O48 C61 1.234 . S
C49 O54 1.167 . S
C49 O55 1.299 . S
O50 Zn44 2.114 . S
O50 C45 1.166 . S
O51 Zn43 1.905 . S
O51 C45 1.182 . S
O52 Zn43 1.898 . S
O52 C46 1.167 . S
O53 Zn44 2.120 . S
O53 C46 1.299 . S
O54 Zn42 1.898 . S
O54 C49 1.167 . S
O55 Zn44 2.120 . S
O55 C49 1.299 . S
O56 Zn44 2.114 . S
O56 C58 1.166 . S
O57 Zn42 1.905 . S
O57 C58 1.182 . S
C58 O56 1.166 . S
C58 O57 1.182 . S
O59 Zn44 2.080 . S
O59 C62 1.305 . S
O60 Zn43 1.920 . S
O60 C62 1.234 . S
C61 O47 1.305 . S
C61 O48 1.234 . S
C62 O59 1.305 . S
C62 O60 1.234 . S
Zn63 O69 1.920 . S
Zn63 O75 1.898 . S
Zn63 O78 1.905 . S
Zn64 O72 1.905 . S
Zn64 O73 1.898 . S
Zn64 O81 1.920 . S
Zn65 O68 2.080 . S
Zn65 O71 2.114 . S
Zn65 O74 2.120 . S
Zn65 O76 2.120 . S
Zn65 O77 2.114 . S
Zn65 O80 2.080 . S
C66 O71 1.166 . S
C66 O72 1.182 . S
C67 O73 1.167 . S
C67 O74 1.299 . S
O68 Zn65 2.080 . S
O68 C82 1.305 . S
O69 Zn63 1.920 . S
O69 C82 1.234 . S
C70 O75 1.167 . S
C70 O76 1.299 . S
O71 Zn65 2.114 . S
O71 C66 1.166 . S
O72 Zn64 1.905 . S
O72 C66 1.182 . S
O73 Zn64 1.898 . S
O73 C67 1.167 . S
O74 Zn65 2.120 . S
O74 C67 1.299 . S
O75 Zn63 1.898 . S
O75 C70 1.167 . S
O76 Zn65 2.120 . S
O76 C70 1.299 . S
O77 Zn65 2.114 . S
O77 C79 1.166 . S
O78 Zn63 1.905 . S
O78 C79 1.182 . S
C79 O77 1.166 . S
C79 O78 1.182 . S
O80 Zn65 2.080 . S
O80 C83 1.305 . S
O81 Zn64 1.920 . S
O81 C83 1.234 . S
C82 O68 1.305 . S
C82 O69 1.234 . S
C83 O80 1.305 . S
C83 O81 1.234 . S
Zn84 O90 1.920 . S
Zn84 O96 1.898 . S
Zn84 O99 1.905 . S
Zn85 O93 1.905 . S
Zn85 O94 1.898 . S
Zn85 O102 1.920 . S
Zn86 O89 2.080 . S
Zn86 O92 2.114 . S
Zn86 O95 2.120 . S
Zn86 O97 2.120 . S
Zn86 O98 2.114 . S
Zn86 O101 2.080 . S
C87 O92 1.166 . S
C87 O93 1.182 . S
C88 O94 1.167 . S
C88 O95 1.299 . S
O89 Zn86 2.080 . S
O89 C103 1.305 . S
O90 Zn84 1.920 . S
O90 C103 1.234 . S
C91 O96 1.167 . S
C91 O97 1.299 . S
O92 Zn86 2.114 . S
O92 C87 1.166 . S
O93 Zn85 1.905 . S
O93 C87 1.182 . S
O94 Zn85 1.898 . S
O94 C88 1.167 . S
O95 Zn86 2.120 . S
O95 C88 1.299 . S
O96 Zn84 1.898 . S
O96 C91 1.167 . S
O97 Zn86 2.120 . S
O97 C91 1.299 . S
O98 Zn86 2.114 . S
O98 C100 1.166 . S
O99 Zn84 1.905 . S
O99 C100 1.182 . S
C100 O98 1.166 . S
C100 O99 1.182 . S
O101 Zn86 2.080 . S
O101 C104 1.305 . S
O102 Zn85 1.920 . S
O102 C104 1.234 . S
C103 O89 1.305 . S
C103 O90 1.234 . S
C104 O101 1.305 . S
C104 O102 1.234 . S
Zn105 O111 1.920 . S
Zn105 O117 1.898 . S
Zn105 O120 1.905 . S
Zn106 O114 1.905 . S
Zn106 O115 1.898 . S
Zn106 O123 1.920 . S
Zn107 O110 2.080 . S
Zn107 O113 2.114 . S
Zn107 O116 2.120 . S
Zn107 O118 2.120 . S
Zn107 O119 2.114 . S
Zn107 O122 2.080 . S
C108 O113 1.166 . S
C108 O114 1.182 . S
C109 O115 1.167 . S
C109 O116 1.299 . S
O110 Zn107 2.080 . S
O110 C124 1.305 . S
O111 Zn105 1.920 . S
O111 C124 1.234 . S
C112 O117 1.167 . S
C112 O118 1.299 . S
O113 Zn107 2.114 . S
O113 C108 1.166 . S
O114 Zn106 1.905 . S
O114 C108 1.182 . S
O115 Zn106 1.898 . S
O115 C109 1.167 . S
O116 Zn107 2.120 . S
O116 C109 1.299 . S
O117 Zn105 1.898 . S
O117 C112 1.167 . S
O118 Zn107 2.120 . S
O118 C112 1.299 . S
O119 Zn107 2.114 . S
O119 C121 1.166 . S
O120 Zn105 1.905 . S
O120 C121 1.182 . S
C121 O119 1.166 . S
C121 O120 1.182 . S
O122 Zn107 2.080 . S
O122 C125 1.305 . S
O123 Zn106 1.920 . S
O123 C125 1.234 . S
C124 O110 1.305 . S
C124 O111 1.234 . S
C125 O122 1.305 . S
C125 O123 1.234 . S
Zn126 O132 1.920 . S
Zn126 O138 1.898 . S
Zn126 O141 1.905 . S
Zn127 O135 1.905 . S
Zn127 O136 1.898 . S
Zn127 O144 1.920 . S
Zn128 O131 2.080 . S
Zn128 O134 2.114 . S
Zn128 O137 2.120 . S
Zn128 O139 2.120 . S
Zn128 O140 2.114 . S
Zn128 O143 2.080 . S
C129 O134 1.166 . S
C129 O135 1.182 . S
C130 O136 1.167 . S
C130 O137 1.299 . S
O131 Zn128 2.080 . S
O131 C145 1.305 . S
O132 Zn126 1.920 . S
O132 C145 1.234 . S
C133 O138 1.167 . S
C133 O139 1.299 . S
O134 Zn128 2.114 . S
O134 C129 1.166 . S
O135 Zn127 1.905 . S
O135 C129 1.182 . S
O136 Zn127 1.898 . S
O136 C130 1.167 . S
O137 Zn128 2.120 . S
O137 C130 1.299 . S
O138 Zn126 1.898 . S
O138 C133 1.167 . S
O139 Zn128 2.120 . S
O139 C133 1.299 . S
O140 Zn128 2.114 . S
O140 C142 1.166 . S
O141 Zn126 1.905 . S
O141 C142 1.182 . S
C142 O140 1.166 . S
C142 O141 1.182 . S
O143 Zn128 2.080 . S
O143 C146 1.305 . S
O144 Zn127 1.920 . S
O144 C146 1.234 . S
C145 O131 1.305 . S
C145 O132 1.234 . S
C146 O143 1.305 . S
C146 O144 1.234 . S
Zn147 O153 1.920 . S
Zn147 O159 1.898 . S
Zn147 O162 1.905 . S
Zn148 O156 1.905 . S
Zn148 O157 1.898 . S
Zn148 O165 1.920 . S
Zn149 O152 2.080 . S
Zn149 O155 2.114 . S
Zn149 O158 2.120 . S
Zn149 O160 2.120 . S
Zn149 O161 2.114 . S
Zn149 O164 2.080 . S
C150 O155 1.166 . S
C150 O156 1.182 . S
C151 O157 1.167 . S
C151 O158 1.299 . S
O152 Zn149 2.080 . S
O152 C166 1.305 . S
O153 Zn147 1.920 . S
O153 C166 1.234 . S
C154 O159 1.167 . S
C154 O160 1.299 . S
O155 Zn149 2.114 . S
O155 C150 1.166 . S
O156 Zn148 1.905 . S
O156 C150 1.182 . S
O157 Zn148 1.898 . S
O157 C151 1.167 . S
O158 Zn149 2.120 . S
O158 C151 1.299 . S
O159 Zn147 1.898 . S
O159 C154 1.167 . S
O160 Zn149 2.120 . S
O160 C154 1.299 . S
O161 Zn149 2.114 . S
O161 C163 1.166 . S
O162 Zn147 1.905 . S
O162 C163 1.182 . S
C163 O161 1.166 . S
C163 O162 1.182 . S
O164 Zn149 2.080 . S
O164 C167 1.305 . S
O165 Zn148 1.920 . S
O165 C167 1.234 . S
C166 O152 1.305 . S
C166 O153 1.234 . S
C167 O164 1.305 . S
C167 O165 1.234 . S
Zn168 O174 1.920 . S
Zn168 O180 1.898 . S
Zn168 O183 1.905 . S
Zn169 O177 1.905 . S
Zn169 O178 1.898 . S
Zn169 O186 1.920 . S
Zn170 O173 2.080 . S
Zn170 O176 2.114 . S
Zn170 O179 2.120 . S
Zn170 O181 2.120 . S
Zn170 O182 2.114 . S
Zn170 O185 2.080 . S
C171 O176 1.166 . S
C171 O177 1.182 . S
C172 O178 1.167 . S
C172 O179 1.299 . S
O173 Zn170 2.080 . S
O173 C187 1.305 . S
O174 Zn168 1.920 . S
O174 C187 1.234 . S
C175 O180 1.167 . S
C175 O181 1.299 . S
O176 Zn170 2.114 . S
O176 C171 1.166 . S
O177 Zn169 1.905 . S
O177 C171 1.182 . S
O178 Zn169 1.898 . S
O178 C172 1.167 . S
O179 Zn170 2.120 . S
O179 C172 1.299 . S
O180 Zn168 1.898 . S
O180 C175 1.167 . S
O181 Zn170 2.120 . S
O181 C175 1.299 . S
O182 Zn170 2.114 . S
O182 C184 1.166 . S
O183 Zn168 1.905 . S
O183 C184 1.182 . S
C184 O182 1.166 . S
C184 O183 1.182 . S
O185 Zn170 2.080 . S
O185 C188 1.305 . S
O186 Zn169 1.920 . S
O186 C188 1.234 . S
C187 O173 1.305 . S
C187 O174 1.234 . S
C188 O185 1.305 . S
C188 O186 1.234 . S
Zn189 O195 1.920 . S
Zn189 O201 1.898 . S
Zn189 O204 1.905 . S
Zn190 O198 1.905 . S
Zn190 O199 1.898 . S
Zn190 O207 1.920 . S
Zn191 O194 2.080 . S
Zn191 O197 2.114 . S
Zn191 O200 2.120 . S
Zn191 O202 2.120 . S
Zn191 O203 2.114 . S
Zn191 O206 2.080 . S
C192 O197 1.166 . S
C192 O198 1.182 . S
C193 O199 1.167 . S
C193 O200 1.299 . S
O194 Zn191 2.080 . S
O194 C208 1.305 . S
O195 Zn189 1.920 . S
O195 C208 1.234 . S
C196 O201 1.167 . S
C196 O202 1.299 . S
O197 Zn191 2.114 . S
O197 C192 1.166 . S
O198 Zn190 1.905 . S
O198 C192 1.182 . S
O199 Zn190 1.898 . S
O199 C193 1.167 . S
O200 Zn191 2.120 . S
O200 C193 1.299 . S
O201 Zn189 1.898 . S
O201 C196 1.167 . S
O202 Zn191 2.120 . S
O202 C196 1.299 . S
O203 Zn191 2.114 . S
O203 C205 1.166 . S
O204 Zn189 1.905 . S
O204 C205 1.182 . S
C205 O203 1.166 . S
C205 O204 1.182 . S
O206 Zn191 2.080 . S
O206 C209 1.305 . S
O207 Zn190 1.920 . S
O207 C209 1.234 . S
C208 O194 1.305 . S
C208 O195 1.234 . S
C209 O206 1.305 . S
C209 O207 1.234 . S
Zn210 O216 1.920 . S
Zn210 O222 1.898 . S
Zn210 O225 1.905 . S
Zn211 O219 1.905 . S
Zn211 O220 1.898 . S
Zn211 O228 1.920 . S
Zn212 O215 2.080 . S
Zn212 O218 2.114 . S
Zn212 O221 2.120 . S
Zn212 O223 2.120 . S
Zn212 O224 2.114 . S
Zn212 O227 2.080 . S
C213 O218 1.166 . S
C213 O219 1.182 . S
C214 O220 1.167 . S
C214 O221 1.299 . S
O215 Zn212 2.080 . S
O215 C229 1.305 . S
O216 Zn210 1.920 . S
O216 C229 1.234 . S
C217 O222 1.167 . S
C217 O223 1.299 . S
O218 Zn212 2.114 . S
O218 C213 1.166 . S
O219 Zn211 1.905 . S
O219 C213 1.182 . S
O220 Zn211 1.898 . S
O220 C214 1.167 . S
O221 Zn212 2.120 . S
O221 C214 1.299 . S
O222 Zn210 1.898 . S
O222 C217 1.167 . S
O223 Zn212 2.120 . S
O223 C217 1.299 . S
O224 Zn212 2.114 . S
O224 C226 1.166 . S
O225 Zn210 1.905 . S
O225 C226 1.182 . S
C226 O224 1.166 . S
C226 O225 1.182 . S
O227 Zn212 2.080 . S
O227 C230 1.305 . S
O228 Zn211 1.920 . S
O228 C230 1.234 . S
C229 O215 1.305 . S
C229 O216 1.234 . S
C230 O227 1.305 . S
C230 O228 1.234 . S
Zn231 O237 1.920 . S
Zn231 O243 1.898 . S
Zn231 O246 1.905 . S
Zn232 O240 1.905 . S
Zn232 O241 1.898 . S
Zn232 O249 1.920 . S
Zn233 O236 2.080 . S
Zn233 O239 2.114 . S
Zn233 O242 2.120 . S
Zn233 O244 2.120 . S
Zn233 O245 2.114 . S
Zn233 O248 2.080 . S
C234 O239 1.166 . S
C234 O240 1.182 . S
C235 O241 1.167 . S
C235 O242 1.299 . S
O236 Zn233 2.080 . S
O236 C250 1.305 . S
O237 Zn231 1.920 . S
O237 C250 1.234 . S
C238 O243 1.167 . S
C238 O244 1.299 . S
O239 Zn233 2.114 . S
O239 C234 1.166 . S
O240 Zn232 1.905 . S
O240 C234 1.182 . S
O241 Zn232 1.898 . S
O241 C235 1.167 . S
O242 Zn233 2.120 . S
O242 C235 1.299 . S
O243 Zn231 1.898 . S
O243 C238 1.167 . S
O244 Zn233 2.120 . S
O244 C238 1.299 . S
O245 Zn233 2.114 . S
O245 C247 1.166 . S
O246 Zn231 1.905 . S
O246 C247 1.182 . S
C247 O245 1.166 . S
C247 O246 1.182 . S
O248 Zn233 2.080 . S
O248 C251 1.305 . S
O249 Zn232 1.920 . S
O249 C251 1.234 . S
C250 O236 1.305 . S
C250 O237 1.234 . S
C251 O248 1.305 . S
C251 O249 1.234 . S
Zn252 O258 1.920 . S
Zn252 O264 1.898 . S
Zn252 O267 1.905 . S
Zn253 O261 1.905 . S
Zn253 O262 1.898 . S
Zn253 O270 1.920 . S
Zn254 O257 2.080 . S
Zn254 O260 2.114 . S
Zn254 O263 2.120 . S
Zn254 O265 2.120 . S
Zn254 O266 2.114 . S
Zn254 O269 2.080 . S
C255 O260 1.166 . S
C255 O261 1.182 . S
C256 O262 1.167 . S
C256 O263 1.299 . S
O257 Zn254 2.080 . S
O257 C271 1.305 . S
O258 Zn252 1.920 . S
O258 C271 1.234 . S
C259 O264 1.167 . S
C259 O265 1.299 . S
O260 Zn254 2.114 . S
O260 C255 1.166 . S
O261 Zn253 1.905 . S
O261 C255 1.182 . S
O262 Zn253 1.898 . S
O262 C256 1.167 . S
O263 Zn254 2.120 . S
O263 C256 1.299 . S
O264 Zn252 1.898 . S
O264 C259 1.167 . S
O265 Zn254 2.120 . S
O265 C259 1.299 . S
O266 Zn254 2.114 . S
O266 C268 1.166 . S
O267 Zn252 1.905 . S
O267 C268 1.182 . S
C268 O266 1.166 . S
C268 O267 1.182 . S
O269 Zn254 2.080 . S
O269 C272 1.305 . S
O270 Zn253 1.920 . S
O270 C272 1.234 . S
C271 O257 1.305 . S
C271 O258 1.234 . S
C272 O269 1.305 . S
C272 O270 1.234 . S
Zn273 O279 1.920 . S
Zn273 O285 1.898 . S
Zn273 O288 1.905 . S
Zn274 O282 1.905 . S
Zn274 O283 1.898 . S
Zn274 O291 1.920 . S
Zn275 O278 2.080 . S
Zn275 O281 2.114 . S
Zn275 O284 2.120 . S
Zn275 O286 2.120 . S
Zn275 O287 2.114 . S
Zn275 O290 2.080 . S
C276 O281 1.166 . S
C276 O282 1.182 . S
C277 O283 1.167 . S
C277 O284 1.299 . S
O278 Zn275 2.080 . S
O278 C292 1.305 . S
O279 Zn273 1.920 . S
O279 C292 1.234 . S
C280 O285 1.167 . S
C280 O286 1.299 . S
O281 Zn275 2.114 . S
O281 C276 1.166 . S
O282 Zn274 1.905 . S
O282 C276 1.182 . S
O283 Zn274 1.898 . S
O283 C277 1.167 . S
O284 Zn275 2.120 . S
O284 C277 1.299 . S
O285 Zn273 1.898 . S
O285 C280 1.167 . S
O286 Zn275 2.120 . S
O286 C280 1.299 . S
O287 Zn275 2.114 . S
O287 C289 1.166 . S
O288 Zn273 1.905 . S
O288 C289 1.182 . S
C289 O287 1.166 . S
C289 O288 1.182 . S
O290 Zn275 2.080 . S
O290 C293 1.305 . S
O291 Zn274 1.920 . S
O291 C293 1.234 . S
C292 O278 1.305 . S
C292 O279 1.234 . S
C293 O290 1.305 . S
C293 O291 1.234 . S
Zn294 O300 1.920 . S
Zn294 O306 1.898 . S
Zn294 O309 1.905 . S
Zn295 O303 1.905 . S
Zn295 O304 1.898 . S
Zn295 O312 1.920 . S
Zn296 O299 2.080 . S
Zn296 O302 2.114 . S
Zn296 O305 2.120 . S
Zn296 O307 2.120 . S
Zn296 O308 2.114 . S
Zn296 O311 2.080 . S
C297 O302 1.166 . S
C297 O303 1.182 . S
C298 O304 1.167 . S
C298 O305 1.299 . S
O299 Zn296 2.080 . S
O299 C313 1.305 . S
O300 Zn294 1.920 . S
O300 C313 1.234 . S
C301 O306 1.167 . S
C301 O307 1.299 . S
O302 Zn296 2.114 . S
O302 C297 1.166 . S
O303 Zn295 1.905 . S
O303 C297 1.182 . S
O304 Zn295 1.898 . S
O304 C298 1.167 . S
O305 Zn296 2.120 . S
O305 C298 1.299 . S
O306 Zn294 1.898 . S
O306 C301 1.167 . S
O307 Zn296 2.120 . S
O307 C301 1.299 . S
O308 Zn296 2.114 . S
O308 C310 1.166 . S
O309 Zn294 1.905 . S
O309 C310 1.182 . S
C310 O308 1.166 . S
C310 O309 1.182 . S
O311 Zn296 2.080 . S
O311 C314 1.305 . S
O312 Zn295 1.920 . S
O312 C314 1.234 . S
C313 O299 1.305 . S
C313 O300 1.234 . S
C314 O311 1.305 . S
C314 O312 1.234 . S
Zn315 O321 1.920 . S
Zn315 O327 1.898 . S
Zn315 O330 1.905 . S
Zn316 O324 1.905 . S
Zn316 O325 1.898 . S
Zn316 O333 1.920 . S
Zn317 O320 2.080 . S
Zn317 O323 2.114 . S
Zn317 O326 2.120 . S
Zn317 O328 2.120 . S
Zn317 O329 2.114 . S
Zn317 O332 2.080 . S
C318 O323 1.166 . S
C318 O324 1.182 . S
C319 O325 1.167 . S
C319 O326 1.299 . S
O320 Zn317 2.080 . S
O320 C334 1.305 . S
O321 Zn315 1.920 . S
O321 C334 1.234 . S
C322 O327 1.167 . S
C322 O328 1.299 . S
O323 Zn317 2.114 . S
O323 C318 1.166 . S
O324 Zn316 1.905 . S
O324 C318 1.182 . S
O325 Zn316 1.898 . S
O325 C319 1.167 . S
O326 Zn317 2.120 . S
O326 C319 1.299 . S
O327 Zn315 1.898 . S
O327 C322 1.167 . S
O328 Zn317 2.120 . S
O328 C322 1.299 . S
O329 Zn317 2.114 . S
O329 C331 1.166 . S
O330 Zn315 1.905 . S
O330 C331 1.182 . S
C331 O329 1.166 . S
C331 O330 1.182 . S
O332 Zn317 2.080 . S
O332 C335 1.305 . S
O333 Zn316 1.920 . S
O333 C335 1.234 . S
C334 O320 1.305 . S
C334 O321 1.234 . S
C335 O332 1.305 . S
C335 O333 1.234 . S
C336 O363 1.312 . S
C336 O364 1.208 . S
C337 O358 1.331 . S
C337 O361 1.244 . S
C338 O360 1.264 . S
C338 O362 1.273 . S
Mg339 O341 1.936 1_455 S
Mg339 O348 2.081 1_455 S
Mg339 O350 2.023 . S
Mg339 O354 2.029 1_455 S
Mg339 O363 2.291 . S
Mg340 O341 1.963 . S
Mg340 O351 1.942 . S
Mg340 O352 1.955 1_655 S
Mg340 O359 1.986 . S
O341 Mg339 1.936 1_655 S
O341 Mg340 1.963 . S
O341 Mg342 1.915 . S
Mg342 O341 1.915 . S
Mg342 O343 1.915 1_655 S
Mg342 O347 2.013 1_655 S
Mg342 O353 2.114 . S
Mg342 O357 2.013 . S
Mg342 O363 2.114 1_655 S
O343 Mg342 1.915 1_455 S
O343 Mg344 1.936 . S
O343 Mg345 1.963 1_455 S
Mg344 O343 1.936 . S
Mg344 O353 2.291 1_455 S
Mg344 O358 2.081 . S
Mg344 O360 2.023 1_455 S
Mg344 O364 2.031 . S
Mg345 O343 1.963 1_655 S
Mg345 O349 1.986 1_655 S
Mg345 O361 1.942 1_655 S
Mg345 O362 1.955 . S
C346 O357 1.191 . S
C346 O359 1.307 . S
O347 Mg342 2.013 1_455 S
O347 C366 1.191 . S
O348 Mg339 2.081 1_655 S
O348 C356 1.331 . S
O349 Mg345 1.986 1_455 S
O349 C366 1.307 . S
O350 Mg339 2.023 . S
O350 C365 1.264 . S
O351 Mg340 1.942 . S
O351 C356 1.244 . S
O352 Mg340 1.955 1_455 S
O352 C365 1.273 . S
O353 Mg342 2.114 . S
O353 Mg344 2.291 1_655 S
O353 C355 1.312 . S
O354 Mg339 2.029 1_655 S
O354 C355 1.210 . S
C355 O353 1.312 . S
C355 O354 1.210 . S
C356 O348 1.331 . S
C356 O351 1.244 . S
O357 Mg342 2.013 . S
O357 C346 1.191 . S
O358 C337 1.331 . S
O358 Mg344 2.081 . S
O359 Mg340 1.986 . S
O359 C346 1.307 . S
O360 C338 1.264 . S
O360 Mg344 2.023 1_655 S
O361 C337 1.244 . S
O361 Mg345 1.942 1_455 S
O362 C338 1.273 . S
O362 Mg345 1.955 . S
O363 C336 1.312 . S
O363 Mg339 2.291 . S
O363 Mg342 2.114 1_455 S
O364 C336 1.208 . S
O364 Mg344 2.031 . S
C365 O350 1.264 . S
C365 O352 1.273 . S
C366 O347 1.191 . S
C366 O349 1.307 . S
C367 O394 1.312 . S
C367 O395 1.208 . S
C368 O389 1.331 . S
C368 O392 1.244 . S
C369 O391 1.264 . S
C369 O393 1.273 . S
Mg370 O372 1.936 . S
Mg370 O379 2.081 . S
Mg370 O381 2.023 . S
Mg370 O385 2.031 . S
Mg370 O394 2.291 . S
Mg371 O372 1.963 . S
Mg371 O382 1.942 . S
Mg371 O383 1.955 . S
Mg371 O390 1.986 . S
O372 Mg370 1.936 . S
O372 Mg371 1.963 . S
O372 Mg373 1.915 . S
Mg373 O372 1.915 . S
Mg373 O374 1.915 . S
Mg373 O378 2.013 . S
Mg373 O384 2.114 . S
Mg373 O388 2.013 . S
Mg373 O394 2.114 . S
O374 Mg373 1.915 . S
O374 Mg375 1.936 . S
O374 Mg376 1.963 . S
Mg375 O374 1.936 . S
Mg375 O384 2.291 . S
Mg375 O389 2.081 . S
Mg375 O391 2.023 . S
Mg375 O395 2.031 . S
Mg376 O374 1.963 . S
Mg376 O380 1.986 . S
Mg376 O392 1.942 . S
Mg376 O393 1.955 . S
C377 O388 1.191 . S
C377 O390 1.307 . S
O378 Mg373 2.013 . S
O378 C397 1.191 . S
O379 Mg370 2.081 . S
O379 C387 1.331 . S
O380 Mg376 1.986 . S
O380 C397 1.307 . S
O381 Mg370 2.023 . S
O381 C396 1.264 . S
O382 Mg371 1.942 . S
O382 C387 1.244 . S
O383 Mg371 1.955 . S
O383 C396 1.273 . S
O384 Mg373 2.114 . S
O384 Mg375 2.291 . S
O384 C386 1.312 . S
O385 Mg370 2.031 . S
O385 C386 1.208 . S
C386 O384 1.312 . S
C386 O385 1.208 . S
C387 O379 1.331 . S
C387 O382 1.244 . S
O388 Mg373 2.013 . S
O388 C377 1.191 . S
O389 C368 1.331 . S
O389 Mg375 2.081 . S
O390 Mg371 1.986 . S
O390 C377 1.307 . S
O391 C369 1.264 . S
O391 Mg375 2.023 . S
O392 C368 1.244 . S
O392 Mg376 1.942 . S
O393 C369 1.273 . S
O393 Mg376 1.955 . S
O394 C367 1.312 . S
O394 Mg370 2.291 . S
O394 Mg373 2.114 . S
O395 C367 1.208 . S
O395 Mg375 2.031 . S
C396 O381 1.264 . S
C396 O383 1.273 . S
C397 O378 1.191 . S
C397 O380 1.307 . S
C398 O425 1.312 . S
C398 O426 1.210 . S
C399 O420 1.331 . S
C399 O423 1.244 . S
C400 O422 1.264 . S
C400 O424 1.273 . S
Mg401 O403 1.936 . S
Mg401 O410 2.081 . S
Mg401 O412 2.023 1_455 S
Mg401 O416 2.031 . S
Mg401 O425 2.291 1_455 S
Mg402 O403 1.963 1_655 S
Mg402 O413 1.942 1_655 S
Mg402 O414 1.955 . S
Mg402 O421 1.986 1_655 S
O403 Mg401 1.936 . S
O403 Mg402 1.963 1_455 S
O403 Mg404 1.915 1_455 S
Mg404 O403 1.915 1_655 S
Mg404 O405 1.915 . S
Mg404 O409 2.013 . S
Mg404 O415 2.114 1_655 S
Mg404 O419 2.013 1_655 S
Mg404 O425 2.114 . S
O405 Mg404 1.915 . S
O405 Mg406 1.936 1_655 S
O405 Mg407 1.963 . S
Mg406 O405 1.936 1_455 S
Mg406 O415 2.291 . S
Mg406 O420 2.081 1_455 S
Mg406 O422 2.023 . S
Mg406 O426 2.029 1_455 S
Mg407 O405 1.963 . S
Mg407 O411 1.986 . S
Mg407 O423 1.942 . S
Mg407 O424 1.955 1_655 S
C408 O419 1.191 . S
C408 O421 1.307 . S
O409 Mg404 2.013 . S
O409 C428 1.191 . S
O410 Mg401 2.081 . S
O410 C418 1.331 . S
O411 Mg407 1.986 . S
O411 C428 1.307 . S
O412 Mg401 2.023 1_655 S
O412 C427 1.264 . S
O413 Mg402 1.942 1_455 S
O413 C418 1.244 . S
O414 Mg402 1.955 . S
O414 C427 1.273 . S
O415 Mg404 2.114 1_455 S
O415 Mg406 2.291 . S
O415 C417 1.312 . S
O416 Mg401 2.031 . S
O416 C417 1.208 . S
C417 O415 1.312 . S
C417 O416 1.208 . S
C418 O410 1.331 . S
C418 O413 1.244 . S
O419 Mg404 2.013 1_455 S
O419 C408 1.191 . S
O420 C399 1.331 . S
O420 Mg406 2.081 1_655 S
O421 Mg402 1.986 1_455 S
O421 C408 1.307 . S
O422 C400 1.264 . S
O422 Mg406 2.023 . S
O423 C399 1.244 . S
O423 Mg407 1.942 . S
O424 C400 1.273 . S
O424 Mg407 1.955 1_455 S
O425 C398 1.312 . S
O425 Mg401 2.291 1_655 S
O425 Mg404 2.114 . S
O426 C398 1.210 . S
O426 Mg406 2.029 1_655 S
C427 O412 1.264 . S
C427 O414 1.273 . S
C428 O409 1.191 . S
C428 O411 1.307 . S
C429 O456 1.312 . S
C429 O457 1.207 . S
C430 O451 1.331 . S
C430 O454 1.244 . S
C431 O453 1.264 . S
C431 O455 1.273 . S
Mg432 O434 1.936 . S
Mg432 O441 2.081 . S
Mg432 O443 2.023 1_545 S
Mg432 O447 2.031 . S
Mg432 O456 2.291 1_545 S
Mg433 O434 1.963 1_565 S
Mg433 O444 1.942 1_565 S
Mg433 O445 1.955 . S
Mg433 O452 1.986 1_565 S
O434 Mg432 1.936 . S
O434 Mg433 1.963 1_545 S
O434 Mg435 1.905 1_545 S
Mg435 O434 1.905 1_565 S
Mg435 O436 1.925 . S
Mg435 O440 2.051 . S
Mg435 O446 2.079 1_565 S
Mg435 O450 2.002 1_565 S
Mg435 O456 2.119 . S
O436 Mg435 1.925 . S
O436 Mg437 1.936 1_565 S
O436 Mg438 1.963 . S
Mg437 O436 1.936 1_545 S
Mg437 O446 2.291 . S
Mg437 O451 2.081 1_545 S
Mg437 O453 2.023 . S
Mg437 O457 2.032 1_545 S
Mg438 O436 1.963 . S
Mg438 O442 1.986 . S
Mg438 O454 1.942 . S
Mg438 O455 1.955 1_565 S
C439 O450 1.191 . S
C439 O452 1.307 . S
O440 Mg435 2.051 . S
O440 C459 1.191 . S
O441 Mg432 2.081 . S
O441 C449 1.331 . S
O442 Mg438 1.986 . S
O442 C459 1.307 . S
O443 Mg432 2.023 1_565 S
O443 C458 1.264 . S
O444 Mg433 1.942 1_545 S
O444 C449 1.244 . S
O445 Mg433 1.955 . S
O445 C458 1.273 . S
O446 Mg435 2.079 1_545 S
O446 Mg437 2.291 . S
O446 C448 1.312 . S
O447 Mg432 2.031 . S
O447 C448 1.208 . S
C448 O446 1.312 . S
C448 O447 1.208 . S
C449 O441 1.331 . S
C449 O444 1.244 . S
O450 Mg435 2.002 1_545 S
O450 C439 1.191 . S
O451 C430 1.331 . S
O451 Mg437 2.081 1_565 S
O452 Mg433 1.986 1_545 S
O452 C439 1.307 . S
O453 C431 1.264 . S
O453 Mg437 2.023 . S
O454 C430 1.244 . S
O454 Mg438 1.942 . S
O455 C431 1.273 . S
O455 Mg438 1.955 1_545 S
O456 C429 1.312 . S
O456 Mg432 2.291 1_565 S
O456 Mg435 2.119 . S
O457 C429 1.207 . S
O457 Mg437 2.032 1_565 S
C458 O443 1.264 . S
C458 O445 1.273 . S
C459 O440 1.191 . S
C459 O442 1.307 . S
C460 O487 1.312 . S
C460 O488 1.208 . S
C461 O482 1.331 . S
C461 O485 1.244 . S
C462 O484 1.264 . S
C462 O486 1.273 . S
Mg463 O465 1.936 1_554 S
Mg463 O472 2.081 1_554 S
Mg463 O474 2.023 . S
Mg463 O478 2.028 1_554 S
Mg463 O487 2.291 . S
Mg464 O465 1.963 . S
Mg464 O475 1.942 . S
Mg464 O476 1.955 1_556 S
Mg464 O483 1.986 . S
O465 Mg463 1.936 1_556 S
O465 Mg464 1.963 . S
O465 Mg466 1.915 . S
Mg466 O465 1.915 . S
Mg466 O467 1.915 1_556 S
Mg466 O471 2.013 1_556 S
Mg466 O477 2.114 . S
Mg466 O481 2.013 . S
Mg466 O487 2.114 1_556 S
O467 Mg466 1.915 1_554 S
O467 Mg468 1.936 . S
O467 Mg469 1.963 1_554 S
Mg468 O467 1.936 . S
Mg468 O477 2.291 1_554 S
Mg468 O482 2.081 . S
Mg468 O484 2.023 1_554 S
Mg468 O488 2.031 . S
Mg469 O467 1.963 1_556 S
Mg469 O473 1.986 1_556 S
Mg469 O485 1.942 1_556 S
Mg469 O486 1.955 . S
C470 O481 1.191 . S
C470 O483 1.307 . S
O471 Mg466 2.013 1_554 S
O471 C490 1.191 . S
O472 Mg463 2.081 1_556 S
O472 C480 1.331 . S
O473 Mg469 1.986 1_554 S
O473 C490 1.307 . S
O474 Mg463 2.023 . S
O474 C489 1.264 . S
O475 Mg464 1.942 . S
O475 C480 1.244 . S
O476 Mg464 1.955 1_554 S
O476 C489 1.273 . S
O477 Mg466 2.114 . S
O477 Mg468 2.291 1_556 S
O477 C479 1.312 . S
O478 Mg463 2.028 1_556 S
O478 C479 1.211 . S
C479 O477 1.312 . S
C479 O478 1.211 . S
C480 O472 1.331 . S
C480 O475 1.244 . S
O481 Mg466 2.013 . S
O481 C470 1.191 . S
O482 C461 1.331 . S
O482 Mg468 2.081 . S
O483 Mg464 1.986 . S
O483 C470 1.307 . S
O484 C462 1.264 . S
O484 Mg468 2.023 1_556 S
O485 C461 1.244 . S
O485 Mg469 1.942 1_554 S
O486 C462 1.273 . S
O486 Mg469 1.955 . S
O487 C460 1.312 . S
O487 Mg463 2.291 . S
O487 Mg466 2.114 1_554 S
O488 C460 1.208 . S
O488 Mg468 2.031 . S
C489 O474 1.264 . S
C489 O476 1.273 . S
C490 O471 1.191 . S
C490 O473 1.307 . S
C491 O518 1.312 . S
C491 O519 1.208 . S
C492 O513 1.331 . S
C492 O516 1.244 . S
C493 O515 1.264 . S
C493 O517 1.273 . S
Mg494 O496 1.936 . S
Mg494 O503 2.081 . S
Mg494 O505 2.023 . S
Mg494 O509 2.031 . S
Mg494 O518 2.291 . S
Mg495 O496 1.963 . S
Mg495 O506 1.942 . S
Mg495 O507 1.955 . S
Mg495 O514 1.986 . S
O496 Mg494 1.936 . S
O496 Mg495 1.963 . S
O496 Mg497 1.915 . S
Mg497 O496 1.915 . S
Mg497 O498 1.915 . S
Mg497 O502 2.013 . S
Mg497 O508 2.114 . S
Mg497 O512 2.013 . S
Mg497 O518 2.114 . S
O498 Mg497 1.915 . S
O498 Mg499 1.936 . S
O498 Mg500 1.963 . S
Mg499 O498 1.936 . S
Mg499 O508 2.291 . S
Mg499 O513 2.081 . S
Mg499 O515 2.023 . S
Mg499 O519 2.031 . S
Mg500 O498 1.963 . S
Mg500 O504 1.986 . S
Mg500 O516 1.942 . S
Mg500 O517 1.955 . S
C501 O512 1.191 . S
C501 O514 1.307 . S
O502 Mg497 2.013 . S
O502 C521 1.191 . S
O503 Mg494 2.081 . S
O503 C511 1.331 . S
O504 Mg500 1.986 . S
O504 C521 1.307 . S
O505 Mg494 2.023 . S
O505 C520 1.264 . S
O506 Mg495 1.942 . S
O506 C511 1.244 . S
O507 Mg495 1.955 . S
O507 C520 1.273 . S
O508 Mg497 2.114 . S
O508 Mg499 2.291 . S
O508 C510 1.312 . S
O509 Mg494 2.031 . S
O509 C510 1.208 . S
C510 O508 1.312 . S
C510 O509 1.208 . S
C511 O503 1.331 . S
C511 O506 1.244 . S
O512 Mg497 2.013 . S
O512 C501 1.191 . S
O513 C492 1.331 . S
O513 Mg499 2.081 . S
O514 Mg495 1.986 . S
O514 C501 1.307 . S
O515 C493 1.264 . S
O515 Mg499 2.023 . S
O516 C492 1.244 . S
O516 Mg500 1.942 . S
O517 C493 1.273 . S
O517 Mg500 1.955 . S
O518 C491 1.312 . S
O518 Mg494 2.291 . S
O518 Mg497 2.114 . S
O519 C491 1.208 . S
O519 Mg499 2.031 . S
C520 O505 1.264 . S
C520 O507 1.273 . S
C521 O502 1.191 . S
C521 O504 1.307 . S
C522 O549 1.312 . S
C522 O550 1.208 . S
C523 O544 1.331 . S
C523 O547 1.244 . S
C524 O546 1.264 . S
C524 O548 1.273 . S
Mg525 O527 1.936 . S
Mg525 O534 2.081 . S
Mg525 O536 2.023 1_556 S
Mg525 O540 2.031 . S
Mg525 O549 2.291 1_556 S
Mg526 O527 1.963 1_554 S
Mg526 O537 1.942 1_554 S
Mg526 O538 1.955 . S
Mg526 O545 1.986 1_554 S
O527 Mg525 1.936 . S
O527 Mg526 1.963 1_556 S
O527 Mg528 1.915 1_556 S
Mg528 O527 1.915 1_554 S
Mg528 O529 1.915 . S
Mg528 O533 2.013 . S
Mg528 O539 2.114 1_554 S
Mg528 O543 2.013 1_554 S
Mg528 O549 2.114 . S
O529 Mg528 1.915 . S
O529 Mg530 1.936 1_554 S
O529 Mg531 1.963 . S
Mg530 O529 1.936 1_556 S
Mg530 O539 2.291 . S
Mg530 O544 2.081 1_556 S
Mg530 O546 2.023 . S
Mg530 O550 2.031 1_556 S
Mg531 O529 1.963 . S
Mg531 O535 1.986 . S
Mg531 O547 1.942 . S
Mg531 O548 1.955 1_554 S
C532 O543 1.191 . S
C532 O545 1.307 . S
O533 Mg528 2.013 . S
O533 C552 1.191 . S
O534 Mg525 2.081 . S
O534 C542 1.331 . S
O535 Mg531 1.986 . S
O535 C552 1.307 . S
O536 Mg525 2.023 1_554 S
O536 C551 1.264 . S
O537 Mg526 1.942 1_556 S
O537 C542 1.244 . S
O538 Mg526 1.955 . S
O538 C551 1.273 . S
O539 Mg528 2.114 1_556 S
O539 Mg530 2.291 . S
O539 C541 1.312 . S
O540 Mg525 2.031 . S
O540 C541 1.208 . S
C541 O539 1.312 . S
C541 O540 1.208 . S
C542 O534 1.331 . S
C542 O537 1.244 . S
O543 Mg528 2.013 1_556 S
O543 C532 1.191 . S
O544 C523 1.331 . S
O544 Mg530 2.081 1_554 S
O545 Mg526 1.986 1_556 S
O545 C532 1.307 . S
O546 C524 1.264 . S
O546 Mg530 2.023 . S
O547 C523 1.244 . S
O547 Mg531 1.942 . S
O548 C524 1.273 . S
O548 Mg531 1.955 1_556 S
O549 C522 1.312 . S
O549 Mg525 2.291 1_554 S
O549 Mg528 2.114 . S
O550 C522 1.208 . S
O550 Mg530 2.031 1_554 S
C551 O536 1.264 . S
C551 O538 1.273 . S
C552 O533 1.191 . S
C552 O535 1.307 . S
C553 O580 1.312 . S
C553 O581 1.208 . S
C554 O575 1.331 . S
C554 O578 1.244 . S
C555 O577 1.264 . S
C555 O579 1.273 . S
Mg556 O558 1.936 . S
Mg556 O565 2.081 . S
Mg556 O567 2.023 . S
Mg556 O571 2.031 . S
Mg556 O580 2.291 . S
Mg557 O558 1.963 . S
Mg557 O568 1.942 . S
Mg557 O569 1.955 . S
Mg557 O576 1.986 . S
O558 Mg556 1.936 . S
O558 Mg557 1.963 . S
O558 Mg559 1.915 . S
Mg559 O558 1.915 . S
Mg559 O560 1.915 . S
Mg559 O564 2.013 . S
Mg559 O570 2.114 . S
Mg559 O574 2.013 . S
Mg559 O580 2.114 . S
O560 Mg559 1.915 . S
O560 Mg561 1.936 . S
O560 Mg562 1.963 . S
Mg561 O560 1.936 . S
Mg561 O570 2.291 . S
Mg561 O575 2.081 . S
Mg561 O577 2.023 . S
Mg561 O581 2.031 . S
Mg562 O560 1.963 . S
Mg562 O566 1.986 . S
Mg562 O578 1.942 . S
Mg562 O579 1.955 . S
C563 O574 1.191 . S
C563 O576 1.307 . S
O564 Mg559 2.013 . S
O564 C583 1.191 . S
O565 Mg556 2.081 . S
O565 C573 1.331 . S
O566 Mg562 1.986 . S
O566 C583 1.307 . S
O567 Mg556 2.023 . S
O567 C582 1.264 . S
O568 Mg557 1.942 . S
O568 C573 1.244 . S
O569 Mg557 1.955 . S
O569 C582 1.273 . S
O570 Mg559 2.114 . S
O570 Mg561 2.291 . S
O570 C572 1.312 . S
O571 Mg556 2.031 . S
O571 C572 1.208 . S
C572 O570 1.312 . S
C572 O571 1.208 . S
C573 O565 1.331 . S
C573 O568 1.244 . S
O574 Mg559 2.013 . S
O574 C563 1.191 . S
O575 C554 1.331 . S
O575 Mg561 2.081 . S
O576 Mg557 1.986 . S
O576 C563 1.307 . S
O577 C555 1.264 . S
O577 Mg561 2.023 . S
O578 C554 1.244 . S
O578 Mg562 1.942 . S
O579 C555 1.273 . S
O579 Mg562 1.955 . S
O580 C553 1.312 . S
O580 Mg556 2.291 . S
O580 Mg559 2.114 . S
O581 C553 1.208 . S
O581 Mg561 2.031 . S
C582 O567 1.264 . S
C582 O569 1.273 . S
C583 O564 1.191 . S
C583 O566 1.307 . S
C584 O611 1.312 . S
C584 O612 1.208 . S
C585 O606 1.331 . S
C585 O609 1.244 . S
C586 O608 1.264 . S
C586 O610 1.273 . S
Mg587 O589 1.936 . S
Mg587 O596 2.081 . S
Mg587 O598 2.023 . S
Mg587 O602 2.031 . S
Mg587 O611 2.291 . S
Mg588 O589 1.963 . S
Mg588 O599 1.942 . S
Mg588 O600 1.955 . S
Mg588 O607 1.986 . S
O589 Mg587 1.936 . S
O589 Mg588 1.963 . S
O589 Mg590 1.915 . S
Mg590 O589 1.915 . S
Mg590 O591 1.915 . S
Mg590 O595 2.013 . S
Mg590 O601 2.114 . S
Mg590 O605 2.013 . S
Mg590 O611 2.114 . S
O591 Mg590 1.915 . S
O591 Mg592 1.936 . S
O591 Mg593 1.963 . S
Mg592 O591 1.936 . S
Mg592 O601 2.291 . S
Mg592 O606 2.081 . S
Mg592 O608 2.023 . S
Mg592 O612 2.031 . S
Mg593 O591 1.963 . S
Mg593 O597 1.986 . S
Mg593 O609 1.942 . S
Mg593 O610 1.955 . S
C594 O605 1.191 . S
C594 O607 1.307 . S
O595 Mg590 2.013 . S
O595 C614 1.191 . S
O596 Mg587 2.081 . S
O596 C604 1.331 . S
O597 Mg593 1.986 . S
O597 C614 1.307 . S
O598 Mg587 2.023 . S
O598 C613 1.264 . S
O599 Mg588 1.942 . S
O599 C604 1.244 . S
O600 Mg588 1.955 . S
O600 C613 1.273 . S
O601 Mg590 2.114 . S
O601 Mg592 2.291 . S
O601 C603 1.312 . S
O602 Mg587 2.031 . S
O602 C603 1.208 . S
C603 O601 1.312 . S
C603 O602 1.208 . S
C604 O596 1.331 . S
C604 O599 1.244 . S
O605 Mg590 2.013 . S
O605 C594 1.191 . S
O606 C585 1.331 . S
O606 Mg592 2.081 . S
O607 Mg588 1.986 . S
O607 C594 1.307 . S
O608 C586 1.264 . S
O608 Mg592 2.023 . S
O609 C585 1.244 . S
O609 Mg593 1.942 . S
O610 C586 1.273 . S
O610 Mg593 1.955 . S
O611 C584 1.312 . S
O611 Mg587 2.291 . S
O611 Mg590 2.114 . S
O612 C584 1.208 . S
O612 Mg592 2.031 . S
C613 O598 1.264 . S
C613 O600 1.273 . S
C614 O595 1.191 . S
C614 O597 1.307 . S
C615 O642 1.312 . S
C615 O643 1.208 . S
C616 O637 1.331 . S
C616 O640 1.244 . S
C617 O639 1.264 . S
C617 O641 1.273 . S
Mg618 O620 1.936 . S
Mg618 O627 2.081 . S
Mg618 O629 2.023 . S
Mg618 O633 2.031 . S
Mg618 O642 2.291 . S
Mg619 O620 1.963 . S
Mg619 O630 1.942 . S
Mg619 O631 1.955 . S
Mg619 O638 1.986 . S
O620 Mg618 1.936 . S
O620 Mg619 1.963 . S
O620 Mg621 1.915 . S
Mg621 O620 1.915 . S
Mg621 O622 1.915 . S
Mg621 O626 2.013 . S
Mg621 O632 2.114 . S
Mg621 O636 2.013 . S
Mg621 O642 2.114 . S
O622 Mg621 1.915 . S
O622 Mg623 1.936 . S
O622 Mg624 1.963 . S
Mg623 O622 1.936 . S
Mg623 O632 2.291 . S
Mg623 O637 2.081 . S
Mg623 O639 2.023 . S
Mg623 O643 2.031 . S
Mg624 O622 1.963 . S
Mg624 O628 1.986 . S
Mg624 O640 1.942 . S
Mg624 O641 1.955 . S
C625 O636 1.191 . S
C625 O638 1.307 . S
O626 Mg621 2.013 . S
O626 C645 1.191 . S
O627 Mg618 2.081 . S
O627 C635 1.331 . S
O628 Mg624 1.986 . S
O628 C645 1.307 . S
O629 Mg618 2.023 . S
O629 C644 1.264 . S
O630 Mg619 1.942 . S
O630 C635 1.244 . S
O631 Mg619 1.955 . S
O631 C644 1.273 . S
O632 Mg621 2.114 . S
O632 Mg623 2.291 . S
O632 C634 1.312 . S
O633 Mg618 2.031 . S
O633 C634 1.208 . S
C634 O632 1.312 . S
C634 O633 1.208 . S
C635 O627 1.331 . S
C635 O630 1.244 . S
O636 Mg621 2.013 . S
O636 C625 1.191 . S
O637 C616 1.331 . S
O637 Mg623 2.081 . S
O638 Mg619 1.986 . S
O638 C625 1.307 . S
O639 C617 1.264 . S
O639 Mg623 2.023 . S
O640 C616 1.244 . S
O640 Mg624 1.942 . S
O641 C617 1.273 . S
O641 Mg624 1.955 . S
O642 C615 1.312 . S
O642 Mg618 2.291 . S
O642 Mg621 2.114 . S
O643 C615 1.208 . S
O643 Mg623 2.031 . S
C644 O629 1.264 . S
C644 O631 1.273 . S
C645 O626 1.191 . S
C645 O628 1.307 . S
C646 O673 1.312 . S
C646 O674 1.218 . S
C647 O668 1.331 . S
C647 O671 1.244 . S
C648 O670 1.264 . S
C648 O672 1.273 . S
Mg649 O651 1.936 . S
Mg649 O658 2.081 . S
Mg649 O660 2.023 1_565 S
Mg649 O664 2.031 . S
Mg649 O673 2.291 1_565 S
Mg650 O651 1.963 1_545 S
Mg650 O661 1.942 1_545 S
Mg650 O662 1.955 . S
Mg650 O669 1.986 1_545 S
O651 Mg649 1.936 . S
O651 Mg650 1.963 1_565 S
O651 Mg652 1.915 1_565 S
Mg652 O651 1.915 1_545 S
Mg652 O653 1.915 . S
Mg652 O657 2.013 . S
Mg652 O663 2.114 1_545 S
Mg652 O667 2.013 1_545 S
Mg652 O673 2.114 . S
O653 Mg652 1.915 . S
O653 Mg654 1.936 1_545 S
O653 Mg655 1.963 . S
Mg654 O653 1.936 1_565 S
Mg654 O663 2.291 . S
Mg654 O668 2.081 1_565 S
Mg654 O670 2.023 . S
Mg654 O674 2.021 1_565 S
Mg655 O653 1.963 . S
Mg655 O659 1.986 . S
Mg655 O671 1.942 . S
Mg655 O672 1.955 1_545 S
C656 O667 1.191 . S
C656 O669 1.307 . S
O657 Mg652 2.013 . S
O657 C676 1.191 . S
O658 Mg649 2.081 . S
O658 C666 1.331 . S
O659 Mg655 1.986 . S
O659 C676 1.307 . S
O660 Mg649 2.023 1_545 S
O660 C675 1.264 . S
O661 Mg650 1.942 1_565 S
O661 C666 1.244 . S
O662 Mg650 1.955 . S
O662 C675 1.273 . S
O663 Mg652 2.114 1_565 S
O663 Mg654 2.291 . S
O663 C665 1.312 . S
O664 Mg649 2.031 . S
O664 C665 1.208 . S
C665 O663 1.312 . S
C665 O664 1.208 . S
C666 O658 1.331 . S
C666 O661 1.244 . S
O667 Mg652 2.013 1_565 S
O667 C656 1.191 . S
O668 C647 1.331 . S
O668 Mg654 2.081 1_545 S
O669 Mg650 1.986 1_565 S
O669 C656 1.307 . S
O670 C648 1.264 . S
O670 Mg654 2.023 . S
O671 C647 1.244 . S
O671 Mg655 1.942 . S
O672 C648 1.273 . S
O672 Mg655 1.955 1_565 S
O673 C646 1.312 . S
O673 Mg649 2.291 1_545 S
O673 Mg652 2.114 . S
O674 C646 1.218 . S
O674 Mg654 2.021 1_545 S
C675 O660 1.264 . S
C675 O662 1.273 . S
C676 O657 1.191 . S
C676 O659 1.307 . S
C677 O704 1.312 . S
C677 O705 1.208 . S
C678 O699 1.331 . S
C678 O702 1.244 . S
C679 O701 1.264 . S
C679 O703 1.273 . S
Mg680 O682 1.936 . S
Mg680 O689 2.081 . S
Mg680 O691 2.023 . S
Mg680 O695 2.031 . S
Mg680 O704 2.291 . S
Mg681 O682 1.963 . S
Mg681 O692 1.942 . S
Mg681 O693 1.955 . S
Mg681 O700 1.986 . S
O682 Mg680 1.936 . S
O682 Mg681 1.963 . S
O682 Mg683 1.915 . S
Mg683 O682 1.915 . S
Mg683 O684 1.915 . S
Mg683 O688 2.013 . S
Mg683 O694 2.114 . S
Mg683 O698 2.013 . S
Mg683 O704 2.114 . S
O684 Mg683 1.915 . S
O684 Mg685 1.936 . S
O684 Mg686 1.963 . S
Mg685 O684 1.936 . S
Mg685 O694 2.291 . S
Mg685 O699 2.081 . S
Mg685 O701 2.023 . S
Mg685 O705 2.031 . S
Mg686 O684 1.963 . S
Mg686 O690 1.986 . S
Mg686 O702 1.942 . S
Mg686 O703 1.955 . S
C687 O698 1.191 . S
C687 O700 1.307 . S
O688 Mg683 2.013 . S
O688 C707 1.191 . S
O689 Mg680 2.081 . S
O689 C697 1.331 . S
O690 Mg686 1.986 . S
O690 C707 1.307 . S
O691 Mg680 2.023 . S
O691 C706 1.264 . S
O692 Mg681 1.942 . S
O692 C697 1.244 . S
O693 Mg681 1.955 . S
O693 C706 1.273 . S
O694 Mg683 2.114 . S
O694 Mg685 2.291 . S
O694 C696 1.312 . S
O695 Mg680 2.031 . S
O695 C696 1.208 . S
C696 O694 1.312 . S
C696 O695 1.208 . S
C697 O689 1.331 . S
C697 O692 1.244 . S
O698 Mg683 2.013 . S
O698 C687 1.191 . S
O699 C678 1.331 . S
O699 Mg685 2.081 . S
O700 Mg681 1.986 . S
O700 C687 1.307 . S
O701 C679 1.264 . S
O701 Mg685 2.023 . S
O702 C678 1.244 . S
O702 Mg686 1.942 . S
O703 C679 1.273 . S
O703 Mg686 1.955 . S
O704 C677 1.312 . S
O704 Mg680 2.291 . S
O704 Mg683 2.114 . S
O705 C677 1.208 . S
O705 Mg685 2.031 . S
C706 O691 1.264 . S
C706 O693 1.273 . S
C707 O688 1.191 . S
C707 O690 1.307 . S
H708 C720 0.930 . S
H709 C722 0.930 . S
H710 C723 0.930 . S
H711 C727 0.959 . S
H712 C727 0.959 . S
H713 C727 0.961 . S
H714 C728 0.960 1_655 S
H715 C728 0.961 1_655 S
H716 C728 0.959 . S
H717 C731 0.929 . S
H718 C732 0.931 . S
H719 C734 0.930 . S
C720 H708 0.930 . S
C720 C721 1.399 . S
C720 C725 1.399 . S
C721 C720 1.399 . S
C721 C722 1.376 . S
C722 H709 0.930 . S
C722 C721 1.376 . S
C722 C723 1.388 . S
C723 H710 0.930 . S
C723 C722 1.388 . S
C723 C724 1.390 . S
C724 C723 1.390 . S
C724 C725 1.394 . S
C724 C730 1.465 . S
C725 C720 1.399 . S
C725 C724 1.394 . S
C725 C726 1.516 . S
C726 C725 1.516 . S
C726 C727 1.502 1_455 S
C726 C728 1.561 . S
C726 C729 1.526 . S
C727 H711 0.959 . S
C727 H712 0.959 . S
C727 H713 0.961 . S
C727 C726 1.502 1_655 S
C728 H714 0.960 1_455 S
C728 H715 0.961 1_455 S
C728 H716 0.959 . S
C728 C726 1.561 . S
C729 C726 1.526 . S
C729 C730 1.396 . S
C729 C734 1.390 . S
C730 C724 1.465 . S
C730 C729 1.396 . S
C730 C731 1.399 . S
C731 H717 0.929 . S
C731 C730 1.399 . S
C731 C732 1.385 . S
C732 H718 0.931 . S
C732 C731 1.385 . S
C732 C733 1.389 . S
C733 C732 1.389 . S
C733 C734 1.387 . S
C734 H719 0.930 . S
C734 C729 1.390 . S
C734 C733 1.387 . S
H735 C747 0.930 . S
H736 C749 0.930 . S
H737 C750 0.930 . S
H738 C754 0.959 . S
H739 C754 0.959 . S
H740 C754 0.961 . S
H741 C755 0.960 . S
H742 C755 0.961 . S
H743 C755 0.959 . S
H744 C758 0.929 . S
H745 C759 0.931 . S
H746 C761 0.930 . S
C747 H735 0.930 . S
C747 C748 1.399 . S
C747 C752 1.399 . S
C748 C747 1.399 . S
C748 C749 1.376 . S
C749 H736 0.930 . S
C749 C748 1.376 . S
C749 C750 1.388 . S
C750 H737 0.930 . S
C750 C749 1.388 . S
C750 C751 1.390 . S
C751 C750 1.390 . S
C751 C752 1.394 . S
C751 C757 1.465 . S
C752 C747 1.399 . S
C752 C751 1.394 . S
C752 C753 1.516 . S
C753 C752 1.516 . S
C753 C754 1.502 . S
C753 C755 1.561 . S
C753 C756 1.526 . S
C754 H738 0.959 . S
C754 H739 0.959 . S
C754 H740 0.961 . S
C754 C753 1.502 . S
C755 H741 0.960 . S
C755 H742 0.961 . S
C755 H743 0.959 . S
C755 C753 1.561 . S
C756 C753 1.526 . S
C756 C757 1.396 . S
C756 C761 1.390 . S
C757 C751 1.465 . S
C757 C756 1.396 . S
C757 C758 1.399 . S
C758 H744 0.929 . S
C758 C757 1.399 . S
C758 C759 1.385 . S
C759 H745 0.931 . S
C759 C758 1.385 . S
C759 C760 1.389 . S
C760 C759 1.389 . S
C760 C761 1.387 . S
C761 H746 0.930 . S
C761 C756 1.390 . S
C761 C760 1.387 . S
H762 C774 0.930 . S
H763 C776 0.930 . S
H764 C777 0.930 . S
H765 C781 0.959 . S
H766 C781 0.959 . S
H767 C781 0.961 . S
H768 C782 0.960 . S
H769 C782 0.961 . S
H770 C782 0.959 . S
H771 C785 0.929 . S
H772 C786 0.931 . S
H773 C788 0.930 . S
C774 H762 0.930 . S
C774 C775 1.399 . S
C774 C779 1.399 . S
C775 C774 1.399 . S
C775 C776 1.376 . S
C776 H763 0.930 . S
C776 C775 1.376 . S
C776 C777 1.388 . S
C777 H764 0.930 . S
C777 C776 1.388 . S
C777 C778 1.390 . S
C778 C777 1.390 . S
C778 C779 1.394 . S
C778 C784 1.465 . S
C779 C774 1.399 . S
C779 C778 1.394 . S
C779 C780 1.516 . S
C780 C779 1.516 . S
C780 C781 1.502 . S
C780 C782 1.561 1_655 S
C780 C783 1.526 . S
C781 H765 0.959 . S
C781 H766 0.959 . S
C781 H767 0.961 . S
C781 C780 1.502 . S
C782 H768 0.960 . S
C782 H769 0.961 . S
C782 H770 0.959 . S
C782 C780 1.561 1_455 S
C783 C780 1.526 . S
C783 C784 1.396 . S
C783 C788 1.390 . S
C784 C778 1.465 . S
C784 C783 1.396 . S
C784 C785 1.399 . S
C785 H771 0.929 . S
C785 C784 1.399 . S
C785 C786 1.385 . S
C786 H772 0.931 . S
C786 C785 1.385 . S
C786 C787 1.389 . S
C787 C786 1.389 . S
C787 C788 1.387 . S
C788 H773 0.930 . S
C788 C783 1.390 . S
C788 C787 1.387 . S
H789 C801 0.930 . S
H790 C803 0.930 . S
H791 C804 0.930 . S
H792 C808 0.959 . S
H793 C808 0.959 . S
H794 C808 0.961 . S
H795 C809 0.960 . S
H796 C809 0.961 . S
H797 C809 0.959 . S
H798 C812 0.929 . S
H799 C813 0.931 . S
H800 C815 0.930 . S
C801 H789 0.930 . S
C801 C802 1.399 . S
C801 C806 1.399 . S
C802 C801 1.399 . S
C802 C803 1.376 . S
C803 H790 0.930 . S
C803 C802 1.376 . S
C803 C804 1.388 . S
C804 H791 0.930 . S
C804 C803 1.388 . S
C804 C805 1.390 . S
C805 C804 1.390 . S
C805 C806 1.394 . S
C805 C811 1.465 . S
C806 C801 1.399 . S
C806 C805 1.394 . S
C806 C807 1.516 . S
C807 C806 1.516 . S
C807 C808 1.502 . S
C807 C809 1.561 . S
C807 C810 1.526 . S
C808 H792 0.959 . S
C808 H793 0.959 . S
C808 H794 0.961 . S
C808 C807 1.502 . S
C809 H795 0.960 . S
C809 H796 0.961 . S
C809 H797 0.959 . S
C809 C807 1.561 . S
C810 C807 1.526 . S
C810 C811 1.396 . S
C810 C815 1.390 . S
C811 C805 1.465 . S
C811 C810 1.396 . S
C811 C812 1.399 . S
C812 H798 0.929 . S
C812 C811 1.399 . S
C812 C813 1.385 . S
C813 H799 0.931 . S
C813 C812 1.385 . S
C813 C814 1.389 . S
C814 C813 1.389 . S
C814 C815 1.387 . S
C815 H800 0.930 . S
C815 C810 1.390 . S
C815 C814 1.387 . S
H816 C828 0.930 . S
H817 C830 0.930 . S
H818 C831 0.930 . S
H819 C835 0.959 . S
H820 C835 0.959 . S
H821 C835 0.961 . S
H822 C836 0.960 . S
H823 C836 0.961 . S
H824 C836 0.959 1_655 S
H825 C839 0.929 . S
H826 C840 0.931 . S
H827 C842 0.930 . S
C828 H816 0.930 . S
C828 C829 1.399 . S
C828 C833 1.399 . S
C829 C828 1.399 . S
C829 C830 1.376 . S
C830 H817 0.930 . S
C830 C829 1.376 . S
C830 C831 1.388 . S
C831 H818 0.930 . S
C831 C830 1.388 . S
C831 C832 1.390 . S
C832 C831 1.390 . S
C832 C833 1.394 . S
C832 C838 1.465 . S
C833 C828 1.399 . S
C833 C832 1.394 . S
C833 C834 1.516 . S
C834 C833 1.516 . S
C834 C835 1.502 . S
C834 C836 1.561 . S
C834 C837 1.526 . S
C835 H819 0.959 . S
C835 H820 0.959 . S
C835 H821 0.961 . S
C835 C834 1.502 . S
C836 H822 0.960 . S
C836 H823 0.961 . S
C836 H824 0.959 1_455 S
C836 C834 1.561 . S
C837 C834 1.526 . S
C837 C838 1.396 . S
C837 C842 1.390 . S
C838 C832 1.465 . S
C838 C837 1.396 . S
C838 C839 1.399 . S
C839 H825 0.929 . S
C839 C838 1.399 . S
C839 C840 1.385 . S
C840 H826 0.931 . S
C840 C839 1.385 . S
C840 C841 1.389 . S
C841 C840 1.389 . S
C841 C842 1.387 . S
C842 H827 0.930 . S
C842 C837 1.390 . S
C842 C841 1.387 . S
H843 C855 0.930 . S
H844 C857 0.930 . S
H845 C858 0.930 . S
H846 C862 0.959 . S
H847 C862 0.959 . S
H848 C862 0.961 . S
H849 C863 0.960 . S
H850 C863 0.961 . S
H851 C863 0.959 . S
H852 C866 0.929 . S
H853 C867 0.931 . S
H854 C869 0.930 . S
C855 H843 0.930 . S
C855 C856 1.399 . S
C855 C860 1.399 . S
C856 C855 1.399 . S
C856 C857 1.376 . S
C857 H844 0.930 . S
C857 C856 1.376 . S
C857 C858 1.388 . S
C858 H845 0.930 . S
C858 C857 1.388 . S
C858 C859 1.390 . S
C859 C858 1.390 . S
C859 C860 1.394 . S
C859 C865 1.465 . S
C860 C855 1.399 . S
C860 C859 1.394 . S
C860 C861 1.516 . S
C861 C860 1.516 . S
C861 C862 1.502 . S
C861 C863 1.561 . S
C861 C864 1.526 . S
C862 H846 0.959 . S
C862 H847 0.959 . S
C862 H848 0.961 . S
C862 C861 1.502 . S
C863 H849 0.960 . S
C863 H850 0.961 . S
C863 H851 0.959 . S
C863 C861 1.561 . S
C864 C861 1.526 . S
C864 C865 1.396 . S
C864 C869 1.390 . S
C865 C859 1.465 . S
C865 C864 1.396 . S
C865 C866 1.399 . S
C866 H852 0.929 . S
C866 C865 1.399 . S
C866 C867 1.385 . S
C867 H853 0.931 . S
C867 C866 1.385 . S
C867 C868 1.389 . S
C868 C867 1.389 . S
C868 C869 1.387 . S
C869 H854 0.930 . S
C869 C864 1.390 . S
C869 C868 1.387 . S
H870 C882 0.930 . S
H871 C884 0.930 . S
H872 C885 0.930 . S
H873 C889 0.959 . S
H874 C889 0.959 . S
H875 C889 0.961 . S
H876 C890 0.960 . S
H877 C890 0.961 . S
H878 C890 0.959 . S
H879 C893 0.929 . S
H880 C894 0.931 . S
H881 C896 0.930 . S
C882 H870 0.930 . S
C882 C883 1.399 . S
C882 C887 1.399 . S
C883 C882 1.399 . S
C883 C884 1.376 . S
C884 H871 0.930 . S
C884 C883 1.376 . S
C884 C885 1.388 . S
C885 H872 0.930 . S
C885 C884 1.388 . S
C885 C886 1.390 . S
C886 C885 1.390 . S
C886 C887 1.394 . S
C886 C892 1.465 . S
C887 C882 1.399 . S
C887 C886 1.394 . S
C887 C888 1.516 . S
C888 C887 1.516 . S
C888 C889 1.502 . S
C888 C890 1.561 . S
C888 C891 1.526 . S
C889 H873 0.959 . S
C889 H874 0.959 . S
C889 H875 0.961 . S
C889 C888 1.502 . S
C890 H876 0.960 . S
C890 H877 0.961 . S
C890 H878 0.959 . S
C890 C888 1.561 . S
C891 C888 1.526 . S
C891 C892 1.396 . S
C891 C896 1.390 . S
C892 C886 1.465 . S
C892 C891 1.396 . S
C892 C893 1.399 . S
C893 H879 0.929 . S
C893 C892 1.399 . S
C893 C894 1.385 . S
C894 H880 0.931 . S
C894 C893 1.385 . S
C894 C895 1.389 . S
C895 C894 1.389 . S
C895 C896 1.387 . S
C896 H881 0.930 . S
C896 C891 1.390 . S
C896 C895 1.387 . S
H897 C909 0.930 . S
H898 C911 0.930 . S
H899 C912 0.930 . S
H900 C916 0.959 . S
H901 C916 0.959 . S
H902 C916 0.961 . S
H903 C917 0.960 . S
H904 C917 0.961 . S
H905 C917 0.959 . S
H906 C920 0.929 . S
H907 C921 0.931 . S
H908 C923 0.930 . S
C909 H897 0.930 . S
C909 C910 1.399 . S
C909 C914 1.399 . S
C910 C909 1.399 . S
C910 C911 1.376 . S
C911 H898 0.930 . S
C911 C910 1.376 . S
C911 C912 1.388 . S
C912 H899 0.930 . S
C912 C911 1.388 . S
C912 C913 1.390 . S
C913 C912 1.390 . S
C913 C914 1.394 . S
C913 C919 1.465 . S
C914 C909 1.399 . S
C914 C913 1.394 . S
C914 C915 1.516 . S
C915 C914 1.516 . S
C915 C916 1.502 . S
C915 C917 1.561 . S
C915 C918 1.526 . S
C916 H900 0.959 . S
C916 H901 0.959 . S
C916 H902 0.961 . S
C916 C915 1.502 . S
C917 H903 0.960 . S
C917 H904 0.961 . S
C917 H905 0.959 . S
C917 C915 1.561 . S
C918 C915 1.526 . S
C918 C919 1.396 . S
C918 C923 1.390 . S
C919 C913 1.465 . S
C919 C918 1.396 . S
C919 C920 1.399 . S
C920 H906 0.929 . S
C920 C919 1.399 . S
C920 C921 1.385 . S
C921 H907 0.931 . S
C921 C920 1.385 . S
C921 C922 1.389 . S
C922 C921 1.389 . S
C922 C923 1.387 . S
C923 H908 0.930 . S
C923 C918 1.390 . S
C923 C922 1.387 . S
H924 C936 0.930 . S
H925 C938 0.930 . S
H926 C939 0.930 . S
H927 C943 0.959 . S
H928 C943 0.959 . S
H929 C943 0.961 . S
H930 C944 0.960 . S
H931 C944 0.961 . S
H932 C944 0.959 . S
H933 C947 0.929 . S
H934 C948 0.931 . S
H935 C950 0.930 . S
C936 H924 0.930 . S
C936 C937 1.399 . S
C936 C941 1.399 . S
C937 C936 1.399 . S
C937 C938 1.376 . S
C938 H925 0.930 . S
C938 C937 1.376 . S
C938 C939 1.388 . S
C939 H926 0.930 . S
C939 C938 1.388 . S
C939 C940 1.390 . S
C940 C939 1.390 . S
C940 C941 1.394 . S
C940 C946 1.465 . S
C941 C936 1.399 . S
C941 C940 1.394 . S
C941 C942 1.516 . S
C942 C941 1.516 . S
C942 C943 1.502 . S
C942 C944 1.561 . S
C942 C945 1.526 . S
C943 H927 0.959 . S
C943 H928 0.959 . S
C943 H929 0.961 . S
C943 C942 1.502 . S
C944 H930 0.960 . S
C944 H931 0.961 . S
C944 H932 0.959 . S
C944 C942 1.561 . S
C945 C942 1.526 . S
C945 C946 1.396 . S
C945 C950 1.390 . S
C946 C940 1.465 . S
C946 C945 1.396 . S
C946 C947 1.399 . S
C947 H933 0.929 . S
C947 C946 1.399 . S
C947 C948 1.385 . S
C948 H934 0.931 . S
C948 C947 1.385 . S
C948 C949 1.389 . S
C949 C948 1.389 . S
C949 C950 1.387 . S
C950 H935 0.930 . S
C950 C945 1.390 . S
C950 C949 1.387 . S
H951 C963 0.930 . S
H952 C965 0.930 . S
H953 C966 0.930 . S
H954 C970 0.959 . S
H955 C970 0.959 . S
H956 C970 0.961 . S
H957 C971 0.960 . S
H958 C971 0.961 . S
H959 C971 0.959 . S
H960 C974 0.933 . S
H961 C975 0.931 . S
H962 C977 0.930 . S
C963 H951 0.930 . S
C963 C964 1.399 . S
C963 C968 1.399 . S
C964 C963 1.399 . S
C964 C965 1.376 . S
C965 H952 0.930 . S
C965 C964 1.376 . S
C965 C966 1.388 . S
C966 H953 0.930 . S
C966 C965 1.388 . S
C966 C967 1.390 . S
C967 C966 1.390 . S
C967 C968 1.394 . S
C967 C973 1.465 . S
C968 C963 1.399 . S
C968 C967 1.394 . S
C968 C969 1.516 . S
C969 C968 1.516 . S
C969 C970 1.502 . S
C969 C971 1.561 . S
C969 C972 1.526 . S
C970 H954 0.959 . S
C970 H955 0.959 . S
C970 H956 0.961 . S
C970 C969 1.502 . S
C971 H957 0.960 . S
C971 H958 0.961 . S
C971 H959 0.959 . S
C971 C969 1.561 . S
C972 C969 1.526 . S
C972 C973 1.396 . S
C972 C977 1.390 . S
C973 C967 1.465 . S
C973 C972 1.396 . S
C973 C974 1.399 . S
C974 H960 0.933 . S
C974 C973 1.399 . S
C974 C975 1.385 1_545 S
C975 H961 0.931 . S
C975 C974 1.385 1_565 S
C975 C976 1.389 . S
C976 C975 1.389 . S
C976 C977 1.387 1_565 S
C977 H962 0.930 . S
C977 C972 1.390 . S
C977 C976 1.387 1_545 S
H978 C990 0.930 . S
H979 C992 0.930 . S
H980 C993 0.930 . S
H981 C997 0.959 . S
H982 C997 0.959 . S
H983 C997 0.961 . S
H984 C998 0.960 . S
H985 C998 0.961 . S
H986 C998 0.959 . S
H987 C1001 0.929 . S
H988 C1002 0.931 . S
H989 C1004 0.930 . S
C990 H978 0.930 . S
C990 C991 1.399 . S
C990 C995 1.399 . S
C991 C990 1.399 . S
C991 C992 1.376 . S
C992 H979 0.930 . S
C992 C991 1.376 . S
C992 C993 1.388 . S
C993 H980 0.930 . S
C993 C992 1.388 . S
C993 C994 1.390 . S
C994 C993 1.390 . S
C994 C995 1.394 . S
C994 C1000 1.465 . S
C995 C990 1.399 . S
C995 C994 1.394 . S
C995 C996 1.516 . S
C996 C995 1.516 . S
C996 C997 1.502 . S
C996 C998 1.561 . S
C996 C999 1.526 . S
C997 H981 0.959 . S
C997 H982 0.959 . S
C997 H983 0.961 . S
C997 C996 1.502 . S
C998 H984 0.960 . S
C998 H985 0.961 . S
C998 H986 0.959 . S
C998 C996 1.561 . S
C999 C996 1.526 . S
C999 C1000 1.396 . S
C999 C1004 1.390 . S
C1000 C994 1.465 . S
C1000 C999 1.396 . S
C1000 C1001 1.399 . S
C1001 H987 0.929 . S
C1001 C1000 1.399 . S
C1001 C1002 1.385 . S
C1002 H988 0.931 . S
C1002 C1001 1.385 . S
C1002 C1003 1.389 . S
C1003 C1002 1.389 . S
C1003 C1004 1.387 . S
C1004 H989 0.930 . S
C1004 C999 1.390 . S
C1004 C1003 1.387 . S
H1005 C1017 0.930 . S
H1006 C1019 0.930 . S
H1007 C1020 0.930 . S
H1008 C1024 0.959 . S
H1009 C1024 0.959 . S
H1010 C1024 0.961 . S
H1011 C1025 0.960 . S
H1012 C1025 0.961 . S
H1013 C1025 0.959 . S
H1014 C1028 0.929 . S
H1015 C1029 0.931 . S
H1016 C1031 0.930 . S
C1017 H1005 0.930 . S
C1017 C1018 1.399 . S
C1017 C1022 1.399 . S
C1018 C1017 1.399 . S
C1018 C1019 1.376 . S
C1019 H1006 0.930 . S
C1019 C1018 1.376 . S
C1019 C1020 1.388 . S
C1020 H1007 0.930 . S
C1020 C1019 1.388 . S
C1020 C1021 1.390 . S
C1021 C1020 1.390 . S
C1021 C1022 1.394 . S
C1021 C1027 1.465 . S
C1022 C1017 1.399 . S
C1022 C1021 1.394 . S
C1022 C1023 1.516 . S
C1023 C1022 1.516 . S
C1023 C1024 1.502 . S
C1023 C1025 1.561 . S
C1023 C1026 1.526 . S
C1024 H1008 0.959 . S
C1024 H1009 0.959 . S
C1024 H1010 0.961 . S
C1024 C1023 1.502 . S
C1025 H1011 0.960 . S
C1025 H1012 0.961 . S
C1025 H1013 0.959 . S
C1025 C1023 1.561 . S
C1026 C1023 1.526 . S
C1026 C1027 1.396 . S
C1026 C1031 1.390 . S
C1027 C1021 1.465 . S
C1027 C1026 1.396 . S
C1027 C1028 1.399 . S
C1028 H1014 0.929 . S
C1028 C1027 1.399 . S
C1028 C1029 1.385 . S
C1029 H1015 0.931 . S
C1029 C1028 1.385 . S
C1029 C1030 1.389 . S
C1030 C1029 1.389 . S
C1030 C1031 1.387 . S
C1031 H1016 0.930 . S
C1031 C1026 1.390 . S
C1031 C1030 1.387 . S
H1032 C1044 0.930 . S
H1033 C1046 0.930 . S
H1034 C1047 0.933 1_545 S
H1035 C1051 0.959 . S
H1036 C1051 0.959 . S
H1037 C1051 0.961 . S
H1038 C1052 0.960 . S
H1039 C1052 0.961 . S
H1040 C1052 0.959 . S
H1041 C1055 0.929 1_545 S
H1042 C1056 0.931 . S
H1043 C1058 0.930 . S
C1044 H1032 0.930 . S
C1044 C1045 1.399 . S
C1044 C1049 1.399 . S
C1045 C1044 1.399 . S
C1045 C1046 1.376 . S
C1046 H1033 0.930 . S
C1046 C1045 1.376 . S
C1046 C1047 1.388 . S
C1047 H1034 0.933 1_565 S
C1047 C1046 1.388 . S
C1047 C1048 1.390 . S
C1048 C1047 1.390 . S
C1048 C1049 1.394 . S
C1048 C1054 1.465 . S
C1049 C1044 1.399 . S
C1049 C1048 1.394 . S
C1049 C1050 1.516 . S
C1050 C1049 1.516 . S
C1050 C1051 1.502 . S
C1050 C1052 1.561 . S
C1050 C1053 1.526 . S
C1051 H1035 0.959 . S
C1051 H1036 0.959 . S
C1051 H1037 0.961 . S
C1051 C1050 1.502 . S
C1052 H1038 0.960 . S
C1052 H1039 0.961 . S
C1052 H1040 0.959 . S
C1052 C1050 1.561 . S
C1053 C1050 1.526 . S
C1053 C1054 1.396 . S
C1053 C1058 1.390 . S
C1054 C1048 1.465 . S
C1054 C1053 1.396 . S
C1054 C1055 1.399 . S
C1055 H1041 0.929 1_565 S
C1055 C1054 1.399 . S
C1055 C1056 1.385 . S
C1056 H1042 0.931 . S
C1056 C1055 1.385 . S
C1056 C1057 1.389 . S
C1057 C1056 1.389 . S
C1057 C1058 1.387 . S
C1058 H1043 0.930 . S
C1058 C1053 1.390 . S
C1058 C1057 1.387 . S
H1059 C1071 0.930 . S
H1060 C1073 0.930 . S
H1061 C1074 0.930 . S
H1062 C1078 0.959 . S
H1063 C1078 0.959 . S
H1064 C1078 0.961 . S
H1065 C1079 0.960 . S
H1066 C1079 0.961 . S
H1067 C1079 0.959 . S
H1068 C1082 0.929 . S
H1069 C1083 0.931 . S
H1070 C1085 0.930 1_565 S
C1071 H1059 0.930 . S
C1071 C1072 1.399 . S
C1071 C1076 1.399 . S
C1072 C1071 1.399 . S
C1072 C1073 1.376 . S
C1073 H1060 0.930 . S
C1073 C1072 1.376 . S
C1073 C1074 1.388 . S
C1074 H1061 0.930 . S
C1074 C1073 1.388 . S
C1074 C1075 1.390 . S
C1075 C1074 1.390 . S
C1075 C1076 1.394 . S
C1075 C1081 1.465 . S
C1076 C1071 1.399 . S
C1076 C1075 1.394 . S
C1076 C1077 1.516 . S
C1077 C1076 1.516 . S
C1077 C1078 1.502 . S
C1077 C1079 1.561 . S
C1077 C1080 1.526 . S
C1078 H1062 0.959 . S
C1078 H1063 0.959 . S
C1078 H1064 0.961 . S
C1078 C1077 1.502 . S
C1079 H1065 0.960 . S
C1079 H1066 0.961 . S
C1079 H1067 0.959 . S
C1079 C1077 1.561 . S
C1080 C1077 1.526 . S
C1080 C1081 1.396 . S
C1080 C1085 1.390 . S
C1081 C1075 1.465 . S
C1081 C1080 1.396 . S
C1081 C1082 1.399 . S
C1082 H1068 0.929 . S
C1082 C1081 1.399 . S
C1082 C1083 1.385 . S
C1083 H1069 0.931 . S
C1083 C1082 1.385 . S
C1083 C1084 1.389 1_545 S
C1084 C1083 1.389 1_565 S
C1084 C1085 1.387 1_565 S
C1085 H1070 0.930 1_545 S
C1085 C1080 1.390 . S
C1085 C1084 1.387 1_545 S
H1086 C1098 0.930 . S
H1087 C1100 0.930 . S
H1088 C1101 0.930 . S
H1089 C1105 0.959 . S
H1090 C1105 0.959 . S
H1091 C1105 0.961 . S
H1092 C1106 0.960 . S
H1093 C1106 0.961 . S
H1094 C1106 0.959 . S
H1095 C1109 0.929 . S
H1096 C1110 0.931 . S
H1097 C1112 0.930 . S
C1098 H1086 0.930 . S
C1098 C1099 1.399 . S
C1098 C1103 1.399 . S
C1099 C1098 1.399 . S
C1099 C1100 1.376 . S
C1100 H1087 0.930 . S
C1100 C1099 1.376 . S
C1100 C1101 1.388 . S
C1101 H1088 0.930 . S
C1101 C1100 1.388 . S
C1101 C1102 1.390 . S
C1102 C1101 1.390 . S
C1102 C1103 1.394 . S
C1102 C1108 1.465 . S
C1103 C1098 1.399 . S
C1103 C1102 1.394 . S
C1103 C1104 1.516 . S
C1104 C1103 1.516 . S
C1104 C1105 1.502 . S
C1104 C1106 1.561 . S
C1104 C1107 1.526 . S
C1105 H1089 0.959 . S
C1105 H1090 0.959 . S
C1105 H1091 0.961 . S
C1105 C1104 1.502 . S
C1106 H1092 0.960 . S
C1106 H1093 0.961 . S
C1106 H1094 0.959 . S
C1106 C1104 1.561 . S
C1107 C1104 1.526 . S
C1107 C1108 1.396 . S
C1107 C1112 1.390 . S
C1108 C1102 1.465 . S
C1108 C1107 1.396 . S
C1108 C1109 1.399 . S
C1109 H1095 0.929 . S
C1109 C1108 1.399 . S
C1109 C1110 1.385 . S
C1110 H1096 0.931 . S
C1110 C1109 1.385 . S
C1110 C1111 1.389 . S
C1111 C1110 1.389 . S
C1111 C1112 1.387 . S
C1112 H1097 0.930 . S
C1112 C1107 1.390 . S
C1112 C1111 1.387 . S
H1113 C1125 0.930 . S
H1114 C1127 0.930 . S
H1115 C1128 0.930 . S
H1116 C1132 0.959 . S
H1117 C1132 0.959 . S
H1118 C1132 0.961 . S
H1119 C1133 0.960 . S
H1120 C1133 0.961 . S
H1121 C1133 0.959 . S
H1122 C1136 0.929 . S
H1123 C1137 0.931 . S
H1124 C1139 0.930 . S
C1125 H1113 0.930 . S
C1125 C1126 1.399 . S
C1125 C1130 1.399 . S
C1126 C1125 1.399 . S
C1126 C1127 1.376 . S
C1127 H1114 0.930 . S
C1127 C1126 1.376 . S
C1127 C1128 1.388 . S
C1128 H1115 0.930 . S
C1128 C1127 1.388 . S
C1128 C1129 1.390 . S
C1129 C1128 1.390 . S
C1129 C1130 1.394 . S
C1129 C1135 1.465 . S
C1130 C1125 1.399 . S
C1130 C1129 1.394 . S
C1130 C1131 1.516 . S
C1131 C1130 1.516 . S
C1131 C1132 1.502 . S
C1131 C1133 1.561 . S
C1131 C1134 1.526 . S
C1132 H1116 0.959 . S
C1132 H1117 0.959 . S
C1132 H1118 0.961 . S
C1132 C1131 1.502 . S
C1133 H1119 0.960 . S
C1133 H1120 0.961 . S
C1133 H1121 0.959 . S
C1133 C1131 1.561 . S
C1134 C1131 1.526 . S
C1134 C1135 1.396 . S
C1134 C1139 1.390 . S
C1135 C1129 1.465 . S
C1135 C1134 1.396 . S
C1135 C1136 1.399 . S
C1136 H1122 0.929 . S
C1136 C1135 1.399 . S
C1136 C1137 1.385 . S
C1137 H1123 0.931 . S
C1137 C1136 1.385 . S
C1137 C1138 1.389 . S
C1138 C1137 1.389 . S
C1138 C1139 1.387 . S
C1139 H1124 0.930 . S
C1139 C1134 1.390 . S
C1139 C1138 1.387 . S
H1140 C1152 0.930 . S
H1141 C1154 0.930 . S
H1142 C1155 0.930 . S
H1143 C1159 0.959 . S
H1144 C1159 0.959 1_556 S
H1145 C1159 0.961 1_556 S
H1146 C1160 0.960 . S
H1147 C1160 0.961 . S
H1148 C1160 0.959 1_554 S
H1149 C1163 0.929 . S
H1150 C1164 0.931 . S
H1151 C1166 0.930 . S
C1152 H1140 0.930 . S
C1152 C1153 1.399 . S
C1152 C1157 1.399 . S
C1153 C1152 1.399 . S
C1153 C1154 1.376 . S
C1154 H1141 0.930 . S
C1154 C1153 1.376 . S
C1154 C1155 1.388 . S
C1155 H1142 0.930 . S
C1155 C1154 1.388 . S
C1155 C1156 1.390 . S
C1156 C1155 1.390 . S
C1156 C1157 1.394 . S
C1156 C1162 1.465 . S
C1157 C1152 1.399 . S
C1157 C1156 1.394 . S
C1157 C1158 1.516 . S
C1158 C1157 1.516 . S
C1158 C1159 1.502 . S
C1158 C1160 1.561 1_554 S
C1158 C1161 1.526 . S
C1159 H1143 0.959 . S
C1159 H1144 0.959 1_554 S
C1159 H1145 0.961 1_554 S
C1159 C1158 1.502 . S
C1160 H1146 0.960 . S
C1160 H1147 0.961 . S
C1160 H1148 0.959 1_556 S
C1160 C1158 1.561 1_556 S
C1161 C1158 1.526 . S
C1161 C1162 1.396 . S
C1161 C1166 1.390 . S
C1162 C1156 1.465 . S
C1162 C1161 1.396 . S
C1162 C1163 1.399 . S
C1163 H1149 0.929 . S
C1163 C1162 1.399 . S
C1163 C1164 1.385 . S
C1164 H1150 0.931 . S
C1164 C1163 1.385 . S
C1164 C1165 1.389 . S
C1165 C1164 1.389 . S
C1165 C1166 1.387 . S
C1166 H1151 0.930 . S
C1166 C1161 1.390 . S
C1166 C1165 1.387 . S
H1167 C1179 0.930 . S
H1168 C1181 0.930 . S
H1169 C1182 0.930 . S
H1170 C1186 0.959 . S
H1171 C1186 0.959 . S
H1172 C1186 0.961 . S
H1173 C1187 0.960 . S
H1174 C1187 0.961 . S
H1175 C1187 0.959 . S
H1176 C1190 0.929 . S
H1177 C1191 0.931 . S
H1178 C1193 0.930 . S
C1179 H1167 0.930 . S
C1179 C1180 1.399 . S
C1179 C1184 1.399 . S
C1180 C1179 1.399 . S
C1180 C1181 1.376 . S
C1181 H1168 0.930 . S
C1181 C1180 1.376 . S
C1181 C1182 1.388 . S
C1182 H1169 0.930 . S
C1182 C1181 1.388 . S
C1182 C1183 1.390 . S
C1183 C1182 1.390 . S
C1183 C1184 1.394 . S
C1183 C1189 1.465 . S
C1184 C1179 1.399 . S
C1184 C1183 1.394 . S
C1184 C1185 1.516 . S
C1185 C1184 1.516 . S
C1185 C1186 1.502 . S
C1185 C1187 1.561 . S
C1185 C1188 1.526 . S
C1186 H1170 0.959 . S
C1186 H1171 0.959 . S
C1186 H1172 0.961 . S
C1186 C1185 1.502 . S
C1187 H1173 0.960 . S
C1187 H1174 0.961 . S
C1187 H1175 0.959 . S
C1187 C1185 1.561 . S
C1188 C1185 1.526 . S
C1188 C1189 1.396 . S
C1188 C1193 1.390 . S
C1189 C1183 1.465 . S
C1189 C1188 1.396 . S
C1189 C1190 1.399 . S
C1190 H1176 0.929 . S
C1190 C1189 1.399 . S
C1190 C1191 1.385 . S
C1191 H1177 0.931 . S
C1191 C1190 1.385 . S
C1191 C1192 1.389 . S
C1192 C1191 1.389 . S
C1192 C1193 1.387 . S
C1193 H1178 0.930 . S
C1193 C1188 1.390 . S
C1193 C1192 1.387 . S
H1194 C1206 0.930 . S
H1195 C1208 0.930 . S
H1196 C1209 0.930 . S
H1197 C1213 0.959 . S
H1198 C1213 0.959 . S
H1199 C1213 0.961 . S
H1200 C1214 0.960 . S
H1201 C1214 0.961 . S
H1202 C1214 0.959 . S
H1203 C1217 0.929 . S
H1204 C1218 0.931 . S
H1205 C1220 0.930 . S
C1206 H1194 0.930 . S
C1206 C1207 1.399 . S
C1206 C1211 1.399 . S
C1207 C1206 1.399 . S
C1207 C1208 1.376 . S
C1208 H1195 0.930 . S
C1208 C1207 1.376 . S
C1208 C1209 1.388 . S
C1209 H1196 0.930 . S
C1209 C1208 1.388 . S
C1209 C1210 1.390 . S
C1210 C1209 1.390 . S
C1210 C1211 1.394 . S
C1210 C1216 1.465 . S
C1211 C1206 1.399 . S
C1211 C1210 1.394 . S
C1211 C1212 1.516 . S
C1212 C1211 1.516 . S
C1212 C1213 1.502 . S
C1212 C1214 1.561 . S
C1212 C1215 1.526 . S
C1213 H1197 0.959 . S
C1213 H1198 0.959 . S
C1213 H1199 0.961 . S
C1213 C1212 1.502 . S
C1214 H1200 0.960 . S
C1214 H1201 0.961 . S
C1214 H1202 0.959 . S
C1214 C1212 1.561 . S
C1215 C1212 1.526 . S
C1215 C1216 1.396 . S
C1215 C1220 1.390 . S
C1216 C1210 1.465 . S
C1216 C1215 1.396 . S
C1216 C1217 1.399 . S
C1217 H1203 0.929 . S
C1217 C1216 1.399 . S
C1217 C1218 1.385 . S
C1218 H1204 0.931 . S
C1218 C1217 1.385 . S
C1218 C1219 1.389 . S
C1219 C1218 1.389 . S
C1219 C1220 1.387 . S
C1220 H1205 0.930 . S
C1220 C1215 1.390 . S
C1220 C1219 1.387 . S
H1221 C1233 0.930 . S
H1222 C1235 0.930 . S
H1223 C1236 0.930 . S
H1224 C1240 0.959 . S
H1225 C1240 0.959 . S
H1226 C1240 0.961 . S
H1227 C1241 0.960 . S
H1228 C1241 0.961 . S
H1229 C1241 0.959 . S
H1230 C1244 0.929 . S
H1231 C1245 0.931 . S
H1232 C1247 0.930 . S
C1233 H1221 0.930 . S
C1233 C1234 1.399 . S
C1233 C1238 1.399 . S
C1234 C1233 1.399 . S
C1234 C1235 1.376 . S
C1235 H1222 0.930 . S
C1235 C1234 1.376 . S
C1235 C1236 1.388 . S
C1236 H1223 0.930 . S
C1236 C1235 1.388 . S
C1236 C1237 1.390 . S
C1237 C1236 1.390 . S
C1237 C1238 1.394 . S
C1237 C1243 1.465 . S
C1238 C1233 1.399 . S
C1238 C1237 1.394 . S
C1238 C1239 1.516 . S
C1239 C1238 1.516 . S
C1239 C1240 1.502 . S
C1239 C1241 1.561 . S
C1239 C1242 1.526 . S
C1240 H1224 0.959 . S
C1240 H1225 0.959 . S
C1240 H1226 0.961 . S
C1240 C1239 1.502 . S
C1241 H1227 0.960 . S
C1241 H1228 0.961 . S
C1241 H1229 0.959 . S
C1241 C1239 1.561 . S
C1242 C1239 1.526 . S
C1242 C1243 1.396 . S
C1242 C1247 1.390 . S
C1243 C1237 1.465 . S
C1243 C1242 1.396 . S
C1243 C1244 1.399 . S
C1244 H1230 0.929 . S
C1244 C1243 1.399 . S
C1244 C1245 1.385 . S
C1245 H1231 0.931 . S
C1245 C1244 1.385 . S
C1245 C1246 1.389 . S
C1246 C1245 1.389 . S
C1246 C1247 1.387 . S
C1247 H1232 0.930 . S
C1247 C1242 1.390 . S
C1247 C1246 1.387 . S
H1248 C1260 0.930 . S
H1249 C1262 0.930 . S
H1250 C1263 0.930 . S
H1251 C1267 0.959 . S
H1252 C1267 0.959 . S
H1253 C1267 0.961 . S
H1254 C1268 0.960 . S
H1255 C1268 0.961 . S
H1256 C1268 0.959 . S
H1257 C1271 0.923 1_455 S
H1258 C1272 0.931 . S
H1259 C1274 0.930 . S
C1260 H1248 0.930 . S
C1260 C1261 1.399 . S
C1260 C1265 1.399 . S
C1261 C1260 1.399 . S
C1261 C1262 1.376 . S
C1262 H1249 0.930 . S
C1262 C1261 1.376 . S
C1262 C1263 1.388 . S
C1263 H1250 0.930 . S
C1263 C1262 1.388 . S
C1263 C1264 1.390 . S
C1264 C1263 1.390 . S
C1264 C1265 1.394 . S
C1264 C1270 1.465 . S
C1265 C1260 1.399 . S
C1265 C1264 1.394 . S
C1265 C1266 1.516 . S
C1266 C1265 1.516 . S
C1266 C1267 1.502 . S
C1266 C1268 1.561 . S
C1266 C1269 1.526 . S
C1267 H1251 0.959 . S
C1267 H1252 0.959 . S
C1267 H1253 0.961 . S
C1267 C1266 1.502 . S
C1268 H1254 0.960 . S
C1268 H1255 0.961 . S
C1268 H1256 0.959 . S
C1268 C1266 1.561 . S
C1269 C1266 1.526 . S
C1269 C1270 1.396 . S
C1269 C1274 1.390 . S
C1270 C1264 1.465 . S
C1270 C1269 1.396 . S
C1270 C1271 1.432 . S
C1271 H1257 0.923 1_655 S
C1271 C1270 1.432 . S
C1271 C1272 1.360 1_655 S
C1272 H1258 0.931 . S
C1272 C1271 1.360 1_455 S
C1272 C1273 1.389 . S
C1273 C1272 1.389 . S
C1273 C1274 1.387 1_455 S
C1274 H1259 0.930 . S
C1274 C1269 1.390 . S
C1274 C1273 1.387 1_655 S
H1275 C1287 0.930 . S
H1276 C1289 0.930 . S
H1277 C1290 0.930 . S
H1278 C1294 0.959 . S
H1279 C1294 0.959 . S
H1280 C1294 0.961 . S
H1281 C1295 0.960 . S
H1282 C1295 0.961 . S
H1283 C1295 0.959 . S
H1284 C1298 0.929 . S
H1285 C1299 0.931 . S
H1286 C1301 0.930 . S
C1287 H1275 0.930 . S
C1287 C1288 1.399 . S
C1287 C1292 1.399 . S
C1288 C1287 1.399 . S
C1288 C1289 1.376 . S
C1289 H1276 0.930 . S
C1289 C1288 1.376 . S
C1289 C1290 1.388 . S
C1290 H1277 0.930 . S
C1290 C1289 1.388 . S
C1290 C1291 1.390 . S
C1291 C1290 1.390 . S
C1291 C1292 1.394 . S
C1291 C1297 1.465 . S
C1292 C1287 1.399 . S
C1292 C1291 1.394 . S
C1292 C1293 1.516 . S
C1293 C1292 1.516 . S
C1293 C1294 1.502 . S
C1293 C1295 1.561 . S
C1293 C1296 1.526 . S
C1294 H1278 0.959 . S
C1294 H1279 0.959 . S
C1294 H1280 0.961 . S
C1294 C1293 1.502 . S
C1295 H1281 0.960 . S
C1295 H1282 0.961 . S
C1295 H1283 0.959 . S
C1295 C1293 1.561 . S
C1296 C1293 1.526 . S
C1296 C1297 1.396 . S
C1296 C1301 1.390 . S
C1297 C1291 1.465 . S
C1297 C1296 1.396 . S
C1297 C1298 1.399 . S
C1298 H1284 0.929 . S
C1298 C1297 1.399 . S
C1298 C1299 1.385 . S
C1299 H1285 0.931 . S
C1299 C1298 1.385 . S
C1299 C1300 1.389 . S
C1300 C1299 1.389 . S
C1300 C1301 1.387 . S
C1301 H1286 0.930 . S
C1301 C1296 1.390 . S
C1301 C1300 1.387 . S
H1302 C1314 0.930 . S
H1303 C1316 0.930 . S
H1304 C1317 0.930 . S
H1305 C1321 0.959 . S
H1306 C1321 0.959 . S
H1307 C1321 0.961 . S
H1308 C1322 0.960 . S
H1309 C1322 0.961 . S
H1310 C1322 0.959 . S
H1311 C1325 0.929 . S
H1312 C1326 0.931 . S
H1313 C1328 0.930 . S
C1314 H1302 0.930 . S
C1314 C1315 1.399 . S
C1314 C1319 1.399 . S
C1315 C1314 1.399 . S
C1315 C1316 1.376 . S
C1316 H1303 0.930 . S
C1316 C1315 1.376 . S
C1316 C1317 1.388 . S
C1317 H1304 0.930 . S
C1317 C1316 1.388 . S
C1317 C1318 1.390 . S
C1318 C1317 1.390 . S
C1318 C1319 1.394 . S
C1318 C1324 1.465 . S
C1319 C1314 1.399 . S
C1319 C1318 1.394 . S
C1319 C1320 1.516 . S
C1320 C1319 1.516 . S
C1320 C1321 1.502 . S
C1320 C1322 1.561 . S
C1320 C1323 1.526 . S
C1321 H1305 0.959 . S
C1321 H1306 0.959 . S
C1321 H1307 0.961 . S
C1321 C1320 1.502 . S
C1322 H1308 0.960 . S
C1322 H1309 0.961 . S
C1322 H1310 0.959 . S
C1322 C1320 1.561 . S
C1323 C1320 1.526 . S
C1323 C1324 1.396 . S
C1323 C1328 1.390 . S
C1324 C1318 1.465 . S
C1324 C1323 1.396 . S
C1324 C1325 1.399 . S
C1325 H1311 0.929 . S
C1325 C1324 1.399 . S
C1325 C1326 1.385 . S
C1326 H1312 0.931 . S
C1326 C1325 1.385 . S
C1326 C1327 1.389 . S
C1327 C1326 1.389 . S
C1327 C1328 1.387 . S
C1328 H1313 0.930 . S
C1328 C1323 1.390 . S
C1328 C1327 1.387 . S
H1329 C1341 0.930 . S
H1330 C1343 0.930 . S
H1331 C1344 0.930 . S
H1332 C1348 0.959 . S
H1333 C1348 0.959 . S
H1334 C1348 0.961 . S
H1335 C1349 0.960 . S
H1336 C1349 0.961 . S
H1337 C1349 0.959 . S
H1338 C1352 0.929 . S
H1339 C1353 0.931 . S
H1340 C1355 0.930 . S
C1341 H1329 0.930 . S
C1341 C1342 1.399 . S
C1341 C1346 1.399 . S
C1342 C1341 1.399 . S
C1342 C1343 1.376 . S
C1343 H1330 0.930 . S
C1343 C1342 1.376 . S
C1343 C1344 1.388 . S
C1344 H1331 0.930 . S
C1344 C1343 1.388 . S
C1344 C1345 1.390 . S
C1345 C1344 1.390 . S
C1345 C1346 1.394 . S
C1345 C1351 1.465 . S
C1346 C1341 1.399 . S
C1346 C1345 1.394 . S
C1346 C1347 1.516 . S
C1347 C1346 1.516 . S
C1347 C1348 1.502 . S
C1347 C1349 1.561 . S
C1347 C1350 1.526 . S
C1348 H1332 0.959 . S
C1348 H1333 0.959 . S
C1348 H1334 0.961 . S
C1348 C1347 1.502 . S
C1349 H1335 0.960 . S
C1349 H1336 0.961 . S
C1349 H1337 0.959 . S
C1349 C1347 1.561 . S
C1350 C1347 1.526 . S
C1350 C1351 1.396 . S
C1350 C1355 1.390 . S
C1351 C1345 1.465 . S
C1351 C1350 1.396 . S
C1351 C1352 1.399 . S
C1352 H1338 0.929 . S
C1352 C1351 1.399 . S
C1352 C1353 1.385 . S
C1353 H1339 0.931 . S
C1353 C1352 1.385 . S
C1353 C1354 1.389 . S
C1354 C1353 1.389 . S
C1354 C1355 1.387 . S
C1355 H1340 0.930 . S
C1355 C1350 1.390 . S
C1355 C1354 1.387 . S
H1356 C1368 0.930 . S
H1357 C1370 0.930 . S
H1358 C1371 0.930 . S
H1359 C1375 0.959 . S
H1360 C1375 0.959 . S
H1361 C1375 0.961 . S
H1362 C1376 0.960 . S
H1363 C1376 0.961 . S
H1364 C1376 0.959 . S
H1365 C1379 0.929 . S
H1366 C1380 0.931 . S
H1367 C1382 0.930 . S
C1368 H1356 0.930 . S
C1368 C1369 1.399 . S
C1368 C1373 1.399 . S
C1369 C1368 1.399 . S
C1369 C1370 1.376 . S
C1370 H1357 0.930 . S
C1370 C1369 1.376 . S
C1370 C1371 1.388 . S
C1371 H1358 0.930 . S
C1371 C1370 1.388 . S
C1371 C1372 1.390 . S
C1372 C1371 1.390 . S
C1372 C1373 1.394 . S
C1372 C1378 1.465 . S
C1373 C1368 1.399 . S
C1373 C1372 1.394 . S
C1373 C1374 1.516 . S
C1374 C1373 1.516 . S
C1374 C1375 1.502 . S
C1374 C1376 1.561 . S
C1374 C1377 1.526 . S
C1375 H1359 0.959 . S
C1375 H1360 0.959 . S
C1375 H1361 0.961 . S
C1375 C1374 1.502 . S
C1376 H1362 0.960 . S
C1376 H1363 0.961 . S
C1376 H1364 0.959 . S
C1376 C1374 1.561 . S
C1377 C1374 1.526 . S
C1377 C1378 1.396 . S
C1377 C1382 1.390 . S
C1378 C1372 1.465 . S
C1378 C1377 1.396 . S
C1378 C1379 1.399 . S
C1379 H1365 0.929 . S
C1379 C1378 1.399 . S
C1379 C1380 1.385 . S
C1380 H1366 0.931 . S
C1380 C1379 1.385 . S
C1380 C1381 1.389 . S
C1381 C1380 1.389 . S
C1381 C1382 1.387 . S
C1382 H1367 0.930 . S
C1382 C1377 1.390 . S
C1382 C1381 1.387 . S
H1383 C1395 0.930 . S
H1384 C1397 0.930 . S
H1385 C1398 0.930 . S
H1386 C1402 0.959 . S
H1387 C1402 0.959 . S
H1388 C1402 0.961 . S
H1389 C1403 0.960 . S
H1390 C1403 0.961 . S
H1391 C1403 0.959 . S
H1392 C1406 0.929 . S
H1393 C1407 0.931 . S
H1394 C1409 0.930 . S
C1395 H1383 0.930 . S
C1395 C1396 1.399 . S
C1395 C1400 1.399 . S
C1396 C1395 1.399 . S
C1396 C1397 1.376 . S
C1397 H1384 0.930 . S
C1397 C1396 1.376 . S
C1397 C1398 1.388 . S
C1398 H1385 0.930 . S
C1398 C1397 1.388 . S
C1398 C1399 1.390 . S
C1399 C1398 1.390 . S
C1399 C1400 1.394 . S
C1399 C1405 1.465 . S
C1400 C1395 1.399 . S
C1400 C1399 1.394 . S
C1400 C1401 1.516 . S
C1401 C1400 1.516 . S
C1401 C1402 1.502 . S
C1401 C1403 1.561 . S
C1401 C1404 1.526 . S
C1402 H1386 0.959 . S
C1402 H1387 0.959 . S
C1402 H1388 0.961 . S
C1402 C1401 1.502 . S
C1403 H1389 0.960 . S
C1403 H1390 0.961 . S
C1403 H1391 0.959 . S
C1403 C1401 1.561 . S
C1404 C1401 1.526 . S
C1404 C1405 1.396 . S
C1404 C1409 1.390 . S
C1405 C1399 1.465 . S
C1405 C1404 1.396 . S
C1405 C1406 1.399 . S
C1406 H1392 0.929 . S
C1406 C1405 1.399 . S
C1406 C1407 1.385 1_554 S
C1407 H1393 0.931 . S
C1407 C1406 1.385 1_556 S
C1407 C1408 1.389 . S
C1408 C1407 1.389 . S
C1408 C1409 1.387 1_556 S
C1409 H1394 0.930 . S
C1409 C1404 1.390 . S
C1409 C1408 1.387 1_554 S
H1410 C1422 0.930 . S
H1411 C1424 0.930 . S
H1412 C1425 0.930 . S
H1413 C1429 0.959 . S
H1414 C1429 0.959 . S
H1415 C1429 0.961 . S
H1416 C1430 0.960 . S
H1417 C1430 0.961 . S
H1418 C1430 0.959 . S
H1419 C1433 0.929 . S
H1420 C1434 0.931 . S
H1421 C1436 0.930 . S
C1422 H1410 0.930 . S
C1422 C1423 1.399 . S
C1422 C1427 1.399 . S
C1423 C1422 1.399 . S
C1423 C1424 1.376 . S
C1424 H1411 0.930 . S
C1424 C1423 1.376 . S
C1424 C1425 1.388 . S
C1425 H1412 0.930 . S
C1425 C1424 1.388 . S
C1425 C1426 1.390 . S
C1426 C1425 1.390 . S
C1426 C1427 1.394 . S
C1426 C1432 1.465 . S
C1427 C1422 1.399 . S
C1427 C1426 1.394 . S
C1427 C1428 1.516 . S
C1428 C1427 1.516 . S
C1428 C1429 1.502 . S
C1428 C1430 1.561 . S
C1428 C1431 1.526 . S
C1429 H1413 0.959 . S
C1429 H1414 0.959 . S
C1429 H1415 0.961 . S
C1429 C1428 1.502 . S
C1430 H1416 0.960 . S
C1430 H1417 0.961 . S
C1430 H1418 0.959 . S
C1430 C1428 1.561 . S
C1431 C1428 1.526 . S
C1431 C1432 1.396 . S
C1431 C1436 1.390 . S
C1432 C1426 1.465 . S
C1432 C1431 1.396 . S
C1432 C1433 1.399 . S
C1433 H1419 0.929 . S
C1433 C1432 1.399 . S
C1433 C1434 1.385 . S
C1434 H1420 0.931 . S
C1434 C1433 1.385 . S
C1434 C1435 1.389 . S
C1435 C1434 1.389 . S
C1435 C1436 1.387 . S
C1436 H1421 0.930 . S
C1436 C1431 1.390 . S
C1436 C1435 1.387 . S
H1437 C1449 0.930 . S
H1438 C1451 0.930 . S
H1439 C1452 0.930 . S
H1440 C1456 0.959 . S
H1441 C1456 0.959 . S
H1442 C1456 0.961 . S
H1443 C1457 0.960 . S
H1444 C1457 0.961 . S
H1445 C1457 0.959 . S
H1446 C1460 0.929 . S
H1447 C1461 0.931 . S
H1448 C1463 0.930 . S
C1449 H1437 0.930 . S
C1449 C1450 1.399 . S
C1449 C1454 1.399 . S
C1450 C1449 1.399 . S
C1450 C1451 1.376 . S
C1451 H1438 0.930 . S
C1451 C1450 1.376 . S
C1451 C1452 1.388 . S
C1452 H1439 0.930 . S
C1452 C1451 1.388 . S
C1452 C1453 1.390 . S
C1453 C1452 1.390 . S
C1453 C1454 1.394 . S
C1453 C1459 1.465 . S
C1454 C1449 1.399 . S
C1454 C1453 1.394 . S
C1454 C1455 1.516 . S
C1455 C1454 1.516 . S
C1455 C1456 1.502 . S
C1455 C1457 1.561 . S
C1455 C1458 1.526 . S
C1456 H1440 0.959 . S
C1456 H1441 0.959 . S
C1456 H1442 0.961 . S
C1456 C1455 1.502 . S
C1457 H1443 0.960 . S
C1457 H1444 0.961 . S
C1457 H1445 0.959 . S
C1457 C1455 1.561 . S
C1458 C1455 1.526 . S
C1458 C1459 1.396 . S
C1458 C1463 1.390 . S
C1459 C1453 1.465 . S
C1459 C1458 1.396 . S
C1459 C1460 1.399 1_554 S
C1460 H1446 0.929 . S
C1460 C1459 1.399 1_556 S
C1460 C1461 1.385 . S
C1461 H1447 0.931 . S
C1461 C1460 1.385 . S
C1461 C1462 1.389 . S
C1462 C1461 1.389 . S
C1462 C1463 1.387 1_556 S
C1463 H1448 0.930 . S
C1463 C1458 1.390 . S
C1463 C1462 1.387 1_554 S
H1464 C1476 0.930 . S
H1465 C1478 0.930 . S
H1466 C1479 0.930 . S
H1467 C1483 0.959 . S
H1468 C1483 0.959 . S
H1469 C1483 0.961 . S
H1470 C1484 0.960 . S
H1471 C1484 0.961 . S
H1472 C1484 0.959 . S
H1473 C1487 0.929 . S
H1474 C1488 0.931 . S
H1475 C1490 0.930 . S
C1476 H1464 0.930 . S
C1476 C1477 1.399 . S
C1476 C1481 1.399 . S
C1477 C1476 1.399 . S
C1477 C1478 1.376 . S
C1478 H1465 0.930 . S
C1478 C1477 1.376 . S
C1478 C1479 1.388 . S
C1479 H1466 0.930 . S
C1479 C1478 1.388 . S
C1479 C1480 1.390 . S
C1480 C1479 1.390 . S
C1480 C1481 1.394 . S
C1480 C1486 1.465 . S
C1481 C1476 1.399 . S
C1481 C1480 1.394 . S
C1481 C1482 1.516 . S
C1482 C1481 1.516 . S
C1482 C1483 1.502 . S
C1482 C1484 1.561 . S
C1482 C1485 1.526 . S
C1483 H1467 0.959 . S
C1483 H1468 0.959 . S
C1483 H1469 0.961 . S
C1483 C1482 1.502 . S
C1484 H1470 0.960 . S
C1484 H1471 0.961 . S
C1484 H1472 0.959 . S
C1484 C1482 1.561 . S
C1485 C1482 1.526 . S
C1485 C1486 1.396 . S
C1485 C1490 1.390 . S
C1486 C1480 1.465 . S
C1486 C1485 1.396 . S
C1486 C1487 1.399 . S
C1487 H1473 0.929 . S
C1487 C1486 1.399 . S
C1487 C1488 1.385 . S
C1488 H1474 0.931 . S
C1488 C1487 1.385 . S
C1488 C1489 1.389 . S
C1489 C1488 1.389 . S
C1489 C1490 1.387 . S
C1490 H1475 0.930 . S
C1490 C1485 1.390 . S
C1490 C1489 1.387 . S
H1491 C1503 0.930 . S
H1492 C1505 0.930 . S
H1493 C1506 0.930 . S
H1494 C1510 0.959 . S
H1495 C1510 0.959 . S
H1496 C1510 0.961 . S
H1497 C1511 0.960 . S
H1498 C1511 0.961 . S
H1499 C1511 0.959 . S
H1500 C1514 0.926 1_554 S
H1501 C1515 0.931 . S
H1502 C1517 0.930 . S
C1503 H1491 0.930 . S
C1503 C1504 1.399 . S
C1503 C1508 1.399 . S
C1504 C1503 1.399 . S
C1504 C1505 1.376 . S
C1505 H1492 0.930 . S
C1505 C1504 1.376 . S
C1505 C1506 1.388 . S
C1506 H1493 0.930 . S
C1506 C1505 1.388 . S
C1506 C1507 1.390 . S
C1507 C1506 1.390 . S
C1507 C1508 1.394 . S
C1507 C1513 1.465 . S
C1508 C1503 1.399 . S
C1508 C1507 1.394 . S
C1508 C1509 1.516 . S
C1509 C1508 1.516 . S
C1509 C1510 1.502 . S
C1509 C1511 1.561 . S
C1509 C1512 1.526 . S
C1510 H1494 0.959 . S
C1510 H1495 0.959 . S
C1510 H1496 0.961 . S
C1510 C1509 1.502 . S
C1511 H1497 0.960 . S
C1511 H1498 0.961 . S
C1511 H1499 0.959 . S
C1511 C1509 1.561 . S
C1512 C1509 1.526 . S
C1512 C1513 1.396 . S
C1512 C1517 1.390 . S
C1513 C1507 1.465 . S
C1513 C1512 1.396 . S
C1513 C1514 1.399 . S
C1514 H1500 0.926 1_556 S
C1514 C1513 1.399 . S
C1514 C1515 1.385 1_556 S
C1515 H1501 0.931 . S
C1515 C1514 1.385 1_554 S
C1515 C1516 1.389 . S
C1516 C1515 1.389 . S
C1516 C1517 1.387 1_554 S
C1517 H1502 0.930 . S
C1517 C1512 1.390 . S
C1517 C1516 1.387 1_556 S
H1518 C1530 0.930 . S
H1519 C1532 0.930 . S
H1520 C1533 0.930 . S
H1521 C1537 0.959 . S
H1522 C1537 0.959 . S
H1523 C1537 0.961 . S
H1524 C1538 0.960 . S
H1525 C1538 0.961 . S
H1526 C1538 0.959 . S
H1527 C1541 0.929 . S
H1528 C1542 0.931 . S
H1529 C1544 0.930 . S
C1530 H1518 0.930 . S
C1530 C1531 1.399 . S
C1530 C1535 1.399 . S
C1531 C1530 1.399 . S
C1531 C1532 1.376 . S
C1532 H1519 0.930 . S
C1532 C1531 1.376 . S
C1532 C1533 1.388 . S
C1533 H1520 0.930 . S
C1533 C1532 1.388 . S
C1533 C1534 1.390 . S
C1534 C1533 1.390 . S
C1534 C1535 1.394 . S
C1534 C1540 1.465 . S
C1535 C1530 1.399 . S
C1535 C1534 1.394 . S
C1535 C1536 1.516 . S
C1536 C1535 1.516 . S
C1536 C1537 1.502 . S
C1536 C1538 1.561 . S
C1536 C1539 1.526 . S
C1537 H1521 0.959 . S
C1537 H1522 0.959 . S
C1537 H1523 0.961 . S
C1537 C1536 1.502 . S
C1538 H1524 0.960 . S
C1538 H1525 0.961 . S
C1538 H1526 0.959 . S
C1538 C1536 1.561 . S
C1539 C1536 1.526 . S
C1539 C1540 1.396 . S
C1539 C1544 1.390 . S
C1540 C1534 1.465 . S
C1540 C1539 1.396 . S
C1540 C1541 1.399 . S
C1541 H1527 0.929 . S
C1541 C1540 1.399 . S
C1541 C1542 1.385 . S
C1542 H1528 0.931 . S
C1542 C1541 1.385 . S
C1542 C1543 1.389 . S
C1543 C1542 1.389 . S
C1543 C1544 1.387 . S
C1544 H1529 0.930 . S
C1544 C1539 1.390 . S
C1544 C1543 1.387 . S
H1545 C1557 0.930 . S
H1546 C1559 0.930 . S
H1547 C1560 0.930 . S
H1548 C1564 0.959 . S
H1549 C1564 0.959 . S
H1550 C1564 0.961 . S
H1551 C1565 0.960 . S
H1552 C1565 0.961 . S
H1553 C1565 0.959 . S
H1554 C1568 0.929 . S
H1555 C1569 0.931 . S
H1556 C1571 0.930 . S
C1557 H1545 0.930 . S
C1557 C1558 1.399 . S
C1557 C1562 1.399 . S
C1558 C1557 1.399 . S
C1558 C1559 1.376 . S
C1559 H1546 0.930 . S
C1559 C1558 1.376 . S
C1559 C1560 1.388 . S
C1560 H1547 0.930 . S
C1560 C1559 1.388 . S
C1560 C1561 1.390 . S
C1561 C1560 1.390 . S
C1561 C1562 1.394 . S
C1561 C1567 1.465 . S
C1562 C1557 1.399 . S
C1562 C1561 1.394 . S
C1562 C1563 1.516 . S
C1563 C1562 1.516 . S
C1563 C1564 1.502 . S
C1563 C1565 1.561 . S
C1563 C1566 1.526 . S
C1564 H1548 0.959 . S
C1564 H1549 0.959 . S
C1564 H1550 0.961 . S
C1564 C1563 1.502 . S
C1565 H1551 0.960 . S
C1565 H1552 0.961 . S
C1565 H1553 0.959 . S
C1565 C1563 1.561 . S
C1566 C1563 1.526 . S
C1566 C1567 1.396 . S
C1566 C1571 1.390 . S
C1567 C1561 1.465 . S
C1567 C1566 1.396 . S
C1567 C1568 1.399 . S
C1568 H1554 0.929 . S
C1568 C1567 1.399 . S
C1568 C1569 1.385 1_556 S
C1569 H1555 0.931 . S
C1569 C1568 1.385 1_554 S
C1569 C1570 1.389 . S
C1570 C1569 1.389 . S
C1570 C1571 1.387 1_554 S
C1571 H1556 0.930 . S
C1571 C1566 1.390 . S
C1571 C1570 1.387 1_556 S
H1572 C1584 0.930 . S
H1573 C1586 0.930 . S
H1574 C1587 0.930 . S
H1575 C1591 0.959 . S
H1576 C1591 0.959 . S
H1577 C1591 0.961 . S
H1578 C1592 0.960 . S
H1579 C1592 0.961 . S
H1580 C1592 0.959 . S
H1581 C1595 0.929 . S
H1582 C1596 0.931 . S
H1583 C1598 0.930 . S
C1584 H1572 0.930 . S
C1584 C1585 1.399 . S
C1584 C1589 1.399 . S
C1585 C1584 1.399 . S
C1585 C1586 1.376 . S
C1586 H1573 0.930 . S
C1586 C1585 1.376 . S
C1586 C1587 1.388 . S
C1587 H1574 0.930 . S
C1587 C1586 1.388 . S
C1587 C1588 1.390 . S
C1588 C1587 1.390 . S
C1588 C1589 1.394 . S
C1588 C1594 1.465 . S
C1589 C1584 1.399 . S
C1589 C1588 1.394 . S
C1589 C1590 1.516 . S
C1590 C1589 1.516 . S
C1590 C1591 1.502 . S
C1590 C1592 1.561 . S
C1590 C1593 1.526 . S
C1591 H1575 0.959 . S
C1591 H1576 0.959 . S
C1591 H1577 0.961 . S
C1591 C1590 1.502 . S
C1592 H1578 0.960 . S
C1592 H1579 0.961 . S
C1592 H1580 0.959 . S
C1592 C1590 1.561 . S
C1593 C1590 1.526 . S
C1593 C1594 1.396 . S
C1593 C1598 1.390 . S
C1594 C1588 1.465 . S
C1594 C1593 1.396 . S
C1594 C1595 1.399 . S
C1595 H1581 0.929 . S
C1595 C1594 1.399 . S
C1595 C1596 1.385 . S
C1596 H1582 0.931 . S
C1596 C1595 1.385 . S
C1596 C1597 1.389 . S
C1597 C1596 1.389 . S
C1597 C1598 1.387 . S
C1598 H1583 0.930 . S
C1598 C1593 1.390 . S
C1598 C1597 1.387 . S
H1599 C1611 0.930 . S
H1600 C1613 0.930 . S
H1601 C1614 0.930 . S
H1602 C1618 0.959 . S
H1603 C1618 0.959 . S
H1604 C1618 0.961 . S
H1605 C1619 0.960 . S
H1606 C1619 0.961 . S
H1607 C1619 0.959 . S
H1608 C1622 0.929 . S
H1609 C1623 0.931 . S
H1610 C1625 0.930 . S
C1611 H1599 0.930 . S
C1611 C1612 1.399 . S
C1611 C1616 1.399 . S
C1612 C1611 1.399 . S
C1612 C1613 1.376 . S
C1613 H1600 0.930 . S
C1613 C1612 1.376 . S
C1613 C1614 1.388 . S
C1614 H1601 0.930 . S
C1614 C1613 1.388 . S
C1614 C1615 1.390 . S
C1615 C1614 1.390 . S
C1615 C1616 1.394 . S
C1615 C1621 1.465 . S
C1616 C1611 1.399 . S
C1616 C1615 1.394 . S
C1616 C1617 1.516 . S
C1617 C1616 1.516 . S
C1617 C1618 1.502 . S
C1617 C1619 1.561 . S
C1617 C1620 1.526 . S
C1618 H1602 0.959 . S
C1618 H1603 0.959 . S
C1618 H1604 0.961 . S
C1618 C1617 1.502 . S
C1619 H1605 0.960 . S
C1619 H1606 0.961 . S
C1619 H1607 0.959 . S
C1619 C1617 1.561 . S
C1620 C1617 1.526 . S
C1620 C1621 1.396 . S
C1620 C1625 1.390 . S
C1621 C1615 1.465 . S
C1621 C1620 1.396 . S
C1621 C1622 1.399 . S
C1622 H1608 0.929 . S
C1622 C1621 1.399 . S
C1622 C1623 1.385 . S
C1623 H1609 0.931 . S
C1623 C1622 1.385 . S
C1623 C1624 1.389 . S
C1624 C1623 1.389 . S
C1624 C1625 1.387 . S
C1625 H1610 0.930 . S
C1625 C1620 1.390 . S
C1625 C1624 1.387 . S
H1626 C1638 0.930 . S
H1627 C1640 0.930 . S
H1628 C1641 0.930 . S
H1629 C1645 0.959 . S
H1630 C1645 0.959 1_545 S
H1631 C1645 0.961 . S
H1632 C1646 0.960 . S
H1633 C1646 0.961 . S
H1634 C1646 0.959 . S
H1635 C1649 0.929 . S
H1636 C1650 0.931 . S
H1637 C1652 0.930 . S
C1638 H1626 0.930 . S
C1638 C1639 1.399 . S
C1638 C1643 1.399 . S
C1639 C1638 1.399 . S
C1639 C1640 1.376 . S
C1640 H1627 0.930 . S
C1640 C1639 1.376 . S
C1640 C1641 1.388 . S
C1641 H1628 0.930 . S
C1641 C1640 1.388 . S
C1641 C1642 1.390 . S
C1642 C1641 1.390 . S
C1642 C1643 1.394 . S
C1642 C1648 1.465 . S
C1643 C1638 1.399 . S
C1643 C1642 1.394 . S
C1643 C1644 1.516 . S
C1644 C1643 1.516 . S
C1644 C1645 1.502 . S
C1644 C1646 1.561 1_565 S
C1644 C1647 1.526 . S
C1645 H1629 0.959 . S
C1645 H1630 0.959 1_565 S
C1645 H1631 0.961 . S
C1645 C1644 1.502 . S
C1646 H1632 0.960 . S
C1646 H1633 0.961 . S
C1646 H1634 0.959 . S
C1646 C1644 1.561 1_545 S
C1647 C1644 1.526 . S
C1647 C1648 1.396 . S
C1647 C1652 1.390 . S
C1648 C1642 1.465 . S
C1648 C1647 1.396 . S
C1648 C1649 1.399 . S
C1649 H1635 0.929 . S
C1649 C1648 1.399 . S
C1649 C1650 1.385 . S
C1650 H1636 0.931 . S
C1650 C1649 1.385 . S
C1650 C1651 1.389 . S
C1651 C1650 1.389 . S
C1651 C1652 1.387 . S
C1652 H1637 0.930 . S
C1652 C1647 1.390 . S
C1652 C1651 1.387 . S
H1653 C1665 0.930 . S
H1654 C1667 0.930 . S
H1655 C1668 0.930 . S
H1656 C1672 0.959 . S
H1657 C1672 0.959 . S
H1658 C1672 0.961 . S
H1659 C1673 0.960 . S
H1660 C1673 0.961 . S
H1661 C1673 0.959 . S
H1662 C1676 0.929 . S
H1663 C1677 0.931 1_545 S
H1664 C1679 0.926 1_545 S
C1665 H1653 0.930 . S
C1665 C1666 1.399 . S
C1665 C1670 1.399 . S
C1666 C1665 1.399 . S
C1666 C1667 1.376 . S
C1667 H1654 0.930 . S
C1667 C1666 1.376 . S
C1667 C1668 1.388 . S
C1668 H1655 0.930 . S
C1668 C1667 1.388 . S
C1668 C1669 1.390 . S
C1669 C1668 1.390 . S
C1669 C1670 1.394 . S
C1669 C1675 1.465 . S
C1670 C1665 1.399 . S
C1670 C1669 1.394 . S
C1670 C1671 1.516 . S
C1671 C1670 1.516 . S
C1671 C1672 1.502 . S
C1671 C1673 1.561 . S
C1671 C1674 1.526 . S
C1672 H1656 0.959 . S
C1672 H1657 0.959 . S
C1672 H1658 0.961 . S
C1672 C1671 1.502 . S
C1673 H1659 0.960 . S
C1673 H1660 0.961 . S
C1673 H1661 0.959 . S
C1673 C1671 1.561 . S
C1674 C1671 1.526 . S
C1674 C1675 1.396 . S
C1674 C1679 1.390 . S
C1675 C1669 1.465 . S
C1675 C1674 1.396 . S
C1675 C1676 1.399 . S
C1676 H1662 0.929 . S
C1676 C1675 1.399 . S
C1676 C1677 1.385 . S
C1677 H1663 0.931 1_565 S
C1677 C1676 1.385 . S
C1677 C1678 1.389 1_565 S
C1678 C1677 1.389 1_545 S
C1678 C1679 1.387 1_545 S
C1679 H1664 0.926 1_565 S
C1679 C1674 1.390 . S
C1679 C1678 1.387 1_565 S
H1680 C1692 0.930 . S
H1681 C1694 0.930 . S
H1682 C1695 0.930 . S
H1683 C1699 0.959 . S
H1684 C1699 0.959 . S
H1685 C1699 0.961 . S
H1686 C1700 0.960 . S
H1687 C1700 0.961 . S
H1688 C1700 0.959 . S
H1689 C1703 0.929 . S
H1690 C1704 0.931 . S
H1691 C1706 0.930 . S
C1692 H1680 0.930 . S
C1692 C1693 1.399 . S
C1692 C1697 1.399 . S
C1693 C1692 1.399 . S
C1693 C1694 1.376 . S
C1694 H1681 0.930 . S
C1694 C1693 1.376 . S
C1694 C1695 1.388 . S
C1695 H1682 0.930 . S
C1695 C1694 1.388 . S
C1695 C1696 1.390 . S
C1696 C1695 1.390 . S
C1696 C1697 1.394 . S
C1696 C1702 1.465 . S
C1697 C1692 1.399 . S
C1697 C1696 1.394 . S
C1697 C1698 1.516 . S
C1698 C1697 1.516 . S
C1698 C1699 1.502 . S
C1698 C1700 1.561 . S
C1698 C1701 1.526 . S
C1699 H1683 0.959 . S
C1699 H1684 0.959 . S
C1699 H1685 0.961 . S
C1699 C1698 1.502 . S
C1700 H1686 0.960 . S
C1700 H1687 0.961 . S
C1700 H1688 0.959 . S
C1700 C1698 1.561 . S
C1701 C1698 1.526 . S
C1701 C1702 1.396 . S
C1701 C1706 1.390 . S
C1702 C1696 1.465 . S
C1702 C1701 1.396 . S
C1702 C1703 1.399 . S
C1703 H1689 0.929 . S
C1703 C1702 1.399 . S
C1703 C1704 1.385 . S
C1704 H1690 0.931 . S
C1704 C1703 1.385 . S
C1704 C1705 1.389 . S
C1705 C1704 1.389 . S
C1705 C1706 1.387 . S
C1706 H1691 0.930 . S
C1706 C1701 1.390 . S
C1706 C1705 1.387 . S
H1707 C1719 0.930 . S
H1708 C1721 0.930 . S
H1709 C1722 0.930 . S
H1710 C1726 0.959 . S
H1711 C1726 0.959 . S
H1712 C1726 0.961 . S
H1713 C1727 0.960 . S
H1714 C1727 0.961 . S
H1715 C1727 0.959 . S
H1716 C1730 0.929 . S
H1717 C1731 0.931 . S
H1718 C1733 0.930 . S
C1719 H1707 0.930 . S
C1719 C1720 1.399 . S
C1719 C1724 1.399 . S
C1720 C1719 1.399 . S
C1720 C1721 1.376 . S
C1721 H1708 0.930 . S
C1721 C1720 1.376 . S
C1721 C1722 1.388 . S
C1722 H1709 0.930 . S
C1722 C1721 1.388 . S
C1722 C1723 1.390 . S
C1723 C1722 1.390 . S
C1723 C1724 1.394 . S
C1723 C1729 1.465 . S
C1724 C1719 1.399 . S
C1724 C1723 1.394 . S
C1724 C1725 1.516 . S
C1725 C1724 1.516 . S
C1725 C1726 1.502 . S
C1725 C1727 1.561 . S
C1725 C1728 1.526 . S
C1726 H1710 0.959 . S
C1726 H1711 0.959 . S
C1726 H1712 0.961 . S
C1726 C1725 1.502 . S
C1727 H1713 0.960 . S
C1727 H1714 0.961 . S
C1727 H1715 0.959 . S
C1727 C1725 1.561 . S
C1728 C1725 1.526 . S
C1728 C1729 1.396 . S
C1728 C1733 1.390 . S
C1729 C1723 1.465 . S
C1729 C1728 1.396 . S
C1729 C1730 1.399 . S
C1730 H1716 0.929 . S
C1730 C1729 1.399 . S
C1730 C1731 1.385 . S
C1731 H1717 0.931 . S
C1731 C1730 1.385 . S
C1731 C1732 1.389 . S
C1732 C1731 1.389 . S
C1732 C1733 1.387 . S
C1733 H1718 0.930 . S
C1733 C1728 1.390 . S
C1733 C1732 1.387 . S
H1734 C1746 0.930 . S
H1735 C1748 0.930 . S
H1736 C1749 0.930 . S
H1737 C1753 0.959 . S
H1738 C1753 0.959 . S
H1739 C1753 0.961 . S
H1740 C1754 0.960 . S
H1741 C1754 0.961 . S
H1742 C1754 0.959 . S
H1743 C1757 0.929 . S
H1744 C1758 0.931 . S
H1745 C1760 0.930 . S
C1746 H1734 0.930 . S
C1746 C1747 1.399 . S
C1746 C1751 1.399 . S
C1747 C1746 1.399 . S
C1747 C1748 1.376 . S
C1748 H1735 0.930 . S
C1748 C1747 1.376 . S
C1748 C1749 1.388 . S
C1749 H1736 0.930 . S
C1749 C1748 1.388 . S
C1749 C1750 1.390 . S
C1750 C1749 1.390 . S
C1750 C1751 1.394 . S
C1750 C1756 1.465 . S
C1751 C1746 1.399 . S
C1751 C1750 1.394 . S
C1751 C1752 1.516 . S
C1752 C1751 1.516 . S
C1752 C1753 1.502 . S
C1752 C1754 1.561 . S
C1752 C1755 1.526 . S
C1753 H1737 0.959 . S
C1753 H1738 0.959 . S
C1753 H1739 0.961 . S
C1753 C1752 1.502 . S
C1754 H1740 0.960 . S
C1754 H1741 0.961 . S
C1754 H1742 0.959 . S
C1754 C1752 1.561 . S
C1755 C1752 1.526 . S
C1755 C1756 1.396 . S
C1755 C1760 1.390 . S
C1756 C1750 1.465 . S
C1756 C1755 1.396 . S
C1756 C1757 1.399 . S
C1757 H1743 0.929 . S
C1757 C1756 1.399 . S
C1757 C1758 1.385 . S
C1758 H1744 0.931 . S
C1758 C1757 1.385 . S
C1758 C1759 1.389 . S
C1759 C1758 1.389 . S
C1759 C1760 1.387 . S
C1760 H1745 0.930 . S
C1760 C1755 1.390 . S
C1760 C1759 1.387 . S
H1761 C1773 0.930 . S
H1762 C1775 0.930 . S
H1763 C1776 0.930 . S
H1764 C1780 0.959 . S
H1765 C1780 0.959 . S
H1766 C1780 0.961 . S
H1767 C1781 0.960 . S
H1768 C1781 0.961 . S
H1769 C1781 0.959 . S
H1770 C1784 0.929 . S
H1771 C1785 0.931 . S
H1772 C1787 0.930 . S
C1773 H1761 0.930 . S
C1773 C1774 1.399 . S
C1773 C1778 1.399 . S
C1774 C1773 1.399 . S
C1774 C1775 1.376 . S
C1775 H1762 0.930 . S
C1775 C1774 1.376 . S
C1775 C1776 1.388 . S
C1776 H1763 0.930 . S
C1776 C1775 1.388 . S
C1776 C1777 1.390 . S
C1777 C1776 1.390 . S
C1777 C1778 1.394 . S
C1777 C1783 1.465 . S
C1778 C1773 1.399 . S
C1778 C1777 1.394 . S
C1778 C1779 1.516 . S
C1779 C1778 1.516 . S
C1779 C1780 1.502 . S
C1779 C1781 1.561 . S
C1779 C1782 1.526 . S
C1780 H1764 0.959 . S
C1780 H1765 0.959 . S
C1780 H1766 0.961 . S
C1780 C1779 1.502 . S
C1781 H1767 0.960 . S
C1781 H1768 0.961 . S
C1781 H1769 0.959 . S
C1781 C1779 1.561 . S
C1782 C1779 1.526 . S
C1782 C1783 1.396 . S
C1782 C1787 1.390 . S
C1783 C1777 1.465 . S
C1783 C1782 1.396 . S
C1783 C1784 1.399 . S
C1784 H1770 0.929 . S
C1784 C1783 1.399 . S
C1784 C1785 1.385 1_565 S
C1785 H1771 0.931 . S
C1785 C1784 1.385 1_545 S
C1785 C1786 1.389 . S
C1786 C1785 1.389 . S
C1786 C1787 1.387 1_545 S
C1787 H1772 0.930 . S
C1787 C1782 1.390 . S
C1787 C1786 1.387 1_565 S
H1788 C1800 0.930 . S
H1789 C1802 0.930 . S
H1790 C1803 0.930 . S
H1791 C1807 0.959 . S
H1792 C1807 0.959 . S
H1793 C1807 0.961 . S
H1794 C1808 0.960 . S
H1795 C1808 0.961 . S
H1796 C1808 0.959 . S
H1797 C1811 0.929 . S
H1798 C1812 0.931 . S
H1799 C1814 0.930 . S
C1800 H1788 0.930 . S
C1800 C1801 1.399 . S
C1800 C1805 1.399 . S
C1801 C1800 1.399 . S
C1801 C1802 1.376 . S
C1802 H1789 0.930 . S
C1802 C1801 1.376 . S
C1802 C1803 1.388 . S
C1803 H1790 0.930 . S
C1803 C1802 1.388 . S
C1803 C1804 1.390 . S
C1804 C1803 1.390 . S
C1804 C1805 1.394 . S
C1804 C1810 1.465 . S
C1805 C1800 1.399 . S
C1805 C1804 1.394 . S
C1805 C1806 1.516 . S
C1806 C1805 1.516 . S
C1806 C1807 1.502 . S
C1806 C1808 1.561 . S
C1806 C1809 1.526 . S
C1807 H1791 0.959 . S
C1807 H1792 0.959 . S
C1807 H1793 0.961 . S
C1807 C1806 1.502 . S
C1808 H1794 0.960 . S
C1808 H1795 0.961 . S
C1808 H1796 0.959 . S
C1808 C1806 1.561 . S
C1809 C1806 1.526 . S
C1809 C1810 1.396 . S
C1809 C1814 1.390 . S
C1810 C1804 1.465 . S
C1810 C1809 1.396 . S
C1810 C1811 1.399 . S
C1811 H1797 0.929 . S
C1811 C1810 1.399 . S
C1811 C1812 1.385 . S
C1812 H1798 0.931 . S
C1812 C1811 1.385 . S
C1812 C1813 1.389 . S
C1813 C1812 1.389 . S
C1813 C1814 1.387 . S
C1814 H1799 0.930 . S
C1814 C1809 1.390 . S
C1814 C1813 1.387 . S
H1815 C1827 0.930 . S
H1816 C1829 0.930 . S
H1817 C1830 0.930 . S
H1818 C1834 0.959 . S
H1819 C1834 0.959 . S
H1820 C1834 0.961 . S
H1821 C1835 0.960 . S
H1822 C1835 0.961 . S
H1823 C1835 0.959 . S
H1824 C1838 0.929 . S
H1825 C1839 0.931 . S
H1826 C1841 0.930 . S
C1827 H1815 0.930 . S
C1827 C1828 1.399 . S
C1827 C1832 1.399 . S
C1828 C1827 1.399 . S
C1828 C1829 1.376 . S
C1829 H1816 0.930 . S
C1829 C1828 1.376 . S
C1829 C1830 1.388 . S
C1830 H1817 0.930 . S
C1830 C1829 1.388 . S
C1830 C1831 1.390 . S
C1831 C1830 1.390 . S
C1831 C1832 1.394 . S
C1831 C1837 1.465 . S
C1832 C1827 1.399 . S
C1832 C1831 1.394 . S
C1832 C1833 1.516 . S
C1833 C1832 1.516 . S
C1833 C1834 1.502 . S
C1833 C1835 1.561 . S
C1833 C1836 1.526 . S
C1834 H1818 0.959 . S
C1834 H1819 0.959 . S
C1834 H1820 0.961 . S
C1834 C1833 1.502 . S
C1835 H1821 0.960 . S
C1835 H1822 0.961 . S
C1835 H1823 0.959 . S
C1835 C1833 1.561 . S
C1836 C1833 1.526 . S
C1836 C1837 1.396 . S
C1836 C1841 1.390 . S
C1837 C1831 1.465 . S
C1837 C1836 1.396 . S
C1837 C1838 1.399 . S
C1838 H1824 0.929 . S
C1838 C1837 1.399 . S
C1838 C1839 1.385 . S
C1839 H1825 0.931 . S
C1839 C1838 1.385 . S
C1839 C1840 1.389 . S
C1840 C1839 1.389 . S
C1840 C1841 1.387 . S
C1841 H1826 0.930 . S
C1841 C1836 1.390 . S
C1841 C1840 1.387 . S
H1842 C1854 0.930 . S
H1843 C1856 0.930 . S
H1844 C1857 0.930 . S
H1845 C1861 0.959 . S
H1846 C1861 0.959 1_655 S
H1847 C1861 0.961 . S
H1848 C1862 0.960 . S
H1849 C1862 0.961 . S
H1850 C1862 0.959 . S
H1851 C1865 0.929 . S
H1852 C1866 0.931 . S
H1853 C1868 0.930 . S
C1854 H1842 0.930 . S
C1854 C1855 1.399 . S
C1854 C1859 1.399 . S
C1855 C1854 1.399 . S
C1855 C1856 1.376 . S
C1856 H1843 0.930 . S
C1856 C1855 1.376 . S
C1856 C1857 1.388 . S
C1857 H1844 0.930 . S
C1857 C1856 1.388 . S
C1857 C1858 1.390 . S
C1858 C1857 1.390 . S
C1858 C1859 1.394 . S
C1858 C1864 1.465 . S
C1859 C1854 1.399 . S
C1859 C1858 1.394 . S
C1859 C1860 1.516 . S
C1860 C1859 1.516 . S
C1860 C1861 1.502 . S
C1860 C1862 1.561 . S
C1860 C1863 1.526 . S
C1861 H1845 0.959 . S
C1861 H1846 0.959 1_455 S
C1861 H1847 0.961 . S
C1861 C1860 1.502 . S
C1862 H1848 0.960 . S
C1862 H1849 0.961 . S
C1862 H1850 0.959 . S
C1862 C1860 1.561 . S
C1863 C1860 1.526 . S
C1863 C1864 1.396 . S
C1863 C1868 1.390 1_455 S
C1864 C1858 1.465 . S
C1864 C1863 1.396 . S
C1864 C1865 1.399 . S
C1865 H1851 0.929 . S
C1865 C1864 1.399 . S
C1865 C1866 1.385 . S
C1866 H1852 0.931 . S
C1866 C1865 1.385 . S
C1866 C1867 1.389 1_455 S
C1867 C1866 1.389 1_655 S
C1867 C1868 1.387 . S
C1868 H1853 0.930 . S
C1868 C1863 1.390 1_655 S
C1868 C1867 1.387 . S
H1869 C1881 0.930 . S
H1870 C1883 0.930 . S
H1871 C1884 0.930 . S
H1872 C1888 0.959 . S
H1873 C1888 0.959 1_554 S
H1874 C1888 0.961 1_554 S
H1875 C1889 0.960 . S
H1876 C1889 0.961 . S
H1877 C1889 0.959 1_556 S
H1878 C1892 0.929 . S
H1879 C1893 0.931 . S
H1880 C1895 0.930 . S
C1881 H1869 0.930 . S
C1881 C1882 1.399 . S
C1881 C1886 1.399 . S
C1882 C1881 1.399 . S
C1882 C1883 1.376 . S
C1883 H1870 0.930 . S
C1883 C1882 1.376 . S
C1883 C1884 1.388 . S
C1884 H1871 0.930 . S
C1884 C1883 1.388 . S
C1884 C1885 1.390 . S
C1885 C1884 1.390 . S
C1885 C1886 1.394 . S
C1885 C1891 1.465 . S
C1886 C1881 1.399 . S
C1886 C1885 1.394 . S
C1886 C1887 1.516 . S
C1887 C1886 1.516 . S
C1887 C1888 1.502 . S
C1887 C1889 1.561 1_556 S
C1887 C1890 1.526 . S
C1888 H1872 0.959 . S
C1888 H1873 0.959 1_556 S
C1888 H1874 0.961 1_556 S
C1888 C1887 1.502 . S
C1889 H1875 0.960 . S
C1889 H1876 0.961 . S
C1889 H1877 0.959 1_554 S
C1889 C1887 1.561 1_554 S
C1890 C1887 1.526 . S
C1890 C1891 1.396 . S
C1890 C1895 1.390 . S
C1891 C1885 1.465 . S
C1891 C1890 1.396 . S
C1891 C1892 1.399 . S
C1892 H1878 0.929 . S
C1892 C1891 1.399 . S
C1892 C1893 1.385 . S
C1893 H1879 0.931 . S
C1893 C1892 1.385 . S
C1893 C1894 1.389 . S
C1894 C1893 1.389 . S
C1894 C1895 1.387 . S
C1895 H1880 0.930 . S
C1895 C1890 1.390 . S
C1895 C1894 1.387 . S
H1896 C1908 0.930 . S
H1897 C1910 0.930 . S
H1898 C1911 0.930 . S
H1899 C1915 0.959 . S
H1900 C1915 0.959 . S
H1901 C1915 0.961 . S
H1902 C1916 0.960 . S
H1903 C1916 0.961 . S
H1904 C1916 0.959 . S
H1905 C1919 0.929 . S
H1906 C1920 0.931 . S
H1907 C1922 0.930 . S
C1908 H1896 0.930 . S
C1908 C1909 1.399 . S
C1908 C1913 1.399 . S
C1909 C1908 1.399 . S
C1909 C1910 1.376 . S
C1910 H1897 0.930 . S
C1910 C1909 1.376 . S
C1910 C1911 1.388 . S
C1911 H1898 0.930 . S
C1911 C1910 1.388 . S
C1911 C1912 1.390 . S
C1912 C1911 1.390 . S
C1912 C1913 1.394 . S
C1912 C1918 1.465 . S
C1913 C1908 1.399 . S
C1913 C1912 1.394 . S
C1913 C1914 1.516 . S
C1914 C1913 1.516 . S
C1914 C1915 1.502 . S
C1914 C1916 1.561 . S
C1914 C1917 1.526 . S
C1915 H1899 0.959 . S
C1915 H1900 0.959 . S
C1915 H1901 0.961 . S
C1915 C1914 1.502 . S
C1916 H1902 0.960 . S
C1916 H1903 0.961 . S
C1916 H1904 0.959 . S
C1916 C1914 1.561 . S
C1917 C1914 1.526 . S
C1917 C1918 1.396 . S
C1917 C1922 1.390 . S
C1918 C1912 1.465 . S
C1918 C1917 1.396 . S
C1918 C1919 1.399 . S
C1919 H1905 0.929 . S
C1919 C1918 1.399 . S
C1919 C1920 1.385 . S
C1920 H1906 0.931 . S
C1920 C1919 1.385 . S
C1920 C1921 1.389 . S
C1921 C1920 1.389 . S
C1921 C1922 1.387 . S
C1922 H1907 0.930 . S
C1922 C1917 1.390 . S
C1922 C1921 1.387 . S
H1923 C1935 0.930 . S
H1924 C1937 0.930 . S
H1925 C1938 0.930 . S
H1926 C1942 0.959 . S
H1927 C1942 0.959 . S
H1928 C1942 0.961 . S
H1929 C1943 0.960 . S
H1930 C1943 0.961 . S
H1931 C1943 0.959 . S
H1932 C1946 0.929 . S
H1933 C1947 0.931 . S
H1934 C1949 0.930 . S
C1935 H1923 0.930 . S
C1935 C1936 1.399 . S
C1935 C1940 1.399 . S
C1936 C1935 1.399 . S
C1936 C1937 1.376 . S
C1937 H1924 0.930 . S
C1937 C1936 1.376 . S
C1937 C1938 1.388 . S
C1938 H1925 0.930 . S
C1938 C1937 1.388 . S
C1938 C1939 1.390 . S
C1939 C1938 1.390 . S
C1939 C1940 1.394 . S
C1939 C1945 1.465 . S
C1940 C1935 1.399 . S
C1940 C1939 1.394 . S
C1940 C1941 1.516 . S
C1941 C1940 1.516 . S
C1941 C1942 1.502 . S
C1941 C1943 1.561 . S
C1941 C1944 1.526 . S
C1942 H1926 0.959 . S
C1942 H1927 0.959 . S
C1942 H1928 0.961 . S
C1942 C1941 1.502 . S
C1943 H1929 0.960 . S
C1943 H1930 0.961 . S
C1943 H1931 0.959 . S
C1943 C1941 1.561 . S
C1944 C1941 1.526 . S
C1944 C1945 1.396 . S
C1944 C1949 1.390 . S
C1945 C1939 1.465 . S
C1945 C1944 1.396 . S
C1945 C1946 1.399 . S
C1946 H1932 0.929 . S
C1946 C1945 1.399 . S
C1946 C1947 1.385 . S
C1947 H1933 0.931 . S
C1947 C1946 1.385 . S
C1947 C1948 1.389 . S
C1948 C1947 1.389 . S
C1948 C1949 1.387 . S
C1949 H1934 0.930 . S
C1949 C1944 1.390 . S
C1949 C1948 1.387 . S
H1950 C1962 0.930 . S
H1951 C1964 0.930 . S
H1952 C1965 0.930 . S
H1953 C1969 0.959 . S
H1954 C1969 0.959 . S
H1955 C1969 0.961 . S
H1956 C1970 0.960 . S
H1957 C1970 0.961 . S
H1958 C1970 0.959 . S
H1959 C1973 0.929 . S
H1960 C1974 0.931 1_655 S
H1961 C1976 0.930 . S
C1962 H1950 0.930 . S
C1962 C1963 1.399 . S
C1962 C1967 1.399 . S
C1963 C1962 1.399 . S
C1963 C1964 1.376 . S
C1964 H1951 0.930 . S
C1964 C1963 1.376 . S
C1964 C1965 1.388 . S
C1965 H1952 0.930 . S
C1965 C1964 1.388 . S
C1965 C1966 1.390 . S
C1966 C1965 1.390 . S
C1966 C1967 1.394 . S
C1966 C1972 1.465 . S
C1967 C1962 1.399 . S
C1967 C1966 1.394 . S
C1967 C1968 1.516 . S
C1968 C1967 1.516 . S
C1968 C1969 1.502 . S
C1968 C1970 1.561 . S
C1968 C1971 1.526 . S
C1969 H1953 0.959 . S
C1969 H1954 0.959 . S
C1969 H1955 0.961 . S
C1969 C1968 1.502 . S
C1970 H1956 0.960 . S
C1970 H1957 0.961 . S
C1970 H1958 0.959 . S
C1970 C1968 1.561 . S
C1971 C1968 1.526 . S
C1971 C1972 1.396 . S
C1971 C1976 1.390 . S
C1972 C1966 1.465 . S
C1972 C1971 1.396 . S
C1972 C1973 1.399 . S
C1973 H1959 0.929 . S
C1973 C1972 1.399 . S
C1973 C1974 1.385 . S
C1974 H1960 0.931 1_455 S
C1974 C1973 1.385 . S
C1974 C1975 1.389 1_455 S
C1975 C1974 1.389 1_655 S
C1975 C1976 1.387 1_655 S
C1976 H1961 0.930 . S
C1976 C1971 1.390 . S
C1976 C1975 1.387 1_455 S
H1977 C1989 0.930 . S
H1978 C1991 0.930 . S
H1979 C1992 0.930 . S
H1980 C1996 0.959 . S
H1981 C1996 0.959 . S
H1982 C1996 0.961 . S
H1983 C1997 0.960 . S
H1984 C1997 0.961 . S
H1985 C1997 0.959 . S
H1986 C2000 0.929 . S
H1987 C2001 0.931 . S
H1988 C2003 0.930 . S
C1989 H1977 0.930 . S
C1989 C1990 1.399 . S
C1989 C1994 1.399 . S
C1990 C1989 1.399 . S
C1990 C1991 1.376 . S
C1991 H1978 0.930 . S
C1991 C1990 1.376 . S
C1991 C1992 1.388 . S
C1992 H1979 0.930 . S
C1992 C1991 1.388 . S
C1992 C1993 1.390 . S
C1993 C1992 1.390 . S
C1993 C1994 1.394 . S
C1993 C1999 1.465 . S
C1994 C1989 1.399 . S
C1994 C1993 1.394 . S
C1994 C1995 1.516 . S
C1995 C1994 1.516 . S
C1995 C1996 1.502 . S
C1995 C1997 1.561 . S
C1995 C1998 1.526 . S
C1996 H1980 0.959 . S
C1996 H1981 0.959 . S
C1996 H1982 0.961 . S
C1996 C1995 1.502 . S
C1997 H1983 0.960 . S
C1997 H1984 0.961 . S
C1997 H1985 0.959 . S
C1997 C1995 1.561 . S
C1998 C1995 1.526 . S
C1998 C1999 1.396 . S
C1998 C2003 1.390 . S
C1999 C1993 1.465 . S
C1999 C1998 1.396 . S
C1999 C2000 1.399 . S
C2000 H1986 0.929 . S
C2000 C1999 1.399 . S
C2000 C2001 1.385 1_655 S
C2001 H1987 0.931 . S
C2001 C2000 1.385 1_455 S
C2001 C2002 1.389 . S
C2002 C2001 1.389 . S
C2002 C2003 1.387 1_455 S
C2003 H1988 0.930 . S
C2003 C1998 1.390 . S
C2003 C2002 1.387 1_655 S
H2004 C2016 0.930 . S
H2005 C2018 0.930 . S
H2006 C2019 0.930 . S
H2007 C2023 0.959 . S
H2008 C2023 0.959 . S
H2009 C2023 0.961 . S
H2010 C2024 0.960 . S
H2011 C2024 0.961 . S
H2012 C2024 0.959 . S
H2013 C2027 0.929 . S
H2014 C2028 0.931 . S
H2015 C2030 0.930 . S
C2016 H2004 0.930 . S
C2016 C2017 1.399 . S
C2016 C2021 1.399 . S
C2017 C2016 1.399 . S
C2017 C2018 1.376 . S
C2018 H2005 0.930 . S
C2018 C2017 1.376 . S
C2018 C2019 1.388 . S
C2019 H2006 0.930 . S
C2019 C2018 1.388 . S
C2019 C2020 1.390 . S
C2020 C2019 1.390 . S
C2020 C2021 1.394 . S
C2020 C2026 1.465 . S
C2021 C2016 1.399 . S
C2021 C2020 1.394 . S
C2021 C2022 1.516 . S
C2022 C2021 1.516 . S
C2022 C2023 1.502 . S
C2022 C2024 1.561 . S
C2022 C2025 1.526 . S
C2023 H2007 0.959 . S
C2023 H2008 0.959 . S
C2023 H2009 0.961 . S
C2023 C2022 1.502 . S
C2024 H2010 0.960 . S
C2024 H2011 0.961 . S
C2024 H2012 0.959 . S
C2024 C2022 1.561 . S
C2025 C2022 1.526 . S
C2025 C2026 1.396 . S
C2025 C2030 1.390 . S
C2026 C2020 1.465 . S
C2026 C2025 1.396 . S
C2026 C2027 1.399 . S
C2027 H2013 0.929 . S
C2027 C2026 1.399 . S
C2027 C2028 1.385 . S
C2028 H2014 0.931 . S
C2028 C2027 1.385 . S
C2028 C2029 1.389 . S
C2029 C2028 1.389 . S
C2029 C2030 1.387 . S
C2030 H2015 0.930 . S
C2030 C2025 1.390 . S
C2030 C2029 1.387 . S
H2031 C2043 0.930 . S
H2032 C2045 0.930 . S
H2033 C2046 0.930 . S
H2034 C2050 0.959 . S
H2035 C2050 0.959 . S
H2036 C2050 0.961 . S
H2037 C2051 0.960 . S
H2038 C2051 0.961 . S
H2039 C2051 0.959 . S
H2040 C2054 0.929 . S
H2041 C2055 0.931 . S
H2042 C2057 0.930 . S
C2043 H2031 0.930 . S
C2043 C2044 1.399 . S
C2043 C2048 1.399 . S
C2044 C2043 1.399 . S
C2044 C2045 1.376 . S
C2045 H2032 0.930 . S
C2045 C2044 1.376 . S
C2045 C2046 1.388 . S
C2046 H2033 0.930 . S
C2046 C2045 1.388 . S
C2046 C2047 1.390 . S
C2047 C2046 1.390 . S
C2047 C2048 1.394 . S
C2047 C2053 1.465 . S
C2048 C2043 1.399 . S
C2048 C2047 1.394 . S
C2048 C2049 1.516 . S
C2049 C2048 1.516 . S
C2049 C2050 1.502 . S
C2049 C2051 1.561 . S
C2049 C2052 1.526 . S
C2050 H2034 0.959 . S
C2050 H2035 0.959 . S
C2050 H2036 0.961 . S
C2050 C2049 1.502 . S
C2051 H2037 0.960 . S
C2051 H2038 0.961 . S
C2051 H2039 0.959 . S
C2051 C2049 1.561 . S
C2052 C2049 1.526 . S
C2052 C2053 1.396 . S
C2052 C2057 1.390 . S
C2053 C2047 1.465 . S
C2053 C2052 1.396 . S
C2053 C2054 1.399 . S
C2054 H2040 0.929 . S
C2054 C2053 1.399 . S
C2054 C2055 1.385 . S
C2055 H2041 0.931 . S
C2055 C2054 1.385 . S
C2055 C2056 1.389 . S
C2056 C2055 1.389 . S
C2056 C2057 1.387 . S
C2057 H2042 0.930 . S
C2057 C2052 1.390 . S
C2057 C2056 1.387 . S
H2058 C2070 0.930 . S
H2059 C2072 0.930 . S
H2060 C2073 0.930 . S
H2061 C2077 0.959 . S
H2062 C2077 0.959 . S
H2063 C2077 0.961 . S
H2064 C2078 0.960 . S
H2065 C2078 0.961 . S
H2066 C2078 0.959 . S
H2067 C2081 0.929 . S
H2068 C2082 0.931 . S
H2069 C2084 0.930 . S
C2070 H2058 0.930 . S
C2070 C2071 1.399 . S
C2070 C2075 1.399 . S
C2071 C2070 1.399 . S
C2071 C2072 1.376 . S
C2072 H2059 0.930 . S
C2072 C2071 1.376 . S
C2072 C2073 1.388 . S
C2073 H2060 0.930 . S
C2073 C2072 1.388 . S
C2073 C2074 1.390 . S
C2074 C2073 1.390 . S
C2074 C2075 1.394 . S
C2074 C2080 1.465 . S
C2075 C2070 1.399 . S
C2075 C2074 1.394 . S
C2075 C2076 1.516 . S
C2076 C2075 1.516 . S
C2076 C2077 1.502 . S
C2076 C2078 1.561 . S
C2076 C2079 1.526 . S
C2077 H2061 0.959 . S
C2077 H2062 0.959 . S
C2077 H2063 0.961 . S
C2077 C2076 1.502 . S
C2078 H2064 0.960 . S
C2078 H2065 0.961 . S
C2078 H2066 0.959 . S
C2078 C2076 1.561 . S
C2079 C2076 1.526 . S
C2079 C2080 1.396 . S
C2079 C2084 1.390 . S
C2080 C2074 1.465 . S
C2080 C2079 1.396 . S
C2080 C2081 1.399 . S
C2081 H2067 0.929 . S
C2081 C2080 1.399 . S
C2081 C2082 1.385 . S
C2082 H2068 0.931 . S
C2082 C2081 1.385 . S
C2082 C2083 1.389 . S
C2083 C2082 1.389 . S
C2083 C2084 1.387 . S
C2084 H2069 0.930 . S
C2084 C2079 1.390 . S
C2084 C2083 1.387 . S
H2085 C2097 0.930 . S
H2086 C2099 0.930 1_545 S
H2087 C2100 0.930 . S
H2088 C2104 0.959 . S
H2089 C2104 0.959 . S
H2090 C2104 0.961 . S
H2091 C2105 0.960 . S
H2092 C2105 0.961 . S
H2093 C2105 0.959 . S
H2094 C2108 0.929 . S
H2095 C2109 0.931 . S
H2096 C2111 0.930 . S
C2097 H2085 0.930 . S
C2097 C2098 1.399 . S
C2097 C2102 1.399 . S
C2098 C2097 1.399 . S
C2098 C2099 1.376 . S
C2099 H2086 0.930 1_565 S
C2099 C2098 1.376 . S
C2099 C2100 1.388 . S
C2100 H2087 0.930 . S
C2100 C2099 1.388 . S
C2100 C2101 1.390 . S
C2101 C2100 1.390 . S
C2101 C2102 1.394 . S
C2101 C2107 1.465 . S
C2102 C2097 1.399 . S
C2102 C2101 1.394 . S
C2102 C2103 1.516 . S
C2103 C2102 1.516 . S
C2103 C2104 1.502 . S
C2103 C2105 1.561 . S
C2103 C2106 1.526 . S
C2104 H2088 0.959 . S
C2104 H2089 0.959 . S
C2104 H2090 0.961 . S
C2104 C2103 1.502 . S
C2105 H2091 0.960 . S
C2105 H2092 0.961 . S
C2105 H2093 0.959 . S
C2105 C2103 1.561 . S
C2106 C2103 1.526 . S
C2106 C2107 1.396 . S
C2106 C2111 1.390 . S
C2107 C2101 1.465 . S
C2107 C2106 1.396 . S
C2107 C2108 1.399 . S
C2108 H2094 0.929 . S
C2108 C2107 1.399 . S
C2108 C2109 1.385 . S
C2109 H2095 0.931 . S
C2109 C2108 1.385 . S
C2109 C2110 1.389 . S
C2110 C2109 1.389 . S
C2110 C2111 1.387 . S
C2111 H2096 0.930 . S
C2111 C2106 1.390 . S
C2111 C2110 1.387 . S
H2112 C2124 0.930 . S
H2113 C2126 0.930 . S
H2114 C2127 0.930 . S
H2115 C2131 0.959 . S
H2116 C2131 0.959 . S
H2117 C2131 0.961 . S
H2118 C2132 0.960 . S
H2119 C2132 0.961 . S
H2120 C2132 0.959 . S
H2121 C2135 0.929 . S
H2122 C2136 0.931 . S
H2123 C2138 0.930 . S
C2124 H2112 0.930 . S
C2124 C2125 1.399 . S
C2124 C2129 1.399 . S
C2125 C2124 1.399 . S
C2125 C2126 1.376 . S
C2126 H2113 0.930 . S
C2126 C2125 1.376 . S
C2126 C2127 1.388 . S
C2127 H2114 0.930 . S
C2127 C2126 1.388 . S
C2127 C2128 1.390 . S
C2128 C2127 1.390 . S
C2128 C2129 1.394 . S
C2128 C2134 1.465 . S
C2129 C2124 1.399 . S
C2129 C2128 1.394 . S
C2129 C2130 1.516 . S
C2130 C2129 1.516 . S
C2130 C2131 1.502 . S
C2130 C2132 1.561 . S
C2130 C2133 1.526 . S
C2131 H2115 0.959 . S
C2131 H2116 0.959 . S
C2131 H2117 0.961 . S
C2131 C2130 1.502 . S
C2132 H2118 0.960 . S
C2132 H2119 0.961 . S
C2132 H2120 0.959 . S
C2132 C2130 1.561 . S
C2133 C2130 1.526 . S
C2133 C2134 1.396 . S
C2133 C2138 1.390 . S
C2134 C2128 1.465 . S
C2134 C2133 1.396 . S
C2134 C2135 1.399 . S
C2135 H2121 0.929 . S
C2135 C2134 1.399 . S
C2135 C2136 1.385 . S
C2136 H2122 0.931 . S
C2136 C2135 1.385 . S
C2136 C2137 1.389 . S
C2137 C2136 1.389 . S
C2137 C2138 1.387 . S
C2138 H2123 0.930 . S
C2138 C2133 1.390 . S
C2138 C2137 1.387 . S
H2139 C2151 0.930 . S
H2140 C2153 0.930 . S
H2141 C2154 0.930 . S
H2142 C2158 0.959 . S
H2143 C2158 0.959 . S
H2144 C2158 0.961 . S
H2145 C2159 0.960 . S
H2146 C2159 0.961 . S
H2147 C2159 0.959 . S
H2148 C2162 0.929 . S
H2149 C2163 0.931 . S
H2150 C2165 0.930 . S
C2151 H2139 0.930 . S
C2151 C2152 1.399 . S
C2151 C2156 1.399 . S
C2152 C2151 1.399 . S
C2152 C2153 1.376 . S
C2153 H2140 0.930 . S
C2153 C2152 1.376 . S
C2153 C2154 1.388 . S
C2154 H2141 0.930 . S
C2154 C2153 1.388 . S
C2154 C2155 1.390 . S
C2155 C2154 1.390 . S
C2155 C2156 1.394 . S
C2155 C2161 1.465 . S
C2156 C2151 1.399 . S
C2156 C2155 1.394 . S
C2156 C2157 1.516 . S
C2157 C2156 1.516 . S
C2157 C2158 1.502 1_455 S
C2157 C2159 1.561 . S
C2157 C2160 1.526 . S
C2158 H2142 0.959 . S
C2158 H2143 0.959 . S
C2158 H2144 0.961 . S
C2158 C2157 1.502 1_655 S
C2159 H2145 0.960 . S
C2159 H2146 0.961 . S
C2159 H2147 0.959 . S
C2159 C2157 1.561 . S
C2160 C2157 1.526 . S
C2160 C2161 1.396 . S
C2160 C2165 1.390 . S
C2161 C2155 1.465 . S
C2161 C2160 1.396 . S
C2161 C2162 1.399 . S
C2162 H2148 0.929 . S
C2162 C2161 1.399 . S
C2162 C2163 1.385 . S
C2163 H2149 0.931 . S
C2163 C2162 1.385 . S
C2163 C2164 1.389 . S
C2164 C2163 1.389 . S
C2164 C2165 1.387 . S
C2165 H2150 0.930 . S
C2165 C2160 1.390 . S
C2165 C2164 1.387 . S
H2166 C2178 0.930 . S
H2167 C2180 0.930 . S
H2168 C2181 0.930 . S
H2169 C2185 0.959 . S
H2170 C2185 0.959 . S
H2171 C2185 0.961 . S
H2172 C2186 0.960 . S
H2173 C2186 0.961 . S
H2174 C2186 0.959 . S
H2175 C2189 0.929 . S
H2176 C2190 0.931 . S
H2177 C2192 0.930 . S
C2178 H2166 0.930 . S
C2178 C2179 1.399 . S
C2178 C2183 1.399 . S
C2179 C2178 1.399 . S
C2179 C2180 1.376 . S
C2180 H2167 0.930 . S
C2180 C2179 1.376 . S
C2180 C2181 1.388 . S
C2181 H2168 0.930 . S
C2181 C2180 1.388 . S
C2181 C2182 1.390 . S
C2182 C2181 1.390 . S
C2182 C2183 1.394 . S
C2182 C2188 1.465 . S
C2183 C2178 1.399 . S
C2183 C2182 1.394 . S
C2183 C2184 1.516 . S
C2184 C2183 1.516 . S
C2184 C2185 1.502 . S
C2184 C2186 1.561 . S
C2184 C2187 1.526 . S
C2185 H2169 0.959 . S
C2185 H2170 0.959 . S
C2185 H2171 0.961 . S
C2185 C2184 1.502 . S
C2186 H2172 0.960 . S
C2186 H2173 0.961 . S
C2186 H2174 0.959 . S
C2186 C2184 1.561 . S
C2187 C2184 1.526 . S
C2187 C2188 1.396 . S
C2187 C2192 1.390 . S
C2188 C2182 1.465 . S
C2188 C2187 1.396 . S
C2188 C2189 1.399 . S
C2189 H2175 0.929 . S
C2189 C2188 1.399 . S
C2189 C2190 1.385 . S
C2190 H2176 0.931 . S
C2190 C2189 1.385 . S
C2190 C2191 1.389 . S
C2191 C2190 1.389 . S
C2191 C2192 1.387 . S
C2192 H2177 0.930 . S
C2192 C2187 1.390 . S
C2192 C2191 1.387 . S
H2193 C2205 0.930 . S
H2194 C2207 0.913 1_545 S
H2195 C2208 0.930 . S
H2196 C2212 0.959 . S
H2197 C2212 0.959 . S
H2198 C2212 0.961 . S
H2199 C2213 0.960 . S
H2200 C2213 0.961 . S
H2201 C2213 0.959 . S
H2202 C2216 0.929 . S
H2203 C2217 0.931 . S
H2204 C2219 0.930 . S
C2205 H2193 0.930 . S
C2205 C2206 1.399 . S
C2205 C2210 1.399 . S
C2206 C2205 1.399 . S
C2206 C2207 1.376 . S
C2207 H2194 0.913 1_565 S
C2207 C2206 1.376 . S
C2207 C2208 1.388 . S
C2208 H2195 0.930 . S
C2208 C2207 1.388 . S
C2208 C2209 1.390 . S
C2209 C2208 1.390 . S
C2209 C2210 1.394 . S
C2209 C2215 1.465 . S
C2210 C2205 1.399 . S
C2210 C2209 1.394 . S
C2210 C2211 1.516 . S
C2211 C2210 1.516 . S
C2211 C2212 1.502 . S
C2211 C2213 1.561 . S
C2211 C2214 1.526 . S
C2212 H2196 0.959 . S
C2212 H2197 0.959 . S
C2212 H2198 0.961 . S
C2212 C2211 1.502 . S
C2213 H2199 0.960 . S
C2213 H2200 0.961 . S
C2213 H2201 0.959 . S
C2213 C2211 1.561 . S
C2214 C2211 1.526 . S
C2214 C2215 1.396 . S
C2214 C2219 1.390 . S
C2215 C2209 1.465 . S
C2215 C2214 1.396 . S
C2215 C2216 1.399 . S
C2216 H2202 0.929 . S
C2216 C2215 1.399 . S
C2216 C2217 1.385 . S
C2217 H2203 0.931 . S
C2217 C2216 1.385 . S
C2217 C2218 1.389 . S
C2218 C2217 1.389 . S
C2218 C2219 1.387 . S
C2219 H2204 0.930 . S
C2219 C2214 1.390 . S
C2219 C2218 1.387 . S
H2220 C2232 0.930 . S
H2221 C2234 0.930 . S
H2222 C2235 0.930 . S
H2223 C2239 0.959 . S
H2224 C2239 0.959 . S
H2225 C2239 0.961 . S
H2226 C2240 0.960 . S
H2227 C2240 0.961 . S
H2228 C2240 0.959 . S
H2229 C2243 0.929 . S
H2230 C2244 0.931 . S
H2231 C2246 0.930 . S
C2232 H2220 0.930 . S
C2232 C2233 1.399 . S
C2232 C2237 1.399 . S
C2233 C2232 1.399 . S
C2233 C2234 1.376 . S
C2234 H2221 0.930 . S
C2234 C2233 1.376 . S
C2234 C2235 1.388 . S
C2235 H2222 0.930 . S
C2235 C2234 1.388 . S
C2235 C2236 1.390 . S
C2236 C2235 1.390 . S
C2236 C2237 1.394 . S
C2236 C2242 1.465 . S
C2237 C2232 1.399 . S
C2237 C2236 1.394 . S
C2237 C2238 1.516 . S
C2238 C2237 1.516 . S
C2238 C2239 1.502 . S
C2238 C2240 1.561 . S
C2238 C2241 1.526 . S
C2239 H2223 0.959 . S
C2239 H2224 0.959 . S
C2239 H2225 0.961 . S
C2239 C2238 1.502 . S
C2240 H2226 0.960 . S
C2240 H2227 0.961 . S
C2240 H2228 0.959 . S
C2240 C2238 1.561 . S
C2241 C2238 1.526 . S
C2241 C2242 1.396 . S
C2241 C2246 1.390 . S
C2242 C2236 1.465 . S
C2242 C2241 1.396 . S
C2242 C2243 1.399 . S
C2243 H2229 0.929 . S
C2243 C2242 1.399 . S
C2243 C2244 1.385 . S
C2244 H2230 0.931 . S
C2244 C2243 1.385 . S
C2244 C2245 1.389 . S
C2245 C2244 1.389 . S
C2245 C2246 1.387 . S
C2246 H2231 0.930 . S
C2246 C2241 1.390 . S
C2246 C2245 1.387 . S
H2247 C2259 0.930 . S
H2248 C2261 0.930 . S
H2249 C2262 0.930 . S
H2250 C2266 0.959 1_554 S
H2251 C2266 0.959 . S
H2252 C2266 0.961 . S
H2253 C2267 0.960 . S
H2254 C2267 0.961 . S
H2255 C2267 0.959 1_554 S
H2256 C2270 0.929 . S
H2257 C2271 0.931 . S
H2258 C2273 0.930 1_556 S
C2259 H2247 0.930 . S
C2259 C2260 1.399 . S
C2259 C2264 1.399 . S
C2260 C2259 1.399 . S
C2260 C2261 1.376 . S
C2261 H2248 0.930 . S
C2261 C2260 1.376 . S
C2261 C2262 1.388 . S
C2262 H2249 0.930 . S
C2262 C2261 1.388 . S
C2262 C2263 1.390 . S
C2263 C2262 1.390 . S
C2263 C2264 1.394 . S
C2263 C2269 1.465 . S
C2264 C2259 1.399 . S
C2264 C2263 1.394 . S
C2264 C2265 1.516 . S
C2265 C2264 1.516 . S
C2265 C2266 1.502 1_554 S
C2265 C2267 1.561 1_554 S
C2265 C2268 1.526 . S
C2266 H2250 0.959 1_556 S
C2266 H2251 0.959 . S
C2266 H2252 0.961 . S
C2266 C2265 1.502 1_556 S
C2267 H2253 0.960 . S
C2267 H2254 0.961 . S
C2267 H2255 0.959 1_556 S
C2267 C2265 1.561 1_556 S
C2268 C2265 1.526 . S
C2268 C2269 1.396 . S
C2268 C2273 1.390 . S
C2269 C2263 1.465 . S
C2269 C2268 1.396 . S
C2269 C2270 1.399 . S
C2270 H2256 0.929 . S
C2270 C2269 1.399 . S
C2270 C2271 1.385 . S
C2271 H2257 0.931 . S
C2271 C2270 1.385 . S
C2271 C2272 1.389 . S
C2272 C2271 1.389 . S
C2272 C2273 1.387 . S
C2273 H2258 0.930 1_554 S
C2273 C2268 1.390 . S
C2273 C2272 1.387 . S
H2274 C2286 0.930 . S
H2275 C2288 0.930 . S
H2276 C2289 0.930 . S
H2277 C2293 0.959 . S
H2278 C2293 0.959 . S
H2279 C2293 0.961 . S
H2280 C2294 0.960 . S
H2281 C2294 0.961 . S
H2282 C2294 0.959 . S
H2283 C2297 0.929 . S
H2284 C2298 0.931 . S
H2285 C2300 0.930 . S
C2286 H2274 0.930 . S
C2286 C2287 1.399 . S
C2286 C2291 1.399 . S
C2287 C2286 1.399 . S
C2287 C2288 1.376 . S
C2288 H2275 0.930 . S
C2288 C2287 1.376 . S
C2288 C2289 1.388 . S
C2289 H2276 0.930 . S
C2289 C2288 1.388 . S
C2289 C2290 1.390 . S
C2290 C2289 1.390 . S
C2290 C2291 1.394 . S
C2290 C2296 1.465 . S
C2291 C2286 1.399 . S
C2291 C2290 1.394 . S
C2291 C2292 1.516 . S
C2292 C2291 1.516 . S
C2292 C2293 1.502 . S
C2292 C2294 1.561 . S
C2292 C2295 1.526 . S
C2293 H2277 0.959 . S
C2293 H2278 0.959 . S
C2293 H2279 0.961 . S
C2293 C2292 1.502 . S
C2294 H2280 0.960 . S
C2294 H2281 0.961 . S
C2294 H2282 0.959 . S
C2294 C2292 1.561 . S
C2295 C2292 1.526 . S
C2295 C2296 1.396 . S
C2295 C2300 1.390 . S
C2296 C2290 1.465 . S
C2296 C2295 1.396 . S
C2296 C2297 1.399 . S
C2297 H2283 0.929 . S
C2297 C2296 1.399 . S
C2297 C2298 1.385 . S
C2298 H2284 0.931 . S
C2298 C2297 1.385 . S
C2298 C2299 1.389 . S
C2299 C2298 1.389 . S
C2299 C2300 1.387 . S
C2300 H2285 0.930 . S
C2300 C2295 1.390 . S
C2300 C2299 1.387 . S
H2301 C2313 0.930 . S
H2302 C2315 0.930 . S
H2303 C2316 0.930 . S
H2304 C2320 0.959 . S
H2305 C2320 0.959 . S
H2306 C2320 0.961 . S
H2307 C2321 0.960 . S
H2308 C2321 0.961 . S
H2309 C2321 0.959 1_556 S
H2310 C2324 0.929 . S
H2311 C2325 0.931 . S
H2312 C2327 0.930 . S
C2313 H2301 0.930 . S
C2313 C2314 1.399 . S
C2313 C2318 1.399 . S
C2314 C2313 1.399 . S
C2314 C2315 1.376 . S
C2315 H2302 0.930 . S
C2315 C2314 1.376 . S
C2315 C2316 1.388 . S
C2316 H2303 0.930 . S
C2316 C2315 1.388 . S
C2316 C2317 1.390 . S
C2317 C2316 1.390 . S
C2317 C2318 1.394 . S
C2317 C2323 1.465 . S
C2318 C2313 1.399 . S
C2318 C2317 1.394 . S
C2318 C2319 1.516 . S
C2319 C2318 1.516 . S
C2319 C2320 1.502 . S
C2319 C2321 1.561 . S
C2319 C2322 1.526 . S
C2320 H2304 0.959 . S
C2320 H2305 0.959 . S
C2320 H2306 0.961 . S
C2320 C2319 1.502 . S
C2321 H2307 0.960 . S
C2321 H2308 0.961 . S
C2321 H2309 0.959 1_554 S
C2321 C2319 1.561 . S
C2322 C2319 1.526 . S
C2322 C2323 1.396 . S
C2322 C2327 1.390 . S
C2323 C2317 1.465 . S
C2323 C2322 1.396 . S
C2323 C2324 1.399 . S
C2324 H2310 0.929 . S
C2324 C2323 1.399 . S
C2324 C2325 1.385 . S
C2325 H2311 0.931 . S
C2325 C2324 1.385 . S
C2325 C2326 1.389 . S
C2326 C2325 1.389 . S
C2326 C2327 1.387 . S
C2327 H2312 0.930 . S
C2327 C2322 1.390 . S
C2327 C2326 1.387 . S
H2328 C2340 0.930 . S
H2329 C2342 0.930 . S
H2330 C2343 0.930 . S
H2331 C2347 0.959 . S
H2332 C2347 0.959 . S
H2333 C2347 0.961 . S
H2334 C2348 0.960 . S
H2335 C2348 0.961 . S
H2336 C2348 0.959 . S
H2337 C2351 0.929 . S
H2338 C2352 0.931 . S
H2339 C2354 0.930 . S
C2340 H2328 0.930 . S
C2340 C2341 1.399 . S
C2340 C2345 1.399 . S
C2341 C2340 1.399 . S
C2341 C2342 1.376 . S
C2342 H2329 0.930 . S
C2342 C2341 1.376 . S
C2342 C2343 1.388 . S
C2343 H2330 0.930 . S
C2343 C2342 1.388 . S
C2343 C2344 1.390 . S
C2344 C2343 1.390 . S
C2344 C2345 1.394 . S
C2344 C2350 1.465 . S
C2345 C2340 1.399 . S
C2345 C2344 1.394 . S
C2345 C2346 1.516 . S
C2346 C2345 1.516 . S
C2346 C2347 1.502 . S
C2346 C2348 1.561 . S
C2346 C2349 1.526 . S
C2347 H2331 0.959 . S
C2347 H2332 0.959 . S
C2347 H2333 0.961 . S
C2347 C2346 1.502 . S
C2348 H2334 0.960 . S
C2348 H2335 0.961 . S
C2348 H2336 0.959 . S
C2348 C2346 1.561 . S
C2349 C2346 1.526 . S
C2349 C2350 1.396 . S
C2349 C2354 1.390 . S
C2350 C2344 1.465 . S
C2350 C2349 1.396 . S
C2350 C2351 1.399 . S
C2351 H2337 0.929 . S
C2351 C2350 1.399 . S
C2351 C2352 1.385 . S
C2352 H2338 0.931 . S
C2352 C2351 1.385 . S
C2352 C2353 1.389 . S
C2353 C2352 1.389 . S
C2353 C2354 1.387 . S
C2354 H2339 0.930 . S
C2354 C2349 1.390 . S
C2354 C2353 1.387 . S
H2355 C2367 0.930 . S
H2356 C2369 0.930 . S
H2357 C2370 0.930 . S
H2358 C2374 0.959 . S
H2359 C2374 0.959 . S
H2360 C2374 0.961 . S
H2361 C2375 0.962 . S
H2362 C2375 0.974 . S
H2363 C2375 0.974 . S
H2364 C2378 0.929 . S
H2365 C2379 0.931 . S
H2366 C2381 0.930 . S
C2367 H2355 0.930 . S
C2367 C2368 1.399 . S
C2367 C2372 1.399 . S
C2368 C2367 1.399 . S
C2368 C2369 1.376 . S
C2369 H2356 0.930 . S
C2369 C2368 1.376 . S
C2369 C2370 1.388 . S
C2370 H2357 0.930 . S
C2370 C2369 1.388 . S
C2370 C2371 1.390 . S
C2371 C2370 1.390 . S
C2371 C2372 1.394 . S
C2371 C2377 1.465 . S
C2372 C2367 1.399 . S
C2372 C2371 1.394 . S
C2372 C2373 1.516 . S
C2373 C2372 1.516 . S
C2373 C2374 1.502 . S
C2373 C2375 1.533 1_556 S
C2373 C2376 1.526 . S
C2374 H2358 0.959 . S
C2374 H2359 0.959 . S
C2374 H2360 0.961 . S
C2374 C2373 1.502 . S
C2375 H2361 0.962 . S
C2375 H2362 0.974 . S
C2375 H2363 0.974 . S
C2375 C2373 1.533 1_554 S
C2376 C2373 1.526 . S
C2376 C2377 1.396 . S
C2376 C2381 1.390 . S
C2377 C2371 1.465 . S
C2377 C2376 1.396 . S
C2377 C2378 1.399 . S
C2378 H2364 0.929 . S
C2378 C2377 1.399 . S
C2378 C2379 1.385 . S
C2379 H2365 0.931 . S
C2379 C2378 1.385 . S
C2379 C2380 1.389 . S
C2380 C2379 1.389 . S
C2380 C2381 1.387 . S
C2381 H2366 0.930 . S
C2381 C2376 1.390 . S
C2381 C2380 1.387 . S
H2382 C2394 0.930 . S
H2383 C2396 0.930 . S
H2384 C2397 0.930 . S
H2385 C2401 0.959 . S
H2386 C2401 0.959 . S
H2387 C2401 0.961 . S
H2388 C2402 0.960 . S
H2389 C2402 0.961 . S
H2390 C2402 0.959 . S
H2391 C2405 0.929 . S
H2392 C2406 0.931 . S
H2393 C2408 0.930 . S
C2394 H2382 0.930 . S
C2394 C2395 1.399 . S
C2394 C2399 1.399 . S
C2395 C2394 1.399 . S
C2395 C2396 1.376 . S
C2396 H2383 0.930 . S
C2396 C2395 1.376 . S
C2396 C2397 1.388 . S
C2397 H2384 0.930 . S
C2397 C2396 1.388 . S
C2397 C2398 1.390 . S
C2398 C2397 1.390 . S
C2398 C2399 1.394 . S
C2398 C2404 1.465 . S
C2399 C2394 1.399 . S
C2399 C2398 1.394 . S
C2399 C2400 1.516 . S
C2400 C2399 1.516 . S
C2400 C2401 1.502 . S
C2400 C2402 1.561 . S
C2400 C2403 1.526 . S
C2401 H2385 0.959 . S
C2401 H2386 0.959 . S
C2401 H2387 0.961 . S
C2401 C2400 1.502 . S
C2402 H2388 0.960 . S
C2402 H2389 0.961 . S
C2402 H2390 0.959 . S
C2402 C2400 1.561 . S
C2403 C2400 1.526 . S
C2403 C2404 1.396 . S
C2403 C2408 1.390 . S
C2404 C2398 1.465 . S
C2404 C2403 1.396 . S
C2404 C2405 1.399 . S
C2405 H2391 0.929 . S
C2405 C2404 1.399 . S
C2405 C2406 1.385 . S
C2406 H2392 0.931 . S
C2406 C2405 1.385 . S
C2406 C2407 1.389 . S
C2407 C2406 1.389 . S
C2407 C2408 1.387 . S
C2408 H2393 0.930 . S
C2408 C2403 1.390 . S
C2408 C2407 1.387 . S
H2409 C2421 0.930 . S
H2410 C2423 0.930 . S
H2411 C2424 0.930 . S
H2412 C2428 0.959 . S
H2413 C2428 0.959 . S
H2414 C2428 0.961 . S
H2415 C2429 0.960 . S
H2416 C2429 0.946 1_554 S
H2417 C2429 0.943 1_554 S
H2418 C2432 0.929 . S
H2419 C2433 0.931 . S
H2420 C2435 0.930 . S
C2421 H2409 0.930 . S
C2421 C2422 1.399 . S
C2421 C2426 1.399 . S
C2422 C2421 1.399 . S
C2422 C2423 1.376 . S
C2423 H2410 0.930 . S
C2423 C2422 1.376 . S
C2423 C2424 1.388 . S
C2424 H2411 0.930 . S
C2424 C2423 1.388 . S
C2424 C2425 1.390 . S
C2425 C2424 1.390 . S
C2425 C2426 1.394 . S
C2425 C2431 1.465 . S
C2426 C2421 1.399 . S
C2426 C2425 1.394 . S
C2426 C2427 1.516 . S
C2427 C2426 1.516 . S
C2427 C2428 1.502 . S
C2427 C2429 1.593 . S
C2427 C2430 1.526 . S
C2428 H2412 0.959 . S
C2428 H2413 0.959 . S
C2428 H2414 0.961 . S
C2428 C2427 1.502 . S
C2429 H2415 0.960 . S
C2429 H2416 0.946 1_556 S
C2429 H2417 0.943 1_556 S
C2429 C2427 1.593 . S
C2430 C2427 1.526 . S
C2430 C2431 1.396 . S
C2430 C2435 1.390 . S
C2431 C2425 1.465 . S
C2431 C2430 1.396 . S
C2431 C2432 1.399 . S
C2432 H2418 0.929 . S
C2432 C2431 1.399 . S
C2432 C2433 1.385 . S
C2433 H2419 0.931 . S
C2433 C2432 1.385 . S
C2433 C2434 1.389 . S
C2434 C2433 1.389 . S
C2434 C2435 1.387 . S
C2435 H2420 0.930 . S
C2435 C2430 1.390 . S
C2435 C2434 1.387 . S
H2436 C2448 0.930 . S
H2437 C2450 0.930 . S
H2438 C2451 0.930 . S
H2439 C2455 0.959 . S
H2440 C2455 0.959 . S
H2441 C2455 0.961 . S
H2442 C2456 0.960 . S
H2443 C2456 0.961 . S
H2444 C2456 0.959 . S
H2445 C2459 0.929 . S
H2446 C2460 0.931 . S
H2447 C2462 0.930 . S
C2448 H2436 0.930 . S
C2448 C2449 1.399 . S
C2448 C2453 1.399 . S
C2449 C2448 1.399 . S
C2449 C2450 1.376 . S
C2450 H2437 0.930 . S
C2450 C2449 1.376 . S
C2450 C2451 1.388 . S
C2451 H2438 0.930 . S
C2451 C2450 1.388 . S
C2451 C2452 1.390 . S
C2452 C2451 1.390 . S
C2452 C2453 1.394 . S
C2452 C2458 1.465 . S
C2453 C2448 1.399 . S
C2453 C2452 1.394 . S
C2453 C2454 1.516 . S
C2454 C2453 1.516 . S
C2454 C2455 1.502 . S
C2454 C2456 1.561 . S
C2454 C2457 1.526 . S
C2455 H2439 0.959 . S
C2455 H2440 0.959 . S
C2455 H2441 0.961 . S
C2455 C2454 1.502 . S
C2456 H2442 0.960 . S
C2456 H2443 0.961 . S
C2456 H2444 0.959 . S
C2456 C2454 1.561 . S
C2457 C2454 1.526 . S
C2457 C2458 1.396 . S
C2457 C2462 1.390 . S
C2458 C2452 1.465 . S
C2458 C2457 1.396 . S
C2458 C2459 1.399 . S
C2459 H2445 0.929 . S
C2459 C2458 1.399 . S
C2459 C2460 1.385 . S
C2460 H2446 0.931 . S
C2460 C2459 1.385 . S
C2460 C2461 1.389 . S
C2461 C2460 1.389 . S
C2461 C2462 1.387 . S
C2462 H2447 0.930 . S
C2462 C2457 1.390 . S
C2462 C2461 1.387 . S
H2463 C2475 0.930 . S
H2464 C2477 0.930 . S
H2465 C2478 0.930 . S
H2466 C2482 0.959 . S
H2467 C2482 0.959 . S
H2468 C2482 0.961 . S
H2469 C2483 0.960 . S
H2470 C2483 0.961 . S
H2471 C2483 0.959 . S
H2472 C2486 0.929 . S
H2473 C2487 0.931 . S
H2474 C2489 0.930 . S
C2475 H2463 0.930 . S
C2475 C2476 1.399 . S
C2475 C2480 1.399 . S
C2476 C2475 1.399 . S
C2476 C2477 1.376 . S
C2477 H2464 0.930 . S
C2477 C2476 1.376 . S
C2477 C2478 1.388 . S
C2478 H2465 0.930 . S
C2478 C2477 1.388 . S
C2478 C2479 1.390 . S
C2479 C2478 1.390 . S
C2479 C2480 1.394 . S
C2479 C2485 1.465 . S
C2480 C2475 1.399 . S
C2480 C2479 1.394 . S
C2480 C2481 1.516 . S
C2481 C2480 1.516 . S
C2481 C2482 1.502 . S
C2481 C2483 1.561 . S
C2481 C2484 1.526 . S
C2482 H2466 0.959 . S
C2482 H2467 0.959 . S
C2482 H2468 0.961 . S
C2482 C2481 1.502 . S
C2483 H2469 0.960 . S
C2483 H2470 0.961 . S
C2483 H2471 0.959 . S
C2483 C2481 1.561 . S
C2484 C2481 1.526 . S
C2484 C2485 1.396 . S
C2484 C2489 1.390 . S
C2485 C2479 1.465 . S
C2485 C2484 1.396 . S
C2485 C2486 1.399 . S
C2486 H2472 0.929 . S
C2486 C2485 1.399 . S
C2486 C2487 1.385 . S
C2487 H2473 0.931 . S
C2487 C2486 1.385 . S
C2487 C2488 1.389 . S
C2488 C2487 1.389 . S
C2488 C2489 1.387 . S
C2489 H2474 0.930 . S
C2489 C2484 1.390 . S
C2489 C2488 1.387 . S
H2490 C2502 0.930 . S
H2491 C2504 0.930 . S
H2492 C2505 0.930 . S
H2493 C2509 0.959 . S
H2494 C2509 0.959 . S
H2495 C2509 0.961 . S
H2496 C2510 0.960 . S
H2497 C2510 0.961 . S
H2498 C2510 0.959 . S
H2499 C2513 0.929 . S
H2500 C2514 0.931 . S
H2501 C2516 0.930 . S
C2502 H2490 0.930 . S
C2502 C2503 1.399 . S
C2502 C2507 1.399 . S
C2503 C2502 1.399 . S
C2503 C2504 1.376 . S
C2504 H2491 0.930 . S
C2504 C2503 1.376 . S
C2504 C2505 1.388 . S
C2505 H2492 0.930 . S
C2505 C2504 1.388 . S
C2505 C2506 1.390 . S
C2506 C2505 1.390 . S
C2506 C2507 1.394 . S
C2506 C2512 1.465 . S
C2507 C2502 1.399 . S
C2507 C2506 1.394 . S
C2507 C2508 1.516 . S
C2508 C2507 1.516 . S
C2508 C2509 1.502 . S
C2508 C2510 1.561 . S
C2508 C2511 1.526 . S
C2509 H2493 0.959 . S
C2509 H2494 0.959 . S
C2509 H2495 0.961 . S
C2509 C2508 1.502 . S
C2510 H2496 0.960 . S
C2510 H2497 0.961 . S
C2510 H2498 0.959 . S
C2510 C2508 1.561 . S
C2511 C2508 1.526 . S
C2511 C2512 1.396 . S
C2511 C2516 1.390 . S
C2512 C2506 1.465 . S
C2512 C2511 1.396 . S
C2512 C2513 1.399 . S
C2513 H2499 0.929 . S
C2513 C2512 1.399 . S
C2513 C2514 1.385 . S
C2514 H2500 0.931 . S
C2514 C2513 1.385 . S
C2514 C2515 1.389 . S
C2515 C2514 1.389 . S
C2515 C2516 1.387 . S
C2516 H2501 0.930 . S
C2516 C2511 1.390 . S
C2516 C2515 1.387 . S
H2517 C2529 0.930 . S
H2518 C2531 0.930 . S
H2519 C2532 0.930 . S
H2520 C2536 0.959 . S
H2521 C2536 0.959 . S
H2522 C2536 0.961 . S
H2523 C2537 0.960 . S
H2524 C2537 0.961 . S
H2525 C2537 0.959 . S
H2526 C2540 0.929 . S
H2527 C2541 0.931 . S
H2528 C2543 0.930 . S
C2529 H2517 0.930 . S
C2529 C2530 1.399 . S
C2529 C2534 1.399 . S
C2530 C2529 1.399 . S
C2530 C2531 1.376 . S
C2531 H2518 0.930 . S
C2531 C2530 1.376 . S
C2531 C2532 1.388 . S
C2532 H2519 0.930 . S
C2532 C2531 1.388 . S
C2532 C2533 1.390 . S
C2533 C2532 1.390 . S
C2533 C2534 1.394 . S
C2533 C2539 1.465 . S
C2534 C2529 1.399 . S
C2534 C2533 1.394 . S
C2534 C2535 1.516 . S
C2535 C2534 1.516 . S
C2535 C2536 1.502 . S
C2535 C2537 1.561 . S
C2535 C2538 1.526 . S
C2536 H2520 0.959 . S
C2536 H2521 0.959 . S
C2536 H2522 0.961 . S
C2536 C2535 1.502 . S
C2537 H2523 0.960 . S
C2537 H2524 0.961 . S
C2537 H2525 0.959 . S
C2537 C2535 1.561 . S
C2538 C2535 1.526 . S
C2538 C2539 1.396 . S
C2538 C2543 1.390 . S
C2539 C2533 1.465 . S
C2539 C2538 1.396 . S
C2539 C2540 1.399 . S
C2540 H2526 0.929 . S
C2540 C2539 1.399 . S
C2540 C2541 1.385 . S
C2541 H2527 0.931 . S
C2541 C2540 1.385 . S
C2541 C2542 1.389 . S
C2542 C2541 1.389 . S
C2542 C2543 1.387 . S
C2543 H2528 0.930 . S
C2543 C2538 1.390 . S
C2543 C2542 1.387 . S
H2544 C2556 0.930 . S
H2545 C2558 0.930 . S
H2546 C2559 0.930 . S
H2547 C2563 0.959 . S
H2548 C2563 0.959 . S
H2549 C2563 0.961 . S
H2550 C2564 0.960 . S
H2551 C2564 0.961 . S
H2552 C2564 0.959 . S
H2553 C2567 0.929 . S
H2554 C2568 0.931 . S
H2555 C2570 0.930 . S
C2556 H2544 0.930 . S
C2556 C2557 1.399 . S
C2556 C2561 1.399 . S
C2557 C2556 1.399 . S
C2557 C2558 1.376 . S
C2558 H2545 0.930 . S
C2558 C2557 1.376 . S
C2558 C2559 1.388 . S
C2559 H2546 0.930 . S
C2559 C2558 1.388 . S
C2559 C2560 1.390 . S
C2560 C2559 1.390 . S
C2560 C2561 1.394 . S
C2560 C2566 1.465 . S
C2561 C2556 1.399 . S
C2561 C2560 1.394 . S
C2561 C2562 1.516 . S
C2562 C2561 1.516 . S
C2562 C2563 1.502 . S
C2562 C2564 1.561 . S
C2562 C2565 1.526 . S
C2563 H2547 0.959 . S
C2563 H2548 0.959 . S
C2563 H2549 0.961 . S
C2563 C2562 1.502 . S
C2564 H2550 0.960 . S
C2564 H2551 0.961 . S
C2564 H2552 0.959 . S
C2564 C2562 1.561 . S
C2565 C2562 1.526 . S
C2565 C2566 1.396 . S
C2565 C2570 1.390 . S
C2566 C2560 1.465 . S
C2566 C2565 1.396 . S
C2566 C2567 1.399 . S
C2567 H2553 0.929 . S
C2567 C2566 1.399 . S
C2567 C2568 1.385 . S
C2568 H2554 0.931 . S
C2568 C2567 1.385 . S
C2568 C2569 1.389 . S
C2569 C2568 1.389 . S
C2569 C2570 1.387 . S
C2570 H2555 0.930 . S
C2570 C2565 1.390 . S
C2570 C2569 1.387 . S
H2571 C2583 0.930 . S
H2572 C2585 0.930 . S
H2573 C2586 0.930 . S
H2574 C2590 0.959 . S
H2575 C2590 0.959 . S
H2576 C2590 0.961 . S
H2577 C2591 0.960 . S
H2578 C2591 0.961 . S
H2579 C2591 0.959 . S
H2580 C2594 0.929 . S
H2581 C2595 0.931 . S
H2582 C2597 0.930 . S
C2583 H2571 0.930 . S
C2583 C2584 1.399 . S
C2583 C2588 1.399 . S
C2584 C2583 1.399 . S
C2584 C2585 1.376 . S
C2585 H2572 0.930 . S
C2585 C2584 1.376 . S
C2585 C2586 1.388 . S
C2586 H2573 0.930 . S
C2586 C2585 1.388 . S
C2586 C2587 1.390 . S
C2587 C2586 1.390 . S
C2587 C2588 1.394 . S
C2587 C2593 1.465 . S
C2588 C2583 1.399 . S
C2588 C2587 1.394 . S
C2588 C2589 1.516 . S
C2589 C2588 1.516 . S
C2589 C2590 1.502 . S
C2589 C2591 1.561 . S
C2589 C2592 1.526 . S
C2590 H2574 0.959 . S
C2590 H2575 0.959 . S
C2590 H2576 0.961 . S
C2590 C2589 1.502 . S
C2591 H2577 0.960 . S
C2591 H2578 0.961 . S
C2591 H2579 0.959 . S
C2591 C2589 1.561 . S
C2592 C2589 1.526 . S
C2592 C2593 1.396 . S
C2592 C2597 1.390 . S
C2593 C2587 1.465 . S
C2593 C2592 1.396 . S
C2593 C2594 1.399 . S
C2594 H2580 0.929 . S
C2594 C2593 1.399 . S
C2594 C2595 1.385 . S
C2595 H2581 0.931 . S
C2595 C2594 1.385 . S
C2595 C2596 1.389 . S
C2596 C2595 1.389 . S
C2596 C2597 1.387 . S
C2597 H2582 0.930 . S
C2597 C2592 1.390 . S
C2597 C2596 1.387 . S
H2598 C2610 0.930 . S
H2599 C2612 0.930 . S
H2600 C2613 0.930 . S
H2601 C2617 0.959 . S
H2602 C2617 0.959 . S
H2603 C2617 0.961 . S
H2604 C2618 0.960 . S
H2605 C2618 0.961 . S
H2606 C2618 0.959 . S
H2607 C2621 0.929 . S
H2608 C2622 0.931 . S
H2609 C2624 0.930 . S
C2610 H2598 0.930 . S
C2610 C2611 1.399 . S
C2610 C2615 1.399 . S
C2611 C2610 1.399 . S
C2611 C2612 1.376 . S
C2612 H2599 0.930 . S
C2612 C2611 1.376 . S
C2612 C2613 1.388 . S
C2613 H2600 0.930 . S
C2613 C2612 1.388 . S
C2613 C2614 1.390 . S
C2614 C2613 1.390 . S
C2614 C2615 1.394 . S
C2614 C2620 1.465 . S
C2615 C2610 1.399 . S
C2615 C2614 1.394 . S
C2615 C2616 1.516 . S
C2616 C2615 1.516 . S
C2616 C2617 1.502 . S
C2616 C2618 1.561 . S
C2616 C2619 1.526 . S
C2617 H2601 0.959 . S
C2617 H2602 0.959 . S
C2617 H2603 0.961 . S
C2617 C2616 1.502 . S
C2618 H2604 0.960 . S
C2618 H2605 0.961 . S
C2618 H2606 0.959 . S
C2618 C2616 1.561 . S
C2619 C2616 1.526 . S
C2619 C2620 1.396 . S
C2619 C2624 1.390 . S
C2620 C2614 1.465 . S
C2620 C2619 1.396 . S
C2620 C2621 1.399 . S
C2621 H2607 0.929 . S
C2621 C2620 1.399 . S
C2621 C2622 1.385 . S
C2622 H2608 0.931 . S
C2622 C2621 1.385 . S
C2622 C2623 1.389 . S
C2623 C2622 1.389 . S
C2623 C2624 1.387 . S
C2624 H2609 0.930 . S
C2624 C2619 1.390 . S
C2624 C2623 1.387 . S
H2625 C2637 0.930 . S
H2626 C2639 0.930 . S
H2627 C2640 0.930 . S
H2628 C2644 0.959 . S
H2629 C2644 0.959 . S
H2630 C2644 0.961 . S
H2631 C2645 0.960 . S
H2632 C2645 0.961 . S
H2633 C2645 0.959 . S
H2634 C2648 0.929 1_565 S
H2635 C2649 0.931 1_565 S
H2636 C2651 0.930 . S
C2637 H2625 0.930 . S
C2637 C2638 1.399 . S
C2637 C2642 1.399 . S
C2638 C2637 1.399 . S
C2638 C2639 1.376 . S
C2639 H2626 0.930 . S
C2639 C2638 1.376 . S
C2639 C2640 1.388 . S
C2640 H2627 0.930 . S
C2640 C2639 1.388 . S
C2640 C2641 1.390 . S
C2641 C2640 1.390 . S
C2641 C2642 1.394 . S
C2641 C2647 1.465 . S
C2642 C2637 1.399 . S
C2642 C2641 1.394 . S
C2642 C2643 1.516 . S
C2643 C2642 1.516 . S
C2643 C2644 1.502 . S
C2643 C2645 1.561 . S
C2643 C2646 1.526 . S
C2644 H2628 0.959 . S
C2644 H2629 0.959 . S
C2644 H2630 0.961 . S
C2644 C2643 1.502 . S
C2645 H2631 0.960 . S
C2645 H2632 0.961 . S
C2645 H2633 0.959 . S
C2645 C2643 1.561 . S
C2646 C2643 1.526 . S
C2646 C2647 1.396 . S
C2646 C2651 1.390 . S
C2647 C2641 1.465 . S
C2647 C2646 1.396 . S
C2647 C2648 1.399 . S
C2648 H2634 0.929 1_545 S
C2648 C2647 1.399 . S
C2648 C2649 1.385 . S
C2649 H2635 0.931 1_545 S
C2649 C2648 1.385 . S
C2649 C2650 1.389 . S
C2650 C2649 1.389 . S
C2650 C2651 1.387 . S
C2651 H2636 0.930 . S
C2651 C2646 1.390 . S
C2651 C2650 1.387 . S
H2652 C2664 0.930 . S
H2653 C2666 0.930 . S
H2654 C2667 0.930 . S
H2655 C2671 0.959 . S
H2656 C2671 0.959 . S
H2657 C2671 0.961 . S
H2658 C2672 0.960 . S
H2659 C2672 0.961 . S
H2660 C2672 0.959 . S
H2661 C2675 0.929 . S
H2662 C2676 0.931 . S
H2663 C2678 0.930 . S
C2664 H2652 0.930 . S
C2664 C2665 1.399 . S
C2664 C2669 1.399 . S
C2665 C2664 1.399 . S
C2665 C2666 1.376 . S
C2666 H2653 0.930 . S
C2666 C2665 1.376 . S
C2666 C2667 1.388 . S
C2667 H2654 0.930 . S
C2667 C2666 1.388 . S
C2667 C2668 1.390 . S
C2668 C2667 1.390 . S
C2668 C2669 1.394 . S
C2668 C2674 1.465 . S
C2669 C2664 1.399 . S
C2669 C2668 1.394 . S
C2669 C2670 1.516 . S
C2670 C2669 1.516 . S
C2670 C2671 1.502 . S
C2670 C2672 1.561 . S
C2670 C2673 1.526 . S
C2671 H2655 0.959 . S
C2671 H2656 0.959 . S
C2671 H2657 0.961 . S
C2671 C2670 1.502 . S
C2672 H2658 0.960 . S
C2672 H2659 0.961 . S
C2672 H2660 0.959 . S
C2672 C2670 1.561 . S
C2673 C2670 1.526 . S
C2673 C2674 1.396 . S
C2673 C2678 1.390 . S
C2674 C2668 1.465 . S
C2674 C2673 1.396 . S
C2674 C2675 1.399 . S
C2675 H2661 0.929 . S
C2675 C2674 1.399 . S
C2675 C2676 1.385 . S
C2676 H2662 0.931 . S
C2676 C2675 1.385 . S
C2676 C2677 1.389 . S
C2677 C2676 1.389 . S
C2677 C2678 1.387 . S
C2678 H2663 0.930 . S
C2678 C2673 1.390 . S
C2678 C2677 1.387 . S
H2679 C2691 0.930 . S
H2680 C2693 0.930 . S
H2681 C2694 0.930 . S
H2682 C2698 0.959 . S
H2683 C2698 0.959 . S
H2684 C2698 0.961 . S
H2685 C2699 0.960 . S
H2686 C2699 0.961 . S
H2687 C2699 0.959 1_455 S
H2688 C2702 0.929 . S
H2689 C2703 0.931 . S
H2690 C2705 0.930 . S
C2691 H2679 0.930 . S
C2691 C2692 1.399 . S
C2691 C2696 1.399 . S
C2692 C2691 1.399 . S
C2692 C2693 1.376 . S
C2693 H2680 0.930 . S
C2693 C2692 1.376 . S
C2693 C2694 1.388 . S
C2694 H2681 0.930 . S
C2694 C2693 1.388 . S
C2694 C2695 1.390 . S
C2695 C2694 1.390 . S
C2695 C2696 1.394 . S
C2695 C2701 1.465 . S
C2696 C2691 1.399 . S
C2696 C2695 1.394 . S
C2696 C2697 1.516 . S
C2697 C2696 1.516 . S
C2697 C2698 1.502 . S
C2697 C2699 1.561 . S
C2697 C2700 1.526 . S
C2698 H2682 0.959 . S
C2698 H2683 0.959 . S
C2698 H2684 0.961 . S
C2698 C2697 1.502 . S
C2699 H2685 0.960 . S
C2699 H2686 0.961 . S
C2699 H2687 0.959 1_655 S
C2699 C2697 1.561 . S
C2700 C2697 1.526 . S
C2700 C2701 1.396 . S
C2700 C2705 1.390 . S
C2701 C2695 1.465 . S
C2701 C2700 1.396 . S
C2701 C2702 1.399 . S
C2702 H2688 0.929 . S
C2702 C2701 1.399 . S
C2702 C2703 1.385 . S
C2703 H2689 0.931 . S
C2703 C2702 1.385 . S
C2703 C2704 1.389 . S
C2704 C2703 1.389 . S
C2704 C2705 1.387 . S
C2705 H2690 0.930 . S
C2705 C2700 1.390 . S
C2705 C2704 1.387 . S
H2706 C2718 0.930 . S
H2707 C2720 0.930 . S
H2708 C2721 0.930 . S
H2709 C2725 0.959 . S
H2710 C2725 0.959 . S
H2711 C2725 0.961 . S
H2712 C2726 0.960 . S
H2713 C2726 0.961 . S
H2714 C2726 0.959 . S
H2715 C2729 0.929 . S
H2716 C2730 0.931 . S
H2717 C2732 0.930 . S
C2718 H2706 0.930 . S
C2718 C2719 1.399 . S
C2718 C2723 1.399 . S
C2719 C2718 1.399 . S
C2719 C2720 1.376 . S
C2720 H2707 0.930 . S
C2720 C2719 1.376 . S
C2720 C2721 1.388 . S
C2721 H2708 0.930 . S
C2721 C2720 1.388 . S
C2721 C2722 1.390 . S
C2722 C2721 1.390 . S
C2722 C2723 1.394 . S
C2722 C2728 1.465 . S
C2723 C2718 1.399 . S
C2723 C2722 1.394 . S
C2723 C2724 1.516 . S
C2724 C2723 1.516 . S
C2724 C2725 1.502 . S
C2724 C2726 1.561 . S
C2724 C2727 1.526 . S
C2725 H2709 0.959 . S
C2725 H2710 0.959 . S
C2725 H2711 0.961 . S
C2725 C2724 1.502 . S
C2726 H2712 0.960 . S
C2726 H2713 0.961 . S
C2726 H2714 0.959 . S
C2726 C2724 1.561 . S
C2727 C2724 1.526 . S
C2727 C2728 1.396 . S
C2727 C2732 1.390 . S
C2728 C2722 1.465 . S
C2728 C2727 1.396 . S
C2728 C2729 1.399 . S
C2729 H2715 0.929 . S
C2729 C2728 1.399 . S
C2729 C2730 1.385 . S
C2730 H2716 0.931 . S
C2730 C2729 1.385 . S
C2730 C2731 1.389 . S
C2731 C2730 1.389 . S
C2731 C2732 1.387 . S
C2732 H2717 0.930 . S
C2732 C2727 1.390 . S
C2732 C2731 1.387 . S
H2733 C2745 0.930 . S
H2734 C2747 0.930 . S
H2735 C2748 0.930 . S
H2736 C2752 0.959 . S
H2737 C2752 0.959 . S
H2738 C2752 0.961 . S
H2739 C2753 0.960 . S
H2740 C2753 0.961 . S
H2741 C2753 0.959 . S
H2742 C2756 0.929 . S
H2743 C2757 0.931 . S
H2744 C2759 0.930 . S
C2745 H2733 0.930 . S
C2745 C2746 1.399 . S
C2745 C2750 1.399 . S
C2746 C2745 1.399 . S
C2746 C2747 1.376 . S
C2747 H2734 0.930 . S
C2747 C2746 1.376 . S
C2747 C2748 1.388 . S
C2748 H2735 0.930 . S
C2748 C2747 1.388 . S
C2748 C2749 1.390 . S
C2749 C2748 1.390 . S
C2749 C2750 1.394 . S
C2749 C2755 1.465 . S
C2750 C2745 1.399 . S
C2750 C2749 1.394 . S
C2750 C2751 1.516 . S
C2751 C2750 1.516 . S
C2751 C2752 1.502 . S
C2751 C2753 1.561 . S
C2751 C2754 1.526 . S
C2752 H2736 0.959 . S
C2752 H2737 0.959 . S
C2752 H2738 0.961 . S
C2752 C2751 1.502 . S
C2753 H2739 0.960 . S
C2753 H2740 0.961 . S
C2753 H2741 0.959 . S
C2753 C2751 1.561 . S
C2754 C2751 1.526 . S
C2754 C2755 1.396 . S
C2754 C2759 1.390 . S
C2755 C2749 1.465 . S
C2755 C2754 1.396 . S
C2755 C2756 1.399 . S
C2756 H2742 0.929 . S
C2756 C2755 1.399 . S
C2756 C2757 1.385 . S
C2757 H2743 0.931 . S
C2757 C2756 1.385 . S
C2757 C2758 1.389 . S
C2758 C2757 1.389 . S
C2758 C2759 1.387 . S
C2759 H2744 0.930 . S
C2759 C2754 1.390 . S
C2759 C2758 1.387 . S
H2760 C2772 0.930 . S
H2761 C2774 0.930 . S
H2762 C2775 0.930 . S
H2763 C2779 0.959 . S
H2764 C2779 0.959 . S
H2765 C2779 0.961 . S
H2766 C2780 0.960 . S
H2767 C2780 0.961 . S
H2768 C2780 0.959 . S
H2769 C2783 0.929 . S
H2770 C2784 0.931 . S
H2771 C2786 0.930 . S
C2772 H2760 0.930 . S
C2772 C2773 1.399 . S
C2772 C2777 1.399 . S
C2773 C2772 1.399 . S
C2773 C2774 1.376 . S
C2774 H2761 0.930 . S
C2774 C2773 1.376 . S
C2774 C2775 1.388 . S
C2775 H2762 0.930 . S
C2775 C2774 1.388 . S
C2775 C2776 1.390 . S
C2776 C2775 1.390 . S
C2776 C2777 1.394 . S
C2776 C2782 1.465 . S
C2777 C2772 1.399 . S
C2777 C2776 1.394 . S
C2777 C2778 1.516 . S
C2778 C2777 1.516 . S
C2778 C2779 1.502 . S
C2778 C2780 1.561 . S
C2778 C2781 1.526 . S
C2779 H2763 0.959 . S
C2779 H2764 0.959 . S
C2779 H2765 0.961 . S
C2779 C2778 1.502 . S
C2780 H2766 0.960 . S
C2780 H2767 0.961 . S
C2780 H2768 0.959 . S
C2780 C2778 1.561 . S
C2781 C2778 1.526 . S
C2781 C2782 1.396 . S
C2781 C2786 1.390 . S
C2782 C2776 1.465 . S
C2782 C2781 1.396 . S
C2782 C2783 1.399 . S
C2783 H2769 0.929 . S
C2783 C2782 1.399 . S
C2783 C2784 1.385 . S
C2784 H2770 0.931 . S
C2784 C2783 1.385 . S
C2784 C2785 1.389 . S
C2785 C2784 1.389 . S
C2785 C2786 1.387 . S
C2786 H2771 0.930 . S
C2786 C2781 1.390 . S
C2786 C2785 1.387 . S
H2787 C2799 0.930 . S
H2788 C2801 0.930 1_565 S
H2789 C2802 0.930 . S
H2790 C2806 0.959 . S
H2791 C2806 0.959 . S
H2792 C2806 0.961 . S
H2793 C2807 0.960 . S
H2794 C2807 0.961 . S
H2795 C2807 0.959 . S
H2796 C2810 0.929 . S
H2797 C2811 0.931 . S
H2798 C2813 0.930 . S
C2799 H2787 0.930 . S
C2799 C2800 1.399 . S
C2799 C2804 1.399 . S
C2800 C2799 1.399 . S
C2800 C2801 1.376 . S
C2801 H2788 0.930 1_545 S
C2801 C2800 1.376 . S
C2801 C2802 1.388 . S
C2802 H2789 0.930 . S
C2802 C2801 1.388 . S
C2802 C2803 1.390 . S
C2803 C2802 1.390 . S
C2803 C2804 1.394 . S
C2803 C2809 1.465 . S
C2804 C2799 1.399 . S
C2804 C2803 1.394 . S
C2804 C2805 1.516 . S
C2805 C2804 1.516 . S
C2805 C2806 1.502 . S
C2805 C2807 1.561 . S
C2805 C2808 1.526 . S
C2806 H2790 0.959 . S
C2806 H2791 0.959 . S
C2806 H2792 0.961 . S
C2806 C2805 1.502 . S
C2807 H2793 0.960 . S
C2807 H2794 0.961 . S
C2807 H2795 0.959 . S
C2807 C2805 1.561 . S
C2808 C2805 1.526 . S
C2808 C2809 1.396 . S
C2808 C2813 1.390 . S
C2809 C2803 1.465 . S
C2809 C2808 1.396 . S
C2809 C2810 1.399 . S
C2810 H2796 0.929 . S
C2810 C2809 1.399 . S
C2810 C2811 1.385 . S
C2811 H2797 0.931 . S
C2811 C2810 1.385 . S
C2811 C2812 1.389 . S
C2812 C2811 1.389 . S
C2812 C2813 1.387 . S
C2813 H2798 0.930 . S
C2813 C2808 1.390 . S
C2813 C2812 1.387 . S
H2814 C2826 0.930 . S
H2815 C2828 0.930 . S
H2816 C2829 0.930 . S
H2817 C2833 0.959 . S
H2818 C2833 0.959 . S
H2819 C2833 0.961 . S
H2820 C2834 0.960 . S
H2821 C2834 0.961 . S
H2822 C2834 0.959 . S
H2823 C2837 0.929 . S
H2824 C2838 0.931 . S
H2825 C2840 0.930 . S
C2826 H2814 0.930 . S
C2826 C2827 1.399 . S
C2826 C2831 1.399 . S
C2827 C2826 1.399 . S
C2827 C2828 1.376 . S
C2828 H2815 0.930 . S
C2828 C2827 1.376 . S
C2828 C2829 1.388 . S
C2829 H2816 0.930 . S
C2829 C2828 1.388 . S
C2829 C2830 1.390 . S
C2830 C2829 1.390 . S
C2830 C2831 1.394 . S
C2830 C2836 1.465 . S
C2831 C2826 1.399 . S
C2831 C2830 1.394 . S
C2831 C2832 1.516 . S
C2832 C2831 1.516 . S
C2832 C2833 1.502 . S
C2832 C2834 1.561 . S
C2832 C2835 1.526 . S
C2833 H2817 0.959 . S
C2833 H2818 0.959 . S
C2833 H2819 0.961 . S
C2833 C2832 1.502 . S
C2834 H2820 0.960 . S
C2834 H2821 0.961 . S
C2834 H2822 0.959 . S
C2834 C2832 1.561 . S
C2835 C2832 1.526 . S
C2835 C2836 1.396 . S
C2835 C2840 1.390 . S
C2836 C2830 1.465 . S
C2836 C2835 1.396 . S
C2836 C2837 1.399 . S
C2837 H2823 0.929 . S
C2837 C2836 1.399 . S
C2837 C2838 1.385 . S
C2838 H2824 0.931 . S
C2838 C2837 1.385 . S
C2838 C2839 1.389 . S
C2839 C2838 1.389 . S
C2839 C2840 1.387 . S
C2840 H2825 0.930 . S
C2840 C2835 1.390 . S
C2840 C2839 1.387 . S
H2841 C2853 0.930 . S
H2842 C2855 0.930 . S
H2843 C2856 0.930 . S
H2844 C2860 0.959 . S
H2845 C2860 0.959 . S
H2846 C2860 0.961 . S
H2847 C2861 0.960 . S
H2848 C2861 0.961 . S
H2849 C2861 0.959 . S
H2850 C2864 0.929 . S
H2851 C2865 0.931 . S
H2852 C2867 0.930 . S
C2853 H2841 0.930 . S
C2853 C2854 1.399 . S
C2853 C2858 1.399 . S
C2854 C2853 1.399 . S
C2854 C2855 1.376 . S
C2855 H2842 0.930 . S
C2855 C2854 1.376 . S
C2855 C2856 1.388 . S
C2856 H2843 0.930 . S
C2856 C2855 1.388 . S
C2856 C2857 1.390 . S
C2857 C2856 1.390 . S
C2857 C2858 1.394 . S
C2857 C2863 1.465 . S
C2858 C2853 1.399 . S
C2858 C2857 1.394 . S
C2858 C2859 1.516 . S
C2859 C2858 1.516 . S
C2859 C2860 1.502 . S
C2859 C2861 1.561 . S
C2859 C2862 1.526 . S
C2860 H2844 0.959 . S
C2860 H2845 0.959 . S
C2860 H2846 0.961 . S
C2860 C2859 1.502 . S
C2861 H2847 0.960 . S
C2861 H2848 0.961 . S
C2861 H2849 0.959 . S
C2861 C2859 1.561 . S
C2862 C2859 1.526 . S
C2862 C2863 1.396 . S
C2862 C2867 1.390 . S
C2863 C2857 1.465 . S
C2863 C2862 1.396 . S
C2863 C2864 1.399 . S
C2864 H2850 0.929 . S
C2864 C2863 1.399 . S
C2864 C2865 1.385 . S
C2865 H2851 0.931 . S
C2865 C2864 1.385 . S
C2865 C2866 1.389 . S
C2866 C2865 1.389 . S
C2866 C2867 1.387 . S
C2867 H2852 0.930 . S
C2867 C2862 1.390 . S
C2867 C2866 1.387 . S
H2868 C2880 0.930 . S
H2869 C2882 0.930 . S
H2870 C2883 0.930 . S
H2871 C2887 0.959 . S
H2872 C2887 0.959 . S
H2873 C2887 0.961 . S
H2874 C2888 0.960 . S
H2875 C2888 0.961 . S
H2876 C2888 0.959 . S
H2877 C2891 0.929 . S
H2878 C2892 0.931 . S
H2879 C2894 0.930 . S
C2880 H2868 0.930 . S
C2880 C2881 1.399 . S
C2880 C2885 1.399 . S
C2881 C2880 1.399 . S
C2881 C2882 1.376 . S
C2882 H2869 0.930 . S
C2882 C2881 1.376 . S
C2882 C2883 1.388 . S
C2883 H2870 0.930 . S
C2883 C2882 1.388 . S
C2883 C2884 1.390 . S
C2884 C2883 1.390 . S
C2884 C2885 1.394 . S
C2884 C2890 1.465 . S
C2885 C2880 1.399 . S
C2885 C2884 1.394 . S
C2885 C2886 1.516 . S
C2886 C2885 1.516 . S
C2886 C2887 1.502 . S
C2886 C2888 1.561 . S
C2886 C2889 1.526 . S
C2887 H2871 0.959 . S
C2887 H2872 0.959 . S
C2887 H2873 0.961 . S
C2887 C2886 1.502 . S
C2888 H2874 0.960 . S
C2888 H2875 0.961 . S
C2888 H2876 0.959 . S
C2888 C2886 1.561 . S
C2889 C2886 1.526 . S
C2889 C2890 1.396 . S
C2889 C2894 1.390 . S
C2890 C2884 1.465 . S
C2890 C2889 1.396 . S
C2890 C2891 1.399 . S
C2891 H2877 0.929 . S
C2891 C2890 1.399 . S
C2891 C2892 1.385 . S
C2892 H2878 0.931 . S
C2892 C2891 1.385 . S
C2892 C2893 1.389 . S
C2893 C2892 1.389 . S
C2893 C2894 1.387 . S
C2894 H2879 0.930 . S
C2894 C2889 1.390 . S
C2894 C2893 1.387 . S
H2895 C2907 0.930 . S
H2896 C2909 0.930 . S
H2897 C2910 0.930 . S
H2898 C2914 0.959 . S
H2899 C2914 0.959 . S
H2900 C2914 0.961 . S
H2901 C2915 0.960 . S
H2902 C2915 0.961 . S
H2903 C2915 0.959 . S
H2904 C2918 0.929 . S
H2905 C2919 0.931 . S
H2906 C2921 0.930 . S
C2907 H2895 0.930 . S
C2907 C2908 1.399 . S
C2907 C2912 1.399 . S
C2908 C2907 1.399 . S
C2908 C2909 1.376 . S
C2909 H2896 0.930 . S
C2909 C2908 1.376 . S
C2909 C2910 1.388 . S
C2910 H2897 0.930 . S
C2910 C2909 1.388 . S
C2910 C2911 1.390 . S
C2911 C2910 1.390 . S
C2911 C2912 1.394 . S
C2911 C2917 1.465 . S
C2912 C2907 1.399 . S
C2912 C2911 1.394 . S
C2912 C2913 1.516 . S
C2913 C2912 1.516 . S
C2913 C2914 1.502 . S
C2913 C2915 1.561 . S
C2913 C2916 1.526 . S
C2914 H2898 0.959 . S
C2914 H2899 0.959 . S
C2914 H2900 0.961 . S
C2914 C2913 1.502 . S
C2915 H2901 0.960 . S
C2915 H2902 0.961 . S
C2915 H2903 0.959 . S
C2915 C2913 1.561 . S
C2916 C2913 1.526 . S
C2916 C2917 1.396 . S
C2916 C2921 1.390 . S
C2917 C2911 1.465 . S
C2917 C2916 1.396 . S
C2917 C2918 1.399 . S
C2918 H2904 0.929 . S
C2918 C2917 1.399 . S
C2918 C2919 1.385 . S
C2919 H2905 0.931 . S
C2919 C2918 1.385 . S
C2919 C2920 1.389 . S
C2920 C2919 1.389 . S
C2920 C2921 1.387 . S
C2921 H2906 0.930 . S
C2921 C2916 1.390 . S
C2921 C2920 1.387 . S
H2922 C2934 0.930 . S
H2923 C2936 0.930 . S
H2924 C2937 0.930 . S
H2925 C2941 0.959 . S
H2926 C2941 0.959 . S
H2927 C2941 0.961 . S
H2928 C2942 0.960 . S
H2929 C2942 0.961 . S
H2930 C2942 0.959 . S
H2931 C2945 0.929 . S
H2932 C2946 0.931 . S
H2933 C2948 0.930 . S
C2934 H2922 0.930 . S
C2934 C2935 1.399 . S
C2934 C2939 1.399 . S
C2935 C2934 1.399 . S
C2935 C2936 1.376 . S
C2936 H2923 0.930 . S
C2936 C2935 1.376 . S
C2936 C2937 1.388 . S
C2937 H2924 0.930 . S
C2937 C2936 1.388 . S
C2937 C2938 1.390 . S
C2938 C2937 1.390 . S
C2938 C2939 1.394 . S
C2938 C2944 1.465 . S
C2939 C2934 1.399 . S
C2939 C2938 1.394 . S
C2939 C2940 1.516 . S
C2940 C2939 1.516 . S
C2940 C2941 1.502 . S
C2940 C2942 1.561 . S
C2940 C2943 1.526 . S
C2941 H2925 0.959 . S
C2941 H2926 0.959 . S
C2941 H2927 0.961 . S
C2941 C2940 1.502 . S
C2942 H2928 0.960 . S
C2942 H2929 0.961 . S
C2942 H2930 0.959 . S
C2942 C2940 1.561 . S
C2943 C2940 1.526 . S
C2943 C2944 1.396 . S
C2943 C2948 1.390 . S
C2944 C2938 1.465 . S
C2944 C2943 1.396 . S
C2944 C2945 1.399 . S
C2945 H2931 0.929 . S
C2945 C2944 1.399 . S
C2945 C2946 1.385 . S
C2946 H2932 0.931 . S
C2946 C2945 1.385 . S
C2946 C2947 1.389 . S
C2947 C2946 1.389 . S
C2947 C2948 1.387 . S
C2948 H2933 0.930 . S
C2948 C2943 1.390 . S
C2948 C2947 1.387 . S
H2949 C2961 0.930 . S
H2950 C2963 0.930 . S
H2951 C2964 0.930 . S
H2952 C2968 0.959 . S
H2953 C2968 0.959 . S
H2954 C2968 0.961 . S
H2955 C2969 0.960 . S
H2956 C2969 0.961 . S
H2957 C2969 0.959 . S
H2958 C2972 0.929 . S
H2959 C2973 0.931 . S
H2960 C2975 0.930 . S
C2961 H2949 0.930 . S
C2961 C2962 1.399 . S
C2961 C2966 1.399 . S
C2962 C2961 1.399 . S
C2962 C2963 1.376 . S
C2963 H2950 0.930 . S
C2963 C2962 1.376 . S
C2963 C2964 1.388 . S
C2964 H2951 0.930 . S
C2964 C2963 1.388 . S
C2964 C2965 1.390 . S
C2965 C2964 1.390 . S
C2965 C2966 1.394 . S
C2965 C2971 1.465 . S
C2966 C2961 1.399 . S
C2966 C2965 1.394 . S
C2966 C2967 1.516 . S
C2967 C2966 1.516 . S
C2967 C2968 1.502 . S
C2967 C2969 1.561 . S
C2967 C2970 1.526 . S
C2968 H2952 0.959 . S
C2968 H2953 0.959 . S
C2968 H2954 0.961 . S
C2968 C2967 1.502 . S
C2969 H2955 0.960 . S
C2969 H2956 0.961 . S
C2969 H2957 0.959 . S
C2969 C2967 1.561 . S
C2970 C2967 1.526 . S
C2970 C2971 1.396 . S
C2970 C2975 1.390 . S
C2971 C2965 1.465 . S
C2971 C2970 1.396 . S
C2971 C2972 1.399 . S
C2972 H2958 0.929 . S
C2972 C2971 1.399 . S
C2972 C2973 1.385 . S
C2973 H2959 0.931 . S
C2973 C2972 1.385 . S
C2973 C2974 1.389 . S
C2974 C2973 1.389 . S
C2974 C2975 1.387 . S
C2975 H2960 0.930 . S
C2975 C2970 1.390 . S
C2975 C2974 1.387 . S
H2976 C2988 0.930 . S
H2977 C2990 0.930 . S
H2978 C2991 0.930 . S
H2979 C2995 0.959 . S
H2980 C2995 0.959 . S
H2981 C2995 0.961 . S
H2982 C2996 0.960 . S
H2983 C2996 0.961 . S
H2984 C2996 0.959 . S
H2985 C2999 0.929 . S
H2986 C3000 0.931 . S
H2987 C3002 0.930 . S
C2988 H2976 0.930 . S
C2988 C2989 1.399 . S
C2988 C2993 1.399 . S
C2989 C2988 1.399 . S
C2989 C2990 1.376 . S
C2990 H2977 0.930 . S
C2990 C2989 1.376 . S
C2990 C2991 1.388 . S
C2991 H2978 0.930 . S
C2991 C2990 1.388 . S
C2991 C2992 1.390 . S
C2992 C2991 1.390 . S
C2992 C2993 1.394 . S
C2992 C2998 1.465 . S
C2993 C2988 1.399 . S
C2993 C2992 1.394 . S
C2993 C2994 1.516 . S
C2994 C2993 1.516 . S
C2994 C2995 1.502 . S
C2994 C2996 1.561 . S
C2994 C2997 1.526 . S
C2995 H2979 0.959 . S
C2995 H2980 0.959 . S
C2995 H2981 0.961 . S
C2995 C2994 1.502 . S
C2996 H2982 0.960 . S
C2996 H2983 0.961 . S
C2996 H2984 0.959 . S
C2996 C2994 1.561 . S
C2997 C2994 1.526 . S
C2997 C2998 1.396 . S
C2997 C3002 1.390 . S
C2998 C2992 1.465 . S
C2998 C2997 1.396 . S
C2998 C2999 1.399 . S
C2999 H2985 0.929 . S
C2999 C2998 1.399 . S
C2999 C3000 1.385 . S
C3000 H2986 0.931 . S
C3000 C2999 1.385 . S
C3000 C3001 1.389 . S
C3001 C3000 1.389 . S
C3001 C3002 1.387 . S
C3002 H2987 0.930 . S
C3002 C2997 1.390 . S
C3002 C3001 1.387 . S
H3003 C3015 0.930 . S
H3004 C3017 0.930 . S
H3005 C3018 0.930 . S
H3006 C3022 0.959 . S
H3007 C3022 0.959 . S
H3008 C3022 0.961 . S
H3009 C3023 0.960 . S
H3010 C3023 0.961 . S
H3011 C3023 0.959 . S
H3012 C3026 0.929 . S
H3013 C3027 0.931 . S
H3014 C3029 0.930 . S
C3015 H3003 0.930 . S
C3015 C3016 1.399 . S
C3015 C3020 1.399 . S
C3016 C3015 1.399 . S
C3016 C3017 1.376 . S
C3017 H3004 0.930 . S
C3017 C3016 1.376 . S
C3017 C3018 1.388 . S
C3018 H3005 0.930 . S
C3018 C3017 1.388 . S
C3018 C3019 1.390 . S
C3019 C3018 1.390 . S
C3019 C3020 1.394 . S
C3019 C3025 1.465 . S
C3020 C3015 1.399 . S
C3020 C3019 1.394 . S
C3020 C3021 1.516 . S
C3021 C3020 1.516 . S
C3021 C3022 1.502 . S
C3021 C3023 1.561 . S
C3021 C3024 1.526 . S
C3022 H3006 0.959 . S
C3022 H3007 0.959 . S
C3022 H3008 0.961 . S
C3022 C3021 1.502 . S
C3023 H3009 0.960 . S
C3023 H3010 0.961 . S
C3023 H3011 0.959 . S
C3023 C3021 1.561 . S
C3024 C3021 1.526 . S
C3024 C3025 1.396 . S
C3024 C3029 1.390 . S
C3025 C3019 1.465 . S
C3025 C3024 1.396 . S
C3025 C3026 1.399 . S
C3026 H3012 0.929 . S
C3026 C3025 1.399 . S
C3026 C3027 1.385 . S
C3027 H3013 0.931 . S
C3027 C3026 1.385 . S
C3027 C3028 1.389 . S
C3028 C3027 1.389 . S
C3028 C3029 1.387 . S
C3029 H3014 0.930 . S
C3029 C3024 1.390 . S
C3029 C3028 1.387 . S
H3030 C3042 0.930 . S
H3031 C3044 0.930 . S
H3032 C3045 0.930 . S
H3033 C3049 0.959 . S
H3034 C3049 0.959 . S
H3035 C3049 0.961 . S
H3036 C3050 0.960 . S
H3037 C3050 0.961 . S
H3038 C3050 0.959 . S
H3039 C3053 0.929 . S
H3040 C3054 0.931 . S
H3041 C3056 0.930 . S
C3042 H3030 0.930 . S
C3042 C3043 1.399 . S
C3042 C3047 1.399 . S
C3043 C3042 1.399 . S
C3043 C3044 1.376 . S
C3044 H3031 0.930 . S
C3044 C3043 1.376 . S
C3044 C3045 1.388 . S
C3045 H3032 0.930 . S
C3045 C3044 1.388 . S
C3045 C3046 1.390 . S
C3046 C3045 1.390 . S
C3046 C3047 1.394 . S
C3046 C3052 1.465 . S
C3047 C3042 1.399 . S
C3047 C3046 1.394 . S
C3047 C3048 1.516 . S
C3048 C3047 1.516 . S
C3048 C3049 1.502 . S
C3048 C3050 1.561 . S
C3048 C3051 1.526 . S
C3049 H3033 0.959 . S
C3049 H3034 0.959 . S
C3049 H3035 0.961 . S
C3049 C3048 1.502 . S
C3050 H3036 0.960 . S
C3050 H3037 0.961 . S
C3050 H3038 0.959 . S
C3050 C3048 1.561 . S
C3051 C3048 1.526 . S
C3051 C3052 1.396 . S
C3051 C3056 1.390 . S
C3052 C3046 1.465 . S
C3052 C3051 1.396 . S
C3052 C3053 1.399 . S
C3053 H3039 0.929 . S
C3053 C3052 1.399 . S
C3053 C3054 1.385 . S
C3054 H3040 0.931 . S
C3054 C3053 1.385 . S
C3054 C3055 1.389 . S
C3055 C3054 1.389 . S
C3055 C3056 1.387 . S
C3056 H3041 0.930 . S
C3056 C3051 1.390 . S
C3056 C3055 1.387 . S
H3057 C3069 0.930 . S
H3058 C3071 0.930 . S
H3059 C3072 0.930 . S
H3060 C3076 0.959 . S
H3061 C3076 0.959 . S
H3062 C3076 0.961 . S
H3063 C3077 0.960 . S
H3064 C3077 0.961 . S
H3065 C3077 0.959 . S
H3066 C3080 0.929 . S
H3067 C3081 0.931 . S
H3068 C3083 0.930 . S
C3069 H3057 0.930 . S
C3069 C3070 1.399 . S
C3069 C3074 1.399 . S
C3070 C3069 1.399 . S
C3070 C3071 1.376 . S
C3071 H3058 0.930 . S
C3071 C3070 1.376 . S
C3071 C3072 1.388 . S
C3072 H3059 0.930 . S
C3072 C3071 1.388 . S
C3072 C3073 1.390 . S
C3073 C3072 1.390 . S
C3073 C3074 1.394 . S
C3073 C3079 1.465 . S
C3074 C3069 1.399 . S
C3074 C3073 1.394 . S
C3074 C3075 1.516 . S
C3075 C3074 1.516 . S
C3075 C3076 1.502 . S
C3075 C3077 1.561 . S
C3075 C3078 1.526 . S
C3076 H3060 0.959 . S
C3076 H3061 0.959 . S
C3076 H3062 0.961 . S
C3076 C3075 1.502 . S
C3077 H3063 0.960 . S
C3077 H3064 0.961 . S
C3077 H3065 0.959 . S
C3077 C3075 1.561 . S
C3078 C3075 1.526 . S
C3078 C3079 1.396 . S
C3078 C3083 1.390 . S
C3079 C3073 1.465 . S
C3079 C3078 1.396 . S
C3079 C3080 1.399 . S
C3080 H3066 0.929 . S
C3080 C3079 1.399 . S
C3080 C3081 1.385 . S
C3081 H3067 0.931 . S
C3081 C3080 1.385 . S
C3081 C3082 1.389 . S
C3082 C3081 1.389 . S
C3082 C3083 1.387 . S
C3083 H3068 0.930 . S
C3083 C3078 1.390 . S
C3083 C3082 1.387 . S
H3084 C3096 0.930 . S
H3085 C3098 0.930 . S
H3086 C3099 0.930 . S
H3087 C3103 0.959 . S
H3088 C3103 0.959 . S
H3089 C3103 0.961 . S
H3090 C3104 0.960 . S
H3091 C3104 0.961 . S
H3092 C3104 0.959 . S
H3093 C3107 0.929 . S
H3094 C3108 0.931 . S
H3095 C3110 0.930 . S
C3096 H3084 0.930 . S
C3096 C3097 1.399 . S
C3096 C3101 1.399 . S
C3097 C3096 1.399 . S
C3097 C3098 1.376 . S
C3098 H3085 0.930 . S
C3098 C3097 1.376 . S
C3098 C3099 1.388 . S
C3099 H3086 0.930 . S
C3099 C3098 1.388 . S
C3099 C3100 1.390 . S
C3100 C3099 1.390 . S
C3100 C3101 1.394 . S
C3100 C3106 1.465 . S
C3101 C3096 1.399 . S
C3101 C3100 1.394 . S
C3101 C3102 1.516 . S
C3102 C3101 1.516 . S
C3102 C3103 1.502 . S
C3102 C3104 1.561 . S
C3102 C3105 1.526 . S
C3103 H3087 0.959 . S
C3103 H3088 0.959 . S
C3103 H3089 0.961 . S
C3103 C3102 1.502 . S
C3104 H3090 0.960 . S
C3104 H3091 0.961 . S
C3104 H3092 0.959 . S
C3104 C3102 1.561 . S
C3105 C3102 1.526 . S
C3105 C3106 1.396 . S
C3105 C3110 1.390 . S
C3106 C3100 1.465 . S
C3106 C3105 1.396 . S
C3106 C3107 1.399 . S
C3107 H3093 0.929 . S
C3107 C3106 1.399 . S
C3107 C3108 1.385 . S
C3108 H3094 0.931 . S
C3108 C3107 1.385 . S
C3108 C3109 1.389 . S
C3109 C3108 1.389 . S
C3109 C3110 1.387 . S
C3110 H3095 0.930 . S
C3110 C3105 1.390 . S
C3110 C3109 1.387 . S
H3111 C3123 0.930 . S
H3112 C3125 0.930 . S
H3113 C3126 0.930 . S
H3114 C3130 0.959 . S
H3115 C3130 0.959 . S
H3116 C3130 0.961 . S
H3117 C3131 0.960 . S
H3118 C3131 0.961 . S
H3119 C3131 0.959 . S
H3120 C3134 0.929 . S
H3121 C3135 0.931 . S
H3122 C3137 0.930 . S
C3123 H3111 0.930 . S
C3123 C3124 1.399 . S
C3123 C3128 1.399 . S
C3124 C3123 1.399 . S
C3124 C3125 1.376 . S
C3125 H3112 0.930 . S
C3125 C3124 1.376 . S
C3125 C3126 1.388 . S
C3126 H3113 0.930 . S
C3126 C3125 1.388 . S
C3126 C3127 1.390 . S
C3127 C3126 1.390 . S
C3127 C3128 1.394 . S
C3127 C3133 1.465 . S
C3128 C3123 1.399 . S
C3128 C3127 1.394 . S
C3128 C3129 1.516 . S
C3129 C3128 1.516 . S
C3129 C3130 1.502 . S
C3129 C3131 1.561 . S
C3129 C3132 1.526 . S
C3130 H3114 0.959 . S
C3130 H3115 0.959 . S
C3130 H3116 0.961 . S
C3130 C3129 1.502 . S
C3131 H3117 0.960 . S
C3131 H3118 0.961 . S
C3131 H3119 0.959 . S
C3131 C3129 1.561 . S
C3132 C3129 1.526 . S
C3132 C3133 1.396 . S
C3132 C3137 1.390 . S
C3133 C3127 1.465 . S
C3133 C3132 1.396 . S
C3133 C3134 1.399 . S
C3134 H3120 0.929 . S
C3134 C3133 1.399 . S
C3134 C3135 1.385 . S
C3135 H3121 0.931 . S
C3135 C3134 1.385 . S
C3135 C3136 1.389 . S
C3136 C3135 1.389 . S
C3136 C3137 1.387 . S
C3137 H3122 0.930 . S
C3137 C3132 1.390 . S
C3137 C3136 1.387 . S
H3138 C3150 0.930 . S
H3139 C3152 0.930 . S
H3140 C3153 0.930 . S
H3141 C3157 0.959 . S
H3142 C3157 0.959 1_565 S
H3143 C3157 0.961 . S
H3144 C3158 0.960 . S
H3145 C3158 0.961 . S
H3146 C3158 0.959 . S
H3147 C3161 0.929 . S
H3148 C3162 0.931 . S
H3149 C3164 0.930 1_565 S
C3150 H3138 0.930 . S
C3150 C3151 1.399 . S
C3150 C3155 1.399 . S
C3151 C3150 1.399 . S
C3151 C3152 1.376 . S
C3152 H3139 0.930 . S
C3152 C3151 1.376 . S
C3152 C3153 1.388 . S
C3153 H3140 0.930 . S
C3153 C3152 1.388 . S
C3153 C3154 1.390 . S
C3154 C3153 1.390 . S
C3154 C3155 1.394 . S
C3154 C3160 1.465 . S
C3155 C3150 1.399 . S
C3155 C3154 1.394 . S
C3155 C3156 1.516 . S
C3156 C3155 1.516 . S
C3156 C3157 1.502 . S
C3156 C3158 1.561 1_545 S
C3156 C3159 1.526 . S
C3157 H3141 0.959 . S
C3157 H3142 0.959 1_545 S
C3157 H3143 0.961 . S
C3157 C3156 1.502 . S
C3158 H3144 0.960 . S
C3158 H3145 0.961 . S
C3158 H3146 0.959 . S
C3158 C3156 1.561 1_565 S
C3159 C3156 1.526 . S
C3159 C3160 1.396 . S
C3159 C3164 1.390 . S
C3160 C3154 1.465 . S
C3160 C3159 1.396 . S
C3160 C3161 1.399 . S
C3161 H3147 0.929 . S
C3161 C3160 1.399 . S
C3161 C3162 1.385 . S
C3162 H3148 0.931 . S
C3162 C3161 1.385 . S
C3162 C3163 1.389 . S
C3163 C3162 1.389 . S
C3163 C3164 1.387 . S
C3164 H3149 0.930 1_545 S
C3164 C3159 1.390 . S
C3164 C3163 1.387 . S
H3165 C3177 0.930 . S
H3166 C3179 0.930 . S
H3167 C3180 0.930 . S
H3168 C3184 0.959 . S
H3169 C3184 0.959 . S
H3170 C3184 0.961 . S
H3171 C3185 0.960 . S
H3172 C3185 0.961 . S
H3173 C3185 0.959 . S
H3174 C3188 0.929 . S
H3175 C3189 0.931 . S
H3176 C3191 0.930 . S
C3177 H3165 0.930 . S
C3177 C3178 1.399 . S
C3177 C3182 1.399 . S
C3178 C3177 1.399 . S
C3178 C3179 1.376 . S
C3179 H3166 0.930 . S
C3179 C3178 1.376 . S
C3179 C3180 1.388 . S
C3180 H3167 0.930 . S
C3180 C3179 1.388 . S
C3180 C3181 1.390 . S
C3181 C3180 1.390 . S
C3181 C3182 1.394 . S
C3181 C3187 1.465 . S
C3182 C3177 1.399 . S
C3182 C3181 1.394 . S
C3182 C3183 1.516 . S
C3183 C3182 1.516 . S
C3183 C3184 1.502 . S
C3183 C3185 1.561 . S
C3183 C3186 1.526 . S
C3184 H3168 0.959 . S
C3184 H3169 0.959 . S
C3184 H3170 0.961 . S
C3184 C3183 1.502 . S
C3185 H3171 0.960 . S
C3185 H3172 0.961 . S
C3185 H3173 0.959 . S
C3185 C3183 1.561 . S
C3186 C3183 1.526 . S
C3186 C3187 1.396 . S
C3186 C3191 1.390 . S
C3187 C3181 1.465 . S
C3187 C3186 1.396 . S
C3187 C3188 1.399 . S
C3188 H3174 0.929 . S
C3188 C3187 1.399 . S
C3188 C3189 1.385 . S
C3189 H3175 0.931 . S
C3189 C3188 1.385 . S
C3189 C3190 1.389 . S
C3190 C3189 1.389 . S
C3190 C3191 1.387 . S
C3191 H3176 0.930 . S
C3191 C3186 1.390 . S
C3191 C3190 1.387 . S
H3192 C3204 0.930 . S
H3193 C3206 0.930 1_554 S
H3194 C3207 0.930 . S
H3195 C3211 0.959 . S
H3196 C3211 0.959 . S
H3197 C3211 0.961 . S
H3198 C3212 0.960 . S
H3199 C3212 0.961 . S
H3200 C3212 0.959 . S
H3201 C3215 0.929 . S
H3202 C3216 0.931 . S
H3203 C3218 0.930 . S
C3204 H3192 0.930 . S
C3204 C3205 1.399 . S
C3204 C3209 1.399 . S
C3205 C3204 1.399 . S
C3205 C3206 1.376 . S
C3206 H3193 0.930 1_556 S
C3206 C3205 1.376 . S
C3206 C3207 1.388 . S
C3207 H3194 0.930 . S
C3207 C3206 1.388 . S
C3207 C3208 1.390 . S
C3208 C3207 1.390 . S
C3208 C3209 1.394 . S
C3208 C3214 1.465 . S
C3209 C3204 1.399 . S
C3209 C3208 1.394 . S
C3209 C3210 1.516 . S
C3210 C3209 1.516 . S
C3210 C3211 1.502 . S
C3210 C3212 1.561 . S
C3210 C3213 1.526 . S
C3211 H3195 0.959 . S
C3211 H3196 0.959 . S
C3211 H3197 0.961 . S
C3211 C3210 1.502 . S
C3212 H3198 0.960 . S
C3212 H3199 0.961 . S
C3212 H3200 0.959 . S
C3212 C3210 1.561 . S
C3213 C3210 1.526 . S
C3213 C3214 1.396 . S
C3213 C3218 1.390 . S
C3214 C3208 1.465 . S
C3214 C3213 1.396 . S
C3214 C3215 1.399 . S
C3215 H3201 0.929 . S
C3215 C3214 1.399 . S
C3215 C3216 1.385 . S
C3216 H3202 0.931 . S
C3216 C3215 1.385 . S
C3216 C3217 1.389 . S
C3217 C3216 1.389 . S
C3217 C3218 1.387 . S
C3218 H3203 0.930 . S
C3218 C3213 1.390 . S
C3218 C3217 1.387 . S
H3219 C3231 0.930 . S
H3220 C3233 0.930 . S
H3221 C3234 0.930 . S
H3222 C3238 0.959 . S
H3223 C3238 0.959 . S
H3224 C3238 0.961 . S
H3225 C3239 0.960 . S
H3226 C3239 0.961 . S
H3227 C3239 0.959 . S
H3228 C3242 0.929 . S
H3229 C3243 0.931 . S
H3230 C3245 0.930 . S
C3231 H3219 0.930 . S
C3231 C3232 1.399 . S
C3231 C3236 1.399 . S
C3232 C3231 1.399 . S
C3232 C3233 1.376 . S
C3233 H3220 0.930 . S
C3233 C3232 1.376 . S
C3233 C3234 1.388 . S
C3234 H3221 0.930 . S
C3234 C3233 1.388 . S
C3234 C3235 1.390 . S
C3235 C3234 1.390 . S
C3235 C3236 1.394 . S
C3235 C3241 1.465 . S
C3236 C3231 1.399 . S
C3236 C3235 1.394 . S
C3236 C3237 1.516 . S
C3237 C3236 1.516 . S
C3237 C3238 1.502 . S
C3237 C3239 1.561 . S
C3237 C3240 1.526 . S
C3238 H3222 0.959 . S
C3238 H3223 0.959 . S
C3238 H3224 0.961 . S
C3238 C3237 1.502 . S
C3239 H3225 0.960 . S
C3239 H3226 0.961 . S
C3239 H3227 0.959 . S
C3239 C3237 1.561 . S
C3240 C3237 1.526 . S
C3240 C3241 1.396 . S
C3240 C3245 1.390 . S
C3241 C3235 1.465 . S
C3241 C3240 1.396 . S
C3241 C3242 1.399 . S
C3242 H3228 0.929 . S
C3242 C3241 1.399 . S
C3242 C3243 1.385 . S
C3243 H3229 0.931 . S
C3243 C3242 1.385 . S
C3243 C3244 1.389 . S
C3244 C3243 1.389 . S
C3244 C3245 1.387 . S
C3245 H3230 0.930 . S
C3245 C3240 1.390 . S
C3245 C3244 1.387 . S
H3246 C3258 0.930 . S
H3247 C3260 0.930 . S
H3248 C3261 0.930 . S
H3249 C3265 0.959 1_565 S
H3250 C3265 0.959 . S
H3251 C3265 0.961 . S
H3252 C3266 0.960 . S
H3253 C3266 0.961 . S
H3254 C3266 0.950 1_565 S
H3255 C3269 0.929 . S
H3256 C3270 0.931 . S
H3257 C3272 0.930 1_545 S
C3258 H3246 0.930 . S
C3258 C3259 1.399 . S
C3258 C3263 1.399 . S
C3259 C3258 1.399 . S
C3259 C3260 1.376 . S
C3260 H3247 0.930 . S
C3260 C3259 1.376 . S
C3260 C3261 1.388 . S
C3261 H3248 0.930 . S
C3261 C3260 1.388 . S
C3261 C3262 1.390 . S
C3262 C3261 1.390 . S
C3262 C3263 1.394 . S
C3262 C3268 1.465 . S
C3263 C3258 1.399 . S
C3263 C3262 1.394 . S
C3263 C3264 1.516 . S
C3264 C3263 1.516 . S
C3264 C3265 1.502 1_565 S
C3264 C3266 1.561 1_565 S
C3264 C3267 1.526 . S
C3265 H3249 0.959 1_545 S
C3265 H3250 0.959 . S
C3265 H3251 0.961 . S
C3265 C3264 1.502 1_545 S
C3266 H3252 0.960 . S
C3266 H3253 0.961 . S
C3266 H3254 0.950 1_545 S
C3266 C3264 1.561 1_545 S
C3267 C3264 1.526 . S
C3267 C3268 1.396 . S
C3267 C3272 1.390 . S
C3268 C3262 1.465 . S
C3268 C3267 1.396 . S
C3268 C3269 1.399 . S
C3269 H3255 0.929 . S
C3269 C3268 1.399 . S
C3269 C3270 1.385 . S
C3270 H3256 0.931 . S
C3270 C3269 1.385 . S
C3270 C3271 1.389 . S
C3271 C3270 1.389 . S
C3271 C3272 1.387 . S
C3272 H3257 0.930 1_565 S
C3272 C3267 1.390 . S
C3272 C3271 1.387 . S
H3273 C3285 0.930 . S
H3274 C3287 0.930 . S
H3275 C3288 0.930 . S
H3276 C3292 0.959 . S
H3277 C3292 0.959 . S
H3278 C3292 0.961 . S
H3279 C3293 0.960 . S
H3280 C3293 0.961 . S
H3281 C3293 0.959 . S
H3282 C3296 0.929 . S
H3283 C3297 0.931 . S
H3284 C3299 0.930 . S
C3285 H3273 0.930 . S
C3285 C3286 1.399 . S
C3285 C3290 1.399 . S
C3286 C3285 1.399 . S
C3286 C3287 1.376 . S
C3287 H3274 0.930 . S
C3287 C3286 1.376 . S
C3287 C3288 1.388 . S
C3288 H3275 0.930 . S
C3288 C3287 1.388 . S
C3288 C3289 1.390 . S
C3289 C3288 1.390 . S
C3289 C3290 1.394 . S
C3289 C3295 1.465 . S
C3290 C3285 1.399 . S
C3290 C3289 1.394 . S
C3290 C3291 1.516 . S
C3291 C3290 1.516 . S
C3291 C3292 1.502 . S
C3291 C3293 1.561 . S
C3291 C3294 1.526 . S
C3292 H3276 0.959 . S
C3292 H3277 0.959 . S
C3292 H3278 0.961 . S
C3292 C3291 1.502 . S
C3293 H3279 0.960 . S
C3293 H3280 0.961 . S
C3293 H3281 0.959 . S
C3293 C3291 1.561 . S
C3294 C3291 1.526 . S
C3294 C3295 1.396 . S
C3294 C3299 1.390 . S
C3295 C3289 1.465 . S
C3295 C3294 1.396 . S
C3295 C3296 1.399 . S
C3296 H3282 0.929 . S
C3296 C3295 1.399 . S
C3296 C3297 1.385 . S
C3297 H3283 0.931 . S
C3297 C3296 1.385 . S
C3297 C3298 1.389 . S
C3298 C3297 1.389 . S
C3298 C3299 1.387 . S
C3299 H3284 0.930 . S
C3299 C3294 1.390 . S
C3299 C3298 1.387 . S
C733 C365 1.222 . S
C721 C213 0.976 . S
C760 C368 1.508 . S
C748 C256 1.471 . S
C787 C356 1.068 . S
C775 C234 0.938 . S
C802 C196 1.626 . S
C814 C369 1.652 . S
C841 C400 1.144 . S
C829 C109 1.061 . S
C856 C129 1.705 . S
C868 C427 1.708 . S
C895 C399 0.995 . S
C883 C151 1.017 . S
C910 C100 1.543 . S
C922 C418 1.559 . S
C937 C313 1.030 . S
C949 C431 1.153 . S
C964 C322 1.597 . S
C976 C462 1.618 . S
C1003 C520 1.195 . S
C991 C187 0.971 . S
C1030 C542 1.507 . S
C1018 C277 1.475 . S
C1057 C430 0.956 . S
C1045 C67 1.029 . S
C1084 C461 1.486 . S
C1072 C20 1.432 . S
C1099 C28 1.036 . S
C1111 C511 0.964 . S
C1126 C62 1.491 . S
C1138 C551 1.528 . S
C1153 C40 0.976 . S
C1165 C489 1.206 . S
C1192 C555 1.234 . S
C1180 C184 1.006 . S
C1207 C293 1.551 . S
C1219 C586 1.594 . S
C1246 C635 1.068 . S
C1234 C310 0.894 . S
C1261 C146 1.578 . S
C1273 C493 1.593 . S
C1300 C554 0.956 . S
C1288 C230 1.028 . S
C1327 C585 1.548 . S
C1315 C255 1.511 . S
C1354 C666 1.505 . S
C1342 C205 1.489 . S
C1369 C66 1.139 . S
C1381 C396 1.114 . S
C1396 C4 1.405 . S
C1408 C337 1.462 . S
C1435 C387 1.101 . S
C1423 C37 0.884 . S
C1450 C46 1.600 . S
C1462 C338 1.635 . S
C1477 C301 0.974 . S
C1489 C679 1.202 . S
C1504 C331 1.629 . S
C1516 C706 1.637 . S
C1543 C678 1.083 . S
C1531 C175 0.891 . S
C1558 C276 1.461 . S
C1570 C697 1.491 . S
C1585 C125 1.122 . S
C1597 C613 1.088 . S
C1624 C617 1.527 . S
C1612 C130 1.506 . S
C1651 C648 1.190 . S
C1639 C167 0.980 . S
C1678 C573 1.483 . S
C1666 C91 1.444 . S
C1705 C604 1.075 . S
C1693 C214 0.825 . S
C1720 C272 1.542 . S
C1732 C616 1.577 . S
C1747 C235 0.975 . S
C1759 C647 1.009 . S
C1786 C582 1.625 . S
C1774 C208 1.600 . S
C1801 C251 1.133 . S
C1813 C644 1.110 . S
C1840 C524 1.158 . S
C1828 C150 1.130 . S
C1855 C103 1.566 . S
C1867 C458 1.604 . S
C1882 C108 0.867 . S
C1894 C480 1.088 . S
C1909 C334 1.560 . S
C1921 C675 1.574 . S
C1936 C83 0.975 . S
C1948 C523 0.997 . S
C1963 C3 1.542 . S
C1975 C449 1.570 . S
C2002 C492 1.500 . S
C1990 C45 1.483 . S
C2029 C336 1.431 . S
C2017 C318 1.323 . S
C2056 C386 1.861 . S
C2044 C188 1.675 . S
C2083 C346 1.281 . S
C2071 C289 1.301 . S
C2110 C397 1.750 . S
C2098 C314 1.587 1_565 S
C2137 C417 1.326 . S
C2125 C209 1.310 . S
C2152 C226 1.635 . S
C2164 C408 1.747 . S
C2179 C271 1.188 . S
C2191 C428 1.244 . S
C2206 C247 1.715 1_565 S
C2218 C398 1.842 . S
C2245 C448 1.414 . S
C2233 C58 1.280 . S
C2272 C490 1.727 . S
C2260 C70 1.611 . S
C2287 C16 1.294 . S
C2299 C491 1.397 . S
C2326 C522 1.806 . S
C2314 C25 1.678 . S
C2341 C133 1.246 . S
C2353 C459 1.313 . S
C2380 C479 1.877 . S
C2368 C163 1.766 1_455 S
C2407 C501 1.316 . S
C2395 C88 1.264 . S
C2422 C121 1.668 1_655 S
C2434 C532 1.805 . S
C2461 C460 1.327 . S
C2449 C104 1.241 . S
C2476 C7 1.192 . S
C2488 C572 1.352 . S
C2503 C41 1.629 1_556 S
C2515 C614 1.746 . S
C2530 C49 1.353 . S
C2542 C625 1.348 . S
C2569 C521 1.774 . S
C2557 C229 1.664 . S
C2596 C583 1.276 . S
C2584 C335 1.282 . S
C2611 C172 1.705 . S
C2623 C603 1.836 . S
C2650 C646 1.848 . S
C2638 C298 1.633 . S
C2677 C367 1.420 . S
C2665 C142 1.355 . S
C2692 C166 1.695 1_545 S
C2704 C355 1.826 . S
C2719 C87 1.268 . S
C2731 C377 1.321 . S
C2746 C124 1.591 . S
C2758 C366 1.751 . S
C2785 C696 1.369 . S
C2773 C61 1.207 . S
C2812 C687 1.773 . S
C2800 C79 1.623 1_545 S
C2827 C19 1.186 . S
C2839 C707 1.177 . S
C2854 C24 1.705 . S
C2866 C677 1.840 . S
C2881 C192 1.343 . S
C2893 C584 1.366 . S
C2920 C645 1.735 . S
C2908 C217 1.574 1_655 S
C2947 C665 1.379 . S
C2935 C268 1.343 . S
C2962 C238 1.673 1_455 S
C2974 C553 1.804 . S
C3001 C594 1.258 . S
C2989 C319 1.261 . S
C3016 C171 1.781 . S
C3028 C634 1.903 . S
C3055 C676 1.326 . S
C3043 C280 1.293 . S
C3070 C297 1.623 . S
C3082 C563 1.757 . S
C3097 C292 1.205 . S
C3109 C615 1.335 . S
C3124 C259 1.223 . S
C3136 C541 1.353 . S
C3163 C439 1.747 . S
C3151 C250 1.629 . S
C3178 C193 1.259 . S
C3190 C470 1.279 . S
C3205 C82 1.614 1_556 S
C3217 C656 1.770 . S
C3232 C145 1.342 . S
C3244 C552 1.343 . S
C3271 C429 1.840 . S
C3259 C154 1.705 1_554 S
C3286 C112 1.740 1_554 S
C3298 C510 1.866 . S
