# Generated by pormake.
# Topology nia, (6,6)-cn, num edge types: 1
# Building blocks:
#     Node 0, Type 0, BuildingBlock: BETDEL_clean_sbu_0, # of connection points: 6
#     Node 1, Type 0, BuildingBlock: BETDEL_clean_sbu_0, # of connection points: 6
#     Node 2, Type 1, BuildingBlock: MIDCAF_clean_sbu_0, # of connection points: 6
#     Node 3, Type 1, BuildingBlock: MIDCAF_clean_sbu_0, # of connection points: 6
#     Edge 4, Type (0, 1), BuildingBlock: UKIBIB_clean_linker_0, # of connection points: 2
#     Edge 5, Type (0, 1), BuildingBlock: UKIBIB_clean_linker_0, # of connection points: 2
#     Edge 6, Type (0, 1), BuildingBlock: UKIBIB_clean_linker_0, # of connection points: 2
#     Edge 7, Type (0, 1), BuildingBlock: UKIBIB_clean_linker_0, # of connection points: 2
#     Edge 8, Type (0, 1), BuildingBlock: UKIBIB_clean_linker_0, # of connection points: 2
#     Edge 9, Type (0, 1), BuildingBlock: UKIBIB_clean_linker_0, # of connection points: 2
#     Edge 10, Type (0, 1), BuildingBlock: UKIBIB_clean_linker_0, # of connection points: 2
#     Edge 11, Type (0, 1), BuildingBlock: UKIBIB_clean_linker_0, # of connection points: 2
#     Edge 12, Type (0, 1), BuildingBlock: UKIBIB_clean_linker_0, # of connection points: 2
#     Edge 13, Type (0, 1), BuildingBlock: UKIBIB_clean_linker_0, # of connection points: 2
#     Edge 14, Type (0, 1), BuildingBlock: UKIBIB_clean_linker_0, # of connection points: 2
#     Edge 15, Type (0, 1), BuildingBlock: UKIBIB_clean_linker_0, # of connection points: 2
# Relax obj value: 0.201
# Max RMSD: 0.244
# Mean RMSD: 0.202
data_MOF--net-nia--node1-BETDEL_clean_sbu_0--node2-MIDCAF_clean_sbu_0--edge1-UKIBIB_clean_linker_0
_symmetry_space_group_name_H-M    P1
_symmetry_Int_Tables_number       1
_symmetry_cell_setting            triclinic
loop_
_symmetry_equiv_pos_as_xyz
'x, y, z'
_cell_length_a     32.733652
_cell_length_b     33.084941
_cell_length_c     42.131887
_cell_angle_alpha  85.992044
_cell_angle_beta   91.64957
_cell_angle_gamma 124.88271
loop_
_atom_site_label
_atom_site_type_symbol
_atom_site_fract_x
_atom_site_fract_y
_atom_site_fract_z
_atom_type_partial_charge
Dy0 Dy 0.01368 0.03864 0.04007 0.0
C1 C 0.91934 0.86352 0.96964 0.0
C2 C 0.0602 0.12948 0.06262 0.0
Dy3 Dy 0.96408 0.95427 0.99152 0.0
O4 O 0.02578 0.08868 0.07761 0.0
O5 O 0.07272 0.12057 0.03635 0.0
O6 O 0.95219 0.00764 0.07498 0.0
O7 O 0.93971 0.96812 0.03514 0.0
C8 C 0.91899 0.97004 0.05969 0.0
C9 C 0.05958 0.02577 0.97395 0.0
O10 O 0.92835 -0.00742 0.97488 0.0
O11 O -0.01906 0.06354 1.00239 0.0
O12 O 0.93964 0.9042 0.95166 0.0
O13 O 0.91954 0.87187 0.9993 0.0
O14 O 0.03031 0.98733 0.95809 0.0
O15 O 0.03501 0.02339 0.99729 0.0
O16 O 0.04674 -0.00209 0.0585 0.0
O17 O -0.00297 0.92969 0.02824 0.0
C18 C 0.94554 0.0385 0.98131 0.0
C19 C 0.03027 0.95268 0.05064 0.0
Dy20 Dy 0.96891 0.01594 0.53941 0.0
C21 C 0.0566 0.94164 0.46816 0.0
C22 C 0.92232 0.05458 0.56394 0.0
Dy23 Dy 0.00758 0.97807 0.49289 0.0
O24 O 0.92998 0.02417 0.57935 0.0
O25 O 0.94305 0.06646 0.53591 0.0
O26 O 0.95302 0.95779 0.57675 0.0
O27 O 0.94763 0.94161 0.52883 0.0
C28 C 0.94729 0.92625 0.55729 0.0
C29 C 0.02821 0.0677 0.47571 0.0
O30 O 0.92794 0.93807 0.47675 0.0
O31 O 0.91209 0.98881 0.50097 0.0
O32 O 0.04154 0.96555 0.45186 0.0
O33 O 0.04189 0.93475 0.49755 0.0
O34 O 0.02146 0.03626 0.45583 0.0
O35 O 0.02893 0.05213 0.50382 0.0
O36 O 0.04742 0.05298 0.55767 0.0
O37 O 0.06445 0.00514 0.53074 0.0
C38 C 0.89992 0.95466 0.48099 0.0
C39 C 0.07574 0.03716 0.55208 0.0
Zn40 Zn 0.31522 0.6869 0.19058 0.0
Zn41 Zn 0.31276 0.68006 0.34706 0.0
Zn42 Zn 0.31901 0.67862 0.26565 0.0
C43 C 0.40878 0.71277 0.31198 0.0
C44 C 0.25547 0.58281 0.31996 0.0
O45 O 0.27166 0.70348 0.24314 0.0
O46 O 0.26799 0.70102 0.19024 0.0
C47 C 0.41362 0.73838 0.21971 0.0
O48 O 0.39313 0.71258 0.28361 0.0
O49 O 0.38197 0.70158 0.33654 0.0
O50 O 0.26879 0.60949 0.34348 0.0
O51 O 0.27058 0.60176 0.29112 0.0
O52 O 0.3868 0.73623 0.19678 0.0
O53 O 0.39478 0.71518 0.24695 0.0
O54 O 0.30833 0.61876 0.24435 0.0
O55 O 0.28638 0.6175 0.19401 0.0
C56 C 0.29538 0.59899 0.21796 0.0
O57 O 0.29892 0.73044 0.27229 0.0
O58 O 0.27184 0.68803 0.31684 0.0
C59 C 0.25334 0.70588 0.21595 0.0
C60 C 0.28987 0.72878 0.3018 0.0
Zn61 Zn 0.64741 0.30172 0.83778 0.0
Zn62 Zn 0.65287 0.31215 0.70138 0.0
Zn63 Zn 0.65687 0.31553 0.76661 0.0
C64 C 0.68919 0.40842 0.71744 0.0
C65 C 0.55901 0.24779 0.7247 0.0
O66 O 0.69059 0.27681 0.78644 0.0
O67 O 0.66406 0.2545 0.83705 0.0
C68 C 0.72149 0.39906 0.81242 0.0
O69 O 0.69445 0.39484 0.74608 0.0
O70 O 0.66806 0.37725 0.69659 0.0
O71 O 0.58568 0.25464 0.70123 0.0
O72 O 0.57837 0.27129 0.75018 0.0
O73 O 0.70236 0.36869 0.83627 0.0
O74 O 0.7045 0.38781 0.78407 0.0
O75 O 0.57781 0.2793 0.78359 0.0
O76 O 0.58134 0.28549 0.83618 0.0
C77 C 0.55752 0.27528 0.81063 0.0
O78 O 0.69909 0.28589 0.75208 0.0
O79 O 0.70678 0.30662 0.70027 0.0
C80 C 0.68688 0.25405 0.8136 0.0
C81 C 0.71943 0.29241 0.72469 0.0
C82 C 0.08588 0.94551 0.08993 0.0
C83 C 0.04837 0.92461 0.06702 0.0
C84 C 0.10245 0.91814 0.10461 0.0
C85 C 0.17508 0.68739 0.1937 0.0
C86 C 0.21742 0.71832 0.21198 0.0
C87 C 0.15176 0.70632 0.17662 0.0
H88 H -0.00133 0.85787 0.0418 0.0
H89 H 0.02788 0.81091 0.0676 0.0
H90 H 0.26974 0.79315 0.22503 0.0
H91 H 0.22497 0.82479 0.19882 0.0
C92 C 0.02777 0.87559 0.05926 0.0
C93 C 0.04433 0.84843 0.07394 0.0
C94 C 0.23447 0.76758 0.21402 0.0
C95 C 0.21012 0.78607 0.19785 0.0
C96 C 0.08179 0.86969 0.09658 0.0
C97 C 0.09878 0.84176 0.11183 0.0
C98 C 0.11424 0.81988 0.12526 0.0
C99 C 0.16982 0.75594 0.17833 0.0
C100 C 0.14906 0.77689 0.15871 0.0
C101 C 0.13278 0.79597 0.14267 0.0
H102 H 0.10251 0.98293 0.09643 0.0
H103 H 0.13145 0.93481 0.12223 0.0
H104 H 0.1632 0.65 0.19011 0.0
H105 H 0.12133 0.68298 0.161 0.0
C106 C 0.1318 0.02129 0.58194 0.0
C107 C 0.12283 0.05563 0.56858 0.0
C108 C 0.17801 0.03722 0.59492 0.0
C109 C 0.49087 0.24944 0.70202 0.0
C110 C 0.50624 0.22172 0.71794 0.0
C111 C 0.44835 0.22644 0.68337 0.0
H112 H 0.15638 0.1328 0.55478 0.0
H113 H 0.23794 0.16106 0.57806 0.0
H114 H 0.49082 0.14889 0.72613 0.0
H115 H 0.41371 0.1077 0.6951 0.0
C116 C 0.16171 0.10605 0.56665 0.0
C117 C 0.20831 0.12198 0.57935 0.0
C118 C 0.47785 0.1704 0.7156 0.0
C119 C 0.43472 0.14719 0.69731 0.0
C120 C 0.21609 0.08765 0.59416 0.0
C121 C 0.26152 0.10424 0.6108 0.0
C122 C 0.29961 0.11821 0.62472 0.0
C123 C 0.42044 0.17537 0.68075 0.0
C124 C 0.37761 0.15245 0.66067 0.0
C125 C 0.34225 0.13579 0.64345 0.0
H126 H 0.10286 0.98203 0.5824 0.0
H127 H 0.1837 0.01024 0.60595 0.0
H128 H 0.51409 0.28942 0.70181 0.0
H129 H 0.43828 0.24876 0.67015 0.0
C130 C 0.12421 0.22012 0.06219 0.0
C131 C 0.07775 0.17842 0.07256 0.0
C132 C 0.14305 0.26542 0.07489 0.0
C133 C 0.23113 0.51236 0.22413 0.0
C134 C 0.2807 0.54952 0.21625 0.0
C135 C 0.20689 0.46861 0.2089 0.0
H136 H 0.01133 0.15197 0.10062 0.0
H137 H 0.04451 0.23171 0.12267 0.0
H138 H 0.34593 0.57089 0.18905 0.0
H139 H 0.30357 0.49324 0.16256 0.0
C140 C 0.04816 0.18343 0.09324 0.0
C141 C 0.06673 0.22885 0.10556 0.0
C142 C 0.30785 0.54143 0.19582 0.0
C143 C 0.28357 0.49776 0.18043 0.0
C144 C 0.115 0.26928 0.0974 0.0
C145 C 0.13806 0.31235 0.11508 0.0
C146 C 0.15784 0.34869 0.12972 0.0
C147 C 0.23258 0.46242 0.18595 0.0
C148 C 0.20562 0.42237 0.16588 0.0
C149 C 0.18314 0.38878 0.14893 0.0
H150 H 0.14696 0.21711 0.04568 0.0
H151 H 0.1804 0.2967 0.06833 0.0
H152 H 0.20962 0.5197 0.23867 0.0
H153 H 0.16734 0.44156 0.21311 0.0
C154 C 0.8904 0.10773 0.55856 0.0
C155 C 0.89179 0.0705 0.57564 0.0
C156 C 0.86538 0.12601 0.57117 0.0
C157 C 0.74511 0.23484 0.73217 0.0
C158 C 0.75374 0.2789 0.71854 0.0
C159 C 0.76108 0.21065 0.71597 0.0
H160 H 0.86296 0.01885 0.6172 0.0
H161 H 0.81944 0.05133 0.63934 0.0
H162 H 0.79215 0.33645 0.68042 0.0
H163 H 0.81801 0.29317 0.65185 0.0
C164 C 0.86394 0.04876 0.6041 0.0
C165 C 0.83868 0.06685 0.61659 0.0
C166 C 0.7845 0.30197 0.69119 0.0
C167 C 0.79899 0.27724 0.67465 0.0
C168 C 0.84112 0.1068 0.60076 0.0
C169 C 0.82492 0.13217 0.61684 0.0
C170 C 0.81098 0.15251 0.63102 0.0
C171 C 0.78541 0.2306 0.68634 0.0
C172 C 0.79325 0.20199 0.66676 0.0
C173 C 0.80026 0.17874 0.64986 0.0
H174 H 0.91038 0.12415 0.53613 0.0
H175 H 0.86711 0.1567 0.55861 0.0
H176 H 0.72159 0.21653 0.75315 0.0
H177 H 0.75122 0.17477 0.72535 0.0
C178 C 0.82656 0.89524 0.05898 0.0
C179 C 0.86597 0.93964 0.07123 0.0
C180 C 0.77778 0.87051 0.0721 0.0
C181 C 0.50483 0.80635 0.21905 0.0
C182 C 0.46528 0.75926 0.21073 0.0
C183 C 0.55137 0.83014 0.20347 0.0
H184 H 0.88387 -0.00778 0.10674 0.0
H185 H 0.8011 0.95 0.12848 0.0
H186 H 0.44186 0.70125 0.17888 0.0
H187 H 0.52256 0.74222 0.15221 0.0
C188 C 0.85516 0.95814 0.09651 0.0
C189 C 0.80738 0.93402 0.10919 0.0
C190 C 0.47257 0.73662 0.18667 0.0
C191 C 0.51841 0.76029 0.1711 0.0
C192 C 0.76822 0.89021 0.09728 0.0
C193 C 0.71924 0.86739 0.11168 0.0
C194 C 0.68241 0.855 0.12691 0.0
C195 C 0.55816 0.80705 0.17929 0.0
C196 C 0.60523 0.82973 0.1625 0.0
C197 C 0.64131 0.84282 0.14623 0.0
H198 H 0.83332 0.87979 0.03964 0.0
H199 H 0.74775 0.83637 0.0626 0.0
H200 H 0.49914 0.8254 0.23642 0.0
H201 H 0.58153 0.86668 0.20984 0.0
C202 C 0.93372 0.86577 0.60101 0.0
C203 C 0.92799 0.8749 0.56868 0.0
C204 C 0.91017 0.81768 0.61439 0.0
C205 C 0.69625 0.46799 0.6743 0.0
C206 C 0.70862 0.46008 0.70558 0.0
C207 C 0.71917 0.51536 0.65983 0.0
H208 H 0.89533 0.8406 0.52439 0.0
H209 H 0.85386 0.75529 0.54817 0.0
H210 H 0.75544 0.49729 0.74518 0.0
H211 H 0.79077 0.58092 0.72146 0.0
C212 C 0.90036 0.83467 0.54939 0.0
C213 C 0.87658 0.78608 0.56295 0.0
C214 C 0.74255 0.50156 0.72236 0.0
C215 C 0.76392 0.54941 0.70826 0.0
C216 C 0.88048 0.7776 0.59571 0.0
C217 C 0.85198 0.72845 0.61104 0.0
C218 C 0.82973 0.689 0.62607 0.0
C219 C 0.75368 0.55628 0.67654 0.0
C220 C 0.78153 0.60447 0.65995 0.0
C221 C 0.80348 0.64368 0.64467 0.0
H222 H 0.95519 0.89601 0.61637 0.0
H223 H 0.91384 0.81185 0.63966 0.0
H224 H 0.67039 0.43742 0.6601 0.0
H225 H 0.71104 0.51985 0.63521 0.0
C226 C 0.09632 0.93098 0.42262 0.0
C227 C 0.08866 0.92778 0.45558 0.0
C228 C 0.12452 0.91597 0.41029 0.0
C229 C 0.29535 0.77172 0.34936 0.0
C230 C 0.28527 0.76506 0.31669 0.0
C231 C 0.27895 0.79481 0.36639 0.0
H232 H 0.10857 0.91073 0.50169 0.0
H233 H 0.15837 0.88446 0.47983 0.0
H234 H 0.25211 0.7789 0.27646 0.0
H235 H 0.22479 0.82096 0.30573 0.0
C236 C 0.11249 0.91209 0.47612 0.0
C237 C 0.14114 0.89738 0.46371 0.0
C238 C 0.26173 0.785 0.30104 0.0
C239 C 0.2453 0.80815 0.31803 0.0
C240 C 0.14608 0.89807 0.43066 0.0
C241 C 0.17089 0.87842 0.41712 0.0
C242 C 0.19052 0.86304 0.40307 0.0
C243 C 0.2525 0.81174 0.35095 0.0
C244 C 0.23038 0.83004 0.36922 0.0
C245 C 0.21216 0.84525 0.38492 0.0
H246 H 0.07946 0.94396 0.40624 0.0
H247 H 0.12852 0.91732 0.38472 0.0
H248 H 0.31342 0.75653 0.36212 0.0
H249 H 0.28501 0.79746 0.39181 0.0
C250 C 0.13645 0.10977 0.95802 0.0
C251 C 0.1136 0.05954 0.96716 0.0
C252 C 0.1839 0.13753 0.94337 0.0
C253 C 0.47431 0.20429 0.82614 0.0
C254 C 0.50465 0.25396 0.81479 0.0
C255 C 0.43134 0.18677 0.84403 0.0
H256 H 0.1226 -0.00051 0.96924 0.0
H257 H 0.20561 0.04819 0.94448 0.0
H258 H 0.51497 0.32479 0.81412 0.0
H259 H 0.43751 0.29319 0.84379 0.0
C260 C 0.1398 0.03835 0.96285 0.0
C261 C 0.18704 0.066 0.94851 0.0
C262 C 0.49049 0.28563 0.82085 0.0
C263 C 0.44707 0.26794 0.83848 0.0
C264 C 0.2088 0.11533 0.93796 0.0
C265 C 0.25504 0.14167 0.91996 0.0
C266 C 0.29368 0.16178 0.90506 0.0
C267 C 0.4178 0.21858 0.85056 0.0
C268 C 0.37437 0.20042 0.87011 0.0
C269 C 0.33772 0.18344 0.88657 0.0
H270 H 0.11648 0.12659 0.96028 0.0
H271 H 0.2002 0.17563 0.93513 0.0
H272 H 0.48625 0.18013 0.8236 0.0
H273 H 0.40972 0.14883 0.85377 0.0
C274 C 0.07859 0.16007 0.48137 0.0
C275 C 0.04374 0.11814 0.46494 0.0
C276 C 0.09814 0.20769 0.46717 0.0
C277 C 0.18957 0.49125 0.31193 0.0
C278 C 0.22835 0.52921 0.32935 0.0
C279 C 0.16377 0.44169 0.32431 0.0
H280 H -9e-05 0.09288 0.42223 0.0
H281 H 0.03325 0.17535 0.39801 0.0
H282 H 0.26909 0.54452 0.37376 0.0
H283 H 0.22389 0.46 0.39488 0.0
C284 C 0.02697 0.12456 0.43524 0.0
C285 C 0.04604 0.17165 0.42134 0.0
C286 C 0.23983 0.51653 0.35934 0.0
C287 C 0.21402 0.46797 0.37164 0.0
C288 C 0.08245 0.21345 0.43678 0.0
C289 C 0.10411 0.26145 0.42033 0.0
C290 C 0.11899 0.29904 0.40402 0.0
C291 C 0.17617 0.43019 0.3543 0.0
C292 C 0.15121 0.38035 0.36832 0.0
C293 C 0.13534 0.34204 0.38399 0.0
H294 H 0.09236 0.15613 0.50424 0.0
H295 H 0.12627 0.23976 0.47946 0.0
H296 H 0.17826 0.49982 0.28958 0.0
H297 H 0.13399 0.41263 0.31076 0.0
C298 C 0.95022 0.11515 0.96265 0.0
C299 C 0.92372 0.06319 0.96509 0.0
C300 C 0.9288 0.13814 0.94798 0.0
C301 C 0.68778 0.18112 0.82825 0.0
C302 C 0.71444 0.23213 0.82064 0.0
C303 C 0.71068 0.16117 0.8449 0.0
H304 H 0.85366 -0.00498 0.95492 0.0
H305 H 0.81635 0.03526 0.92965 0.0
H306 H 0.78458 0.30275 0.82583 0.0
H307 H 0.82506 0.26774 0.85445 0.0
C308 C 0.87533 0.03497 0.95295 0.0
C309 C 0.85385 0.05792 0.93868 0.0
C310 C 0.7643 0.26301 0.8298 0.0
C311 C 0.78703 0.24316 0.84667 0.0
C312 C 0.88044 0.10945 0.93591 0.0
C313 C 0.8577 0.13188 0.91995 0.0
C314 C 0.83473 0.14604 0.90617 0.0
C315 C 0.76024 0.19231 0.85457 0.0
C316 C 0.78385 0.17294 0.87319 0.0
C317 C 0.80651 0.16002 0.88878 0.0
H318 H -0.01239 0.13802 0.97181 0.0
H319 H 0.94997 0.1781 0.94601 0.0
H320 H 0.64854 0.15717 0.82281 0.0
H321 H 0.68922 0.12183 0.85113 0.0
C322 C 0.81522 0.88125 0.46926 0.0
C323 C 0.85128 0.93234 0.4656 0.0
C324 C 0.76818 0.86048 0.45583 0.0
C325 C 0.49708 0.78124 0.31329 0.0
C326 C 0.46049 0.73065 0.31803 0.0
C327 C 0.5414 0.80293 0.33021 0.0
H328 H 0.86565 0.0024 0.44763 0.0
H329 H 0.78379 0.96554 0.42261 0.0
H330 H 0.44211 0.66181 0.34191 0.0
H331 H 0.52128 0.69978 0.37045 0.0
C332 C 0.83882 0.96267 0.44977 0.0
C333 C 0.79206 0.94179 0.43583 0.0
C334 C 0.47045 0.701 0.33758 0.0
C335 C 0.51516 0.72266 0.35419 0.0
C336 C 0.75695 0.89047 0.43828 0.0
C337 C 0.71123 0.86789 0.42072 0.0
C338 C 0.67237 0.84653 0.40664 0.0
C339 C 0.54984 0.77404 0.35151 0.0
C340 C 0.59244 0.79788 0.37197 0.0
C341 C 0.62873 0.81996 0.38841 0.0
H342 H 0.82329 0.85754 0.48274 0.0
H343 H 0.74099 0.82085 0.45845 0.0
H344 H 0.48937 0.80465 0.29905 0.0
H345 H 0.56783 0.84268 0.32798 0.0
C346 C 0.90706 0.78159 0.97729 0.0
C347 C 0.90334 0.81596 0.95813 0.0
C348 C 0.89306 0.73711 0.96518 0.0
C349 C 0.75261 0.48578 0.80944 0.0
C350 C 0.75915 0.44912 0.82012 0.0
C351 C 0.77589 0.52927 0.82484 0.0
H352 H 0.88417 0.83229 0.91173 0.0
H353 H 0.8582 0.75386 0.891 0.0
H354 H 0.79449 0.42765 0.85538 0.0
H355 H 0.83258 0.50297 0.88387 0.0
C356 C 0.88654 0.8059 0.92691 0.0
C357 C 0.87189 0.7614 0.9151 0.0
C358 C 0.79071 0.45671 0.84592 0.0
C359 C 0.81208 0.49924 0.8623 0.0
C360 C 0.87498 0.72703 0.93418 0.0
C361 C 0.85975 0.6819 0.92118 0.0
C362 C 0.84575 0.64622 0.90696 0.0
C363 C 0.80352 0.53482 0.85209 0.0
C364 C 0.81815 0.57418 0.87154 0.0
C365 C 0.83059 0.60719 0.88803 0.0
H366 H 0.92148 0.78947 1.0012 0.0
H367 H 0.89626 0.71081 0.97986 0.0
H368 H 0.72425 0.47814 0.7923 0.0
H369 H 0.76833 0.55634 0.8173 0.0
loop_
_geom_bond_atom_site_label_1
_geom_bond_atom_site_label_2
_geom_bond_distance
_geom_bond_site_symmetry_2
_ccdc_geom_bond_type
Dy0 O4 2.398 . S
Dy0 O5 2.491 . S
Dy0 O6 2.403 1_455 S
Dy0 O7 2.664 1_445 S
Dy0 O11 2.326 1_455 S
Dy0 O15 2.310 1_554 S
Dy0 O16 2.351 1_545 S
C1 O12 1.185 . S
C1 O13 1.355 . S
C2 O4 1.185 . S
C2 O5 1.355 . S
Dy3 O7 2.310 1_556 S
Dy3 O10 2.351 1_565 S
Dy3 O12 2.398 . S
Dy3 O13 2.491 . S
Dy3 O14 2.403 1_665 S
Dy3 O15 2.664 1_665 S
Dy3 O17 2.314 1_656 S
O4 Dy0 2.398 . S
O4 C2 1.185 . S
O5 Dy0 2.491 . S
O5 C2 1.355 . S
O6 Dy0 2.403 1_655 S
O6 C8 1.254 1_545 S
O7 Dy0 2.664 1_665 S
O7 Dy3 2.310 1_554 S
O7 C8 1.268 . S
C8 O6 1.254 1_565 S
C8 O7 1.268 . S
C9 O14 1.254 . S
C9 O15 1.268 . S
O10 Dy3 2.351 1_545 S
O10 C18 1.249 . S
O11 Dy0 2.326 1_655 S
O11 C18 1.267 1_554 S
O12 C1 1.185 . S
O12 Dy3 2.398 . S
O13 C1 1.355 . S
O13 Dy3 2.491 . S
O14 Dy3 2.403 1_445 S
O14 C9 1.254 . S
O15 Dy0 2.310 1_556 S
O15 Dy3 2.664 1_445 S
O15 C9 1.268 . S
O16 Dy0 2.351 1_565 S
O16 C19 1.249 . S
O17 Dy3 2.314 1_454 S
O17 C19 1.289 . S
C18 O10 1.249 . S
C18 O11 1.267 1_556 S
C19 O16 1.249 . S
C19 O17 1.289 . S
Dy20 O24 2.398 . S
Dy20 O25 2.491 . S
Dy20 O26 2.403 1_545 S
Dy20 O27 2.655 1_645 S
Dy20 O31 2.326 1_545 S
Dy20 O35 2.310 1_655 S
Dy20 O36 2.351 1_655 S
C21 O32 1.185 . S
C21 O33 1.355 . S
C22 O24 1.185 . S
C22 O25 1.355 . S
Dy23 O27 2.314 . S
Dy23 O30 2.351 1_455 S
Dy23 O32 2.398 . S
Dy23 O33 2.491 . S
Dy23 O34 2.403 1_565 S
Dy23 O35 2.664 1_565 S
Dy23 O37 2.326 1_565 S
O24 Dy20 2.398 . S
O24 C22 1.185 . S
O25 Dy20 2.491 . S
O25 C22 1.355 . S
O26 Dy20 2.403 1_565 S
O26 C28 1.254 . S
O27 Dy20 2.655 1_465 S
O27 Dy23 2.314 . S
O27 C28 1.262 1_455 S
C28 O26 1.254 . S
C28 O27 1.262 1_655 S
C29 O34 1.254 . S
C29 O35 1.268 . S
O30 Dy23 2.351 1_655 S
O30 C38 1.249 . S
O31 Dy20 2.326 1_565 S
O31 C38 1.267 . S
O32 C21 1.185 . S
O32 Dy23 2.398 . S
O33 C21 1.355 . S
O33 Dy23 2.491 . S
O34 Dy23 2.403 1_545 S
O34 C29 1.254 . S
O35 Dy20 2.310 1_455 S
O35 Dy23 2.664 1_545 S
O35 C29 1.268 . S
O36 Dy20 2.351 1_455 S
O36 C39 1.249 . S
O37 Dy23 2.326 1_545 S
O37 C39 1.267 . S
C38 O30 1.249 . S
C38 O31 1.267 . S
C39 O36 1.249 . S
C39 O37 1.267 . S
Zn40 O46 1.920 . S
Zn40 O52 1.898 . S
Zn40 O55 1.905 . S
Zn41 O49 1.905 . S
Zn41 O50 1.898 . S
Zn41 O58 1.920 . S
Zn42 O45 2.080 . S
Zn42 O48 2.114 . S
Zn42 O51 2.120 . S
Zn42 O53 2.120 . S
Zn42 O54 2.114 . S
Zn42 O57 2.080 . S
C43 O48 1.166 . S
C43 O49 1.182 . S
C44 O50 1.167 . S
C44 O51 1.299 . S
O45 Zn42 2.080 . S
O45 C59 1.305 . S
O46 Zn40 1.920 . S
O46 C59 1.234 . S
C47 O52 1.167 . S
C47 O53 1.299 . S
O48 Zn42 2.114 . S
O48 C43 1.166 . S
O49 Zn41 1.905 . S
O49 C43 1.182 . S
O50 Zn41 1.898 . S
O50 C44 1.167 . S
O51 Zn42 2.120 . S
O51 C44 1.299 . S
O52 Zn40 1.898 . S
O52 C47 1.167 . S
O53 Zn42 2.120 . S
O53 C47 1.299 . S
O54 Zn42 2.114 . S
O54 C56 1.166 . S
O55 Zn40 1.905 . S
O55 C56 1.182 . S
C56 O54 1.166 . S
C56 O55 1.182 . S
O57 Zn42 2.080 . S
O57 C60 1.305 . S
O58 Zn41 1.920 . S
O58 C60 1.234 . S
C59 O45 1.305 . S
C59 O46 1.234 . S
C60 O57 1.305 . S
C60 O58 1.234 . S
Zn61 O67 1.920 . S
Zn61 O73 1.898 . S
Zn61 O76 1.905 . S
Zn62 O70 1.905 . S
Zn62 O71 1.898 . S
Zn62 O79 1.920 . S
Zn63 O66 2.080 . S
Zn63 O69 2.114 . S
Zn63 O72 2.120 . S
Zn63 O74 2.120 . S
Zn63 O75 2.114 . S
Zn63 O78 2.080 . S
C64 O69 1.166 . S
C64 O70 1.182 . S
C65 O71 1.167 . S
C65 O72 1.299 . S
O66 Zn63 2.080 . S
O66 C80 1.305 . S
O67 Zn61 1.920 . S
O67 C80 1.234 . S
C68 O73 1.167 . S
C68 O74 1.299 . S
O69 Zn63 2.114 . S
O69 C64 1.166 . S
O70 Zn62 1.905 . S
O70 C64 1.182 . S
O71 Zn62 1.898 . S
O71 C65 1.167 . S
O72 Zn63 2.120 . S
O72 C65 1.299 . S
O73 Zn61 1.898 . S
O73 C68 1.167 . S
O74 Zn63 2.120 . S
O74 C68 1.299 . S
O75 Zn63 2.114 . S
O75 C77 1.166 . S
O76 Zn61 1.905 . S
O76 C77 1.182 . S
C77 O75 1.166 . S
C77 O76 1.182 . S
O78 Zn63 2.080 . S
O78 C81 1.305 . S
O79 Zn62 1.920 . S
O79 C81 1.234 . S
C80 O66 1.305 . S
C80 O67 1.234 . S
C81 O78 1.305 . S
C81 O79 1.234 . S
C82 C83 1.332 . S
C82 C84 1.345 . S
C82 H102 0.932 . S
C83 C82 1.332 . S
C83 C92 1.332 . S
C84 C82 1.345 . S
C84 C96 1.334 . S
C84 H103 0.928 . S
C85 C86 1.332 . S
C85 C87 1.345 . S
C85 H104 0.932 . S
C86 C85 1.332 . S
C86 C94 1.332 . S
C87 C85 1.345 . S
C87 C99 1.334 . S
C87 H105 0.928 . S
H88 C92 0.932 . S
H89 C93 0.928 . S
H90 C94 0.932 . S
H91 C95 0.928 . S
C92 C83 1.332 . S
C92 H88 0.932 . S
C92 C93 1.345 . S
C93 H89 0.928 . S
C93 C92 1.345 . S
C93 C96 1.334 . S
C94 C86 1.332 . S
C94 H90 0.932 . S
C94 C95 1.345 . S
C95 H91 0.928 . S
C95 C94 1.345 . S
C95 C99 1.334 . S
C96 C84 1.334 . S
C96 C93 1.334 . S
C96 C97 1.487 . S
C97 C96 1.487 . S
C97 C98 1.185 . S
C98 C97 1.185 . S
C98 C101 1.482 . S
C99 C87 1.334 . S
C99 C95 1.334 . S
C99 C100 1.487 . S
C100 C99 1.487 . S
C100 C101 1.185 . S
C101 C98 1.482 . S
C101 C100 1.185 . S
H102 C82 0.932 . S
H103 C84 0.928 . S
H104 C85 0.932 . S
H105 C87 0.928 . S
C106 C107 1.332 . S
C106 C108 1.345 . S
C106 H126 0.932 1_545 S
C107 C106 1.332 . S
C107 C116 1.332 . S
C108 C106 1.345 . S
C108 C120 1.334 . S
C108 H127 0.928 . S
C109 C110 1.332 . S
C109 C111 1.345 . S
C109 H128 0.932 . S
C110 C109 1.332 . S
C110 C118 1.332 . S
C111 C109 1.345 . S
C111 C123 1.334 . S
C111 H129 0.928 . S
H112 C116 0.932 . S
H113 C117 0.928 . S
H114 C118 0.932 . S
H115 C119 0.928 . S
C116 C107 1.332 . S
C116 H112 0.932 . S
C116 C117 1.345 . S
C117 H113 0.928 . S
C117 C116 1.345 . S
C117 C120 1.334 . S
C118 C110 1.332 . S
C118 H114 0.932 . S
C118 C119 1.345 . S
C119 H115 0.928 . S
C119 C118 1.345 . S
C119 C123 1.334 . S
C120 C108 1.334 . S
C120 C117 1.334 . S
C120 C121 1.487 . S
C121 C120 1.487 . S
C121 C122 1.185 . S
C122 C121 1.185 . S
C122 C125 1.482 . S
C123 C111 1.334 . S
C123 C119 1.334 . S
C123 C124 1.487 . S
C124 C123 1.487 . S
C124 C125 1.185 . S
C125 C122 1.482 . S
C125 C124 1.185 . S
H126 C106 0.932 1_565 S
H127 C108 0.928 . S
H128 C109 0.932 . S
H129 C111 0.928 . S
C130 C131 1.332 . S
C130 C132 1.345 . S
C130 H150 0.932 . S
C131 C130 1.332 . S
C131 C140 1.332 . S
C132 C130 1.345 . S
C132 C144 1.334 . S
C132 H151 0.928 . S
C133 C134 1.332 . S
C133 C135 1.345 . S
C133 H152 0.932 . S
C134 C133 1.332 . S
C134 C142 1.332 . S
C135 C133 1.345 . S
C135 C147 1.334 . S
C135 H153 0.928 . S
H136 C140 0.932 . S
H137 C141 0.928 . S
H138 C142 0.932 . S
H139 C143 0.928 . S
C140 C131 1.332 . S
C140 H136 0.932 . S
C140 C141 1.345 . S
C141 H137 0.928 . S
C141 C140 1.345 . S
C141 C144 1.334 . S
C142 C134 1.332 . S
C142 H138 0.932 . S
C142 C143 1.345 . S
C143 H139 0.928 . S
C143 C142 1.345 . S
C143 C147 1.334 . S
C144 C132 1.334 . S
C144 C141 1.334 . S
C144 C145 1.487 . S
C145 C144 1.487 . S
C145 C146 1.185 . S
C146 C145 1.185 . S
C146 C149 1.482 . S
C147 C135 1.334 . S
C147 C143 1.334 . S
C147 C148 1.487 . S
C148 C147 1.487 . S
C148 C149 1.185 . S
C149 C146 1.482 . S
C149 C148 1.185 . S
H150 C130 0.932 . S
H151 C132 0.928 . S
H152 C133 0.932 . S
H153 C135 0.928 . S
C154 C155 1.332 . S
C154 C156 1.345 . S
C154 H174 0.932 . S
C155 C154 1.332 . S
C155 C164 1.332 . S
C156 C154 1.345 . S
C156 C168 1.334 . S
C156 H175 0.928 . S
C157 C158 1.332 . S
C157 C159 1.345 . S
C157 H176 0.932 . S
C158 C157 1.332 . S
C158 C166 1.332 . S
C159 C157 1.345 . S
C159 C171 1.334 . S
C159 H177 0.928 . S
H160 C164 0.932 . S
H161 C165 0.928 . S
H162 C166 0.932 . S
H163 C167 0.928 . S
C164 C155 1.332 . S
C164 H160 0.932 . S
C164 C165 1.345 . S
C165 H161 0.928 . S
C165 C164 1.345 . S
C165 C168 1.334 . S
C166 C158 1.332 . S
C166 H162 0.932 . S
C166 C167 1.345 . S
C167 H163 0.928 . S
C167 C166 1.345 . S
C167 C171 1.334 . S
C168 C156 1.334 . S
C168 C165 1.334 . S
C168 C169 1.487 . S
C169 C168 1.487 . S
C169 C170 1.185 . S
C170 C169 1.185 . S
C170 C173 1.482 . S
C171 C159 1.334 . S
C171 C167 1.334 . S
C171 C172 1.487 . S
C172 C171 1.487 . S
C172 C173 1.185 . S
C173 C170 1.482 . S
C173 C172 1.185 . S
H174 C154 0.932 . S
H175 C156 0.928 . S
H176 C157 0.932 . S
H177 C159 0.928 . S
C178 C179 1.332 . S
C178 C180 1.345 . S
C178 H198 0.932 . S
C179 C178 1.332 . S
C179 C188 1.332 . S
C180 C178 1.345 . S
C180 C192 1.334 . S
C180 H199 0.928 . S
C181 C182 1.332 . S
C181 C183 1.345 . S
C181 H200 0.932 . S
C182 C181 1.332 . S
C182 C190 1.332 . S
C183 C181 1.345 . S
C183 C195 1.334 . S
C183 H201 0.928 . S
H184 C188 0.932 . S
H185 C189 0.928 . S
H186 C190 0.932 . S
H187 C191 0.928 . S
C188 C179 1.332 . S
C188 H184 0.932 . S
C188 C189 1.345 . S
C189 H185 0.928 . S
C189 C188 1.345 . S
C189 C192 1.334 . S
C190 C182 1.332 . S
C190 H186 0.932 . S
C190 C191 1.345 . S
C191 H187 0.928 . S
C191 C190 1.345 . S
C191 C195 1.334 . S
C192 C180 1.334 . S
C192 C189 1.334 . S
C192 C193 1.487 . S
C193 C192 1.487 . S
C193 C194 1.185 . S
C194 C193 1.185 . S
C194 C197 1.482 . S
C195 C183 1.334 . S
C195 C191 1.334 . S
C195 C196 1.487 . S
C196 C195 1.487 . S
C196 C197 1.185 . S
C197 C194 1.482 . S
C197 C196 1.185 . S
H198 C178 0.932 . S
H199 C180 0.928 . S
H200 C181 0.932 . S
H201 C183 0.928 . S
C202 C203 1.332 . S
C202 C204 1.345 . S
C202 H222 0.932 . S
C203 C202 1.332 . S
C203 C212 1.332 . S
C204 C202 1.345 . S
C204 C216 1.334 . S
C204 H223 0.928 . S
C205 C206 1.332 . S
C205 C207 1.345 . S
C205 H224 0.932 . S
C206 C205 1.332 . S
C206 C214 1.332 . S
C207 C205 1.345 . S
C207 C219 1.334 . S
C207 H225 0.928 . S
H208 C212 0.932 . S
H209 C213 0.928 . S
H210 C214 0.932 . S
H211 C215 0.928 . S
C212 C203 1.332 . S
C212 H208 0.932 . S
C212 C213 1.345 . S
C213 H209 0.928 . S
C213 C212 1.345 . S
C213 C216 1.334 . S
C214 C206 1.332 . S
C214 H210 0.932 . S
C214 C215 1.345 . S
C215 H211 0.928 . S
C215 C214 1.345 . S
C215 C219 1.334 . S
C216 C204 1.334 . S
C216 C213 1.334 . S
C216 C217 1.487 . S
C217 C216 1.487 . S
C217 C218 1.185 . S
C218 C217 1.185 . S
C218 C221 1.482 . S
C219 C207 1.334 . S
C219 C215 1.334 . S
C219 C220 1.487 . S
C220 C219 1.487 . S
C220 C221 1.185 . S
C221 C218 1.482 . S
C221 C220 1.185 . S
H222 C202 0.932 . S
H223 C204 0.928 . S
H224 C205 0.932 . S
H225 C207 0.928 . S
C226 C227 1.332 . S
C226 C228 1.345 . S
C226 H246 0.932 . S
C227 C226 1.332 . S
C227 C236 1.332 . S
C228 C226 1.345 . S
C228 C240 1.334 . S
C228 H247 0.928 . S
C229 C230 1.332 . S
C229 C231 1.345 . S
C229 H248 0.932 . S
C230 C229 1.332 . S
C230 C238 1.332 . S
C231 C229 1.345 . S
C231 C243 1.334 . S
C231 H249 0.928 . S
H232 C236 0.932 . S
H233 C237 0.928 . S
H234 C238 0.932 . S
H235 C239 0.928 . S
C236 C227 1.332 . S
C236 H232 0.932 . S
C236 C237 1.345 . S
C237 H233 0.928 . S
C237 C236 1.345 . S
C237 C240 1.334 . S
C238 C230 1.332 . S
C238 H234 0.932 . S
C238 C239 1.345 . S
C239 H235 0.928 . S
C239 C238 1.345 . S
C239 C243 1.334 . S
C240 C228 1.334 . S
C240 C237 1.334 . S
C240 C241 1.487 . S
C241 C240 1.487 . S
C241 C242 1.185 . S
C242 C241 1.185 . S
C242 C245 1.482 . S
C243 C231 1.334 . S
C243 C239 1.334 . S
C243 C244 1.487 . S
C244 C243 1.487 . S
C244 C245 1.185 . S
C245 C242 1.482 . S
C245 C244 1.185 . S
H246 C226 0.932 . S
H247 C228 0.928 . S
H248 C229 0.932 . S
H249 C231 0.928 . S
C250 C251 1.332 . S
C250 C252 1.345 . S
C250 H270 0.932 . S
C251 C250 1.332 . S
C251 C260 1.332 . S
C252 C250 1.345 . S
C252 C264 1.334 . S
C252 H271 0.928 . S
C253 C254 1.332 . S
C253 C255 1.345 . S
C253 H272 0.932 . S
C254 C253 1.332 . S
C254 C262 1.332 . S
C255 C253 1.345 . S
C255 C267 1.334 . S
C255 H273 0.928 . S
H256 C260 0.932 . S
H257 C261 0.928 . S
H258 C262 0.932 . S
H259 C263 0.928 . S
C260 C251 1.332 . S
C260 H256 0.932 . S
C260 C261 1.345 . S
C261 H257 0.928 . S
C261 C260 1.345 . S
C261 C264 1.334 . S
C262 C254 1.332 . S
C262 H258 0.932 . S
C262 C263 1.345 . S
C263 H259 0.928 . S
C263 C262 1.345 . S
C263 C267 1.334 . S
C264 C252 1.334 . S
C264 C261 1.334 . S
C264 C265 1.487 . S
C265 C264 1.487 . S
C265 C266 1.185 . S
C266 C265 1.185 . S
C266 C269 1.482 . S
C267 C255 1.334 . S
C267 C263 1.334 . S
C267 C268 1.487 . S
C268 C267 1.487 . S
C268 C269 1.185 . S
C269 C266 1.482 . S
C269 C268 1.185 . S
H270 C250 0.932 . S
H271 C252 0.928 . S
H272 C253 0.932 . S
H273 C255 0.928 . S
C274 C275 1.332 . S
C274 C276 1.345 . S
C274 H294 0.932 . S
C275 C274 1.332 . S
C275 C284 1.332 . S
C276 C274 1.345 . S
C276 C288 1.334 . S
C276 H295 0.928 . S
C277 C278 1.332 . S
C277 C279 1.345 . S
C277 H296 0.932 . S
C278 C277 1.332 . S
C278 C286 1.332 . S
C279 C277 1.345 . S
C279 C291 1.334 . S
C279 H297 0.928 . S
H280 C284 0.932 . S
H281 C285 0.928 . S
H282 C286 0.932 . S
H283 C287 0.928 . S
C284 C275 1.332 . S
C284 H280 0.932 . S
C284 C285 1.345 . S
C285 H281 0.928 . S
C285 C284 1.345 . S
C285 C288 1.334 . S
C286 C278 1.332 . S
C286 H282 0.932 . S
C286 C287 1.345 . S
C287 H283 0.928 . S
C287 C286 1.345 . S
C287 C291 1.334 . S
C288 C276 1.334 . S
C288 C285 1.334 . S
C288 C289 1.487 . S
C289 C288 1.487 . S
C289 C290 1.185 . S
C290 C289 1.185 . S
C290 C293 1.482 . S
C291 C279 1.334 . S
C291 C287 1.334 . S
C291 C292 1.487 . S
C292 C291 1.487 . S
C292 C293 1.185 . S
C293 C290 1.482 . S
C293 C292 1.185 . S
H294 C274 0.932 . S
H295 C276 0.928 . S
H296 C277 0.932 . S
H297 C279 0.928 . S
C298 C299 1.332 . S
C298 C300 1.345 . S
C298 H318 0.932 1_655 S
C299 C298 1.332 . S
C299 C308 1.332 . S
C300 C298 1.345 . S
C300 C312 1.334 . S
C300 H319 0.928 . S
C301 C302 1.332 . S
C301 C303 1.345 . S
C301 H320 0.932 . S
C302 C301 1.332 . S
C302 C310 1.332 . S
C303 C301 1.345 . S
C303 C315 1.334 . S
C303 H321 0.928 . S
H304 C308 0.932 . S
H305 C309 0.928 . S
H306 C310 0.932 . S
H307 C311 0.928 . S
C308 C299 1.332 . S
C308 H304 0.932 . S
C308 C309 1.345 . S
C309 H305 0.928 . S
C309 C308 1.345 . S
C309 C312 1.334 . S
C310 C302 1.332 . S
C310 H306 0.932 . S
C310 C311 1.345 . S
C311 H307 0.928 . S
C311 C310 1.345 . S
C311 C315 1.334 . S
C312 C300 1.334 . S
C312 C309 1.334 . S
C312 C313 1.487 . S
C313 C312 1.487 . S
C313 C314 1.185 . S
C314 C313 1.185 . S
C314 C317 1.482 . S
C315 C303 1.334 . S
C315 C311 1.334 . S
C315 C316 1.487 . S
C316 C315 1.487 . S
C316 C317 1.185 . S
C317 C314 1.482 . S
C317 C316 1.185 . S
H318 C298 0.932 1_455 S
H319 C300 0.928 . S
H320 C301 0.932 . S
H321 C303 0.928 . S
C322 C323 1.332 . S
C322 C324 1.345 . S
C322 H342 0.932 . S
C323 C322 1.332 . S
C323 C332 1.332 . S
C324 C322 1.345 . S
C324 C336 1.334 . S
C324 H343 0.928 . S
C325 C326 1.332 . S
C325 C327 1.345 . S
C325 H344 0.932 . S
C326 C325 1.332 . S
C326 C334 1.332 . S
C327 C325 1.345 . S
C327 C339 1.334 . S
C327 H345 0.928 . S
H328 C332 0.932 1_545 S
H329 C333 0.928 . S
H330 C334 0.932 . S
H331 C335 0.928 . S
C332 C323 1.332 . S
C332 H328 0.932 1_565 S
C332 C333 1.345 . S
C333 H329 0.928 . S
C333 C332 1.345 . S
C333 C336 1.334 . S
C334 C326 1.332 . S
C334 H330 0.932 . S
C334 C335 1.345 . S
C335 H331 0.928 . S
C335 C334 1.345 . S
C335 C339 1.334 . S
C336 C324 1.334 . S
C336 C333 1.334 . S
C336 C337 1.487 . S
C337 C336 1.487 . S
C337 C338 1.185 . S
C338 C337 1.185 . S
C338 C341 1.482 . S
C339 C327 1.334 . S
C339 C335 1.334 . S
C339 C340 1.487 . S
C340 C339 1.487 . S
C340 C341 1.185 . S
C341 C338 1.482 . S
C341 C340 1.185 . S
H342 C322 0.932 . S
H343 C324 0.928 . S
H344 C325 0.932 . S
H345 C327 0.928 . S
C346 C347 1.332 . S
C346 C348 1.345 . S
C346 H366 0.932 . S
C347 C346 1.332 . S
C347 C356 1.332 . S
C348 C346 1.345 . S
C348 C360 1.334 . S
C348 H367 0.928 . S
C349 C350 1.332 . S
C349 C351 1.345 . S
C349 H368 0.932 . S
C350 C349 1.332 . S
C350 C358 1.332 . S
C351 C349 1.345 . S
C351 C363 1.334 . S
C351 H369 0.928 . S
H352 C356 0.932 . S
H353 C357 0.928 . S
H354 C358 0.932 . S
H355 C359 0.928 . S
C356 C347 1.332 . S
C356 H352 0.932 . S
C356 C357 1.345 . S
C357 H353 0.928 . S
C357 C356 1.345 . S
C357 C360 1.334 . S
C358 C350 1.332 . S
C358 H354 0.932 . S
C358 C359 1.345 . S
C359 H355 0.928 . S
C359 C358 1.345 . S
C359 C363 1.334 . S
C360 C348 1.334 . S
C360 C357 1.334 . S
C360 C361 1.487 . S
C361 C360 1.487 . S
C361 C362 1.185 . S
C362 C361 1.185 . S
C362 C365 1.482 . S
C363 C351 1.334 . S
C363 C359 1.334 . S
C363 C364 1.487 . S
C364 C363 1.487 . S
C364 C365 1.185 . S
C365 C362 1.482 . S
C365 C364 1.185 . S
H366 C346 0.932 . S
H367 C348 0.928 . S
H368 C349 0.932 . S
H369 C351 0.928 . S
C83 C19 1.652 . S
C86 C59 1.541 . S
C107 C39 1.173 . S
C110 C65 1.085 . S
C131 C2 0.963 . S
C134 C56 0.927 . S
C155 C22 1.300 . S
C158 C81 1.228 . S
C179 C8 1.804 . S
C182 C47 1.697 . S
C206 C64 1.837 . S
C203 C28 1.933 . S
C227 C21 1.266 . S
C230 C60 1.193 . S
C254 C77 1.644 . S
C251 C9 1.735 . S
C278 C44 1.794 . S
C275 C29 1.918 . S
C302 C80 1.588 . S
C299 C18 1.684 . S
C326 C43 1.146 . S
C323 C38 1.219 . S
C350 C68 0.933 . S
C347 C1 0.986 . S
