# Generated by pormake.
# Topology ctn, (3,4)-cn, num edge types: 1
# Building blocks:
#     Node 0, Type 0, BuildingBlock: OLANEW_clean_sbu_2, # of connection points: 3
#     Node 1, Type 0, BuildingBlock: OLANEW_clean_sbu_2, # of connection points: 3
#     Node 2, Type 0, BuildingBlock: OLANEW_clean_sbu_2, # of connection points: 3
#     Node 3, Type 0, BuildingBlock: OLANEW_clean_sbu_2, # of connection points: 3
#     Node 4, Type 0, BuildingBlock: OLANEW_clean_sbu_2, # of connection points: 3
#     Node 5, Type 0, BuildingBlock: OLANEW_clean_sbu_2, # of connection points: 3
#     Node 6, Type 0, BuildingBlock: OLANEW_clean_sbu_2, # of connection points: 3
#     Node 7, Type 0, BuildingBlock: OLANEW_clean_sbu_2, # of connection points: 3
#     Node 8, Type 0, BuildingBlock: OLANEW_clean_sbu_2, # of connection points: 3
#     Node 9, Type 0, BuildingBlock: OLANEW_clean_sbu_2, # of connection points: 3
#     Node 10, Type 0, BuildingBlock: OLANEW_clean_sbu_2, # of connection points: 3
#     Node 11, Type 0, BuildingBlock: OLANEW_clean_sbu_2, # of connection points: 3
#     Node 12, Type 0, BuildingBlock: OLANEW_clean_sbu_2, # of connection points: 3
#     Node 13, Type 0, BuildingBlock: OLANEW_clean_sbu_2, # of connection points: 3
#     Node 14, Type 0, BuildingBlock: OLANEW_clean_sbu_2, # of connection points: 3
#     Node 15, Type 0, BuildingBlock: OLANEW_clean_sbu_2, # of connection points: 3
#     Node 16, Type 1, BuildingBlock: TATPOV_clean_sbu_0, # of connection points: 4
#     Node 17, Type 1, BuildingBlock: TATPOV_clean_sbu_0, # of connection points: 4
#     Node 18, Type 1, BuildingBlock: TATPOV_clean_sbu_0, # of connection points: 4
#     Node 19, Type 1, BuildingBlock: TATPOV_clean_sbu_0, # of connection points: 4
#     Node 20, Type 1, BuildingBlock: TATPOV_clean_sbu_0, # of connection points: 4
#     Node 21, Type 1, BuildingBlock: TATPOV_clean_sbu_0, # of connection points: 4
#     Node 22, Type 1, BuildingBlock: TATPOV_clean_sbu_0, # of connection points: 4
#     Node 23, Type 1, BuildingBlock: TATPOV_clean_sbu_0, # of connection points: 4
#     Node 24, Type 1, BuildingBlock: TATPOV_clean_sbu_0, # of connection points: 4
#     Node 25, Type 1, BuildingBlock: TATPOV_clean_sbu_0, # of connection points: 4
#     Node 26, Type 1, BuildingBlock: TATPOV_clean_sbu_0, # of connection points: 4
#     Node 27, Type 1, BuildingBlock: TATPOV_clean_sbu_0, # of connection points: 4
#     Edge 28, Type (0, 1), BuildingBlock: XIVTED_clean_linker_0, # of connection points: 2
#     Edge 29, Type (0, 1), BuildingBlock: XIVTED_clean_linker_0, # of connection points: 2
#     Edge 30, Type (0, 1), BuildingBlock: XIVTED_clean_linker_0, # of connection points: 2
#     Edge 31, Type (0, 1), BuildingBlock: XIVTED_clean_linker_0, # of connection points: 2
#     Edge 32, Type (0, 1), BuildingBlock: XIVTED_clean_linker_0, # of connection points: 2
#     Edge 33, Type (0, 1), BuildingBlock: XIVTED_clean_linker_0, # of connection points: 2
#     Edge 34, Type (0, 1), BuildingBlock: XIVTED_clean_linker_0, # of connection points: 2
#     Edge 35, Type (0, 1), BuildingBlock: XIVTED_clean_linker_0, # of connection points: 2
#     Edge 36, Type (0, 1), BuildingBlock: XIVTED_clean_linker_0, # of connection points: 2
#     Edge 37, Type (0, 1), BuildingBlock: XIVTED_clean_linker_0, # of connection points: 2
#     Edge 38, Type (0, 1), BuildingBlock: XIVTED_clean_linker_0, # of connection points: 2
#     Edge 39, Type (0, 1), BuildingBlock: XIVTED_clean_linker_0, # of connection points: 2
#     Edge 40, Type (0, 1), BuildingBlock: XIVTED_clean_linker_0, # of connection points: 2
#     Edge 41, Type (0, 1), BuildingBlock: XIVTED_clean_linker_0, # of connection points: 2
#     Edge 42, Type (0, 1), BuildingBlock: XIVTED_clean_linker_0, # of connection points: 2
#     Edge 43, Type (0, 1), BuildingBlock: XIVTED_clean_linker_0, # of connection points: 2
#     Edge 44, Type (0, 1), BuildingBlock: XIVTED_clean_linker_0, # of connection points: 2
#     Edge 45, Type (0, 1), BuildingBlock: XIVTED_clean_linker_0, # of connection points: 2
#     Edge 46, Type (0, 1), BuildingBlock: XIVTED_clean_linker_0, # of connection points: 2
#     Edge 47, Type (0, 1), BuildingBlock: XIVTED_clean_linker_0, # of connection points: 2
#     Edge 48, Type (0, 1), BuildingBlock: XIVTED_clean_linker_0, # of connection points: 2
#     Edge 49, Type (0, 1), BuildingBlock: XIVTED_clean_linker_0, # of connection points: 2
#     Edge 50, Type (0, 1), BuildingBlock: XIVTED_clean_linker_0, # of connection points: 2
#     Edge 51, Type (0, 1), BuildingBlock: XIVTED_clean_linker_0, # of connection points: 2
#     Edge 52, Type (0, 1), BuildingBlock: XIVTED_clean_linker_0, # of connection points: 2
#     Edge 53, Type (0, 1), BuildingBlock: XIVTED_clean_linker_0, # of connection points: 2
#     Edge 54, Type (0, 1), BuildingBlock: XIVTED_clean_linker_0, # of connection points: 2
#     Edge 55, Type (0, 1), BuildingBlock: XIVTED_clean_linker_0, # of connection points: 2
#     Edge 56, Type (0, 1), BuildingBlock: XIVTED_clean_linker_0, # of connection points: 2
#     Edge 57, Type (0, 1), BuildingBlock: XIVTED_clean_linker_0, # of connection points: 2
#     Edge 58, Type (0, 1), BuildingBlock: XIVTED_clean_linker_0, # of connection points: 2
#     Edge 59, Type (0, 1), BuildingBlock: XIVTED_clean_linker_0, # of connection points: 2
#     Edge 60, Type (0, 1), BuildingBlock: XIVTED_clean_linker_0, # of connection points: 2
#     Edge 61, Type (0, 1), BuildingBlock: XIVTED_clean_linker_0, # of connection points: 2
#     Edge 62, Type (0, 1), BuildingBlock: XIVTED_clean_linker_0, # of connection points: 2
#     Edge 63, Type (0, 1), BuildingBlock: XIVTED_clean_linker_0, # of connection points: 2
#     Edge 64, Type (0, 1), BuildingBlock: XIVTED_clean_linker_0, # of connection points: 2
#     Edge 65, Type (0, 1), BuildingBlock: XIVTED_clean_linker_0, # of connection points: 2
#     Edge 66, Type (0, 1), BuildingBlock: XIVTED_clean_linker_0, # of connection points: 2
#     Edge 67, Type (0, 1), BuildingBlock: XIVTED_clean_linker_0, # of connection points: 2
#     Edge 68, Type (0, 1), BuildingBlock: XIVTED_clean_linker_0, # of connection points: 2
#     Edge 69, Type (0, 1), BuildingBlock: XIVTED_clean_linker_0, # of connection points: 2
#     Edge 70, Type (0, 1), BuildingBlock: XIVTED_clean_linker_0, # of connection points: 2
#     Edge 71, Type (0, 1), BuildingBlock: XIVTED_clean_linker_0, # of connection points: 2
#     Edge 72, Type (0, 1), BuildingBlock: XIVTED_clean_linker_0, # of connection points: 2
#     Edge 73, Type (0, 1), BuildingBlock: XIVTED_clean_linker_0, # of connection points: 2
#     Edge 74, Type (0, 1), BuildingBlock: XIVTED_clean_linker_0, # of connection points: 2
#     Edge 75, Type (0, 1), BuildingBlock: XIVTED_clean_linker_0, # of connection points: 2
# Relax obj value: 0.053
# Max RMSD: 0.169
# Mean RMSD: 0.094
data_MOF--net-ctn--node1-OLANEW_clean_sbu_2--node2-TATPOV_clean_sbu_0--edge1-XIVTED_clean_linker_0
_symmetry_space_group_name_H-M    P1
_symmetry_Int_Tables_number       1
_symmetry_cell_setting            triclinic
loop_
_symmetry_equiv_pos_as_xyz
'x, y, z'
_cell_length_a     59.073957
_cell_length_b     60.557253
_cell_length_c     57.318294
_cell_angle_alpha  91.868063
_cell_angle_beta   96.435246
_cell_angle_gamma 96.553
loop_
_atom_site_label
_atom_site_type_symbol
_atom_site_fract_x
_atom_site_fract_y
_atom_site_fract_z
_atom_type_partial_charge
O0 O 0.03092 0.0421 0.00981 0.0
Cd1 Cd 0.03439 0.01142 0.03675 0.0
O2 O 0.00159 0.05389 0.02526 0.0
Cd3 Cd -0.00316 0.03048 0.05324 0.0
O4 O 0.97932 0.01924 0.08341 0.0
C5 C 0.97963 0.0333 0.10047 0.0
O6 O -0.00881 0.05306 0.09959 0.0
C7 C 0.01594 0.05565 0.01022 0.0
C8 C 0.07169 0.98696 0.03292 0.0
O9 O 0.05234 0.98144 0.02045 0.0
O10 O 0.0736 0.00428 0.0468 0.0
O11 O 0.28671 0.71867 0.25687 0.0
Cd12 Cd 0.24727 0.71689 0.23734 0.0
O13 O 0.28045 0.68684 0.274 0.0
Cd14 Cd 0.24428 0.67818 0.2609 0.0
O15 O 0.2137 0.65444 0.26213 0.0
C16 C 0.21134 0.64666 0.28216 0.0
O17 O 0.22636 0.65416 0.30014 0.0
C18 C 0.29395 0.70386 0.27011 0.0
C19 C 0.24392 0.74145 0.19672 0.0
O20 O 0.24109 0.75024 0.21667 0.0
O21 O 0.24839 0.72123 0.19605 0.0
O22 O 0.97069 0.44015 0.11441 0.0
Cd23 Cd 0.94999 0.43657 0.075 0.0
O24 O 0.96682 0.40403 0.11917 0.0
Cd25 Cd 0.95385 0.39425 0.08274 0.0
O26 O 0.95325 0.37472 0.04992 0.0
C27 C 0.9581 0.35486 0.05154 0.0
O28 O 0.96233 0.34708 0.07252 0.0
C29 C 0.97343 0.42378 0.12733 0.0
C30 C 0.92759 0.47405 0.06582 0.0
O31 O 0.91807 0.4576 0.07614 0.0
O32 O 0.94764 0.47272 0.05974 0.0
O33 O 0.73191 0.7789 0.22151 0.0
Cd34 Cd 0.71313 0.74057 0.21772 0.0
O35 O 0.71219 0.7873 0.25031 0.0
Cd36 Cd 0.69225 0.75521 0.25448 0.0
O37 O 0.66693 0.73964 0.27595 0.0
C38 C 0.66906 0.74762 0.29699 0.0
O39 O 0.68641 0.76285 0.30391 0.0
C40 C 0.72694 0.79305 0.23642 0.0
C41 C 0.72922 0.71531 0.18278 0.0
O42 O 0.71248 0.72676 0.1779 0.0
O43 O 0.73838 0.71584 0.20418 0.0
O44 O 0.09193 0.97509 0.47298 0.0
Cd45 Cd 0.05363 0.95461 0.46298 0.0
O46 O 0.10473 0.96024 0.44218 0.0
Cd47 Cd 0.07102 0.94419 0.42775 0.0
O48 O 0.03678 0.94314 0.4089 0.0
C49 C 0.03516 0.95002 0.38814 0.0
O50 O 0.05403 0.95627 0.37874 0.0
C51 C 0.10828 0.97287 0.46072 0.0
C52 C 0.03616 0.93102 0.49934 0.0
O53 O 0.04988 0.92273 0.4866 0.0
O54 O 0.03106 0.95064 0.49519 0.0
O55 O 0.24885 0.75119 0.8115 0.0
Cd56 Cd 0.25271 0.73251 0.77371 0.0
O57 O 0.21195 0.74561 0.80043 0.0
Cd58 Cd 0.17603 0.75083 0.80067 0.0
O59 O 0.14252 0.75639 0.78325 0.0
C60 C 0.13826 0.74941 0.76187 0.0
O61 O 0.15362 0.73909 0.7524 0.0
C62 C 0.22852 0.75366 0.81548 0.0
C63 C 0.26917 0.69108 0.77564 0.0
O64 O 0.28281 0.70889 0.77415 0.0
O65 O 0.24791 0.69293 0.77678 0.0
O66 O 0.95778 0.53293 0.49579 0.0
Cd67 Cd 0.93211 0.54967 0.52008 0.0
O68 O 0.98485 0.56133 0.49914 0.0
Cd69 Cd 0.96759 0.57961 0.52371 0.0
O70 O 0.95655 0.60434 0.54692 0.0
C71 C 0.9391 0.61407 0.54049 0.0
O72 O 0.92716 0.60829 0.52003 0.0
C73 C 0.97692 0.54204 0.49055 0.0
C74 C 0.89358 0.51894 0.52216 0.0
O75 O 0.89517 0.53145 0.50467 0.0
O76 O 0.90993 0.52136 0.53906 0.0
O77 O 0.83139 0.80294 0.88598 0.0
Cd78 Cd 0.83528 0.83924 0.86844 0.0
O79 O 0.80785 0.8133 0.91022 0.0
Cd80 Cd 0.80475 0.84557 0.89499 0.0
O81 O 0.78566 0.8729 0.88366 0.0
C82 C 0.77732 0.88312 0.89978 0.0
O83 O 0.78216 0.87768 0.92163 0.0
C84 C 0.81935 0.79863 0.90268 0.0
C85 C 0.85329 0.83674 0.8257 0.0
O86 O 0.86648 0.84055 0.84508 0.0
O87 O 0.83155 0.83424 0.82656 0.0
O88 O 0.32311 0.28952 0.38325 0.0
Cd89 Cd 0.31853 0.32199 0.35966 0.0
O90 O 0.2867 0.28745 0.38884 0.0
Cd91 Cd 0.27897 0.31653 0.36943 0.0
O92 O 0.25965 0.34404 0.35988 0.0
C93 C 0.25128 0.35259 0.37701 0.0
O94 O 0.25599 0.34508 0.39804 0.0
C95 C 0.30598 0.27993 0.39208 0.0
C96 C 0.34264 0.32237 0.32076 0.0
O97 O 0.35027 0.3349 0.33905 0.0
O98 O 0.32377 0.30969 0.3209 0.0
O99 O 0.46302 0.93114 0.63396 0.0
Cd100 Cd 0.43729 0.92576 0.59741 0.0
O101 O 0.46204 0.89543 0.64052 0.0
Cd102 Cd 0.44463 0.88373 0.60605 0.0
O103 O 0.44358 0.86411 0.57325 0.0
C104 C 0.44777 0.84402 0.57449 0.0
O105 O 0.45126 0.83566 0.59528 0.0
C106 C 0.46862 0.91562 0.64705 0.0
C107 C 0.41879 0.96513 0.58667 0.0
O108 O 0.40894 0.95096 0.59955 0.0
O109 O 0.43727 0.96059 0.57878 0.0
O110 O 0.23075 0.2993 0.70912 0.0
Cd111 Cd 0.20736 0.26303 0.70312 0.0
O112 O 0.22982 0.29812 0.74735 0.0
Cd113 Cd 0.20662 0.26741 0.74849 0.0
O114 O 0.17889 0.25188 0.767 0.0
C115 C 0.17838 0.26081 0.78729 0.0
O116 O 0.19448 0.27701 0.79505 0.0
C117 C 0.23657 0.30806 0.7297 0.0
C118 C 0.2243 0.23338 0.67299 0.0
O119 O 0.21022 0.24672 0.66506 0.0
O120 O 0.23055 0.2342 0.69519 0.0
O121 O 0.77995 0.20564 0.76198 0.0
Cd122 Cd 0.74123 0.20338 0.74059 0.0
O123 O 0.79063 0.18031 0.73844 0.0
Cd124 Cd 0.75509 0.16792 0.72568 0.0
O125 O 0.72502 0.14429 0.72956 0.0
C126 C 0.71687 0.14467 0.74917 0.0
O127 O 0.72582 0.16006 0.76532 0.0
C128 C 0.79556 0.19494 0.75521 0.0
C129 C 0.74075 0.22735 0.69954 0.0
O130 O 0.73642 0.23636 0.71883 0.0
O131 O 0.7452 0.20713 0.69967 0.0
O132 O 0.53417 0.52602 0.49581 0.0
Cd133 Cd 0.53883 0.49144 0.51653 0.0
O134 O 0.51006 0.53273 0.5206 0.0
Cd135 Cd 0.4841 0.54582 0.5402 0.0
O136 O 0.46247 0.54612 0.56907 0.0
C137 C 0.4425 0.53534 0.56685 0.0
O138 O 0.43448 0.525 0.54659 0.0
C139 C 0.52008 0.53851 0.5028 0.0
C140 C 0.57694 0.46891 0.51065 0.0
O141 O 0.55886 0.46595 0.49576 0.0
O142 O 0.57739 0.48312 0.52783 0.0
O143 O 0.59453 0.47773 0.97054 0.0
Cd144 Cd 0.55668 0.45593 0.9632 0.0
O145 O 0.60196 0.46991 0.9346 0.0
Cd146 Cd 0.56714 0.45521 0.92232 0.0
O147 O 0.53288 0.45647 0.90424 0.0
C148 C 0.53151 0.46406 0.88379 0.0
O149 O 0.55049 0.46961 0.87432 0.0
C150 C 0.60832 0.479 0.95495 0.0
C151 C 0.54088 0.43544 0.0022 0.0
O152 O 0.55428 0.42622 -0.01018 0.0
O153 O 0.53535 0.45456 -0.00356 0.0
O154 O 0.74663 0.22806 0.3135 0.0
Cd155 Cd 0.74238 0.20696 0.27567 0.0
O156 O 0.71227 0.23714 0.30369 0.0
Cd157 Cd 0.68112 0.2535 0.30322 0.0
O158 O 0.64898 0.26212 0.28518 0.0
C159 C 0.64407 0.25413 0.2642 0.0
O160 O 0.65822 0.24171 0.25548 0.0
C161 C 0.73015 0.23849 0.31848 0.0
C162 C 0.76136 0.16675 0.2771 0.0
O163 O 0.77295 0.18454 0.27134 0.0
O164 O 0.74104 0.16809 0.28243 0.0
O165 O 0.45745 0.03844 0.98826 0.0
Cd166 Cd 0.42868 0.05368 0.00975 0.0
O167 O 0.47776 0.07083 0.98556 0.0
Cd168 Cd 0.45808 0.08832 0.00851 0.0
O169 O 0.44854 0.11262 0.03329 0.0
C170 C 0.43257 0.12445 0.02753 0.0
O171 O 0.42089 0.12116 0.00657 0.0
C172 C 0.4742 0.05002 0.98068 0.0
C173 C 0.39113 0.02159 0.01153 0.0
O174 O 0.39314 0.03309 -0.00666 0.0
O175 O 0.4067 0.02544 0.0291 0.0
Zn176 Zn 0.26542 0.83951 0.00787 0.0
Zn177 Zn 0.22942 0.86092 0.01392 0.0
O178 O 0.23129 0.84053 0.04274 0.0
O179 O 0.26192 0.82408 0.0378 0.0
O180 O 0.2018 0.87773 0.01706 0.0
O181 O 0.28535 0.86865 0.00712 0.0
O182 O 0.25628 0.88631 0.015 0.0
C183 C 0.24551 0.82699 0.04955 0.0
C184 C 0.23107 0.83061 0.96936 0.0
O185 O 0.22131 0.84454 0.98077 0.0
O186 O 0.25016 0.82491 0.97761 0.0
C187 C 0.20308 0.89451 0.03134 0.0
O188 O 0.22237 0.90044 0.04497 0.0
C189 C 0.27718 0.88662 0.01123 0.0
Zn190 Zn 0.06509 0.43185 0.3395 0.0
Zn191 Zn 0.08737 0.47135 0.32904 0.0
O192 O 0.06964 0.47921 0.35659 0.0
O193 O 0.05006 0.44754 0.36395 0.0
O194 O 0.10446 0.50106 0.32262 0.0
O195 O 0.09572 0.42109 0.34864 0.0
O196 O 0.11355 0.45224 0.33742 0.0
C197 C 0.05541 0.46822 0.36828 0.0
C198 C 0.05342 0.44353 0.29176 0.0
O199 O 0.06688 0.46113 0.29833 0.0
O200 O 0.05016 0.42819 0.30594 0.0
C201 C 0.1046 0.50951 0.30259 0.0
O202 O 0.09278 0.49871 0.2841 0.0
C203 C 0.11411 0.43292 0.34546 0.0
Zn204 Zn 0.80162 0.59804 0.96416 0.0
Zn205 Zn 0.79016 0.61494 0.005 0.0
O206 O 0.81767 0.59849 0.01671 0.0
O207 O 0.82832 0.58658 0.98329 0.0
O208 O 0.78031 0.63 0.03355 0.0
O209 O 0.80581 0.62849 0.95098 0.0
O210 O 0.79713 0.64182 0.98459 0.0
C211 C 0.83115 0.58827 0.00555 0.0
C212 C 0.75669 0.58001 0.97488 0.0
O213 O 0.76185 0.59319 -0.00705 0.0
O214 O 0.77064 0.5791 0.95969 0.0
C215 C 0.78592 0.6262 0.05498 0.0
O216 O 0.79957 0.61097 0.06023 0.0
C217 C 0.80289 0.64492 0.96406 0.0
Zn218 Zn 0.83345 0.97904 0.30212 0.0
Zn219 Zn 0.85135 0.98335 0.26141 0.0
O220 O 0.83663 0.01268 0.26571 0.0
O221 O 0.8224 0.00903 0.29946 0.0
O222 O 0.86711 -0.01231 0.23193 0.0
O223 O 0.8643 0.97551 0.3195 0.0
O224 O 0.87867 0.97907 0.28586 0.0
C225 C 0.82584 0.0203 0.28172 0.0
C226 C 0.81432 0.94464 0.26703 0.0
O227 O 0.82835 0.95465 0.25436 0.0
O228 O 0.81317 0.95207 0.28772 0.0
C229 C 0.88297 0.00387 0.2325 0.0
O230 O 0.88755 0.01702 0.25154 0.0
C231 C 0.88132 0.97607 0.30785 0.0
Zn232 Zn 0.30303 0.09041 0.4776 0.0
Zn233 Zn 0.28914 0.10907 0.5164 0.0
O234 O 0.31614 0.09314 0.53077 0.0
O235 O 0.32864 0.07973 0.49898 0.0
O236 O 0.27806 0.12612 0.54294 0.0
O237 O 0.3082 0.12003 0.46279 0.0
O238 O 0.29669 0.13452 0.49447 0.0
C239 C 0.33025 0.08237 0.52114 0.0
C240 C 0.25708 0.07306 0.48665 0.0
O241 O 0.26125 0.08691 0.50423 0.0
O242 O 0.27194 0.07154 0.47251 0.0
C243 C 0.2841 0.12557 0.56489 0.0
O244 O 0.29906 0.11222 0.57256 0.0
C245 C 0.30385 0.13683 0.47443 0.0
Zn246 Zn 0.33274 0.49927 0.79664 0.0
Zn247 Zn 0.35017 0.50397 0.75588 0.0
O248 O 0.33481 0.5328 0.76087 0.0
O249 O 0.3196 0.52829 0.794 0.0
O250 O 0.36503 0.50948 0.72604 0.0
O251 O 0.36414 0.49753 0.81375 0.0
O252 O 0.37811 0.50028 0.77982 0.0
C253 C 0.32333 0.53988 0.77656 0.0
C254 C 0.31552 0.46349 0.76244 0.0
O255 O 0.32838 0.47433 0.74921 0.0
O256 O 0.31433 0.471 0.78309 0.0
C257 C 0.35445 0.50671 0.70539 0.0
O258 O 0.33243 0.49952 0.70264 0.0
C259 C 0.38103 0.49789 0.80193 0.0
Zn260 Zn 0.7814 0.33245 0.51948 0.0
Zn261 Zn 0.74153 0.34872 0.51806 0.0
O262 O 0.74154 0.32896 0.54727 0.0
O263 O 0.77487 0.3158 0.54811 0.0
O264 O 0.71241 0.36377 0.51804 0.0
O265 O 0.79917 0.36276 0.52147 0.0
O266 O 0.76612 0.37637 0.52132 0.0
C267 C 0.75616 0.31691 0.55666 0.0
C268 C 0.75274 0.31979 0.4764 0.0
O269 O 0.73859 0.33094 0.48557 0.0
O270 O 0.77203 0.3179 0.4877 0.0
C271 C 0.70257 0.37126 0.49954 0.0
O272 O 0.71059 0.36801 0.4794 0.0
C273 C 0.78791 0.37927 0.52206 0.0
Zn274 Zn 0.58484 0.94241 0.84792 0.0
Zn275 Zn 0.60175 0.98205 0.83304 0.0
O276 O 0.58337 -0.00898 0.85974 0.0
O277 O 0.56811 0.95858 0.87055 0.0
O278 O 0.61502 0.01127 0.82118 0.0
O279 O 0.61696 0.93583 0.85817 0.0
O280 O 0.63073 0.9671 0.84352 0.0
C281 C 0.57057 0.97963 0.87259 0.0
C282 C 0.56981 0.94816 0.79957 0.0
O283 O 0.58117 0.96727 0.80419 0.0
O284 O 0.56933 0.93383 0.81517 0.0
C285 C 0.6225 0.01153 0.80121 0.0
O286 O 0.62116 -0.00723 0.78867 0.0
C287 C 0.6339 0.94912 0.8537 0.0
Zn288 Zn -0.01126 0.25985 0.85847 0.0
Zn289 Zn -0.00936 0.22285 0.88239 0.0
O290 O 0.02165 0.22712 0.86796 0.0
O291 O 0.02137 0.25984 0.85225 0.0
O292 O -0.00757 0.19521 0.90163 0.0
O293 O 0.98179 0.27657 0.88722 0.0
O294 O -0.01339 0.24693 0.90759 0.0
C295 C 0.03155 0.24307 0.85741 0.0
C296 C 0.95323 0.22541 0.84086 0.0
O297 O 0.96133 0.21547 0.85867 0.0
O298 O 0.96286 0.24414 0.8359 0.0
C299 C 0.00572 0.18043 0.89878 0.0
O300 O 0.01905 0.18229 0.88191 0.0
C301 C 0.98258 0.26716 0.90664 0.0
Zn302 Zn 0.48908 0.75837 0.38141 0.0
Zn303 Zn 0.4864 0.7193 0.40123 0.0
O304 O 0.5179 0.72242 0.38759 0.0
O305 O 0.52124 0.75635 0.3746 0.0
O306 O 0.48652 0.69014 0.4181 0.0
O307 O 0.48338 0.77406 0.41097 0.0
O308 O 0.48259 0.74205 0.42815 0.0
C309 C 0.52945 0.73823 0.37832 0.0
C310 C 0.45107 0.72768 0.35992 0.0
O311 O 0.45795 0.71502 0.37598 0.0
O312 O 0.46211 0.7466 0.35802 0.0
C313 C 0.49415 0.67334 0.40921 0.0
O314 O 0.50103 0.67461 0.38822 0.0
C315 C 0.48127 0.76296 0.42908 0.0
Zn316 Zn 0.91459 0.806 0.62185 0.0
Zn317 Zn 0.95521 0.79979 0.64756 0.0
O318 O 0.96547 0.82319 0.62478 0.0
O319 O 0.93294 0.82994 0.60505 0.0
O320 O 0.98432 0.79439 0.66719 0.0
O321 O 0.90217 0.81374 0.65246 0.0
O322 O 0.93557 0.80977 0.67213 0.0
C323 C 0.95462 0.83372 0.60914 0.0
C324 C 0.92679 0.76133 0.61724 0.0
O325 O 0.94386 0.76936 0.63176 0.0
O326 O 0.91172 0.77354 0.60981 0.0
C327 C -0.00129 0.7832 0.6588 0.0
O328 O -0.00527 0.7757 0.63677 0.0
C329 C 0.91503 0.81435 0.67178 0.0
Zn330 Zn 0.42066 0.31358 0.12533 0.0
Zn331 Zn 0.46033 0.30337 0.14999 0.0
O332 O 0.47147 0.32868 0.12954 0.0
O333 O 0.43982 0.33781 0.11007 0.0
O334 O 0.4891 0.2968 0.16945 0.0
O335 O 0.4084 0.32044 0.15623 0.0
O336 O 0.43989 0.31028 0.17507 0.0
C337 C 0.46147 0.34064 0.11468 0.0
C338 C 0.43119 0.26823 0.11669 0.0
O339 O 0.44878 0.27448 0.13131 0.0
O340 O 0.4166 0.28159 0.1112 0.0
C341 C 0.50368 0.2859 0.16102 0.0
O342 O 0.50008 0.27888 0.13883 0.0
C343 C 0.42024 0.31691 0.17528 0.0
H344 H 0.19381 0.74565 0.84317 0.0
H345 H 0.23765 0.85184 0.92962 0.0
H346 H 0.25423 0.79086 0.83585 0.0
H347 H 0.20657 0.79073 0.9548 0.0
H348 H 0.23325 0.83448 0.88981 0.0
H349 H 0.18886 0.76662 0.87941 0.0
C350 C 0.2058 0.76017 0.84901 0.0
C351 C 0.22448 0.76657 0.8366 0.0
C352 C 0.22684 0.82508 0.90394 0.0
C353 C 0.21869 0.79066 0.87753 0.0
C354 C 0.22907 0.83504 0.92651 0.0
C355 C 0.22211 0.82273 0.94525 0.0
C356 C 0.21752 0.80269 0.90017 0.0
C357 C 0.21175 0.8008 0.94061 0.0
C358 C 0.20301 0.77202 0.86966 0.0
C359 C 0.23971 0.78532 0.84503 0.0
N360 N 0.20985 0.79137 0.91847 0.0
N361 N 0.23643 0.79677 0.86492 0.0
H362 H 0.9668 0.49956 0.47146 0.0
H363 H 0.06467 0.51168 0.38532 0.0
H364 H 0.01549 0.55843 0.47124 0.0
H365 H 0.02212 0.45025 0.39382 0.0
H366 H 0.04649 0.52956 0.41608 0.0
H367 H -0.01339 0.48155 0.44238 0.0
C368 C 0.98171 0.50869 0.46537 0.0
C369 C -0.01055 0.53057 0.47378 0.0
C370 C 0.04121 0.51215 0.41123 0.0
C371 C 0.01217 0.51005 0.44033 0.0
C372 C 0.05154 0.50195 0.39364 0.0
C373 C 0.04489 0.47944 0.38693 0.0
C374 C 0.02403 0.49977 0.42206 0.0
C375 C 0.02781 0.46764 0.39837 0.0
C376 C -0.00696 0.49837 0.44876 0.0
C377 C 0.00892 0.54153 0.46526 0.0
N378 N 0.01795 0.47796 0.41529 0.0
N379 N 0.01954 0.5312 0.44891 0.0
H380 H 0.79762 0.78478 0.94034 0.0
H381 H 0.82085 0.65811 0.92405 0.0
H382 H 0.83788 0.76173 0.88811 0.0
H383 H 0.79244 0.68367 0.98421 0.0
H384 H 0.82581 0.69567 0.90974 0.0
H385 H 0.79426 0.74762 0.95584 0.0
C386 C 0.80584 0.77194 0.93217 0.0
C387 C 0.81804 0.77641 0.91285 0.0
C388 C 0.81855 0.69308 0.9261 0.0
C389 C 0.81413 0.73374 0.93049 0.0
C390 C 0.81564 0.67161 0.93427 0.0
C391 C 0.80618 0.6677 0.95538 0.0
C392 C 0.81178 0.7108 0.939 0.0
C393 C 0.79984 0.6859 0.96788 0.0
C394 C 0.80392 0.75072 0.94106 0.0
C395 C 0.82832 0.75908 0.90303 0.0
N396 N 0.80266 0.70664 0.95945 0.0
N397 N 0.82604 0.73849 0.91188 0.0
H398 H 0.02559 0.96296 0.34312 0.0
H399 H 0.89211 0.96596 0.35361 0.0
H400 H -0.0069 0.94323 0.40425 0.0
H401 H 0.92232 0.97771 0.28926 0.0
H402 H 0.92936 0.95885 0.37274 0.0
H403 H -0.01178 0.96923 0.32325 0.0
C404 C 0.01059 0.95984 0.35233 0.0
C405 C 0.01249 0.95259 0.37541 0.0
C406 C 0.92787 0.96297 0.35443 0.0
C407 C 0.96969 0.9599 0.35282 0.0
C408 C 0.90659 0.96712 0.34349 0.0
C409 C 0.90405 0.97244 0.31976 0.0
C410 C 0.94685 0.96422 0.34162 0.0
C411 C 0.92347 0.97364 0.30757 0.0
C412 C -0.01074 0.96344 0.34097 0.0
C413 C -0.00754 0.94881 0.38646 0.0
N414 N 0.94406 0.96958 0.31866 0.0
N415 N 0.97193 0.9526 0.3751 0.0
H416 H 0.21423 0.22768 0.62524 0.0
H417 H 0.29351 0.12988 0.613 0.0
H418 H 0.25384 0.20252 0.6843 0.0
H419 H 0.25372 0.1557 0.55446 0.0
H420 H 0.27879 0.15581 0.63959 0.0
H421 H 0.2283 0.20101 0.59918 0.0
C422 C 0.2259 0.21656 0.63274 0.0
C423 C 0.23288 0.21738 0.65701 0.0
C424 C 0.27327 0.15576 0.62092 0.0
C425 C 0.24907 0.18669 0.62722 0.0
C426 C 0.28165 0.14094 0.60573 0.0
C427 C 0.27489 0.14061 0.58143 0.0
C428 C 0.25803 0.17038 0.61176 0.0
C429 C 0.25945 0.15534 0.57304 0.0
C430 C 0.23393 0.2013 0.61784 0.0
C431 C 0.24802 0.2025 0.66571 0.0
N432 N 0.25161 0.16961 0.58815 0.0
N433 N 0.25561 0.18778 0.65083 0.0
H434 H 0.45591 0.54987 0.61277 0.0
H435 H 0.33816 0.49971 0.65868 0.0
H436 H 0.39856 0.51537 0.56752 0.0
H437 H 0.399 0.52521 0.70482 0.0
H438 H 0.35902 0.50791 0.62486 0.0
H439 H 0.43423 0.54381 0.64641 0.0
C440 C 0.43871 0.54115 0.60986 0.0
C441 C 0.4291 0.53305 0.58724 0.0
C442 C 0.3678 0.51172 0.64238 0.0
C443 C 0.40417 0.526 0.62577 0.0
C444 C 0.35589 0.50705 0.66172 0.0
C445 C 0.36684 0.5117 0.68467 0.0
C446 C 0.39083 0.52123 0.64594 0.0
C447 C 0.38986 0.52126 0.68748 0.0
C448 C 0.42637 0.53762 0.62911 0.0
C449 C 0.40673 0.52184 0.58461 0.0
N450 N 0.40106 0.52571 0.66837 0.0
N451 N 0.39506 0.51863 0.60361 0.0
H452 H 0.75603 0.2151 0.65836 0.0
H453 H 0.72571 0.32254 0.58907 0.0
H454 H 0.72624 0.26827 0.69114 0.0
H455 H 0.77629 0.28078 0.57109 0.0
H456 H 0.72025 0.30037 0.62374 0.0
H457 H 0.75787 0.23644 0.62311 0.0
C458 C 0.74977 0.23124 0.65812 0.0
C459 C 0.7411 0.23996 0.67781 0.0
C460 C 0.73249 0.29613 0.61211 0.0
C461 C 0.74308 0.2645 0.63735 0.0
C462 C 0.73554 0.30869 0.59232 0.0
C463 C 0.75158 0.3036 0.57724 0.0
C464 C 0.74526 0.27816 0.6165 0.0
C465 C 0.76389 0.28548 0.5823 0.0
C466 C 0.75088 0.24345 0.63799 0.0
C467 C 0.7332 0.26098 0.67641 0.0
N468 N 0.76042 0.27343 0.60139 0.0
N469 N 0.73436 0.27255 0.6565 0.0
H470 H 0.48945 0.95646 0.66488 0.0
H471 H 0.5465 0.9082 0.78272 0.0
H472 H 0.48175 0.88688 0.68039 0.0
H473 H 0.56172 0.97628 0.76377 0.0
H474 H 0.52206 0.9004 0.74556 0.0
H475 H 0.51494 0.96445 0.70155 0.0
C476 C 0.49304 0.94287 0.67601 0.0
C477 C 0.48343 0.92095 0.66953 0.0
C478 C 0.5308 0.91703 0.74946 0.0
C479 C 0.51263 0.92999 0.71146 0.0
C480 C 0.5448 0.92152 0.7707 0.0
C481 C 0.55615 0.94296 0.77642 0.0
C482 C 0.52799 0.93414 0.73383 0.0
C483 C 0.55331 0.95952 0.7601 0.0
C484 C 0.50767 0.94745 0.69691 0.0
C485 C 0.48875 0.90401 0.68463 0.0
N486 N 0.5394 0.95477 0.73957 0.0
N487 N 0.50297 0.90891 0.70488 0.0
H488 H 0.80877 0.20865 0.80107 0.0
H489 H 0.94119 0.22767 0.79381 0.0
H490 H 0.83576 0.18899 0.73767 0.0
H491 H 0.9151 0.20422 0.85699 0.0
H492 H 0.90273 0.21838 0.77237 0.0
H493 H 0.84778 0.21285 0.82182 0.0
C494 C 0.82293 0.20539 0.79149 0.0
C495 C 0.81909 0.19853 0.76761 0.0
C496 C 0.90555 0.21499 0.79085 0.0
C497 C 0.86356 0.20343 0.79115 0.0
C498 C 0.92741 0.22024 0.80305 0.0
C499 C 0.93126 0.21657 0.82713 0.0
C500 C 0.88731 0.20672 0.80301 0.0
C501 C 0.91285 0.20707 0.83837 0.0
C502 C 0.84508 0.20757 0.80338 0.0
C503 C 0.83801 0.19429 0.75609 0.0
N504 N 0.89151 0.20284 0.8263 0.0
N505 N 0.85951 0.19707 0.7679 0.0
H506 H 0.45641 0.80056 0.57085 0.0
H507 H 0.47495 0.80657 0.43516 0.0
H508 H 0.44632 0.8576 0.52932 0.0
H509 H 0.47605 0.74579 0.47245 0.0
H510 H 0.46558 0.8255 0.47018 0.0
H511 H 0.46413 0.78012 0.53562 0.0
C512 C 0.45567 0.80875 0.55431 0.0
C513 C 0.45079 0.83088 0.55307 0.0
C514 C 0.46784 0.80802 0.47078 0.0
C515 C 0.45979 0.80762 0.51277 0.0
C516 C 0.47329 0.79716 0.45076 0.0
C517 C 0.47633 0.77449 0.45081 0.0
C518 C 0.46545 0.79625 0.49121 0.0
C519 C 0.47388 0.76327 0.47161 0.0
C520 C 0.46011 0.79706 0.53422 0.0
C521 C 0.45004 0.84061 0.53116 0.0
N522 N 0.46862 0.77428 0.49101 0.0
N523 N 0.45462 0.82896 0.51194 0.0
H524 H 0.16924 0.28201 0.82722 0.0
H525 H 0.05134 0.2075 0.841 0.0
H526 H 0.14312 0.22649 0.77875 0.0
H527 H 0.0648 0.27783 0.85908 0.0
H528 H 0.08916 0.20912 0.82619 0.0
H529 H 0.13522 0.27506 0.84755 0.0
C530 C 0.15649 0.26818 0.82097 0.0
C531 C 0.15891 0.25499 0.80102 0.0
C532 C 0.08382 0.22407 0.83367 0.0
C533 C 0.11994 0.24691 0.82443 0.0
C534 C 0.06242 0.22314 0.84221 0.0
C535 C 0.055 0.2426 0.85109 0.0
C536 C 0.09793 0.24448 0.83467 0.0
C537 C 0.06983 0.26249 0.85217 0.0
C538 C 0.13705 0.26428 0.83259 0.0
C539 C 0.14181 0.23721 0.7939 0.0
N540 N 0.09058 0.26291 0.8441 0.0
N541 N 0.12293 0.23373 0.80555 0.0
H542 H 0.49885 0.57457 0.51656 0.0
H543 H 0.51114 0.63541 0.39558 0.0
H544 H 0.53082 0.54864 0.45909 0.0
H545 H 0.483 0.66493 0.4538 0.0
H546 H 0.51674 0.6028 0.41836 0.0
H547 H 0.49132 0.60704 0.49379 0.0
C548 C 0.50409 0.57552 0.49913 0.0
C549 C 0.51529 0.55862 0.48972 0.0
C550 C 0.50929 0.61636 0.42621 0.0
C551 C 0.50696 0.59597 0.4636 0.0
C552 C 0.50604 0.63503 0.41314 0.0
C553 C 0.4966 0.65304 0.42275 0.0
C554 C 0.50309 0.61552 0.44915 0.0
C555 C 0.49034 0.65148 0.44566 0.0
C556 C 0.49992 0.59418 0.48617 0.0
C557 C 0.52214 0.56117 0.46716 0.0
N558 N 0.49373 0.63308 0.45808 0.0
N559 N 0.51784 0.57938 0.45493 0.0
H560 H 0.89841 0.83819 0.8183 0.0
H561 H 0.87103 0.82107 0.67843 0.0
H562 H 0.82993 0.83124 0.78147 0.0
H563 H 0.9383 0.81934 0.7161 0.0
H564 H 0.85611 0.82784 0.71575 0.0
H565 H 0.91375 0.83424 0.78072 0.0
C566 C 0.8866 0.8359 0.80231 0.0
C567 C 0.86284 0.83497 0.80304 0.0
C568 C 0.87415 0.82604 0.71583 0.0
C569 C 0.88029 0.83046 0.75995 0.0
C570 C 0.8827 0.82223 0.69452 0.0
C571 C 0.90595 0.81955 0.69411 0.0
C572 C 0.88894 0.82727 0.73692 0.0
C573 C 0.92024 0.82122 0.71555 0.0
C574 C 0.89536 0.83362 0.78086 0.0
C575 C 0.84837 0.83199 0.78175 0.0
N576 N 0.9115 0.82493 0.73607 0.0
N577 N 0.85731 0.82982 0.76108 0.0
H578 H 0.04966 0.89325 0.51884 0.0
H579 H 0.93796 0.86646 0.58281 0.0
H580 H -0.00116 0.93888 0.52122 0.0
H581 H 0.0002 0.8373 0.60295 0.0
H582 H 0.95883 0.89143 0.55774 0.0
H583 H 0.03074 0.8707 0.54741 0.0
C584 C 0.03459 0.89858 0.52546 0.0
C585 C 0.02578 0.91795 0.51762 0.0
C586 C 0.96794 0.87967 0.56779 0.0
C587 C 0.00394 0.89212 0.55002 0.0
C588 C 0.95604 0.86537 0.58203 0.0
C589 C 0.96735 0.84975 0.59497 0.0
C590 C -0.00876 0.8781 0.56612 0.0
C591 C -0.00918 0.84914 0.59334 0.0
C592 C 0.02386 0.88575 0.5418 0.0
C593 C 0.00624 0.9241 0.52682 0.0
N594 N 0.00194 0.86295 0.57898 0.0
N595 N -0.00416 0.9111 0.54235 0.0
H596 H 0.10355 0.77191 0.77498 0.0
H597 H 0.03249 0.75913 0.64672 0.0
H598 H 0.1245 0.73677 0.71579 0.0
H599 H 0.01172 0.79534 0.70529 0.0
H600 H 0.06598 0.75026 0.67205 0.0
H601 H 0.0693 0.77993 0.7501 0.0
C602 C 0.10092 0.76581 0.75679 0.0
C603 C 0.11696 0.7537 0.74745 0.0
C604 C 0.05411 0.76016 0.67938 0.0
C605 C 0.07785 0.76288 0.71886 0.0
C606 C 0.03498 0.76526 0.6649 0.0
C607 C 0.01928 0.77804 0.67387 0.0
C608 C 0.0576 0.76788 0.70304 0.0
C609 C 0.02339 0.78547 0.6976 0.0
C610 C 0.08138 0.77043 0.74258 0.0
C611 C 0.11265 0.74621 0.72375 0.0
N612 N 0.04215 0.78028 0.71136 0.0
N613 N 0.09355 0.75096 0.71028 0.0
H614 H 0.96074 0.63051 0.58325 0.0
H615 H 0.89561 0.73929 0.58267 0.0
H616 H 0.90597 0.64163 0.53002 0.0
H617 H 0.95465 0.73004 0.63143 0.0
H618 H 0.89565 0.7015 0.56623 0.0
H619 H 0.95502 0.6647 0.60427 0.0
C620 C 0.94736 0.64004 0.57607 0.0
C621 C 0.934 0.63333 0.55467 0.0
C622 C 0.90848 0.70771 0.58064 0.0
C623 C 0.92746 0.67263 0.57863 0.0
C624 C 0.90846 0.72927 0.59006 0.0
C625 C 0.92529 0.73794 0.60831 0.0
C626 C 0.92543 0.69473 0.58958 0.0
C627 C 0.94146 0.72415 0.61724 0.0
C628 C 0.94413 0.6596 0.58808 0.0
C629 C 0.91679 0.64626 0.54635 0.0
N630 N 0.9412 0.70331 0.60769 0.0
N631 N 0.91415 0.66541 0.55825 0.0
H632 H 0.71766 0.82747 0.2642 0.0
H633 H 0.81927 0.91549 0.23029 0.0
H634 H 0.76214 0.81172 0.21271 0.0
H635 H 0.77623 0.92608 0.28473 0.0
H636 H 0.79672 0.879 0.2202 0.0
H637 H 0.73715 0.86509 0.26863 0.0
C638 C 0.73153 0.83192 0.25374 0.0
C639 C 0.73836 0.81627 0.23818 0.0
C640 C 0.79217 0.88945 0.23421 0.0
C641 C 0.76099 0.8597 0.24327 0.0
C642 C 0.80495 0.91029 0.2399 0.0
C643 C 0.79976 0.92377 0.25853 0.0
C644 C 0.77407 0.88223 0.24718 0.0
C645 C 0.78106 0.91619 0.27042 0.0
C646 C 0.74269 0.85351 0.25628 0.0
C647 C 0.75638 0.8232 0.225 0.0
N648 N 0.76904 0.89599 0.26462 0.0
N649 N 0.76719 0.8444 0.22794 0.0
H650 H 0.74421 0.12821 0.2955 0.0
H651 H 0.83671 0.05422 0.25236 0.0
H652 H 0.80029 0.15617 0.25931 0.0
H653 H 0.79419 0.03601 0.30688 0.0
H654 H 0.82126 0.09027 0.25067 0.0
H655 H 0.75994 0.09268 0.29576 0.0
C656 C 0.75984 0.12688 0.28759 0.0
C657 C 0.77099 0.14522 0.27744 0.0
C658 C 0.8154 0.07832 0.26299 0.0
C659 C 0.78906 0.10445 0.27754 0.0
C660 C 0.82412 0.05775 0.26389 0.0
C661 C 0.81678 0.04209 0.27982 0.0
C662 C 0.79901 0.08303 0.27786 0.0
C663 C 0.80048 0.04757 0.2944 0.0
C664 C 0.76885 0.10659 0.28779 0.0
C665 C 0.79121 0.14248 0.26744 0.0
N666 N 0.79211 0.06749 0.293 0.0
N667 N 0.79958 0.12243 0.26766 0.0
H668 H 0.37265 0.00402 0.04963 0.0
H669 H 0.30938 0.8966 0.98191 0.0
H670 H 0.36634 -0.00176 0.97389 0.0
H671 H 0.27868 0.92467 0.03912 0.0
H672 H 0.33512 0.93122 0.98154 0.0
H673 H 0.34239 0.97247 0.04927 0.0
C674 C 0.36481 -0.00381 0.03296 0.0
C675 C 0.37199 0.00367 0.01175 0.0
C676 C 0.32266 0.92982 -0.00593 0.0
C677 C 0.33796 0.96759 0.01131 0.0
C678 C 0.30809 0.9101 -0.00561 0.0
C679 C 0.29197 0.90786 0.01059 0.0
C680 C 0.32157 0.94719 0.01053 0.0
C681 C 0.29087 0.92586 0.02631 0.0
C682 C 0.34754 0.97835 0.03278 0.0
C683 C 0.36126 -0.00697 -0.00938 0.0
N684 N 0.30579 0.94475 0.02616 0.0
N685 N 0.34503 0.97527 -0.00906 0.0
H686 H 0.23914 0.37408 0.33672 0.0
H687 H 0.12404 0.40404 0.37919 0.0
H688 H 0.22425 0.36709 0.40835 0.0
H689 H 0.15405 0.44151 0.32525 0.0
H690 H 0.15972 0.38768 0.38795 0.0
H691 H 0.20741 0.39691 0.32992 0.0
C692 C 0.22939 0.37753 0.35106 0.0
C693 C 0.23418 0.36849 0.37308 0.0
C694 C 0.1586 0.39962 0.37433 0.0
C695 C 0.19793 0.39418 0.36531 0.0
C696 C 0.13822 0.40886 0.36923 0.0
C697 C 0.13614 0.42407 0.35145 0.0
C698 C 0.1769 0.40523 0.36119 0.0
C699 C 0.15507 0.42987 0.33916 0.0
C700 C 0.21138 0.39059 0.34717 0.0
C701 C 0.2211 0.37358 0.39106 0.0
N702 N 0.17465 0.42017 0.34403 0.0
N703 N 0.20337 0.3858 0.38668 0.0
H704 H 0.12161 0.00418 0.49694 0.0
H705 H 0.24346 0.0404 0.45221 0.0
H706 H 0.14654 0.97216 0.43809 0.0
H707 H 0.22099 0.0713 0.51317 0.0
H708 H 0.20799 0.01507 0.44725 0.0
H709 H 0.15811 0.0283 0.50407 0.0
C710 C 0.13481 0.00207 0.48565 0.0
C711 C 0.13094 0.98617 0.46681 0.0
C712 C 0.21078 0.02737 0.46173 0.0
C713 C 0.17263 0.01383 0.47475 0.0
C714 C 0.23104 0.04192 0.46454 0.0
C715 C 0.23523 0.05807 0.48312 0.0
C716 C 0.19448 0.02893 0.47758 0.0
C717 C 0.21849 0.05915 0.49857 0.0
C718 C 0.15561 0.0159 0.48969 0.0
C719 C 0.14867 0.98421 0.45276 0.0
N720 N 0.19883 0.04478 0.49543 0.0
N721 N 0.16865 -0.00206 0.45695 0.0
H722 H 0.69808 0.10761 0.72183 0.0
H723 H 0.63137 0.05278 0.82388 0.0
H724 H 0.69631 0.14034 0.78954 0.0
H725 H 0.6388 0.01791 0.75878 0.0
H726 H 0.65154 0.08644 0.80992 0.0
H727 H 0.67258 0.07618 0.73331 0.0
C728 C 0.69216 0.10831 0.73902 0.0
C729 C 0.69952 0.12658 0.75481 0.0
C730 C 0.64866 0.07145 0.79865 0.0
C731 C 0.67041 0.09056 0.76813 0.0
C732 C 0.63712 0.05222 0.8066 0.0
C733 C 0.63353 0.03242 0.79256 0.0
C734 C 0.65664 0.07092 0.77647 0.0
C735 C 0.64131 0.03273 0.77029 0.0
C736 C 0.67764 0.0903 0.7456 0.0
C737 C 0.69122 0.12655 0.77684 0.0
N738 N 0.65257 0.05163 0.76298 0.0
N739 N 0.67724 0.10877 0.78289 0.0
H740 H 0.43365 -0.00342 0.55688 0.0
H741 H 0.32821 0.06743 0.56566 0.0
H742 H 0.38126 0.9809 0.60255 0.0
H743 H 0.37032 0.07013 0.50875 0.0
H744 H 0.35262 0.04168 0.58522 0.0
H745 H 0.41541 0.02924 0.54479 0.0
C746 C 0.4184 8e-05 0.5645 0.0
C747 C 0.4088 0.9858 0.58052 0.0
C748 C 0.35668 0.04821 0.56862 0.0
C749 C 0.38786 0.02325 0.56679 0.0
C750 C 0.34289 0.06302 0.55756 0.0
C751 C 0.34712 0.07069 0.53544 0.0
C752 C 0.3749 0.04129 0.55754 0.0
C753 C 0.36629 0.06438 0.52566 0.0
C754 C 0.40799 0.01874 0.55759 0.0
C755 C 0.3891 -0.00869 0.58995 0.0
N756 N 0.37935 0.04993 0.53668 0.0
N757 N 0.37919 0.00953 0.58282 0.0
H758 H 0.61344 0.46494 0.54363 0.0
H759 H 0.67317 0.3838 0.46329 0.0
H760 H 0.58424 0.44199 0.47345 0.0
H761 H 0.68849 0.39025 0.53878 0.0
H762 H 0.64289 0.40794 0.46565 0.0
H763 H 0.64379 0.44092 0.54101 0.0
C764 C 0.61349 0.45499 0.5276 0.0
C765 C 0.59623 0.45549 0.50873 0.0
C766 C 0.65282 0.404 0.4817 0.0
C767 C 0.63096 0.42793 0.50564 0.0
C768 C 0.67013 0.39022 0.48038 0.0
C769 C 0.68339 0.38493 0.50088 0.0
C770 C 0.64891 0.41285 0.50365 0.0
C771 C 0.67864 0.39377 0.52253 0.0
C772 C 0.63075 0.44117 0.52618 0.0
C773 C 0.59715 0.44211 0.48844 0.0
N774 N 0.66191 0.4074 0.52333 0.0
N775 N 0.61424 0.42894 0.48741 0.0
H776 H 0.7697 0.25571 0.34465 0.0
H777 H 0.71129 0.31241 0.44751 0.0
H778 H 0.69621 0.25209 0.34342 0.0
H779 H 0.78299 0.30338 0.4502 0.0
H780 H 0.70472 0.29383 0.40795 0.0
H781 H 0.77429 0.27688 0.38195 0.0
C782 C 0.75447 0.25947 0.35217 0.0
C783 C 0.73253 0.25224 0.3407 0.0
C784 C 0.72184 0.29601 0.41731 0.0
C785 C 0.73765 0.27653 0.38381 0.0
C786 C 0.7256 0.30662 0.43982 0.0
C787 C 0.74768 0.30933 0.45232 0.0
C788 C 0.74037 0.28835 0.40728 0.0
C789 C 0.76561 0.30154 0.44147 0.0
C790 C 0.7571 0.27161 0.37353 0.0
C791 C 0.71345 0.25774 0.35132 0.0
N792 N 0.76155 0.29149 0.41972 0.0
N793 N 0.71643 0.26951 0.37236 0.0
H794 H 0.47319 0.00576 0.96852 0.0
H795 H 0.5715 0.02445 0.88323 0.0
H796 H 0.50952 0.07022 0.95884 0.0
H797 H 0.54039 0.9599 0.90052 0.0
H798 H 0.54888 0.04183 0.91045 0.0
H799 H 0.49755 -0.01115 0.9431 0.0
C800 C 0.48632 0.01637 0.9611 0.0
C801 C 0.48926 0.03946 0.96581 0.0
C802 C 0.54711 0.02386 0.90831 0.0
C803 C 0.51723 0.02019 0.93657 0.0
C804 C 0.56001 0.01393 0.89278 0.0
C805 C 0.55783 -0.00932 0.88952 0.0
C806 C 0.53186 0.01042 0.92055 0.0
C807 C 0.54266 0.97789 0.90239 0.0
C808 C 0.50026 0.0067 0.94659 0.0
C809 C 0.50662 0.05235 0.9557 0.0
N810 N 0.53023 -0.01208 0.91723 0.0
N811 N 0.51989 0.04255 0.94149 0.0
H812 H 0.33951 0.25188 0.39336 0.0
H813 H 0.28508 0.1739 0.48753 0.0
H814 H 0.27695 0.26238 0.42222 0.0
H815 H 0.32808 0.15024 0.43831 0.0
H816 H 0.28742 0.20979 0.46901 0.0
H817 H 0.34087 0.21763 0.41503 0.0
C818 C 0.32619 0.24709 0.40437 0.0
C819 C 0.30802 0.25992 0.40589 0.0
C820 C 0.29642 0.19675 0.46236 0.0
C821 C 0.3096 0.22106 0.43075 0.0
C822 C 0.29518 0.17631 0.47297 0.0
C823 C 0.30628 0.15901 0.46434 0.0
C824 C 0.30913 0.20003 0.44322 0.0
C825 C 0.31909 0.16307 0.44538 0.0
C826 C 0.32693 0.22754 0.41663 0.0
C827 C 0.29118 0.25292 0.42039 0.0
N828 N 0.32019 0.18319 0.43545 0.0
N829 N 0.2924 0.234 0.43228 0.0
H830 H 0.48953 0.45903 0.90026 0.0
H831 H 0.42176 0.49834 0.78291 0.0
H832 H 0.52247 0.47857 0.83933 0.0
H833 H 0.39208 0.48848 0.84785 0.0
H834 H 0.45849 0.48974 0.80251 0.0
H835 H 0.45311 0.46773 0.88031 0.0
C836 C 0.4891 0.46504 0.88264 0.0
C837 C 0.5091 0.46812 0.87147 0.0
C838 C 0.44394 0.48955 0.81247 0.0
C839 C 0.46744 0.4782 0.84855 0.0
C840 C 0.42298 0.49449 0.8013 0.0
C841 C 0.40378 0.49413 0.81373 0.0
C842 C 0.44567 0.48406 0.83618 0.0
C843 C 0.40638 0.48899 0.83753 0.0
C844 C 0.4683 0.4701 0.87129 0.0
C845 C 0.50748 0.47599 0.84864 0.0
N846 N 0.42689 0.48408 0.84793 0.0
N847 N 0.48702 0.48077 0.83793 0.0
H848 H 0.76214 0.68683 0.18794 0.0
H849 H 0.75559 0.65717 0.05 0.0
H850 H 0.71556 0.71314 0.1354 0.0
H851 H 0.79634 0.62475 0.1028 0.0
H852 H 0.74168 0.67862 0.08104 0.0
H853 H 0.77582 0.66483 0.15703 0.0
C854 C 0.75479 0.688 0.16991 0.0
C855 C 0.73767 0.70187 0.16426 0.0
C856 C 0.75363 0.6668 0.08587 0.0
C857 C 0.7533 0.67673 0.12877 0.0
C858 C 0.76162 0.65453 0.06813 0.0
C859 C 0.7772 0.63911 0.07377 0.0
C860 C 0.76131 0.66375 0.10949 0.0
C861 C 0.78435 0.63643 0.09761 0.0
C862 C 0.76259 0.67539 0.15227 0.0
C863 C 0.72876 0.70267 0.14059 0.0
N864 N 0.77639 0.64866 0.11458 0.0
N865 N 0.73671 0.69032 0.12373 0.0
H866 H 0.97912 0.05888 0.1405 0.0
H867 H 0.8811 0.97816 0.19161 0.0
H868 H 0.94921 -0.00372 0.10584 0.0
H869 H 0.91641 0.03799 0.22797 0.0
H870 H 0.90497 0.98457 0.15955 0.0
H871 H 0.95566 0.05143 0.17234 0.0
C872 C 0.96767 0.0435 0.13959 0.0
C873 C 0.96616 0.0282 0.1204 0.0
C874 C 0.90747 -0.00373 0.17456 0.0
C875 C 0.93899 0.01958 0.15693 0.0
C876 C 0.8938 -0.00734 0.19284 0.0
C877 C 0.89672 0.00756 0.21254 0.0
C878 C 0.92412 0.01496 0.17595 0.0
C879 C 0.91351 0.02603 0.21318 0.0
C880 C 0.95423 0.03925 0.15783 0.0
C881 C 0.95098 0.00854 0.12029 0.0
N882 N 0.92651 0.02919 0.19519 0.0
N883 N 0.93792 0.00483 0.13824 0.0
H884 H 0.23002 0.783 0.1907 0.0
H885 H 0.2641 0.78912 0.06023 0.0
H886 H 0.25418 0.72897 0.1533 0.0
H887 H 0.2219 0.83525 0.08745 0.0
H888 H 0.26229 0.76836 0.09561 0.0
H889 H 0.22846 0.80378 0.15456 0.0
C890 C 0.23496 0.77549 0.17492 0.0
C891 C 0.24233 0.75422 0.17507 0.0
C892 C 0.2533 0.78294 0.0939 0.0
C893 C 0.24066 0.77792 0.13381 0.0
C894 C 0.25439 0.79491 0.07368 0.0
C895 C 0.24319 0.81405 0.07086 0.0
C896 C 0.24115 0.79019 0.11179 0.0
C897 C 0.23074 0.82057 0.08888 0.0
C898 C 0.23397 0.78733 0.1543 0.0
C899 C 0.24842 0.74529 0.15408 0.0
N900 N 0.2302 0.80875 0.10873 0.0
N901 N 0.24758 0.75722 0.13442 0.0
H902 H -0.00609 0.46305 0.14959 0.0
H903 H 0.02729 0.40653 0.2709 0.0
H904 H 0.97871 0.39297 0.16069 0.0
H905 H 0.05216 0.47427 0.25752 0.0
H906 H 0.00744 0.40213 0.23118 0.0
H907 H 0.01331 0.46834 0.18975 0.0
C908 C -0.00542 0.44879 0.16047 0.0
C909 C 0.98469 0.42752 0.15173 0.0
C910 C 0.01725 0.41796 0.23688 0.0
C911 C 0.00684 0.43348 0.19763 0.0
C912 C 0.02859 0.42052 0.25962 0.0
C913 C 0.04146 0.44081 0.26758 0.0
C914 C 0.01865 0.43585 0.22194 0.0
C915 C 0.0425 0.45831 0.2521 0.0
C916 C 0.00571 0.45183 0.18336 0.0
C917 C -0.01388 0.40966 0.16662 0.0
N918 N 0.0312 0.45544 0.23001 0.0
N919 N -0.00303 0.41306 0.18881 0.0
H920 H 0.32863 0.73716 0.26531 0.0
H921 H 0.41859 0.69144 0.36183 0.0
H922 H 0.31417 0.67626 0.30086 0.0
H923 H 0.43363 0.75005 0.32276 0.0
H924 H 0.38094 0.68437 0.33839 0.0
H925 H 0.36777 0.74126 0.28524 0.0
C926 C 0.33367 0.72461 0.27725 0.0
C927 C 0.318 0.70639 0.28146 0.0
C928 C 0.39258 0.69867 0.33486 0.0
C929 C 0.36286 0.71098 0.30441 0.0
C930 C 0.41412 0.70268 0.34818 0.0
C931 C 0.42928 0.72146 0.34441 0.0
C932 C 0.38618 0.71361 0.3177 0.0
C933 C 0.42251 0.73546 0.32647 0.0
C934 C 0.35607 0.72695 0.28861 0.0
C935 C 0.32559 0.69062 0.29709 0.0
N936 N 0.40145 0.73132 0.31394 0.0
N937 N 0.34743 0.69334 0.30805 0.0
H938 H 0.96812 0.31185 0.04904 0.0
H939 H 0.97202 0.30983 0.90993 0.0
H940 H 0.9533 0.36652 0.00558 0.0
H941 H 0.98366 0.25348 0.95207 0.0
H942 H 0.96505 0.33063 0.94493 0.0
H943 H 0.97351 0.29001 0.01391 0.0
C944 C 0.9659 0.31925 0.0321 0.0
C945 C 0.9603 0.3411 0.03027 0.0
C946 C 0.9691 0.31372 0.94657 0.0
C947 C 0.96656 0.31617 -0.01001 0.0
C948 C 0.97314 0.3018 0.92656 0.0
C949 C 0.97849 0.27983 0.92802 0.0
C950 C 0.97045 0.30371 0.96834 0.0
C951 C 0.97962 0.27036 0.9501 0.0
C952 C 0.96901 0.30675 0.01205 0.0
C953 C 0.95763 0.34977 0.00786 0.0
N954 N 0.97567 0.28237 0.96941 0.0
N955 N 0.96086 0.33731 0.98863 0.0
H956 H 0.6658 0.76693 0.33994 0.0
H957 H 0.54398 0.70155 0.35775 0.0
H958 H 0.63112 0.71606 0.28967 0.0
H959 H 0.56633 0.76956 0.38182 0.0
H960 H 0.58027 0.70046 0.34042 0.0
H961 H 0.63381 0.76136 0.36337 0.0
C962 C 0.6516 0.75437 0.33394 0.0
C963 C 0.65101 0.74217 0.31259 0.0
C964 C 0.57726 0.71546 0.34982 0.0
C965 C 0.61434 0.73568 0.33952 0.0
C966 C 0.55673 0.71604 0.35981 0.0
C967 C 0.55222 0.73572 0.37106 0.0
C968 C 0.59344 0.73453 0.35168 0.0
C969 C 0.56912 0.75413 0.37312 0.0
C970 C 0.63332 0.75125 0.34733 0.0
C971 C 0.63217 0.72601 0.30588 0.0
N972 N 0.58896 0.75309 0.36352 0.0
N973 N 0.61445 0.72331 0.31924 0.0
H974 H 0.04255 0.06481 0.97428 0.0
H975 H 0.98022 0.17105 0.93517 0.0
H976 H -0.01314 0.08779 0.00743 0.0
H977 H 0.03364 0.14711 0.89915 0.0
H978 H 0.98278 0.14063 0.96191 0.0
H979 H 0.04002 0.09485 0.94677 0.0
C980 C 0.02981 0.07613 0.97581 0.0
C981 C 0.01491 0.07369 -0.00674 0.0
C982 C -0.00607 0.14198 0.94814 0.0
C983 C 0.01192 0.10815 0.96181 0.0
C984 C -0.00753 0.15938 0.93283 0.0
C985 C 0.00673 0.1617 0.91483 0.0
C986 C 0.00982 0.12672 0.94556 0.0
C987 C 0.02227 0.146 0.91273 0.0
C988 C 0.02836 0.09328 0.96007 0.0
C989 C -0.00127 0.08892 -0.00568 0.0
N990 N 0.02343 0.12923 0.92791 0.0
N991 N -0.0023 0.10543 0.97888 0.0
H992 H 0.36672 0.35784 0.30295 0.0
H993 H 0.42536 0.29063 0.21256 0.0
H994 H 0.34695 0.28718 0.29157 0.0
H995 H 0.3929 0.34745 0.18869 0.0
H996 H 0.40694 0.29241 0.24881 0.0
H997 H 0.38664 0.35757 0.2674 0.0
C998 C 0.36676 0.34229 0.29306 0.0
C999 C 0.3552 0.3225 0.30001 0.0
C1000 C 0.40408 0.30455 0.23565 0.0
C1001 C 0.37819 0.32206 0.26019 0.0
C1002 C 0.41461 0.30365 0.21512 0.0
C1003 C 0.41054 0.31892 0.1977 0.0
C1004 C 0.39003 0.32123 0.23901 0.0
C1005 C 0.39632 0.33535 0.20172 0.0
C1006 C 0.37796 0.3422 0.27286 0.0
C1007 C 0.35558 0.30278 0.28663 0.0
N1008 N 0.38668 0.33622 0.22214 0.0
N1009 N 0.36715 0.30299 0.26744 0.0
H1010 H 0.5052 0.44594 0.02533 0.0
H1011 H 0.50715 0.34286 0.10905 0.0
H1012 H 0.55429 0.39846 0.02362 0.0
H1013 H 0.44679 0.37536 0.09022 0.0
H1014 H 0.5283 0.36781 0.08404 0.0
H1015 H 0.48733 0.42478 0.05548 0.0
C1016 C 0.51238 0.4312 0.03146 0.0
C1017 C 0.53117 0.42386 0.02182 0.0
C1018 C 0.51047 0.36955 0.08556 0.0
C1019 C 0.51084 0.39966 0.05635 0.0
C1020 C 0.49843 0.35541 0.09991 0.0
C1021 C 0.47512 0.35694 0.10159 0.0
C1022 C 0.49921 0.38551 0.0731 0.0
C1023 C 0.46467 0.37348 0.08928 0.0
C1024 C 0.50211 0.4191 0.0486 0.0
C1025 C 0.53972 0.40462 0.03044 0.0
N1026 N 0.47678 0.3871 0.07555 0.0
N1027 N 0.52947 0.39316 0.04721 0.0
H1028 H 0.61054 0.27874 0.27642 0.0
H1029 H 0.53768 0.26199 0.14914 0.0
H1030 H 0.62964 0.24018 0.2186 0.0
H1031 H 0.5168 0.29864 0.20735 0.0
H1032 H 0.57161 0.25406 0.1744 0.0
H1033 H 0.57616 0.28641 0.25148 0.0
C1034 C 0.60751 0.27188 0.2585 0.0
C1035 C 0.62302 0.25882 0.24959 0.0
C1036 C 0.55961 0.26383 0.18167 0.0
C1037 C 0.58375 0.26754 0.22096 0.0
C1038 C 0.54022 0.26839 0.16723 0.0
C1039 C 0.52436 0.28103 0.17611 0.0
C1040 C 0.56323 0.27199 0.20519 0.0
C1041 C 0.52857 0.28884 0.19973 0.0
C1042 C 0.58788 0.27625 0.24428 0.0
C1043 C 0.61819 0.25034 0.22624 0.0
N1044 N 0.5476 0.28421 0.21343 0.0
N1045 N 0.59902 0.25487 0.21276 0.0
H1046 H 0.45494 0.13667 0.07124 0.0
H1047 H 0.39869 0.25022 0.08104 0.0
H1048 H 0.40238 0.15536 0.01959 0.0
H1049 H 0.45716 0.23447 0.127 0.0
H1050 H 0.39613 0.21341 0.06133 0.0
H1051 H 0.45202 0.17014 0.09499 0.0
C1052 C 0.44263 0.14771 0.06497 0.0
C1053 C 0.42907 0.14332 0.04323 0.0
C1054 C 0.40942 0.21799 0.07583 0.0
C1055 C 0.42574 0.1818 0.07034 0.0
C1056 C 0.41088 0.23899 0.08711 0.0
C1057 C 0.4283 0.24554 0.10557 0.0
C1058 C 0.42543 0.20343 0.08311 0.0
C1059 C 0.44356 0.23024 0.11273 0.0
C1060 C 0.441 0.16686 0.07854 0.0
C1061 C 0.4133 0.15816 0.03613 0.0
N1062 N 0.44183 0.20997 0.10142 0.0
N1063 N 0.4122 0.17685 0.04956 0.0
H1064 H 0.25027 0.33116 0.77138 0.0
H1065 H 0.31442 0.43913 0.72036 0.0
H1066 H 0.25321 0.33613 0.69675 0.0
H1067 H 0.28837 0.43682 0.78782 0.0
H1068 H 0.29593 0.40076 0.71102 0.0
H1069 H 0.26937 0.36884 0.77776 0.0
C1070 C 0.25503 0.34012 0.75627 0.0
C1071 C 0.24992 0.33043 0.73345 0.0
C1072 C 0.29425 0.40884 0.72777 0.0
C1073 C 0.27187 0.37401 0.74072 0.0
C1074 C 0.30473 0.4307 0.73309 0.0
C1075 C 0.30308 0.44124 0.75496 0.0
C1076 C 0.28236 0.3975 0.74458 0.0
C1077 C 0.2903 0.42948 0.77079 0.0
C1078 C 0.26587 0.36176 0.75994 0.0
C1079 C 0.25672 0.34298 0.71464 0.0
N1080 N 0.28065 0.40831 0.76535 0.0
N1081 N 0.26734 0.3642 0.71868 0.0
H1082 H 0.31025 0.68022 0.76345 0.0
H1083 H 0.28883 0.55414 0.79868 0.0
H1084 H 0.24706 0.6515 0.78722 0.0
H1085 H 0.33792 0.57559 0.75124 0.0
H1086 H 0.27561 0.59084 0.79799 0.0
H1087 H 0.32316 0.64315 0.76237 0.0
C1088 C 0.29913 0.66615 0.76853 0.0
C1089 C 0.27754 0.66895 0.77547 0.0
C1090 C 0.28919 0.58751 0.78763 0.0
C1091 C 0.29225 0.62663 0.77434 0.0
C1092 C 0.29681 0.56657 0.78805 0.0
C1093 C 0.31453 0.56179 0.775 0.0
C1094 C 0.29959 0.60401 0.77436 0.0
C1095 C 0.32415 0.57855 0.76148 0.0
C1096 C 0.30646 0.64501 0.76777 0.0
C1097 C 0.26381 0.65012 0.78173 0.0
N1098 N 0.31669 0.59902 0.76167 0.0
N1099 N 0.27144 0.6298 0.78115 0.0
H1100 H 0.86723 0.49813 0.48399 0.0
H1101 H 0.78501 0.4159 0.55056 0.0
H1102 H 0.87644 0.49897 0.55979 0.0
H1103 H 0.81881 0.39333 0.4929 0.0
H1104 H 0.80844 0.45249 0.55081 0.0
H1105 H 0.83847 0.46552 0.4836 0.0
C1106 C 0.86289 0.49171 0.50055 0.0
C1107 C 0.87432 0.5011 0.52196 0.0
C1108 C 0.81045 0.43949 0.53803 0.0
C1109 C 0.8413 0.46424 0.52156 0.0
C1110 C 0.79713 0.4188 0.53782 0.0
C1111 C 0.80022 0.40174 0.52177 0.0
C1112 C 0.8262 0.44313 0.52155 0.0
C1113 C 0.81613 0.4061 0.50564 0.0
C1114 C 0.84659 0.47312 0.50028 0.0
C1115 C 0.86812 0.49206 0.54292 0.0
N1116 N 0.82844 0.42645 0.50581 0.0
N1117 N 0.85196 0.47406 0.54223 0.0
H1118 H 0.75096 0.90147 0.92952 0.0
H1119 H 0.67281 0.95847 0.83185 0.0
H1120 H 0.76331 0.89897 0.85668 0.0
H1121 H 0.6479 0.92729 0.89215 0.0
H1122 H 0.71076 0.94632 0.84361 0.0
H1123 H 0.7181 0.92158 0.91891 0.0
C1124 C 0.747 0.90542 0.91133 0.0
C1125 C 0.7597 0.89819 0.8939 0.0
C1126 C 0.69696 0.94238 0.85428 0.0
C1127 C 0.72211 0.92129 0.88172 0.0
C1128 C 0.67543 0.94933 0.84767 0.0
C1129 C 0.65726 0.94367 0.86099 0.0
C1130 C 0.70029 0.93029 0.87464 0.0
C1131 C 0.66142 0.93177 0.88128 0.0
C1132 C 0.72818 0.91684 0.90531 0.0
C1133 C 0.7538 0.904 0.87063 0.0
N1134 N 0.6825 0.92554 0.88752 0.0
N1135 N 0.73527 0.9151 0.86515 0.0
H1136 H 0.62618 0.50533 -0.0058 0.0
H1137 H 0.74013 0.55023 0.93836 0.0
H1138 H 0.64234 0.48324 0.92626 0.0
H1139 H 0.7236 0.5753 0.00501 0.0
H1140 H 0.70487 0.52462 0.93453 0.0
H1141 H 0.66262 0.52967 -0.00032 0.0
C1142 C 0.63745 0.50543 0.98053 0.0
C1143 C 0.63112 0.49228 0.95968 0.0
C1144 C 0.70891 0.53572 0.95 0.0
C1145 C 0.6727 0.52019 0.96577 0.0
C1146 C 0.72906 0.55042 0.95218 0.0
C1147 C 0.73485 0.56501 0.97202 0.0
C1148 C 0.69437 0.53552 0.96779 0.0
C1149 C 0.7198 0.56441 -0.01063 0.0
C1150 C 0.6582 0.5194 0.98363 0.0
C1151 C 0.64641 0.49314 0.94257 0.0
N1152 N 0.70025 0.54989 0.98686 0.0
N1153 N 0.6664 0.5069 0.94596 0.0
H1154 H 0.17922 0.62471 0.24833 0.0
H1155 H 0.13203 0.53563 0.33694 0.0
H1156 H 0.20248 0.62637 0.32258 0.0
H1157 H 0.10919 0.53241 0.26253 0.0
H1158 H 0.15619 0.57025 0.33221 0.0
H1159 H 0.15158 0.59238 0.25341 0.0
C1160 C 0.17841 0.61839 0.26572 0.0
C1161 C 0.19329 0.6282 0.28503 0.0
C1162 C 0.14584 0.56204 0.31691 0.0
C1163 C 0.16181 0.59117 0.29094 0.0
C1164 C 0.13202 0.54223 0.3196 0.0
C1165 C 0.11863 0.531 0.30008 0.0
C1166 C 0.14635 0.57075 0.29453 0.0
C1167 C 0.1193 0.54044 0.27806 0.0
C1168 C 0.16266 0.59991 0.26859 0.0
C1169 C 0.19145 0.61932 0.30715 0.0
N1170 N 0.13299 0.55972 0.27587 0.0
N1171 N 0.1761 0.60127 0.30947 0.0
H1172 H 0.88797 0.48481 0.0817 0.0
H1173 H 0.8709 0.57817 -0.00966 0.0
H1174 H 0.93974 0.50813 0.03785 0.0
H1175 H 0.83139 0.57071 0.04908 0.0
H1176 H 0.89679 0.55313 0.00808 0.0
H1177 H 0.86709 0.51625 0.07054 0.0
C1178 C 0.89501 0.49661 0.06983 0.0
C1179 C 0.91552 0.49372 0.0605 0.0
C1180 C 0.88268 0.55721 0.0173 0.0
C1181 C 0.89167 0.52963 0.04762 0.0
C1182 C 0.86789 0.57149 0.00717 0.0
C1183 C 0.8489 0.57638 0.0182 0.0
C1184 C 0.8782 0.54733 0.03838 0.0
C1185 C 0.84585 0.56737 0.04003 0.0
C1186 C 0.88314 0.5146 0.06358 0.0
C1187 C 0.92394 0.50962 0.04536 0.0
N1188 N 0.86013 0.55293 0.04924 0.0
N1189 N 0.91184 0.52673 0.03918 0.0
H1190 H 0.07307 0.94921 0.00545 0.0
H1191 H 0.20088 0.93178 0.05898 0.0
H1192 H 0.1144 -0.00638 0.0581 0.0
H1193 H 0.16071 0.88793 0.00502 0.0
H1194 H 0.16917 0.9543 0.05908 0.0
H1195 H 0.10475 0.9265 0.005 0.0
C1196 C 0.08882 0.95425 0.01687 0.0
C1197 C 0.09103 0.9734 0.03184 0.0
C1198 C 0.16724 0.93975 0.04722 0.0
C1199 C 0.12742 0.94734 0.03148 0.0
C1200 C 0.18537 0.92682 0.04717 0.0
C1201 C 0.18353 0.90788 0.03196 0.0
C1202 C 0.14699 0.93378 0.03194 0.0
C1203 C 0.16294 0.90237 0.01706 0.0
C1204 C 0.10691 0.94123 0.01662 0.0
C1205 C 0.11188 0.97904 0.04626 0.0
N1206 N 0.14551 0.91525 0.01742 0.0
N1207 N 0.1292 0.96607 0.04574 0.0
loop_
_geom_bond_atom_site_label_1
_geom_bond_atom_site_label_2
_geom_bond_distance
_geom_bond_site_symmetry_2
_ccdc_geom_bond_type
O0 Cd1 2.300 . S
O0 C7 1.275 . S
Cd1 O0 2.300 . S
Cd1 O9 2.381 . S
Cd1 O10 2.378 . S
O2 Cd3 2.385 . S
O2 C7 1.255 . S
Cd3 O2 2.385 . S
Cd3 O4 2.317 . S
O4 Cd3 2.317 . S
O4 C5 1.232 1_455 S
C5 O4 1.232 1_655 S
C5 O6 1.218 . S
O6 C5 1.218 . S
C7 O0 1.275 . S
C7 O2 1.255 . S
C8 O9 1.232 1_565 S
C8 O10 1.247 1_565 S
O9 Cd1 2.381 . S
O9 C8 1.232 1_545 S
O10 Cd1 2.378 . S
O10 C8 1.247 1_545 S
O11 Cd12 2.300 . S
O11 C18 1.275 . S
Cd12 O11 2.300 . S
Cd12 O20 2.381 . S
Cd12 O21 2.378 . S
O13 Cd14 2.385 . S
O13 C18 1.255 . S
Cd14 O13 2.385 . S
Cd14 O15 2.317 . S
O15 Cd14 2.317 . S
O15 C16 1.232 . S
C16 O15 1.232 . S
C16 O17 1.218 . S
O17 C16 1.218 . S
C18 O11 1.275 . S
C18 O13 1.255 . S
C19 O20 1.258 . S
C19 O21 1.256 . S
O20 Cd12 2.381 . S
O20 C19 1.258 . S
O21 Cd12 2.378 . S
O21 C19 1.256 . S
O22 Cd23 2.300 . S
O22 C29 1.275 . S
Cd23 O22 2.300 . S
Cd23 O31 2.381 . S
Cd23 O32 2.378 . S
O24 Cd25 2.385 . S
O24 C29 1.255 . S
Cd25 O24 2.385 . S
Cd25 O26 2.317 . S
O26 Cd25 2.317 . S
O26 C27 1.232 . S
C27 O26 1.232 . S
C27 O28 1.218 . S
O28 C27 1.218 . S
C29 O22 1.275 . S
C29 O24 1.255 . S
C30 O31 1.258 . S
C30 O32 1.256 . S
O31 Cd23 2.381 . S
O31 C30 1.258 . S
O32 Cd23 2.378 . S
O32 C30 1.256 . S
O33 Cd34 2.300 . S
O33 C40 1.275 . S
Cd34 O33 2.300 . S
Cd34 O42 2.381 . S
Cd34 O43 2.378 . S
O35 Cd36 2.385 . S
O35 C40 1.255 . S
Cd36 O35 2.385 . S
Cd36 O37 2.317 . S
O37 Cd36 2.317 . S
O37 C38 1.232 . S
C38 O37 1.232 . S
C38 O39 1.218 . S
O39 C38 1.218 . S
C40 O33 1.275 . S
C40 O35 1.255 . S
C41 O42 1.258 . S
C41 O43 1.256 . S
O42 Cd34 2.381 . S
O42 C41 1.258 . S
O43 Cd34 2.378 . S
O43 C41 1.256 . S
O44 Cd45 2.300 . S
O44 C51 1.275 . S
Cd45 O44 2.300 . S
Cd45 O53 2.381 . S
Cd45 O54 2.378 . S
O46 Cd47 2.377 1_565 S
O46 C51 1.255 . S
Cd47 O46 2.377 1_545 S
Cd47 O48 2.304 1_545 S
O48 Cd47 2.304 1_565 S
O48 C49 1.232 . S
C49 O48 1.232 . S
C49 O50 1.218 1_565 S
O50 C49 1.218 1_545 S
C51 O44 1.275 . S
C51 O46 1.255 . S
C52 O53 1.258 . S
C52 O54 1.256 . S
O53 Cd45 2.381 . S
O53 C52 1.258 . S
O54 Cd45 2.378 . S
O54 C52 1.256 . S
O55 Cd56 2.300 . S
O55 C62 1.275 . S
Cd56 O55 2.300 . S
Cd56 O64 2.381 . S
Cd56 O65 2.378 . S
O57 Cd58 2.385 . S
O57 C62 1.255 . S
Cd58 O57 2.385 . S
Cd58 O59 2.317 . S
O59 Cd58 2.317 . S
O59 C60 1.232 . S
C60 O59 1.232 . S
C60 O61 1.218 . S
O61 C60 1.218 . S
C62 O55 1.275 . S
C62 O57 1.255 . S
C63 O64 1.258 . S
C63 O65 1.256 . S
O64 Cd56 2.381 . S
O64 C63 1.258 . S
O65 Cd56 2.378 . S
O65 C63 1.256 . S
O66 Cd67 2.300 . S
O66 C73 1.275 . S
Cd67 O66 2.300 . S
Cd67 O75 2.381 . S
Cd67 O76 2.378 . S
O68 Cd69 2.385 1_655 S
O68 C73 1.255 . S
Cd69 O68 2.385 1_455 S
Cd69 O70 2.317 1_455 S
O70 Cd69 2.317 1_655 S
O70 C71 1.232 . S
C71 O70 1.232 . S
C71 O72 1.218 1_655 S
O72 C71 1.218 1_455 S
C73 O66 1.275 . S
C73 O68 1.255 . S
C74 O75 1.258 . S
C74 O76 1.256 . S
O75 Cd67 2.381 . S
O75 C74 1.258 . S
O76 Cd67 2.378 . S
O76 C74 1.256 . S
O77 Cd78 2.300 . S
O77 C84 1.275 . S
Cd78 O77 2.300 . S
Cd78 O86 2.381 . S
Cd78 O87 2.378 . S
O79 Cd80 2.385 . S
O79 C84 1.255 . S
Cd80 O79 2.385 . S
Cd80 O81 2.317 . S
O81 Cd80 2.317 . S
O81 C82 1.232 . S
C82 O81 1.232 . S
C82 O83 1.218 . S
O83 C82 1.218 . S
C84 O77 1.275 . S
C84 O79 1.255 . S
C85 O86 1.258 . S
C85 O87 1.256 . S
O86 Cd78 2.381 . S
O86 C85 1.258 . S
O87 Cd78 2.378 . S
O87 C85 1.256 . S
O88 Cd89 2.300 . S
O88 C95 1.275 . S
Cd89 O88 2.300 . S
Cd89 O97 2.381 . S
Cd89 O98 2.378 . S
O90 Cd91 2.385 . S
O90 C95 1.255 . S
Cd91 O90 2.385 . S
Cd91 O92 2.317 . S
O92 Cd91 2.317 . S
O92 C93 1.232 . S
C93 O92 1.232 . S
C93 O94 1.218 . S
O94 C93 1.218 . S
C95 O88 1.275 . S
C95 O90 1.255 . S
C96 O97 1.258 . S
C96 O98 1.256 . S
O97 Cd89 2.381 . S
O97 C96 1.258 . S
O98 Cd89 2.378 . S
O98 C96 1.256 . S
O99 Cd100 2.300 . S
O99 C106 1.275 . S
Cd100 O99 2.300 . S
Cd100 O108 2.381 1_565 S
Cd100 O109 2.378 1_565 S
O101 Cd102 2.385 . S
O101 C106 1.255 . S
Cd102 O101 2.385 . S
Cd102 O103 2.317 . S
O103 Cd102 2.317 . S
O103 C104 1.232 . S
C104 O103 1.232 . S
C104 O105 1.218 . S
O105 C104 1.218 . S
C106 O99 1.275 . S
C106 O101 1.255 . S
C107 O108 1.258 . S
C107 O109 1.256 . S
O108 Cd100 2.381 1_545 S
O108 C107 1.258 . S
O109 Cd100 2.378 1_545 S
O109 C107 1.256 . S
O110 Cd111 2.300 . S
O110 C117 1.275 . S
Cd111 O110 2.300 . S
Cd111 O119 2.381 . S
Cd111 O120 2.378 . S
O112 Cd113 2.385 . S
O112 C117 1.255 . S
Cd113 O112 2.385 . S
Cd113 O114 2.317 . S
O114 Cd113 2.317 . S
O114 C115 1.232 . S
C115 O114 1.232 . S
C115 O116 1.218 . S
O116 C115 1.218 . S
C117 O110 1.275 . S
C117 O112 1.255 . S
C118 O119 1.258 . S
C118 O120 1.256 . S
O119 Cd111 2.381 . S
O119 C118 1.258 . S
O120 Cd111 2.378 . S
O120 C118 1.256 . S
O121 Cd122 2.300 . S
O121 C128 1.275 . S
Cd122 O121 2.300 . S
Cd122 O130 2.381 . S
Cd122 O131 2.378 . S
O123 Cd124 2.385 . S
O123 C128 1.255 . S
Cd124 O123 2.385 . S
Cd124 O125 2.317 . S
O125 Cd124 2.317 . S
O125 C126 1.232 . S
C126 O125 1.232 . S
C126 O127 1.218 . S
O127 C126 1.218 . S
C128 O121 1.275 . S
C128 O123 1.255 . S
C129 O130 1.258 . S
C129 O131 1.256 . S
O130 Cd122 2.381 . S
O130 C129 1.258 . S
O131 Cd122 2.378 . S
O131 C129 1.256 . S
O132 Cd133 2.300 . S
O132 C139 1.275 . S
Cd133 O132 2.300 . S
Cd133 O141 2.381 . S
Cd133 O142 2.378 . S
O134 Cd135 2.385 . S
O134 C139 1.255 . S
Cd135 O134 2.385 . S
Cd135 O136 2.317 . S
O136 Cd135 2.317 . S
O136 C137 1.232 . S
C137 O136 1.232 . S
C137 O138 1.218 . S
O138 C137 1.218 . S
C139 O132 1.275 . S
C139 O134 1.255 . S
C140 O141 1.258 . S
C140 O142 1.256 . S
O141 Cd133 2.381 . S
O141 C140 1.258 . S
O142 Cd133 2.378 . S
O142 C140 1.256 . S
O143 Cd144 2.300 1_556 S
O143 C150 1.275 . S
Cd144 O143 2.300 1_554 S
Cd144 O152 2.381 . S
Cd144 O153 2.378 . S
O145 Cd146 2.385 . S
O145 C150 1.255 . S
Cd146 O145 2.385 . S
Cd146 O147 2.317 . S
O147 Cd146 2.317 . S
O147 C148 1.232 . S
C148 O147 1.232 . S
C148 O149 1.218 . S
O149 C148 1.218 . S
C150 O143 1.275 . S
C150 O145 1.255 . S
C151 O152 1.258 . S
C151 O153 1.256 . S
O152 Cd144 2.381 . S
O152 C151 1.258 . S
O153 Cd144 2.378 . S
O153 C151 1.256 . S
O154 Cd155 2.300 . S
O154 C161 1.275 . S
Cd155 O154 2.300 . S
Cd155 O163 2.381 . S
Cd155 O164 2.378 . S
O156 Cd157 2.385 . S
O156 C161 1.255 . S
Cd157 O156 2.385 . S
Cd157 O158 2.317 . S
O158 Cd157 2.317 . S
O158 C159 1.232 . S
C159 O158 1.232 . S
C159 O160 1.218 . S
O160 C159 1.218 . S
C161 O154 1.275 . S
C161 O156 1.255 . S
C162 O163 1.258 . S
C162 O164 1.256 . S
O163 Cd155 2.381 . S
O163 C162 1.258 . S
O164 Cd155 2.378 . S
O164 C162 1.256 . S
O165 Cd166 2.300 . S
O165 C172 1.275 . S
Cd166 O165 2.300 . S
Cd166 O174 2.381 . S
Cd166 O175 2.378 1_556 S
O167 Cd168 2.385 1_556 S
O167 C172 1.255 . S
Cd168 O167 2.385 1_554 S
Cd168 O169 2.317 . S
O169 Cd168 2.317 . S
O169 C170 1.232 . S
C170 O169 1.232 . S
C170 O171 1.218 . S
O171 C170 1.218 . S
C172 O165 1.275 . S
C172 O167 1.255 . S
C173 O174 1.258 . S
C173 O175 1.256 1_556 S
O174 Cd166 2.381 . S
O174 C173 1.258 . S
O175 Cd166 2.378 1_554 S
O175 C173 1.256 1_554 S
Zn176 O179 2.031 . S
Zn176 O181 2.049 . S
Zn176 O186 2.067 1_554 S
Zn177 O178 1.962 . S
Zn177 O180 1.986 . S
Zn177 O182 1.996 . S
Zn177 O185 1.943 1_554 S
O178 Zn177 1.962 . S
O178 C183 1.254 . S
O179 Zn176 2.031 . S
O179 C183 1.269 . S
O180 Zn177 1.986 . S
O180 C187 1.262 . S
O181 Zn176 2.049 . S
O181 C189 1.260 . S
O182 Zn177 1.996 . S
O182 C189 1.257 . S
C183 O178 1.254 . S
C183 O179 1.269 . S
C184 O185 1.249 . S
C184 O186 1.270 . S
O185 Zn177 1.943 1_556 S
O185 C184 1.249 . S
O186 Zn176 2.067 1_556 S
O186 C184 1.270 . S
C187 O180 1.262 . S
C187 O188 1.232 . S
O188 C187 1.232 . S
C189 O181 1.260 . S
C189 O182 1.257 . S
Zn190 O193 2.031 . S
Zn190 O195 2.049 . S
Zn190 O200 2.067 . S
Zn191 O192 1.962 . S
Zn191 O194 1.986 . S
Zn191 O196 1.996 . S
Zn191 O199 1.943 . S
O192 Zn191 1.962 . S
O192 C197 1.254 . S
O193 Zn190 2.031 . S
O193 C197 1.269 . S
O194 Zn191 1.986 . S
O194 C201 1.262 . S
O195 Zn190 2.049 . S
O195 C203 1.260 . S
O196 Zn191 1.996 . S
O196 C203 1.257 . S
C197 O192 1.254 . S
C197 O193 1.269 . S
C198 O199 1.249 . S
C198 O200 1.270 . S
O199 Zn191 1.943 . S
O199 C198 1.249 . S
O200 Zn190 2.067 . S
O200 C198 1.270 . S
C201 O194 1.262 . S
C201 O202 1.232 . S
O202 C201 1.232 . S
C203 O195 1.260 . S
C203 O196 1.257 . S
Zn204 O207 2.031 1_556 S
Zn204 O209 2.049 . S
Zn204 O214 2.067 . S
Zn205 O206 1.962 . S
Zn205 O208 1.986 . S
Zn205 O210 1.996 1_554 S
Zn205 O213 1.943 . S
O206 Zn205 1.962 . S
O206 C211 1.254 . S
O207 Zn204 2.031 1_554 S
O207 C211 1.269 . S
O208 Zn205 1.986 . S
O208 C215 1.262 . S
O209 Zn204 2.049 . S
O209 C217 1.260 . S
O210 Zn205 1.996 1_556 S
O210 C217 1.257 . S
C211 O206 1.254 . S
C211 O207 1.269 . S
C212 O213 1.249 . S
C212 O214 1.270 1_554 S
O213 Zn205 1.943 . S
O213 C212 1.249 . S
O214 Zn204 2.067 . S
O214 C212 1.270 1_556 S
C215 O208 1.262 . S
C215 O216 1.232 . S
O216 C215 1.232 . S
C217 O209 1.260 . S
C217 O210 1.257 . S
Zn218 O221 2.031 . S
Zn218 O223 2.074 . S
Zn218 O228 2.067 1_545 S
Zn219 O220 1.962 . S
Zn219 O222 1.986 . S
Zn219 O224 1.996 . S
Zn219 O227 1.943 1_545 S
O220 Zn219 1.962 . S
O220 C225 1.254 . S
O221 Zn218 2.031 . S
O221 C225 1.269 . S
O222 Zn219 1.986 . S
O222 C229 1.262 . S
O223 Zn218 2.074 . S
O223 C231 1.273 . S
O224 Zn219 1.996 . S
O224 C231 1.257 . S
C225 O220 1.254 . S
C225 O221 1.269 . S
C226 O227 1.249 . S
C226 O228 1.270 . S
O227 Zn219 1.943 1_565 S
O227 C226 1.249 . S
O228 Zn218 2.067 1_565 S
O228 C226 1.270 . S
C229 O222 1.262 . S
C229 O230 1.232 . S
O230 C229 1.232 . S
C231 O223 1.273 . S
C231 O224 1.257 . S
Zn232 O235 2.031 . S
Zn232 O237 2.049 . S
Zn232 O242 2.067 . S
Zn233 O234 1.962 . S
Zn233 O236 1.986 . S
Zn233 O238 1.996 . S
Zn233 O241 1.943 . S
O234 Zn233 1.962 . S
O234 C239 1.254 . S
O235 Zn232 2.031 . S
O235 C239 1.269 . S
O236 Zn233 1.986 . S
O236 C243 1.262 . S
O237 Zn232 2.049 . S
O237 C245 1.260 . S
O238 Zn233 1.996 . S
O238 C245 1.257 . S
C239 O234 1.254 . S
C239 O235 1.269 . S
C240 O241 1.249 . S
C240 O242 1.270 . S
O241 Zn233 1.943 . S
O241 C240 1.249 . S
O242 Zn232 2.067 . S
O242 C240 1.270 . S
C243 O236 1.262 . S
C243 O244 1.232 . S
O244 C243 1.232 . S
C245 O237 1.260 . S
C245 O238 1.257 . S
Zn246 O249 2.031 . S
Zn246 O251 2.049 . S
Zn246 O256 2.067 . S
Zn247 O248 1.962 . S
Zn247 O250 1.986 . S
Zn247 O252 1.996 . S
Zn247 O255 1.943 . S
O248 Zn247 1.962 . S
O248 C253 1.254 . S
O249 Zn246 2.031 . S
O249 C253 1.269 . S
O250 Zn247 1.986 . S
O250 C257 1.262 . S
O251 Zn246 2.049 . S
O251 C259 1.260 . S
O252 Zn247 1.996 . S
O252 C259 1.257 . S
C253 O248 1.254 . S
C253 O249 1.269 . S
C254 O255 1.249 . S
C254 O256 1.270 . S
O255 Zn247 1.943 . S
O255 C254 1.249 . S
O256 Zn246 2.067 . S
O256 C254 1.270 . S
C257 O250 1.262 . S
C257 O258 1.232 . S
O258 C257 1.232 . S
C259 O251 1.260 . S
C259 O252 1.257 . S
Zn260 O263 2.031 . S
Zn260 O265 2.049 . S
Zn260 O270 2.067 . S
Zn261 O262 1.962 . S
Zn261 O264 1.986 . S
Zn261 O266 1.996 . S
Zn261 O269 1.943 . S
O262 Zn261 1.962 . S
O262 C267 1.254 . S
O263 Zn260 2.031 . S
O263 C267 1.269 . S
O264 Zn261 1.986 . S
O264 C271 1.262 . S
O265 Zn260 2.049 . S
O265 C273 1.260 . S
O266 Zn261 1.996 . S
O266 C273 1.257 . S
C267 O262 1.254 . S
C267 O263 1.269 . S
C268 O269 1.249 . S
C268 O270 1.270 . S
O269 Zn261 1.943 . S
O269 C268 1.249 . S
O270 Zn260 2.067 . S
O270 C268 1.270 . S
C271 O264 1.262 . S
C271 O272 1.232 . S
O272 C271 1.232 . S
C273 O265 1.260 . S
C273 O266 1.257 . S
Zn274 O277 2.031 . S
Zn274 O279 2.049 . S
Zn274 O284 2.067 . S
Zn275 O276 1.962 . S
Zn275 O278 1.986 . S
Zn275 O280 1.996 1_545 S
Zn275 O283 1.943 . S
O276 Zn275 1.962 . S
O276 C281 1.254 . S
O277 Zn274 2.031 . S
O277 C281 1.269 1_565 S
O278 Zn275 1.986 . S
O278 C285 1.262 . S
O279 Zn274 2.049 . S
O279 C287 1.260 . S
O280 Zn275 1.996 1_565 S
O280 C287 1.257 . S
C281 O276 1.254 . S
C281 O277 1.269 1_545 S
C282 O283 1.249 1_565 S
C282 O284 1.270 . S
O283 Zn275 1.943 . S
O283 C282 1.249 1_545 S
O284 Zn274 2.067 . S
O284 C282 1.270 . S
C285 O278 1.262 . S
C285 O286 1.232 . S
O286 C285 1.232 . S
C287 O279 1.260 . S
C287 O280 1.257 . S
Zn288 O291 2.031 . S
Zn288 O293 2.049 1_455 S
Zn288 O298 2.067 1_455 S
Zn289 O290 1.962 . S
Zn289 O292 1.986 . S
Zn289 O294 1.996 . S
Zn289 O297 1.943 1_455 S
O290 Zn289 1.962 . S
O290 C295 1.254 . S
O291 Zn288 2.031 . S
O291 C295 1.269 . S
O292 Zn289 1.986 . S
O292 C299 1.262 . S
O293 Zn288 2.049 1_655 S
O293 C301 1.260 1_655 S
O294 Zn289 1.996 . S
O294 C301 1.257 . S
C295 O290 1.254 . S
C295 O291 1.269 . S
C296 O297 1.249 . S
C296 O298 1.270 . S
O297 Zn289 1.943 1_655 S
O297 C296 1.249 . S
O298 Zn288 2.067 1_655 S
O298 C296 1.270 . S
C299 O292 1.262 . S
C299 O300 1.232 . S
O300 C299 1.232 . S
C301 O293 1.260 1_455 S
C301 O294 1.257 . S
Zn302 O305 2.031 . S
Zn302 O307 2.049 . S
Zn302 O312 2.067 . S
Zn303 O304 1.962 . S
Zn303 O306 1.986 . S
Zn303 O308 1.996 . S
Zn303 O311 1.943 . S
O304 Zn303 1.962 . S
O304 C309 1.254 . S
O305 Zn302 2.031 . S
O305 C309 1.269 . S
O306 Zn303 1.986 . S
O306 C313 1.262 . S
O307 Zn302 2.049 . S
O307 C315 1.260 . S
O308 Zn303 1.996 . S
O308 C315 1.257 . S
C309 O304 1.254 . S
C309 O305 1.269 . S
C310 O311 1.249 . S
C310 O312 1.270 . S
O311 Zn303 1.943 . S
O311 C310 1.249 . S
O312 Zn302 2.067 . S
O312 C310 1.270 . S
C313 O306 1.262 . S
C313 O314 1.232 . S
O314 C313 1.232 . S
C315 O307 1.260 . S
C315 O308 1.257 . S
Zn316 O319 2.031 1_655 S
Zn316 O321 2.049 . S
Zn316 O326 2.067 . S
Zn317 O318 1.962 . S
Zn317 O320 1.986 . S
Zn317 O322 1.996 1_455 S
Zn317 O325 1.943 . S
O318 Zn317 1.962 . S
O318 C323 1.254 . S
O319 Zn316 2.031 1_455 S
O319 C323 1.269 . S
O320 Zn317 1.986 . S
O320 C327 1.262 . S
O321 Zn316 2.049 . S
O321 C329 1.260 . S
O322 Zn317 1.996 1_655 S
O322 C329 1.257 . S
C323 O318 1.254 . S
C323 O319 1.269 . S
C324 O325 1.249 . S
C324 O326 1.270 1_455 S
O325 Zn317 1.943 . S
O325 C324 1.249 . S
O326 Zn316 2.067 . S
O326 C324 1.270 1_655 S
C327 O320 1.262 . S
C327 O328 1.232 . S
O328 C327 1.232 . S
C329 O321 1.260 . S
C329 O322 1.257 . S
Zn330 O333 2.031 . S
Zn330 O335 2.049 . S
Zn330 O340 2.067 . S
Zn331 O332 1.962 . S
Zn331 O334 1.986 . S
Zn331 O336 1.996 . S
Zn331 O339 1.943 . S
O332 Zn331 1.962 . S
O332 C337 1.254 . S
O333 Zn330 2.031 . S
O333 C337 1.269 . S
O334 Zn331 1.986 . S
O334 C341 1.262 . S
O335 Zn330 2.049 . S
O335 C343 1.260 . S
O336 Zn331 1.996 . S
O336 C343 1.257 . S
C337 O332 1.254 . S
C337 O333 1.269 . S
C338 O339 1.249 . S
C338 O340 1.270 . S
O339 Zn331 1.943 . S
O339 C338 1.249 . S
O340 Zn330 2.067 . S
O340 C338 1.270 . S
C341 O334 1.262 . S
C341 O342 1.232 . S
O342 C341 1.232 . S
C343 O335 1.260 . S
C343 O336 1.257 . S
H344 C350 0.930 . S
H345 C354 0.930 . S
H346 C359 0.929 . S
H347 C357 0.929 . S
H348 C352 0.929 . S
H349 C358 0.929 . S
C350 H344 0.930 . S
C350 C351 1.367 . S
C350 C358 1.378 . S
C351 C350 1.367 . S
C351 C359 1.433 . S
C352 H348 0.929 . S
C352 C354 1.378 . S
C352 C356 1.350 . S
C353 C356 1.463 . S
C353 C358 1.350 . S
C353 N361 1.427 . S
C354 H345 0.930 . S
C354 C352 1.378 . S
C354 C355 1.367 . S
C355 C354 1.367 . S
C355 C357 1.433 . S
C356 C352 1.350 . S
C356 C353 1.463 . S
C356 N360 1.427 . S
C357 H347 0.929 . S
C357 C355 1.433 . S
C357 N360 1.384 . S
C358 H349 0.929 . S
C358 C350 1.378 . S
C358 C353 1.350 . S
C359 H346 0.929 . S
C359 C351 1.433 . S
C359 N361 1.384 . S
N360 C356 1.427 . S
N360 C357 1.384 . S
N361 C353 1.427 . S
N361 C359 1.384 . S
H362 C368 0.940 . S
H363 C372 0.930 . S
H364 C377 0.929 . S
H365 C375 0.929 . S
H366 C370 0.929 . S
H367 C376 0.929 . S
C368 H362 0.940 . S
C368 C369 1.366 1_655 S
C368 C376 1.368 1_655 S
C369 C368 1.366 1_455 S
C369 C377 1.433 . S
C370 H366 0.929 . S
C370 C372 1.378 . S
C370 C374 1.350 . S
C371 C374 1.463 . S
C371 C376 1.350 . S
C371 N379 1.427 . S
C372 H363 0.930 . S
C372 C370 1.378 . S
C372 C373 1.367 . S
C373 C372 1.367 . S
C373 C375 1.433 . S
C374 C370 1.350 . S
C374 C371 1.463 . S
C374 N378 1.427 . S
C375 H365 0.929 . S
C375 C373 1.433 . S
C375 N378 1.384 . S
C376 H367 0.929 . S
C376 C368 1.368 1_455 S
C376 C371 1.350 . S
C377 H364 0.929 . S
C377 C369 1.433 . S
C377 N379 1.384 . S
N378 C374 1.427 . S
N378 C375 1.384 . S
N379 C371 1.427 . S
N379 C377 1.384 . S
H380 C386 0.930 . S
H381 C390 0.930 . S
H382 C395 0.929 . S
H383 C393 0.929 . S
H384 C388 0.929 . S
H385 C394 0.929 . S
C386 H380 0.930 . S
C386 C387 1.367 . S
C386 C394 1.378 . S
C387 C386 1.367 . S
C387 C395 1.433 . S
C388 H384 0.929 . S
C388 C390 1.378 . S
C388 C392 1.350 . S
C389 C392 1.463 . S
C389 C394 1.350 . S
C389 N397 1.427 . S
C390 H381 0.930 . S
C390 C388 1.378 . S
C390 C391 1.367 . S
C391 C390 1.367 . S
C391 C393 1.433 . S
C392 C388 1.350 . S
C392 C389 1.463 . S
C392 N396 1.427 . S
C393 H383 0.929 . S
C393 C391 1.433 . S
C393 N396 1.384 . S
C394 H385 0.929 . S
C394 C386 1.378 . S
C394 C389 1.350 . S
C395 H382 0.929 . S
C395 C387 1.433 . S
C395 N397 1.384 . S
N396 C392 1.427 . S
N396 C393 1.384 . S
N397 C389 1.427 . S
N397 C395 1.384 . S
H398 C404 0.930 1_545 S
H399 C408 0.930 . S
H400 C413 0.929 . S
H401 C411 0.929 . S
H402 C406 0.929 . S
H403 C412 0.927 . S
C404 H398 0.930 1_565 S
C404 C405 1.367 . S
C404 C412 1.416 1_565 S
C405 C404 1.367 . S
C405 C413 1.433 . S
C406 H402 0.929 . S
C406 C408 1.378 . S
C406 C410 1.350 . S
C407 C410 1.463 . S
C407 C412 1.318 1_665 S
C407 N415 1.427 . S
C408 H399 0.930 . S
C408 C406 1.378 . S
C408 C409 1.367 1_565 S
C409 C408 1.367 1_545 S
C409 C411 1.433 . S
C410 C406 1.350 . S
C410 C407 1.463 . S
C410 N414 1.427 1_565 S
C411 H401 0.929 . S
C411 C409 1.433 . S
C411 N414 1.384 . S
C412 H403 0.927 . S
C412 C404 1.416 1_545 S
C412 C407 1.318 1_445 S
C413 H400 0.929 . S
C413 C405 1.433 . S
C413 N415 1.384 1_455 S
N414 C410 1.427 1_545 S
N414 C411 1.384 . S
N415 C407 1.427 . S
N415 C413 1.384 1_655 S
H416 C422 0.930 . S
H417 C426 0.930 . S
H418 C431 0.929 . S
H419 C429 0.929 . S
H420 C424 0.929 . S
H421 C430 0.929 . S
C422 H416 0.930 . S
C422 C423 1.367 . S
C422 C430 1.378 . S
C423 C422 1.367 . S
C423 C431 1.433 . S
C424 H420 0.929 . S
C424 C426 1.378 . S
C424 C428 1.350 . S
C425 C428 1.463 . S
C425 C430 1.350 . S
C425 N433 1.427 . S
C426 H417 0.930 . S
C426 C424 1.378 . S
C426 C427 1.367 . S
C427 C426 1.367 . S
C427 C429 1.433 . S
C428 C424 1.350 . S
C428 C425 1.463 . S
C428 N432 1.427 . S
C429 H419 0.929 . S
C429 C427 1.433 . S
C429 N432 1.384 . S
C430 H421 0.929 . S
C430 C422 1.378 . S
C430 C425 1.350 . S
C431 H418 0.929 . S
C431 C423 1.433 . S
C431 N433 1.384 . S
N432 C428 1.427 . S
N432 C429 1.384 . S
N433 C425 1.427 . S
N433 C431 1.384 . S
H434 C440 0.930 . S
H435 C444 0.930 . S
H436 C449 0.929 . S
H437 C447 0.929 . S
H438 C442 0.929 . S
H439 C448 0.929 . S
C440 H434 0.930 . S
C440 C441 1.367 . S
C440 C448 1.378 . S
C441 C440 1.367 . S
C441 C449 1.433 . S
C442 H438 0.929 . S
C442 C444 1.378 . S
C442 C446 1.350 . S
C443 C446 1.463 . S
C443 C448 1.350 . S
C443 N451 1.427 . S
C444 H435 0.930 . S
C444 C442 1.378 . S
C444 C445 1.367 . S
C445 C444 1.367 . S
C445 C447 1.433 . S
C446 C442 1.350 . S
C446 C443 1.463 . S
C446 N450 1.427 . S
C447 H437 0.929 . S
C447 C445 1.433 . S
C447 N450 1.384 . S
C448 H439 0.929 . S
C448 C440 1.378 . S
C448 C443 1.350 . S
C449 H436 0.929 . S
C449 C441 1.433 . S
C449 N451 1.384 . S
N450 C446 1.427 . S
N450 C447 1.384 . S
N451 C443 1.427 . S
N451 C449 1.384 . S
H452 C458 0.930 . S
H453 C462 0.930 . S
H454 C467 0.929 . S
H455 C465 0.929 . S
H456 C460 0.929 . S
H457 C466 0.929 . S
C458 H452 0.930 . S
C458 C459 1.367 . S
C458 C466 1.378 . S
C459 C458 1.367 . S
C459 C467 1.433 . S
C460 H456 0.929 . S
C460 C462 1.378 . S
C460 C464 1.350 . S
C461 C464 1.463 . S
C461 C466 1.350 . S
C461 N469 1.427 . S
C462 H453 0.930 . S
C462 C460 1.378 . S
C462 C463 1.367 . S
C463 C462 1.367 . S
C463 C465 1.433 . S
C464 C460 1.350 . S
C464 C461 1.463 . S
C464 N468 1.427 . S
C465 H455 0.929 . S
C465 C463 1.433 . S
C465 N468 1.384 . S
C466 H457 0.929 . S
C466 C458 1.378 . S
C466 C461 1.350 . S
C467 H454 0.929 . S
C467 C459 1.433 . S
C467 N469 1.384 . S
N468 C464 1.427 . S
N468 C465 1.384 . S
N469 C461 1.427 . S
N469 C467 1.384 . S
H470 C476 0.930 1_545 S
H471 C480 0.930 . S
H472 C485 0.929 . S
H473 C483 0.929 . S
H474 C478 0.929 . S
H475 C484 0.929 1_545 S
C476 H470 0.930 1_565 S
C476 C477 1.367 . S
C476 C484 1.378 . S
C477 C476 1.367 . S
C477 C485 1.433 . S
C478 H474 0.929 . S
C478 C480 1.378 . S
C478 C482 1.350 . S
C479 C482 1.463 . S
C479 C484 1.350 . S
C479 N487 1.427 . S
C480 H471 0.930 . S
C480 C478 1.378 . S
C480 C481 1.367 . S
C481 C480 1.367 . S
C481 C483 1.433 1_565 S
C482 C478 1.350 . S
C482 C479 1.463 . S
C482 N486 1.427 1_565 S
C483 H473 0.929 . S
C483 C481 1.433 1_545 S
C483 N486 1.384 . S
C484 H475 0.929 1_565 S
C484 C476 1.378 . S
C484 C479 1.350 . S
C485 H472 0.929 . S
C485 C477 1.433 . S
C485 N487 1.384 . S
N486 C482 1.427 1_545 S
N486 C483 1.384 . S
N487 C479 1.427 . S
N487 C485 1.384 . S
H488 C494 0.930 . S
H489 C498 0.930 . S
H490 C503 0.929 . S
H491 C501 0.929 . S
H492 C496 0.929 . S
H493 C502 0.929 . S
C494 H488 0.930 . S
C494 C495 1.367 . S
C494 C502 1.378 . S
C495 C494 1.367 . S
C495 C503 1.433 . S
C496 H492 0.929 . S
C496 C498 1.378 . S
C496 C500 1.350 . S
C497 C500 1.463 . S
C497 C502 1.350 . S
C497 N505 1.427 . S
C498 H489 0.930 . S
C498 C496 1.378 . S
C498 C499 1.367 . S
C499 C498 1.367 . S
C499 C501 1.433 . S
C500 C496 1.350 . S
C500 C497 1.463 . S
C500 N504 1.427 . S
C501 H491 0.929 . S
C501 C499 1.433 . S
C501 N504 1.384 . S
C502 H493 0.929 . S
C502 C494 1.378 . S
C502 C497 1.350 . S
C503 H490 0.929 . S
C503 C495 1.433 . S
C503 N505 1.384 . S
N504 C500 1.427 . S
N504 C501 1.384 . S
N505 C497 1.427 . S
N505 C503 1.384 . S
H506 C512 0.930 . S
H507 C516 0.930 . S
H508 C521 0.929 . S
H509 C519 0.929 . S
H510 C514 0.929 . S
H511 C520 0.929 . S
C512 H506 0.930 . S
C512 C513 1.367 . S
C512 C520 1.378 . S
C513 C512 1.367 . S
C513 C521 1.433 . S
C514 H510 0.929 . S
C514 C516 1.378 . S
C514 C518 1.350 . S
C515 C518 1.463 . S
C515 C520 1.350 . S
C515 N523 1.427 . S
C516 H507 0.930 . S
C516 C514 1.378 . S
C516 C517 1.367 . S
C517 C516 1.367 . S
C517 C519 1.433 . S
C518 C514 1.350 . S
C518 C515 1.463 . S
C518 N522 1.427 . S
C519 H509 0.929 . S
C519 C517 1.433 . S
C519 N522 1.384 . S
C520 H511 0.929 . S
C520 C512 1.378 . S
C520 C515 1.350 . S
C521 H508 0.929 . S
C521 C513 1.433 . S
C521 N523 1.384 . S
N522 C518 1.427 . S
N522 C519 1.384 . S
N523 C515 1.427 . S
N523 C521 1.384 . S
H524 C530 0.930 . S
H525 C534 0.930 . S
H526 C539 0.929 . S
H527 C537 0.929 . S
H528 C532 0.929 . S
H529 C538 0.929 . S
C530 H524 0.930 . S
C530 C531 1.367 . S
C530 C538 1.378 . S
C531 C530 1.367 . S
C531 C539 1.433 . S
C532 H528 0.929 . S
C532 C534 1.378 . S
C532 C536 1.350 . S
C533 C536 1.463 . S
C533 C538 1.350 . S
C533 N541 1.427 . S
C534 H525 0.930 . S
C534 C532 1.378 . S
C534 C535 1.367 . S
C535 C534 1.367 . S
C535 C537 1.433 . S
C536 C532 1.350 . S
C536 C533 1.463 . S
C536 N540 1.427 . S
C537 H527 0.929 . S
C537 C535 1.433 . S
C537 N540 1.384 . S
C538 H529 0.929 . S
C538 C530 1.378 . S
C538 C533 1.350 . S
C539 H526 0.929 . S
C539 C531 1.433 . S
C539 N541 1.384 . S
N540 C536 1.427 . S
N540 C537 1.384 . S
N541 C533 1.427 . S
N541 C539 1.384 . S
H542 C548 0.930 . S
H543 C552 0.930 . S
H544 C557 0.929 . S
H545 C555 0.929 . S
H546 C550 0.929 . S
H547 C556 0.929 . S
C548 H542 0.930 . S
C548 C549 1.367 . S
C548 C556 1.378 . S
C549 C548 1.367 . S
C549 C557 1.433 . S
C550 H546 0.929 . S
C550 C552 1.378 . S
C550 C554 1.350 . S
C551 C554 1.463 . S
C551 C556 1.350 . S
C551 N559 1.427 . S
C552 H543 0.930 . S
C552 C550 1.378 . S
C552 C553 1.367 . S
C553 C552 1.367 . S
C553 C555 1.433 . S
C554 C550 1.350 . S
C554 C551 1.463 . S
C554 N558 1.427 . S
C555 H545 0.929 . S
C555 C553 1.433 . S
C555 N558 1.384 . S
C556 H547 0.929 . S
C556 C548 1.378 . S
C556 C551 1.350 . S
C557 H544 0.929 . S
C557 C549 1.433 . S
C557 N559 1.384 . S
N558 C554 1.427 . S
N558 C555 1.384 . S
N559 C551 1.427 . S
N559 C557 1.384 . S
H560 C566 0.930 . S
H561 C570 0.930 . S
H562 C575 0.929 . S
H563 C573 0.929 . S
H564 C568 0.929 . S
H565 C574 0.929 . S
C566 H560 0.930 . S
C566 C567 1.367 . S
C566 C574 1.378 . S
C567 C566 1.367 . S
C567 C575 1.433 . S
C568 H564 0.929 . S
C568 C570 1.378 . S
C568 C572 1.350 . S
C569 C572 1.463 . S
C569 C574 1.350 . S
C569 N577 1.427 . S
C570 H561 0.930 . S
C570 C568 1.378 . S
C570 C571 1.367 . S
C571 C570 1.367 . S
C571 C573 1.433 . S
C572 C568 1.350 . S
C572 C569 1.463 . S
C572 N576 1.427 . S
C573 H563 0.929 . S
C573 C571 1.433 . S
C573 N576 1.384 . S
C574 H565 0.929 . S
C574 C566 1.378 . S
C574 C569 1.350 . S
C575 H562 0.929 . S
C575 C567 1.433 . S
C575 N577 1.384 . S
N576 C572 1.427 . S
N576 C573 1.384 . S
N577 C569 1.427 . S
N577 C575 1.384 . S
H578 C584 0.930 . S
H579 C588 0.930 . S
H580 C593 0.929 . S
H581 C591 0.929 . S
H582 C586 0.929 . S
H583 C592 0.929 . S
C584 H578 0.930 . S
C584 C585 1.367 . S
C584 C592 1.378 . S
C585 C584 1.367 . S
C585 C593 1.433 . S
C586 H582 0.929 . S
C586 C588 1.378 . S
C586 C590 1.350 . S
C587 C590 1.463 . S
C587 C592 1.350 . S
C587 N595 1.427 . S
C588 H579 0.930 . S
C588 C586 1.378 . S
C588 C589 1.367 . S
C589 C588 1.367 . S
C589 C591 1.433 . S
C590 C586 1.350 . S
C590 C587 1.463 . S
C590 N594 1.427 . S
C591 H581 0.929 . S
C591 C589 1.433 . S
C591 N594 1.384 . S
C592 H583 0.929 . S
C592 C584 1.378 . S
C592 C587 1.350 . S
C593 H580 0.929 . S
C593 C585 1.433 . S
C593 N595 1.384 . S
N594 C590 1.427 . S
N594 C591 1.384 . S
N595 C587 1.427 . S
N595 C593 1.384 . S
H596 C602 0.930 . S
H597 C606 0.930 . S
H598 C611 0.929 . S
H599 C609 0.929 . S
H600 C604 0.929 . S
H601 C610 0.929 . S
C602 H596 0.930 . S
C602 C603 1.367 . S
C602 C610 1.378 . S
C603 C602 1.367 . S
C603 C611 1.433 . S
C604 H600 0.929 . S
C604 C606 1.378 . S
C604 C608 1.350 . S
C605 C608 1.463 . S
C605 C610 1.350 . S
C605 N613 1.427 . S
C606 H597 0.930 . S
C606 C604 1.378 . S
C606 C607 1.367 . S
C607 C606 1.367 . S
C607 C609 1.433 . S
C608 C604 1.350 . S
C608 C605 1.463 . S
C608 N612 1.427 . S
C609 H599 0.929 . S
C609 C607 1.433 . S
C609 N612 1.384 . S
C610 H601 0.929 . S
C610 C602 1.378 . S
C610 C605 1.350 . S
C611 H598 0.929 . S
C611 C603 1.433 . S
C611 N613 1.384 . S
N612 C608 1.427 . S
N612 C609 1.384 . S
N613 C605 1.427 . S
N613 C611 1.384 . S
H614 C620 0.930 . S
H615 C624 0.930 . S
H616 C629 0.929 . S
H617 C627 0.929 . S
H618 C622 0.929 . S
H619 C628 0.929 . S
C620 H614 0.930 . S
C620 C621 1.367 1_455 S
C620 C628 1.378 . S
C621 C620 1.367 1_655 S
C621 C629 1.433 . S
C622 H618 0.929 . S
C622 C624 1.378 . S
C622 C626 1.350 . S
C623 C626 1.463 . S
C623 C628 1.350 1_655 S
C623 N631 1.427 . S
C624 H615 0.930 . S
C624 C622 1.378 . S
C624 C625 1.367 1_655 S
C625 C624 1.367 1_455 S
C625 C627 1.433 . S
C626 C622 1.350 . S
C626 C623 1.463 . S
C626 N630 1.427 1_655 S
C627 H617 0.929 . S
C627 C625 1.433 . S
C627 N630 1.384 . S
C628 H619 0.929 . S
C628 C620 1.378 . S
C628 C623 1.350 1_455 S
C629 H616 0.929 . S
C629 C621 1.433 . S
C629 N631 1.384 . S
N630 C626 1.427 1_455 S
N630 C627 1.384 . S
N631 C623 1.427 . S
N631 C629 1.384 . S
H632 C638 0.930 . S
H633 C642 0.930 . S
H634 C647 0.929 . S
H635 C645 0.929 . S
H636 C640 0.929 . S
H637 C646 0.929 . S
C638 H632 0.930 . S
C638 C639 1.367 . S
C638 C646 1.378 . S
C639 C638 1.367 . S
C639 C647 1.433 . S
C640 H636 0.929 . S
C640 C642 1.378 . S
C640 C644 1.350 . S
C641 C644 1.463 . S
C641 C646 1.350 . S
C641 N649 1.427 . S
C642 H633 0.930 . S
C642 C640 1.378 . S
C642 C643 1.367 . S
C643 C642 1.367 . S
C643 C645 1.433 . S
C644 C640 1.350 . S
C644 C641 1.463 . S
C644 N648 1.427 . S
C645 H635 0.929 . S
C645 C643 1.433 . S
C645 N648 1.384 . S
C646 H637 0.929 . S
C646 C638 1.378 . S
C646 C641 1.350 . S
C647 H634 0.929 . S
C647 C639 1.433 . S
C647 N649 1.384 . S
N648 C644 1.427 . S
N648 C645 1.384 . S
N649 C641 1.427 . S
N649 C647 1.384 . S
H650 C656 0.930 . S
H651 C660 0.930 . S
H652 C665 0.929 . S
H653 C663 0.929 . S
H654 C658 0.929 . S
H655 C664 0.929 . S
C656 H650 0.930 . S
C656 C657 1.367 . S
C656 C664 1.378 . S
C657 C656 1.367 . S
C657 C665 1.433 . S
C658 H654 0.929 . S
C658 C660 1.378 . S
C658 C662 1.350 . S
C659 C662 1.463 . S
C659 C664 1.350 . S
C659 N667 1.427 . S
C660 H651 0.930 . S
C660 C658 1.378 . S
C660 C661 1.367 . S
C661 C660 1.367 . S
C661 C663 1.433 . S
C662 C658 1.350 . S
C662 C659 1.463 . S
C662 N666 1.427 . S
C663 H653 0.929 . S
C663 C661 1.433 . S
C663 N666 1.384 . S
C664 H655 0.929 . S
C664 C656 1.378 . S
C664 C659 1.350 . S
C665 H652 0.929 . S
C665 C657 1.433 . S
C665 N667 1.384 . S
N666 C662 1.427 . S
N666 C663 1.384 . S
N667 C659 1.427 . S
N667 C665 1.384 . S
H668 C674 0.930 1_545 S
H669 C678 0.930 . S
H670 C683 0.929 . S
H671 C681 0.929 . S
H672 C676 0.929 . S
H673 C682 0.929 . S
C674 H668 0.930 1_565 S
C674 C675 1.367 1_554 S
C674 C682 1.378 . S
C675 C674 1.367 1_556 S
C675 C683 1.433 . S
C676 H672 0.929 . S
C676 C678 1.378 . S
C676 C680 1.350 . S
C677 C680 1.463 . S
C677 C682 1.350 1_556 S
C677 N685 1.427 . S
C678 H669 0.930 . S
C678 C676 1.378 . S
C678 C679 1.367 1_556 S
C679 C678 1.367 1_554 S
C679 C681 1.433 . S
C680 C676 1.350 . S
C680 C677 1.463 . S
C680 N684 1.427 1_556 S
C681 H671 0.929 . S
C681 C679 1.433 . S
C681 N684 1.384 . S
C682 H673 0.929 . S
C682 C674 1.378 . S
C682 C677 1.350 1_554 S
C683 H670 0.929 . S
C683 C675 1.433 . S
C683 N685 1.384 . S
N684 C680 1.427 1_554 S
N684 C681 1.384 . S
N685 C677 1.427 . S
N685 C683 1.384 . S
H686 C692 0.930 . S
H687 C696 0.930 . S
H688 C701 0.929 . S
H689 C699 0.929 . S
H690 C694 0.929 . S
H691 C700 0.929 . S
C692 H686 0.930 . S
C692 C693 1.367 . S
C692 C700 1.378 . S
C693 C692 1.367 . S
C693 C701 1.433 . S
C694 H690 0.929 . S
C694 C696 1.378 . S
C694 C698 1.350 . S
C695 C698 1.463 . S
C695 C700 1.350 . S
C695 N703 1.427 . S
C696 H687 0.930 . S
C696 C694 1.378 . S
C696 C697 1.367 . S
C697 C696 1.367 . S
C697 C699 1.433 . S
C698 C694 1.350 . S
C698 C695 1.463 . S
C698 N702 1.427 . S
C699 H689 0.929 . S
C699 C697 1.433 . S
C699 N702 1.384 . S
C700 H691 0.929 . S
C700 C692 1.378 . S
C700 C695 1.350 . S
C701 H688 0.929 . S
C701 C693 1.433 . S
C701 N703 1.384 . S
N702 C698 1.427 . S
N702 C699 1.384 . S
N703 C695 1.427 . S
N703 C701 1.384 . S
H704 C710 0.925 1_565 S
H705 C714 0.930 . S
H706 C719 0.929 . S
H707 C717 0.929 . S
H708 C712 0.929 . S
H709 C718 0.929 . S
C710 H704 0.925 1_545 S
C710 C711 1.367 . S
C710 C718 1.382 . S
C711 C710 1.367 . S
C711 C719 1.439 . S
C712 H708 0.929 . S
C712 C714 1.378 . S
C712 C716 1.350 . S
C713 C716 1.463 . S
C713 C718 1.350 . S
C713 N721 1.427 . S
C714 H705 0.930 . S
C714 C712 1.378 . S
C714 C715 1.367 . S
C715 C714 1.367 . S
C715 C717 1.433 . S
C716 C712 1.350 . S
C716 C713 1.463 . S
C716 N720 1.427 . S
C717 H707 0.929 . S
C717 C715 1.433 . S
C717 N720 1.384 . S
C718 H709 0.929 . S
C718 C710 1.382 . S
C718 C713 1.350 . S
C719 H706 0.929 . S
C719 C711 1.439 . S
C719 N721 1.384 . S
N720 C716 1.427 . S
N720 C717 1.384 . S
N721 C713 1.427 . S
N721 C719 1.384 . S
H722 C728 0.930 . S
H723 C732 0.930 . S
H724 C737 0.929 . S
H725 C735 0.929 . S
H726 C730 0.929 . S
H727 C736 0.929 . S
C728 H722 0.930 . S
C728 C729 1.367 . S
C728 C736 1.378 . S
C729 C728 1.367 . S
C729 C737 1.433 . S
C730 H726 0.929 . S
C730 C732 1.378 . S
C730 C734 1.350 . S
C731 C734 1.463 . S
C731 C736 1.350 . S
C731 N739 1.427 . S
C732 H723 0.930 . S
C732 C730 1.378 . S
C732 C733 1.367 . S
C733 C732 1.367 . S
C733 C735 1.433 . S
C734 C730 1.350 . S
C734 C731 1.463 . S
C734 N738 1.427 . S
C735 H725 0.929 . S
C735 C733 1.433 . S
C735 N738 1.384 . S
C736 H727 0.929 . S
C736 C728 1.378 . S
C736 C731 1.350 . S
C737 H724 0.929 . S
C737 C729 1.433 . S
C737 N739 1.384 . S
N738 C734 1.427 . S
N738 C735 1.384 . S
N739 C731 1.427 . S
N739 C737 1.384 . S
H740 C746 0.930 . S
H741 C750 0.930 . S
H742 C755 0.929 . S
H743 C753 0.929 . S
H744 C748 0.929 . S
H745 C754 0.929 . S
C746 H740 0.930 . S
C746 C747 1.367 . S
C746 C754 1.378 . S
C747 C746 1.367 . S
C747 C755 1.433 . S
C748 H744 0.929 . S
C748 C750 1.378 . S
C748 C752 1.350 . S
C749 C752 1.463 . S
C749 C754 1.350 . S
C749 N757 1.427 . S
C750 H741 0.930 . S
C750 C748 1.378 . S
C750 C751 1.367 . S
C751 C750 1.367 . S
C751 C753 1.433 . S
C752 C748 1.350 . S
C752 C749 1.463 . S
C752 N756 1.427 . S
C753 H743 0.929 . S
C753 C751 1.433 . S
C753 N756 1.384 . S
C754 H745 0.929 . S
C754 C746 1.378 . S
C754 C749 1.350 . S
C755 H742 0.929 . S
C755 C747 1.433 . S
C755 N757 1.384 . S
N756 C752 1.427 . S
N756 C753 1.384 . S
N757 C749 1.427 . S
N757 C755 1.384 . S
H758 C764 0.930 . S
H759 C768 0.930 . S
H760 C773 0.929 . S
H761 C771 0.929 . S
H762 C766 0.929 . S
H763 C772 0.929 . S
C764 H758 0.930 . S
C764 C765 1.367 . S
C764 C772 1.378 . S
C765 C764 1.367 . S
C765 C773 1.433 . S
C766 H762 0.929 . S
C766 C768 1.378 . S
C766 C770 1.350 . S
C767 C770 1.463 . S
C767 C772 1.350 . S
C767 N775 1.427 . S
C768 H759 0.930 . S
C768 C766 1.378 . S
C768 C769 1.367 . S
C769 C768 1.367 . S
C769 C771 1.433 . S
C770 C766 1.350 . S
C770 C767 1.463 . S
C770 N774 1.427 . S
C771 H761 0.929 . S
C771 C769 1.433 . S
C771 N774 1.384 . S
C772 H763 0.929 . S
C772 C764 1.378 . S
C772 C767 1.350 . S
C773 H760 0.929 . S
C773 C765 1.433 . S
C773 N775 1.384 . S
N774 C770 1.427 . S
N774 C771 1.384 . S
N775 C767 1.427 . S
N775 C773 1.384 . S
H776 C782 0.930 . S
H777 C786 0.930 . S
H778 C791 0.929 . S
H779 C789 0.929 . S
H780 C784 0.929 . S
H781 C790 0.929 . S
C782 H776 0.930 . S
C782 C783 1.367 . S
C782 C790 1.378 . S
C783 C782 1.367 . S
C783 C791 1.433 . S
C784 H780 0.929 . S
C784 C786 1.378 . S
C784 C788 1.350 . S
C785 C788 1.463 . S
C785 C790 1.350 . S
C785 N793 1.427 . S
C786 H777 0.930 . S
C786 C784 1.378 . S
C786 C787 1.367 . S
C787 C786 1.367 . S
C787 C789 1.433 . S
C788 C784 1.350 . S
C788 C785 1.463 . S
C788 N792 1.427 . S
C789 H779 0.929 . S
C789 C787 1.433 . S
C789 N792 1.384 . S
C790 H781 0.929 . S
C790 C782 1.378 . S
C790 C785 1.350 . S
C791 H778 0.929 . S
C791 C783 1.433 . S
C791 N793 1.384 . S
N792 C788 1.427 . S
N792 C789 1.384 . S
N793 C785 1.427 . S
N793 C791 1.384 . S
H794 C800 0.930 . S
H795 C804 0.930 . S
H796 C809 0.929 . S
H797 C807 0.929 . S
H798 C802 0.929 . S
H799 C808 0.929 . S
C800 H794 0.930 . S
C800 C801 1.367 . S
C800 C808 1.378 . S
C801 C800 1.367 . S
C801 C809 1.433 . S
C802 H798 0.929 . S
C802 C804 1.378 . S
C802 C806 1.350 . S
C803 C806 1.463 . S
C803 C808 1.350 . S
C803 N811 1.427 . S
C804 H795 0.930 . S
C804 C802 1.378 . S
C804 C805 1.367 . S
C805 C804 1.367 . S
C805 C807 1.433 1_545 S
C806 C802 1.350 . S
C806 C803 1.463 . S
C806 N810 1.427 . S
C807 H797 0.929 . S
C807 C805 1.433 1_565 S
C807 N810 1.384 1_565 S
C808 H799 0.929 . S
C808 C800 1.378 . S
C808 C803 1.350 . S
C809 H796 0.929 . S
C809 C801 1.433 . S
C809 N811 1.384 . S
N810 C806 1.427 . S
N810 C807 1.384 1_545 S
N811 C803 1.427 . S
N811 C809 1.384 . S
H812 C818 0.930 . S
H813 C822 0.930 . S
H814 C827 0.929 . S
H815 C825 0.929 . S
H816 C820 0.929 . S
H817 C826 0.929 . S
C818 H812 0.930 . S
C818 C819 1.367 . S
C818 C826 1.378 . S
C819 C818 1.367 . S
C819 C827 1.433 . S
C820 H816 0.929 . S
C820 C822 1.378 . S
C820 C824 1.350 . S
C821 C824 1.463 . S
C821 C826 1.350 . S
C821 N829 1.427 . S
C822 H813 0.930 . S
C822 C820 1.378 . S
C822 C823 1.367 . S
C823 C822 1.367 . S
C823 C825 1.433 . S
C824 C820 1.350 . S
C824 C821 1.463 . S
C824 N828 1.427 . S
C825 H815 0.929 . S
C825 C823 1.433 . S
C825 N828 1.384 . S
C826 H817 0.929 . S
C826 C818 1.378 . S
C826 C821 1.350 . S
C827 H814 0.929 . S
C827 C819 1.433 . S
C827 N829 1.384 . S
N828 C824 1.427 . S
N828 C825 1.384 . S
N829 C821 1.427 . S
N829 C827 1.384 . S
H830 C836 0.930 . S
H831 C840 0.930 . S
H832 C845 0.929 . S
H833 C843 0.929 . S
H834 C838 0.929 . S
H835 C844 0.929 . S
C836 H830 0.930 . S
C836 C837 1.367 . S
C836 C844 1.378 . S
C837 C836 1.367 . S
C837 C845 1.433 . S
C838 H834 0.929 . S
C838 C840 1.378 . S
C838 C842 1.350 . S
C839 C842 1.463 . S
C839 C844 1.350 . S
C839 N847 1.427 . S
C840 H831 0.930 . S
C840 C838 1.378 . S
C840 C841 1.367 . S
C841 C840 1.367 . S
C841 C843 1.433 . S
C842 C838 1.350 . S
C842 C839 1.463 . S
C842 N846 1.427 . S
C843 H833 0.929 . S
C843 C841 1.433 . S
C843 N846 1.384 . S
C844 H835 0.929 . S
C844 C836 1.378 . S
C844 C839 1.350 . S
C845 H832 0.929 . S
C845 C837 1.433 . S
C845 N847 1.384 . S
N846 C842 1.427 . S
N846 C843 1.384 . S
N847 C839 1.427 . S
N847 C845 1.384 . S
H848 C854 0.930 . S
H849 C858 0.930 . S
H850 C863 0.929 . S
H851 C861 0.929 . S
H852 C856 0.929 . S
H853 C862 0.929 . S
C854 H848 0.930 . S
C854 C855 1.367 . S
C854 C862 1.378 . S
C855 C854 1.367 . S
C855 C863 1.433 . S
C856 H852 0.929 . S
C856 C858 1.378 . S
C856 C860 1.350 . S
C857 C860 1.463 . S
C857 C862 1.350 . S
C857 N865 1.427 . S
C858 H849 0.930 . S
C858 C856 1.378 . S
C858 C859 1.367 . S
C859 C858 1.367 . S
C859 C861 1.433 . S
C860 C856 1.350 . S
C860 C857 1.463 . S
C860 N864 1.427 . S
C861 H851 0.929 . S
C861 C859 1.433 . S
C861 N864 1.384 . S
C862 H853 0.929 . S
C862 C854 1.378 . S
C862 C857 1.350 . S
C863 H850 0.929 . S
C863 C855 1.433 . S
C863 N865 1.384 . S
N864 C860 1.427 . S
N864 C861 1.384 . S
N865 C857 1.427 . S
N865 C863 1.384 . S
H866 C872 0.930 . S
H867 C876 0.930 1_565 S
H868 C881 0.951 . S
H869 C879 0.929 . S
H870 C874 0.929 1_565 S
H871 C880 0.929 . S
C872 H866 0.930 . S
C872 C873 1.367 . S
C872 C880 1.378 . S
C873 C872 1.367 . S
C873 C881 1.433 . S
C874 H870 0.929 1_545 S
C874 C876 1.378 . S
C874 C878 1.350 . S
C875 C878 1.463 . S
C875 C880 1.350 . S
C875 N883 1.427 . S
C876 H867 0.930 1_545 S
C876 C874 1.378 . S
C876 C877 1.367 . S
C877 C876 1.367 . S
C877 C879 1.433 . S
C878 C874 1.350 . S
C878 C875 1.463 . S
C878 N882 1.427 . S
C879 H869 0.929 . S
C879 C877 1.433 . S
C879 N882 1.384 . S
C880 H871 0.929 . S
C880 C872 1.378 . S
C880 C875 1.350 . S
C881 H868 0.951 . S
C881 C873 1.433 . S
C881 N883 1.384 . S
N882 C878 1.427 . S
N882 C879 1.384 . S
N883 C875 1.427 . S
N883 C881 1.384 . S
H884 C890 0.930 . S
H885 C894 0.930 . S
H886 C899 0.929 . S
H887 C897 0.929 . S
H888 C892 0.929 . S
H889 C898 0.929 . S
C890 H884 0.930 . S
C890 C891 1.367 . S
C890 C898 1.378 . S
C891 C890 1.367 . S
C891 C899 1.433 . S
C892 H888 0.929 . S
C892 C894 1.378 . S
C892 C896 1.350 . S
C893 C896 1.463 . S
C893 C898 1.350 . S
C893 N901 1.427 . S
C894 H885 0.930 . S
C894 C892 1.378 . S
C894 C895 1.367 . S
C895 C894 1.367 . S
C895 C897 1.433 . S
C896 C892 1.350 . S
C896 C893 1.463 . S
C896 N900 1.427 . S
C897 H887 0.929 . S
C897 C895 1.433 . S
C897 N900 1.384 . S
C898 H889 0.929 . S
C898 C890 1.378 . S
C898 C893 1.350 . S
C899 H886 0.929 . S
C899 C891 1.433 . S
C899 N901 1.384 . S
N900 C896 1.427 . S
N900 C897 1.384 . S
N901 C893 1.427 . S
N901 C899 1.384 . S
H902 C908 0.932 1_655 S
H903 C912 0.930 . S
H904 C917 0.921 1_655 S
H905 C915 0.929 . S
H906 C910 0.929 . S
H907 C916 0.929 . S
C908 H902 0.932 1_455 S
C908 C909 1.367 1_455 S
C908 C916 1.375 . S
C909 C908 1.367 1_655 S
C909 C917 1.415 1_655 S
C910 H906 0.929 . S
C910 C912 1.378 . S
C910 C914 1.350 . S
C911 C914 1.463 . S
C911 C916 1.350 . S
C911 N919 1.427 . S
C912 H903 0.930 . S
C912 C910 1.378 . S
C912 C913 1.367 . S
C913 C912 1.367 . S
C913 C915 1.433 . S
C914 C910 1.350 . S
C914 C911 1.463 . S
C914 N918 1.427 . S
C915 H905 0.929 . S
C915 C913 1.433 . S
C915 N918 1.384 . S
C916 H907 0.929 . S
C916 C908 1.375 . S
C916 C911 1.350 . S
C917 H904 0.921 1_455 S
C917 C909 1.415 1_455 S
C917 N919 1.413 . S
N918 C914 1.427 . S
N918 C915 1.384 . S
N919 C911 1.427 . S
N919 C917 1.413 . S
H920 C926 0.930 . S
H921 C930 0.930 . S
H922 C935 0.929 . S
H923 C933 0.929 . S
H924 C928 0.929 . S
H925 C934 0.929 . S
C926 H920 0.930 . S
C926 C927 1.367 . S
C926 C934 1.378 . S
C927 C926 1.367 . S
C927 C935 1.433 . S
C928 H924 0.929 . S
C928 C930 1.378 . S
C928 C932 1.350 . S
C929 C932 1.463 . S
C929 C934 1.350 . S
C929 N937 1.427 . S
C930 H921 0.930 . S
C930 C928 1.378 . S
C930 C931 1.367 . S
C931 C930 1.367 . S
C931 C933 1.433 . S
C932 C928 1.350 . S
C932 C929 1.463 . S
C932 N936 1.427 . S
C933 H923 0.929 . S
C933 C931 1.433 . S
C933 N936 1.384 . S
C934 H925 0.929 . S
C934 C926 1.378 . S
C934 C929 1.350 . S
C935 H922 0.929 . S
C935 C927 1.433 . S
C935 N937 1.384 . S
N936 C932 1.427 . S
N936 C933 1.384 . S
N937 C929 1.427 . S
N937 C935 1.384 . S
H938 C944 0.930 . S
H939 C948 0.930 . S
H940 C953 0.929 . S
H941 C951 0.929 . S
H942 C946 0.929 . S
H943 C952 0.947 . S
C944 H938 0.930 . S
C944 C945 1.367 . S
C944 C952 1.378 . S
C945 C944 1.367 . S
C945 C953 1.433 . S
C946 H942 0.929 . S
C946 C948 1.378 . S
C946 C950 1.350 1_556 S
C947 C950 1.463 . S
C947 C952 1.350 . S
C947 N955 1.427 . S
C948 H939 0.930 . S
C948 C946 1.378 . S
C948 C949 1.367 . S
C949 C948 1.367 . S
C949 C951 1.433 1_656 S
C950 C946 1.350 1_554 S
C950 C947 1.463 . S
C950 N954 1.409 1_655 S
C951 H941 0.929 . S
C951 C949 1.433 1_454 S
C951 N954 1.395 . S
C952 H943 0.947 . S
C952 C944 1.378 . S
C952 C947 1.350 . S
C953 H940 0.929 . S
C953 C945 1.433 . S
C953 N955 1.384 . S
N954 C950 1.409 1_455 S
N954 C951 1.395 . S
N955 C947 1.427 . S
N955 C953 1.384 . S
H956 C962 0.930 . S
H957 C966 0.930 . S
H958 C971 0.929 . S
H959 C969 0.929 . S
H960 C964 0.929 . S
H961 C970 0.929 . S
C962 H956 0.930 . S
C962 C963 1.367 . S
C962 C970 1.378 . S
C963 C962 1.367 . S
C963 C971 1.433 . S
C964 H960 0.929 . S
C964 C966 1.378 . S
C964 C968 1.350 . S
C965 C968 1.463 . S
C965 C970 1.350 . S
C965 N973 1.427 . S
C966 H957 0.930 . S
C966 C964 1.378 . S
C966 C967 1.367 . S
C967 C966 1.367 . S
C967 C969 1.433 . S
C968 C964 1.350 . S
C968 C965 1.463 . S
C968 N972 1.427 . S
C969 H959 0.929 . S
C969 C967 1.433 . S
C969 N972 1.384 . S
C970 H961 0.929 . S
C970 C962 1.378 . S
C970 C965 1.350 . S
C971 H958 0.929 . S
C971 C963 1.433 . S
C971 N973 1.384 . S
N972 C968 1.427 . S
N972 C969 1.384 . S
N973 C965 1.427 . S
N973 C971 1.384 . S
H974 C980 0.930 1_655 S
H975 C984 0.926 1_554 S
H976 C989 0.929 . S
H977 C987 0.902 1_655 S
H978 C982 0.929 . S
H979 C988 0.929 1_656 S
C980 H974 0.930 1_455 S
C980 C981 1.367 . S
C980 C988 1.378 . S
C981 C980 1.367 . S
C981 C989 1.433 . S
C982 H978 0.929 . S
C982 C984 1.378 1_554 S
C982 C986 1.353 . S
C983 C986 1.471 . S
C983 C988 1.350 . S
C983 N991 1.427 . S
C984 H975 0.926 1_556 S
C984 C982 1.378 1_556 S
C984 C985 1.367 . S
C985 C984 1.367 . S
C985 C987 1.459 . S
C986 C982 1.353 . S
C986 C983 1.471 . S
C986 N990 1.415 1_554 S
C987 H977 0.902 1_455 S
C987 C985 1.459 . S
C987 N990 1.388 . S
C988 H979 0.929 1_454 S
C988 C980 1.378 . S
C988 C983 1.350 . S
C989 H976 0.929 . S
C989 C981 1.433 . S
C989 N991 1.384 . S
N990 C986 1.415 1_556 S
N990 C987 1.388 . S
N991 C983 1.427 . S
N991 C989 1.384 . S
H992 C998 0.930 . S
H993 C1002 0.930 . S
H994 C1007 0.929 . S
H995 C1005 0.929 . S
H996 C1000 0.929 . S
H997 C1006 0.929 . S
C998 H992 0.930 . S
C998 C999 1.367 . S
C998 C1006 1.378 . S
C999 C998 1.367 . S
C999 C1007 1.433 . S
C1000 H996 0.929 . S
C1000 C1002 1.378 . S
C1000 C1004 1.350 . S
C1001 C1004 1.463 . S
C1001 C1006 1.350 . S
C1001 N1009 1.427 . S
C1002 H993 0.930 . S
C1002 C1000 1.378 . S
C1002 C1003 1.367 . S
C1003 C1002 1.367 . S
C1003 C1005 1.433 . S
C1004 C1000 1.350 . S
C1004 C1001 1.463 . S
C1004 N1008 1.427 . S
C1005 H995 0.929 . S
C1005 C1003 1.433 . S
C1005 N1008 1.384 . S
C1006 H997 0.929 . S
C1006 C998 1.378 . S
C1006 C1001 1.350 . S
C1007 H994 0.929 . S
C1007 C999 1.433 . S
C1007 N1009 1.384 . S
N1008 C1004 1.427 . S
N1008 C1005 1.384 . S
N1009 C1001 1.427 . S
N1009 C1007 1.384 . S
H1010 C1016 0.930 . S
H1011 C1020 0.930 . S
H1012 C1025 0.929 . S
H1013 C1023 0.929 . S
H1014 C1018 0.929 . S
H1015 C1024 0.929 . S
C1016 H1010 0.930 . S
C1016 C1017 1.367 . S
C1016 C1024 1.378 . S
C1017 C1016 1.367 . S
C1017 C1025 1.433 . S
C1018 H1014 0.929 . S
C1018 C1020 1.378 . S
C1018 C1022 1.350 . S
C1019 C1022 1.463 . S
C1019 C1024 1.350 . S
C1019 N1027 1.427 . S
C1020 H1011 0.930 . S
C1020 C1018 1.378 . S
C1020 C1021 1.367 . S
C1021 C1020 1.367 . S
C1021 C1023 1.433 . S
C1022 C1018 1.350 . S
C1022 C1019 1.463 . S
C1022 N1026 1.427 . S
C1023 H1013 0.929 . S
C1023 C1021 1.433 . S
C1023 N1026 1.384 . S
C1024 H1015 0.929 . S
C1024 C1016 1.378 . S
C1024 C1019 1.350 . S
C1025 H1012 0.929 . S
C1025 C1017 1.433 . S
C1025 N1027 1.384 . S
N1026 C1022 1.427 . S
N1026 C1023 1.384 . S
N1027 C1019 1.427 . S
N1027 C1025 1.384 . S
H1028 C1034 0.930 . S
H1029 C1038 0.930 . S
H1030 C1043 0.929 . S
H1031 C1041 0.929 . S
H1032 C1036 0.929 . S
H1033 C1042 0.929 . S
C1034 H1028 0.930 . S
C1034 C1035 1.367 . S
C1034 C1042 1.378 . S
C1035 C1034 1.367 . S
C1035 C1043 1.433 . S
C1036 H1032 0.929 . S
C1036 C1038 1.378 . S
C1036 C1040 1.350 . S
C1037 C1040 1.463 . S
C1037 C1042 1.350 . S
C1037 N1045 1.427 . S
C1038 H1029 0.930 . S
C1038 C1036 1.378 . S
C1038 C1039 1.367 . S
C1039 C1038 1.367 . S
C1039 C1041 1.433 . S
C1040 C1036 1.350 . S
C1040 C1037 1.463 . S
C1040 N1044 1.427 . S
C1041 H1031 0.929 . S
C1041 C1039 1.433 . S
C1041 N1044 1.384 . S
C1042 H1033 0.929 . S
C1042 C1034 1.378 . S
C1042 C1037 1.350 . S
C1043 H1030 0.929 . S
C1043 C1035 1.433 . S
C1043 N1045 1.384 . S
N1044 C1040 1.427 . S
N1044 C1041 1.384 . S
N1045 C1037 1.427 . S
N1045 C1043 1.384 . S
H1046 C1052 0.930 . S
H1047 C1056 0.930 . S
H1048 C1061 0.929 . S
H1049 C1059 0.929 . S
H1050 C1054 0.929 . S
H1051 C1060 0.929 . S
C1052 H1046 0.930 . S
C1052 C1053 1.367 . S
C1052 C1060 1.378 . S
C1053 C1052 1.367 . S
C1053 C1061 1.433 . S
C1054 H1050 0.929 . S
C1054 C1056 1.378 . S
C1054 C1058 1.350 . S
C1055 C1058 1.463 . S
C1055 C1060 1.350 . S
C1055 N1063 1.427 . S
C1056 H1047 0.930 . S
C1056 C1054 1.378 . S
C1056 C1057 1.367 . S
C1057 C1056 1.367 . S
C1057 C1059 1.433 . S
C1058 C1054 1.350 . S
C1058 C1055 1.463 . S
C1058 N1062 1.427 . S
C1059 H1049 0.929 . S
C1059 C1057 1.433 . S
C1059 N1062 1.384 . S
C1060 H1051 0.929 . S
C1060 C1052 1.378 . S
C1060 C1055 1.350 . S
C1061 H1048 0.929 . S
C1061 C1053 1.433 . S
C1061 N1063 1.384 . S
N1062 C1058 1.427 . S
N1062 C1059 1.384 . S
N1063 C1055 1.427 . S
N1063 C1061 1.384 . S
H1064 C1070 0.930 . S
H1065 C1074 0.930 . S
H1066 C1079 0.929 . S
H1067 C1077 0.929 . S
H1068 C1072 0.929 . S
H1069 C1078 0.929 . S
C1070 H1064 0.930 . S
C1070 C1071 1.367 . S
C1070 C1078 1.378 . S
C1071 C1070 1.367 . S
C1071 C1079 1.433 . S
C1072 H1068 0.929 . S
C1072 C1074 1.378 . S
C1072 C1076 1.350 . S
C1073 C1076 1.463 . S
C1073 C1078 1.350 . S
C1073 N1081 1.427 . S
C1074 H1065 0.930 . S
C1074 C1072 1.378 . S
C1074 C1075 1.367 . S
C1075 C1074 1.367 . S
C1075 C1077 1.433 . S
C1076 C1072 1.350 . S
C1076 C1073 1.463 . S
C1076 N1080 1.427 . S
C1077 H1067 0.929 . S
C1077 C1075 1.433 . S
C1077 N1080 1.384 . S
C1078 H1069 0.929 . S
C1078 C1070 1.378 . S
C1078 C1073 1.350 . S
C1079 H1066 0.929 . S
C1079 C1071 1.433 . S
C1079 N1081 1.384 . S
N1080 C1076 1.427 . S
N1080 C1077 1.384 . S
N1081 C1073 1.427 . S
N1081 C1079 1.384 . S
H1082 C1088 0.930 . S
H1083 C1092 0.930 . S
H1084 C1097 0.929 . S
H1085 C1095 0.929 . S
H1086 C1090 0.929 . S
H1087 C1096 0.929 . S
C1088 H1082 0.930 . S
C1088 C1089 1.367 . S
C1088 C1096 1.378 . S
C1089 C1088 1.367 . S
C1089 C1097 1.433 . S
C1090 H1086 0.929 . S
C1090 C1092 1.378 . S
C1090 C1094 1.350 . S
C1091 C1094 1.463 . S
C1091 C1096 1.350 . S
C1091 N1099 1.427 . S
C1092 H1083 0.930 . S
C1092 C1090 1.378 . S
C1092 C1093 1.367 . S
C1093 C1092 1.367 . S
C1093 C1095 1.433 . S
C1094 C1090 1.350 . S
C1094 C1091 1.463 . S
C1094 N1098 1.427 . S
C1095 H1085 0.929 . S
C1095 C1093 1.433 . S
C1095 N1098 1.384 . S
C1096 H1087 0.929 . S
C1096 C1088 1.378 . S
C1096 C1091 1.350 . S
C1097 H1084 0.929 . S
C1097 C1089 1.433 . S
C1097 N1099 1.384 . S
N1098 C1094 1.427 . S
N1098 C1095 1.384 . S
N1099 C1091 1.427 . S
N1099 C1097 1.384 . S
H1100 C1106 0.930 . S
H1101 C1110 0.930 . S
H1102 C1115 0.929 . S
H1103 C1113 0.929 . S
H1104 C1108 0.929 . S
H1105 C1114 0.929 . S
C1106 H1100 0.930 . S
C1106 C1107 1.367 . S
C1106 C1114 1.378 . S
C1107 C1106 1.367 . S
C1107 C1115 1.433 . S
C1108 H1104 0.929 . S
C1108 C1110 1.378 . S
C1108 C1112 1.350 . S
C1109 C1112 1.463 . S
C1109 C1114 1.350 . S
C1109 N1117 1.427 . S
C1110 H1101 0.930 . S
C1110 C1108 1.378 . S
C1110 C1111 1.367 . S
C1111 C1110 1.367 . S
C1111 C1113 1.433 . S
C1112 C1108 1.350 . S
C1112 C1109 1.463 . S
C1112 N1116 1.427 . S
C1113 H1103 0.929 . S
C1113 C1111 1.433 . S
C1113 N1116 1.384 . S
C1114 H1105 0.929 . S
C1114 C1106 1.378 . S
C1114 C1109 1.350 . S
C1115 H1102 0.929 . S
C1115 C1107 1.433 . S
C1115 N1117 1.384 . S
N1116 C1112 1.427 . S
N1116 C1113 1.384 . S
N1117 C1109 1.427 . S
N1117 C1115 1.384 . S
H1118 C1124 0.930 . S
H1119 C1128 0.930 . S
H1120 C1133 0.929 . S
H1121 C1131 0.929 . S
H1122 C1126 0.929 . S
H1123 C1132 0.929 . S
C1124 H1118 0.930 . S
C1124 C1125 1.367 . S
C1124 C1132 1.378 . S
C1125 C1124 1.367 . S
C1125 C1133 1.433 . S
C1126 H1122 0.929 . S
C1126 C1128 1.378 . S
C1126 C1130 1.350 . S
C1127 C1130 1.463 . S
C1127 C1132 1.350 . S
C1127 N1135 1.427 . S
C1128 H1119 0.930 . S
C1128 C1126 1.378 . S
C1128 C1129 1.367 . S
C1129 C1128 1.367 . S
C1129 C1131 1.433 . S
C1130 C1126 1.350 . S
C1130 C1127 1.463 . S
C1130 N1134 1.427 . S
C1131 H1121 0.929 . S
C1131 C1129 1.433 . S
C1131 N1134 1.384 . S
C1132 H1123 0.929 . S
C1132 C1124 1.378 . S
C1132 C1127 1.350 . S
C1133 H1120 0.929 . S
C1133 C1125 1.433 . S
C1133 N1135 1.384 . S
N1134 C1130 1.427 . S
N1134 C1131 1.384 . S
N1135 C1127 1.427 . S
N1135 C1133 1.384 . S
H1136 C1142 0.924 1_554 S
H1137 C1146 0.930 . S
H1138 C1151 0.929 . S
H1139 C1149 0.929 . S
H1140 C1144 0.929 . S
H1141 C1150 0.929 . S
C1142 H1136 0.924 1_556 S
C1142 C1143 1.375 . S
C1142 C1150 1.377 1_556 S
C1143 C1142 1.375 . S
C1143 C1151 1.433 . S
C1144 H1140 0.929 . S
C1144 C1146 1.378 . S
C1144 C1148 1.350 . S
C1145 C1148 1.463 . S
C1145 C1150 1.350 1_556 S
C1145 N1153 1.427 . S
C1146 H1137 0.930 . S
C1146 C1144 1.378 . S
C1146 C1147 1.367 1_556 S
C1147 C1146 1.367 1_554 S
C1147 C1149 1.433 . S
C1148 C1144 1.350 . S
C1148 C1145 1.463 . S
C1148 N1152 1.427 1_556 S
C1149 H1139 0.929 . S
C1149 C1147 1.433 . S
C1149 N1152 1.384 . S
C1150 H1141 0.929 . S
C1150 C1142 1.377 1_554 S
C1150 C1145 1.350 1_554 S
C1151 H1138 0.929 . S
C1151 C1143 1.433 . S
C1151 N1153 1.384 . S
N1152 C1148 1.427 1_554 S
N1152 C1149 1.384 . S
N1153 C1145 1.427 . S
N1153 C1151 1.384 . S
H1154 C1160 0.930 . S
H1155 C1164 0.930 . S
H1156 C1169 0.929 . S
H1157 C1167 0.929 . S
H1158 C1162 0.929 . S
H1159 C1168 0.929 . S
C1160 H1154 0.930 . S
C1160 C1161 1.367 . S
C1160 C1168 1.378 . S
C1161 C1160 1.367 . S
C1161 C1169 1.433 . S
C1162 H1158 0.929 . S
C1162 C1164 1.378 . S
C1162 C1166 1.350 . S
C1163 C1166 1.463 . S
C1163 C1168 1.350 . S
C1163 N1171 1.427 . S
C1164 H1155 0.930 . S
C1164 C1162 1.378 . S
C1164 C1165 1.367 . S
C1165 C1164 1.367 . S
C1165 C1167 1.433 . S
C1166 C1162 1.350 . S
C1166 C1163 1.463 . S
C1166 N1170 1.427 . S
C1167 H1157 0.929 . S
C1167 C1165 1.433 . S
C1167 N1170 1.384 . S
C1168 H1159 0.929 . S
C1168 C1160 1.378 . S
C1168 C1163 1.350 . S
C1169 H1156 0.929 . S
C1169 C1161 1.433 . S
C1169 N1171 1.384 . S
N1170 C1166 1.427 . S
N1170 C1167 1.384 . S
N1171 C1163 1.427 . S
N1171 C1169 1.384 . S
H1172 C1178 0.930 . S
H1173 C1182 0.930 . S
H1174 C1187 0.929 . S
H1175 C1185 0.929 . S
H1176 C1180 0.929 . S
H1177 C1186 0.929 . S
C1178 H1172 0.930 . S
C1178 C1179 1.367 . S
C1178 C1186 1.378 . S
C1179 C1178 1.367 . S
C1179 C1187 1.433 . S
C1180 H1176 0.929 . S
C1180 C1182 1.378 . S
C1180 C1184 1.350 . S
C1181 C1184 1.463 . S
C1181 C1186 1.350 . S
C1181 N1189 1.427 . S
C1182 H1173 0.930 . S
C1182 C1180 1.378 . S
C1182 C1183 1.367 . S
C1183 C1182 1.367 . S
C1183 C1185 1.433 . S
C1184 C1180 1.350 . S
C1184 C1181 1.463 . S
C1184 N1188 1.427 . S
C1185 H1175 0.929 . S
C1185 C1183 1.433 . S
C1185 N1188 1.384 . S
C1186 H1177 0.929 . S
C1186 C1178 1.378 . S
C1186 C1181 1.350 . S
C1187 H1174 0.929 . S
C1187 C1179 1.433 . S
C1187 N1189 1.384 . S
N1188 C1184 1.427 . S
N1188 C1185 1.384 . S
N1189 C1181 1.427 . S
N1189 C1187 1.384 . S
H1190 C1196 0.930 1_545 S
H1191 C1200 0.930 . S
H1192 C1205 0.929 . S
H1193 C1203 0.929 . S
H1194 C1198 0.929 . S
H1195 C1204 0.929 . S
C1196 H1190 0.930 1_565 S
C1196 C1197 1.367 . S
C1196 C1204 1.378 . S
C1197 C1196 1.367 . S
C1197 C1205 1.433 . S
C1198 H1194 0.929 . S
C1198 C1200 1.378 . S
C1198 C1202 1.350 . S
C1199 C1202 1.463 . S
C1199 C1204 1.350 . S
C1199 N1207 1.427 . S
C1200 H1191 0.930 . S
C1200 C1198 1.378 . S
C1200 C1201 1.367 . S
C1201 C1200 1.367 . S
C1201 C1203 1.433 . S
C1202 C1198 1.350 . S
C1202 C1199 1.463 . S
C1202 N1206 1.427 . S
C1203 H1193 0.929 . S
C1203 C1201 1.433 . S
C1203 N1206 1.384 . S
C1204 H1195 0.929 . S
C1204 C1196 1.378 . S
C1204 C1199 1.350 . S
C1205 H1192 0.929 . S
C1205 C1197 1.433 . S
C1205 N1207 1.384 . S
N1206 C1202 1.427 . S
N1206 C1203 1.384 . S
N1207 C1199 1.427 . S
N1207 C1205 1.384 . S
C355 C184 1.148 . S
C351 C62 1.160 . S
C373 C197 1.542 . S
C369 C73 1.444 1_455 S
C387 C84 1.661 . S
C391 C217 1.595 . S
C409 C231 1.221 . S
C405 C49 1.052 . S
C427 C243 1.390 . S
C423 C118 1.388 . S
C445 C257 1.562 . S
C441 C137 1.327 . S
C459 C129 1.568 . S
C463 C267 1.567 . S
C481 C282 1.886 . S
C477 C106 1.850 . S
C495 C128 1.812 . S
C499 C296 1.825 . S
C517 C315 1.481 . S
C513 C104 1.380 . S
C531 C115 1.563 . S
C535 C295 1.783 . S
C553 C313 1.710 . S
C549 C139 1.631 . S
C567 C85 1.711 . S
C571 C329 1.575 . S
C585 C52 1.204 . S
C589 C323 1.211 . S
C603 C60 0.971 . S
C607 C327 1.082 . S
C621 C71 1.385 . S
C625 C324 1.586 . S
C639 C40 1.706 . S
C643 C226 1.768 . S
C657 C162 1.105 . S
C661 C225 1.107 . S
C679 C189 1.013 . S
C675 C173 1.059 1_565 S
C697 C203 1.748 . S
C693 C93 1.703 . S
C711 C51 1.448 1_545 S
C715 C240 1.497 . S
C733 C285 1.565 . S
C729 C126 1.394 . S
C751 C239 1.756 . S
C747 C107 1.733 . S
C769 C271 1.540 . S
C765 C140 1.518 . S
C787 C268 1.156 . S
C783 C161 1.172 . S
C801 C172 1.442 . S
C805 C281 1.541 . S
C819 C95 1.650 . S
C823 C245 1.610 . S
C841 C259 1.226 . S
C837 C148 1.065 . S
C855 C41 1.383 . S
C859 C215 1.394 . S
C877 C229 1.564 . S
C873 C5 1.315 . S
C895 C183 1.561 . S
C891 C19 1.571 . S
C913 C198 1.887 . S
C909 C29 1.850 . S
C927 C18 1.801 . S
C931 C310 1.822 . S
C945 C27 1.368 . S
C949 C301 1.482 1_655 S
C963 C38 1.570 . S
C967 C309 1.785 . S
C981 C7 1.646 . S
C985 C299 1.713 . S
C1003 C343 1.587 . S
C999 C96 1.712 . S
C1021 C337 1.212 . S
C1017 C151 1.192 . S
C1039 C341 1.082 . S
C1035 C159 0.972 . S
C1053 C170 1.385 . S
C1057 C338 1.588 . S
C1071 C117 1.708 . S
C1075 C254 1.768 . S
C1093 C253 1.097 . S
C1089 C63 1.108 . S
C1111 C273 1.020 . S
C1107 C74 1.065 . S
C1129 C287 1.755 . S
C1125 C82 1.702 . S
C1143 C150 1.455 . S
C1147 C212 1.498 . S
C1165 C201 1.563 . S
C1161 C16 1.381 . S
C1179 C30 1.736 . S
C1183 C211 1.752 . S
C1201 C187 1.537 . S
C1197 C8 1.558 . S
