# Generated by pormake.
# Topology alb, (6,12)-cn, num edge types: 1
# Building blocks:
#     Node 0, Type 0, BuildingBlock: IZENUY_clean_sbu_0, # of connection points: 6
#     Node 1, Type 0, BuildingBlock: IZENUY_clean_sbu_0, # of connection points: 6
#     Node 2, Type 1, BuildingBlock: QEWDON_clean_sbu_0, # of connection points: 12
#     Edge 3, Type (0, 1), BuildingBlock: KIFKEQ_clean_linker_1, # of connection points: 2
#     Edge 4, Type (0, 1), BuildingBlock: KIFKEQ_clean_linker_1, # of connection points: 2
#     Edge 5, Type (0, 1), BuildingBlock: KIFKEQ_clean_linker_1, # of connection points: 2
#     Edge 6, Type (0, 1), BuildingBlock: KIFKEQ_clean_linker_1, # of connection points: 2
#     Edge 7, Type (0, 1), BuildingBlock: KIFKEQ_clean_linker_1, # of connection points: 2
#     Edge 8, Type (0, 1), BuildingBlock: KIFKEQ_clean_linker_1, # of connection points: 2
#     Edge 9, Type (0, 1), BuildingBlock: KIFKEQ_clean_linker_1, # of connection points: 2
#     Edge 10, Type (0, 1), BuildingBlock: KIFKEQ_clean_linker_1, # of connection points: 2
#     Edge 11, Type (0, 1), BuildingBlock: KIFKEQ_clean_linker_1, # of connection points: 2
#     Edge 12, Type (0, 1), BuildingBlock: KIFKEQ_clean_linker_1, # of connection points: 2
#     Edge 13, Type (0, 1), BuildingBlock: KIFKEQ_clean_linker_1, # of connection points: 2
#     Edge 14, Type (0, 1), BuildingBlock: KIFKEQ_clean_linker_1, # of connection points: 2
# Relax obj value: 0.107
# Max RMSD: 0.215
# Mean RMSD: 0.115
data_MOF--net-alb--node1-IZENUY_clean_sbu_0--node2-QEWDON_clean_sbu_0--edge1-KIFKEQ_clean_linker_1
_symmetry_space_group_name_H-M    P1
_symmetry_Int_Tables_number       1
_symmetry_cell_setting            triclinic
loop_
_symmetry_equiv_pos_as_xyz
'x, y, z'
_cell_length_a     24.71464
_cell_length_b     25.572645
_cell_length_c     20.064662
_cell_angle_alpha  89.8807
_cell_angle_beta   90.768712
_cell_angle_gamma 120.95637
loop_
_atom_site_label
_atom_site_type_symbol
_atom_site_fract_x
_atom_site_fract_y
_atom_site_fract_z
_atom_type_partial_charge
Fe0 Fe 0.32099 0.72158 0.13295 0.0
Fe1 Fe 0.30132 0.59358 0.12073 0.0
O2 O 0.27018 0.64133 0.13397 0.0
Fe3 Fe 0.18828 0.60838 0.14779 0.0
O4 O 0.17939 0.64662 0.07531 0.0
O5 O 0.26191 0.73722 0.0972 0.0
O6 O 0.34622 0.72049 0.04825 0.0
C7 C 0.37234 0.69113 0.0317 0.0
C8 C 0.24478 0.70897 0.23732 0.0
O9 O 0.36479 0.64656 0.06628 0.0
C10 C 0.21017 0.53002 0.22007 0.0
O11 O 0.38897 0.72007 0.16858 0.0
O12 O 0.35219 0.62379 0.19413 0.0
O13 O 0.19755 0.66877 0.2044 0.0
O14 O 0.30019 0.72881 0.21736 0.0
C15 C 0.19353 0.53486 0.04606 0.0
O16 O 0.24379 0.53083 0.17265 0.0
O17 O 0.19131 0.56752 0.22138 0.0
C18 C 0.39314 0.67967 0.201 0.0
O19 O 0.25289 0.56147 0.04654 0.0
O20 O 0.16463 0.54221 0.0934 0.0
C21 C 0.21076 0.70348 0.06553 0.0
Fe22 Fe 0.72176 0.42131 0.06323 0.0
Fe23 Fe 0.73144 0.30652 0.06713 0.0
O24 O 0.76808 0.38677 0.05836 0.0
Fe25 Fe 0.85075 0.4315 0.0449 0.0
O26 O 0.86377 0.47807 0.11888 0.0
O27 O 0.78288 0.49105 0.1043 0.0
O28 O 0.69357 0.39084 0.1461 0.0
C29 C 0.66464 0.33474 0.15961 0.0
C30 C 0.8015 0.48748 0.96145 0.0
O31 O 0.66922 0.29774 0.12211 0.0
C32 C 0.82113 0.33152 0.96737 0.0
O33 O 0.65249 0.35753 0.0229 0.0
O34 O 0.6814 0.29246 0.99391 0.0
O35 O 0.8468 0.48746 0.99141 0.0
O36 O 0.74554 0.45455 0.98106 0.0
C37 C 0.83811 0.34652 0.14316 0.0
O38 O 0.78637 0.2987 0.01397 0.0
O39 O 0.84449 0.38861 0.96904 0.0
C40 C 0.64497 0.31328 0.98742 0.0
O41 O 0.77858 0.31603 0.14092 0.0
O42 O 0.86931 0.38367 0.09724 0.0
C43 C 0.83426 0.50474 0.13335 0.0
Zn44 Zn 0.11243 0.09266 0.36649 0.0
Zn45 Zn 0.13657 1.00481 0.44944 0.0
O46 O 0.08211 0.04153 0.44912 0.0
H47 H 0.04086 0.02536 0.4682 0.0
C48 C 0.1222 0.21342 0.57498 0.0
O49 O 0.08442 0.20393 0.62493 0.0
Zn50 Zn 0.90377 0.89457 0.74381 0.0
Zn51 Zn 0.92318 1.00862 0.81707 0.0
O52 O 0.95572 0.98509 0.73872 0.0
H53 H 0.99656 0.00928 0.71854 0.0
Zn54 Zn 0.13919 0.11876 0.64491 0.0
O55 O 0.08919 0.02877 0.62299 0.0
Zn56 Zn 0.11393 0.98213 0.68513 0.0
H57 H 0.0686 0.01424 0.58027 0.0
Zn58 Zn 0.88155 0.98392 0.54381 0.0
O59 O 0.94558 0.95886 0.56182 0.0
H60 H 0.96783 0.96947 0.60401 0.0
Zn61 Zn 0.92485 0.88478 0.50594 0.0
C62 C 0.90313 0.09652 0.61513 0.0
O63 O 0.95124 0.12358 0.57478 0.0
O64 O 0.20551 0.12669 0.34856 0.0
O65 O 0.22385 0.06495 0.41 0.0
O66 O 0.83096 0.94832 0.83725 0.0
O67 O 0.81545 0.86664 0.78157 0.0
O68 O 0.2143 0.13539 0.7052 0.0
O69 O 0.19226 0.0432 0.73933 0.0
C70 C 0.03013 0.88952 0.41226 0.0
O71 O 0.80774 0.91744 0.48823 0.0
O72 O 0.84413 0.85879 0.45112 0.0
O73 O 0.95413 0.09879 0.83181 0.0
C74 C 0.24315 0.11068 0.37111 0.0
O75 O 0.079 0.14919 0.34409 0.0
C76 C 0.01146 0.88922 0.78564 0.0
O77 O 0.1504 0.18348 0.57236 0.0
C78 C 0.79478 0.89353 0.81788 0.0
O79 O 0.86739 0.03869 0.61194 0.0
C80 C 0.14903 0.94214 0.56954 0.0
O81 O 0.08844 0.92466 0.39957 0.0
O82 O 1.00453 0.90839 0.45296 0.0
C83 C 0.228 0.1014 0.73925 0.0
O84 O 0.95377 0.86762 0.80017 0.0
O85 O 0.03449 0.92763 0.73834 0.0
C86 C 0.89698 0.81823 0.62866 0.0
O87 O 0.13839 0.93039 0.63117 0.0
O88 O 0.14357 0.98511 0.54522 0.0
C89 C 0.80137 0.87289 0.45326 0.0
O90 O 0.90664 0.81421 0.56731 0.0
O91 O 0.89901 0.86607 0.64928 0.0
C92 C 1.00586 0.14088 0.80856 0.0
O93 O 0.04114 0.12665 0.77368 0.0
C94 C 0.04585 0.15956 0.38356 0.0
O95 O 0.03015 0.132 0.44148 0.0
H96 H 0.33106 0.81367 0.3027 0.0
H97 H 0.13457 0.67063 0.30329 0.0
H98 H 0.31096 0.86706 0.39046 0.0
H99 H 0.1148 0.72403 0.39127 0.0
H100 H 0.22926 0.98154 0.46614 0.0
H101 H 0.25473 0.92208 0.39246 0.0
H102 H 0.13518 0.76051 0.50716 0.0
H103 H 0.10778 0.82053 0.57941 0.0
C104 C 0.28373 0.79328 0.32195 0.0
C105 C 0.23425 0.73832 0.29525 0.0
C106 C 0.27216 0.82404 0.37203 0.0
C107 C 0.211 0.80028 0.39696 0.0
C108 C 0.16229 0.74368 0.37286 0.0
C109 C 0.17366 0.71323 0.32224 0.0
C110 C 0.2075 0.9332 0.47464 0.0
C111 C 0.16517 0.90534 0.52693 0.0
C112 C 0.22313 0.89926 0.43345 0.0
C113 C 0.1971 0.83651 0.44399 0.0
C114 C 0.15566 0.8087 0.49746 0.0
C115 C 0.14011 0.84295 0.53884 0.0
H116 H 0.60561 0.21998 0.20995 0.0
H117 H 0.61004 0.39074 0.22389 0.0
H118 H 0.50896 0.16987 0.27307 0.0
H119 H 0.51369 0.34066 0.28937 0.0
H120 H 0.29774 0.21065 0.29124 0.0
H121 H 0.4063 0.26973 0.25632 0.0
H122 H 0.45143 0.15511 0.37399 0.0
H123 H 0.34125 0.09433 0.40809 0.0
C124 C 0.58675 0.24725 0.22795 0.0
C125 C 0.61486 0.30914 0.21068 0.0
C126 C 0.53141 0.21847 0.26472 0.0
C127 C 0.50286 0.25092 0.28541 0.0
C128 C 0.5338 0.31405 0.2729 0.0
C129 C 0.58932 0.34293 0.2359 0.0
C130 C 0.33061 0.19791 0.3101 0.0
C131 C 0.31044 0.14722 0.35209 0.0
C132 C 0.39333 0.23249 0.29064 0.0
C133 C 0.4379 0.21759 0.31265 0.0
C134 C 0.41819 0.16761 0.35577 0.0
C135 C 0.35508 0.13277 0.37532 0.0
H136 H 0.20877 0.42336 0.2087 0.0
H137 H 0.1652 0.52562 0.34636 0.0
H138 H 0.18345 0.34609 0.29245 0.0
H139 H 0.14172 0.44874 0.43199 0.0
H140 H 0.05917 0.27495 0.55739 0.0
H141 H 0.07473 0.34856 0.47119 0.0
H142 H 0.22486 0.32984 0.38933 0.0
H143 H 0.20738 0.25462 0.47367 0.0
C144 C 0.19399 0.42953 0.25716 0.0
C145 C 0.18979 0.48123 0.27097 0.0
C146 C 0.17982 0.38519 0.30562 0.0
C147 C 0.16157 0.39125 0.36989 0.0
C148 C 0.15524 0.44203 0.38311 0.0
C149 C 0.16893 0.48638 0.3341 0.0
C150 C 0.09551 0.28658 0.52097 0.0
C151 C 0.13206 0.25879 0.52267 0.0
C152 C 0.10479 0.32927 0.47165 0.0
C153 C 0.15114 0.34562 0.42284 0.0
C154 C 0.18782 0.31785 0.42497 0.0
C155 C 0.17819 0.27488 0.47388 0.0
H156 H 0.78781 0.25378 0.23365 0.0
H157 H 0.96496 0.40727 0.16911 0.0
H158 H 0.84466 0.22137 0.30597 0.0
H159 H 0.02182 0.37574 0.2432 0.0
H160 H 0.08206 0.2325 0.27475 0.0
H161 H 0.03704 0.29042 0.23139 0.0
H162 H 0.91438 0.23865 0.40127 0.0
H163 H 0.95908 0.17915 0.44445 0.0
C164 C 0.83884 0.28135 0.23595 0.0
C165 C 0.87194 0.33219 0.19439 0.0
C166 C 0.87145 0.26311 0.27799 0.0
C167 C 0.93776 0.29559 0.27965 0.0
C168 C 0.9707 0.34914 0.24195 0.0
C169 C 0.93812 0.36714 0.19953 0.0
C170 C 0.04586 0.23378 0.30329 0.0
C171 C 0.02313 0.20021 0.36227 0.0
C172 C 0.02057 0.26772 0.27882 0.0
C173 C 0.97181 0.26882 0.31268 0.0
C174 C 0.95139 0.23797 0.37369 0.0
C175 C 0.97693 0.20396 0.39837 0.0
H176 H 0.51066 0.76406 0.1627 0.0
H177 H 0.40914 0.63621 0.31978 0.0
H178 H 0.60978 0.79997 0.22394 0.0
H179 H 0.50891 0.6739 0.38243 0.0
H180 H 0.68629 0.85084 0.48938 0.0
H181 H 0.58629 0.79232 0.42866 0.0
H182 H 0.67959 0.75164 0.27469 0.0
H183 H 0.78016 0.80901 0.33665 0.0
C184 C 0.50974 0.74357 0.21033 0.0
C185 C 0.45246 0.6979 0.23711 0.0
C186 C 0.56641 0.76366 0.24488 0.0
C187 C 0.56665 0.73942 0.30749 0.0
C188 C 0.50959 0.69291 0.33394 0.0
C189 C 0.45283 0.67154 0.29839 0.0
C190 C 0.68545 0.82898 0.44285 0.0
C191 C 0.74102 0.83499 0.4172 0.0
C192 C 0.62816 0.79503 0.40862 0.0
C193 C 0.62556 0.76749 0.34744 0.0
C194 C 0.68073 0.77242 0.32209 0.0
C195 C 0.73801 0.80523 0.3573 0.0
H196 H 0.77125 0.53837 0.21648 0.0
H197 H 0.95893 0.58811 0.15768 0.0
H198 H 0.81479 0.62586 0.29148 0.0
H199 H 1.00292 0.67819 0.22854 0.0
H200 H 0.07701 0.81648 0.39018 0.0
H201 H 0.02793 0.71977 0.33127 0.0
H202 H 0.85939 0.72906 0.30105 0.0
H203 H 0.90782 0.82409 0.36514 0.0
C204 C 0.82201 0.56839 0.21949 0.0
C205 C 0.86173 0.55631 0.1814 0.0
C206 C 0.84712 0.6191 0.26211 0.0
C207 C 0.91272 0.66011 0.26662 0.0
C208 C 0.95233 0.64746 0.22835 0.0
C209 C 0.92719 0.59582 0.18708 0.0
C210 C 0.029 0.79711 0.37204 0.0
C211 C 0.99617 0.82766 0.38244 0.0
C212 C 1.00097 0.74188 0.33723 0.0
C213 C 0.93982 0.71629 0.30966 0.0
C214 C 0.90621 0.74631 0.32186 0.0
C215 C 0.93388 0.80105 0.35855 0.0
H216 H 0.12418 0.65093 0.96289 0.0
H217 H 0.23936 0.82171 0.06749 0.0
H218 H 0.08186 0.6998 0.89084 0.0
H219 H 0.19589 0.86954 0.99671 0.0
H220 H 0.01808 0.88206 0.91949 0.0
H221 H 0.07035 0.83881 0.98419 0.0
H222 H 0.13657 0.80217 0.80244 0.0
H223 H 0.08585 0.84773 0.7375 0.0
C224 C 0.14045 0.69874 0.9705 0.0
C225 C 0.18508 0.73236 0.02102 0.0
C226 C 0.1166 0.72672 0.929 0.0
C227 C 0.13596 0.78842 0.93819 0.0
C228 C 0.18041 0.82195 0.98856 0.0
C229 C 0.20523 0.79447 0.029 0.0
C230 C 0.04481 0.86579 0.8935 0.0
C231 C 0.04892 0.86904 0.82374 0.0
C232 C 0.07448 0.84096 0.93043 0.0
C233 C 0.10726 0.81711 0.89822 0.0
C234 C 0.11151 0.8203 0.82832 0.0
C235 C 0.0832 0.84685 0.79135 0.0
H236 H 0.59249 0.20077 0.92569 0.0
H237 H 0.56628 0.35383 0.95427 0.0
H238 H 0.4921 0.14719 0.86338 0.0
H239 H 0.46661 0.30027 0.89466 0.0
H240 H 0.32322 0.21963 0.73084 0.0
H241 H 0.42617 0.26809 0.78431 0.0
H242 H 0.37705 0.09903 0.88241 0.0
H243 H 0.27349 0.04927 0.82666 0.0
C244 C 0.56568 0.22309 0.91836 0.0
C245 C 0.58739 0.28152 0.94502 0.0
C246 C 0.50798 0.19221 0.88332 0.0
C247 C 0.47139 0.21948 0.87408 0.0
C248 C 0.4939 0.27822 0.89993 0.0
C249 C 0.55109 0.30884 0.9346 0.0
C250 C 0.33388 0.19254 0.76401 0.0
C251 C 0.2896 0.13062 0.77505 0.0
C252 C 0.39314 0.22048 0.79474 0.0
C253 C 0.4097 0.1876 0.83808 0.0
C254 C 0.36587 0.12545 0.84879 0.0
C255 C 0.30636 0.09715 0.81743 0.0
H256 H 0.22733 0.5251 0.92001 0.0
H257 H 0.07995 0.43224 0.06431 0.0
H258 H 0.175 0.43605 0.84678 0.0
H259 H 0.03019 0.34227 0.99453 0.0
H260 H 0.93778 0.18514 0.86357 0.0
H261 H 0.97542 0.28777 0.90341 0.0
H262 H 0.16412 0.34137 0.8414 0.0
H263 H 0.1245 0.2401 0.79537 0.0
C264 C 0.18348 0.48566 0.9357 0.0
C265 C 0.1579 0.48514 -0.00213 0.0
C266 C 0.15371 0.43445 0.89412 0.0
C267 C 0.09874 0.38122 0.91483 0.0
C268 C 0.07171 0.38233 0.97581 0.0
C269 C 0.10056 0.43396 0.01642 0.0
C270 C 0.98695 0.21944 0.85683 0.0
C271 C 0.02823 0.20465 0.8266 0.0
C272 C 1.00881 0.27822 0.88043 0.0
C273 C 0.07321 0.32295 0.87723 0.0
C274 C 0.11405 0.30869 0.84424 0.0
C275 C 0.09155 0.25028 0.81841 0.0
H276 H 0.79971 0.21613 0.96773 0.0
H277 H 0.87776 0.37755 0.84563 0.0
H278 H 0.8189 0.16261 0.8811 0.0
H279 H 0.89566 0.32262 0.75666 0.0
H280 H 0.97523 0.21929 0.64154 0.0
H281 H 0.95609 0.27861 0.72272 0.0
H282 H 0.78206 0.11623 0.77741 0.0
H283 H 0.80243 0.0569 0.69806 0.0
C284 C 0.82065 0.24029 0.92199 0.0
C285 C 0.83669 0.30128 0.91373 0.0
C286 C 0.83109 0.2091 0.87164 0.0
C287 C 0.85763 0.23748 0.81078 0.0
C288 C 0.87515 0.29908 0.80277 0.0
C289 C 0.86487 0.33067 0.85374 0.0
C290 C 0.93278 0.1963 0.67077 0.0
C291 C 0.8906 0.13311 0.66342 0.0
C292 C 0.92142 0.23056 0.71697 0.0
C293 C 0.86759 0.20252 0.75724 0.0
C294 C 0.82477 0.1395 0.74856 0.0
C295 C 0.83627 0.1053 0.70267 0.0
H296 H 0.42664 0.8019 0.96789 0.0
H297 H 0.43397 0.63702 0.98269 0.0
H298 H 0.52326 0.84895 0.90302 0.0
H299 H 0.5311 0.6845 0.92039 0.0
H300 H 0.69839 0.77775 0.78419 0.0
H301 H 0.58857 0.72698 0.82002 0.0
H302 H 0.63086 0.88711 0.93416 0.0
H303 H 0.7389 0.93792 0.89733 0.0
C304 C 0.44813 0.77531 0.95638 0.0
C305 C 0.42306 0.71606 0.98149 0.0
C306 C 0.50387 0.80244 0.91971 0.0
C307 C 0.53575 0.77096 0.90752 0.0
C308 C 0.50795 0.71015 0.92843 0.0
C309 C 0.45227 0.68303 0.96474 0.0
C310 C 0.68399 0.80212 0.81656 0.0
C311 C 0.72768 0.8618 0.83807 0.0
C312 C 0.62108 0.77305 0.83718 0.0
C313 C 0.60061 0.80303 0.87977 0.0
C314 C 0.64429 0.86297 0.90025 0.0
C315 C 0.70676 0.89194 0.87963 0.0
H316 H 0.91702 0.57046 0.91139 0.0
H317 H 0.71792 0.50525 0.88843 0.0
H318 H 0.94093 0.64911 0.82866 0.0
H319 H 0.74202 0.58336 0.80495 0.0
H320 H 0.9509 0.7479 0.63098 0.0
H321 H 0.92797 0.66461 0.7082 0.0
H322 H 0.79215 0.69481 0.8074 0.0
H323 H 0.81398 0.77622 0.72937 0.0
C324 C 0.87825 0.57238 0.88821 0.0
C325 C 0.81549 0.53176 0.90703 0.0
C326 C 0.89204 0.61733 0.84054 0.0
C327 C 0.84341 0.62268 0.81068 0.0
C328 C 0.78059 0.58095 0.82794 0.0
C329 C 0.76676 0.53598 0.87553 0.0
C330 C 0.91619 0.73644 0.66939 0.0
C331 C 0.88481 0.76891 0.67521 0.0
C332 C 0.90332 0.68916 0.71371 0.0
C333 C 0.85809 0.67306 0.76373 0.0
C334 C 0.82674 0.70565 0.76903 0.0
C335 C 0.83994 0.75296 0.72516 0.0
loop_
_geom_bond_atom_site_label_1
_geom_bond_atom_site_label_2
_geom_bond_distance
_geom_bond_site_symmetry_2
_ccdc_geom_bond_type
Fe0 O2 1.918 . S
Fe0 O5 1.997 . S
Fe0 O6 2.002 . S
Fe0 O11 1.976 . S
Fe0 O14 1.996 . S
Fe1 O2 1.918 . S
Fe1 O9 1.997 . S
Fe1 O12 1.996 . S
Fe1 O16 1.976 . S
Fe1 O19 2.002 . S
O2 Fe0 1.918 . S
O2 Fe1 1.918 . S
O2 Fe3 1.918 . S
Fe3 O2 1.918 . S
Fe3 O4 2.002 . S
Fe3 O13 1.976 . S
Fe3 O17 1.996 . S
Fe3 O20 1.997 . S
O4 Fe3 2.002 . S
O4 C21 1.295 . S
O5 Fe0 1.997 . S
O5 C21 1.235 . S
O6 Fe0 2.002 . S
O6 C7 1.295 . S
C7 O6 1.295 . S
C7 O9 1.235 . S
C8 O13 1.287 . S
C8 O14 1.255 . S
O9 Fe1 1.997 . S
O9 C7 1.235 . S
C10 O16 1.287 . S
C10 O17 1.255 . S
O11 Fe0 1.976 . S
O11 C18 1.287 . S
O12 Fe1 1.996 . S
O12 C18 1.255 . S
O13 Fe3 1.976 . S
O13 C8 1.287 . S
O14 Fe0 1.996 . S
O14 C8 1.255 . S
C15 O19 1.295 . S
C15 O20 1.235 . S
O16 Fe1 1.976 . S
O16 C10 1.287 . S
O17 Fe3 1.996 . S
O17 C10 1.255 . S
C18 O11 1.287 . S
C18 O12 1.255 . S
O19 Fe1 2.002 . S
O19 C15 1.295 . S
O20 Fe3 1.997 . S
O20 C15 1.235 . S
C21 O4 1.295 . S
C21 O5 1.235 . S
Fe22 O24 1.918 . S
Fe22 O27 1.997 . S
Fe22 O28 2.002 . S
Fe22 O33 1.976 1_554 S
Fe22 O36 1.996 1_554 S
Fe23 O24 1.918 . S
Fe23 O31 1.997 . S
Fe23 O34 1.996 1_554 S
Fe23 O38 1.976 1_554 S
Fe23 O41 2.002 . S
O24 Fe22 1.918 . S
O24 Fe23 1.918 . S
O24 Fe25 1.918 . S
Fe25 O24 1.918 . S
Fe25 O26 2.002 . S
Fe25 O35 1.976 1_554 S
Fe25 O39 1.996 1_554 S
Fe25 O42 1.997 . S
O26 Fe25 2.002 . S
O26 C43 1.295 . S
O27 Fe22 1.997 . S
O27 C43 1.235 . S
O28 Fe22 2.002 . S
O28 C29 1.295 . S
C29 O28 1.295 . S
C29 O31 1.235 . S
C30 O35 1.287 . S
C30 O36 1.255 . S
O31 Fe23 1.997 . S
O31 C29 1.235 . S
C32 O38 1.287 . S
C32 O39 1.255 . S
O33 Fe22 1.976 1_556 S
O33 C40 1.287 . S
O34 Fe23 1.996 1_556 S
O34 C40 1.255 . S
O35 Fe25 1.976 1_556 S
O35 C30 1.287 . S
O36 Fe22 1.996 1_556 S
O36 C30 1.255 . S
C37 O41 1.295 . S
C37 O42 1.235 . S
O38 Fe23 1.976 1_556 S
O38 C32 1.287 . S
O39 Fe25 1.996 1_556 S
O39 C32 1.255 . S
C40 O33 1.287 . S
C40 O34 1.255 . S
O41 Fe23 2.002 . S
O41 C37 1.295 . S
O42 Fe25 1.997 . S
O42 C37 1.235 . S
C43 O26 1.295 . S
C43 O27 1.235 . S
Zn44 O46 1.933 . S
Zn44 O64 1.985 . S
Zn44 O75 1.955 . S
Zn45 O46 1.911 1_565 S
Zn45 O65 1.970 1_565 S
Zn45 O81 1.945 . S
Zn45 O88 1.981 . S
O46 Zn44 1.933 . S
O46 Zn45 1.911 1_545 S
O46 H47 0.841 1_445 S
H47 O46 0.841 1_665 S
C48 O49 1.246 . S
C48 O77 1.276 . S
O49 C48 1.246 . S
Zn50 O52 1.911 . S
Zn50 O67 1.970 . S
Zn50 O84 1.945 1_655 S
Zn50 O91 1.981 . S
Zn51 O52 1.933 1_545 S
Zn51 O66 1.985 1_545 S
Zn51 O73 1.955 1_655 S
O52 Zn50 1.911 . S
O52 Zn51 1.933 1_565 S
O52 H53 0.841 1_665 S
H53 O52 0.841 1_445 S
Zn54 O55 1.933 . S
Zn54 O68 1.985 . S
Zn54 O77 1.955 . S
O55 Zn54 1.933 . S
O55 Zn56 1.911 . S
O55 H57 0.841 . S
Zn56 O55 1.911 . S
Zn56 O69 1.970 . S
Zn56 O85 1.981 1_545 S
Zn56 O87 1.945 1_545 S
H57 O55 0.841 . S
Zn58 O59 1.933 . S
Zn58 O71 1.985 . S
Zn58 O79 1.955 1_565 S
O59 Zn58 1.933 . S
O59 H60 0.841 . S
O59 Zn61 1.911 . S
H60 O59 0.841 . S
Zn61 O59 1.911 . S
Zn61 O72 1.970 . S
Zn61 O82 1.981 . S
Zn61 O90 1.945 . S
C62 O63 1.246 . S
C62 O79 1.276 . S
O63 C62 1.246 . S
O64 Zn44 1.985 . S
O64 C74 1.245 . S
O65 Zn45 1.970 1_545 S
O65 C74 1.263 . S
O66 Zn51 1.985 1_565 S
O66 C78 1.245 . S
O67 Zn50 1.970 . S
O67 C78 1.263 . S
O68 Zn54 1.985 . S
O68 C83 1.245 . S
O69 Zn56 1.970 . S
O69 C83 1.263 . S
C70 O81 1.262 1_655 S
C70 O82 1.245 . S
O71 Zn58 1.985 . S
O71 C89 1.245 . S
O72 Zn61 1.970 . S
O72 C89 1.263 . S
O73 Zn51 1.955 1_455 S
O73 C92 1.276 . S
C74 O64 1.245 . S
C74 O65 1.263 . S
O75 Zn44 1.955 . S
O75 C94 1.276 1_455 S
C76 O84 1.262 . S
C76 O85 1.245 . S
O77 C48 1.276 . S
O77 Zn54 1.955 . S
C78 O66 1.245 . S
C78 O67 1.263 . S
O79 Zn58 1.955 1_545 S
O79 C62 1.276 . S
C80 O87 1.262 . S
C80 O88 1.245 . S
O81 Zn45 1.945 . S
O81 C70 1.262 1_455 S
O82 Zn61 1.981 . S
O82 C70 1.245 . S
C83 O68 1.245 . S
C83 O69 1.263 . S
O84 Zn50 1.945 1_455 S
O84 C76 1.262 . S
O85 Zn56 1.981 1_565 S
O85 C76 1.245 . S
C86 O90 1.262 . S
C86 O91 1.245 . S
O87 Zn56 1.945 1_565 S
O87 C80 1.262 . S
O88 Zn45 1.981 . S
O88 C80 1.245 . S
C89 O71 1.245 . S
C89 O72 1.263 . S
O90 Zn61 1.945 . S
O90 C86 1.262 . S
O91 Zn50 1.981 . S
O91 C86 1.245 . S
C92 O73 1.276 . S
C92 O93 1.246 . S
O93 C92 1.246 . S
C94 O75 1.276 1_655 S
C94 O95 1.246 . S
O95 C94 1.246 . S
H96 C104 0.950 . S
H97 C109 0.950 . S
H98 C106 0.950 . S
H99 C108 0.950 . S
H100 C110 0.950 . S
H101 C112 0.950 . S
H102 C114 0.950 . S
H103 C115 0.950 . S
C104 H96 0.950 . S
C104 C105 1.386 . S
C104 C106 1.391 . S
C105 C104 1.386 . S
C105 C109 1.393 . S
C106 H98 0.950 . S
C106 C104 1.391 . S
C106 C107 1.400 . S
C107 C106 1.400 . S
C107 C108 1.398 . S
C107 C113 1.491 . S
C108 H99 0.950 . S
C108 C107 1.398 . S
C108 C109 1.391 . S
C109 H97 0.950 . S
C109 C105 1.393 . S
C109 C108 1.391 . S
C110 H100 0.950 . S
C110 C111 1.386 . S
C110 C112 1.391 . S
C111 C110 1.386 . S
C111 C115 1.393 . S
C112 H101 0.950 . S
C112 C110 1.391 . S
C112 C113 1.400 . S
C113 C107 1.491 . S
C113 C112 1.400 . S
C113 C114 1.398 . S
C114 H102 0.950 . S
C114 C113 1.398 . S
C114 C115 1.391 . S
C115 H103 0.950 . S
C115 C111 1.393 . S
C115 C114 1.391 . S
H116 C124 0.950 . S
H117 C129 0.950 . S
H118 C126 0.950 . S
H119 C128 0.950 . S
H120 C130 0.950 . S
H121 C132 0.950 . S
H122 C134 0.950 . S
H123 C135 0.950 . S
C124 H116 0.950 . S
C124 C125 1.386 . S
C124 C126 1.391 . S
C125 C124 1.386 . S
C125 C129 1.393 . S
C126 H118 0.950 . S
C126 C124 1.391 . S
C126 C127 1.400 . S
C127 C126 1.400 . S
C127 C128 1.398 . S
C127 C133 1.491 . S
C128 H119 0.950 . S
C128 C127 1.398 . S
C128 C129 1.391 . S
C129 H117 0.950 . S
C129 C125 1.393 . S
C129 C128 1.391 . S
C130 H120 0.950 . S
C130 C131 1.386 . S
C130 C132 1.391 . S
C131 C130 1.386 . S
C131 C135 1.393 . S
C132 H121 0.950 . S
C132 C130 1.391 . S
C132 C133 1.400 . S
C133 C127 1.491 . S
C133 C132 1.400 . S
C133 C134 1.398 . S
C134 H122 0.950 . S
C134 C133 1.398 . S
C134 C135 1.391 . S
C135 H123 0.950 . S
C135 C131 1.393 . S
C135 C134 1.391 . S
H136 C144 0.950 . S
H137 C149 0.950 . S
H138 C146 0.950 . S
H139 C148 0.950 . S
H140 C150 0.950 . S
H141 C152 0.950 . S
H142 C154 0.950 . S
H143 C155 0.950 . S
C144 H136 0.950 . S
C144 C145 1.386 . S
C144 C146 1.391 . S
C145 C144 1.386 . S
C145 C149 1.393 . S
C146 H138 0.950 . S
C146 C144 1.391 . S
C146 C147 1.400 . S
C147 C146 1.400 . S
C147 C148 1.398 . S
C147 C153 1.491 . S
C148 H139 0.950 . S
C148 C147 1.398 . S
C148 C149 1.391 . S
C149 H137 0.950 . S
C149 C145 1.393 . S
C149 C148 1.391 . S
C150 H140 0.950 . S
C150 C151 1.386 . S
C150 C152 1.391 . S
C151 C150 1.386 . S
C151 C155 1.393 . S
C152 H141 0.950 . S
C152 C150 1.391 . S
C152 C153 1.400 . S
C153 C147 1.491 . S
C153 C152 1.400 . S
C153 C154 1.398 . S
C154 H142 0.950 . S
C154 C153 1.398 . S
C154 C155 1.391 . S
C155 H143 0.950 . S
C155 C151 1.393 . S
C155 C154 1.391 . S
H156 C164 0.950 . S
H157 C169 0.950 . S
H158 C166 0.950 . S
H159 C168 0.950 . S
H160 C170 0.950 . S
H161 C172 0.950 . S
H162 C174 0.950 . S
H163 C175 0.950 . S
C164 H156 0.950 . S
C164 C165 1.386 . S
C164 C166 1.391 . S
C165 C164 1.386 . S
C165 C169 1.393 . S
C166 H158 0.950 . S
C166 C164 1.391 . S
C166 C167 1.400 . S
C167 C166 1.400 . S
C167 C168 1.398 . S
C167 C173 1.491 . S
C168 H159 0.950 . S
C168 C167 1.398 . S
C168 C169 1.391 . S
C169 H157 0.950 . S
C169 C165 1.393 . S
C169 C168 1.391 . S
C170 H160 0.950 . S
C170 C171 1.386 . S
C170 C172 1.391 . S
C171 C170 1.386 . S
C171 C175 1.393 . S
C172 H161 0.950 . S
C172 C170 1.391 . S
C172 C173 1.400 . S
C173 C167 1.491 . S
C173 C172 1.400 . S
C173 C174 1.398 . S
C174 H162 0.950 . S
C174 C173 1.398 . S
C174 C175 1.391 . S
C175 H163 0.950 . S
C175 C171 1.393 . S
C175 C174 1.391 . S
H176 C184 0.950 . S
H177 C189 0.950 . S
H178 C186 0.950 . S
H179 C188 0.950 . S
H180 C190 0.950 . S
H181 C192 0.950 . S
H182 C194 0.950 . S
H183 C195 0.950 . S
C184 H176 0.950 . S
C184 C185 1.386 . S
C184 C186 1.391 . S
C185 C184 1.386 . S
C185 C189 1.393 . S
C186 H178 0.950 . S
C186 C184 1.391 . S
C186 C187 1.400 . S
C187 C186 1.400 . S
C187 C188 1.398 . S
C187 C193 1.491 . S
C188 H179 0.950 . S
C188 C187 1.398 . S
C188 C189 1.391 . S
C189 H177 0.950 . S
C189 C185 1.393 . S
C189 C188 1.391 . S
C190 H180 0.950 . S
C190 C191 1.386 . S
C190 C192 1.391 . S
C191 C190 1.386 . S
C191 C195 1.393 . S
C192 H181 0.950 . S
C192 C190 1.391 . S
C192 C193 1.400 . S
C193 C187 1.491 . S
C193 C192 1.400 . S
C193 C194 1.398 . S
C194 H182 0.950 . S
C194 C193 1.398 . S
C194 C195 1.391 . S
C195 H183 0.950 . S
C195 C191 1.393 . S
C195 C194 1.391 . S
H196 C204 0.950 . S
H197 C209 0.950 . S
H198 C206 0.950 . S
H199 C208 0.950 . S
H200 C210 0.950 . S
H201 C212 0.950 . S
H202 C214 0.950 . S
H203 C215 0.950 . S
C204 H196 0.950 . S
C204 C205 1.386 . S
C204 C206 1.391 . S
C205 C204 1.386 . S
C205 C209 1.393 . S
C206 H198 0.950 . S
C206 C204 1.391 . S
C206 C207 1.400 . S
C207 C206 1.400 . S
C207 C208 1.398 . S
C207 C213 1.491 . S
C208 H199 0.950 . S
C208 C207 1.398 . S
C208 C209 1.391 . S
C209 H197 0.950 . S
C209 C205 1.393 . S
C209 C208 1.391 . S
C210 H200 0.950 . S
C210 C211 1.386 . S
C210 C212 1.391 . S
C211 C210 1.386 . S
C211 C215 1.393 . S
C212 H201 0.950 . S
C212 C210 1.391 . S
C212 C213 1.400 . S
C213 C207 1.491 . S
C213 C212 1.400 . S
C213 C214 1.398 . S
C214 H202 0.950 . S
C214 C213 1.398 . S
C214 C215 1.391 . S
C215 H203 0.950 . S
C215 C211 1.393 . S
C215 C214 1.391 . S
H216 C224 0.950 . S
H217 C229 0.950 . S
H218 C226 0.950 . S
H219 C228 0.950 1_554 S
H220 C230 0.950 . S
H221 C232 0.950 . S
H222 C234 0.950 . S
H223 C235 0.950 . S
C224 H216 0.950 . S
C224 C225 1.386 1_556 S
C224 C226 1.391 . S
C225 C224 1.386 1_554 S
C225 C229 1.393 . S
C226 H218 0.950 . S
C226 C224 1.391 . S
C226 C227 1.400 . S
C227 C226 1.400 . S
C227 C228 1.398 . S
C227 C233 1.491 . S
C228 H219 0.950 1_556 S
C228 C227 1.398 . S
C228 C229 1.391 1_556 S
C229 H217 0.950 . S
C229 C225 1.393 . S
C229 C228 1.391 1_554 S
C230 H220 0.950 . S
C230 C231 1.386 . S
C230 C232 1.391 . S
C231 C230 1.386 . S
C231 C235 1.393 . S
C232 H221 0.950 . S
C232 C230 1.391 . S
C232 C233 1.400 . S
C233 C227 1.491 . S
C233 C232 1.400 . S
C233 C234 1.398 . S
C234 H222 0.950 . S
C234 C233 1.398 . S
C234 C235 1.391 . S
C235 H223 0.950 . S
C235 C231 1.393 . S
C235 C234 1.391 . S
H236 C244 0.950 . S
H237 C249 0.950 . S
H238 C246 0.950 . S
H239 C248 0.950 . S
H240 C250 0.950 . S
H241 C252 0.950 . S
H242 C254 0.950 . S
H243 C255 0.950 . S
C244 H236 0.950 . S
C244 C245 1.386 . S
C244 C246 1.391 . S
C245 C244 1.386 . S
C245 C249 1.393 . S
C246 H238 0.950 . S
C246 C244 1.391 . S
C246 C247 1.400 . S
C247 C246 1.400 . S
C247 C248 1.398 . S
C247 C253 1.491 . S
C248 H239 0.950 . S
C248 C247 1.398 . S
C248 C249 1.391 . S
C249 H237 0.950 . S
C249 C245 1.393 . S
C249 C248 1.391 . S
C250 H240 0.950 . S
C250 C251 1.386 . S
C250 C252 1.391 . S
C251 C250 1.386 . S
C251 C255 1.393 . S
C252 H241 0.950 . S
C252 C250 1.391 . S
C252 C253 1.400 . S
C253 C247 1.491 . S
C253 C252 1.400 . S
C253 C254 1.398 . S
C254 H242 0.950 . S
C254 C253 1.398 . S
C254 C255 1.391 . S
C255 H243 0.950 . S
C255 C251 1.393 . S
C255 C254 1.391 . S
H256 C264 0.950 . S
H257 C269 0.950 . S
H258 C266 0.950 . S
H259 C268 0.950 1_554 S
H260 C270 0.950 . S
H261 C272 0.950 . S
H262 C274 0.950 . S
H263 C275 0.950 . S
C264 H256 0.950 . S
C264 C265 1.386 1_556 S
C264 C266 1.391 . S
C265 C264 1.386 1_554 S
C265 C269 1.393 . S
C266 H258 0.950 . S
C266 C264 1.391 . S
C266 C267 1.400 . S
C267 C266 1.400 . S
C267 C268 1.398 . S
C267 C273 1.491 . S
C268 H259 0.950 1_556 S
C268 C267 1.398 . S
C268 C269 1.391 1_556 S
C269 H257 0.950 . S
C269 C265 1.393 . S
C269 C268 1.391 1_554 S
C270 H260 0.950 . S
C270 C271 1.386 . S
C270 C272 1.391 . S
C271 C270 1.386 . S
C271 C275 1.393 . S
C272 H261 0.950 . S
C272 C270 1.391 . S
C272 C273 1.400 . S
C273 C267 1.491 . S
C273 C272 1.400 . S
C273 C274 1.398 . S
C274 H262 0.950 . S
C274 C273 1.398 . S
C274 C275 1.391 . S
C275 H263 0.950 . S
C275 C271 1.393 . S
C275 C274 1.391 . S
H276 C284 0.950 . S
H277 C289 0.950 . S
H278 C286 0.950 . S
H279 C288 0.950 . S
H280 C290 0.950 . S
H281 C292 0.950 . S
H282 C294 0.950 . S
H283 C295 0.950 . S
C284 H276 0.950 . S
C284 C285 1.386 . S
C284 C286 1.391 . S
C285 C284 1.386 . S
C285 C289 1.393 . S
C286 H278 0.950 . S
C286 C284 1.391 . S
C286 C287 1.400 . S
C287 C286 1.400 . S
C287 C288 1.398 . S
C287 C293 1.491 . S
C288 H279 0.950 . S
C288 C287 1.398 . S
C288 C289 1.391 . S
C289 H277 0.950 . S
C289 C285 1.393 . S
C289 C288 1.391 . S
C290 H280 0.950 . S
C290 C291 1.386 . S
C290 C292 1.391 . S
C291 C290 1.386 . S
C291 C295 1.393 . S
C292 H281 0.950 . S
C292 C290 1.391 . S
C292 C293 1.400 . S
C293 C287 1.491 . S
C293 C292 1.400 . S
C293 C294 1.398 . S
C294 H282 0.950 . S
C294 C293 1.398 . S
C294 C295 1.391 . S
C295 H283 0.950 . S
C295 C291 1.393 . S
C295 C294 1.391 . S
H296 C304 0.950 . S
H297 C309 0.950 . S
H298 C306 0.950 . S
H299 C308 0.950 . S
H300 C310 0.950 . S
H301 C312 0.950 . S
H302 C314 0.950 . S
H303 C315 0.950 . S
C304 H296 0.950 . S
C304 C305 1.386 . S
C304 C306 1.391 . S
C305 C304 1.386 . S
C305 C309 1.393 1_554 S
C306 H298 0.950 . S
C306 C304 1.391 . S
C306 C307 1.400 1_554 S
C307 C306 1.400 1_556 S
C307 C308 1.398 . S
C307 C313 1.491 . S
C308 H299 0.950 . S
C308 C307 1.398 . S
C308 C309 1.391 . S
C309 H297 0.950 . S
C309 C305 1.393 1_556 S
C309 C308 1.391 . S
C310 H300 0.950 . S
C310 C311 1.386 . S
C310 C312 1.391 . S
C311 C310 1.386 . S
C311 C315 1.393 . S
C312 H301 0.950 . S
C312 C310 1.391 . S
C312 C313 1.400 . S
C313 C307 1.491 . S
C313 C312 1.400 . S
C313 C314 1.398 . S
C314 H302 0.950 . S
C314 C313 1.398 . S
C314 C315 1.391 . S
C315 H303 0.950 . S
C315 C311 1.393 . S
C315 C314 1.391 . S
H316 C324 0.950 . S
H317 C329 0.950 . S
H318 C326 0.950 . S
H319 C328 0.950 . S
H320 C330 0.950 . S
H321 C332 0.950 . S
H322 C334 0.950 . S
H323 C335 0.950 . S
C324 H316 0.950 . S
C324 C325 1.386 . S
C324 C326 1.391 . S
C325 C324 1.386 . S
C325 C329 1.393 . S
C326 H318 0.950 . S
C326 C324 1.391 . S
C326 C327 1.400 . S
C327 C326 1.400 . S
C327 C328 1.398 . S
C327 C333 1.491 . S
C328 H319 0.950 . S
C328 C327 1.398 . S
C328 C329 1.391 . S
C329 H317 0.950 . S
C329 C325 1.393 . S
C329 C328 1.391 . S
C330 H320 0.950 . S
C330 C331 1.386 . S
C330 C332 1.391 . S
C331 C330 1.386 . S
C331 C335 1.393 . S
C332 H321 0.950 . S
C332 C330 1.391 . S
C332 C333 1.400 . S
C333 C327 1.491 . S
C333 C332 1.400 . S
C333 C334 1.398 . S
C334 H322 0.950 . S
C334 C333 1.398 . S
C334 C335 1.391 . S
C335 H323 0.950 . S
C335 C331 1.393 . S
C335 C334 1.391 . S
C105 C8 1.398 . S
C111 C80 1.386 . S
C131 C74 1.753 . S
C125 C29 1.732 . S
C151 C48 1.416 . S
C145 C10 1.440 . S
C171 C94 1.941 . S
C165 C37 2.014 . S
C191 C89 0.265 . S
C185 C18 0.250 . S
C205 C43 1.935 . S
C211 C70 1.869 . S
C225 C21 1.929 . S
C231 C76 1.883 . S
C245 C40 0.233 . S
C251 C83 0.247 . S
C265 C15 2.013 . S
C271 C92 1.945 . S
C285 C32 1.435 . S
C291 C62 1.431 . S
C311 C78 1.743 . S
C305 C7 1.719 . S
C325 C30 1.399 . S
C331 C86 1.381 . S
