# Generated by pormake.
# Topology pth, (4,4)-cn, num edge types: 1
# Building blocks:
#     Node 0, Type 0, BuildingBlock: QUQFOY_clean_sbu_1, # of connection points: 4
#     Node 1, Type 0, BuildingBlock: QUQFOY_clean_sbu_1, # of connection points: 4
#     Node 2, Type 0, BuildingBlock: QUQFOY_clean_sbu_1, # of connection points: 4
#     Node 3, Type 1, BuildingBlock: KOZSID_clean_sbu_0, # of connection points: 4
#     Node 4, Type 1, BuildingBlock: KOZSID_clean_sbu_0, # of connection points: 4
#     Node 5, Type 1, BuildingBlock: KOZSID_clean_sbu_0, # of connection points: 4
#     Edge 6, Type (0, 1), BuildingBlock: OJICUG_clean_linker_0, # of connection points: 2
#     Edge 7, Type (0, 1), BuildingBlock: OJICUG_clean_linker_0, # of connection points: 2
#     Edge 8, Type (0, 1), BuildingBlock: OJICUG_clean_linker_0, # of connection points: 2
#     Edge 9, Type (0, 1), BuildingBlock: OJICUG_clean_linker_0, # of connection points: 2
#     Edge 10, Type (0, 1), BuildingBlock: OJICUG_clean_linker_0, # of connection points: 2
#     Edge 11, Type (0, 1), BuildingBlock: OJICUG_clean_linker_0, # of connection points: 2
#     Edge 12, Type (0, 1), BuildingBlock: OJICUG_clean_linker_0, # of connection points: 2
#     Edge 13, Type (0, 1), BuildingBlock: OJICUG_clean_linker_0, # of connection points: 2
#     Edge 14, Type (0, 1), BuildingBlock: OJICUG_clean_linker_0, # of connection points: 2
#     Edge 15, Type (0, 1), BuildingBlock: OJICUG_clean_linker_0, # of connection points: 2
#     Edge 16, Type (0, 1), BuildingBlock: OJICUG_clean_linker_0, # of connection points: 2
#     Edge 17, Type (0, 1), BuildingBlock: OJICUG_clean_linker_0, # of connection points: 2
# Relax obj value: 0.024
# Max RMSD: 0.127
# Mean RMSD: 0.072
data_MOF--net-pth--node1-QUQFOY_clean_sbu_1--node2-KOZSID_clean_sbu_0--edge1-OJICUG_clean_linker_0
_symmetry_space_group_name_H-M    P1
_symmetry_Int_Tables_number       1
_symmetry_cell_setting            triclinic
loop_
_symmetry_equiv_pos_as_xyz
'x, y, z'
_cell_length_a     19.372024
_cell_length_b     21.383932
_cell_length_c     47.245952
_cell_angle_alpha  86.791221
_cell_angle_beta   86.387764
_cell_angle_gamma 120.17753
loop_
_atom_site_label
_atom_site_type_symbol
_atom_site_fract_x
_atom_site_fract_y
_atom_site_fract_z
_atom_type_partial_charge
O0 O 0.1278 0.15813 0.00668 0.0
Cd1 Cd 0.03478 0.09838 0.03792 0.0
Cd2 Cd 0.1165 0.0296 0.04394 0.0
O3 O 0.2113 0.13092 0.02596 0.0
O4 O 0.99505 0.16522 0.04775 0.0
O5 O 0.05638 0.13056 0.07736 0.0
C6 C 0.02637 0.17127 0.07151 0.0
C7 C 0.12544 0.9528 0.07901 0.0
C8 C 0.19858 0.17039 0.0083 0.0
C9 C 0.96202 0.95662 0.01631 0.0
O10 O 0.03157 0.96573 0.01807 0.0
O11 O 0.94355 1.00047 0.02682 0.0
O12 O 0.16066 0.96543 0.05355 0.0
O13 O 0.09177 0.98986 0.08557 0.0
O14 O 0.99621 0.12743 0.39622 0.0
Cd15 Cd 0.09668 0.16027 0.36824 0.0
Cd16 Cd 0.02705 0.01163 0.37088 0.0
O17 O 0.92676 0.01081 0.38967 0.0
O18 O 0.13077 0.26413 0.3574 0.0
O19 O 0.08649 0.18101 0.3269 0.0
C20 C 0.10883 0.24666 0.33245 0.0
C21 C 0.0246 0.9317 0.33823 0.0
C22 C 0.93197 0.06605 0.40046 0.0
C23 C 0.18072 0.09729 0.39818 0.0
O24 O 0.11653 0.03735 0.39678 0.0
O25 O 0.19159 0.15559 0.38489 0.0
O26 O 0.99408 0.90916 0.36436 0.0
O27 O 0.05129 0.99928 0.32988 0.0
O28 O 0.98864 0.02266 0.68341 0.0
Cd29 Cd 0.05748 0.00444 0.71047 0.0
Cd30 Cd 0.13222 0.14787 0.70585 0.0
O31 O 0.0258 0.13436 0.69261 0.0
O32 O 0.98691 0.89857 0.72298 0.0
O33 O 0.01783 0.98342 0.75245 0.0
C34 C 0.97676 0.91569 0.74801 0.0
C35 C 0.202 0.22076 0.74108 0.0
C36 C 0.97928 0.07734 0.68118 0.0
C37 C 0.21459 0.08013 0.67619 0.0
O38 O 0.20438 0.13436 0.67589 0.0
O39 O 0.16765 0.02243 0.69253 0.0
O40 O 0.20003 0.24881 0.71644 0.0
O41 O 0.15978 0.15078 0.74642 0.0
C42 C 0.16496 0.71357 0.15913 0.0
C43 C 0.24009 0.76767 0.1465 0.0
C44 C 0.29505 0.75413 0.15754 0.0
C45 C 0.25085 0.69314 0.17631 0.0
N46 N 0.17082 0.66638 0.17783 0.0
Co47 Co 0.08579 0.57918 0.20303 0.0
N48 N 0.16818 0.56793 0.22281 0.0
C49 C 0.24866 0.61251 0.21842 0.0
C50 C 0.29061 0.59168 0.23494 0.0
C51 C 0.23355 0.52975 0.25086 0.0
C52 C 0.15964 0.51638 0.2431 0.0
N53 N 1.0011 0.48869 0.2268 0.0
C54 C 0.0082 0.4418 0.24536 0.0
C55 C 0.93378 0.38236 0.25547 0.0
C56 C 0.87782 0.39142 0.24254 0.0
C57 C 0.92103 0.45555 0.22528 0.0
N58 N 0.00381 0.59443 0.18479 0.0
C59 C 0.9232 0.55348 0.19087 0.0
C60 C 0.88213 0.58012 0.17679 0.0
C61 C 0.94006 0.64277 0.16125 0.0
C62 C 0.01345 0.65069 0.16672 0.0
N63 N 0.08491 0.51499 0.17372 0.0
C64 C 0.07069 0.40598 0.13903 0.0
C65 C 0.00835 0.4203 0.14374 0.0
C66 C 0.01676 0.47452 0.16071 0.0
C67 C 0.14208 0.44972 0.15101 0.0
C68 C 0.14822 0.50408 0.16789 0.0
N69 N 0.08424 0.64202 0.23234 0.0
C70 C 0.00629 0.6683 0.26655 0.0
C71 C 0.07095 0.73817 0.26801 0.0
C72 C 0.14385 0.75813 0.25212 0.0
C73 C 0.14948 0.70915 0.2348 0.0
C74 C 0.01416 0.62167 0.24892 0.0
H75 H 0.20667 0.72701 0.22322 0.0
H76 H 0.96154 0.57002 0.24855 0.0
H77 H 0.96589 0.48095 0.16344 0.0
H78 H 0.20433 0.53585 0.17632 0.0
C79 C 0.28322 0.66754 0.19608 0.0
C80 C 0.09058 0.71217 0.15408 0.0
C81 C 0.08378 0.45159 0.25421 0.0
C82 C 0.88828 0.48879 0.20896 0.0
H83 H 0.25444 0.81405 0.13172 0.0
H84 H 0.35979 0.78732 0.15363 0.0
H85 H 0.35512 0.61666 0.23451 0.0
H86 H 0.24549 0.49686 0.26573 0.0
H87 H 0.92128 0.33721 0.27066 0.0
H88 H 0.81328 0.3558 0.24554 0.0
H89 H 0.81775 0.55684 0.17773 0.0
H90 H 0.92955 0.67866 0.14749 0.0
H91 H 0.9517 0.38826 0.13508 0.0
H92 H 0.19309 0.44222 0.14737 0.0
H93 H 0.94847 0.65005 0.27832 0.0
H94 H 0.19631 0.81114 0.25306 0.0
C95 C 0.43437 0.01494 0.58449 0.0
C96 C 0.36639 0.94925 0.59504 0.0
C97 C 0.37024 0.89641 0.58149 0.0
C98 C 0.43918 0.93254 0.56319 0.0
N99 N 0.48002 0.00541 0.56417 0.0
Co100 Co 0.57839 0.07852 0.53864 0.0
N101 N 0.5843 0.99982 0.51926 0.0
C102 C 0.53513 0.92723 0.52547 0.0
C103 C 0.55317 0.8863 0.50863 0.0
C104 C 0.6184 0.93553 0.49067 0.0
C105 C 0.63682 0.00407 0.49778 0.0
N106 N 0.6744 0.15151 0.51214 0.0
C107 C 0.7178 0.14173 0.49095 0.0
C108 C 0.77984 0.20781 0.47774 0.0
C109 C 0.77477 0.26099 0.49071 0.0
C110 C 0.71051 0.22476 0.51112 0.0
N111 N 0.57453 0.15677 0.55904 0.0
C112 C 0.62754 0.22905 0.55436 0.0
C113 C 0.61296 0.26924 0.57282 0.0
C114 C 0.54667 0.21972 0.59041 0.0
C115 C 0.52382 0.15187 0.5814 0.0
N116 N 0.64901 0.07486 0.56664 0.0
C117 C 0.74882 0.07234 0.60725 0.0
C118 C 0.76922 0.1364 0.5906 0.0
C119 C 0.71906 0.13647 0.57072 0.0
C120 C 0.67747 0.00916 0.60303 0.0
C121 C 0.62896 0.01156 0.58271 0.0
N122 N 0.50815 0.08318 0.51064 0.0
C123 C 0.46364 0.1526 0.48292 0.0
C124 C 0.40708 0.09036 0.47152 0.0
C125 C 0.40326 0.02463 0.47972 0.0
C126 C 0.45334 0.02218 0.49924 0.0
C127 C 0.51331 0.14791 0.50209 0.0
H128 H 0.44629 0.97018 0.50485 0.0
H129 H 0.5549 0.19753 0.50986 0.0
H130 H 0.73875 0.18727 0.55886 0.0
H131 H 0.5755 0.96164 0.58038 0.0
C132 C 0.46826 0.89927 0.54549 0.0
C133 C 0.4528 0.0847 0.59445 0.0
C134 C 0.70415 0.07128 0.48324 0.0
C135 C 0.68771 0.25771 0.53148 0.0
H136 H 0.3184 0.93993 0.6108 0.0
H137 H 0.32773 0.83851 0.58457 0.0
H138 H 0.52144 0.82768 0.5089 0.0
H139 H 0.64821 0.92225 0.47396 0.0
H140 H 0.8252 0.21695 0.46083 0.0
H141 H 0.81468 0.31915 0.48633 0.0
H142 H 0.64615 0.32766 0.57328 0.0
H143 H 0.51813 0.23231 0.60781 0.0
H144 H 0.82462 0.18649 0.59244 0.0
H145 H 0.65858 0.95806 0.61548 0.0
H146 H 0.46868 0.20478 0.47765 0.0
H147 H 0.36176 0.97485 0.47115 0.0
C148 C 0.7403 0.63378 0.84093 0.0
C149 C 0.80409 0.62662 0.83006 0.0
C150 C 0.79562 0.5654 0.8441 0.0
C151 C 0.7277 0.53885 0.86269 0.0
N152 N 0.69199 0.57921 0.86146 0.0
Co153 Co 0.59183 0.55922 0.88512 0.0
N154 N 0.58331 0.47203 0.90701 0.0
C155 C 0.63735 0.44976 0.90498 0.0
C156 C 0.61589 0.38805 0.92235 0.0
C157 C 0.54367 0.36958 0.93642 0.0
C158 C 0.52537 0.42176 0.92693 0.0
N159 N 0.48826 0.53568 0.90718 0.0
C160 C 0.43752 0.4781 0.92629 0.0
C161 C 0.37081 0.48222 0.93591 0.0
C162 C 0.379 0.5437 0.92204 0.0
C163 C 0.44996 0.57368 0.90483 0.0
N164 N 0.60389 0.64944 0.86457 0.0
C165 C 0.55669 0.67818 0.8697 0.0
C166 C 0.58204 0.74281 0.85366 0.0
C167 C 0.65036 0.75687 0.83763 0.0
C168 C 0.66284 0.69978 0.84485 0.0
N169 N 0.52705 0.49846 0.85587 0.0
C170 C 0.42293 0.40661 0.81803 0.0
C171 C 0.42369 0.46995 0.82433 0.0
C172 C 0.4756 0.51457 0.84303 0.0
C173 C 0.47673 0.39079 0.8306 0.0
C174 C 0.52847 0.4375 0.84915 0.0
N175 N 0.65579 0.62096 0.91455 0.0
C176 C 0.6712 0.70275 0.95034 0.0
C177 C 0.75186 0.72397 0.95118 0.0
C178 C 0.78239 0.68947 0.93444 0.0
C179 C 0.7335 0.6379 0.91674 0.0
C180 C 0.62496 0.65207 0.93211 0.0
H181 H 0.76063 0.61356 0.90471 0.0
H182 H 0.56465 0.64025 0.93257 0.0
H183 H 0.47185 0.56129 0.84716 0.0
H184 H 0.56867 0.42309 0.85804 0.0
C185 C 0.7016 0.4816 0.88381 0.0
C186 C 0.73115 0.6956 0.83225 0.0
C187 C 0.45065 0.41926 0.93637 0.0
C188 C 0.48578 0.64033 0.88808 0.0
H189 H 0.85332 0.66303 0.81429 0.0
H190 H 0.83599 0.54442 0.84185 0.0
H191 H 0.64718 0.3581 0.92363 0.0
H192 H 0.50781 0.32165 0.95127 0.0
H193 H 0.32171 0.44513 0.95161 0.0
H194 H 0.33874 0.56473 0.9246 0.0
H195 H 0.55366 0.77537 0.85339 0.0
H196 H 0.68673 0.80376 0.82228 0.0
H197 H 0.38292 0.48448 0.81536 0.0
H198 H 0.4794 0.34296 0.82599 0.0
H199 H 0.64332 0.72538 0.96361 0.0
H200 H 0.8444 0.70334 0.93428 0.0
C201 C 0.07645 0.2415 0.11416 0.0
C202 C 0.03403 0.22815 0.08997 0.0
H203 H 0.1215 0.3079 0.14858 0.0
C204 C 0.00451 0.27398 0.08206 0.0
H205 H 0.10062 0.20766 0.12074 0.0
C206 C 0.0174 0.33182 0.09772 0.0
C207 C 0.06001 0.34559 0.12187 0.0
H208 H 0.97241 0.26603 0.06339 0.0
H209 H 0.99479 0.36651 0.09059 0.0
C210 C 0.08936 0.29958 0.12991 0.0
C211 C 0.85778 0.03089 0.44872 0.0
C212 C 0.86668 0.05913 0.42037 0.0
H213 H 0.80067 0.01473 0.49106 0.0
C214 C 0.82156 0.09081 0.41251 0.0
H215 H 0.89362 0.00787 0.45529 0.0
C216 C 0.76771 0.09381 0.4328 0.0
C217 C 0.7603 0.06728 0.46138 0.0
H218 H 0.829 0.11423 0.39081 0.0
H219 H 0.73293 0.11802 0.42635 0.0
C220 C 0.80547 0.03547 0.46913 0.0
C221 C 0.90733 0.87566 0.79812 0.0
C222 C 0.91513 0.85974 0.77 0.0
H223 H 0.84251 0.83572 0.83995 0.0
C224 C 0.86005 0.79042 0.76242 0.0
H225 H 0.94835 0.92866 0.80458 0.0
C226 C 0.79891 0.73827 0.78242 0.0
C227 C 0.79202 0.75381 0.81054 0.0
H228 H 0.86357 0.7765 0.74089 0.0
H229 H 0.7576 0.68518 0.77607 0.0
C230 C 0.84653 0.82292 0.81826 0.0
C231 C 0.13264 0.84 0.08804 0.0
C232 C 0.11715 0.89232 0.09878 0.0
H233 H 0.13353 0.74095 0.09696 0.0
C234 C 0.08869 0.88287 0.12776 0.0
H235 H 0.15322 0.84471 0.06575 0.0
C236 C 0.07798 0.82332 0.14568 0.0
C237 C 0.0944 0.77178 0.13482 0.0
H238 H 0.0753 0.92169 0.13661 0.0
H239 H 0.058 0.81798 0.16808 0.0
C240 C 0.12061 0.78012 0.10578 0.0
C241 C 0.21712 0.03666 0.43616 0.0
C242 C 0.24028 0.0974 0.41648 0.0
H243 H 0.24977 0.98773 0.46919 0.0
C244 C 0.31924 0.15645 0.41488 0.0
H245 H 0.15649 0.99044 0.43829 0.0
C246 C 0.37393 0.15421 0.43246 0.0
C247 C 0.35042 0.09321 0.4522 0.0
H248 H 0.33899 0.20391 0.39989 0.0
H249 H 0.43478 0.19998 0.43034 0.0
C250 C 0.27108 0.0348 0.45384 0.0
C251 C 0.29801 0.34364 0.75553 0.0
C252 C 0.25546 0.2676 0.76161 0.0
H253 H 0.38476 0.44656 0.7681 0.0
C254 C 0.26871 0.23729 0.78642 0.0
H255 H 0.28989 0.36893 0.73651 0.0
C256 C 0.32372 0.28209 0.80458 0.0
C257 C 0.36624 0.3582 0.79843 0.0
H258 H 0.23736 0.1789 0.79165 0.0
H259 H 0.33222 0.25719 0.82363 0.0
C260 C 0.35249 0.38827 0.77369 0.0
C261 C 0.9026 0.13308 0.66129 0.0
C262 C 0.91647 0.07467 0.66398 0.0
H263 H 0.83743 0.17744 0.64194 0.0
C264 C 0.87153 0.0139 0.64911 0.0
H265 H 0.93569 0.18047 0.67258 0.0
C266 C 0.81596 0.01245 0.6313 0.0
C267 C 0.80344 0.07158 0.62797 0.0
H268 H 0.88056 0.96783 0.65063 0.0
H269 H 0.7848 0.96586 0.61942 0.0
C270 C 0.84656 0.13145 0.64356 0.0
C271 C 0.84132 0.897 0.98903 0.0
C272 C 0.90463 0.89544 1.00125 0.0
H273 H 0.74552 0.84596 0.96286 0.0
C274 C 0.9158 0.8361 0.99773 0.0
H275 H 0.83168 0.94229 0.99114 0.0
C276 C 0.8656 0.78006 0.98202 0.0
C277 C 0.80345 0.78227 0.96902 0.0
H278 H 0.96368 0.83292 0.00713 0.0
H279 H 0.87562 0.73494 0.98015 0.0
C280 C 0.79174 0.84141 0.97289 0.0
C281 C 1.00285 0.80901 0.32936 0.0
C282 C 0.03402 0.8824 0.31943 0.0
H283 H 0.99162 0.70701 0.32142 0.0
C284 C 0.07885 0.90862 0.29247 0.0
H285 H 0.96875 0.78699 0.35011 0.0
C286 C 0.09233 0.86243 0.27594 0.0
C287 C 0.06086 0.78894 0.28594 0.0
H288 H 0.10433 0.96501 0.28428 0.0
H289 H 0.12631 0.88395 0.25516 0.0
C290 C 0.01604 0.76301 0.31288 0.0
C291 C 0.29857 0.12374 0.62928 0.0
C292 C 0.2783 0.08351 0.65612 0.0
H293 H 0.36825 0.15393 0.58855 0.0
C294 C 0.31853 0.04644 0.66317 0.0
H295 H 0.26825 0.15262 0.62325 0.0
C296 C 0.37788 0.04948 0.64363 0.0
C297 C 0.39576 0.08739 0.61639 0.0
H298 H 0.30446 0.01556 0.68379 0.0
H299 H 0.40835 0.0206 0.64946 0.0
C300 C 0.35589 0.12479 0.60947 0.0
C301 C 0.33972 0.27607 0.99971 0.0
C302 C 0.265 0.23185 0.98975 0.0
H303 H 0.45623 0.37232 0.99093 0.0
C304 C 0.25173 0.24971 0.96231 0.0
H305 H 0.35097 0.26407 0.02093 0.0
C306 C 0.3122 0.31019 0.94502 0.0
C307 C 0.38644 0.35509 0.95508 0.0
H308 H 0.1945 0.21658 0.95416 0.0
H309 H 0.30094 0.32219 0.9238 0.0
C310 C 0.39953 0.33796 0.98267 0.0
C311 C 0.11534 0.36532 0.32062 0.0
C312 C 0.10321 0.29889 0.31197 0.0
H313 H 0.11658 0.46453 0.30929 0.0
C314 C 0.08083 0.28154 0.28442 0.0
H315 H 0.13169 0.38021 0.34176 0.0
C316 C 0.07209 0.33013 0.26588 0.0
C317 C 0.08487 0.39649 0.27464 0.0
H318 H 0.07031 0.2306 0.27717 0.0
H319 H 0.05656 0.3165 0.24455 0.0
C320 C 0.10591 0.41336 0.30221 0.0
loop_
_geom_bond_atom_site_label_1
_geom_bond_atom_site_label_2
_geom_bond_distance
_geom_bond_site_symmetry_2
_ccdc_geom_bond_type
O0 Cd1 2.223 1_556 S
O0 C8 1.315 . S
Cd1 O0 2.223 1_554 S
Cd1 O4 2.297 . S
Cd1 O5 2.439 . S
Cd1 O11 2.240 1_545 S
Cd2 O3 2.240 . S
Cd2 O10 2.223 1_544 S
Cd2 O12 2.297 1_545 S
Cd2 O13 2.439 1_545 S
O3 Cd2 2.240 . S
O3 C8 1.279 1_554 S
O4 Cd1 2.297 . S
O4 C6 1.247 . S
O5 Cd1 2.439 . S
O5 C6 1.208 . S
C6 O4 1.247 . S
C6 O5 1.208 . S
C7 O12 1.247 . S
C7 O13 1.208 . S
C8 O0 1.315 . S
C8 O3 1.279 1_556 S
C9 O10 1.315 . S
C9 O11 1.278 1_556 S
O10 Cd2 2.223 1_566 S
O10 C9 1.315 . S
O11 Cd1 2.240 1_565 S
O11 C9 1.278 1_554 S
O12 Cd2 2.297 1_565 S
O12 C7 1.247 . S
O13 Cd2 2.439 1_565 S
O13 C7 1.208 . S
O14 Cd15 2.223 . S
O14 C22 1.315 1_455 S
Cd15 O14 2.223 . S
Cd15 O18 2.297 . S
Cd15 O19 2.439 . S
Cd15 O25 2.240 . S
Cd16 O17 2.240 1_565 S
Cd16 O24 2.223 1_665 S
Cd16 O26 2.297 1_655 S
Cd16 O27 2.439 1_665 S
O17 Cd16 2.240 1_545 S
O17 C22 1.279 . S
O18 Cd15 2.297 . S
O18 C20 1.247 . S
O19 Cd15 2.439 . S
O19 C20 1.208 . S
C20 O18 1.247 . S
C20 O19 1.208 . S
C21 O26 1.247 . S
C21 O27 1.208 1_565 S
C22 O14 1.315 1_655 S
C22 O17 1.279 . S
C23 O24 1.315 . S
C23 O25 1.279 . S
O24 Cd16 2.223 1_445 S
O24 C23 1.315 . S
O25 Cd15 2.240 . S
O25 C23 1.279 . S
O26 Cd16 2.297 1_455 S
O26 C21 1.247 . S
O27 Cd16 2.439 1_445 S
O27 C21 1.208 1_545 S
O28 Cd29 2.223 1_655 S
O28 C36 1.315 1_565 S
Cd29 O28 2.223 1_455 S
Cd29 O32 2.297 1_455 S
Cd29 O33 2.439 1_455 S
Cd29 O39 2.240 1_565 S
Cd30 O31 2.240 . S
Cd30 O38 2.223 . S
Cd30 O40 2.297 . S
Cd30 O41 2.439 . S
O31 Cd30 2.240 . S
O31 C36 1.279 1_455 S
O32 Cd29 2.297 1_655 S
O32 C34 1.247 . S
O33 Cd29 2.439 1_655 S
O33 C34 1.208 . S
C34 O32 1.247 . S
C34 O33 1.208 . S
C35 O40 1.247 . S
C35 O41 1.208 . S
C36 O28 1.315 1_545 S
C36 O31 1.279 1_655 S
C37 O38 1.315 . S
C37 O39 1.279 . S
O38 Cd30 2.223 . S
O38 C37 1.315 . S
O39 Cd29 2.240 1_545 S
O39 C37 1.279 . S
O40 Cd30 2.297 . S
O40 C35 1.247 . S
O41 Cd30 2.439 . S
O41 C35 1.208 . S
C42 C43 1.443 . S
C42 N46 1.376 . S
C42 C80 1.389 . S
C43 C42 1.443 . S
C43 C44 1.340 . S
C43 H83 0.951 . S
C44 C43 1.340 . S
C44 C45 1.439 . S
C44 H84 0.950 . S
C45 C44 1.439 . S
C45 N46 1.374 . S
C45 C79 1.395 . S
N46 C42 1.376 . S
N46 C45 1.374 . S
N46 Co47 2.008 . S
Co47 N46 2.008 . S
Co47 N48 1.995 . S
Co47 N53 2.008 1_455 S
Co47 N58 1.995 1_455 S
Co47 N63 2.282 . S
Co47 N69 2.282 . S
N48 Co47 1.995 . S
N48 C49 1.376 . S
N48 C52 1.383 . S
C49 N48 1.376 . S
C49 C50 1.446 . S
C49 C79 1.391 . S
C50 C49 1.446 . S
C50 C51 1.339 . S
C50 H85 0.949 . S
C51 C50 1.339 . S
C51 C52 1.439 . S
C51 H86 0.950 . S
C52 N48 1.383 . S
C52 C51 1.439 . S
C52 C81 1.392 . S
N53 Co47 2.008 1_655 S
N53 C54 1.376 . S
N53 C57 1.374 . S
C54 N53 1.376 . S
C54 C55 1.443 . S
C54 C81 1.389 1_655 S
C55 C54 1.443 . S
C55 C56 1.340 . S
C55 H87 0.951 . S
C56 C55 1.340 . S
C56 C57 1.439 . S
C56 H88 0.950 . S
C57 N53 1.374 . S
C57 C56 1.439 . S
C57 C82 1.395 . S
N58 Co47 1.995 1_655 S
N58 C59 1.376 . S
N58 C62 1.383 . S
C59 N58 1.376 . S
C59 C60 1.446 . S
C59 C82 1.391 . S
C60 C59 1.446 . S
C60 C61 1.339 . S
C60 H89 0.949 . S
C61 C60 1.339 . S
C61 C62 1.439 . S
C61 H90 0.950 . S
C62 N58 1.383 . S
C62 C61 1.439 . S
C62 C80 1.392 1_655 S
N63 Co47 2.282 . S
N63 C66 1.332 . S
N63 C68 1.332 . S
C64 C65 1.386 1_455 S
C64 C67 1.388 . S
C65 C64 1.386 1_655 S
C65 C66 1.382 1_655 S
C65 H91 0.950 . S
C66 N63 1.332 . S
C66 C65 1.382 1_455 S
C66 H77 0.952 1_455 S
C67 C64 1.388 . S
C67 C68 1.382 . S
C67 H92 0.950 . S
C68 N63 1.332 . S
C68 C67 1.382 . S
C68 H78 0.948 . S
N69 Co47 2.282 . S
N69 C73 1.332 . S
N69 C74 1.332 1_455 S
C70 C71 1.388 1_655 S
C70 C74 1.382 . S
C70 H93 0.950 . S
C71 C70 1.388 1_455 S
C71 C72 1.386 . S
C72 C71 1.386 . S
C72 C73 1.382 . S
C72 H94 0.950 . S
C73 N69 1.332 . S
C73 C72 1.382 . S
C73 H75 0.952 . S
C74 N69 1.332 1_655 S
C74 C70 1.382 . S
C74 H76 0.948 . S
H75 C73 0.952 . S
H76 C74 0.948 . S
H77 C66 0.952 1_655 S
H78 C68 0.948 . S
C79 C45 1.395 . S
C79 C49 1.391 . S
C80 C42 1.389 . S
C80 C62 1.392 1_455 S
C81 C52 1.392 . S
C81 C54 1.389 1_455 S
C82 C57 1.395 . S
C82 C59 1.391 . S
H83 C43 0.951 . S
H84 C44 0.950 . S
H85 C50 0.949 . S
H86 C51 0.950 . S
H87 C55 0.951 . S
H88 C56 0.950 . S
H89 C60 0.949 . S
H90 C61 0.950 . S
H91 C65 0.950 . S
H92 C67 0.950 . S
H93 C70 0.950 . S
H94 C72 0.950 . S
C95 C96 1.443 1_545 S
C95 N99 1.376 . S
C95 C133 1.389 . S
C96 C95 1.443 1_565 S
C96 C97 1.340 . S
C96 H136 0.951 . S
C97 C96 1.340 . S
C97 C98 1.439 . S
C97 H137 0.950 . S
C98 C97 1.439 . S
C98 N99 1.374 1_565 S
C98 C132 1.395 . S
N99 C95 1.376 . S
N99 C98 1.374 1_545 S
N99 Co100 2.008 . S
Co100 N99 2.008 . S
Co100 N101 1.995 . S
Co100 N106 2.008 . S
Co100 N111 1.995 . S
Co100 N116 2.282 . S
Co100 N122 2.282 . S
N101 Co100 1.995 . S
N101 C102 1.376 1_545 S
N101 C105 1.383 . S
C102 N101 1.376 1_565 S
C102 C103 1.446 . S
C102 C132 1.391 . S
C103 C102 1.446 . S
C103 C104 1.339 . S
C103 H138 0.949 . S
C104 C103 1.339 . S
C104 C105 1.439 1_565 S
C104 H139 0.950 . S
C105 N101 1.383 . S
C105 C104 1.439 1_545 S
C105 C134 1.392 . S
N106 Co100 2.008 . S
N106 C107 1.376 . S
N106 C110 1.374 . S
C107 N106 1.376 . S
C107 C108 1.443 . S
C107 C134 1.389 . S
C108 C107 1.443 . S
C108 C109 1.340 . S
C108 H140 0.951 . S
C109 C108 1.340 . S
C109 C110 1.439 . S
C109 H141 0.950 . S
C110 N106 1.374 . S
C110 C109 1.439 . S
C110 C135 1.395 . S
N111 Co100 1.995 . S
N111 C112 1.376 . S
N111 C115 1.383 . S
C112 N111 1.376 . S
C112 C113 1.446 . S
C112 C135 1.391 . S
C113 C112 1.446 . S
C113 C114 1.339 . S
C113 H142 0.949 . S
C114 C113 1.339 . S
C114 C115 1.439 . S
C114 H143 0.950 . S
C115 N111 1.383 . S
C115 C114 1.439 . S
C115 C133 1.392 . S
N116 Co100 2.282 . S
N116 C119 1.332 . S
N116 C121 1.332 . S
C117 C118 1.386 . S
C117 C120 1.388 . S
C118 C117 1.386 . S
C118 C119 1.382 . S
C118 H144 0.950 . S
C119 N116 1.332 . S
C119 C118 1.382 . S
C119 H130 0.952 . S
C120 C117 1.388 . S
C120 C121 1.382 . S
C120 H145 0.950 1_545 S
C121 N116 1.332 . S
C121 C120 1.382 . S
C121 H131 0.948 1_545 S
N122 Co100 2.282 . S
N122 C126 1.332 . S
N122 C127 1.332 . S
C123 C124 1.388 . S
C123 C127 1.382 . S
C123 H146 0.950 . S
C124 C123 1.388 . S
C124 C125 1.386 . S
C125 C124 1.386 . S
C125 C126 1.382 . S
C125 H147 0.950 1_545 S
C126 N122 1.332 . S
C126 C125 1.382 . S
C126 H128 0.952 1_545 S
C127 N122 1.332 . S
C127 C123 1.382 . S
C127 H129 0.948 . S
H128 C126 0.952 1_565 S
H129 C127 0.948 . S
H130 C119 0.952 . S
H131 C121 0.948 1_565 S
C132 C98 1.395 . S
C132 C102 1.391 . S
C133 C95 1.389 . S
C133 C115 1.392 . S
C134 C105 1.392 . S
C134 C107 1.389 . S
C135 C110 1.395 . S
C135 C112 1.391 . S
H136 C96 0.951 . S
H137 C97 0.950 . S
H138 C103 0.949 . S
H139 C104 0.950 . S
H140 C108 0.951 . S
H141 C109 0.950 . S
H142 C113 0.949 . S
H143 C114 0.950 . S
H144 C118 0.950 . S
H145 C120 0.950 1_565 S
H146 C123 0.950 . S
H147 C125 0.950 1_565 S
C148 C149 1.443 . S
C148 N152 1.376 . S
C148 C186 1.389 . S
C149 C148 1.443 . S
C149 C150 1.340 . S
C149 H189 0.951 . S
C150 C149 1.340 . S
C150 C151 1.439 . S
C150 H190 0.950 . S
C151 C150 1.439 . S
C151 N152 1.374 . S
C151 C185 1.395 . S
N152 C148 1.376 . S
N152 C151 1.374 . S
N152 Co153 2.008 . S
Co153 N152 2.008 . S
Co153 N154 1.995 . S
Co153 N159 2.008 . S
Co153 N164 1.995 . S
Co153 N169 2.282 . S
Co153 N175 2.282 . S
N154 Co153 1.995 . S
N154 C155 1.376 . S
N154 C158 1.383 . S
C155 N154 1.376 . S
C155 C156 1.446 . S
C155 C185 1.391 . S
C156 C155 1.446 . S
C156 C157 1.339 . S
C156 H191 0.949 . S
C157 C156 1.339 . S
C157 C158 1.439 . S
C157 H192 0.950 . S
C158 N154 1.383 . S
C158 C157 1.439 . S
C158 C187 1.392 . S
N159 Co153 2.008 . S
N159 C160 1.376 . S
N159 C163 1.374 . S
C160 N159 1.376 . S
C160 C161 1.443 . S
C160 C187 1.389 . S
C161 C160 1.443 . S
C161 C162 1.340 . S
C161 H193 0.951 . S
C162 C161 1.340 . S
C162 C163 1.439 . S
C162 H194 0.950 . S
C163 N159 1.374 . S
C163 C162 1.439 . S
C163 C188 1.395 . S
N164 Co153 1.995 . S
N164 C165 1.376 . S
N164 C168 1.383 . S
C165 N164 1.376 . S
C165 C166 1.446 . S
C165 C188 1.391 . S
C166 C165 1.446 . S
C166 C167 1.339 . S
C166 H195 0.949 . S
C167 C166 1.339 . S
C167 C168 1.439 . S
C167 H196 0.950 . S
C168 N164 1.383 . S
C168 C167 1.439 . S
C168 C186 1.392 . S
N169 Co153 2.282 . S
N169 C172 1.332 . S
N169 C174 1.332 . S
C170 C171 1.386 . S
C170 C173 1.388 . S
C171 C170 1.386 . S
C171 C172 1.382 . S
C171 H197 0.950 . S
C172 N169 1.332 . S
C172 C171 1.382 . S
C172 H183 0.952 . S
C173 C170 1.388 . S
C173 C174 1.382 . S
C173 H198 0.950 . S
C174 N169 1.332 . S
C174 C173 1.382 . S
C174 H184 0.948 . S
N175 Co153 2.282 . S
N175 C179 1.332 . S
N175 C180 1.332 . S
C176 C177 1.388 . S
C176 C180 1.382 . S
C176 H199 0.950 . S
C177 C176 1.388 . S
C177 C178 1.386 . S
C178 C177 1.386 . S
C178 C179 1.382 . S
C178 H200 0.950 . S
C179 N175 1.332 . S
C179 C178 1.382 . S
C179 H181 0.952 . S
C180 N175 1.332 . S
C180 C176 1.382 . S
C180 H182 0.948 . S
H181 C179 0.952 . S
H182 C180 0.948 . S
H183 C172 0.952 . S
H184 C174 0.948 . S
C185 C151 1.395 . S
C185 C155 1.391 . S
C186 C148 1.389 . S
C186 C168 1.392 . S
C187 C158 1.392 . S
C187 C160 1.389 . S
C188 C163 1.395 . S
C188 C165 1.391 . S
H189 C149 0.951 . S
H190 C150 0.950 . S
H191 C156 0.949 . S
H192 C157 0.950 . S
H193 C161 0.951 . S
H194 C162 0.950 . S
H195 C166 0.949 . S
H196 C167 0.950 . S
H197 C171 0.950 . S
H198 C173 0.950 . S
H199 C176 0.950 . S
H200 C178 0.950 . S
C201 C202 1.387 . S
C201 H205 0.950 . S
C201 C210 1.390 . S
C202 C201 1.387 . S
C202 C204 1.387 . S
H203 C210 0.950 . S
C204 C202 1.387 . S
C204 C206 1.390 . S
C204 H208 0.950 . S
H205 C201 0.950 . S
C206 C204 1.390 . S
C206 C207 1.387 . S
C206 H209 0.950 . S
C207 C206 1.387 . S
C207 C210 1.387 . S
H208 C204 0.950 . S
H209 C206 0.950 . S
C210 C201 1.390 . S
C210 H203 0.950 . S
C210 C207 1.387 . S
C211 C212 1.387 . S
C211 H215 0.950 1_545 S
C211 C220 1.390 . S
C212 C211 1.387 . S
C212 C214 1.387 . S
H213 C220 0.950 1_565 S
C214 C212 1.387 . S
C214 C216 1.390 . S
C214 H218 0.950 . S
H215 C211 0.950 1_565 S
C216 C214 1.390 . S
C216 C217 1.387 . S
C216 H219 0.950 . S
C217 C216 1.387 . S
C217 C220 1.387 . S
H218 C214 0.950 . S
H219 C216 0.950 . S
C220 C211 1.390 . S
C220 H213 0.950 1_545 S
C220 C217 1.387 . S
C221 C222 1.387 . S
C221 H225 0.950 . S
C221 C230 1.390 . S
C222 C221 1.387 . S
C222 C224 1.387 . S
H223 C230 0.950 . S
C224 C222 1.387 . S
C224 C226 1.390 . S
C224 H228 0.950 . S
H225 C221 0.950 . S
C226 C224 1.390 . S
C226 C227 1.387 . S
C226 H229 0.950 . S
C227 C226 1.387 . S
C227 C230 1.387 . S
H228 C224 0.950 . S
H229 C226 0.950 . S
C230 C221 1.390 . S
C230 H223 0.950 . S
C230 C227 1.387 . S
C231 C232 1.387 . S
C231 H235 0.950 . S
C231 C240 1.390 . S
C232 C231 1.387 . S
C232 C234 1.387 . S
H233 C240 0.950 . S
C234 C232 1.387 . S
C234 C236 1.390 . S
C234 H238 0.950 . S
H235 C231 0.950 . S
C236 C234 1.390 . S
C236 C237 1.387 . S
C236 H239 0.950 . S
C237 C236 1.387 . S
C237 C240 1.387 . S
H238 C234 0.950 . S
H239 C236 0.950 . S
C240 C231 1.390 . S
C240 H233 0.950 . S
C240 C237 1.387 . S
C241 C242 1.387 . S
C241 H245 0.950 1_545 S
C241 C250 1.390 . S
C242 C241 1.387 . S
C242 C244 1.387 . S
H243 C250 0.950 1_565 S
C244 C242 1.387 . S
C244 C246 1.390 . S
C244 H248 0.950 . S
H245 C241 0.950 1_565 S
C246 C244 1.390 . S
C246 C247 1.387 . S
C246 H249 0.950 . S
C247 C246 1.387 . S
C247 C250 1.387 . S
H248 C244 0.950 . S
H249 C246 0.950 . S
C250 C241 1.390 . S
C250 H243 0.950 1_545 S
C250 C247 1.387 . S
C251 C252 1.387 . S
C251 H255 0.950 . S
C251 C260 1.390 . S
C252 C251 1.387 . S
C252 C254 1.387 . S
H253 C260 0.950 . S
C254 C252 1.387 . S
C254 C256 1.390 . S
C254 H258 0.950 . S
H255 C251 0.950 . S
C256 C254 1.390 . S
C256 C257 1.387 . S
C256 H259 0.950 . S
C257 C256 1.387 . S
C257 C260 1.387 . S
H258 C254 0.950 . S
H259 C256 0.950 . S
C260 C251 1.390 . S
C260 H253 0.950 . S
C260 C257 1.387 . S
C261 C262 1.387 . S
C261 H265 0.950 . S
C261 C270 1.390 . S
C262 C261 1.387 . S
C262 C264 1.387 . S
H263 C270 0.950 . S
C264 C262 1.387 . S
C264 C266 1.390 . S
C264 H268 0.950 1_545 S
H265 C261 0.950 . S
C266 C264 1.390 . S
C266 C267 1.387 . S
C266 H269 0.950 1_545 S
C267 C266 1.387 . S
C267 C270 1.387 . S
H268 C264 0.950 1_565 S
H269 C266 0.950 1_565 S
C270 C261 1.390 . S
C270 H263 0.950 . S
C270 C267 1.387 . S
C271 C272 1.387 . S
C271 H275 0.950 . S
C271 C280 1.390 . S
C272 C271 1.387 . S
C272 C274 1.387 . S
H273 C280 0.950 . S
C274 C272 1.387 . S
C274 C276 1.390 . S
C274 H278 0.950 1_556 S
H275 C271 0.950 . S
C276 C274 1.390 . S
C276 C277 1.387 . S
C276 H279 0.950 . S
C277 C276 1.387 . S
C277 C280 1.387 . S
H278 C274 0.950 1_554 S
H279 C276 0.950 . S
C280 C271 1.390 . S
C280 H273 0.950 . S
C280 C277 1.387 . S
C281 C282 1.387 . S
C281 H285 0.950 . S
C281 C290 1.390 . S
C282 C281 1.387 . S
C282 C284 1.387 . S
H283 C290 0.950 . S
C284 C282 1.387 . S
C284 C286 1.390 . S
C284 H288 0.950 . S
H285 C281 0.950 . S
C286 C284 1.390 . S
C286 C287 1.387 . S
C286 H289 0.950 . S
C287 C286 1.387 . S
C287 C290 1.387 . S
H288 C284 0.950 . S
H289 C286 0.950 . S
C290 C281 1.390 . S
C290 H283 0.950 . S
C290 C287 1.387 . S
C291 C292 1.387 . S
C291 H295 0.950 . S
C291 C300 1.390 . S
C292 C291 1.387 . S
C292 C294 1.387 . S
H293 C300 0.950 . S
C294 C292 1.387 . S
C294 C296 1.390 . S
C294 H298 0.950 1_545 S
H295 C291 0.950 . S
C296 C294 1.390 . S
C296 C297 1.387 . S
C296 H299 0.950 1_545 S
C297 C296 1.387 . S
C297 C300 1.387 . S
H298 C294 0.950 1_565 S
H299 C296 0.950 1_565 S
C300 C291 1.390 . S
C300 H293 0.950 . S
C300 C297 1.387 . S
C301 C302 1.387 . S
C301 H305 0.950 . S
C301 C310 1.390 . S
C302 C301 1.387 . S
C302 C304 1.387 . S
H303 C310 0.950 . S
C304 C302 1.387 . S
C304 C306 1.390 . S
C304 H308 0.950 . S
H305 C301 0.950 . S
C306 C304 1.390 . S
C306 C307 1.387 . S
C306 H309 0.950 . S
C307 C306 1.387 . S
C307 C310 1.387 . S
H308 C304 0.950 . S
H309 C306 0.950 . S
C310 C301 1.390 . S
C310 H303 0.950 . S
C310 C307 1.387 . S
C311 C312 1.387 1_655 S
C311 H315 0.950 . S
C311 C320 1.390 . S
C312 C311 1.387 1_455 S
C312 C314 1.387 . S
H313 C320 0.950 . S
C314 C312 1.387 . S
C314 C316 1.390 . S
C314 H318 0.950 . S
H315 C311 0.950 . S
C316 C314 1.390 . S
C316 C317 1.387 . S
C316 H319 0.950 . S
C317 C316 1.387 . S
C317 C320 1.387 1_455 S
H318 C314 0.950 . S
H319 C316 0.950 . S
C320 C311 1.390 . S
C320 H313 0.950 . S
C320 C317 1.387 1_655 S
C207 C64 1.483 . S
C202 C6 1.466 . S
C212 C22 1.561 . S
C217 C134 1.588 . S
C222 C34 1.299 . S
C227 C186 1.322 . S
C232 C7 1.468 . S
C237 C80 1.484 . S
C247 C124 1.580 . S
C242 C23 1.561 . S
C252 C35 1.316 . S
C257 C170 1.327 . S
C267 C117 1.581 . S
C262 C36 1.568 . S
C272 C9 1.720 1_655 S
C277 C177 1.765 . S
C287 C71 1.484 . S
C282 C21 1.460 . S
C297 C133 1.589 . S
C292 C37 1.573 . S
C307 C187 1.798 . S
C302 C8 1.758 . S
C312 C20 1.459 . S
C317 C81 1.479 . S
