# Generated by pormake.
# Topology pth, (4,4)-cn, num edge types: 1
# Building blocks:
#     Node 0, Type 0, BuildingBlock: NAHDIM_clean_sbu_0, # of connection points: 4
#     Node 1, Type 0, BuildingBlock: NAHDIM_clean_sbu_0, # of connection points: 4
#     Node 2, Type 0, BuildingBlock: NAHDIM_clean_sbu_0, # of connection points: 4
#     Node 3, Type 1, BuildingBlock: MUDLON_clean_sbu_0, # of connection points: 4
#     Node 4, Type 1, BuildingBlock: MUDLON_clean_sbu_0, # of connection points: 4
#     Node 5, Type 1, BuildingBlock: MUDLON_clean_sbu_0, # of connection points: 4
#     Edge 6, Type (0, 1), BuildingBlock: XIVTED_clean_linker_0, # of connection points: 2
#     Edge 7, Type (0, 1), BuildingBlock: XIVTED_clean_linker_0, # of connection points: 2
#     Edge 8, Type (0, 1), BuildingBlock: XIVTED_clean_linker_0, # of connection points: 2
#     Edge 9, Type (0, 1), BuildingBlock: XIVTED_clean_linker_0, # of connection points: 2
#     Edge 10, Type (0, 1), BuildingBlock: XIVTED_clean_linker_0, # of connection points: 2
#     Edge 11, Type (0, 1), BuildingBlock: XIVTED_clean_linker_0, # of connection points: 2
#     Edge 12, Type (0, 1), BuildingBlock: XIVTED_clean_linker_0, # of connection points: 2
#     Edge 13, Type (0, 1), BuildingBlock: XIVTED_clean_linker_0, # of connection points: 2
#     Edge 14, Type (0, 1), BuildingBlock: XIVTED_clean_linker_0, # of connection points: 2
#     Edge 15, Type (0, 1), BuildingBlock: XIVTED_clean_linker_0, # of connection points: 2
#     Edge 16, Type (0, 1), BuildingBlock: XIVTED_clean_linker_0, # of connection points: 2
#     Edge 17, Type (0, 1), BuildingBlock: XIVTED_clean_linker_0, # of connection points: 2
# Relax obj value: 0.076
# Max RMSD: 0.190
# Mean RMSD: 0.122
data_MOF--net-pth--node1-NAHDIM_clean_sbu_0--node2-MUDLON_clean_sbu_0--edge1-XIVTED_clean_linker_0
_symmetry_space_group_name_H-M    P1
_symmetry_Int_Tables_number       1
_symmetry_cell_setting            triclinic
loop_
_symmetry_equiv_pos_as_xyz
'x, y, z'
_cell_length_a     22.605222
_cell_length_b     22.786478
_cell_length_c     59.093898
_cell_angle_alpha  92.159043
_cell_angle_beta   89.813769
_cell_angle_gamma 120.48507
loop_
_atom_site_label
_atom_site_type_symbol
_atom_site_fract_x
_atom_site_fract_y
_atom_site_fract_z
_atom_type_partial_charge
C0 C 0.11877 0.03621 0.12686 0.0
O1 O 0.13648 0.09888 0.13333 0.0
O2 O 0.04471 0.12994 0.10871 0.0
Zn3 Zn 0.06547 0.06965 0.08828 0.0
O4 O 0.98182 0.00907 0.06838 0.0
C5 C 0.20216 0.17681 0.07486 0.0
O6 O 0.21068 0.19621 0.0964 0.0
O7 O 0.08771 0.01198 0.10789 0.0
C8 C 0.97472 0.02926 0.04933 0.0
O9 O 0.02233 0.08942 0.04282 0.0
C10 C 0.03547 0.17665 0.10154 0.0
O11 O 0.0407 0.18804 0.0798 0.0
O12 O 0.14559 0.12547 0.06806 0.0
C13 C 0.10889 0.18049 0.38004 0.0
O14 O 0.12501 0.13468 0.37353 0.0
O15 O 0.03205 0.01059 0.39839 0.0
Zn16 Zn 0.05361 0.09345 0.41829 0.0
O17 O 0.97002 0.07159 0.4368 0.0
C18 C 0.19062 0.12729 0.43313 0.0
O19 O 0.2004 0.124 0.41131 0.0
O20 O 0.07824 0.17382 0.3987 0.0
C21 C 0.95425 0.03043 0.45273 0.0
O22 O 0.9925 1.00341 0.45646 0.0
C23 C 0.9889 0.99209 0.38206 0.0
O24 O 0.95858 0.02725 0.37851 0.0
O25 O 0.13252 0.11629 0.43988 0.0
C26 C 0.05994 0.98739 0.71223 0.0
O27 O 0.99589 0.9681 0.70719 0.0
O28 O 0.96295 0.05838 0.73647 0.0
Zn29 Zn 0.03414 0.04659 0.75301 0.0
O30 O 0.10051 0.13598 0.76916 0.0
C31 C 0.94108 0.91465 0.772 0.0
O32 O 0.91803 0.89654 0.75102 0.0
O33 O 0.08639 0.02054 0.73083 0.0
C34 C 0.08241 0.15502 0.78707 0.0
O35 O 0.02015 0.11605 0.79463 0.0
C36 C 0.98121 0.10002 0.72059 0.0
O37 O 0.04627 0.13421 0.71515 0.0
O38 O 0.98963 0.97517 0.77652 0.0
Mg39 Mg 0.05939 0.58253 0.25383 0.0
C40 C 0.13356 0.51258 0.26994 0.0
O41 O 0.12356 0.49103 0.24859 0.0
C42 C 0.1397 0.7287 0.23829 0.0
O43 O 0.13728 0.74339 0.25987 0.0
C44 C 0.99533 0.49864 0.21071 0.0
O45 O 0.01394 0.55927 0.20341 0.0
O46 O 1.00146 0.49237 0.23173 0.0
O47 O 0.11796 0.55688 0.27631 0.0
O48 O 1.00079 0.61075 0.27624 0.0
C49 C 0.97663 0.64758 0.27026 0.0
O50 O 0.9782 0.66142 0.24881 0.0
O51 O 0.11725 0.66701 0.23185 0.0
Mg52 Mg 0.53357 0.06081 0.58456 0.0
C53 C 0.52351 0.1353 0.54494 0.0
O54 O 0.56636 0.11759 0.53654 0.0
C55 C 0.61189 0.10264 0.62896 0.0
O56 O 0.54876 0.06821 0.63628 0.0
C57 C 0.38481 0.98667 0.59837 0.0
O58 O 0.37722 1.00466 0.57821 0.0
O59 O 0.4436 0.99769 0.60447 0.0
O60 O 0.50679 0.12431 0.56558 0.0
O61 O 0.56271 0.00782 0.55966 0.0
C62 C 0.60618 0.9906 0.56485 0.0
O63 O 0.62472 0.99533 0.5862 0.0
O64 O 0.62128 0.11343 0.60792 0.0
Mg65 Mg 0.54473 0.55778 0.9211 0.0
C66 C 0.45474 0.53439 0.88024 0.0
O67 O 0.51528 0.57087 0.87118 0.0
C68 C 0.61444 0.70725 0.93812 0.0
O69 O 0.62448 0.71935 0.91646 0.0
C70 C 0.53731 0.4831 0.9631 0.0
O71 O 0.58235 0.54544 0.9703 0.0
O72 O 0.51795 0.47235 0.94241 0.0
O73 O 0.45138 0.52639 0.90149 0.0
O74 O 0.62533 0.58138 0.89668 0.0
C75 C 0.68817 0.62492 0.90083 0.0
O76 O 0.70766 0.6492 0.92171 0.0
O77 O 0.57835 0.64606 0.94408 0.0
H78 H 0.01824 0.16473 0.14741 0.0
H79 H 0.98398 0.49585 0.1645 0.0
H80 H 0.0158 0.28265 0.0923 0.0
H81 H 0.98021 0.37431 0.2194 0.0
H82 H 0.9841 0.41202 0.13754 0.0
H83 H 0.99512 0.23562 0.17373 0.0
C84 C 0.01265 0.2054 0.14081 0.0
C85 C 0.01948 0.21802 0.1176 0.0
C86 C 0.98245 0.40325 0.15547 0.0
C87 C 0.99285 0.29947 0.14771 0.0
C88 C 0.98209 0.45102 0.1709 0.0
C89 C 0.98276 0.44254 0.19429 0.0
C90 C 0.98391 0.3467 0.16346 0.0
C91 C 0.98003 0.38322 0.20154 0.0
C92 C 0.99925 0.24579 0.15587 0.0
C93 C 0.01133 0.27125 0.11005 0.0
N94 N 0.98153 0.33802 0.1862 0.0
N95 N 0.99884 0.31021 0.12507 0.0
H96 H 0.85606 0.06615 0.44754 0.0
H97 H 0.69814 0.94701 0.5694 0.0
H98 H 0.91847 0.95986 0.4917 0.0
H99 H 0.6064 0.01143 0.51941 0.0
H100 H 0.77672 0.94764 0.54078 0.0
H101 H 0.76286 0.04472 0.47331 0.0
C102 C 0.85003 0.03808 0.4626 0.0
C103 C 0.89549 0.01517 0.46753 0.0
C104 C 0.73883 0.96081 0.53598 0.0
C105 C 0.789 0.99064 0.49715 0.0
C106 C 0.69381 0.96031 0.55232 0.0
C107 C 0.64587 0.97966 0.54687 0.0
C108 C 0.73658 0.98165 0.51408 0.0
C109 C 0.64259 0.99628 0.52443 0.0
C110 C 0.79663 0.02562 0.47727 0.0
C111 C 0.88487 0.97869 0.48723 0.0
N112 N 0.68795 0.99778 0.50895 0.0
N113 N 0.83316 0.9681 0.5014 0.0
H114 H 0.83146 0.78384 0.76891 0.0
H115 H 0.81907 0.73529 0.90271 0.0
H116 H 0.97832 0.93446 0.81699 0.0
H117 H 0.66234 0.59257 0.85538 0.0
H118 H 0.8864 0.80127 0.87096 0.0
H119 H 0.77652 0.70673 0.79982 0.0
C120 C 0.85243 0.80062 0.78594 0.0
C121 C 0.90932 0.86601 0.79036 0.0
C122 C 0.83762 0.75511 0.8675 0.0
C123 C 0.84663 0.77778 0.82586 0.0
C124 C 0.79926 0.71713 0.88564 0.0
C125 C 0.73457 0.65853 0.88176 0.0
C126 C 0.81118 0.73446 0.84529 0.0
C127 C 0.71169 0.63762 0.85922 0.0
C128 C 0.82101 0.7565 0.80359 0.0
C129 C 0.93432 0.88474 0.81278 0.0
N130 N 0.74962 0.67586 0.84188 0.0
N131 N 0.90265 0.84101 0.82968 0.0
H132 H 0.09444 0.90633 0.11848 0.0
H133 H 0.18207 0.86409 0.24552 0.0
H134 H 0.17382 0.06921 0.16985 0.0
H135 H 0.1275 0.70988 0.19206 0.0
H136 H 0.18663 0.9425 0.21754 0.0
H137 H 0.11176 0.83552 0.14466 0.0
C138 C 0.11581 0.92735 0.13522 0.0
C139 C 0.13221 0.99369 0.14201 0.0
C140 C 0.17445 0.89176 0.21188 0.0
C141 C 0.15206 0.91279 0.17212 0.0
C142 C 0.17206 0.84699 0.22787 0.0
C143 C 0.15384 0.78004 0.2212 0.0
C144 C 0.15793 0.86933 0.18907 0.0
C145 C 0.14148 0.76087 0.19804 0.0
C146 C 0.12586 0.88693 0.15015 0.0
C147 C 0.1601 0.01828 0.16388 0.0
N148 N 0.14297 0.80499 0.18287 0.0
N149 N 0.16864 0.9777 0.17818 0.0
H150 H 0.31988 0.15091 0.42447 0.0
H151 H 0.41454 0.15277 0.55496 0.0
H152 H 0.1872 0.13495 0.47955 0.0
H153 H 0.54121 0.15677 0.49952 0.0
H154 H 0.33828 0.16206 0.52798 0.0
H155 H 0.4078 0.16711 0.452 0.0
C156 C 0.30929 0.15115 0.44236 0.0
C157 C 0.24573 0.14093 0.44968 0.0
C158 C 0.3832 0.1617 0.52174 0.0
C159 C 0.34644 0.15953 0.48136 0.0
C160 C 0.42706 0.15679 0.53717 0.0
C161 C 0.48409 0.15326 0.52949 0.0
C162 C 0.39636 0.16303 0.49845 0.0
C163 C 0.49759 0.15873 0.50621 0.0
C164 C 0.35963 0.16049 0.45808 0.0
C165 C 0.23523 0.14218 0.4731 0.0
N166 N 0.4537 0.16264 0.49152 0.0
N167 N 0.28487 0.15085 0.48808 0.0
H168 H 0.06713 0.20054 0.82902 0.0
H169 H 0.44823 0.52392 0.83391 0.0
H170 H 0.21033 0.25411 0.77432 0.0
H171 H 0.32246 0.44546 0.89282 0.0
H172 H 0.353 0.43838 0.81017 0.0
H173 H 0.15233 0.3018 0.85086 0.0
C174 C 0.11627 0.23383 0.82152 0.0
C175 C 0.13184 0.21842 0.79987 0.0
C176 C 0.34599 0.44035 0.82827 0.0
C177 C 0.22943 0.33459 0.82478 0.0
C178 C 0.40026 0.48947 0.84185 0.0
C179 C 0.39373 0.4914 0.86547 0.0
C180 C 0.28456 0.39285 0.83832 0.0
C181 C 0.33008 0.44553 0.87472 0.0
C182 C 0.16489 0.2916 0.83402 0.0
C183 C 0.1963 0.2636 0.79102 0.0
N184 N 0.27818 0.39772 0.86115 0.0
N185 N 0.24278 0.31945 0.80353 0.0
H186 H 0.99965 0.17076 0.68218 0.0
H187 H 0.60732 0.07613 0.67386 0.0
H188 H 0.84559 0.04944 0.73035 0.0
H189 H 0.74853 0.15918 0.61876 0.0
H190 H 0.6994 0.08279 0.69725 0.0
H191 H 0.91305 0.18174 0.66107 0.0
C192 C 0.94771 0.14668 0.68839 0.0
C193 C 0.92979 0.10877 0.70801 0.0
C194 C 0.71043 0.10009 0.6801 0.0
C195 C 0.83055 0.12154 0.68397 0.0
C196 C 0.65792 0.09665 0.66674 0.0
C197 C 0.66995 0.11657 0.6442 0.0
C198 C 0.77571 0.12379 0.67094 0.0
C199 C 0.73677 0.14298 0.636 0.0
C200 C 0.89831 0.15296 0.6763 0.0
C201 C 0.86168 0.07878 0.71524 0.0
N202 N 0.78703 0.14536 0.64931 0.0
N203 N 0.81459 0.08576 0.70322 0.0
H204 H 0.86413 0.90332 0.05759 0.0
H205 H 0.70999 0.84134 0.93165 0.0
H206 H 0.94862 0.05463 1.00671 0.0
H207 H 0.61665 0.69615 0.98408 0.0
H208 H 0.79215 0.92382 0.95971 0.0
H209 H 0.76862 0.82967 0.03165 0.0
C210 C 0.8625 0.9212 0.041 0.0
C211 C 0.91482 0.98508 0.03427 0.0
C212 C 0.75318 0.87418 0.96513 0.0
C213 C 0.80554 0.90095 1.00445 0.0
C214 C 0.70601 0.82711 0.94912 0.0
C215 C 0.65665 0.76141 0.95544 0.0
C216 C 0.75131 0.85534 0.98762 0.0
C217 C 0.65405 0.74599 0.97836 0.0
C218 C 0.80782 0.87917 0.02621 0.0
C219 C 0.9097 0.00567 0.0126 0.0
N220 N 0.70117 0.79228 0.99354 0.0
N221 N 0.85636 0.96358 0.99843 0.0
H222 H 0.91964 0.95428 0.34126 0.0
H223 H 0.98862 0.64664 0.31634 0.0
H224 H 0.02844 0.89782 0.38734 0.0
H225 H 0.93149 0.7375 0.26426 0.0
H226 H 0.98193 0.72404 0.34452 0.0
H227 H 0.90409 0.86197 0.31485 0.0
C228 C 0.93983 0.92219 0.34592 0.0
C229 C 0.97586 0.93413 0.36649 0.0
C230 C 0.97021 0.72659 0.32696 0.0
C231 C 0.95782 0.8282 0.33638 0.0
C232 C 0.9736 0.6821 0.31084 0.0
C233 C 0.96129 0.68596 0.28781 0.0
C234 C 0.95402 0.77516 0.32008 0.0
C235 C 0.94187 0.73296 0.28178 0.0
C236 C 0.931 0.8696 0.3308 0.0
C237 C 1.00081 0.89084 0.3716 0.0
N238 N 0.93933 0.77608 0.29779 0.0
N239 N 0.99142 0.83991 0.35664 0.0
H240 H 0.02705 0.9378 0.6683 0.0
H241 H 0.39326 0.97541 0.64416 0.0
H242 H 0.18888 0.00691 0.71879 0.0
H243 H 0.25248 0.95702 0.59139 0.0
H244 H 0.30941 0.96426 0.67244 0.0
H245 H 0.1004 0.92355 0.6408 0.0
C246 C 0.07778 0.94946 0.67368 0.0
C247 C 0.10206 0.97419 0.69586 0.0
C248 C 0.2966 0.96191 0.65466 0.0
C249 C 0.18613 0.95765 0.66445 0.0
C250 C 0.34428 0.96783 0.63847 0.0
C251 C 0.33023 0.96789 0.61533 0.0
C252 C 0.2342 0.95558 0.6477 0.0
C253 C 0.26578 0.95786 0.60903 0.0
C254 C 0.11964 0.9414 0.65794 0.0
C255 C 0.16822 0.98829 0.70184 0.0
N256 N 0.22039 0.95263 0.62512 0.0
N257 N 0.208 0.98004 0.68621 0.0
H258 H 0.20077 0.15077 0.02915 0.0
H259 H 0.5577 0.49191 1.00907 0.0
H260 H 0.32846 0.29091 0.08311 0.0
H261 H 0.42792 0.35368 0.95507 0.0
H262 H 0.48148 0.41193 0.03663 0.0
H263 H 0.28923 0.21817 1.0021 0.0
C264 C 0.24755 0.19554 0.03535 0.0
C265 C 0.2569 0.21547 0.05846 0.0
C266 C 0.47006 0.39871 0.01875 0.0
C267 C 0.35862 0.29304 0.02748 0.0
C268 C 0.51379 0.44428 1.00297 0.0
C269 C 0.49885 0.42995 0.97968 0.0
C270 C 0.41074 0.33838 0.01123 0.0
C271 C 0.4413 0.36719 0.97284 0.0
C272 C 0.29815 0.234 0.01987 0.0
C273 C 0.31879 0.27381 0.06547 0.0
N274 N 0.39897 0.32413 0.98853 0.0
N275 N 0.36707 0.31073 0.05003 0.0
H276 H 0.08901 0.28849 0.38876 0.0
H277 H 0.17083 0.41644 0.26254 0.0
H278 H 0.16216 0.20186 0.33749 0.0
H279 H 0.1276 0.52228 0.31624 0.0
H280 H 0.17515 0.34198 0.29032 0.0
H281 H 0.10815 0.37797 0.36305 0.0
C282 C 0.10941 0.28844 0.37215 0.0
C283 C 0.1235 0.23723 0.36523 0.0
C284 C 0.16555 0.38202 0.29609 0.0
C285 C 0.14541 0.33949 0.33568 0.0
C286 C 0.16327 0.42473 0.28022 0.0
C287 C 0.14821 0.47536 0.287 0.0
C288 C 0.15197 0.38941 0.31892 0.0
C289 C 0.1391 0.48379 0.31019 0.0
C290 C 0.12052 0.33969 0.35749 0.0
C291 C 0.15022 0.24004 0.34354 0.0
N292 N 0.14022 0.44068 0.32525 0.0
N293 N 0.15977 0.2899 0.3295 0.0
loop_
_geom_bond_atom_site_label_1
_geom_bond_atom_site_label_2
_geom_bond_distance
_geom_bond_site_symmetry_2
_ccdc_geom_bond_type
C0 O1 1.160 . S
C0 O7 1.185 1_565 S
O1 C0 1.160 . S
O2 Zn3 1.899 . S
O2 C10 1.284 . S
Zn3 O2 1.899 . S
Zn3 O4 2.032 1_445 S
Zn3 O7 2.086 . S
Zn3 O12 1.977 . S
O4 Zn3 2.032 1_665 S
O4 C8 1.278 1_565 S
C5 O6 1.203 . S
C5 O12 1.267 . S
O6 C5 1.203 . S
O7 C0 1.185 1_545 S
O7 Zn3 2.086 . S
C8 O4 1.278 1_545 S
C8 O9 1.211 . S
O9 C8 1.211 . S
C10 O2 1.284 . S
C10 O11 1.273 1_455 S
O11 C10 1.273 1_655 S
O12 Zn3 1.977 . S
O12 C5 1.267 . S
C13 O14 1.160 . S
C13 O20 1.185 . S
O14 C13 1.160 . S
O15 Zn16 1.899 . S
O15 C23 1.284 1_545 S
Zn16 O15 1.899 . S
Zn16 O17 2.032 . S
Zn16 O20 2.086 . S
Zn16 O25 1.977 . S
O17 Zn16 2.032 . S
O17 C21 1.278 1_455 S
C18 O19 1.203 . S
C18 O25 1.267 . S
O19 C18 1.203 . S
O20 C13 1.185 . S
O20 Zn16 2.086 . S
C21 O17 1.278 1_655 S
C21 O22 1.211 1_655 S
O22 C21 1.211 1_455 S
C23 O15 1.284 1_565 S
C23 O24 1.268 1_455 S
O24 C23 1.268 1_655 S
O25 Zn16 1.977 . S
O25 C18 1.267 . S
C26 O27 1.160 . S
C26 O33 1.185 1_545 S
O27 C26 1.160 . S
O28 Zn29 1.899 1_655 S
O28 C36 1.284 . S
Zn29 O28 1.899 1_455 S
Zn29 O30 2.032 . S
Zn29 O33 2.086 1_545 S
Zn29 O38 1.977 1_445 S
O30 Zn29 2.032 . S
O30 C34 1.278 . S
C31 O32 1.203 . S
C31 O38 1.267 . S
O32 C31 1.203 . S
O33 C26 1.185 1_565 S
O33 Zn29 2.086 1_565 S
C34 O30 1.278 . S
C34 O35 1.211 . S
O35 C34 1.211 . S
C36 O28 1.284 . S
C36 O37 1.273 . S
O37 C36 1.273 . S
O38 Zn29 1.977 1_665 S
O38 C31 1.267 . S
Mg39 O46 2.141 . S
Mg39 O47 2.048 . S
Mg39 O48 2.048 . S
Mg39 O51 2.141 . S
C40 O41 1.313 1_455 S
C40 O47 1.195 . S
O41 C40 1.313 1_655 S
C42 O43 1.245 1_455 S
C42 O51 1.289 . S
O43 C42 1.245 1_655 S
C44 O45 1.245 1_455 S
C44 O46 1.289 . S
O45 C44 1.245 1_655 S
O46 Mg39 2.141 . S
O46 C44 1.289 . S
O47 Mg39 2.048 . S
O47 C40 1.195 . S
O48 Mg39 2.048 . S
O48 C49 1.195 . S
C49 O48 1.195 . S
C49 O50 1.313 1_455 S
O50 C49 1.313 1_655 S
O51 Mg39 2.141 . S
O51 C42 1.289 . S
Mg52 O59 2.141 . S
Mg52 O60 2.048 . S
Mg52 O61 2.048 . S
Mg52 O64 2.141 . S
C53 O54 1.313 1_545 S
C53 O60 1.195 . S
O54 C53 1.313 1_565 S
C55 O56 1.245 1_545 S
C55 O64 1.289 . S
O56 C55 1.245 1_565 S
C57 O58 1.245 1_545 S
C57 O59 1.289 . S
O58 C57 1.245 1_565 S
O59 Mg52 2.141 . S
O59 C57 1.289 . S
O60 Mg52 2.048 . S
O60 C53 1.195 . S
O61 Mg52 2.048 . S
O61 C62 1.195 . S
C62 O61 1.195 . S
C62 O63 1.313 1_545 S
O63 C62 1.313 1_565 S
O64 Mg52 2.141 . S
O64 C55 1.289 . S
Mg65 O72 2.141 . S
Mg65 O73 2.048 . S
Mg65 O74 2.048 . S
Mg65 O77 2.141 . S
C66 O67 1.313 . S
C66 O73 1.195 . S
O67 C66 1.313 . S
C68 O69 1.245 . S
C68 O77 1.289 . S
O69 C68 1.245 . S
C70 O71 1.245 . S
C70 O72 1.289 . S
O71 C70 1.245 . S
O72 Mg65 2.141 . S
O72 C70 1.289 . S
O73 Mg65 2.048 . S
O73 C66 1.195 . S
O74 Mg65 2.048 . S
O74 C75 1.195 . S
C75 O74 1.195 . S
C75 O76 1.313 . S
O76 C75 1.313 . S
O77 Mg65 2.141 . S
O77 C68 1.289 . S
H78 C84 0.930 . S
H79 C88 0.930 1_655 S
H80 C93 0.929 . S
H81 C91 0.929 . S
H82 C86 0.929 1_655 S
H83 C92 0.929 . S
C84 H78 0.930 . S
C84 C85 1.367 . S
C84 C92 1.378 . S
C85 C84 1.367 . S
C85 C93 1.433 1_455 S
C86 H82 0.929 1_455 S
C86 C88 1.378 . S
C86 C90 1.350 . S
C87 C90 1.463 . S
C87 C92 1.350 . S
C87 N95 1.429 . S
C88 H79 0.930 1_455 S
C88 C86 1.378 . S
C88 C89 1.367 . S
C89 C88 1.367 . S
C89 C91 1.433 . S
C90 C86 1.350 . S
C90 C87 1.463 . S
C90 N94 1.427 . S
C91 H81 0.929 . S
C91 C89 1.433 . S
C91 N94 1.384 . S
C92 H83 0.929 . S
C92 C84 1.378 . S
C92 C87 1.350 . S
C93 H80 0.929 . S
C93 C85 1.433 1_655 S
C93 N95 1.385 1_655 S
N94 C90 1.427 . S
N94 C91 1.384 . S
N95 C87 1.429 . S
N95 C93 1.385 1_455 S
H96 C102 0.930 . S
H97 C106 0.930 1_565 S
H98 C111 0.929 1_565 S
H99 C109 0.929 . S
H100 C104 0.929 1_565 S
H101 C110 0.929 . S
C102 H96 0.930 . S
C102 C103 1.367 . S
C102 C110 1.378 . S
C103 C102 1.367 . S
C103 C111 1.433 . S
C104 H100 0.929 1_545 S
C104 C106 1.378 . S
C104 C108 1.350 . S
C105 C108 1.463 . S
C105 C110 1.350 . S
C105 N113 1.427 . S
C106 H97 0.930 1_545 S
C106 C104 1.378 . S
C106 C107 1.367 . S
C107 C106 1.367 . S
C107 C109 1.433 . S
C108 C104 1.350 . S
C108 C105 1.463 . S
C108 N112 1.427 . S
C109 H99 0.929 . S
C109 C107 1.433 . S
C109 N112 1.384 . S
C110 H101 0.929 . S
C110 C102 1.378 . S
C110 C105 1.350 . S
C111 H98 0.929 1_545 S
C111 C103 1.433 . S
C111 N113 1.384 . S
N112 C108 1.427 . S
N112 C109 1.384 . S
N113 C105 1.427 . S
N113 C111 1.384 . S
H114 C120 0.930 . S
H115 C124 0.930 . S
H116 C129 0.929 . S
H117 C127 0.929 . S
H118 C122 0.929 . S
H119 C128 0.929 . S
C120 H114 0.930 . S
C120 C121 1.367 . S
C120 C128 1.378 . S
C121 C120 1.367 . S
C121 C129 1.433 . S
C122 H118 0.929 . S
C122 C124 1.378 . S
C122 C126 1.350 . S
C123 C126 1.463 . S
C123 C128 1.350 . S
C123 N131 1.427 . S
C124 H115 0.930 . S
C124 C122 1.378 . S
C124 C125 1.367 . S
C125 C124 1.367 . S
C125 C127 1.433 . S
C126 C122 1.350 . S
C126 C123 1.463 . S
C126 N130 1.427 . S
C127 H117 0.929 . S
C127 C125 1.433 . S
C127 N130 1.384 . S
C128 H119 0.929 . S
C128 C120 1.378 . S
C128 C123 1.350 . S
C129 H116 0.929 . S
C129 C121 1.433 . S
C129 N131 1.384 . S
N130 C126 1.427 . S
N130 C127 1.384 . S
N131 C123 1.427 . S
N131 C129 1.384 . S
H132 C138 0.930 . S
H133 C142 0.930 . S
H134 C147 0.929 1_655 S
H135 C145 0.929 . S
H136 C140 0.929 . S
H137 C146 0.929 . S
C138 H132 0.930 . S
C138 C139 1.367 . S
C138 C146 1.378 . S
C139 C138 1.367 . S
C139 C147 1.433 . S
C140 H136 0.929 . S
C140 C142 1.378 . S
C140 C144 1.350 1_655 S
C141 C144 1.463 . S
C141 C146 1.350 . S
C141 N149 1.427 1_455 S
C142 H133 0.930 . S
C142 C140 1.378 . S
C142 C143 1.367 1_655 S
C143 C142 1.367 1_455 S
C143 C145 1.433 . S
C144 C140 1.350 1_455 S
C144 C141 1.463 . S
C144 N148 1.427 . S
C145 H135 0.929 . S
C145 C143 1.433 . S
C145 N148 1.384 . S
C146 H137 0.929 . S
C146 C138 1.378 . S
C146 C141 1.350 . S
C147 H134 0.929 1_455 S
C147 C139 1.433 . S
C147 N149 1.384 1_455 S
N148 C144 1.427 . S
N148 C145 1.384 . S
N149 C141 1.427 1_655 S
N149 C147 1.384 1_655 S
H150 C156 0.930 . S
H151 C160 0.930 . S
H152 C165 0.929 . S
H153 C163 0.929 . S
H154 C158 0.929 . S
H155 C164 0.929 . S
C156 H150 0.930 . S
C156 C157 1.367 . S
C156 C164 1.378 . S
C157 C156 1.367 . S
C157 C165 1.433 . S
C158 H154 0.929 . S
C158 C160 1.378 . S
C158 C162 1.350 . S
C159 C162 1.463 . S
C159 C164 1.350 . S
C159 N167 1.427 . S
C160 H151 0.930 . S
C160 C158 1.378 . S
C160 C161 1.367 . S
C161 C160 1.367 . S
C161 C163 1.433 . S
C162 C158 1.350 . S
C162 C159 1.463 . S
C162 N166 1.427 . S
C163 H153 0.929 . S
C163 C161 1.433 . S
C163 N166 1.384 . S
C164 H155 0.929 . S
C164 C156 1.378 . S
C164 C159 1.350 . S
C165 H152 0.929 . S
C165 C157 1.433 . S
C165 N167 1.384 . S
N166 C162 1.427 . S
N166 C163 1.384 . S
N167 C159 1.427 . S
N167 C165 1.384 . S
H168 C174 0.930 . S
H169 C178 0.930 . S
H170 C183 0.929 . S
H171 C181 0.929 . S
H172 C176 0.929 . S
H173 C182 0.929 . S
C174 H168 0.930 . S
C174 C175 1.367 . S
C174 C182 1.378 . S
C175 C174 1.367 . S
C175 C183 1.433 . S
C176 H172 0.929 . S
C176 C178 1.378 . S
C176 C180 1.350 . S
C177 C180 1.463 . S
C177 C182 1.350 . S
C177 N185 1.427 . S
C178 H169 0.930 . S
C178 C176 1.378 . S
C178 C179 1.367 . S
C179 C178 1.367 . S
C179 C181 1.433 . S
C180 C176 1.350 . S
C180 C177 1.463 . S
C180 N184 1.427 . S
C181 H171 0.929 . S
C181 C179 1.433 . S
C181 N184 1.384 . S
C182 H173 0.929 . S
C182 C174 1.378 . S
C182 C177 1.350 . S
C183 H170 0.929 . S
C183 C175 1.433 . S
C183 N185 1.384 . S
N184 C180 1.427 . S
N184 C181 1.384 . S
N185 C177 1.427 . S
N185 C183 1.384 . S
H186 C192 0.930 . S
H187 C196 0.930 1_565 S
H188 C201 0.929 . S
H189 C199 0.929 . S
H190 C194 0.929 1_565 S
H191 C200 0.929 . S
C192 H186 0.930 . S
C192 C193 1.367 . S
C192 C200 1.378 . S
C193 C192 1.367 . S
C193 C201 1.433 . S
C194 H190 0.929 1_545 S
C194 C196 1.378 . S
C194 C198 1.350 . S
C195 C198 1.463 . S
C195 C200 1.350 . S
C195 N203 1.427 . S
C196 H187 0.930 1_545 S
C196 C194 1.378 . S
C196 C197 1.367 . S
C197 C196 1.367 . S
C197 C199 1.433 . S
C198 C194 1.350 . S
C198 C195 1.463 . S
C198 N202 1.427 . S
C199 H189 0.929 . S
C199 C197 1.433 . S
C199 N202 1.384 . S
C200 H191 0.929 . S
C200 C192 1.378 . S
C200 C195 1.350 . S
C201 H188 0.929 . S
C201 C193 1.433 . S
C201 N203 1.384 . S
N202 C198 1.427 . S
N202 C199 1.384 . S
N203 C195 1.427 . S
N203 C201 1.384 . S
H204 C210 0.930 . S
H205 C214 0.930 . S
H206 C219 0.929 1_545 S
H207 C217 0.929 . S
H208 C212 0.929 . S
H209 C218 0.929 . S
C210 H204 0.930 . S
C210 C211 1.367 . S
C210 C218 1.378 . S
C211 C210 1.367 . S
C211 C219 1.433 . S
C212 H208 0.929 . S
C212 C214 1.378 . S
C212 C216 1.350 . S
C213 C216 1.463 1_554 S
C213 C218 1.350 . S
C213 N221 1.427 1_554 S
C214 H205 0.930 . S
C214 C212 1.378 . S
C214 C215 1.367 . S
C215 C214 1.367 . S
C215 C217 1.433 . S
C216 C212 1.350 . S
C216 C213 1.463 1_556 S
C216 N220 1.427 . S
C217 H207 0.929 . S
C217 C215 1.433 . S
C217 N220 1.384 . S
C218 H209 0.929 . S
C218 C210 1.378 . S
C218 C213 1.350 . S
C219 H206 0.929 1_565 S
C219 C211 1.433 . S
C219 N221 1.384 1_554 S
N220 C216 1.427 . S
N220 C217 1.384 . S
N221 C213 1.427 1_556 S
N221 C219 1.384 1_556 S
H222 C228 0.930 . S
H223 C232 0.930 . S
H224 C237 0.929 . S
H225 C235 0.929 . S
H226 C230 0.929 . S
H227 C236 0.929 . S
C228 H222 0.930 . S
C228 C229 1.367 1_655 S
C228 C236 1.378 . S
C229 C228 1.367 1_455 S
C229 C237 1.433 . S
C230 H226 0.929 . S
C230 C232 1.378 . S
C230 C234 1.350 . S
C231 C234 1.463 . S
C231 C236 1.350 1_455 S
C231 N239 1.427 . S
C232 H223 0.930 . S
C232 C230 1.378 . S
C232 C233 1.367 . S
C233 C232 1.367 . S
C233 C235 1.433 1_455 S
C234 C230 1.350 . S
C234 C231 1.463 . S
C234 N238 1.427 1_455 S
C235 H225 0.929 . S
C235 C233 1.433 1_655 S
C235 N238 1.384 . S
C236 H227 0.929 . S
C236 C228 1.378 . S
C236 C231 1.350 1_655 S
C237 H224 0.929 . S
C237 C229 1.433 . S
C237 N239 1.384 . S
N238 C234 1.427 1_655 S
N238 C235 1.384 . S
N239 C231 1.427 . S
N239 C237 1.384 . S
H240 C246 0.930 . S
H241 C250 0.930 . S
H242 C255 0.929 . S
H243 C253 0.929 . S
H244 C248 0.929 . S
H245 C254 0.929 . S
C246 H240 0.930 . S
C246 C247 1.367 . S
C246 C254 1.378 . S
C247 C246 1.367 . S
C247 C255 1.433 . S
C248 H244 0.929 . S
C248 C250 1.378 . S
C248 C252 1.350 . S
C249 C252 1.463 . S
C249 C254 1.350 . S
C249 N257 1.427 . S
C250 H241 0.930 . S
C250 C248 1.378 . S
C250 C251 1.367 . S
C251 C250 1.367 . S
C251 C253 1.433 . S
C252 C248 1.350 . S
C252 C249 1.463 . S
C252 N256 1.427 . S
C253 H243 0.929 . S
C253 C251 1.433 . S
C253 N256 1.384 . S
C254 H245 0.929 . S
C254 C246 1.378 . S
C254 C249 1.350 . S
C255 H242 0.929 . S
C255 C247 1.433 . S
C255 N257 1.384 . S
N256 C252 1.427 . S
N256 C253 1.384 . S
N257 C249 1.427 . S
N257 C255 1.384 . S
H258 C264 0.930 . S
H259 C268 0.930 . S
H260 C273 0.929 . S
H261 C271 0.929 . S
H262 C266 0.929 1_554 S
H263 C272 0.929 . S
C264 H258 0.930 . S
C264 C265 1.367 . S
C264 C272 1.378 1_554 S
C265 C264 1.367 . S
C265 C273 1.433 . S
C266 H262 0.929 1_556 S
C266 C268 1.378 . S
C266 C270 1.350 . S
C267 C270 1.463 1_554 S
C267 C272 1.350 1_554 S
C267 N275 1.427 . S
C268 H259 0.930 . S
C268 C266 1.378 . S
C268 C269 1.367 . S
C269 C268 1.367 . S
C269 C271 1.433 . S
C270 C266 1.350 . S
C270 C267 1.463 1_556 S
C270 N274 1.427 . S
C271 H261 0.929 . S
C271 C269 1.433 . S
C271 N274 1.384 . S
C272 H263 0.929 . S
C272 C264 1.378 1_556 S
C272 C267 1.350 1_556 S
C273 H260 0.929 . S
C273 C265 1.433 . S
C273 N275 1.384 . S
N274 C270 1.427 . S
N274 C271 1.384 . S
N275 C267 1.427 . S
N275 C273 1.384 . S
H276 C282 0.930 . S
H277 C286 0.930 . S
H278 C291 0.929 . S
H279 C289 0.929 . S
H280 C284 0.929 1_655 S
H281 C290 0.929 . S
C282 H276 0.930 . S
C282 C283 1.367 . S
C282 C290 1.378 . S
C283 C282 1.367 . S
C283 C291 1.433 . S
C284 H280 0.929 1_455 S
C284 C286 1.378 1_455 S
C284 C288 1.350 . S
C285 C288 1.463 . S
C285 C290 1.350 . S
C285 N293 1.427 . S
C286 H277 0.930 . S
C286 C284 1.378 1_655 S
C286 C287 1.367 1_655 S
C287 C286 1.367 1_455 S
C287 C289 1.433 . S
C288 C284 1.350 . S
C288 C285 1.463 . S
C288 N292 1.427 . S
C289 H279 0.929 . S
C289 C287 1.433 . S
C289 N292 1.384 . S
C290 H281 0.929 . S
C290 C282 1.378 . S
C290 C285 1.350 . S
C291 H278 0.929 . S
C291 C283 1.433 . S
C291 N293 1.384 . S
N292 C288 1.427 . S
N292 C289 1.384 . S
N293 C285 1.427 . S
N293 C291 1.384 . S
C89 C44 1.352 . S
C85 C10 1.364 . S
C103 C21 1.442 . S
C107 C62 1.477 . S
C121 C31 1.380 . S
C125 C75 1.436 . S
C139 C0 1.320 . S
C143 C42 1.371 . S
C161 C53 1.447 . S
C157 C18 1.371 . S
C175 C34 1.394 . S
C179 C66 1.435 . S
C197 C55 1.361 . S
C193 C36 1.366 . S
C211 C8 1.333 1_565 S
C215 C68 1.358 . S
C233 C49 1.434 . S
C229 C23 1.437 . S
C251 C57 1.300 . S
C247 C26 1.248 . S
C269 C70 1.365 . S
C265 C5 1.323 . S
C283 C13 1.389 . S
C287 C40 1.446 . S
