# Generated by pormake.
# Topology apo, (3,6)-cn, num edge types: 1
# Building blocks:
#     Node 0, Type 0, BuildingBlock: OLANEW_clean_sbu_2, # of connection points: 3
#     Node 1, Type 0, BuildingBlock: OLANEW_clean_sbu_2, # of connection points: 3
#     Node 2, Type 0, BuildingBlock: OLANEW_clean_sbu_2, # of connection points: 3
#     Node 3, Type 0, BuildingBlock: OLANEW_clean_sbu_2, # of connection points: 3
#     Node 4, Type 0, BuildingBlock: OLANEW_clean_sbu_2, # of connection points: 3
#     Node 5, Type 0, BuildingBlock: OLANEW_clean_sbu_2, # of connection points: 3
#     Node 6, Type 0, BuildingBlock: OLANEW_clean_sbu_2, # of connection points: 3
#     Node 7, Type 0, BuildingBlock: OLANEW_clean_sbu_2, # of connection points: 3
#     Node 8, Type 1, BuildingBlock: KUMBUR_clean_sbu_1, # of connection points: 6
#     Node 9, Type 1, BuildingBlock: KUMBUR_clean_sbu_1, # of connection points: 6
#     Node 10, Type 1, BuildingBlock: KUMBUR_clean_sbu_1, # of connection points: 6
#     Node 11, Type 1, BuildingBlock: KUMBUR_clean_sbu_1, # of connection points: 6
#     Edge 12, Type (0, 1), BuildingBlock: ZUJKAS_clean_linker_0, # of connection points: 2
#     Edge 13, Type (0, 1), BuildingBlock: ZUJKAS_clean_linker_0, # of connection points: 2
#     Edge 14, Type (0, 1), BuildingBlock: ZUJKAS_clean_linker_0, # of connection points: 2
#     Edge 15, Type (0, 1), BuildingBlock: ZUJKAS_clean_linker_0, # of connection points: 2
#     Edge 16, Type (0, 1), BuildingBlock: ZUJKAS_clean_linker_0, # of connection points: 2
#     Edge 17, Type (0, 1), BuildingBlock: ZUJKAS_clean_linker_0, # of connection points: 2
#     Edge 18, Type (0, 1), BuildingBlock: ZUJKAS_clean_linker_0, # of connection points: 2
#     Edge 19, Type (0, 1), BuildingBlock: ZUJKAS_clean_linker_0, # of connection points: 2
#     Edge 20, Type (0, 1), BuildingBlock: ZUJKAS_clean_linker_0, # of connection points: 2
#     Edge 21, Type (0, 1), BuildingBlock: ZUJKAS_clean_linker_0, # of connection points: 2
#     Edge 22, Type (0, 1), BuildingBlock: ZUJKAS_clean_linker_0, # of connection points: 2
#     Edge 23, Type (0, 1), BuildingBlock: ZUJKAS_clean_linker_0, # of connection points: 2
#     Edge 24, Type (0, 1), BuildingBlock: ZUJKAS_clean_linker_0, # of connection points: 2
#     Edge 25, Type (0, 1), BuildingBlock: ZUJKAS_clean_linker_0, # of connection points: 2
#     Edge 26, Type (0, 1), BuildingBlock: ZUJKAS_clean_linker_0, # of connection points: 2
#     Edge 27, Type (0, 1), BuildingBlock: ZUJKAS_clean_linker_0, # of connection points: 2
#     Edge 28, Type (0, 1), BuildingBlock: ZUJKAS_clean_linker_0, # of connection points: 2
#     Edge 29, Type (0, 1), BuildingBlock: ZUJKAS_clean_linker_0, # of connection points: 2
#     Edge 30, Type (0, 1), BuildingBlock: ZUJKAS_clean_linker_0, # of connection points: 2
#     Edge 31, Type (0, 1), BuildingBlock: ZUJKAS_clean_linker_0, # of connection points: 2
#     Edge 32, Type (0, 1), BuildingBlock: ZUJKAS_clean_linker_0, # of connection points: 2
#     Edge 33, Type (0, 1), BuildingBlock: ZUJKAS_clean_linker_0, # of connection points: 2
#     Edge 34, Type (0, 1), BuildingBlock: ZUJKAS_clean_linker_0, # of connection points: 2
#     Edge 35, Type (0, 1), BuildingBlock: ZUJKAS_clean_linker_0, # of connection points: 2
# Relax obj value: 0.029
# Max RMSD: 0.212
# Mean RMSD: 0.128
data_MOF--net-apo--node1-OLANEW_clean_sbu_2--node2-KUMBUR_clean_sbu_1--edge1-ZUJKAS_clean_linker_0
_symmetry_space_group_name_H-M    P1
_symmetry_Int_Tables_number       1
_symmetry_cell_setting            triclinic
loop_
_symmetry_equiv_pos_as_xyz
'x, y, z'
_cell_length_a     36.325983
_cell_length_b     57.722753
_cell_length_c     69.140147
_cell_angle_alpha  88.767554
_cell_angle_beta   89.982651
_cell_angle_gamma 90.128132
loop_
_atom_site_label
_atom_site_type_symbol
_atom_site_fract_x
_atom_site_fract_y
_atom_site_fract_z
_atom_type_partial_charge
O0 O 0.30319 0.37606 0.37301 0.0
Cd1 Cd 0.28726 0.33952 0.38953 0.0
O2 O 0.3299 0.38528 0.40004 0.0
Cd3 Cd 0.35896 0.40455 0.42234 0.0
O4 O 0.37887 0.41217 0.45138 0.0
C5 C 0.35526 0.41206 0.46496 0.0
O6 O 0.32051 0.40832 0.46072 0.0
C7 C 0.32198 0.39049 0.38254 0.0
C8 C 0.24593 0.30968 0.36694 0.0
O9 O 0.23021 0.32303 0.379 0.0
O10 O 0.28107 0.31064 0.36545 0.0
O11 O 0.2406 0.14861 0.94076 0.0
Cd12 Cd 0.24384 0.1519 0.9054 0.0
O13 O 0.25691 0.11194 0.94045 0.0
Cd14 Cd 0.25947 0.10908 0.90909 0.0
O15 O 0.24083 0.08942 0.88434 0.0
C16 C 0.23354 0.06832 0.88836 0.0
O17 O 0.23926 0.06054 0.90611 0.0
C18 C 0.24752 0.1297 0.94982 0.0
C19 C 0.28789 0.18764 0.89032 0.0
O20 O 0.2541 0.19117 0.8947 0.0
O21 O 0.30111 0.16734 0.89354 0.0
O22 O 0.77098 0.1154 0.62441 0.0
Cd23 Cd 0.73962 0.14814 0.60864 0.0
O24 O 0.80884 0.11591 0.59983 0.0
Cd25 Cd 0.85093 0.10429 0.5796 0.0
O26 O 0.87011 0.10441 0.54954 0.0
C27 C 0.85527 0.09062 0.53773 0.0
O28 O 0.83083 0.07557 0.54428 0.0
C29 C 0.79856 0.10681 0.61584 0.0
C30 C 0.71438 0.18139 0.63413 0.0
O31 O 0.69452 0.16382 0.62992 0.0
O32 O 0.74645 0.18308 0.62647 0.0
O33 O 0.74524 0.35298 0.06617 0.0
Cd34 Cd 0.75527 0.3584 0.10086 0.0
O35 O 0.76329 0.3885 0.05883 0.0
Cd36 Cd 0.76613 0.39941 0.08879 0.0
O37 O 0.74339 0.41979 0.11217 0.0
C38 C 0.72157 0.43581 0.10667 0.0
O39 O 0.71553 0.43888 0.08805 0.0
C40 C 0.75211 0.36874 0.05351 0.0
C41 C 0.79026 0.32143 0.11998 0.0
O42 O 0.75507 0.32227 0.1187 0.0
O43 O 0.8089 0.33788 0.11195 0.0
O44 O 0.72573 0.61656 0.62666 0.0
Cd45 Cd 0.751 0.64547 0.60394 0.0
O46 O 0.67363 0.61316 0.61071 0.0
Cd47 Cd 0.68793 0.63565 0.58606 0.0
O48 O 0.68214 0.64151 0.55488 0.0
C49 C 0.66551 0.62518 0.54644 0.0
O50 O 0.65422 0.60724 0.55688 0.0
C51 C 0.69388 0.60761 0.62506 0.0
C52 C 0.78774 0.68056 0.62336 0.0
O53 O 0.75365 0.68256 0.61885 0.0
O54 O 0.80448 0.66201 0.61862 0.0
O55 O 0.77483 0.89146 0.12314 0.0
Cd56 Cd 0.7409 0.86472 0.10253 0.0
O57 O 0.81626 0.89959 0.10069 0.0
Cd58 Cd 0.79315 0.88017 0.07674 0.0
O59 O 0.79117 0.87718 0.04524 0.0
C60 C 0.81715 0.86684 0.03666 0.0
O61 O 0.84289 0.85665 0.0471 0.0
C62 C 0.80393 0.90209 0.11774 0.0
C63 C 0.70431 0.82947 0.1234 0.0
O64 O 0.73725 0.82666 0.11722 0.0
O65 O 0.68875 0.84901 0.11985 0.0
O66 O 0.21887 0.88005 0.37306 0.0
Cd67 Cd 0.23824 0.85165 0.39782 0.0
O68 O 0.22746 0.90937 0.39238 0.0
Cd69 Cd 0.23833 0.88821 0.41822 0.0
O70 O 0.22969 0.87695 0.44818 0.0
C71 C 0.19937 0.8671 0.4525 0.0
O72 O 0.17568 0.86295 0.43863 0.0
C73 C 0.21887 0.90176 0.37585 0.0
C74 C 0.27576 0.8145 0.38183 0.0
O75 O 0.24092 0.81356 0.3847 0.0
O76 O 0.29284 0.83299 0.38655 0.0
O77 O 0.28799 0.61957 0.8773 0.0
Cd78 Cd 0.25877 0.64883 0.89734 0.0
O79 O 0.28103 0.59217 0.89965 0.0
Cd80 Cd 0.26406 0.61497 0.92277 0.0
O81 O 0.27393 0.62577 0.95243 0.0
C82 C 0.30289 0.61721 0.96 0.0
O83 O 0.32337 0.60346 0.9496 0.0
C84 C 0.29108 0.59845 0.88271 0.0
C85 C 0.2211 0.68248 0.87544 0.0
O86 O 0.25481 0.68544 0.88032 0.0
O87 O 0.20525 0.66357 0.88085 0.0
Tb88 Tb 0.05902 0.11234 0.22041 0.0
C89 C 0.91716 0.07129 0.25484 0.0
N90 N 0.92566 0.094 0.25209 0.0
C91 C 0.86648 0.10087 0.23773 0.0
C92 C 0.88346 0.06216 0.24839 0.0
C93 C 0.90052 0.10903 0.24423 0.0
C94 C 0.85808 0.07727 0.23959 0.0
C95 C 0.93428 0.03383 0.26826 0.0
C96 C 0.94222 0.05742 0.26453 0.0
C97 C 0.90158 0.02424 0.26103 0.0
C98 C 0.87615 0.0384 0.25113 0.0
Tb99 Tb 0.98209 0.10569 0.26265 0.0
N100 N 0.97316 0.0675 0.27149 0.0
C101 C 0.95869 0.0209 0.27979 0.0
C102 C 0.99483 0.05556 0.2844 0.0
C103 C 0.98868 0.03197 0.28825 0.0
H104 H 0.90697 0.12724 0.24272 0.0
H105 H 0.0067 0.02245 0.29802 0.0
H106 H 0.12151 0.07153 0.23342 0.0
H107 H 0.08155 0.20275 0.20386 0.0
H108 H 0.01663 0.06422 0.292 0.0
H109 H 0.95368 0.00271 0.28298 0.0
H110 H 0.049 0.16499 0.20239 0.0
H111 H 0.84684 0.11275 0.23123 0.0
H112 H 0.89519 0.00607 0.26351 0.0
H113 H 0.85066 0.03092 0.24602 0.0
H114 H 0.17967 0.07026 0.25153 0.0
H115 H 0.83181 0.07096 0.23445 0.0
H116 H 0.13882 0.20604 0.22308 0.0
N117 N 0.11576 0.10826 0.23494 0.0
C118 C 0.13412 0.12838 0.23809 0.0
C119 C 0.16679 0.08677 0.24822 0.0
C120 C 0.1685 0.12856 0.24756 0.0
C121 C 0.13314 0.08756 0.23839 0.0
C122 C 0.18413 0.10738 0.25327 0.0
N123 N 0.08723 0.1476 0.22082 0.0
C124 C 0.07408 0.16641 0.2107 0.0
C125 C 0.13914 0.16976 0.23176 0.0
C126 C 0.11985 0.14869 0.23031 0.0
C127 C 0.1248 0.1895 0.22236 0.0
C128 C 0.09244 0.18772 0.2115 0.0
H129 H 0.21046 0.10672 0.26062 0.0
H130 H 0.21304 0.15026 0.25766 0.0
H131 H 0.18724 0.1864 0.24383 0.0
O132 O 0.04597 0.11548 0.19081 0.0
O133 O 0.0487 0.13989 0.2412 0.0
O134 O 0.03688 0.11911 0.26876 0.0
O135 O 0.09984 0.10496 0.19991 0.0
O136 O 0.00578 0.12883 0.21424 0.0
O137 O 0.97623 0.13662 0.24357 0.0
O138 O 0.96407 0.1024 0.29148 0.0
O139 O 0.97042 0.0949 0.23296 0.0
O140 O 0.02485 0.08094 0.22095 0.0
O141 O 0.96049 0.13508 0.27616 0.0
O142 O 0.03774 0.09149 0.26714 0.0
O143 O 0.05788 0.07963 0.23733 0.0
C144 C 0.04998 0.13767 0.26006 0.0
C145 C 0.07901 0.09094 0.17031 0.0
C146 C 0.09895 0.07974 0.13812 0.0
C147 C 0.08367 0.05759 0.14159 0.0
C148 C 0.064 0.06881 0.17356 0.0
C149 C 0.06624 0.05224 0.15917 0.0
C150 C 0.09619 0.09636 0.15264 0.0
C151 C 0.98184 0.14039 0.22479 0.0
C152 C 0.07818 0.10853 0.18527 0.0
C153 C 0.18688 0.14973 0.25016 0.0
C154 C 0.17227 0.1703 0.24222 0.0
C155 C 0.98887 0.07971 0.22299 0.0
C156 C 0.91748 0.12763 0.3016 0.0
C157 C 0.88169 0.12753 0.33154 0.0
C158 C 0.8511 0.13581 0.32104 0.0
C159 C 0.88671 0.13593 0.29135 0.0
C160 C 0.91475 0.12344 0.32162 0.0
C161 C 0.85366 0.1399 0.30107 0.0
C162 C 0.05539 0.07677 0.25623 0.0
C163 C 0.95321 0.12374 0.29217 0.0
H164 H 0.08565 0.04427 0.13085 0.0
H165 H 0.05082 0.06434 0.18718 0.0
H166 H 0.05473 0.03514 0.16173 0.0
H167 H 0.10721 0.11365 0.15023 0.0
H168 H 0.82516 0.13895 0.32824 0.0
H169 H 0.88824 0.13953 0.27595 0.0
H170 H 0.93879 0.11745 0.32956 0.0
H171 H 0.82997 0.14628 0.29312 0.0
Tb172 Tb 0.47723 0.38955 0.74476 0.0
C173 C 0.64312 0.40331 0.7709 0.0
N174 N 0.62106 0.38445 0.77355 0.0
C175 C 0.6709 0.35946 0.765 0.0
C176 C 0.67992 0.40098 0.76481 0.0
C177 C 0.63456 0.36265 0.77106 0.0
C178 C 0.69363 0.37871 0.76175 0.0
C179 C 0.65029 0.44509 0.77136 0.0
C180 C 0.62854 0.42506 0.77418 0.0
C181 C 0.68695 0.4429 0.7652 0.0
C182 C 0.70173 0.4209 0.76194 0.0
Tb183 Tb 0.56192 0.39195 0.78262 0.0
N184 N 0.59248 0.42655 0.7794 0.0
C185 C 0.63441 0.46672 0.77465 0.0
C186 C 0.57739 0.44754 0.78348 0.0
C187 C 0.59792 0.46791 0.78091 0.0
H188 H 0.61758 0.34767 0.77418 0.0
H189 H 0.5856 0.48453 0.78381 0.0
H190 H 0.40921 0.4158 0.76722 0.0
H191 H 0.49201 0.3011 0.72077 0.0
H192 H 0.54964 0.44881 0.78871 0.0
H193 H 0.65013 0.48255 0.77257 0.0
H194 H 0.50544 0.34278 0.72044 0.0
H195 H 0.68141 0.34215 0.76296 0.0
H196 H 0.70407 0.4581 0.76288 0.0
H197 H 0.73005 0.41948 0.7572 0.0
H198 H 0.35088 0.40464 0.78343 0.0
H199 H 0.72177 0.37618 0.75706 0.0
H200 H 0.43974 0.28562 0.74005 0.0
N201 N 0.42238 0.38136 0.75949 0.0
C202 C 0.41166 0.35879 0.75957 0.0
C203 C 0.36778 0.39158 0.77681 0.0
C204 C 0.37886 0.35159 0.76879 0.0
C205 C 0.40079 0.39785 0.76767 0.0
C206 C 0.35685 0.36833 0.77748 0.0
N207 N 0.46591 0.35056 0.74213 0.0
C208 C 0.48468 0.33615 0.7302 0.0
C209 C 0.42447 0.31921 0.7508 0.0
C210 C 0.43454 0.34282 0.75094 0.0
C211 C 0.44649 0.30389 0.74054 0.0
C212 C 0.47619 0.31252 0.72978 0.0
H213 H 0.33145 0.3635 0.78474 0.0
H214 H 0.34461 0.32203 0.77656 0.0
H215 H 0.38436 0.2937 0.76064 0.0
O216 O 0.47309 0.38679 0.71446 0.0
O217 O 0.47132 0.37925 0.77542 0.0
O218 O 0.52572 0.36166 0.78287 0.0
O219 O 0.43322 0.40591 0.73028 0.0
O220 O 0.53135 0.3755 0.73665 0.0
O221 O 0.5545 0.361 0.76545 0.0
O222 O 0.55104 0.39892 0.81184 0.0
O223 O 0.56998 0.40923 0.7543 0.0
O224 O 0.51303 0.41994 0.74174 0.0
O225 O 0.59809 0.37884 0.80394 0.0
O226 O 0.51284 0.41312 0.78888 0.0
O227 O 0.48013 0.42182 0.76049 0.0
C228 C 0.48981 0.36278 0.7843 0.0
C229 C 0.44918 0.42039 0.69936 0.0
C230 C 0.44643 0.43555 0.66614 0.0
C231 C 0.4573 0.45741 0.67276 0.0
C232 C 0.45961 0.44241 0.70566 0.0
C233 C 0.46387 0.46076 0.69239 0.0
C234 C 0.44271 0.41701 0.6796 0.0
C235 C 0.55339 0.36143 0.74645 0.0
C236 C 0.44529 0.40085 0.71326 0.0
C237 C 0.36949 0.32797 0.76934 0.0
C238 C 0.39225 0.31181 0.76037 0.0
C239 C 0.54892 0.42244 0.74326 0.0
C240 C 0.57123 0.37001 0.83406 0.0
C241 C 0.58423 0.35542 0.86676 0.0
C242 C 0.55776 0.33789 0.86425 0.0
C243 C 0.54519 0.35235 0.83188 0.0
C244 C 0.5908 0.37148 0.8515 0.0
C245 C 0.53842 0.33641 0.84689 0.0
C246 C 0.48881 0.4256 0.77871 0.0
C247 C 0.57881 0.38667 0.81815 0.0
H248 H 0.46095 0.47191 0.66273 0.0
H249 H 0.4643 0.44545 0.72084 0.0
H250 H 0.47218 0.47765 0.69734 0.0
H251 H 0.43418 0.40007 0.67478 0.0
H252 H 0.55241 0.32509 0.87559 0.0
H253 H 0.53032 0.35083 0.81855 0.0
H254 H 0.61085 0.38523 0.85321 0.0
H255 H 0.5183 0.32277 0.84501 0.0
Tb256 Tb 0.04325 0.89106 0.72724 0.0
C257 C 0.89158 0.85691 0.75053 0.0
N258 N 0.90296 0.8792 0.74819 0.0
C259 C 0.84984 0.88782 0.72879 0.0
C260 C 0.85967 0.84883 0.74127 0.0
C261 C 0.88197 0.89494 0.73815 0.0
C262 C 0.83888 0.86459 0.73015 0.0
C263 C 0.90124 0.8191 0.76537 0.0
C264 C 0.91219 0.84233 0.76233 0.0
C265 C 0.87039 0.81055 0.7555 0.0
C266 C 0.84959 0.82541 0.74349 0.0
Tb267 Tb 0.95602 0.88912 0.76355 0.0
N268 N 0.94167 0.85134 0.77168 0.0
C269 C 0.92083 0.80543 0.77875 0.0
C270 C 0.95837 0.83871 0.78614 0.0
C271 C 0.94901 0.81544 0.78949 0.0
H272 H 0.8904 0.91289 0.73711 0.0
H273 H 0.96311 0.80537 0.80059 0.0
H274 H 0.1008 0.85066 0.74562 0.0
H275 H 0.06978 0.98027 0.70754 0.0
H276 H 0.97846 0.84652 0.79546 0.0
H277 H 0.91335 0.78748 0.78152 0.0
H278 H 0.03646 0.9428 0.70671 0.0
H279 H 0.83363 0.90021 0.72051 0.0
H280 H 0.86182 0.79266 0.75745 0.0
H281 H 0.82547 0.81872 0.73626 0.0
H282 H 0.15678 0.85003 0.76562 0.0
H283 H 0.81414 0.85908 0.72279 0.0
H284 H 0.12542 0.9841 0.72795 0.0
N285 N 0.09769 0.88752 0.74393 0.0
C286 C 0.11665 0.90757 0.74641 0.0
C287 C 0.14541 0.86642 0.76063 0.0
C288 C 0.14975 0.90802 0.75703 0.0
C289 C 0.11301 0.86689 0.74969 0.0
C290 C 0.16345 0.88714 0.76469 0.0
N291 N 0.07243 0.92606 0.72678 0.0
C292 C 0.06069 0.94442 0.71564 0.0
C293 C 0.12386 0.94836 0.73814 0.0
C294 C 0.10407 0.92743 0.73711 0.0
C295 C 0.111 0.96766 0.72756 0.0
C296 C 0.07955 0.96558 0.71605 0.0
H297 H 0.18878 0.88671 0.77296 0.0
H298 H 0.19395 0.92986 0.76732 0.0
H299 H 0.17118 0.96525 0.7508 0.0
O300 O 0.03557 0.89216 0.69708 0.0
O301 O 0.0318 0.91964 0.7469 0.0
O302 O 0.00869 0.90195 0.77424 0.0
O303 O 0.08605 0.8796 0.70933 0.0
O304 O 0.99283 0.9083 0.71691 0.0
O305 O 0.9604 0.9199 0.74428 0.0
O306 O 0.92677 0.8869 0.78987 0.0
O307 O 0.95225 0.87691 0.73373 0.0
O308 O 0.00816 0.86028 0.7285 0.0
O309 O 0.93014 0.91898 0.77374 0.0
O310 O 0.00799 0.87351 0.77394 0.0
O311 O 0.03678 0.86032 0.74639 0.0
C312 C 0.02904 0.91799 0.76578 0.0
C313 C 0.06526 0.8621 0.68098 0.0
C314 C 0.07516 0.84539 0.64931 0.0
C315 C 0.06055 0.82425 0.65636 0.0
C316 C 0.0515 0.84075 0.68788 0.0
C317 C 0.04887 0.82199 0.67556 0.0
C318 C 0.07718 0.86434 0.66175 0.0
C319 C 0.96929 0.92194 0.72575 0.0
C320 C 0.06686 0.88221 0.69362 0.0
C321 C 0.16872 0.9291 0.759 0.0
C322 C 0.15585 0.94923 0.74953 0.0
C323 C 0.97233 0.86047 0.72639 0.0
C324 C 0.93139 0.92091 0.80792 0.0
C325 C 0.92701 0.92418 0.84308 0.0
C326 C 0.95219 0.94274 0.84213 0.0
C327 C 0.95681 0.93932 0.80741 0.0
C328 C 0.91661 0.91343 0.8258 0.0
C329 C 0.96691 0.95017 0.82442 0.0
C330 C 0.03041 0.85916 0.76517 0.0
C331 C 0.9207 0.90904 0.79006 0.0
H332 H 0.05884 0.80933 0.64716 0.0
H333 H 0.04297 0.83857 0.70276 0.0
H334 H 0.03801 0.8056 0.68094 0.0
H335 H 0.08769 0.88088 0.65645 0.0
H336 H 0.96026 0.95172 0.85505 0.0
H337 H 0.96893 0.94536 0.7939 0.0
H338 H 0.89756 0.89894 0.82623 0.0
H339 H 0.98617 0.96446 0.82386 0.0
Tb340 Tb 0.45343 0.61799 0.2361 0.0
C341 C 0.60939 0.64679 0.2546 0.0
N342 N 0.59612 0.62496 0.25255 0.0
C343 C 0.64716 0.6155 0.23224 0.0
C344 C 0.64201 0.65396 0.2452 0.0
C345 C 0.6148 0.60911 0.24196 0.0
C346 C 0.66077 0.63805 0.23381 0.0
C347 C 0.60293 0.68475 0.2685 0.0
C348 C 0.58981 0.66199 0.26603 0.0
C349 C 0.63536 0.69203 0.25909 0.0
C350 C 0.65489 0.67667 0.24752 0.0
Tb351 Tb 0.54505 0.61604 0.27015 0.0
N352 N 0.55888 0.6542 0.27529 0.0
C353 C 0.58379 0.69929 0.28089 0.0
C354 C 0.54225 0.66774 0.28872 0.0
C355 C 0.55366 0.69062 0.29125 0.0
H356 H 0.60469 0.59157 0.24103 0.0
H357 H 0.53986 0.70134 0.30166 0.0
H358 H 0.40319 0.66289 0.24952 0.0
H359 H 0.41848 0.52814 0.22564 0.0
H360 H 0.52129 0.6609 0.29824 0.0
H361 H 0.59296 0.7169 0.28315 0.0
H362 H 0.45774 0.5631 0.22297 0.0
H363 H 0.6617 0.603 0.22366 0.0
H364 H 0.64587 0.70944 0.26089 0.0
H365 H 0.68006 0.68247 0.24053 0.0
H366 H 0.34194 0.66927 0.26398 0.0
H367 H 0.68589 0.64294 0.2263 0.0
H368 H 0.35685 0.5305 0.24075 0.0
N369 N 0.39695 0.62632 0.24864 0.0
C370 C 0.3735 0.60807 0.2508 0.0
C371 C 0.35066 0.65191 0.26059 0.0
C372 C 0.33794 0.61091 0.25852 0.0
C373 C 0.3856 0.64821 0.25274 0.0
C374 C 0.32686 0.63315 0.26371 0.0
N375 N 0.4195 0.58461 0.2374 0.0
C376 C 0.43107 0.56422 0.22975 0.0
C377 C 0.36139 0.56718 0.2463 0.0
C378 C 0.38488 0.58656 0.24466 0.0
C379 C 0.37399 0.54586 0.23966 0.0
C380 C 0.40882 0.54444 0.23116 0.0
H381 H 0.29974 0.63609 0.26969 0.0
H382 H 0.28713 0.59338 0.26651 0.0
H383 H 0.30777 0.55506 0.25591 0.0
O384 O 0.46264 0.61487 0.20624 0.0
O385 O 0.45299 0.59129 0.25915 0.0
O386 O 0.50228 0.59274 0.28093 0.0
O387 O 0.41491 0.63256 0.21671 0.0
O388 O 0.50116 0.59833 0.22627 0.0
O389 O 0.53539 0.58533 0.25285 0.0
O390 O 0.56884 0.61937 0.29786 0.0
O391 O 0.54465 0.62965 0.2401 0.0
O392 O 0.48966 0.64825 0.23733 0.0
O393 O 0.58345 0.59075 0.27935 0.0
O394 O 0.49365 0.62892 0.28285 0.0
O395 O 0.46489 0.64554 0.25639 0.0
C396 C 0.4707 0.5844 0.27483 0.0
C397 C 0.43854 0.64499 0.18662 0.0
C398 C 0.42932 0.65846 0.1533 0.0
C399 C 0.44794 0.67912 0.15759 0.0
C400 C 0.45636 0.66585 0.19076 0.0
C401 C 0.46132 0.68276 0.17624 0.0
C402 C 0.42499 0.64138 0.16795 0.0
C403 C 0.52414 0.58368 0.2348 0.0
C404 C 0.43353 0.62682 0.20154 0.0
C405 C 0.31451 0.59158 0.2605 0.0
C406 C 0.32622 0.56976 0.25443 0.0
C407 C 0.52509 0.6473 0.23378 0.0
C408 C 0.61368 0.59169 0.31077 0.0
C409 C 0.63486 0.59009 0.34432 0.0
C410 C 0.65983 0.57258 0.33944 0.0
C411 C 0.63887 0.5742 0.30624 0.0
C412 C 0.61206 0.59977 0.32982 0.0
C413 C 0.66187 0.5648 0.32051 0.0
C414 C 0.46824 0.64251 0.27518 0.0
C415 C 0.58828 0.60073 0.29581 0.0
H416 H 0.45155 0.69265 0.14665 0.0
H417 H 0.46614 0.66905 0.2052 0.0
H418 H 0.47528 0.6988 0.1795 0.0
H419 H 0.4113 0.62517 0.16483 0.0
H420 H 0.678 0.56501 0.35026 0.0
H421 H 0.6407 0.56772 0.29169 0.0
H422 H 0.59235 0.61304 0.33351 0.0
H423 H 0.68124 0.55134 0.3169 0.0
H424 H 0.21519 0.94888 0.37756 0.0
H425 H 0.19149 0.97595 0.35309 0.0
H426 H 0.17275 0.9195 0.31441 0.0
H427 H 0.19595 0.89205 0.33903 0.0
H428 H 0.21402 0.98579 0.31525 0.0
H429 H 0.07145 0.95024 0.31769 0.0
H430 H 0.10554 0.94277 0.33573 0.0
H431 H 0.10715 0.92985 0.31234 0.0
C432 C 0.2062 0.94214 0.36383 0.0
C433 C 0.20717 0.91824 0.36033 0.0
C434 C 0.19272 0.95769 0.34984 0.0
C435 C 0.17985 0.94969 0.33207 0.0
C436 C 0.18191 0.92596 0.3282 0.0
H437 H 0.06788 0.03368 0.24237 0.0
H438 H 0.10081 0.00161 0.25864 0.0
C439 C 0.19536 0.91033 0.34224 0.0
C440 C 0.16351 0.96637 0.31795 0.0
H441 H 0.08216 0.98225 0.2968 0.0
C442 C 0.18528 0.98491 0.31106 0.0
C443 C 0.12599 0.96514 0.31253 0.0
C444 C 0.10098 0.94606 0.32003 0.0
C445 C 0.17033 0.00254 0.29923 0.0
C446 C 0.1326 0.00168 0.29435 0.0
C447 C 0.11112 0.98275 0.3006 0.0
C448 C 0.11425 0.02115 0.28405 0.0
C449 C 0.19482 0.02213 0.29223 0.0
C450 C 0.11083 0.04258 0.29306 0.0
C451 C 0.09195 0.06074 0.28391 0.0
C452 C 0.07618 0.05774 0.2656 0.0
C453 C 0.07997 0.03638 0.25647 0.0
C454 C 0.09863 0.01811 0.26573 0.0
H455 H 0.22439 0.0173 0.29292 0.0
H456 H 0.18791 0.02742 0.27712 0.0
H457 H 0.19062 0.03732 0.30154 0.0
H458 H 0.12226 0.04512 0.30733 0.0
H459 H 0.08954 0.07711 0.29118 0.0
H460 H 0.29609 0.55166 0.8887 0.0
H461 H 0.32913 0.52375 0.86917 0.0
H462 H 0.3585 0.57816 0.82831 0.0
H463 H 0.32554 0.60638 0.84783 0.0
H464 H 0.32013 0.51238 0.82909 0.0
H465 H 0.45834 0.54867 0.84567 0.0
H466 H 0.41789 0.55538 0.85966 0.0
H467 H 0.42483 0.56887 0.8363 0.0
C468 C 0.30935 0.55774 0.8755 0.0
C469 C 0.30837 0.58131 0.8699 0.0
C470 C 0.32819 0.54173 0.86435 0.0
C471 C 0.34664 0.54897 0.84747 0.0
C472 C 0.34484 0.57232 0.84146 0.0
H473 H 0.44217 0.45767 0.76235 0.0
H474 H 0.40806 0.48804 0.77854 0.0
C475 C 0.32582 0.58838 0.85258 0.0
C476 C 0.36835 0.53202 0.83647 0.0
H477 H 0.45628 0.5172 0.82444 0.0
C478 C 0.34987 0.51347 0.82796 0.0
C479 C 0.40717 0.53338 0.8353 0.0
C480 C 0.42842 0.55252 0.84482 0.0
C481 C 0.36923 0.49622 0.81823 0.0
C482 C 0.40802 0.49772 0.81687 0.0
C483 C 0.42652 0.51623 0.82543 0.0
C484 C 0.42988 0.47991 0.80696 0.0
C485 C 0.34816 0.47623 0.80984 0.0
C486 C 0.45421 0.46567 0.81753 0.0
C487 C 0.4738 0.44821 0.80835 0.0
C488 C 0.46953 0.44478 0.78839 0.0
C489 C 0.44587 0.45959 0.77778 0.0
C490 C 0.42624 0.47696 0.78699 0.0
H491 H 0.31965 0.47506 0.81561 0.0
H492 H 0.34651 0.47862 0.7939 0.0
H493 H 0.36244 0.45957 0.81297 0.0
H494 H 0.45749 0.4678 0.83297 0.0
H495 H 0.49185 0.43723 0.81697 0.0
H496 H 0.72928 0.59101 0.6576 0.0
H497 H 0.70889 0.55958 0.67955 0.0
H498 H 0.60896 0.5526 0.64657 0.0
H499 H 0.6289 0.58379 0.6246 0.0
H500 H 0.64071 0.55512 0.70204 0.0
H501 H 0.65714 0.48698 0.64722 0.0
H502 H 0.67859 0.51516 0.64481 0.0
H503 H 0.63063 0.51162 0.6392 0.0
C504 C 0.70287 0.58287 0.65508 0.0
C505 C 0.68085 0.58982 0.63925 0.0
C506 C 0.6913 0.56495 0.66763 0.0
C507 C 0.65773 0.5536 0.66446 0.0
C508 C 0.63524 0.56093 0.64905 0.0
H509 H 0.51871 0.46394 0.73262 0.0
H510 H 0.54811 0.49579 0.71449 0.0
C511 C 0.64667 0.57884 0.63656 0.0
C512 C 0.64613 0.53384 0.677 0.0
H513 H 0.62433 0.47635 0.67589 0.0
C514 C 0.63742 0.53784 0.69641 0.0
C515 C 0.64238 0.51129 0.66964 0.0
C516 C 0.65298 0.50586 0.64912 0.0
C517 C 0.62361 0.51997 0.70848 0.0
C518 C 0.61817 0.49771 0.70081 0.0
C519 C 0.62825 0.49352 0.68163 0.0
C520 C 0.60086 0.4787 0.71223 0.0
C521 C 0.61479 0.52498 0.7293 0.0
C522 C 0.62063 0.45842 0.71662 0.0
C523 C 0.60372 0.44007 0.72672 0.0
C524 C 0.56668 0.44167 0.73241 0.0
C525 C 0.54701 0.46203 0.72803 0.0
C526 C 0.56394 0.48037 0.71797 0.0
H527 H 0.62875 0.54098 0.73416 0.0
H528 H 0.58465 0.52745 0.73083 0.0
H529 H 0.62304 0.51028 0.73896 0.0
H530 H 0.64912 0.4568 0.71222 0.0
H531 H 0.61952 0.42456 0.72989 0.0
H532 H 0.78079 0.91749 0.15311 0.0
H533 H 0.80997 0.94722 0.17284 0.0
H534 H 0.89888 0.95305 0.13169 0.0
H535 H 0.86991 0.92377 0.11184 0.0
H536 H 0.88014 0.95034 0.19017 0.0
H537 H 0.85987 0.01941 0.13428 0.0
H538 H 0.83669 0.99177 0.13343 0.0
H539 H 0.8836 0.99459 0.12535 0.0
C540 C 0.80668 0.92499 0.14834 0.0
C541 C 0.82277 0.91842 0.13077 0.0
C542 C 0.82329 0.94198 0.15962 0.0
C543 C 0.85618 0.95267 0.15351 0.0
C544 C 0.87306 0.94541 0.13644 0.0
H545 H 0.01361 0.03653 0.21459 0.0
H546 H 0.97953 0.00549 0.19881 0.0
C547 C 0.85649 0.92857 0.12515 0.0
C548 C 0.87265 0.9718 0.16462 0.0
H549 H 0.90051 0.02819 0.16018 0.0
C550 C 0.88438 0.96741 0.18369 0.0
C551 C 0.87754 0.99419 0.15625 0.0
C552 C 0.86343 0.0004 0.13628 0.0
C553 C 0.90208 0.98464 0.19438 0.0
C554 C 0.90871 0.00664 0.18561 0.0
C555 C 0.89584 0.01122 0.16679 0.0
C556 C 0.92915 0.02517 0.19558 0.0
C557 C 0.91324 0.97924 0.215 0.0
C558 C 0.91254 0.04675 0.19845 0.0
C559 C 0.93214 0.06457 0.20716 0.0
C560 C 0.96861 0.0611 0.21326 0.0
C561 C 0.98544 0.03962 0.21011 0.0
C562 C 0.96587 0.0218 0.20133 0.0
H563 H 0.89739 0.96437 0.22121 0.0
H564 H 0.94286 0.97461 0.21538 0.0
H565 H 0.90912 0.99448 0.22428 0.0
H566 H 0.88439 0.04982 0.19393 0.0
H567 H 0.91883 0.08113 0.209 0.0
H568 H 0.87241 0.09824 0.61773 0.0
H569 H 0.90289 0.06653 0.63555 0.0
H570 H 0.79676 0.03727 0.65034 0.0
H571 H 0.76654 0.06983 0.63381 0.0
H572 H 0.83499 0.03659 0.68035 0.0
H573 H 0.9244 0.00202 0.62312 0.0
H574 H 0.93414 0.03197 0.62711 0.0
H575 H 0.88967 0.02353 0.618 0.0
C576 C 0.85576 0.0848 0.62458 0.0
C577 C 0.81721 0.08636 0.62438 0.0
C578 C 0.87316 0.06658 0.63466 0.0
C579 C 0.85225 0.04914 0.64408 0.0
C580 C 0.81364 0.05044 0.64328 0.0
H581 H 0.94462 0.91974 0.68878 0.0
H582 H 0.91543 0.95059 0.66944 0.0
C583 C 0.79634 0.06899 0.63376 0.0
C584 C 0.87013 0.03037 0.65587 0.0
H585 H 0.93744 0.98916 0.65546 0.0
C586 C 0.85714 0.02608 0.67478 0.0
C587 C 0.89883 0.01639 0.64867 0.0
C588 C 0.91227 0.01854 0.62805 0.0
C589 C 0.87173 0.00827 0.68658 0.0
C590 C 0.90171 0.9951 0.67975 0.0
C591 C 0.91477 0.99938 0.66085 0.0
C592 C 0.91926 0.97638 0.69169 0.0
C593 C 0.85377 0.00336 0.70595 0.0
C594 C 0.93146 0.9805 0.71062 0.0
C595 C 0.94701 0.96265 0.72188 0.0
C596 C 0.95199 0.94061 0.71414 0.0
C597 C 0.941 0.93663 0.69505 0.0
C598 C 0.92444 0.95428 0.68399 0.0
H599 H 0.82465 0.00921 0.70604 0.0
H600 H 0.85436 0.9846 0.7098 0.0
H601 H 0.86858 0.013 0.71728 0.0
H602 H 0.92917 0.99756 0.71669 0.0
H603 H 0.95596 0.9662 0.73647 0.0
H604 H 0.67398 0.47131 0.09903 0.0
H605 H 0.64073 0.49479 0.12219 0.0
H606 H 0.69127 0.45663 0.16941 0.0
H607 H 0.7251 0.43312 0.14631 0.0
H608 H 0.59079 0.47916 0.15071 0.0
H609 H 0.71031 0.52473 0.18283 0.0
H610 H 0.71338 0.50958 0.16031 0.0
H611 H 0.71351 0.49367 0.18292 0.0
C612 C 0.67826 0.46795 0.11434 0.0
C613 C 0.70229 0.45036 0.12083 0.0
C614 C 0.65916 0.48138 0.12755 0.0
C615 C 0.66383 0.4776 0.14749 0.0
C616 C 0.68778 0.46008 0.15407 0.0
H617 H 0.56932 0.54788 0.24626 0.0
H618 H 0.60155 0.52064 0.22559 0.0
C619 C 0.70695 0.44661 0.14084 0.0
C620 C 0.64274 0.49166 0.16131 0.0
H621 H 0.65207 0.53138 0.19686 0.0
C622 C 0.60415 0.49057 0.16083 0.0
C623 C 0.6603 0.50646 0.1745 0.0
C624 C 0.70164 0.50891 0.17515 0.0
C625 C 0.58257 0.50385 0.17324 0.0
C626 C 0.60011 0.5189 0.18626 0.0
C627 C 0.63872 0.51976 0.18691 0.0
C628 C 0.57897 0.53454 0.19883 0.0
C629 C 0.54123 0.50144 0.17244 0.0
C630 C 0.55562 0.55138 0.19063 0.0
C631 C 0.53707 0.5669 0.20236 0.0
C632 C 0.54184 0.56609 0.22257 0.0
C633 C 0.56502 0.54902 0.23077 0.0
C634 C 0.5835 0.53345 0.21898 0.0
H635 H 0.53282 0.48468 0.16615 0.0
H636 H 0.52883 0.50272 0.18706 0.0
H637 H 0.52981 0.51557 0.16312 0.0
H638 H 0.55236 0.55288 0.17508 0.0
H639 H 0.51969 0.57988 0.19549 0.0
H640 H 0.2919 0.4122 0.35104 0.0
H641 H 0.31524 0.44632 0.33335 0.0
H642 H 0.40411 0.45205 0.37428 0.0
H643 H 0.38133 0.41772 0.39188 0.0
H644 H 0.36793 0.49543 0.36356 0.0
H645 H 0.41068 0.44411 0.30025 0.0
H646 H 0.36365 0.44027 0.30775 0.0
H647 H 0.40022 0.43089 0.32352 0.0
C648 C 0.31627 0.42081 0.35638 0.0
C649 C 0.33451 0.41236 0.37303 0.0
C650 C 0.32959 0.44027 0.34622 0.0
C651 C 0.36157 0.45154 0.35242 0.0
C652 C 0.37929 0.4436 0.36932 0.0
H653 H 0.50576 0.54723 0.2909 0.0
H654 H 0.47838 0.51513 0.30985 0.0
C655 C 0.36599 0.4241 0.37949 0.0
C656 C 0.37721 0.47113 0.34089 0.0
H657 H 0.41643 0.48488 0.29721 0.0
C658 C 0.37852 0.49317 0.34905 0.0
C659 C 0.39129 0.46802 0.32204 0.0
C660 C 0.39176 0.44453 0.31286 0.0
C661 C 0.39318 0.51228 0.33872 0.0
C662 C 0.4067 0.50921 0.31977 0.0
C663 C 0.40574 0.48715 0.31169 0.0
C664 C 0.42291 0.52861 0.30829 0.0
C665 C 0.39467 0.53557 0.34817 0.0
C666 C 0.40065 0.54662 0.30103 0.0
C667 C 0.41618 0.56483 0.29012 0.0
C668 C 0.45418 0.56531 0.28639 0.0
C669 C 0.47641 0.5473 0.29371 0.0
C670 C 0.46083 0.52896 0.30444 0.0
H671 H 0.38893 0.53424 0.36394 0.0
H672 H 0.42211 0.54372 0.34596 0.0
H673 H 0.37381 0.54718 0.34139 0.0
H674 H 0.37129 0.54656 0.30378 0.0
H675 H 0.39862 0.57874 0.28492 0.0
H676 H 0.21199 0.02339 0.8936 0.0
H677 H 0.17898 0.99911 0.8709 0.0
H678 H 0.18203 0.05441 0.828 0.0
H679 H 0.2153 0.07897 0.85067 0.0
H680 H 0.10904 0.01214 0.85402 0.0
H681 H 0.21687 0.99554 0.7988 0.0
H682 H 0.22791 0.00463 0.82297 0.0
H683 H 0.21017 0.02518 0.80553 0.0
C684 C 0.20607 0.03037 0.87927 0.0
C685 C 0.2162 0.05315 0.87396 0.0
C686 C 0.18718 0.01645 0.86633 0.0
C687 C 0.17833 0.02493 0.84777 0.0
C688 C 0.18909 0.04746 0.84219 0.0
H689 H 0.04864 0.96242 0.75628 0.0
H690 H 0.08464 0.98927 0.77577 0.0
C691 C 0.20794 0.06148 0.85518 0.0
C692 C 0.15566 0.01061 0.83486 0.0
H693 H 0.15741 0.98058 0.79286 0.0
C694 C 0.11959 0.0052 0.84065 0.0
C695 C 0.16949 0.00186 0.81737 0.0
C696 C 0.2083 0.0069 0.81075 0.0
C697 C 0.09695 0.99111 0.82944 0.0
C698 C 0.11101 0.98189 0.81218 0.0
C699 C 0.14685 0.98765 0.80617 0.0
C700 C 0.08911 0.96577 0.80045 0.0
C701 C 0.05784 0.98662 0.83583 0.0
C702 C 0.07995 0.94369 0.80787 0.0
C703 C 0.05985 0.92827 0.79669 0.0
C704 C 0.0489 0.93464 0.77785 0.0
C705 C 0.05758 0.9569 0.77058 0.0
C706 C 0.07787 0.97227 0.78172 0.0
H707 H 0.04939 0.99807 0.84775 0.0
H708 H 0.03882 0.9894 0.82344 0.0
H709 H 0.05498 0.96836 0.84097 0.0
H710 H 0.08876 0.93829 0.82224 0.0
H711 H 0.05354 0.9112 0.80264 0.0
H712 H 0.25256 0.09048 0.97239 0.0
H713 H 0.23184 0.08494 0.00566 0.0
H714 H 0.20668 0.15776 0.00869 0.0
H715 H 0.22635 0.1634 0.97501 0.0
H716 H 0.25099 0.10187 0.04019 0.0
H717 H 0.10824 0.12846 0.02154 0.0
H718 H 0.14287 0.12371 0.00338 0.0
H719 H 0.14243 0.15026 0.01652 0.0
C720 C 0.24301 0.10544 0.98014 0.0
C721 C 0.24063 0.12735 0.97091 0.0
C722 C 0.23118 0.10221 0.99921 0.0
C723 C 0.21688 0.12081 0.00952 0.0
C724 C 0.21668 0.14303 0.00082 0.0
H725 H 0.16112 0.10614 0.13242 0.0
H726 H 0.19028 0.11714 0.10177 0.0
C727 C 0.22823 0.14626 0.98162 0.0
C728 C 0.20064 0.11645 0.02897 0.0
H729 H 0.12001 0.11882 0.05425 0.0
C730 C 0.2224 0.10567 0.04331 0.0
C731 C 0.16313 0.12104 0.03289 0.0
C732 C 0.13765 0.1313 0.01775 0.0
C733 C 0.20764 0.09918 0.06142 0.0
C734 C 0.17031 0.10416 0.06545 0.0
C735 C 0.14866 0.11513 0.05117 0.0
C736 C 0.15272 0.09753 0.08414 0.0
C737 C 0.23184 0.08633 0.07575 0.0
C738 C 0.12124 0.08336 0.08442 0.0
C739 C 0.10393 0.07746 0.1019 0.0
C740 C 0.11777 0.0856 0.1195 0.0
C741 C 0.1494 0.09976 0.11915 0.0
C742 C 0.16649 0.10581 0.10164 0.0
H743 H 0.25584 0.07826 0.06857 0.0
H744 H 0.24255 0.09868 0.08647 0.0
H745 H 0.21617 0.07256 0.08365 0.0
H746 H 0.10998 0.07689 0.07106 0.0
H747 H 0.07933 0.06685 0.10157 0.0
H748 H 0.3109 0.41529 0.49664 0.0
H749 H 0.3294 0.41899 0.53039 0.0
H750 H 0.44362 0.41834 0.51338 0.0
H751 H 0.42535 0.4151 0.47946 0.0
H752 H 0.37066 0.38921 0.55284 0.0
H753 H 0.43837 0.47542 0.5468 0.0
H754 H 0.40944 0.4642 0.52795 0.0
H755 H 0.45609 0.4543 0.53055 0.0
C756 C 0.33998 0.41611 0.50003 0.0
C757 C 0.36665 0.41502 0.48533 0.0
C758 C 0.35049 0.41816 0.51934 0.0
C759 C 0.38786 0.4192 0.52438 0.0
C760 C 0.41461 0.41804 0.50978 0.0
H761 H 0.46717 0.39951 0.64337 0.0
H762 H 0.45432 0.39464 0.6089 0.0
C763 C 0.40412 0.41609 0.4904 0.0
C764 C 0.39855 0.421 0.545 0.0
H765 H 0.44316 0.45551 0.57698 0.0
C766 C 0.38656 0.40368 0.55814 0.0
C767 C 0.41901 0.44001 0.55188 0.0
C768 C 0.43124 0.45967 0.53862 0.0
C769 C 0.39431 0.4049 0.57798 0.0
C770 C 0.41522 0.42374 0.58481 0.0
C771 C 0.42736 0.441 0.57167 0.0
C772 C 0.42334 0.42648 0.60566 0.0
C773 C 0.37908 0.38638 0.59152 0.0
C774 C 0.41087 0.44621 0.61517 0.0
C775 C 0.41831 0.44908 0.63478 0.0
C776 C 0.43849 0.4323 0.6453 0.0
C777 C 0.4511 0.41257 0.63573 0.0
C778 C 0.44377 0.40976 0.61605 0.0
H779 H 0.35638 0.3765 0.58473 0.0
H780 H 0.4013 0.37398 0.5954 0.0
H781 H 0.36865 0.39403 0.60505 0.0
H782 H 0.39504 0.45931 0.60743 0.0
H783 H 0.40786 0.46433 0.64178 0.0
H784 H 0.765 0.3985 0.02295 0.0
H785 H 0.74224 0.39531 0.98988 0.0
H786 H 0.69613 0.3282 0.00406 0.0
H787 H 0.71907 0.33108 0.03723 0.0
H788 H 0.73066 0.33219 0.96625 0.0
H789 H 0.62994 0.4023 0.98019 0.0
H790 H 0.6772 0.40944 0.98496 0.0
H791 H 0.65459 0.3874 0.99938 0.0
C792 C 0.75051 0.38287 0.01901 0.0
C793 C 0.74345 0.36515 0.03283 0.0
C794 C 0.73742 0.38114 1.00011 0.0
C795 C 0.71693 0.36173 0.99467 0.0
C796 C 0.71174 0.34338 0.00804 0.0
H797 H 0.55716 0.35006 0.90346 0.0
H798 H 0.59119 0.35111 0.93391 0.0
C799 C 0.72487 0.34507 0.02698 0.0
C800 C 0.69877 0.3613 0.97551 0.0
H801 H 0.63192 0.38799 0.9485 0.0
C802 C 0.70914 0.3444 0.9623 0.0
C803 C 0.6704 0.3771 0.97056 0.0
C804 C 0.65704 0.39499 0.98454 0.0
C805 C 0.69197 0.34297 0.94415 0.0
C806 C 0.66399 0.35902 0.9391 0.0
C807 C 0.65358 0.37584 0.95237 0.0
C808 C 0.64396 0.3581 0.92048 0.0
C809 C 0.70322 0.324 0.93071 0.0
C810 C 0.66231 0.36197 0.90283 0.0
C811 C 0.64293 0.3613 0.88537 0.0
C812 C 0.60484 0.35678 0.88527 0.0
C813 C 0.58655 0.35322 0.90301 0.0
C814 C 0.60591 0.35393 0.92043 0.0
H815 H 0.71914 0.31017 0.93835 0.0
H816 H 0.6787 0.31606 0.92389 0.0
H817 H 0.7208 0.33148 0.91902 0.0
H818 H 0.69157 0.36562 0.90258 0.0
H819 H 0.65785 0.36397 0.87194 0.0
H820 H 0.89574 0.12415 0.51867 0.0
H821 H 0.90175 0.13027 0.48367 0.0
H822 H 0.83719 0.0688 0.47411 0.0
H823 H 0.83041 0.06278 0.50902 0.0
H824 H 0.93016 0.10364 0.45467 0.0
H825 H 0.78075 0.11811 0.44349 0.0
H826 H 0.80159 0.1175 0.46718 0.0
H827 H 0.79103 0.09089 0.45527 0.0
C828 C 0.88301 0.11184 0.50913 0.0
C829 C 0.86225 0.0931 0.51665 0.0
C830 C 0.88646 0.11538 0.48913 0.0
C831 C 0.86923 0.10028 0.47628 0.0
C832 C 0.84991 0.081 0.48375 0.0
H833 H 0.90836 0.09062 0.35267 0.0
H834 H 0.90619 0.08446 0.38777 0.0
C835 C 0.84628 0.0775 0.50373 0.0
C836 C 0.87094 0.1049 0.4551 0.0
H837 H 0.8172 0.11442 0.4152 0.0
C838 C 0.90549 0.10606 0.44603 0.0
C839 C 0.83874 0.10849 0.4439 0.0
C840 C 0.80094 0.10893 0.45296 0.0
C841 C 0.90868 0.11024 0.426 0.0
C842 C 0.8764 0.11286 0.41469 0.0
C843 C 0.8419 0.11215 0.42383 0.0
C844 C 0.87771 0.11653 0.39338 0.0
C845 C 0.94662 0.11222 0.41721 0.0
C846 C 0.86137 0.13622 0.38478 0.0
C847 C 0.86228 0.13968 0.36471 0.0
C848 C 0.87954 0.12349 0.35282 0.0
C849 C 0.89541 0.10361 0.36146 0.0
C850 C 0.89432 0.1001 0.38152 0.0
H851 H 0.9677 0.11644 0.42824 0.0
H852 H 0.95421 0.0954 0.41085 0.0
H853 H 0.94744 0.12574 0.40555 0.0
H854 H 0.84824 0.14907 0.39365 0.0
H855 H 0.85009 0.15526 0.35852 0.0
H856 H 0.7748 0.89214 0.01115 0.0
H857 H 0.78619 0.8991 0.97662 0.0
H858 H 0.88016 0.85366 0.97948 0.0
H859 H 0.86895 0.84649 0.01394 0.0
H860 H 0.85145 0.91897 0.96229 0.0
H861 H 0.82649 0.83306 0.93027 0.0
H862 H 0.80938 0.84061 0.95385 0.0
H863 H 0.85664 0.83225 0.95086 0.0
C864 C 0.79749 0.88327 0.00437 0.0
C865 C 0.82104 0.86881 0.01534 0.0
C866 C 0.80396 0.8873 0.98464 0.0
C867 C 0.8338 0.87674 0.97546 0.0
C868 C 0.85658 0.86167 0.98619 0.0
H869 H 0.96342 0.91988 0.87764 0.0
H870 H 0.93809 0.90849 0.90917 0.0
C871 C 0.85024 0.8577 0.00593 0.0
C872 C 0.8433 0.88317 0.95519 0.0
H873 H 0.85902 0.8609 0.91055 0.0
C874 C 0.85271 0.90632 0.95093 0.0
C875 C 0.84472 0.86667 0.94037 0.0
C876 C 0.83345 0.84179 0.94396 0.0
C877 C 0.86473 0.91325 0.93241 0.0
C878 C 0.86767 0.89657 0.91783 0.0
C879 C 0.85702 0.87358 0.92185 0.0
C880 C 0.88294 0.90266 0.89854 0.0
C881 C 0.87453 0.93835 0.92859 0.0
C882 C 0.86041 0.9027 0.88207 0.0
C883 C 0.87471 0.90946 0.864 0.0
C884 C 0.91188 0.91611 0.86209 0.0
C885 C 0.93451 0.91539 0.87862 0.0
C886 C 0.92015 0.90877 0.89665 0.0
H887 H 0.86315 0.94978 0.93984 0.0
H888 H 0.90493 0.94029 0.92856 0.0
H889 H 0.86415 0.9443 0.91421 0.0
H890 H 0.83161 0.89799 0.88328 0.0
H891 H 0.85642 0.91 0.85164 0.0
H892 H 0.68234 0.66022 0.52034 0.0
H893 H 0.6715 0.66077 0.4853 0.0
H894 H 0.62411 0.59229 0.48982 0.0
H895 H 0.63411 0.59176 0.52464 0.0
H896 H 0.69902 0.6317 0.45835 0.0
H897 H 0.54713 0.62618 0.45805 0.0
H898 H 0.57294 0.63345 0.4794 0.0
H899 H 0.56706 0.60363 0.47286 0.0
C900 C 0.66933 0.64538 0.51387 0.0
C901 C 0.65893 0.62599 0.5253 0.0
C902 C 0.66312 0.64573 0.49387 0.0
C903 C 0.64625 0.62678 0.48501 0.0
C904 C 0.63615 0.60739 0.4964 0.0
H905 H 0.63134 0.56308 0.37707 0.0
H906 H 0.63178 0.57563 0.41066 0.0
C907 C 0.64221 0.60704 0.51632 0.0
C908 C 0.64117 0.62641 0.46374 0.0
H909 H 0.57784 0.61419 0.42885 0.0
C910 C 0.67241 0.62839 0.45185 0.0
C911 C 0.60637 0.62221 0.45525 0.0
C912 C 0.57144 0.62149 0.46705 0.0
C913 C 0.67009 0.62486 0.43186 0.0
C914 C 0.63571 0.61926 0.42363 0.0
C915 C 0.60419 0.61836 0.4353 0.0
C916 C 0.63281 0.6122 0.40328 0.0
C917 C 0.70458 0.62599 0.41972 0.0
C918 C 0.63263 0.62872 0.3881 0.0
C919 C 0.63229 0.6216 0.36886 0.0
C920 C 0.6325 0.59787 0.3646 0.0
C921 C 0.63173 0.58146 0.37992 0.0
C922 C 0.63176 0.58858 0.39908 0.0
H923 H 0.72939 0.63009 0.42841 0.0
H924 H 0.7089 0.60916 0.41259 0.0
H925 H 0.70144 0.63947 0.40815 0.0
H926 H 0.63341 0.64704 0.39115 0.0
H927 H 0.63301 0.63461 0.35734 0.0
H928 H 0.26596 0.64354 0.98632 0.0
H929 H 0.28407 0.6512 0.01975 0.0
H930 H 0.38187 0.61006 0.01254 0.0
H931 H 0.36387 0.60206 0.97937 0.0
H932 H 0.34422 0.59972 0.04662 0.0
H933 H 0.36688 0.69456 0.0371 0.0
H934 H 0.32231 0.68435 0.02985 0.0
H935 H 0.36257 0.67546 0.01689 0.0
C936 C 0.29137 0.63619 0.99185 0.0
C937 C 0.31353 0.62226 0.98015 0.0
C938 C 0.30175 0.64067 0.01091 0.0
C939 C 0.33454 0.63143 0.01853 0.0
C940 C 0.35651 0.61741 0.00692 0.0
H941 H 0.4622 0.66818 0.11843 0.0
H942 H 0.43743 0.66153 0.08609 0.0
C943 C 0.34617 0.6129 0.98794 0.0
C944 C 0.34603 0.63597 0.03866 0.0
H945 H 0.37336 0.67886 0.06876 0.0
C946 C 0.35047 0.61702 0.05151 0.0
C947 C 0.35452 0.65854 0.04488 0.0
C948 C 0.35167 0.67942 0.03146 0.0
C949 C 0.36338 0.62001 0.07042 0.0
C950 C 0.37149 0.64261 0.07672 0.0
C951 C 0.3669 0.66157 0.0639 0.0
C952 C 0.38596 0.64688 0.09636 0.0
C953 C 0.36923 0.5989 0.0833 0.0
C954 C 0.36502 0.6411 0.11282 0.0
C955 C 0.37908 0.64488 0.1313 0.0
C956 C 0.41425 0.65469 0.13365 0.0
C957 C 0.43491 0.66078 0.1171 0.0
C958 C 0.42086 0.65693 0.09863 0.0
H959 H 0.37022 0.58273 0.07488 0.0
H960 H 0.39519 0.6004 0.09167 0.0
H961 H 0.34609 0.59732 0.09373 0.0
H962 H 0.3377 0.63378 0.11137 0.0
H963 H 0.36223 0.64038 0.14375 0.0
H964 H 0.23858 0.87798 0.48489 0.0
H965 H 0.21953 0.87276 0.51867 0.0
H966 H 0.1184 0.84087 0.5002 0.0
H967 H 0.13721 0.84586 0.46642 0.0
H968 H 0.15417 0.8916 0.5349 0.0
H969 H 0.15796 0.79564 0.54235 0.0
H970 H 0.1815 0.81133 0.52312 0.0
H971 H 0.13267 0.8066 0.5218 0.0
C972 C 0.21249 0.86958 0.48801 0.0
C973 C 0.18941 0.86232 0.47296 0.0
C974 C 0.20165 0.86667 0.50731 0.0
C975 C 0.16776 0.85624 0.5119 0.0
C976 C 0.14495 0.84861 0.49696 0.0
H977 H 0.04239 0.82952 0.6165 0.0
H978 H 0.06534 0.83272 0.58325 0.0
C979 C 0.15569 0.85157 0.47766 0.0
C980 C 0.15526 0.85452 0.53225 0.0
H981 H 0.12991 0.81596 0.56794 0.0
C982 C 0.1491 0.87508 0.54221 0.0
C983 C 0.14849 0.83294 0.54163 0.0
C984 C 0.15576 0.81033 0.53177 0.0
C985 C 0.13553 0.87466 0.56122 0.0
C986 C 0.12873 0.85305 0.57062 0.0
C987 C 0.1351 0.83249 0.56068 0.0
C988 C 0.11486 0.85139 0.59076 0.0
C989 C 0.12762 0.89734 0.57084 0.0
C990 C 0.13529 0.86063 0.606 0.0
C991 C 0.12222 0.85887 0.62498 0.0
C992 C 0.08867 0.84759 0.62909 0.0
C993 C 0.06846 0.83815 0.6138 0.0
C994 C 0.08147 0.84002 0.59481 0.0
H995 H 0.12467 0.9118 0.56008 0.0
H996 H 0.10208 0.89619 0.57964 0.0
H997 H 0.15081 0.90163 0.58058 0.0
H998 H 0.16156 0.86897 0.60326 0.0
H999 H 0.13872 0.86595 0.6365 0.0
H1000 H 0.26726 0.28795 0.33415 0.0
H1001 H 0.23198 0.2602 0.31537 0.0
H1002 H 0.14152 0.26549 0.35551 0.0
H1003 H 0.17602 0.29408 0.37379 0.0
H1004 H 0.20814 0.21907 0.32454 0.0
H1005 H 0.08707 0.27307 0.30597 0.0
H1006 H 0.12809 0.28502 0.31657 0.0
H1007 H 0.0939 0.27088 0.33161 0.0
C1008 C 0.23968 0.28338 0.33884 0.0
C1009 C 0.22428 0.2933 0.35536 0.0
C1010 C 0.21956 0.26749 0.32812 0.0
C1011 C 0.18379 0.26101 0.3338 0.0
C1012 C 0.16856 0.27071 0.35045 0.0
H1013 H 0.07885 0.13371 0.29644 0.0
H1014 H 0.11047 0.16374 0.31462 0.0
C1015 C 0.18842 0.28694 0.36098 0.0
C1016 C 0.16322 0.24336 0.32277 0.0
H1017 H 0.08099 0.23245 0.3008 0.0
C1018 C 0.18042 0.22208 0.31924 0.0
C1019 C 0.12725 0.24737 0.31556 0.0
C1020 C 0.10818 0.27042 0.31743 0.0
C1021 C 0.16257 0.20465 0.30894 0.0
C1022 C 0.12592 0.20822 0.30264 0.0
C1023 C 0.10888 0.22959 0.30591 0.0
C1024 C 0.10512 0.19025 0.29215 0.0
C1025 C 0.18358 0.18286 0.30448 0.0
C1026 C 0.08992 0.19549 0.27392 0.0
C1027 C 0.07101 0.17854 0.26378 0.0
C1028 C 0.06749 0.15596 0.2715 0.0
C1029 C 0.08155 0.15092 0.29003 0.0
C1030 C 0.10001 0.16798 0.30032 0.0
H1031 H 0.21381 0.18576 0.305 0.0
H1032 H 0.17668 0.16921 0.31543 0.0
H1033 H 0.17634 0.17637 0.28996 0.0
H1034 H 0.09308 0.21262 0.26742 0.0
H1035 H 0.05935 0.1831 0.24982 0.0
H1036 H 0.26931 0.23307 0.88392 0.0
H1037 H 0.30515 0.26296 0.86664 0.0
H1038 H 0.393 0.2141 0.85828 0.0
H1039 H 0.35747 0.18409 0.87555 0.0
H1040 H 0.38073 0.27935 0.87477 0.0
H1041 H 0.3646 0.23932 0.80276 0.0
H1042 H 0.3348 0.23222 0.82296 0.0
H1043 H 0.38048 0.22051 0.82208 0.0
C1044 C 0.29634 0.2287 0.8785 0.0
C1045 C 0.31046 0.20616 0.88103 0.0
C1046 C 0.31675 0.2458 0.86865 0.0
C1047 C 0.35144 0.2406 0.861 0.0
C1048 C 0.36604 0.21832 0.86388 0.0
H1049 H 0.50796 0.31738 0.78947 0.0
H1050 H 0.47482 0.28787 0.80873 0.0
C1051 C 0.34576 0.20124 0.87383 0.0
C1052 C 0.37217 0.25843 0.84978 0.0
H1053 H 0.40296 0.27229 0.80431 0.0
C1054 C 0.3856 0.27788 0.85937 0.0
C1055 C 0.37844 0.25635 0.82971 0.0
C1056 C 0.36365 0.23609 0.81865 0.0
C1057 C 0.40572 0.29519 0.84943 0.0
C1058 C 0.41175 0.2932 0.82931 0.0
C1059 C 0.39831 0.27373 0.81974 0.0
C1060 C 0.43188 0.31115 0.81789 0.0
C1061 C 0.42098 0.31521 0.86063 0.0
C1062 C 0.41848 0.33391 0.81651 0.0
C1063 C 0.43748 0.35076 0.80567 0.0
C1064 C 0.46989 0.34503 0.79583 0.0
C1065 C 0.48312 0.32222 0.79705 0.0
C1066 C 0.46417 0.30538 0.80795 0.0
H1067 H 0.4226 0.31104 0.87637 0.0
H1068 H 0.44885 0.32017 0.85538 0.0
H1069 H 0.40262 0.33042 0.85866 0.0
H1070 H 0.39318 0.33861 0.82372 0.0
H1071 H 0.42685 0.36828 0.80498 0.0
H1072 H 0.74694 0.22263 0.64297 0.0
H1073 H 0.72204 0.25326 0.66303 0.0
H1074 H 0.62531 0.21177 0.67462 0.0
H1075 H 0.64962 0.18126 0.65426 0.0
H1076 H 0.60823 0.25606 0.664 0.0
H1077 H 0.71465 0.25594 0.72152 0.0
H1078 H 0.73309 0.25962 0.69756 0.0
H1079 H 0.71052 0.23291 0.70439 0.0
C1080 C 0.7205 0.21993 0.64992 0.0
C1081 C 0.70028 0.19948 0.64705 0.0
C1082 C 0.70641 0.23741 0.66148 0.0
C1083 C 0.67206 0.23466 0.67056 0.0
C1084 C 0.65194 0.21421 0.66781 0.0
H1085 H 0.57409 0.31844 0.75944 0.0
H1086 H 0.60413 0.28811 0.74097 0.0
C1087 C 0.66591 0.19678 0.65619 0.0
C1088 C 0.65624 0.25351 0.68219 0.0
H1089 H 0.67185 0.28711 0.72144 0.0
C1090 C 0.6221 0.26281 0.67659 0.0
C1091 C 0.67419 0.26211 0.69873 0.0
C1092 C 0.70997 0.252 0.70605 0.0
C1093 C 0.60557 0.28065 0.68695 0.0
C1094 C 0.62408 0.28975 0.70311 0.0
C1095 C 0.65799 0.28028 0.70888 0.0
C1096 C 0.60807 0.30868 0.71452 0.0
C1097 C 0.56809 0.28927 0.68075 0.0
C1098 C 0.60113 0.33046 0.70587 0.0
C1099 C 0.58406 0.34782 0.71639 0.0
C1100 C 0.57399 0.34374 0.73579 0.0
C1101 C 0.58197 0.32216 0.74458 0.0
C1102 C 0.59897 0.3048 0.73404 0.0
H1103 H 0.55384 0.27674 0.67132 0.0
H1104 H 0.55037 0.29253 0.69349 0.0
H1105 H 0.57129 0.30582 0.67245 0.0
H1106 H 0.60857 0.33393 0.69091 0.0
H1107 H 0.57839 0.36435 0.70931 0.0
H1108 H 0.86423 0.3143 0.12445 0.0
H1109 H 0.89465 0.28307 0.14276 0.0
H1110 H 0.78887 0.25448 0.1587 0.0
H1111 H 0.75819 0.28541 0.14017 0.0
H1112 H 0.88943 0.27178 0.1818 0.0
H1113 H 0.84249 0.19864 0.13708 0.0
H1114 H 0.83873 0.2285 0.12906 0.0
H1115 H 0.80593 0.21641 0.14596 0.0
C1116 C 0.8474 0.30129 0.13174 0.0
C1117 C 0.80877 0.30228 0.13075 0.0
C1118 C 0.86485 0.28349 0.14224 0.0
C1119 C 0.84404 0.2663 0.15189 0.0
C1120 C 0.80547 0.26731 0.15105 0.0
H1121 H 0.93148 0.17028 0.24035 0.0
H1122 H 0.89677 0.20082 0.22339 0.0
C1123 C 0.78799 0.28506 0.14051 0.0
C1124 C 0.86278 0.24757 0.1631 0.0
H1125 H 0.87386 0.18887 0.16615 0.0
C1126 C 0.88604 0.25365 0.17841 0.0
C1127 C 0.85856 0.22394 0.15851 0.0
C1128 C 0.83536 0.21642 0.14165 0.0
C1129 C 0.90516 0.23673 0.18928 0.0
C1130 C 0.90037 0.21308 0.18491 0.0
C1131 C 0.87716 0.20701 0.16959 0.0
C1132 C 0.92073 0.19442 0.19535 0.0
C1133 C 0.93109 0.24434 0.20497 0.0
C1134 C 0.945 0.18034 0.18514 0.0
C1135 C 0.9646 0.16278 0.1947 0.0
C1136 C 0.96031 0.15885 0.21475 0.0
C1137 C 0.9356 0.17284 0.22494 0.0
C1138 C 0.91589 0.19041 0.2153 0.0
H1139 H 0.93806 0.26305 0.20351 0.0
H1140 H 0.91783 0.24139 0.21928 0.0
H1141 H 0.95699 0.23417 0.20474 0.0
H1142 H 0.94906 0.18308 0.16973 0.0
H1143 H 0.98323 0.15236 0.18631 0.0
H1144 H 0.85728 0.67936 0.6385 0.0
H1145 H 0.88878 0.70972 0.65633 0.0
H1146 H 0.79424 0.75416 0.64921 0.0
H1147 H 0.7622 0.7237 0.63182 0.0
H1148 H 0.90829 0.75339 0.64514 0.0
H1149 H 0.81107 0.75681 0.70685 0.0
H1150 H 0.8102 0.73375 0.68964 0.0
H1151 H 0.78905 0.7612 0.68384 0.0
C1152 C 0.84312 0.69556 0.6408 0.0
C1153 C 0.80712 0.69906 0.63386 0.0
C1154 C 0.86118 0.7129 0.65098 0.0
C1155 C 0.84362 0.73405 0.65442 0.0
C1156 C 0.80796 0.73776 0.64718 0.0
H1157 H 0.90911 0.86343 0.70538 0.0
H1158 H 0.87831 0.83235 0.68796 0.0
C1159 C 0.78977 0.72037 0.63713 0.0
C1160 C 0.86292 0.75239 0.66522 0.0
H1161 H 0.8557 0.78701 0.70452 0.0
C1162 C 0.89691 0.76063 0.65819 0.0
C1163 C 0.84808 0.76178 0.6823 0.0
C1164 C 0.81278 0.75278 0.69123 0.0
C1165 C 0.91607 0.77833 0.66754 0.0
C1166 C 0.90089 0.7879 0.68439 0.0
C1167 C 0.86706 0.77965 0.6915 0.0
C1168 C 0.91968 0.80657 0.69486 0.0
C1169 C 0.95205 0.78701 0.65916 0.0
C1170 C 0.95288 0.80222 0.70462 0.0
C1171 C 0.97018 0.81983 0.7148 0.0
C1172 C 0.95451 0.84203 0.71534 0.0
C1173 C 0.92143 0.84637 0.70542 0.0
C1174 C 0.90397 0.82871 0.6954 0.0
H1175 H 0.95639 0.78107 0.64416 0.0
H1176 H 0.95317 0.80624 0.65915 0.0
H1177 H 0.9751 0.78042 0.66825 0.0
H1178 H 0.96515 0.78514 0.70455 0.0
H1179 H 0.99549 0.81598 0.72249 0.0
H1180 H 0.7284 0.78537 0.13117 0.0
H1181 H 0.69613 0.75437 0.14893 0.0
H1182 H 0.60437 0.80005 0.15831 0.0
H1183 H 0.63612 0.83102 0.14023 0.0
H1184 H 0.67344 0.75342 0.18638 0.0
H1185 H 0.5529 0.74309 0.13807 0.0
H1186 H 0.59342 0.75923 0.13082 0.0
H1187 H 0.5594 0.77219 0.14607 0.0
C1188 C 0.70126 0.78881 0.1369 0.0
C1189 C 0.68479 0.81067 0.13421 0.0
C1190 C 0.68283 0.77105 0.14705 0.0
C1191 C 0.64755 0.77474 0.15467 0.0
C1192 C 0.63116 0.7966 0.15215 0.0
H1193 H 0.50407 0.69256 0.23025 0.0
H1194 H 0.53363 0.72351 0.2109 0.0
C1195 C 0.6495 0.81436 0.14193 0.0
C1196 C 0.62876 0.75601 0.166 0.0
H1197 H 0.5504 0.72311 0.16854 0.0
C1198 C 0.64665 0.74671 0.18239 0.0
C1199 C 0.59371 0.74729 0.16082 0.0
C1200 C 0.57384 0.75579 0.14289 0.0
C1201 C 0.63031 0.72916 0.19385 0.0
C1202 C 0.59529 0.72053 0.18875 0.0
C1203 C 0.57725 0.72983 0.17242 0.0
C1204 C 0.57714 0.70172 0.20018 0.0
C1205 C 0.65021 0.72028 0.21161 0.0
C1206 C 0.59159 0.67919 0.20036 0.0
C1207 C 0.57452 0.66147 0.21118 0.0
C1208 C 0.54285 0.66599 0.22213 0.0
C1209 C 0.52836 0.68855 0.22187 0.0
C1210 C 0.54523 0.70623 0.21088 0.0
H1211 H 0.67407 0.73137 0.2154 0.0
H1212 H 0.63103 0.71941 0.2241 0.0
H1213 H 0.66045 0.70253 0.20899 0.0
H1214 H 0.61597 0.67529 0.19202 0.0
H1215 H 0.58597 0.64418 0.21087 0.0
H1216 H 0.249 0.77135 0.37409 0.0
H1217 H 0.28155 0.73935 0.35904 0.0
H1218 H 0.37933 0.78162 0.35415 0.0
H1219 H 0.34733 0.81344 0.36965 0.0
H1220 H 0.31005 0.73769 0.32362 0.0
H1221 H 0.4215 0.72267 0.37693 0.0
H1222 H 0.38182 0.74028 0.38205 0.0
H1223 H 0.41997 0.75225 0.3685 0.0
C1224 C 0.27755 0.77376 0.36998 0.0
C1225 C 0.29562 0.79491 0.37313 0.0
C1226 C 0.29612 0.75544 0.36139 0.0
C1227 C 0.33309 0.75791 0.35577 0.0
C1228 C 0.35115 0.77905 0.35885 0.0
H1229 H 0.4488 0.68708 0.26695 0.0
H1230 H 0.41498 0.71357 0.28748 0.0
C1231 C 0.3327 0.79731 0.36757 0.0
C1232 C 0.35204 0.73894 0.34559 0.0
H1233 H 0.43018 0.70608 0.34569 0.0
C1234 C 0.33612 0.73062 0.32858 0.0
C1235 C 0.38578 0.72941 0.35221 0.0
C1236 C 0.40307 0.73644 0.37104 0.0
C1237 C 0.35366 0.7137 0.31764 0.0
C1238 C 0.38843 0.70525 0.32362 0.0
C1239 C 0.40373 0.71284 0.34101 0.0
C1240 C 0.40984 0.68921 0.31156 0.0
C1241 C 0.33477 0.70495 0.29977 0.0
C1242 C 0.41929 0.66699 0.31857 0.0
C1243 C 0.43866 0.65177 0.30681 0.0
C1244 C 0.44874 0.65859 0.28792 0.0
C1245 C 0.44035 0.68112 0.28124 0.0
C1246 C 0.4211 0.69628 0.29295 0.0
H1247 H 0.30469 0.70834 0.30006 0.0
H1248 H 0.34638 0.71395 0.28679 0.0
H1249 H 0.33922 0.68605 0.29826 0.0
H1250 H 0.41117 0.66132 0.33299 0.0
H1251 H 0.44518 0.63456 0.31234 0.0
H1252 H 0.15187 0.67964 0.86007 0.0
H1253 H 0.11906 0.70923 0.84101 0.0
H1254 H 0.21147 0.75567 0.84643 0.0
H1255 H 0.2448 0.72602 0.86508 0.0
H1256 H 0.09739 0.75254 0.85044 0.0
H1257 H 0.19446 0.75741 0.78861 0.0
H1258 H 0.19625 0.73451 0.80676 0.0
H1259 H 0.21625 0.76239 0.81144 0.0
C1260 C 0.1653 0.69611 0.85713 0.0
C1261 C 0.20107 0.70041 0.86398 0.0
C1262 C 0.14648 0.71301 0.84626 0.0
C1263 C 0.16303 0.73453 0.84201 0.0
C1264 C 0.19849 0.739 0.84911 0.0
H1265 H 0.05108 0.86031 0.80306 0.0
H1266 H 0.08243 0.82982 0.82193 0.0
C1267 C 0.21743 0.72206 0.85987 0.0
C1268 C 0.14292 0.75242 0.83047 0.0
H1269 H 0.14869 0.78678 0.78976 0.0
C1270 C 0.10853 0.75996 0.83713 0.0
C1271 C 0.15721 0.76185 0.81295 0.0
C1272 C 0.19289 0.75348 0.80439 0.0
C1273 C 0.08833 0.77696 0.82691 0.0
C1274 C 0.10333 0.78703 0.80981 0.0
C1275 C 0.13742 0.77922 0.80299 0.0
C1276 C 0.08391 0.80545 0.79857 0.0
C1277 C 0.05084 0.78365 0.83434 0.0
C1278 C 0.0751 0.80209 0.77906 0.0
C1279 C 0.05753 0.81953 0.76824 0.0
C1280 C 0.04854 0.84067 0.77673 0.0
C1281 C 0.05738 0.84406 0.79624 0.0
C1282 C 0.07513 0.82664 0.80704 0.0
H1283 H 0.03918 0.77005 0.84419 0.0
H1284 H 0.05328 0.79985 0.84259 0.0
H1285 H 0.03126 0.78677 0.82223 0.0
H1286 H 0.08171 0.78591 0.77222 0.0
H1287 H 0.05085 0.81644 0.75324 0.0
loop_
_geom_bond_atom_site_label_1
_geom_bond_atom_site_label_2
_geom_bond_distance
_geom_bond_site_symmetry_2
_ccdc_geom_bond_type
O0 Cd1 2.300 . S
O0 C7 1.275 . S
Cd1 O0 2.300 . S
Cd1 O9 2.381 . S
Cd1 O10 2.378 . S
O2 Cd3 2.385 . S
O2 C7 1.255 . S
Cd3 O2 2.385 . S
Cd3 O4 2.317 . S
O4 Cd3 2.317 . S
O4 C5 1.232 . S
C5 O4 1.232 . S
C5 O6 1.218 . S
O6 C5 1.218 . S
C7 O0 1.275 . S
C7 O2 1.255 . S
C8 O9 1.258 . S
C8 O10 1.256 . S
O9 Cd1 2.381 . S
O9 C8 1.258 . S
O10 Cd1 2.378 . S
O10 C8 1.256 . S
O11 Cd12 2.300 . S
O11 C18 1.275 . S
Cd12 O11 2.300 . S
Cd12 O20 2.381 . S
Cd12 O21 2.378 . S
O13 Cd14 2.385 . S
O13 C18 1.255 . S
Cd14 O13 2.385 . S
Cd14 O15 2.317 . S
O15 Cd14 2.317 . S
O15 C16 1.232 . S
C16 O15 1.232 . S
C16 O17 1.218 . S
O17 C16 1.218 . S
C18 O11 1.275 . S
C18 O13 1.255 . S
C19 O20 1.258 . S
C19 O21 1.256 . S
O20 Cd12 2.381 . S
O20 C19 1.258 . S
O21 Cd12 2.378 . S
O21 C19 1.256 . S
O22 Cd23 2.300 . S
O22 C29 1.275 . S
Cd23 O22 2.300 . S
Cd23 O31 2.381 . S
Cd23 O32 2.378 . S
O24 Cd25 2.385 . S
O24 C29 1.255 . S
Cd25 O24 2.385 . S
Cd25 O26 2.317 . S
O26 Cd25 2.317 . S
O26 C27 1.232 . S
C27 O26 1.232 . S
C27 O28 1.218 . S
O28 C27 1.218 . S
C29 O22 1.275 . S
C29 O24 1.255 . S
C30 O31 1.258 . S
C30 O32 1.256 . S
O31 Cd23 2.381 . S
O31 C30 1.258 . S
O32 Cd23 2.378 . S
O32 C30 1.256 . S
O33 Cd34 2.300 . S
O33 C40 1.275 . S
Cd34 O33 2.300 . S
Cd34 O42 2.381 . S
Cd34 O43 2.378 . S
O35 Cd36 2.385 . S
O35 C40 1.255 . S
Cd36 O35 2.385 . S
Cd36 O37 2.317 . S
O37 Cd36 2.317 . S
O37 C38 1.232 . S
C38 O37 1.232 . S
C38 O39 1.218 . S
O39 C38 1.218 . S
C40 O33 1.275 . S
C40 O35 1.255 . S
C41 O42 1.258 . S
C41 O43 1.256 . S
O42 Cd34 2.381 . S
O42 C41 1.258 . S
O43 Cd34 2.378 . S
O43 C41 1.256 . S
O44 Cd45 2.300 . S
O44 C51 1.275 . S
Cd45 O44 2.300 . S
Cd45 O53 2.381 . S
Cd45 O54 2.378 . S
O46 Cd47 2.385 . S
O46 C51 1.255 . S
Cd47 O46 2.385 . S
Cd47 O48 2.317 . S
O48 Cd47 2.317 . S
O48 C49 1.232 . S
C49 O48 1.232 . S
C49 O50 1.218 . S
O50 C49 1.218 . S
C51 O44 1.275 . S
C51 O46 1.255 . S
C52 O53 1.258 . S
C52 O54 1.256 . S
O53 Cd45 2.381 . S
O53 C52 1.258 . S
O54 Cd45 2.378 . S
O54 C52 1.256 . S
O55 Cd56 2.300 . S
O55 C62 1.275 . S
Cd56 O55 2.300 . S
Cd56 O64 2.381 . S
Cd56 O65 2.378 . S
O57 Cd58 2.385 . S
O57 C62 1.255 . S
Cd58 O57 2.385 . S
Cd58 O59 2.317 . S
O59 Cd58 2.317 . S
O59 C60 1.232 . S
C60 O59 1.232 . S
C60 O61 1.218 . S
O61 C60 1.218 . S
C62 O55 1.275 . S
C62 O57 1.255 . S
C63 O64 1.258 . S
C63 O65 1.256 . S
O64 Cd56 2.381 . S
O64 C63 1.258 . S
O65 Cd56 2.378 . S
O65 C63 1.256 . S
O66 Cd67 2.300 . S
O66 C73 1.275 . S
Cd67 O66 2.300 . S
Cd67 O75 2.381 . S
Cd67 O76 2.378 . S
O68 Cd69 2.385 . S
O68 C73 1.255 . S
Cd69 O68 2.385 . S
Cd69 O70 2.317 . S
O70 Cd69 2.317 . S
O70 C71 1.232 . S
C71 O70 1.232 . S
C71 O72 1.218 . S
O72 C71 1.218 . S
C73 O66 1.275 . S
C73 O68 1.255 . S
C74 O75 1.258 . S
C74 O76 1.256 . S
O75 Cd67 2.381 . S
O75 C74 1.258 . S
O76 Cd67 2.378 . S
O76 C74 1.256 . S
O77 Cd78 2.300 . S
O77 C84 1.275 . S
Cd78 O77 2.300 . S
Cd78 O86 2.381 . S
Cd78 O87 2.378 . S
O79 Cd80 2.385 . S
O79 C84 1.255 . S
Cd80 O79 2.385 . S
Cd80 O81 2.317 . S
O81 Cd80 2.317 . S
O81 C82 1.232 . S
C82 O81 1.232 . S
C82 O83 1.218 . S
O83 C82 1.218 . S
C84 O77 1.275 . S
C84 O79 1.255 . S
C85 O86 1.258 . S
C85 O87 1.256 . S
O86 Cd78 2.381 . S
O86 C85 1.258 . S
O87 Cd78 2.378 . S
O87 C85 1.256 . S
Tb88 N117 2.617 . S
Tb88 N123 2.572 . S
Tb88 O132 2.465 . S
Tb88 O133 2.387 . S
Tb88 O135 2.428 . S
Tb88 O136 2.308 . S
Tb88 O140 2.349 . S
Tb88 O143 2.393 . S
Tb88 C152 2.802 . S
C89 N90 1.379 . S
C89 C92 1.416 . S
C89 C96 1.424 . S
N90 C89 1.379 . S
N90 C93 1.334 . S
N90 Tb99 2.617 . S
C91 C93 1.390 . S
C91 C94 1.339 . S
C91 H111 0.930 . S
C92 C89 1.416 . S
C92 C94 1.416 . S
C92 C98 1.448 . S
C93 N90 1.334 . S
C93 C91 1.390 . S
C93 H104 0.930 . S
C94 C91 1.339 . S
C94 C92 1.416 . S
C94 H115 0.930 . S
C95 C96 1.413 . S
C95 C97 1.427 . S
C95 C101 1.416 . S
C96 C89 1.424 . S
C96 C95 1.413 . S
C96 N100 1.361 . S
C97 C95 1.427 . S
C97 C98 1.328 . S
C97 H112 0.929 . S
C98 C92 1.448 . S
C98 C97 1.328 . S
C98 H113 0.930 . S
Tb99 N90 2.617 . S
Tb99 N100 2.572 . S
Tb99 O134 2.349 1_655 S
Tb99 O137 2.393 . S
Tb99 O138 2.465 . S
Tb99 O139 2.387 . S
Tb99 O141 2.428 . S
Tb99 O142 2.308 1_655 S
Tb99 C163 2.802 . S
N100 C96 1.361 . S
N100 Tb99 2.572 . S
N100 C102 1.340 . S
C101 C95 1.416 . S
C101 C103 1.332 . S
C101 H109 0.931 . S
C102 N100 1.340 . S
C102 C103 1.407 . S
C102 H108 0.930 . S
C103 C101 1.332 . S
C103 C102 1.407 . S
C103 H105 0.929 . S
H104 C93 0.930 . S
H105 C103 0.929 . S
H106 C121 0.930 . S
H107 C128 0.929 . S
H108 C102 0.930 . S
H109 C101 0.931 . S
H110 C124 0.930 . S
H111 C91 0.930 . S
H112 C97 0.929 . S
H113 C98 0.930 . S
H114 C119 0.930 . S
H115 C94 0.930 . S
H116 C127 0.931 . S
N117 Tb88 2.617 . S
N117 C118 1.379 . S
N117 C121 1.334 . S
C118 N117 1.379 . S
C118 C120 1.416 . S
C118 C126 1.424 . S
C119 H114 0.930 . S
C119 C121 1.390 . S
C119 C122 1.339 . S
C120 C118 1.416 . S
C120 C122 1.416 . S
C120 C153 1.448 . S
C121 H106 0.930 . S
C121 N117 1.334 . S
C121 C119 1.390 . S
C122 C119 1.339 . S
C122 C120 1.416 . S
C122 H129 0.930 . S
N123 Tb88 2.572 . S
N123 C124 1.340 . S
N123 C126 1.361 . S
C124 H110 0.930 . S
C124 N123 1.340 . S
C124 C128 1.407 . S
C125 C126 1.413 . S
C125 C127 1.416 . S
C125 C154 1.427 . S
C126 C118 1.424 . S
C126 N123 1.361 . S
C126 C125 1.413 . S
C127 H116 0.931 . S
C127 C125 1.416 . S
C127 C128 1.332 . S
C128 H107 0.929 . S
C128 C124 1.407 . S
C128 C127 1.332 . S
H129 C122 0.930 . S
H130 C153 0.930 . S
H131 C154 0.929 . S
O132 Tb88 2.465 . S
O132 C152 1.264 . S
O133 Tb88 2.387 . S
O133 C144 1.264 . S
O134 Tb99 2.349 1_455 S
O134 C144 1.243 . S
O135 Tb88 2.428 . S
O135 C152 1.256 . S
O136 Tb88 2.308 . S
O136 C151 1.266 1_455 S
O137 Tb99 2.393 . S
O137 C151 1.248 . S
O138 Tb99 2.465 . S
O138 C163 1.264 . S
O139 Tb99 2.387 . S
O139 C155 1.264 . S
O140 Tb88 2.349 . S
O140 C155 1.243 1_455 S
O141 Tb99 2.428 . S
O141 C163 1.256 . S
O142 Tb99 2.308 1_455 S
O142 C162 1.266 . S
O143 Tb88 2.393 . S
O143 C162 1.248 . S
C144 O133 1.264 . S
C144 O134 1.243 . S
C145 C148 1.399 . S
C145 C150 1.383 . S
C145 C152 1.496 . S
C146 C147 1.399 . S
C146 C150 1.389 . S
C147 C146 1.399 . S
C147 C149 1.380 . S
C147 H164 0.929 . S
C148 C145 1.399 . S
C148 C149 1.392 . S
C148 H165 0.929 . S
C149 C147 1.380 . S
C149 C148 1.392 . S
C149 H166 0.929 . S
C150 C145 1.383 . S
C150 C146 1.389 . S
C150 H167 0.931 . S
C151 O136 1.266 1_655 S
C151 O137 1.248 . S
C152 Tb88 2.802 . S
C152 O132 1.264 . S
C152 O135 1.256 . S
C152 C145 1.496 . S
C153 C120 1.448 . S
C153 H130 0.930 . S
C153 C154 1.328 . S
C154 C125 1.427 . S
C154 H131 0.929 . S
C154 C153 1.328 . S
C155 O139 1.264 . S
C155 O140 1.243 1_655 S
C156 C159 1.399 . S
C156 C160 1.383 . S
C156 C163 1.496 . S
C157 C158 1.399 . S
C157 C160 1.389 . S
C158 C157 1.399 . S
C158 C161 1.380 . S
C158 H168 0.929 . S
C159 C156 1.399 . S
C159 C161 1.392 . S
C159 H169 0.929 . S
C160 C156 1.383 . S
C160 C157 1.389 . S
C160 H170 0.931 . S
C161 C158 1.380 . S
C161 C159 1.392 . S
C161 H171 0.929 . S
C162 O142 1.266 . S
C162 O143 1.248 . S
C163 Tb99 2.802 . S
C163 O138 1.264 . S
C163 O141 1.256 . S
C163 C156 1.496 . S
H164 C147 0.929 . S
H165 C148 0.929 . S
H166 C149 0.929 . S
H167 C150 0.931 . S
H168 C158 0.929 . S
H169 C159 0.929 . S
H170 C160 0.931 . S
H171 C161 0.929 . S
Tb172 N201 2.617 . S
Tb172 N207 2.572 . S
Tb172 O216 2.465 . S
Tb172 O217 2.387 . S
Tb172 O219 2.428 . S
Tb172 O220 2.308 . S
Tb172 O224 2.349 . S
Tb172 O227 2.393 . S
Tb172 C236 2.802 . S
C173 N174 1.379 . S
C173 C176 1.416 . S
C173 C180 1.424 . S
N174 C173 1.379 . S
N174 C177 1.334 . S
N174 Tb183 2.617 . S
C175 C177 1.390 . S
C175 C178 1.339 . S
C175 H195 0.930 . S
C176 C173 1.416 . S
C176 C178 1.416 . S
C176 C182 1.448 . S
C177 N174 1.334 . S
C177 C175 1.390 . S
C177 H188 0.930 . S
C178 C175 1.339 . S
C178 C176 1.416 . S
C178 H199 0.930 . S
C179 C180 1.413 . S
C179 C181 1.427 . S
C179 C185 1.416 . S
C180 C173 1.424 . S
C180 C179 1.413 . S
C180 N184 1.361 . S
C181 C179 1.427 . S
C181 C182 1.328 . S
C181 H196 0.929 . S
C182 C176 1.448 . S
C182 C181 1.328 . S
C182 H197 0.930 . S
Tb183 N174 2.617 . S
Tb183 N184 2.572 . S
Tb183 O218 2.349 . S
Tb183 O221 2.393 . S
Tb183 O222 2.465 . S
Tb183 O223 2.387 . S
Tb183 O225 2.428 . S
Tb183 O226 2.308 . S
Tb183 C247 2.802 . S
N184 C180 1.361 . S
N184 Tb183 2.572 . S
N184 C186 1.340 . S
C185 C179 1.416 . S
C185 C187 1.332 . S
C185 H193 0.931 . S
C186 N184 1.340 . S
C186 C187 1.407 . S
C186 H192 0.930 . S
C187 C185 1.332 . S
C187 C186 1.407 . S
C187 H189 0.929 . S
H188 C177 0.930 . S
H189 C187 0.929 . S
H190 C205 0.930 . S
H191 C212 0.929 . S
H192 C186 0.930 . S
H193 C185 0.931 . S
H194 C208 0.930 . S
H195 C175 0.930 . S
H196 C181 0.929 . S
H197 C182 0.930 . S
H198 C203 0.930 . S
H199 C178 0.930 . S
H200 C211 0.931 . S
N201 Tb172 2.617 . S
N201 C202 1.379 . S
N201 C205 1.334 . S
C202 N201 1.379 . S
C202 C204 1.416 . S
C202 C210 1.424 . S
C203 H198 0.930 . S
C203 C205 1.390 . S
C203 C206 1.339 . S
C204 C202 1.416 . S
C204 C206 1.416 . S
C204 C237 1.448 . S
C205 H190 0.930 . S
C205 N201 1.334 . S
C205 C203 1.390 . S
C206 C203 1.339 . S
C206 C204 1.416 . S
C206 H213 0.930 . S
N207 Tb172 2.572 . S
N207 C208 1.340 . S
N207 C210 1.361 . S
C208 H194 0.930 . S
C208 N207 1.340 . S
C208 C212 1.407 . S
C209 C210 1.413 . S
C209 C211 1.416 . S
C209 C238 1.427 . S
C210 C202 1.424 . S
C210 N207 1.361 . S
C210 C209 1.413 . S
C211 H200 0.931 . S
C211 C209 1.416 . S
C211 C212 1.332 . S
C212 H191 0.929 . S
C212 C208 1.407 . S
C212 C211 1.332 . S
H213 C206 0.930 . S
H214 C237 0.930 . S
H215 C238 0.929 . S
O216 Tb172 2.465 . S
O216 C236 1.264 . S
O217 Tb172 2.387 . S
O217 C228 1.264 . S
O218 Tb183 2.349 . S
O218 C228 1.243 . S
O219 Tb172 2.428 . S
O219 C236 1.256 . S
O220 Tb172 2.308 . S
O220 C235 1.266 . S
O221 Tb183 2.393 . S
O221 C235 1.248 . S
O222 Tb183 2.465 . S
O222 C247 1.264 . S
O223 Tb183 2.387 . S
O223 C239 1.264 . S
O224 Tb172 2.349 . S
O224 C239 1.243 . S
O225 Tb183 2.428 . S
O225 C247 1.256 . S
O226 Tb183 2.308 . S
O226 C246 1.266 . S
O227 Tb172 2.393 . S
O227 C246 1.248 . S
C228 O217 1.264 . S
C228 O218 1.243 . S
C229 C232 1.399 . S
C229 C234 1.383 . S
C229 C236 1.496 . S
C230 C231 1.399 . S
C230 C234 1.389 . S
C231 C230 1.399 . S
C231 C233 1.380 . S
C231 H248 0.929 . S
C232 C229 1.399 . S
C232 C233 1.392 . S
C232 H249 0.929 . S
C233 C231 1.380 . S
C233 C232 1.392 . S
C233 H250 0.929 . S
C234 C229 1.383 . S
C234 C230 1.389 . S
C234 H251 0.931 . S
C235 O220 1.266 . S
C235 O221 1.248 . S
C236 Tb172 2.802 . S
C236 O216 1.264 . S
C236 O219 1.256 . S
C236 C229 1.496 . S
C237 C204 1.448 . S
C237 H214 0.930 . S
C237 C238 1.328 . S
C238 C209 1.427 . S
C238 H215 0.929 . S
C238 C237 1.328 . S
C239 O223 1.264 . S
C239 O224 1.243 . S
C240 C243 1.399 . S
C240 C244 1.383 . S
C240 C247 1.496 . S
C241 C242 1.399 . S
C241 C244 1.389 . S
C242 C241 1.399 . S
C242 C245 1.380 . S
C242 H252 0.929 . S
C243 C240 1.399 . S
C243 C245 1.392 . S
C243 H253 0.929 . S
C244 C240 1.383 . S
C244 C241 1.389 . S
C244 H254 0.931 . S
C245 C242 1.380 . S
C245 C243 1.392 . S
C245 H255 0.929 . S
C246 O226 1.266 . S
C246 O227 1.248 . S
C247 Tb183 2.802 . S
C247 O222 1.264 . S
C247 O225 1.256 . S
C247 C240 1.496 . S
H248 C231 0.929 . S
H249 C232 0.929 . S
H250 C233 0.929 . S
H251 C234 0.931 . S
H252 C242 0.929 . S
H253 C243 0.929 . S
H254 C244 0.931 . S
H255 C245 0.929 . S
Tb256 N285 2.617 . S
Tb256 N291 2.572 . S
Tb256 O300 2.465 . S
Tb256 O301 2.387 . S
Tb256 O303 2.428 . S
Tb256 O304 2.319 . S
Tb256 O308 2.330 1_455 S
Tb256 O311 2.393 . S
Tb256 C320 2.802 . S
C257 N258 1.379 . S
C257 C260 1.416 . S
C257 C264 1.424 . S
N258 C257 1.379 . S
N258 C261 1.334 . S
N258 Tb267 2.617 . S
C259 C261 1.390 . S
C259 C262 1.339 . S
C259 H279 0.930 . S
C260 C257 1.416 . S
C260 C262 1.416 . S
C260 C266 1.448 . S
C261 N258 1.334 . S
C261 C259 1.390 . S
C261 H272 0.930 . S
C262 C259 1.339 . S
C262 C260 1.416 . S
C262 H283 0.930 . S
C263 C264 1.413 . S
C263 C265 1.427 . S
C263 C269 1.416 . S
C264 C257 1.424 . S
C264 C263 1.413 . S
C264 N268 1.361 . S
C265 C263 1.427 . S
C265 C266 1.328 . S
C265 H280 0.929 . S
C266 C260 1.448 . S
C266 C265 1.328 . S
C266 H281 0.930 . S
Tb267 N258 2.617 . S
Tb267 N268 2.572 . S
Tb267 O302 2.349 1_655 S
Tb267 O305 2.393 . S
Tb267 O306 2.465 . S
Tb267 O307 2.387 . S
Tb267 O309 2.428 . S
Tb267 O310 2.310 1_655 S
Tb267 C331 2.802 . S
N268 C264 1.361 . S
N268 Tb267 2.572 . S
N268 C270 1.340 . S
C269 C263 1.416 . S
C269 C271 1.332 . S
C269 H277 0.931 . S
C270 N268 1.340 . S
C270 C271 1.407 . S
C270 H276 0.930 . S
C271 C269 1.332 . S
C271 C270 1.407 . S
C271 H273 0.929 . S
H272 C261 0.930 . S
H273 C271 0.929 . S
H274 C289 0.930 . S
H275 C296 0.929 . S
H276 C270 0.930 . S
H277 C269 0.931 . S
H278 C292 0.930 . S
H279 C259 0.930 . S
H280 C265 0.929 . S
H281 C266 0.930 . S
H282 C287 0.930 . S
H283 C262 0.930 . S
H284 C295 0.931 . S
N285 Tb256 2.617 . S
N285 C286 1.379 . S
N285 C289 1.334 . S
C286 N285 1.379 . S
C286 C288 1.416 . S
C286 C294 1.424 . S
C287 H282 0.930 . S
C287 C289 1.390 . S
C287 C290 1.339 . S
C288 C286 1.416 . S
C288 C290 1.416 . S
C288 C321 1.448 . S
C289 H274 0.930 . S
C289 N285 1.334 . S
C289 C287 1.390 . S
C290 C287 1.339 . S
C290 C288 1.416 . S
C290 H297 0.930 . S
N291 Tb256 2.572 . S
N291 C292 1.340 . S
N291 C294 1.361 . S
C292 H278 0.930 . S
C292 N291 1.340 . S
C292 C296 1.407 . S
C293 C294 1.413 . S
C293 C295 1.416 . S
C293 C322 1.427 . S
C294 C286 1.424 . S
C294 N291 1.361 . S
C294 C293 1.413 . S
C295 H284 0.931 . S
C295 C293 1.416 . S
C295 C296 1.332 . S
C296 H275 0.929 . S
C296 C292 1.407 . S
C296 C295 1.332 . S
H297 C290 0.930 . S
H298 C321 0.930 . S
H299 C322 0.929 . S
O300 Tb256 2.465 . S
O300 C320 1.264 . S
O301 Tb256 2.387 . S
O301 C312 1.264 . S
O302 Tb267 2.349 1_455 S
O302 C312 1.243 . S
O303 Tb256 2.428 . S
O303 C320 1.256 . S
O304 Tb256 2.319 . S
O304 C319 1.253 1_455 S
O305 Tb267 2.393 . S
O305 C319 1.248 . S
O306 Tb267 2.465 . S
O306 C331 1.264 . S
O307 Tb267 2.387 . S
O307 C323 1.264 . S
O308 Tb256 2.330 1_655 S
O308 C323 1.267 . S
O309 Tb267 2.428 . S
O309 C331 1.256 . S
O310 Tb267 2.310 1_455 S
O310 C330 1.264 . S
O311 Tb256 2.393 . S
O311 C330 1.248 . S
C312 O301 1.264 . S
C312 O302 1.243 . S
C313 C316 1.399 . S
C313 C318 1.383 . S
C313 C320 1.496 . S
C314 C315 1.399 . S
C314 C318 1.389 . S
C315 C314 1.399 . S
C315 C317 1.380 . S
C315 H332 0.929 . S
C316 C313 1.399 . S
C316 C317 1.392 . S
C316 H333 0.929 . S
C317 C315 1.380 . S
C317 C316 1.392 . S
C317 H334 0.929 . S
C318 C313 1.383 . S
C318 C314 1.389 . S
C318 H335 0.931 . S
C319 O304 1.253 1_655 S
C319 O305 1.248 . S
C320 Tb256 2.802 . S
C320 O300 1.264 . S
C320 O303 1.256 . S
C320 C313 1.496 . S
C321 C288 1.448 . S
C321 H298 0.930 . S
C321 C322 1.328 . S
C322 C293 1.427 . S
C322 H299 0.929 . S
C322 C321 1.328 . S
C323 O307 1.264 . S
C323 O308 1.267 . S
C324 C327 1.399 . S
C324 C328 1.383 . S
C324 C331 1.496 . S
C325 C326 1.399 . S
C325 C328 1.389 . S
C326 C325 1.399 . S
C326 C329 1.380 . S
C326 H336 0.929 . S
C327 C324 1.399 . S
C327 C329 1.392 . S
C327 H337 0.929 . S
C328 C324 1.383 . S
C328 C325 1.389 . S
C328 H338 0.931 . S
C329 C326 1.380 . S
C329 C327 1.392 . S
C329 H339 0.929 . S
C330 O310 1.264 . S
C330 O311 1.248 . S
C331 Tb267 2.802 . S
C331 O306 1.264 . S
C331 O309 1.256 . S
C331 C324 1.496 . S
H332 C315 0.929 . S
H333 C316 0.929 . S
H334 C317 0.929 . S
H335 C318 0.931 . S
H336 C326 0.929 . S
H337 C327 0.929 . S
H338 C328 0.931 . S
H339 C329 0.929 . S
Tb340 N369 2.617 . S
Tb340 N375 2.572 . S
Tb340 O384 2.465 . S
Tb340 O385 2.387 . S
Tb340 O387 2.428 . S
Tb340 O388 2.308 . S
Tb340 O392 2.349 . S
Tb340 O395 2.393 . S
Tb340 C404 2.802 . S
C341 N342 1.379 . S
C341 C344 1.416 . S
C341 C348 1.424 . S
N342 C341 1.379 . S
N342 C345 1.334 . S
N342 Tb351 2.617 . S
C343 C345 1.390 . S
C343 C346 1.339 . S
C343 H363 0.930 . S
C344 C341 1.416 . S
C344 C346 1.416 . S
C344 C350 1.448 . S
C345 N342 1.334 . S
C345 C343 1.390 . S
C345 H356 0.930 . S
C346 C343 1.339 . S
C346 C344 1.416 . S
C346 H367 0.930 . S
C347 C348 1.413 . S
C347 C349 1.427 . S
C347 C353 1.416 . S
C348 C341 1.424 . S
C348 C347 1.413 . S
C348 N352 1.361 . S
C349 C347 1.427 . S
C349 C350 1.328 . S
C349 H364 0.929 . S
C350 C344 1.448 . S
C350 C349 1.328 . S
C350 H365 0.930 . S
Tb351 N342 2.617 . S
Tb351 N352 2.572 . S
Tb351 O386 2.349 . S
Tb351 O389 2.393 . S
Tb351 O390 2.465 . S
Tb351 O391 2.387 . S
Tb351 O393 2.428 . S
Tb351 O394 2.308 . S
Tb351 C415 2.802 . S
N352 C348 1.361 . S
N352 Tb351 2.572 . S
N352 C354 1.340 . S
C353 C347 1.416 . S
C353 C355 1.332 . S
C353 H361 0.931 . S
C354 N352 1.340 . S
C354 C355 1.407 . S
C354 H360 0.930 . S
C355 C353 1.332 . S
C355 C354 1.407 . S
C355 H357 0.929 . S
H356 C345 0.930 . S
H357 C355 0.929 . S
H358 C373 0.930 . S
H359 C380 0.929 . S
H360 C354 0.930 . S
H361 C353 0.931 . S
H362 C376 0.930 . S
H363 C343 0.930 . S
H364 C349 0.929 . S
H365 C350 0.930 . S
H366 C371 0.930 . S
H367 C346 0.930 . S
H368 C379 0.931 . S
N369 Tb340 2.617 . S
N369 C370 1.379 . S
N369 C373 1.334 . S
C370 N369 1.379 . S
C370 C372 1.416 . S
C370 C378 1.424 . S
C371 H366 0.930 . S
C371 C373 1.390 . S
C371 C374 1.339 . S
C372 C370 1.416 . S
C372 C374 1.416 . S
C372 C405 1.448 . S
C373 H358 0.930 . S
C373 N369 1.334 . S
C373 C371 1.390 . S
C374 C371 1.339 . S
C374 C372 1.416 . S
C374 H381 0.930 . S
N375 Tb340 2.572 . S
N375 C376 1.340 . S
N375 C378 1.361 . S
C376 H362 0.930 . S
C376 N375 1.340 . S
C376 C380 1.407 . S
C377 C378 1.413 . S
C377 C379 1.416 . S
C377 C406 1.427 . S
C378 C370 1.424 . S
C378 N375 1.361 . S
C378 C377 1.413 . S
C379 H368 0.931 . S
C379 C377 1.416 . S
C379 C380 1.332 . S
C380 H359 0.929 . S
C380 C376 1.407 . S
C380 C379 1.332 . S
H381 C374 0.930 . S
H382 C405 0.930 . S
H383 C406 0.929 . S
O384 Tb340 2.465 . S
O384 C404 1.264 . S
O385 Tb340 2.387 . S
O385 C396 1.264 . S
O386 Tb351 2.349 . S
O386 C396 1.243 . S
O387 Tb340 2.428 . S
O387 C404 1.256 . S
O388 Tb340 2.308 . S
O388 C403 1.266 . S
O389 Tb351 2.393 . S
O389 C403 1.248 . S
O390 Tb351 2.465 . S
O390 C415 1.264 . S
O391 Tb351 2.387 . S
O391 C407 1.264 . S
O392 Tb340 2.349 . S
O392 C407 1.243 . S
O393 Tb351 2.428 . S
O393 C415 1.256 . S
O394 Tb351 2.308 . S
O394 C414 1.266 . S
O395 Tb340 2.393 . S
O395 C414 1.248 . S
C396 O385 1.264 . S
C396 O386 1.243 . S
C397 C400 1.399 . S
C397 C402 1.383 . S
C397 C404 1.496 . S
C398 C399 1.399 . S
C398 C402 1.389 . S
C399 C398 1.399 . S
C399 C401 1.380 . S
C399 H416 0.929 . S
C400 C397 1.399 . S
C400 C401 1.392 . S
C400 H417 0.929 . S
C401 C399 1.380 . S
C401 C400 1.392 . S
C401 H418 0.929 . S
C402 C397 1.383 . S
C402 C398 1.389 . S
C402 H419 0.931 . S
C403 O388 1.266 . S
C403 O389 1.248 . S
C404 Tb340 2.802 . S
C404 O384 1.264 . S
C404 O387 1.256 . S
C404 C397 1.496 . S
C405 C372 1.448 . S
C405 H382 0.930 . S
C405 C406 1.328 . S
C406 C377 1.427 . S
C406 H383 0.929 . S
C406 C405 1.328 . S
C407 O391 1.264 . S
C407 O392 1.243 . S
C408 C411 1.399 . S
C408 C412 1.383 . S
C408 C415 1.496 . S
C409 C410 1.399 . S
C409 C412 1.389 . S
C410 C409 1.399 . S
C410 C413 1.380 . S
C410 H420 0.929 . S
C411 C408 1.399 . S
C411 C413 1.392 . S
C411 H421 0.929 . S
C412 C408 1.383 . S
C412 C409 1.389 . S
C412 H422 0.931 . S
C413 C410 1.380 . S
C413 C411 1.392 . S
C413 H423 0.929 . S
C414 O394 1.266 . S
C414 O395 1.248 . S
C415 Tb351 2.802 . S
C415 O390 1.264 . S
C415 O393 1.256 . S
C415 C408 1.496 . S
H416 C399 0.929 . S
H417 C400 0.929 . S
H418 C401 0.929 . S
H419 C402 0.931 . S
H420 C410 0.929 . S
H421 C411 0.929 . S
H422 C412 0.931 . S
H423 C413 0.929 . S
H424 C432 0.929 . S
H425 C434 0.930 . S
H426 C436 0.930 . S
H427 C439 0.929 . S
H428 C442 0.930 . S
H429 C444 0.960 . S
H430 C444 0.960 . S
H431 C444 0.960 . S
C432 H424 0.929 . S
C432 C433 1.377 . S
C432 C434 1.384 . S
C433 C432 1.377 . S
C433 C439 1.390 . S
C434 H425 0.930 . S
C434 C432 1.384 . S
C434 C435 1.372 . S
C435 C434 1.372 . S
C435 C436 1.400 . S
C435 C440 1.490 . S
C436 H426 0.930 . S
C436 C435 1.400 . S
C436 C439 1.386 . S
H437 C453 0.930 . S
H438 C454 0.931 1_565 S
C439 H427 0.929 . S
C439 C433 1.390 . S
C439 C436 1.386 . S
C440 C435 1.490 . S
C440 C442 1.395 . S
C440 C443 1.403 . S
H441 C447 0.930 . S
C442 H428 0.930 . S
C442 C440 1.395 . S
C442 C445 1.403 . S
C443 C440 1.403 . S
C443 C444 1.524 . S
C443 C447 1.400 . S
C444 H429 0.960 . S
C444 H430 0.960 . S
C444 H431 0.960 . S
C444 C443 1.524 . S
C445 C442 1.403 . S
C445 C446 1.400 . S
C445 C449 1.495 1_565 S
C446 C445 1.400 . S
C446 C447 1.394 . S
C446 C448 1.461 1_565 S
C447 H441 0.930 . S
C447 C443 1.400 . S
C447 C446 1.394 . S
C448 C446 1.461 1_545 S
C448 C450 1.381 . S
C448 C454 1.383 . S
C449 C445 1.495 1_545 S
C449 H455 0.959 1_545 S
C449 H456 0.961 1_545 S
C449 H457 0.960 . S
C450 C448 1.381 . S
C450 C451 1.394 . S
C450 H458 0.930 . S
C451 C450 1.394 . S
C451 C452 1.383 . S
C451 H459 0.929 . S
C452 C451 1.383 . S
C452 C453 1.377 . S
C453 H437 0.930 . S
C453 C452 1.377 . S
C453 C454 1.379 . S
C454 H438 0.931 1_545 S
C454 C448 1.383 . S
C454 C453 1.379 . S
H455 C449 0.959 1_565 S
H456 C449 0.961 1_565 S
H457 C449 0.960 . S
H458 C450 0.930 . S
H459 C451 0.929 . S
H460 C468 0.929 . S
H461 C470 0.930 . S
H462 C472 0.930 . S
H463 C475 0.929 . S
H464 C478 0.930 . S
H465 C480 0.960 . S
H466 C480 0.960 . S
H467 C480 0.960 . S
C468 H460 0.929 . S
C468 C469 1.377 . S
C468 C470 1.384 . S
C469 C468 1.377 . S
C469 C475 1.390 . S
C470 H461 0.930 . S
C470 C468 1.384 . S
C470 C471 1.372 . S
C471 C470 1.372 . S
C471 C472 1.400 . S
C471 C476 1.490 . S
C472 H462 0.930 . S
C472 C471 1.400 . S
C472 C475 1.386 . S
H473 C489 0.930 . S
H474 C490 0.931 . S
C475 H463 0.929 . S
C475 C469 1.390 . S
C475 C472 1.386 . S
C476 C471 1.490 . S
C476 C478 1.395 . S
C476 C479 1.403 . S
H477 C483 0.930 . S
C478 H464 0.930 . S
C478 C476 1.395 . S
C478 C481 1.403 . S
C479 C476 1.403 . S
C479 C480 1.524 . S
C479 C483 1.400 . S
C480 H465 0.960 . S
C480 H466 0.960 . S
C480 H467 0.960 . S
C480 C479 1.524 . S
C481 C478 1.403 . S
C481 C482 1.392 . S
C481 C485 1.495 . S
C482 C481 1.392 . S
C482 C483 1.385 . S
C482 C484 1.478 . S
C483 H477 0.930 . S
C483 C479 1.400 . S
C483 C482 1.385 . S
C484 C482 1.478 . S
C484 C486 1.381 . S
C484 C490 1.383 . S
C485 C481 1.495 . S
C485 H491 0.959 . S
C485 H492 0.961 . S
C485 H493 0.960 . S
C486 C484 1.381 . S
C486 C487 1.394 . S
C486 H494 0.930 . S
C487 C486 1.394 . S
C487 C488 1.383 . S
C487 H495 0.929 . S
C488 C487 1.383 . S
C488 C489 1.377 . S
C489 H473 0.930 . S
C489 C488 1.377 . S
C489 C490 1.379 . S
C490 H474 0.931 . S
C490 C484 1.383 . S
C490 C489 1.379 . S
H491 C485 0.959 . S
H492 C485 0.961 . S
H493 C485 0.960 . S
H494 C486 0.930 . S
H495 C487 0.929 . S
H496 C504 0.929 . S
H497 C506 0.930 . S
H498 C508 0.930 . S
H499 C511 0.929 . S
H500 C514 0.930 . S
H501 C516 0.960 . S
H502 C516 0.960 . S
H503 C516 0.960 . S
C504 H496 0.929 . S
C504 C505 1.377 . S
C504 C506 1.384 . S
C505 C504 1.377 . S
C505 C511 1.390 . S
C506 H497 0.930 . S
C506 C504 1.384 . S
C506 C507 1.372 . S
C507 C506 1.372 . S
C507 C508 1.400 . S
C507 C512 1.490 . S
C508 H498 0.930 . S
C508 C507 1.400 . S
C508 C511 1.386 . S
H509 C525 0.930 . S
H510 C526 0.931 . S
C511 H499 0.929 . S
C511 C505 1.390 . S
C511 C508 1.386 . S
C512 C507 1.490 . S
C512 C514 1.395 . S
C512 C515 1.403 . S
H513 C519 0.930 . S
C514 H500 0.930 . S
C514 C512 1.395 . S
C514 C517 1.403 . S
C515 C512 1.403 . S
C515 C516 1.524 . S
C515 C519 1.400 . S
C516 H501 0.960 . S
C516 H502 0.960 . S
C516 H503 0.960 . S
C516 C515 1.524 . S
C517 C514 1.403 . S
C517 C518 1.392 . S
C517 C521 1.495 . S
C518 C517 1.392 . S
C518 C519 1.385 . S
C518 C520 1.478 . S
C519 H513 0.930 . S
C519 C515 1.400 . S
C519 C518 1.385 . S
C520 C518 1.478 . S
C520 C522 1.381 . S
C520 C526 1.383 . S
C521 C517 1.495 . S
C521 H527 0.959 . S
C521 H528 0.961 . S
C521 H529 0.960 . S
C522 C520 1.381 . S
C522 C523 1.394 . S
C522 H530 0.930 . S
C523 C522 1.394 . S
C523 C524 1.383 . S
C523 H531 0.929 . S
C524 C523 1.383 . S
C524 C525 1.377 . S
C525 H509 0.930 . S
C525 C524 1.377 . S
C525 C526 1.379 . S
C526 H510 0.931 . S
C526 C520 1.383 . S
C526 C525 1.379 . S
H527 C521 0.959 . S
H528 C521 0.961 . S
H529 C521 0.960 . S
H530 C522 0.930 . S
H531 C523 0.929 . S
H532 C540 0.929 . S
H533 C542 0.930 . S
H534 C544 0.930 . S
H535 C547 0.929 . S
H536 C550 0.930 . S
H537 C552 0.960 . S
H538 C552 0.960 . S
H539 C552 0.960 1_565 S
C540 H532 0.929 . S
C540 C541 1.377 . S
C540 C542 1.384 . S
C541 C540 1.377 . S
C541 C547 1.390 . S
C542 H533 0.930 . S
C542 C540 1.384 . S
C542 C543 1.372 . S
C543 C542 1.372 . S
C543 C544 1.400 . S
C543 C548 1.490 . S
C544 H534 0.930 . S
C544 C543 1.400 . S
C544 C547 1.386 . S
H545 C561 0.930 1_455 S
H546 C562 0.931 . S
C547 H535 0.929 . S
C547 C541 1.390 . S
C547 C544 1.386 . S
C548 C543 1.490 . S
C548 C550 1.395 . S
C548 C551 1.403 . S
H549 C555 0.930 . S
C550 H536 0.930 . S
C550 C548 1.395 . S
C550 C553 1.403 . S
C551 C548 1.403 . S
C551 C552 1.524 1_565 S
C551 C555 1.400 1_565 S
C552 H537 0.960 . S
C552 H538 0.960 . S
C552 H539 0.960 1_545 S
C552 C551 1.524 1_545 S
C553 C550 1.403 . S
C553 C554 1.379 1_565 S
C553 C557 1.495 . S
C554 C553 1.379 1_545 S
C554 C555 1.389 . S
C554 C556 1.488 . S
C555 H549 0.930 . S
C555 C551 1.400 1_545 S
C555 C554 1.389 . S
C556 C554 1.488 . S
C556 C558 1.381 . S
C556 C562 1.383 . S
C557 C553 1.495 . S
C557 H563 0.959 . S
C557 H564 0.961 . S
C557 H565 0.960 . S
C558 C556 1.381 . S
C558 C559 1.394 . S
C558 H566 0.930 . S
C559 C558 1.394 . S
C559 C560 1.383 . S
C559 H567 0.929 . S
C560 C559 1.383 . S
C560 C561 1.377 . S
C561 H545 0.930 1_655 S
C561 C560 1.377 . S
C561 C562 1.379 . S
C562 H546 0.931 . S
C562 C556 1.383 . S
C562 C561 1.379 . S
H563 C557 0.959 . S
H564 C557 0.961 . S
H565 C557 0.960 . S
H566 C558 0.930 . S
H567 C559 0.929 . S
H568 C576 0.929 . S
H569 C578 0.930 . S
H570 C580 0.930 . S
H571 C583 0.929 . S
H572 C586 0.930 . S
H573 C588 0.960 1_565 S
H574 C588 0.960 . S
H575 C588 0.960 . S
C576 H568 0.929 . S
C576 C577 1.377 . S
C576 C578 1.384 . S
C577 C576 1.377 . S
C577 C583 1.390 . S
C578 H569 0.930 . S
C578 C576 1.384 . S
C578 C579 1.372 . S
C579 C578 1.372 . S
C579 C580 1.400 . S
C579 C584 1.490 . S
C580 H570 0.930 . S
C580 C579 1.400 . S
C580 C583 1.386 . S
H581 C597 0.930 . S
H582 C598 0.931 . S
C583 H571 0.929 . S
C583 C577 1.390 . S
C583 C580 1.386 . S
C584 C579 1.490 . S
C584 C586 1.395 . S
C584 C587 1.403 . S
H585 C591 0.973 . S
C586 H572 0.930 . S
C586 C584 1.395 . S
C586 C589 1.403 . S
C587 C584 1.403 . S
C587 C588 1.524 . S
C587 C591 1.368 1_545 S
C588 H573 0.960 1_545 S
C588 H574 0.960 . S
C588 H575 0.960 . S
C588 C587 1.524 . S
C589 C586 1.403 . S
C589 C590 1.392 . S
C589 C593 1.495 . S
C590 C589 1.392 . S
C590 C591 1.378 1_545 S
C590 C592 1.478 1_545 S
C591 H585 0.973 . S
C591 C587 1.368 1_565 S
C591 C590 1.378 1_565 S
C592 C590 1.478 1_565 S
C592 C594 1.381 . S
C592 C598 1.383 . S
C593 C589 1.495 . S
C593 H599 0.959 . S
C593 H600 0.961 . S
C593 H601 0.960 . S
C594 C592 1.381 . S
C594 C595 1.394 . S
C594 H602 0.905 1_565 S
C595 C594 1.394 . S
C595 C596 1.383 . S
C595 H603 0.929 . S
C596 C595 1.383 . S
C596 C597 1.377 . S
C597 H581 0.930 . S
C597 C596 1.377 . S
C597 C598 1.379 . S
C598 H582 0.931 . S
C598 C592 1.383 . S
C598 C597 1.379 . S
H599 C593 0.959 . S
H600 C593 0.961 . S
H601 C593 0.960 . S
H602 C594 0.905 1_545 S
H603 C595 0.929 . S
H604 C612 0.929 . S
H605 C614 0.930 . S
H606 C616 0.930 . S
H607 C619 0.929 . S
H608 C622 0.930 . S
H609 C624 0.960 . S
H610 C624 0.960 . S
H611 C624 0.960 . S
C612 H604 0.929 . S
C612 C613 1.377 . S
C612 C614 1.384 . S
C613 C612 1.377 . S
C613 C619 1.390 . S
C614 H605 0.930 . S
C614 C612 1.384 . S
C614 C615 1.372 . S
C615 C614 1.372 . S
C615 C616 1.400 . S
C615 C620 1.490 . S
C616 H606 0.930 . S
C616 C615 1.400 . S
C616 C619 1.386 . S
H617 C633 0.930 . S
H618 C634 0.931 . S
C619 H607 0.929 . S
C619 C613 1.390 . S
C619 C616 1.386 . S
C620 C615 1.490 . S
C620 C622 1.395 . S
C620 C623 1.403 . S
H621 C627 0.930 . S
C622 H608 0.930 . S
C622 C620 1.395 . S
C622 C625 1.403 . S
C623 C620 1.403 . S
C623 C624 1.524 . S
C623 C627 1.400 . S
C624 H609 0.960 . S
C624 H610 0.960 . S
C624 H611 0.960 . S
C624 C623 1.524 . S
C625 C622 1.403 . S
C625 C626 1.392 . S
C625 C629 1.495 . S
C626 C625 1.392 . S
C626 C627 1.385 . S
C626 C628 1.478 . S
C627 H621 0.930 . S
C627 C623 1.400 . S
C627 C626 1.385 . S
C628 C626 1.478 . S
C628 C630 1.381 . S
C628 C634 1.383 . S
C629 C625 1.495 . S
C629 H635 0.959 . S
C629 H636 0.961 . S
C629 H637 0.960 . S
C630 C628 1.381 . S
C630 C631 1.394 . S
C630 H638 0.930 . S
C631 C630 1.394 . S
C631 C632 1.383 . S
C631 H639 0.929 . S
C632 C631 1.383 . S
C632 C633 1.377 . S
C633 H617 0.930 . S
C633 C632 1.377 . S
C633 C634 1.379 . S
C634 H618 0.931 . S
C634 C628 1.383 . S
C634 C633 1.379 . S
H635 C629 0.959 . S
H636 C629 0.961 . S
H637 C629 0.960 . S
H638 C630 0.930 . S
H639 C631 0.929 . S
H640 C648 0.929 . S
H641 C650 0.930 . S
H642 C652 0.930 . S
H643 C655 0.929 . S
H644 C658 0.930 . S
H645 C660 0.960 . S
H646 C660 0.960 . S
H647 C660 0.960 . S
C648 H640 0.929 . S
C648 C649 1.377 . S
C648 C650 1.384 . S
C649 C648 1.377 . S
C649 C655 1.390 . S
C650 H641 0.930 . S
C650 C648 1.384 . S
C650 C651 1.372 . S
C651 C650 1.372 . S
C651 C652 1.400 . S
C651 C656 1.490 . S
C652 H642 0.930 . S
C652 C651 1.400 . S
C652 C655 1.386 . S
H653 C669 0.930 . S
H654 C670 0.931 . S
C655 H643 0.929 . S
C655 C649 1.390 . S
C655 C652 1.386 . S
C656 C651 1.490 . S
C656 C658 1.395 . S
C656 C659 1.403 . S
H657 C663 0.930 . S
C658 H644 0.930 . S
C658 C656 1.395 . S
C658 C661 1.403 . S
C659 C656 1.403 . S
C659 C660 1.524 . S
C659 C663 1.400 . S
C660 H645 0.960 . S
C660 H646 0.960 . S
C660 H647 0.960 . S
C660 C659 1.524 . S
C661 C658 1.403 . S
C661 C662 1.392 . S
C661 C665 1.495 . S
C662 C661 1.392 . S
C662 C663 1.385 . S
C662 C664 1.478 . S
C663 H657 0.930 . S
C663 C659 1.400 . S
C663 C662 1.385 . S
C664 C662 1.478 . S
C664 C666 1.381 . S
C664 C670 1.383 . S
C665 C661 1.495 . S
C665 H671 0.959 . S
C665 H672 0.961 . S
C665 H673 0.960 . S
C666 C664 1.381 . S
C666 C667 1.394 . S
C666 H674 0.930 . S
C667 C666 1.394 . S
C667 C668 1.383 . S
C667 H675 0.929 . S
C668 C667 1.383 . S
C668 C669 1.377 . S
C669 H653 0.930 . S
C669 C668 1.377 . S
C669 C670 1.379 . S
C670 H654 0.931 . S
C670 C664 1.383 . S
C670 C669 1.379 . S
H671 C665 0.959 . S
H672 C665 0.961 . S
H673 C665 0.960 . S
H674 C666 0.930 . S
H675 C667 0.929 . S
H676 C684 0.929 . S
H677 C686 0.930 . S
H678 C688 0.930 . S
H679 C691 0.929 . S
H680 C694 0.930 . S
H681 C696 0.960 . S
H682 C696 0.960 . S
H683 C696 0.960 1_545 S
C684 H676 0.929 . S
C684 C685 1.377 . S
C684 C686 1.384 . S
C685 C684 1.377 . S
C685 C691 1.390 . S
C686 H677 0.930 . S
C686 C684 1.384 . S
C686 C687 1.372 . S
C687 C686 1.372 . S
C687 C688 1.400 . S
C687 C692 1.490 . S
C688 H678 0.930 . S
C688 C687 1.400 . S
C688 C691 1.386 . S
H689 C705 0.930 . S
H690 C706 0.931 . S
C691 H679 0.929 . S
C691 C685 1.390 . S
C691 C688 1.386 . S
C692 C687 1.490 . S
C692 C694 1.395 . S
C692 C695 1.437 . S
H693 C699 0.930 . S
C694 H680 0.930 . S
C694 C692 1.395 . S
C694 C697 1.403 . S
C695 C692 1.437 . S
C695 C696 1.516 1_545 S
C695 C699 1.373 1_545 S
C696 H681 0.960 . S
C696 H682 0.960 . S
C696 H683 0.960 1_565 S
C696 C695 1.516 1_565 S
C697 C694 1.403 . S
C697 C698 1.392 1_545 S
C697 C701 1.495 . S
C698 C697 1.392 1_565 S
C698 C699 1.385 . S
C698 C700 1.478 . S
C699 H693 0.930 . S
C699 C695 1.373 1_565 S
C699 C698 1.385 . S
C700 C698 1.478 . S
C700 C702 1.381 . S
C700 C706 1.383 . S
C701 C697 1.495 . S
C701 H707 0.959 . S
C701 H708 0.961 . S
C701 H709 0.960 1_545 S
C702 C700 1.381 . S
C702 C703 1.394 . S
C702 H710 0.930 . S
C703 C702 1.394 . S
C703 C704 1.383 . S
C703 H711 0.929 . S
C704 C703 1.383 . S
C704 C705 1.377 . S
C705 H689 0.930 . S
C705 C704 1.377 . S
C705 C706 1.379 . S
C706 H690 0.931 . S
C706 C700 1.383 . S
C706 C705 1.379 . S
H707 C701 0.959 . S
H708 C701 0.961 . S
H709 C701 0.960 1_565 S
H710 C702 0.930 . S
H711 C703 0.929 . S
H712 C720 0.929 . S
H713 C722 0.930 . S
H714 C724 0.930 1_554 S
H715 C727 0.929 . S
H716 C730 0.930 . S
H717 C732 0.960 . S
H718 C732 0.960 . S
H719 C732 0.960 . S
C720 H712 0.929 . S
C720 C721 1.377 . S
C720 C722 1.384 . S
C721 C720 1.377 . S
C721 C727 1.390 . S
C722 H713 0.930 . S
C722 C720 1.384 . S
C722 C723 1.370 . S
C723 C722 1.370 . S
C723 C724 1.399 . S
C723 C728 1.492 1_556 S
C724 H714 0.930 1_556 S
C724 C723 1.399 . S
C724 C727 1.386 . S
H725 C741 0.930 . S
H726 C742 0.931 . S
C727 H715 0.929 . S
C727 C721 1.390 . S
C727 C724 1.386 . S
C728 C723 1.492 1_554 S
C728 C730 1.395 . S
C728 C731 1.403 . S
H729 C735 0.930 . S
C730 H716 0.930 . S
C730 C728 1.395 . S
C730 C733 1.403 . S
C731 C728 1.403 . S
C731 C732 1.524 . S
C731 C735 1.400 . S
C732 H717 0.960 . S
C732 H718 0.960 . S
C732 H719 0.960 . S
C732 C731 1.524 . S
C733 C730 1.403 . S
C733 C734 1.392 . S
C733 C737 1.495 . S
C734 C733 1.392 . S
C734 C735 1.385 . S
C734 C736 1.478 . S
C735 H729 0.930 . S
C735 C731 1.400 . S
C735 C734 1.385 . S
C736 C734 1.478 . S
C736 C738 1.381 . S
C736 C742 1.383 . S
C737 C733 1.495 . S
C737 H743 0.959 . S
C737 H744 0.961 . S
C737 H745 0.960 . S
C738 C736 1.381 . S
C738 C739 1.394 . S
C738 H746 0.930 . S
C739 C738 1.394 . S
C739 C740 1.383 . S
C739 H747 0.929 . S
C740 C739 1.383 . S
C740 C741 1.377 . S
C741 H725 0.930 . S
C741 C740 1.377 . S
C741 C742 1.379 . S
C742 H726 0.931 . S
C742 C736 1.383 . S
C742 C741 1.379 . S
H743 C737 0.959 . S
H744 C737 0.961 . S
H745 C737 0.960 . S
H746 C738 0.930 . S
H747 C739 0.929 . S
H748 C756 0.929 . S
H749 C758 0.930 . S
H750 C760 0.930 . S
H751 C763 0.929 . S
H752 C766 0.930 . S
H753 C768 0.960 . S
H754 C768 0.960 . S
H755 C768 0.960 . S
C756 H748 0.929 . S
C756 C757 1.377 . S
C756 C758 1.384 . S
C757 C756 1.377 . S
C757 C763 1.390 . S
C758 H749 0.930 . S
C758 C756 1.384 . S
C758 C759 1.372 . S
C759 C758 1.372 . S
C759 C760 1.400 . S
C759 C764 1.490 . S
C760 H750 0.930 . S
C760 C759 1.400 . S
C760 C763 1.386 . S
H761 C777 0.930 . S
H762 C778 0.931 . S
C763 H751 0.929 . S
C763 C757 1.390 . S
C763 C760 1.386 . S
C764 C759 1.490 . S
C764 C766 1.395 . S
C764 C767 1.403 . S
H765 C771 0.930 . S
C766 H752 0.930 . S
C766 C764 1.395 . S
C766 C769 1.403 . S
C767 C764 1.403 . S
C767 C768 1.524 . S
C767 C771 1.400 . S
C768 H753 0.960 . S
C768 H754 0.960 . S
C768 H755 0.960 . S
C768 C767 1.524 . S
C769 C766 1.403 . S
C769 C770 1.392 . S
C769 C773 1.495 . S
C770 C769 1.392 . S
C770 C771 1.385 . S
C770 C772 1.478 . S
C771 H765 0.930 . S
C771 C767 1.400 . S
C771 C770 1.385 . S
C772 C770 1.478 . S
C772 C774 1.381 . S
C772 C778 1.383 . S
C773 C769 1.495 . S
C773 H779 0.959 . S
C773 H780 0.961 . S
C773 H781 0.960 . S
C774 C772 1.381 . S
C774 C775 1.394 . S
C774 H782 0.930 . S
C775 C774 1.394 . S
C775 C776 1.383 . S
C775 H783 0.929 . S
C776 C775 1.383 . S
C776 C777 1.377 . S
C777 H761 0.930 . S
C777 C776 1.377 . S
C777 C778 1.379 . S
C778 H762 0.931 . S
C778 C772 1.383 . S
C778 C777 1.379 . S
H779 C773 0.959 . S
H780 C773 0.961 . S
H781 C773 0.960 . S
H782 C774 0.930 . S
H783 C775 0.929 . S
H784 C792 0.929 . S
H785 C794 0.930 1_556 S
H786 C796 0.930 . S
H787 C799 0.929 . S
H788 C802 0.930 . S
H789 C804 0.960 . S
H790 C804 0.960 . S
H791 C804 0.960 1_554 S
C792 H784 0.929 . S
C792 C793 1.377 . S
C792 C794 1.384 . S
C793 C792 1.377 . S
C793 C799 1.390 . S
C794 H785 0.930 1_554 S
C794 C792 1.384 . S
C794 C795 1.372 . S
C795 C794 1.372 . S
C795 C796 1.400 . S
C795 C800 1.490 1_554 S
C796 H786 0.930 . S
C796 C795 1.400 . S
C796 C799 1.386 . S
H797 C813 0.930 . S
H798 C814 0.931 . S
C799 H787 0.929 . S
C799 C793 1.390 . S
C799 C796 1.386 . S
C800 C795 1.490 1_556 S
C800 C802 1.395 . S
C800 C803 1.403 . S
H801 C807 0.930 . S
C802 H788 0.930 . S
C802 C800 1.395 . S
C802 C805 1.403 . S
C803 C800 1.403 . S
C803 C804 1.524 . S
C803 C807 1.400 . S
C804 H789 0.960 . S
C804 H790 0.960 . S
C804 H791 0.960 1_556 S
C804 C803 1.524 . S
C805 C802 1.403 . S
C805 C806 1.392 . S
C805 C809 1.495 . S
C806 C805 1.392 . S
C806 C807 1.385 . S
C806 C808 1.478 . S
C807 H801 0.930 . S
C807 C803 1.400 . S
C807 C806 1.385 . S
C808 C806 1.478 . S
C808 C810 1.381 . S
C808 C814 1.383 . S
C809 C805 1.495 . S
C809 H815 0.959 . S
C809 H816 0.961 . S
C809 H817 0.960 . S
C810 C808 1.381 . S
C810 C811 1.394 . S
C810 H818 0.930 . S
C811 C810 1.394 . S
C811 C812 1.383 . S
C811 H819 0.929 . S
C812 C811 1.383 . S
C812 C813 1.377 . S
C813 H797 0.930 . S
C813 C812 1.377 . S
C813 C814 1.379 . S
C814 H798 0.931 . S
C814 C808 1.383 . S
C814 C813 1.379 . S
H815 C809 0.959 . S
H816 C809 0.961 . S
H817 C809 0.960 . S
H818 C810 0.930 . S
H819 C811 0.929 . S
H820 C828 0.929 . S
H821 C830 0.930 . S
H822 C832 0.930 . S
H823 C835 0.929 . S
H824 C838 0.930 . S
H825 C840 0.960 . S
H826 C840 0.960 . S
H827 C840 0.960 . S
C828 H820 0.929 . S
C828 C829 1.377 . S
C828 C830 1.384 . S
C829 C828 1.377 . S
C829 C835 1.390 . S
C830 H821 0.930 . S
C830 C828 1.384 . S
C830 C831 1.372 . S
C831 C830 1.372 . S
C831 C832 1.400 . S
C831 C836 1.490 . S
C832 H822 0.930 . S
C832 C831 1.400 . S
C832 C835 1.386 . S
H833 C849 0.930 . S
H834 C850 0.931 . S
C835 H823 0.929 . S
C835 C829 1.390 . S
C835 C832 1.386 . S
C836 C831 1.490 . S
C836 C838 1.395 . S
C836 C839 1.403 . S
H837 C843 0.930 . S
C838 H824 0.930 . S
C838 C836 1.395 . S
C838 C841 1.403 . S
C839 C836 1.403 . S
C839 C840 1.524 . S
C839 C843 1.400 . S
C840 H825 0.960 . S
C840 H826 0.960 . S
C840 H827 0.960 . S
C840 C839 1.524 . S
C841 C838 1.403 . S
C841 C842 1.392 . S
C841 C845 1.495 . S
C842 C841 1.392 . S
C842 C843 1.385 . S
C842 C844 1.478 . S
C843 H837 0.930 . S
C843 C839 1.400 . S
C843 C842 1.385 . S
C844 C842 1.478 . S
C844 C846 1.381 . S
C844 C850 1.383 . S
C845 C841 1.495 . S
C845 H851 0.959 . S
C845 H852 0.961 . S
C845 H853 0.960 . S
C846 C844 1.381 . S
C846 C847 1.394 . S
C846 H854 0.930 . S
C847 C846 1.394 . S
C847 C848 1.383 . S
C847 H855 0.929 . S
C848 C847 1.383 . S
C848 C849 1.377 . S
C849 H833 0.930 . S
C849 C848 1.377 . S
C849 C850 1.379 . S
C850 H834 0.931 . S
C850 C844 1.383 . S
C850 C849 1.379 . S
H851 C845 0.959 . S
H852 C845 0.961 . S
H853 C845 0.960 . S
H854 C846 0.930 . S
H855 C847 0.929 . S
H856 C864 0.929 . S
H857 C866 0.930 . S
H858 C868 0.930 . S
H859 C871 0.929 . S
H860 C874 0.930 . S
H861 C876 0.960 . S
H862 C876 0.960 . S
H863 C876 0.960 . S
C864 H856 0.929 . S
C864 C865 1.377 . S
C864 C866 1.384 1_554 S
C865 C864 1.377 . S
C865 C871 1.390 . S
C866 H857 0.930 . S
C866 C864 1.384 1_556 S
C866 C867 1.372 . S
C867 C866 1.372 . S
C867 C868 1.400 1_556 S
C867 C872 1.490 . S
C868 H858 0.930 . S
C868 C867 1.400 1_554 S
C868 C871 1.386 . S
H869 C885 0.930 . S
H870 C886 0.931 . S
C871 H859 0.929 . S
C871 C865 1.390 . S
C871 C868 1.386 . S
C872 C867 1.490 . S
C872 C874 1.395 . S
C872 C875 1.403 . S
H873 C879 0.930 . S
C874 H860 0.930 . S
C874 C872 1.395 . S
C874 C877 1.403 . S
C875 C872 1.403 . S
C875 C876 1.524 . S
C875 C879 1.400 . S
C876 H861 0.960 . S
C876 H862 0.960 . S
C876 H863 0.960 . S
C876 C875 1.524 . S
C877 C874 1.403 . S
C877 C878 1.392 . S
C877 C881 1.495 . S
C878 C877 1.392 . S
C878 C879 1.385 . S
C878 C880 1.478 . S
C879 H873 0.930 . S
C879 C875 1.400 . S
C879 C878 1.385 . S
C880 C878 1.478 . S
C880 C882 1.381 . S
C880 C886 1.383 . S
C881 C877 1.495 . S
C881 H887 0.959 . S
C881 H888 0.961 . S
C881 H889 0.960 . S
C882 C880 1.381 . S
C882 C883 1.394 . S
C882 H890 0.930 . S
C883 C882 1.394 . S
C883 C884 1.383 . S
C883 H891 0.929 . S
C884 C883 1.383 . S
C884 C885 1.377 . S
C885 H869 0.930 . S
C885 C884 1.377 . S
C885 C886 1.379 . S
C886 H870 0.931 . S
C886 C880 1.383 . S
C886 C885 1.379 . S
H887 C881 0.959 . S
H888 C881 0.961 . S
H889 C881 0.960 . S
H890 C882 0.930 . S
H891 C883 0.929 . S
H892 C900 0.929 . S
H893 C902 0.930 . S
H894 C904 0.930 . S
H895 C907 0.929 . S
H896 C910 0.930 . S
H897 C912 0.960 . S
H898 C912 0.960 . S
H899 C912 0.960 . S
C900 H892 0.929 . S
C900 C901 1.377 . S
C900 C902 1.384 . S
C901 C900 1.377 . S
C901 C907 1.390 . S
C902 H893 0.930 . S
C902 C900 1.384 . S
C902 C903 1.372 . S
C903 C902 1.372 . S
C903 C904 1.400 . S
C903 C908 1.490 . S
C904 H894 0.930 . S
C904 C903 1.400 . S
C904 C907 1.386 . S
H905 C921 0.930 . S
H906 C922 0.931 . S
C907 H895 0.929 . S
C907 C901 1.390 . S
C907 C904 1.386 . S
C908 C903 1.490 . S
C908 C910 1.395 . S
C908 C911 1.403 . S
H909 C915 0.930 . S
C910 H896 0.930 . S
C910 C908 1.395 . S
C910 C913 1.403 . S
C911 C908 1.403 . S
C911 C912 1.524 . S
C911 C915 1.400 . S
C912 H897 0.960 . S
C912 H898 0.960 . S
C912 H899 0.960 . S
C912 C911 1.524 . S
C913 C910 1.403 . S
C913 C914 1.392 . S
C913 C917 1.495 . S
C914 C913 1.392 . S
C914 C915 1.385 . S
C914 C916 1.478 . S
C915 H909 0.930 . S
C915 C911 1.400 . S
C915 C914 1.385 . S
C916 C914 1.478 . S
C916 C918 1.381 . S
C916 C922 1.383 . S
C917 C913 1.495 . S
C917 H923 0.959 . S
C917 H924 0.961 . S
C917 H925 0.960 . S
C918 C916 1.381 . S
C918 C919 1.394 . S
C918 H926 0.930 . S
C919 C918 1.394 . S
C919 C920 1.383 . S
C919 H927 0.929 . S
C920 C919 1.383 . S
C920 C921 1.377 . S
C921 H905 0.930 . S
C921 C920 1.377 . S
C921 C922 1.379 . S
C922 H906 0.931 . S
C922 C916 1.383 . S
C922 C921 1.379 . S
H923 C917 0.959 . S
H924 C917 0.961 . S
H925 C917 0.960 . S
H926 C918 0.930 . S
H927 C919 0.929 . S
H928 C936 0.929 . S
H929 C938 0.930 . S
H930 C940 0.930 . S
H931 C943 0.929 . S
H932 C946 0.930 . S
H933 C948 0.960 . S
H934 C948 0.960 . S
H935 C948 0.960 . S
C936 H928 0.929 . S
C936 C937 1.377 . S
C936 C938 1.384 1_556 S
C937 C936 1.377 . S
C937 C943 1.390 . S
C938 H929 0.930 . S
C938 C936 1.384 1_554 S
C938 C939 1.372 . S
C939 C938 1.372 . S
C939 C940 1.400 1_554 S
C939 C944 1.490 . S
C940 H930 0.930 . S
C940 C939 1.400 1_556 S
C940 C943 1.386 . S
H941 C957 0.930 . S
H942 C958 0.931 . S
C943 H931 0.929 . S
C943 C937 1.390 . S
C943 C940 1.386 . S
C944 C939 1.490 . S
C944 C946 1.395 . S
C944 C947 1.403 . S
H945 C951 0.930 . S
C946 H932 0.930 . S
C946 C944 1.395 . S
C946 C949 1.403 . S
C947 C944 1.403 . S
C947 C948 1.524 . S
C947 C951 1.400 . S
C948 H933 0.960 . S
C948 H934 0.960 . S
C948 H935 0.960 . S
C948 C947 1.524 . S
C949 C946 1.403 . S
C949 C950 1.392 . S
C949 C953 1.495 . S
C950 C949 1.392 . S
C950 C951 1.385 . S
C950 C952 1.478 . S
C951 H945 0.930 . S
C951 C947 1.400 . S
C951 C950 1.385 . S
C952 C950 1.478 . S
C952 C954 1.381 . S
C952 C958 1.383 . S
C953 C949 1.495 . S
C953 H959 0.959 . S
C953 H960 0.961 . S
C953 H961 0.960 . S
C954 C952 1.381 . S
C954 C955 1.394 . S
C954 H962 0.930 . S
C955 C954 1.394 . S
C955 C956 1.383 . S
C955 H963 0.929 . S
C956 C955 1.383 . S
C956 C957 1.377 . S
C957 H941 0.930 . S
C957 C956 1.377 . S
C957 C958 1.379 . S
C958 H942 0.931 . S
C958 C952 1.383 . S
C958 C957 1.379 . S
H959 C953 0.959 . S
H960 C953 0.961 . S
H961 C953 0.960 . S
H962 C954 0.930 . S
H963 C955 0.929 . S
H964 C972 0.929 . S
H965 C974 0.930 . S
H966 C976 0.930 . S
H967 C979 0.929 . S
H968 C982 0.930 . S
H969 C984 0.960 . S
H970 C984 0.960 . S
H971 C984 0.960 . S
C972 H964 0.929 . S
C972 C973 1.377 . S
C972 C974 1.384 . S
C973 C972 1.377 . S
C973 C979 1.390 . S
C974 H965 0.930 . S
C974 C972 1.384 . S
C974 C975 1.372 . S
C975 C974 1.372 . S
C975 C976 1.400 . S
C975 C980 1.490 . S
C976 H966 0.930 . S
C976 C975 1.400 . S
C976 C979 1.386 . S
H977 C993 0.930 . S
H978 C994 0.931 . S
C979 H967 0.929 . S
C979 C973 1.390 . S
C979 C976 1.386 . S
C980 C975 1.490 . S
C980 C982 1.395 . S
C980 C983 1.403 . S
H981 C987 0.930 . S
C982 H968 0.930 . S
C982 C980 1.395 . S
C982 C985 1.403 . S
C983 C980 1.403 . S
C983 C984 1.524 . S
C983 C987 1.400 . S
C984 H969 0.960 . S
C984 H970 0.960 . S
C984 H971 0.960 . S
C984 C983 1.524 . S
C985 C982 1.403 . S
C985 C986 1.392 . S
C985 C989 1.495 . S
C986 C985 1.392 . S
C986 C987 1.385 . S
C986 C988 1.478 . S
C987 H981 0.930 . S
C987 C983 1.400 . S
C987 C986 1.385 . S
C988 C986 1.478 . S
C988 C990 1.381 . S
C988 C994 1.383 . S
C989 C985 1.495 . S
C989 H995 0.959 . S
C989 H996 0.961 . S
C989 H997 0.960 . S
C990 C988 1.381 . S
C990 C991 1.394 . S
C990 H998 0.930 . S
C991 C990 1.394 . S
C991 C992 1.383 . S
C991 H999 0.929 . S
C992 C991 1.383 . S
C992 C993 1.377 . S
C993 H977 0.930 . S
C993 C992 1.377 . S
C993 C994 1.379 . S
C994 H978 0.931 . S
C994 C988 1.383 . S
C994 C993 1.379 . S
H995 C989 0.959 . S
H996 C989 0.961 . S
H997 C989 0.960 . S
H998 C990 0.930 . S
H999 C991 0.929 . S
H1000 C1008 0.929 . S
H1001 C1010 0.930 . S
H1002 C1012 0.930 . S
H1003 C1015 0.929 . S
H1004 C1018 0.930 . S
H1005 C1020 0.960 . S
H1006 C1020 0.960 . S
H1007 C1020 0.960 . S
C1008 H1000 0.929 . S
C1008 C1009 1.377 . S
C1008 C1010 1.384 . S
C1009 C1008 1.377 . S
C1009 C1015 1.390 . S
C1010 H1001 0.930 . S
C1010 C1008 1.384 . S
C1010 C1011 1.372 . S
C1011 C1010 1.372 . S
C1011 C1012 1.400 . S
C1011 C1016 1.490 . S
C1012 H1002 0.930 . S
C1012 C1011 1.400 . S
C1012 C1015 1.386 . S
H1013 C1029 0.930 . S
H1014 C1030 0.931 . S
C1015 H1003 0.929 . S
C1015 C1009 1.390 . S
C1015 C1012 1.386 . S
C1016 C1011 1.490 . S
C1016 C1018 1.395 . S
C1016 C1019 1.403 . S
H1017 C1023 0.930 . S
C1018 H1004 0.930 . S
C1018 C1016 1.395 . S
C1018 C1021 1.403 . S
C1019 C1016 1.403 . S
C1019 C1020 1.524 . S
C1019 C1023 1.400 . S
C1020 H1005 0.960 . S
C1020 H1006 0.960 . S
C1020 H1007 0.960 . S
C1020 C1019 1.524 . S
C1021 C1018 1.403 . S
C1021 C1022 1.392 . S
C1021 C1025 1.495 . S
C1022 C1021 1.392 . S
C1022 C1023 1.385 . S
C1022 C1024 1.478 . S
C1023 H1017 0.930 . S
C1023 C1019 1.400 . S
C1023 C1022 1.385 . S
C1024 C1022 1.478 . S
C1024 C1026 1.381 . S
C1024 C1030 1.383 . S
C1025 C1021 1.495 . S
C1025 H1031 0.959 . S
C1025 H1032 0.961 . S
C1025 H1033 0.960 . S
C1026 C1024 1.381 . S
C1026 C1027 1.394 . S
C1026 H1034 0.930 . S
C1027 C1026 1.394 . S
C1027 C1028 1.383 . S
C1027 H1035 0.929 . S
C1028 C1027 1.383 . S
C1028 C1029 1.377 . S
C1029 H1013 0.930 . S
C1029 C1028 1.377 . S
C1029 C1030 1.379 . S
C1030 H1014 0.931 . S
C1030 C1024 1.383 . S
C1030 C1029 1.379 . S
H1031 C1025 0.959 . S
H1032 C1025 0.961 . S
H1033 C1025 0.960 . S
H1034 C1026 0.930 . S
H1035 C1027 0.929 . S
H1036 C1044 0.929 . S
H1037 C1046 0.930 . S
H1038 C1048 0.930 . S
H1039 C1051 0.929 . S
H1040 C1054 0.930 . S
H1041 C1056 0.960 . S
H1042 C1056 0.960 . S
H1043 C1056 0.960 . S
C1044 H1036 0.929 . S
C1044 C1045 1.377 . S
C1044 C1046 1.384 . S
C1045 C1044 1.377 . S
C1045 C1051 1.390 . S
C1046 H1037 0.930 . S
C1046 C1044 1.384 . S
C1046 C1047 1.372 . S
C1047 C1046 1.372 . S
C1047 C1048 1.400 . S
C1047 C1052 1.490 . S
C1048 H1038 0.930 . S
C1048 C1047 1.400 . S
C1048 C1051 1.386 . S
H1049 C1065 0.930 . S
H1050 C1066 0.931 . S
C1051 H1039 0.929 . S
C1051 C1045 1.390 . S
C1051 C1048 1.386 . S
C1052 C1047 1.490 . S
C1052 C1054 1.395 . S
C1052 C1055 1.403 . S
H1053 C1059 0.930 . S
C1054 H1040 0.930 . S
C1054 C1052 1.395 . S
C1054 C1057 1.403 . S
C1055 C1052 1.403 . S
C1055 C1056 1.524 . S
C1055 C1059 1.400 . S
C1056 H1041 0.960 . S
C1056 H1042 0.960 . S
C1056 H1043 0.960 . S
C1056 C1055 1.524 . S
C1057 C1054 1.403 . S
C1057 C1058 1.392 . S
C1057 C1061 1.495 . S
C1058 C1057 1.392 . S
C1058 C1059 1.385 . S
C1058 C1060 1.478 . S
C1059 H1053 0.930 . S
C1059 C1055 1.400 . S
C1059 C1058 1.385 . S
C1060 C1058 1.478 . S
C1060 C1062 1.381 . S
C1060 C1066 1.383 . S
C1061 C1057 1.495 . S
C1061 H1067 0.959 . S
C1061 H1068 0.961 . S
C1061 H1069 0.960 . S
C1062 C1060 1.381 . S
C1062 C1063 1.394 . S
C1062 H1070 0.930 . S
C1063 C1062 1.394 . S
C1063 C1064 1.383 . S
C1063 H1071 0.929 . S
C1064 C1063 1.383 . S
C1064 C1065 1.377 . S
C1065 H1049 0.930 . S
C1065 C1064 1.377 . S
C1065 C1066 1.379 . S
C1066 H1050 0.931 . S
C1066 C1060 1.383 . S
C1066 C1065 1.379 . S
H1067 C1061 0.959 . S
H1068 C1061 0.961 . S
H1069 C1061 0.960 . S
H1070 C1062 0.930 . S
H1071 C1063 0.929 . S
H1072 C1080 0.929 . S
H1073 C1082 0.930 . S
H1074 C1084 0.930 . S
H1075 C1087 0.929 . S
H1076 C1090 0.930 . S
H1077 C1092 0.960 . S
H1078 C1092 0.960 . S
H1079 C1092 0.960 . S
C1080 H1072 0.929 . S
C1080 C1081 1.377 . S
C1080 C1082 1.384 . S
C1081 C1080 1.377 . S
C1081 C1087 1.390 . S
C1082 H1073 0.930 . S
C1082 C1080 1.384 . S
C1082 C1083 1.372 . S
C1083 C1082 1.372 . S
C1083 C1084 1.400 . S
C1083 C1088 1.490 . S
C1084 H1074 0.930 . S
C1084 C1083 1.400 . S
C1084 C1087 1.386 . S
H1085 C1101 0.930 . S
H1086 C1102 0.931 . S
C1087 H1075 0.929 . S
C1087 C1081 1.390 . S
C1087 C1084 1.386 . S
C1088 C1083 1.490 . S
C1088 C1090 1.395 . S
C1088 C1091 1.403 . S
H1089 C1095 0.930 . S
C1090 H1076 0.930 . S
C1090 C1088 1.395 . S
C1090 C1093 1.403 . S
C1091 C1088 1.403 . S
C1091 C1092 1.524 . S
C1091 C1095 1.400 . S
C1092 H1077 0.960 . S
C1092 H1078 0.960 . S
C1092 H1079 0.960 . S
C1092 C1091 1.524 . S
C1093 C1090 1.403 . S
C1093 C1094 1.392 . S
C1093 C1097 1.495 . S
C1094 C1093 1.392 . S
C1094 C1095 1.385 . S
C1094 C1096 1.478 . S
C1095 H1089 0.930 . S
C1095 C1091 1.400 . S
C1095 C1094 1.385 . S
C1096 C1094 1.478 . S
C1096 C1098 1.381 . S
C1096 C1102 1.383 . S
C1097 C1093 1.495 . S
C1097 H1103 0.959 . S
C1097 H1104 0.961 . S
C1097 H1105 0.960 . S
C1098 C1096 1.381 . S
C1098 C1099 1.394 . S
C1098 H1106 0.930 . S
C1099 C1098 1.394 . S
C1099 C1100 1.383 . S
C1099 H1107 0.929 . S
C1100 C1099 1.383 . S
C1100 C1101 1.377 . S
C1101 H1085 0.930 . S
C1101 C1100 1.377 . S
C1101 C1102 1.379 . S
C1102 H1086 0.931 . S
C1102 C1096 1.383 . S
C1102 C1101 1.379 . S
H1103 C1097 0.959 . S
H1104 C1097 0.961 . S
H1105 C1097 0.960 . S
H1106 C1098 0.930 . S
H1107 C1099 0.929 . S
H1108 C1116 0.929 . S
H1109 C1118 0.930 . S
H1110 C1120 0.930 . S
H1111 C1123 0.929 . S
H1112 C1126 0.930 . S
H1113 C1128 0.960 . S
H1114 C1128 0.960 . S
H1115 C1128 0.960 . S
C1116 H1108 0.929 . S
C1116 C1117 1.377 . S
C1116 C1118 1.384 . S
C1117 C1116 1.377 . S
C1117 C1123 1.390 . S
C1118 H1109 0.930 . S
C1118 C1116 1.384 . S
C1118 C1119 1.372 . S
C1119 C1118 1.372 . S
C1119 C1120 1.400 . S
C1119 C1124 1.490 . S
C1120 H1110 0.930 . S
C1120 C1119 1.400 . S
C1120 C1123 1.386 . S
H1121 C1137 0.930 . S
H1122 C1138 0.931 . S
C1123 H1111 0.929 . S
C1123 C1117 1.390 . S
C1123 C1120 1.386 . S
C1124 C1119 1.490 . S
C1124 C1126 1.395 . S
C1124 C1127 1.403 . S
H1125 C1131 0.930 . S
C1126 H1112 0.930 . S
C1126 C1124 1.395 . S
C1126 C1129 1.403 . S
C1127 C1124 1.403 . S
C1127 C1128 1.524 . S
C1127 C1131 1.400 . S
C1128 H1113 0.960 . S
C1128 H1114 0.960 . S
C1128 H1115 0.960 . S
C1128 C1127 1.524 . S
C1129 C1126 1.403 . S
C1129 C1130 1.392 . S
C1129 C1133 1.495 . S
C1130 C1129 1.392 . S
C1130 C1131 1.385 . S
C1130 C1132 1.478 . S
C1131 H1125 0.930 . S
C1131 C1127 1.400 . S
C1131 C1130 1.385 . S
C1132 C1130 1.478 . S
C1132 C1134 1.381 . S
C1132 C1138 1.383 . S
C1133 C1129 1.495 . S
C1133 H1139 0.959 . S
C1133 H1140 0.961 . S
C1133 H1141 0.960 1_655 S
C1134 C1132 1.381 . S
C1134 C1135 1.394 . S
C1134 H1142 0.930 . S
C1135 C1134 1.394 . S
C1135 C1136 1.383 . S
C1135 H1143 0.929 1_655 S
C1136 C1135 1.383 . S
C1136 C1137 1.377 . S
C1137 H1121 0.930 . S
C1137 C1136 1.377 . S
C1137 C1138 1.379 . S
C1138 H1122 0.931 . S
C1138 C1132 1.383 . S
C1138 C1137 1.379 . S
H1139 C1133 0.959 . S
H1140 C1133 0.961 . S
H1141 C1133 0.960 1_455 S
H1142 C1134 0.930 . S
H1143 C1135 0.929 1_455 S
H1144 C1152 0.929 . S
H1145 C1154 0.930 . S
H1146 C1156 0.930 . S
H1147 C1159 0.929 . S
H1148 C1162 0.930 . S
H1149 C1164 0.960 . S
H1150 C1164 0.960 . S
H1151 C1164 0.960 . S
C1152 H1144 0.929 . S
C1152 C1153 1.377 . S
C1152 C1154 1.384 . S
C1153 C1152 1.377 . S
C1153 C1159 1.390 . S
C1154 H1145 0.930 . S
C1154 C1152 1.384 . S
C1154 C1155 1.372 . S
C1155 C1154 1.372 . S
C1155 C1156 1.400 . S
C1155 C1160 1.490 . S
C1156 H1146 0.930 . S
C1156 C1155 1.400 . S
C1156 C1159 1.386 . S
H1157 C1173 0.930 . S
H1158 C1174 0.931 . S
C1159 H1147 0.929 . S
C1159 C1153 1.390 . S
C1159 C1156 1.386 . S
C1160 C1155 1.490 . S
C1160 C1162 1.395 . S
C1160 C1163 1.403 . S
H1161 C1167 0.930 . S
C1162 H1148 0.930 . S
C1162 C1160 1.395 . S
C1162 C1165 1.403 . S
C1163 C1160 1.403 . S
C1163 C1164 1.524 . S
C1163 C1167 1.400 . S
C1164 H1149 0.960 . S
C1164 H1150 0.960 . S
C1164 H1151 0.960 . S
C1164 C1163 1.524 . S
C1165 C1162 1.403 . S
C1165 C1166 1.392 . S
C1165 C1169 1.495 . S
C1166 C1165 1.392 . S
C1166 C1167 1.385 . S
C1166 C1168 1.478 . S
C1167 H1161 0.930 . S
C1167 C1163 1.400 . S
C1167 C1166 1.385 . S
C1168 C1166 1.478 . S
C1168 C1170 1.381 . S
C1168 C1174 1.383 . S
C1169 C1165 1.495 . S
C1169 H1175 0.959 . S
C1169 H1176 0.961 . S
C1169 H1177 0.960 . S
C1170 C1168 1.381 . S
C1170 C1171 1.394 . S
C1170 H1178 0.930 . S
C1171 C1170 1.394 . S
C1171 C1172 1.383 . S
C1171 H1179 0.929 . S
C1172 C1171 1.383 . S
C1172 C1173 1.377 . S
C1173 H1157 0.930 . S
C1173 C1172 1.377 . S
C1173 C1174 1.379 . S
C1174 H1158 0.931 . S
C1174 C1168 1.383 . S
C1174 C1173 1.379 . S
H1175 C1169 0.959 . S
H1176 C1169 0.961 . S
H1177 C1169 0.960 . S
H1178 C1170 0.930 . S
H1179 C1171 0.929 . S
H1180 C1188 0.929 . S
H1181 C1190 0.930 . S
H1182 C1192 0.930 . S
H1183 C1195 0.929 . S
H1184 C1198 0.930 . S
H1185 C1200 0.960 . S
H1186 C1200 0.960 . S
H1187 C1200 0.960 . S
C1188 H1180 0.929 . S
C1188 C1189 1.377 . S
C1188 C1190 1.384 . S
C1189 C1188 1.377 . S
C1189 C1195 1.390 . S
C1190 H1181 0.930 . S
C1190 C1188 1.384 . S
C1190 C1191 1.372 . S
C1191 C1190 1.372 . S
C1191 C1192 1.400 . S
C1191 C1196 1.490 . S
C1192 H1182 0.930 . S
C1192 C1191 1.400 . S
C1192 C1195 1.386 . S
H1193 C1209 0.930 . S
H1194 C1210 0.931 . S
C1195 H1183 0.929 . S
C1195 C1189 1.390 . S
C1195 C1192 1.386 . S
C1196 C1191 1.490 . S
C1196 C1198 1.395 . S
C1196 C1199 1.403 . S
H1197 C1203 0.930 . S
C1198 H1184 0.930 . S
C1198 C1196 1.395 . S
C1198 C1201 1.403 . S
C1199 C1196 1.403 . S
C1199 C1200 1.524 . S
C1199 C1203 1.400 . S
C1200 H1185 0.960 . S
C1200 H1186 0.960 . S
C1200 H1187 0.960 . S
C1200 C1199 1.524 . S
C1201 C1198 1.403 . S
C1201 C1202 1.392 . S
C1201 C1205 1.495 . S
C1202 C1201 1.392 . S
C1202 C1203 1.385 . S
C1202 C1204 1.478 . S
C1203 H1197 0.930 . S
C1203 C1199 1.400 . S
C1203 C1202 1.385 . S
C1204 C1202 1.478 . S
C1204 C1206 1.381 . S
C1204 C1210 1.383 . S
C1205 C1201 1.495 . S
C1205 H1211 0.959 . S
C1205 H1212 0.961 . S
C1205 H1213 0.960 . S
C1206 C1204 1.381 . S
C1206 C1207 1.394 . S
C1206 H1214 0.930 . S
C1207 C1206 1.394 . S
C1207 C1208 1.383 . S
C1207 H1215 0.929 . S
C1208 C1207 1.383 . S
C1208 C1209 1.377 . S
C1209 H1193 0.930 . S
C1209 C1208 1.377 . S
C1209 C1210 1.379 . S
C1210 H1194 0.931 . S
C1210 C1204 1.383 . S
C1210 C1209 1.379 . S
H1211 C1205 0.959 . S
H1212 C1205 0.961 . S
H1213 C1205 0.960 . S
H1214 C1206 0.930 . S
H1215 C1207 0.929 . S
H1216 C1224 0.929 . S
H1217 C1226 0.930 . S
H1218 C1228 0.930 . S
H1219 C1231 0.929 . S
H1220 C1234 0.930 . S
H1221 C1236 0.960 . S
H1222 C1236 0.960 . S
H1223 C1236 0.960 . S
C1224 H1216 0.929 . S
C1224 C1225 1.377 . S
C1224 C1226 1.384 . S
C1225 C1224 1.377 . S
C1225 C1231 1.390 . S
C1226 H1217 0.930 . S
C1226 C1224 1.384 . S
C1226 C1227 1.372 . S
C1227 C1226 1.372 . S
C1227 C1228 1.400 . S
C1227 C1232 1.490 . S
C1228 H1218 0.930 . S
C1228 C1227 1.400 . S
C1228 C1231 1.386 . S
H1229 C1245 0.930 . S
H1230 C1246 0.931 . S
C1231 H1219 0.929 . S
C1231 C1225 1.390 . S
C1231 C1228 1.386 . S
C1232 C1227 1.490 . S
C1232 C1234 1.395 . S
C1232 C1235 1.403 . S
H1233 C1239 0.930 . S
C1234 H1220 0.930 . S
C1234 C1232 1.395 . S
C1234 C1237 1.403 . S
C1235 C1232 1.403 . S
C1235 C1236 1.524 . S
C1235 C1239 1.400 . S
C1236 H1221 0.960 . S
C1236 H1222 0.960 . S
C1236 H1223 0.960 . S
C1236 C1235 1.524 . S
C1237 C1234 1.403 . S
C1237 C1238 1.392 . S
C1237 C1241 1.495 . S
C1238 C1237 1.392 . S
C1238 C1239 1.385 . S
C1238 C1240 1.478 . S
C1239 H1233 0.930 . S
C1239 C1235 1.400 . S
C1239 C1238 1.385 . S
C1240 C1238 1.478 . S
C1240 C1242 1.381 . S
C1240 C1246 1.383 . S
C1241 C1237 1.495 . S
C1241 H1247 0.959 . S
C1241 H1248 0.961 . S
C1241 H1249 0.960 . S
C1242 C1240 1.381 . S
C1242 C1243 1.394 . S
C1242 H1250 0.930 . S
C1243 C1242 1.394 . S
C1243 C1244 1.383 . S
C1243 H1251 0.929 . S
C1244 C1243 1.383 . S
C1244 C1245 1.377 . S
C1245 H1229 0.930 . S
C1245 C1244 1.377 . S
C1245 C1246 1.379 . S
C1246 H1230 0.931 . S
C1246 C1240 1.383 . S
C1246 C1245 1.379 . S
H1247 C1241 0.959 . S
H1248 C1241 0.961 . S
H1249 C1241 0.960 . S
H1250 C1242 0.930 . S
H1251 C1243 0.929 . S
H1252 C1260 0.929 . S
H1253 C1262 0.930 . S
H1254 C1264 0.930 . S
H1255 C1267 0.929 . S
H1256 C1270 0.930 . S
H1257 C1272 0.960 . S
H1258 C1272 0.960 . S
H1259 C1272 0.960 . S
C1260 H1252 0.929 . S
C1260 C1261 1.377 . S
C1260 C1262 1.384 . S
C1261 C1260 1.377 . S
C1261 C1267 1.390 . S
C1262 H1253 0.930 . S
C1262 C1260 1.384 . S
C1262 C1263 1.372 . S
C1263 C1262 1.372 . S
C1263 C1264 1.400 . S
C1263 C1268 1.490 . S
C1264 H1254 0.930 . S
C1264 C1263 1.400 . S
C1264 C1267 1.386 . S
H1265 C1281 0.930 . S
H1266 C1282 0.931 . S
C1267 H1255 0.929 . S
C1267 C1261 1.390 . S
C1267 C1264 1.386 . S
C1268 C1263 1.490 . S
C1268 C1270 1.395 . S
C1268 C1271 1.403 . S
H1269 C1275 0.930 . S
C1270 H1256 0.930 . S
C1270 C1268 1.395 . S
C1270 C1273 1.403 . S
C1271 C1268 1.403 . S
C1271 C1272 1.524 . S
C1271 C1275 1.400 . S
C1272 H1257 0.960 . S
C1272 H1258 0.960 . S
C1272 H1259 0.960 . S
C1272 C1271 1.524 . S
C1273 C1270 1.403 . S
C1273 C1274 1.392 . S
C1273 C1277 1.495 . S
C1274 C1273 1.392 . S
C1274 C1275 1.385 . S
C1274 C1276 1.478 . S
C1275 H1269 0.930 . S
C1275 C1271 1.400 . S
C1275 C1274 1.385 . S
C1276 C1274 1.478 . S
C1276 C1278 1.381 . S
C1276 C1282 1.383 . S
C1277 C1273 1.495 . S
C1277 H1283 0.959 . S
C1277 H1284 0.961 . S
C1277 H1285 0.960 . S
C1278 C1276 1.381 . S
C1278 C1279 1.394 . S
C1278 H1286 0.930 . S
C1279 C1278 1.394 . S
C1279 C1280 1.383 . S
C1279 H1287 0.922 1_455 S
C1280 C1279 1.383 . S
C1280 C1281 1.377 . S
C1281 H1265 0.930 . S
C1281 C1280 1.377 . S
C1281 C1282 1.379 . S
C1282 H1266 0.931 . S
C1282 C1276 1.383 . S
C1282 C1281 1.379 . S
H1283 C1277 0.959 . S
H1284 C1277 0.961 . S
H1285 C1277 0.960 . S
H1286 C1278 0.930 . S
H1287 C1279 0.922 1_655 S
C433 C73 1.621 . S
C452 C162 1.638 . S
C488 C246 1.754 . S
C469 C84 1.759 . S
C524 C239 1.657 . S
C505 C51 1.604 . S
C541 C62 1.746 . S
C560 C155 1.787 . S
C596 C319 1.637 . S
C577 C29 1.603 . S
C632 C403 1.580 . S
C613 C38 1.450 . S
C649 C7 1.582 . S
C668 C396 1.651 . S
C685 C16 1.455 . S
C704 C312 1.585 . S
C740 C146 1.470 . S
C721 C18 1.667 . S
C776 C230 1.520 . S
C757 C5 1.454 . S
C812 C241 1.446 . S
C793 C40 1.676 . S
C848 C157 1.528 . S
C829 C27 1.478 . S
C884 C325 1.319 . S
C865 C60 1.351 . S
C901 C49 1.375 . S
C920 C409 1.338 . S
C956 C398 1.378 . S
C937 C82 1.358 . S
C973 C71 1.370 . S
C992 C314 1.390 . S
C1028 C144 1.693 . S
C1009 C8 1.678 . S
C1064 C228 1.564 . S
C1045 C19 1.566 . S
C1081 C30 1.676 . S
C1100 C235 1.687 . S
C1136 C151 1.535 . S
C1117 C41 1.556 . S
C1172 C323 1.421 . S
C1153 C52 1.417 . S
C1189 C63 1.573 . S
C1208 C407 1.563 . S
C1225 C74 1.411 . S
C1244 C414 1.363 . S
C1261 C85 1.562 . S
C1280 C330 1.549 . S
