# Generated by pormake.
# Topology bcu-b, (8,8)-cn, num edge types: 1
# Building blocks:
#     Node 0, Type 0, BuildingBlock: VETTIZ_charged_sbu_0, # of connection points: 8
#     Node 1, Type 1, BuildingBlock: VETTIZ_charged_sbu_0, # of connection points: 8
#     Edge 2, Type (0, 1), BuildingBlock: MIFKUJ_clean_linker_0, # of connection points: 2
#     Edge 3, Type (0, 1), BuildingBlock: MIFKUJ_clean_linker_0, # of connection points: 2
#     Edge 4, Type (0, 1), BuildingBlock: MIFKUJ_clean_linker_0, # of connection points: 2
#     Edge 5, Type (0, 1), BuildingBlock: MIFKUJ_clean_linker_0, # of connection points: 2
#     Edge 6, Type (0, 1), BuildingBlock: MIFKUJ_clean_linker_0, # of connection points: 2
#     Edge 7, Type (0, 1), BuildingBlock: MIFKUJ_clean_linker_0, # of connection points: 2
#     Edge 8, Type (0, 1), BuildingBlock: MIFKUJ_clean_linker_0, # of connection points: 2
#     Edge 9, Type (0, 1), BuildingBlock: MIFKUJ_clean_linker_0, # of connection points: 2
# Relax obj value: 0.000
# Max RMSD: 0.009
# Mean RMSD: 0.009
data_MOF--net-bcu-b--node1-VETTIZ_charged_sbu_0--node2-VETTIZ_charged_sbu_0--edge1-MIFKUJ_clean_linker_0
_symmetry_space_group_name_H-M    P1
_symmetry_Int_Tables_number       1
_symmetry_cell_setting            triclinic
loop_
_symmetry_equiv_pos_as_xyz
'x, y, z'
_cell_length_a     25.121652
_cell_length_b     23.92703
_cell_length_c     25.153555
_cell_angle_alpha  91.381251
_cell_angle_beta   88.97307
_cell_angle_gamma 88.365757
loop_
_atom_site_label
_atom_site_type_symbol
_atom_site_fract_x
_atom_site_fract_y
_atom_site_fract_z
_atom_type_partial_charge
Fe0 Fe 0.96039 0.91237 0.99838 0.0
O1 O 0.9675 0.99341 0.00543 0.0
Fe2 Fe 0.99628 0.03601 0.93919 0.0
Fe3 Fe 0.01025 1.03012 0.06197 0.0
O4 O 0.96599 0.99424 1.00002 0.0
O5 O 0.03834 0.07326 0.99591 0.0
O6 O 0.03979 0.07248 1.00121 0.0
Fe7 Fe 0.04517 0.15432 0.00275 0.0
C8 C 0.93174 0.94733 0.11258 0.0
O9 O 0.02257 0.89412 0.04752 0.0
O10 O 0.07103 0.97044 0.05386 0.0
O11 O 0.08996 0.14043 0.93406 0.0
O12 O 0.03597 0.08481 0.8829 0.0
O13 O 0.05694 0.97749 0.9284 0.0
O14 O 0.01161 0.89922 0.9332 0.0
O15 O 0.06063 0.07537 0.11305 0.0
O16 O 0.10287 0.13544 0.05668 0.0
C17 C 0.05219 0.92572 0.91777 0.0
O18 O 0.98295 0.17245 0.9533 0.0
O19 O 0.93539 0.0955 0.94618 0.0
O20 O 0.91613 0.92598 0.06762 0.0
O21 O 0.97171 0.98054 0.11812 0.0
C22 C 0.06547 0.91809 0.05932 0.0
C23 C 0.09855 0.10953 0.10121 0.0
C24 C 0.95365 0.1406 0.08372 0.0
O25 O 0.94949 0.08854 0.07408 0.0
O26 O 0.99377 0.16741 0.06763 0.0
C27 C 0.07599 0.11792 0.88902 0.0
O28 O 0.9464 0.99038 0.88794 0.0
O29 O 0.90268 0.9317 0.94468 0.0
C30 C 0.94034 0.14798 0.94129 0.0
C31 C 0.90777 0.9572 0.90001 0.0
Fe32 Fe 0.50369 0.65504 0.46069 0.0
O33 O 0.50172 0.57306 0.46445 0.0
Fe34 Fe 0.56508 0.53301 0.50403 0.0
Fe35 Fe 0.44122 0.53308 0.49755 0.0
O36 O 0.50716 0.57367 0.46588 0.0
O37 O 0.50454 0.49284 0.53711 0.0
O38 O 0.49911 0.49217 0.53557 0.0
Fe39 Fe 0.50199 0.41072 0.54063 0.0
C40 C 0.42807 0.64266 0.55741 0.0
O41 O 0.44376 0.64204 0.40795 0.0
O42 O 0.38826 0.58274 0.45249 0.0
O43 O 0.56115 0.39525 0.48314 0.0
O44 O 0.57101 0.47588 0.44188 0.0
O45 O 0.62064 0.58088 0.46245 0.0
O46 O 0.56859 0.63859 0.41076 0.0
O47 O 0.44269 0.4748 0.43548 0.0
O48 O 0.44529 0.39845 0.4842 0.0
C49 C 0.61397 0.61543 0.42353 0.0
O50 O 0.56284 0.42298 0.59288 0.0
O51 O 0.61779 0.48371 0.54925 0.0
O52 O 0.44389 0.67031 0.51768 0.0
O53 O 0.43548 0.59003 0.55976 0.0
C54 C 0.39803 0.61975 0.41649 0.0
C55 C 0.43186 0.42383 0.44253 0.0
C56 C 0.39235 0.45107 0.57831 0.0
O57 O 0.38574 0.48539 0.53922 0.0
O58 O 0.4376 0.42764 0.59117 0.0
C59 C 0.57777 0.42312 0.44388 0.0
O60 O 0.56376 0.59141 0.56618 0.0
O61 O 0.55902 0.66793 0.51788 0.0
C62 C 0.60807 0.44664 0.58516 0.0
C63 C 0.57209 0.64318 0.55998 0.0
H64 H 0.08794 0.10946 0.21059 0.0
H65 H 0.14661 0.15539 0.27429 0.0
H66 H 0.2548 0.19345 0.14581 0.0
H67 H 0.19815 0.14613 0.0831 0.0
H68 H 0.31006 0.17495 0.22868 0.0
H69 H 0.15175 0.28612 0.19243 0.0
H70 H 0.05486 0.30532 0.18937 0.0
H71 H 0.042 0.28712 0.35849 0.0
H72 H 0.13876 0.26692 0.36242 0.0
H73 H 0.43034 0.42101 0.33309 0.0
H74 H 0.37293 0.36317 0.27682 0.0
H75 H 0.29195 0.30585 0.41703 0.0
H76 H 0.34982 0.36135 0.47294 0.0
H77 H 0.22292 0.33195 0.33292 0.0
H78 H 0.38483 0.22569 0.36695 0.0
H79 H 0.48252 0.21217 0.36718 0.0
H80 H 0.48888 0.22707 0.19742 0.0
H81 H 0.39123 0.2417 0.19631 0.0
C82 C 0.12505 0.12613 0.19634 0.0
C83 C 0.1379 0.12507 0.14173 0.0
C84 C 0.15828 0.15292 0.23263 0.0
C85 C 0.20442 0.17936 0.21463 0.0
C86 C 0.21931 0.17395 0.16077 0.0
C87 C 0.18658 0.14704 0.12482 0.0
C88 C 0.23518 0.21666 0.25009 0.0
C89 C 0.29089 0.20941 0.25118 0.0
C90 C 0.21041 0.26164 0.27983 0.0
C91 C 0.15236 0.27436 0.27762 0.0
C92 C 0.12819 0.28586 0.22891 0.0
C93 C 0.07332 0.29694 0.22702 0.0
C94 C 0.04227 0.29727 0.27369 0.0
C95 C 0.06608 0.28671 0.32236 0.0
C96 C 0.12093 0.27544 0.32445 0.0
C97 C 0.39988 0.39644 0.35157 0.0
C98 C 0.39476 0.39506 0.40715 0.0
C99 C 0.3673 0.36345 0.31962 0.0
C100 C 0.32865 0.32983 0.34302 0.0
C101 C 0.32173 0.3311 0.39834 0.0
C102 C 0.3549 0.36275 0.43012 0.0
C103 C 0.29743 0.29048 0.31064 0.0
C104 C 0.24181 0.29732 0.31042 0.0
C105 C 0.32228 0.24563 0.28115 0.0
C106 C 0.3808 0.23534 0.28161 0.0
C107 C 0.4071 0.22644 0.32971 0.0
C108 C 0.46245 0.21856 0.33 0.0
C109 C 0.49191 0.21892 0.28237 0.0
C110 C 0.46602 0.2269 0.2343 0.0
C111 C 0.41066 0.23496 0.23381 0.0
H112 H 0.53478 0.21293 0.28268 0.0
H113 H 0.99979 0.30584 0.27214 0.0
H114 H 0.86481 0.09685 0.12992 0.0
H115 H 0.79753 0.14516 0.18672 0.0
H116 H 0.87926 0.29997 0.16933 0.0
H117 H 0.94732 0.25182 0.11316 0.0
H118 H 0.85223 0.287 0.26977 0.0
H119 H 0.76236 0.27363 0.10469 0.0
H120 H 0.72752 0.22729 0.02449 0.0
H121 H 0.62816 0.1266 0.12185 0.0
H122 H 0.66309 0.17171 0.20274 0.0
H123 H 0.64697 0.46913 0.37348 0.0
H124 H 0.70643 0.42042 0.30866 0.0
H125 H 0.64149 0.26264 0.35194 0.0
H126 H 0.5821 0.31101 0.4177 0.0
H127 H 0.65823 0.27721 0.23812 0.0
H128 H 0.75126 0.29185 0.40337 0.0
H129 H 0.7852 0.34201 0.48195 0.0
H130 H 0.87821 0.44497 0.38064 0.0
H131 H 0.84405 0.39604 0.30136 0.0
C132 C 0.86844 0.14126 0.13786 0.0
C133 C 0.9116 0.17039 0.11676 0.0
C134 C 0.8297 0.16891 0.17024 0.0
C135 C 0.83288 0.22642 0.18191 0.0
C136 C 0.87584 0.25562 0.16087 0.0
C137 C 0.9147 0.228 0.12858 0.0
C138 C 0.79237 0.25573 0.21737 0.0
C139 C 0.80989 0.28544 0.26229 0.0
C140 C 0.73692 0.2529 0.2084 0.0
C141 C 0.71583 0.22562 0.15983 0.0
C142 C 0.73346 0.24124 0.10905 0.0
C143 C 0.71363 0.21525 0.06345 0.0
C144 C 0.67577 0.1739 0.06808 0.0
C145 C 0.65757 0.15856 0.11833 0.0
C146 C 0.67736 0.18434 0.16407 0.0
C147 C 0.64478 0.42412 0.36889 0.0
C148 C 0.61001 0.3939 0.4011 0.0
C149 C 0.67894 0.39636 0.33188 0.0
C150 C 0.67867 0.33792 0.32586 0.0
C151 C 0.64238 0.30777 0.35613 0.0
C152 C 0.60867 0.33545 0.39381 0.0
C153 C 0.71833 0.30833 0.29002 0.0
C154 C 0.70063 0.27863 0.24527 0.0
C155 C 0.77365 0.31153 0.29878 0.0
C156 C 0.79462 0.34069 0.34641 0.0
C157 C 0.77856 0.32553 0.39782 0.0
C158 C 0.7979 0.35368 0.44249 0.0
C159 C 0.83373 0.39676 0.43628 0.0
C160 C 0.85039 0.41166 0.38538 0.0
C161 C 0.83106 0.38371 0.34057 0.0
H162 H 0.84867 0.41849 0.47092 0.0
H163 H 0.66044 0.15386 0.03273 0.0
H164 H 0.97448 0.92749 0.21003 0.0
H165 H 0.93303 0.87593 0.28251 0.0
H166 H 0.78734 0.86898 0.1946 0.0
H167 H 0.8282 0.92018 0.12274 0.0
H168 H 0.76838 0.88542 0.30177 0.0
H169 H 0.88058 0.76226 0.18238 0.0
H170 H 0.96758 0.73441 0.14121 0.0
H171 H 0.035 0.71842 0.29599 0.0
H172 H 0.94837 0.74615 0.33796 0.0
H173 H 0.61999 0.65528 0.32357 0.0
H174 H 0.68962 0.71296 0.28737 0.0
H175 H 0.78457 0.68439 0.42571 0.0
H176 H 0.71457 0.6261 0.4626 0.0
H177 H 0.8433 0.69247 0.31905 0.0
H178 H 0.72281 0.79362 0.43736 0.0
H179 H 0.63431 0.81879 0.47618 0.0
H180 H 0.58324 0.87895 0.32537 0.0
H181 H 0.67119 0.85319 0.28538 0.0
C182 C 0.93314 0.91632 0.20704 0.0
C183 C 0.90459 0.92736 0.16068 0.0
C184 C 0.90969 0.88657 0.24821 0.0
C185 C 0.85737 0.86805 0.24353 0.0
C186 C 0.82777 0.8828 0.19899 0.0
C187 C 0.85121 0.91189 0.15786 0.0
C188 C 0.8342 0.8288 0.28164 0.0
C189 C 0.78505 0.84348 0.30611 0.0
C190 C 0.85666 0.7745 0.28844 0.0
C191 C 0.90824 0.75657 0.26323 0.0
C192 C 0.91403 0.75282 0.20755 0.0
C193 C 0.96322 0.73699 0.18409 0.0
C194 C 0.00678 0.72448 0.21595 0.0
C195 C 1.00122 0.72779 0.27134 0.0
C196 C 0.95207 0.74348 0.29499 0.0
C197 C 0.65626 0.65993 0.34573 0.0
C198 C 0.66151 0.63684 0.39625 0.0
C199 C 0.69601 0.69288 0.32498 0.0
C200 C 0.74163 0.70364 0.3544 0.0
C201 C 0.74947 0.67655 0.40259 0.0
C202 C 0.70954 0.6432 0.42346 0.0
C203 C 0.77665 0.7487 0.3372 0.0
C204 C 0.82769 0.73505 0.31657 0.0
C205 C 0.75616 0.80422 0.33421 0.0
C206 C 0.70358 0.82124 0.35833 0.0
C207 C 0.69263 0.81194 0.41239 0.0
C208 C 0.64255 0.82631 0.43461 0.0
C209 C 0.60315 0.8504 0.40324 0.0
C210 C 0.61382 0.86031 0.34962 0.0
C211 C 0.66382 0.84591 0.32718 0.0
H212 H 0.56438 0.86145 0.42049 0.0
H213 H 0.04475 0.71211 0.19767 0.0
H214 H 0.14663 0.95501 0.12184 0.0
H215 H 0.20301 0.89828 0.17932 0.0
H216 H 0.13214 0.74837 0.11797 0.0
H217 H 0.07555 0.80452 0.06099 0.0
H218 H 0.13078 0.74951 0.22368 0.0
H219 H 0.26271 0.77828 0.08704 0.0
H220 H 0.31716 0.83324 0.02579 0.0
H221 H 0.38148 0.92323 0.15841 0.0
H222 H 0.32727 0.86914 0.22043 0.0
H223 H 0.32216 0.56687 0.35682 0.0
H224 H 0.26197 0.61234 0.29328 0.0
H225 H 0.31656 0.77392 0.34469 0.0
H226 H 0.37625 0.72909 0.40695 0.0
H227 H 0.32667 0.75969 0.23871 0.0
H228 H 0.1915 0.73474 0.37441 0.0
H229 H 0.13658 0.68121 0.43621 0.0
H230 H 0.07804 0.58399 0.30515 0.0
H231 H 0.13308 0.63663 0.24259 0.0
C232 C 0.14396 0.9099 0.11968 0.0
C233 C 0.10642 0.88438 0.08697 0.0
C234 C 0.17614 0.87747 0.15265 0.0
C235 C 0.17177 0.81897 0.15302 0.0
C236 C 0.136 0.79337 0.11865 0.0
C237 C 0.10382 0.82564 0.08591 0.0
C238 C 0.20208 0.78473 0.19136 0.0
C239 C 0.17374 0.75084 0.22624 0.0
C240 C 0.25798 0.78739 0.19559 0.0
C241 C 0.29059 0.81997 0.15834 0.0
C242 C 0.28817 0.81008 0.1031 0.0
C243 C 0.31904 0.84099 0.06826 0.0
C244 C 0.35255 0.8818 0.08819 0.0
C245 C 0.35545 0.89165 0.14302 0.0
C246 C 0.32477 0.8608 0.17804 0.0
C247 C 0.32005 0.61208 0.35525 0.0
C248 C 0.35396 0.64458 0.38624 0.0
C249 C 0.28596 0.63801 0.31893 0.0
C250 C 0.28533 0.69656 0.31381 0.0
C251 C 0.31686 0.72877 0.34737 0.0
C252 C 0.35078 0.7031 0.38307 0.0
C253 C 0.25529 0.72487 0.27131 0.0
C254 C 0.28374 0.75769 0.23561 0.0
C255 C 0.19957 0.72114 0.26633 0.0
C256 C 0.16695 0.68909 0.30392 0.0
C257 C 0.16735 0.70155 0.35883 0.0
C258 C 0.13608 0.67149 0.39398 0.0
C259 C 0.104 0.62907 0.37464 0.0
C260 C 0.10307 0.6167 0.32009 0.0
C261 C 0.13427 0.64666 0.28477 0.0
H262 H 0.07975 0.60591 0.40191 0.0
H263 H 0.37637 0.90569 0.06114 0.0
H264 H 0.05904 0.8145 0.88793 0.0
H265 H 0.12693 0.76727 0.83064 0.0
H266 H 0.20756 0.92274 0.81382 0.0
H267 H 0.13988 0.97044 0.87065 0.0
H268 H 0.19696 0.86692 0.7183 0.0
H269 H 0.25305 0.82444 0.89488 0.0
H270 H 0.23921 0.78895 0.98508 0.0
H271 H 0.21328 0.62474 0.91994 0.0
H272 H 0.22485 0.65966 0.82912 0.0
H273 H 0.42691 0.75394 0.58604 0.0
H274 H 0.36919 0.8025 0.65275 0.0
H275 H 0.29753 0.64621 0.69071 0.0
H276 H 0.35671 0.59725 0.62595 0.0
H277 H 0.30551 0.7044 0.77773 0.0
H278 H 0.23893 0.74423 0.60444 0.0
H279 H 0.24427 0.7767 0.51221 0.0
H280 H 0.28391 0.94069 0.56915 0.0
H281 H 0.2795 0.90896 0.66172 0.0
C282 C 0.09129 0.83868 0.87224 0.0
C283 C 0.09397 0.89631 0.88416 0.0
C284 C 0.13016 0.81155 0.83956 0.0
C285 C 0.17258 0.84139 0.81826 0.0
C286 C 0.17523 0.89888 0.82984 0.0
C287 C 0.13653 0.92602 0.86258 0.0
C288 C 0.21398 0.81291 0.78343 0.0
C289 C 0.22126 0.8319 0.73153 0.0
C290 C 0.24468 0.76626 0.80029 0.0
C291 C 0.23937 0.74484 0.85505 0.0
C292 C 0.24402 0.78084 0.8997 0.0
C293 C 0.23661 0.76083 0.95098 0.0
C294 C 0.22557 0.70462 0.95827 0.0
C295 C 0.22186 0.66829 0.91424 0.0
C296 C 0.22871 0.6882 0.86282 0.0
C297 C 0.39912 0.72992 0.60893 0.0
C298 C 0.39606 0.67184 0.60032 0.0
C299 C 0.36595 0.75774 0.64693 0.0
C300 C 0.32795 0.72831 0.67603 0.0
C301 C 0.32628 0.67 0.66879 0.0
C302 C 0.36013 0.64203 0.63159 0.0
C303 C 0.28848 0.75829 0.71233 0.0
C304 C 0.28147 0.7396 0.76452 0.0
C305 C 0.25731 0.80472 0.69553 0.0
C306 C 0.25939 0.82407 0.63995 0.0
C307 C 0.24908 0.78713 0.59726 0.0
C308 C 0.25192 0.8054 0.54493 0.0
C309 C 0.26455 0.86069 0.53482 0.0
C310 C 0.2742 0.89786 0.57704 0.0
C311 C 0.2715 0.87977 0.62944 0.0
H312 H 0.26676 0.87475 0.49429 0.0
H313 H 0.21987 0.68924 0.99803 0.0
H314 H 0.17676 0.15541 0.88538 0.0
H315 H 0.21653 0.21004 0.81568 0.0
H316 H 0.08338 0.17827 0.71484 0.0
H317 H 0.04217 0.12345 0.78551 0.0
H318 H 0.19378 0.18922 0.66148 0.0
H319 H 0.06491 0.28989 0.77216 0.0
H320 H 0.01939 0.31257 0.85802 0.0
H321 H 0.1658 0.37131 0.92152 0.0
H322 H 0.21232 0.34769 0.83631 0.0
H323 H 0.2949 0.43231 0.53607 0.0
H324 H 0.22399 0.37741 0.57579 0.0
H325 H 0.31241 0.36696 0.72082 0.0
H326 H 0.38345 0.42074 0.68124 0.0
H327 H 0.20085 0.38262 0.73709 0.0
H328 H 0.33003 0.26744 0.63024 0.0
H329 H 0.37631 0.24181 0.54543 0.0
H330 H 0.22616 0.21245 0.47235 0.0
H331 H 0.17894 0.23873 0.55666 0.0
C332 C 0.15623 0.15885 0.84803 0.0
C333 C 0.10548 0.13665 0.84155 0.0
C334 C 0.17922 0.18989 0.80812 0.0
C335 C 0.15201 0.1994 0.76094 0.0
C336 C 0.1044 0.17189 0.75151 0.0
C337 C 0.08104 0.14062 0.79181 0.0
C338 C 0.16987 0.24485 0.72668 0.0
C339 C 0.19402 0.23187 0.6771 0.0
C340 C 0.17005 0.30044 0.74722 0.0
C341 C 0.14207 0.31664 0.798 0.0
C342 C 0.08739 0.30725 0.80459 0.0
C343 C 0.06143 0.3203 0.85311 0.0
C344 C 0.08972 0.34331 0.89524 0.0
C345 C 0.14395 0.35348 0.88884 0.0
C346 C 0.17011 0.34031 0.84041 0.0
C347 C 0.29837 0.41967 0.57695 0.0
C348 C 0.34471 0.43038 0.6056 0.0
C349 C 0.25805 0.38808 0.59939 0.0
C350 C 0.26338 0.36774 0.65095 0.0
C351 C 0.30765 0.38228 0.68094 0.0
C352 C 0.34821 0.41291 0.65832 0.0
C353 C 0.22624 0.3268 0.67257 0.0
C354 C 0.19874 0.3406 0.72021 0.0
C355 C 0.22252 0.27233 0.64978 0.0
C356 C 0.25097 0.25554 0.59953 0.0
C357 C 0.30689 0.25581 0.596 0.0
C358 C 0.33328 0.24112 0.54806 0.0
C359 C 0.3042 0.22545 0.50356 0.0
C360 C 0.24863 0.2245 0.50689 0.0
C361 C 0.22204 0.2393 0.55473 0.0
H362 H 0.32471 0.21409 0.46648 0.0
H363 H 0.0696 0.35335 0.93282 0.0
H364 H 0.86559 0.11057 0.87185 0.0
H365 H 0.80927 0.16788 0.81468 0.0
H366 H 0.86556 0.31765 0.89106 0.0
H367 H 0.92223 0.26085 0.94801 0.0
H368 H 0.75427 0.3232 0.86599 0.0
H369 H 0.9247 0.28198 0.78353 0.0
H370 H 0.99962 0.22024 0.75394 0.0
H371 H 0.8967 0.12928 0.65084 0.0
H372 H 0.82046 0.1903 0.68071 0.0
H373 H 0.67118 0.5019 0.65615 0.0
H374 H 0.73151 0.45766 0.72023 0.0
H375 H 0.70109 0.29569 0.64976 0.0
H376 H 0.64145 0.3395 0.58652 0.0
H377 H 0.80418 0.30347 0.67443 0.0
H378 H 0.63267 0.34255 0.75923 0.0
H379 H 0.55692 0.40326 0.79042 0.0
H380 H 0.66125 0.49773 0.8891 0.0
H381 H 0.73781 0.43798 0.85786 0.0
C382 C 0.86497 0.15563 0.87741 0.0
C383 C 0.89868 0.18118 0.91417 0.0
C384 C 0.83297 0.18833 0.84456 0.0
C385 C 0.83373 0.24702 0.8483 0.0
C386 C 0.86442 0.27249 0.88751 0.0
C387 C 0.89691 0.23991 0.91987 0.0
C388 C 0.8067 0.28164 0.80806 0.0
C389 C 0.76553 0.31949 0.82419 0.0
C390 C 0.82124 0.27656 0.75354 0.0
C391 C 0.86685 0.24028 0.73476 0.0
C392 C 0.91792 0.24855 0.75484 0.0
C393 C 0.96068 0.21369 0.73794 0.0
C394 C 0.9531 0.17065 0.70056 0.0
C395 C 0.90255 0.16257 0.67986 0.0
C396 C 0.85951 0.19731 0.69675 0.0
C397 C 0.67873 0.4571 0.65375 0.0
C398 C 0.65208 0.42391 0.6166 0.0
C399 C 0.71262 0.43181 0.69053 0.0
C400 C 0.72023 0.37323 0.69018 0.0
C401 C 0.69585 0.34081 0.65089 0.0
C402 C 0.66185 0.36585 0.61477 0.0
C403 C 0.75091 0.34452 0.73203 0.0
C404 C 0.793 0.30767 0.71624 0.0
C405 C 0.73697 0.35049 0.78676 0.0
C406 C 0.69103 0.38628 0.80572 0.0
C407 C 0.63952 0.37657 0.78723 0.0
C408 C 0.59643 0.41074 0.80498 0.0
C409 C 0.6043 0.45445 0.84159 0.0
C410 C 0.65525 0.46395 0.86065 0.0
C411 C 0.6985 0.42994 0.84295 0.0
H412 H 0.57089 0.48085 0.8553 0.0
H413 H 0.98636 0.14365 0.68758 0.0
H414 H 0.80298 0.94165 0.91715 0.0
H415 H 0.74282 0.89248 0.85865 0.0
H416 H 0.86312 0.88735 0.73384 0.0
H417 H 0.92425 0.93617 0.79317 0.0
H418 H 0.69723 0.90397 0.76657 0.0
H419 H 0.86185 0.75675 0.67329 0.0
H420 H 0.95252 0.72226 0.69388 0.0
H421 H 0.91847 0.74609 0.86092 0.0
H422 H 0.8274 0.77982 0.84135 0.0
H423 H 0.59783 0.75225 0.55388 0.0
H424 H 0.65226 0.8064 0.61276 0.0
H425 H 0.67097 0.66515 0.71485 0.0
H426 H 0.61697 0.60878 0.65414 0.0
H427 H 0.76467 0.71767 0.7 0.0
H428 H 0.58741 0.77347 0.75135 0.0
H429 H 0.49439 0.804 0.73652 0.0
H430 H 0.54804 0.95562 0.66813 0.0
H431 H 0.64145 0.92558 0.68167 0.0
C432 C 0.81616 0.93131 0.87675 0.0
C433 C 0.86836 0.94224 0.85973 0.0
C434 C 0.78171 0.9032 0.84334 0.0
C435 C 0.79883 0.88511 0.7923 0.0
C436 C 0.84946 0.90012 0.77349 0.0
C437 C 0.8841 0.92858 0.80707 0.0
C438 C 0.76504 0.84686 0.76115 0.0
C439 C 0.71207 0.86339 0.75178 0.0
C440 C 0.7838 0.79301 0.74351 0.0
C441 C 0.83803 0.7714 0.75577 0.0
C442 C 0.87366 0.75436 0.7144 0.0
C443 C 0.92512 0.73497 0.7259 0.0
C444 C 0.94131 0.73219 0.77867 0.0
C445 C 0.90595 0.74845 0.82006 0.0
C446 C 0.85442 0.76771 0.80878 0.0
C447 C 0.61302 0.7322 0.58889 0.0
C448 C 0.60251 0.67593 0.59935 0.0
C449 C 0.6442 0.7636 0.62271 0.0
C450 C 0.66501 0.74024 0.66867 0.0
C451 C 0.655 0.68406 0.67961 0.0
C452 C 0.62386 0.65206 0.64518 0.0
C453 C 0.69727 0.77539 0.70445 0.0
C454 C 0.74987 0.75826 0.71478 0.0
C455 C 0.67775 0.82815 0.72428 0.0
C456 C 0.62151 0.84709 0.71728 0.0
C457 C 0.5794 0.81322 0.73293 0.0
C458 C 0.52659 0.83043 0.72474 0.0
C459 C 0.51532 0.88168 0.70134 0.0
C460 C 0.55683 0.91593 0.68625 0.0
C461 C 0.60973 0.89885 0.69424 0.0
H462 H 0.47441 0.89489 0.69496 0.0
H463 H 0.98121 0.71734 0.78748 0.0
loop_
_geom_bond_atom_site_label_1
_geom_bond_atom_site_label_2
_geom_bond_distance
_geom_bond_site_symmetry_2
_ccdc_geom_bond_type
Fe0 O1 1.886 . S
Fe0 O4 1.715 1_554 S
Fe0 O9 2.077 . S
Fe0 O14 1.935 1_554 S
Fe0 O20 2.077 1_455 S
Fe0 O29 1.935 1_454 S
O1 Fe0 1.886 . S
O1 Fe3 1.715 1_565 S
Fe2 O4 1.886 . S
Fe2 O5 1.715 1_565 S
Fe2 O12 1.935 1_565 S
Fe2 O13 2.077 . S
Fe2 O19 1.935 1_465 S
Fe2 O28 2.077 1_455 S
Fe3 O1 1.715 1_545 S
Fe3 O6 1.886 . S
Fe3 O10 1.935 1_545 S
Fe3 O15 2.077 . S
Fe3 O21 1.935 1_445 S
Fe3 O25 2.077 1_455 S
O4 Fe0 1.715 1_556 S
O4 Fe2 1.886 . S
O5 Fe2 1.715 1_545 S
O5 Fe7 1.886 . S
O6 Fe3 1.886 . S
O6 Fe7 1.715 1_554 S
Fe7 O5 1.886 . S
Fe7 O6 1.715 1_556 S
Fe7 O11 2.077 . S
Fe7 O16 1.935 1_556 S
Fe7 O18 2.077 1_455 S
Fe7 O26 1.935 1_456 S
C8 O20 1.381 . S
C8 O21 1.421 . S
O9 Fe0 2.077 . S
O9 C22 1.381 . S
O10 Fe3 1.935 1_565 S
O10 C22 1.421 . S
O11 Fe7 2.077 . S
O11 C27 1.381 . S
O12 Fe2 1.935 1_545 S
O12 C27 1.421 . S
O13 Fe2 2.077 . S
O13 C17 1.381 . S
O14 Fe0 1.935 1_556 S
O14 C17 1.421 . S
O15 Fe3 2.077 . S
O15 C23 1.381 . S
O16 Fe7 1.935 1_554 S
O16 C23 1.421 . S
C17 O13 1.381 . S
C17 O14 1.421 . S
O18 Fe7 2.077 1_655 S
O18 C30 1.381 . S
O19 Fe2 1.935 1_645 S
O19 C30 1.421 . S
O20 Fe0 2.077 1_655 S
O20 C8 1.381 . S
O21 Fe3 1.935 1_665 S
O21 C8 1.421 . S
C22 O9 1.381 . S
C22 O10 1.421 . S
C23 O15 1.381 . S
C23 O16 1.421 . S
C24 O25 1.381 . S
C24 O26 1.421 . S
O25 Fe3 2.077 1_655 S
O25 C24 1.381 . S
O26 Fe7 1.935 1_654 S
O26 C24 1.421 . S
C27 O11 1.381 . S
C27 O12 1.421 . S
O28 Fe2 2.077 1_655 S
O28 C31 1.381 . S
O29 Fe0 1.935 1_656 S
O29 C31 1.421 . S
C30 O18 1.381 . S
C30 O19 1.421 . S
C31 O28 1.381 . S
C31 O29 1.421 . S
Fe32 O33 1.886 . S
Fe32 O36 1.715 . S
Fe32 O41 2.077 . S
Fe32 O46 1.935 . S
Fe32 O52 2.077 . S
Fe32 O61 1.935 . S
O33 Fe32 1.886 . S
O33 Fe35 1.715 . S
Fe34 O36 1.886 . S
Fe34 O37 1.715 . S
Fe34 O44 1.935 . S
Fe34 O45 2.077 . S
Fe34 O51 1.935 . S
Fe34 O60 2.077 . S
Fe35 O33 1.715 . S
Fe35 O38 1.886 . S
Fe35 O42 1.935 . S
Fe35 O47 2.077 . S
Fe35 O53 1.935 . S
Fe35 O57 2.077 . S
O36 Fe32 1.715 . S
O36 Fe34 1.886 . S
O37 Fe34 1.715 . S
O37 Fe39 1.886 . S
O38 Fe35 1.886 . S
O38 Fe39 1.715 . S
Fe39 O37 1.886 . S
Fe39 O38 1.715 . S
Fe39 O43 2.077 . S
Fe39 O48 1.935 . S
Fe39 O50 2.077 . S
Fe39 O58 1.935 . S
C40 O52 1.381 . S
C40 O53 1.421 . S
O41 Fe32 2.077 . S
O41 C54 1.381 . S
O42 Fe35 1.935 . S
O42 C54 1.421 . S
O43 Fe39 2.077 . S
O43 C59 1.381 . S
O44 Fe34 1.935 . S
O44 C59 1.421 . S
O45 Fe34 2.077 . S
O45 C49 1.381 . S
O46 Fe32 1.935 . S
O46 C49 1.421 . S
O47 Fe35 2.077 . S
O47 C55 1.381 . S
O48 Fe39 1.935 . S
O48 C55 1.421 . S
C49 O45 1.381 . S
C49 O46 1.421 . S
O50 Fe39 2.077 . S
O50 C62 1.381 . S
O51 Fe34 1.935 . S
O51 C62 1.421 . S
O52 Fe32 2.077 . S
O52 C40 1.381 . S
O53 Fe35 1.935 . S
O53 C40 1.421 . S
C54 O41 1.381 . S
C54 O42 1.421 . S
C55 O47 1.381 . S
C55 O48 1.421 . S
C56 O57 1.381 . S
C56 O58 1.421 . S
O57 Fe35 2.077 . S
O57 C56 1.381 . S
O58 Fe39 1.935 . S
O58 C56 1.421 . S
C59 O43 1.381 . S
C59 O44 1.421 . S
O60 Fe34 2.077 . S
O60 C63 1.381 . S
O61 Fe32 1.935 . S
O61 C63 1.421 . S
C62 O50 1.381 . S
C62 O51 1.421 . S
C63 O60 1.381 . S
C63 O61 1.421 . S
H64 C82 0.951 . S
H65 C84 0.951 . S
H66 C86 0.950 . S
H67 C87 0.950 . S
H68 C89 0.950 . S
H69 C92 0.950 . S
H70 C93 0.950 . S
H71 C95 0.950 . S
H72 C96 0.950 . S
H73 C97 0.951 . S
H74 C99 0.951 . S
H75 C101 0.950 . S
H76 C102 0.950 . S
H77 C104 0.950 . S
H78 C107 0.950 . S
H79 C108 0.950 . S
H80 C110 0.950 . S
H81 C111 0.950 . S
C82 H64 0.951 . S
C82 C83 1.366 . S
C82 C84 1.388 . S
C83 C82 1.366 . S
C83 C87 1.385 . S
C84 H65 0.951 . S
C84 C82 1.388 . S
C84 C85 1.366 . S
C85 C84 1.366 . S
C85 C86 1.414 . S
C85 C88 1.499 . S
C86 H66 0.950 . S
C86 C85 1.414 . S
C86 C87 1.374 . S
C87 H67 0.950 . S
C87 C83 1.385 . S
C87 C86 1.374 . S
C88 C85 1.499 . S
C88 C89 1.373 . S
C88 C90 1.389 . S
C89 H68 0.950 . S
C89 C88 1.373 . S
C89 C105 1.377 . S
C90 C88 1.389 . S
C90 C91 1.524 . S
C90 C104 1.377 . S
C91 C90 1.524 . S
C91 C92 1.397 . S
C91 C96 1.363 . S
C92 H69 0.950 . S
C92 C91 1.397 . S
C92 C93 1.334 . S
C93 H70 0.950 . S
C93 C92 1.334 . S
C93 C94 1.287 . S
C94 C93 1.287 . S
C94 C95 1.524 . S
C94 H113 0.913 1_455 S
C95 H71 0.950 . S
C95 C94 1.524 . S
C95 C96 1.415 . S
C96 H72 0.950 . S
C96 C91 1.363 . S
C96 C95 1.415 . S
C97 H73 0.951 . S
C97 C98 1.366 . S
C97 C99 1.388 . S
C98 C97 1.366 . S
C98 C102 1.385 . S
C99 H74 0.951 . S
C99 C97 1.388 . S
C99 C100 1.366 . S
C100 C99 1.366 . S
C100 C101 1.414 . S
C100 C103 1.499 . S
C101 H75 0.950 . S
C101 C100 1.414 . S
C101 C102 1.374 . S
C102 H76 0.950 . S
C102 C98 1.385 . S
C102 C101 1.374 . S
C103 C100 1.499 . S
C103 C104 1.373 . S
C103 C105 1.389 . S
C104 H77 0.950 . S
C104 C90 1.377 . S
C104 C103 1.373 . S
C105 C89 1.377 . S
C105 C103 1.389 . S
C105 C106 1.524 . S
C106 C105 1.524 . S
C106 C107 1.397 . S
C106 C111 1.363 . S
C107 H78 0.950 . S
C107 C106 1.397 . S
C107 C108 1.334 . S
C108 H79 0.950 . S
C108 C107 1.334 . S
C108 C109 1.287 . S
C109 C108 1.287 . S
C109 C110 1.524 . S
C109 H112 0.999 . S
C110 H80 0.950 . S
C110 C109 1.524 . S
C110 C111 1.415 . S
C111 H81 0.950 . S
C111 C106 1.363 . S
C111 C110 1.415 . S
H112 C109 0.999 . S
H113 C94 0.913 1_655 S
H114 C132 0.951 . S
H115 C134 0.951 . S
H116 C136 0.950 . S
H117 C137 0.950 . S
H118 C139 0.950 . S
H119 C142 0.950 . S
H120 C143 0.950 . S
H121 C145 0.950 . S
H122 C146 0.950 . S
H123 C147 0.951 . S
H124 C149 0.951 . S
H125 C151 0.950 . S
H126 C152 0.950 . S
H127 C154 0.950 . S
H128 C157 0.950 . S
H129 C158 0.950 . S
H130 C160 0.950 . S
H131 C161 0.950 . S
C132 H114 0.951 . S
C132 C133 1.366 . S
C132 C134 1.388 . S
C133 C132 1.366 . S
C133 C137 1.385 . S
C134 H115 0.951 . S
C134 C132 1.388 . S
C134 C135 1.366 . S
C135 C134 1.366 . S
C135 C136 1.414 . S
C135 C138 1.499 . S
C136 H116 0.950 . S
C136 C135 1.414 . S
C136 C137 1.374 . S
C137 H117 0.950 . S
C137 C133 1.385 . S
C137 C136 1.374 . S
C138 C135 1.499 . S
C138 C139 1.373 . S
C138 C140 1.389 . S
C139 H118 0.950 . S
C139 C138 1.373 . S
C139 C155 1.377 . S
C140 C138 1.389 . S
C140 C141 1.524 . S
C140 C154 1.377 . S
C141 C140 1.524 . S
C141 C142 1.397 . S
C141 C146 1.363 . S
C142 H119 0.950 . S
C142 C141 1.397 . S
C142 C143 1.334 . S
C143 H120 0.950 . S
C143 C142 1.334 . S
C143 C144 1.287 . S
C144 C143 1.287 . S
C144 C145 1.524 . S
C144 H163 0.913 . S
C145 H121 0.950 . S
C145 C144 1.524 . S
C145 C146 1.415 . S
C146 H122 0.950 . S
C146 C141 1.363 . S
C146 C145 1.415 . S
C147 H123 0.951 . S
C147 C148 1.366 . S
C147 C149 1.388 . S
C148 C147 1.366 . S
C148 C152 1.385 . S
C149 H124 0.951 . S
C149 C147 1.388 . S
C149 C150 1.366 . S
C150 C149 1.366 . S
C150 C151 1.414 . S
C150 C153 1.499 . S
C151 H125 0.950 . S
C151 C150 1.414 . S
C151 C152 1.374 . S
C152 H126 0.950 . S
C152 C148 1.385 . S
C152 C151 1.374 . S
C153 C150 1.499 . S
C153 C154 1.373 . S
C153 C155 1.389 . S
C154 H127 0.950 . S
C154 C140 1.377 . S
C154 C153 1.373 . S
C155 C139 1.377 . S
C155 C153 1.389 . S
C155 C156 1.524 . S
C156 C155 1.524 . S
C156 C157 1.397 . S
C156 C161 1.363 . S
C157 H128 0.950 . S
C157 C156 1.397 . S
C157 C158 1.334 . S
C158 H129 0.950 . S
C158 C157 1.334 . S
C158 C159 1.287 . S
C159 C158 1.287 . S
C159 C160 1.524 . S
C159 H162 0.999 . S
C160 H130 0.950 . S
C160 C159 1.524 . S
C160 C161 1.415 . S
C161 H131 0.950 . S
C161 C156 1.363 . S
C161 C160 1.415 . S
H162 C159 0.999 . S
H163 C144 0.913 . S
H164 C182 0.951 . S
H165 C184 0.951 . S
H166 C186 0.950 . S
H167 C187 0.950 . S
H168 C189 0.950 . S
H169 C192 0.950 . S
H170 C193 0.950 . S
H171 C195 0.950 . S
H172 C196 0.950 . S
H173 C197 0.951 . S
H174 C199 0.951 . S
H175 C201 0.950 . S
H176 C202 0.950 . S
H177 C204 0.950 . S
H178 C207 0.950 . S
H179 C208 0.950 . S
H180 C210 0.950 . S
H181 C211 0.950 . S
C182 H164 0.951 . S
C182 C183 1.366 . S
C182 C184 1.388 . S
C183 C182 1.366 . S
C183 C187 1.385 . S
C184 H165 0.951 . S
C184 C182 1.388 . S
C184 C185 1.366 . S
C185 C184 1.366 . S
C185 C186 1.414 . S
C185 C188 1.499 . S
C186 H166 0.950 . S
C186 C185 1.414 . S
C186 C187 1.374 . S
C187 H167 0.950 . S
C187 C183 1.385 . S
C187 C186 1.374 . S
C188 C185 1.499 . S
C188 C189 1.373 . S
C188 C190 1.389 . S
C189 H168 0.950 . S
C189 C188 1.373 . S
C189 C205 1.377 . S
C190 C188 1.389 . S
C190 C191 1.524 . S
C190 C204 1.377 . S
C191 C190 1.524 . S
C191 C192 1.397 . S
C191 C196 1.363 . S
C192 H169 0.950 . S
C192 C191 1.397 . S
C192 C193 1.334 . S
C193 H170 0.950 . S
C193 C192 1.334 . S
C193 C194 1.287 . S
C194 C193 1.287 . S
C194 C195 1.524 . S
C194 H213 0.913 . S
C195 H171 0.950 . S
C195 C194 1.524 . S
C195 C196 1.415 . S
C196 H172 0.950 . S
C196 C191 1.363 . S
C196 C195 1.415 . S
C197 H173 0.951 . S
C197 C198 1.366 . S
C197 C199 1.388 . S
C198 C197 1.366 . S
C198 C202 1.385 . S
C199 H174 0.951 . S
C199 C197 1.388 . S
C199 C200 1.366 . S
C200 C199 1.366 . S
C200 C201 1.414 . S
C200 C203 1.499 . S
C201 H175 0.950 . S
C201 C200 1.414 . S
C201 C202 1.374 . S
C202 H176 0.950 . S
C202 C198 1.385 . S
C202 C201 1.374 . S
C203 C200 1.499 . S
C203 C204 1.373 . S
C203 C205 1.389 . S
C204 H177 0.950 . S
C204 C190 1.377 . S
C204 C203 1.373 . S
C205 C189 1.377 . S
C205 C203 1.389 . S
C205 C206 1.524 . S
C206 C205 1.524 . S
C206 C207 1.397 . S
C206 C211 1.363 . S
C207 H178 0.950 . S
C207 C206 1.397 . S
C207 C208 1.334 . S
C208 H179 0.950 . S
C208 C207 1.334 . S
C208 C209 1.287 . S
C209 C208 1.287 . S
C209 C210 1.524 . S
C209 H212 0.999 . S
C210 H180 0.950 . S
C210 C209 1.524 . S
C210 C211 1.415 . S
C211 H181 0.950 . S
C211 C206 1.363 . S
C211 C210 1.415 . S
H212 C209 0.999 . S
H213 C194 0.913 . S
H214 C232 0.951 . S
H215 C234 0.951 . S
H216 C236 0.950 . S
H217 C237 0.950 . S
H218 C239 0.950 . S
H219 C242 0.950 . S
H220 C243 0.950 . S
H221 C245 0.950 . S
H222 C246 0.950 . S
H223 C247 0.951 . S
H224 C249 0.951 . S
H225 C251 0.950 . S
H226 C252 0.950 . S
H227 C254 0.950 . S
H228 C257 0.950 . S
H229 C258 0.950 . S
H230 C260 0.950 . S
H231 C261 0.950 . S
C232 H214 0.951 . S
C232 C233 1.366 . S
C232 C234 1.388 . S
C233 C232 1.366 . S
C233 C237 1.385 . S
C234 H215 0.951 . S
C234 C232 1.388 . S
C234 C235 1.366 . S
C235 C234 1.366 . S
C235 C236 1.414 . S
C235 C238 1.499 . S
C236 H216 0.950 . S
C236 C235 1.414 . S
C236 C237 1.374 . S
C237 H217 0.950 . S
C237 C233 1.385 . S
C237 C236 1.374 . S
C238 C235 1.499 . S
C238 C239 1.373 . S
C238 C240 1.389 . S
C239 H218 0.950 . S
C239 C238 1.373 . S
C239 C255 1.377 . S
C240 C238 1.389 . S
C240 C241 1.524 . S
C240 C254 1.377 . S
C241 C240 1.524 . S
C241 C242 1.397 . S
C241 C246 1.363 . S
C242 H219 0.950 . S
C242 C241 1.397 . S
C242 C243 1.334 . S
C243 H220 0.950 . S
C243 C242 1.334 . S
C243 C244 1.287 . S
C244 C243 1.287 . S
C244 C245 1.524 . S
C244 H263 0.913 . S
C245 H221 0.950 . S
C245 C244 1.524 . S
C245 C246 1.415 . S
C246 H222 0.950 . S
C246 C241 1.363 . S
C246 C245 1.415 . S
C247 H223 0.951 . S
C247 C248 1.366 . S
C247 C249 1.388 . S
C248 C247 1.366 . S
C248 C252 1.385 . S
C249 H224 0.951 . S
C249 C247 1.388 . S
C249 C250 1.366 . S
C250 C249 1.366 . S
C250 C251 1.414 . S
C250 C253 1.499 . S
C251 H225 0.950 . S
C251 C250 1.414 . S
C251 C252 1.374 . S
C252 H226 0.950 . S
C252 C248 1.385 . S
C252 C251 1.374 . S
C253 C250 1.499 . S
C253 C254 1.373 . S
C253 C255 1.389 . S
C254 H227 0.950 . S
C254 C240 1.377 . S
C254 C253 1.373 . S
C255 C239 1.377 . S
C255 C253 1.389 . S
C255 C256 1.524 . S
C256 C255 1.524 . S
C256 C257 1.397 . S
C256 C261 1.363 . S
C257 H228 0.950 . S
C257 C256 1.397 . S
C257 C258 1.334 . S
C258 H229 0.950 . S
C258 C257 1.334 . S
C258 C259 1.287 . S
C259 C258 1.287 . S
C259 C260 1.524 . S
C259 H262 0.999 . S
C260 H230 0.950 . S
C260 C259 1.524 . S
C260 C261 1.415 . S
C261 H231 0.950 . S
C261 C256 1.363 . S
C261 C260 1.415 . S
H262 C259 0.999 . S
H263 C244 0.913 . S
H264 C282 0.951 . S
H265 C284 0.951 . S
H266 C286 0.950 . S
H267 C287 0.950 . S
H268 C289 0.950 . S
H269 C292 0.950 . S
H270 C293 0.950 . S
H271 C295 0.950 . S
H272 C296 0.950 . S
H273 C297 0.951 . S
H274 C299 0.951 . S
H275 C301 0.950 . S
H276 C302 0.950 . S
H277 C304 0.950 . S
H278 C307 0.950 . S
H279 C308 0.950 . S
H280 C310 0.950 . S
H281 C311 0.950 . S
C282 H264 0.951 . S
C282 C283 1.366 . S
C282 C284 1.388 . S
C283 C282 1.366 . S
C283 C287 1.385 . S
C284 H265 0.951 . S
C284 C282 1.388 . S
C284 C285 1.366 . S
C285 C284 1.366 . S
C285 C286 1.414 . S
C285 C288 1.499 . S
C286 H266 0.950 . S
C286 C285 1.414 . S
C286 C287 1.374 . S
C287 H267 0.950 . S
C287 C283 1.385 . S
C287 C286 1.374 . S
C288 C285 1.499 . S
C288 C289 1.373 . S
C288 C290 1.389 . S
C289 H268 0.950 . S
C289 C288 1.373 . S
C289 C305 1.377 . S
C290 C288 1.389 . S
C290 C291 1.524 . S
C290 C304 1.377 . S
C291 C290 1.524 . S
C291 C292 1.397 . S
C291 C296 1.363 . S
C292 H269 0.950 . S
C292 C291 1.397 . S
C292 C293 1.334 . S
C293 H270 0.950 . S
C293 C292 1.334 . S
C293 C294 1.287 . S
C294 C293 1.287 . S
C294 C295 1.524 . S
C294 H313 0.913 . S
C295 H271 0.950 . S
C295 C294 1.524 . S
C295 C296 1.415 . S
C296 H272 0.950 . S
C296 C291 1.363 . S
C296 C295 1.415 . S
C297 H273 0.951 . S
C297 C298 1.366 . S
C297 C299 1.388 . S
C298 C297 1.366 . S
C298 C302 1.385 . S
C299 H274 0.951 . S
C299 C297 1.388 . S
C299 C300 1.366 . S
C300 C299 1.366 . S
C300 C301 1.414 . S
C300 C303 1.499 . S
C301 H275 0.950 . S
C301 C300 1.414 . S
C301 C302 1.374 . S
C302 H276 0.950 . S
C302 C298 1.385 . S
C302 C301 1.374 . S
C303 C300 1.499 . S
C303 C304 1.373 . S
C303 C305 1.389 . S
C304 H277 0.950 . S
C304 C290 1.377 . S
C304 C303 1.373 . S
C305 C289 1.377 . S
C305 C303 1.389 . S
C305 C306 1.524 . S
C306 C305 1.524 . S
C306 C307 1.397 . S
C306 C311 1.363 . S
C307 H278 0.950 . S
C307 C306 1.397 . S
C307 C308 1.334 . S
C308 H279 0.950 . S
C308 C307 1.334 . S
C308 C309 1.287 . S
C309 C308 1.287 . S
C309 C310 1.524 . S
C309 H312 0.999 . S
C310 H280 0.950 . S
C310 C309 1.524 . S
C310 C311 1.415 . S
C311 H281 0.950 . S
C311 C306 1.363 . S
C311 C310 1.415 . S
H312 C309 0.999 . S
H313 C294 0.913 . S
H314 C332 0.951 . S
H315 C334 0.951 . S
H316 C336 0.950 . S
H317 C337 0.950 . S
H318 C339 0.950 . S
H319 C342 0.950 . S
H320 C343 0.950 . S
H321 C345 0.950 . S
H322 C346 0.950 . S
H323 C347 0.951 . S
H324 C349 0.951 . S
H325 C351 0.950 . S
H326 C352 0.950 . S
H327 C354 0.950 . S
H328 C357 0.950 . S
H329 C358 0.950 . S
H330 C360 0.950 . S
H331 C361 0.950 . S
C332 H314 0.951 . S
C332 C333 1.366 . S
C332 C334 1.388 . S
C333 C332 1.366 . S
C333 C337 1.385 . S
C334 H315 0.951 . S
C334 C332 1.388 . S
C334 C335 1.366 . S
C335 C334 1.366 . S
C335 C336 1.414 . S
C335 C338 1.499 . S
C336 H316 0.950 . S
C336 C335 1.414 . S
C336 C337 1.374 . S
C337 H317 0.950 . S
C337 C333 1.385 . S
C337 C336 1.374 . S
C338 C335 1.499 . S
C338 C339 1.373 . S
C338 C340 1.389 . S
C339 H318 0.950 . S
C339 C338 1.373 . S
C339 C355 1.377 . S
C340 C338 1.389 . S
C340 C341 1.524 . S
C340 C354 1.377 . S
C341 C340 1.524 . S
C341 C342 1.397 . S
C341 C346 1.363 . S
C342 H319 0.950 . S
C342 C341 1.397 . S
C342 C343 1.334 . S
C343 H320 0.950 . S
C343 C342 1.334 . S
C343 C344 1.287 . S
C344 C343 1.287 . S
C344 C345 1.524 . S
C344 H363 0.913 . S
C345 H321 0.950 . S
C345 C344 1.524 . S
C345 C346 1.415 . S
C346 H322 0.950 . S
C346 C341 1.363 . S
C346 C345 1.415 . S
C347 H323 0.951 . S
C347 C348 1.366 . S
C347 C349 1.388 . S
C348 C347 1.366 . S
C348 C352 1.385 . S
C349 H324 0.951 . S
C349 C347 1.388 . S
C349 C350 1.366 . S
C350 C349 1.366 . S
C350 C351 1.414 . S
C350 C353 1.499 . S
C351 H325 0.950 . S
C351 C350 1.414 . S
C351 C352 1.374 . S
C352 H326 0.950 . S
C352 C348 1.385 . S
C352 C351 1.374 . S
C353 C350 1.499 . S
C353 C354 1.373 . S
C353 C355 1.389 . S
C354 H327 0.950 . S
C354 C340 1.377 . S
C354 C353 1.373 . S
C355 C339 1.377 . S
C355 C353 1.389 . S
C355 C356 1.524 . S
C356 C355 1.524 . S
C356 C357 1.397 . S
C356 C361 1.363 . S
C357 H328 0.950 . S
C357 C356 1.397 . S
C357 C358 1.334 . S
C358 H329 0.950 . S
C358 C357 1.334 . S
C358 C359 1.287 . S
C359 C358 1.287 . S
C359 C360 1.524 . S
C359 H362 0.999 . S
C360 H330 0.950 . S
C360 C359 1.524 . S
C360 C361 1.415 . S
C361 H331 0.950 . S
C361 C356 1.363 . S
C361 C360 1.415 . S
H362 C359 0.999 . S
H363 C344 0.913 . S
H364 C382 0.951 . S
H365 C384 0.951 . S
H366 C386 0.950 . S
H367 C387 0.950 . S
H368 C389 0.950 . S
H369 C392 0.950 . S
H370 C393 0.950 . S
H371 C395 0.950 . S
H372 C396 0.950 . S
H373 C397 0.951 . S
H374 C399 0.951 . S
H375 C401 0.950 . S
H376 C402 0.950 . S
H377 C404 0.950 . S
H378 C407 0.950 . S
H379 C408 0.950 . S
H380 C410 0.950 . S
H381 C411 0.950 . S
C382 H364 0.951 . S
C382 C383 1.366 . S
C382 C384 1.388 . S
C383 C382 1.366 . S
C383 C387 1.385 . S
C384 H365 0.951 . S
C384 C382 1.388 . S
C384 C385 1.366 . S
C385 C384 1.366 . S
C385 C386 1.414 . S
C385 C388 1.499 . S
C386 H366 0.950 . S
C386 C385 1.414 . S
C386 C387 1.374 . S
C387 H367 0.950 . S
C387 C383 1.385 . S
C387 C386 1.374 . S
C388 C385 1.499 . S
C388 C389 1.373 . S
C388 C390 1.389 . S
C389 H368 0.950 . S
C389 C388 1.373 . S
C389 C405 1.377 . S
C390 C388 1.389 . S
C390 C391 1.524 . S
C390 C404 1.377 . S
C391 C390 1.524 . S
C391 C392 1.397 . S
C391 C396 1.363 . S
C392 H369 0.950 . S
C392 C391 1.397 . S
C392 C393 1.334 . S
C393 H370 0.950 . S
C393 C392 1.334 . S
C393 C394 1.287 . S
C394 C393 1.287 . S
C394 C395 1.524 . S
C394 H413 0.913 . S
C395 H371 0.950 . S
C395 C394 1.524 . S
C395 C396 1.415 . S
C396 H372 0.950 . S
C396 C391 1.363 . S
C396 C395 1.415 . S
C397 H373 0.951 . S
C397 C398 1.366 . S
C397 C399 1.388 . S
C398 C397 1.366 . S
C398 C402 1.385 . S
C399 H374 0.951 . S
C399 C397 1.388 . S
C399 C400 1.366 . S
C400 C399 1.366 . S
C400 C401 1.414 . S
C400 C403 1.499 . S
C401 H375 0.950 . S
C401 C400 1.414 . S
C401 C402 1.374 . S
C402 H376 0.950 . S
C402 C398 1.385 . S
C402 C401 1.374 . S
C403 C400 1.499 . S
C403 C404 1.373 . S
C403 C405 1.389 . S
C404 H377 0.950 . S
C404 C390 1.377 . S
C404 C403 1.373 . S
C405 C389 1.377 . S
C405 C403 1.389 . S
C405 C406 1.524 . S
C406 C405 1.524 . S
C406 C407 1.397 . S
C406 C411 1.363 . S
C407 H378 0.950 . S
C407 C406 1.397 . S
C407 C408 1.334 . S
C408 H379 0.950 . S
C408 C407 1.334 . S
C408 C409 1.287 . S
C409 C408 1.287 . S
C409 C410 1.524 . S
C409 H412 0.999 . S
C410 H380 0.950 . S
C410 C409 1.524 . S
C410 C411 1.415 . S
C411 H381 0.950 . S
C411 C406 1.363 . S
C411 C410 1.415 . S
H412 C409 0.999 . S
H413 C394 0.913 . S
H414 C432 0.951 . S
H415 C434 0.951 . S
H416 C436 0.950 . S
H417 C437 0.950 . S
H418 C439 0.950 . S
H419 C442 0.950 . S
H420 C443 0.950 . S
H421 C445 0.950 . S
H422 C446 0.950 . S
H423 C447 0.951 . S
H424 C449 0.951 . S
H425 C451 0.950 . S
H426 C452 0.950 . S
H427 C454 0.950 . S
H428 C457 0.950 . S
H429 C458 0.950 . S
H430 C460 0.950 . S
H431 C461 0.950 . S
C432 H414 0.951 . S
C432 C433 1.366 . S
C432 C434 1.388 . S
C433 C432 1.366 . S
C433 C437 1.385 . S
C434 H415 0.951 . S
C434 C432 1.388 . S
C434 C435 1.366 . S
C435 C434 1.366 . S
C435 C436 1.414 . S
C435 C438 1.499 . S
C436 H416 0.950 . S
C436 C435 1.414 . S
C436 C437 1.374 . S
C437 H417 0.950 . S
C437 C433 1.385 . S
C437 C436 1.374 . S
C438 C435 1.499 . S
C438 C439 1.373 . S
C438 C440 1.389 . S
C439 H418 0.950 . S
C439 C438 1.373 . S
C439 C455 1.377 . S
C440 C438 1.389 . S
C440 C441 1.524 . S
C440 C454 1.377 . S
C441 C440 1.524 . S
C441 C442 1.397 . S
C441 C446 1.363 . S
C442 H419 0.950 . S
C442 C441 1.397 . S
C442 C443 1.334 . S
C443 H420 0.950 . S
C443 C442 1.334 . S
C443 C444 1.287 . S
C444 C443 1.287 . S
C444 C445 1.524 . S
C444 H463 0.913 . S
C445 H421 0.950 . S
C445 C444 1.524 . S
C445 C446 1.415 . S
C446 H422 0.950 . S
C446 C441 1.363 . S
C446 C445 1.415 . S
C447 H423 0.951 . S
C447 C448 1.366 . S
C447 C449 1.388 . S
C448 C447 1.366 . S
C448 C452 1.385 . S
C449 H424 0.951 . S
C449 C447 1.388 . S
C449 C450 1.366 . S
C450 C449 1.366 . S
C450 C451 1.414 . S
C450 C453 1.499 . S
C451 H425 0.950 . S
C451 C450 1.414 . S
C451 C452 1.374 . S
C452 H426 0.950 . S
C452 C448 1.385 . S
C452 C451 1.374 . S
C453 C450 1.499 . S
C453 C454 1.373 . S
C453 C455 1.389 . S
C454 H427 0.950 . S
C454 C440 1.377 . S
C454 C453 1.373 . S
C455 C439 1.377 . S
C455 C453 1.389 . S
C455 C456 1.524 . S
C456 C455 1.524 . S
C456 C457 1.397 . S
C456 C461 1.363 . S
C457 H428 0.950 . S
C457 C456 1.397 . S
C457 C458 1.334 . S
C458 H429 0.950 . S
C458 C457 1.334 . S
C458 C459 1.287 . S
C459 C458 1.287 . S
C459 C460 1.524 . S
C459 H462 0.999 . S
C460 H430 0.950 . S
C460 C459 1.524 . S
C460 C461 1.415 . S
C461 H431 0.950 . S
C461 C456 1.363 . S
C461 C460 1.415 . S
H462 C459 0.999 . S
H463 C444 0.913 . S
C83 C23 1.452 . S
C98 C55 1.447 . S
C133 C24 1.451 . S
C148 C59 1.450 . S
C183 C8 1.452 . S
C198 C49 1.452 . S
C233 C22 1.452 . S
C248 C54 1.451 . S
C283 C17 1.452 . S
C298 C40 1.454 . S
C348 C56 1.452 . S
C333 C27 1.450 . S
C383 C30 1.452 . S
C398 C62 1.453 . S
C448 C63 1.451 . S
C433 C31 1.456 . S
