# Generated by pormake.
# Topology tsx, (6,3)-cn, num edge types: 1
# Building blocks:
#     Node 0, Type 0, BuildingBlock: JUFBIX_clean_sbu_0, # of connection points: 6
#     Node 1, Type 0, BuildingBlock: JUFBIX_clean_sbu_0, # of connection points: 6
#     Node 2, Type 1, BuildingBlock: OLANEW_clean_sbu_2, # of connection points: 3
#     Node 3, Type 1, BuildingBlock: OLANEW_clean_sbu_2, # of connection points: 3
#     Node 4, Type 1, BuildingBlock: OLANEW_clean_sbu_2, # of connection points: 3
#     Node 5, Type 1, BuildingBlock: OLANEW_clean_sbu_2, # of connection points: 3
#     Edge 6, Type (0, 1), BuildingBlock: MIFKUJ_clean_linker_0, # of connection points: 2
#     Edge 7, Type (0, 1), BuildingBlock: MIFKUJ_clean_linker_0, # of connection points: 2
#     Edge 8, Type (0, 1), BuildingBlock: MIFKUJ_clean_linker_0, # of connection points: 2
#     Edge 9, Type (0, 1), BuildingBlock: MIFKUJ_clean_linker_0, # of connection points: 2
#     Edge 10, Type (0, 1), BuildingBlock: MIFKUJ_clean_linker_0, # of connection points: 2
#     Edge 11, Type (0, 1), BuildingBlock: MIFKUJ_clean_linker_0, # of connection points: 2
#     Edge 12, Type (0, 1), BuildingBlock: MIFKUJ_clean_linker_0, # of connection points: 2
#     Edge 13, Type (0, 1), BuildingBlock: MIFKUJ_clean_linker_0, # of connection points: 2
#     Edge 14, Type (0, 1), BuildingBlock: MIFKUJ_clean_linker_0, # of connection points: 2
#     Edge 15, Type (0, 1), BuildingBlock: MIFKUJ_clean_linker_0, # of connection points: 2
#     Edge 16, Type (0, 1), BuildingBlock: MIFKUJ_clean_linker_0, # of connection points: 2
#     Edge 17, Type (0, 1), BuildingBlock: MIFKUJ_clean_linker_0, # of connection points: 2
# Relax obj value: 0.062
# Max RMSD: 0.102
# Mean RMSD: 0.073
data_MOF--net-tsx--node1-JUFBIX_clean_sbu_0--node2-OLANEW_clean_sbu_2--edge1-MIFKUJ_clean_linker_0
_symmetry_space_group_name_H-M    P1
_symmetry_Int_Tables_number       1
_symmetry_cell_setting            triclinic
loop_
_symmetry_equiv_pos_as_xyz
'x, y, z'
_cell_length_a     27.891493
_cell_length_b     32.729497
_cell_length_c     43.354776
_cell_angle_alpha  97.802041
_cell_angle_beta   89.344363
_cell_angle_gamma 97.825559
loop_
_atom_site_label
_atom_site_type_symbol
_atom_site_fract_x
_atom_site_fract_y
_atom_site_fract_z
_atom_type_partial_charge
Co0 Co 0.0419 0.98817 0.0082 0.0
C1 C 0.99794 0.00968 0.95579 0.0
Co2 Co 0.98545 0.02942 0.01849 0.0
C3 C 0.10328 0.9223 0.00748 0.0
C4 C 0.12318 0.96381 0.97388 0.0
N5 N 0.09138 0.95663 0.99684 0.0
N6 N 0.14085 0.90768 0.99166 0.0
C7 C 0.15339 0.93379 0.97056 0.0
H8 H 0.08401 0.90774 0.02582 0.0
H9 H 0.12399 0.98911 0.96011 0.0
C10 C 0.03062 0.00839 0.07083 0.0
N11 N 0.93572 0.06084 0.0295 0.0
C12 C 0.92173 0.0929 0.01681 0.0
C13 C 0.90305 0.05355 0.05196 0.0
N14 N 0.88128 0.10547 0.03031 0.0
C15 C 0.86964 0.0808 0.05249 0.0
C16 C 0.95234 0.94351 0.01269 0.0
O17 O 0.05474 0.98764 0.05086 0.0
O18 O 0.99882 0.02849 0.06156 0.0
O19 O 0.94045 0.97997 0.01755 0.0
O20 O 0.99654 0.93913 0.00793 0.0
O21 O 0.97333 0.03041 0.97547 0.0
H22 H 0.90299 0.02935 0.06666 0.0
H23 H 0.9399 0.10582 0.9974 0.0
O24 O 0.02859 0.98893 0.96548 0.0
O25 O 0.08683 0.03776 0.00865 0.0
O26 O 0.03054 0.07827 0.01908 0.0
C27 C 0.07464 0.07414 0.01368 0.0
H28 H 0.18247 0.93135 0.95394 0.0
H29 H 0.83903 0.08225 0.06799 0.0
Co30 Co 0.52572 0.47894 0.50058 0.0
C31 C 0.48232 0.50494 0.44985 0.0
Co32 Co 0.46991 0.52005 0.51305 0.0
C33 C 0.58427 0.41209 0.49957 0.0
C34 C 0.60371 0.45073 0.46405 0.0
N35 N 0.57302 0.44588 0.48796 0.0
N36 N 0.62044 0.39552 0.48359 0.0
C37 C 0.6327 0.41971 0.46121 0.0
H38 H 0.56573 0.39945 0.51897 0.0
H39 H 0.60487 0.47525 0.44954 0.0
C40 C 0.51428 0.49422 0.56366 0.0
N41 N 0.42243 0.55317 0.5259 0.0
C42 C 0.40913 0.58576 0.51358 0.0
C43 C 0.39421 0.54985 0.5512 0.0
N44 N 0.37441 0.60307 0.53058 0.0
C45 C 0.365 0.58069 0.55427 0.0
C46 C 0.43411 0.43546 0.50395 0.0
O47 O 0.53914 0.47563 0.54293 0.0
O48 O 0.48228 0.51477 0.5554 0.0
O49 O 0.42277 0.47201 0.51013 0.0
O50 O 0.47827 0.43088 0.49912 0.0
O51 O 0.45847 0.52505 0.47042 0.0
H52 H 0.39478 0.52646 0.56653 0.0
H53 H 0.42507 0.59704 0.49292 0.0
O54 O 0.51221 0.48262 0.4584 0.0
O55 O 0.57255 0.52722 0.50206 0.0
O56 O 0.51741 0.56787 0.51592 0.0
C57 C 0.56121 0.56357 0.50958 0.0
H58 H 0.66099 0.41552 0.44423 0.0
H59 H 0.33833 0.58594 0.5722 0.0
O60 O 0.03904 0.97867 0.41174 0.0
Cd61 Cd 0.01962 0.96933 0.46566 0.0
O62 O 0.04069 0.04667 0.41806 0.0
Cd63 Cd 0.01264 0.05097 0.4654 0.0
O64 O 0.9531 0.08006 0.48789 0.0
C65 C 0.9212 0.08457 0.4684 0.0
O66 O 0.92648 0.06978 0.439 0.0
C67 C 0.04596 0.01304 0.40073 0.0
C68 C 0.07454 0.91089 0.48269 0.0
O69 O 0.03415 0.89954 0.46818 0.0
O70 O 0.08838 0.94996 0.49002 0.0
O71 O 0.99645 0.03845 0.61152 0.0
Cd72 Cd 0.99336 0.03366 0.55467 0.0
O73 O 0.03834 0.98611 0.61097 0.0
Cd74 Cd 0.0223 0.96451 0.56184 0.0
O75 O 0.96888 0.91896 0.53493 0.0
C76 C 0.9253 0.92085 0.54325 0.0
O77 O 0.9163 0.95124 0.56468 0.0
C78 C 0.01944 0.01592 0.62608 0.0
C79 C 0.06197 0.09484 0.53479 0.0
O80 O 0.01923 0.1024 0.5425 0.0
O81 O 0.07215 0.05807 0.53606 0.0
O82 O 0.52946 0.47378 0.90671 0.0
Cd83 Cd 0.52768 0.47391 0.96315 0.0
O84 O 0.55921 0.54007 0.9106 0.0
Cd85 Cd 0.53303 0.55415 0.95808 0.0
O86 O 0.47705 0.58858 0.98048 0.0
C87 C 0.4486 0.5988 0.96104 0.0
O88 O 0.45497 0.58704 0.93123 0.0
C89 C 0.54809 0.50497 0.89402 0.0
C90 C 0.58805 0.41777 0.97814 0.0
O91 O 0.54257 0.40649 0.97356 0.0
O92 O 0.60483 0.45581 0.9763 0.0
O93 O 0.48801 0.54704 0.10685 0.0
Cd94 Cd 0.49562 0.54588 0.05043 0.0
O95 O 0.53446 0.49801 0.10741 0.0
Cd96 Cd 0.52658 0.47845 0.05742 0.0
O97 O 0.47846 0.42913 0.02992 0.0
C98 C 0.43385 0.43326 0.0292 0.0
O99 O 0.42017 0.46851 0.04201 0.0
C100 C 0.5108 0.52504 0.12202 0.0
C101 C 0.57096 0.60587 0.03661 0.0
O102 O 0.52755 0.61436 0.04008 0.0
O103 O 0.57877 0.56887 0.03947 0.0
H104 H 0.06055 0.15603 0.01919 0.0
H105 H 0.1218 0.21667 0.01702 0.0
H106 H 0.23293 0.13643 0.00343 0.0
H107 H 0.17211 0.07571 0.00572 0.0
H108 H 0.25826 0.20336 0.04758 0.0
H109 H 0.1939 0.17837 0.94306 0.0
H110 H 0.12929 0.16779 0.90323 0.0
H111 H 0.08993 0.28838 0.93597 0.0
H112 H 0.15388 0.29954 0.97626 0.0
H113 H 0.44876 0.3525 0.01112 0.0
H114 H 0.38734 0.2911 0.00341 0.0
H115 H 0.2747 0.36969 0.01787 0.0
H116 H 0.33579 0.4313 0.02551 0.0
H117 H 0.25049 0.3032 0.97183 0.0
H118 H 0.30878 0.3276 0.07718 0.0
H119 H 0.37031 0.33984 0.11902 0.0
H120 H 0.41758 0.22198 0.08695 0.0
H121 H 0.35668 0.20928 0.04464 0.0
C122 C 0.09802 0.15128 0.01575 0.0
C123 C 0.11146 0.11104 0.01267 0.0
C124 C 0.13293 0.18594 0.01434 0.0
C125 C 0.18185 0.18099 0.00976 0.0
C126 C 0.19537 0.14091 0.00691 0.0
C127 C 0.16052 0.10626 0.00821 0.0
C128 C 0.21918 0.21764 0.00872 0.0
C129 C 0.257 0.22479 0.03068 0.0
C130 C 0.2167 0.24624 0.98723 0.0
C131 C 0.17843 0.23965 0.96287 0.0
C132 C 0.17125 0.20252 0.94193 0.0
C133 C 0.13478 0.19642 0.91924 0.0
C134 C 0.10546 0.22732 0.91714 0.0
C135 C 0.11263 0.26445 0.93765 0.0
C136 C 0.14902 0.2707 0.96039 0.0
C137 C 0.41093 0.35683 0.01211 0.0
C138 C 0.39717 0.39679 0.01933 0.0
C139 C 0.37588 0.32168 0.00781 0.0
C140 C 0.32652 0.32585 0.0106 0.0
C141 C 0.31261 0.3658 0.01574 0.0
C142 C 0.34761 0.40097 0.02019 0.0
C143 C 0.28969 0.28861 0.0105 0.0
C144 C 0.25192 0.2815 0.98851 0.0
C145 C 0.29185 0.26018 0.03215 0.0
C146 C 0.32856 0.26772 0.05753 0.0
C147 C 0.33259 0.30446 0.07888 0.0
C148 C 0.36728 0.31145 0.10271 0.0
C149 C 0.39794 0.28177 0.10558 0.0
C150 C 0.39387 0.24498 0.08466 0.0
C151 C 0.35925 0.23786 0.06076 0.0
H152 H 0.42475 0.28722 0.12406 0.0
H153 H 0.07726 0.22252 0.89957 0.0
H154 H 0.17298 0.85467 0.94572 0.0
H155 H 0.21599 0.79588 0.95116 0.0
H156 H 0.2023 0.8192 0.05098 0.0
H157 H 0.15865 0.87854 0.04551 0.0
H158 H 0.2985 0.80912 0.02924 0.0
H159 H 0.13894 0.7364 0.01736 0.0
H160 H 0.05724 0.71771 0.99424 0.0
H161 H 0.11844 0.67314 0.90683 0.0
H162 H 0.20058 0.69218 0.92925 0.0
H163 H 0.42483 0.63015 0.02065 0.0
H164 H 0.36359 0.67616 0.03598 0.0
H165 H 0.32618 0.67336 0.93935 0.0
H166 H 0.38593 0.62704 0.92403 0.0
H167 H 0.24689 0.66782 0.97297 0.0
H168 H 0.40411 0.75458 0.98114 0.0
H169 H 0.48698 0.7756 0.00211 0.0
H170 H 0.43078 0.79516 0.09478 0.0
H171 H 0.34757 0.77372 0.07435 0.0
C172 C 0.17892 0.84717 0.96882 0.0
C173 C 0.16271 0.87119 0.9952 0.0
C174 C 0.20323 0.81345 0.9719 0.0
C175 C 0.21214 0.80307 0.00146 0.0
C176 C 0.19562 0.82668 0.02797 0.0
C177 C 0.17052 0.86027 0.02483 0.0
C178 C 0.24056 0.7685 0.004 0.0
C179 C 0.28679 0.77786 0.01769 0.0
C180 C 0.22543 0.72795 0.98857 0.0
C181 C 0.17601 0.71589 0.975 0.0
C182 C 0.13503 0.72285 0.99316 0.0
C183 C 0.08861 0.71216 0.98018 0.0
C184 C 0.08265 0.69429 0.94908 0.0
C185 C 0.12311 0.68697 0.93092 0.0
C186 C 0.16962 0.69764 0.94378 0.0
C187 C 0.40324 0.63913 0.00274 0.0
C188 C 0.41045 0.62507 0.9711 0.0
C189 C 0.36836 0.66552 0.01152 0.0
C190 C 0.3405 0.67855 0.9888 0.0
C191 C 0.34702 0.66368 0.95734 0.0
C192 C 0.38149 0.63728 0.9486 0.0
C193 C 0.30568 0.70886 0.99705 0.0
C194 C 0.25817 0.69868 0.98533 0.0
C195 C 0.31981 0.74874 0.01408 0.0
C196 C 0.36973 0.76205 0.02628 0.0
C197 C 0.40947 0.7631 0.00601 0.0
C198 C 0.45649 0.77512 0.01779 0.0
C199 C 0.46416 0.78656 0.04977 0.0
C200 C 0.4248 0.78618 0.07002 0.0
C201 C 0.37771 0.77411 0.05836 0.0
H202 H 0.50059 0.79583 0.05886 0.0
H203 H 0.04669 0.68607 0.93907 0.0
H204 H 0.96475 0.86284 0.01731 0.0
H205 H 0.9016 0.80353 0.01963 0.0
H206 H 0.79207 0.88227 0.00972 0.0
H207 H 0.85474 0.94174 0.00865 0.0
H208 H 0.76615 0.83724 0.05271 0.0
H209 H 0.82622 0.80772 0.94852 0.0
H210 H 0.88893 0.79619 0.90892 0.0
H211 H 0.92401 0.69229 0.9508 0.0
H212 H 0.86178 0.70347 0.99084 0.0
H213 H 0.56437 0.6834 0.02173 0.0
H214 H 0.63057 0.73832 0.01466 0.0
H215 H 0.73436 0.6571 0.03116 0.0
H216 H 0.66823 0.60155 0.03742 0.0
H217 H 0.76452 0.70176 0.98541 0.0
H218 H 0.70369 0.73193 0.08948 0.0
H219 H 0.6396 0.74315 0.12816 0.0
H220 H 0.60499 0.84632 0.08519 0.0
H221 H 0.66865 0.83548 0.04609 0.0
C222 C 0.9272 0.86739 0.01548 0.0
C223 C 0.91474 0.90696 0.01279 0.0
C224 C 0.8911 0.83342 0.01665 0.0
C225 C 0.84194 0.8382 0.01446 0.0
C226 C 0.82964 0.8777 0.01152 0.0
C227 C 0.86557 0.9117 0.01083 0.0
C228 C 0.80301 0.8026 0.01613 0.0
C229 C 0.76558 0.80785 0.03766 0.0
C230 C 0.80266 0.76376 0.99711 0.0
C231 C 0.83966 0.75668 0.97283 0.0
C232 C 0.84749 0.78256 0.94938 0.0
C233 C 0.88291 0.77606 0.92684 0.0
C234 C 0.91051 0.74359 0.92739 0.0
C235 C 0.90262 0.71745 0.95042 0.0
C236 C 0.86724 0.72381 0.97301 0.0
C237 C 0.60128 0.67712 0.02368 0.0
C238 C 0.61105 0.63826 0.03046 0.0
C239 C 0.63911 0.7086 0.01972 0.0
C240 C 0.68747 0.70213 0.023 0.0
C241 C 0.69735 0.66287 0.02866 0.0
C242 C 0.6595 0.6312 0.03232 0.0
C243 C 0.72757 0.73677 0.02165 0.0
C244 C 0.76523 0.73124 1.00036 0.0
C245 C 0.72812 0.77549 0.04079 0.0
C246 C 0.6907 0.78272 0.06476 0.0
C247 C 0.68231 0.75693 0.08824 0.0
C248 C 0.64608 0.76323 0.11024 0.0
C249 C 0.61819 0.79538 0.1091 0.0
C250 C 0.62663 0.82143 0.08605 0.0
C251 C 0.66285 0.81528 0.064 0.0
H252 H 0.59007 0.80014 0.1261 0.0
H253 H 0.93796 0.73864 0.90995 0.0
H254 H 0.91685 0.17737 0.00843 0.0
H255 H 0.87058 0.23247 0.99718 0.0
H256 H 0.73876 0.16017 0.02281 0.0
H257 H 0.78453 0.10524 0.03376 0.0
H258 H 0.7287 0.19443 0.96877 0.0
H259 H 0.79213 0.23832 0.07333 0.0
H260 H 0.85714 0.25685 0.11286 0.0
H261 H 0.92253 0.355 0.06335 0.0
H262 H 0.8582 0.33666 0.02328 0.0
H263 H 0.5624 0.3387 0.9919 0.0
H264 H 0.61579 0.28743 0.99919 0.0
H265 H 0.74025 0.37616 0.98422 0.0
H266 H 0.68705 0.42805 0.97788 0.0
H267 H 0.75925 0.33544 0.0294 0.0
H268 H 0.69532 0.29562 0.92644 0.0
H269 H 0.63206 0.27769 0.88573 0.0
H270 H 0.57052 0.17276 0.92953 0.0
H271 H 0.63306 0.19039 0.97075 0.0
C272 C 0.87798 0.17317 0.01136 0.0
C273 C 0.85437 0.13717 0.02224 0.0
C274 C 0.85164 0.20471 0.00512 0.0
C275 C 0.80127 0.20054 0.00942 0.0
C276 C 0.77759 0.1641 0.01942 0.0
C277 C 0.80385 0.13288 0.02591 0.0
C278 C 0.77288 0.23422 0.00415 0.0
C279 C 0.73511 0.22519 0.98216 0.0
C280 C 0.78217 0.27467 0.021 0.0
C281 C 0.82068 0.28582 0.04514 0.0
C282 C 0.8206 0.26363 0.07074 0.0
C283 C 0.85727 0.27413 0.09327 0.0
C284 C 0.89403 0.307 0.09057 0.0
C285 C 0.89409 0.3295 0.06538 0.0
C286 C 0.85752 0.31908 0.04277 0.0
C287 C 0.60115 0.34737 0.99028 0.0
C288 C 0.62047 0.38737 0.98411 0.0
C289 C 0.63166 0.31793 0.99427 0.0
C290 C 0.68209 0.32757 0.9916 0.0
C291 C 0.70151 0.36787 0.98625 0.0
C292 C 0.67102 0.3975 0.98259 0.0
C293 C 0.71441 0.29554 0.99427 0.0
C294 C 0.75299 0.30485 0.01574 0.0
C295 C 0.70618 0.25541 0.97668 0.0
C296 C 0.66866 0.24454 0.95183 0.0
C297 C 0.66811 0.26888 0.9275 0.0
C298 C 0.63241 0.25875 0.90432 0.0
C299 C 0.59723 0.22416 0.90508 0.0
C300 C 0.59777 0.19956 0.92899 0.0
C301 C 0.63337 0.20958 0.95225 0.0
H302 H 0.56961 0.21637 0.88712 0.0
H303 H 0.92239 0.31509 0.10803 0.0
H304 H 0.55576 0.64287 0.53746 0.0
H305 H 0.61783 0.70355 0.53897 0.0
H306 H 0.71257 0.62844 0.48462 0.0
H307 H 0.65136 0.56734 0.48409 0.0
H308 H 0.762 0.67694 0.52915 0.0
H309 H 0.64566 0.69614 0.4541 0.0
H310 H 0.5635 0.70073 0.43601 0.0
H311 H 0.55654 0.80943 0.50262 0.0
H312 H 0.63784 0.80435 0.52225 0.0
H313 H 0.93218 0.84962 0.50289 0.0
H314 H 0.86976 0.78932 0.49117 0.0
H315 H 0.76864 0.85357 0.54862 0.0
H316 H 0.83025 0.91407 0.5599 0.0
H317 H 0.72398 0.80944 0.49807 0.0
H318 H 0.83337 0.78472 0.57721 0.0
H319 H 0.9133 0.77861 0.59855 0.0
H320 H 0.93221 0.6812 0.52428 0.0
H321 H 0.8526 0.68712 0.50229 0.0
C322 C 0.58982 0.63931 0.52583 0.0
C323 C 0.59862 0.60038 0.51056 0.0
C324 C 0.62522 0.67406 0.52659 0.0
C325 C 0.66963 0.67079 0.51142 0.0
C326 C 0.6786 0.6318 0.49643 0.0
C327 C 0.64353 0.59691 0.49609 0.0
C328 C 0.70691 0.70789 0.51137 0.0
C329 C 0.75381 0.70566 0.52182 0.0
C330 C 0.69612 0.7457 0.50234 0.0
C331 C 0.64782 0.74965 0.48983 0.0
C332 C 0.62656 0.7209 0.46505 0.0
C333 C 0.58008 0.72358 0.45451 0.0
C334 C 0.5549 0.7555 0.46799 0.0
C335 C 0.5761 0.78474 0.49216 0.0
C336 C 0.62233 0.78187 0.5031 0.0
C337 C 0.89642 0.85115 0.51263 0.0
C338 C 0.88637 0.88648 0.53262 0.0
C339 C 0.86085 0.81659 0.50602 0.0
C340 C 0.81478 0.81664 0.5195 0.0
C341 C 0.80394 0.85274 0.53805 0.0
C342 C 0.83934 0.88729 0.54455 0.0
C343 C 0.77873 0.77844 0.51606 0.0
C344 C 0.73213 0.7805 0.505 0.0
C345 C 0.78965 0.74047 0.52459 0.0
C346 C 0.83731 0.73667 0.53793 0.0
C347 C 0.85473 0.76219 0.56532 0.0
C348 C 0.89995 0.75874 0.57755 0.0
C349 C 0.92788 0.72962 0.56273 0.0
C350 C 0.91058 0.7038 0.5357 0.0
C351 C 0.86541 0.70717 0.52336 0.0
H352 H 0.96289 0.727 0.57222 0.0
H353 H 0.51893 0.75753 0.45974 0.0
H354 H 0.6509 0.33852 0.43983 0.0
H355 H 0.69159 0.27935 0.44827 0.0
H356 H 0.67981 0.3118 0.5476 0.0
H357 H 0.63843 0.37124 0.53913 0.0
H358 H 0.77546 0.29825 0.52516 0.0
H359 H 0.61361 0.229 0.51912 0.0
H360 H 0.53107 0.20982 0.49739 0.0
H361 H 0.58832 0.15426 0.41185 0.0
H362 H 0.67129 0.17366 0.43287 0.0
H363 H 0.89912 0.121 0.52688 0.0
H364 H 0.83761 0.16727 0.54028 0.0
H365 H 0.79401 0.15167 0.44373 0.0
H366 H 0.85378 0.10478 0.43046 0.0
H367 H 0.7174 0.15319 0.47859 0.0
H368 H 0.87628 0.23634 0.47877 0.0
H369 H 0.96049 0.25819 0.49706 0.0
H370 H 0.91032 0.28976 0.59014 0.0
H371 H 0.8258 0.26759 0.57242 0.0
C372 C 0.6568 0.33292 0.46344 0.0
C373 C 0.64171 0.35942 0.48883 0.0
C374 C 0.67972 0.29902 0.46825 0.0
C375 C 0.6884 0.29113 0.49855 0.0
C376 C 0.67317 0.31734 0.52405 0.0
C377 C 0.64942 0.35102 0.51921 0.0
C378 C 0.7156 0.25654 0.50299 0.0
C379 C 0.76238 0.26628 0.51577 0.0
C380 C 0.69866 0.21508 0.49026 0.0
C381 C 0.64874 0.20296 0.47756 0.0
C382 C 0.60864 0.21293 0.4956 0.0
C383 C 0.56176 0.20198 0.48341 0.0
C384 C 0.55445 0.18087 0.45325 0.0
C385 C 0.59403 0.17059 0.43522 0.0
C386 C 0.641 0.1815 0.44728 0.0
C387 C 0.87592 0.12705 0.50863 0.0
C388 C 0.8816 0.10949 0.47756 0.0
C389 C 0.84093 0.15361 0.51629 0.0
C390 C 0.8116 0.16344 0.49294 0.0
C391 C 0.81608 0.14456 0.46219 0.0
C392 C 0.85055 0.11784 0.4546 0.0
C393 C 0.77811 0.19513 0.49958 0.0
C394 C 0.73008 0.18488 0.48885 0.0
C395 C 0.79416 0.23626 0.51379 0.0
C396 C 0.84486 0.24982 0.52437 0.0
C397 C 0.88327 0.24768 0.50317 0.0
C398 C 0.93102 0.26015 0.51343 0.0
C399 C 0.94076 0.27521 0.54476 0.0
C400 C 0.90273 0.27798 0.56589 0.0
C401 C 0.85491 0.26547 0.55576 0.0
H402 H 0.97775 0.28484 0.55266 0.0
H403 H 0.51813 0.17244 0.44385 0.0
H404 H 0.33689 0.43558 0.51151 0.0
H405 H 0.27441 0.37587 0.51223 0.0
H406 H 0.38216 0.29277 0.49525 0.0
H407 H 0.4452 0.3526 0.49408 0.0
H408 H 0.29809 0.26351 0.46124 0.0
H409 H 0.34222 0.31528 0.56743 0.0
H410 H 0.35801 0.36898 0.61319 0.0
H411 H 0.21088 0.39367 0.6108 0.0
H412 H 0.19441 0.34053 0.56471 0.0
H413 H 0.15511 0.08845 0.51605 0.0
H414 H 0.21791 0.14485 0.50591 0.0
H415 H 0.11564 0.23281 0.52378 0.0
H416 H 0.05276 0.17673 0.53405 0.0
H417 H 0.19867 0.25827 0.55664 0.0
H418 H 0.15374 0.20573 0.45099 0.0
H419 H 0.13786 0.15269 0.40484 0.0
H420 H 0.28551 0.12917 0.40588 0.0
H421 H 0.30212 0.18162 0.45237 0.0
C422 C 0.34742 0.40464 0.50776 0.0
C423 C 0.39616 0.3989 0.50299 0.0
C424 C 0.3116 0.37051 0.50822 0.0
C425 C 0.3237 0.32989 0.5042 0.0
C426 C 0.37206 0.32387 0.49846 0.0
C427 C 0.40804 0.35809 0.49793 0.0
C428 C 0.28597 0.29404 0.50732 0.0
C429 C 0.27675 0.26199 0.48223 0.0
C430 C 0.25755 0.29252 0.53451 0.0
C431 C 0.26721 0.32418 0.56245 0.0
C432 C 0.31332 0.33236 0.57653 0.0
C433 C 0.32239 0.36267 0.60255 0.0
C434 C 0.2855 0.38478 0.61485 0.0
C435 C 0.23943 0.37654 0.60122 0.0
C436 C 0.2302 0.34631 0.57517 0.0
C437 C 0.14585 0.11973 0.51751 0.0
C438 C 0.099 0.12814 0.52605 0.0
C439 C 0.18174 0.1519 0.51157 0.0
C440 C 0.17144 0.19302 0.51402 0.0
C441 C 0.1244 0.20131 0.52181 0.0
C442 C 0.08848 0.16918 0.52762 0.0
C443 C 0.2103 0.22783 0.51044 0.0
C444 C 0.21991 0.25968 0.53559 0.0
C445 C 0.23896 0.22902 0.48332 0.0
C446 C 0.22904 0.19732 0.45541 0.0
C447 C 0.18272 0.18897 0.44158 0.0
C448 C 0.1736 0.15907 0.41531 0.0
C449 C 0.21061 0.13751 0.40249 0.0
C450 C 0.25685 0.14586 0.41587 0.0
C451 C 0.26615 0.17569 0.44218 0.0
H452 H 0.20348 0.11439 0.38215 0.0
H453 H 0.29259 0.40825 0.63499 0.0
H454 H 0.3602 0.66918 0.57178 0.0
H455 H 0.31327 0.72483 0.56359 0.0
H456 H 0.28514 0.66819 0.46846 0.0
H457 H 0.33498 0.61408 0.47638 0.0
H458 H 0.29468 0.74609 0.46881 0.0
H459 H 0.20113 0.65557 0.53112 0.0
H460 H 0.18332 0.61582 0.57527 0.0
H461 H 0.20261 0.72936 0.63903 0.0
H462 H 0.22118 0.76976 0.59526 0.0
H463 H 0.07204 0.83119 0.45408 0.0
H464 H 0.12683 0.78119 0.4625 0.0
H465 H 0.20099 0.86987 0.53483 0.0
H466 H 0.14718 0.92066 0.52596 0.0
H467 H 0.16743 0.77738 0.54602 0.0
H468 H 0.25982 0.86614 0.4785 0.0
H469 H 0.27 0.90098 0.43141 0.0
H470 H 0.24239 0.78261 0.37383 0.0
H471 H 0.23128 0.74712 0.42064 0.0
C472 C 0.3444 0.66915 0.54908 0.0
C473 C 0.35073 0.63752 0.52473 0.0
C474 C 0.31726 0.70063 0.54443 0.0
C475 C 0.29427 0.70012 0.51566 0.0
C476 C 0.3022 0.66925 0.49093 0.0
C477 C 0.33059 0.63839 0.49537 0.0
C478 C 0.26108 0.73105 0.51167 0.0
C479 C 0.26663 0.75249 0.48561 0.0
C480 C 0.22435 0.73982 0.53356 0.0
C481 C 0.21302 0.71564 0.55994 0.0
C482 C 0.20189 0.67203 0.55457 0.0
C483 C 0.19162 0.64939 0.57952 0.0
C484 C 0.19196 0.67004 0.60994 0.0
C485 C 0.20243 0.7134 0.61546 0.0
C486 C 0.2128 0.73619 0.59059 0.0
C487 C 0.09982 0.83998 0.47192 0.0
C488 C 0.10543 0.87984 0.48935 0.0
C489 C 0.13112 0.81146 0.47659 0.0
C490 C 0.16792 0.82207 0.49914 0.0
C491 C 0.17277 0.86131 0.51727 0.0
C492 C 0.14212 0.89021 0.51215 0.0
C493 C 0.20161 0.79216 0.5035 0.0
C494 C 0.19582 0.77087 0.52948 0.0
C495 C 0.23716 0.78274 0.48118 0.0
C496 C 0.24418 0.80404 0.45306 0.0
C497 C 0.25543 0.84758 0.4558 0.0
C498 C 0.26148 0.86744 0.42916 0.0
C499 C 0.2567 0.84403 0.39964 0.0
C500 C 0.246 0.8007 0.39671 0.0
C501 C 0.23987 0.78071 0.42328 0.0
H502 H 0.26141 0.85946 0.37904 0.0
H503 H 0.184 0.65246 0.62923 0.0
H504 H 0.07651 0.95469 0.09921 0.0
H505 H 0.08855 0.95526 0.15522 0.0
H506 H 0.01749 0.06491 0.17437 0.0
H507 H 0.00446 0.06417 0.11852 0.0
H508 H 0.10801 0.06632 0.20914 0.0
H509 H 0.95362 0.98096 0.18297 0.0
H510 H 0.9011 0.92274 0.15295 0.0
H511 H 0.98742 0.83589 0.1825 0.0
H512 H 0.04093 0.89374 0.21232 0.0
H513 H 0.04107 0.07682 0.36684 0.0
H514 H 0.04829 0.07513 0.31067 0.0
H515 H 0.08178 0.94917 0.30227 0.0
H516 H 0.07259 0.9501 0.35854 0.0
H517 H 0.0183 0.95299 0.26075 0.0
H518 H 0.16851 0.03487 0.2909 0.0
H519 H 0.2232 0.09142 0.32101 0.0
H520 H 0.1513 0.18228 0.284 0.0
H521 H 0.09567 0.12627 0.25399 0.0
C522 C 0.06365 0.97903 0.11535 0.0
C523 C 0.03934 0.00928 0.1045 0.0
C524 C 0.07057 0.9793 0.14728 0.0
C525 C 0.05392 0.01015 0.16882 0.0
C526 C 0.03074 0.04097 0.15805 0.0
C527 C 0.02308 0.04033 0.12618 0.0
C528 C 0.05861 0.00927 0.20269 0.0
C529 C 0.08825 0.04176 0.22057 0.0
C530 C 0.03398 0.97648 0.21726 0.0
C531 C 0.0016 0.9417 0.19956 0.0
C532 C 0.96166 0.94948 0.18282 0.0
C533 C 0.93166 0.91655 0.16589 0.0
C534 C 0.94101 0.87565 0.16573 0.0
C535 C 0.98028 0.8676 0.18259 0.0
C536 C 0.01044 0.90044 0.19952 0.0
C537 C 0.05064 0.04892 0.35314 0.0
C538 C 0.05618 0.01355 0.36718 0.0
C539 C 0.05501 0.04806 0.32095 0.0
C540 C 0.06617 0.01218 0.30214 0.0
C541 C 0.07311 0.97721 0.31624 0.0
C542 C 0.06802 0.97783 0.34843 0.0
C543 C 0.06747 0.0104 0.26767 0.0
C544 C 0.0388 0.97739 0.24952 0.0
C545 C 0.09364 0.04245 0.25284 0.0
C546 C 0.12766 0.07632 0.27035 0.0
C547 C 0.16417 0.06691 0.2893 0.0
C548 C 0.19536 0.09887 0.30635 0.0
C549 C 0.19064 0.14042 0.30449 0.0
C550 C 0.15488 0.15008 0.28544 0.0
C551 C 0.12355 0.11823 0.26836 0.0
H552 H 0.21474 0.16511 0.31778 0.0
H553 H 0.91774 0.85019 0.15261 0.0
H554 H 0.03578 0.96073 0.90854 0.0
H555 H 0.0378 0.96826 0.8534 0.0
H556 H 0.95527 0.07119 0.87116 0.0
H557 H 0.95228 0.06335 0.9267 0.0
H558 H 0.92611 0.02021 0.81752 0.0
H559 H 0.0759 0.08933 0.86279 0.0
H560 H 0.15026 0.09553 0.89431 0.0
H561 H 0.19971 0.9961 0.83263 0.0
H562 H 0.12517 0.98853 0.80114 0.0
H563 H 0.97961 0.07431 0.66603 0.0
H564 H 0.97608 0.08025 0.72284 0.0
H565 H 0.05837 0.97752 0.72105 0.0
H566 H 0.06271 0.97173 0.6644 0.0
H567 H 0.0877 0.03787 0.76811 0.0
H568 H 0.93496 0.96343 0.72715 0.0
H569 H 0.85949 0.95425 0.69639 0.0
H570 H 0.81589 0.06299 0.75016 0.0
H571 H 0.89146 0.07311 0.78099 0.0
C572 C 0.01761 0.98476 0.90076 0.0
C573 C 0.99419 0.01168 0.92204 0.0
C574 C 0.01902 0.98914 0.86922 0.0
C575 C 0.99765 0.02089 0.85829 0.0
C576 C 0.9723 0.04668 0.87918 0.0
C577 C 0.97059 0.04213 0.91086 0.0
C578 C 0.00312 0.02747 0.82516 0.0
C579 C 0.96144 0.02488 0.80682 0.0
C580 C 0.04927 0.03304 0.81115 0.0
C581 C 0.09473 0.03819 0.82968 0.0
C582 C 0.10249 0.06862 0.85602 0.0
C583 C 0.14467 0.07239 0.87389 0.0
C584 C 0.17966 0.04627 0.86546 0.0
C585 C 0.17258 0.01633 0.83912 0.0
C586 C 0.13036 0.01228 0.82125 0.0
C587 C 0.99742 0.05326 0.67773 0.0
C588 C 0.02116 0.02233 0.6606 0.0
C589 C 0.99517 0.05659 0.71021 0.0
C590 C 0.01633 0.02892 0.72616 0.0
C591 C 0.04168 0.99915 0.70923 0.0
C592 C 0.04402 0.99582 0.6768 0.0
C593 C 0.01068 0.0297 0.76033 0.0
C594 C 0.05238 0.03378 0.77889 0.0
C595 C 0.96459 0.02548 0.77453 0.0
C596 C 0.91908 0.0193 0.75612 0.0
C597 C 0.90944 0.98556 0.73225 0.0
C598 C 0.86662 0.98016 0.71484 0.0
C599 C 0.83298 0.00809 0.72126 0.0
C600 C 0.84202 0.04142 0.74518 0.0
C601 C 0.88482 0.047 0.76264 0.0
H602 H 0.79985 0.00386 0.70775 0.0
H603 H 0.21228 0.04923 0.87934 0.0
H604 H 0.4548 0.51431 0.61197 0.0
H605 H 0.4692 0.51424 0.66731 0.0
H606 H 0.60748 0.47201 0.64662 0.0
H607 H 0.59235 0.47046 0.59088 0.0
H608 H 0.56711 0.43397 0.69087 0.0
H609 H 0.59815 0.57557 0.67436 0.0
H610 H 0.58231 0.64027 0.65551 0.0
H611 H 0.45752 0.64435 0.7142 0.0
H612 H 0.4722 0.57931 0.73307 0.0
H613 H 0.60244 0.55927 0.86058 0.0
H614 H 0.60792 0.55547 0.80399 0.0
H615 H 0.51101 0.43974 0.7936 0.0
H616 H 0.507 0.44255 0.85009 0.0
H617 H 0.54404 0.55993 0.7641 0.0
H618 H 0.5265 0.38051 0.72602 0.0
H619 H 0.55293 0.31893 0.74428 0.0
H620 H 0.67123 0.39648 0.79439 0.0
H621 H 0.64594 0.45844 0.77609 0.0
C622 C 0.48825 0.50491 0.61916 0.0
C623 C 0.52264 0.49274 0.59708 0.0
C624 C 0.49655 0.50506 0.65085 0.0
C625 C 0.53992 0.49402 0.66125 0.0
C626 C 0.57385 0.48085 0.63919 0.0
C627 C 0.56522 0.48007 0.60736 0.0
C628 C 0.54971 0.49663 0.69515 0.0
C629 C 0.56224 0.46155 0.7069 0.0
C630 C 0.54489 0.53304 0.71604 0.0
C631 C 0.5361 0.57239 0.70497 0.0
C632 C 0.56716 0.59012 0.68311 0.0
C633 C 0.5584 0.62687 0.67243 0.0
C634 C 0.51888 0.64637 0.68361 0.0
C635 C 0.48811 0.6292 0.70555 0.0
C636 C 0.49666 0.59242 0.71627 0.0
C637 C 0.58284 0.53272 0.84622 0.0
C638 C 0.5543 0.50119 0.85982 0.0
C639 C 0.5859 0.53063 0.81385 0.0
C640 C 0.56019 0.49718 0.7944 0.0
C641 C 0.53211 0.46541 0.80799 0.0
C642 C 0.52962 0.46716 0.84035 0.0
C643 C 0.56017 0.49685 0.76003 0.0
C644 C 0.54938 0.53241 0.74815 0.0
C645 C 0.56825 0.46137 0.73902 0.0
C646 C 0.58403 0.42418 0.74988 0.0
C647 C 0.55828 0.38441 0.74081 0.0
C648 C 0.57304 0.34943 0.7512 0.0
C649 C 0.61365 0.35381 0.77055 0.0
C650 C 0.63968 0.39315 0.77949 0.0
C651 C 0.6251 0.42822 0.76915 0.0
H652 H 0.62499 0.3267 0.77859 0.0
H653 H 0.51216 0.67481 0.67531 0.0
H654 H 0.52422 0.46148 0.40138 0.0
H655 H 0.52144 0.46921 0.34647 0.0
H656 H 0.42738 0.56358 0.36681 0.0
H657 H 0.43045 0.55635 0.42239 0.0
H658 H 0.44869 0.45683 0.30561 0.0
H659 H 0.45411 0.63393 0.31136 0.0
H660 H 0.48269 0.69952 0.34503 0.0
H661 H 0.59011 0.64024 0.38544 0.0
H662 H 0.56267 0.57444 0.35165 0.0
H663 H 0.45868 0.57566 0.16084 0.0
H664 H 0.44587 0.57543 0.21681 0.0
H665 H 0.5407 0.48176 0.21675 0.0
H666 H 0.55334 0.48142 0.16098 0.0
H667 H 0.5063 0.59099 0.26735 0.0
H668 H 0.49521 0.4118 0.26363 0.0
H669 H 0.46984 0.34822 0.22695 0.0
H670 H 0.37356 0.41284 0.18116 0.0
H671 H 0.39774 0.4766 0.21785 0.0
C672 C 0.50271 0.48382 0.3943 0.0
C673 C 0.4776 0.50837 0.41633 0.0
C674 C 0.50109 0.48812 0.3628 0.0
C675 C 0.47453 0.51717 0.3525 0.0
C676 C 0.44859 0.54129 0.37429 0.0
C677 C 0.45013 0.53696 0.40599 0.0
C678 C 0.47482 0.52183 0.3189 0.0
C679 C 0.46151 0.48615 0.29727 0.0
C680 C 0.49002 0.56035 0.30796 0.0
C681 C 0.50586 0.59914 0.32926 0.0
C682 C 0.48373 0.63487 0.3275 0.0
C683 C 0.49979 0.67208 0.34654 0.0
C684 C 0.53814 0.67402 0.36735 0.0
C685 C 0.56031 0.63864 0.36934 0.0
C686 C 0.54445 0.60134 0.35029 0.0
C687 C 0.47713 0.55525 0.17279 0.0
C688 C 0.50676 0.52832 0.15636 0.0
C689 C 0.46975 0.55518 0.20477 0.0
C690 C 0.49159 0.52802 0.22079 0.0
C691 C 0.52269 0.50236 0.2047 0.0
C692 C 0.53009 0.5024 0.17282 0.0
C693 C 0.48159 0.5258 0.25425 0.0
C694 C 0.49283 0.56184 0.27574 0.0
C695 C 0.46432 0.48766 0.26511 0.0
C696 C 0.44865 0.44911 0.24337 0.0
C697 C 0.46841 0.41238 0.24586 0.0
C698 C 0.45427 0.37631 0.22504 0.0
C699 C 0.42022 0.37652 0.20168 0.0
C700 C 0.40006 0.41275 0.1992 0.0
C701 C 0.41401 0.44888 0.21999 0.0
H702 H 0.40942 0.3486 0.18554 0.0
H703 H 0.55083 0.70304 0.38174 0.0
loop_
_geom_bond_atom_site_label_1
_geom_bond_atom_site_label_2
_geom_bond_distance
_geom_bond_site_symmetry_2
_ccdc_geom_bond_type
Co0 N5 2.057 1_554 S
Co0 O17 2.021 . S
Co0 O20 2.062 1_455 S
Co0 O24 2.117 1_554 S
Co0 O25 2.020 1_565 S
C1 O21 1.272 . S
C1 O24 1.248 1_645 S
Co2 N11 2.057 . S
Co2 O18 2.117 . S
Co2 O19 2.020 1_545 S
Co2 O21 2.021 1_554 S
Co2 O26 2.062 1_655 S
C3 N5 1.316 1_554 S
C3 N6 1.334 1_554 S
C3 H8 0.931 . S
C4 N5 1.375 . S
C4 C7 1.350 . S
C4 H9 0.930 . S
N5 Co0 2.057 1_556 S
N5 C3 1.316 1_556 S
N5 C4 1.375 . S
N6 C3 1.334 1_556 S
N6 C7 1.402 . S
C7 C4 1.350 . S
C7 N6 1.402 . S
C7 H28 0.931 . S
H8 C3 0.931 . S
H9 C4 0.930 . S
C10 O17 1.259 1_545 S
C10 O18 1.258 1_455 S
N11 Co2 2.057 . S
N11 C12 1.316 . S
N11 C13 1.375 . S
C12 N11 1.316 . S
C12 N14 1.347 . S
C12 H23 0.931 1_554 S
C13 N11 1.375 . S
C13 C15 1.350 . S
C13 H22 0.930 . S
N14 C12 1.347 . S
N14 C15 1.373 . S
C15 C13 1.350 . S
C15 N14 1.373 . S
C15 H29 0.931 . S
C16 O19 1.256 . S
C16 O20 1.255 . S
O17 Co0 2.021 . S
O17 C10 1.259 1_565 S
O18 Co2 2.117 . S
O18 C10 1.258 1_655 S
O19 Co2 2.020 1_565 S
O19 C16 1.256 . S
O20 Co0 2.062 1_655 S
O20 C16 1.255 . S
O21 C1 1.272 . S
O21 Co2 2.021 1_556 S
H22 C13 0.930 . S
H23 C12 0.931 1_556 S
O24 Co0 2.117 1_556 S
O24 C1 1.248 1_465 S
O25 Co0 2.020 1_545 S
O25 C27 1.256 . S
O26 Co2 2.062 1_455 S
O26 C27 1.255 . S
C27 O25 1.256 . S
C27 O26 1.255 . S
H28 C7 0.931 . S
H29 C15 0.931 . S
Co30 N35 2.057 . S
Co30 O47 2.021 . S
Co30 O50 2.062 . S
Co30 O54 2.117 . S
Co30 O55 2.020 . S
C31 O51 1.259 . S
C31 O54 1.258 . S
Co32 N41 2.057 . S
Co32 O48 2.117 . S
Co32 O49 2.020 . S
Co32 O51 2.021 . S
Co32 O56 2.062 . S
C33 N35 1.316 . S
C33 N36 1.347 . S
C33 H38 0.931 . S
C34 N35 1.375 . S
C34 C37 1.350 . S
C34 H39 0.930 . S
N35 Co30 2.057 . S
N35 C33 1.316 . S
N35 C34 1.375 . S
N36 C33 1.347 . S
N36 C37 1.373 . S
C37 C34 1.350 . S
C37 N36 1.373 . S
C37 H58 0.931 . S
H38 C33 0.931 . S
H39 C34 0.930 . S
C40 O47 1.259 . S
C40 O48 1.258 . S
N41 Co32 2.057 . S
N41 C42 1.316 . S
N41 C43 1.375 . S
C42 N41 1.316 . S
C42 N44 1.347 . S
C42 H53 0.931 . S
C43 N41 1.375 . S
C43 C45 1.350 . S
C43 H52 0.930 . S
N44 C42 1.347 . S
N44 C45 1.373 . S
C45 C43 1.350 . S
C45 N44 1.373 . S
C45 H59 0.931 . S
C46 O49 1.256 . S
C46 O50 1.255 . S
O47 Co30 2.021 . S
O47 C40 1.259 . S
O48 Co32 2.117 . S
O48 C40 1.258 . S
O49 Co32 2.020 . S
O49 C46 1.256 . S
O50 Co30 2.062 . S
O50 C46 1.255 . S
O51 C31 1.259 . S
O51 Co32 2.021 . S
H52 C43 0.930 . S
H53 C42 0.931 . S
O54 Co30 2.117 . S
O54 C31 1.258 . S
O55 Co30 2.020 . S
O55 C57 1.256 . S
O56 Co32 2.062 . S
O56 C57 1.255 . S
C57 O55 1.256 . S
C57 O56 1.255 . S
H58 C37 0.931 . S
H59 C45 0.931 . S
O60 Cd61 2.300 . S
O60 C67 1.275 1_565 S
Cd61 O60 2.300 . S
Cd61 O69 2.381 . S
Cd61 O70 2.378 . S
O62 Cd63 2.385 . S
O62 C67 1.255 . S
Cd63 O62 2.385 . S
Cd63 O64 2.317 1_455 S
O64 Cd63 2.317 1_655 S
O64 C65 1.232 . S
C65 O64 1.232 . S
C65 O66 1.218 . S
O66 C65 1.218 . S
C67 O60 1.275 1_545 S
C67 O62 1.255 . S
C68 O69 1.258 . S
C68 O70 1.256 . S
O69 Cd61 2.381 . S
O69 C68 1.258 . S
O70 Cd61 2.378 . S
O70 C68 1.256 . S
O71 Cd72 2.300 . S
O71 C78 1.277 . S
Cd72 O71 2.300 . S
Cd72 O80 2.381 . S
Cd72 O81 2.378 . S
O73 Cd74 2.385 . S
O73 C78 1.254 1_565 S
Cd74 O73 2.385 . S
Cd74 O75 2.317 1_455 S
O75 Cd74 2.317 1_655 S
O75 C76 1.232 . S
C76 O75 1.232 . S
C76 O77 1.218 . S
O77 C76 1.218 . S
C78 O71 1.277 . S
C78 O73 1.254 1_545 S
C79 O80 1.258 . S
C79 O81 1.256 . S
O80 Cd72 2.381 . S
O80 C79 1.258 . S
O81 Cd72 2.378 . S
O81 C79 1.256 . S
O82 Cd83 2.300 . S
O82 C89 1.275 . S
Cd83 O82 2.300 . S
Cd83 O91 2.381 . S
Cd83 O92 2.378 . S
O84 Cd85 2.385 . S
O84 C89 1.255 . S
Cd85 O84 2.385 . S
Cd85 O86 2.317 . S
O86 Cd85 2.317 . S
O86 C87 1.232 . S
C87 O86 1.232 . S
C87 O88 1.218 . S
O88 C87 1.218 . S
C89 O82 1.275 . S
C89 O84 1.255 . S
C90 O91 1.258 . S
C90 O92 1.256 . S
O91 Cd83 2.381 . S
O91 C90 1.258 . S
O92 Cd83 2.378 . S
O92 C90 1.256 . S
O93 Cd94 2.300 . S
O93 C100 1.275 . S
Cd94 O93 2.300 . S
Cd94 O102 2.381 . S
Cd94 O103 2.378 . S
O95 Cd96 2.385 . S
O95 C100 1.255 . S
Cd96 O95 2.385 . S
Cd96 O97 2.317 . S
O97 Cd96 2.317 . S
O97 C98 1.232 . S
C98 O97 1.232 . S
C98 O99 1.218 . S
O99 C98 1.218 . S
C100 O93 1.275 . S
C100 O95 1.255 . S
C101 O102 1.258 . S
C101 O103 1.256 . S
O102 Cd94 2.381 . S
O102 C101 1.258 . S
O103 Cd94 2.378 . S
O103 C101 1.256 . S
H104 C122 0.951 . S
H105 C124 0.951 . S
H106 C126 0.950 . S
H107 C127 0.950 . S
H108 C129 0.950 . S
H109 C132 0.950 . S
H110 C133 0.950 . S
H111 C135 0.950 . S
H112 C136 0.950 . S
H113 C137 0.951 . S
H114 C139 0.951 . S
H115 C141 0.950 . S
H116 C142 0.950 . S
H117 C144 0.950 1_556 S
H118 C147 0.950 . S
H119 C148 0.950 . S
H120 C150 0.950 . S
H121 C151 0.950 . S
C122 H104 0.951 . S
C122 C123 1.366 . S
C122 C124 1.388 . S
C123 C122 1.366 . S
C123 C127 1.385 . S
C124 H105 0.951 . S
C124 C122 1.388 . S
C124 C125 1.366 . S
C125 C124 1.366 . S
C125 C126 1.414 . S
C125 C128 1.499 . S
C126 H106 0.950 . S
C126 C125 1.414 . S
C126 C127 1.374 . S
C127 H107 0.950 . S
C127 C123 1.385 . S
C127 C126 1.374 . S
C128 C125 1.499 . S
C128 C129 1.373 . S
C128 C130 1.389 . S
C129 H108 0.950 . S
C129 C128 1.373 . S
C129 C145 1.377 . S
C130 C128 1.389 . S
C130 C131 1.524 1_554 S
C130 C144 1.377 . S
C131 C130 1.524 1_556 S
C131 C132 1.397 . S
C131 C136 1.363 . S
C132 H109 0.950 . S
C132 C131 1.397 . S
C132 C133 1.334 . S
C133 H110 0.950 . S
C133 C132 1.334 . S
C133 C134 1.287 . S
C134 C133 1.287 . S
C134 C135 1.524 . S
C134 H153 0.913 . S
C135 H111 0.950 . S
C135 C134 1.524 . S
C135 C136 1.415 . S
C136 H112 0.950 . S
C136 C131 1.363 . S
C136 C135 1.415 . S
C137 H113 0.951 . S
C137 C138 1.366 . S
C137 C139 1.388 . S
C138 C137 1.366 . S
C138 C142 1.385 . S
C139 H114 0.951 . S
C139 C137 1.388 . S
C139 C140 1.366 . S
C140 C139 1.366 . S
C140 C141 1.414 . S
C140 C143 1.499 . S
C141 H115 0.950 . S
C141 C140 1.414 . S
C141 C142 1.374 . S
C142 H116 0.950 . S
C142 C138 1.385 . S
C142 C141 1.374 . S
C143 C140 1.499 . S
C143 C144 1.373 . S
C143 C145 1.389 . S
C144 H117 0.950 1_554 S
C144 C130 1.377 . S
C144 C143 1.373 . S
C145 C129 1.377 . S
C145 C143 1.389 . S
C145 C146 1.524 . S
C146 C145 1.524 . S
C146 C147 1.397 . S
C146 C151 1.363 . S
C147 H118 0.950 . S
C147 C146 1.397 . S
C147 C148 1.334 . S
C148 H119 0.950 . S
C148 C147 1.334 . S
C148 C149 1.287 . S
C149 C148 1.287 . S
C149 C150 1.524 . S
C149 H152 0.999 . S
C150 H120 0.950 . S
C150 C149 1.524 . S
C150 C151 1.415 . S
C151 H121 0.950 . S
C151 C146 1.363 . S
C151 C150 1.415 . S
H152 C149 0.999 . S
H153 C134 0.913 . S
H154 C172 0.951 . S
H155 C174 0.951 . S
H156 C176 0.950 . S
H157 C177 0.950 . S
H158 C179 0.950 . S
H159 C182 0.950 . S
H160 C183 0.950 . S
H161 C185 0.950 . S
H162 C186 0.950 . S
H163 C187 0.951 . S
H164 C189 0.951 . S
H165 C191 0.950 . S
H166 C192 0.950 . S
H167 C194 0.950 . S
H168 C197 0.950 . S
H169 C198 0.950 . S
H170 C200 0.950 . S
H171 C201 0.950 . S
C172 H154 0.951 . S
C172 C173 1.366 1_556 S
C172 C174 1.388 . S
C173 C172 1.366 1_554 S
C173 C177 1.385 . S
C174 H155 0.951 . S
C174 C172 1.388 . S
C174 C175 1.366 . S
C175 C174 1.366 . S
C175 C176 1.414 1_556 S
C175 C178 1.499 . S
C176 H156 0.950 . S
C176 C175 1.414 1_554 S
C176 C177 1.374 . S
C177 H157 0.950 . S
C177 C173 1.385 . S
C177 C176 1.374 . S
C178 C175 1.499 . S
C178 C179 1.373 1_556 S
C178 C180 1.389 . S
C179 H158 0.950 . S
C179 C178 1.373 1_554 S
C179 C195 1.377 . S
C180 C178 1.389 . S
C180 C181 1.524 . S
C180 C194 1.377 . S
C181 C180 1.524 . S
C181 C182 1.397 . S
C181 C186 1.363 . S
C182 H159 0.950 . S
C182 C181 1.397 . S
C182 C183 1.334 . S
C183 H160 0.950 . S
C183 C182 1.334 . S
C183 C184 1.287 . S
C184 C183 1.287 . S
C184 C185 1.524 . S
C184 H203 0.913 . S
C185 H161 0.950 . S
C185 C184 1.524 . S
C185 C186 1.415 . S
C186 H162 0.950 . S
C186 C181 1.363 . S
C186 C185 1.415 . S
C187 H163 0.951 . S
C187 C188 1.366 1_554 S
C187 C189 1.388 . S
C188 C187 1.366 1_556 S
C188 C192 1.385 . S
C189 H164 0.951 . S
C189 C187 1.388 . S
C189 C190 1.366 1_554 S
C190 C189 1.366 1_556 S
C190 C191 1.414 . S
C190 C193 1.499 . S
C191 H165 0.950 . S
C191 C190 1.414 . S
C191 C192 1.374 . S
C192 H166 0.950 . S
C192 C188 1.385 . S
C192 C191 1.374 . S
C193 C190 1.499 . S
C193 C194 1.373 . S
C193 C195 1.389 1_556 S
C194 H167 0.950 . S
C194 C180 1.377 . S
C194 C193 1.373 . S
C195 C179 1.377 . S
C195 C193 1.389 1_554 S
C195 C196 1.524 . S
C196 C195 1.524 . S
C196 C197 1.397 . S
C196 C201 1.363 . S
C197 H168 0.950 . S
C197 C196 1.397 . S
C197 C198 1.334 . S
C198 H169 0.950 . S
C198 C197 1.334 . S
C198 C199 1.287 . S
C199 C198 1.287 . S
C199 C200 1.524 . S
C199 H202 0.999 . S
C200 H170 0.950 . S
C200 C199 1.524 . S
C200 C201 1.415 . S
C201 H171 0.950 . S
C201 C196 1.363 . S
C201 C200 1.415 . S
H202 C199 0.999 . S
H203 C184 0.913 . S
H204 C222 0.951 . S
H205 C224 0.951 . S
H206 C226 0.950 . S
H207 C227 0.944 1_556 S
H208 C229 0.950 . S
H209 C232 0.950 . S
H210 C233 0.950 . S
H211 C235 0.950 . S
H212 C236 0.950 . S
H213 C237 0.951 . S
H214 C239 0.951 . S
H215 C241 0.950 . S
H216 C242 0.950 . S
H217 C244 0.950 1_556 S
H218 C247 0.950 . S
H219 C248 0.950 . S
H220 C250 0.950 . S
H221 C251 0.950 . S
C222 H204 0.951 . S
C222 C223 1.366 . S
C222 C224 1.388 . S
C223 C222 1.366 . S
C223 C227 1.385 . S
C224 H205 0.951 . S
C224 C222 1.388 . S
C224 C225 1.366 . S
C225 C224 1.366 . S
C225 C226 1.414 . S
C225 C228 1.499 . S
C226 H206 0.950 . S
C226 C225 1.414 . S
C226 C227 1.374 . S
C227 H207 0.944 1_554 S
C227 C223 1.385 . S
C227 C226 1.374 . S
C228 C225 1.499 . S
C228 C229 1.373 . S
C228 C230 1.389 1_554 S
C229 H208 0.950 . S
C229 C228 1.373 . S
C229 C245 1.377 . S
C230 C228 1.389 1_556 S
C230 C231 1.524 . S
C230 C244 1.377 1_556 S
C231 C230 1.524 . S
C231 C232 1.397 . S
C231 C236 1.363 . S
C232 H209 0.950 . S
C232 C231 1.397 . S
C232 C233 1.334 . S
C233 H210 0.950 . S
C233 C232 1.334 . S
C233 C234 1.287 . S
C234 C233 1.287 . S
C234 C235 1.524 . S
C234 H253 0.913 . S
C235 H211 0.950 . S
C235 C234 1.524 . S
C235 C236 1.415 . S
C236 H212 0.950 . S
C236 C231 1.363 . S
C236 C235 1.415 . S
C237 H213 0.951 . S
C237 C238 1.366 . S
C237 C239 1.388 . S
C238 C237 1.366 . S
C238 C242 1.385 . S
C239 H214 0.951 . S
C239 C237 1.388 . S
C239 C240 1.366 . S
C240 C239 1.366 . S
C240 C241 1.414 . S
C240 C243 1.499 . S
C241 H215 0.950 . S
C241 C240 1.414 . S
C241 C242 1.374 . S
C242 H216 0.950 . S
C242 C238 1.385 . S
C242 C241 1.374 . S
C243 C240 1.499 . S
C243 C244 1.373 . S
C243 C245 1.389 . S
C244 H217 0.950 1_554 S
C244 C230 1.377 1_554 S
C244 C243 1.373 . S
C245 C229 1.377 . S
C245 C243 1.389 . S
C245 C246 1.524 . S
C246 C245 1.524 . S
C246 C247 1.397 . S
C246 C251 1.363 . S
C247 H218 0.950 . S
C247 C246 1.397 . S
C247 C248 1.334 . S
C248 H219 0.950 . S
C248 C247 1.334 . S
C248 C249 1.287 . S
C249 C248 1.287 . S
C249 C250 1.524 . S
C249 H252 0.999 . S
C250 H220 0.950 . S
C250 C249 1.524 . S
C250 C251 1.415 . S
C251 H221 0.950 . S
C251 C246 1.363 . S
C251 C250 1.415 . S
H252 C249 0.999 . S
H253 C234 0.913 . S
H254 C272 0.952 . S
H255 C274 0.951 . S
H256 C276 0.950 . S
H257 C277 0.950 . S
H258 C279 0.950 . S
H259 C282 0.950 . S
H260 C283 0.950 . S
H261 C285 0.950 . S
H262 C286 0.950 . S
H263 C287 0.951 1_554 S
H264 C289 0.939 1_554 S
H265 C291 0.950 . S
H266 C292 0.950 . S
H267 C294 0.950 . S
H268 C297 0.950 . S
H269 C298 0.950 . S
H270 C300 0.950 . S
H271 C301 0.950 . S
C272 H254 0.952 . S
C272 C273 1.363 1_556 S
C272 C274 1.389 . S
C273 C272 1.363 1_554 S
C273 C277 1.385 . S
C274 H255 0.951 . S
C274 C272 1.389 . S
C274 C275 1.366 1_556 S
C275 C274 1.366 1_554 S
C275 C276 1.414 . S
C275 C278 1.499 . S
C276 H256 0.950 . S
C276 C275 1.414 . S
C276 C277 1.374 . S
C277 H257 0.950 . S
C277 C273 1.385 . S
C277 C276 1.374 . S
C278 C275 1.499 . S
C278 C279 1.373 1_554 S
C278 C280 1.389 . S
C279 H258 0.950 . S
C279 C278 1.373 1_556 S
C279 C295 1.377 . S
C280 C278 1.389 . S
C280 C281 1.524 . S
C280 C294 1.377 . S
C281 C280 1.524 . S
C281 C282 1.397 . S
C281 C286 1.363 . S
C282 H259 0.950 . S
C282 C281 1.397 . S
C282 C283 1.334 . S
C283 H260 0.950 . S
C283 C282 1.334 . S
C283 C284 1.287 . S
C284 C283 1.287 . S
C284 C285 1.524 . S
C284 H303 0.913 . S
C285 H261 0.950 . S
C285 C284 1.524 . S
C285 C286 1.415 . S
C286 H262 0.950 . S
C286 C281 1.363 . S
C286 C285 1.415 . S
C287 H263 0.951 1_556 S
C287 C288 1.366 . S
C287 C289 1.392 . S
C288 C287 1.366 . S
C288 C292 1.385 . S
C289 H264 0.939 1_556 S
C289 C287 1.392 . S
C289 C290 1.373 . S
C290 C289 1.373 . S
C290 C291 1.414 . S
C290 C293 1.499 . S
C291 H265 0.950 . S
C291 C290 1.414 . S
C291 C292 1.374 . S
C292 H266 0.950 . S
C292 C288 1.385 . S
C292 C291 1.374 . S
C293 C290 1.499 . S
C293 C294 1.373 1_556 S
C293 C295 1.389 . S
C294 H267 0.950 . S
C294 C280 1.377 . S
C294 C293 1.373 1_554 S
C295 C279 1.377 . S
C295 C293 1.389 . S
C295 C296 1.524 . S
C296 C295 1.524 . S
C296 C297 1.397 . S
C296 C301 1.363 . S
C297 H268 0.950 . S
C297 C296 1.397 . S
C297 C298 1.334 . S
C298 H269 0.950 . S
C298 C297 1.334 . S
C298 C299 1.287 . S
C299 C298 1.287 . S
C299 C300 1.524 . S
C299 H302 0.999 . S
C300 H270 0.950 . S
C300 C299 1.524 . S
C300 C301 1.415 . S
C301 H271 0.950 . S
C301 C296 1.363 . S
C301 C300 1.415 . S
H302 C299 0.999 . S
H303 C284 0.913 . S
H304 C322 0.951 . S
H305 C324 0.951 . S
H306 C326 0.950 . S
H307 C327 0.950 . S
H308 C329 0.950 . S
H309 C332 0.950 . S
H310 C333 0.950 . S
H311 C335 0.950 . S
H312 C336 0.950 . S
H313 C337 0.951 . S
H314 C339 0.951 . S
H315 C341 0.950 . S
H316 C342 0.950 . S
H317 C344 0.950 . S
H318 C347 0.950 . S
H319 C348 0.950 . S
H320 C350 0.950 . S
H321 C351 0.950 . S
C322 H304 0.951 . S
C322 C323 1.366 . S
C322 C324 1.388 . S
C323 C322 1.366 . S
C323 C327 1.385 . S
C324 H305 0.951 . S
C324 C322 1.388 . S
C324 C325 1.366 . S
C325 C324 1.366 . S
C325 C326 1.414 . S
C325 C328 1.499 . S
C326 H306 0.950 . S
C326 C325 1.414 . S
C326 C327 1.374 . S
C327 H307 0.950 . S
C327 C323 1.385 . S
C327 C326 1.374 . S
C328 C325 1.499 . S
C328 C329 1.373 . S
C328 C330 1.389 . S
C329 H308 0.950 . S
C329 C328 1.373 . S
C329 C345 1.377 . S
C330 C328 1.389 . S
C330 C331 1.524 . S
C330 C344 1.377 . S
C331 C330 1.524 . S
C331 C332 1.397 . S
C331 C336 1.363 . S
C332 H309 0.950 . S
C332 C331 1.397 . S
C332 C333 1.334 . S
C333 H310 0.950 . S
C333 C332 1.334 . S
C333 C334 1.287 . S
C334 C333 1.287 . S
C334 C335 1.524 . S
C334 H353 0.913 . S
C335 H311 0.950 . S
C335 C334 1.524 . S
C335 C336 1.415 . S
C336 H312 0.950 . S
C336 C331 1.363 . S
C336 C335 1.415 . S
C337 H313 0.951 . S
C337 C338 1.366 . S
C337 C339 1.388 . S
C338 C337 1.366 . S
C338 C342 1.385 . S
C339 H314 0.951 . S
C339 C337 1.388 . S
C339 C340 1.366 . S
C340 C339 1.366 . S
C340 C341 1.414 . S
C340 C343 1.499 . S
C341 H315 0.950 . S
C341 C340 1.414 . S
C341 C342 1.374 . S
C342 H316 0.950 . S
C342 C338 1.385 . S
C342 C341 1.374 . S
C343 C340 1.499 . S
C343 C344 1.373 . S
C343 C345 1.389 . S
C344 H317 0.950 . S
C344 C330 1.377 . S
C344 C343 1.373 . S
C345 C329 1.377 . S
C345 C343 1.389 . S
C345 C346 1.524 . S
C346 C345 1.524 . S
C346 C347 1.397 . S
C346 C351 1.363 . S
C347 H318 0.950 . S
C347 C346 1.397 . S
C347 C348 1.334 . S
C348 H319 0.950 . S
C348 C347 1.334 . S
C348 C349 1.287 . S
C349 C348 1.287 . S
C349 C350 1.524 . S
C349 H352 0.999 . S
C350 H320 0.950 . S
C350 C349 1.524 . S
C350 C351 1.415 . S
C351 H321 0.950 . S
C351 C346 1.363 . S
C351 C350 1.415 . S
H352 C349 0.999 . S
H353 C334 0.913 . S
H354 C372 0.951 . S
H355 C374 0.951 . S
H356 C376 0.950 . S
H357 C377 0.950 . S
H358 C379 0.950 . S
H359 C382 0.950 . S
H360 C383 0.950 . S
H361 C385 0.950 . S
H362 C386 0.950 . S
H363 C387 0.951 . S
H364 C389 0.951 . S
H365 C391 0.950 . S
H366 C392 0.950 . S
H367 C394 0.950 . S
H368 C397 0.950 . S
H369 C398 0.950 . S
H370 C400 0.950 . S
H371 C401 0.950 . S
C372 H354 0.951 . S
C372 C373 1.366 . S
C372 C374 1.388 . S
C373 C372 1.366 . S
C373 C377 1.385 . S
C374 H355 0.951 . S
C374 C372 1.388 . S
C374 C375 1.366 . S
C375 C374 1.366 . S
C375 C376 1.414 . S
C375 C378 1.499 . S
C376 H356 0.950 . S
C376 C375 1.414 . S
C376 C377 1.374 . S
C377 H357 0.950 . S
C377 C373 1.385 . S
C377 C376 1.374 . S
C378 C375 1.499 . S
C378 C379 1.373 . S
C378 C380 1.389 . S
C379 H358 0.950 . S
C379 C378 1.373 . S
C379 C395 1.377 . S
C380 C378 1.389 . S
C380 C381 1.524 . S
C380 C394 1.377 . S
C381 C380 1.524 . S
C381 C382 1.397 . S
C381 C386 1.363 . S
C382 H359 0.950 . S
C382 C381 1.397 . S
C382 C383 1.334 . S
C383 H360 0.950 . S
C383 C382 1.334 . S
C383 C384 1.287 . S
C384 C383 1.287 . S
C384 C385 1.524 . S
C384 H403 0.913 . S
C385 H361 0.950 . S
C385 C384 1.524 . S
C385 C386 1.415 . S
C386 H362 0.950 . S
C386 C381 1.363 . S
C386 C385 1.415 . S
C387 H363 0.951 . S
C387 C388 1.366 . S
C387 C389 1.388 . S
C388 C387 1.366 . S
C388 C392 1.385 . S
C389 H364 0.951 . S
C389 C387 1.388 . S
C389 C390 1.366 . S
C390 C389 1.366 . S
C390 C391 1.414 . S
C390 C393 1.499 . S
C391 H365 0.950 . S
C391 C390 1.414 . S
C391 C392 1.374 . S
C392 H366 0.950 . S
C392 C388 1.385 . S
C392 C391 1.374 . S
C393 C390 1.499 . S
C393 C394 1.373 . S
C393 C395 1.389 . S
C394 H367 0.950 . S
C394 C380 1.377 . S
C394 C393 1.373 . S
C395 C379 1.377 . S
C395 C393 1.389 . S
C395 C396 1.524 . S
C396 C395 1.524 . S
C396 C397 1.397 . S
C396 C401 1.363 . S
C397 H368 0.950 . S
C397 C396 1.397 . S
C397 C398 1.334 . S
C398 H369 0.950 . S
C398 C397 1.334 . S
C398 C399 1.287 . S
C399 C398 1.287 . S
C399 C400 1.524 . S
C399 H402 0.999 . S
C400 H370 0.950 . S
C400 C399 1.524 . S
C400 C401 1.415 . S
C401 H371 0.950 . S
C401 C396 1.363 . S
C401 C400 1.415 . S
H402 C399 0.999 . S
H403 C384 0.913 . S
H404 C422 0.951 . S
H405 C424 0.951 . S
H406 C426 0.950 . S
H407 C427 0.950 . S
H408 C429 0.950 . S
H409 C432 0.950 . S
H410 C433 0.950 . S
H411 C435 0.950 . S
H412 C436 0.950 . S
H413 C437 0.951 . S
H414 C439 0.951 . S
H415 C441 0.950 . S
H416 C442 0.950 . S
H417 C444 0.950 . S
H418 C447 0.950 . S
H419 C448 0.950 . S
H420 C450 0.950 . S
H421 C451 0.950 . S
C422 H404 0.951 . S
C422 C423 1.366 . S
C422 C424 1.388 . S
C423 C422 1.366 . S
C423 C427 1.385 . S
C424 H405 0.951 . S
C424 C422 1.388 . S
C424 C425 1.366 . S
C425 C424 1.366 . S
C425 C426 1.414 . S
C425 C428 1.499 . S
C426 H406 0.950 . S
C426 C425 1.414 . S
C426 C427 1.374 . S
C427 H407 0.950 . S
C427 C423 1.385 . S
C427 C426 1.374 . S
C428 C425 1.499 . S
C428 C429 1.373 . S
C428 C430 1.389 . S
C429 H408 0.950 . S
C429 C428 1.373 . S
C429 C445 1.377 . S
C430 C428 1.389 . S
C430 C431 1.524 . S
C430 C444 1.377 . S
C431 C430 1.524 . S
C431 C432 1.397 . S
C431 C436 1.363 . S
C432 H409 0.950 . S
C432 C431 1.397 . S
C432 C433 1.334 . S
C433 H410 0.950 . S
C433 C432 1.334 . S
C433 C434 1.287 . S
C434 C433 1.287 . S
C434 C435 1.524 . S
C434 H453 0.913 . S
C435 H411 0.950 . S
C435 C434 1.524 . S
C435 C436 1.415 . S
C436 H412 0.950 . S
C436 C431 1.363 . S
C436 C435 1.415 . S
C437 H413 0.951 . S
C437 C438 1.366 . S
C437 C439 1.388 . S
C438 C437 1.366 . S
C438 C442 1.385 . S
C439 H414 0.951 . S
C439 C437 1.388 . S
C439 C440 1.366 . S
C440 C439 1.366 . S
C440 C441 1.414 . S
C440 C443 1.499 . S
C441 H415 0.950 . S
C441 C440 1.414 . S
C441 C442 1.374 . S
C442 H416 0.950 . S
C442 C438 1.385 . S
C442 C441 1.374 . S
C443 C440 1.499 . S
C443 C444 1.373 . S
C443 C445 1.389 . S
C444 H417 0.950 . S
C444 C430 1.377 . S
C444 C443 1.373 . S
C445 C429 1.377 . S
C445 C443 1.389 . S
C445 C446 1.524 . S
C446 C445 1.524 . S
C446 C447 1.397 . S
C446 C451 1.363 . S
C447 H418 0.950 . S
C447 C446 1.397 . S
C447 C448 1.334 . S
C448 H419 0.950 . S
C448 C447 1.334 . S
C448 C449 1.287 . S
C449 C448 1.287 . S
C449 C450 1.524 . S
C449 H452 0.999 . S
C450 H420 0.950 . S
C450 C449 1.524 . S
C450 C451 1.415 . S
C451 H421 0.950 . S
C451 C446 1.363 . S
C451 C450 1.415 . S
H452 C449 0.999 . S
H453 C434 0.913 . S
H454 C472 0.951 . S
H455 C474 0.951 . S
H456 C476 0.950 . S
H457 C477 0.950 . S
H458 C479 0.950 . S
H459 C482 0.950 . S
H460 C483 0.950 . S
H461 C485 0.950 . S
H462 C486 0.950 . S
H463 C487 0.951 . S
H464 C489 0.951 . S
H465 C491 0.950 . S
H466 C492 0.950 . S
H467 C494 0.950 . S
H468 C497 0.950 . S
H469 C498 0.950 . S
H470 C500 0.950 . S
H471 C501 0.950 . S
C472 H454 0.951 . S
C472 C473 1.366 . S
C472 C474 1.388 . S
C473 C472 1.366 . S
C473 C477 1.385 . S
C474 H455 0.951 . S
C474 C472 1.388 . S
C474 C475 1.366 . S
C475 C474 1.366 . S
C475 C476 1.414 . S
C475 C478 1.499 . S
C476 H456 0.950 . S
C476 C475 1.414 . S
C476 C477 1.374 . S
C477 H457 0.950 . S
C477 C473 1.385 . S
C477 C476 1.374 . S
C478 C475 1.499 . S
C478 C479 1.373 . S
C478 C480 1.389 . S
C479 H458 0.950 . S
C479 C478 1.373 . S
C479 C495 1.377 . S
C480 C478 1.389 . S
C480 C481 1.524 . S
C480 C494 1.377 . S
C481 C480 1.524 . S
C481 C482 1.397 . S
C481 C486 1.363 . S
C482 H459 0.950 . S
C482 C481 1.397 . S
C482 C483 1.334 . S
C483 H460 0.950 . S
C483 C482 1.334 . S
C483 C484 1.287 . S
C484 C483 1.287 . S
C484 C485 1.524 . S
C484 H503 0.913 . S
C485 H461 0.950 . S
C485 C484 1.524 . S
C485 C486 1.415 . S
C486 H462 0.950 . S
C486 C481 1.363 . S
C486 C485 1.415 . S
C487 H463 0.951 . S
C487 C488 1.366 . S
C487 C489 1.388 . S
C488 C487 1.366 . S
C488 C492 1.385 . S
C489 H464 0.951 . S
C489 C487 1.388 . S
C489 C490 1.366 . S
C490 C489 1.366 . S
C490 C491 1.414 . S
C490 C493 1.499 . S
C491 H465 0.950 . S
C491 C490 1.414 . S
C491 C492 1.374 . S
C492 H466 0.950 . S
C492 C488 1.385 . S
C492 C491 1.374 . S
C493 C490 1.499 . S
C493 C494 1.373 . S
C493 C495 1.389 . S
C494 H467 0.950 . S
C494 C480 1.377 . S
C494 C493 1.373 . S
C495 C479 1.377 . S
C495 C493 1.389 . S
C495 C496 1.524 . S
C496 C495 1.524 . S
C496 C497 1.397 . S
C496 C501 1.363 . S
C497 H468 0.950 . S
C497 C496 1.397 . S
C497 C498 1.334 . S
C498 H469 0.950 . S
C498 C497 1.334 . S
C498 C499 1.287 . S
C499 C498 1.287 . S
C499 C500 1.524 . S
C499 H502 0.999 . S
C500 H470 0.950 . S
C500 C499 1.524 . S
C500 C501 1.415 . S
C501 H471 0.950 . S
C501 C496 1.363 . S
C501 C500 1.415 . S
H502 C499 0.999 . S
H503 C484 0.913 . S
H504 C522 0.951 . S
H505 C524 0.951 . S
H506 C526 0.950 . S
H507 C527 0.953 . S
H508 C529 0.950 . S
H509 C532 0.950 . S
H510 C533 0.950 . S
H511 C535 0.950 . S
H512 C536 0.950 . S
H513 C537 0.951 1_655 S
H514 C539 0.951 . S
H515 C541 0.950 . S
H516 C542 0.950 . S
H517 C544 0.950 . S
H518 C547 0.950 . S
H519 C548 0.950 . S
H520 C550 0.950 . S
H521 C551 0.950 . S
C522 H504 0.951 . S
C522 C523 1.366 1_565 S
C522 C524 1.388 . S
C523 C522 1.366 1_545 S
C523 C527 1.382 1_455 S
C524 H505 0.951 . S
C524 C522 1.388 . S
C524 C525 1.366 1_565 S
C525 C524 1.366 1_545 S
C525 C526 1.414 1_455 S
C525 C528 1.499 . S
C526 H506 0.950 . S
C526 C525 1.414 1_655 S
C526 C527 1.374 . S
C527 H507 0.953 . S
C527 C523 1.382 1_655 S
C527 C526 1.374 . S
C528 C525 1.499 . S
C528 C529 1.373 . S
C528 C530 1.389 1_445 S
C529 H508 0.950 . S
C529 C528 1.373 . S
C529 C545 1.377 . S
C530 C528 1.389 1_665 S
C530 C531 1.524 . S
C530 C544 1.377 . S
C531 C530 1.524 . S
C531 C532 1.397 . S
C531 C536 1.363 . S
C532 H509 0.950 . S
C532 C531 1.397 . S
C532 C533 1.334 . S
C533 H510 0.950 . S
C533 C532 1.334 . S
C533 C534 1.287 . S
C534 C533 1.287 . S
C534 C535 1.524 . S
C534 H553 0.913 . S
C535 H511 0.950 . S
C535 C534 1.524 . S
C535 C536 1.415 . S
C536 H512 0.950 . S
C536 C531 1.363 . S
C536 C535 1.415 . S
C537 H513 0.951 1_455 S
C537 C538 1.366 . S
C537 C539 1.388 . S
C538 C537 1.366 . S
C538 C542 1.385 1_545 S
C539 H514 0.951 . S
C539 C537 1.388 . S
C539 C540 1.366 . S
C540 C539 1.366 . S
C540 C541 1.414 1_545 S
C540 C543 1.499 . S
C541 H515 0.950 . S
C541 C540 1.414 1_565 S
C541 C542 1.374 . S
C542 H516 0.950 . S
C542 C538 1.385 1_565 S
C542 C541 1.374 . S
C543 C540 1.499 . S
C543 C544 1.373 1_445 S
C543 C545 1.389 . S
C544 H517 0.950 . S
C544 C530 1.377 . S
C544 C543 1.373 1_665 S
C545 C529 1.377 . S
C545 C543 1.389 . S
C545 C546 1.524 . S
C546 C545 1.524 . S
C546 C547 1.397 . S
C546 C551 1.363 . S
C547 H518 0.950 . S
C547 C546 1.397 . S
C547 C548 1.334 . S
C548 H519 0.950 . S
C548 C547 1.334 . S
C548 C549 1.287 . S
C549 C548 1.287 . S
C549 C550 1.524 . S
C549 H552 0.999 . S
C550 H520 0.950 . S
C550 C549 1.524 . S
C550 C551 1.415 . S
C551 H521 0.950 . S
C551 C546 1.363 . S
C551 C550 1.415 . S
H552 C549 0.999 . S
H553 C534 0.913 . S
H554 C572 0.951 . S
H555 C574 0.951 . S
H556 C576 0.950 . S
H557 C577 0.950 . S
H558 C579 0.950 . S
H559 C582 0.950 . S
H560 C583 0.950 . S
H561 C585 0.950 . S
H562 C586 0.950 . S
H563 C587 0.951 . S
H564 C589 0.951 . S
H565 C591 0.950 . S
H566 C592 0.950 . S
H567 C594 0.950 . S
H568 C597 0.950 . S
H569 C598 0.950 . S
H570 C600 0.950 . S
H571 C601 0.950 . S
C572 H554 0.951 . S
C572 C573 1.366 1_665 S
C572 C574 1.388 . S
C573 C572 1.366 1_445 S
C573 C577 1.385 . S
C574 H555 0.951 . S
C574 C572 1.388 . S
C574 C575 1.359 1_665 S
C575 C574 1.359 1_445 S
C575 C576 1.419 . S
C575 C578 1.500 . S
C576 H556 0.950 . S
C576 C575 1.419 . S
C576 C577 1.374 . S
C577 H557 0.950 . S
C577 C573 1.385 . S
C577 C576 1.374 . S
C578 C575 1.500 . S
C578 C579 1.373 1_455 S
C578 C580 1.389 1_545 S
C579 H558 0.950 . S
C579 C578 1.373 1_655 S
C579 C595 1.377 . S
C580 C578 1.389 1_565 S
C580 C581 1.524 . S
C580 C594 1.377 . S
C581 C580 1.524 . S
C581 C582 1.397 . S
C581 C586 1.363 . S
C582 H559 0.950 . S
C582 C581 1.397 . S
C582 C583 1.334 . S
C583 H560 0.950 . S
C583 C582 1.334 . S
C583 C584 1.287 . S
C584 C583 1.287 . S
C584 C585 1.524 . S
C584 H603 0.913 . S
C585 H561 0.950 . S
C585 C584 1.524 . S
C585 C586 1.415 . S
C586 H562 0.950 . S
C586 C581 1.363 . S
C586 C585 1.415 . S
C587 H563 0.951 . S
C587 C588 1.366 1_545 S
C587 C589 1.388 . S
C588 C587 1.366 1_565 S
C588 C592 1.385 1_455 S
C589 H564 0.951 . S
C589 C587 1.388 . S
C589 C590 1.366 1_545 S
C590 C589 1.366 1_565 S
C590 C591 1.414 1_455 S
C590 C593 1.499 . S
C591 H565 0.950 . S
C591 C590 1.414 1_655 S
C591 C592 1.374 . S
C592 H566 0.950 . S
C592 C588 1.385 1_655 S
C592 C591 1.374 . S
C593 C590 1.499 . S
C593 C594 1.377 . S
C593 C595 1.386 1_465 S
C594 H567 0.950 . S
C594 C580 1.377 . S
C594 C593 1.377 . S
C595 C579 1.377 . S
C595 C593 1.386 1_645 S
C595 C596 1.524 . S
C596 C595 1.524 . S
C596 C597 1.397 . S
C596 C601 1.363 . S
C597 H568 0.950 . S
C597 C596 1.397 . S
C597 C598 1.334 . S
C598 H569 0.950 . S
C598 C597 1.334 . S
C598 C599 1.287 . S
C599 C598 1.287 . S
C599 C600 1.524 . S
C599 H602 0.999 . S
C600 H570 0.950 . S
C600 C599 1.524 . S
C600 C601 1.415 . S
C601 H571 0.950 . S
C601 C596 1.363 . S
C601 C600 1.415 . S
H602 C599 0.999 . S
H603 C584 0.913 . S
H604 C622 0.951 . S
H605 C624 0.951 . S
H606 C626 0.950 . S
H607 C627 0.950 . S
H608 C629 0.950 . S
H609 C632 0.950 . S
H610 C633 0.950 . S
H611 C635 0.950 . S
H612 C636 0.950 . S
H613 C637 0.951 . S
H614 C639 0.951 . S
H615 C641 0.950 . S
H616 C642 0.950 . S
H617 C644 0.950 . S
H618 C647 0.950 . S
H619 C648 0.950 . S
H620 C650 0.950 . S
H621 C651 0.950 . S
C622 H604 0.951 . S
C622 C623 1.366 . S
C622 C624 1.388 . S
C623 C622 1.366 . S
C623 C627 1.385 . S
C624 H605 0.951 . S
C624 C622 1.388 . S
C624 C625 1.366 . S
C625 C624 1.366 . S
C625 C626 1.414 . S
C625 C628 1.499 . S
C626 H606 0.950 . S
C626 C625 1.414 . S
C626 C627 1.374 . S
C627 H607 0.950 . S
C627 C623 1.385 . S
C627 C626 1.374 . S
C628 C625 1.499 . S
C628 C629 1.373 . S
C628 C630 1.389 . S
C629 H608 0.950 . S
C629 C628 1.373 . S
C629 C645 1.377 . S
C630 C628 1.389 . S
C630 C631 1.524 . S
C630 C644 1.377 . S
C631 C630 1.524 . S
C631 C632 1.397 . S
C631 C636 1.363 . S
C632 H609 0.950 . S
C632 C631 1.397 . S
C632 C633 1.334 . S
C633 H610 0.950 . S
C633 C632 1.334 . S
C633 C634 1.287 . S
C634 C633 1.287 . S
C634 C635 1.524 . S
C634 H653 0.913 . S
C635 H611 0.950 . S
C635 C634 1.524 . S
C635 C636 1.415 . S
C636 H612 0.950 . S
C636 C631 1.363 . S
C636 C635 1.415 . S
C637 H613 0.951 . S
C637 C638 1.366 . S
C637 C639 1.388 . S
C638 C637 1.366 . S
C638 C642 1.385 . S
C639 H614 0.951 . S
C639 C637 1.388 . S
C639 C640 1.366 . S
C640 C639 1.366 . S
C640 C641 1.414 . S
C640 C643 1.499 . S
C641 H615 0.950 . S
C641 C640 1.414 . S
C641 C642 1.374 . S
C642 H616 0.950 . S
C642 C638 1.385 . S
C642 C641 1.374 . S
C643 C640 1.499 . S
C643 C644 1.373 . S
C643 C645 1.389 . S
C644 H617 0.950 . S
C644 C630 1.377 . S
C644 C643 1.373 . S
C645 C629 1.377 . S
C645 C643 1.389 . S
C645 C646 1.524 . S
C646 C645 1.524 . S
C646 C647 1.397 . S
C646 C651 1.363 . S
C647 H618 0.950 . S
C647 C646 1.397 . S
C647 C648 1.334 . S
C648 H619 0.950 . S
C648 C647 1.334 . S
C648 C649 1.287 . S
C649 C648 1.287 . S
C649 C650 1.524 . S
C649 H652 0.999 . S
C650 H620 0.950 . S
C650 C649 1.524 . S
C650 C651 1.415 . S
C651 H621 0.950 . S
C651 C646 1.363 . S
C651 C650 1.415 . S
H652 C649 0.999 . S
H653 C634 0.913 . S
H654 C672 0.951 . S
H655 C674 0.951 . S
H656 C676 0.950 . S
H657 C677 0.950 . S
H658 C679 0.950 . S
H659 C682 0.950 . S
H660 C683 0.950 . S
H661 C685 0.950 . S
H662 C686 0.950 . S
H663 C687 0.951 . S
H664 C689 0.951 . S
H665 C691 0.950 . S
H666 C692 0.950 . S
H667 C694 0.950 . S
H668 C697 0.950 . S
H669 C698 0.950 . S
H670 C700 0.950 . S
H671 C701 0.950 . S
C672 H654 0.951 . S
C672 C673 1.366 . S
C672 C674 1.388 . S
C673 C672 1.366 . S
C673 C677 1.385 . S
C674 H655 0.951 . S
C674 C672 1.388 . S
C674 C675 1.366 . S
C675 C674 1.366 . S
C675 C676 1.414 . S
C675 C678 1.499 . S
C676 H656 0.950 . S
C676 C675 1.414 . S
C676 C677 1.374 . S
C677 H657 0.950 . S
C677 C673 1.385 . S
C677 C676 1.374 . S
C678 C675 1.499 . S
C678 C679 1.373 . S
C678 C680 1.389 . S
C679 H658 0.950 . S
C679 C678 1.373 . S
C679 C695 1.377 . S
C680 C678 1.389 . S
C680 C681 1.524 . S
C680 C694 1.377 . S
C681 C680 1.524 . S
C681 C682 1.397 . S
C681 C686 1.363 . S
C682 H659 0.950 . S
C682 C681 1.397 . S
C682 C683 1.334 . S
C683 H660 0.950 . S
C683 C682 1.334 . S
C683 C684 1.287 . S
C684 C683 1.287 . S
C684 C685 1.524 . S
C684 H703 0.913 . S
C685 H661 0.950 . S
C685 C684 1.524 . S
C685 C686 1.415 . S
C686 H662 0.950 . S
C686 C681 1.363 . S
C686 C685 1.415 . S
C687 H663 0.951 . S
C687 C688 1.366 . S
C687 C689 1.388 . S
C688 C687 1.366 . S
C688 C692 1.385 . S
C689 H664 0.951 . S
C689 C687 1.388 . S
C689 C690 1.366 . S
C690 C689 1.366 . S
C690 C691 1.414 . S
C690 C693 1.499 . S
C691 H665 0.950 . S
C691 C690 1.414 . S
C691 C692 1.374 . S
C692 H666 0.950 . S
C692 C688 1.385 . S
C692 C691 1.374 . S
C693 C690 1.499 . S
C693 C694 1.373 . S
C693 C695 1.389 . S
C694 H667 0.950 . S
C694 C680 1.377 . S
C694 C693 1.373 . S
C695 C679 1.377 . S
C695 C693 1.389 . S
C695 C696 1.524 . S
C696 C695 1.524 . S
C696 C697 1.397 . S
C696 C701 1.363 . S
C697 H668 0.950 . S
C697 C696 1.397 . S
C697 C698 1.334 . S
C698 H669 0.950 . S
C698 C697 1.334 . S
C698 C699 1.287 . S
C699 C698 1.287 . S
C699 C700 1.524 . S
C699 H702 0.999 . S
C700 H670 0.950 . S
C700 C699 1.524 . S
C700 C701 1.415 . S
C701 H671 0.950 . S
C701 C696 1.363 . S
C701 C700 1.415 . S
H702 C699 0.999 . S
H703 C684 0.913 . S
C138 C98 1.234 . S
C123 C27 1.456 . S
C173 N6 1.382 1_554 S
C188 C87 1.217 . S
C223 C16 1.407 . S
C238 C101 1.380 . S
C273 N14 1.376 . S
C288 C90 1.366 . S
C323 C57 1.456 . S
C338 C76 1.235 . S
C373 N36 1.388 . S
C388 C65 1.217 . S
C438 C79 1.379 . S
C423 C46 1.408 . S
C488 C68 1.366 . S
C473 N44 1.377 . S
C523 C10 1.453 . S
C538 C67 1.409 . S
C573 C1 1.529 1_455 S
C588 C78 1.481 1_565 S
C638 C89 1.408 . S
C623 C40 1.453 . S
C673 C31 1.530 . S
C688 C100 1.482 . S
