# Generated by pormake.
# Topology bcu-b, (8,8)-cn, num edge types: 1
# Building blocks:
#     Node 0, Type 0, BuildingBlock: TAGTUT_clean_sbu_1, # of connection points: 8
#     Node 1, Type 1, BuildingBlock: TAGTUT_clean_sbu_1, # of connection points: 8
#     Edge 2, Type (0, 1), BuildingBlock: UVAHIK_clean_linker_0, # of connection points: 2
#     Edge 3, Type (0, 1), BuildingBlock: UVAHIK_clean_linker_0, # of connection points: 2
#     Edge 4, Type (0, 1), BuildingBlock: UVAHIK_clean_linker_0, # of connection points: 2
#     Edge 5, Type (0, 1), BuildingBlock: UVAHIK_clean_linker_0, # of connection points: 2
#     Edge 6, Type (0, 1), BuildingBlock: UVAHIK_clean_linker_0, # of connection points: 2
#     Edge 7, Type (0, 1), BuildingBlock: UVAHIK_clean_linker_0, # of connection points: 2
#     Edge 8, Type (0, 1), BuildingBlock: UVAHIK_clean_linker_0, # of connection points: 2
#     Edge 9, Type (0, 1), BuildingBlock: UVAHIK_clean_linker_0, # of connection points: 2
# Relax obj value: 0.021
# Max RMSD: 0.083
# Mean RMSD: 0.083
data_MOF--net-bcu-b--node1-TAGTUT_clean_sbu_1--node2-TAGTUT_clean_sbu_1--edge1-UVAHIK_clean_linker_0
_symmetry_space_group_name_H-M    P1
_symmetry_Int_Tables_number       1
_symmetry_cell_setting            triclinic
loop_
_symmetry_equiv_pos_as_xyz
'x, y, z'
_cell_length_a     24.492998
_cell_length_b     23.323686
_cell_length_c     27.822079
_cell_angle_alpha  90.352943
_cell_angle_beta   92.545391
_cell_angle_gamma 105.55421
loop_
_atom_site_label
_atom_site_type_symbol
_atom_site_fract_x
_atom_site_fract_y
_atom_site_fract_z
_atom_type_partial_charge
C0 C 0.88724 0.12887 0.01794 0.0
C1 C 0.93066 0.10693 0.87149 0.0
C2 C 0.91569 0.87934 0.92054 0.0
Mg3 Mg 0.99847 0.12838 -0.03169 0.0
O4 O 0.97185 0.04809 -0.0158 0.0
Mg5 Mg 0.89433 0.00432 0.95854 0.0
Mg6 Mg 0.01507 -0.00878 -0.03465 0.0
O7 O 0.05818 0.9343 0.94649 0.0
Mg8 Mg 0.03142 0.85396 0.96232 0.0
Mg9 Mg 0.13569 0.97797 -0.02787 0.0
C10 C 0.11435 0.10312 0.01001 0.0
C11 C 0.10103 0.05169 0.88302 0.0
O12 O 0.86379 0.0764 0.00026 0.0
O13 O 0.93891 0.15671 0.01078 0.0
O14 O 0.89971 0.06016 0.89018 0.0
O15 O 0.9753 0.13886 0.89376 0.0
O16 O 0.08593 0.13972 -0.00385 0.0
O17 O 0.09362 0.04636 0.00658 0.0
C18 C 0.92911 0.93076 0.04768 0.0
O19 O 0.97903 0.93761 0.03225 0.0
O20 O 0.89202 0.95177 0.02581 0.0
O21 O 0.16611 0.90583 0.93036 0.0
O22 O 0.09095 0.82557 0.91986 0.0
O23 O 0.13021 0.92207 0.04045 0.0
C24 C 0.14262 0.85337 0.91269 0.0
O25 O 0.05461 0.84336 0.03688 0.0
O26 O 0.94397 0.84259 0.93437 0.0
C27 C 0.09925 0.8753 0.05914 0.0
O28 O 0.93658 0.93606 0.92419 0.0
O29 O 0.05112 0.04485 0.89846 0.0
O30 O 0.13809 0.03062 0.90489 0.0
C31 C 0.38703 0.62854 0.51803 0.0
C32 C 0.43034 0.60646 0.37158 0.0
C33 C 0.41545 0.37899 0.42067 0.0
Mg34 Mg 0.49823 0.628 0.46835 0.0
O35 O 0.47161 0.54773 0.48434 0.0
Mg36 Mg 0.39408 0.50393 0.4587 0.0
Mg37 Mg 0.51483 0.49087 0.46549 0.0
O38 O 0.55794 0.43396 0.44659 0.0
Mg39 Mg 0.53121 0.3536 0.46233 0.0
Mg40 Mg 0.63546 0.47762 0.47223 0.0
C41 C 0.61412 0.60278 0.5101 0.0
C42 C 0.60075 0.55132 0.38315 0.0
O43 O 0.36357 0.57604 0.50041 0.0
O44 O 0.43868 0.65637 0.51081 0.0
O45 O 0.39943 0.55972 0.39033 0.0
O46 O 0.47499 0.63845 0.39379 0.0
O47 O 0.58569 0.63936 0.49619 0.0
O48 O 0.5934 0.54601 0.50671 0.0
C49 C 0.42889 0.43036 0.54784 0.0
O50 O 0.4788 0.43724 0.53239 0.0
O51 O 0.39179 0.45137 0.52598 0.0
O52 O 0.66589 0.40552 0.43041 0.0
O53 O 0.59074 0.32527 0.41982 0.0
O54 O 0.63 0.42165 0.54052 0.0
C55 C 0.64241 0.35308 0.41268 0.0
O56 O 0.55439 0.34296 0.53686 0.0
O57 O 0.44375 0.34222 0.43443 0.0
C58 C 0.59902 0.37486 0.55916 0.0
O59 O 0.43634 0.43569 0.42435 0.0
O60 O 0.55084 0.5445 0.39859 0.0
O61 O 0.63782 0.53026 0.405 0.0
C62 C 0.17894 0.09355 0.07922 0.0
C63 C 0.16547 0.12771 0.04134 0.0
C64 C 0.21103 0.12163 0.11965 0.0
C65 C 0.22956 0.26269 0.18349 0.0
H66 H 0.3293 0.20403 0.27042 0.0
C67 C 0.35117 0.38903 0.35139 0.0
C68 C 0.36435 0.35468 0.38925 0.0
C69 C 0.31915 0.36114 0.31086 0.0
C70 C 0.30061 0.22027 0.24683 0.0
H71 H 0.18282 0.21645 0.01216 0.0
H72 H 0.2401 0.2652 0.08218 0.0
H73 H 0.30233 0.15688 0.19132 0.0
H74 H 0.3466 0.26585 0.41829 0.0
H75 H 0.28946 0.21745 0.34809 0.0
H76 H 0.22786 0.3261 0.239 0.0
C77 C 0.22388 0.21716 0.0816 0.0
C78 C 0.28571 0.19363 0.2014 0.0
C79 C 0.1916 0.18919 0.04135 0.0
C80 C 0.33802 0.29325 0.38912 0.0
C81 C 0.30583 0.26547 0.34877 0.0
C82 C 0.24448 0.28935 0.22892 0.0
C83 C 0.23052 0.18406 0.12236 0.0
C84 C 0.25011 0.21463 0.16923 0.0
C85 C 0.29948 0.29874 0.30803 0.0
C86 C 0.28002 0.2683 0.26109 0.0
H87 H 0.15968 0.046 0.08014 0.0
H88 H 0.21589 0.09484 0.15039 0.0
H89 H 0.20085 0.27893 0.15991 0.0
H90 H 0.3706 0.43655 0.35056 0.0
H91 H 0.3145 0.38804 0.28014 0.0
C92 C 0.80501 0.1215 0.07054 0.0
C93 C 0.85615 0.15547 0.05247 0.0
C94 C 0.78065 0.14337 0.10869 0.0
C95 C 0.78332 0.28043 0.17806 0.0
H96 H 0.73276 0.17041 0.28114 0.0
C97 C 0.72462 0.36048 0.36006 0.0
C98 C 0.67349 0.3265 0.37813 0.0
C99 C 0.74898 0.33861 0.3219 0.0
C100 C 0.7463 0.20156 0.25253 0.0
H101 H 0.91992 0.24056 0.05866 0.0
H102 H 0.87758 0.27835 0.12502 0.0
H103 H 0.76679 0.13551 0.20841 0.0
H104 H 0.6097 0.24142 0.37192 0.0
H105 H 0.65204 0.20364 0.30555 0.0
H106 H 0.76284 0.34648 0.22218 0.0
C107 C 0.85621 0.23489 0.10972 0.0
C108 C 0.76555 0.18151 0.21075 0.0
C109 C 0.88062 0.21303 0.07171 0.0
C110 C 0.64901 0.26894 0.35887 0.0
C111 C 0.67341 0.2471 0.32085 0.0
C112 C 0.76407 0.30047 0.21984 0.0
C113 C 0.80673 0.19975 0.12945 0.0
C114 C 0.78427 0.22071 0.17302 0.0
C115 C 0.72289 0.28224 0.30113 0.0
C116 C 0.74535 0.26128 0.25756 0.0
H117 H 0.78491 0.07703 0.05658 0.0
H118 H 0.74192 0.11565 0.12255 0.0
H119 H 0.79687 0.31158 0.14945 0.0
H120 H 0.74473 0.40493 0.37403 0.0
H121 H 0.78772 0.36633 0.30804 0.0
C122 C 0.87898 0.91928 0.12324 0.0
C123 C 0.91118 0.89697 0.09113 0.0
C124 C 0.84751 0.88236 0.15698 0.0
C125 C 0.82061 0.73598 0.21466 0.0
H126 H 0.66635 0.75053 0.21598 0.0
C127 C 0.65092 0.56288 0.3076 0.0
C128 C 0.6187 0.58515 0.33972 0.0
C129 C 0.68241 0.59982 0.27389 0.0
C130 C 0.70932 0.74623 0.21628 0.0
H131 H 0.93928 0.82024 0.07083 0.0
H132 H 0.88365 0.75478 0.13007 0.0
H133 H 0.73581 0.81881 0.16856 0.0
H134 H 0.5906 0.66187 0.36005 0.0
H135 H 0.64626 0.72738 0.30086 0.0
H136 H 0.79411 0.6634 0.26237 0.0
C137 C 0.88313 0.80105 0.12941 0.0
C138 C 0.74923 0.78543 0.18931 0.0
C139 C 0.91522 0.83843 0.09574 0.0
C140 C 0.61467 0.6437 0.33515 0.0
C141 C 0.64678 0.68111 0.3015 0.0
C142 C 0.7807 0.69678 0.24162 0.0
C143 C 0.84702 0.82212 0.15884 0.0
C144 C 0.80536 0.78084 0.18832 0.0
C145 C 0.6829 0.66006 0.27207 0.0
C146 C 0.72457 0.70137 0.24261 0.0
H147 H 0.87551 0.96451 0.12032 0.0
H148 H 0.82142 0.90032 0.18008 0.0
H149 H 0.86358 0.73168 0.21496 0.0
H150 H 0.65439 0.51764 0.3105 0.0
H151 H 0.70851 0.58188 0.25079 0.0
C152 C 0.17205 0.88674 0.12697 0.0
C153 C 0.12293 0.85167 0.1023 0.0
C154 C 0.20429 0.86067 0.1582 0.0
C155 C 0.20659 0.72251 0.22299 0.0
H156 H 0.36761 0.77349 0.20074 0.0
C157 C 0.35746 0.5949 0.30378 0.0
C158 C 0.4066 0.63001 0.3284 0.0
C159 C 0.32519 0.62091 0.27253 0.0
C160 C 0.32287 0.75901 0.20763 0.0
H161 H 0.0663 0.76257 0.09487 0.0
H162 H 0.12249 0.7172 0.14939 0.0
H163 H 0.30327 0.82303 0.15993 0.0
H164 H 0.46323 0.71912 0.33572 0.0
H165 H 0.407 0.76439 0.28118 0.0
H166 H 0.22618 0.65849 0.27071 0.0
C167 C 0.13628 0.76484 0.14442 0.0
C168 C 0.28595 0.78762 0.18446 0.0
C169 C 0.10389 0.79095 0.11319 0.0
C170 C 0.42562 0.6907 0.31744 0.0
C171 C 0.39321 0.71676 0.2862 0.0
C172 C 0.2435 0.6939 0.24617 0.0
C173 C 0.18815 0.79897 0.16558 0.0
C174 C 0.22736 0.76979 0.19191 0.0
C175 C 0.34132 0.68259 0.26509 0.0
C176 C 0.3021 0.71173 0.23873 0.0
H177 H 0.18761 0.93382 0.11994 0.0
H178 H 0.24317 0.88852 0.17505 0.0
H179 H 0.16184 0.70803 0.22988 0.0
H180 H 0.34191 0.54783 0.31088 0.0
H181 H 0.2863 0.59303 0.25573 0.0
C182 C 0.2248 0.86066 0.86005 0.0
C183 C 0.17367 0.82673 0.87816 0.0
C184 C 0.24912 0.83873 0.8219 0.0
C185 C 0.24636 0.70158 0.75264 0.0
H186 H 0.2968 0.81145 0.64943 0.0
C187 C 0.30486 0.62124 0.57067 0.0
C188 C 0.35597 0.65518 0.55255 0.0
C189 C 0.28053 0.64318 0.60882 0.0
C190 C 0.28329 0.78033 0.67808 0.0
H191 H 0.10988 0.74164 0.87206 0.0
H192 H 0.15216 0.70375 0.80571 0.0
H193 H 0.26287 0.84645 0.72216 0.0
H194 H 0.41975 0.74028 0.55864 0.0
H195 H 0.37748 0.77817 0.62499 0.0
H196 H 0.26678 0.63546 0.70856 0.0
C197 C 0.17355 0.74723 0.82096 0.0
C198 C 0.2641 0.80045 0.71986 0.0
C199 C 0.14918 0.76914 0.85897 0.0
C200 C 0.38046 0.71278 0.57173 0.0
C201 C 0.35609 0.73469 0.60974 0.0
C202 C 0.26556 0.68147 0.71086 0.0
C203 C 0.22301 0.78234 0.8012 0.0
C204 C 0.24542 0.76131 0.75763 0.0
C205 C 0.30664 0.69958 0.62952 0.0
C206 C 0.28423 0.72061 0.67309 0.0
H207 H 0.24491 0.90514 0.87397 0.0
H208 H 0.28784 0.86642 0.80801 0.0
H209 H 0.23285 0.67047 0.78128 0.0
H210 H 0.28474 0.57676 0.55676 0.0
H211 H 0.24181 0.61548 0.62272 0.0
C212 C 0.11287 0.14333 0.83422 0.0
C213 C 0.119 0.08564 0.83961 0.0
C214 C 0.14418 0.18106 0.80035 0.0
C215 C 0.23484 0.18566 0.69596 0.0
H216 H 0.3183 0.33905 0.7508 0.0
C217 C 0.41713 0.33875 0.59666 0.0
C218 C 0.41099 0.39644 0.59128 0.0
C219 C 0.38585 0.30103 0.63055 0.0
C220 C 0.29521 0.29643 0.73497 0.0
H221 H 0.15809 0.02003 0.81187 0.0
H222 H 0.21175 0.08504 0.75262 0.0
H223 H 0.24532 0.27289 0.79664 0.0
H224 H 0.37191 0.46204 0.61904 0.0
H225 H 0.3183 0.39705 0.67831 0.0
H226 H 0.28473 0.2092 0.63429 0.0
C227 C 0.18337 0.1017 0.77419 0.0
C228 C 0.253 0.25883 0.76097 0.0
C229 C 0.15271 0.06446 0.80816 0.0
C230 C 0.3773 0.41762 0.62275 0.0
C231 C 0.34666 0.38039 0.65673 0.0
C232 C 0.27705 0.22325 0.66995 0.0
C233 C 0.18134 0.16114 0.77129 0.0
C234 C 0.22237 0.20304 0.74175 0.0
C235 C 0.34869 0.32095 0.65963 0.0
C236 C 0.30767 0.27905 0.68917 0.0
H237 H 0.08753 0.16066 0.8585 0.0
H238 H 0.14128 0.22652 0.79837 0.0
H239 H 0.21174 0.14303 0.68012 0.0
H240 H 0.44245 0.32142 0.57237 0.0
H241 H 0.38875 0.25557 0.63254 0.0
C242 C 0.92709 0.19101 0.81678 0.0
C243 C 0.90704 0.13059 0.82831 0.0
C244 C 0.89509 0.21751 0.78553 0.0
C245 C 0.77129 0.18692 0.69759 0.0
H246 H 0.75353 0.33612 0.74772 0.0
C247 C 0.60253 0.2907 0.6138 0.0
C248 C 0.6226 0.35113 0.60233 0.0
C249 C 0.6345 0.26415 0.64505 0.0
C250 C 0.75824 0.29468 0.73307 0.0
H251 H 0.84067 0.04933 0.81194 0.0
H252 H 0.78525 0.09541 0.75763 0.0
H253 H 0.82026 0.28932 0.78825 0.0
H254 H 0.68897 0.43236 0.61878 0.0
H255 H 0.74433 0.38621 0.67309 0.0
H256 H 0.70928 0.19228 0.64241 0.0
C257 C 0.82534 0.12256 0.77294 0.0
C258 C 0.79681 0.26802 0.75609 0.0
C259 C 0.8572 0.0961 0.80421 0.0
C260 C 0.67242 0.38558 0.62647 0.0
C261 C 0.70425 0.35908 0.65774 0.0
C262 C 0.73272 0.21358 0.67456 0.0
C263 C 0.84263 0.18409 0.76491 0.0
C264 C 0.80386 0.21383 0.73862 0.0
C265 C 0.68694 0.29754 0.66573 0.0
C266 C 0.72568 0.26777 0.69203 0.0
H267 H 0.96543 0.21889 0.83443 0.0
H268 H 0.91029 0.26475 0.7791 0.0
H269 H 0.776 0.14547 0.68294 0.0
H270 H 0.56421 0.26284 0.59611 0.0
H271 H 0.61928 0.2169 0.65145 0.0
C272 C 0.83831 0.79357 0.88899 0.0
C273 C 0.86463 0.855 0.88908 0.0
C274 C 0.80612 0.76574 0.84865 0.0
C275 C 0.74465 0.78947 0.72881 0.0
H276 H 0.80225 0.6568 0.6913 0.0
C277 C 0.69135 0.6889 0.54137 0.0
C278 C 0.66524 0.62742 0.54143 0.0
C279 C 0.72367 0.71695 0.58158 0.0
C280 C 0.78569 0.6936 0.70135 0.0
H281 H 0.8709 0.93681 0.85032 0.0
H282 H 0.8148 0.88821 0.77991 0.0
H283 H 0.82943 0.70411 0.77032 0.0
H284 H 0.65946 0.54579 0.58032 0.0
H285 H 0.71574 0.59475 0.65051 0.0
H286 H 0.70087 0.77894 0.65986 0.0
C287 C 0.81945 0.86136 0.81065 0.0
C288 C 0.80072 0.72035 0.74674 0.0
C289 C 0.85147 0.8893 0.85117 0.0
C290 C 0.67872 0.59333 0.57935 0.0
C291 C 0.71085 0.62148 0.61974 0.0
C292 C 0.72961 0.76272 0.68343 0.0
C293 C 0.79977 0.79895 0.80788 0.0
C294 C 0.78023 0.76845 0.76098 0.0
C295 C 0.73035 0.68391 0.62238 0.0
C296 C 0.75006 0.71458 0.6692 0.0
H297 H 0.84687 0.7662 0.91819 0.0
H298 H 0.78975 0.71772 0.84801 0.0
H299 H 0.7281 0.82627 0.73887 0.0
H300 H 0.68255 0.71612 0.51215 0.0
H301 H 0.7399 0.76498 0.5821 0.0
loop_
_geom_bond_atom_site_label_1
_geom_bond_atom_site_label_2
_geom_bond_distance
_geom_bond_site_symmetry_2
_ccdc_geom_bond_type
C0 O12 1.241 . S
C0 O13 1.280 . S
C1 O14 1.277 . S
C1 O15 1.245 . S
C2 O26 1.247 . S
C2 O28 1.289 . S
Mg3 O4 1.926 . S
Mg3 O13 1.984 . S
Mg3 O15 1.988 1_554 S
Mg3 O16 2.061 1_655 S
O4 Mg3 1.926 . S
O4 Mg5 1.986 1_554 S
O4 Mg6 1.917 1_655 S
Mg5 O4 1.986 1_556 S
Mg5 O12 2.042 1_556 S
Mg5 O14 2.041 . S
Mg5 O20 2.038 1_546 S
Mg5 O28 2.238 1_545 S
Mg6 O4 1.917 1_455 S
Mg6 O7 1.917 1_544 S
Mg6 O17 2.106 . S
Mg6 O19 2.079 1_445 S
Mg6 O28 2.106 1_444 S
Mg6 O29 2.079 1_554 S
O7 Mg6 1.917 1_566 S
O7 Mg8 1.926 . S
O7 Mg9 1.986 1_556 S
Mg8 O7 1.926 . S
Mg8 O22 1.984 . S
Mg8 O25 1.988 1_556 S
Mg8 O26 2.061 1_455 S
Mg9 O7 1.986 1_554 S
Mg9 O17 2.238 1_565 S
Mg9 O21 2.042 1_554 S
Mg9 O23 2.041 . S
Mg9 O30 2.038 1_564 S
C10 O16 1.247 . S
C10 O17 1.289 . S
C11 O29 1.245 . S
C11 O30 1.274 . S
O12 C0 1.241 . S
O12 Mg5 2.042 1_554 S
O13 C0 1.280 . S
O13 Mg3 1.984 . S
O14 C1 1.277 . S
O14 Mg5 2.041 . S
O15 C1 1.245 . S
O15 Mg3 1.988 1_556 S
O16 Mg3 2.061 1_455 S
O16 C10 1.247 . S
O17 Mg6 2.106 . S
O17 Mg9 2.238 1_545 S
O17 C10 1.289 . S
C18 O19 1.245 . S
C18 O20 1.274 . S
O19 Mg6 2.079 1_665 S
O19 C18 1.245 . S
O20 Mg5 2.038 1_564 S
O20 C18 1.274 . S
O21 Mg9 2.042 1_556 S
O21 C24 1.241 . S
O22 Mg8 1.984 . S
O22 C24 1.280 . S
O23 Mg9 2.041 . S
O23 C27 1.277 . S
C24 O21 1.241 . S
C24 O22 1.280 . S
O25 Mg8 1.988 1_554 S
O25 C27 1.245 . S
O26 C2 1.247 . S
O26 Mg8 2.061 1_655 S
C27 O23 1.277 . S
C27 O25 1.245 . S
O28 C2 1.289 . S
O28 Mg5 2.238 1_565 S
O28 Mg6 2.106 1_666 S
O29 Mg6 2.079 1_556 S
O29 C11 1.245 . S
O30 Mg9 2.038 1_546 S
O30 C11 1.274 . S
C31 O43 1.241 . S
C31 O44 1.280 . S
C32 O45 1.277 . S
C32 O46 1.245 . S
C33 O57 1.247 . S
C33 O59 1.289 . S
Mg34 O35 1.926 . S
Mg34 O44 1.984 . S
Mg34 O46 1.988 . S
Mg34 O47 2.061 . S
O35 Mg34 1.926 . S
O35 Mg36 1.986 . S
O35 Mg37 1.917 . S
Mg36 O35 1.986 . S
Mg36 O43 2.042 . S
Mg36 O45 2.041 . S
Mg36 O51 2.038 . S
Mg36 O59 2.238 . S
Mg37 O35 1.917 . S
Mg37 O38 1.917 . S
Mg37 O48 2.106 . S
Mg37 O50 2.079 . S
Mg37 O59 2.106 . S
Mg37 O60 2.079 . S
O38 Mg37 1.917 . S
O38 Mg39 1.926 . S
O38 Mg40 1.986 . S
Mg39 O38 1.926 . S
Mg39 O53 1.984 . S
Mg39 O56 1.988 . S
Mg39 O57 2.061 . S
Mg40 O38 1.986 . S
Mg40 O48 2.238 . S
Mg40 O52 2.042 . S
Mg40 O54 2.041 . S
Mg40 O61 2.038 . S
C41 O47 1.247 . S
C41 O48 1.289 . S
C42 O60 1.245 . S
C42 O61 1.274 . S
O43 C31 1.241 . S
O43 Mg36 2.042 . S
O44 C31 1.280 . S
O44 Mg34 1.984 . S
O45 C32 1.277 . S
O45 Mg36 2.041 . S
O46 C32 1.245 . S
O46 Mg34 1.988 . S
O47 Mg34 2.061 . S
O47 C41 1.247 . S
O48 Mg37 2.106 . S
O48 Mg40 2.238 . S
O48 C41 1.289 . S
C49 O50 1.245 . S
C49 O51 1.274 . S
O50 Mg37 2.079 . S
O50 C49 1.245 . S
O51 Mg36 2.038 . S
O51 C49 1.274 . S
O52 Mg40 2.042 . S
O52 C55 1.241 . S
O53 Mg39 1.984 . S
O53 C55 1.280 . S
O54 Mg40 2.041 . S
O54 C58 1.277 . S
C55 O52 1.241 . S
C55 O53 1.280 . S
O56 Mg39 1.988 . S
O56 C58 1.245 . S
O57 C33 1.247 . S
O57 Mg39 2.061 . S
C58 O54 1.277 . S
C58 O56 1.245 . S
O59 C33 1.289 . S
O59 Mg36 2.238 . S
O59 Mg37 2.106 . S
O60 Mg37 2.079 . S
O60 C42 1.245 . S
O61 Mg40 2.038 . S
O61 C42 1.274 . S
C62 C63 1.349 . S
C62 C64 1.327 . S
C62 H87 0.950 . S
C63 C62 1.349 . S
C63 C79 1.349 . S
C64 C62 1.327 . S
C64 C83 1.429 . S
C64 H88 0.950 . S
C65 C82 1.574 . S
C65 C84 1.368 . S
C65 H89 0.949 . S
H66 C70 0.949 . S
C67 C68 1.349 . S
C67 C69 1.327 . S
C67 H90 0.950 . S
C68 C67 1.349 . S
C68 C80 1.349 . S
C69 C67 1.327 . S
C69 C85 1.429 . S
C69 H91 0.950 . S
C70 H66 0.949 . S
C70 C78 1.574 . S
C70 C86 1.368 . S
H71 C79 0.950 . S
H72 C77 0.950 . S
H73 C78 0.949 . S
H74 C80 0.950 . S
H75 C81 0.950 . S
H76 C82 0.949 . S
C77 H72 0.950 . S
C77 C79 1.327 . S
C77 C83 1.429 . S
C78 C70 1.574 . S
C78 H73 0.949 . S
C78 C84 1.368 . S
C79 C63 1.349 . S
C79 H71 0.950 . S
C79 C77 1.327 . S
C80 C68 1.349 . S
C80 H74 0.950 . S
C80 C81 1.327 . S
C81 H75 0.950 . S
C81 C80 1.327 . S
C81 C85 1.429 . S
C82 C65 1.574 . S
C82 H76 0.949 . S
C82 C86 1.368 . S
C83 C64 1.429 . S
C83 C77 1.429 . S
C83 C84 1.523 . S
C84 C65 1.368 . S
C84 C78 1.368 . S
C84 C83 1.523 . S
C85 C69 1.429 . S
C85 C81 1.429 . S
C85 C86 1.523 . S
C86 C70 1.368 . S
C86 C82 1.368 . S
C86 C85 1.523 . S
H87 C62 0.950 . S
H88 C64 0.950 . S
H89 C65 0.949 . S
H90 C67 0.950 . S
H91 C69 0.950 . S
C92 C93 1.349 . S
C92 C94 1.327 . S
C92 H117 0.950 . S
C93 C92 1.349 . S
C93 C109 1.349 . S
C94 C92 1.327 . S
C94 C113 1.429 . S
C94 H118 0.950 . S
C95 C112 1.574 . S
C95 C114 1.368 . S
C95 H119 0.949 . S
H96 C100 0.949 . S
C97 C98 1.349 . S
C97 C99 1.327 . S
C97 H120 0.950 . S
C98 C97 1.349 . S
C98 C110 1.349 . S
C99 C97 1.327 . S
C99 C115 1.429 . S
C99 H121 0.950 . S
C100 H96 0.949 . S
C100 C108 1.574 . S
C100 C116 1.368 . S
H101 C109 0.950 . S
H102 C107 0.950 . S
H103 C108 0.949 . S
H104 C110 0.950 . S
H105 C111 0.950 . S
H106 C112 0.949 . S
C107 H102 0.950 . S
C107 C109 1.327 . S
C107 C113 1.429 . S
C108 C100 1.574 . S
C108 H103 0.949 . S
C108 C114 1.368 . S
C109 C93 1.349 . S
C109 H101 0.950 . S
C109 C107 1.327 . S
C110 C98 1.349 . S
C110 H104 0.950 . S
C110 C111 1.327 . S
C111 H105 0.950 . S
C111 C110 1.327 . S
C111 C115 1.429 . S
C112 C95 1.574 . S
C112 H106 0.949 . S
C112 C116 1.368 . S
C113 C94 1.429 . S
C113 C107 1.429 . S
C113 C114 1.523 . S
C114 C95 1.368 . S
C114 C108 1.368 . S
C114 C113 1.523 . S
C115 C99 1.429 . S
C115 C111 1.429 . S
C115 C116 1.523 . S
C116 C100 1.368 . S
C116 C112 1.368 . S
C116 C115 1.523 . S
H117 C92 0.950 . S
H118 C94 0.950 . S
H119 C95 0.949 . S
H120 C97 0.950 . S
H121 C99 0.950 . S
C122 C123 1.349 . S
C122 C124 1.327 . S
C122 H147 0.950 . S
C123 C122 1.349 . S
C123 C139 1.349 . S
C124 C122 1.327 . S
C124 C143 1.429 . S
C124 H148 0.950 . S
C125 C142 1.574 . S
C125 C144 1.368 . S
C125 H149 0.949 . S
H126 C130 0.949 . S
C127 C128 1.349 . S
C127 C129 1.327 . S
C127 H150 0.950 . S
C128 C127 1.349 . S
C128 C140 1.349 . S
C129 C127 1.327 . S
C129 C145 1.429 . S
C129 H151 0.950 . S
C130 H126 0.949 . S
C130 C138 1.574 . S
C130 C146 1.368 . S
H131 C139 0.950 . S
H132 C137 0.950 . S
H133 C138 0.949 . S
H134 C140 0.950 . S
H135 C141 0.950 . S
H136 C142 0.949 . S
C137 H132 0.950 . S
C137 C139 1.327 . S
C137 C143 1.429 . S
C138 C130 1.574 . S
C138 H133 0.949 . S
C138 C144 1.368 . S
C139 C123 1.349 . S
C139 H131 0.950 . S
C139 C137 1.327 . S
C140 C128 1.349 . S
C140 H134 0.950 . S
C140 C141 1.327 . S
C141 H135 0.950 . S
C141 C140 1.327 . S
C141 C145 1.429 . S
C142 C125 1.574 . S
C142 H136 0.949 . S
C142 C146 1.368 . S
C143 C124 1.429 . S
C143 C137 1.429 . S
C143 C144 1.523 . S
C144 C125 1.368 . S
C144 C138 1.368 . S
C144 C143 1.523 . S
C145 C129 1.429 . S
C145 C141 1.429 . S
C145 C146 1.523 . S
C146 C130 1.368 . S
C146 C142 1.368 . S
C146 C145 1.523 . S
H147 C122 0.950 . S
H148 C124 0.950 . S
H149 C125 0.949 . S
H150 C127 0.950 . S
H151 C129 0.950 . S
C152 C153 1.349 . S
C152 C154 1.327 . S
C152 H177 0.950 . S
C153 C152 1.349 . S
C153 C169 1.349 . S
C154 C152 1.327 . S
C154 C173 1.429 . S
C154 H178 0.950 . S
C155 C172 1.574 . S
C155 C174 1.368 . S
C155 H179 0.949 . S
H156 C160 0.949 . S
C157 C158 1.349 . S
C157 C159 1.327 . S
C157 H180 0.950 . S
C158 C157 1.349 . S
C158 C170 1.349 . S
C159 C157 1.327 . S
C159 C175 1.429 . S
C159 H181 0.950 . S
C160 H156 0.949 . S
C160 C168 1.574 . S
C160 C176 1.368 . S
H161 C169 0.950 . S
H162 C167 0.950 . S
H163 C168 0.949 . S
H164 C170 0.950 . S
H165 C171 0.950 . S
H166 C172 0.949 . S
C167 H162 0.950 . S
C167 C169 1.327 . S
C167 C173 1.429 . S
C168 C160 1.574 . S
C168 H163 0.949 . S
C168 C174 1.368 . S
C169 C153 1.349 . S
C169 H161 0.950 . S
C169 C167 1.327 . S
C170 C158 1.349 . S
C170 H164 0.950 . S
C170 C171 1.327 . S
C171 H165 0.950 . S
C171 C170 1.327 . S
C171 C175 1.429 . S
C172 C155 1.574 . S
C172 H166 0.949 . S
C172 C176 1.368 . S
C173 C154 1.429 . S
C173 C167 1.429 . S
C173 C174 1.523 . S
C174 C155 1.368 . S
C174 C168 1.368 . S
C174 C173 1.523 . S
C175 C159 1.429 . S
C175 C171 1.429 . S
C175 C176 1.523 . S
C176 C160 1.368 . S
C176 C172 1.368 . S
C176 C175 1.523 . S
H177 C152 0.950 . S
H178 C154 0.950 . S
H179 C155 0.949 . S
H180 C157 0.950 . S
H181 C159 0.950 . S
C182 C183 1.349 . S
C182 C184 1.327 . S
C182 H207 0.950 . S
C183 C182 1.349 . S
C183 C199 1.349 . S
C184 C182 1.327 . S
C184 C203 1.429 . S
C184 H208 0.950 . S
C185 C202 1.574 . S
C185 C204 1.368 . S
C185 H209 0.949 . S
H186 C190 0.949 . S
C187 C188 1.349 . S
C187 C189 1.327 . S
C187 H210 0.950 . S
C188 C187 1.349 . S
C188 C200 1.349 . S
C189 C187 1.327 . S
C189 C205 1.429 . S
C189 H211 0.950 . S
C190 H186 0.949 . S
C190 C198 1.574 . S
C190 C206 1.368 . S
H191 C199 0.950 . S
H192 C197 0.950 . S
H193 C198 0.949 . S
H194 C200 0.950 . S
H195 C201 0.950 . S
H196 C202 0.949 . S
C197 H192 0.950 . S
C197 C199 1.327 . S
C197 C203 1.429 . S
C198 C190 1.574 . S
C198 H193 0.949 . S
C198 C204 1.368 . S
C199 C183 1.349 . S
C199 H191 0.950 . S
C199 C197 1.327 . S
C200 C188 1.349 . S
C200 H194 0.950 . S
C200 C201 1.327 . S
C201 H195 0.950 . S
C201 C200 1.327 . S
C201 C205 1.429 . S
C202 C185 1.574 . S
C202 H196 0.949 . S
C202 C206 1.368 . S
C203 C184 1.429 . S
C203 C197 1.429 . S
C203 C204 1.523 . S
C204 C185 1.368 . S
C204 C198 1.368 . S
C204 C203 1.523 . S
C205 C189 1.429 . S
C205 C201 1.429 . S
C205 C206 1.523 . S
C206 C190 1.368 . S
C206 C202 1.368 . S
C206 C205 1.523 . S
H207 C182 0.950 . S
H208 C184 0.950 . S
H209 C185 0.949 . S
H210 C187 0.950 . S
H211 C189 0.950 . S
C212 C213 1.349 . S
C212 C214 1.327 . S
C212 H237 0.950 . S
C213 C212 1.349 . S
C213 C229 1.349 . S
C214 C212 1.327 . S
C214 C233 1.429 . S
C214 H238 0.950 . S
C215 C232 1.574 . S
C215 C234 1.368 . S
C215 H239 0.949 . S
H216 C220 0.949 . S
C217 C218 1.349 . S
C217 C219 1.327 . S
C217 H240 0.950 . S
C218 C217 1.349 . S
C218 C230 1.349 . S
C219 C217 1.327 . S
C219 C235 1.429 . S
C219 H241 0.950 . S
C220 H216 0.949 . S
C220 C228 1.574 . S
C220 C236 1.368 . S
H221 C229 0.950 . S
H222 C227 0.950 . S
H223 C228 0.949 . S
H224 C230 0.950 . S
H225 C231 0.950 . S
H226 C232 0.949 . S
C227 H222 0.950 . S
C227 C229 1.327 . S
C227 C233 1.429 . S
C228 C220 1.574 . S
C228 H223 0.949 . S
C228 C234 1.368 . S
C229 C213 1.349 . S
C229 H221 0.950 . S
C229 C227 1.327 . S
C230 C218 1.349 . S
C230 H224 0.950 . S
C230 C231 1.327 . S
C231 H225 0.950 . S
C231 C230 1.327 . S
C231 C235 1.429 . S
C232 C215 1.574 . S
C232 H226 0.949 . S
C232 C236 1.368 . S
C233 C214 1.429 . S
C233 C227 1.429 . S
C233 C234 1.523 . S
C234 C215 1.368 . S
C234 C228 1.368 . S
C234 C233 1.523 . S
C235 C219 1.429 . S
C235 C231 1.429 . S
C235 C236 1.523 . S
C236 C220 1.368 . S
C236 C232 1.368 . S
C236 C235 1.523 . S
H237 C212 0.950 . S
H238 C214 0.950 . S
H239 C215 0.949 . S
H240 C217 0.950 . S
H241 C219 0.950 . S
C242 C243 1.349 . S
C242 C244 1.327 . S
C242 H267 0.950 . S
C243 C242 1.349 . S
C243 C259 1.349 . S
C244 C242 1.327 . S
C244 C263 1.429 . S
C244 H268 0.950 . S
C245 C262 1.574 . S
C245 C264 1.368 . S
C245 H269 0.949 . S
H246 C250 0.949 . S
C247 C248 1.349 . S
C247 C249 1.327 . S
C247 H270 0.950 . S
C248 C247 1.349 . S
C248 C260 1.349 . S
C249 C247 1.327 . S
C249 C265 1.429 . S
C249 H271 0.950 . S
C250 H246 0.949 . S
C250 C258 1.574 . S
C250 C266 1.368 . S
H251 C259 0.950 . S
H252 C257 0.950 . S
H253 C258 0.949 . S
H254 C260 0.950 . S
H255 C261 0.950 . S
H256 C262 0.949 . S
C257 H252 0.950 . S
C257 C259 1.327 . S
C257 C263 1.429 . S
C258 C250 1.574 . S
C258 H253 0.949 . S
C258 C264 1.368 . S
C259 C243 1.349 . S
C259 H251 0.950 . S
C259 C257 1.327 . S
C260 C248 1.349 . S
C260 H254 0.950 . S
C260 C261 1.327 . S
C261 H255 0.950 . S
C261 C260 1.327 . S
C261 C265 1.429 . S
C262 C245 1.574 . S
C262 H256 0.949 . S
C262 C266 1.368 . S
C263 C244 1.429 . S
C263 C257 1.429 . S
C263 C264 1.523 . S
C264 C245 1.368 . S
C264 C258 1.368 . S
C264 C263 1.523 . S
C265 C249 1.429 . S
C265 C261 1.429 . S
C265 C266 1.523 . S
C266 C250 1.368 . S
C266 C262 1.368 . S
C266 C265 1.523 . S
H267 C242 0.950 . S
H268 C244 0.950 . S
H269 C245 0.949 . S
H270 C247 0.950 . S
H271 C249 0.950 . S
C272 C273 1.349 . S
C272 C274 1.327 . S
C272 H297 0.950 . S
C273 C272 1.349 . S
C273 C289 1.349 . S
C274 C272 1.327 . S
C274 C293 1.429 . S
C274 H298 0.950 . S
C275 C292 1.574 . S
C275 C294 1.368 . S
C275 H299 0.949 . S
H276 C280 0.949 . S
C277 C278 1.349 . S
C277 C279 1.327 . S
C277 H300 0.950 . S
C278 C277 1.349 . S
C278 C290 1.349 . S
C279 C277 1.327 . S
C279 C295 1.429 . S
C279 H301 0.950 . S
C280 H276 0.949 . S
C280 C288 1.574 . S
C280 C296 1.368 . S
H281 C289 0.950 . S
H282 C287 0.950 . S
H283 C288 0.949 . S
H284 C290 0.950 . S
H285 C291 0.950 . S
H286 C292 0.949 . S
C287 H282 0.950 . S
C287 C289 1.327 . S
C287 C293 1.429 . S
C288 C280 1.574 . S
C288 H283 0.949 . S
C288 C294 1.368 . S
C289 C273 1.349 . S
C289 H281 0.950 . S
C289 C287 1.327 . S
C290 C278 1.349 . S
C290 H284 0.950 . S
C290 C291 1.327 . S
C291 H285 0.950 . S
C291 C290 1.327 . S
C291 C295 1.429 . S
C292 C275 1.574 . S
C292 H286 0.949 . S
C292 C296 1.368 . S
C293 C274 1.429 . S
C293 C287 1.429 . S
C293 C294 1.523 . S
C294 C275 1.368 . S
C294 C288 1.368 . S
C294 C293 1.523 . S
C295 C279 1.429 . S
C295 C291 1.429 . S
C295 C296 1.523 . S
C296 C280 1.368 . S
C296 C292 1.368 . S
C296 C295 1.523 . S
H297 C272 0.950 . S
H298 C274 0.950 . S
H299 C275 0.949 . S
H300 C277 0.950 . S
H301 C279 0.950 . S
C63 C10 0.716 . S
C68 C33 0.713 . S
C93 C0 1.651 . S
C98 C55 1.650 . S
C123 C18 1.503 . S
C128 C42 1.503 . S
C153 C27 1.819 . S
C158 C32 1.817 . S
C183 C24 1.651 . S
C188 C31 1.653 . S
C218 C49 1.503 . S
C213 C11 1.504 . S
C243 C1 1.819 . S
C248 C58 1.821 . S
C278 C41 0.716 . S
C273 C2 0.719 . S
