# Generated by pormake.
# Topology tsx, (6,3)-cn, num edge types: 1
# Building blocks:
#     Node 0, Type 0, BuildingBlock: JUFBIX_clean_sbu_0, # of connection points: 6
#     Node 1, Type 0, BuildingBlock: JUFBIX_clean_sbu_0, # of connection points: 6
#     Node 2, Type 1, BuildingBlock: WUSLED_clean_sbu_0, # of connection points: 3
#     Node 3, Type 1, BuildingBlock: WUSLED_clean_sbu_0, # of connection points: 3
#     Node 4, Type 1, BuildingBlock: WUSLED_clean_sbu_0, # of connection points: 3
#     Node 5, Type 1, BuildingBlock: WUSLED_clean_sbu_0, # of connection points: 3
#     Edge 6, Type (0, 1), BuildingBlock: AJUNOK_clean_linker_0, # of connection points: 2
#     Edge 7, Type (0, 1), BuildingBlock: AJUNOK_clean_linker_0, # of connection points: 2
#     Edge 8, Type (0, 1), BuildingBlock: AJUNOK_clean_linker_0, # of connection points: 2
#     Edge 9, Type (0, 1), BuildingBlock: AJUNOK_clean_linker_0, # of connection points: 2
#     Edge 10, Type (0, 1), BuildingBlock: AJUNOK_clean_linker_0, # of connection points: 2
#     Edge 11, Type (0, 1), BuildingBlock: AJUNOK_clean_linker_0, # of connection points: 2
#     Edge 12, Type (0, 1), BuildingBlock: AJUNOK_clean_linker_0, # of connection points: 2
#     Edge 13, Type (0, 1), BuildingBlock: AJUNOK_clean_linker_0, # of connection points: 2
#     Edge 14, Type (0, 1), BuildingBlock: AJUNOK_clean_linker_0, # of connection points: 2
#     Edge 15, Type (0, 1), BuildingBlock: AJUNOK_clean_linker_0, # of connection points: 2
#     Edge 16, Type (0, 1), BuildingBlock: AJUNOK_clean_linker_0, # of connection points: 2
#     Edge 17, Type (0, 1), BuildingBlock: AJUNOK_clean_linker_0, # of connection points: 2
# Relax obj value: 0.150
# Max RMSD: 0.164
# Mean RMSD: 0.131
data_MOF--net-tsx--node1-JUFBIX_clean_sbu_0--node2-WUSLED_clean_sbu_0--edge1-AJUNOK_clean_linker_0
_symmetry_space_group_name_H-M    P1
_symmetry_Int_Tables_number       1
_symmetry_cell_setting            triclinic
loop_
_symmetry_equiv_pos_as_xyz
'x, y, z'
_cell_length_a     20.673064
_cell_length_b     24.330393
_cell_length_c     36.485687
_cell_angle_alpha  92.637264
_cell_angle_beta   89.584649
_cell_angle_gamma 99.382694
loop_
_atom_site_label
_atom_site_type_symbol
_atom_site_fract_x
_atom_site_fract_y
_atom_site_fract_z
_atom_type_partial_charge
Co0 Co 0.05951 0.99356 0.02415 0.0
C1 C 1.01146 0.0243 0.95708 0.0
Co2 Co 0.98482 0.04977 0.02813 0.0
C3 C 0.14101 0.9028 0.02673 0.0
C4 C 0.17125 0.96703 0.98908 0.0
N5 N 0.12559 0.95106 0.01474 0.0
N6 N 0.19487 0.88905 0.00938 0.0
C7 C 0.21314 0.92941 0.98567 0.0
H8 H 0.1139 0.87881 0.04777 0.0
H9 H 0.17364 1.00382 0.97327 0.0
C10 C 0.03347 0.01804 0.09517 0.0
N11 N 0.91975 0.09407 0.03565 0.0
C12 C 0.89983 0.13287 0.0147 0.0
C13 C 0.88145 0.09312 0.06573 0.0
N14 N 0.85026 0.15546 0.03063 0.0
C15 C 0.83988 0.13108 0.06302 0.0
C16 C 0.93516 0.93492 0.02729 0.0
O17 O 0.0688 0.99023 0.07547 0.0
O18 O 0.99529 0.04618 0.07996 0.0
O19 O 0.91954 0.98355 0.02795 0.0
O20 O 0.99519 0.9295 0.02454 0.0
O21 O 0.97674 0.05309 0.97634 0.0
H22 H 0.88333 0.06648 0.08846 0.0
H23 H 0.92051 0.14376 0.98814 0.0
O24 O 0.04871 0.9963 0.97286 0.0
O25 O 0.12404 0.05949 0.02474 0.0
O26 O 0.04955 0.11426 0.02913 0.0
C27 C 0.10931 0.10812 0.0276 0.0
H28 H 0.25381 0.93124 0.96667 0.0
H29 H 0.80521 0.14044 0.0838 0.0
Co30 Co 0.55968 0.49678 0.52355 0.0
C31 C 0.51179 0.5279 0.45667 0.0
Co32 Co 0.48267 0.55058 0.52771 0.0
C33 C 0.64248 0.40668 0.52673 0.0
C34 C 0.67164 0.47025 0.48849 0.0
N35 N 0.62641 0.45457 0.51445 0.0
N36 N 0.69643 0.39317 0.50939 0.0
C37 C 0.71359 0.43269 0.48501 0.0
H38 H 0.61572 0.38261 0.54785 0.0
H39 H 0.6738 0.50684 0.47253 0.0
C40 C 0.53171 0.52094 0.59475 0.0
N41 N 0.41761 0.59459 0.53465 0.0
C42 C 0.40504 0.63792 0.51535 0.0
C43 C 0.37069 0.58824 0.56071 0.0
N44 N 0.35186 0.6581 0.52835 0.0
C45 C 0.33012 0.62709 0.5568 0.0
C46 C 0.43491 0.43637 0.52613 0.0
O47 O 0.56703 0.49269 0.57524 0.0
O48 O 0.49289 0.54819 0.57923 0.0
O49 O 0.41852 0.48466 0.52807 0.0
O50 O 0.49522 0.43205 0.52263 0.0
O51 O 0.47351 0.5527 0.47617 0.0
H52 H 0.3658 0.55681 0.58101 0.0
H53 H 0.4335 0.65372 0.49194 0.0
O54 O 0.55136 0.50158 0.47198 0.0
O55 O 0.62366 0.56259 0.52536 0.0
O56 O 0.54729 0.61548 0.52808 0.0
C57 C 0.6076 0.61077 0.52774 0.0
H58 H 0.75358 0.43404 0.46558 0.0
H59 H 0.2877 0.63216 0.5734 0.0
C60 C 0.91559 0.12487 0.48996 0.0
C61 C 0.90978 0.16057 0.46145 0.0
C62 C 0.83704 0.20849 0.4995 0.0
C63 C 0.87083 0.20241 0.4663 0.0
C64 C 0.84188 0.17191 0.52748 0.0
C65 C 0.88109 0.13056 0.52277 0.0
U66 U 0.02236 0.02389 0.44209 0.0
O67 O 0.11661 1.00839 0.4642 0.0
O68 O 0.03082 0.94076 0.46084 0.0
C69 C 0.09159 0.95702 0.47194 0.0
C70 C 0.95942 0.0831 0.48768 0.0
C71 C 0.13479 0.91539 0.47548 0.0
C72 C 0.20794 0.87602 0.51478 0.0
C73 C 0.16996 0.91692 0.50828 0.0
C74 C 0.17679 0.83149 0.45531 0.0
C75 C 0.21238 0.83305 0.48828 0.0
C76 C 0.13804 0.87238 0.44897 0.0
C77 C 0.01939 0.0299 0.33192 0.0
C78 C 0.06287 0.98957 0.27671 0.0
C79 C 0.99064 0.05799 0.27208 0.0
C80 C 0.98627 0.06213 0.31014 0.0
C81 C 0.02905 0.02186 0.25471 0.0
C82 C 0.05772 0.9933 0.31517 0.0
C83 C 1.0114 0.03663 0.37179 0.0
O84 O 0.93418 0.03316 0.47446 0.0
O85 O 0.01965 0.09996 0.47653 0.0
O86 O 0.0591 0.06535 0.39175 0.0
O87 O 0.97253 0.99828 0.38934 0.0
H88 H 0.93621 0.15682 0.43594 0.0
H89 H 0.86781 0.23057 0.44445 0.0
H90 H 0.81693 0.17644 0.55339 0.0
H91 H 0.88553 0.10356 0.54511 0.0
H92 H 0.23254 0.8774 0.54098 0.0
H93 H 0.16677 0.94922 0.52941 0.0
H94 H 0.17892 0.79864 0.4345 0.0
H95 H 0.11038 0.87016 0.4237 0.0
H96 H 0.0941 0.96222 0.26433 0.0
H97 H 0.96319 0.0829 0.25623 0.0
H98 H 0.95636 0.09054 0.32267 0.0
H99 H 0.08382 0.96819 0.33168 0.0
C100 C 0.91031 0.89791 0.55947 0.0
C101 C 0.88236 0.87135 0.59054 0.0
C102 C 0.81312 0.80254 0.55107 0.0
C103 C 0.83394 0.82386 0.58634 0.0
C104 C 0.84216 0.82891 0.52024 0.0
C105 C 0.89012 0.87624 0.52444 0.0
U106 U 0.0224 0.01845 0.61209 0.0
O107 O 0.12272 0.05654 0.5967 0.0
O108 O 0.04165 0.10699 0.59818 0.0
C109 C 0.10361 0.10453 0.59131 0.0
C110 C 0.95956 0.94881 0.56226 0.0
C111 C 0.14935 0.15303 0.57964 0.0
C112 C 0.21592 0.20151 0.53228 0.0
C113 C 0.17162 0.15543 0.54326 0.0
C114 C 0.21526 0.24328 0.59392 0.0
C115 C 0.23809 0.24555 0.55763 0.0
C116 C 0.17099 0.19725 0.60487 0.0
C117 C 1.00308 1.00845 0.72091 0.0
C118 C 0.05427 0.05353 0.77672 0.0
C119 C 0.96043 0.97987 0.78029 0.0
C120 C 0.95757 0.97488 0.74224 0.0
C121 C 1.00929 0.01846 0.79799 0.0
C122 C 0.05143 0.04837 0.73816 0.0
C123 C 0.99758 0.99808 0.68103 0.0
O124 O 0.93848 0.99413 0.57486 0.0
O125 O 0.01714 0.94352 0.57536 0.0
O126 O 0.04615 0.98053 0.66298 0.0
O127 O 0.96462 0.029 0.66215 0.0
H128 H 0.89756 0.8875 0.61785 0.0
H129 H 0.81284 0.80378 0.61055 0.0
H130 H 0.82679 0.81351 0.49281 0.0
H131 H 0.9111 0.89635 0.50021 0.0
H132 H 0.23331 0.20264 0.5042 0.0
H133 H 0.15496 0.12161 0.52345 0.0
H134 H 0.2325 0.27675 0.61386 0.0
H135 H 0.15423 0.19586 0.63308 0.0
H136 H 0.09225 0.08378 0.7899 0.0
H137 H 0.92442 0.95317 0.79598 0.0
H138 H 0.91979 0.94406 0.72934 0.0
H139 H 0.08694 0.07477 0.72202 0.0
C140 C 0.419 0.62399 0.98984 0.0
C141 C 0.41198 0.6594 0.96136 0.0
C142 C 0.33811 0.70575 0.99963 0.0
C143 C 0.37193 0.70038 0.96636 0.0
C144 C 0.34436 0.66952 0.02763 0.0
C145 C 0.38468 0.62906 0.02277 0.0
U146 U 0.52538 0.52293 0.9416 0.0
O147 O 0.61963 0.50627 0.96271 0.0
O148 O 0.53246 0.4398 0.96114 0.0
C149 C 0.59371 0.45559 0.97149 0.0
C150 C 0.4634 0.58272 0.98729 0.0
C151 C 0.63589 0.41355 0.97593 0.0
C152 C 0.6867 0.35946 0.01816 0.0
C153 C 0.64919 0.40064 0.01181 0.0
C154 C 0.69984 0.34422 0.95256 0.0
C155 C 0.71174 0.33041 0.98865 0.0
C156 C 0.66166 0.38559 0.94617 0.0
C157 C 0.51869 0.52624 0.83129 0.0
C158 C 0.57623 0.50365 0.77565 0.0
C159 C 0.47598 0.54263 0.77178 0.0
C160 C 0.47109 0.54428 0.80984 0.0
C161 C 0.52926 0.52351 0.75418 0.0
C162 C 0.57118 0.50527 0.81413 0.0
C163 C 0.51231 0.53352 0.87124 0.0
O164 O 0.43808 0.53255 0.97456 0.0
O165 O 0.5232 0.59971 0.97548 0.0
O166 O 0.56103 0.56221 0.8905 0.0
O167 O 0.47305 0.49641 0.88955 0.0
H168 H 0.43817 0.65602 0.93574 0.0
H169 H 0.36781 0.72825 0.94447 0.0
H170 H 0.31952 0.67357 0.05362 0.0
H171 H 0.38998 0.60219 0.04506 0.0
H172 H 0.69539 0.34961 0.04619 0.0
H173 H 0.62971 0.42202 0.03507 0.0
H174 H 0.71838 0.32193 0.92945 0.0
H175 H 0.6516 0.39517 0.91829 0.0
H176 H 0.61757 0.48831 0.76275 0.0
H177 H 0.43787 0.5565 0.75609 0.0
H178 H 0.43019 0.5605 0.82266 0.0
H179 H 0.60842 0.49112 0.83034 0.0
C180 C 0.40659 0.39851 0.05982 0.0
C181 C 0.39939 0.35886 0.087 0.0
C182 C 0.31268 0.3008 0.05119 0.0
C183 C 0.35282 0.31018 0.08263 0.0
C184 C 0.32032 0.34072 0.02424 0.0
C185 C 0.36674 0.38907 0.02857 0.0
U186 U 0.52068 0.51758 0.11247 0.0
O187 O 0.62049 0.55603 0.09632 0.0
O188 O 0.53974 0.60674 0.10003 0.0
C189 C 0.60134 0.60432 0.09207 0.0
C190 C 0.45579 0.44956 0.06251 0.0
C191 C 0.64679 0.65335 0.08086 0.0
C192 C 0.71162 0.70406 0.03367 0.0
C193 C 0.66755 0.65751 0.04425 0.0
C194 C 0.71455 0.74233 0.09631 0.0
C195 C 0.7358 0.74645 0.05977 0.0
C196 C 0.66989 0.69622 0.10676 0.0
C197 C 0.50975 0.50498 0.22098 0.0
C198 C 0.54084 0.56464 0.27542 0.0
C199 C 0.48843 0.46883 0.28145 0.0
C200 C 0.48583 0.46117 0.24346 0.0
C201 C 0.51531 0.52063 0.29792 0.0
C202 C 0.53787 0.55692 0.23699 0.0
C203 C 0.49949 0.49424 0.18135 0.0
O204 O 0.43511 0.49452 0.07611 0.0
O205 O 0.51422 0.44425 0.07436 0.0
O206 O 0.54611 0.47635 0.16174 0.0
O207 O 0.46619 0.5265 0.16382 0.0
H208 H 0.42988 0.36534 0.11134 0.0
H209 H 0.34866 0.2797 0.1036 0.0
H210 H 0.28979 0.33484 0.99991 0.0
H211 H 0.37168 0.41921 1.00735 0.0
H212 H 0.72799 0.7064 1.00542 0.0
H213 H 0.64988 0.62469 0.02395 0.0
H214 H 0.73316 0.77455 0.11681 0.0
H215 H 0.65422 0.69357 0.13512 0.0
H216 H 0.56136 0.60517 0.28751 0.0
H217 H 0.46907 0.4341 0.29804 0.0
H218 H 0.46377 0.4209 0.23154 0.0
H219 H 0.55625 0.59137 0.21998 0.0
C220 C 0.20814 0.17204 1.00668 0.0
C221 C 0.16121 0.15644 0.03382 0.0
C222 C 0.25743 0.21858 0.01264 0.0
C223 C 0.26214 0.25008 0.04624 0.0
H224 H 0.20608 0.1487 0.98058 0.0
H225 H 0.29224 0.22992 0.99084 0.0
S226 S 0.15259 0.2229 0.12665 0.0
N227 N 0.12336 0.1737 0.09566 0.0
N228 N 0.21612 0.26079 0.10722 0.0
C229 C 0.21619 0.23359 0.07385 0.0
C230 C 0.16563 0.18683 0.06752 0.0
C231 C 0.29787 0.85136 1.00861 0.0
C232 C 0.22933 0.84276 0.01354 0.0
C233 C 0.33246 0.80679 1.00452 0.0
C234 C 0.30017 0.75171 1.00607 0.0
H235 H 0.32484 0.89316 1.00657 0.0
H236 H 0.38483 0.81546 0.99964 0.0
S237 S 0.12285 0.70571 0.02219 0.0
N238 N 0.13104 0.77446 0.02199 0.0
N239 N 0.19715 0.69022 0.01577 0.0
C240 C 0.2325 0.74213 0.01339 0.0
C241 C 0.19676 0.78778 0.01694 0.0
C242 C 0.81929 0.88373 0.02298 0.0
C243 C 0.88499 0.88545 0.03365 0.0
C244 C 0.77106 0.83783 0.0306 0.0
C245 C 0.78694 0.79304 0.04979 0.0
H246 H 0.80512 0.91798 1.0087 0.0
H247 H 0.72094 0.83782 0.02213 0.0
S248 S 0.95036 0.77813 0.085 0.0
N249 N 0.96254 0.83833 0.06486 0.0
N250 N 0.87163 0.75321 0.0797 0.0
C251 C 0.85199 0.79438 0.06072 0.0
C252 C 0.90112 0.84033 0.05251 0.0
C253 C 0.84554 0.24072 0.99625 0.0
C254 C 0.81417 0.19618 0.01667 0.0
C255 C 0.81178 0.28354 0.98604 0.0
C256 C 0.7459 0.28317 0.99617 0.0
H257 H 0.89692 0.24349 0.98928 0.0
H258 H 0.83785 0.31801 0.97128 0.0
S259 S 0.63942 0.173 0.04539 0.0
N260 N 0.71117 0.15172 0.04271 0.0
N261 N 0.64941 0.23309 0.02518 0.0
C262 C 0.71357 0.23802 0.01527 0.0
C263 C 0.74725 0.19427 0.02505 0.0
C264 C 0.72061 0.66184 0.51663 0.0
C265 C 0.65869 0.66038 0.53312 0.0
C266 C 0.77037 0.70798 0.52259 0.0
C267 C 0.76039 0.75355 0.54596 0.0
H268 H 0.73048 0.62733 0.49878 0.0
H269 H 0.81721 0.70779 0.50912 0.0
S270 S 0.60764 0.7688 0.59656 0.0
N271 N 0.59045 0.70768 0.57419 0.0
N272 N 0.68405 0.79409 0.58567 0.0
C273 C 0.69891 0.75218 0.56287 0.0
C274 C 0.64802 0.70568 0.55634 0.0
C275 C 0.69785 0.29209 0.51475 0.0
C276 C 0.7312 0.34728 0.51409 0.0
C277 C 0.73246 0.24679 0.51103 0.0
C278 C 0.80098 0.25569 0.50606 0.0
H279 H 0.64484 0.284 0.51616 0.0
H280 H 0.70539 0.20471 0.51052 0.0
S281 S 0.91121 0.39189 0.50829 0.0
N282 N 0.83694 0.40781 0.51327 0.0
N283 N 0.90112 0.32313 0.50472 0.0
C284 C 0.83481 0.31046 0.50756 0.0
C285 C 0.80008 0.35613 0.51206 0.0
C286 C 0.3177 0.39069 0.53306 0.0
C287 C 0.38482 0.38606 0.53109 0.0
C288 C 0.27004 0.34473 0.54098 0.0
C289 C 0.28784 0.29262 0.54696 0.0
H290 H 0.30185 0.43031 0.52914 0.0
H291 H 0.21909 0.35008 0.54289 0.0
S292 S 0.45554 0.2578 0.54579 0.0
N293 N 0.46579 0.32434 0.5363 0.0
N294 N 0.37577 0.23842 0.55085 0.0
C295 C 0.35408 0.287 0.54468 0.0
C296 C 0.4027 0.3336 0.53678 0.0
C297 C 0.25886 0.68962 0.49883 0.0
C298 C 0.32163 0.702 0.51453 0.0
C299 C 0.22471 0.73224 0.48935 0.0
C300 C 0.25184 0.7888 0.49583 0.0
H301 H 0.23562 0.64658 0.49467 0.0
H302 H 0.17576 0.72077 0.47811 0.0
S303 S 0.41531 0.84233 0.53672 0.0
N304 N 0.40999 0.77379 0.53608 0.0
N305 N 0.34633 0.85446 0.51854 0.0
C306 C 0.31523 0.80148 0.51119 0.0
C307 C 0.35007 0.75794 0.52042 0.0
C308 C 0.03795 0.06806 0.15629 0.0
C309 C 0.0357 0.01785 0.13548 0.0
C310 C 0.03808 0.06895 0.19468 0.0
C311 C 0.03365 0.01939 0.21384 0.0
H312 H 0.04001 0.10704 0.1428 0.0
H313 H 0.04132 0.10897 0.20943 0.0
S314 S 0.01917 0.87631 0.1712 0.0
N315 N 0.02622 0.91728 0.13606 0.0
N316 N 0.02235 0.91814 0.20835 0.0
C317 C 0.03006 0.96868 0.19308 0.0
C318 C 0.03183 0.9681 0.15389 0.0
C319 C 1.00816 0.07127 0.89768 0.0
C320 C 1.00967 0.02253 0.9167 0.0
C321 C 1.01042 0.0703 0.85915 0.0
C322 C 0.01298 0.02035 0.83857 0.0
H323 H 1.00627 0.11045 0.91268 0.0
H324 H 1.0087 0.10851 0.84535 0.0
S325 S 0.0174 0.88145 0.87559 0.0
N326 N 0.01426 0.92323 0.91229 0.0
N327 N 0.0174 0.92119 0.84011 0.0
C328 C 0.01451 0.97143 0.85742 0.0
C329 C 0.01314 0.97259 0.89644 0.0
C330 C 0.54817 0.47696 0.65407 0.0
C331 C 0.53542 0.52319 0.63523 0.0
C332 C 0.54765 0.47766 0.69262 0.0
C333 C 0.53502 0.52483 0.71356 0.0
H334 H 0.55665 0.43942 0.63895 0.0
H335 H 0.55538 0.4405 0.70607 0.0
S336 S 0.50726 0.65918 0.67713 0.0
N337 N 0.51466 0.61879 0.64026 0.0
N338 N 0.51585 0.62085 0.7124 0.0
C339 C 0.52503 0.57215 0.6949 0.0
C340 C 0.52464 0.57113 0.65582 0.0
C341 C 0.45514 0.51147 0.39635 0.0
C342 C 0.51239 0.53049 0.41659 0.0
C343 C 0.45639 0.50967 0.35792 0.0
C344 C 0.5147 0.52771 0.33852 0.0
H345 H 0.40967 0.4964 0.41029 0.0
H346 H 0.41145 0.49356 0.34321 0.0
S347 S 0.67695 0.58362 0.37963 0.0
N348 N 0.62827 0.5691 0.41519 0.0
N349 N 0.63061 0.56657 0.34283 0.0
C350 C 0.57184 0.54828 0.35869 0.0
C351 C 0.57071 0.54928 0.3978 0.0
loop_
_geom_bond_atom_site_label_1
_geom_bond_atom_site_label_2
_geom_bond_distance
_geom_bond_site_symmetry_2
_ccdc_geom_bond_type
Co0 N5 2.057 . S
Co0 O17 2.021 . S
Co0 O20 2.062 1_455 S
Co0 O24 2.117 1_554 S
Co0 O25 2.020 1_565 S
C1 O21 1.259 1_455 S
C1 O24 1.258 1_545 S
Co2 N11 2.057 . S
Co2 O18 2.117 . S
Co2 O19 2.020 1_545 S
Co2 O21 2.021 1_554 S
Co2 O26 2.062 1_655 S
C3 N5 1.316 . S
C3 N6 1.347 . S
C3 H8 0.931 . S
C4 N5 1.375 1_556 S
C4 C7 1.350 . S
C4 H9 0.930 . S
N5 Co0 2.057 . S
N5 C3 1.316 . S
N5 C4 1.375 1_554 S
N6 C3 1.347 . S
N6 C7 1.373 1_554 S
C7 C4 1.350 . S
C7 N6 1.373 1_556 S
C7 H28 0.931 . S
H8 C3 0.931 . S
H9 C4 0.930 . S
C10 O17 1.259 1_545 S
C10 O18 1.258 1_455 S
N11 Co2 2.057 . S
N11 C12 1.316 . S
N11 C13 1.375 . S
C12 N11 1.316 . S
C12 N14 1.347 . S
C12 H23 0.931 1_554 S
C13 N11 1.375 . S
C13 C15 1.350 . S
C13 H22 0.930 . S
N14 C12 1.347 . S
N14 C15 1.373 . S
C15 C13 1.350 . S
C15 N14 1.373 . S
C15 H29 0.931 . S
C16 O19 1.256 . S
C16 O20 1.255 . S
O17 Co0 2.021 . S
O17 C10 1.259 1_565 S
O18 Co2 2.117 . S
O18 C10 1.258 1_655 S
O19 Co2 2.020 1_565 S
O19 C16 1.256 . S
O20 Co0 2.062 1_655 S
O20 C16 1.255 . S
O21 C1 1.259 1_655 S
O21 Co2 2.021 1_556 S
H22 C13 0.930 . S
H23 C12 0.931 1_556 S
O24 Co0 2.117 1_556 S
O24 C1 1.258 1_565 S
O25 Co0 2.020 1_545 S
O25 C27 1.256 . S
O26 Co2 2.062 1_455 S
O26 C27 1.255 . S
C27 O25 1.256 . S
C27 O26 1.255 . S
H28 C7 0.931 . S
H29 C15 0.931 . S
Co30 N35 2.057 . S
Co30 O47 2.021 . S
Co30 O50 2.062 . S
Co30 O54 2.117 . S
Co30 O55 2.020 . S
C31 O51 1.259 . S
C31 O54 1.258 . S
Co32 N41 2.057 . S
Co32 O48 2.117 . S
Co32 O49 2.020 . S
Co32 O51 2.021 . S
Co32 O56 2.062 . S
C33 N35 1.316 . S
C33 N36 1.347 . S
C33 H38 0.931 . S
C34 N35 1.375 . S
C34 C37 1.350 . S
C34 H39 0.930 . S
N35 Co30 2.057 . S
N35 C33 1.316 . S
N35 C34 1.375 . S
N36 C33 1.347 . S
N36 C37 1.373 . S
C37 C34 1.350 . S
C37 N36 1.373 . S
C37 H58 0.931 . S
H38 C33 0.931 . S
H39 C34 0.930 . S
C40 O47 1.259 . S
C40 O48 1.258 . S
N41 Co32 2.057 . S
N41 C42 1.316 . S
N41 C43 1.375 . S
C42 N41 1.316 . S
C42 N44 1.347 . S
C42 H53 0.931 . S
C43 N41 1.375 . S
C43 C45 1.350 . S
C43 H52 0.930 . S
N44 C42 1.347 . S
N44 C45 1.373 . S
C45 C43 1.350 . S
C45 N44 1.373 . S
C45 H59 0.931 . S
C46 O49 1.256 . S
C46 O50 1.255 . S
O47 Co30 2.021 . S
O47 C40 1.259 . S
O48 Co32 2.117 . S
O48 C40 1.258 . S
O49 Co32 2.020 . S
O49 C46 1.256 . S
O50 Co30 2.062 . S
O50 C46 1.255 . S
O51 C31 1.259 . S
O51 Co32 2.021 . S
H52 C43 0.930 . S
H53 C42 0.931 . S
O54 Co30 2.117 . S
O54 C31 1.258 . S
O55 Co30 2.020 . S
O55 C57 1.256 . S
O56 Co32 2.062 . S
O56 C57 1.255 . S
C57 O55 1.256 . S
C57 O56 1.255 . S
H58 C37 0.931 . S
H59 C45 0.931 . S
C60 C61 1.264 . S
C60 C65 1.479 . S
C60 C70 1.465 . S
C61 C60 1.264 . S
C61 C63 1.339 . S
C61 H88 0.931 . S
C62 C63 1.395 . S
C62 C64 1.320 . S
C63 C61 1.339 . S
C63 C62 1.395 . S
C63 H89 0.929 . S
C64 C62 1.320 . S
C64 C65 1.405 . S
C64 H90 0.930 . S
C65 C60 1.479 . S
C65 C64 1.405 . S
C65 H91 0.931 . S
U66 O67 2.454 1_545 S
U66 O68 2.458 1_545 S
U66 C69 2.984 1_545 S
U66 C70 2.847 1_455 S
U66 C83 2.882 . S
U66 O84 2.441 1_455 S
U66 O85 2.420 1_455 S
U66 O86 2.455 1_545 S
U66 O87 2.449 . S
O67 U66 2.454 1_565 S
O67 C69 1.353 . S
O68 U66 2.458 1_565 S
O68 C69 1.286 . S
C69 U66 2.984 1_565 S
C69 O67 1.353 . S
C69 O68 1.286 . S
C69 C71 1.363 . S
C70 C60 1.465 . S
C70 U66 2.847 1_655 S
C70 O84 1.249 . S
C70 O85 1.202 . S
C71 C69 1.363 . S
C71 C73 1.408 . S
C71 C76 1.342 . S
C72 C73 1.310 . S
C72 C75 1.461 . S
C72 H92 0.932 . S
C73 C71 1.408 . S
C73 C72 1.310 . S
C73 H93 0.930 . S
C74 C75 1.474 . S
C74 C76 1.285 . S
C74 H94 0.929 . S
C75 C72 1.461 . S
C75 C74 1.474 . S
C76 C71 1.342 . S
C76 C74 1.285 . S
C76 H95 0.930 . S
C77 C80 1.424 1_455 S
C77 C82 1.245 1_545 S
C77 C83 1.428 . S
C78 C81 1.260 1_565 S
C78 C82 1.477 . S
C78 H96 0.932 . S
C79 C80 1.384 . S
C79 C81 1.479 1_655 S
C79 H97 0.929 . S
C80 C77 1.424 1_655 S
C80 C79 1.384 . S
C80 H98 0.928 . S
C81 C78 1.260 1_545 S
C81 C79 1.479 1_455 S
C82 C77 1.245 1_565 S
C82 C78 1.477 . S
C82 H99 0.932 . S
C83 U66 2.882 . S
C83 C77 1.428 . S
C83 O86 1.301 1_545 S
C83 O87 1.282 . S
O84 U66 2.441 1_655 S
O84 C70 1.249 . S
O85 U66 2.420 1_655 S
O85 C70 1.202 . S
O86 U66 2.455 1_565 S
O86 C83 1.301 1_565 S
O87 U66 2.449 . S
O87 C83 1.282 . S
H88 C61 0.931 . S
H89 C63 0.929 . S
H90 C64 0.930 . S
H91 C65 0.931 . S
H92 C72 0.932 . S
H93 C73 0.930 . S
H94 C74 0.929 . S
H95 C76 0.930 . S
H96 C78 0.932 . S
H97 C79 0.929 . S
H98 C80 0.928 . S
H99 C82 0.932 . S
C100 C101 1.264 . S
C100 C105 1.479 . S
C100 C110 1.465 . S
C101 C100 1.264 . S
C101 C103 1.339 . S
C101 H128 0.931 . S
C102 C103 1.395 . S
C102 C104 1.320 . S
C103 C101 1.339 . S
C103 C102 1.395 . S
C103 H129 0.929 . S
C104 C102 1.320 . S
C104 C105 1.405 . S
C104 H130 0.930 . S
C105 C100 1.479 . S
C105 C104 1.405 . S
C105 H131 0.931 . S
U106 O107 2.454 1_565 S
U106 O108 2.458 1_565 S
U106 C109 2.984 1_565 S
U106 C110 2.847 1_455 S
U106 C123 2.882 . S
U106 O124 2.441 1_455 S
U106 O125 2.420 1_455 S
U106 O126 2.455 1_565 S
U106 O127 2.449 . S
O107 U106 2.454 1_545 S
O107 C109 1.353 . S
O108 U106 2.458 1_545 S
O108 C109 1.286 . S
C109 U106 2.984 1_545 S
C109 O107 1.353 . S
C109 O108 1.286 . S
C109 C111 1.363 . S
C110 C100 1.465 . S
C110 U106 2.847 1_655 S
C110 O124 1.249 . S
C110 O125 1.202 . S
C111 C109 1.363 . S
C111 C113 1.408 . S
C111 C116 1.342 . S
C112 C113 1.310 . S
C112 C115 1.461 . S
C112 H132 0.932 . S
C113 C111 1.408 . S
C113 C112 1.310 . S
C113 H133 0.930 . S
C114 C115 1.474 . S
C114 C116 1.285 . S
C114 H134 0.929 . S
C115 C112 1.461 . S
C115 C114 1.474 . S
C116 C111 1.342 . S
C116 C114 1.285 . S
C116 H135 0.930 . S
C117 C120 1.424 1_445 S
C117 C122 1.245 . S
C117 C123 1.428 1_545 S
C118 C121 1.260 . S
C118 C122 1.477 . S
C118 H136 0.932 . S
C119 C120 1.384 . S
C119 C121 1.479 1_665 S
C119 H137 0.929 . S
C120 C117 1.424 1_665 S
C120 C119 1.384 . S
C120 H138 0.928 . S
C121 C118 1.260 . S
C121 C119 1.479 1_445 S
C122 C117 1.245 . S
C122 C118 1.477 . S
C122 H139 0.932 . S
C123 U106 2.882 . S
C123 C117 1.428 1_565 S
C123 O126 1.301 1_565 S
C123 O127 1.282 . S
O124 U106 2.441 1_655 S
O124 C110 1.249 . S
O125 U106 2.420 1_655 S
O125 C110 1.202 . S
O126 U106 2.455 1_545 S
O126 C123 1.301 1_545 S
O127 U106 2.449 . S
O127 C123 1.282 . S
H128 C101 0.931 . S
H129 C103 0.929 . S
H130 C104 0.930 . S
H131 C105 0.931 . S
H132 C112 0.932 . S
H133 C113 0.930 . S
H134 C114 0.929 . S
H135 C116 0.930 . S
H136 C118 0.932 . S
H137 C119 0.929 . S
H138 C120 0.928 . S
H139 C122 0.932 . S
C140 C141 1.264 . S
C140 C145 1.479 1_556 S
C140 C150 1.465 . S
C141 C140 1.264 . S
C141 C143 1.339 . S
C141 H168 0.931 . S
C142 C143 1.395 1_554 S
C142 C144 1.320 . S
C143 C141 1.339 . S
C143 C142 1.395 1_556 S
C143 H169 0.929 . S
C144 C142 1.320 . S
C144 C145 1.405 . S
C144 H170 0.930 . S
C145 C140 1.479 1_554 S
C145 C144 1.405 . S
C145 H171 0.931 . S
U146 O147 2.454 . S
U146 O148 2.458 . S
U146 C149 2.984 . S
U146 C150 2.847 . S
U146 C163 2.882 . S
U146 O164 2.441 . S
U146 O165 2.420 . S
U146 O166 2.455 . S
U146 O167 2.449 . S
O147 U146 2.454 . S
O147 C149 1.353 . S
O148 U146 2.458 . S
O148 C149 1.286 . S
C149 U146 2.984 . S
C149 O147 1.353 . S
C149 O148 1.286 . S
C149 C151 1.363 . S
C150 C140 1.465 . S
C150 U146 2.847 . S
C150 O164 1.249 . S
C150 O165 1.202 . S
C151 C149 1.363 . S
C151 C153 1.408 1_556 S
C151 C156 1.342 . S
C152 C153 1.310 . S
C152 C155 1.461 . S
C152 H172 0.932 . S
C153 C151 1.408 1_554 S
C153 C152 1.310 . S
C153 H173 0.930 . S
C154 C155 1.474 1_556 S
C154 C156 1.285 . S
C154 H174 0.929 . S
C155 C152 1.461 . S
C155 C154 1.474 1_554 S
C156 C151 1.342 . S
C156 C154 1.285 . S
C156 H175 0.930 . S
C157 C160 1.424 . S
C157 C162 1.245 . S
C157 C163 1.428 . S
C158 C161 1.260 . S
C158 C162 1.477 . S
C158 H176 0.932 . S
C159 C160 1.384 . S
C159 C161 1.479 . S
C159 H177 0.929 . S
C160 C157 1.424 . S
C160 C159 1.384 . S
C160 H178 0.928 . S
C161 C158 1.260 . S
C161 C159 1.479 . S
C162 C157 1.245 . S
C162 C158 1.477 . S
C162 H179 0.932 . S
C163 U146 2.882 . S
C163 C157 1.428 . S
C163 O166 1.301 . S
C163 O167 1.282 . S
O164 U146 2.441 . S
O164 C150 1.249 . S
O165 U146 2.420 . S
O165 C150 1.202 . S
O166 U146 2.455 . S
O166 C163 1.301 . S
O167 U146 2.449 . S
O167 C163 1.282 . S
H168 C141 0.931 . S
H169 C143 0.929 . S
H170 C144 0.930 . S
H171 C145 0.931 . S
H172 C152 0.932 . S
H173 C153 0.930 . S
H174 C154 0.929 . S
H175 C156 0.930 . S
H176 C158 0.932 . S
H177 C159 0.929 . S
H178 C160 0.928 . S
H179 C162 0.932 . S
C180 C181 1.264 . S
C180 C185 1.479 . S
C180 C190 1.465 . S
C181 C180 1.264 . S
C181 C183 1.339 . S
C181 H208 0.931 . S
C182 C183 1.395 . S
C182 C184 1.320 1_554 S
C183 C181 1.339 . S
C183 C182 1.395 . S
C183 H209 0.929 . S
C184 C182 1.320 1_556 S
C184 C185 1.405 1_556 S
C184 H210 0.930 . S
C185 C180 1.479 . S
C185 C184 1.405 1_554 S
C185 H211 0.931 1_554 S
U186 O187 2.454 . S
U186 O188 2.458 . S
U186 C189 2.984 . S
U186 C190 2.847 . S
U186 C203 2.882 . S
U186 O204 2.441 . S
U186 O205 2.420 . S
U186 O206 2.455 . S
U186 O207 2.449 . S
O187 U186 2.454 . S
O187 C189 1.353 . S
O188 U186 2.458 . S
O188 C189 1.286 . S
C189 U186 2.984 . S
C189 O187 1.353 . S
C189 O188 1.286 . S
C189 C191 1.363 . S
C190 C180 1.465 . S
C190 U186 2.847 . S
C190 O204 1.249 . S
C190 O205 1.202 . S
C191 C189 1.363 . S
C191 C193 1.408 . S
C191 C196 1.342 . S
C192 C193 1.310 1_556 S
C192 C195 1.461 1_556 S
C192 H212 0.932 . S
C193 C191 1.408 . S
C193 C192 1.310 1_554 S
C193 H213 0.930 1_554 S
C194 C195 1.474 . S
C194 C196 1.285 . S
C194 H214 0.929 . S
C195 C192 1.461 1_554 S
C195 C194 1.474 . S
C196 C191 1.342 . S
C196 C194 1.285 . S
C196 H215 0.930 . S
C197 C200 1.424 . S
C197 C202 1.245 . S
C197 C203 1.428 . S
C198 C201 1.260 . S
C198 C202 1.477 . S
C198 H216 0.932 . S
C199 C200 1.384 . S
C199 C201 1.479 . S
C199 H217 0.929 . S
C200 C197 1.424 . S
C200 C199 1.384 . S
C200 H218 0.928 . S
C201 C198 1.260 . S
C201 C199 1.479 . S
C202 C197 1.245 . S
C202 C198 1.477 . S
C202 H219 0.932 . S
C203 U186 2.882 . S
C203 C197 1.428 . S
C203 O206 1.301 . S
C203 O207 1.282 . S
O204 U186 2.441 . S
O204 C190 1.249 . S
O205 U186 2.420 . S
O205 C190 1.202 . S
O206 U186 2.455 . S
O206 C203 1.301 . S
O207 U186 2.449 . S
O207 C203 1.282 . S
H208 C181 0.931 . S
H209 C183 0.929 . S
H210 C184 0.930 . S
H211 C185 0.931 1_556 S
H212 C192 0.932 . S
H213 C193 0.930 1_556 S
H214 C194 0.929 . S
H215 C196 0.930 . S
H216 C198 0.932 . S
H217 C199 0.929 . S
H218 C200 0.928 . S
H219 C202 0.932 . S
C220 C221 1.369 1_556 S
C220 C222 1.419 . S
C220 H224 0.930 . S
C221 C220 1.369 1_554 S
C221 C230 1.429 . S
C222 C220 1.419 . S
C222 C223 1.363 1_556 S
C222 H225 0.929 . S
C223 C222 1.363 1_554 S
C223 C229 1.428 . S
H224 C220 0.930 . S
H225 C222 0.929 . S
S226 N227 1.613 . S
S226 N228 1.610 . S
N227 S226 1.613 . S
N227 C230 1.350 . S
N228 S226 1.610 . S
N228 C229 1.351 . S
C229 C223 1.428 . S
C229 N228 1.351 . S
C229 C230 1.434 . S
C230 C221 1.429 . S
C230 N227 1.350 . S
C230 C229 1.434 . S
C231 C232 1.369 . S
C231 C233 1.419 . S
C231 H235 0.930 . S
C232 C231 1.369 . S
C232 C241 1.429 . S
C233 C231 1.419 . S
C233 C234 1.363 . S
C233 H236 0.929 . S
C234 C233 1.363 . S
C234 C240 1.428 . S
H235 C231 0.930 . S
H236 C233 0.929 . S
S237 N238 1.613 . S
S237 N239 1.610 . S
N238 S237 1.613 . S
N238 C241 1.350 . S
N239 S237 1.610 . S
N239 C240 1.351 . S
C240 C234 1.428 . S
C240 N239 1.351 . S
C240 C241 1.434 . S
C241 C232 1.429 . S
C241 N238 1.350 . S
C241 C240 1.434 . S
C242 C243 1.369 1_556 S
C242 C244 1.419 . S
C242 H246 0.930 . S
C243 C242 1.369 1_554 S
C243 C252 1.429 . S
C244 C242 1.419 . S
C244 C245 1.363 1_556 S
C244 H247 0.929 . S
C245 C244 1.363 1_554 S
C245 C251 1.428 . S
H246 C242 0.930 . S
H247 C244 0.929 . S
S248 N249 1.613 . S
S248 N250 1.610 . S
N249 S248 1.613 . S
N249 C252 1.350 . S
N250 S248 1.610 . S
N250 C251 1.351 . S
C251 C245 1.428 . S
C251 N250 1.351 . S
C251 C252 1.434 . S
C252 C243 1.429 . S
C252 N249 1.350 . S
C252 C251 1.434 . S
C253 C254 1.369 . S
C253 C255 1.419 . S
C253 H257 0.930 . S
C254 C253 1.369 . S
C254 C263 1.429 . S
C255 C253 1.419 . S
C255 C256 1.363 . S
C255 H258 0.929 . S
C256 C255 1.363 . S
C256 C262 1.428 . S
H257 C253 0.930 . S
H258 C255 0.929 . S
S259 N260 1.613 . S
S259 N261 1.610 . S
N260 S259 1.613 . S
N260 C263 1.350 . S
N261 S259 1.610 . S
N261 C262 1.351 . S
C262 C256 1.428 . S
C262 N261 1.351 . S
C262 C263 1.434 . S
C263 C254 1.429 . S
C263 N260 1.350 . S
C263 C262 1.434 . S
C264 C265 1.369 . S
C264 C266 1.419 . S
C264 H268 0.930 . S
C265 C264 1.369 . S
C265 C274 1.429 . S
C266 C264 1.419 . S
C266 C267 1.363 . S
C266 H269 0.929 . S
C267 C266 1.363 . S
C267 C273 1.428 . S
H268 C264 0.930 . S
H269 C266 0.929 . S
S270 N271 1.613 . S
S270 N272 1.610 . S
N271 S270 1.613 . S
N271 C274 1.350 . S
N272 S270 1.610 . S
N272 C273 1.351 . S
C273 C267 1.428 . S
C273 N272 1.351 . S
C273 C274 1.434 . S
C274 C265 1.429 . S
C274 N271 1.350 . S
C274 C273 1.434 . S
C275 C276 1.369 . S
C275 C277 1.419 . S
C275 H279 0.930 . S
C276 C275 1.369 . S
C276 C285 1.429 . S
C277 C275 1.419 . S
C277 C278 1.363 . S
C277 H280 0.929 . S
C278 C277 1.363 . S
C278 C284 1.428 . S
H279 C275 0.930 . S
H280 C277 0.929 . S
S281 N282 1.613 . S
S281 N283 1.610 . S
N282 S281 1.613 . S
N282 C285 1.350 . S
N283 S281 1.610 . S
N283 C284 1.351 . S
C284 C278 1.428 . S
C284 N283 1.351 . S
C284 C285 1.434 . S
C285 C276 1.429 . S
C285 N282 1.350 . S
C285 C284 1.434 . S
C286 C287 1.369 . S
C286 C288 1.419 . S
C286 H290 0.930 . S
C287 C286 1.369 . S
C287 C296 1.429 . S
C288 C286 1.419 . S
C288 C289 1.363 . S
C288 H291 0.929 . S
C289 C288 1.363 . S
C289 C295 1.428 . S
H290 C286 0.930 . S
H291 C288 0.929 . S
S292 N293 1.613 . S
S292 N294 1.610 . S
N293 S292 1.613 . S
N293 C296 1.350 . S
N294 S292 1.610 . S
N294 C295 1.351 . S
C295 C289 1.428 . S
C295 N294 1.351 . S
C295 C296 1.434 . S
C296 C287 1.429 . S
C296 N293 1.350 . S
C296 C295 1.434 . S
C297 C298 1.369 . S
C297 C299 1.419 . S
C297 H301 0.930 . S
C298 C297 1.369 . S
C298 C307 1.429 . S
C299 C297 1.419 . S
C299 C300 1.363 . S
C299 H302 0.929 . S
C300 C299 1.363 . S
C300 C306 1.428 . S
H301 C297 0.930 . S
H302 C299 0.929 . S
S303 N304 1.613 . S
S303 N305 1.610 . S
N304 S303 1.613 . S
N304 C307 1.350 . S
N305 S303 1.610 . S
N305 C306 1.351 . S
C306 C300 1.428 . S
C306 N305 1.351 . S
C306 C307 1.434 . S
C307 C298 1.429 . S
C307 N304 1.350 . S
C307 C306 1.434 . S
C308 C309 1.369 . S
C308 C310 1.419 . S
C308 H312 0.930 . S
C309 C308 1.369 . S
C309 C318 1.429 1_445 S
C310 C308 1.419 . S
C310 C311 1.363 . S
C310 H313 0.929 . S
C311 C310 1.363 . S
C311 C317 1.428 1_445 S
H312 C308 0.930 . S
H313 C310 0.929 . S
S314 N315 1.613 . S
S314 N316 1.610 . S
N315 S314 1.613 . S
N315 C318 1.350 . S
N316 S314 1.610 . S
N316 C317 1.351 . S
C317 C311 1.428 1_665 S
C317 N316 1.351 . S
C317 C318 1.434 . S
C318 C309 1.429 1_665 S
C318 N315 1.350 . S
C318 C317 1.434 . S
C319 C320 1.369 . S
C319 C321 1.419 . S
C319 H323 0.930 . S
C320 C319 1.369 . S
C320 C329 1.429 1_445 S
C321 C319 1.419 . S
C321 C322 1.363 . S
C321 H324 0.929 . S
C322 C321 1.363 . S
C322 C328 1.428 1_445 S
H323 C319 0.930 . S
H324 C321 0.929 . S
S325 N326 1.613 . S
S325 N327 1.610 . S
N326 S325 1.613 . S
N326 C329 1.350 . S
N327 S325 1.610 . S
N327 C328 1.351 . S
C328 C322 1.428 1_665 S
C328 N327 1.351 . S
C328 C329 1.434 . S
C329 C320 1.429 1_665 S
C329 N326 1.350 . S
C329 C328 1.434 . S
C330 C331 1.369 . S
C330 C332 1.419 . S
C330 H334 0.930 . S
C331 C330 1.369 . S
C331 C340 1.429 . S
C332 C330 1.419 . S
C332 C333 1.363 . S
C332 H335 0.929 . S
C333 C332 1.363 . S
C333 C339 1.428 . S
H334 C330 0.930 . S
H335 C332 0.929 . S
S336 N337 1.613 . S
S336 N338 1.610 . S
N337 S336 1.613 . S
N337 C340 1.350 . S
N338 S336 1.610 . S
N338 C339 1.351 . S
C339 C333 1.428 . S
C339 N338 1.351 . S
C339 C340 1.434 . S
C340 C331 1.429 . S
C340 N337 1.350 . S
C340 C339 1.434 . S
C341 C342 1.369 . S
C341 C343 1.419 . S
C341 H345 0.930 . S
C342 C341 1.369 . S
C342 C351 1.429 . S
C343 C341 1.419 . S
C343 C344 1.363 . S
C343 H346 0.929 . S
C344 C343 1.363 . S
C344 C350 1.428 . S
H345 C341 0.930 . S
H346 C343 0.929 . S
S347 N348 1.613 . S
S347 N349 1.610 . S
N348 S347 1.613 . S
N348 C351 1.350 . S
N349 S347 1.610 . S
N349 C350 1.351 . S
C350 C344 1.428 . S
C350 N349 1.351 . S
C350 C351 1.434 . S
C351 C342 1.429 . S
C351 N348 1.350 . S
C351 C350 1.434 . S
C223 C182 1.591 . S
C221 C27 1.660 . S
C232 N6 1.567 . S
C234 C142 1.531 . S
C243 C16 1.635 . S
C245 C195 1.555 . S
C254 N14 1.514 . S
C256 C155 1.503 . S
C265 C57 1.659 . S
C267 C102 1.594 . S
C276 N36 1.563 . S
C278 C62 1.527 . S
C289 C115 1.556 . S
C287 C46 1.634 . S
C300 C75 1.504 . S
C298 N44 1.514 . S
C309 C10 1.396 . S
C311 C81 1.387 . S
C320 C1 1.534 . S
C322 C121 1.522 . S
C333 C161 1.383 . S
C331 C40 1.397 . S
C342 C31 1.533 . S
C344 C201 1.524 . S
