# Generated by pormake.
# Topology gar, (4,6)-cn, num edge types: 1
# Building blocks:
#     Node 0, Type 0, BuildingBlock: KUFVIS_clean_sbu_0, # of connection points: 4
#     Node 1, Type 0, BuildingBlock: KUFVIS_clean_sbu_0, # of connection points: 4
#     Node 2, Type 0, BuildingBlock: KUFVIS_clean_sbu_0, # of connection points: 4
#     Node 3, Type 0, BuildingBlock: KUFVIS_clean_sbu_0, # of connection points: 4
#     Node 4, Type 0, BuildingBlock: KUFVIS_clean_sbu_0, # of connection points: 4
#     Node 5, Type 0, BuildingBlock: KUFVIS_clean_sbu_0, # of connection points: 4
#     Node 6, Type 0, BuildingBlock: KUFVIS_clean_sbu_0, # of connection points: 4
#     Node 7, Type 0, BuildingBlock: KUFVIS_clean_sbu_0, # of connection points: 4
#     Node 8, Type 0, BuildingBlock: KUFVIS_clean_sbu_0, # of connection points: 4
#     Node 9, Type 0, BuildingBlock: KUFVIS_clean_sbu_0, # of connection points: 4
#     Node 10, Type 0, BuildingBlock: KUFVIS_clean_sbu_0, # of connection points: 4
#     Node 11, Type 0, BuildingBlock: KUFVIS_clean_sbu_0, # of connection points: 4
#     Node 12, Type 0, BuildingBlock: KUFVIS_clean_sbu_0, # of connection points: 4
#     Node 13, Type 0, BuildingBlock: KUFVIS_clean_sbu_0, # of connection points: 4
#     Node 14, Type 0, BuildingBlock: KUFVIS_clean_sbu_0, # of connection points: 4
#     Node 15, Type 0, BuildingBlock: KUFVIS_clean_sbu_0, # of connection points: 4
#     Node 16, Type 0, BuildingBlock: KUFVIS_clean_sbu_0, # of connection points: 4
#     Node 17, Type 0, BuildingBlock: KUFVIS_clean_sbu_0, # of connection points: 4
#     Node 18, Type 0, BuildingBlock: KUFVIS_clean_sbu_0, # of connection points: 4
#     Node 19, Type 0, BuildingBlock: KUFVIS_clean_sbu_0, # of connection points: 4
#     Node 20, Type 0, BuildingBlock: KUFVIS_clean_sbu_0, # of connection points: 4
#     Node 21, Type 0, BuildingBlock: KUFVIS_clean_sbu_0, # of connection points: 4
#     Node 22, Type 0, BuildingBlock: KUFVIS_clean_sbu_0, # of connection points: 4
#     Node 23, Type 0, BuildingBlock: KUFVIS_clean_sbu_0, # of connection points: 4
#     Node 24, Type 1, BuildingBlock: PAMTOO_clean_sbu_0, # of connection points: 6
#     Node 25, Type 1, BuildingBlock: PAMTOO_clean_sbu_0, # of connection points: 6
#     Node 26, Type 1, BuildingBlock: PAMTOO_clean_sbu_0, # of connection points: 6
#     Node 27, Type 1, BuildingBlock: PAMTOO_clean_sbu_0, # of connection points: 6
#     Node 28, Type 1, BuildingBlock: PAMTOO_clean_sbu_0, # of connection points: 6
#     Node 29, Type 1, BuildingBlock: PAMTOO_clean_sbu_0, # of connection points: 6
#     Node 30, Type 1, BuildingBlock: PAMTOO_clean_sbu_0, # of connection points: 6
#     Node 31, Type 1, BuildingBlock: PAMTOO_clean_sbu_0, # of connection points: 6
#     Node 32, Type 1, BuildingBlock: PAMTOO_clean_sbu_0, # of connection points: 6
#     Node 33, Type 1, BuildingBlock: PAMTOO_clean_sbu_0, # of connection points: 6
#     Node 34, Type 1, BuildingBlock: PAMTOO_clean_sbu_0, # of connection points: 6
#     Node 35, Type 1, BuildingBlock: PAMTOO_clean_sbu_0, # of connection points: 6
#     Node 36, Type 1, BuildingBlock: PAMTOO_clean_sbu_0, # of connection points: 6
#     Node 37, Type 1, BuildingBlock: PAMTOO_clean_sbu_0, # of connection points: 6
#     Node 38, Type 1, BuildingBlock: PAMTOO_clean_sbu_0, # of connection points: 6
#     Node 39, Type 1, BuildingBlock: PAMTOO_clean_sbu_0, # of connection points: 6
#     Edge 40, Type (0, 1), BuildingBlock: UVAHIK_clean_linker_0, # of connection points: 2
#     Edge 41, Type (0, 1), BuildingBlock: UVAHIK_clean_linker_0, # of connection points: 2
#     Edge 42, Type (0, 1), BuildingBlock: UVAHIK_clean_linker_0, # of connection points: 2
#     Edge 43, Type (0, 1), BuildingBlock: UVAHIK_clean_linker_0, # of connection points: 2
#     Edge 44, Type (0, 1), BuildingBlock: UVAHIK_clean_linker_0, # of connection points: 2
#     Edge 45, Type (0, 1), BuildingBlock: UVAHIK_clean_linker_0, # of connection points: 2
#     Edge 46, Type (0, 1), BuildingBlock: UVAHIK_clean_linker_0, # of connection points: 2
#     Edge 47, Type (0, 1), BuildingBlock: UVAHIK_clean_linker_0, # of connection points: 2
#     Edge 48, Type (0, 1), BuildingBlock: UVAHIK_clean_linker_0, # of connection points: 2
#     Edge 49, Type (0, 1), BuildingBlock: UVAHIK_clean_linker_0, # of connection points: 2
#     Edge 50, Type (0, 1), BuildingBlock: UVAHIK_clean_linker_0, # of connection points: 2
#     Edge 51, Type (0, 1), BuildingBlock: UVAHIK_clean_linker_0, # of connection points: 2
#     Edge 52, Type (0, 1), BuildingBlock: UVAHIK_clean_linker_0, # of connection points: 2
#     Edge 53, Type (0, 1), BuildingBlock: UVAHIK_clean_linker_0, # of connection points: 2
#     Edge 54, Type (0, 1), BuildingBlock: UVAHIK_clean_linker_0, # of connection points: 2
#     Edge 55, Type (0, 1), BuildingBlock: UVAHIK_clean_linker_0, # of connection points: 2
#     Edge 56, Type (0, 1), BuildingBlock: UVAHIK_clean_linker_0, # of connection points: 2
#     Edge 57, Type (0, 1), BuildingBlock: UVAHIK_clean_linker_0, # of connection points: 2
#     Edge 58, Type (0, 1), BuildingBlock: UVAHIK_clean_linker_0, # of connection points: 2
#     Edge 59, Type (0, 1), BuildingBlock: UVAHIK_clean_linker_0, # of connection points: 2
#     Edge 60, Type (0, 1), BuildingBlock: UVAHIK_clean_linker_0, # of connection points: 2
#     Edge 61, Type (0, 1), BuildingBlock: UVAHIK_clean_linker_0, # of connection points: 2
#     Edge 62, Type (0, 1), BuildingBlock: UVAHIK_clean_linker_0, # of connection points: 2
#     Edge 63, Type (0, 1), BuildingBlock: UVAHIK_clean_linker_0, # of connection points: 2
#     Edge 64, Type (0, 1), BuildingBlock: UVAHIK_clean_linker_0, # of connection points: 2
#     Edge 65, Type (0, 1), BuildingBlock: UVAHIK_clean_linker_0, # of connection points: 2
#     Edge 66, Type (0, 1), BuildingBlock: UVAHIK_clean_linker_0, # of connection points: 2
#     Edge 67, Type (0, 1), BuildingBlock: UVAHIK_clean_linker_0, # of connection points: 2
#     Edge 68, Type (0, 1), BuildingBlock: UVAHIK_clean_linker_0, # of connection points: 2
#     Edge 69, Type (0, 1), BuildingBlock: UVAHIK_clean_linker_0, # of connection points: 2
#     Edge 70, Type (0, 1), BuildingBlock: UVAHIK_clean_linker_0, # of connection points: 2
#     Edge 71, Type (0, 1), BuildingBlock: UVAHIK_clean_linker_0, # of connection points: 2
#     Edge 72, Type (0, 1), BuildingBlock: UVAHIK_clean_linker_0, # of connection points: 2
#     Edge 73, Type (0, 1), BuildingBlock: UVAHIK_clean_linker_0, # of connection points: 2
#     Edge 74, Type (0, 1), BuildingBlock: UVAHIK_clean_linker_0, # of connection points: 2
#     Edge 75, Type (0, 1), BuildingBlock: UVAHIK_clean_linker_0, # of connection points: 2
#     Edge 76, Type (0, 1), BuildingBlock: UVAHIK_clean_linker_0, # of connection points: 2
#     Edge 77, Type (0, 1), BuildingBlock: UVAHIK_clean_linker_0, # of connection points: 2
#     Edge 78, Type (0, 1), BuildingBlock: UVAHIK_clean_linker_0, # of connection points: 2
#     Edge 79, Type (0, 1), BuildingBlock: UVAHIK_clean_linker_0, # of connection points: 2
#     Edge 80, Type (0, 1), BuildingBlock: UVAHIK_clean_linker_0, # of connection points: 2
#     Edge 81, Type (0, 1), BuildingBlock: UVAHIK_clean_linker_0, # of connection points: 2
#     Edge 82, Type (0, 1), BuildingBlock: UVAHIK_clean_linker_0, # of connection points: 2
#     Edge 83, Type (0, 1), BuildingBlock: UVAHIK_clean_linker_0, # of connection points: 2
#     Edge 84, Type (0, 1), BuildingBlock: UVAHIK_clean_linker_0, # of connection points: 2
#     Edge 85, Type (0, 1), BuildingBlock: UVAHIK_clean_linker_0, # of connection points: 2
#     Edge 86, Type (0, 1), BuildingBlock: UVAHIK_clean_linker_0, # of connection points: 2
#     Edge 87, Type (0, 1), BuildingBlock: UVAHIK_clean_linker_0, # of connection points: 2
#     Edge 88, Type (0, 1), BuildingBlock: UVAHIK_clean_linker_0, # of connection points: 2
#     Edge 89, Type (0, 1), BuildingBlock: UVAHIK_clean_linker_0, # of connection points: 2
#     Edge 90, Type (0, 1), BuildingBlock: UVAHIK_clean_linker_0, # of connection points: 2
#     Edge 91, Type (0, 1), BuildingBlock: UVAHIK_clean_linker_0, # of connection points: 2
#     Edge 92, Type (0, 1), BuildingBlock: UVAHIK_clean_linker_0, # of connection points: 2
#     Edge 93, Type (0, 1), BuildingBlock: UVAHIK_clean_linker_0, # of connection points: 2
#     Edge 94, Type (0, 1), BuildingBlock: UVAHIK_clean_linker_0, # of connection points: 2
#     Edge 95, Type (0, 1), BuildingBlock: UVAHIK_clean_linker_0, # of connection points: 2
#     Edge 96, Type (0, 1), BuildingBlock: UVAHIK_clean_linker_0, # of connection points: 2
#     Edge 97, Type (0, 1), BuildingBlock: UVAHIK_clean_linker_0, # of connection points: 2
#     Edge 98, Type (0, 1), BuildingBlock: UVAHIK_clean_linker_0, # of connection points: 2
#     Edge 99, Type (0, 1), BuildingBlock: UVAHIK_clean_linker_0, # of connection points: 2
#     Edge 100, Type (0, 1), BuildingBlock: UVAHIK_clean_linker_0, # of connection points: 2
#     Edge 101, Type (0, 1), BuildingBlock: UVAHIK_clean_linker_0, # of connection points: 2
#     Edge 102, Type (0, 1), BuildingBlock: UVAHIK_clean_linker_0, # of connection points: 2
#     Edge 103, Type (0, 1), BuildingBlock: UVAHIK_clean_linker_0, # of connection points: 2
#     Edge 104, Type (0, 1), BuildingBlock: UVAHIK_clean_linker_0, # of connection points: 2
#     Edge 105, Type (0, 1), BuildingBlock: UVAHIK_clean_linker_0, # of connection points: 2
#     Edge 106, Type (0, 1), BuildingBlock: UVAHIK_clean_linker_0, # of connection points: 2
#     Edge 107, Type (0, 1), BuildingBlock: UVAHIK_clean_linker_0, # of connection points: 2
#     Edge 108, Type (0, 1), BuildingBlock: UVAHIK_clean_linker_0, # of connection points: 2
#     Edge 109, Type (0, 1), BuildingBlock: UVAHIK_clean_linker_0, # of connection points: 2
#     Edge 110, Type (0, 1), BuildingBlock: UVAHIK_clean_linker_0, # of connection points: 2
#     Edge 111, Type (0, 1), BuildingBlock: UVAHIK_clean_linker_0, # of connection points: 2
#     Edge 112, Type (0, 1), BuildingBlock: UVAHIK_clean_linker_0, # of connection points: 2
#     Edge 113, Type (0, 1), BuildingBlock: UVAHIK_clean_linker_0, # of connection points: 2
#     Edge 114, Type (0, 1), BuildingBlock: UVAHIK_clean_linker_0, # of connection points: 2
#     Edge 115, Type (0, 1), BuildingBlock: UVAHIK_clean_linker_0, # of connection points: 2
#     Edge 116, Type (0, 1), BuildingBlock: UVAHIK_clean_linker_0, # of connection points: 2
#     Edge 117, Type (0, 1), BuildingBlock: UVAHIK_clean_linker_0, # of connection points: 2
#     Edge 118, Type (0, 1), BuildingBlock: UVAHIK_clean_linker_0, # of connection points: 2
#     Edge 119, Type (0, 1), BuildingBlock: UVAHIK_clean_linker_0, # of connection points: 2
#     Edge 120, Type (0, 1), BuildingBlock: UVAHIK_clean_linker_0, # of connection points: 2
#     Edge 121, Type (0, 1), BuildingBlock: UVAHIK_clean_linker_0, # of connection points: 2
#     Edge 122, Type (0, 1), BuildingBlock: UVAHIK_clean_linker_0, # of connection points: 2
#     Edge 123, Type (0, 1), BuildingBlock: UVAHIK_clean_linker_0, # of connection points: 2
#     Edge 124, Type (0, 1), BuildingBlock: UVAHIK_clean_linker_0, # of connection points: 2
#     Edge 125, Type (0, 1), BuildingBlock: UVAHIK_clean_linker_0, # of connection points: 2
#     Edge 126, Type (0, 1), BuildingBlock: UVAHIK_clean_linker_0, # of connection points: 2
#     Edge 127, Type (0, 1), BuildingBlock: UVAHIK_clean_linker_0, # of connection points: 2
#     Edge 128, Type (0, 1), BuildingBlock: UVAHIK_clean_linker_0, # of connection points: 2
#     Edge 129, Type (0, 1), BuildingBlock: UVAHIK_clean_linker_0, # of connection points: 2
#     Edge 130, Type (0, 1), BuildingBlock: UVAHIK_clean_linker_0, # of connection points: 2
#     Edge 131, Type (0, 1), BuildingBlock: UVAHIK_clean_linker_0, # of connection points: 2
#     Edge 132, Type (0, 1), BuildingBlock: UVAHIK_clean_linker_0, # of connection points: 2
#     Edge 133, Type (0, 1), BuildingBlock: UVAHIK_clean_linker_0, # of connection points: 2
#     Edge 134, Type (0, 1), BuildingBlock: UVAHIK_clean_linker_0, # of connection points: 2
#     Edge 135, Type (0, 1), BuildingBlock: UVAHIK_clean_linker_0, # of connection points: 2
# Relax obj value: 0.121
# Max RMSD: 0.261
# Mean RMSD: 0.150
data_MOF--net-gar--node1-KUFVIS_clean_sbu_0--node2-PAMTOO_clean_sbu_0--edge1-UVAHIK_clean_linker_0
_symmetry_space_group_name_H-M    P1
_symmetry_Int_Tables_number       1
_symmetry_cell_setting            triclinic
loop_
_symmetry_equiv_pos_as_xyz
'x, y, z'
_cell_length_a     74.209981
_cell_length_b     74.61648
_cell_length_c     73.970169
_cell_angle_alpha  96.076662
_cell_angle_beta   95.347329
_cell_angle_gamma 104.76566
loop_
_atom_site_label
_atom_site_type_symbol
_atom_site_fract_x
_atom_site_fract_y
_atom_site_fract_z
_atom_type_partial_charge
Mn0 Mn 0.03969 0.30365 0.37465 0.0
Mn1 Mn 0.03778 0.32753 0.33839 0.0
C2 C 0.01071 0.30533 0.36079 0.0
C3 C 0.04071 0.27699 0.38868 0.0
C4 C 0.04741 0.34663 0.37763 0.0
O5 O 0.06556 0.30578 0.36592 0.0
O6 O 0.06294 0.32228 0.34249 0.0
C7 C 0.03956 0.2973 0.30978 0.0
N8 N 0.03064 0.30993 0.31652 0.0
C9 C 0.00618 0.30027 0.29097 0.0
C10 C 0.01518 0.28726 0.28369 0.0
C11 C 0.03192 0.28574 0.29316 0.0
C12 C 0.01446 0.31142 0.30757 0.0
H13 H 0.05239 0.29601 0.31702 0.0
C14 C 0.07217 0.31387 0.35262 0.0
O15 O 0.04734 0.2938 0.39726 0.0
O16 O 0.0339 0.27553 0.37157 0.0
N17 N 0.01456 0.33355 0.33226 0.0
C18 C 0.00741 0.34656 0.34127 0.0
C19 C 0.9906 0.34968 0.33367 0.0
C20 C 0.98142 0.33958 0.31679 0.0
C21 C 0.98922 0.32654 0.30759 0.0
C22 C 0.00608 0.32411 0.31578 0.0
H23 H 0.01435 0.35436 0.35426 0.0
O24 O 0.01276 0.30185 0.37757 0.0
O25 O 0.02568 0.30754 0.35238 0.0
O26 O 0.04682 0.33166 0.38471 0.0
O27 O 0.04448 0.34678 0.36035 0.0
C28 C 0.98076 0.31563 0.29077 0.0
C29 C 0.9892 0.30247 0.28249 0.0
H30 H 0.00931 0.27829 0.2709 0.0
H31 H 0.0389 0.27566 0.28768 0.0
H32 H 0.98468 0.35979 0.34084 0.0
H33 H 0.96835 0.34189 0.31106 0.0
H34 H 0.96766 0.31712 0.28418 0.0
H35 H 0.98247 0.29403 0.26965 0.0
Mn36 Mn 0.0191 0.75093 0.68303 0.0
Mn37 Mn 0.03535 0.78477 0.71927 0.0
C38 C 0.0509 0.7593 0.69489 0.0
C39 C 0.00703 0.71981 0.66886 0.0
C40 C 0.02754 0.79325 0.68063 0.0
O41 O 0.99461 0.75269 0.69349 0.0
O42 O 0.00735 0.77558 0.71696 0.0
C43 C 0.02508 0.7613 0.74855 0.0
N44 N 0.03832 0.77335 0.7409 0.0
C45 C 0.06239 0.77324 0.76502 0.0
C46 C 0.04899 0.76092 0.77322 0.0
C47 C 0.03026 0.7549 0.76492 0.0
C48 C 0.05638 0.77919 0.74874 0.0
H49 H 0.01067 0.75662 0.74222 0.0
C50 C 0.99307 0.76386 0.70734 0.0
O51 O 1.00515 0.7339 0.66072 0.0
O52 O 0.01469 0.72368 0.68583 0.0
N53 N 0.06203 0.79497 0.72348 0.0
C54 C 0.07339 0.80614 0.71336 0.0
C55 C 0.09268 0.81294 0.71949 0.0
C56 C 0.10004 0.8084 0.73607 0.0
C57 C 0.08802 0.79713 0.74639 0.0
C58 C 0.06891 0.79078 0.7396 0.0
H59 H 0.06782 0.80969 0.70061 0.0
O60 O 0.04532 0.7515 0.67811 0.0
O61 O 0.03769 0.76208 0.70444 0.0
O62 O 0.02153 0.77619 0.67341 0.0
O63 O 0.03323 0.79811 0.69771 0.0
C64 C 0.0943 0.79162 0.76295 0.0
C65 C 0.08151 0.77964 0.77223 0.0
H66 H 0.05294 0.7559 0.78581 0.0
H67 H 0.01985 0.74533 0.77113 0.0
H68 H 0.10187 0.82163 0.71145 0.0
H69 H 0.11495 0.81354 0.74068 0.0
H70 H 0.10899 0.79634 0.76856 0.0
H71 H 0.08656 0.7753 0.78482 0.0
Mn72 Mn 0.54218 0.80353 0.87514 0.0
Mn73 Mn 0.53955 0.82706 0.83871 0.0
C74 C 0.51299 0.80536 0.86198 0.0
C75 C 0.54344 0.77698 0.88924 0.0
C76 C 0.54982 0.84647 0.87777 0.0
O77 O 0.56787 0.80564 0.86604 0.0
O78 O 0.56476 0.82189 0.84256 0.0
C79 C 0.54097 0.79652 0.81027 0.0
N80 N 0.53215 0.80925 0.81701 0.0
C81 C 0.50752 0.7995 0.79162 0.0
C82 C 0.5164 0.78638 0.78435 0.0
C83 C 0.53318 0.78485 0.79375 0.0
C84 C 0.51594 0.81074 0.80814 0.0
H85 H 0.55384 0.79525 0.81746 0.0
C86 C 0.57426 0.81369 0.85265 0.0
O87 O 0.55026 0.79383 0.89769 0.0
O88 O 0.53633 0.77543 0.87222 0.0
N89 N 0.5163 0.83309 0.83273 0.0
C90 C 0.50932 0.84626 0.84169 0.0
C91 C 0.49249 0.84939 0.83416 0.0
C92 C 0.48316 0.83918 0.81738 0.0
C93 C 0.49082 0.82602 0.8082 0.0
C94 C 0.50769 0.82355 0.81633 0.0
H95 H 0.51643 0.85419 0.85458 0.0
O96 O 0.51547 0.80186 0.87871 0.0
O97 O 0.52765 0.80733 0.85308 0.0
O98 O 0.54945 0.83159 0.88495 0.0
O99 O 0.54653 0.84647 0.8605 0.0
C100 C 0.48224 0.81504 0.79144 0.0
C101 C 0.49054 0.80174 0.78319 0.0
H102 H 0.51043 0.77734 0.77162 0.0
H103 H 0.54008 0.77471 0.78828 0.0
H104 H 0.48669 0.85962 0.84131 0.0
H105 H 0.47008 0.84151 0.8117 0.0
H106 H 0.46916 0.81659 0.78487 0.0
H107 H 0.48371 0.79326 0.7704 0.0
Mn108 Mn 0.51548 0.24907 0.1811 0.0
Mn109 Mn 0.48035 0.23533 0.14596 0.0
C110 C 0.50396 0.21757 0.16872 0.0
C111 C 0.54815 0.25772 0.19154 0.0
C112 C 0.47359 0.24642 0.18503 0.0
O113 O 0.51646 0.2735 0.17031 0.0
O114 O 0.49255 0.26261 0.14733 0.0
C115 C 0.50321 0.24131 0.11529 0.0
N116 N 0.49056 0.22968 0.12392 0.0
C117 C 0.48847 0.20357 0.10098 0.0
C118 C 0.50139 0.2153 0.0918 0.0
C119 C 0.5088 0.23424 0.099 0.0
C120 C 0.48327 0.21144 0.11706 0.0
H121 H 0.50904 0.25585 0.12081 0.0
C122 C 0.5059 0.27583 0.15651 0.0
O123 O 0.53611 0.26179 0.20187 0.0
O124 O 0.54132 0.24958 0.17513 0.0
N125 N 0.46786 0.20915 0.14307 0.0
C126 C 0.45677 0.19939 0.15435 0.0
C127 C 0.44876 0.18009 0.14947 0.0
C128 C 0.45231 0.17101 0.13309 0.0
C129 C 0.46383 0.18132 0.12173 0.0
C130 C 0.47124 0.20057 0.12719 0.0
H131 H 0.45425 0.20624 0.16709 0.0
O132 O 0.51209 0.22219 0.18547 0.0
O133 O 0.50213 0.23145 0.16023 0.0
O134 O 0.49084 0.25054 0.19221 0.0
O135 O 0.46838 0.24038 0.16803 0.0
C136 C 0.46862 0.17317 0.10543 0.0
C137 C 0.48092 0.18429 0.09505 0.0
H138 H 0.50588 0.20987 0.07932 0.0
H139 H 0.51886 0.24336 0.09204 0.0
H140 H 0.44002 0.1722 0.15839 0.0
H141 H 0.44631 0.15607 0.12949 0.0
H142 H 0.46318 0.1583 0.10091 0.0
H143 H 0.48473 0.17781 0.0827 0.0
Mn144 Mn 0.06269 0.80117 0.11855 0.0
Mn145 Mn 0.02754 0.78405 0.0837 0.0
C146 C 0.0537 0.76921 0.10763 0.0
C147 C 0.09446 0.8131 0.13095 0.0
C148 C 0.02053 0.79331 0.12286 0.0
O149 O 0.06063 0.82513 0.10771 0.0
O150 O 0.03693 0.81186 0.0852 0.0
C151 C 0.05001 0.79277 0.05317 0.0
N152 N 0.03817 0.78009 0.06155 0.0
C153 C 0.03748 0.75517 0.03779 0.0
C154 C 0.04958 0.76799 0.02884 0.0
C155 C 0.0559 0.78686 0.03659 0.0
C156 C 0.03203 0.76189 0.05423 0.0
H157 H 0.05495 0.80728 0.05909 0.0
C158 C 0.049 0.82628 0.09419 0.0
O159 O 0.08093 0.81562 0.13995 0.0
O160 O 0.08963 0.80494 0.11416 0.0
N161 N 0.01704 0.75751 0.08031 0.0
C162 C 0.00613 0.74679 0.0911 0.0
C163 C 0.99907 0.72746 0.08555 0.0
C164 C 1.00309 0.7194 0.06889 0.0
C165 C 0.01409 0.73077 0.05788 0.0
C166 C 0.02068 0.74996 0.06408 0.0
H167 H 1.00299 0.75289 0.10393 0.0
O168 O 0.06223 0.77539 0.12405 0.0
O169 O 0.05062 0.78195 0.09783 0.0
O170 O 0.03783 0.79943 0.12943 0.0
O171 O 0.01512 0.78716 0.10592 0.0
C172 C 0.01915 0.72375 0.04121 0.0
C173 C 0.03086 0.73594 0.03119 0.0
H174 H 0.05422 0.76347 0.0161 0.0
H175 H 0.0653 0.79683 0.0298 0.0
H176 H 0.9906 0.71878 0.09413 0.0
H177 H 0.99778 0.70446 0.06475 0.0
H178 H 0.01434 0.70897 0.03611 0.0
H179 H 0.03485 0.73033 0.01852 0.0
Mn180 Mn 0.49613 0.76687 0.42953 0.0
Mn181 Mn 0.49417 0.79111 0.39326 0.0
C182 C 0.46698 0.76654 0.41384 0.0
C183 C 0.49903 0.73925 0.44189 0.0
C184 C 0.50215 0.80987 0.43285 0.0
O185 O 0.52307 0.77201 0.42242 0.0
O186 O 0.51912 0.78629 0.39756 0.0
C187 C 0.49653 0.76161 0.36418 0.0
N188 N 0.48758 0.7742 0.37096 0.0
C189 C 0.46478 0.76671 0.34407 0.0
C190 C 0.47379 0.75372 0.33674 0.0
C191 C 0.48968 0.7511 0.34689 0.0
C192 C 0.47215 0.77665 0.36142 0.0
H193 H 0.50879 0.75964 0.37192 0.0
C194 C 0.52914 0.77961 0.40864 0.0
O195 O 0.50339 0.75553 0.45182 0.0
O196 O 0.49308 0.73899 0.42477 0.0
N197 N 0.47101 0.79714 0.38703 0.0
C198 C 0.46369 0.80989 0.39625 0.0
C199 C 0.44782 0.81424 0.38795 0.0
C200 C 0.43981 0.80568 0.37018 0.0
C201 C 0.44766 0.79274 0.36091 0.0
C202 C 0.46357 0.78907 0.3698 0.0
H203 H 0.46998 0.81677 0.40978 0.0
O204 O 0.46822 0.76222 0.43037 0.0
O205 O 0.48271 0.77064 0.40682 0.0
O206 O 0.50057 0.79492 0.44043 0.0
O207 O 0.50058 0.80971 0.41548 0.0
C208 C 0.4402 0.78317 0.34326 0.0
C209 C 0.44868 0.77007 0.3349 0.0
H210 H 0.46859 0.74562 0.32339 0.0
H211 H 0.49668 0.74106 0.34136 0.0
H212 H 0.44184 0.82426 0.39519 0.0
H213 H 0.42761 0.80912 0.3638 0.0
H214 H 0.4278 0.78559 0.33611 0.0
H215 H 0.44267 0.76261 0.32144 0.0
Mn216 Mn 0.56443 0.30256 0.61973 0.0
Mn217 Mn 0.53095 0.28659 0.58328 0.0
C218 C 0.55523 0.27068 0.6083 0.0
C219 C 0.59577 0.3141 0.63348 0.0
C220 C 0.52199 0.29557 0.62188 0.0
O221 O 0.56318 0.32692 0.60925 0.0
O222 O 0.54127 0.31438 0.58493 0.0
C223 C 0.55578 0.29457 0.55437 0.0
N224 N 0.5429 0.28218 0.56207 0.0
C225 C 0.54357 0.25685 0.53934 0.0
C226 C 0.55668 0.26938 0.53105 0.0
C227 C 0.56284 0.28831 0.53863 0.0
C228 C 0.53696 0.26391 0.55496 0.0
H229 H 0.56069 0.30909 0.56024 0.0
C230 C 0.55285 0.3285 0.59491 0.0
O231 O 0.5818 0.3165 0.64187 0.0
O232 O 0.59165 0.30625 0.61655 0.0
N233 N 0.51972 0.26015 0.57966 0.0
C234 C 0.50738 0.24978 0.58956 0.0
C235 C 0.5001 0.23049 0.58396 0.0
C236 C 0.50542 0.22208 0.56817 0.0
C237 C 0.51785 0.23309 0.55799 0.0
C238 C 0.52453 0.25229 0.56415 0.0
H239 H 0.50325 0.25615 0.60174 0.0
O240 O 0.56326 0.2765 0.62494 0.0
O241 O 0.55298 0.28376 0.59858 0.0
O242 O 0.53904 0.30082 0.6293 0.0
O243 O 0.51731 0.29015 0.60469 0.0
C244 C 0.52412 0.22572 0.54217 0.0
C245 C 0.537 0.23759 0.53287 0.0
H246 H 0.56223 0.2646 0.51895 0.0
H247 H 0.57306 0.29804 0.53238 0.0
H248 H 0.49048 0.22209 0.59187 0.0
H249 H 0.49994 0.20716 0.56401 0.0
H250 H 0.51928 0.21092 0.53715 0.0
H251 H 0.54187 0.23172 0.52083 0.0
Mn252 Mn 0.99751 0.26565 0.92933 0.0
Mn253 Mn 0.99529 0.29039 0.8935 0.0
C254 C 0.96831 0.2651 0.91379 0.0
C255 C 1.00098 0.2382 0.94145 0.0
C256 C 1.00345 0.30849 0.93323 0.0
O257 O 0.02446 0.27141 0.92224 0.0
O258 O 0.02022 0.28541 0.89721 0.0
C259 C 0.99714 0.2614 0.86368 0.0
N260 N 0.98831 0.27385 0.87098 0.0
C261 C 0.965 0.26675 0.84451 0.0
C262 C 0.97389 0.25391 0.83665 0.0
C263 C 0.98998 0.25116 0.84632 0.0
C264 C 0.97271 0.27644 0.86189 0.0
H265 H 0.00955 0.25933 0.87106 0.0
C266 C 0.03037 0.2789 0.90834 0.0
O267 O 1.00506 0.25439 0.95147 0.0
O268 O 0.99499 0.23791 0.92432 0.0
N269 N 0.97205 0.29652 0.88799 0.0
C270 C 0.9648 0.30895 0.89776 0.0
C271 C 0.94865 0.31326 0.89006 0.0
C272 C 0.94029 0.30497 0.87231 0.0
C273 C 0.94808 0.29234 0.86245 0.0
C274 C 0.96427 0.28868 0.87079 0.0
H275 H 0.97132 0.31559 0.91131 0.0
O276 O 0.9696 0.26049 0.93021 0.0
O277 O 0.98403 0.26958 0.90679 0.0
O278 O 1.00139 0.29339 0.94056 0.0
O279 O 1.00224 0.30877 0.91594 0.0
C280 C 0.94029 0.28303 0.84479 0.0
C281 C 0.94868 0.27016 0.83587 0.0
H282 H 0.96843 0.246 0.82326 0.0
H283 H 0.99688 0.24123 0.84038 0.0
H284 H 0.94272 0.32303 0.89775 0.0
H285 H 0.92786 0.30835 0.8664 0.0
H286 H 0.92769 0.28546 0.83806 0.0
H287 H 0.9424 0.26289 0.82241 0.0
Mn288 Mn 0.41146 0.0515 0.2988 0.0
Mn289 Mn 0.377 0.03241 0.32319 0.0
C290 C 0.40508 0.02024 0.30206 0.0
C291 C 0.42146 0.05979 0.27137 0.0
C292 C 0.41514 0.05692 0.34041 0.0
O293 O 0.39636 0.07064 0.30052 0.0
O294 O 0.37263 0.05549 0.31485 0.0
C295 C 0.34503 0.02176 0.29354 0.0
N296 N 0.35599 0.01686 0.30694 0.0
C297 C 0.33787 0.98468 0.3007 0.0
C298 C 0.32632 0.9894 0.2869 0.0
C299 C 0.32996 0.00801 0.28328 0.0
C300 C 0.35269 0.99898 0.31047 0.0
H301 H 0.3478 0.03604 0.29069 0.0
C302 C 0.3807 0.06922 0.30684 0.0
O303 O 0.43099 0.06803 0.28698 0.0
O304 O 0.40576 0.04732 0.2718 0.0
N305 N 0.37944 0.00975 0.33182 0.0
C306 C 0.39233 0.00739 0.3451 0.0
C307 C 0.39083 0.98952 0.35021 0.0
C308 C 0.37603 0.97431 0.34173 0.0
C309 C 0.36288 0.97709 0.32818 0.0
C310 C 0.36502 0.99524 0.32375 0.0
H311 H 0.40368 0.01904 0.35173 0.0
O312 O 0.42131 0.0289 0.29782 0.0
O313 O 0.39315 0.03011 0.30413 0.0
O314 O 0.42232 0.05912 0.32557 0.0
O315 O 0.39818 0.04778 0.34106 0.0
C316 C 0.34784 0.96254 0.31877 0.0
C317 C 0.3354 0.96632 0.30498 0.0
H318 H 0.31471 0.97883 0.27893 0.0
H319 H 0.32116 0.01174 0.2726 0.0
H320 H 0.40104 0.98748 0.36067 0.0
H321 H 0.37496 0.96055 0.3457 0.0
H322 H 0.34583 0.94836 0.3219 0.0
H323 H 0.32406 0.95497 0.29767 0.0
Mn324 Mn 0.27975 0.19236 0.51816 0.0
Mn325 Mn 0.26916 0.15359 0.4869 0.0
C326 C 0.24874 0.17525 0.50917 0.0
C327 C 0.28588 0.20613 0.54905 0.0
C328 C 0.28031 0.19295 0.4766 0.0
O329 O 0.30489 0.1855 0.51867 0.0
O330 O 0.29572 0.15944 0.49792 0.0
C331 C 0.27283 0.1258 0.5118 0.0
N332 N 0.26231 0.13181 0.49887 0.0
C333 C 0.23622 0.1048 0.4983 0.0
C334 C 0.2468 0.09827 0.51155 0.0
C335 C 0.26517 0.10886 0.51837 0.0
C336 C 0.24459 0.12178 0.49229 0.0
H337 H 0.28696 0.13387 0.51707 0.0
C338 C 0.3081 0.17132 0.50953 0.0
O339 O 0.29071 0.21596 0.53593 0.0
O340 O 0.27844 0.18839 0.54424 0.0
N341 N 0.24369 0.14625 0.47546 0.0
C342 C 0.23495 0.15507 0.46359 0.0
C343 C 0.21626 0.14664 0.45599 0.0
C344 C 0.2068 0.12919 0.46055 0.0
C345 C 0.21612 0.12034 0.4727 0.0
C346 C 0.23475 0.1294 0.47984 0.0
H347 H 0.24215 0.16848 0.46005 0.0
O348 O 0.25263 0.19274 0.51597 0.0
O349 O 0.26304 0.16852 0.50751 0.0
O350 O 0.28272 0.20181 0.49285 0.0
O351 O 0.2755 0.17512 0.47325 0.0
C352 C 0.20757 0.103 0.4782 0.0
C353 C 0.2176 0.09525 0.49102 0.0
H354 H 0.24093 0.08523 0.51667 0.0
H355 H 0.2734 0.10395 0.52864 0.0
H356 H 0.20915 0.15358 0.44666 0.0
H357 H 0.19234 0.12278 0.45474 0.0
H358 H 0.19318 0.09564 0.47289 0.0
H359 H 0.21077 0.08205 0.49537 0.0
Mn360 Mn 0.12871 0.03661 0.78576 0.0
Mn361 Mn 0.16776 0.04718 0.81654 0.0
C362 C 0.14553 0.06747 0.79535 0.0
C363 C 0.11482 0.03083 0.75498 0.0
C364 C 0.12837 0.03527 0.82732 0.0
O365 O 0.13595 0.01179 0.78445 0.0
O366 O 0.16205 0.02076 0.80514 0.0
C367 C 0.19531 0.04417 0.79066 0.0
N368 N 0.18934 0.05444 0.80403 0.0
C369 C 0.21544 0.08117 0.80348 0.0
C370 C 0.22193 0.07084 0.78979 0.0
C371 C 0.2118 0.05227 0.78334 0.0
C372 C 0.19897 0.07232 0.81033 0.0
H373 H 0.18753 0.02993 0.7856 0.0
C374 C 0.15012 0.00855 0.79344 0.0
O375 O 0.10507 0.02549 0.76811 0.0
O376 O 0.13258 0.03854 0.75967 0.0
N377 N 0.17492 0.07249 0.82836 0.0
C378 C 0.16629 0.08081 0.84097 0.0
C379 C 0.1744 0.09955 0.8485 0.0
C380 C 0.19132 0.10952 0.84306 0.0
C381 C 0.20003 0.10061 0.83018 0.0
C382 C 0.19139 0.08185 0.82328 0.0
H383 H 0.15326 0.07323 0.84517 0.0
O384 O 0.12794 0.06351 0.78875 0.0
O385 O 0.15245 0.0533 0.79648 0.0
O386 O 0.11946 0.03311 0.81118 0.0
O387 O 0.14629 0.04037 0.83055 0.0
C388 C 0.21678 0.10971 0.82369 0.0
C389 C 0.22446 0.1 0.81033 0.0
H390 H 0.23458 0.07707 0.78401 0.0
H391 H 0.21667 0.04425 0.7727 0.0
H392 H 0.16758 0.10634 0.85841 0.0
H393 H 0.19743 0.12403 0.84875 0.0
H394 H 0.22372 0.12424 0.8287 0.0
H395 H 0.2372 0.10722 0.80526 0.0
Mn396 Mn 0.26319 0.90165 0.99981 0.0
Mn397 Mn 0.26994 0.94211 0.98166 0.0
C398 C 0.29162 0.91509 0.99036 0.0
C399 C 0.26376 0.88452 0.02411 0.0
C400 C 0.24821 0.90481 0.96059 0.0
O401 O 0.24235 0.91195 0.00849 0.0
O402 O 0.24759 0.93844 0.99527 0.0
C403 C 0.2799 0.96811 0.01642 0.0
N404 N 0.2844 0.96199 0.99986 0.0
C405 C 0.31441 0.98492 0.00506 0.0
C406 C 0.31003 0.99154 0.02211 0.0
C407 C 0.29271 0.98308 0.02781 0.0
C408 C 0.30103 0.97005 0.99423 0.0
H409 H 0.26666 0.9616 0.02094 0.0
C410 C 0.23846 0.92704 0.00515 0.0
O411 O 0.2529 0.87754 0.00888 0.0
O412 O 0.27387 0.90171 0.02545 0.0
N413 N 0.29135 0.94747 0.96855 0.0
C414 C 0.29385 0.93882 0.95216 0.0
C415 C 0.31065 0.94535 0.9447 0.0
C416 C 0.3247 0.96069 0.95414 0.0
C417 C 0.32179 0.96942 0.97094 0.0
C418 C 0.30466 0.96244 0.9776 0.0
H419 H 0.28322 0.92688 0.94496 0.0
O420 O 0.28661 0.89724 0.9912 0.0
O421 O 0.27972 0.92439 0.99476 0.0
O422 O 0.24975 0.89548 0.97381 0.0
O423 O 0.25547 0.92242 0.96177 0.0
C424 C 0.33536 0.98453 0.9815 0.0
C425 C 0.33168 0.99227 0.99856 0.0
H426 H 0.31993 1.003 0.031 0.0
H427 H 0.28927 0.98805 0.04099 0.0
H428 H 0.31282 0.93847 0.93177 0.0
H429 H 0.33774 0.96553 0.94845 0.0
H430 H 0.34877 0.99015 0.97675 0.0
H431 H 0.34231 1.00374 0.00666 0.0
Mn432 Mn 0.28292 0.38089 0.03887 0.0
Mn433 Mn 0.29497 0.41705 0.01436 0.0
C434 C 0.31427 0.39599 0.03849 0.0
C435 C 0.27492 0.36987 0.06651 0.0
C436 C 0.28243 0.37643 0.99694 0.0
O437 O 0.25834 0.38836 0.03419 0.0
O438 O 0.2686 0.41321 0.01937 0.0
C439 C 0.29337 0.4476 0.04265 0.0
N440 N 0.30306 0.44007 0.03055 0.0
C441 C 0.32993 0.46679 0.03795 0.0
C442 C 0.32021 0.47489 0.05043 0.0
C443 C 0.30187 0.46522 0.05283 0.0
C444 C 0.32076 0.44917 0.02824 0.0
H445 H 0.27927 0.44021 0.0445 0.0
C446 C 0.25578 0.40216 0.02639 0.0
O447 O 0.27042 0.35894 0.05097 0.0
O448 O 0.28349 0.3872 0.06586 0.0
N449 N 0.32017 0.42261 0.00839 0.0
C450 C 0.32786 0.41253 0.99634 0.0
C451 C 0.34621 0.42016 0.99248 0.0
C452 C 0.35637 0.43813 1.00086 0.0
C453 C 0.34812 0.44829 0.01311 0.0
C454 C 0.32973 0.44003 0.01632 0.0
H455 H 0.32005 0.39879 0.9897 0.0
O456 O 0.30945 0.37921 0.0429 0.0
O457 O 0.30066 0.40351 0.03456 0.0
O458 O 0.28038 0.36904 0.01175 0.0
O459 O 0.28731 0.39407 0.99662 0.0
C460 C 0.35751 0.46617 0.02247 0.0
C461 C 0.34845 0.47537 0.03495 0.0
H462 H 0.32672 0.48847 0.05832 0.0
H463 H 0.2943 0.47135 0.06249 0.0
H464 H 0.35249 0.41223 0.98301 0.0
H465 H 0.3705 0.44398 0.99782 0.0
H466 H 0.37179 0.47285 0.02037 0.0
H467 H 0.35591 0.489 0.04225 0.0
Mn468 Mn 0.77833 0.15986 0.0484 0.0
Mn469 Mn 0.74852 0.12212 0.0221 0.0
C470 C 0.74798 0.14963 0.05494 0.0
C471 C 0.80168 0.17403 0.07247 0.0
C472 C 0.7582 0.16076 0.01069 0.0
O473 O 0.79583 0.14824 0.03465 0.0
O474 O 0.77493 0.12272 0.01908 0.0
C475 C 0.75896 0.09302 0.04186 0.0
N476 N 0.74558 0.10087 0.03496 0.0
C477 C 0.72088 0.07694 0.04386 0.0
C478 C 0.73438 0.06853 0.05099 0.0
C479 C 0.75351 0.07666 0.05006 0.0
C480 C 0.72718 0.09332 0.03602 0.0
H481 H 0.77365 0.09919 0.04106 0.0
C482 C 0.79173 0.13299 0.02374 0.0
O483 O 0.79918 0.18211 0.05812 0.0
O484 O 0.79106 0.15722 0.07252 0.0
N485 N 0.72227 0.11909 0.02315 0.0
C486 C 0.71108 0.12921 0.01605 0.0
C487 C 0.69151 0.12283 0.01566 0.0
C488 C 0.68364 0.10598 0.0223 0.0
C489 C 0.69541 0.0958 0.02952 0.0
C490 C 0.71479 0.10275 0.02939 0.0
H491 H 0.71702 0.14198 0.01059 0.0
O492 O 0.75794 0.16657 0.06086 0.0
O493 O 0.75619 0.13879 0.04573 0.0
O494 O 0.76901 0.16877 0.02523 0.0
O495 O 0.75018 0.14325 0.00776 0.0
C496 C 0.6887 0.07912 0.03702 0.0
C497 C 0.70144 0.06978 0.04432 0.0
H498 H 0.73023 0.05587 0.05726 0.0
H499 H 0.76401 0.07029 0.05558 0.0
H500 H 0.68251 0.13079 0.01011 0.0
H501 H 0.66854 0.10103 0.02186 0.0
H502 H 0.6738 0.0735 0.03746 0.0
H503 H 0.69614 0.0571 0.05026 0.0
Mn504 Mn 0.15635 0.54153 0.25123 0.0
Mn505 Mn 0.19338 0.57252 0.27731 0.0
C506 C 0.16203 0.5729 0.24872 0.0
C507 C 0.14303 0.52048 0.22511 0.0
C508 C 0.15687 0.55557 0.29167 0.0
O509 O 0.17221 0.52502 0.26007 0.0
O510 O 0.1968 0.54692 0.27605 0.0
C511 C 0.22226 0.56973 0.25288 0.0
N512 N 0.21304 0.58032 0.26259 0.0
C513 C 0.23228 0.60869 0.25433 0.0
C514 C 0.24205 0.59811 0.24431 0.0
C515 C 0.23696 0.57853 0.24352 0.0
C516 C 0.21768 0.59913 0.26326 0.0
H517 H 0.21841 0.55469 0.2523 0.0
C518 C 0.18828 0.52993 0.26966 0.0
O519 O 0.13565 0.51941 0.24032 0.0
O520 O 0.15857 0.5334 0.22528 0.0
N521 N 0.19244 0.59804 0.27996 0.0
C522 C 0.18123 0.60615 0.28974 0.0
C523 C 0.18457 0.62568 0.29202 0.0
C524 C 0.19952 0.63669 0.28442 0.0
C525 C 0.21085 0.62806 0.27439 0.0
C526 C 0.20698 0.60854 0.27274 0.0
H527 H 0.16989 0.59779 0.29586 0.0
O528 O 0.14545 0.56169 0.24343 0.0
O529 O 0.17496 0.56544 0.25505 0.0
O530 O 0.14856 0.54572 0.27667 0.0
O531 O 0.17376 0.5658 0.29354 0.0
C532 C 0.22571 0.63803 0.2658 0.0
C533 C 0.23634 0.62834 0.25567 0.0
H534 H 0.25342 0.60484 0.2371 0.0
H535 H 0.24439 0.57027 0.23577 0.0
H536 H 0.17573 0.63226 0.29973 0.0
H537 H 0.20216 0.65177 0.28634 0.0
H538 H 0.22892 0.65312 0.26669 0.0
H539 H 0.24756 0.63612 0.24892 0.0
Mn540 Mn 0.78355 0.87894 0.53987 0.0
Mn541 Mn 0.7957 0.91516 0.51543 0.0
C542 C 0.81493 0.89381 0.53918 0.0
C543 C 0.77594 0.86781 0.56754 0.0
C544 C 0.78273 0.87462 0.49788 0.0
O545 O 0.75908 0.88676 0.53569 0.0
O546 O 0.76937 0.91133 0.52049 0.0
C547 C 0.79423 0.9456 0.5439 0.0
N548 N 0.80386 0.93811 0.53171 0.0
C549 C 0.83074 0.96483 0.53907 0.0
C550 C 0.82107 0.97289 0.55165 0.0
C551 C 0.80277 0.96319 0.55412 0.0
C552 C 0.82153 0.94723 0.52934 0.0
H553 H 0.78014 0.9382 0.5458 0.0
C554 C 0.75658 0.90049 0.52773 0.0
O555 O 0.77099 0.85698 0.55195 0.0
O556 O 0.78466 0.8851 0.5669 0.0
N557 N 0.82086 0.92072 0.50937 0.0
C558 C 0.82847 0.9107 0.49719 0.0
C559 C 0.84676 0.91839 0.4932 0.0
C560 C 0.85693 0.93636 0.50158 0.0
C561 C 0.84877 0.94644 0.51399 0.0
C562 C 0.83044 0.93813 0.51732 0.0
H563 H 0.82064 0.89698 0.49053 0.0
O564 O 0.81003 0.87697 0.54343 0.0
O565 O 0.80139 0.90149 0.5355 0.0
O566 O 0.7805 0.8672 0.51265 0.0
O567 O 0.78796 0.89226 0.49762 0.0
C568 C 0.85819 0.96431 0.52336 0.0
C569 C 0.84921 0.97345 0.53597 0.0
H570 H 0.82761 0.98645 0.55956 0.0
H571 H 0.79525 0.96929 0.56385 0.0
H572 H 0.85298 0.91051 0.48362 0.0
H573 H 0.87101 0.94226 0.49842 0.0
H574 H 0.87243 0.97102 0.52117 0.0
H575 H 0.85669 0.98707 0.54328 0.0
Mn576 Mn 0.93932 0.0312 0.26706 0.0
Mn577 Mn 0.90371 0.02257 0.2932 0.0
C578 C 0.92189 1.00068 0.26791 0.0
C579 C 0.95028 0.03785 0.23894 0.0
C580 C 0.94473 0.03167 0.309 0.0
O581 O 0.93409 0.05689 0.27206 0.0
O582 O 0.91003 0.04895 0.28871 0.0
C583 C 0.8736 0.02764 0.26664 0.0
N584 N 0.88016 0.01693 0.27806 0.0
C585 C 0.85064 0.99332 0.27275 0.0
C586 C 0.84352 0.00411 0.26097 0.0
C587 C 0.85509 0.02129 0.25781 0.0
C588 C 0.86927 1.00024 0.28095 0.0
H589 H 0.88239 0.04095 0.26437 0.0
C590 C 0.92136 0.06084 0.28102 0.0
O591 O 0.96157 0.04182 0.25418 0.0
O592 O 0.93269 0.03054 0.24015 0.0
N593 N 0.89573 0.99754 0.29881 0.0
C594 C 0.90504 0.98845 0.30985 0.0
C595 C 0.89563 0.97075 0.31391 0.0
C596 C 0.87665 0.96284 0.30697 0.0
C597 C 0.86727 0.97263 0.29591 0.0
C598 C 0.87745 0.99006 0.2921 0.0
H599 H 0.91953 0.99464 0.3155 0.0
O600 O 0.93859 1.00403 0.26291 0.0
O601 O 0.91576 0.01521 0.27215 0.0
O602 O 0.95178 0.03336 0.29389 0.0
O603 O 0.92711 0.02788 0.30997 0.0
C604 C 0.84825 0.96578 0.28849 0.0
C605 C 0.84 0.97599 0.27671 0.0
H606 H 0.82921 0.99933 0.25425 0.0
H607 H 0.84971 0.02968 0.24872 0.0
H608 H 0.90295 0.96331 0.32249 0.0
H609 H 0.86941 0.94923 0.31018 0.0
H610 H 0.8399 0.95252 0.29151 0.0
H611 H 0.82548 0.97036 0.27077 0.0
Mn612 Mn 0.28014 0.66837 0.54426 0.0
Mn613 Mn 0.25423 0.63471 0.5109 0.0
C614 C 0.24797 0.65925 0.54306 0.0
C615 C 0.29766 0.67841 0.5728 0.0
C616 C 0.27108 0.67458 0.5047 0.0
O617 O 0.29941 0.65595 0.53488 0.0
O618 O 0.28057 0.63312 0.51389 0.0
C619 C 0.25571 0.60167 0.52933 0.0
N620 N 0.24552 0.61194 0.52093 0.0
C621 C 0.21645 0.58965 0.52375 0.0
C622 C 0.22664 0.57878 0.53234 0.0
C623 C 0.24636 0.58485 0.5352 0.0
C624 C 0.22654 0.6063 0.51825 0.0
H625 H 0.27087 0.60628 0.53153 0.0
C626 C 0.29661 0.64162 0.52287 0.0
O627 O 0.2999 0.68854 0.55955 0.0
O628 O 0.28563 0.66204 0.56928 0.0
N629 N 0.22831 0.63435 0.50652 0.0
C630 C 0.22056 0.6468 0.49866 0.0
C631 C 0.20094 0.64286 0.49493 0.0
C632 C 0.18952 0.62609 0.49913 0.0
C633 C 0.1978 0.61346 0.50716 0.0
C634 C 0.21744 0.61806 0.51041 0.0
H635 H 0.22928 0.65962 0.49521 0.0
O636 O 0.25745 0.6755 0.55161 0.0
O637 O 0.25756 0.64876 0.53559 0.0
O638 O 0.27843 0.68057 0.52115 0.0
O639 O 0.26208 0.65759 0.49923 0.0
C640 C 0.18735 0.59659 0.51226 0.0
C641 C 0.19666 0.58474 0.52063 0.0
H642 H 0.21948 0.56581 0.5369 0.0
H643 H 0.25432 0.57658 0.54189 0.0
H644 H 0.19464 0.65269 0.48875 0.0
H645 H 0.1744 0.62308 0.49617 0.0
H646 H 0.17214 0.59273 0.51004 0.0
H647 H 0.18848 0.57194 0.52474 0.0
Mn648 Mn 0.43849 0.53253 0.76839 0.0
Mn649 Mn 0.40235 0.52107 0.79353 0.0
C650 C 0.42322 0.50133 0.76913 0.0
C651 C 0.44923 0.54005 0.7404 0.0
C652 C 0.44327 0.53344 0.81032 0.0
O653 O 0.43118 0.55722 0.77336 0.0
O654 O 0.40631 0.54718 0.78849 0.0
C655 C 0.37177 0.52241 0.76543 0.0
N656 N 0.37924 0.51291 0.77754 0.0
C657 C 0.35234 0.48621 0.77039 0.0
C658 C 0.34429 0.49573 0.7579 0.0
C659 C 0.35409 0.51388 0.75536 0.0
C660 C 0.37005 0.49537 0.77992 0.0
H661 H 0.37925 0.53638 0.76349 0.0
C662 C 0.41739 0.55989 0.78144 0.0
O663 O 0.46039 0.54472 0.75574 0.0
O664 O 0.43188 0.5316 0.74147 0.0
N665 N 0.39662 0.49614 0.79968 0.0
C666 C 0.40646 0.4888 0.81207 0.0
C667 C 0.39851 0.47084 0.81642 0.0
C668 C 0.38045 0.46072 0.80817 0.0
C669 C 0.37058 0.46856 0.7955 0.0
C670 C 0.37913 0.4866 0.79188 0.0
H671 H 0.42021 0.49665 0.8187 0.0
O672 O 0.43995 0.50593 0.76426 0.0
O673 O 0.41583 0.51501 0.77317 0.0
O674 O 0.45061 0.53525 0.79537 0.0
O675 O 0.42555 0.52879 0.81094 0.0
C676 C 0.35261 0.45917 0.7863 0.0
C677 C 0.34356 0.46794 0.77365 0.0
H678 H 0.33065 0.48921 0.75013 0.0
H679 H 0.348 0.52129 0.7457 0.0
H680 H 0.40621 0.46488 0.82622 0.0
H681 H 0.37428 0.44696 0.81172 0.0
H682 H 0.34572 0.44513 0.78871 0.0
H683 H 0.32985 0.4605 0.76649 0.0
Mn684 Mn 0.659 0.03405 0.74985 0.0
Mn685 Mn 0.69693 0.06543 0.77418 0.0
C686 C 0.66479 0.06517 0.7461 0.0
C687 C 0.64478 0.01228 0.72446 0.0
C688 C 0.66094 0.04985 0.79002 0.0
O689 O 0.6747 0.01756 0.75924 0.0
O690 O 0.69993 0.03974 0.77367 0.0
C691 C 0.72464 0.06107 0.74888 0.0
N692 N 0.71605 0.07224 0.75867 0.0
C693 C 0.73547 0.09991 0.74934 0.0
C694 C 0.7446 0.08873 0.73921 0.0
C695 C 0.73909 0.06921 0.73892 0.0
C696 C 0.72106 0.09099 0.75885 0.0
H697 H 0.72049 0.04608 0.74871 0.0
C698 C 0.69102 0.02263 0.76834 0.0
O699 O 0.63785 0.01191 0.73994 0.0
O700 O 0.66046 0.02479 0.72401 0.0
N701 N 0.69649 0.09108 0.77621 0.0
C702 C 0.68591 0.09981 0.78623 0.0
C703 C 0.68978 0.11939 0.78816 0.0
C704 C 0.70465 0.1298 0.77999 0.0
C705 C 0.71533 0.12053 0.76973 0.0
C706 C 0.71095 0.10101 0.76846 0.0
H707 H 0.67469 0.09192 0.79284 0.0
O708 O 0.64813 0.05396 0.74141 0.0
O709 O 0.67782 0.05783 0.75248 0.0
O710 O 0.65202 0.03959 0.77543 0.0
O711 O 0.67791 0.05972 0.79117 0.0
C712 C 0.73003 0.12987 0.76057 0.0
C713 C 0.73999 0.11955 0.75025 0.0
H714 H 0.75579 0.09496 0.73155 0.0
H715 H 0.74603 0.06048 0.73109 0.0
H716 H 0.68144 0.12646 0.79605 0.0
H717 H 0.70771 0.14491 0.78164 0.0
H718 H 0.73361 0.14495 0.76115 0.0
H719 H 0.7511 0.12685 0.74306 0.0
Mn720 Mn 0.78081 0.69297 0.01949 0.0
Mn721 Mn 0.77058 0.65342 0.98927 0.0
C722 C 0.74989 0.67542 0.01096 0.0
C723 C 0.78743 0.7077 0.05004 0.0
C724 C 0.78139 0.69232 0.97781 0.0
O725 O 0.80614 0.6865 0.02008 0.0
O726 O 0.7971 0.65961 1.0004 0.0
C727 C 0.77421 0.62644 0.01508 0.0
N728 N 0.76373 0.63205 1.00181 0.0
C729 C 0.73772 0.60507 1.00164 0.0
C730 C 0.74826 0.59895 0.01525 0.0
C731 C 0.76657 0.60973 0.02204 0.0
C732 C 0.74607 0.62185 0.99525 0.0
H733 H 0.7883 0.63467 0.02031 0.0
C734 C 0.80944 0.67205 0.01154 0.0
O735 O 0.79165 0.71708 0.03648 0.0
O736 O 0.78012 0.68986 0.04588 0.0
N737 N 0.74516 0.64578 0.97769 0.0
C738 C 0.73649 0.65419 0.96537 0.0
C739 C 0.71784 0.64554 0.95773 0.0
C740 C 0.70839 0.62828 0.96269 0.0
C741 C 0.71768 0.61981 0.97526 0.0
C742 C 0.73626 0.62909 0.98243 0.0
H743 H 0.74371 0.66742 0.96146 0.0
O744 O 0.75361 0.69299 0.01741 0.0
O745 O 0.76431 0.66881 0.00948 0.0
O746 O 0.78324 0.7016 0.99379 0.0
O747 O 0.777 0.67447 0.975 0.0
C748 C 0.70916 0.60266 0.98114 0.0
C749 C 0.71915 0.59531 0.99435 0.0
H750 H 0.74241 0.58608 0.02067 0.0
H751 H 0.77477 0.60514 0.03259 0.0
H752 H 0.71077 0.65217 0.94804 0.0
H753 H 0.69398 0.62169 0.95683 0.0
H754 H 0.69482 0.59514 0.9758 0.0
H755 H 0.71234 0.58226 0.99899 0.0
Mn756 Mn 0.90782 0.54814 0.80023 0.0
Mn757 Mn 0.87238 0.53671 0.8258 0.0
C758 C 0.89878 0.51846 0.80822 0.0
C759 C 0.91846 0.55054 0.77191 0.0
C760 C 0.91156 0.56023 0.84127 0.0
O761 O 0.89467 0.56863 0.79779 0.0
O762 O 0.87008 0.55841 0.81327 0.0
C763 C 0.84045 0.52415 0.79613 0.0
N764 N 0.85073 0.52053 0.81087 0.0
C765 C 0.83095 0.48908 0.80827 0.0
C766 C 0.82009 0.49253 0.79315 0.0
C767 C 0.82488 0.51013 0.78704 0.0
C768 C 0.84624 0.50363 0.81686 0.0
H769 H 0.84413 0.53762 0.79131 0.0
C770 C 0.8791 0.56967 0.80322 0.0
O771 O 0.92836 0.5605 0.7867 0.0
O772 O 0.90211 0.53979 0.77356 0.0
N773 N 0.87292 0.51552 0.83817 0.0
C774 C 0.8854 0.51413 0.85233 0.0
C775 C 0.88287 0.49723 0.85975 0.0
C776 C 0.86753 0.48196 0.85258 0.0
C777 C 0.8548 0.48376 0.83809 0.0
C778 C 0.85794 0.50101 0.83136 0.0
H779 H 0.89726 0.52578 0.85786 0.0
O780 O 0.91545 0.52475 0.80362 0.0
O781 O 0.88808 0.52975 0.808 0.0
O782 O 0.91879 0.55928 0.82639 0.0
O783 O 0.89422 0.55292 0.84246 0.0
C784 C 0.83932 0.46902 0.82985 0.0
C785 C 0.82742 0.47167 0.81493 0.0
H786 H 0.80814 0.48171 0.78602 0.0
H787 H 0.81663 0.51287 0.77532 0.0
H788 H 0.89278 0.49593 0.87091 0.0
H789 H 0.86574 0.46889 0.85822 0.0
H790 H 0.83657 0.45552 0.83473 0.0
H791 H 0.81572 0.46015 0.80855 0.0
Mn792 Mn 0.76106 0.40129 0.49903 0.0
Mn793 Mn 0.77716 0.4377 0.47612 0.0
C794 C 0.79232 0.41026 0.49486 0.0
C795 C 0.75391 0.38893 0.52573 0.0
C796 C 0.75422 0.39951 0.45759 0.0
O797 O 0.74051 0.41476 0.49943 0.0
O798 O 0.75362 0.43969 0.48573 0.0
C799 C 0.78653 0.46838 0.50713 0.0
N800 N 0.79192 0.45866 0.49292 0.0
C801 C 0.8235 0.47862 0.49885 0.0
C802 C 0.81826 0.48889 0.51349 0.0
C803 C 0.79971 0.48372 0.51767 0.0
C804 C 0.80975 0.46348 0.48882 0.0
H805 H 0.7723 0.46443 0.51042 0.0
C806 C 0.74057 0.43044 0.49396 0.0
O807 O 0.74585 0.38016 0.50978 0.0
O808 O 0.76569 0.40522 0.52619 0.0
N809 N 0.80014 0.43747 0.46641 0.0
C810 C 0.80313 0.42558 0.45242 0.0
C811 C 0.82109 0.42859 0.44675 0.0
C812 C 0.83573 0.44384 0.45544 0.0
C813 C 0.83228 0.45595 0.46973 0.0
C814 C 0.81408 0.45232 0.47471 0.0
H815 H 0.79192 0.41386 0.44565 0.0
O816 O 0.78484 0.3934 0.49817 0.0
O817 O 0.78128 0.42119 0.49406 0.0
O818 O 0.75307 0.39169 0.47204 0.0
O819 O 0.7625 0.41675 0.45753 0.0
C820 C 0.84626 0.47134 0.4794 0.0
C821 C 0.84189 0.48262 0.49399 0.0
H822 H 0.8284 0.50069 0.52169 0.0
H823 H 0.79558 0.49153 0.52899 0.0
H824 H 0.82364 0.41916 0.43573 0.0
H825 H 0.84957 0.44605 0.45109 0.0
H826 H 0.86047 0.47449 0.47588 0.0
H827 H 0.85282 0.49423 0.5015 0.0
Mn828 Mn 0.62739 0.53482 0.28663 0.0
Mn829 Mn 0.66683 0.54705 0.31701 0.0
C830 C 0.64364 0.56602 0.29523 0.0
C831 C 0.61331 0.52786 0.25589 0.0
C832 C 0.62768 0.53481 0.32837 0.0
O833 O 0.63513 0.51026 0.28619 0.0
O834 O 0.66168 0.52054 0.30618 0.0
C835 C 0.69427 0.54414 0.29098 0.0
N836 N 0.68817 0.55446 0.3042 0.0
C837 C 0.71377 0.58147 0.30306 0.0
C838 C 0.72039 0.5711 0.28951 0.0
C839 C 0.71057 0.55236 0.28343 0.0
C840 C 0.69749 0.57251 0.31014 0.0
H841 H 0.68673 0.52976 0.2862 0.0
C842 C 0.64977 0.50773 0.29502 0.0
O843 O 0.60367 0.52305 0.26924 0.0
O844 O 0.63105 0.53576 0.26038 0.0
N845 N 0.6735 0.57255 0.32827 0.0
C846 C 0.6648 0.58085 0.34083 0.0
C847 C 0.67262 0.59973 0.34804 0.0
C848 C 0.68935 0.60984 0.34235 0.0
C849 C 0.69814 0.60095 0.32955 0.0
C850 C 0.68978 0.58206 0.32296 0.0
H851 H 0.65194 0.57315 0.34525 0.0
O852 O 0.62602 0.56153 0.28868 0.0
O853 O 0.65098 0.55219 0.29679 0.0
O854 O 0.61849 0.53213 0.31229 0.0
O855 O 0.6456 0.54015 0.33131 0.0
C856 C 0.71471 0.61017 0.32284 0.0
C857 C 0.72249 0.60045 0.30958 0.0
H858 H 0.7329 0.57741 0.28358 0.0
H859 H 0.71554 0.54429 0.27291 0.0
H860 H 0.66575 0.6065 0.35791 0.0
H861 H 0.69524 0.62445 0.34781 0.0
H862 H 0.72144 0.6248 0.32761 0.0
H863 H 0.73508 0.60776 0.30434 0.0
Dy864 Dy 0.04911 0.04834 0.03759 0.0
Dy865 Dy 0.00721 0.02702 0.01744 0.0
C866 C 0.04285 0.03156 0.99553 0.0
O867 O 0.04063 0.06974 0.02189 0.0
O868 O 0.00871 0.05777 0.01957 0.0
O869 O 0.07821 0.06292 0.03704 0.0
O870 O 0.06795 0.05737 0.06282 0.0
O871 O 1.00536 0.02975 0.04758 0.0
O872 O 0.02953 0.05595 0.05649 0.0
O873 O 0.02006 1.00328 0.02186 0.0
O874 O 0.04297 0.01914 0.04513 0.0
O875 O 0.97835 0.01217 0.01865 0.0
O876 O 0.9876 0.01815 0.99262 0.0
C877 C 0.02351 0.07143 0.01797 0.0
O878 O 0.05334 0.03301 0.0112 0.0
O879 O 0.02545 0.03253 0.99519 0.0
C880 C 0.09638 0.05126 0.05801 0.0
C881 C 0.12015 0.02864 0.06662 0.0
C882 C 0.10405 0.02156 0.05377 0.0
C883 C 0.09232 0.03274 0.04952 0.0
C884 C 0.11246 0.05856 0.0708 0.0
C885 C 0.12441 0.04732 0.075 0.0
C886 C 0.08271 0.06191 0.05431 0.0
C887 C 0.01424 0.04405 0.05983 0.0
C888 C 0.03275 1.00333 0.03561 0.0
C889 C 0.95866 0.02286 0.99825 0.0
C890 C 0.93298 0.04383 0.99054 0.0
C891 C 0.94725 0.05013 0.00542 0.0
C892 C 0.95996 0.03978 0.0092 0.0
C893 C 0.94439 0.01635 0.98346 0.0
C894 C 0.93154 0.02674 0.97967 0.0
C895 C 0.97324 0.01311 1.00153 0.0
H896 H 0.10061 0.0074 0.04673 0.0
H897 H 0.07992 0.02683 0.03966 0.0
H898 H 0.11564 0.07278 0.07762 0.0
H899 H 0.13679 0.05312 0.0849 0.0
H900 H 0.94851 0.06302 0.0143 0.0
H901 H 0.97096 0.04512 0.02063 0.0
H902 H 0.94336 1.00343 0.97474 0.0
H903 H 0.92071 0.02158 0.96808 0.0
Dy904 Dy 0.29626 0.78732 0.2507 0.0
Dy905 Dy 0.27466 0.79983 0.28459 0.0
C906 C 0.30807 0.82829 0.27171 0.0
O907 O 0.30769 0.77564 0.27474 0.0
O908 O 0.30107 0.79502 0.29788 0.0
O909 O 0.31582 0.79508 0.23135 0.0
O910 O 0.30262 0.76578 0.23244 0.0
O911 O 0.26598 0.76864 0.27858 0.0
O912 O 0.26808 0.76728 0.24803 0.0
O913 O 0.25609 0.80185 0.25981 0.0
O914 O 0.27574 0.80125 0.23746 0.0
O915 O 0.2506 0.79543 0.29954 0.0
O916 O 0.27496 0.81879 0.30879 0.0
C917 C 0.3102 0.78304 0.29206 0.0
O918 O 0.31434 0.81406 0.26608 0.0
O919 O 0.29068 0.82582 0.2751 0.0
C920 C 0.30773 0.77551 0.20363 0.0
C921 C 0.29994 0.77959 0.16666 0.0
C922 C 0.31789 0.7786 0.17368 0.0
C923 C 0.32176 0.77662 0.19208 0.0
C924 C 0.28945 0.77511 0.1964 0.0
C925 C 0.28556 0.77708 0.17801 0.0
C926 C 0.31283 0.77792 0.22348 0.0
C927 C 0.2607 0.75998 0.26183 0.0
C928 C 0.26 0.80368 0.243 0.0
C929 C 0.26088 0.80224 0.33093 0.0
C930 C 0.26638 0.79117 0.36565 0.0
C931 C 0.27349 0.78335 0.35069 0.0
C932 C 0.27075 0.78882 0.33351 0.0
C933 C 0.25359 0.81004 0.3457 0.0
C934 C 0.25623 0.80444 0.36301 0.0
C935 C 0.25929 0.80848 0.31294 0.0
H936 H 0.32917 0.78032 0.16517 0.0
H937 H 0.33596 0.77705 0.19753 0.0
H938 H 0.2785 0.77446 0.20522 0.0
H939 H 0.27167 0.77802 0.17307 0.0
H940 H 0.281 0.7728 0.35222 0.0
H941 H 0.27643 0.78264 0.3222 0.0
H942 H 0.24603 0.82051 0.34388 0.0
H943 H 0.2506 0.81064 0.37435 0.0
Dy944 Dy 0.50951 0.03214 0.54349 0.0
Dy945 Dy 0.55202 0.04026 0.53076 0.0
C946 C 0.51849 0.04891 0.50654 0.0
O947 O 0.50947 0.00598 0.52484 0.0
O948 O 0.54119 0.00914 0.52791 0.0
O949 O 0.47946 0.0229 0.53585 0.0
O950 O 0.49095 0.03377 0.5641 0.0
O951 O 0.55429 0.03573 0.5601 0.0
O952 O 0.52471 0.01751 0.56178 0.0
O953 O 0.54791 0.06884 0.53791 0.0
O954 O 0.52576 0.06089 0.55743 0.0
O955 O 0.58202 0.05229 0.53705 0.0
O956 O 0.57035 0.03593 0.51069 0.0
C957 C 0.52387 0.99887 0.52297 0.0
O958 O 0.51009 0.04986 0.52124 0.0
O959 O 0.53302 0.04196 0.5061 0.0
C960 C 0.46387 0.04202 0.55191 0.0
C961 C 0.44097 0.06674 0.54797 0.0
C962 C 0.43332 0.04728 0.54368 0.0
C963 C 0.44466 0.03505 0.54567 0.0
C964 C 0.47153 0.06145 0.55649 0.0
C965 C 0.46014 0.07368 0.55468 0.0
C966 C 0.47599 0.02909 0.55197 0.0
C967 C 0.54272 0.02315 0.56768 0.0
C968 C 0.53809 0.07365 0.55062 0.0
C969 C 0.59853 0.03191 0.52442 0.0
C970 C 0.62209 0.0077 0.52683 0.0
C971 C 0.6056 0.00454 0.53536 0.0
C972 C 0.59391 0.01652 0.53413 0.0
C973 C 0.61509 0.03535 0.51619 0.0
C974 C 0.62679 0.02338 0.5174 0.0
C975 C 0.58555 0.04368 0.52204 0.0
H976 H 0.41857 0.0415 0.53864 0.0
H977 H 0.4385 0.02015 0.54192 0.0
H978 H 0.48639 0.06722 0.56105 0.0
H979 H 0.46648 0.0886 0.55791 0.0
H980 H 0.60144 0.99253 0.54255 0.0
H981 H 0.58108 0.01358 0.54048 0.0
H982 H 0.61884 0.04715 0.50862 0.0
H983 H 0.63953 0.02639 0.51091 0.0
Dy984 Dy 0.30376 0.27837 0.77929 0.0
Dy985 Dy 0.26339 0.28967 0.77311 0.0
C986 C 0.30241 0.31819 0.76955 0.0
O987 O 0.30043 0.29331 0.80636 0.0
O988 O 0.26834 0.28585 0.80249 0.0
O989 O 0.33359 0.28695 0.78846 0.0
O990 O 0.32039 0.25861 0.77559 0.0
O991 O 0.25691 0.25863 0.77078 0.0
O992 O 0.28251 0.25514 0.78855 0.0
O993 O 0.27168 0.28646 0.74463 0.0
O994 O 0.29117 0.26758 0.75033 0.0
O995 O 0.23388 0.28334 0.76259 0.0
O996 O 0.24729 0.30922 0.78019 0.0
C997 C 0.28441 0.29177 0.81315 0.0
O998 O 0.30888 0.30377 0.7652 0.0
O999 O 0.28657 0.31625 0.77664 0.0
C1000 C 0.35053 0.27305 0.76836 0.0
C1001 C 0.37813 0.27689 0.74398 0.0
C1002 C 0.361 0.28116 0.73932 0.0
C1003 C 0.34738 0.27929 0.7514 0.0
C1004 C 0.36751 0.2687 0.77309 0.0
C1005 C 0.38118 0.27061 0.76103 0.0
C1006 C 0.33622 0.27126 0.78114 0.0
C1007 C 0.26505 0.24864 0.78071 0.0
C1008 C 0.2815 0.275 0.73883 0.0
C1009 C 0.2161 0.29445 0.78405 0.0
C1010 C 0.18772 0.2897 0.80768 0.0
C1011 C 0.20301 0.28191 0.81056 0.0
C1012 C 0.21703 0.28427 0.79888 0.0
C1013 C 0.20081 0.302 0.78094 0.0
C1014 C 0.18676 0.29963 0.79258 0.0
C1015 C 0.23141 0.29793 0.77236 0.0
H1016 H 0.35823 0.28626 0.72646 0.0
H1017 H 0.33439 0.28283 0.74754 0.0
H1018 H 0.37019 0.26384 0.7861 0.0
H1019 H 0.39407 0.26696 0.765 0.0
H1020 H 0.20441 0.27438 0.82212 0.0
H1021 H 0.22876 0.27836 0.80157 0.0
H1022 H 0.19981 0.3099 0.76958 0.0
H1023 H 0.17509 0.30557 0.78971 0.0
Dy1024 Dy 0.04166 0.01187 0.52711 0.0
Dy1025 Dy 0.02773 0.05075 0.53255 0.0
C1026 C 0.99986 0.01134 0.53545 0.0
O1027 O 0.03744 0.01905 0.49846 0.0
O1028 O 0.0166 0.0365 0.50409 0.0
O1029 O 0.03732 0.9827 0.51635 0.0
O1030 O 0.06229 0.9973 0.5348 0.0
O1031 O 0.05302 0.05672 0.51794 0.0
O1032 O 0.06727 0.03605 0.52972 0.0
O1033 O 0.04349 0.04894 0.5596 0.0
O1034 O 0.03751 0.01709 0.5565 0.0
O1035 O 0.0349 0.08053 0.54151 0.0
O1036 O 0.00691 0.06609 0.52839 0.0
C1037 C 0.02453 0.02713 0.49261 0.0
O1038 O 0.01051 1.00355 0.5258 0.0
O1039 O 1.00528 0.02913 0.54244 0.0
C1040 C 0.0487 0.96587 0.53814 0.0
C1041 C 0.04384 0.93733 0.56108 0.0
C1042 C 0.03763 0.95341 0.56544 0.0
C1043 C 0.03999 0.96749 0.55407 0.0
C1044 C 0.05475 0.94982 0.53361 0.0
C1045 C 0.05231 0.93567 0.54493 0.0
C1046 C 0.05197 0.98112 0.52661 0.0
C1047 C 0.06818 0.05142 0.52229 0.0
C1048 C 0.04268 0.03339 0.56679 0.0
C1049 C 0.02003 0.09669 0.5217 0.0
C1050 C 0.02325 0.12487 0.49838 0.0
C1051 C 0.02615 0.1074 0.49229 0.0
C1052 C 0.02461 0.09347 0.50385 0.0
C1053 C 0.017 0.11398 0.5278 0.0
C1054 C 0.01858 0.12793 0.51629 0.0
C1055 C 0.01888 0.08229 0.53414 0.0
H1056 H 0.03082 0.95507 0.5776 0.0
H1057 H 0.03513 0.97973 0.5578 0.0
H1058 H 0.06155 0.94833 0.52141 0.0
H1059 H 0.05744 0.9236 0.54123 0.0
H1060 H 0.02997 0.10459 0.47871 0.0
H1061 H 0.02713 0.08024 0.4989 0.0
H1062 H 0.01347 0.11674 0.54152 0.0
H1063 H 0.016 0.14107 0.52139 0.0
Dy1064 Dy 0.28744 0.80453 0.7678 0.0
Dy1065 Dy 0.27872 0.76343 0.78287 0.0
C1066 C 0.27048 0.79824 0.80553 0.0
O1067 O 0.31604 0.80082 0.77627 0.0
O1068 O 0.30703 0.78038 0.79692 0.0
O1069 O 0.29939 0.83456 0.77223 0.0
O1070 O 0.28339 0.82098 0.74623 0.0
O1071 O 0.2969 0.7624 0.76089 0.0
O1072 O 0.28896 0.78388 0.74418 0.0
O1073 O 0.25266 0.76278 0.76407 0.0
O1074 O 0.25617 0.79437 0.76626 0.0
O1075 O 0.26906 0.73337 0.77664 0.0
O1076 O 0.28052 0.7462 0.80437 0.0
C1077 C 0.32025 0.79198 0.78991 0.0
O1078 O 0.28312 0.80888 0.79719 0.0
O1079 O 0.26446 0.78009 0.80058 0.0
C1080 C 0.2787 0.8501 0.75808 0.0
C1081 C 0.25477 0.87404 0.76219 0.0
C1082 C 0.27182 0.87756 0.77374 0.0
C1083 C 0.28366 0.86576 0.77168 0.0
C1084 C 0.26187 0.84686 0.74623 0.0
C1085 C 0.25006 0.85867 0.74827 0.0
C1086 C 0.29058 0.83682 0.75686 0.0
C1087 C 0.29579 0.76943 0.74552 0.0
C1088 C 0.24563 0.77711 0.7621 0.0
C1089 C 0.28922 0.71938 0.79282 0.0
C1090 C 0.31483 0.69716 0.79077 0.0
C1091 C 0.31957 0.71543 0.78611 0.0
C1092 C 0.30692 0.72642 0.78717 0.0
C1093 C 0.28444 0.70125 0.79763 0.0
C1094 C 0.29716 0.69025 0.79669 0.0
C1095 C 0.27566 0.73076 0.79284 0.0
H1096 H 0.27605 0.88946 0.78441 0.0
H1097 H 0.29659 0.86876 0.78092 0.0
H1098 H 0.25758 0.83497 0.73555 0.0
H1099 H 0.23699 0.85545 0.73923 0.0
H1100 H 0.33313 0.72129 0.78176 0.0
H1101 H 0.3109 0.74042 0.78343 0.0
H1102 H 0.27081 0.69554 0.80192 0.0
H1103 H 0.29301 0.67618 0.80022 0.0
Dy1104 Dy 0.52178 0.04179 0.00895 0.0
Dy1105 Dy 0.52486 0.01642 0.04198 0.0
C1106 C 0.53411 1.00322 1.0019 0.0
O1107 O 0.49261 0.02813 0.01383 0.0
O1108 O 0.49931 1.00197 0.02251 0.0
O1109 O 0.51033 0.04458 0.98176 0.0
O1110 O 0.52913 0.06854 0.9991 0.0
O1111 O 0.51157 0.03823 0.05378 0.0
O1112 O 0.52047 0.06008 0.03443 0.0
O1113 O 0.54903 0.04184 0.04749 0.0
O1114 O 0.55218 0.04533 0.01767 0.0
O1115 O 0.54149 0.00659 0.06232 0.0
O1116 O 0.51109 0.9968 0.05896 0.0
C1117 C 0.48722 0.01043 0.01592 0.0
O1118 O 0.52596 0.0152 0.9951 0.0
O1119 O 0.5377 1.0033 0.01968 0.0
C1120 C 0.5322 0.06537 0.9678 0.0
C1121 C 0.55379 0.07002 0.93858 0.0
C1122 C 0.56109 0.06526 0.95506 0.0
C1123 C 0.55035 0.06286 0.96952 0.0
C1124 C 0.52493 0.07042 0.95153 0.0
C1125 C 0.53565 0.0727 0.93696 0.0
C1126 C 0.52059 0.06175 0.98265 0.0
C1127 C 0.51422 0.05541 0.04978 0.0
C1128 C 0.55923 0.04851 0.03498 0.0
C1129 C 0.52614 1.00367 0.08872 0.0
C1130 C 0.5159 0.01515 0.12272 0.0
C1131 C 0.52536 0.02848 0.1124 0.0
C1132 C 0.53037 0.02278 0.09546 0.0
C1133 C 0.51801 0.99031 0.0996 0.0
C1134 C 0.51294 0.99601 0.11653 0.0
C1135 C 0.52667 0.99796 0.06929 0.0
H1136 H 0.57489 0.06279 0.95657 0.0
H1137 H 0.55609 0.05872 0.98193 0.0
H1138 H 0.51089 0.0723 0.95 0.0
H1139 H 0.52974 0.07642 0.9244 0.0
H1140 H 0.5276 0.0433 0.11674 0.0
H1141 H 0.53635 0.03331 0.08709 0.0
H1142 H 0.51448 0.97553 0.09449 0.0
H1143 H 0.50578 0.98548 0.12434 0.0
Dy1144 Dy 0.26558 0.26549 0.26406 0.0
Dy1145 Dy 0.28968 0.3073 0.28379 0.0
C1146 C 0.2845 0.27229 0.3064 0.0
O1147 O 0.24375 0.28062 0.26989 0.0
O1148 O 0.2609 0.30359 0.29257 0.0
O1149 O 0.24181 0.24145 0.26276 0.0
O1150 O 0.26047 0.24283 0.24187 0.0
O1151 O 0.27451 0.3118 0.2576 0.0
O1152 O 0.27034 0.28292 0.24144 0.0
O1153 O 0.31058 0.29563 0.26969 0.0
O1154 O 0.29567 0.26419 0.26539 0.0
O1155 O 0.30843 0.3341 0.2814 0.0
O1156 O 0.29859 0.32853 0.30739 0.0
C1157 C 0.24466 0.29346 0.28382 0.0
O1158 O 0.27105 0.26241 0.29367 0.0
O1159 O 0.29547 0.28851 0.304 0.0
C1160 C 0.24886 0.21364 0.25136 0.0
C1161 C 0.25955 0.18069 0.25553 0.0
C1162 C 0.25852 0.19287 0.27099 0.0
C1163 C 0.25332 0.20926 0.26894 0.0
C1164 C 0.24871 0.20094 0.23593 0.0
C1165 C 0.25408 0.18457 0.23798 0.0
C1166 C 0.24683 0.23232 0.24896 0.0
C1167 C 0.27119 0.30071 0.24195 0.0
C1168 C 0.31072 0.27811 0.26529 0.0
C1169 C 0.29928 0.35773 0.29822 0.0
C1170 C 0.28441 0.38846 0.29496 0.0
C1171 C 0.27245 0.3703 0.29345 0.0
C1172 C 0.27982 0.3551 0.29493 0.0
C1173 C 0.31135 0.37583 0.30029 0.0
C1174 C 0.30394 0.39116 0.29873 0.0
C1175 C 0.30664 0.34128 0.29776 0.0
H1176 H 0.26294 0.19039 0.28467 0.0
H1177 H 0.25375 0.21894 0.28107 0.0
H1178 H 0.24538 0.20415 0.22227 0.0
H1179 H 0.2547 0.17534 0.22586 0.0
H1180 H 0.25734 0.36779 0.2909 0.0
H1181 H 0.27031 0.3412 0.29308 0.0
H1182 H 0.32643 0.37803 0.30262 0.0
H1183 H 0.31347 0.40501 0.29986 0.0
Dy1184 Dy 0.54207 0.51261 0.02733 0.0
Dy1185 Dy 0.52826 0.55148 0.03389 0.0
C1186 C 0.50034 0.51195 0.03644 0.0
O1187 O 0.53775 0.5207 0.99906 0.0
O1188 O 0.51662 0.53752 0.00547 0.0
O1189 O 0.53811 0.484 0.01508 0.0
O1190 O 0.56235 0.49755 0.0349 0.0
O1191 O 0.55366 0.55772 0.01941 0.0
O1192 O 0.56778 0.5367 0.0306 0.0
O1193 O 0.54317 0.5488 0.06108 0.0
O1194 O 0.53833 0.51701 0.05688 0.0
O1195 O 0.53564 0.58121 0.04319 0.0
O1196 O 0.50757 0.56703 0.03012 0.0
C1197 C 0.5246 0.52866 0.99362 0.0
O1198 O 0.51097 0.50413 0.02677 0.0
O1199 O 0.50573 0.52972 0.04346 0.0
C1200 C 0.54826 0.46576 0.03624 0.0
C1201 C 0.54185 0.43616 0.05791 0.0
C1202 C 0.52949 0.44765 0.05675 0.0
C1203 C 0.53271 0.46234 0.0461 0.0
C1204 C 0.56058 0.45435 0.0373 0.0
C1205 C 0.55743 0.43971 0.04803 0.0
C1206 C 0.55224 0.48177 0.02569 0.0
C1207 C 0.56878 0.55229 0.02358 0.0
C1208 C 0.54291 0.53302 0.06767 0.0
C1209 C 0.52097 0.59755 0.02344 0.0
C1210 C 0.52449 0.62568 1.00005 0.0
C1211 C 0.52695 0.60802 0.99392 0.0
C1212 C 0.52525 0.59413 0.00551 0.0
C1213 C 0.51838 0.61503 0.02959 0.0
C1214 C 0.52012 0.62895 0.01804 0.0
C1215 C 0.51967 0.58314 0.03589 0.0
H1216 H 0.5175 0.4455 0.06434 0.0
H1217 H 0.52316 0.47116 0.0457 0.0
H1218 H 0.57273 0.45683 0.02992 0.0
H1219 H 0.56712 0.43105 0.04845 0.0
H1220 H 0.53054 0.60504 0.98027 0.0
H1221 H 0.52744 0.58076 1.00053 0.0
H1222 H 0.51508 0.61796 0.04337 0.0
H1223 H 0.51788 0.64225 0.02317 0.0
Dy1224 Dy 0.78717 0.30305 0.26113 0.0
Dy1225 Dy 0.77742 0.25997 0.27162 0.0
C1226 C 0.77215 0.29315 0.29847 0.0
O1227 O 0.81573 0.29904 0.26885 0.0
O1228 O 0.80647 0.27478 0.2857 0.0
O1229 O 0.79776 0.33301 0.26911 0.0
O1230 O 0.78422 0.32191 0.24156 0.0
O1231 O 0.79562 0.26046 0.24948 0.0
O1232 O 0.79068 0.28539 0.23606 0.0
O1233 O 0.75188 0.26138 0.25328 0.0
O1234 O 0.75583 0.29292 0.25956 0.0
O1235 O 0.76768 0.23016 0.26324 0.0
O1236 O 0.77757 0.241 0.29177 0.0
C1237 C 0.81971 0.28802 0.28055 0.0
O1238 O 0.7855 0.30391 0.29106 0.0
O1239 O 0.76399 0.27591 0.29101 0.0
C1240 C 0.7776 0.34913 0.25556 0.0
C1241 C 0.75355 0.3727 0.26047 0.0
C1242 C 0.77312 0.37974 0.26506 0.0
C1243 C 0.78503 0.36807 0.26258 0.0
C1244 C 0.75804 0.34205 0.25096 0.0
C1245 C 0.74616 0.35374 0.25328 0.0
C1246 C 0.7902 0.33673 0.25381 0.0
C1247 C 0.79652 0.27019 0.23573 0.0
C1248 C 0.74509 0.27607 0.25342 0.0
C1249 C 0.7864 0.2146 0.27945 0.0
C1250 C 0.81224 0.19259 0.27987 0.0
C1251 C 0.8161 0.20937 0.27213 0.0
C1252 C 0.80335 0.2203 0.272 0.0
C1253 C 0.78244 0.1979 0.28719 0.0
C1254 C 0.79527 0.18699 0.28743 0.0
C1255 C 0.77313 0.2263 0.27933 0.0
H1256 H 0.77925 0.39432 0.2705 0.0
H1257 H 0.80003 0.37381 0.2663 0.0
H1258 H 0.75188 0.32741 0.24575 0.0
H1259 H 0.73115 0.34784 0.24984 0.0
H1260 H 0.82913 0.21421 0.26643 0.0
H1261 H 0.80677 0.23327 0.26614 0.0
H1262 H 0.76946 0.19331 0.29304 0.0
H1263 H 0.79182 0.17407 0.29336 0.0
Dy1264 Dy 0.01785 0.54098 0.50855 0.0
Dy1265 Dy 0.02829 0.51935 0.54296 0.0
C1266 C 0.03289 0.50423 0.50213 0.0
O1267 O 0.99016 0.52677 0.51649 0.0
O1268 O 0.99917 0.50401 0.53071 0.0
O1269 O 1.00427 0.54064 0.48129 0.0
O1270 O 0.0202 0.56683 0.49729 0.0
O1271 O 0.01283 0.53904 0.55503 0.0
O1272 O 0.01761 0.55986 0.53407 0.0
O1273 O 0.05158 0.54497 0.54356 0.0
O1274 O 0.04907 0.54731 0.51301 0.0
O1275 O 0.04355 0.52017 0.56948 0.0
O1276 O 0.02616 0.49387 0.55502 0.0
C1277 C 0.98615 0.51066 0.52285 0.0
O1278 O 0.02123 0.51351 0.49605 0.0
O1279 O 0.04045 0.5074 0.51937 0.0
C1280 C 0.02269 0.56299 0.46587 0.0
C1281 C 0.04311 0.56909 0.43593 0.0
C1282 C 0.05219 0.56775 0.45307 0.0
C1283 C 0.04206 0.56466 0.46788 0.0
C1284 C 0.01359 0.56464 0.44891 0.0
C1285 C 0.02374 0.56764 0.43399 0.0
C1286 C 0.01195 0.55841 0.48117 0.0
C1287 C 0.01316 0.55558 0.55017 0.0
C1288 C 0.05871 0.5516 0.52935 0.0
C1289 C 0.02535 0.49997 0.58667 0.0
C1290 C 0.00762 0.50158 0.6185 0.0
C1291 C 0.99765 0.50101 0.60124 0.0
C1292 C 0.00646 0.50027 0.58549 0.0
C1293 C 0.03514 0.49967 0.60371 0.0
C1294 C 0.02632 0.50045 0.61956 0.0
C1295 C 0.03536 0.50277 0.57062 0.0
H1296 H 0.06701 0.56844 0.4549 0.0
H1297 H 0.04931 0.56319 0.48081 0.0
H1298 H 0.99862 0.56327 0.44714 0.0
H1299 H 0.01643 0.56867 0.42092 0.0
H1300 H 0.98336 0.5022 0.59999 0.0
H1301 H 0.99877 0.50088 0.57247 0.0
H1302 H 0.0498 0.49965 0.60485 0.0
H1303 H 0.03427 0.50075 0.63268 0.0
Dy1304 Dy 0.80196 0.77608 0.27985 0.0
Dy1305 Dy 0.76213 0.78875 0.27338 0.0
C1306 C 0.80202 0.81665 0.26983 0.0
O1307 O 0.79909 0.7911 0.307 0.0
O1308 O 0.7671 0.78554 0.30294 0.0
O1309 O 0.83161 0.7831 0.28974 0.0
O1310 O 0.81759 0.75547 0.27558 0.0
O1311 O 0.75515 0.75766 0.27088 0.0
O1312 O 0.78 0.75378 0.28943 0.0
O1313 O 0.77084 0.78559 0.24514 0.0
O1314 O 0.78899 0.76549 0.25086 0.0
O1315 O 0.73273 0.78281 0.26257 0.0
O1316 O 0.74619 0.80839 0.28063 0.0
C1317 C 0.78315 0.79055 0.31365 0.0
O1318 O 0.809 0.80226 0.26716 0.0
O1319 O 0.78529 0.81508 0.27501 0.0
C1320 C 0.84889 0.76915 0.26953 0.0
C1321 C 0.87748 0.77322 0.24601 0.0
C1322 C 0.87925 0.78623 0.26176 0.0
C1323 C 0.86519 0.78419 0.27337 0.0
C1324 C 0.84722 0.75598 0.25395 0.0
C1325 C 0.8613 0.758 0.24235 0.0
C1326 C 0.83372 0.7675 0.28162 0.0
C1327 C 0.76265 0.74758 0.28127 0.0
C1328 C 0.77978 0.77332 0.23936 0.0
C1329 C 0.71484 0.79377 0.28406 0.0
C1330 C 0.68628 0.78912 0.30753 0.0
C1331 C 0.70143 0.78114 0.31041 0.0
C1332 C 0.71554 0.78345 0.29881 0.0
C1333 C 0.69966 0.8015 0.28094 0.0
C1334 C 0.68553 0.79918 0.2925 0.0
C1335 C 0.7303 0.79732 0.27253 0.0
H1336 H 0.89137 0.79824 0.26497 0.0
H1337 H 0.86701 0.79455 0.2853 0.0
H1338 H 0.83497 0.74411 0.25061 0.0
H1339 H 0.85954 0.74751 0.23056 0.0
H1340 H 0.70267 0.7735 0.32192 0.0
H1341 H 0.72718 0.77743 0.30153 0.0
H1342 H 0.69884 0.80951 0.26965 0.0
H1343 H 0.67398 0.80527 0.28962 0.0
Dy1344 Dy 0.79361 0.28495 0.7555 0.0
Dy1345 Dy 0.76997 0.29251 0.78938 0.0
C1346 C 0.80203 0.32477 0.77927 0.0
O1347 O 0.80521 0.27151 0.77797 0.0
O1348 O 0.79698 0.28835 0.80217 0.0
O1349 O 0.81787 0.29327 0.74122 0.0
O1350 O 0.79621 0.26794 0.73078 0.0
O1351 O 0.76394 0.26164 0.78208 0.0
O1352 O 0.76675 0.26259 0.75186 0.0
O1353 O 0.75194 0.2949 0.76427 0.0
O1354 O 0.77403 0.30084 0.74433 0.0
O1355 O 0.74415 0.28634 0.80154 0.0
O1356 O 0.76865 0.30728 0.81569 0.0
C1357 C 0.80713 0.27765 0.7956 0.0
O1358 O 0.80943 0.31189 0.77222 0.0
O1359 O 0.78465 0.32054 0.78296 0.0
C1360 C 0.80705 0.28822 0.70977 0.0
C1361 C 0.79336 0.30003 0.67765 0.0
C1362 C 0.79668 0.31168 0.69446 0.0
C1363 C 0.80338 0.30582 0.71034 0.0
C1364 C 0.80461 0.27687 0.69287 0.0
C1365 C 0.79789 0.28279 0.67685 0.0
C1366 C 0.81037 0.2808 0.72703 0.0
C1367 C 0.7597 0.25376 0.76501 0.0
C1368 C 0.75714 0.30029 0.74876 0.0
C1369 C 0.75012 0.28766 0.83324 0.0
C1370 C 0.74811 0.27006 0.86495 0.0
C1371 C 0.75804 0.2647 0.851 0.0
C1372 C 0.75906 0.27344 0.83529 0.0
C1373 C 0.73996 0.29295 0.84693 0.0
C1374 C 0.73891 0.28416 0.86273 0.0
C1375 C 0.75183 0.297 0.81687 0.0
H1376 H 0.79363 0.32517 0.69541 0.0
H1377 H 0.8049 0.31481 0.72321 0.0
H1378 H 0.8071 0.26314 0.6922 0.0
H1379 H 0.79543 0.27357 0.66401 0.0
H1380 H 0.76499 0.25367 0.85219 0.0
H1381 H 0.76692 0.26919 0.82475 0.0
H1382 H 0.73302 0.30394 0.84548 0.0
H1383 H 0.73126 0.28861 0.87334 0.0
Dy1384 Dy 0.76956 0.76652 0.76575 0.0
Dy1385 Dy 0.79289 0.8079 0.78545 0.0
C1386 C 0.78592 0.77298 0.80772 0.0
O1387 O 0.7493 0.77635 0.78239 0.0
O1388 O 0.76246 0.80802 0.78531 0.0
O1389 O 0.753 0.73827 0.76652 0.0
O1390 O 0.75845 0.74806 0.74055 0.0
O1391 O 0.79077 0.80842 0.75516 0.0
O1392 O 0.76253 0.78694 0.74807 0.0
O1393 O 0.81555 0.79369 0.77996 0.0
O1394 O 0.79861 0.77038 0.75742 0.0
O1395 O 0.80479 0.83696 0.78319 0.0
O1396 O 0.80802 0.82695 0.80934 0.0
C1397 C 0.74832 0.79361 0.78676 0.0
O1398 O 0.78439 0.76215 0.79213 0.0
O1399 O 0.78559 0.79048 0.80786 0.0
C1400 C 0.75862 0.7172 0.74343 0.0
C1401 C 0.77215 0.68552 0.7369 0.0
C1402 C 0.78446 0.70356 0.73893 0.0
C1403 C 0.77776 0.71925 0.74223 0.0
C1404 C 0.74611 0.69931 0.74065 0.0
C1405 C 0.75283 0.68353 0.7374 0.0
C1406 C 0.7521 0.73365 0.7489 0.0
C1407 C 0.77539 0.80091 0.74382 0.0
C1408 C 0.81482 0.78053 0.76633 0.0
C1409 C 0.80226 0.85656 0.80877 0.0
C1410 C 0.78387 0.88474 0.81546 0.0
C1411 C 0.80225 0.88916 0.81067 0.0
C1412 C 0.81136 0.87514 0.80733 0.0
C1413 C 0.78447 0.85227 0.81481 0.0
C1414 C 0.77538 0.86628 0.81823 0.0
C1415 C 0.80968 0.84156 0.80075 0.0
H1416 H 0.79945 0.70559 0.73901 0.0
H1417 H 0.78765 0.73297 0.7445 0.0
H1418 H 0.73129 0.69754 0.74158 0.0
H1419 H 0.74303 0.66978 0.73583 0.0
H1420 H 0.80911 0.90318 0.8082 0.0
H1421 H 0.82498 0.87862 0.80244 0.0
H1422 H 0.77713 0.83794 0.81583 0.0
H1423 H 0.76134 0.86249 0.82215 0.0
Dy1424 Dy 0.54876 0.55148 0.5391 0.0
Dy1425 Dy 0.50724 0.52784 0.51929 0.0
C1426 C 0.54351 0.53267 0.49739 0.0
O1427 O 0.5384 0.57062 0.5217 0.0
O1428 O 0.50686 0.55818 0.52093 0.0
O1429 O 0.57427 0.57332 0.53937 0.0
O1430 O 0.56983 0.55846 0.56281 0.0
O1431 O 0.50443 0.53201 0.54917 0.0
O1432 O 0.529 0.5579 0.5584 0.0
O1433 O 0.5217 0.50545 0.52433 0.0
O1434 O 0.54583 0.52224 0.54615 0.0
O1435 O 0.48186 0.50572 0.51874 0.0
O1436 O 0.48501 0.52287 0.49687 0.0
C1437 C 0.52112 0.57194 0.51838 0.0
O1438 O 0.55463 0.53697 0.51304 0.0
O1439 O 0.52541 0.53106 0.49675 0.0
C1440 C 0.60034 0.56579 0.55445 0.0
C1441 C 0.63178 0.55141 0.55311 0.0
C1442 C 0.62318 0.55601 0.53716 0.0
C1443 C 0.60759 0.56309 0.5378 0.0
C1444 C 0.6097 0.56246 0.57061 0.0
C1445 C 0.62528 0.55524 0.56995 0.0
C1446 C 0.58192 0.56977 0.55471 0.0
C1447 C 0.51348 0.54617 0.56149 0.0
C1448 C 0.53524 0.50614 0.53743 0.0
C1449 C 0.45591 0.51532 0.50759 0.0
C1450 C 0.42345 0.52739 0.51156 0.0
C1451 C 0.44023 0.53601 0.52316 0.0
C1452 C 0.45628 0.53 0.5212 0.0
C1453 C 0.43916 0.50623 0.4963 0.0
C1454 C 0.42297 0.51222 0.49829 0.0
C1455 C 0.47345 0.51067 0.50462 0.0
H1456 H 0.62768 0.55298 0.52392 0.0
H1457 H 0.60069 0.56547 0.52506 0.0
H1458 H 0.60437 0.56451 0.58361 0.0
H1459 H 0.63177 0.55195 0.58246 0.0
H1460 H 0.44126 0.54798 0.53324 0.0
H1461 H 0.4692 0.53724 0.52994 0.0
H1462 H 0.43873 0.49488 0.48571 0.0
H1463 H 0.4102 0.50523 0.48925 0.0
Dy1464 Dy 0.00786 0.53046 0.04047 0.0
Dy1465 Dy 0.05042 0.53932 0.02685 0.0
C1466 C 0.01638 0.54891 0.00386 0.0
O1467 O 0.00754 0.50456 0.02155 0.0
O1468 O 0.03934 0.50817 0.02281 0.0
O1469 O 0.97772 0.52084 0.0336 0.0
O1470 O 0.98989 0.53143 0.06174 0.0
O1471 O 0.05326 0.53454 0.05606 0.0
O1472 O 0.02392 0.51612 0.05829 0.0
O1473 O 0.0469 0.56785 0.03541 0.0
O1474 O 0.02334 0.55963 0.05365 0.0
O1475 O 0.08043 0.55135 0.03282 0.0
O1476 O 0.06852 0.53502 0.00652 0.0
C1477 C 0.02196 0.49783 0.01856 0.0
O1478 O 0.00748 0.54823 0.01834 0.0
O1479 O 0.03147 0.54289 1.00297 0.0
C1480 C 0.96232 0.53959 0.05051 0.0
C1481 C 0.93979 0.5648 0.0474 0.0
C1482 C 0.9329 0.54593 0.03964 0.0
C1483 C 0.94403 0.53347 0.04121 0.0
C1484 C 0.96906 0.55832 0.05875 0.0
C1485 C 0.95788 0.57077 0.05728 0.0
C1486 C 0.97465 0.52682 0.04996 0.0
C1487 C 0.04199 0.52192 0.06383 0.0
C1488 C 0.03634 0.57236 0.04755 0.0
C1489 C 0.09649 0.53057 0.02028 0.0
C1490 C 0.11967 0.50606 0.02352 0.0
C1491 C 0.10277 0.50295 0.03138 0.0
C1492 C 0.09131 0.51508 0.02977 0.0
C1493 C 0.11341 0.53393 0.01263 0.0
C1494 C 0.12493 0.5218 0.01426 0.0
C1495 C 0.0838 0.54262 0.01781 0.0
H1496 H 0.91893 0.54082 0.03215 0.0
H1497 H 0.93853 0.51913 0.0347 0.0
H1498 H 0.98316 0.56349 0.06592 0.0
H1499 H 0.96365 0.58523 0.0633 0.0
H1500 H 0.09814 0.49088 0.03838 0.0
H1501 H 0.07823 0.51222 0.03571 0.0
H1502 H 0.11761 0.54581 0.00527 0.0
H1503 H 0.13796 0.52478 0.00828 0.0
C1504 C 0.00601 0.22094 0.96835 0.0
C1505 C 1.00296 0.22093 0.94926 0.0
C1506 C 0.0077 0.20474 0.97575 0.0
C1507 C 0.01974 0.15977 0.96468 0.0
H1508 H 0.9951 0.1455 0.00696 0.0
C1509 C 0.03611 0.10195 0.00561 0.0
C1510 C 0.02087 0.08889 0.01094 0.0
C1511 C 0.0336 0.11783 0.99812 0.0
C1512 C 1.00204 0.14921 0.99511 0.0
H1513 H 0.99944 0.20366 0.92305 0.0
H1514 H 1.00273 0.17556 0.93593 0.0
H1515 H 0.99131 0.17328 0.99381 0.0
H1516 H 0.99093 0.08271 0.0126 0.0
H1517 H 0.98665 0.11056 0.99987 0.0
H1518 H 0.0306 0.13581 0.96607 0.0
C1519 C 1.00376 0.18811 0.94521 0.0
C1520 C 0.99998 0.16528 0.98764 0.0
C1521 C 1.00178 0.20424 0.9378 0.0
C1522 C 1.00305 0.09241 0.00876 0.0
C1523 C 1.0006 0.10846 1.00148 0.0
C1524 C 0.02203 0.14388 0.97233 0.0
C1525 C 0.00668 0.18807 0.96432 0.0
C1526 C 0.00878 0.17081 0.97228 0.0
C1527 C 0.01581 0.12135 0.99589 0.0
C1528 C 0.01321 0.13831 0.98766 0.0
H1529 H 0.00699 0.23348 0.97764 0.0
H1530 H 0.01012 0.20538 0.9905 0.0
H1531 H 0.02686 0.16359 0.95296 0.0
H1532 H 0.05003 0.09979 0.00697 0.0
H1533 H 0.04571 0.12748 0.99419 0.0
C1534 C 0.11822 0.82367 0.15908 0.0
C1535 C 0.114 0.8168 0.14029 0.0
C1536 C 0.13571 0.82458 0.16864 0.0
C1537 C 0.17598 0.80349 0.16634 0.0
H1538 H 0.19843 0.84156 0.20776 0.0
C1539 C 0.24579 0.80481 0.21077 0.0
C1540 C 0.2456 0.8079 0.22986 0.0
C1541 C 0.23124 0.80749 0.19863 0.0
C1542 C 0.19232 0.83076 0.19628 0.0
H1543 H 0.12532 0.80616 0.11671 0.0
H1544 H 0.15599 0.80813 0.13328 0.0
H1545 H 0.17068 0.8438 0.18872 0.0
H1546 H 0.23007 0.8167 0.25101 0.0
H1547 H 0.20503 0.82142 0.23001 0.0
H1548 H 0.19763 0.79041 0.17407 0.0
C1549 C 0.14561 0.81249 0.14074 0.0
C1550 C 0.17633 0.83202 0.18535 0.0
C1551 C 0.12806 0.81155 0.13116 0.0
C1552 C 0.23075 0.81415 0.23643 0.0
C1553 C 0.21639 0.81699 0.22435 0.0
C1554 C 0.19206 0.80229 0.17725 0.0
C1555 C 0.14959 0.81869 0.15972 0.0
C1556 C 0.16767 0.81823 0.17039 0.0
C1557 C 0.21628 0.81354 0.20527 0.0
C1558 C 0.20025 0.81572 0.19257 0.0
H1559 H 0.10773 0.82772 0.16661 0.0
H1560 H 0.13803 0.82921 0.18325 0.0
H1561 H 0.16967 0.79245 0.15514 0.0
H1562 H 0.25694 0.79991 0.2052 0.0
H1563 H 0.2317 0.80481 0.18402 0.0
C1564 C 0.51103 0.84501 0.43594 0.0
C1565 C 0.50541 0.8286 0.44418 0.0
C1566 C 0.513 0.8627 0.44561 0.0
C1567 C 0.52624 0.89922 0.47127 0.0
H1568 H 0.48948 0.90815 0.50256 0.0
C1569 C 0.53661 0.97142 0.51395 0.0
C1570 C 0.52098 0.97874 0.51529 0.0
C1571 C 0.53445 0.95284 0.50641 0.0
C1572 C 0.49983 0.90595 0.49379 0.0
H1573 H 0.4975 0.81834 0.46942 0.0
H1574 H 0.50101 0.84946 0.48645 0.0
H1575 H 0.48661 0.87639 0.48772 0.0
H1576 H 0.49063 0.97174 0.50988 0.0
H1577 H 0.48683 0.93924 0.49655 0.0
H1578 H 0.53928 0.92864 0.47691 0.0
C1579 C 0.50382 0.84844 0.47232 0.0
C1580 C 0.49831 0.88764 0.48544 0.0
C1581 C 0.50197 0.83058 0.46261 0.0
C1582 C 0.50301 0.96668 0.50908 0.0
C1583 C 0.50083 0.94797 0.50151 0.0
C1584 C 0.5278 0.91741 0.47964 0.0
C1585 C 0.50937 0.86479 0.46393 0.0
C1586 C 0.51142 0.88402 0.4739 0.0
C1587 C 0.51656 0.9408 0.49988 0.0
C1588 C 0.51462 0.92114 0.49101 0.0
H1589 H 0.5138 0.84424 0.4218 0.0
H1590 H 0.51702 0.8748 0.4385 0.0
H1591 H 0.53675 0.89708 0.46267 0.0
H1592 H 0.55071 0.98007 0.51867 0.0
H1593 H 0.54691 0.94788 0.5058 0.0
C1594 C 0.4878 0.28789 0.6269 0.0
C1595 C 0.50689 0.29495 0.63399 0.0
C1596 C 0.47373 0.28636 0.63851 0.0
C1597 C 0.46642 0.28347 0.68722 0.0
H1598 H 0.41944 0.29486 0.67277 0.0
C1599 C 0.41194 0.28627 0.73788 0.0
C1600 C 0.39277 0.27907 0.73118 0.0
C1601 C 0.42567 0.28836 0.72591 0.0
C1602 C 0.43238 0.2914 0.67695 0.0
H1603 H 0.52598 0.30629 0.659 0.0
H1604 H 0.50155 0.3038 0.67909 0.0
H1605 H 0.44356 0.2984 0.65213 0.0
H1606 H 0.37315 0.2682 0.70648 0.0
H1607 H 0.39705 0.27177 0.68564 0.0
H1608 H 0.45527 0.2764 0.71198 0.0
C1609 C 0.49743 0.29916 0.66457 0.0
C1610 C 0.44624 0.29345 0.66509 0.0
C1611 C 0.51148 0.30071 0.65298 0.0
C1612 C 0.38773 0.27405 0.71214 0.0
C1613 C 0.40147 0.27611 0.70016 0.0
C1614 C 0.45257 0.2814 0.69905 0.0
C1615 C 0.47837 0.29181 0.65755 0.0
C1616 C 0.46349 0.28956 0.67009 0.0
C1617 C 0.42065 0.28328 0.70687 0.0
C1618 C 0.43536 0.28538 0.69413 0.0
H1619 H 0.48367 0.28323 0.61238 0.0
H1620 H 0.45923 0.28047 0.63261 0.0
H1621 H 0.47935 0.27999 0.69142 0.0
H1622 H 0.41636 0.2906 0.7524 0.0
H1623 H 0.44024 0.29423 0.73159 0.0
C1624 C 0.02353 0.80351 0.64942 0.0
C1625 C 0.02841 0.80816 0.66851 0.0
C1626 C 0.02485 0.81748 0.63797 0.0
C1627 C 0.04762 0.86788 0.63659 0.0
H1628 H 0.01061 0.86121 0.59411 0.0
C1629 C 0.04517 0.92734 0.59261 0.0
C1630 C 0.04172 0.92251 0.57345 0.0
C1631 C 0.04336 0.91349 0.60423 0.0
C1632 C 0.02118 0.86323 0.60581 0.0
H1633 H 0.03836 0.8314 0.69043 0.0
H1634 H 0.04031 0.85568 0.67056 0.0
H1635 H 0.00761 0.83711 0.61432 0.0
H1636 H 0.0334 0.89917 0.55158 0.0
H1637 H 0.0304 0.87504 0.57181 0.0
H1638 H 0.06111 0.89407 0.62811 0.0
C1639 C 0.03577 0.84119 0.66437 0.0
C1640 C 0.01948 0.84937 0.61742 0.0
C1641 C 0.0345 0.82722 0.67582 0.0
C1642 C 0.03633 0.90343 0.56624 0.0
C1643 C 0.03442 0.88957 0.57787 0.0
C1644 C 0.04928 0.88177 0.62502 0.0
C1645 C 0.03103 0.83654 0.64526 0.0
C1646 C 0.0327 0.85146 0.63297 0.0
C1647 C 0.03796 0.8944 0.59703 0.0
C1648 C 0.0361 0.87963 0.60944 0.0
H1649 H 0.01887 0.78903 0.64322 0.0
H1650 H 0.02133 0.81329 0.62333 0.0
H1651 H 0.05828 0.8699 0.64821 0.0
H1652 H 0.04953 0.94187 0.59867 0.0
H1653 H 0.04603 0.91775 0.6189 0.0
C1654 C 0.48316 0.81497 0.86322 0.0
C1655 C 0.49385 0.80499 0.85371 0.0
C1656 C 0.46471 0.81405 0.8561 0.0
C1657 C 0.43108 0.80099 0.81312 0.0
H1658 H 0.3938 0.80008 0.84664 0.0
C1659 C 0.35519 0.80583 0.78978 0.0
C1660 C 0.34033 0.79446 0.79732 0.0
C1661 C 0.37401 0.80745 0.79644 0.0
C1662 C 0.40395 0.80021 0.83702 0.0
H1663 H 0.49307 0.78496 0.83009 0.0
H1664 H 0.46079 0.78328 0.81753 0.0
H1665 H 0.42597 0.80163 0.85845 0.0
H1666 H 0.33391 0.77583 0.81785 0.0
H1667 H 0.36642 0.77862 0.82933 0.0
H1668 H 0.4089 0.79924 0.79164 0.0
C1669 C 0.46687 0.79239 0.83019 0.0
C1670 C 0.42254 0.80132 0.84385 0.0
C1671 C 0.48539 0.79338 0.83733 0.0
C1672 C 0.34487 0.78485 0.81174 0.0
C1673 C 0.36362 0.78652 0.81842 0.0
C1674 C 0.41246 0.79996 0.80628 0.0
C1675 C 0.45626 0.80278 0.83945 0.0
C1676 C 0.43641 0.80167 0.83202 0.0
C1677 C 0.37852 0.79782 0.81089 0.0
C1678 C 0.39857 0.79945 0.81812 0.0
H1679 H 0.4892 0.82373 0.87609 0.0
H1680 H 0.45712 0.82235 0.86361 0.0
H1681 H 0.44135 0.80142 0.80358 0.0
H1682 H 0.35231 0.81341 0.77864 0.0
H1683 H 0.38504 0.81644 0.79039 0.0
C1684 C 0.51345 0.19968 0.14276 0.0
C1685 C 0.50403 0.1995 0.15835 0.0
C1686 C 0.51408 0.18302 0.13265 0.0
C1687 C 0.49105 0.13201 0.12345 0.0
H1688 H 0.53627 0.13169 0.10116 0.0
C1689 C 0.50436 0.06666 0.07995 0.0
C1690 C 0.5113 0.07044 0.06326 0.0
C1691 C 0.50274 0.08128 0.09283 0.0
C1692 C 0.52351 0.13154 0.10725 0.0
H1693 H 0.48881 0.1818 0.1763 0.0
H1694 H 0.48992 0.15231 0.15857 0.0
H1695 H 0.53531 0.15902 0.12169 0.0
H1696 H 0.52169 0.09268 0.04709 0.0
H1697 H 0.51906 0.11785 0.06944 0.0
H1698 H 0.47943 0.10426 0.1089 0.0
C1699 C 0.49642 0.16543 0.1539 0.0
C1700 C 0.52291 0.14727 0.11899 0.0
C1701 C 0.49585 0.18226 0.16411 0.0
C1702 C 0.51631 0.08912 0.05974 0.0
C1703 C 0.5149 0.10364 0.07262 0.0
C1704 C 0.49174 0.1161 0.11178 0.0
C1705 C 0.50559 0.16561 0.13801 0.0
C1706 C 0.50655 0.14796 0.12693 0.0
C1707 C 0.50829 0.09998 0.08939 0.0
C1708 C 0.50786 0.11588 0.10323 0.0
H1709 H 0.52031 0.21281 0.13829 0.0
H1710 H 0.52101 0.18384 0.1204 0.0
H1711 H 0.47817 0.13206 0.12921 0.0
H1712 H 0.50042 0.05246 0.08318 0.0
H1713 H 0.49764 0.07803 0.10567 0.0
C1714 C 0.09719 0.29654 0.34978 0.0
C1715 C 0.09095 0.3126 0.34766 0.0
C1716 C 0.1139 0.29456 0.34326 0.0
C1717 C 0.16019 0.31848 0.3346 0.0
H1718 H 0.15616 0.28019 0.29363 0.0
C1719 C 0.22621 0.31333 0.29958 0.0
C1720 C 0.2269 0.29607 0.29039 0.0
C1721 C 0.20969 0.31552 0.30636 0.0
C1722 C 0.15783 0.29074 0.30532 0.0
H1723 H 0.09784 0.3394 0.33747 0.0
H1724 H 0.12744 0.33629 0.32695 0.0
H1725 H 0.12808 0.28326 0.30687 0.0
H1726 H 0.21071 0.26746 0.2815 0.0
H1727 H 0.1825 0.2708 0.29411 0.0
H1728 H 0.18986 0.32555 0.33392 0.0
C1729 C 0.11917 0.3251 0.33334 0.0
C1730 C 0.14155 0.29255 0.31281 0.0
C1731 C 0.10221 0.32686 0.33938 0.0
C1732 C 0.21064 0.28104 0.28826 0.0
C1733 C 0.19428 0.28307 0.29548 0.0
C1734 C 0.17657 0.31637 0.32746 0.0
C1735 C 0.12506 0.30881 0.33493 0.0
C1736 C 0.14251 0.30651 0.32745 0.0
C1737 C 0.1934 0.30037 0.30468 0.0
C1738 C 0.17576 0.30253 0.31255 0.0
H1739 H 0.08881 0.28519 0.35589 0.0
H1740 H 0.1181 0.28185 0.34467 0.0
H1741 H 0.16137 0.32933 0.34595 0.0
H1742 H 0.23842 0.32526 0.3014 0.0
H1743 H 0.20981 0.32926 0.3128 0.0
C1744 C 0.97592 0.04967 0.21949 0.0
C1745 C 0.95708 0.04058 0.22083 0.0
C1746 C 0.9823 0.05133 0.20228 0.0
C1747 C 0.97133 0.02877 0.15419 0.0
H1748 H 1.00352 0.07484 0.14286 0.0
C1749 C 0.98934 0.03563 0.0806 0.0
C1750 C 0.00744 0.04588 0.07811 0.0
C1751 C 0.9833 0.03605 0.09799 0.0
C1752 C 0.99475 0.06176 0.14582 0.0
H1753 H 0.93016 0.02636 0.20503 0.0
H1754 H 0.94128 0.02913 0.17521 0.0
H1755 H 0.99322 0.07352 0.17326 0.0
H1756 H 0.03331 0.06491 0.09205 0.0
H1757 H 0.023 0.06531 0.12246 0.0
H1758 H 0.9731 0.01677 0.1271 0.0
C1759 C 0.95117 0.03491 0.18742 0.0
C1760 C 0.9888 0.06104 0.16328 0.0
C1761 C 0.94476 0.03343 0.20456 0.0
C1762 C 0.01922 0.05692 0.09344 0.0
C1763 C 0.01325 0.05719 0.11092 0.0
C1764 C 0.97741 0.02941 0.13685 0.0
C1765 C 0.97005 0.04375 0.18602 0.0
C1766 C 0.97688 0.04457 0.16764 0.0
C1767 C 0.99526 0.04655 0.11352 0.0
C1768 C 0.98908 0.04596 0.13228 0.0
H1769 H 0.98579 0.05534 0.23173 0.0
H1770 H 0.99695 0.05814 0.20171 0.0
H1771 H 0.96245 0.01574 0.15716 0.0
H1772 H 0.9798 0.02711 0.0691 0.0
H1773 H 0.96918 0.02806 0.0992 0.0
C1774 C 0.26694 0.68231 0.4727 0.0
C1775 C 0.27249 0.68827 0.49153 0.0
C1776 C 0.26775 0.69538 0.46043 0.0
C1777 C 0.26675 0.7436 0.45759 0.0
H1778 H 0.28798 0.73675 0.41222 0.0
C1779 C 0.28665 0.78216 0.38997 0.0
C1780 C 0.26916 0.78477 0.38366 0.0
C1781 C 0.28855 0.77302 0.40521 0.0
C1782 C 0.28221 0.73896 0.42494 0.0
H1783 H 0.28324 0.71265 0.5122 0.0
H1784 H 0.28452 0.73536 0.4907 0.0
H1785 H 0.28837 0.71477 0.43432 0.0
H1786 H 0.24033 0.78112 0.38906 0.0
H1787 H 0.2437 0.76517 0.41589 0.0
H1788 H 0.26034 0.76767 0.448 0.0
C1789 C 0.27954 0.72059 0.48553 0.0
C1790 C 0.28225 0.72628 0.43745 0.0
C1791 C 0.27891 0.70756 0.49778 0.0
C1792 C 0.25397 0.77935 0.39369 0.0
C1793 C 0.2559 0.77022 0.40901 0.0
C1794 C 0.26655 0.75621 0.44496 0.0
C1795 C 0.27394 0.71461 0.46677 0.0
C1796 C 0.27441 0.72842 0.45382 0.0
C1797 C 0.27303 0.7664 0.41446 0.0
C1798 C 0.27422 0.75394 0.4285 0.0
H1799 H 0.26191 0.66757 0.46745 0.0
H1800 H 0.26321 0.69044 0.446 0.0
H1801 H 0.26053 0.74545 0.4701 0.0
H1802 H 0.29868 0.78656 0.38268 0.0
H1803 H 0.302 0.77054 0.40937 0.0
C1804 C 0.64056 1.0036 0.69056 0.0
C1805 C 0.6338 1.00113 0.70747 0.0
C1806 C 0.62854 0.99704 0.67424 0.0
C1807 C 0.57924 0.99119 0.6593 0.0
H1808 H 0.59477 0.98121 0.6115 0.0
C1809 C 0.53876 1.00325 0.59314 0.0
C1810 C 0.55053 0.01459 0.5826 0.0
C1811 C 0.54643 0.99511 0.6071 0.0
C1812 C 0.59016 0.98384 0.62476 0.0
H1813 H 0.60977 0.98794 0.72053 0.0
H1814 H 0.58879 0.97633 0.69196 0.0
H1815 H 0.61329 0.97657 0.63882 0.0
H1816 H 0.57952 0.02572 0.57801 0.0
H1817 H 0.59279 0.01176 0.60233 0.0
H1818 H 0.55671 0.9994 0.64536 0.0
C1819 C 0.60328 0.98368 0.69134 0.0
C1820 C 0.60074 0.98117 0.64038 0.0
C1821 C 0.61533 0.99027 0.70769 0.0
C1822 C 0.57004 0.01725 0.586 0.0
C1823 C 0.57766 0.009 0.59977 0.0
C1824 C 0.56864 0.9938 0.64368 0.0
C1825 C 0.60951 0.98784 0.67451 0.0
C1826 C 0.59589 0.98568 0.65788 0.0
C1827 C 0.56597 0.99797 0.61057 0.0
C1828 C 0.57451 0.991 0.62636 0.0
H1829 H 0.65477 0.01179 0.68994 0.0
H1830 H 0.63382 1.00059 0.66155 0.0
H1831 H 0.57517 0.99497 0.67256 0.0
H1832 H 0.52366 1.00083 0.59075 0.0
H1833 H 0.5371 0.98665 0.61522 0.0
C1834 C 0.28255 0.34634 0.97759 0.0
C1835 C 0.27988 0.36441 0.97898 0.0
C1836 C 0.2822 0.33624 0.96031 0.0
C1837 C 0.29326 0.32486 0.92216 0.0
H1838 H 0.25648 0.327 0.88219 0.0
C1839 C 0.30058 0.30594 0.84499 0.0
C1840 C 0.28405 0.29708 0.83309 0.0
C1841 C 0.29975 0.31211 0.86345 0.0
C1842 C 0.26676 0.32604 0.89318 0.0
H1843 H 0.2741 0.38571 0.96322 0.0
H1844 H 0.27332 0.36821 0.93348 0.0
H1845 H 0.2546 0.34068 0.91305 0.0
H1846 H 0.2537 0.28711 0.83162 0.0
H1847 H 0.25233 0.29759 0.86352 0.0
H1848 H 0.30545 0.31023 0.90213 0.0
C1849 C 0.2757 0.36174 0.9456 0.0
C1850 C 0.26578 0.33407 0.9109 0.0
C1851 C 0.27624 0.37184 0.96273 0.0
C1852 C 0.26676 0.29403 0.84025 0.0
C1853 C 0.26594 0.30015 0.85861 0.0
C1854 C 0.2943 0.31686 0.90434 0.0
C1855 C 0.27888 0.3439 0.9441 0.0
C1856 C 0.27912 0.3338 0.9256 0.0
C1857 C 0.28236 0.30957 0.87041 0.0
C1858 C 0.28113 0.31747 0.88958 0.0
H1859 H 0.28552 0.34026 0.98981 0.0
H1860 H 0.28458 0.32247 0.95963 0.0
H1861 H 0.30385 0.32452 0.93313 0.0
H1862 H 0.31413 0.30854 0.83996 0.0
H1863 H 0.31269 0.31942 0.87208 0.0
C1864 C 0.97392 0.02812 0.32747 0.0
C1865 C 0.95694 0.03333 0.32658 0.0
C1866 C 0.98339 0.02685 0.34452 0.0
C1867 C 0.97258 0.01935 0.39145 0.0
H1868 H 0.02619 0.03719 0.40678 0.0
C1869 C 1.00234 0.0318 0.46706 0.0
C1870 C 0.01834 0.02597 0.47265 0.0
C1871 C 0.99634 0.03133 0.44853 0.0
C1872 C 0.01122 0.03189 0.40258 0.0
H1873 H 0.93746 0.04265 0.34298 0.0
H1874 H 0.95392 0.04077 0.37229 0.0
H1875 H 0.01346 0.03973 0.37551 0.0
H1876 H 0.04073 0.01526 0.46287 0.0
H1877 H 0.03016 0.01453 0.43017 0.0
H1878 H 0.97013 0.01182 0.41838 0.0
C1879 C 0.95972 0.03709 0.35995 0.0
C1880 C 1.00393 0.03337 0.38469 0.0
C1881 C 0.95032 0.03829 0.34309 0.0
C1882 C 0.02828 0.01973 0.45906 0.0
C1883 C 0.02231 0.01943 0.44035 0.0
C1884 C 0.9798 0.01791 0.40919 0.0
C1885 C 0.97602 0.03077 0.36094 0.0
C1886 C 0.98443 0.02758 0.3791 0.0
C1887 C 0.00615 0.02511 0.43489 0.0
C1888 C 0.99914 0.0246 0.41519 0.0
H1889 H 0.97936 0.02413 0.31501 0.0
H1890 H 0.99597 0.022 0.34481 0.0
H1891 H 0.95755 0.01424 0.38749 0.0
H1892 H 0.9943 0.03677 0.47702 0.0
H1893 H 0.98402 0.03609 0.44488 0.0
C1894 C 0.30544 0.67496 0.60565 0.0
C1895 C 0.30653 0.68627 0.59159 0.0
C1896 C 0.31061 0.68307 0.62392 0.0
C1897 C 0.33029 0.72925 0.65402 0.0
H1898 H 0.293 0.7067 0.68416 0.0
C1899 C 0.30414 0.76883 0.7134 0.0
C1900 C 0.30223 0.76048 0.72951 0.0
C1901 C 0.30934 0.75964 0.69807 0.0
C1902 C 0.30369 0.71302 0.67601 0.0
H1903 H 0.31523 0.71475 0.58541 0.0
H1904 H 0.32333 0.72891 0.61705 0.0
H1905 H 0.2946 0.69007 0.65464 0.0
H1906 H 0.30484 0.73622 0.74239 0.0
H1907 H 0.31346 0.72015 0.71553 0.0
H1908 H 0.3383 0.75286 0.67515 0.0
C1909 C 0.31898 0.7138 0.61421 0.0
C1910 C 0.30476 0.70343 0.65911 0.0
C1911 C 0.31417 0.70566 0.59598 0.0
C1912 C 0.30611 0.74304 0.73017 0.0
C1913 C 0.31106 0.7338 0.71483 0.0
C1914 C 0.32896 0.73901 0.67083 0.0
C1915 C 0.31657 0.70266 0.62847 0.0
C1916 C 0.31778 0.71158 0.64767 0.0
C1917 C 0.31246 0.7419 0.69859 0.0
C1918 C 0.31541 0.73108 0.68177 0.0
H1919 H 0.29985 0.65992 0.6026 0.0
H1920 H 0.30911 0.67401 0.63451 0.0
H1921 H 0.34076 0.73581 0.64578 0.0
H1922 H 0.30136 0.7823 0.71253 0.0
H1923 H 0.31019 0.76606 0.6856 0.0
C1924 C 0.63138 0.0425 0.80477 0.0
C1925 C 0.65068 0.05139 0.80607 0.0
C1926 C 0.62128 0.04533 0.81929 0.0
C1927 C 0.62609 0.06018 0.86871 0.0
H1928 H 0.5782 0.07103 0.85727 0.0
C1929 C 0.58406 0.07999 0.92543 0.0
C1930 C 0.56475 0.07102 0.92286 0.0
C1931 C 0.5948 0.07919 0.91101 0.0
C1932 C 0.59147 0.06787 0.86067 0.0
H1933 H 0.67461 0.06978 0.82395 0.0
H1934 H 0.65691 0.0746 0.84933 0.0
H1935 H 0.59661 0.0655 0.83265 0.0
H1936 H 0.54141 0.05456 0.90316 0.0
H1937 H 0.56015 0.05303 0.87799 0.0
H1938 H 0.62085 0.06222 0.89667 0.0
C1939 C 0.64966 0.06545 0.83704 0.0
C1940 C 0.60199 0.06469 0.84658 0.0
C1941 C 0.65976 0.0627 0.82247 0.0
C1942 C 0.55623 0.0618 0.90545 0.0
C1943 C 0.56698 0.06093 0.89105 0.0
C1944 C 0.61553 0.06327 0.88279 0.0
C1945 C 0.63027 0.05702 0.83546 0.0
C1946 C 0.61933 0.0607 0.85046 0.0
C1947 C 0.58643 0.06934 0.89376 0.0
C1948 C 0.59805 0.06704 0.87891 0.0
H1949 H 0.62392 0.03365 0.79238 0.0
H1950 H 0.60639 0.03842 0.81785 0.0
H1951 H 0.63934 0.05695 0.87204 0.0
H1952 H 0.59092 0.0874 0.93868 0.0
H1953 H 0.6097 0.08612 0.91342 0.0
C1954 C 0.27645 0.3753 0.10078 0.0
C1955 C 0.27161 0.36285 0.08434 0.0
C1956 C 0.27475 0.3687 0.11775 0.0
C1957 C 0.27332 0.32616 0.13971 0.0
H1958 H 0.25674 0.35293 0.17995 0.0
C1959 C 0.2632 0.29598 0.20776 0.0
C1960 C 0.26898 0.30828 0.22426 0.0
C1961 C 0.26231 0.30278 0.19089 0.0
C1962 C 0.2616 0.34538 0.16894 0.0
H1963 H 0.26075 0.33367 0.07291 0.0
H1964 H 0.25768 0.32213 0.10251 0.0
H1965 H 0.25704 0.36428 0.15016 0.0
H1966 H 0.27798 0.33754 0.23584 0.0
H1967 H 0.27669 0.34946 0.20631 0.0
H1968 H 0.27816 0.30744 0.15843 0.0
C1969 C 0.26299 0.33703 0.10229 0.0
C1970 C 0.26174 0.35188 0.15181 0.0
C1971 C 0.26462 0.34365 0.08529 0.0
C1972 C 0.27342 0.32765 0.22343 0.0
C1973 C 0.27261 0.33448 0.20646 0.0
C1974 C 0.27324 0.31972 0.15681 0.0
C1975 C 0.26824 0.34945 0.11877 0.0
C1976 C 0.26759 0.34234 0.13695 0.0
C1977 C 0.26729 0.32212 0.18992 0.0
C1978 C 0.26735 0.32919 0.1717 0.0
H1979 H 0.28191 0.39019 0.10059 0.0
H1980 H 0.2791 0.37868 0.13011 0.0
H1981 H 0.27828 0.31866 0.12874 0.0
H1982 H 0.25948 0.28098 0.20781 0.0
H1983 H 0.25772 0.2928 0.17855 0.0
C1984 C 0.21333 0.94365 0.00623 0.0
C1985 C 0.22364 0.93262 0.0144 0.0
C1986 C 0.20073 0.95065 0.01581 0.0
C1987 C 0.19463 0.96893 0.06018 0.0
H1988 H 0.143 0.96278 0.03983 0.0
C1989 C 0.15214 0.02321 0.06942 0.0
C1990 C 0.13277 0.01657 0.07013 0.0
C1991 C 0.16328 0.0107 0.06815 0.0
C1992 C 0.15728 0.96438 0.0459 0.0
H1993 H 0.22884 0.92009 0.03887 0.0
H1994 H 0.20711 0.93297 0.05587 0.0
H1995 H 0.16153 0.94396 0.02529 0.0
H1996 H 0.11029 0.99212 0.07241 0.0
H1997 H 0.12971 0.97026 0.06984 0.0
H1998 H 0.19074 0.99031 0.08007 0.0
C1999 C 0.2086 0.93582 0.04195 0.0
C2000 C 0.16785 0.9537 0.03751 0.0
C2001 C 0.22089 0.92841 0.0322 0.0
C2002 C 0.12512 0.99754 0.07145 0.0
C2003 C 0.1362 0.98505 0.07005 0.0
C2004 C 0.18413 0.9799 0.06841 0.0
C2005 C 0.19858 0.9471 0.03384 0.0
C2006 C 0.18669 0.95619 0.04436 0.0
C2007 C 0.15516 0.99141 0.06752 0.0
C2008 C 0.16548 0.97795 0.06109 0.0
H2009 H 0.21523 0.9471 0.99255 0.0
H2010 H 0.19319 0.95945 0.00938 0.0
H2011 H 0.20923 0.97112 0.06556 0.0
H2012 H 0.1584 0.03779 0.06835 0.0
H2013 H 0.17787 0.01593 0.06613 0.0
C2014 C 0.71508 0.66656 1.00193 0.0
C2015 C 0.731 0.66303 0.01101 0.0
C2016 C 0.69723 0.65457 1.00232 0.0
C2017 C 0.67405 0.60675 0.01156 0.0
H2018 H 0.63118 0.62657 0.01736 0.0
C2019 C 0.60399 0.56111 0.02827 0.0
C2020 C 0.58721 0.56427 0.02064 0.0
C2021 C 0.62134 0.57307 0.02625 0.0
C2022 C 0.64293 0.62074 0.01542 0.0
H2023 H 0.74086 0.64545 0.02888 0.0
H2024 H 0.70986 0.62465 0.02975 0.0
H2025 H 0.66166 0.64783 0.01533 0.0
H2026 H 0.57549 0.58221 0.00449 0.0
H2027 H 0.60571 0.60272 1.00056 0.0
H2028 H 0.65541 0.57969 0.01151 0.0
C2029 C 0.71105 0.63611 0.02171 0.0
C2030 C 0.66042 0.63296 0.01428 0.0
C2031 C 0.72879 0.64801 0.02123 0.0
C2032 C 0.58816 0.57944 0.01065 0.0
C2033 C 0.6055 0.5913 0.0085 0.0
C2034 C 0.65656 0.59453 0.01251 0.0
C2035 C 0.69505 0.6391 0.0121 0.0
C2036 C 0.67623 0.62612 0.01248 0.0
C2037 C 0.62232 0.58838 0.01641 0.0
C2038 C 0.64079 0.60137 0.01464 0.0
H2039 H 0.71649 0.67832 0.99424 0.0
H2040 H 0.6852 0.65724 0.99474 0.0
H2041 H 0.68586 0.60096 0.01008 0.0
H2042 H 0.60374 0.54963 0.03614 0.0
H2043 H 0.63396 0.57054 0.03278 0.0
C2044 C 0.65036 0.47881 0.27429 0.0
C2045 C 0.65458 0.48966 0.29166 0.0
C2046 C 0.65871 0.46414 0.27039 0.0
C2047 C 0.70226 0.45247 0.28498 0.0
H2048 H 0.67905 0.40276 0.2591 0.0
C2049 C 0.74358 0.39718 0.27994 0.0
C2050 C 0.74088 0.385 0.26351 0.0
C2051 C 0.73181 0.40887 0.28285 0.0
C2052 C 0.68579 0.41667 0.26614 0.0
H2053 H 0.6694 0.49256 0.31896 0.0
H2054 H 0.68365 0.46709 0.31222 0.0
H2055 H 0.65978 0.4245 0.26495 0.0
H2056 H 0.72363 0.37548 0.23725 0.0
H2057 H 0.7033 0.39622 0.24215 0.0
H2058 H 0.72824 0.44508 0.28596 0.0
C2059 C 0.67433 0.47011 0.30149 0.0
C2060 C 0.67472 0.42908 0.26952 0.0
C2061 C 0.66607 0.48465 0.30536 0.0
C2062 C 0.72599 0.38464 0.25011 0.0
C2063 C 0.71429 0.39648 0.25295 0.0
C2064 C 0.71329 0.44021 0.28149 0.0
C2065 C 0.67137 0.46018 0.28379 0.0
C2066 C 0.68283 0.44701 0.27925 0.0
C2067 C 0.71714 0.40886 0.26933 0.0
C2068 C 0.70521 0.42203 0.27228 0.0
H2069 H 0.64163 0.4824 0.26344 0.0
H2070 H 0.65614 0.45667 0.25663 0.0
H2071 H 0.709 0.46635 0.29213 0.0
H2072 H 0.75468 0.39751 0.29068 0.0
H2073 H 0.73418 0.41784 0.29583 0.0
C2074 C 0.82456 0.40995 0.48795 0.0
C2075 C 0.81273 0.41789 0.49795 0.0
C2076 C 0.844 0.41794 0.49092 0.0
C2077 C 0.88154 0.44753 0.49174 0.0
H2078 H 0.90758 0.46369 0.54104 0.0
C2079 C 0.95281 0.50322 0.50831 0.0
C2080 C 0.96648 0.49921 0.52052 0.0
C2081 C 0.93443 0.49177 0.50547 0.0
C2082 C 0.90053 0.45913 0.5272 0.0
H2083 H 0.81155 0.43908 0.51985 0.0
H2084 H 0.84539 0.453 0.52512 0.0
H2085 H 0.87485 0.44519 0.53653 0.0
H2086 H 0.97153 0.48026 0.53956 0.0
H2087 H 0.93936 0.46044 0.53471 0.0
H2088 H 0.90715 0.46182 0.48244 0.0
C2089 C 0.83983 0.44086 0.51484 0.0
C2090 C 0.88181 0.44864 0.52463 0.0
C2091 C 0.8205 0.43306 0.5117 0.0
C2092 C 0.96133 0.4837 0.53002 0.0
C2093 C 0.94292 0.47238 0.52731 0.0
C2094 C 0.90023 0.45821 0.49432 0.0
C2095 C 0.85175 0.43357 0.5043 0.0
C2096 C 0.87208 0.44295 0.50689 0.0
C2097 C 0.92934 0.47624 0.51492 0.0
C2098 C 0.90982 0.46426 0.51209 0.0
H2099 H 0.81874 0.39799 0.47752 0.0
H2100 H 0.85294 0.41199 0.48273 0.0
H2101 H 0.87431 0.44341 0.47793 0.0
H2102 H 0.95636 0.51503 0.50075 0.0
H2103 H 0.92414 0.49518 0.49602 0.0
C2104 C 0.35465 0.08375 0.31251 0.0
C2105 C 0.37026 0.08313 0.30332 0.0
C2106 C 0.34297 0.09476 0.30736 0.0
C2107 C 0.32727 0.11382 0.26734 0.0
H2108 H 0.30601 0.14239 0.30231 0.0
C2109 C 0.28341 0.16399 0.24748 0.0
C2110 C 0.26882 0.16562 0.25782 0.0
C2111 C 0.29485 0.15254 0.25204 0.0
C2112 C 0.31159 0.13422 0.29239 0.0
H2113 H 0.38643 0.09431 0.28211 0.0
H2114 H 0.36597 0.11368 0.27317 0.0
H2115 H 0.32948 0.12711 0.31325 0.0
H2116 H 0.25377 0.15548 0.28003 0.0
H2117 H 0.27362 0.13517 0.28785 0.0
H2118 H 0.3093 0.12085 0.24647 0.0
C2119 C 0.36273 0.10544 0.28423 0.0
C2120 C 0.32512 0.1256 0.29865 0.0
C2121 C 0.37451 0.09449 0.28947 0.0
C2122 C 0.26507 0.15461 0.27199 0.0
C2123 C 0.27648 0.14311 0.27652 0.0
C2124 C 0.31368 0.1224 0.26106 0.0
C2125 C 0.34663 0.10533 0.29287 0.0
C2126 C 0.33306 0.1153 0.28619 0.0
C2127 C 0.29188 0.14248 0.26699 0.0
C2128 C 0.30568 0.13265 0.27354 0.0
H2129 H 0.35104 0.07523 0.32331 0.0
H2130 H 0.33061 0.09435 0.3142 0.0
H2131 H 0.33294 0.10568 0.25746 0.0
H2132 H 0.28677 0.17251 0.23664 0.0
H2133 H 0.30669 0.15246 0.24453 0.0
C2134 C 0.33659 0.17111 0.53092 0.0
C2135 C 0.3263 0.16676 0.51333 0.0
C2136 C 0.35116 0.1628 0.53531 0.0
C2137 C 0.36275 0.11908 0.5218 0.0
H2138 H 0.41239 0.14199 0.54805 0.0
C2139 C 0.41705 0.07683 0.52824 0.0
C2140 C 0.4291 0.07971 0.5447 0.0
C2141 C 0.40568 0.08877 0.52505 0.0
C2142 C 0.39848 0.13533 0.54092 0.0
H2143 H 0.32441 0.15175 0.48615 0.0
H2144 H 0.34967 0.13752 0.49375 0.0
H2145 H 0.39108 0.16145 0.54148 0.0
H2146 H 0.43881 0.09755 0.57067 0.0
H2147 H 0.41856 0.11821 0.56532 0.0
H2148 H 0.36965 0.093 0.52147 0.0
C2149 C 0.34629 0.14696 0.50426 0.0
C2150 C 0.38633 0.14651 0.53712 0.0
C2151 C 0.33186 0.15521 0.4999 0.0
C2152 C 0.4297 0.09502 0.55782 0.0
C2153 C 0.41815 0.10689 0.5547 0.0
C2154 C 0.37473 0.10794 0.52573 0.0
C2155 C 0.35558 0.15003 0.52218 0.0
C2156 C 0.36846 0.1385 0.52723 0.0
C2157 C 0.40584 0.10382 0.53832 0.0
C2158 C 0.3929 0.11589 0.53506 0.0
H2159 H 0.33257 0.17987 0.54159 0.0
H2160 H 0.35814 0.16545 0.54923 0.0
H2161 H 0.34889 0.11243 0.51452 0.0
H2162 H 0.41656 0.06542 0.51769 0.0
H2163 H 0.39681 0.08621 0.51205 0.0
C2164 C 0.66997 0.5871 0.28345 0.0
C2165 C 0.65548 0.58492 0.29458 0.0
C2166 C 0.68157 0.60479 0.28252 0.0
C2167 C 0.6958 0.6445 0.27448 0.0
H2168 H 0.71751 0.67894 0.31876 0.0
C2169 C 0.73369 0.72125 0.27243 0.0
C2170 C 0.75101 0.72882 0.28349 0.0
C2171 C 0.72235 0.70374 0.2744 0.0
C2172 C 0.71163 0.66939 0.30632 0.0
H2173 H 0.64084 0.59931 0.31262 0.0
H2174 H 0.66148 0.63061 0.31124 0.0
H2175 H 0.69639 0.64822 0.32089 0.0
H2176 H 0.76989 0.72396 0.3055 0.0
H2177 H 0.74987 0.69312 0.30898 0.0
H2178 H 0.71094 0.66548 0.25987 0.0
C2179 C 0.66402 0.61854 0.30349 0.0
C2180 C 0.69941 0.65195 0.30752 0.0
C2181 C 0.6522 0.60075 0.30423 0.0
C2182 C 0.75668 0.71847 0.29671 0.0
C2183 C 0.74518 0.70091 0.29879 0.0
C2184 C 0.70783 0.66192 0.27327 0.0
C2185 C 0.67885 0.62067 0.29265 0.0
C2186 C 0.6914 0.63936 0.29159 0.0
C2187 C 0.72796 0.69335 0.28754 0.0
C2188 C 0.71582 0.67458 0.28915 0.0
H2189 H 0.67243 0.57505 0.27556 0.0
H2190 H 0.69291 0.60599 0.27412 0.0
H2191 H 0.68977 0.6351 0.26197 0.0
H2192 H 0.72882 0.72882 0.26213 0.0
H2193 H 0.70906 0.69838 0.2657 0.0
C2194 C 0.89877 0.48738 0.81781 0.0
C2195 C 0.89072 0.49829 0.80695 0.0
C2196 C 0.89089 0.46803 0.81592 0.0
C2197 C 0.86099 0.43008 0.81528 0.0
H2198 H 0.85109 0.40253 0.76626 0.0
C2199 C 0.80785 0.35757 0.79468 0.0
C2200 C 0.81371 0.34423 0.78352 0.0
C2201 C 0.81906 0.37595 0.79876 0.0
C2202 C 0.85393 0.41 0.78004 0.0
H2203 H 0.86925 0.49793 0.78488 0.0
H2204 H 0.85564 0.46418 0.78139 0.0
H2205 H 0.86798 0.43565 0.77104 0.0
H2206 H 0.83591 0.33963 0.76796 0.0
H2207 H 0.85531 0.37181 0.7749 0.0
H2208 H 0.84641 0.40447 0.82417 0.0
C2209 C 0.86771 0.47046 0.79158 0.0
C2210 C 0.86348 0.42891 0.78275 0.0
C2211 C 0.87535 0.48971 0.79367 0.0
C2212 C 0.831 0.34959 0.77659 0.0
C2213 C 0.8421 0.36799 0.78052 0.0
C2214 C 0.85119 0.41115 0.81253 0.0
C2215 C 0.87535 0.45948 0.80271 0.0
C2216 C 0.86688 0.43913 0.80033 0.0
C2217 C 0.8362 0.38133 0.79158 0.0
C2218 C 0.84744 0.40103 0.79485 0.0
H2219 H 0.91088 0.49383 0.82789 0.0
H2220 H 0.89704 0.45973 0.82456 0.0
H2221 H 0.8634 0.43777 0.82894 0.0
H2222 H 0.79463 0.35382 0.80029 0.0
H2223 H 0.81412 0.38606 0.80716 0.0
C2224 C 0.06098 0.86193 0.09752 0.0
C2225 C 0.04892 0.845 0.08833 0.0
C2226 C 0.06025 0.87926 0.09185 0.0
C2227 C 0.04219 0.90004 0.05188 0.0
H2228 H 0.04871 0.94368 0.08772 0.0
C2229 C 0.02404 0.9678 0.0324 0.0
C2230 C 0.03544 0.98525 0.04107 0.0
C2231 C 0.02639 0.95098 0.03801 0.0
C2232 C 0.04705 0.93173 0.07744 0.0
H2233 H 0.0266 0.83346 0.06578 0.0
H2234 H 0.0252 0.86318 0.05627 0.0
H2235 H 0.05187 0.91441 0.0978 0.0
H2236 H 0.05861 0.99836 0.0624 0.0
H2237 H 0.06276 0.96929 0.07199 0.0
H2238 H 0.03722 0.91729 0.03154 0.0
C2239 C 0.0355 0.86324 0.06767 0.0
C2240 C 0.0489 0.91484 0.08326 0.0
C2241 C 0.03622 0.84603 0.07329 0.0
C2242 C 0.0494 0.9853 0.05541 0.0
C2243 C 0.05173 0.96852 0.06103 0.0
C2244 C 0.04029 0.91689 0.04607 0.0
C2245 C 0.04748 0.88021 0.07679 0.0
C2246 C 0.04636 0.89862 0.0706 0.0
C2247 C 0.04022 0.95104 0.0525 0.0
C2248 C 0.04257 0.93303 0.05874 0.0
H2249 H 0.07096 0.86183 0.10913 0.0
H2250 H 0.06988 0.89191 0.09919 0.0
H2251 H 0.04051 0.88812 0.04156 0.0
H2252 H 0.01311 0.96709 0.02136 0.0
H2253 H 0.01708 0.93791 0.03117 0.0
C2254 C 0.94469 0.25227 0.88599 0.0
C2255 C 0.94973 0.2631 0.90329 0.0
C2256 C 0.92771 0.25143 0.87543 0.0
C2257 C 0.89225 0.27895 0.87117 0.0
H2258 H 0.86596 0.23739 0.83422 0.0
C2259 C 0.83435 0.2636 0.80204 0.0
C2260 C 0.82179 0.27338 0.80844 0.0
C2261 C 0.84886 0.26078 0.81411 0.0
C2262 C 0.87323 0.2492 0.84436 0.0
H2263 H 0.94007 0.27965 0.92413 0.0
H2264 H 0.91034 0.27815 0.90593 0.0
H2265 H 0.89236 0.23453 0.85491 0.0
H2266 H 0.81443 0.28732 0.83284 0.0
H2267 H 0.83947 0.28232 0.85372 0.0
H2268 H 0.87318 0.29363 0.86059 0.0
C2269 C 0.91976 0.27091 0.90003 0.0
C2270 C 0.88845 0.24758 0.85628 0.0
C2271 C 0.93675 0.27168 0.91057 0.0
C2272 C 0.82387 0.27985 0.8273 0.0
C2273 C 0.83836 0.27708 0.83932 0.0
C2274 C 0.87704 0.28054 0.85931 0.0
C2275 C 0.91524 0.26129 0.88202 0.0
C2276 C 0.89829 0.26247 0.86984 0.0
C2277 C 0.85123 0.26771 0.8329 0.0
C2278 C 0.86732 0.26573 0.84568 0.0
H2279 H 0.9542 0.24496 0.88035 0.0
H2280 H 0.92491 0.24384 0.86172 0.0
H2281 H 0.89955 0.29093 0.88109 0.0
H2282 H 0.83324 0.25842 0.78762 0.0
H2283 H 0.85855 0.25362 0.8086 0.0
C2284 C 0.54233 0.23668 0.61066 0.0
C2285 C 0.55179 0.2506 0.60092 0.0
C2286 C 0.54041 0.21769 0.60484 0.0
C2287 C 0.54531 0.18429 0.565 0.0
H2288 H 0.5464 0.15143 0.60209 0.0
C2289 C 0.55126 0.10796 0.54803 0.0
C2290 C 0.54022 0.09397 0.55677 0.0
C2291 C 0.55254 0.12697 0.55319 0.0
C2292 C 0.54587 0.16032 0.5915 0.0
H2293 H 0.56789 0.2556 0.57819 0.0
H2294 H 0.56481 0.22251 0.56804 0.0
H2295 H 0.54885 0.18435 0.61125 0.0
H2296 H 0.52187 0.08934 0.57797 0.0
H2297 H 0.52423 0.12236 0.58704 0.0
H2298 H 0.54265 0.16017 0.54529 0.0
C2299 C 0.55813 0.22611 0.57978 0.0
C2300 C 0.54723 0.17931 0.59676 0.0
C2301 C 0.55989 0.24513 0.58555 0.0
C2302 C 0.53062 0.09962 0.57095 0.0
C2303 C 0.53202 0.11865 0.57621 0.0
C2304 C 0.54409 0.16529 0.55974 0.0
C2305 C 0.54839 0.21203 0.58937 0.0
C2306 C 0.54693 0.19165 0.58362 0.0
C2307 C 0.54294 0.13264 0.56736 0.0
C2308 C 0.54431 0.15298 0.57292 0.0
H2309 H 0.53628 0.24051 0.62279 0.0
H2310 H 0.53258 0.20744 0.61251 0.0
H2311 H 0.54471 0.19313 0.55438 0.0
H2312 H 0.55882 0.10424 0.537 0.0
H2313 H 0.56125 0.13728 0.54617 0.0
C2314 C 0.55638 0.76552 0.4049 0.0
C2315 C 0.54853 0.78076 0.40434 0.0
C2316 C 0.57312 0.76571 0.39728 0.0
C2317 C 0.61425 0.79741 0.381 0.0
H2318 H 0.61372 0.75418 0.34672 0.0
C2319 C 0.66409 0.80247 0.32524 0.0
C2320 C 0.67158 0.78736 0.32033 0.0
C2321 C 0.65039 0.80096 0.33722 0.0
C2322 C 0.61429 0.76629 0.35644 0.0
H2323 H 0.55253 0.80843 0.39625 0.0
H2324 H 0.5816 0.80894 0.38345 0.0
H2325 H 0.58826 0.75281 0.36567 0.0
H2326 H 0.67022 0.75868 0.32432 0.0
H2327 H 0.64657 0.75617 0.34546 0.0
H2328 H 0.64007 0.81101 0.37168 0.0
C2329 C 0.575 0.79681 0.38964 0.0
C2330 C 0.59967 0.76548 0.36736 0.0
C2331 C 0.55825 0.7965 0.39695 0.0
C2332 C 0.66495 0.77069 0.32787 0.0
C2333 C 0.65121 0.76917 0.33987 0.0
C2334 C 0.62886 0.7982 0.37016 0.0
C2335 C 0.58247 0.78127 0.38927 0.0
C2336 C 0.59924 0.78117 0.3795 0.0
C2337 C 0.64374 0.78431 0.34475 0.0
C2338 C 0.62891 0.78281 0.35741 0.0
H2339 H 0.54908 0.75311 0.41029 0.0
H2340 H 0.57856 0.75356 0.39734 0.0
H2341 H 0.61457 0.80966 0.39042 0.0
H2342 H 0.66896 0.81562 0.31996 0.0
H2343 H 0.64484 0.81286 0.34039 0.0
C2344 C 0.0476 0.26311 0.41707 0.0
C2345 C 0.04007 0.26047 0.39852 0.0
C2346 C 0.04591 0.24795 0.42701 0.0
C2347 C 0.03625 0.19627 0.42272 0.0
H2348 H 0.02412 0.20383 0.47234 0.0
C2349 C 0.01861 0.13573 0.46743 0.0
C2350 C 0.02527 0.13993 0.48626 0.0
C2351 C 0.02031 0.14996 0.4562 0.0
C2352 C 0.02775 0.20149 0.45861 0.0
H2353 H 0.02523 0.23962 0.37576 0.0
H2354 H 0.02223 0.21303 0.39317 0.0
H2355 H 0.02743 0.22916 0.4537 0.0
H2356 H 0.03951 0.16249 0.50781 0.0
H2357 H 0.04254 0.18715 0.48834 0.0
H2358 H 0.03663 0.16856 0.42773 0.0
C2359 C 0.02955 0.2269 0.4 0.0
C2360 C 0.02963 0.21606 0.44787 0.0
C2361 C 0.03122 0.24215 0.39001 0.0
C2362 C 0.03387 0.15872 0.49348 0.0
C2363 C 0.0356 0.17291 0.48227 0.0
C2364 C 0.0344 0.18165 0.43351 0.0
C2365 C 0.03662 0.22966 0.41873 0.0
C2366 C 0.03407 0.21375 0.42983 0.0
C2367 C 0.02874 0.16878 0.46348 0.0
C2368 C 0.03027 0.18411 0.45168 0.0
H2369 H 0.05461 0.27698 0.42408 0.0
H2370 H 0.05188 0.25062 0.44128 0.0
H2371 H 0.03982 0.19401 0.40896 0.0
H2372 H 0.01172 0.12147 0.46141 0.0
H2373 H 0.01464 0.14622 0.44187 0.0
C2374 C 0.57734 0.27262 0.2143 0.0
C2375 C 0.56848 0.26066 0.1982 0.0
C2376 C 0.59644 0.27473 0.2204 0.0
C2377 C 0.64017 0.26363 0.20478 0.0
H2378 H 0.65849 0.27537 0.25658 0.0
C2379 C 0.71367 0.25799 0.23568 0.0
C2380 C 0.72473 0.27383 0.24743 0.0
C2381 C 0.69467 0.25643 0.22979 0.0
C2382 C 0.65359 0.27212 0.24205 0.0
H2383 H 0.57278 0.24119 0.17618 0.0
H2384 H 0.60529 0.24406 0.18707 0.0
H2385 H 0.62559 0.2727 0.2463 0.0
H2386 H 0.72418 0.30024 0.26248 0.0
H2387 H 0.69106 0.2972 0.25266 0.0
H2388 H 0.66815 0.26241 0.20075 0.0
C2389 C 0.59802 0.25255 0.19475 0.0
C2390 C 0.63467 0.27073 0.23607 0.0
C2391 C 0.57915 0.25076 0.1885 0.0
C2392 C 0.71617 0.28786 0.25338 0.0
C2393 C 0.69712 0.2861 0.24783 0.0
C2394 C 0.65895 0.26464 0.21081 0.0
C2395 C 0.60714 0.26464 0.21076 0.0
C2396 C 0.62755 0.26646 0.21729 0.0
C2397 C 0.68613 0.27044 0.23584 0.0
C2398 C 0.66595 0.26894 0.22951 0.0
H2399 H 0.56957 0.28048 0.22211 0.0
H2400 H 0.60278 0.28443 0.23261 0.0
H2401 H 0.63568 0.26084 0.19018 0.0
H2402 H 0.71977 0.24694 0.23079 0.0
H2403 H 0.68658 0.24414 0.22061 0.0
C2404 C 0.55005 0.8805 0.88319 0.0
C2405 C 0.55243 0.86431 0.8902 0.0
C2406 C 0.55014 0.89653 0.89498 0.0
C2407 C 0.56346 0.91985 0.9432 0.0
H2408 H 0.52424 0.94393 0.93109 0.0
C2409 C 0.54448 0.97374 0.99556 0.0
C2410 C 0.53864 0.98866 0.98904 0.0
C2411 C 0.54761 0.95945 0.98336 0.0
C2412 C 0.53549 0.93762 0.9346 0.0
H2413 H 0.55757 0.85279 0.91533 0.0
H2414 H 0.55779 0.88069 0.93578 0.0
H2415 H 0.52757 0.91789 0.91014 0.0
H2416 H 0.5321 1.00043 0.96445 0.0
H2417 H 0.53788 0.97581 0.94328 0.0
H2418 H 0.57134 0.93957 0.96771 0.0
C2419 C 0.55588 0.881 0.92114 0.0
C2420 C 0.5374 0.92262 0.92253 0.0
C2421 C 0.55569 0.86493 0.90935 0.0
C2422 C 0.53644 0.98911 0.97001 0.0
C2423 C 0.53965 0.97488 0.95782 0.0
C2424 C 0.56161 0.93493 0.95525 0.0
C2425 C 0.55274 0.8969 0.91412 0.0
C2426 C 0.55133 0.91344 0.9267 0.0
C2427 C 0.54506 0.9597 0.96428 0.0
C2428 C 0.54752 0.94398 0.95119 0.0
H2429 H 0.54754 0.88065 0.86855 0.0
H2430 H 0.54798 0.90861 0.88907 0.0
H2431 H 0.57451 0.91329 0.94677 0.0
H2432 H 0.54626 0.97284 0.01011 0.0
H2433 H 0.55154 0.94793 0.9889 0.0
C2434 C 0.97266 0.77561 0.72863 0.0
C2435 C 0.97405 0.76376 0.71294 0.0
C2436 C 0.95519 0.77615 0.73408 0.0
C2437 C 0.90384 0.76438 0.71748 0.0
H2438 H 0.89977 0.77255 0.76941 0.0
C2439 C 0.83246 0.76418 0.74519 0.0
C2440 C 0.83274 0.77737 0.76042 0.0
C2441 C 0.84923 0.76161 0.7393 0.0
C2442 C 0.90062 0.77048 0.75484 0.0
H2443 H 0.95758 0.74305 0.69078 0.0
H2444 H 0.92701 0.74385 0.70041 0.0
H2445 H 0.9292 0.76931 0.75935 0.0
H2446 H 0.85127 0.79815 0.78135 0.0
H2447 H 0.88035 0.79375 0.77112 0.0
H2448 H 0.87516 0.76555 0.71304 0.0
C2449 C 0.9396 0.75293 0.70841 0.0
C2450 C 0.91762 0.7686 0.74902 0.0
C2451 C 0.9572 0.75237 0.70291 0.0
C2452 C 0.85037 0.7878 0.76963 0.0
C2453 C 0.86713 0.78519 0.76378 0.0
C2454 C 0.88678 0.76622 0.72333 0.0
C2455 C 0.93831 0.76483 0.72414 0.0
C2456 C 0.91964 0.76574 0.73023 0.0
C2457 C 0.86689 0.77209 0.74847 0.0
C2458 C 0.88493 0.76949 0.74212 0.0
H2459 H 0.98515 0.78469 0.7368 0.0
H2460 H 0.95498 0.78579 0.74603 0.0
H2461 H 0.90476 0.76241 0.70292 0.0
H2462 H 0.81924 0.75583 0.73769 0.0
H2463 H 0.84833 0.75122 0.72762 0.0
C2464 C 0.09834 0.02986 0.84233 0.0
C2465 C 0.11788 0.03229 0.84352 0.0
C2466 C 0.0891 0.02816 0.85809 0.0
C2467 C 0.09513 0.01763 0.90625 0.0
H2468 H 0.05797 0.04495 0.91407 0.0
C2469 C 0.06978 0.0301 0.97736 0.0
C2470 C 0.05076 0.02965 0.97783 0.0
C2471 C 0.07721 0.02919 0.96061 0.0
C2472 C 0.06814 0.03702 0.91205 0.0
H2473 H 0.14284 0.03446 0.86243 0.0
H2474 H 0.12691 0.03162 0.88948 0.0
H2475 H 0.07163 0.04505 0.88532 0.0
H2476 H 0.02462 0.02751 0.96084 0.0
H2477 H 0.03746 0.02571 0.93185 0.0
H2478 H 0.09178 0.00974 0.93302 0.0
C2479 C 0.1186 0.03083 0.87643 0.0
C2480 C 0.07596 0.03705 0.89549 0.0
C2481 C 0.12779 0.03261 0.86082 0.0
C2482 C 0.03935 0.02799 0.9611 0.0
C2483 C 0.04676 0.02708 0.9444 0.0
C2484 C 0.08731 0.01759 0.92279 0.0
C2485 C 0.09915 0.02868 0.87538 0.0
C2486 C 0.08973 0.02753 0.89243 0.0
C2487 C 0.06583 0.02782 0.94388 0.0
C2488 C 0.07381 0.02742 0.92601 0.0
H2489 H 0.09023 0.02958 0.8293 0.0
H2490 H 0.07407 0.02637 0.85672 0.0
H2491 H 0.10544 0.00986 0.9043 0.0
H2492 H 0.07902 0.03144 0.98995 0.0
H2493 H 0.092 0.02999 0.96082 0.0
C2494 C 0.76187 0.38869 0.5592 0.0
C2495 C 0.75138 0.37985 0.5424 0.0
C2496 C 0.7619 0.37893 0.57428 0.0
C2497 C 0.75509 0.35679 0.6062 0.0
H2498 H 0.76326 0.30774 0.59465 0.0
C2499 C 0.76911 0.31336 0.66277 0.0
C2500 C 0.78451 0.3058 0.66132 0.0
C2501 C 0.76166 0.32042 0.64797 0.0
C2502 C 0.76097 0.3214 0.59808 0.0
H2503 H 0.73164 0.35433 0.52851 0.0
H2504 H 0.73159 0.33734 0.55493 0.0
H2505 H 0.75577 0.32479 0.56991 0.0
H2506 H 0.80373 0.29897 0.64312 0.0
H2507 H 0.79082 0.31154 0.61717 0.0
H2508 H 0.76117 0.35379 0.63435 0.0
C2509 C 0.74003 0.3517 0.55634 0.0
C2510 C 0.75645 0.33107 0.58393 0.0
C2511 C 0.73999 0.36147 0.54126 0.0
C2512 C 0.79181 0.30467 0.64454 0.0
C2513 C 0.78438 0.31182 0.62971 0.0
C2514 C 0.7596 0.34712 0.62035 0.0
C2515 C 0.75143 0.36015 0.57282 0.0
C2516 C 0.75382 0.34902 0.58785 0.0
C2517 C 0.76947 0.32011 0.63142 0.0
C2518 C 0.76293 0.32947 0.61642 0.0
H2519 H 0.77076 0.40286 0.5605 0.0
H2520 H 0.77094 0.38578 0.58675 0.0
H2521 H 0.753 0.37054 0.60963 0.0
H2522 H 0.76299 0.31405 0.67547 0.0
H2523 H 0.74994 0.32639 0.64958 0.0
C2524 C 0.44684 0.06517 0.35849 0.0
C2525 C 0.42755 0.06378 0.35781 0.0
C2526 C 0.45816 0.06866 0.37529 0.0
C2527 C 0.45295 0.06207 0.42325 0.0
H2528 H 0.50674 0.08484 0.43073 0.0
C2529 C 0.4961 0.06417 0.49146 0.0
C2530 C 0.51104 0.05586 0.49027 0.0
C2531 C 0.48762 0.06921 0.47594 0.0
C2532 C 0.49172 0.07848 0.42876 0.0
H2533 H 0.40526 0.06659 0.37393 0.0
H2534 H 0.42517 0.07357 0.40327 0.0
H2535 H 0.48819 0.08762 0.40251 0.0
H2536 H 0.52956 0.0474 0.47208 0.0
H2537 H 0.51452 0.05621 0.44473 0.0
H2538 H 0.45646 0.05296 0.44943 0.0
C2539 C 0.43144 0.07119 0.3909 0.0
C2540 C 0.4811 0.08001 0.41264 0.0
C2541 C 0.42005 0.06731 0.37411 0.0
C2542 C 0.518 0.05365 0.47339 0.0
C2543 C 0.5095 0.05879 0.45779 0.0
C2544 C 0.46348 0.06079 0.43939 0.0
C2545 C 0.45046 0.07114 0.39174 0.0
C2546 C 0.46161 0.07157 0.40959 0.0
C2547 C 0.49392 0.06613 0.4589 0.0
C2548 C 0.48296 0.06877 0.44219 0.0
H2549 H 0.45299 0.06243 0.34611 0.0
H2550 H 0.47266 0.06831 0.37537 0.0
H2551 H 0.43811 0.05494 0.42125 0.0
H2552 H 0.49053 0.06636 0.5043 0.0
H2553 H 0.47577 0.07506 0.47716 0.0
C2554 C 0.78935 0.70595 0.08375 0.0
C2555 C 0.78949 0.71677 0.06929 0.0
C2556 C 0.78957 0.71383 0.10183 0.0
C2557 C 0.77582 0.7507 0.12931 0.0
H2558 H 0.80849 0.74044 0.16859 0.0
C2559 C 0.77639 0.77929 0.20628 0.0
C2560 C 0.77982 0.76783 0.2194 0.0
C2561 C 0.77805 0.77444 0.18771 0.0
C2562 C 0.79903 0.74325 0.15788 0.0
H2563 H 0.79003 0.74444 0.06253 0.0
H2564 H 0.79005 0.75818 0.09424 0.0
H2565 H 0.81095 0.72962 0.13695 0.0
H2566 H 0.78685 0.74184 0.22307 0.0
H2567 H 0.789 0.73311 0.19104 0.0
H2568 H 0.76338 0.76373 0.15024 0.0
C2569 C 0.78993 0.7436 0.0915 0.0
C2570 C 0.80057 0.73713 0.13968 0.0
C2571 C 0.79008 0.73577 0.07339 0.0
C2572 C 0.78434 0.75117 0.21343 0.0
C2573 C 0.78576 0.74623 0.19497 0.0
C2574 C 0.77408 0.75663 0.14759 0.0
C2575 C 0.78959 0.73267 0.10592 0.0
C2576 C 0.78885 0.74056 0.12517 0.0
C2577 C 0.78301 0.75791 0.18181 0.0
C2578 C 0.78547 0.75273 0.16219 0.0
H2579 H 0.78885 0.69126 0.08108 0.0
H2580 H 0.78916 0.70499 0.11258 0.0
H2581 H 0.76648 0.75345 0.11843 0.0
H2582 H 0.77298 0.79228 0.21043 0.0
H2583 H 0.77592 0.78389 0.17809 0.0
C2584 C 0.11589 0.04157 0.7241 0.0
C2585 C 0.10618 0.02993 0.73581 0.0
C2586 C 0.10772 0.04187 0.70635 0.0
C2587 C 0.07472 0.0144 0.66814 0.0
H2588 H 0.07244 0.06205 0.65303 0.0
C2589 C 0.04079 0.01808 0.59539 0.0
C2590 C 0.04792 0.03387 0.58678 0.0
C2591 C 0.04656 0.01778 0.6139 0.0
C2592 C 0.07321 0.04862 0.65679 0.0
H2593 H 0.08032 0.00918 0.73784 0.0
H2594 H 0.06625 0.00916 0.70634 0.0
H2595 H 0.08524 0.06076 0.68428 0.0
H2596 H 0.06673 0.06177 0.59095 0.0
H2597 H 0.07753 0.06104 0.62295 0.0
H2598 H 0.06373 1.00223 0.6406 0.0
C2599 C 0.08014 0.01826 0.71116 0.0
C2600 C 0.08041 0.0479 0.67484 0.0
C2601 C 0.08817 0.01827 0.72916 0.0
C2602 C 0.06082 0.04947 0.59722 0.0
C2603 C 0.06694 0.04903 0.61568 0.0
C2604 C 0.06789 0.01514 0.64997 0.0
C2605 C 0.08976 0.03025 0.69965 0.0
C2606 C 0.08128 0.03079 0.6807 0.0
C2607 C 0.06001 0.0331 0.62434 0.0
C2608 C 0.06702 0.03228 0.64394 0.0
H2609 H 0.12974 0.05082 0.72877 0.0
H2610 H 0.11552 0.05114 0.69776 0.0
H2611 H 0.07542 1.00104 0.67222 0.0
H2612 H 0.03069 0.00586 0.58778 0.0
H2613 H 0.04038 0.00543 0.61997 0.0
C2614 C 0.74468 0.36821 0.43861 0.0
C2615 C 0.74694 0.38759 0.43988 0.0
C2616 C 0.74057 0.35715 0.42159 0.0
C2617 C 0.73009 0.33471 0.38422 0.0
H2618 H 0.76024 0.35917 0.34929 0.0
C2619 C 0.74693 0.29512 0.31826 0.0
C2620 C 0.76559 0.30147 0.31464 0.0
C2621 C 0.74024 0.30499 0.33212 0.0
C2622 C 0.75175 0.35211 0.3589 0.0
H2623 H 0.74485 0.41031 0.42453 0.0
H2624 H 0.73692 0.39086 0.39477 0.0
H2625 H 0.75486 0.37773 0.37602 0.0
H2626 H 0.79216 0.32228 0.32324 0.0
H2627 H 0.78078 0.33899 0.34766 0.0
H2628 H 0.72845 0.30886 0.36763 0.0
C2629 C 0.73905 0.3843 0.40687 0.0
C2630 C 0.74834 0.36282 0.37412 0.0
C2631 C 0.74353 0.39545 0.42392 0.0
C2632 C 0.77764 0.31722 0.32559 0.0
C2633 C 0.77106 0.32691 0.33945 0.0
C2634 C 0.73375 0.32394 0.36906 0.0
C2635 C 0.73833 0.36515 0.40544 0.0
C2636 C 0.73811 0.3542 0.38739 0.0
C2637 C 0.75217 0.32125 0.34255 0.0
C2638 C 0.74532 0.33251 0.35671 0.0
H2639 H 0.74719 0.36169 0.45067 0.0
H2640 H 0.74041 0.34256 0.42113 0.0
H2641 H 0.72172 0.32765 0.39391 0.0
H2642 H 0.73733 0.28307 0.30988 0.0
H2643 H 0.72563 0.30027 0.33425 0.0
C2644 C 0.44829 0.07202 0.25403 0.0
C2645 C 0.42941 0.06218 0.25399 0.0
C2646 C 0.45717 0.07025 0.23834 0.0
C2647 C 0.45438 0.03369 0.20162 0.0
H2648 H 0.49091 0.07033 0.18098 0.0
C2649 C 0.48777 0.01255 0.13909 0.0
C2650 C 0.5068 0.02113 0.13835 0.0
C2651 C 0.47842 0.01903 0.15275 0.0
C2652 C 0.48091 0.05994 0.18678 0.0
H2653 H 0.40444 0.0446 0.23703 0.0
H2654 H 0.41995 0.04157 0.2097 0.0
H2655 H 0.47356 0.08075 0.20479 0.0
H2656 H 0.53105 0.04314 0.15129 0.0
H2657 H 0.51479 0.05418 0.17572 0.0
H2658 H 0.46201 0.01283 0.18435 0.0
C2659 C 0.42794 0.05034 0.22192 0.0
C2660 C 0.47091 0.06593 0.20027 0.0
C2661 C 0.41908 0.05213 0.23754 0.0
C2662 C 0.51637 0.03627 0.15163 0.0
C2663 C 0.50702 0.04266 0.16548 0.0
C2664 C 0.46447 0.02772 0.18838 0.0
C2665 C 0.44726 0.05861 0.22247 0.0
C2666 C 0.45745 0.05282 0.20766 0.0
C2667 C 0.48791 0.03413 0.16613 0.0
C2668 C 0.47775 0.04074 0.18068 0.0
H2669 H 0.45657 0.07997 0.26651 0.0
H2670 H 0.47208 0.07678 0.23909 0.0
H2671 H 0.44445 0.02327 0.20748 0.0
H2672 H 0.47991 1.00119 0.12873 0.0
H2673 H 0.46359 0.0124 0.15257 0.0
C2674 C 0.78546 0.72146 0.96192 0.0
C2675 C 0.7838 0.70217 0.96126 0.0
C2676 C 0.78646 0.72996 0.94578 0.0
C2677 C 0.77455 0.71782 0.89514 0.0
H2678 H 0.80776 0.76672 0.89313 0.0
C2679 C 0.78613 0.74633 0.82609 0.0
C2680 C 0.7871 0.76533 0.8255 0.0
C2681 C 0.78635 0.73913 0.84286 0.0
C2682 C 0.79826 0.75311 0.89347 0.0
H2683 H 0.78262 0.67697 0.94297 0.0
H2684 H 0.78457 0.69168 0.91538 0.0
H2685 H 0.80679 0.75374 0.92214 0.0
H2686 H 0.78935 0.79167 0.84231 0.0
H2687 H 0.78957 0.77913 0.87136 0.0
H2688 H 0.76595 0.71712 0.86658 0.0
C2689 C 0.78466 0.70024 0.92818 0.0
C2690 C 0.79769 0.74569 0.91015 0.0
C2691 C 0.78367 0.6918 0.94416 0.0
C2692 C 0.7886 0.77697 0.84216 0.0
C2693 C 0.78884 0.76978 0.85891 0.0
C2694 C 0.77511 0.72522 0.87852 0.0
C2695 C 0.78578 0.71936 0.92865 0.0
C2696 C 0.78593 0.72785 0.91118 0.0
C2697 C 0.78756 0.75073 0.85952 0.0
C2698 C 0.78705 0.74292 0.87737 0.0
H2699 H 0.78558 0.72991 0.97479 0.0
H2700 H 0.78726 0.74473 0.94668 0.0
H2701 H 0.76501 0.70422 0.89543 0.0
H2702 H 0.785 0.73694 0.81357 0.0
H2703 H 0.78562 0.72444 0.84277 0.0
C2704 C 0.8254 0.13831 0.01804 0.0
C2705 C 0.80707 0.12647 0.01622 0.0
C2706 C 0.83987 0.13181 0.01127 0.0
C2707 C 0.84904 0.09272 0.98099 0.0
H2708 H 0.89585 0.10462 0.0134 0.0
C2709 C 0.90008 0.04621 0.9833 0.0
C2710 C 0.91942 0.05495 0.98699 0.0
C2711 C 0.88717 0.05693 0.98276 0.0
C2712 C 0.88301 0.10144 0.004 0.0
H2713 H 0.78957 0.09856 0.00568 0.0
H2714 H 0.81478 0.08716 0.99441 0.0
H2715 H 0.87175 0.12003 0.02063 0.0
H2716 H 0.94049 0.0817 0.99136 0.0
H2717 H 0.9179 0.10039 0.99065 0.0
H2718 H 0.86009 0.07337 0.9649 0.0
C2719 C 0.81795 0.1016 1.00062 0.0
C2720 C 0.86919 0.1103 0.00813 0.0
C2721 C 0.80349 0.10811 0.00725 0.0
C2722 C 0.92564 0.07458 0.98891 0.0
C2723 C 0.91274 0.08528 0.98845 0.0
C2724 C 0.86283 0.08374 0.97695 0.0
C2725 C 0.83634 0.11331 1.00266 0.0
C2726 C 0.85187 0.10573 0.99692 0.0
C2727 C 0.89339 0.07656 0.98594 0.0
C2728 C 0.87978 0.08774 0.98863 0.0
H2729 H 0.82859 0.15258 0.02474 0.0
H2730 H 0.85384 0.14125 0.01287 0.0
H2731 H 0.836 0.08917 0.97187 0.0
H2732 H 0.89488 0.03113 0.98187 0.0
H2733 H 0.87231 0.04985 0.98094 0.0
C2734 C 0.34758 0.39929 0.03335 0.0
C2735 C 0.3341 0.40667 0.04118 0.0
C2736 C 0.36625 0.40998 0.03514 0.0
C2737 C 0.39979 0.43994 0.02875 0.0
H2738 H 0.42513 0.47507 0.07152 0.0
C2739 C 0.46868 0.50755 0.04779 0.0
C2740 C 0.48174 0.50006 0.03913 0.0
C2741 C 0.45094 0.49605 0.04956 0.0
C2742 C 0.41812 0.46544 0.05943 0.0
H2743 H 0.32964 0.42967 0.05895 0.0
H2744 H 0.36208 0.44868 0.06168 0.0
H2745 H 0.39412 0.45415 0.07271 0.0
H2746 H 0.48658 0.47444 0.02617 0.0
H2747 H 0.45594 0.45465 0.02931 0.0
H2748 H 0.42372 0.45117 0.01547 0.0
C2749 C 0.35842 0.43481 0.05399 0.0
C2750 C 0.40036 0.45344 0.06009 0.0
C2751 C 0.33978 0.42409 0.0522 0.0
C2752 C 0.47684 0.48081 0.0327 0.0
C2753 C 0.45921 0.46941 0.03444 0.0
C2754 C 0.41748 0.45186 0.02811 0.0
C2755 C 0.37178 0.42815 0.04496 0.0
C2756 C 0.39098 0.44051 0.04474 0.0
C2757 C 0.44596 0.4769 0.04266 0.0
C2758 C 0.4269 0.46469 0.04344 0.0
H2759 H 0.34353 0.38558 0.0253 0.0
H2760 H 0.37626 0.40412 0.02851 0.0
H2761 H 0.3929 0.4305 0.01651 0.0
H2762 H 0.47203 0.5223 0.05294 0.0
H2763 H 0.44096 0.50222 0.05591 0.0
C2764 C 0.40478 0.58388 0.79792 0.0
C2765 C 0.41321 0.57834 0.78282 0.0
C2766 C 0.39794 0.59965 0.79848 0.0
C2767 C 0.3786 0.62755 0.76806 0.0
H2768 H 0.37943 0.6585 0.81386 0.0
C2769 C 0.33839 0.68501 0.77423 0.0
C2770 C 0.32826 0.68539 0.78938 0.0
C2771 C 0.351 0.67395 0.77292 0.0
C2772 C 0.37899 0.64994 0.80097 0.0
H2773 H 0.42174 0.58544 0.7567 0.0
H2774 H 0.40965 0.61327 0.75761 0.0
H2775 H 0.39886 0.63664 0.81252 0.0
H2776 H 0.32366 0.67458 0.81511 0.0
H2777 H 0.34552 0.65519 0.81278 0.0
H2778 H 0.3584 0.64062 0.75663 0.0
C2779 C 0.40833 0.60525 0.76902 0.0
C2780 C 0.39018 0.63744 0.80018 0.0
C2781 C 0.41541 0.58945 0.76856 0.0
C2782 C 0.33111 0.6745 0.8032 0.0
C2783 C 0.34381 0.66355 0.80195 0.0
C2784 C 0.36743 0.64013 0.76884 0.0
C2785 C 0.39922 0.61032 0.78388 0.0
C2786 C 0.38975 0.62571 0.78385 0.0
C2787 C 0.35391 0.66312 0.7868 0.0
C2788 C 0.36714 0.65112 0.78543 0.0
H2789 H 0.40292 0.57564 0.80916 0.0
H2790 H 0.39083 0.60293 0.81002 0.0
H2791 H 0.37777 0.61861 0.75532 0.0
H2792 H 0.33639 0.6931 0.76325 0.0
H2793 H 0.35861 0.67401 0.76112 0.0
C2794 C 0.21507 0.66182 0.54168 0.0
C2795 C 0.22826 0.65183 0.5455 0.0
C2796 C 0.19609 0.65387 0.54294 0.0
C2797 C 0.15719 0.6277 0.53236 0.0
H2798 H 0.14089 0.59233 0.56617 0.0
C2799 C 0.08732 0.56986 0.51736 0.0
C2800 C 0.07751 0.56492 0.53221 0.0
C2801 C 0.10514 0.58251 0.52038 0.0
C2802 C 0.1451 0.60232 0.55673 0.0
H2803 H 0.23285 0.62709 0.55582 0.0
H2804 H 0.19987 0.61286 0.55749 0.0
H2805 H 0.17279 0.61225 0.5711 0.0
H2806 H 0.07834 0.56981 0.56178 0.0
H2807 H 0.10905 0.5921 0.56696 0.0
H2808 H 0.12933 0.61791 0.51817 0.0
C2809 C 0.2038 0.62672 0.55345 0.0
C2810 C 0.1635 0.61361 0.55944 0.0
C2811 C 0.22267 0.63467 0.55219 0.0
C2812 C 0.08566 0.57311 0.55005 0.0
C2813 C 0.10332 0.58587 0.55304 0.0
C2814 C 0.13873 0.61648 0.52971 0.0
C2815 C 0.19018 0.63595 0.54829 0.0
C2816 C 0.16993 0.62608 0.54702 0.0
C2817 C 0.11336 0.59059 0.53828 0.0
C2818 C 0.13258 0.60341 0.54167 0.0
H2819 H 0.21932 0.67538 0.53701 0.0
H2820 H 0.18604 0.66157 0.53932 0.0
H2821 H 0.16162 0.63712 0.52249 0.0
H2822 H 0.08137 0.56377 0.50346 0.0
H2823 H 0.11262 0.58565 0.50872 0.0
C2824 C 0.71827 0.01347 0.78341 0.0
C2825 C 0.70017 0.00815 0.77354 0.0
C2826 C 0.72677 1.00003 0.78905 0.0
C2827 C 0.71628 0.95124 0.79842 0.0
H2828 H 0.76931 0.95766 0.79481 0.0
C2829 C 0.75424 0.89341 0.80633 0.0
C2830 C 0.77282 0.89871 0.81509 0.0
C2831 C 0.74467 0.90686 0.80328 0.0
C2832 C 0.75456 0.95583 0.79619 0.0
H2833 H 0.67693 0.98441 0.76166 0.0
H2834 H 0.69199 0.96088 0.77134 0.0
H2835 H 0.75405 0.98058 0.78428 0.0
H2836 H 0.79547 0.92216 0.82858 0.0
H2837 H 0.77872 0.94573 0.82319 0.0
H2838 H 0.71682 0.92627 0.81009 0.0
C2839 C 0.69942 0.97553 0.77492 0.0
C2840 C 0.74581 0.96892 0.7901 0.0
C2841 C 0.69086 0.98901 0.76926 0.0
C2842 C 0.78127 0.91768 0.82156 0.0
C2843 C 0.7717 0.93115 0.81846 0.0
C2844 C 0.72505 0.93809 0.80448 0.0
C2845 C 0.71744 0.98093 0.78493 0.0
C2846 C 0.72658 0.96678 0.79115 0.0
C2847 C 0.7535 0.92591 0.80886 0.0
C2848 C 0.74428 0.94027 0.80342 0.0
H2849 H 0.72589 0.02806 0.78699 0.0
H2850 H 0.74057 0.00466 0.79694 0.0
H2851 H 0.70151 0.94936 0.79964 0.0
H2852 H 0.74741 0.87896 0.80088 0.0
H2853 H 0.73073 0.90241 0.79569 0.0
C2854 C 0.72922 0.90633 0.54273 0.0
C2855 C 0.73836 0.9051 0.52703 0.0
C2856 C 0.71454 0.91507 0.54292 0.0
C2857 C 0.6993 0.95104 0.51976 0.0
H2858 H 0.65455 0.93757 0.54393 0.0
C2859 C 0.64192 0.98945 0.51157 0.0
C2860 C 0.63409 0.99446 0.52729 0.0
C2861 C 0.65346 0.97731 0.51194 0.0
C2862 C 0.66709 0.94158 0.53726 0.0
H2863 H 0.73837 0.91041 0.49882 0.0
H2864 H 0.71251 0.9249 0.49888 0.0
H2865 H 0.67615 0.91756 0.54363 0.0
H2866 H 0.63208 0.99035 0.55571 0.0
H2867 H 0.65232 0.96912 0.55634 0.0
H2868 H 0.6905 0.97501 0.51346 0.0
C2869 C 0.71696 0.91981 0.51126 0.0
C2870 C 0.67943 0.93011 0.53708 0.0
C2871 C 0.73165 0.91134 0.51115 0.0
C2872 C 0.63779 0.98669 0.54332 0.0
C2873 C 0.64936 0.9745 0.54368 0.0
C2874 C 0.68704 0.96241 0.51993 0.0
C2875 C 0.70878 0.92256 0.52736 0.0
C2876 C 0.69557 0.93461 0.52811 0.0
C2877 C 0.6575 0.96984 0.52804 0.0
C2878 C 0.67067 0.95776 0.52849 0.0
H2879 H 0.73426 0.90176 0.5552 0.0
H2880 H 0.70852 0.91695 0.55554 0.0
H2881 H 0.71188 0.95526 0.5132 0.0
H2882 H 0.63902 0.99479 0.49887 0.0
H2883 H 0.65917 0.97371 0.49953 0.0
C2884 C 0.39512 0.47586 0.75537 0.0
C2885 C 0.41233 0.48161 0.76672 0.0
C2886 C 0.38418 0.45737 0.75366 0.0
C2887 C 0.36641 0.41534 0.74708 0.0
H2888 H 0.36176 0.39458 0.79287 0.0
C2889 C 0.32683 0.33879 0.75431 0.0
C2890 C 0.31379 0.33694 0.76708 0.0
C2891 C 0.3387 0.3563 0.75288 0.0
C2892 C 0.36291 0.40025 0.78001 0.0
H2893 H 0.43264 0.47248 0.78374 0.0
H2894 H 0.41343 0.44003 0.781 0.0
H2895 H 0.38442 0.42454 0.79224 0.0
H2896 H 0.30279 0.35195 0.78821 0.0
H2897 H 0.324 0.38257 0.78604 0.0
H2898 H 0.34515 0.39061 0.73482 0.0
C2899 C 0.40813 0.44987 0.77374 0.0
C2900 C 0.37594 0.41736 0.7796 0.0
C2901 C 0.41915 0.46836 0.77529 0.0
C2902 C 0.31263 0.35299 0.77819 0.0
C2903 C 0.32481 0.37044 0.77703 0.0
C2904 C 0.35366 0.39799 0.74741 0.0
C2905 C 0.39032 0.44427 0.76324 0.0
C2906 C 0.37763 0.42528 0.76321 0.0
C2907 C 0.33803 0.3722 0.76446 0.0
C2908 C 0.35162 0.39044 0.76394 0.0
H2909 H 0.38989 0.48581 0.74821 0.0
H2910 H 0.37053 0.45359 0.74552 0.0
H2911 H 0.36752 0.42094 0.73418 0.0
H2912 H 0.328 0.32667 0.74553 0.0
H2913 H 0.34882 0.35731 0.74313 0.0
C2914 C 0.18147 0.59903 0.23526 0.0
C2915 C 0.16623 0.59221 0.2447 0.0
C2916 C 0.18658 0.61781 0.23274 0.0
C2917 C 0.19542 0.65808 0.22717 0.0
H2918 H 0.19189 0.69015 0.27074 0.0
C2919 C 0.23696 0.7355 0.24025 0.0
C2920 C 0.24599 0.74209 0.25816 0.0
C2921 C 0.22336 0.71839 0.23645 0.0
C2922 C 0.19303 0.68139 0.25849 0.0
H2923 H 0.14256 0.59844 0.25646 0.0
H2924 H 0.15122 0.63139 0.25187 0.0
H2925 H 0.17402 0.65762 0.26606 0.0
H2926 H 0.24765 0.73615 0.28622 0.0
H2927 H 0.22437 0.70588 0.27952 0.0
H2928 H 0.21546 0.6816 0.22029 0.0
C2929 C 0.15985 0.62258 0.24716 0.0
C2930 C 0.1825 0.66273 0.2556 0.0
C2931 C 0.15483 0.60375 0.24975 0.0
C2932 C 0.24091 0.73141 0.27229 0.0
C2933 C 0.22744 0.71415 0.26845 0.0
C2934 C 0.20606 0.67669 0.23014 0.0
C2935 C 0.1763 0.63005 0.23937 0.0
C2936 C 0.18416 0.65062 0.24028 0.0
C2937 C 0.21863 0.70736 0.25045 0.0
C2938 C 0.20545 0.68839 0.24614 0.0
H2939 H 0.18994 0.59003 0.23056 0.0
H2940 H 0.19936 0.62287 0.22674 0.0
H2941 H 0.19664 0.64936 0.21493 0.0
H2942 H 0.24038 0.74357 0.22909 0.0
H2943 H 0.21662 0.71376 0.22251 0.0
C2944 C 0.49891 0.70502 0.43826 0.0
C2945 C 0.50067 0.72186 0.44973 0.0
C2946 C 0.50057 0.68876 0.4456 0.0
C2947 C 0.49738 0.66601 0.48827 0.0
H2948 H 0.52609 0.63531 0.46529 0.0
C2949 C 0.50024 0.59285 0.5096 0.0
C2950 C 0.51796 0.58907 0.51095 0.0
C2951 C 0.49759 0.60887 0.50231 0.0
C2952 C 0.51804 0.6437 0.47195 0.0
H2953 H 0.50539 0.73447 0.47812 0.0
H2954 H 0.50801 0.70615 0.4909 0.0
H2955 H 0.52264 0.66328 0.45246 0.0
H2956 H 0.54672 0.59949 0.50544 0.0
H2957 H 0.54204 0.62698 0.49266 0.0
H2958 H 0.49278 0.64635 0.50777 0.0
C2959 C 0.50536 0.7055 0.47616 0.0
C2960 C 0.51592 0.65973 0.46446 0.0
C2961 C 0.50396 0.72184 0.46881 0.0
C2962 C 0.53286 0.60181 0.50472 0.0
C2963 C 0.53014 0.61761 0.49723 0.0
C2964 C 0.49927 0.64979 0.49561 0.0
C2965 C 0.50378 0.68868 0.46469 0.0
C2966 C 0.50567 0.67126 0.47255 0.0
C2967 C 0.51248 0.62145 0.49586 0.0
C2968 C 0.50977 0.63844 0.48767 0.0
H2969 H 0.49636 0.70442 0.42352 0.0
H2970 H 0.49909 0.67612 0.43627 0.0
H2971 H 0.48924 0.67436 0.49485 0.0
H2972 H 0.4884 0.58343 0.51419 0.0
H2973 H 0.48374 0.61123 0.50141 0.0
C2974 C 0.61807 0.32314 0.66264 0.0
C2975 C 0.61495 0.31766 0.64358 0.0
C2976 C 0.63524 0.32387 0.67274 0.0
C2977 C 0.67697 0.30484 0.67033 0.0
H2978 H 0.69549 0.33899 0.71532 0.0
C2979 C 0.74513 0.30532 0.71706 0.0
C2980 C 0.74314 0.30529 0.7358 0.0
C2981 C 0.73105 0.30866 0.70481 0.0
C2982 C 0.69049 0.32932 0.70281 0.0
H2983 H 0.62787 0.3094 0.62012 0.0
H2984 H 0.65803 0.31122 0.63763 0.0
H2985 H 0.66858 0.34211 0.69561 0.0
H2986 H 0.725 0.30932 0.75636 0.0
H2987 H 0.7008 0.3154 0.73518 0.0
H2988 H 0.69905 0.29213 0.67765 0.0
C2989 C 0.64703 0.31453 0.64489 0.0
C2990 C 0.67496 0.33104 0.6915 0.0
C2991 C 0.62977 0.31368 0.63478 0.0
C2992 C 0.72702 0.30919 0.74203 0.0
C2993 C 0.71315 0.31279 0.72989 0.0
C2994 C 0.69266 0.30325 0.68158 0.0
C2995 C 0.64991 0.31927 0.6641 0.0
C2996 C 0.66767 0.31859 0.67525 0.0
C2997 C 0.71485 0.31238 0.71108 0.0
C2998 C 0.69938 0.31523 0.69816 0.0
H2999 H 0.60697 0.32617 0.66993 0.0
H3000 H 0.63665 0.32731 0.68749 0.0
H3001 H 0.67174 0.29479 0.65812 0.0
H3002 H 0.75731 0.3023 0.71175 0.0
H3003 H 0.73282 0.30833 0.69042 0.0
C3004 C 0.99616 0.32935 0.95924 0.0
C3005 C 0.0068 0.32689 0.94486 0.0
C3006 C 0.99735 0.34741 0.96801 0.0
C3007 C 0.01436 0.39815 0.96094 0.0
H3008 H 1.00451 0.40782 0.01108 0.0
C3009 C 0.03312 0.47261 1.00145 0.0
C3010 C 0.01893 0.47795 0.01031 0.0
C3011 C 0.03078 0.45403 0.99382 0.0
C3012 C 0.00716 0.4053 0.99701 0.0
H3013 H 0.02774 0.34133 0.92913 0.0
H3014 H 0.03082 0.37234 0.94501 0.0
H3015 H 1.00307 0.37591 0.99791 0.0
H3016 H 0.99119 0.46763 0.01829 0.0
H3017 H 0.98732 0.4349 0.00534 0.0
H3018 H 0.0192 0.42767 0.96038 0.0
C3019 C 0.02079 0.36066 0.94909 0.0
C3020 C 0.00628 0.38693 0.98937 0.0
C3021 C 0.01927 0.34275 0.94009 0.0
C3022 C 1.00235 0.46406 0.01148 0.0
C3023 C 1.00018 0.4453 0.00417 0.0
C3024 C 0.01561 0.41647 0.96869 0.0
C3025 C 0.00945 0.36346 0.96284 0.0
C3026 C 0.01001 0.38302 0.97119 0.0
C3027 C 0.01434 0.44009 0.99513 0.0
C3028 C 0.01211 0.42033 0.98683 0.0
H3029 H 0.98622 0.31743 0.96305 0.0
H3030 H 0.98821 0.34875 0.97836 0.0
H3031 H 0.01672 0.39594 0.94676 0.0
H3032 H 0.04608 0.48287 1.00025 0.0
H3033 H 0.04199 0.4505 0.98706 0.0
C3034 C 0.98671 0.78576 0.12887 0.0
C3035 C 0.00593 0.79254 0.13557 0.0
C3036 C 0.97298 0.78416 0.14081 0.0
C3037 C 0.96495 0.8003 0.18806 0.0
H3038 H 0.92186 0.75689 0.17857 0.0
C3039 C 0.9115 0.78229 0.24034 0.0
C3040 C 0.89233 0.77559 0.23341 0.0
C3041 C 0.92538 0.78459 0.22851 0.0
C3042 C 0.93368 0.76921 0.18133 0.0
H3043 H 0.02561 0.80313 0.16029 0.0
H3044 H 1.0017 0.80016 0.18109 0.0
H3045 H 0.94588 0.76063 0.15792 0.0
H3046 H 0.87288 0.76641 0.20838 0.0
H3047 H 0.89702 0.77028 0.18784 0.0
H3048 H 0.95276 0.8088 0.21156 0.0
C3049 C 0.99722 0.79629 0.16653 0.0
C3050 C 0.94749 0.77138 0.16945 0.0
C3051 C 0.01098 0.79791 0.15457 0.0
C3052 C 0.88747 0.77126 0.21429 0.0
C3053 C 0.90135 0.77352 0.20247 0.0
C3054 C 0.95115 0.79811 0.19998 0.0
C3055 C 0.97802 0.78925 0.15984 0.0
C3056 C 0.96332 0.78698 0.1726 0.0
C3057 C 0.9205 0.78021 0.2094 0.0
C3058 C 0.9353 0.78254 0.19676 0.0
H3059 H 0.9822 0.78152 0.11434 0.0
H3060 H 0.95836 0.77899 0.13507 0.0
H3061 H 0.97677 0.81263 0.19082 0.0
H3062 H 0.91585 0.7855 0.25496 0.0
H3063 H 0.93998 0.7895 0.23437 0.0
C3064 C 0.49539 0.29866 0.13842 0.0
C3065 C 0.50961 0.29434 0.1497 0.0
C3066 C 0.49912 0.31485 0.12994 0.0
C3067 C 0.53387 0.36078 0.12942 0.0
H3068 H 0.50953 0.35509 0.07963 0.0
C3069 C 0.5534 0.41697 0.08026 0.0
C3070 C 0.53846 0.42054 0.06933 0.0
C3071 C 0.5502 0.40219 0.09083 0.0
C3072 C 0.5163 0.35701 0.09358 0.0
H3073 H 0.53884 0.30414 0.16136 0.0
H3074 H 0.5455 0.33236 0.14625 0.0
H3075 H 0.50357 0.32866 0.09686 0.0
H3076 H 0.50841 0.41122 0.061 0.0
H3077 H 0.50282 0.38557 0.07945 0.0
H3078 H 0.54685 0.38917 0.12585 0.0
C3079 C 0.53134 0.32329 0.14417 0.0
C3080 C 0.51285 0.34182 0.10354 0.0
C3081 C 0.52754 0.30708 0.15285 0.0
C3082 C 0.52023 0.40899 0.06934 0.0
C3083 C 0.51705 0.39415 0.07979 0.0
C3084 C 0.53743 0.37599 0.11938 0.0
C3085 C 0.51726 0.32717 0.13225 0.0
C3086 C 0.52142 0.34349 0.12167 0.0
C3087 C 0.53199 0.3905 0.09064 0.0
C3088 C 0.52857 0.37433 0.10137 0.0
H3089 H 0.48134 0.28932 0.13585 0.0
H3090 H 0.48775 0.31757 0.12134 0.0
H3091 H 0.54062 0.36269 0.14337 0.0
H3092 H 0.56759 0.42569 0.08075 0.0
H3093 H 0.56205 0.39972 0.09892 0.0
C3094 C 0.9801 0.31383 0.36003 0.0
C3095 C 0.99166 0.30406 0.35165 0.0
C3096 C 0.96189 0.31233 0.35172 0.0
C3097 C 0.92308 0.28153 0.31831 0.0
H3098 H 0.90481 0.32581 0.31837 0.0
C3099 C 0.84436 0.277 0.29865 0.0
C3100 C 0.83968 0.29027 0.28821 0.0
C3101 C 0.86303 0.27879 0.30574 0.0
C3102 C 0.90969 0.3133 0.31809 0.0
H3103 H 0.99265 0.28376 0.32888 0.0
H3104 H 0.96083 0.28104 0.3143 0.0
H3105 H 0.93696 0.32858 0.33169 0.0
H3106 H 0.85129 0.3159 0.2771 0.0
H3107 H 0.88386 0.31904 0.2895 0.0
H3108 H 0.89589 0.26625 0.30464 0.0
C3109 C 0.96593 0.29022 0.3271 0.0
C3110 C 0.92811 0.31486 0.32593 0.0
C3111 C 0.98425 0.29193 0.33532 0.0
C3112 C 0.85429 0.30542 0.28509 0.0
C3113 C 0.873 0.30727 0.29231 0.0
C3114 C 0.90464 0.27994 0.31058 0.0
C3115 C 0.95455 0.30057 0.33508 0.0
C3116 C 0.93505 0.29898 0.32625 0.0
C3117 C 0.87766 0.29394 0.3027 0.0
C3118 C 0.8976 0.29578 0.31044 0.0
H3119 H 0.9853 0.32291 0.37288 0.0
H3120 H 0.95346 0.32021 0.3585 0.0
H3121 H 0.92783 0.26896 0.31837 0.0
H3122 H 0.83359 0.26509 0.30134 0.0
H3123 H 0.86594 0.26836 0.31385 0.0
C3124 C 0.99679 0.69785 0.63947 0.0
C3125 C 1.00317 0.70077 0.65833 0.0
C3126 C 0.99602 0.68101 0.62871 0.0
C3127 C 0.99615 0.63139 0.62927 0.0
H3128 H 0.01794 0.63781 0.58399 0.0
C3129 C 0.01084 0.56966 0.58227 0.0
C3130 C 0.0093 0.57037 0.56327 0.0
C3131 C 0.00898 0.58468 0.59451 0.0
C3132 C 0.01148 0.63561 0.59639 0.0
H3133 H 0.01286 0.68773 0.6808 0.0
H3134 H 0.01129 0.65815 0.66197 0.0
H3135 H 0.01598 0.66504 0.60396 0.0
H3136 H 1.00357 0.58703 0.54225 0.0
H3137 H 0.9997 0.61263 0.56326 0.0
H3138 H 0.99147 0.60185 0.62153 0.0
C3139 C 0.00692 0.66899 0.65553 0.0
C3140 C 0.01042 0.65133 0.60792 0.0
C3141 C 0.00782 0.68596 0.66633 0.0
C3142 C 1.00511 0.58607 0.55679 0.0
C3143 C 1.00304 0.6009 0.56893 0.0
C3144 C 0.99704 0.61556 0.6176 0.0
C3145 C 1.00152 0.66651 0.63647 0.0
C3146 C 1.00264 0.64948 0.62446 0.0
C3147 C 1.00538 0.6007 0.58802 0.0
C3148 C 1.0046 0.61742 0.60088 0.0
H3149 H 0.99303 0.70886 0.63281 0.0
H3150 H 0.99145 0.67947 0.61415 0.0
H3151 H 0.99003 0.62945 0.64189 0.0
H3152 H 0.01412 0.55781 0.58775 0.0
H3153 H 0.01098 0.58396 0.60907 0.0
C3154 C 0.60306 0.82584 0.83716 0.0
C3155 C 0.59322 0.81287 0.84774 0.0
C3156 C 0.62029 0.82449 0.8315 0.0
C3157 C 0.64712 0.79042 0.82068 0.0
H3158 H 0.69026 0.83349 0.82516 0.0
C3159 C 0.71842 0.78183 0.80049 0.0
C3160 C 0.73094 0.79658 0.79399 0.0
C3161 C 0.70214 0.78429 0.80748 0.0
C3162 C 0.67834 0.8213 0.82344 0.0
H3163 H 0.59407 0.78828 0.86062 0.0
H3164 H 0.6239 0.78568 0.85037 0.0
H3165 H 0.6613 0.83693 0.83647 0.0
H3166 H 0.73596 0.82566 0.78987 0.0
H3167 H 0.7072 0.8298 0.8012 0.0
H3168 H 0.66355 0.77487 0.80699 0.0
C3169 C 0.6183 0.79702 0.84661 0.0
C3170 C 0.66169 0.8233 0.83009 0.0
C3171 C 0.60124 0.79859 0.8526 0.0
C3172 C 0.72667 0.81395 0.79473 0.0
C3173 C 0.71014 0.81634 0.80142 0.0
C3174 C 0.6636 0.78848 0.81371 0.0
C3175 C 0.62804 0.80991 0.83591 0.0
C3176 C 0.64588 0.80786 0.82892 0.0
C3177 C 0.69751 0.80152 0.80792 0.0
C3178 C 0.67964 0.80384 0.81507 0.0
H3179 H 0.59739 0.83703 0.83313 0.0
H3180 H 0.6273 0.83459 0.82321 0.0
H3181 H 0.63515 0.77828 0.81924 0.0
H3182 H 0.72131 0.76831 0.80046 0.0
H3183 H 0.69335 0.77259 0.81276 0.0
C3184 C 0.44371 0.53567 0.70604 0.0
C3185 C 0.45596 0.54308 0.72231 0.0
C3186 C 0.45007 0.53725 0.6889 0.0
C3187 C 0.48748 0.56371 0.66465 0.0
H3188 H 0.472 0.51931 0.62861 0.0
C3189 C 0.51821 0.55922 0.59502 0.0
C3190 C 0.50649 0.54816 0.57966 0.0
C3191 C 0.51213 0.55961 0.61244 0.0
C3192 C 0.47625 0.53198 0.63832 0.0
H3193 H 0.48451 0.55841 0.73319 0.0
H3194 H 0.49561 0.56135 0.70315 0.0
H3195 H 0.46141 0.51831 0.65869 0.0
H3196 H 0.4788 0.5295 0.57054 0.0
H3197 H 0.46801 0.53062 0.60059 0.0
H3198 H 0.50214 0.57747 0.64417 0.0
C3199 C 0.48103 0.55429 0.70372 0.0
C3200 C 0.4702 0.53136 0.65567 0.0
C3201 C 0.47468 0.55255 0.72095 0.0
C3202 C 0.48831 0.53803 0.58207 0.0
C3203 C 0.48216 0.53856 0.59941 0.0
C3204 C 0.49342 0.56439 0.64718 0.0
C3205 C 0.46885 0.54641 0.68747 0.0
C3206 C 0.47566 0.54721 0.66907 0.0
C3207 C 0.49408 0.54906 0.61496 0.0
C3208 C 0.48784 0.54853 0.6337 0.0
H3209 H 0.42919 0.52831 0.70651 0.0
H3210 H 0.44021 0.53127 0.6767 0.0
H3211 H 0.49184 0.57623 0.67457 0.0
H3212 H 0.53235 0.56713 0.59371 0.0
H3213 H 0.52183 0.56773 0.62401 0.0
C3214 C 0.75884 0.19211 1.00158 0.0
C3215 C 0.75458 0.17262 0.99678 0.0
C3216 C 0.75597 0.20355 0.98852 0.0
C3217 C 0.76184 0.22475 0.95634 0.0
H3218 H 0.7202 0.21029 0.91728 0.0
C3219 C 0.7641 0.25769 0.89003 0.0
C3220 C 0.74766 0.26102 0.8818 0.0
C3221 C 0.76366 0.24817 0.90524 0.0
C3222 C 0.73176 0.21464 0.92826 0.0
H3223 H 0.74348 0.1498 0.97463 0.0
H3224 H 0.73899 0.16992 0.9516 0.0
H3225 H 0.72101 0.19087 0.94177 0.0
H3226 H 0.71792 0.25741 0.88324 0.0
H3227 H 0.7172 0.24096 0.91019 0.0
H3228 H 0.77254 0.24856 0.94299 0.0
C3229 C 0.74424 0.17629 0.96557 0.0
C3230 C 0.73235 0.20341 0.94213 0.0
C3231 C 0.74694 0.16477 0.97872 0.0
C3232 C 0.73082 0.25509 0.88939 0.0
C3233 C 0.73037 0.24553 0.90466 0.0
C3234 C 0.76121 0.23599 0.94255 0.0
C3235 C 0.74896 0.19582 0.97031 0.0
C3236 C 0.74754 0.20822 0.95617 0.0
C3237 C 0.74678 0.24185 0.91263 0.0
C3238 C 0.74636 0.23089 0.92819 0.0
H3239 H 0.76442 0.19858 0.01546 0.0
H3240 H 0.75936 0.21851 0.9927 0.0
H3241 H 0.77386 0.22876 0.96683 0.0
H3242 H 0.77733 0.26233 0.88461 0.0
H3243 H 0.77649 0.24536 0.91092 0.0
C3244 C 0.11474 0.49735 0.20756 0.0
C3245 C 0.13284 0.50924 0.20784 0.0
C3246 C 0.10338 0.49006 0.19093 0.0
C3247 C 0.10248 0.48653 0.14013 0.0
H3248 H 0.0561 0.50115 0.1424 0.0
C3249 C 0.06979 0.51741 0.08257 0.0
C3250 C 0.05019 0.51391 0.07896 0.0
C3251 C 0.07781 0.51014 0.09689 0.0
C3252 C 0.06872 0.4965 0.14147 0.0
H3253 H 0.15395 0.52125 0.19097 0.0
H3254 H 0.13415 0.50876 0.16204 0.0
H3255 H 0.07456 0.49903 0.17056 0.0
H3256 H 0.02359 0.49946 0.08718 0.0
H3257 H 0.03771 0.48691 0.11251 0.0
H3258 H 0.09707 0.48509 0.111 0.0
C3259 C 0.12867 0.50495 0.17458 0.0
C3260 C 0.07932 0.49525 0.15766 0.0
C3261 C 0.14001 0.51225 0.19119 0.0
C3262 C 0.03874 0.50255 0.08973 0.0
C3263 C 0.04681 0.49534 0.10419 0.0
C3264 C 0.09186 0.48778 0.12393 0.0
C3265 C 0.10994 0.4945 0.17431 0.0
C3266 C 0.09673 0.49107 0.1572 0.0
C3267 C 0.06644 0.49922 0.10801 0.0
C3268 C 0.07531 0.49362 0.12451 0.0
H3269 H 0.10889 0.49461 0.22019 0.0
H3270 H 0.08911 0.48179 0.19112 0.0
H3271 H 0.11566 0.48294 0.13934 0.0
H3272 H 0.07904 0.52592 0.07442 0.0
H3273 H 0.09298 0.51367 0.09966 0.0
C3274 C 0.77654 0.87025 0.46369 0.0
C3275 C 0.77993 0.86263 0.47988 0.0
C3276 C 0.77579 0.86015 0.44652 0.0
C3277 C 0.76533 0.83271 0.41171 0.0
H3278 H 0.80411 0.80773 0.4027 0.0
C3279 C 0.76555 0.79309 0.34073 0.0
C3280 C 0.78284 0.79572 0.33361 0.0
C3281 C 0.76481 0.79906 0.35914 0.0
C3282 C 0.79322 0.81469 0.40498 0.0
H3283 H 0.78491 0.83815 0.49057 0.0
H3284 H 0.78358 0.82034 0.46031 0.0
H3285 H 0.80279 0.82197 0.43379 0.0
H3286 H 0.81301 0.80624 0.34062 0.0
H3287 H 0.81172 0.81692 0.37282 0.0
H3288 H 0.75604 0.82605 0.38299 0.0
C3289 C 0.78156 0.83426 0.46107 0.0
C3290 C 0.79232 0.82265 0.42285 0.0
C3291 C 0.78213 0.84437 0.47839 0.0
C3292 C 0.79946 0.80398 0.34561 0.0
C3293 C 0.79871 0.81003 0.36411 0.0
C3294 C 0.76617 0.82473 0.39395 0.0
C3295 C 0.77849 0.84212 0.44492 0.0
C3296 C 0.77851 0.83201 0.42638 0.0
C3297 C 0.78133 0.80793 0.37104 0.0
C3298 C 0.78022 0.81575 0.39026 0.0
H3299 H 0.77476 0.88426 0.46426 0.0
H3300 H 0.77363 0.86676 0.43445 0.0
H3301 H 0.75439 0.83964 0.41393 0.0
H3302 H 0.75244 0.7866 0.33203 0.0
H3303 H 0.7512 0.79682 0.36402 0.0
C3304 C 0.4728 0.53133 0.82918 0.0
C3305 C 0.45535 0.5356 0.82808 0.0
C3306 C 0.48229 0.53033 0.8463 0.0
C3307 C 0.47144 0.52214 0.89318 0.0
H3308 H 0.52507 0.54064 0.90818 0.0
C3309 C 0.50198 0.53359 0.9686 0.0
C3310 C 0.51817 0.52788 0.97377 0.0
C3311 C 0.49574 0.53345 0.95019 0.0
C3312 C 0.5101 0.53517 0.90408 0.0
H3313 H 0.43495 0.54352 0.8442 0.0
H3314 H 0.4515 0.54222 0.87367 0.0
H3315 H 0.51199 0.54336 0.87713 0.0
H3316 H 0.54062 0.51773 0.96337 0.0
H3317 H 0.52964 0.51758 0.93089 0.0
H3318 H 0.46937 0.51425 0.92002 0.0
C3319 C 0.45766 0.53903 0.86143 0.0
C3320 C 0.50261 0.53675 0.8863 0.0
C3321 C 0.44822 0.53992 0.84447 0.0
C3322 C 0.52804 0.5221 0.95989 0.0
C3323 C 0.52183 0.52214 0.9413 0.0
C3324 C 0.47888 0.52062 0.91082 0.0
C3325 C 0.4745 0.53361 0.86261 0.0
C3326 C 0.48309 0.53067 0.8808 0.0
C3327 C 0.50549 0.52769 0.93626 0.0
C3328 C 0.49823 0.5275 0.91669 0.0
H3329 H 0.47864 0.52782 0.81682 0.0
H3330 H 0.49526 0.52617 0.8467 0.0
H3331 H 0.45643 0.51676 0.88929 0.0
H3332 H 0.49399 0.53821 0.9788 0.0
H3333 H 0.48329 0.53809 0.94686 0.0
C3334 C 0.82354 0.20359 0.08879 0.0
C3335 C 0.81376 0.18483 0.08906 0.0
C3336 C 0.83052 0.21552 0.10515 0.0
C3337 C 0.83765 0.21867 0.15576 0.0
H3338 H 0.81104 0.25707 0.15394 0.0
C3339 C 0.80719 0.24559 0.21766 0.0
C3340 C 0.80473 0.26371 0.21966 0.0
C3341 C 0.81454 0.23903 0.20245 0.0
C3342 C 0.81906 0.24686 0.15476 0.0
H3343 H 0.80571 0.16327 0.10649 0.0
H3344 H 0.8179 0.18412 0.13508 0.0
H3345 H 0.81489 0.23963 0.1257 0.0
H3346 H 0.8088 0.2895 0.20765 0.0
H3347 H 0.82204 0.27816 0.1811 0.0
H3348 H 0.84137 0.22558 0.18491 0.0
C3349 C 0.82012 0.18963 0.12225 0.0
C3350 C 0.82125 0.23682 0.13851 0.0
C3351 C 0.81305 0.17769 0.10587 0.0
C3352 C 0.8103 0.27537 0.20635 0.0
C3353 C 0.81789 0.26886 0.19116 0.0
C3354 C 0.8357 0.22892 0.17206 0.0
C3355 C 0.82794 0.20885 0.12202 0.0
C3356 C 0.82988 0.22212 0.13888 0.0
C3357 C 0.81985 0.2505 0.1889 0.0
C3358 C 0.8256 0.24255 0.17177 0.0
H3359 H 0.82456 0.20944 0.07602 0.0
H3360 H 0.83675 0.23023 0.10463 0.0
H3361 H 0.84452 0.20753 0.1564 0.0
H3362 H 0.80301 0.2362 0.22765 0.0
H3363 H 0.81538 0.22469 0.20103 0.0
C3364 C 0.15348 0.56877 0.32338 0.0
C3365 C 0.14588 0.55625 0.30729 0.0
C3366 C 0.14242 0.57076 0.33733 0.0
C3367 C 0.09302 0.56398 0.34486 0.0
H3368 H 0.11248 0.56855 0.39611 0.0
C3369 C 0.04642 0.5591 0.40334 0.0
C3370 C 0.05377 0.5707 0.41999 0.0
C3371 C 0.05747 0.55877 0.3891 0.0
C3372 C 0.10694 0.56758 0.38187 0.0
H3373 H 0.12089 0.53543 0.29363 0.0
H3374 H 0.10176 0.53877 0.31808 0.0
H3375 H 0.1325 0.56421 0.37261 0.0
H3376 H 0.07794 0.59193 0.43441 0.0
H3377 H 0.09722 0.59145 0.40947 0.0
H3378 H 0.06741 0.56722 0.35413 0.0
C3379 C 0.11615 0.54731 0.31971 0.0
C3380 C 0.11839 0.56504 0.36842 0.0
C3381 C 0.12718 0.54531 0.30576 0.0
C3382 C 0.07204 0.58263 0.42181 0.0
C3383 C 0.08307 0.58232 0.40758 0.0
C3384 C 0.08157 0.56652 0.35831 0.0
C3385 C 0.12356 0.56027 0.33549 0.0
C3386 C 0.1115 0.56312 0.34979 0.0
C3387 C 0.07605 0.57007 0.39125 0.0
C3388 C 0.08839 0.56827 0.37694 0.0
H3389 H 0.1678 0.57745 0.32501 0.0
H3390 H 0.14847 0.58095 0.3493 0.0
H3391 H 0.08745 0.56287 0.3306 0.0
H3392 H 0.03247 0.5496 0.40163 0.0
H3393 H 0.05173 0.54906 0.37673 0.0
C3394 C 0.76247 0.84236 0.58629 0.0
C3395 C 0.77298 0.86073 0.5854 0.0
C3396 C 0.76069 0.83563 0.60324 0.0
C3397 C 0.76822 0.85173 0.65393 0.0
H3398 H 0.76851 0.80032 0.65741 0.0
C3399 C 0.78449 0.82506 0.72273 0.0
C3400 C 0.77304 0.80777 0.72582 0.0
C3401 C 0.78282 0.83131 0.70561 0.0
C3402 C 0.76822 0.81466 0.65663 0.0
H3403 H 0.78985 0.88643 0.6017 0.0
H3404 H 0.78724 0.87468 0.63095 0.0
H3405 H 0.76863 0.81151 0.62758 0.0
H3406 H 0.75083 0.78349 0.71323 0.0
H3407 H 0.74813 0.7943 0.68321 0.0
H3408 H 0.76849 0.85497 0.68312 0.0
C3409 C 0.77989 0.86549 0.61872 0.0
C3410 C 0.76821 0.8211 0.63949 0.0
C3411 C 0.7815 0.87224 0.60184 0.0
C3412 C 0.75982 0.79691 0.71135 0.0
C3413 C 0.75835 0.80304 0.69412 0.0
C3414 C 0.76847 0.84535 0.67107 0.0
C3415 C 0.76951 0.84706 0.61974 0.0
C3416 C 0.7684 0.8398 0.63788 0.0
C3417 C 0.76985 0.82032 0.69104 0.0
C3418 C 0.76863 0.82679 0.67266 0.0
H3419 H 0.7557 0.83313 0.57388 0.0
H3420 H 0.75233 0.82146 0.60339 0.0
H3421 H 0.76789 0.86607 0.65332 0.0
H3422 H 0.79482 0.8338 0.73355 0.0
H3423 H 0.792 0.84461 0.70366 0.0
C3424 C 0.72415 0.45536 0.49077 0.0
C3425 C 0.72577 0.43944 0.49866 0.0
C3426 C 0.71233 0.46575 0.49706 0.0
C3427 C 0.68122 0.48195 0.50777 0.0
H3428 H 0.68476 0.49381 0.56057 0.0
C3429 C 0.65917 0.54455 0.53932 0.0
C3430 C 0.6457 0.54044 0.55148 0.0
C3431 C 0.66931 0.53182 0.53447 0.0
C3432 C 0.68359 0.4905 0.54582 0.0
H3433 H 0.71544 0.42132 0.51868 0.0
H3434 H 0.69449 0.43948 0.52954 0.0
H3435 H 0.69953 0.47041 0.54759 0.0
H3436 H 0.63332 0.52051 0.56918 0.0
H3437 H 0.6514 0.49841 0.56093 0.0
H3438 H 0.66575 0.50237 0.50599 0.0
C3439 C 0.70265 0.44401 0.51866 0.0
C3440 C 0.69187 0.47703 0.53838 0.0
C3441 C 0.71451 0.43354 0.51232 0.0
C3442 C 0.64373 0.52413 0.5599 0.0
C3443 C 0.65398 0.51143 0.55512 0.0
C3444 C 0.67312 0.49548 0.51519 0.0
C3445 C 0.70179 0.46045 0.51135 0.0
C3446 C 0.69104 0.47288 0.51927 0.0
C3447 C 0.66625 0.51484 0.54179 0.0
C3448 C 0.67452 0.50011 0.53425 0.0
H3449 H 0.73254 0.46026 0.48016 0.0
H3450 H 0.71215 0.47845 0.49127 0.0
H3451 H 0.68003 0.47879 0.49301 0.0
H3452 H 0.66119 0.55717 0.53287 0.0
H3453 H 0.67902 0.5349 0.52444 0.0
C3454 C 0.22775 0.14765 0.51921 0.0
C3455 C 0.22984 0.1629 0.5093 0.0
C3456 C 0.21004 0.13569 0.51969 0.0
C3457 C 0.15935 0.13245 0.51279 0.0
H3458 H 0.15461 0.07918 0.50942 0.0
C3459 C 0.08737 0.07852 0.50916 0.0
C3460 C 0.08655 0.06339 0.51917 0.0
C3461 C 0.10464 0.09046 0.50694 0.0
C3462 C 0.15569 0.09402 0.51057 0.0
H3463 H 0.21517 0.1785 0.4931 0.0
H3464 H 0.18393 0.1573 0.49358 0.0
H3465 H 0.18493 0.10063 0.50787 0.0
H3466 H 0.10327 0.04886 0.5346 0.0
H3467 H 0.13339 0.06988 0.53105 0.0
H3468 H 0.13015 0.12583 0.51608 0.0
C3469 C 0.19602 0.15452 0.50093 0.0
C3470 C 0.1731 0.10635 0.50957 0.0
C3471 C 0.21384 0.16659 0.50055 0.0
C3472 C 0.10341 0.06031 0.52672 0.0
C3473 C 0.12069 0.07234 0.5246 0.0
C3474 C 0.14193 0.12011 0.51395 0.0
C3475 C 0.19396 0.13881 0.51039 0.0
C3476 C 0.17519 0.12572 0.51074 0.0
C3477 C 0.12152 0.08763 0.51477 0.0
C3478 C 0.13991 0.10074 0.51296 0.0
H3479 H 0.23988 0.14495 0.5266 0.0
H3480 H 0.20897 0.12406 0.5275 0.0
H3481 H 0.16051 0.1473 0.51403 0.0
H3482 H 0.07464 0.08124 0.50306 0.0
H3483 H 0.10473 0.10187 0.49901 0.0
C3484 C 0.1621 0.98288 0.80429 0.0
C3485 C 0.15425 0.99025 0.78974 0.0
C3486 C 0.17017 0.96811 0.80091 0.0
C3487 C 0.17677 0.93193 0.76531 0.0
H3488 H 0.22444 0.94034 0.7957 0.0
C3489 C 0.23221 0.89132 0.74984 0.0
C3490 C 0.24179 0.88613 0.76491 0.0
C3491 C 0.22013 0.90279 0.75249 0.0
C3492 C 0.21106 0.9376 0.78723 0.0
H3493 H 0.14774 0.98729 0.76026 0.0
H3494 H 0.16223 0.96151 0.75423 0.0
H3495 H 0.20509 0.96167 0.8009 0.0
H3496 H 0.24559 0.88843 0.79457 0.0
H3497 H 0.22467 0.90844 0.79919 0.0
H3498 H 0.18308 0.90792 0.75145 0.0
C3499 C 0.16189 0.967 0.7683 0.0
C3500 C 0.19989 0.94984 0.79024 0.0
C3501 C 0.15353 0.98172 0.77173 0.0
C3502 C 0.23878 0.89248 0.78266 0.0
C3503 C 0.22674 0.90393 0.78531 0.0
C3504 C 0.18802 0.91965 0.76225 0.0
C3505 C 0.17095 0.96052 0.78286 0.0
C3506 C 0.18253 0.94713 0.77943 0.0
C3507 C 0.21737 0.90936 0.77028 0.0
C3508 C 0.20527 0.9223 0.77327 0.0
H3509 H 0.16271 0.98912 0.81832 0.0
H3510 H 0.17649 0.96311 0.81248 0.0
H3511 H 0.16346 0.92937 0.75677 0.0
H3512 H 0.23433 0.88682 0.73598 0.0
H3513 H 0.21332 0.90688 0.74062 0.0
C3514 C 0.32216 0.91942 0.97745 0.0
C3515 C 0.31156 0.9246 0.99081 0.0
C3516 C 0.34132 0.92843 0.9786 0.0
C3517 C 0.37878 0.95955 0.98094 0.0
H3518 H 0.4088 0.96191 0.02742 0.0
C3519 C 0.45431 0.00786 1.0022 0.0
C3520 C 0.46734 0.99982 0.01098 0.0
C3521 C 0.4354 0.99789 0.99813 0.0
C3522 C 0.40064 0.96125 0.01432 0.0
H3523 H 0.31248 0.9421 0.01636 0.0
H3524 H 0.34591 0.95767 0.0185 0.0
H3525 H 0.37541 0.94579 0.02332 0.0
H3526 H 0.47084 0.97488 0.02196 0.0
H3527 H 0.43789 0.95764 0.01496 0.0
H3528 H 0.40409 0.97528 0.97206 0.0
C3529 C 0.33947 0.94704 0.00696 0.0
C3530 C 0.38154 0.95215 0.01203 0.0
C3531 C 0.32037 0.93827 0.00566 0.0
C3532 C 0.46116 0.98152 0.01527 0.0
C3533 C 0.44229 0.97165 0.01132 0.0
C3534 C 0.39792 0.96887 0.9833 0.0
C3535 C 0.3501 0.94222 0.99345 0.0
C3536 C 0.37044 0.95127 0.99536 0.0
C3537 C 0.4292 0.9798 1.0029 0.0
C3538 C 0.409 0.96977 1.00003 0.0
H3539 H 0.31559 0.90863 0.96608 0.0
H3540 H 0.34934 0.92438 0.96813 0.0
H3541 H 0.37041 0.95915 0.96802 0.0
H3542 H 0.45866 0.0219 0.99865 0.0
H3543 H 0.42555 0.00454 0.99174 0.0
C3544 C 0.87677 0.59297 0.78165 0.0
C3545 C 0.86969 0.58302 0.79573 0.0
C3546 C 0.8662 0.60305 0.77248 0.0
C3547 C 0.81717 0.60402 0.76183 0.0
H3548 H 0.83837 0.65419 0.75089 0.0
C3549 C 0.77398 0.65572 0.74839 0.0
C3550 C 0.77997 0.66915 0.73673 0.0
C3551 C 0.78402 0.64268 0.75153 0.0
C3552 C 0.83231 0.64001 0.75346 0.0
H3553 H 0.84646 0.57686 0.81197 0.0
H3554 H 0.82827 0.59462 0.79616 0.0
H3555 H 0.85876 0.63765 0.7657 0.0
H3556 H 0.79998 0.67829 0.71782 0.0
H3557 H 0.81758 0.65542 0.72334 0.0
H3558 H 0.79064 0.60655 0.75001 0.0
C3559 C 0.84176 0.59423 0.79192 0.0
C3560 C 0.84398 0.6306 0.76203 0.0
C3561 C 0.8523 0.58421 0.80109 0.0
C3562 C 0.79526 0.66829 0.72712 0.0
C3563 C 0.80534 0.65525 0.73029 0.0
C3564 C 0.80551 0.61341 0.75324 0.0
C3565 C 0.84837 0.60333 0.77722 0.0
C3566 C 0.83642 0.61272 0.76671 0.0
C3567 C 0.80024 0.64282 0.74308 0.0
C3568 C 0.81289 0.63167 0.74936 0.0
H3569 H 0.8901 0.59234 0.77714 0.0
H3570 H 0.87163 0.60999 0.76121 0.0
H3571 H 0.81105 0.59005 0.76491 0.0
H3572 H 0.76239 0.65615 0.75615 0.0
H3573 H 0.77983 0.6334 0.76159 0.0
C3574 C 0.83706 0.67078 0.03337 0.0
C3575 C 0.82781 0.66797 0.01541 0.0
C3576 C 0.85156 0.66231 0.0375 0.0
C3577 C 0.86468 0.62018 0.02031 0.0
H3578 H 0.91132 0.64035 0.05268 0.0
C3579 C 0.91891 0.57795 0.02706 0.0
C3580 C 0.92841 0.57828 0.04448 0.0
C3581 C 0.90797 0.59032 0.02415 0.0
C3582 C 0.89824 0.63446 0.04377 0.0
H3583 H 0.82763 0.65572 0.98747 0.0
H3584 H 0.85299 0.64142 0.99455 0.0
H3585 H 0.89057 0.66045 0.0465 0.0
H3586 H 0.93409 0.59213 0.07247 0.0
H3587 H 0.91463 0.6136 0.06748 0.0
H3588 H 0.87189 0.5942 0.01773 0.0
C3589 C 0.84881 0.64966 0.00555 0.0
C3590 C 0.8864 0.646 0.0402 0.0
C3591 C 0.83437 0.65798 1.00147 0.0
C3592 C 0.92698 0.59156 0.05888 0.0
C3593 C 0.91588 0.60391 0.05599 0.0
C3594 C 0.87636 0.60868 0.02393 0.0
C3595 C 0.85698 0.65098 0.02371 0.0
C3596 C 0.86962 0.63902 0.0282 0.0
C3597 C 0.90606 0.6033 0.03861 0.0
C3598 C 0.89344 0.61568 0.0355 0.0
H3599 H 0.83217 0.67828 0.0444 0.0
H3600 H 0.85763 0.66361 0.05163 0.0
H3601 H 0.8516 0.61421 0.01139 0.0
H3602 H 0.92008 0.5682 0.01557 0.0
H3603 H 0.90103 0.58973 0.01047 0.0
C3604 C 0.15502 0.10221 0.80467 0.0
C3605 C 0.15785 0.08621 0.7949 0.0
C3606 C 0.16723 0.11983 0.80401 0.0
C3607 C 0.20296 0.15289 0.80776 0.0
H3608 H 0.21444 0.16582 0.75991 0.0
C3609 C 0.25979 0.21957 0.79626 0.0
C3610 C 0.25386 0.22968 0.78295 0.0
C3611 C 0.24855 0.20193 0.79849 0.0
C3612 C 0.21136 0.16243 0.77337 0.0
H3613 H 0.17451 0.07591 0.77583 0.0
H3614 H 0.19568 0.10652 0.77456 0.0
H3615 H 0.19316 0.13561 0.76232 0.0
H3616 H 0.23154 0.22912 0.7615 0.0
H3617 H 0.21225 0.19856 0.76532 0.0
H3618 H 0.22114 0.17994 0.81874 0.0
C3619 C 0.18437 0.10559 0.78297 0.0
C3620 C 0.19927 0.14509 0.77476 0.0
C3621 C 0.17236 0.08808 0.78381 0.0
C3622 C 0.2366 0.22175 0.77188 0.0
C3623 C 0.22553 0.20416 0.774 0.0
C3624 C 0.21523 0.17026 0.80638 0.0
C3625 C 0.18203 0.12164 0.79314 0.0
C3626 C 0.19484 0.14017 0.79193 0.0
C3627 C 0.23135 0.19404 0.78729 0.0
C3628 C 0.21939 0.17525 0.78913 0.0
H3629 H 0.14366 0.10103 0.81304 0.0
H3630 H 0.16498 0.13203 0.81179 0.0
H3631 H 0.19993 0.14934 0.82119 0.0
H3632 H 0.27297 0.22535 0.80506 0.0
H3633 H 0.25341 0.19435 0.80879 0.0
C3634 C 0.40873 0.98903 0.30821 0.0
C3635 C 0.39899 0.99981 0.29891 0.0
C3636 C 0.40235 0.9695 0.30509 0.0
C3637 C 0.37461 0.9308 0.30483 0.0
H3638 H 0.35917 0.90422 0.25556 0.0
C3639 C 0.31692 0.86147 0.28651 0.0
C3640 C 0.32101 0.84721 0.275 0.0
C3641 C 0.32938 0.87929 0.28994 0.0
C3642 C 0.36362 0.91144 0.26938 0.0
H3643 H 0.37626 0.9992 0.27807 0.0
H3644 H 0.3652 0.96515 0.27248 0.0
H3645 H 0.3767 0.93724 0.26001 0.0
H3646 H 0.34124 0.84033 0.25798 0.0
H3647 H 0.36279 0.87175 0.26361 0.0
H3648 H 0.36066 0.90523 0.31416 0.0
C3649 C 0.37749 0.97161 0.28234 0.0
C3650 C 0.37355 0.93027 0.27192 0.0
C3651 C 0.38365 0.99102 0.28568 0.0
C3652 C 0.33775 0.85108 0.26693 0.0
C3653 C 0.35006 0.869 0.27012 0.0
C3654 C 0.36437 0.91205 0.30229 0.0
C3655 C 0.38661 0.96068 0.2922 0.0
C3656 C 0.37876 0.9402 0.28965 0.0
C3657 C 0.34598 0.8832 0.28169 0.0
C3658 C 0.3585 0.90235 0.28453 0.0
H3659 H 0.42084 0.99569 0.31821 0.0
H3660 H 0.40962 0.96131 0.31279 0.0
H3661 H 0.37845 0.93819 0.31862 0.0
H3662 H 0.30417 0.85884 0.29301 0.0
H3663 H 0.32586 0.89012 0.29875 0.0
C3664 C 0.549 0.34923 0.57082 0.0
C3665 C 0.5537 0.34747 0.58931 0.0
C3666 C 0.54827 0.36653 0.56536 0.0
C3667 C 0.55991 0.41864 0.58203 0.0
H3668 H 0.52606 0.4174 0.53853 0.0
C3669 C 0.55509 0.48762 0.553 0.0
C3670 C 0.53819 0.48817 0.54298 0.0
C3671 C 0.55755 0.47079 0.55854 0.0
C3672 C 0.53542 0.41825 0.55089 0.0
H3673 H 0.56145 0.36294 0.61657 0.0
H3674 H 0.5594 0.39293 0.60731 0.0
H3675 H 0.52872 0.38848 0.54879 0.0
H3676 H 0.51045 0.47121 0.53137 0.0
H3677 H 0.51426 0.44238 0.54159 0.0
H3678 H 0.56568 0.4485 0.5847 0.0
C3679 C 0.5568 0.38105 0.59677 0.0
C3680 C 0.53729 0.40138 0.55665 0.0
C3681 C 0.55793 0.36373 0.60218 0.0
C3682 C 0.52379 0.47138 0.53882 0.0
C3683 C 0.52608 0.45466 0.54465 0.0
C3684 C 0.55777 0.43557 0.57643 0.0
C3685 C 0.55173 0.38278 0.57823 0.0
C3686 C 0.54968 0.40114 0.57228 0.0
C3687 C 0.54305 0.45393 0.55458 0.0
C3688 C 0.54549 0.43576 0.5607 0.0
H3689 H 0.54582 0.33713 0.56042 0.0
H3690 H 0.54497 0.36701 0.5509 0.0
H3691 H 0.56979 0.41941 0.59398 0.0
H3692 H 0.56657 0.50021 0.55644 0.0
H3693 H 0.571 0.47108 0.56579 0.0
C3694 C 0.44334 0.75373 0.38603 0.0
C3695 C 0.44845 0.76469 0.40327 0.0
C3696 C 0.42654 0.75318 0.37529 0.0
C3697 C 0.39222 0.78188 0.37027 0.0
H3698 H 0.3658 0.74078 0.33291 0.0
C3699 C 0.33636 0.76786 0.29963 0.0
C3700 C 0.32424 0.77847 0.30541 0.0
C3701 C 0.35022 0.76461 0.31219 0.0
C3702 C 0.37312 0.75248 0.34315 0.0
H3703 H 0.43902 0.78176 0.42383 0.0
H3704 H 0.40961 0.78078 0.4053 0.0
H3705 H 0.39132 0.73712 0.35423 0.0
H3706 H 0.31694 0.79341 0.32924 0.0
H3707 H 0.3408 0.7876 0.35098 0.0
H3708 H 0.37416 0.79729 0.35911 0.0
C3709 C 0.41885 0.7732 0.39959 0.0
C3710 C 0.38783 0.75039 0.35545 0.0
C3711 C 0.43565 0.77368 0.41032 0.0
C3712 C 0.32609 0.78534 0.32417 0.0
C3713 C 0.3399 0.78208 0.33668 0.0
C3714 C 0.37754 0.78396 0.35801 0.0
C3715 C 0.41432 0.76348 0.38162 0.0
C3716 C 0.39774 0.76511 0.36915 0.0
C3717 C 0.35236 0.77188 0.33088 0.0
C3718 C 0.36779 0.76934 0.34419 0.0
H3719 H 0.4527 0.74612 0.38056 0.0
H3720 H 0.42375 0.7455 0.36163 0.0
H3721 H 0.39959 0.79375 0.38029 0.0
H3722 H 0.33541 0.76236 0.28532 0.0
H3723 H 0.35961 0.75682 0.30712 0.0
C3724 C 0.04396 0.73526 0.11132 0.0
C3725 C 0.05073 0.74916 0.10039 0.0
C3726 C 0.04237 0.71639 0.10534 0.0
C3727 C 0.05802 0.68492 0.0702 0.0
H3728 H 0.02022 0.64687 0.08763 0.0
C3729 C 0.05554 0.60607 0.05468 0.0
C3730 C 0.03831 0.59251 0.05386 0.0
C3731 C 0.05711 0.62507 0.0603 0.0
C3732 C 0.03072 0.65715 0.08228 0.0
H3733 H 0.06274 0.75434 0.07531 0.0
H3734 H 0.05891 0.72143 0.06418 0.0
H3735 H 0.02196 0.67943 0.09619 0.0
H3736 H 0.00905 0.58848 0.05765 0.0
H3737 H 0.01139 0.62133 0.0664 0.0
H3738 H 0.06595 0.66259 0.05528 0.0
C3739 C 0.05481 0.7249 0.07748 0.0
C3740 C 0.03199 0.6761 0.08758 0.0
C3741 C 0.05664 0.74383 0.08364 0.0
C3742 C 0.02264 0.59848 0.0585 0.0
C3743 C 0.02406 0.61748 0.06365 0.0
C3744 C 0.05647 0.66594 0.06455 0.0
C3745 C 0.0476 0.71076 0.08821 0.0
C3746 C 0.04581 0.69039 0.08185 0.0
C3747 C 0.04136 0.63119 0.06479 0.0
C3748 C 0.04289 0.65164 0.0706 0.0
H3749 H 0.03991 0.73902 0.1246 0.0
H3750 H 0.03738 0.7063 0.11445 0.0
H3751 H 0.06906 0.69525 0.06556 0.0
H3752 H 0.06791 0.60195 0.05123 0.0
H3753 H 0.07081 0.63487 0.06127 0.0
C3754 C 0.05933 0.29592 0.89652 0.0
C3755 C 0.04977 0.28021 0.90405 0.0
C3756 C 0.07616 0.29638 0.88934 0.0
C3757 C 0.10132 0.26538 0.86752 0.0
H3758 H 0.1414 0.31117 0.87187 0.0
C3759 C 0.16666 0.27116 0.82811 0.0
C3760 C 0.17308 0.28784 0.82053 0.0
C3761 C 0.15294 0.26954 0.84015 0.0
C3762 C 0.13028 0.29829 0.87035 0.0
H3763 H 0.05069 0.25277 0.91038 0.0
H3764 H 0.08032 0.25347 0.89762 0.0
H3765 H 0.11579 0.30961 0.89051 0.0
H3766 H 0.17016 0.31599 0.82008 0.0
H3767 H 0.14608 0.31303 0.84055 0.0
H3768 H 0.11554 0.25423 0.84696 0.0
C3769 C 0.07468 0.26549 0.89737 0.0
C3770 C 0.11562 0.29738 0.88114 0.0
C3771 C 0.05785 0.26515 0.90486 0.0
C3772 C 0.16544 0.30284 0.8254 0.0
C3773 C 0.15177 0.30122 0.83741 0.0
C3774 C 0.11599 0.26631 0.85666 0.0
C3775 C 0.08388 0.28102 0.88925 0.0
C3776 C 0.10073 0.28105 0.87961 0.0
C3777 C 0.14531 0.28457 0.84499 0.0
C3778 C 0.13048 0.28293 0.85763 0.0
H3779 H 0.05343 0.30773 0.89564 0.0
H3780 H 0.08266 0.30848 0.88306 0.0
H3781 H 0.08999 0.25265 0.86583 0.0
H3782 H 0.17205 0.25924 0.82458 0.0
H3783 H 0.14845 0.25654 0.84578 0.0
C3784 C 0.55064 0.76325 0.91765 0.0
C3785 C 0.54281 0.76053 0.89918 0.0
C3786 C 0.54888 0.74819 0.92772 0.0
C3787 C 0.53821 0.69645 0.92387 0.0
H3788 H 0.52693 0.70487 0.9737 0.0
C3789 C 0.51977 0.63648 0.96908 0.0
C3790 C 0.52667 0.64069 0.98786 0.0
C3791 C 0.52167 0.65064 0.95777 0.0
C3792 C 0.53032 0.70228 0.95991 0.0
H3793 H 0.52735 0.73963 0.87671 0.0
H3794 H 0.52423 0.71322 0.89436 0.0
H3795 H 0.53056 0.73004 0.95485 0.0
H3796 H 0.54153 0.66318 0.00923 0.0
H3797 H 0.54491 0.68774 0.98962 0.0
H3798 H 0.53803 0.66865 0.92902 0.0
C3799 C 0.53184 0.72707 0.90101 0.0
C3800 C 0.53239 0.71677 0.94905 0.0
C3801 C 0.53359 0.74222 0.89089 0.0
C3802 C 0.5357 0.65942 0.99495 0.0
C3803 C 0.53763 0.67355 0.98365 0.0
C3804 C 0.53618 0.68192 0.93478 0.0
C3805 C 0.53921 0.72992 0.91966 0.0
C3806 C 0.53652 0.71413 0.93093 0.0
C3807 C 0.53056 0.66941 0.96491 0.0
C3808 C 0.53233 0.68468 0.95302 0.0
H3809 H 0.55794 0.77712 0.92449 0.0
H3810 H 0.55507 0.75091 0.94192 0.0
H3811 H 0.54154 0.69394 0.91004 0.0
H3812 H 0.51255 0.62226 0.96317 0.0
H3813 H 0.51583 0.6469 0.94349 0.0
C3814 C 0.07479 0.75477 0.71928 0.0
C3815 C 0.07067 0.76151 0.70279 0.0
C3816 C 0.09344 0.75591 0.72609 0.0
C3817 C 0.14022 0.75838 0.71173 0.0
H3818 H 0.15949 0.77878 0.76228 0.0
C3819 C 0.21416 0.75697 0.74605 0.0
C3820 C 0.22523 0.77409 0.75574 0.0
C3821 C 0.19511 0.75467 0.73974 0.0
C3822 C 0.15433 0.77301 0.74813 0.0
H3823 H 0.08271 0.77343 0.67979 0.0
H3824 H 0.11523 0.77526 0.69151 0.0
H3825 H 0.12674 0.77626 0.75093 0.0
H3826 H 0.22462 0.80208 0.76667 0.0
H3827 H 0.19152 0.79789 0.75608 0.0
H3828 H 0.16778 0.755 0.70895 0.0
C3829 C 0.10412 0.7695 0.69945 0.0
C3830 C 0.13551 0.77148 0.74166 0.0
C3831 C 0.08551 0.76855 0.69278 0.0
C3832 C 0.21663 0.7887 0.7592 0.0
C3833 C 0.19757 0.78628 0.75322 0.0
C3834 C 0.15894 0.75957 0.71829 0.0
C3835 C 0.10836 0.76328 0.71624 0.0
C3836 C 0.12825 0.76433 0.72332 0.0
C3837 C 0.18655 0.7693 0.7433 0.0
C3838 C 0.16631 0.76709 0.73653 0.0
H3839 H 0.06356 0.74844 0.72685 0.0
H3840 H 0.09615 0.75072 0.73892 0.0
H3841 H 0.13507 0.75267 0.69756 0.0
H3842 H 0.22029 0.74544 0.7431 0.0
H3843 H 0.18701 0.74137 0.73221 0.0
C3844 C 0.05383 0.36517 0.40927 0.0
C3845 C 0.04986 0.36442 0.39016 0.0
C3846 C 0.05395 0.38116 0.42118 0.0
C3847 C 0.03361 0.42144 0.42372 0.0
H3848 H 0.07039 0.44114 0.46659 0.0
C3849 C 0.03227 0.48834 0.47024 0.0
C3850 C 0.03701 0.48942 0.48926 0.0
C3851 C 0.03518 0.4739 0.45811 0.0
C3852 C 0.05983 0.43571 0.45484 0.0
H3853 H 0.04358 0.38045 0.36871 0.0
H3854 H 0.0437 0.40817 0.38944 0.0
H3855 H 0.07325 0.41467 0.4457 0.0
H3856 H 0.04875 0.47609 0.51035 0.0
H3857 H 0.05334 0.45064 0.4893 0.0
H3858 H 0.01982 0.44196 0.43296 0.0
C3859 C 0.04657 0.39629 0.39522 0.0
C3860 C 0.06154 0.42054 0.44279 0.0
C3861 C 0.04664 0.38039 0.3833 0.0
C3862 C 0.04502 0.47579 0.49579 0.0
C3863 C 0.04774 0.46119 0.48365 0.0
C3864 C 0.03179 0.43645 0.43583 0.0
C3865 C 0.04994 0.39679 0.41433 0.0
C3866 C 0.04846 0.41321 0.42705 0.0
C3867 C 0.04271 0.4599 0.4646 0.0
C3868 C 0.04487 0.44389 0.45159 0.0
H3869 H 0.05638 0.35321 0.41512 0.0
H3870 H 0.05652 0.381 0.43581 0.0
H3871 H 0.02308 0.41596 0.41193 0.0
H3872 H 0.02625 0.49868 0.46467 0.0
H3873 H 0.03152 0.47377 0.44357 0.0
C3874 C 0.43979 0.23787 0.19091 0.0
C3875 C 0.45842 0.24873 0.19644 0.0
C3876 C 0.42498 0.24067 0.20033 0.0
C3877 C 0.40972 0.27636 0.2283 0.0
H3878 H 0.3715 0.23427 0.23939 0.0
C3879 C 0.34569 0.28783 0.26353 0.0
C3880 C 0.32834 0.27415 0.2595 0.0
C3881 C 0.36211 0.28457 0.25741 0.0
C3882 C 0.38178 0.24626 0.23617 0.0
H3883 H 0.47585 0.27119 0.21647 0.0
H3884 H 0.44976 0.27644 0.23273 0.0
H3885 H 0.39889 0.22902 0.22622 0.0
H3886 H 0.31485 0.24621 0.24567 0.0
H3887 H 0.34307 0.24075 0.23441 0.0
H3888 H 0.39238 0.29359 0.23738 0.0
C3889 C 0.44677 0.26554 0.22112 0.0
C3890 C 0.39767 0.24321 0.22871 0.0
C3891 C 0.46176 0.26244 0.21189 0.0
C3892 C 0.32795 0.25704 0.24923 0.0
C3893 C 0.34431 0.25388 0.24282 0.0
C3894 C 0.39366 0.27941 0.23548 0.0
C3895 C 0.42814 0.2547 0.21541 0.0
C3896 C 0.41185 0.25819 0.22457 0.0
C3897 C 0.36175 0.26761 0.24672 0.0
C3898 C 0.37929 0.26441 0.23948 0.0
H3899 H 0.43652 0.22723 0.17907 0.0
H3900 H 0.41087 0.23216 0.19539 0.0
H3901 H 0.42019 0.28823 0.22507 0.0
H3902 H 0.34665 0.30115 0.27152 0.0
H3903 H 0.37512 0.29543 0.26121 0.0
C3904 C 0.59782 0.52805 0.34369 0.0
C3905 C 0.61752 0.53221 0.34484 0.0
C3906 C 0.58882 0.52645 0.35961 0.0
C3907 C 0.59705 0.51969 0.40883 0.0
H3908 H 0.5558 0.54197 0.41463 0.0
C3909 C 0.57095 0.53328 0.47937 0.0
C3910 C 0.55151 0.53044 0.47977 0.0
C3911 C 0.57835 0.53219 0.46262 0.0
C3912 C 0.56716 0.53546 0.41318 0.0
H3913 H 0.64307 0.53781 0.36391 0.0
H3914 H 0.62757 0.53524 0.39118 0.0
H3915 H 0.56929 0.54199 0.38578 0.0
H3916 H 0.52464 0.52387 0.46266 0.0
H3917 H 0.5375 0.52184 0.43369 0.0
H3918 H 0.59509 0.51338 0.43629 0.0
C3919 C 0.61895 0.53291 0.37807 0.0
C3920 C 0.57488 0.53544 0.39658 0.0
C3921 C 0.62788 0.53452 0.36229 0.0
C3922 C 0.53969 0.52621 0.46298 0.0
C3923 C 0.54708 0.52517 0.44628 0.0
C3924 C 0.58936 0.51975 0.42543 0.0
C3925 C 0.5993 0.52889 0.37704 0.0
C3926 C 0.59009 0.52774 0.39422 0.0
C3927 C 0.56653 0.5283 0.44582 0.0
C3928 C 0.57441 0.52777 0.42792 0.0
H3929 H 0.58935 0.5262 0.33055 0.0
H3930 H 0.57364 0.52321 0.35825 0.0
H3931 H 0.6085 0.51329 0.40745 0.0
H3932 H 0.58051 0.53665 0.49198 0.0
H3933 H 0.59342 0.53487 0.46284 0.0
C3934 C 0.25314 0.85508 0.03794 0.0
C3935 C 0.26568 0.87285 0.03866 0.0
C3936 C 0.25609 0.84323 0.05065 0.0
C3937 C 0.29377 0.83327 0.07951 0.0
H3938 H 0.25485 0.80874 0.10705 0.0
C3939 C 0.31009 0.80155 0.14416 0.0
C3940 C 0.29691 0.78604 0.14865 0.0
C3941 C 0.30614 0.80978 0.12875 0.0
C3942 C 0.26577 0.81513 0.09918 0.0
H3943 H 0.29084 0.8924 0.05347 0.0
H3944 H 0.29608 0.87159 0.07557 0.0
H3945 H 0.24763 0.8284 0.08456 0.0
H3946 H 0.26973 0.76629 0.13999 0.0
H3947 H 0.26294 0.78047 0.1127 0.0
H3948 H 0.31192 0.82003 0.09393 0.0
C3949 C 0.28402 0.86685 0.06514 0.0
C3950 C 0.26165 0.82649 0.08642 0.0
C3951 C 0.28093 0.87878 0.0526 0.0
C3952 C 0.28007 0.77834 0.1369 0.0
C3953 C 0.27616 0.78651 0.12136 0.0
C3954 C 0.29784 0.82176 0.09208 0.0
C3955 C 0.27178 0.84888 0.0641 0.0
C3956 C 0.27572 0.83595 0.07677 0.0
C3957 C 0.28897 0.80262 0.11739 0.0
C3958 C 0.28401 0.81288 0.10237 0.0
H3959 H 0.24124 0.85017 0.02734 0.0
H3960 H 0.24648 0.82943 0.04958 0.0
H3961 H 0.30476 0.84016 0.07195 0.0
H3962 H 0.32303 0.80805 0.15314 0.0
H3963 H 0.3162 0.82235 0.12633 0.0
C3964 C 0.94357 0.56938 0.85892 0.0
C3965 C 0.92431 0.56819 0.85837 0.0
C3966 C 0.95511 0.5733 0.87563 0.0
C3967 C 0.95022 0.56735 0.92366 0.0
H3968 H 1.0043 0.58816 0.93022 0.0
C3969 C 0.99408 0.56523 0.99034 0.0
C3970 C 0.00882 0.5568 0.98827 0.0
C3971 C 0.98552 0.57121 0.97545 0.0
C3972 C 0.98921 0.58235 0.92853 0.0
H3973 H 0.90245 0.57208 0.87466 0.0
H3974 H 0.92275 0.57968 0.90379 0.0
H3975 H 0.98564 0.59199 0.90253 0.0
H3976 H 0.02691 0.54908 0.96917 0.0
H3977 H 0.0117 0.55947 0.94292 0.0
H3978 H 0.95376 0.55756 0.94949 0.0
C3979 C 0.9288 0.57684 0.89138 0.0
C3980 C 0.97851 0.58451 0.91271 0.0
C3981 C 0.91717 0.5726 0.87469 0.0
C3982 C 0.01551 0.55541 0.97116 0.0
C3983 C 0.0069 0.56146 0.95618 0.0
C3984 C 0.96084 0.56541 0.93949 0.0
C3985 C 0.9477 0.57638 0.89213 0.0
C3986 C 0.95892 0.57668 0.90993 0.0
C3987 C 0.99151 0.56894 0.95814 0.0
C3988 C 0.98044 0.5726 0.94195 0.0
H3989 H 0.94954 0.56606 0.84659 0.0
H3990 H 0.96952 0.57265 0.87561 0.0
H3991 H 0.93527 0.5607 0.92187 0.0
H3992 H 0.98876 0.56684 1.0034 0.0
H3993 H 0.97386 0.57719 0.97736 0.0
C3994 C 0.2935 0.23403 0.57383 0.0
C3995 C 0.28721 0.21458 0.56846 0.0
C3996 C 0.29332 0.24171 0.59201 0.0
C3997 C 0.2909 0.22843 0.63915 0.0
H3998 H 0.27651 0.27447 0.64999 0.0
C3999 C 0.29673 0.26236 0.71347 0.0
C4000 C 0.2824 0.2702 0.71891 0.0
C4001 C 0.29768 0.25698 0.69501 0.0
C4002 C 0.28041 0.26152 0.6472 0.0
H4003 H 0.27582 0.18802 0.57808 0.0
H4004 H 0.27532 0.20125 0.60934 0.0
H4005 H 0.27764 0.26235 0.61816 0.0
H4006 H 0.2581 0.27901 0.70892 0.0
H4007 H 0.25946 0.26913 0.67643 0.0
H4008 H 0.29313 0.22714 0.66793 0.0
C4009 C 0.28072 0.21067 0.59975 0.0
C4010 C 0.28131 0.25469 0.62894 0.0
C4011 C 0.28093 0.20304 0.5817 0.0
C4012 C 0.26927 0.27296 0.70523 0.0
C4013 C 0.27013 0.26737 0.6866 0.0
C4014 C 0.28995 0.23519 0.6573 0.0
C4015 C 0.28688 0.23011 0.60522 0.0
C4016 C 0.28651 0.23798 0.62465 0.0
C4017 C 0.28421 0.25902 0.68127 0.0
C4018 C 0.28477 0.25187 0.66166 0.0
H4019 H 0.29834 0.24333 0.56396 0.0
H4020 H 0.29835 0.25672 0.59572 0.0
H4021 H 0.2952 0.21568 0.63652 0.0
H4022 H 0.30735 0.26031 0.72353 0.0
H4023 H 0.30906 0.25116 0.69153 0.0
C4024 C 0.58498 0.52134 0.23191 0.0
C4025 C 0.60458 0.52621 0.2366 0.0
C4026 C 0.57711 0.52192 0.214 0.0
C4027 C 0.58934 0.54364 0.17203 0.0
H4028 H 0.5446 0.50655 0.14806 0.0
C4029 C 0.55437 0.54954 0.09998 0.0
C4030 C 0.54806 0.53288 0.08765 0.0
C4031 C 0.56 0.5491 0.11858 0.0
C4032 C 0.55716 0.51701 0.15451 0.0
H4033 H 0.63123 0.53485 0.22587 0.0
H4034 H 0.61763 0.5355 0.19485 0.0
H4035 H 0.55707 0.50434 0.17923 0.0
H4036 H 0.54251 0.50265 0.08548 0.0
H4037 H 0.55241 0.50197 0.11753 0.0
H4038 H 0.58978 0.55602 0.14718 0.0
C4039 C 0.60825 0.53166 0.20501 0.0
C4040 C 0.56421 0.51584 0.1725 0.0
C4041 C 0.61607 0.5311 0.22282 0.0
C4042 C 0.54723 0.51581 0.09449 0.0
C4043 C 0.55281 0.51538 0.113 0.0
C4044 C 0.5823 0.54482 0.15407 0.0
C4045 C 0.58867 0.52741 0.20036 0.0
C4046 C 0.58055 0.52901 0.18145 0.0
C4047 C 0.55941 0.53201 0.12534 0.0
C4048 C 0.56622 0.53141 0.14494 0.0
H4049 H 0.57572 0.51762 0.24219 0.0
H4050 H 0.56198 0.51863 0.21099 0.0
H4051 H 0.60176 0.55425 0.17854 0.0
H4052 H 0.55517 0.56293 0.09526 0.0
H4053 H 0.56478 0.56219 0.12767 0.0
C4054 C 0.2442 0.90132 0.9263 0.0
C4055 C 0.23959 0.89408 0.94255 0.0
C4056 C 0.24014 0.88953 0.90962 0.0
C4057 C 0.23604 0.84031 0.89465 0.0
H4058 H 0.23141 0.85552 0.84632 0.0
C4059 C 0.24975 0.79674 0.83062 0.0
C4060 C 0.26221 0.80734 0.82012 0.0
C4061 C 0.24171 0.80563 0.84407 0.0
C4062 C 0.23262 0.85105 0.85974 0.0
H4063 H 0.22476 0.86951 0.95369 0.0
H4064 H 0.21723 0.84914 0.92454 0.0
H4065 H 0.22494 0.87466 0.87254 0.0
H4066 H 0.27564 0.83558 0.81521 0.0
H4067 H 0.26186 0.85094 0.83867 0.0
H4068 H 0.24444 0.81713 0.88202 0.0
C4069 C 0.22466 0.8637 0.92477 0.0
C4070 C 0.22892 0.862 0.87473 0.0
C4071 C 0.22891 0.8754 0.94146 0.0
C4072 C 0.26623 0.82696 0.82314 0.0
C4073 C 0.25812 0.83579 0.83643 0.0
C4074 C 0.23966 0.82935 0.87967 0.0
C4075 C 0.23116 0.87038 0.90887 0.0
C4076 C 0.23123 0.85709 0.89246 0.0
C4077 C 0.24585 0.82526 0.8471 0.0
C4078 C 0.23864 0.83496 0.86218 0.0
H4079 H 0.25221 0.9157 0.92662 0.0
H4080 H 0.24537 0.89518 0.89765 0.0
H4081 H 0.23826 0.83621 0.90812 0.0
H4082 H 0.24626 0.7816 0.82853 0.0
H4083 H 0.23226 0.79718 0.85209 0.0
C4084 C 0.91554 0.53776 0.73897 0.0
C4085 C 0.9263 0.54957 0.75438 0.0
C4086 C 0.92387 0.53394 0.72341 0.0
C4087 C 0.96596 0.5483 0.69999 0.0
H4088 H 0.95496 0.49514 0.68322 0.0
C4089 C 0.0092 0.5188 0.64975 0.0
C4090 C 0.99897 0.50525 0.63526 0.0
C4091 C 1.00038 0.52419 0.66445 0.0
C4092 C 0.95803 0.51004 0.68759 0.0
H4093 H 0.95385 0.56774 0.76513 0.0
H4094 H 0.96844 0.561 0.73789 0.0
H4095 H 0.93865 0.50609 0.70738 0.0
H4096 H 0.97176 0.48607 0.62523 0.0
H4097 H 0.95627 0.49568 0.65073 0.0
H4098 H 0.98534 0.55223 0.68017 0.0
C4099 C 0.95357 0.55472 0.73786 0.0
C4100 C 0.94865 0.51632 0.70139 0.0
C4101 C 0.94522 0.55854 0.75346 0.0
C4102 C 0.97995 0.49666 0.63613 0.0
C4103 C 0.97112 0.50207 0.6508 0.0
C4104 C 0.9753 0.54202 0.68612 0.0
C4105 C 0.94311 0.54187 0.72296 0.0
C4106 C 0.95253 0.5355 0.70773 0.0
C4107 C 0.98116 0.51615 0.66494 0.0
C4108 C 0.97146 0.52281 0.67982 0.0
H4109 H 0.90087 0.53078 0.73921 0.0
H4110 H 0.91541 0.52428 0.71195 0.0
H4111 H 0.96912 0.56317 0.70456 0.0
H4112 H 0.02384 0.52582 0.64937 0.0
H4113 H 0.00855 0.53485 0.67529 0.0
C4114 C 0.28988 0.22285 0.46199 0.0
C4115 C 0.28225 0.20333 0.46036 0.0
C4116 C 0.29114 0.23205 0.44628 0.0
C4117 C 0.26912 0.22642 0.39844 0.0
H4118 H 0.31509 0.26047 0.3888 0.0
C4119 C 0.27709 0.24674 0.32629 0.0
C4120 C 0.28651 0.26522 0.32439 0.0
C4121 C 0.27747 0.24041 0.34343 0.0
C4122 C 0.30204 0.25119 0.39135 0.0
H4123 H 0.27007 0.17835 0.44066 0.0
H4124 H 0.27207 0.19427 0.41383 0.0
H4125 H 0.31379 0.24803 0.41817 0.0
H4126 H 0.30414 0.2914 0.33917 0.0
H4127 H 0.30456 0.28045 0.36917 0.0
H4128 H 0.25721 0.2295 0.37191 0.0
C4129 C 0.27705 0.20252 0.42715 0.0
C4130 C 0.30132 0.24408 0.40822 0.0
C4131 C 0.27602 0.19337 0.44266 0.0
C4132 C 0.29678 0.27706 0.34008 0.0
C4133 C 0.29705 0.27074 0.35732 0.0
C4134 C 0.26978 0.23359 0.38174 0.0
C4135 C 0.2845 0.22196 0.42869 0.0
C4136 C 0.28495 0.2313 0.41179 0.0
C4137 C 0.28713 0.2524 0.35929 0.0
C4138 C 0.28635 0.24577 0.37773 0.0
H4139 H 0.29487 0.23099 0.47535 0.0
H4140 H 0.29695 0.24708 0.4479 0.0
H4141 H 0.25617 0.21687 0.40088 0.0
H4142 H 0.26919 0.23714 0.31452 0.0
H4143 H 0.27008 0.22605 0.34421 0.0
C4144 C 0.31201 0.62191 0.50373 0.0
C4145 C 0.3121 0.633 0.52033 0.0
C4146 C 0.32469 0.61106 0.50224 0.0
C4147 C 0.34833 0.5852 0.52983 0.0
H4148 H 0.37868 0.58261 0.49021 0.0
C4149 C 0.40322 0.54298 0.52931 0.0
C4150 C 0.40726 0.53553 0.51238 0.0
C4151 C 0.39044 0.55378 0.52998 0.0
C4152 C 0.37 0.58288 0.50117 0.0
H4153 H 0.32596 0.64212 0.54814 0.0
H4154 H 0.34799 0.62279 0.54559 0.0
H4155 H 0.36026 0.60541 0.49186 0.0
H4156 H 0.39998 0.5324 0.4829 0.0
H4157 H 0.37693 0.55041 0.4841 0.0
H4158 H 0.35747 0.56236 0.5389 0.0
C4159 C 0.33814 0.62264 0.53376 0.0
C4160 C 0.35965 0.59608 0.50219 0.0
C4161 C 0.32568 0.63377 0.53515 0.0
C4162 C 0.39716 0.53789 0.49617 0.0
C4163 C 0.38418 0.5485 0.49685 0.0
C4164 C 0.35843 0.57181 0.52867 0.0
C4165 C 0.33742 0.61089 0.51743 0.0
C4166 C 0.34887 0.59741 0.5166 0.0
C4167 C 0.38119 0.55713 0.51373 0.0
C4168 C 0.36949 0.57056 0.51439 0.0
H4169 H 0.3017 0.62112 0.49209 0.0
H4170 H 0.32388 0.60206 0.48953 0.0
H4171 H 0.3398 0.58578 0.54088 0.0
H4172 H 0.41051 0.5411 0.54206 0.0
H4173 H 0.38856 0.56024 0.54323 0.0
C4174 C 0.84828 0.89721 0.53403 0.0
C4175 C 0.83478 0.90447 0.54195 0.0
C4176 C 0.86691 0.90801 0.53574 0.0
C4177 C 0.90004 0.93823 0.529 0.0
H4178 H 0.92538 0.97394 0.57137 0.0
C4179 C 0.96829 0.00672 0.54709 0.0
C4180 C 0.98132 0.99937 0.53823 0.0
C4181 C 0.95068 0.99507 0.54907 0.0
C4182 C 0.91836 0.96417 0.55938 0.0
H4183 H 0.83027 0.92735 0.55986 0.0
H4184 H 0.8626 0.94655 0.56246 0.0
H4185 H 0.89473 0.95259 0.57304 0.0
H4186 H 0.98625 0.97386 0.5251 0.0
H4187 H 0.9559 0.95383 0.52863 0.0
H4188 H 0.92356 0.94977 0.51533 0.0
C4189 C 0.85901 0.93269 0.55475 0.0
C4190 C 0.90081 0.9519 0.56032 0.0
C4191 C 0.84042 0.92186 0.55304 0.0
C4192 C 0.97652 0.98013 0.53178 0.0
C4193 C 0.95905 0.96858 0.53374 0.0
C4194 C 0.9175 0.95043 0.52807 0.0
C4195 C 0.87237 0.92618 0.54558 0.0
C4196 C 0.89142 0.93875 0.54512 0.0
C4197 C 0.94582 0.97591 0.54218 0.0
C4198 C 0.92692 0.96348 0.54325 0.0
H4199 H 0.84427 0.88352 0.52592 0.0
H4200 H 0.87693 0.90225 0.52901 0.0
H4201 H 0.89315 0.92862 0.51687 0.0
H4202 H 0.97157 0.02146 0.55227 0.0
H4203 H 0.94071 1.00111 0.55559 0.0
C4204 C 0.91618 0.08805 0.26601 0.0
C4205 C 0.91804 0.07958 0.28191 0.0
C4206 C 0.90766 0.10284 0.26602 0.0
C4207 C 0.87223 0.11848 0.2901 0.0
H4208 H 0.88451 0.16221 0.26498 0.0
C4209 C 0.83012 0.17322 0.29595 0.0
C4210 C 0.82593 0.18107 0.28016 0.0
C4211 C 0.84286 0.16227 0.29623 0.0
C4212 C 0.88079 0.14996 0.27191 0.0
H4213 H 0.91415 0.08095 0.31063 0.0
H4214 H 0.89991 0.10695 0.31083 0.0
H4215 H 0.90523 0.14135 0.2654 0.0
H4216 H 0.8319 0.18356 0.25226 0.0
H4217 H 0.8539 0.16417 0.25262 0.0
H4218 H 0.84768 0.1266 0.2963 0.0
C4219 C 0.90447 0.10194 0.29821 0.0
C4220 C 0.8927 0.13806 0.27218 0.0
C4221 C 0.9128 0.08718 0.29815 0.0
C4222 C 0.83495 0.17785 0.2647 0.0
C4223 C 0.84762 0.16678 0.26493 0.0
C4224 C 0.86033 0.13025 0.28975 0.0
C4225 C 0.90095 0.10935 0.28197 0.0
C4226 C 0.88862 0.12227 0.28144 0.0
C4227 C 0.85165 0.15873 0.28067 0.0
C4228 C 0.86448 0.14623 0.28078 0.0
H4229 H 0.9199 0.08228 0.25325 0.0
H4230 H 0.90515 0.10827 0.25329 0.0
H4231 H 0.86837 0.10617 0.29694 0.0
H4232 H 0.8237 0.17572 0.3082 0.0
H4233 H 0.84589 0.15666 0.30873 0.0
C4234 C 0.71644 0.15435 0.05788 0.0
C4235 C 0.72896 0.14327 0.0599 0.0
C4236 C 0.69784 0.14767 0.06109 0.0
C4237 C 0.65846 0.1241 0.0511 0.0
H4238 H 0.64081 0.08393 0.07964 0.0
C4239 C 0.58992 0.06742 0.02747 0.0
C4240 C 0.57842 0.0607 0.04064 0.0
C4241 C 0.60778 0.07952 0.03288 0.0
C4242 C 0.64545 0.09528 0.07173 0.0
H4243 H 0.73319 0.11827 0.06985 0.0
H4244 H 0.70054 0.10588 0.07443 0.0
H4245 H 0.67297 0.10342 0.08667 0.0
H4246 H 0.57665 0.06131 0.06984 0.0
H4247 H 0.60776 0.08261 0.07923 0.0
H4248 H 0.63093 0.11602 0.03626 0.0
C4249 C 0.70471 0.11967 0.0703 0.0
C4250 C 0.66398 0.10636 0.07562 0.0
C4251 C 0.72337 0.12651 0.06728 0.0
C4252 C 0.58521 0.06619 0.05933 0.0
C4253 C 0.60306 0.07835 0.06474 0.0
C4254 C 0.63997 0.11313 0.04731 0.0
C4255 C 0.69145 0.12972 0.06628 0.0
C4256 C 0.67095 0.12048 0.0649 0.0
C4257 C 0.61449 0.08524 0.05156 0.0
C4258 C 0.63344 0.0982 0.05715 0.0
H4259 H 0.72081 0.16778 0.05297 0.0
H4260 H 0.68832 0.15624 0.05869 0.0
H4261 H 0.66315 0.13462 0.04231 0.0
H4262 H 0.58514 0.06339 0.01297 0.0
H4263 H 0.61641 0.08426 0.02238 0.0
C4264 C 0.19161 0.49734 0.26345 0.0
C4265 C 0.19798 0.51543 0.27325 0.0
C4266 C 0.20135 0.48397 0.26632 0.0
C4267 C 0.2479 0.47948 0.28438 0.0
H4268 H 0.22061 0.42765 0.28397 0.0
C4269 C 0.28251 0.42133 0.30369 0.0
C4270 C 0.27628 0.40424 0.29204 0.0
C4271 C 0.27366 0.43556 0.30158 0.0
C4272 C 0.22841 0.44206 0.28399 0.0
H4273 H 0.21933 0.5335 0.29409 0.0
H4274 H 0.23601 0.51004 0.29935 0.0
H4275 H 0.20331 0.45101 0.28042 0.0
H4276 H 0.25679 0.38909 0.26837 0.0
H4277 H 0.24129 0.4138 0.26487 0.0
H4278 H 0.27302 0.47042 0.28814 0.0
C4279 C 0.22376 0.50633 0.28915 0.0
C4280 C 0.21851 0.45543 0.28192 0.0
C4281 C 0.21411 0.51974 0.2862 0.0
C4282 C 0.26158 0.40193 0.27785 0.0
C4283 C 0.25271 0.41606 0.27582 0.0
C4284 C 0.25781 0.4661 0.28659 0.0
C4285 C 0.21758 0.48834 0.27914 0.0
C4286 C 0.22814 0.47426 0.28192 0.0
C4287 C 0.25844 0.43287 0.28784 0.0
C4288 C 0.24813 0.44726 0.28623 0.0
H4289 H 0.17931 0.4936 0.25329 0.0
H4290 H 0.19637 0.47031 0.2582 0.0
H4291 H 0.25574 0.49384 0.2842 0.0
H4292 H 0.29376 0.42345 0.31478 0.0
H4293 H 0.2783 0.44842 0.31105 0.0
C4294 C 0.22682 0.40465 0.04055 0.0
C4295 C 0.23739 0.4065 0.02572 0.0
C4296 C 0.21114 0.4119 0.0409 0.0
C4297 C 0.17748 0.42918 0.01172 0.0
H4298 H 0.17841 0.46387 0.05491 0.0
C4299 C 0.14014 0.48771 0.00941 0.0
C4300 C 0.13148 0.49266 0.02458 0.0
C4301 C 0.15098 0.47494 0.01022 0.0
C4302 C 0.17769 0.454 0.04285 0.0
H4303 H 0.23925 0.4163 0.99922 0.0
H4304 H 0.2119 0.42854 0.99968 0.0
H4305 H 0.20007 0.44413 0.05505 0.0
H4306 H 0.12763 0.48807 0.05261 0.0
H4307 H 0.14626 0.4655 0.05389 0.0
H4308 H 0.15538 0.43921 0.99937 0.0
C4309 C 0.21564 0.42164 0.01107 0.0
C4310 C 0.1901 0.44266 0.04296 0.0
C4311 C 0.23139 0.41471 0.01085 0.0
C4312 C 0.13394 0.48446 0.0406 0.0
C4313 C 0.14479 0.47165 0.0414 0.0
C4314 C 0.16503 0.44043 0.01163 0.0
C4315 C 0.2056 0.42077 0.02628 0.0
C4316 C 0.19046 0.43048 0.02722 0.0
C4317 C 0.15343 0.4667 0.0262 0.0
C4318 C 0.16531 0.45335 0.02703 0.0
H4319 H 0.23122 0.3985 0.05224 0.0
H4320 H 0.20359 0.41095 0.05277 0.0
H4321 H 0.17725 0.41974 0.99947 0.0
H4322 H 0.13837 0.49354 0.99677 0.0
H4323 H 0.15766 0.47172 0.99834 0.0
C4324 C 0.89173 0.97708 0.25572 0.0
C4325 C 0.90974 0.9814 0.26552 0.0
C4326 C 0.88 0.95887 0.2536 0.0
C4327 C 0.87965 0.90948 0.25636 0.0
H4328 H 0.82881 0.90465 0.26764 0.0
C4329 C 0.83342 0.83913 0.27076 0.0
C4330 C 0.81379 0.83516 0.26724 0.0
C4331 C 0.84481 0.85665 0.26872 0.0
C4332 C 0.84278 0.90555 0.26405 0.0
H4333 H 0.93035 0.97004 0.27948 0.0
H4334 H 0.90979 0.93814 0.27604 0.0
H4335 H 0.84912 0.93525 0.2659 0.0
H4336 H 0.79064 0.84615 0.25831 0.0
H4337 H 0.81046 0.87641 0.25365 0.0
H4338 H 0.8731 0.87967 0.2534 0.0
C4339 C 0.90461 0.9488 0.27008 0.0
C4340 C 0.85456 0.92327 0.26332 0.0
C4341 C 0.91634 0.96704 0.27218 0.0
C4342 C 0.80574 0.84894 0.2613 0.0
C4343 C 0.81717 0.86634 0.25876 0.0
C4344 C 0.86771 0.89166 0.25656 0.0
C4345 C 0.8862 0.94457 0.261 0.0
C4346 C 0.87327 0.92552 0.25998 0.0
C4347 C 0.83691 0.87055 0.26261 0.0
C4348 C 0.8492 0.88943 0.26085 0.0
H4349 H 0.88665 0.98784 0.24983 0.0
H4350 H 0.86604 0.95603 0.24623 0.0
H4351 H 0.89386 0.91068 0.2533 0.0
H4352 H 0.84 0.82881 0.27555 0.0
H4353 H 0.85981 0.85932 0.27233 0.0
C4354 C 0.65705 0.09573 0.7473 0.0
C4355 C 0.66866 0.08447 0.74207 0.0
C4356 C 0.66171 0.11458 0.74481 0.0
C4357 C 0.68365 0.15473 0.75399 0.0
H4358 H 0.71769 0.17509 0.72011 0.0
C4359 C 0.74079 0.22382 0.7738 0.0
C4360 C 0.74604 0.23526 0.76026 0.0
C4361 C 0.72791 0.20629 0.7691 0.0
C4362 C 0.70799 0.16975 0.72956 0.0
H4363 H 0.69222 0.08276 0.72753 0.0
H4364 H 0.70114 0.11571 0.72401 0.0
H4365 H 0.69907 0.1428 0.71357 0.0
H4366 H 0.74151 0.23761 0.73128 0.0
H4367 H 0.71875 0.20728 0.72319 0.0
H4368 H 0.69245 0.18178 0.76986 0.0
C4369 C 0.68846 0.11042 0.73008 0.0
C4370 C 0.69745 0.1511 0.72592 0.0
C4371 C 0.68366 0.09158 0.73244 0.0
C4372 C 0.73792 0.229 0.74201 0.0
C4373 C 0.72489 0.21159 0.73735 0.0
C4374 C 0.69402 0.17341 0.75752 0.0
C4375 C 0.67808 0.12241 0.73705 0.0
C4376 C 0.6858 0.14308 0.73853 0.0
C4377 C 0.71983 0.19995 0.7508 0.0
C4378 C 0.70686 0.18094 0.74572 0.0
H4379 H 0.6449 0.09019 0.75408 0.0
H4380 H 0.6529 0.12313 0.74966 0.0
H4381 H 0.67494 0.14922 0.76415 0.0
H4382 H 0.74685 0.22827 0.78797 0.0
H4383 H 0.72461 0.19754 0.77977 0.0
loop_
_geom_bond_atom_site_label_1
_geom_bond_atom_site_label_2
_geom_bond_distance
_geom_bond_site_symmetry_2
_ccdc_geom_bond_type
Mn0 O5 2.095 . S
Mn0 O15 2.162 . S
Mn0 O16 2.297 . S
Mn0 O24 2.385 1_455 S
Mn0 O25 2.209 . S
Mn0 O26 2.094 . S
Mn1 O6 2.121 . S
Mn1 N8 2.257 . S
Mn1 N17 2.282 . S
Mn1 O25 2.215 . S
Mn1 O27 2.117 . S
C2 O24 1.234 . S
C2 O25 1.283 1_655 S
C3 O15 1.281 . S
C3 O16 1.236 . S
C4 O26 1.240 . S
C4 O27 1.264 . S
O5 Mn0 2.095 . S
O5 C14 1.250 . S
O6 Mn1 2.121 . S
O6 C14 1.258 . S
C7 N8 1.326 . S
C7 C11 1.460 . S
C7 H13 0.929 . S
N8 Mn1 2.257 . S
N8 C7 1.326 . S
N8 C12 1.362 . S
C9 C10 1.258 1_655 S
C9 C12 1.431 1_655 S
C9 C29 1.449 . S
C10 C9 1.258 1_455 S
C10 C11 1.477 . S
C10 H30 0.931 1_455 S
C11 C7 1.460 . S
C11 C10 1.477 . S
C11 H31 0.930 . S
C12 N8 1.362 . S
C12 C9 1.431 1_455 S
C12 C22 1.476 1_455 S
H13 C7 0.929 . S
C14 O5 1.250 . S
C14 O6 1.258 . S
O15 Mn0 2.162 . S
O15 C3 1.281 . S
O16 Mn0 2.297 . S
O16 C3 1.236 . S
N17 Mn1 2.282 . S
N17 C18 1.328 1_455 S
N17 C22 1.318 1_455 S
C18 N17 1.328 1_655 S
C18 C19 1.457 . S
C18 H23 0.924 1_655 S
C19 C18 1.457 . S
C19 C20 1.291 . S
C19 H32 0.931 . S
C20 C19 1.291 . S
C20 C21 1.373 . S
C20 H33 0.929 . S
C21 C20 1.373 . S
C21 C22 1.396 . S
C21 C28 1.403 . S
C22 C12 1.476 1_655 S
C22 N17 1.318 1_655 S
C22 C21 1.396 . S
H23 C18 0.924 1_455 S
O24 Mn0 2.385 1_655 S
O24 C2 1.234 . S
O25 Mn0 2.209 . S
O25 Mn1 2.215 . S
O25 C2 1.283 1_455 S
O26 Mn0 2.094 . S
O26 C4 1.240 . S
O27 Mn1 2.117 . S
O27 C4 1.264 . S
C28 C21 1.403 . S
C28 C29 1.399 . S
C28 H34 0.929 . S
C29 C9 1.449 . S
C29 C28 1.399 . S
C29 H35 0.930 . S
H30 C10 0.931 1_655 S
H31 C11 0.930 . S
H32 C19 0.931 . S
H33 C20 0.929 . S
H34 C28 0.929 . S
H35 C29 0.930 . S
Mn36 O41 2.095 1_455 S
Mn36 O51 2.162 . S
Mn36 O52 2.297 . S
Mn36 O60 2.385 . S
Mn36 O61 2.209 . S
Mn36 O62 2.094 . S
Mn37 O42 2.119 1_455 S
Mn37 N44 2.257 . S
Mn37 N53 2.282 . S
Mn37 O61 2.215 . S
Mn37 O63 2.117 . S
C38 O60 1.234 . S
C38 O61 1.283 . S
C39 O51 1.281 . S
C39 O52 1.236 . S
C40 O62 1.240 . S
C40 O63 1.264 . S
O41 Mn36 2.095 1_655 S
O41 C50 1.250 . S
O42 Mn37 2.119 1_655 S
O42 C50 1.259 . S
C43 N44 1.326 . S
C43 C47 1.460 . S
C43 H49 0.929 . S
N44 Mn37 2.257 . S
N44 C43 1.326 . S
N44 C48 1.362 . S
C45 C46 1.258 . S
C45 C48 1.431 . S
C45 C65 1.449 . S
C46 C45 1.258 . S
C46 C47 1.477 . S
C46 H66 0.931 . S
C47 C43 1.460 . S
C47 C46 1.477 . S
C47 H67 0.930 . S
C48 N44 1.362 . S
C48 C45 1.431 . S
C48 C58 1.476 . S
H49 C43 0.929 . S
C50 O41 1.250 . S
C50 O42 1.259 . S
O51 Mn36 2.162 . S
O51 C39 1.281 . S
O52 Mn36 2.297 . S
O52 C39 1.236 . S
N53 Mn37 2.282 . S
N53 C54 1.328 . S
N53 C58 1.318 . S
C54 N53 1.328 . S
C54 C55 1.457 . S
C54 H59 0.929 . S
C55 C54 1.457 . S
C55 C56 1.291 . S
C55 H68 0.931 . S
C56 C55 1.291 . S
C56 C57 1.373 . S
C56 H69 0.929 . S
C57 C56 1.373 . S
C57 C58 1.396 . S
C57 C64 1.403 . S
C58 C48 1.476 . S
C58 N53 1.318 . S
C58 C57 1.396 . S
H59 C54 0.929 . S
O60 Mn36 2.385 . S
O60 C38 1.234 . S
O61 Mn36 2.209 . S
O61 Mn37 2.215 . S
O61 C38 1.283 . S
O62 Mn36 2.094 . S
O62 C40 1.240 . S
O63 Mn37 2.117 . S
O63 C40 1.264 . S
C64 C57 1.403 . S
C64 C65 1.399 . S
C64 H70 0.929 . S
C65 C45 1.449 . S
C65 C64 1.399 . S
C65 H71 0.930 . S
H66 C46 0.931 . S
H67 C47 0.930 . S
H68 C55 0.931 . S
H69 C56 0.929 . S
H70 C64 0.929 . S
H71 C65 0.930 . S
Mn72 O77 2.095 . S
Mn72 O87 2.162 . S
Mn72 O88 2.297 . S
Mn72 O96 2.385 . S
Mn72 O97 2.209 . S
Mn72 O98 2.094 . S
Mn73 O78 2.121 . S
Mn73 N80 2.257 . S
Mn73 N89 2.282 . S
Mn73 O97 2.215 . S
Mn73 O99 2.117 . S
C74 O96 1.234 . S
C74 O97 1.283 . S
C75 O87 1.281 . S
C75 O88 1.236 . S
C76 O98 1.240 . S
C76 O99 1.264 . S
O77 Mn72 2.095 . S
O77 C86 1.250 . S
O78 Mn73 2.121 . S
O78 C86 1.258 . S
C79 N80 1.326 . S
C79 C83 1.460 . S
C79 H85 0.929 . S
N80 Mn73 2.257 . S
N80 C79 1.326 . S
N80 C84 1.362 . S
C81 C82 1.258 . S
C81 C84 1.431 . S
C81 C101 1.449 . S
C82 C81 1.258 . S
C82 C83 1.477 . S
C82 H102 0.931 . S
C83 C79 1.460 . S
C83 C82 1.477 . S
C83 H103 0.930 . S
C84 N80 1.362 . S
C84 C81 1.431 . S
C84 C94 1.476 . S
H85 C79 0.929 . S
C86 O77 1.250 . S
C86 O78 1.258 . S
O87 Mn72 2.162 . S
O87 C75 1.281 . S
O88 Mn72 2.297 . S
O88 C75 1.236 . S
N89 Mn73 2.282 . S
N89 C90 1.328 . S
N89 C94 1.318 . S
C90 N89 1.328 . S
C90 C91 1.457 . S
C90 H95 0.929 . S
C91 C90 1.457 . S
C91 C92 1.291 . S
C91 H104 0.931 . S
C92 C91 1.291 . S
C92 C93 1.373 . S
C92 H105 0.929 . S
C93 C92 1.373 . S
C93 C94 1.396 . S
C93 C100 1.403 . S
C94 C84 1.476 . S
C94 N89 1.318 . S
C94 C93 1.396 . S
H95 C90 0.929 . S
O96 Mn72 2.385 . S
O96 C74 1.234 . S
O97 Mn72 2.209 . S
O97 Mn73 2.215 . S
O97 C74 1.283 . S
O98 Mn72 2.094 . S
O98 C76 1.240 . S
O99 Mn73 2.117 . S
O99 C76 1.264 . S
C100 C93 1.403 . S
C100 C101 1.399 . S
C100 H106 0.929 . S
C101 C81 1.449 . S
C101 C100 1.399 . S
C101 H107 0.930 . S
H102 C82 0.931 . S
H103 C83 0.930 . S
H104 C91 0.931 . S
H105 C92 0.929 . S
H106 C100 0.929 . S
H107 C101 0.930 . S
Mn108 O113 2.095 . S
Mn108 O123 2.162 . S
Mn108 O124 2.297 . S
Mn108 O132 2.385 . S
Mn108 O133 2.209 . S
Mn108 O134 2.094 . S
Mn109 O114 2.121 . S
Mn109 N116 2.257 . S
Mn109 N125 2.282 . S
Mn109 O133 2.215 . S
Mn109 O135 2.117 . S
C110 O132 1.234 . S
C110 O133 1.283 . S
C111 O123 1.281 . S
C111 O124 1.236 . S
C112 O134 1.240 . S
C112 O135 1.264 . S
O113 Mn108 2.095 . S
O113 C122 1.250 . S
O114 Mn109 2.121 . S
O114 C122 1.258 . S
C115 N116 1.326 . S
C115 C119 1.460 . S
C115 H121 0.929 . S
N116 Mn109 2.257 . S
N116 C115 1.326 . S
N116 C120 1.362 . S
C117 C118 1.258 . S
C117 C120 1.431 . S
C117 C137 1.449 . S
C118 C117 1.258 . S
C118 C119 1.477 . S
C118 H138 0.931 . S
C119 C115 1.460 . S
C119 C118 1.477 . S
C119 H139 0.930 . S
C120 N116 1.362 . S
C120 C117 1.431 . S
C120 C130 1.476 . S
H121 C115 0.929 . S
C122 O113 1.250 . S
C122 O114 1.258 . S
O123 Mn108 2.162 . S
O123 C111 1.281 . S
O124 Mn108 2.297 . S
O124 C111 1.236 . S
N125 Mn109 2.282 . S
N125 C126 1.328 . S
N125 C130 1.318 . S
C126 N125 1.328 . S
C126 C127 1.457 . S
C126 H131 0.929 . S
C127 C126 1.457 . S
C127 C128 1.291 . S
C127 H140 0.931 . S
C128 C127 1.291 . S
C128 C129 1.373 . S
C128 H141 0.929 . S
C129 C128 1.373 . S
C129 C130 1.396 . S
C129 C136 1.403 . S
C130 C120 1.476 . S
C130 N125 1.318 . S
C130 C129 1.396 . S
H131 C126 0.929 . S
O132 Mn108 2.385 . S
O132 C110 1.234 . S
O133 Mn108 2.209 . S
O133 Mn109 2.215 . S
O133 C110 1.283 . S
O134 Mn108 2.094 . S
O134 C112 1.240 . S
O135 Mn109 2.117 . S
O135 C112 1.264 . S
C136 C129 1.403 . S
C136 C137 1.399 . S
C136 H142 0.929 . S
C137 C117 1.449 . S
C137 C136 1.399 . S
C137 H143 0.930 . S
H138 C118 0.931 . S
H139 C119 0.930 . S
H140 C127 0.931 . S
H141 C128 0.929 . S
H142 C136 0.929 . S
H143 C137 0.930 . S
Mn144 O149 2.095 . S
Mn144 O159 2.162 . S
Mn144 O160 2.297 . S
Mn144 O168 2.385 . S
Mn144 O169 2.209 . S
Mn144 O170 2.094 . S
Mn145 O150 2.121 . S
Mn145 N152 2.257 . S
Mn145 N161 2.297 . S
Mn145 O169 2.215 . S
Mn145 O171 2.117 . S
C146 O168 1.234 . S
C146 O169 1.283 . S
C147 O159 1.281 . S
C147 O160 1.236 . S
C148 O170 1.240 . S
C148 O171 1.264 . S
O149 Mn144 2.095 . S
O149 C158 1.250 . S
O150 Mn145 2.121 . S
O150 C158 1.258 . S
C151 N152 1.326 . S
C151 C155 1.460 . S
C151 H157 0.929 . S
N152 Mn145 2.257 . S
N152 C151 1.326 . S
N152 C156 1.362 . S
C153 C154 1.258 . S
C153 C156 1.431 . S
C153 C173 1.449 1_455 S
C154 C153 1.258 . S
C154 C155 1.477 . S
C154 H174 0.931 1_554 S
C155 C151 1.460 . S
C155 C154 1.477 . S
C155 H175 0.930 . S
C156 N152 1.362 . S
C156 C153 1.431 . S
C156 C166 1.457 1_455 S
H157 C151 0.929 . S
C158 O149 1.250 . S
C158 O150 1.258 . S
O159 Mn144 2.162 . S
O159 C147 1.281 . S
O160 Mn144 2.297 . S
O160 C147 1.236 . S
N161 Mn145 2.297 . S
N161 C162 1.311 1_455 S
N161 C166 1.335 1_455 S
C162 N161 1.311 1_655 S
C162 C163 1.457 . S
C162 H167 0.929 . S
C163 C162 1.457 . S
C163 C164 1.291 . S
C163 H176 0.931 . S
C164 C163 1.291 . S
C164 C165 1.373 . S
C164 H177 0.929 . S
C165 C164 1.373 . S
C165 C166 1.410 . S
C165 C172 1.403 . S
C166 C156 1.457 1_655 S
C166 N161 1.335 1_655 S
C166 C165 1.410 . S
H167 C162 0.929 . S
O168 Mn144 2.385 . S
O168 C146 1.234 . S
O169 Mn144 2.209 . S
O169 Mn145 2.215 . S
O169 C146 1.283 . S
O170 Mn144 2.094 . S
O170 C148 1.240 . S
O171 Mn145 2.117 . S
O171 C148 1.264 . S
C172 C165 1.403 . S
C172 C173 1.399 . S
C172 H178 0.929 . S
C173 C153 1.449 1_655 S
C173 C172 1.399 . S
C173 H179 0.930 1_554 S
H174 C154 0.931 1_556 S
H175 C155 0.930 . S
H176 C163 0.931 . S
H177 C164 0.929 . S
H178 C172 0.929 . S
H179 C173 0.930 1_556 S
Mn180 O185 2.095 . S
Mn180 O195 2.162 . S
Mn180 O196 2.297 . S
Mn180 O204 2.385 . S
Mn180 O205 2.209 . S
Mn180 O206 2.094 . S
Mn181 O186 2.121 . S
Mn181 N188 2.257 . S
Mn181 N197 2.282 . S
Mn181 O205 2.215 . S
Mn181 O207 2.117 . S
C182 O204 1.234 . S
C182 O205 1.283 . S
C183 O195 1.281 . S
C183 O196 1.236 . S
C184 O206 1.240 . S
C184 O207 1.264 . S
O185 Mn180 2.095 . S
O185 C194 1.250 . S
O186 Mn181 2.121 . S
O186 C194 1.258 . S
C187 N188 1.326 . S
C187 C191 1.460 . S
C187 H193 0.929 . S
N188 Mn181 2.257 . S
N188 C187 1.326 . S
N188 C192 1.362 . S
C189 C190 1.258 . S
C189 C192 1.431 . S
C189 C209 1.449 . S
C190 C189 1.258 . S
C190 C191 1.477 . S
C190 H210 0.931 . S
C191 C187 1.460 . S
C191 C190 1.477 . S
C191 H211 0.930 . S
C192 N188 1.362 . S
C192 C189 1.431 . S
C192 C202 1.476 . S
H193 C187 0.929 . S
C194 O185 1.250 . S
C194 O186 1.258 . S
O195 Mn180 2.162 . S
O195 C183 1.281 . S
O196 Mn180 2.297 . S
O196 C183 1.236 . S
N197 Mn181 2.282 . S
N197 C198 1.328 . S
N197 C202 1.318 . S
C198 N197 1.328 . S
C198 C199 1.457 . S
C198 H203 0.929 . S
C199 C198 1.457 . S
C199 C200 1.291 . S
C199 H212 0.931 . S
C200 C199 1.291 . S
C200 C201 1.373 . S
C200 H213 0.929 . S
C201 C200 1.373 . S
C201 C202 1.396 . S
C201 C208 1.403 . S
C202 C192 1.476 . S
C202 N197 1.318 . S
C202 C201 1.396 . S
H203 C198 0.929 . S
O204 Mn180 2.385 . S
O204 C182 1.234 . S
O205 Mn180 2.209 . S
O205 Mn181 2.215 . S
O205 C182 1.283 . S
O206 Mn180 2.094 . S
O206 C184 1.240 . S
O207 Mn181 2.117 . S
O207 C184 1.264 . S
C208 C201 1.403 . S
C208 C209 1.399 . S
C208 H214 0.929 . S
C209 C189 1.449 . S
C209 C208 1.399 . S
C209 H215 0.930 . S
H210 C190 0.931 . S
H211 C191 0.930 . S
H212 C199 0.931 . S
H213 C200 0.929 . S
H214 C208 0.929 . S
H215 C209 0.930 . S
Mn216 O221 2.095 . S
Mn216 O231 2.162 . S
Mn216 O232 2.297 . S
Mn216 O240 2.385 . S
Mn216 O241 2.209 . S
Mn216 O242 2.094 . S
Mn217 O222 2.121 . S
Mn217 N224 2.257 . S
Mn217 N233 2.282 . S
Mn217 O241 2.215 . S
Mn217 O243 2.117 . S
C218 O240 1.234 . S
C218 O241 1.283 . S
C219 O231 1.281 . S
C219 O232 1.236 . S
C220 O242 1.240 . S
C220 O243 1.264 . S
O221 Mn216 2.095 . S
O221 C230 1.250 . S
O222 Mn217 2.121 . S
O222 C230 1.258 . S
C223 N224 1.326 . S
C223 C227 1.460 . S
C223 H229 0.929 . S
N224 Mn217 2.257 . S
N224 C223 1.326 . S
N224 C228 1.362 . S
C225 C226 1.258 . S
C225 C228 1.431 . S
C225 C245 1.449 . S
C226 C225 1.258 . S
C226 C227 1.477 . S
C226 H246 0.931 . S
C227 C223 1.460 . S
C227 C226 1.477 . S
C227 H247 0.930 . S
C228 N224 1.362 . S
C228 C225 1.431 . S
C228 C238 1.476 . S
H229 C223 0.929 . S
C230 O221 1.250 . S
C230 O222 1.258 . S
O231 Mn216 2.162 . S
O231 C219 1.281 . S
O232 Mn216 2.297 . S
O232 C219 1.236 . S
N233 Mn217 2.282 . S
N233 C234 1.328 . S
N233 C238 1.318 . S
C234 N233 1.328 . S
C234 C235 1.457 . S
C234 H239 0.929 . S
C235 C234 1.457 . S
C235 C236 1.291 . S
C235 H248 0.931 . S
C236 C235 1.291 . S
C236 C237 1.373 . S
C236 H249 0.929 . S
C237 C236 1.373 . S
C237 C238 1.396 . S
C237 C244 1.403 . S
C238 C228 1.476 . S
C238 N233 1.318 . S
C238 C237 1.396 . S
H239 C234 0.929 . S
O240 Mn216 2.385 . S
O240 C218 1.234 . S
O241 Mn216 2.209 . S
O241 Mn217 2.215 . S
O241 C218 1.283 . S
O242 Mn216 2.094 . S
O242 C220 1.240 . S
O243 Mn217 2.117 . S
O243 C220 1.264 . S
C244 C237 1.403 . S
C244 C245 1.399 . S
C244 H250 0.929 . S
C245 C225 1.449 . S
C245 C244 1.399 . S
C245 H251 0.930 . S
H246 C226 0.931 . S
H247 C227 0.930 . S
H248 C235 0.931 . S
H249 C236 0.929 . S
H250 C244 0.929 . S
H251 C245 0.930 . S
Mn252 O257 2.057 1_655 S
Mn252 O267 2.157 . S
Mn252 O268 2.292 . S
Mn252 O276 2.426 . S
Mn252 O277 2.227 . S
Mn252 O278 2.100 1_655 S
Mn253 O258 2.126 1_655 S
Mn253 N260 2.256 . S
Mn253 N269 2.277 . S
Mn253 O277 2.213 . S
Mn253 O279 2.117 1_655 S
C254 O276 1.234 . S
C254 O277 1.283 . S
C255 O267 1.281 . S
C255 O268 1.236 . S
C256 O278 1.240 . S
C256 O279 1.264 . S
O257 Mn252 2.057 1_455 S
O257 C266 1.250 . S
O258 Mn253 2.126 1_455 S
O258 C266 1.258 . S
C259 N260 1.326 . S
C259 C263 1.460 . S
C259 H265 0.929 1_655 S
N260 Mn253 2.256 . S
N260 C259 1.326 . S
N260 C264 1.362 . S
C261 C262 1.258 . S
C261 C264 1.431 . S
C261 C281 1.449 . S
C262 C261 1.258 . S
C262 C263 1.477 . S
C262 H282 0.931 . S
C263 C259 1.460 . S
C263 C262 1.477 . S
C263 H283 0.930 . S
C264 N260 1.362 . S
C264 C261 1.431 . S
C264 C274 1.476 . S
H265 C259 0.929 1_455 S
C266 O257 1.250 . S
C266 O258 1.258 . S
O267 Mn252 2.157 . S
O267 C255 1.281 . S
O268 Mn252 2.292 . S
O268 C255 1.236 . S
N269 Mn253 2.277 . S
N269 C270 1.328 . S
N269 C274 1.318 . S
C270 N269 1.328 . S
C270 C271 1.457 . S
C270 H275 0.929 . S
C271 C270 1.457 . S
C271 C272 1.291 . S
C271 H284 0.931 . S
C272 C271 1.291 . S
C272 C273 1.373 . S
C272 H285 0.929 . S
C273 C272 1.373 . S
C273 C274 1.396 . S
C273 C280 1.403 . S
C274 C264 1.476 . S
C274 N269 1.318 . S
C274 C273 1.396 . S
H275 C270 0.929 . S
O276 Mn252 2.426 . S
O276 C254 1.234 . S
O277 Mn252 2.227 . S
O277 Mn253 2.213 . S
O277 C254 1.283 . S
O278 Mn252 2.100 1_455 S
O278 C256 1.240 . S
O279 Mn253 2.117 1_455 S
O279 C256 1.264 . S
C280 C273 1.403 . S
C280 C281 1.399 . S
C280 H286 0.929 . S
C281 C261 1.449 . S
C281 C280 1.399 . S
C281 H287 0.930 . S
H282 C262 0.931 . S
H283 C263 0.930 . S
H284 C271 0.931 . S
H285 C272 0.929 . S
H286 C280 0.929 . S
H287 C281 0.930 . S
Mn288 O293 2.095 . S
Mn288 O303 2.162 . S
Mn288 O304 2.294 . S
Mn288 O312 2.385 1_545 S
Mn288 O313 2.209 1_545 S
Mn288 O314 2.094 . S
Mn289 O294 2.121 1_565 S
Mn289 N296 2.257 . S
Mn289 N305 2.282 . S
Mn289 O313 2.215 . S
Mn289 O315 2.117 1_565 S
C290 O312 1.234 . S
C290 O313 1.283 . S
C291 O303 1.281 . S
C291 O304 1.236 . S
C292 O314 1.240 . S
C292 O315 1.264 . S
O293 Mn288 2.095 . S
O293 C302 1.250 . S
O294 Mn289 2.121 1_545 S
O294 C302 1.258 . S
C295 N296 1.326 . S
C295 C299 1.460 . S
C295 H301 0.929 1_565 S
N296 Mn289 2.257 . S
N296 C295 1.326 . S
N296 C300 1.362 . S
C297 C298 1.258 . S
C297 C300 1.431 . S
C297 C317 1.449 . S
C298 C297 1.258 . S
C298 C299 1.477 . S
C298 H318 0.931 . S
C299 C295 1.460 . S
C299 C298 1.477 . S
C299 H319 0.930 . S
C300 N296 1.362 . S
C300 C297 1.431 . S
C300 C310 1.476 . S
H301 C295 0.929 1_545 S
C302 O293 1.250 . S
C302 O294 1.258 . S
O303 Mn288 2.162 . S
O303 C291 1.281 . S
O304 Mn288 2.294 . S
O304 C291 1.236 . S
N305 Mn289 2.282 . S
N305 C306 1.328 . S
N305 C310 1.318 . S
C306 N305 1.328 . S
C306 C307 1.457 . S
C306 H311 0.929 . S
C307 C306 1.457 . S
C307 C308 1.291 . S
C307 H320 0.931 . S
C308 C307 1.291 . S
C308 C309 1.373 . S
C308 H321 0.929 . S
C309 C308 1.373 . S
C309 C310 1.396 . S
C309 C316 1.403 . S
C310 C300 1.476 . S
C310 N305 1.318 . S
C310 C309 1.396 . S
H311 C306 0.929 . S
O312 Mn288 2.385 1_565 S
O312 C290 1.234 . S
O313 Mn288 2.209 1_565 S
O313 Mn289 2.215 . S
O313 C290 1.283 . S
O314 Mn288 2.094 . S
O314 C292 1.240 . S
O315 Mn289 2.117 1_545 S
O315 C292 1.264 . S
C316 C309 1.403 . S
C316 C317 1.399 . S
C316 H322 0.929 . S
C317 C297 1.449 . S
C317 C316 1.399 . S
C317 H323 0.930 . S
H318 C298 0.931 . S
H319 C299 0.930 . S
H320 C307 0.931 . S
H321 C308 0.929 . S
H322 C316 0.929 . S
H323 C317 0.930 . S
Mn324 O329 2.095 . S
Mn324 O339 2.162 . S
Mn324 O340 2.297 . S
Mn324 O348 2.385 . S
Mn324 O349 2.209 . S
Mn324 O350 2.094 . S
Mn325 O330 2.121 . S
Mn325 N332 2.257 . S
Mn325 N341 2.282 . S
Mn325 O349 2.215 . S
Mn325 O351 2.117 . S
C326 O348 1.234 . S
C326 O349 1.283 . S
C327 O339 1.281 . S
C327 O340 1.236 . S
C328 O350 1.240 . S
C328 O351 1.264 . S
O329 Mn324 2.095 . S
O329 C338 1.250 . S
O330 Mn325 2.121 . S
O330 C338 1.258 . S
C331 N332 1.326 . S
C331 C335 1.460 . S
C331 H337 0.929 . S
N332 Mn325 2.257 . S
N332 C331 1.326 . S
N332 C336 1.362 . S
C333 C334 1.258 . S
C333 C336 1.431 . S
C333 C353 1.449 . S
C334 C333 1.258 . S
C334 C335 1.477 . S
C334 H354 0.931 . S
C335 C331 1.460 . S
C335 C334 1.477 . S
C335 H355 0.930 . S
C336 N332 1.362 . S
C336 C333 1.431 . S
C336 C346 1.476 . S
H337 C331 0.929 . S
C338 O329 1.250 . S
C338 O330 1.258 . S
O339 Mn324 2.162 . S
O339 C327 1.281 . S
O340 Mn324 2.297 . S
O340 C327 1.236 . S
N341 Mn325 2.282 . S
N341 C342 1.328 . S
N341 C346 1.318 . S
C342 N341 1.328 . S
C342 C343 1.457 . S
C342 H347 0.929 . S
C343 C342 1.457 . S
C343 C344 1.291 . S
C343 H356 0.931 . S
C344 C343 1.291 . S
C344 C345 1.373 . S
C344 H357 0.929 . S
C345 C344 1.373 . S
C345 C346 1.396 . S
C345 C352 1.403 . S
C346 C336 1.476 . S
C346 N341 1.318 . S
C346 C345 1.396 . S
H347 C342 0.929 . S
O348 Mn324 2.385 . S
O348 C326 1.234 . S
O349 Mn324 2.209 . S
O349 Mn325 2.215 . S
O349 C326 1.283 . S
O350 Mn324 2.094 . S
O350 C328 1.240 . S
O351 Mn325 2.117 . S
O351 C328 1.264 . S
C352 C345 1.403 . S
C352 C353 1.399 . S
C352 H358 0.929 . S
C353 C333 1.449 . S
C353 C352 1.399 . S
C353 H359 0.930 . S
H354 C334 0.931 . S
H355 C335 0.930 . S
H356 C343 0.931 . S
H357 C344 0.929 . S
H358 C352 0.929 . S
H359 C353 0.930 . S
Mn360 O365 2.095 . S
Mn360 O375 2.162 . S
Mn360 O376 2.297 . S
Mn360 O384 2.385 . S
Mn360 O385 2.209 . S
Mn360 O386 2.094 . S
Mn361 O366 2.121 . S
Mn361 N368 2.257 . S
Mn361 N377 2.282 . S
Mn361 O385 2.215 . S
Mn361 O387 2.117 . S
C362 O384 1.234 . S
C362 O385 1.283 . S
C363 O375 1.281 . S
C363 O376 1.236 . S
C364 O386 1.240 . S
C364 O387 1.264 . S
O365 Mn360 2.095 . S
O365 C374 1.250 . S
O366 Mn361 2.121 . S
O366 C374 1.258 . S
C367 N368 1.326 . S
C367 C371 1.460 . S
C367 H373 0.929 . S
N368 Mn361 2.257 . S
N368 C367 1.326 . S
N368 C372 1.362 . S
C369 C370 1.258 . S
C369 C372 1.431 . S
C369 C389 1.449 . S
C370 C369 1.258 . S
C370 C371 1.477 . S
C370 H390 0.931 . S
C371 C367 1.460 . S
C371 C370 1.477 . S
C371 H391 0.930 . S
C372 N368 1.362 . S
C372 C369 1.431 . S
C372 C382 1.476 . S
H373 C367 0.929 . S
C374 O365 1.250 . S
C374 O366 1.258 . S
O375 Mn360 2.162 . S
O375 C363 1.281 . S
O376 Mn360 2.297 . S
O376 C363 1.236 . S
N377 Mn361 2.282 . S
N377 C378 1.328 . S
N377 C382 1.318 . S
C378 N377 1.328 . S
C378 C379 1.457 . S
C378 H383 0.929 . S
C379 C378 1.457 . S
C379 C380 1.291 . S
C379 H392 0.931 . S
C380 C379 1.291 . S
C380 C381 1.373 . S
C380 H393 0.929 . S
C381 C380 1.373 . S
C381 C382 1.396 . S
C381 C388 1.403 . S
C382 C372 1.476 . S
C382 N377 1.318 . S
C382 C381 1.396 . S
H383 C378 0.929 . S
O384 Mn360 2.385 . S
O384 C362 1.234 . S
O385 Mn360 2.209 . S
O385 Mn361 2.215 . S
O385 C362 1.283 . S
O386 Mn360 2.094 . S
O386 C364 1.240 . S
O387 Mn361 2.117 . S
O387 C364 1.264 . S
C388 C381 1.403 . S
C388 C389 1.399 . S
C388 H394 0.929 . S
C389 C369 1.449 . S
C389 C388 1.399 . S
C389 H395 0.930 . S
H390 C370 0.931 . S
H391 C371 0.930 . S
H392 C379 0.931 . S
H393 C380 0.929 . S
H394 C388 0.929 . S
H395 C389 0.930 . S
Mn396 O401 2.095 1_554 S
Mn396 O411 2.162 . S
Mn396 O412 2.297 . S
Mn396 O420 2.385 . S
Mn396 O421 2.207 1_554 S
Mn396 O422 2.094 1_554 S
Mn397 O402 2.121 . S
Mn397 N404 2.257 . S
Mn397 N413 2.282 . S
Mn397 O421 2.220 . S
Mn397 O423 2.117 . S
C398 O420 1.234 . S
C398 O421 1.282 1_554 S
C399 O411 1.281 . S
C399 O412 1.236 . S
C400 O422 1.240 . S
C400 O423 1.264 . S
O401 Mn396 2.095 1_556 S
O401 C410 1.250 . S
O402 Mn397 2.121 . S
O402 C410 1.258 . S
C403 N404 1.326 . S
C403 C407 1.460 . S
C403 H409 0.929 . S
N404 Mn397 2.257 . S
N404 C403 1.326 . S
N404 C408 1.362 . S
C405 C406 1.303 . S
C405 C408 1.431 . S
C405 C425 1.449 . S
C406 C405 1.303 . S
C406 C407 1.486 . S
C406 H426 0.879 1_565 S
C407 C403 1.460 . S
C407 C406 1.486 . S
C407 H427 0.930 1_565 S
C408 N404 1.362 . S
C408 C405 1.431 . S
C408 C418 1.476 . S
H409 C403 0.929 . S
C410 O401 1.250 . S
C410 O402 1.258 . S
O411 Mn396 2.162 . S
O411 C399 1.281 . S
O412 Mn396 2.297 . S
O412 C399 1.236 . S
N413 Mn397 2.282 . S
N413 C414 1.328 . S
N413 C418 1.318 . S
C414 N413 1.328 . S
C414 C415 1.457 . S
C414 H419 0.929 . S
C415 C414 1.457 . S
C415 C416 1.291 . S
C415 H428 0.931 . S
C416 C415 1.291 . S
C416 C417 1.373 . S
C416 H429 0.929 . S
C417 C416 1.373 . S
C417 C418 1.396 . S
C417 C424 1.403 . S
C418 C408 1.476 . S
C418 N413 1.318 . S
C418 C417 1.396 . S
H419 C414 0.929 . S
O420 Mn396 2.385 . S
O420 C398 1.234 . S
O421 Mn396 2.207 1_556 S
O421 Mn397 2.220 . S
O421 C398 1.282 1_556 S
O422 Mn396 2.094 1_556 S
O422 C400 1.240 . S
O423 Mn397 2.117 . S
O423 C400 1.264 . S
C424 C417 1.403 . S
C424 C425 1.399 . S
C424 H430 0.929 . S
C425 C405 1.449 . S
C425 C424 1.399 . S
C425 H431 0.930 1_565 S
H426 C406 0.879 1_545 S
H427 C407 0.930 1_545 S
H428 C415 0.931 . S
H429 C416 0.929 . S
H430 C424 0.929 . S
H431 C425 0.930 1_545 S
Mn432 O437 2.095 . S
Mn432 O447 2.162 . S
Mn432 O448 2.297 . S
Mn432 O456 2.385 . S
Mn432 O457 2.209 . S
Mn432 O458 2.094 . S
Mn433 O438 2.129 . S
Mn433 N440 2.258 . S
Mn433 N449 2.275 1_554 S
Mn433 O457 2.227 . S
Mn433 O459 2.112 1_554 S
C434 O456 1.234 . S
C434 O457 1.283 . S
C435 O447 1.281 . S
C435 O448 1.236 . S
C436 O458 1.240 1_556 S
C436 O459 1.264 . S
O437 Mn432 2.095 . S
O437 C446 1.250 . S
O438 Mn433 2.129 . S
O438 C446 1.258 . S
C439 N440 1.326 . S
C439 C443 1.460 . S
C439 H445 0.929 . S
N440 Mn433 2.258 . S
N440 C439 1.326 . S
N440 C444 1.362 . S
C441 C442 1.258 . S
C441 C444 1.431 . S
C441 C461 1.449 1_554 S
C442 C441 1.258 . S
C442 C443 1.477 . S
C442 H462 0.931 . S
C443 C439 1.460 . S
C443 C442 1.477 . S
C443 H463 0.930 . S
C444 N440 1.362 . S
C444 C441 1.431 . S
C444 C454 1.476 1_554 S
H445 C439 0.929 . S
C446 O437 1.250 . S
C446 O438 1.258 . S
O447 Mn432 2.162 . S
O447 C435 1.281 . S
O448 Mn432 2.297 . S
O448 C435 1.236 . S
N449 Mn433 2.275 1_556 S
N449 C450 1.328 . S
N449 C454 1.318 . S
C450 N449 1.328 . S
C450 C451 1.457 . S
C450 H455 0.929 . S
C451 C450 1.457 . S
C451 C452 1.291 . S
C451 H464 0.931 . S
C452 C451 1.291 . S
C452 C453 1.373 . S
C452 H465 0.929 . S
C453 C452 1.373 . S
C453 C454 1.396 . S
C453 C460 1.403 . S
C454 C444 1.476 1_556 S
C454 N449 1.318 . S
C454 C453 1.396 . S
H455 C450 0.929 . S
O456 Mn432 2.385 . S
O456 C434 1.234 . S
O457 Mn432 2.209 . S
O457 Mn433 2.227 . S
O457 C434 1.283 . S
O458 Mn432 2.094 . S
O458 C436 1.240 1_554 S
O459 Mn433 2.112 1_556 S
O459 C436 1.264 . S
C460 C453 1.403 . S
C460 C461 1.399 . S
C460 H466 0.929 . S
C461 C441 1.449 1_556 S
C461 C460 1.399 . S
C461 H467 0.930 . S
H462 C442 0.931 . S
H463 C443 0.930 . S
H464 C451 0.931 . S
H465 C452 0.929 . S
H466 C460 0.929 . S
H467 C461 0.930 . S
Mn468 O473 2.095 . S
Mn468 O483 2.162 . S
Mn468 O484 2.297 . S
Mn468 O492 2.385 . S
Mn468 O493 2.209 . S
Mn468 O494 2.094 . S
Mn469 O474 2.121 . S
Mn469 N476 2.257 . S
Mn469 N485 2.282 . S
Mn469 O493 2.215 . S
Mn469 O495 2.117 . S
C470 O492 1.234 . S
C470 O493 1.283 . S
C471 O483 1.281 . S
C471 O484 1.236 . S
C472 O494 1.240 . S
C472 O495 1.264 . S
O473 Mn468 2.095 . S
O473 C482 1.250 . S
O474 Mn469 2.121 . S
O474 C482 1.258 . S
C475 N476 1.326 . S
C475 C479 1.460 . S
C475 H481 0.929 . S
N476 Mn469 2.257 . S
N476 C475 1.326 . S
N476 C480 1.362 . S
C477 C478 1.258 . S
C477 C480 1.431 . S
C477 C497 1.449 1_554 S
C478 C477 1.258 . S
C478 C479 1.477 . S
C478 H498 0.931 . S
C479 C475 1.460 . S
C479 C478 1.477 . S
C479 H499 0.930 . S
C480 N476 1.362 . S
C480 C477 1.431 . S
C480 C490 1.448 1_554 S
H481 C475 0.929 . S
C482 O473 1.250 . S
C482 O474 1.258 . S
O483 Mn468 2.162 . S
O483 C471 1.281 . S
O484 Mn468 2.297 . S
O484 C471 1.236 . S
N485 Mn469 2.282 . S
N485 C486 1.328 1_554 S
N485 C490 1.326 1_554 S
C486 N485 1.328 1_556 S
C486 C487 1.457 . S
C486 H491 0.929 . S
C487 C486 1.457 . S
C487 C488 1.291 . S
C487 H500 0.931 . S
C488 C487 1.291 . S
C488 C489 1.373 . S
C488 H501 0.929 . S
C489 C488 1.373 . S
C489 C490 1.419 . S
C489 C496 1.403 . S
C490 C480 1.448 1_556 S
C490 N485 1.326 1_556 S
C490 C489 1.419 . S
H491 C486 0.929 . S
O492 Mn468 2.385 . S
O492 C470 1.234 . S
O493 Mn468 2.209 . S
O493 Mn469 2.215 . S
O493 C470 1.283 . S
O494 Mn468 2.094 . S
O494 C472 1.240 . S
O495 Mn469 2.117 . S
O495 C472 1.264 . S
C496 C489 1.403 . S
C496 C497 1.399 . S
C496 H502 0.929 . S
C497 C477 1.449 1_556 S
C497 C496 1.399 . S
C497 H503 0.930 . S
H498 C478 0.931 . S
H499 C479 0.930 . S
H500 C487 0.931 . S
H501 C488 0.929 . S
H502 C496 0.929 . S
H503 C497 0.930 . S
Mn504 O509 2.095 . S
Mn504 O519 2.162 . S
Mn504 O520 2.297 . S
Mn504 O528 2.385 . S
Mn504 O529 2.209 . S
Mn504 O530 2.094 . S
Mn505 O510 2.121 . S
Mn505 N512 2.257 . S
Mn505 N521 2.282 . S
Mn505 O529 2.215 . S
Mn505 O531 2.117 . S
C506 O528 1.234 . S
C506 O529 1.283 . S
C507 O519 1.281 . S
C507 O520 1.236 . S
C508 O530 1.240 . S
C508 O531 1.264 . S
O509 Mn504 2.095 . S
O509 C518 1.250 . S
O510 Mn505 2.121 . S
O510 C518 1.258 . S
C511 N512 1.326 . S
C511 C515 1.460 . S
C511 H517 0.929 . S
N512 Mn505 2.257 . S
N512 C511 1.326 . S
N512 C516 1.362 . S
C513 C514 1.258 . S
C513 C516 1.431 . S
C513 C533 1.449 . S
C514 C513 1.258 . S
C514 C515 1.477 . S
C514 H534 0.931 . S
C515 C511 1.460 . S
C515 C514 1.477 . S
C515 H535 0.930 . S
C516 N512 1.362 . S
C516 C513 1.431 . S
C516 C526 1.476 . S
H517 C511 0.929 . S
C518 O509 1.250 . S
C518 O510 1.258 . S
O519 Mn504 2.162 . S
O519 C507 1.281 . S
O520 Mn504 2.297 . S
O520 C507 1.236 . S
N521 Mn505 2.282 . S
N521 C522 1.328 . S
N521 C526 1.318 . S
C522 N521 1.328 . S
C522 C523 1.457 . S
C522 H527 0.929 . S
C523 C522 1.457 . S
C523 C524 1.291 . S
C523 H536 0.931 . S
C524 C523 1.291 . S
C524 C525 1.373 . S
C524 H537 0.929 . S
C525 C524 1.373 . S
C525 C526 1.396 . S
C525 C532 1.403 . S
C526 C516 1.476 . S
C526 N521 1.318 . S
C526 C525 1.396 . S
H527 C522 0.929 . S
O528 Mn504 2.385 . S
O528 C506 1.234 . S
O529 Mn504 2.209 . S
O529 Mn505 2.215 . S
O529 C506 1.283 . S
O530 Mn504 2.094 . S
O530 C508 1.240 . S
O531 Mn505 2.117 . S
O531 C508 1.264 . S
C532 C525 1.403 . S
C532 C533 1.399 . S
C532 H538 0.929 . S
C533 C513 1.449 . S
C533 C532 1.399 . S
C533 H539 0.930 . S
H534 C514 0.931 . S
H535 C515 0.930 . S
H536 C523 0.931 . S
H537 C524 0.929 . S
H538 C532 0.929 . S
H539 C533 0.930 . S
Mn540 O545 2.095 . S
Mn540 O555 2.162 . S
Mn540 O556 2.297 . S
Mn540 O564 2.385 . S
Mn540 O565 2.209 . S
Mn540 O566 2.094 . S
Mn541 O546 2.121 . S
Mn541 N548 2.257 . S
Mn541 N557 2.282 . S
Mn541 O565 2.215 . S
Mn541 O567 2.117 . S
C542 O564 1.234 . S
C542 O565 1.283 . S
C543 O555 1.281 . S
C543 O556 1.236 . S
C544 O566 1.240 . S
C544 O567 1.264 . S
O545 Mn540 2.095 . S
O545 C554 1.250 . S
O546 Mn541 2.121 . S
O546 C554 1.258 . S
C547 N548 1.326 . S
C547 C551 1.460 . S
C547 H553 0.929 . S
N548 Mn541 2.257 . S
N548 C547 1.326 . S
N548 C552 1.362 . S
C549 C550 1.258 . S
C549 C552 1.431 . S
C549 C569 1.449 . S
C550 C549 1.258 . S
C550 C551 1.477 . S
C550 H570 0.931 . S
C551 C547 1.460 . S
C551 C550 1.477 . S
C551 H571 0.930 . S
C552 N548 1.362 . S
C552 C549 1.431 . S
C552 C562 1.476 . S
H553 C547 0.929 . S
C554 O545 1.250 . S
C554 O546 1.258 . S
O555 Mn540 2.162 . S
O555 C543 1.281 . S
O556 Mn540 2.297 . S
O556 C543 1.236 . S
N557 Mn541 2.282 . S
N557 C558 1.328 . S
N557 C562 1.318 . S
C558 N557 1.328 . S
C558 C559 1.457 . S
C558 H563 0.929 . S
C559 C558 1.457 . S
C559 C560 1.291 . S
C559 H572 0.931 . S
C560 C559 1.291 . S
C560 C561 1.373 . S
C560 H573 0.929 . S
C561 C560 1.373 . S
C561 C562 1.396 . S
C561 C568 1.403 . S
C562 C552 1.476 . S
C562 N557 1.318 . S
C562 C561 1.396 . S
H563 C558 0.929 . S
O564 Mn540 2.385 . S
O564 C542 1.234 . S
O565 Mn540 2.209 . S
O565 Mn541 2.215 . S
O565 C542 1.283 . S
O566 Mn540 2.094 . S
O566 C544 1.240 . S
O567 Mn541 2.117 . S
O567 C544 1.264 . S
C568 C561 1.403 . S
C568 C569 1.399 . S
C568 H574 0.929 . S
C569 C549 1.449 . S
C569 C568 1.399 . S
C569 H575 0.930 . S
H570 C550 0.931 . S
H571 C551 0.930 . S
H572 C559 0.931 . S
H573 C560 0.929 . S
H574 C568 0.929 . S
H575 C569 0.930 . S
Mn576 O581 2.095 . S
Mn576 O591 2.162 . S
Mn576 O592 2.297 . S
Mn576 O600 2.385 1_545 S
Mn576 O601 2.209 . S
Mn576 O602 2.094 . S
Mn577 O582 2.121 . S
Mn577 N584 2.257 . S
Mn577 N593 2.282 1_545 S
Mn577 O601 2.215 . S
Mn577 O603 2.117 . S
C578 O600 1.234 . S
C578 O601 1.283 1_565 S
C579 O591 1.281 . S
C579 O592 1.236 . S
C580 O602 1.240 . S
C580 O603 1.264 . S
O581 Mn576 2.095 . S
O581 C590 1.250 . S
O582 Mn577 2.121 . S
O582 C590 1.258 . S
C583 N584 1.326 . S
C583 C587 1.460 . S
C583 H589 0.929 . S
N584 Mn577 2.257 . S
N584 C583 1.326 . S
N584 C588 1.362 1_545 S
C585 C586 1.258 . S
C585 C588 1.431 . S
C585 C605 1.449 . S
C586 C585 1.258 . S
C586 C587 1.477 1_565 S
C586 H606 0.931 . S
C587 C583 1.460 . S
C587 C586 1.477 1_545 S
C587 H607 0.930 . S
C588 N584 1.362 1_565 S
C588 C585 1.431 . S
C588 C598 1.476 . S
H589 C583 0.929 . S
C590 O581 1.250 . S
C590 O582 1.258 . S
O591 Mn576 2.162 . S
O591 C579 1.281 . S
O592 Mn576 2.297 . S
O592 C579 1.236 . S
N593 Mn577 2.282 1_565 S
N593 C594 1.328 . S
N593 C598 1.318 . S
C594 N593 1.328 . S
C594 C595 1.457 . S
C594 H599 0.929 . S
C595 C594 1.457 . S
C595 C596 1.291 . S
C595 H608 0.931 . S
C596 C595 1.291 . S
C596 C597 1.373 . S
C596 H609 0.929 . S
C597 C596 1.373 . S
C597 C598 1.396 . S
C597 C604 1.403 . S
C598 C588 1.476 . S
C598 N593 1.318 . S
C598 C597 1.396 . S
H599 C594 0.929 . S
O600 Mn576 2.385 1_565 S
O600 C578 1.234 . S
O601 Mn576 2.209 . S
O601 Mn577 2.215 . S
O601 C578 1.283 1_545 S
O602 Mn576 2.094 . S
O602 C580 1.240 . S
O603 Mn577 2.117 . S
O603 C580 1.264 . S
C604 C597 1.403 . S
C604 C605 1.399 . S
C604 H610 0.929 . S
C605 C585 1.449 . S
C605 C604 1.399 . S
C605 H611 0.930 . S
H606 C586 0.931 . S
H607 C587 0.930 . S
H608 C595 0.931 . S
H609 C596 0.929 . S
H610 C604 0.929 . S
H611 C605 0.930 . S
Mn612 O617 2.095 . S
Mn612 O627 2.162 . S
Mn612 O628 2.297 . S
Mn612 O636 2.385 . S
Mn612 O637 2.209 . S
Mn612 O638 2.094 . S
Mn613 O618 2.121 . S
Mn613 N620 2.257 . S
Mn613 N629 2.282 . S
Mn613 O637 2.215 . S
Mn613 O639 2.117 . S
C614 O636 1.234 . S
C614 O637 1.283 . S
C615 O627 1.281 . S
C615 O628 1.236 . S
C616 O638 1.240 . S
C616 O639 1.264 . S
O617 Mn612 2.095 . S
O617 C626 1.250 . S
O618 Mn613 2.121 . S
O618 C626 1.258 . S
C619 N620 1.326 . S
C619 C623 1.460 . S
C619 H625 0.929 . S
N620 Mn613 2.257 . S
N620 C619 1.326 . S
N620 C624 1.362 . S
C621 C622 1.258 . S
C621 C624 1.431 . S
C621 C641 1.449 . S
C622 C621 1.258 . S
C622 C623 1.477 . S
C622 H642 0.931 . S
C623 C619 1.460 . S
C623 C622 1.477 . S
C623 H643 0.930 . S
C624 N620 1.362 . S
C624 C621 1.431 . S
C624 C634 1.476 . S
H625 C619 0.929 . S
C626 O617 1.250 . S
C626 O618 1.258 . S
O627 Mn612 2.162 . S
O627 C615 1.281 . S
O628 Mn612 2.297 . S
O628 C615 1.236 . S
N629 Mn613 2.282 . S
N629 C630 1.328 . S
N629 C634 1.318 . S
C630 N629 1.328 . S
C630 C631 1.457 . S
C630 H635 0.929 . S
C631 C630 1.457 . S
C631 C632 1.291 . S
C631 H644 0.931 . S
C632 C631 1.291 . S
C632 C633 1.373 . S
C632 H645 0.929 . S
C633 C632 1.373 . S
C633 C634 1.396 . S
C633 C640 1.403 . S
C634 C624 1.476 . S
C634 N629 1.318 . S
C634 C633 1.396 . S
H635 C630 0.929 . S
O636 Mn612 2.385 . S
O636 C614 1.234 . S
O637 Mn612 2.209 . S
O637 Mn613 2.215 . S
O637 C614 1.283 . S
O638 Mn612 2.094 . S
O638 C616 1.240 . S
O639 Mn613 2.117 . S
O639 C616 1.264 . S
C640 C633 1.403 . S
C640 C641 1.399 . S
C640 H646 0.929 . S
C641 C621 1.449 . S
C641 C640 1.399 . S
C641 H647 0.930 . S
H642 C622 0.931 . S
H643 C623 0.930 . S
H644 C631 0.931 . S
H645 C632 0.929 . S
H646 C640 0.929 . S
H647 C641 0.930 . S
Mn648 O653 2.095 . S
Mn648 O663 2.162 . S
Mn648 O664 2.297 . S
Mn648 O672 2.385 . S
Mn648 O673 2.209 . S
Mn648 O674 2.094 . S
Mn649 O654 2.121 . S
Mn649 N656 2.257 . S
Mn649 N665 2.282 . S
Mn649 O673 2.215 . S
Mn649 O675 2.117 . S
C650 O672 1.234 . S
C650 O673 1.283 . S
C651 O663 1.281 . S
C651 O664 1.236 . S
C652 O674 1.240 . S
C652 O675 1.264 . S
O653 Mn648 2.095 . S
O653 C662 1.250 . S
O654 Mn649 2.121 . S
O654 C662 1.258 . S
C655 N656 1.326 . S
C655 C659 1.460 . S
C655 H661 0.929 . S
N656 Mn649 2.257 . S
N656 C655 1.326 . S
N656 C660 1.362 . S
C657 C658 1.258 . S
C657 C660 1.431 . S
C657 C677 1.449 . S
C658 C657 1.258 . S
C658 C659 1.477 . S
C658 H678 0.931 . S
C659 C655 1.460 . S
C659 C658 1.477 . S
C659 H679 0.930 . S
C660 N656 1.362 . S
C660 C657 1.431 . S
C660 C670 1.476 . S
H661 C655 0.929 . S
C662 O653 1.250 . S
C662 O654 1.258 . S
O663 Mn648 2.162 . S
O663 C651 1.281 . S
O664 Mn648 2.297 . S
O664 C651 1.236 . S
N665 Mn649 2.282 . S
N665 C666 1.328 . S
N665 C670 1.318 . S
C666 N665 1.328 . S
C666 C667 1.457 . S
C666 H671 0.929 . S
C667 C666 1.457 . S
C667 C668 1.291 . S
C667 H680 0.931 . S
C668 C667 1.291 . S
C668 C669 1.373 . S
C668 H681 0.929 . S
C669 C668 1.373 . S
C669 C670 1.396 . S
C669 C676 1.403 . S
C670 C660 1.476 . S
C670 N665 1.318 . S
C670 C669 1.396 . S
H671 C666 0.929 . S
O672 Mn648 2.385 . S
O672 C650 1.234 . S
O673 Mn648 2.209 . S
O673 Mn649 2.215 . S
O673 C650 1.283 . S
O674 Mn648 2.094 . S
O674 C652 1.240 . S
O675 Mn649 2.117 . S
O675 C652 1.264 . S
C676 C669 1.403 . S
C676 C677 1.399 . S
C676 H682 0.929 . S
C677 C657 1.449 . S
C677 C676 1.399 . S
C677 H683 0.930 . S
H678 C658 0.931 . S
H679 C659 0.930 . S
H680 C667 0.931 . S
H681 C668 0.929 . S
H682 C676 0.929 . S
H683 C677 0.930 . S
Mn684 O689 2.095 . S
Mn684 O699 2.162 . S
Mn684 O700 2.297 . S
Mn684 O708 2.385 . S
Mn684 O709 2.209 . S
Mn684 O710 2.094 . S
Mn685 O690 2.121 . S
Mn685 N692 2.257 . S
Mn685 N701 2.282 . S
Mn685 O709 2.215 . S
Mn685 O711 2.117 . S
C686 O708 1.234 . S
C686 O709 1.283 . S
C687 O699 1.281 . S
C687 O700 1.236 . S
C688 O710 1.240 . S
C688 O711 1.264 . S
O689 Mn684 2.095 . S
O689 C698 1.250 . S
O690 Mn685 2.121 . S
O690 C698 1.258 . S
C691 N692 1.326 . S
C691 C695 1.460 . S
C691 H697 0.929 . S
N692 Mn685 2.257 . S
N692 C691 1.326 . S
N692 C696 1.362 . S
C693 C694 1.258 . S
C693 C696 1.431 . S
C693 C713 1.449 . S
C694 C693 1.258 . S
C694 C695 1.477 . S
C694 H714 0.931 . S
C695 C691 1.460 . S
C695 C694 1.477 . S
C695 H715 0.930 . S
C696 N692 1.362 . S
C696 C693 1.431 . S
C696 C706 1.476 . S
H697 C691 0.929 . S
C698 O689 1.250 . S
C698 O690 1.258 . S
O699 Mn684 2.162 . S
O699 C687 1.281 . S
O700 Mn684 2.297 . S
O700 C687 1.236 . S
N701 Mn685 2.282 . S
N701 C702 1.328 . S
N701 C706 1.318 . S
C702 N701 1.328 . S
C702 C703 1.457 . S
C702 H707 0.929 . S
C703 C702 1.457 . S
C703 C704 1.291 . S
C703 H716 0.931 . S
C704 C703 1.291 . S
C704 C705 1.373 . S
C704 H717 0.929 . S
C705 C704 1.373 . S
C705 C706 1.396 . S
C705 C712 1.403 . S
C706 C696 1.476 . S
C706 N701 1.318 . S
C706 C705 1.396 . S
H707 C702 0.929 . S
O708 Mn684 2.385 . S
O708 C686 1.234 . S
O709 Mn684 2.209 . S
O709 Mn685 2.215 . S
O709 C686 1.283 . S
O710 Mn684 2.094 . S
O710 C688 1.240 . S
O711 Mn685 2.117 . S
O711 C688 1.264 . S
C712 C705 1.403 . S
C712 C713 1.399 . S
C712 H718 0.929 . S
C713 C693 1.449 . S
C713 C712 1.399 . S
C713 H719 0.930 . S
H714 C694 0.931 . S
H715 C695 0.930 . S
H716 C703 0.931 . S
H717 C704 0.929 . S
H718 C712 0.929 . S
H719 C713 0.930 . S
Mn720 O725 2.095 . S
Mn720 O735 2.162 . S
Mn720 O736 2.297 . S
Mn720 O744 2.385 . S
Mn720 O745 2.209 . S
Mn720 O746 2.048 1_554 S
Mn721 O726 2.121 1_556 S
Mn721 N728 2.257 . S
Mn721 N737 2.282 . S
Mn721 O745 2.215 1_556 S
Mn721 O747 2.117 . S
C722 O744 1.234 . S
C722 O745 1.283 . S
C723 O735 1.281 . S
C723 O736 1.236 . S
C724 O746 1.288 . S
C724 O747 1.264 . S
O725 Mn720 2.095 . S
O725 C734 1.250 . S
O726 Mn721 2.121 1_554 S
O726 C734 1.258 . S
C727 N728 1.326 . S
C727 C731 1.460 . S
C727 H733 0.929 1_556 S
N728 Mn721 2.257 . S
N728 C727 1.326 . S
N728 C732 1.362 . S
C729 C730 1.258 . S
C729 C732 1.431 . S
C729 C749 1.449 . S
C730 C729 1.258 . S
C730 C731 1.477 . S
C730 H750 0.931 . S
C731 C727 1.460 . S
C731 C730 1.477 . S
C731 H751 0.922 1_556 S
C732 N728 1.362 . S
C732 C729 1.431 . S
C732 C742 1.476 . S
H733 C727 0.929 1_554 S
C734 O725 1.250 . S
C734 O726 1.258 . S
O735 Mn720 2.162 . S
O735 C723 1.281 . S
O736 Mn720 2.297 . S
O736 C723 1.236 . S
N737 Mn721 2.282 . S
N737 C738 1.328 . S
N737 C742 1.318 . S
C738 N737 1.328 . S
C738 C739 1.457 . S
C738 H743 0.929 . S
C739 C738 1.457 . S
C739 C740 1.291 . S
C739 H752 0.931 . S
C740 C739 1.291 . S
C740 C741 1.373 . S
C740 H753 0.929 . S
C741 C740 1.373 . S
C741 C742 1.396 . S
C741 C748 1.403 . S
C742 C732 1.476 . S
C742 N737 1.318 . S
C742 C741 1.396 . S
H743 C738 0.929 . S
O744 Mn720 2.385 . S
O744 C722 1.234 . S
O745 Mn720 2.209 . S
O745 Mn721 2.215 1_554 S
O745 C722 1.283 . S
O746 Mn720 2.048 1_556 S
O746 C724 1.288 . S
O747 Mn721 2.117 . S
O747 C724 1.264 . S
C748 C741 1.403 . S
C748 C749 1.399 . S
C748 H754 0.929 . S
C749 C729 1.449 . S
C749 C748 1.399 . S
C749 H755 0.930 . S
H750 C730 0.931 . S
H751 C731 0.922 1_554 S
H752 C739 0.931 . S
H753 C740 0.929 . S
H754 C748 0.929 . S
H755 C749 0.930 . S
Mn756 O761 2.095 . S
Mn756 O771 2.162 . S
Mn756 O772 2.297 . S
Mn756 O780 2.385 . S
Mn756 O781 2.209 . S
Mn756 O782 2.094 . S
Mn757 O762 2.121 . S
Mn757 N764 2.257 . S
Mn757 N773 2.282 . S
Mn757 O781 2.215 . S
Mn757 O783 2.117 . S
C758 O780 1.234 . S
C758 O781 1.283 . S
C759 O771 1.281 . S
C759 O772 1.236 . S
C760 O782 1.240 . S
C760 O783 1.264 . S
O761 Mn756 2.095 . S
O761 C770 1.250 . S
O762 Mn757 2.121 . S
O762 C770 1.258 . S
C763 N764 1.326 . S
C763 C767 1.460 . S
C763 H769 0.929 . S
N764 Mn757 2.257 . S
N764 C763 1.326 . S
N764 C768 1.362 . S
C765 C766 1.258 . S
C765 C768 1.431 . S
C765 C785 1.449 . S
C766 C765 1.258 . S
C766 C767 1.477 . S
C766 H786 0.931 . S
C767 C763 1.460 . S
C767 C766 1.477 . S
C767 H787 0.930 . S
C768 N764 1.362 . S
C768 C765 1.431 . S
C768 C778 1.476 . S
H769 C763 0.929 . S
C770 O761 1.250 . S
C770 O762 1.258 . S
O771 Mn756 2.162 . S
O771 C759 1.281 . S
O772 Mn756 2.297 . S
O772 C759 1.236 . S
N773 Mn757 2.282 . S
N773 C774 1.328 . S
N773 C778 1.318 . S
C774 N773 1.328 . S
C774 C775 1.457 . S
C774 H779 0.929 . S
C775 C774 1.457 . S
C775 C776 1.291 . S
C775 H788 0.931 . S
C776 C775 1.291 . S
C776 C777 1.373 . S
C776 H789 0.929 . S
C777 C776 1.373 . S
C777 C778 1.396 . S
C777 C784 1.403 . S
C778 C768 1.476 . S
C778 N773 1.318 . S
C778 C777 1.396 . S
H779 C774 0.929 . S
O780 Mn756 2.385 . S
O780 C758 1.234 . S
O781 Mn756 2.209 . S
O781 Mn757 2.215 . S
O781 C758 1.283 . S
O782 Mn756 2.094 . S
O782 C760 1.240 . S
O783 Mn757 2.117 . S
O783 C760 1.264 . S
C784 C777 1.403 . S
C784 C785 1.399 . S
C784 H790 0.929 . S
C785 C765 1.449 . S
C785 C784 1.399 . S
C785 H791 0.930 . S
H786 C766 0.931 . S
H787 C767 0.930 . S
H788 C775 0.931 . S
H789 C776 0.929 . S
H790 C784 0.929 . S
H791 C785 0.930 . S
Mn792 O797 2.095 . S
Mn792 O807 2.162 . S
Mn792 O808 2.297 . S
Mn792 O816 2.385 . S
Mn792 O817 2.209 . S
Mn792 O818 2.094 . S
Mn793 O798 2.121 . S
Mn793 N800 2.257 . S
Mn793 N809 2.282 . S
Mn793 O817 2.215 . S
Mn793 O819 2.117 . S
C794 O816 1.234 . S
C794 O817 1.283 . S
C795 O807 1.281 . S
C795 O808 1.236 . S
C796 O818 1.240 . S
C796 O819 1.264 . S
O797 Mn792 2.095 . S
O797 C806 1.250 . S
O798 Mn793 2.121 . S
O798 C806 1.258 . S
C799 N800 1.326 . S
C799 C803 1.460 . S
C799 H805 0.929 . S
N800 Mn793 2.257 . S
N800 C799 1.326 . S
N800 C804 1.362 . S
C801 C802 1.258 . S
C801 C804 1.431 . S
C801 C821 1.449 . S
C802 C801 1.258 . S
C802 C803 1.477 . S
C802 H822 0.931 . S
C803 C799 1.460 . S
C803 C802 1.477 . S
C803 H823 0.930 . S
C804 N800 1.362 . S
C804 C801 1.431 . S
C804 C814 1.476 . S
H805 C799 0.929 . S
C806 O797 1.250 . S
C806 O798 1.258 . S
O807 Mn792 2.162 . S
O807 C795 1.281 . S
O808 Mn792 2.297 . S
O808 C795 1.236 . S
N809 Mn793 2.282 . S
N809 C810 1.328 . S
N809 C814 1.318 . S
C810 N809 1.328 . S
C810 C811 1.457 . S
C810 H815 0.929 . S
C811 C810 1.457 . S
C811 C812 1.291 . S
C811 H824 0.931 . S
C812 C811 1.291 . S
C812 C813 1.373 . S
C812 H825 0.929 . S
C813 C812 1.373 . S
C813 C814 1.396 . S
C813 C820 1.403 . S
C814 C804 1.476 . S
C814 N809 1.318 . S
C814 C813 1.396 . S
H815 C810 0.929 . S
O816 Mn792 2.385 . S
O816 C794 1.234 . S
O817 Mn792 2.209 . S
O817 Mn793 2.215 . S
O817 C794 1.283 . S
O818 Mn792 2.094 . S
O818 C796 1.240 . S
O819 Mn793 2.117 . S
O819 C796 1.264 . S
C820 C813 1.403 . S
C820 C821 1.399 . S
C820 H826 0.929 . S
C821 C801 1.449 . S
C821 C820 1.399 . S
C821 H827 0.930 . S
H822 C802 0.931 . S
H823 C803 0.930 . S
H824 C811 0.931 . S
H825 C812 0.929 . S
H826 C820 0.929 . S
H827 C821 0.930 . S
Mn828 O833 2.095 . S
Mn828 O843 2.162 . S
Mn828 O844 2.297 . S
Mn828 O852 2.385 . S
Mn828 O853 2.209 . S
Mn828 O854 2.094 . S
Mn829 O834 2.121 . S
Mn829 N836 2.257 . S
Mn829 N845 2.282 . S
Mn829 O853 2.215 . S
Mn829 O855 2.117 . S
C830 O852 1.234 . S
C830 O853 1.283 . S
C831 O843 1.281 . S
C831 O844 1.236 . S
C832 O854 1.240 . S
C832 O855 1.264 . S
O833 Mn828 2.095 . S
O833 C842 1.250 . S
O834 Mn829 2.121 . S
O834 C842 1.258 . S
C835 N836 1.326 . S
C835 C839 1.460 . S
C835 H841 0.929 . S
N836 Mn829 2.257 . S
N836 C835 1.326 . S
N836 C840 1.362 . S
C837 C838 1.258 . S
C837 C840 1.431 . S
C837 C857 1.449 . S
C838 C837 1.258 . S
C838 C839 1.477 . S
C838 H858 0.931 . S
C839 C835 1.460 . S
C839 C838 1.477 . S
C839 H859 0.930 . S
C840 N836 1.362 . S
C840 C837 1.431 . S
C840 C850 1.476 . S
H841 C835 0.929 . S
C842 O833 1.250 . S
C842 O834 1.258 . S
O843 Mn828 2.162 . S
O843 C831 1.281 . S
O844 Mn828 2.297 . S
O844 C831 1.236 . S
N845 Mn829 2.282 . S
N845 C846 1.328 . S
N845 C850 1.318 . S
C846 N845 1.328 . S
C846 C847 1.457 . S
C846 H851 0.929 . S
C847 C846 1.457 . S
C847 C848 1.291 . S
C847 H860 0.931 . S
C848 C847 1.291 . S
C848 C849 1.373 . S
C848 H861 0.929 . S
C849 C848 1.373 . S
C849 C850 1.396 . S
C849 C856 1.403 . S
C850 C840 1.476 . S
C850 N845 1.318 . S
C850 C849 1.396 . S
H851 C846 0.929 . S
O852 Mn828 2.385 . S
O852 C830 1.234 . S
O853 Mn828 2.209 . S
O853 Mn829 2.215 . S
O853 C830 1.283 . S
O854 Mn828 2.094 . S
O854 C832 1.240 . S
O855 Mn829 2.117 . S
O855 C832 1.264 . S
C856 C849 1.403 . S
C856 C857 1.399 . S
C856 H862 0.929 . S
C857 C837 1.449 . S
C857 C856 1.399 . S
C857 H863 0.930 . S
H858 C838 0.931 . S
H859 C839 0.930 . S
H860 C847 0.931 . S
H861 C848 0.929 . S
H862 C856 0.929 . S
H863 C857 0.930 . S
Dy864 O867 2.307 . S
Dy864 O869 2.395 . S
Dy864 O870 2.379 . S
Dy864 O872 2.339 . S
Dy864 O874 2.298 . S
Dy864 O878 2.275 . S
Dy864 C886 2.738 . S
Dy865 O868 2.298 1_655 S
Dy865 O871 2.275 1_655 S
Dy865 O873 2.307 1_645 S
Dy865 O875 2.395 . S
Dy865 O876 2.379 1_554 S
Dy865 O879 2.339 1_654 S
Dy865 C895 2.738 . S
C866 O878 1.254 1_556 S
C866 O879 1.257 . S
O867 Dy864 2.307 . S
O867 C877 1.266 . S
O868 Dy865 2.298 1_455 S
O868 C877 1.236 . S
O869 Dy864 2.395 . S
O869 C886 1.255 . S
O870 Dy864 2.379 . S
O870 C886 1.249 . S
O871 Dy865 2.275 1_455 S
O871 C887 1.254 . S
O872 Dy864 2.339 . S
O872 C887 1.257 . S
O873 Dy865 2.307 1_465 S
O873 C888 1.266 . S
O874 Dy864 2.298 . S
O874 C888 1.236 1_545 S
O875 Dy865 2.395 . S
O875 C895 1.255 . S
O876 Dy865 2.379 1_556 S
O876 C895 1.249 1_556 S
C877 O867 1.266 . S
C877 O868 1.236 . S
O878 Dy864 2.275 . S
O878 C866 1.254 1_554 S
O879 Dy865 2.339 1_456 S
O879 C866 1.257 . S
C880 C883 1.322 1_545 S
C880 C884 1.328 . S
C880 C886 1.516 . S
C881 C882 1.304 . S
C881 C885 1.323 1_565 S
C882 C881 1.304 . S
C882 C883 1.393 . S
C882 H896 0.930 . S
C883 C880 1.322 1_565 S
C883 C882 1.393 . S
C883 H897 0.933 . S
C884 C880 1.328 . S
C884 C885 1.433 . S
C884 H898 0.931 . S
C885 C881 1.323 1_545 S
C885 C884 1.433 . S
C885 H899 0.933 . S
C886 Dy864 2.738 . S
C886 O869 1.255 . S
C886 O870 1.249 . S
C886 C880 1.516 . S
C887 O871 1.254 . S
C887 O872 1.257 . S
C888 O873 1.266 . S
C888 O874 1.236 1_565 S
C889 C892 1.344 . S
C889 C893 1.328 1_554 S
C889 C895 1.516 . S
C890 C891 1.304 . S
C890 C894 1.323 1_554 S
C891 C890 1.304 . S
C891 C892 1.371 . S
C891 H900 0.930 . S
C892 C889 1.344 . S
C892 C891 1.371 . S
C892 H901 0.931 . S
C893 C889 1.328 1_556 S
C893 C894 1.433 . S
C893 H902 0.931 . S
C894 C890 1.323 1_556 S
C894 C893 1.433 . S
C894 H903 0.933 . S
C895 Dy865 2.738 . S
C895 O875 1.255 . S
C895 O876 1.249 1_554 S
C895 C889 1.516 . S
H896 C882 0.930 . S
H897 C883 0.933 . S
H898 C884 0.931 . S
H899 C885 0.933 . S
H900 C891 0.930 . S
H901 C892 0.931 . S
H902 C893 0.931 . S
H903 C894 0.933 . S
Dy904 O907 2.307 . S
Dy904 O909 2.395 . S
Dy904 O910 2.379 . S
Dy904 O912 2.339 . S
Dy904 O914 2.298 . S
Dy904 O918 2.275 . S
Dy904 C926 2.738 . S
Dy905 O908 2.298 . S
Dy905 O911 2.275 . S
Dy905 O913 2.307 . S
Dy905 O915 2.395 . S
Dy905 O916 2.379 . S
Dy905 O919 2.339 . S
Dy905 C935 2.738 . S
C906 O918 1.254 . S
C906 O919 1.257 . S
O907 Dy904 2.307 . S
O907 C917 1.266 . S
O908 Dy905 2.298 . S
O908 C917 1.236 . S
O909 Dy904 2.395 . S
O909 C926 1.255 . S
O910 Dy904 2.379 . S
O910 C926 1.249 . S
O911 Dy905 2.275 . S
O911 C927 1.254 . S
O912 Dy904 2.339 . S
O912 C927 1.257 . S
O913 Dy905 2.307 . S
O913 C928 1.266 . S
O914 Dy904 2.298 . S
O914 C928 1.236 . S
O915 Dy905 2.395 . S
O915 C935 1.255 . S
O916 Dy905 2.379 . S
O916 C935 1.249 . S
C917 O907 1.266 . S
C917 O908 1.236 . S
O918 Dy904 2.275 . S
O918 C906 1.254 . S
O919 Dy905 2.339 . S
O919 C906 1.257 . S
C920 C923 1.344 . S
C920 C924 1.328 . S
C920 C926 1.516 . S
C921 C922 1.304 . S
C921 C925 1.323 . S
C922 C921 1.304 . S
C922 C923 1.371 . S
C922 H936 0.930 . S
C923 C920 1.344 . S
C923 C922 1.371 . S
C923 H937 0.931 . S
C924 C920 1.328 . S
C924 C925 1.433 . S
C924 H938 0.931 . S
C925 C921 1.323 . S
C925 C924 1.433 . S
C925 H939 0.933 . S
C926 Dy904 2.738 . S
C926 O909 1.255 . S
C926 O910 1.249 . S
C926 C920 1.516 . S
C927 O911 1.254 . S
C927 O912 1.257 . S
C928 O913 1.266 . S
C928 O914 1.236 . S
C929 C932 1.344 . S
C929 C933 1.328 . S
C929 C935 1.516 . S
C930 C931 1.304 . S
C930 C934 1.323 . S
C931 C930 1.304 . S
C931 C932 1.371 . S
C931 H940 0.930 . S
C932 C929 1.344 . S
C932 C931 1.371 . S
C932 H941 0.931 . S
C933 C929 1.328 . S
C933 C934 1.433 . S
C933 H942 0.931 . S
C934 C930 1.323 . S
C934 C933 1.433 . S
C934 H943 0.933 . S
C935 Dy905 2.738 . S
C935 O915 1.255 . S
C935 O916 1.249 . S
C935 C929 1.516 . S
H936 C922 0.930 . S
H937 C923 0.931 . S
H938 C924 0.931 . S
H939 C925 0.933 . S
H940 C931 0.930 . S
H941 C932 0.931 . S
H942 C933 0.931 . S
H943 C934 0.933 . S
Dy944 O947 2.307 . S
Dy944 O949 2.395 . S
Dy944 O950 2.379 . S
Dy944 O952 2.339 . S
Dy944 O954 2.298 . S
Dy944 O958 2.275 . S
Dy944 C966 2.738 . S
Dy945 O948 2.298 . S
Dy945 O951 2.275 . S
Dy945 O953 2.307 . S
Dy945 O955 2.395 . S
Dy945 O956 2.379 . S
Dy945 O959 2.339 . S
Dy945 C975 2.738 . S
C946 O958 1.254 . S
C946 O959 1.257 . S
O947 Dy944 2.307 . S
O947 C957 1.234 1_545 S
O948 Dy945 2.298 . S
O948 C957 1.212 1_545 S
O949 Dy944 2.395 . S
O949 C966 1.255 . S
O950 Dy944 2.379 . S
O950 C966 1.249 . S
O951 Dy945 2.275 . S
O951 C967 1.254 . S
O952 Dy944 2.339 . S
O952 C967 1.257 . S
O953 Dy945 2.307 . S
O953 C968 1.266 . S
O954 Dy944 2.298 . S
O954 C968 1.236 . S
O955 Dy945 2.395 . S
O955 C975 1.255 . S
O956 Dy945 2.379 . S
O956 C975 1.249 . S
C957 O947 1.234 1_565 S
C957 O948 1.212 1_565 S
O958 Dy944 2.275 . S
O958 C946 1.254 . S
O959 Dy945 2.339 . S
O959 C946 1.257 . S
C960 C963 1.344 . S
C960 C964 1.328 . S
C960 C966 1.516 . S
C961 C962 1.304 . S
C961 C965 1.323 . S
C962 C961 1.304 . S
C962 C963 1.371 . S
C962 H976 0.930 . S
C963 C960 1.344 . S
C963 C962 1.371 . S
C963 H977 0.931 . S
C964 C960 1.328 . S
C964 C965 1.433 . S
C964 H978 0.931 . S
C965 C961 1.323 . S
C965 C964 1.433 . S
C965 H979 0.933 . S
C966 Dy944 2.738 . S
C966 O949 1.255 . S
C966 O950 1.249 . S
C966 C960 1.516 . S
C967 O951 1.254 . S
C967 O952 1.257 . S
C968 O953 1.266 . S
C968 O954 1.236 . S
C969 C972 1.327 1_545 S
C969 C973 1.328 . S
C969 C975 1.516 . S
C970 C971 1.304 . S
C970 C974 1.323 . S
C971 C970 1.304 . S
C971 C972 1.387 . S
C971 H980 0.930 . S
C972 C969 1.327 1_565 S
C972 C971 1.387 . S
C972 H981 0.932 . S
C973 C969 1.328 . S
C973 C974 1.433 1_545 S
C973 H982 0.931 . S
C974 C970 1.323 . S
C974 C973 1.433 1_565 S
C974 H983 0.933 . S
C975 Dy945 2.738 . S
C975 O955 1.255 . S
C975 O956 1.249 . S
C975 C969 1.516 . S
H976 C962 0.930 . S
H977 C963 0.931 . S
H978 C964 0.931 . S
H979 C965 0.933 . S
H980 C971 0.930 . S
H981 C972 0.932 . S
H982 C973 0.931 . S
H983 C974 0.933 . S
Dy984 O987 2.307 . S
Dy984 O989 2.395 . S
Dy984 O990 2.379 . S
Dy984 O992 2.339 . S
Dy984 O994 2.298 . S
Dy984 O998 2.275 . S
Dy984 C1006 2.738 . S
Dy985 O988 2.298 . S
Dy985 O991 2.275 . S
Dy985 O993 2.307 . S
Dy985 O995 2.395 . S
Dy985 O996 2.379 . S
Dy985 O999 2.339 . S
Dy985 C1015 2.738 . S
C986 O998 1.254 . S
C986 O999 1.257 . S
O987 Dy984 2.307 . S
O987 C997 1.266 . S
O988 Dy985 2.298 . S
O988 C997 1.236 . S
O989 Dy984 2.395 . S
O989 C1006 1.255 . S
O990 Dy984 2.379 . S
O990 C1006 1.249 . S
O991 Dy985 2.275 . S
O991 C1007 1.254 . S
O992 Dy984 2.339 . S
O992 C1007 1.257 . S
O993 Dy985 2.307 . S
O993 C1008 1.266 . S
O994 Dy984 2.298 . S
O994 C1008 1.236 . S
O995 Dy985 2.395 . S
O995 C1015 1.255 . S
O996 Dy985 2.379 . S
O996 C1015 1.249 . S
C997 O987 1.266 . S
C997 O988 1.236 . S
O998 Dy984 2.275 . S
O998 C986 1.254 . S
O999 Dy985 2.339 . S
O999 C986 1.257 . S
C1000 C1003 1.344 . S
C1000 C1004 1.328 . S
C1000 C1006 1.516 . S
C1001 C1002 1.304 . S
C1001 C1005 1.323 . S
C1002 C1001 1.304 . S
C1002 C1003 1.371 . S
C1002 H1016 0.930 . S
C1003 C1000 1.344 . S
C1003 C1002 1.371 . S
C1003 H1017 0.931 . S
C1004 C1000 1.328 . S
C1004 C1005 1.433 . S
C1004 H1018 0.931 . S
C1005 C1001 1.323 . S
C1005 C1004 1.433 . S
C1005 H1019 0.933 . S
C1006 Dy984 2.738 . S
C1006 O989 1.255 . S
C1006 O990 1.249 . S
C1006 C1000 1.516 . S
C1007 O991 1.254 . S
C1007 O992 1.257 . S
C1008 O993 1.266 . S
C1008 O994 1.236 . S
C1009 C1012 1.344 . S
C1009 C1013 1.328 . S
C1009 C1015 1.516 . S
C1010 C1011 1.304 . S
C1010 C1014 1.323 . S
C1011 C1010 1.304 . S
C1011 C1012 1.371 . S
C1011 H1020 0.930 . S
C1012 C1009 1.344 . S
C1012 C1011 1.371 . S
C1012 H1021 0.931 . S
C1013 C1009 1.328 . S
C1013 C1014 1.433 . S
C1013 H1022 0.931 . S
C1014 C1010 1.323 . S
C1014 C1013 1.433 . S
C1014 H1023 0.933 . S
C1015 Dy985 2.738 . S
C1015 O995 1.255 . S
C1015 O996 1.249 . S
C1015 C1009 1.516 . S
H1016 C1002 0.930 . S
H1017 C1003 0.931 . S
H1018 C1004 0.931 . S
H1019 C1005 0.933 . S
H1020 C1011 0.930 . S
H1021 C1012 0.931 . S
H1022 C1013 0.931 . S
H1023 C1014 0.933 . S
Dy1024 O1027 2.307 . S
Dy1024 O1029 2.395 1_545 S
Dy1024 O1030 2.379 1_545 S
Dy1024 O1032 2.339 . S
Dy1024 O1034 2.298 . S
Dy1024 O1038 2.275 . S
Dy1024 C1046 2.738 1_545 S
Dy1025 O1028 2.298 . S
Dy1025 O1031 2.275 . S
Dy1025 O1033 2.307 . S
Dy1025 O1035 2.395 . S
Dy1025 O1036 2.379 1_455 S
Dy1025 O1039 2.339 1_455 S
Dy1025 C1055 2.738 . S
C1026 O1038 1.254 1_655 S
C1026 O1039 1.257 . S
O1027 Dy1024 2.307 . S
O1027 C1037 1.266 . S
O1028 Dy1025 2.298 . S
O1028 C1037 1.236 . S
O1029 Dy1024 2.395 1_565 S
O1029 C1046 1.255 . S
O1030 Dy1024 2.379 1_565 S
O1030 C1046 1.249 . S
O1031 Dy1025 2.275 . S
O1031 C1047 1.254 . S
O1032 Dy1024 2.339 . S
O1032 C1047 1.257 . S
O1033 Dy1025 2.307 . S
O1033 C1048 1.266 . S
O1034 Dy1024 2.298 . S
O1034 C1048 1.236 . S
O1035 Dy1025 2.395 . S
O1035 C1055 1.255 . S
O1036 Dy1025 2.379 1_655 S
O1036 C1055 1.249 1_655 S
C1037 O1027 1.266 . S
C1037 O1028 1.236 . S
O1038 Dy1024 2.275 . S
O1038 C1026 1.254 1_455 S
O1039 Dy1025 2.339 1_655 S
O1039 C1026 1.257 . S
C1040 C1043 1.344 . S
C1040 C1044 1.328 . S
C1040 C1046 1.516 . S
C1041 C1042 1.304 . S
C1041 C1045 1.323 . S
C1042 C1041 1.304 . S
C1042 C1043 1.371 . S
C1042 H1056 0.930 . S
C1043 C1040 1.344 . S
C1043 C1042 1.371 . S
C1043 H1057 0.931 . S
C1044 C1040 1.328 . S
C1044 C1045 1.433 . S
C1044 H1058 0.931 . S
C1045 C1041 1.323 . S
C1045 C1044 1.433 . S
C1045 H1059 0.933 . S
C1046 Dy1024 2.738 1_565 S
C1046 O1029 1.255 . S
C1046 O1030 1.249 . S
C1046 C1040 1.516 . S
C1047 O1031 1.254 . S
C1047 O1032 1.257 . S
C1048 O1033 1.266 . S
C1048 O1034 1.236 . S
C1049 C1052 1.344 . S
C1049 C1053 1.328 1_455 S
C1049 C1055 1.516 . S
C1050 C1051 1.304 . S
C1050 C1054 1.323 1_455 S
C1051 C1050 1.304 . S
C1051 C1052 1.371 . S
C1051 H1060 0.930 . S
C1052 C1049 1.344 . S
C1052 C1051 1.371 . S
C1052 H1061 0.931 . S
C1053 C1049 1.328 1_655 S
C1053 C1054 1.433 . S
C1053 H1062 0.931 . S
C1054 C1050 1.323 1_655 S
C1054 C1053 1.433 . S
C1054 H1063 0.933 . S
C1055 Dy1025 2.738 . S
C1055 O1035 1.255 . S
C1055 O1036 1.249 1_455 S
C1055 C1049 1.516 . S
H1056 C1042 0.930 . S
H1057 C1043 0.931 . S
H1058 C1044 0.931 . S
H1059 C1045 0.933 . S
H1060 C1051 0.930 . S
H1061 C1052 0.931 . S
H1062 C1053 0.931 . S
H1063 C1054 0.933 . S
Dy1064 O1067 2.307 . S
Dy1064 O1069 2.395 . S
Dy1064 O1070 2.379 . S
Dy1064 O1072 2.339 . S
Dy1064 O1074 2.298 . S
Dy1064 O1078 2.275 . S
Dy1064 C1086 2.738 . S
Dy1065 O1068 2.298 . S
Dy1065 O1071 2.275 . S
Dy1065 O1073 2.307 . S
Dy1065 O1075 2.395 . S
Dy1065 O1076 2.379 . S
Dy1065 O1079 2.339 . S
Dy1065 C1095 2.738 . S
C1066 O1078 1.254 . S
C1066 O1079 1.257 . S
O1067 Dy1064 2.307 . S
O1067 C1077 1.266 . S
O1068 Dy1065 2.298 . S
O1068 C1077 1.236 . S
O1069 Dy1064 2.395 . S
O1069 C1086 1.255 . S
O1070 Dy1064 2.379 . S
O1070 C1086 1.249 . S
O1071 Dy1065 2.275 . S
O1071 C1087 1.254 . S
O1072 Dy1064 2.339 . S
O1072 C1087 1.257 . S
O1073 Dy1065 2.307 . S
O1073 C1088 1.266 . S
O1074 Dy1064 2.298 . S
O1074 C1088 1.236 . S
O1075 Dy1065 2.395 . S
O1075 C1095 1.255 . S
O1076 Dy1065 2.379 . S
O1076 C1095 1.249 . S
C1077 O1067 1.266 . S
C1077 O1068 1.236 . S
O1078 Dy1064 2.275 . S
O1078 C1066 1.254 . S
O1079 Dy1065 2.339 . S
O1079 C1066 1.257 . S
C1080 C1083 1.344 . S
C1080 C1084 1.328 . S
C1080 C1086 1.516 . S
C1081 C1082 1.304 . S
C1081 C1085 1.323 . S
C1082 C1081 1.304 . S
C1082 C1083 1.371 . S
C1082 H1096 0.930 . S
C1083 C1080 1.344 . S
C1083 C1082 1.371 . S
C1083 H1097 0.931 . S
C1084 C1080 1.328 . S
C1084 C1085 1.433 . S
C1084 H1098 0.931 . S
C1085 C1081 1.323 . S
C1085 C1084 1.433 . S
C1085 H1099 0.933 . S
C1086 Dy1064 2.738 . S
C1086 O1069 1.255 . S
C1086 O1070 1.249 . S
C1086 C1080 1.516 . S
C1087 O1071 1.254 . S
C1087 O1072 1.257 . S
C1088 O1073 1.266 . S
C1088 O1074 1.236 . S
C1089 C1092 1.344 . S
C1089 C1093 1.328 . S
C1089 C1095 1.516 . S
C1090 C1091 1.304 . S
C1090 C1094 1.323 . S
C1091 C1090 1.304 . S
C1091 C1092 1.371 . S
C1091 H1100 0.930 . S
C1092 C1089 1.344 . S
C1092 C1091 1.371 . S
C1092 H1101 0.931 . S
C1093 C1089 1.328 . S
C1093 C1094 1.433 . S
C1093 H1102 0.931 . S
C1094 C1090 1.323 . S
C1094 C1093 1.433 . S
C1094 H1103 0.933 . S
C1095 Dy1065 2.738 . S
C1095 O1075 1.255 . S
C1095 O1076 1.249 . S
C1095 C1089 1.516 . S
H1096 C1082 0.930 . S
H1097 C1083 0.931 . S
H1098 C1084 0.931 . S
H1099 C1085 0.933 . S
H1100 C1091 0.930 . S
H1101 C1092 0.931 . S
H1102 C1093 0.931 . S
H1103 C1094 0.933 . S
Dy1104 O1107 2.291 1_556 S
Dy1104 O1109 2.423 . S
Dy1104 O1110 2.404 . S
Dy1104 O1112 2.320 1_556 S
Dy1104 O1114 2.285 1_556 S
Dy1104 O1118 2.262 1_556 S
Dy1104 C1126 2.769 . S
Dy1105 O1108 2.298 . S
Dy1105 O1111 2.275 . S
Dy1105 O1113 2.307 . S
Dy1105 O1115 2.395 . S
Dy1105 O1116 2.379 . S
Dy1105 O1119 2.300 1_545 S
Dy1105 C1135 2.738 . S
C1106 O1118 1.254 . S
C1106 O1119 1.242 1_545 S
O1107 Dy1104 2.291 1_554 S
O1107 C1117 1.266 . S
O1108 Dy1105 2.298 . S
O1108 C1117 1.236 . S
O1109 Dy1104 2.423 . S
O1109 C1126 1.255 . S
O1110 Dy1104 2.404 . S
O1110 C1126 1.249 . S
O1111 Dy1105 2.275 . S
O1111 C1127 1.254 . S
O1112 Dy1104 2.320 1_554 S
O1112 C1127 1.257 . S
O1113 Dy1105 2.307 . S
O1113 C1128 1.266 . S
O1114 Dy1104 2.285 1_554 S
O1114 C1128 1.236 . S
O1115 Dy1105 2.395 . S
O1115 C1135 1.255 . S
O1116 Dy1105 2.379 . S
O1116 C1135 1.249 . S
C1117 O1107 1.266 . S
C1117 O1108 1.236 . S
O1118 Dy1104 2.262 1_554 S
O1118 C1106 1.254 . S
O1119 Dy1105 2.300 1_565 S
O1119 C1106 1.242 1_565 S
C1120 C1123 1.344 . S
C1120 C1124 1.328 . S
C1120 C1126 1.516 . S
C1121 C1122 1.304 . S
C1121 C1125 1.323 . S
C1122 C1121 1.304 . S
C1122 C1123 1.371 . S
C1122 H1136 0.930 . S
C1123 C1120 1.344 . S
C1123 C1122 1.371 . S
C1123 H1137 0.931 . S
C1124 C1120 1.328 . S
C1124 C1125 1.433 . S
C1124 H1138 0.931 . S
C1125 C1121 1.323 . S
C1125 C1124 1.433 . S
C1125 H1139 0.933 . S
C1126 Dy1104 2.769 . S
C1126 O1109 1.255 . S
C1126 O1110 1.249 . S
C1126 C1120 1.516 . S
C1127 O1111 1.254 . S
C1127 O1112 1.257 . S
C1128 O1113 1.266 . S
C1128 O1114 1.236 . S
C1129 C1132 1.344 . S
C1129 C1133 1.328 1_545 S
C1129 C1135 1.516 . S
C1130 C1131 1.304 1_565 S
C1130 C1134 1.323 . S
C1131 C1130 1.304 1_545 S
C1131 C1132 1.371 . S
C1131 H1140 0.930 . S
C1132 C1129 1.344 . S
C1132 C1131 1.371 . S
C1132 H1141 0.931 . S
C1133 C1129 1.328 1_565 S
C1133 C1134 1.433 . S
C1133 H1142 0.931 . S
C1134 C1130 1.323 . S
C1134 C1133 1.433 . S
C1134 H1143 0.933 . S
C1135 Dy1105 2.738 . S
C1135 O1115 1.255 . S
C1135 O1116 1.249 . S
C1135 C1129 1.516 . S
H1136 C1122 0.930 . S
H1137 C1123 0.931 . S
H1138 C1124 0.931 . S
H1139 C1125 0.933 . S
H1140 C1131 0.930 . S
H1141 C1132 0.931 . S
H1142 C1133 0.931 . S
H1143 C1134 0.933 . S
Dy1144 O1147 2.307 . S
Dy1144 O1149 2.395 . S
Dy1144 O1150 2.379 . S
Dy1144 O1152 2.339 . S
Dy1144 O1154 2.298 . S
Dy1144 O1158 2.275 . S
Dy1144 C1166 2.738 . S
Dy1145 O1148 2.298 . S
Dy1145 O1151 2.275 . S
Dy1145 O1153 2.307 . S
Dy1145 O1155 2.395 . S
Dy1145 O1156 2.379 . S
Dy1145 O1159 2.339 . S
Dy1145 C1175 2.738 . S
C1146 O1158 1.254 . S
C1146 O1159 1.257 . S
O1147 Dy1144 2.307 . S
O1147 C1157 1.266 . S
O1148 Dy1145 2.298 . S
O1148 C1157 1.236 . S
O1149 Dy1144 2.395 . S
O1149 C1166 1.255 . S
O1150 Dy1144 2.379 . S
O1150 C1166 1.249 . S
O1151 Dy1145 2.275 . S
O1151 C1167 1.254 . S
O1152 Dy1144 2.339 . S
O1152 C1167 1.257 . S
O1153 Dy1145 2.307 . S
O1153 C1168 1.266 . S
O1154 Dy1144 2.298 . S
O1154 C1168 1.236 . S
O1155 Dy1145 2.395 . S
O1155 C1175 1.255 . S
O1156 Dy1145 2.379 . S
O1156 C1175 1.249 . S
C1157 O1147 1.266 . S
C1157 O1148 1.236 . S
O1158 Dy1144 2.275 . S
O1158 C1146 1.254 . S
O1159 Dy1145 2.339 . S
O1159 C1146 1.257 . S
C1160 C1163 1.344 . S
C1160 C1164 1.328 . S
C1160 C1166 1.516 . S
C1161 C1162 1.304 . S
C1161 C1165 1.323 . S
C1162 C1161 1.304 . S
C1162 C1163 1.371 . S
C1162 H1176 0.930 . S
C1163 C1160 1.344 . S
C1163 C1162 1.371 . S
C1163 H1177 0.931 . S
C1164 C1160 1.328 . S
C1164 C1165 1.433 . S
C1164 H1178 0.931 . S
C1165 C1161 1.323 . S
C1165 C1164 1.433 . S
C1165 H1179 0.933 . S
C1166 Dy1144 2.738 . S
C1166 O1149 1.255 . S
C1166 O1150 1.249 . S
C1166 C1160 1.516 . S
C1167 O1151 1.254 . S
C1167 O1152 1.257 . S
C1168 O1153 1.266 . S
C1168 O1154 1.236 . S
C1169 C1172 1.344 . S
C1169 C1173 1.328 . S
C1169 C1175 1.516 . S
C1170 C1171 1.304 . S
C1170 C1174 1.323 . S
C1171 C1170 1.304 . S
C1171 C1172 1.371 . S
C1171 H1180 0.930 . S
C1172 C1169 1.344 . S
C1172 C1171 1.371 . S
C1172 H1181 0.931 . S
C1173 C1169 1.328 . S
C1173 C1174 1.433 . S
C1173 H1182 0.931 . S
C1174 C1170 1.323 . S
C1174 C1173 1.433 . S
C1174 H1183 0.933 . S
C1175 Dy1145 2.738 . S
C1175 O1155 1.255 . S
C1175 O1156 1.249 . S
C1175 C1169 1.516 . S
H1176 C1162 0.930 . S
H1177 C1163 0.931 . S
H1178 C1164 0.931 . S
H1179 C1165 0.933 . S
H1180 C1171 0.930 . S
H1181 C1172 0.931 . S
H1182 C1173 0.931 . S
H1183 C1174 0.933 . S
Dy1184 O1187 2.307 1_554 S
Dy1184 O1189 2.395 . S
Dy1184 O1190 2.379 . S
Dy1184 O1192 2.339 . S
Dy1184 O1194 2.298 . S
Dy1184 O1198 2.275 . S
Dy1184 C1206 2.738 . S
Dy1185 O1188 2.298 1_554 S
Dy1185 O1191 2.275 . S
Dy1185 O1193 2.307 . S
Dy1185 O1195 2.395 . S
Dy1185 O1196 2.379 . S
Dy1185 O1199 2.339 . S
Dy1185 C1215 2.738 . S
C1186 O1198 1.254 . S
C1186 O1199 1.257 . S
O1187 Dy1184 2.307 1_556 S
O1187 C1197 1.266 . S
O1188 Dy1185 2.298 1_556 S
O1188 C1197 1.236 . S
O1189 Dy1184 2.395 . S
O1189 C1206 1.255 . S
O1190 Dy1184 2.379 . S
O1190 C1206 1.249 . S
O1191 Dy1185 2.275 . S
O1191 C1207 1.254 . S
O1192 Dy1184 2.339 . S
O1192 C1207 1.257 . S
O1193 Dy1185 2.307 . S
O1193 C1208 1.266 . S
O1194 Dy1184 2.298 . S
O1194 C1208 1.236 . S
O1195 Dy1185 2.395 . S
O1195 C1215 1.255 . S
O1196 Dy1185 2.379 . S
O1196 C1215 1.249 . S
C1197 O1187 1.266 . S
C1197 O1188 1.236 . S
O1198 Dy1184 2.275 . S
O1198 C1186 1.254 . S
O1199 Dy1185 2.339 . S
O1199 C1186 1.257 . S
C1200 C1203 1.344 . S
C1200 C1204 1.328 . S
C1200 C1206 1.516 . S
C1201 C1202 1.304 . S
C1201 C1205 1.323 . S
C1202 C1201 1.304 . S
C1202 C1203 1.371 . S
C1202 H1216 0.930 . S
C1203 C1200 1.344 . S
C1203 C1202 1.371 . S
C1203 H1217 0.931 . S
C1204 C1200 1.328 . S
C1204 C1205 1.433 . S
C1204 H1218 0.931 . S
C1205 C1201 1.323 . S
C1205 C1204 1.433 . S
C1205 H1219 0.933 . S
C1206 Dy1184 2.738 . S
C1206 O1189 1.255 . S
C1206 O1190 1.249 . S
C1206 C1200 1.516 . S
C1207 O1191 1.254 . S
C1207 O1192 1.257 . S
C1208 O1193 1.266 . S
C1208 O1194 1.236 . S
C1209 C1212 1.344 . S
C1209 C1213 1.328 . S
C1209 C1215 1.516 1_556 S
C1210 C1211 1.304 . S
C1210 C1214 1.323 . S
C1211 C1210 1.304 . S
C1211 C1212 1.371 . S
C1211 H1220 0.930 . S
C1212 C1209 1.344 . S
C1212 C1211 1.371 . S
C1212 H1221 0.931 . S
C1213 C1209 1.328 . S
C1213 C1214 1.433 . S
C1213 H1222 0.931 1_556 S
C1214 C1210 1.323 . S
C1214 C1213 1.433 . S
C1214 H1223 0.933 . S
C1215 Dy1185 2.738 . S
C1215 O1195 1.255 . S
C1215 O1196 1.249 . S
C1215 C1209 1.516 1_554 S
H1216 C1202 0.930 . S
H1217 C1203 0.931 . S
H1218 C1204 0.931 . S
H1219 C1205 0.933 . S
H1220 C1211 0.930 . S
H1221 C1212 0.931 . S
H1222 C1213 0.931 1_554 S
H1223 C1214 0.933 . S
Dy1224 O1227 2.307 . S
Dy1224 O1229 2.395 . S
Dy1224 O1230 2.379 . S
Dy1224 O1232 2.339 . S
Dy1224 O1234 2.298 . S
Dy1224 O1238 2.275 . S
Dy1224 C1246 2.738 . S
Dy1225 O1228 2.298 . S
Dy1225 O1231 2.275 . S
Dy1225 O1233 2.307 . S
Dy1225 O1235 2.395 . S
Dy1225 O1236 2.379 . S
Dy1225 O1239 2.339 . S
Dy1225 C1255 2.738 . S
C1226 O1238 1.254 . S
C1226 O1239 1.257 . S
O1227 Dy1224 2.307 . S
O1227 C1237 1.266 . S
O1228 Dy1225 2.298 . S
O1228 C1237 1.236 . S
O1229 Dy1224 2.395 . S
O1229 C1246 1.255 . S
O1230 Dy1224 2.379 . S
O1230 C1246 1.249 . S
O1231 Dy1225 2.275 . S
O1231 C1247 1.254 . S
O1232 Dy1224 2.339 . S
O1232 C1247 1.257 . S
O1233 Dy1225 2.307 . S
O1233 C1248 1.266 . S
O1234 Dy1224 2.298 . S
O1234 C1248 1.236 . S
O1235 Dy1225 2.395 . S
O1235 C1255 1.255 . S
O1236 Dy1225 2.379 . S
O1236 C1255 1.249 . S
C1237 O1227 1.266 . S
C1237 O1228 1.236 . S
O1238 Dy1224 2.275 . S
O1238 C1226 1.254 . S
O1239 Dy1225 2.339 . S
O1239 C1226 1.257 . S
C1240 C1243 1.344 . S
C1240 C1244 1.328 . S
C1240 C1246 1.516 . S
C1241 C1242 1.304 . S
C1241 C1245 1.323 . S
C1242 C1241 1.304 . S
C1242 C1243 1.371 . S
C1242 H1256 0.930 . S
C1243 C1240 1.344 . S
C1243 C1242 1.371 . S
C1243 H1257 0.931 . S
C1244 C1240 1.328 . S
C1244 C1245 1.433 . S
C1244 H1258 0.931 . S
C1245 C1241 1.323 . S
C1245 C1244 1.433 . S
C1245 H1259 0.933 . S
C1246 Dy1224 2.738 . S
C1246 O1229 1.255 . S
C1246 O1230 1.249 . S
C1246 C1240 1.516 . S
C1247 O1231 1.254 . S
C1247 O1232 1.257 . S
C1248 O1233 1.266 . S
C1248 O1234 1.236 . S
C1249 C1252 1.344 . S
C1249 C1253 1.328 . S
C1249 C1255 1.516 . S
C1250 C1251 1.304 . S
C1250 C1254 1.323 . S
C1251 C1250 1.304 . S
C1251 C1252 1.371 . S
C1251 H1260 0.930 . S
C1252 C1249 1.344 . S
C1252 C1251 1.371 . S
C1252 H1261 0.931 . S
C1253 C1249 1.328 . S
C1253 C1254 1.433 . S
C1253 H1262 0.931 . S
C1254 C1250 1.323 . S
C1254 C1253 1.433 . S
C1254 H1263 0.933 . S
C1255 Dy1225 2.738 . S
C1255 O1235 1.255 . S
C1255 O1236 1.249 . S
C1255 C1249 1.516 . S
H1256 C1242 0.930 . S
H1257 C1243 0.931 . S
H1258 C1244 0.931 . S
H1259 C1245 0.933 . S
H1260 C1251 0.930 . S
H1261 C1252 0.931 . S
H1262 C1253 0.931 . S
H1263 C1254 0.933 . S
Dy1264 O1267 2.307 1_455 S
Dy1264 O1269 2.395 . S
Dy1264 O1270 2.379 . S
Dy1264 O1272 2.339 . S
Dy1264 O1274 2.298 . S
Dy1264 O1278 2.275 . S
Dy1264 C1286 2.738 . S
Dy1265 O1268 2.298 1_455 S
Dy1265 O1271 2.275 . S
Dy1265 O1273 2.307 . S
Dy1265 O1275 2.395 . S
Dy1265 O1276 2.379 . S
Dy1265 O1279 2.339 . S
Dy1265 C1295 2.738 . S
C1266 O1278 1.254 . S
C1266 O1279 1.257 . S
O1267 Dy1264 2.307 1_655 S
O1267 C1277 1.266 . S
O1268 Dy1265 2.298 1_655 S
O1268 C1277 1.236 . S
O1269 Dy1264 2.395 . S
O1269 C1286 1.255 . S
O1270 Dy1264 2.379 . S
O1270 C1286 1.249 . S
O1271 Dy1265 2.275 . S
O1271 C1287 1.254 . S
O1272 Dy1264 2.339 . S
O1272 C1287 1.257 . S
O1273 Dy1265 2.307 . S
O1273 C1288 1.266 . S
O1274 Dy1264 2.298 . S
O1274 C1288 1.236 . S
O1275 Dy1265 2.395 . S
O1275 C1295 1.255 . S
O1276 Dy1265 2.379 . S
O1276 C1295 1.249 . S
C1277 O1267 1.266 . S
C1277 O1268 1.236 . S
O1278 Dy1264 2.275 . S
O1278 C1266 1.254 . S
O1279 Dy1265 2.339 . S
O1279 C1266 1.257 . S
C1280 C1283 1.344 . S
C1280 C1284 1.328 . S
C1280 C1286 1.516 . S
C1281 C1282 1.304 . S
C1281 C1285 1.323 . S
C1282 C1281 1.304 . S
C1282 C1283 1.371 . S
C1282 H1296 0.930 . S
C1283 C1280 1.344 . S
C1283 C1282 1.371 . S
C1283 H1297 0.931 . S
C1284 C1280 1.328 . S
C1284 C1285 1.433 . S
C1284 H1298 0.931 . S
C1285 C1281 1.323 . S
C1285 C1284 1.433 . S
C1285 H1299 0.933 . S
C1286 Dy1264 2.738 . S
C1286 O1269 1.255 . S
C1286 O1270 1.249 . S
C1286 C1280 1.516 . S
C1287 O1271 1.254 . S
C1287 O1272 1.257 . S
C1288 O1273 1.266 . S
C1288 O1274 1.236 . S
C1289 C1292 1.344 . S
C1289 C1293 1.328 . S
C1289 C1295 1.516 1_655 S
C1290 C1291 1.304 . S
C1290 C1294 1.323 . S
C1291 C1290 1.304 . S
C1291 C1292 1.371 . S
C1291 H1300 0.930 . S
C1292 C1289 1.344 . S
C1292 C1291 1.371 . S
C1292 H1301 0.931 . S
C1293 C1289 1.328 . S
C1293 C1294 1.433 . S
C1293 H1302 0.931 1_655 S
C1294 C1290 1.323 . S
C1294 C1293 1.433 . S
C1294 H1303 0.933 . S
C1295 Dy1265 2.738 . S
C1295 O1275 1.255 . S
C1295 O1276 1.249 . S
C1295 C1289 1.516 1_455 S
H1296 C1282 0.930 . S
H1297 C1283 0.931 . S
H1298 C1284 0.931 . S
H1299 C1285 0.933 . S
H1300 C1291 0.930 . S
H1301 C1292 0.931 . S
H1302 C1293 0.931 1_455 S
H1303 C1294 0.933 . S
Dy1304 O1307 2.307 . S
Dy1304 O1309 2.395 . S
Dy1304 O1310 2.379 . S
Dy1304 O1312 2.339 . S
Dy1304 O1314 2.298 . S
Dy1304 O1318 2.275 . S
Dy1304 C1326 2.738 . S
Dy1305 O1308 2.298 . S
Dy1305 O1311 2.275 . S
Dy1305 O1313 2.307 . S
Dy1305 O1315 2.395 . S
Dy1305 O1316 2.379 . S
Dy1305 O1319 2.339 . S
Dy1305 C1335 2.738 . S
C1306 O1318 1.254 . S
C1306 O1319 1.257 . S
O1307 Dy1304 2.307 . S
O1307 C1317 1.266 . S
O1308 Dy1305 2.298 . S
O1308 C1317 1.236 . S
O1309 Dy1304 2.395 . S
O1309 C1326 1.255 . S
O1310 Dy1304 2.379 . S
O1310 C1326 1.249 . S
O1311 Dy1305 2.275 . S
O1311 C1327 1.254 . S
O1312 Dy1304 2.339 . S
O1312 C1327 1.257 . S
O1313 Dy1305 2.307 . S
O1313 C1328 1.266 . S
O1314 Dy1304 2.298 . S
O1314 C1328 1.236 . S
O1315 Dy1305 2.395 . S
O1315 C1335 1.255 . S
O1316 Dy1305 2.379 . S
O1316 C1335 1.249 . S
C1317 O1307 1.266 . S
C1317 O1308 1.236 . S
O1318 Dy1304 2.275 . S
O1318 C1306 1.254 . S
O1319 Dy1305 2.339 . S
O1319 C1306 1.257 . S
C1320 C1323 1.344 . S
C1320 C1324 1.328 . S
C1320 C1326 1.516 . S
C1321 C1322 1.304 . S
C1321 C1325 1.323 . S
C1322 C1321 1.304 . S
C1322 C1323 1.371 . S
C1322 H1336 0.930 . S
C1323 C1320 1.344 . S
C1323 C1322 1.371 . S
C1323 H1337 0.931 . S
C1324 C1320 1.328 . S
C1324 C1325 1.433 . S
C1324 H1338 0.931 . S
C1325 C1321 1.323 . S
C1325 C1324 1.433 . S
C1325 H1339 0.933 . S
C1326 Dy1304 2.738 . S
C1326 O1309 1.255 . S
C1326 O1310 1.249 . S
C1326 C1320 1.516 . S
C1327 O1311 1.254 . S
C1327 O1312 1.257 . S
C1328 O1313 1.266 . S
C1328 O1314 1.236 . S
C1329 C1332 1.344 . S
C1329 C1333 1.328 . S
C1329 C1335 1.516 . S
C1330 C1331 1.304 . S
C1330 C1334 1.323 . S
C1331 C1330 1.304 . S
C1331 C1332 1.371 . S
C1331 H1340 0.930 . S
C1332 C1329 1.344 . S
C1332 C1331 1.371 . S
C1332 H1341 0.931 . S
C1333 C1329 1.328 . S
C1333 C1334 1.433 . S
C1333 H1342 0.931 . S
C1334 C1330 1.323 . S
C1334 C1333 1.433 . S
C1334 H1343 0.933 . S
C1335 Dy1305 2.738 . S
C1335 O1315 1.255 . S
C1335 O1316 1.249 . S
C1335 C1329 1.516 . S
H1336 C1322 0.930 . S
H1337 C1323 0.931 . S
H1338 C1324 0.931 . S
H1339 C1325 0.933 . S
H1340 C1331 0.930 . S
H1341 C1332 0.931 . S
H1342 C1333 0.931 . S
H1343 C1334 0.933 . S
Dy1344 O1347 2.307 . S
Dy1344 O1349 2.395 . S
Dy1344 O1350 2.379 . S
Dy1344 O1352 2.339 . S
Dy1344 O1354 2.298 . S
Dy1344 O1358 2.275 . S
Dy1344 C1366 2.738 . S
Dy1345 O1348 2.298 . S
Dy1345 O1351 2.275 . S
Dy1345 O1353 2.307 . S
Dy1345 O1355 2.395 . S
Dy1345 O1356 2.379 . S
Dy1345 O1359 2.339 . S
Dy1345 C1375 2.738 . S
C1346 O1358 1.254 . S
C1346 O1359 1.257 . S
O1347 Dy1344 2.307 . S
O1347 C1357 1.266 . S
O1348 Dy1345 2.298 . S
O1348 C1357 1.236 . S
O1349 Dy1344 2.395 . S
O1349 C1366 1.255 . S
O1350 Dy1344 2.379 . S
O1350 C1366 1.249 . S
O1351 Dy1345 2.275 . S
O1351 C1367 1.254 . S
O1352 Dy1344 2.339 . S
O1352 C1367 1.257 . S
O1353 Dy1345 2.307 . S
O1353 C1368 1.266 . S
O1354 Dy1344 2.298 . S
O1354 C1368 1.236 . S
O1355 Dy1345 2.395 . S
O1355 C1375 1.255 . S
O1356 Dy1345 2.379 . S
O1356 C1375 1.249 . S
C1357 O1347 1.266 . S
C1357 O1348 1.236 . S
O1358 Dy1344 2.275 . S
O1358 C1346 1.254 . S
O1359 Dy1345 2.339 . S
O1359 C1346 1.257 . S
C1360 C1363 1.344 . S
C1360 C1364 1.328 . S
C1360 C1366 1.516 . S
C1361 C1362 1.304 . S
C1361 C1365 1.323 . S
C1362 C1361 1.304 . S
C1362 C1363 1.371 . S
C1362 H1376 0.930 . S
C1363 C1360 1.344 . S
C1363 C1362 1.371 . S
C1363 H1377 0.931 . S
C1364 C1360 1.328 . S
C1364 C1365 1.433 . S
C1364 H1378 0.931 . S
C1365 C1361 1.323 . S
C1365 C1364 1.433 . S
C1365 H1379 0.933 . S
C1366 Dy1344 2.738 . S
C1366 O1349 1.255 . S
C1366 O1350 1.249 . S
C1366 C1360 1.516 . S
C1367 O1351 1.254 . S
C1367 O1352 1.257 . S
C1368 O1353 1.266 . S
C1368 O1354 1.236 . S
C1369 C1372 1.344 . S
C1369 C1373 1.328 . S
C1369 C1375 1.516 . S
C1370 C1371 1.304 . S
C1370 C1374 1.323 . S
C1371 C1370 1.304 . S
C1371 C1372 1.371 . S
C1371 H1380 0.930 . S
C1372 C1369 1.344 . S
C1372 C1371 1.371 . S
C1372 H1381 0.931 . S
C1373 C1369 1.328 . S
C1373 C1374 1.433 . S
C1373 H1382 0.931 . S
C1374 C1370 1.323 . S
C1374 C1373 1.433 . S
C1374 H1383 0.933 . S
C1375 Dy1345 2.738 . S
C1375 O1355 1.255 . S
C1375 O1356 1.249 . S
C1375 C1369 1.516 . S
H1376 C1362 0.930 . S
H1377 C1363 0.931 . S
H1378 C1364 0.931 . S
H1379 C1365 0.933 . S
H1380 C1371 0.930 . S
H1381 C1372 0.931 . S
H1382 C1373 0.931 . S
H1383 C1374 0.933 . S
Dy1384 O1387 2.307 . S
Dy1384 O1389 2.395 . S
Dy1384 O1390 2.379 . S
Dy1384 O1392 2.339 . S
Dy1384 O1394 2.298 . S
Dy1384 O1398 2.275 . S
Dy1384 C1406 2.738 . S
Dy1385 O1388 2.298 . S
Dy1385 O1391 2.275 . S
Dy1385 O1393 2.307 . S
Dy1385 O1395 2.395 . S
Dy1385 O1396 2.379 . S
Dy1385 O1399 2.339 . S
Dy1385 C1415 2.738 . S
C1386 O1398 1.254 . S
C1386 O1399 1.257 . S
O1387 Dy1384 2.307 . S
O1387 C1397 1.266 . S
O1388 Dy1385 2.298 . S
O1388 C1397 1.236 . S
O1389 Dy1384 2.395 . S
O1389 C1406 1.255 . S
O1390 Dy1384 2.379 . S
O1390 C1406 1.249 . S
O1391 Dy1385 2.275 . S
O1391 C1407 1.254 . S
O1392 Dy1384 2.339 . S
O1392 C1407 1.257 . S
O1393 Dy1385 2.307 . S
O1393 C1408 1.266 . S
O1394 Dy1384 2.298 . S
O1394 C1408 1.236 . S
O1395 Dy1385 2.395 . S
O1395 C1415 1.255 . S
O1396 Dy1385 2.379 . S
O1396 C1415 1.249 . S
C1397 O1387 1.266 . S
C1397 O1388 1.236 . S
O1398 Dy1384 2.275 . S
O1398 C1386 1.254 . S
O1399 Dy1385 2.339 . S
O1399 C1386 1.257 . S
C1400 C1403 1.344 . S
C1400 C1404 1.328 . S
C1400 C1406 1.516 . S
C1401 C1402 1.304 . S
C1401 C1405 1.323 . S
C1402 C1401 1.304 . S
C1402 C1403 1.371 . S
C1402 H1416 0.930 . S
C1403 C1400 1.344 . S
C1403 C1402 1.371 . S
C1403 H1417 0.931 . S
C1404 C1400 1.328 . S
C1404 C1405 1.433 . S
C1404 H1418 0.931 . S
C1405 C1401 1.323 . S
C1405 C1404 1.433 . S
C1405 H1419 0.933 . S
C1406 Dy1384 2.738 . S
C1406 O1389 1.255 . S
C1406 O1390 1.249 . S
C1406 C1400 1.516 . S
C1407 O1391 1.254 . S
C1407 O1392 1.257 . S
C1408 O1393 1.266 . S
C1408 O1394 1.236 . S
C1409 C1412 1.344 . S
C1409 C1413 1.328 . S
C1409 C1415 1.516 . S
C1410 C1411 1.304 . S
C1410 C1414 1.323 . S
C1411 C1410 1.304 . S
C1411 C1412 1.371 . S
C1411 H1420 0.930 . S
C1412 C1409 1.344 . S
C1412 C1411 1.371 . S
C1412 H1421 0.931 . S
C1413 C1409 1.328 . S
C1413 C1414 1.433 . S
C1413 H1422 0.931 . S
C1414 C1410 1.323 . S
C1414 C1413 1.433 . S
C1414 H1423 0.933 . S
C1415 Dy1385 2.738 . S
C1415 O1395 1.255 . S
C1415 O1396 1.249 . S
C1415 C1409 1.516 . S
H1416 C1402 0.930 . S
H1417 C1403 0.931 . S
H1418 C1404 0.931 . S
H1419 C1405 0.933 . S
H1420 C1411 0.930 . S
H1421 C1412 0.931 . S
H1422 C1413 0.931 . S
H1423 C1414 0.933 . S
Dy1424 O1427 2.307 . S
Dy1424 O1429 2.395 . S
Dy1424 O1430 2.379 . S
Dy1424 O1432 2.339 . S
Dy1424 O1434 2.298 . S
Dy1424 O1438 2.275 . S
Dy1424 C1446 2.738 . S
Dy1425 O1428 2.298 . S
Dy1425 O1431 2.275 . S
Dy1425 O1433 2.307 . S
Dy1425 O1435 2.395 . S
Dy1425 O1436 2.379 . S
Dy1425 O1439 2.339 . S
Dy1425 C1455 2.738 . S
C1426 O1438 1.254 . S
C1426 O1439 1.257 . S
O1427 Dy1424 2.307 . S
O1427 C1437 1.266 . S
O1428 Dy1425 2.298 . S
O1428 C1437 1.236 . S
O1429 Dy1424 2.395 . S
O1429 C1446 1.255 . S
O1430 Dy1424 2.379 . S
O1430 C1446 1.249 . S
O1431 Dy1425 2.275 . S
O1431 C1447 1.254 . S
O1432 Dy1424 2.339 . S
O1432 C1447 1.257 . S
O1433 Dy1425 2.307 . S
O1433 C1448 1.266 . S
O1434 Dy1424 2.298 . S
O1434 C1448 1.236 . S
O1435 Dy1425 2.395 . S
O1435 C1455 1.255 . S
O1436 Dy1425 2.379 . S
O1436 C1455 1.249 . S
C1437 O1427 1.266 . S
C1437 O1428 1.236 . S
O1438 Dy1424 2.275 . S
O1438 C1426 1.254 . S
O1439 Dy1425 2.339 . S
O1439 C1426 1.257 . S
C1440 C1443 1.344 . S
C1440 C1444 1.328 . S
C1440 C1446 1.516 . S
C1441 C1442 1.304 . S
C1441 C1445 1.323 . S
C1442 C1441 1.304 . S
C1442 C1443 1.371 . S
C1442 H1456 0.930 . S
C1443 C1440 1.344 . S
C1443 C1442 1.371 . S
C1443 H1457 0.931 . S
C1444 C1440 1.328 . S
C1444 C1445 1.433 . S
C1444 H1458 0.931 . S
C1445 C1441 1.323 . S
C1445 C1444 1.433 . S
C1445 H1459 0.933 . S
C1446 Dy1424 2.738 . S
C1446 O1429 1.255 . S
C1446 O1430 1.249 . S
C1446 C1440 1.516 . S
C1447 O1431 1.254 . S
C1447 O1432 1.257 . S
C1448 O1433 1.266 . S
C1448 O1434 1.236 . S
C1449 C1452 1.344 . S
C1449 C1453 1.328 . S
C1449 C1455 1.516 . S
C1450 C1451 1.304 . S
C1450 C1454 1.323 . S
C1451 C1450 1.304 . S
C1451 C1452 1.371 . S
C1451 H1460 0.930 . S
C1452 C1449 1.344 . S
C1452 C1451 1.371 . S
C1452 H1461 0.931 . S
C1453 C1449 1.328 . S
C1453 C1454 1.433 . S
C1453 H1462 0.931 . S
C1454 C1450 1.323 . S
C1454 C1453 1.433 . S
C1454 H1463 0.933 . S
C1455 Dy1425 2.738 . S
C1455 O1435 1.255 . S
C1455 O1436 1.249 . S
C1455 C1449 1.516 . S
H1456 C1442 0.930 . S
H1457 C1443 0.931 . S
H1458 C1444 0.931 . S
H1459 C1445 0.933 . S
H1460 C1451 0.930 . S
H1461 C1452 0.931 . S
H1462 C1453 0.931 . S
H1463 C1454 0.933 . S
Dy1464 O1467 2.307 . S
Dy1464 O1469 2.395 1_455 S
Dy1464 O1470 2.379 1_455 S
Dy1464 O1472 2.339 . S
Dy1464 O1474 2.298 . S
Dy1464 O1478 2.275 . S
Dy1464 C1486 2.738 1_455 S
Dy1465 O1468 2.298 . S
Dy1465 O1471 2.275 . S
Dy1465 O1473 2.307 . S
Dy1465 O1475 2.395 . S
Dy1465 O1476 2.379 1_554 S
Dy1465 O1479 2.339 1_554 S
Dy1465 C1495 2.738 . S
C1466 O1478 1.254 1_556 S
C1466 O1479 1.257 . S
O1467 Dy1464 2.307 . S
O1467 C1477 1.266 . S
O1468 Dy1465 2.298 . S
O1468 C1477 1.236 . S
O1469 Dy1464 2.395 1_655 S
O1469 C1486 1.255 . S
O1470 Dy1464 2.379 1_655 S
O1470 C1486 1.249 . S
O1471 Dy1465 2.275 . S
O1471 C1487 1.254 . S
O1472 Dy1464 2.339 . S
O1472 C1487 1.257 . S
O1473 Dy1465 2.307 . S
O1473 C1488 1.266 . S
O1474 Dy1464 2.298 . S
O1474 C1488 1.236 . S
O1475 Dy1465 2.395 . S
O1475 C1495 1.255 . S
O1476 Dy1465 2.379 1_556 S
O1476 C1495 1.249 1_556 S
C1477 O1467 1.266 . S
C1477 O1468 1.236 . S
O1478 Dy1464 2.275 . S
O1478 C1466 1.254 1_554 S
O1479 Dy1465 2.339 1_556 S
O1479 C1466 1.257 . S
C1480 C1483 1.344 . S
C1480 C1484 1.328 . S
C1480 C1486 1.516 . S
C1481 C1482 1.304 . S
C1481 C1485 1.323 . S
C1482 C1481 1.304 . S
C1482 C1483 1.371 . S
C1482 H1496 0.930 . S
C1483 C1480 1.344 . S
C1483 C1482 1.371 . S
C1483 H1497 0.931 . S
C1484 C1480 1.328 . S
C1484 C1485 1.433 . S
C1484 H1498 0.931 . S
C1485 C1481 1.323 . S
C1485 C1484 1.433 . S
C1485 H1499 0.933 . S
C1486 Dy1464 2.738 1_655 S
C1486 O1469 1.255 . S
C1486 O1470 1.249 . S
C1486 C1480 1.516 . S
C1487 O1471 1.254 . S
C1487 O1472 1.257 . S
C1488 O1473 1.266 . S
C1488 O1474 1.236 . S
C1489 C1492 1.344 . S
C1489 C1493 1.328 1_554 S
C1489 C1495 1.516 . S
C1490 C1491 1.332 . S
C1490 C1494 1.299 1_554 S
C1491 C1490 1.332 . S
C1491 C1492 1.371 . S
C1491 H1500 0.930 . S
C1492 C1489 1.344 . S
C1492 C1491 1.371 . S
C1492 H1501 0.931 . S
C1493 C1489 1.328 1_556 S
C1493 C1494 1.433 . S
C1493 H1502 0.931 . S
C1494 C1490 1.299 1_556 S
C1494 C1493 1.433 . S
C1494 H1503 0.933 . S
C1495 Dy1465 2.738 . S
C1495 O1475 1.255 . S
C1495 O1476 1.249 1_554 S
C1495 C1489 1.516 . S
H1496 C1482 0.930 . S
H1497 C1483 0.931 . S
H1498 C1484 0.931 . S
H1499 C1485 0.933 . S
H1500 C1491 0.930 . S
H1501 C1492 0.931 . S
H1502 C1493 0.931 . S
H1503 C1494 0.933 . S
C1504 C1505 1.349 . S
C1504 C1506 1.327 . S
C1504 H1529 0.950 . S
C1505 C1504 1.349 . S
C1505 C1521 1.349 1_655 S
C1506 C1504 1.327 . S
C1506 C1525 1.429 1_655 S
C1506 H1530 0.950 1_556 S
C1507 C1524 1.574 . S
C1507 C1526 1.368 . S
C1507 H1531 0.949 . S
H1508 C1512 0.949 1_655 S
C1509 C1510 1.302 1_556 S
C1509 C1511 1.348 . S
C1509 H1532 0.978 . S
C1510 C1509 1.302 1_554 S
C1510 C1522 1.349 . S
C1511 C1509 1.348 . S
C1511 C1527 1.429 1_556 S
C1511 H1533 0.950 . S
C1512 H1508 0.949 1_455 S
C1512 C1520 1.574 1_455 S
C1512 C1528 1.368 1_554 S
H1513 C1521 0.950 . S
H1514 C1519 0.950 . S
H1515 C1520 0.949 . S
H1516 C1522 0.950 . S
H1517 C1523 0.950 . S
H1518 C1524 0.949 . S
C1519 H1514 0.950 . S
C1519 C1521 1.327 . S
C1519 C1525 1.429 . S
C1520 C1512 1.574 1_655 S
C1520 H1515 0.949 . S
C1520 C1526 1.368 1_654 S
C1521 C1505 1.349 1_455 S
C1521 H1513 0.950 . S
C1521 C1519 1.327 . S
C1522 C1510 1.349 . S
C1522 H1516 0.950 . S
C1522 C1523 1.327 . S
C1523 H1517 0.950 . S
C1523 C1522 1.327 . S
C1523 C1527 1.429 . S
C1524 C1507 1.574 . S
C1524 H1518 0.949 . S
C1524 C1528 1.368 . S
C1525 C1506 1.429 1_455 S
C1525 C1519 1.429 . S
C1525 C1526 1.523 . S
C1526 C1507 1.368 . S
C1526 C1520 1.368 1_456 S
C1526 C1525 1.523 . S
C1527 C1511 1.429 1_554 S
C1527 C1523 1.429 . S
C1527 C1528 1.523 1_554 S
C1528 C1512 1.368 1_556 S
C1528 C1524 1.368 . S
C1528 C1527 1.523 1_556 S
H1529 C1504 0.950 . S
H1530 C1506 0.950 1_554 S
H1531 C1507 0.949 . S
H1532 C1509 0.978 . S
H1533 C1511 0.950 . S
C1534 C1535 1.349 . S
C1534 C1536 1.327 . S
C1534 H1559 0.950 . S
C1535 C1534 1.349 . S
C1535 C1551 1.349 . S
C1536 C1534 1.327 . S
C1536 C1555 1.429 . S
C1536 H1560 0.950 . S
C1537 C1554 1.574 . S
C1537 C1556 1.368 . S
C1537 H1561 0.949 . S
H1538 C1542 0.949 . S
C1539 C1540 1.349 . S
C1539 C1541 1.327 . S
C1539 H1562 0.950 . S
C1540 C1539 1.349 . S
C1540 C1552 1.349 . S
C1541 C1539 1.327 . S
C1541 C1557 1.429 . S
C1541 H1563 0.950 . S
C1542 H1538 0.949 . S
C1542 C1550 1.574 . S
C1542 C1558 1.368 . S
H1543 C1551 0.950 . S
H1544 C1549 0.950 . S
H1545 C1550 0.949 . S
H1546 C1552 0.950 . S
H1547 C1553 0.950 . S
H1548 C1554 0.949 . S
C1549 H1544 0.950 . S
C1549 C1551 1.327 . S
C1549 C1555 1.429 . S
C1550 C1542 1.574 . S
C1550 H1545 0.949 . S
C1550 C1556 1.368 . S
C1551 C1535 1.349 . S
C1551 H1543 0.950 . S
C1551 C1549 1.327 . S
C1552 C1540 1.349 . S
C1552 H1546 0.950 . S
C1552 C1553 1.327 . S
C1553 H1547 0.950 . S
C1553 C1552 1.327 . S
C1553 C1557 1.429 . S
C1554 C1537 1.574 . S
C1554 H1548 0.949 . S
C1554 C1558 1.368 . S
C1555 C1536 1.429 . S
C1555 C1549 1.429 . S
C1555 C1556 1.523 . S
C1556 C1537 1.368 . S
C1556 C1550 1.368 . S
C1556 C1555 1.523 . S
C1557 C1541 1.429 . S
C1557 C1553 1.429 . S
C1557 C1558 1.523 . S
C1558 C1542 1.368 . S
C1558 C1554 1.368 . S
C1558 C1557 1.523 . S
H1559 C1534 0.950 . S
H1560 C1536 0.950 . S
H1561 C1537 0.949 . S
H1562 C1539 0.950 . S
H1563 C1541 0.950 . S
C1564 C1565 1.349 . S
C1564 C1566 1.327 . S
C1564 H1589 0.950 . S
C1565 C1564 1.349 . S
C1565 C1581 1.349 . S
C1566 C1564 1.327 . S
C1566 C1585 1.429 . S
C1566 H1590 0.950 . S
C1567 C1584 1.574 . S
C1567 C1586 1.368 . S
C1567 H1591 0.949 . S
H1568 C1572 0.949 . S
C1569 C1570 1.349 . S
C1569 C1571 1.327 . S
C1569 H1592 0.950 . S
C1570 C1569 1.349 . S
C1570 C1582 1.349 . S
C1571 C1569 1.327 . S
C1571 C1587 1.429 . S
C1571 H1593 0.950 . S
C1572 H1568 0.949 . S
C1572 C1580 1.574 . S
C1572 C1588 1.368 . S
H1573 C1581 0.950 . S
H1574 C1579 0.950 . S
H1575 C1580 0.949 . S
H1576 C1582 0.950 . S
H1577 C1583 0.950 . S
H1578 C1584 0.949 . S
C1579 H1574 0.950 . S
C1579 C1581 1.327 . S
C1579 C1585 1.429 . S
C1580 C1572 1.574 . S
C1580 H1575 0.949 . S
C1580 C1586 1.368 . S
C1581 C1565 1.349 . S
C1581 H1573 0.950 . S
C1581 C1579 1.327 . S
C1582 C1570 1.349 . S
C1582 H1576 0.950 . S
C1582 C1583 1.327 . S
C1583 H1577 0.950 . S
C1583 C1582 1.327 . S
C1583 C1587 1.429 . S
C1584 C1567 1.574 . S
C1584 H1578 0.949 . S
C1584 C1588 1.368 . S
C1585 C1566 1.429 . S
C1585 C1579 1.429 . S
C1585 C1586 1.523 . S
C1586 C1567 1.368 . S
C1586 C1580 1.368 . S
C1586 C1585 1.523 . S
C1587 C1571 1.429 . S
C1587 C1583 1.429 . S
C1587 C1588 1.523 . S
C1588 C1572 1.368 . S
C1588 C1584 1.368 . S
C1588 C1587 1.523 . S
H1589 C1564 0.950 . S
H1590 C1566 0.950 . S
H1591 C1567 0.949 . S
H1592 C1569 0.950 . S
H1593 C1571 0.950 . S
C1594 C1595 1.349 . S
C1594 C1596 1.327 . S
C1594 H1619 0.950 . S
C1595 C1594 1.349 . S
C1595 C1611 1.349 . S
C1596 C1594 1.327 . S
C1596 C1615 1.429 . S
C1596 H1620 0.950 . S
C1597 C1614 1.574 . S
C1597 C1616 1.368 . S
C1597 H1621 0.949 . S
H1598 C1602 0.949 . S
C1599 C1600 1.349 . S
C1599 C1601 1.327 . S
C1599 H1622 0.950 . S
C1600 C1599 1.349 . S
C1600 C1612 1.349 . S
C1601 C1599 1.327 . S
C1601 C1617 1.429 . S
C1601 H1623 0.950 . S
C1602 H1598 0.949 . S
C1602 C1610 1.574 . S
C1602 C1618 1.368 . S
H1603 C1611 0.950 . S
H1604 C1609 0.950 . S
H1605 C1610 0.949 . S
H1606 C1612 0.950 . S
H1607 C1613 0.950 . S
H1608 C1614 0.949 . S
C1609 H1604 0.950 . S
C1609 C1611 1.327 . S
C1609 C1615 1.429 . S
C1610 C1602 1.574 . S
C1610 H1605 0.949 . S
C1610 C1616 1.368 . S
C1611 C1595 1.349 . S
C1611 H1603 0.950 . S
C1611 C1609 1.327 . S
C1612 C1600 1.349 . S
C1612 H1606 0.950 . S
C1612 C1613 1.327 . S
C1613 H1607 0.950 . S
C1613 C1612 1.327 . S
C1613 C1617 1.429 . S
C1614 C1597 1.574 . S
C1614 H1608 0.949 . S
C1614 C1618 1.368 . S
C1615 C1596 1.429 . S
C1615 C1609 1.429 . S
C1615 C1616 1.523 . S
C1616 C1597 1.368 . S
C1616 C1610 1.368 . S
C1616 C1615 1.523 . S
C1617 C1601 1.429 . S
C1617 C1613 1.429 . S
C1617 C1618 1.523 . S
C1618 C1602 1.368 . S
C1618 C1614 1.368 . S
C1618 C1617 1.523 . S
H1619 C1594 0.950 . S
H1620 C1596 0.950 . S
H1621 C1597 0.949 . S
H1622 C1599 0.950 . S
H1623 C1601 0.950 . S
C1624 C1625 1.349 . S
C1624 C1626 1.327 . S
C1624 H1649 0.950 . S
C1625 C1624 1.349 . S
C1625 C1641 1.349 . S
C1626 C1624 1.327 . S
C1626 C1645 1.429 . S
C1626 H1650 0.950 . S
C1627 C1644 1.574 . S
C1627 C1646 1.368 . S
C1627 H1651 0.949 . S
H1628 C1632 0.949 . S
C1629 C1630 1.349 . S
C1629 C1631 1.327 . S
C1629 H1652 0.950 . S
C1630 C1629 1.349 . S
C1630 C1642 1.349 . S
C1631 C1629 1.327 . S
C1631 C1647 1.429 . S
C1631 H1653 0.950 . S
C1632 H1628 0.949 . S
C1632 C1640 1.574 . S
C1632 C1648 1.368 . S
H1633 C1641 0.950 . S
H1634 C1639 0.950 . S
H1635 C1640 0.949 . S
H1636 C1642 0.950 . S
H1637 C1643 0.950 . S
H1638 C1644 0.949 . S
C1639 H1634 0.950 . S
C1639 C1641 1.327 . S
C1639 C1645 1.429 . S
C1640 C1632 1.574 . S
C1640 H1635 0.949 . S
C1640 C1646 1.368 . S
C1641 C1625 1.349 . S
C1641 H1633 0.950 . S
C1641 C1639 1.327 . S
C1642 C1630 1.349 . S
C1642 H1636 0.950 . S
C1642 C1643 1.327 . S
C1643 H1637 0.950 . S
C1643 C1642 1.327 . S
C1643 C1647 1.429 . S
C1644 C1627 1.574 . S
C1644 H1638 0.949 . S
C1644 C1648 1.368 . S
C1645 C1626 1.429 . S
C1645 C1639 1.429 . S
C1645 C1646 1.523 . S
C1646 C1627 1.368 . S
C1646 C1640 1.368 . S
C1646 C1645 1.523 . S
C1647 C1631 1.429 . S
C1647 C1643 1.429 . S
C1647 C1648 1.523 . S
C1648 C1632 1.368 . S
C1648 C1644 1.368 . S
C1648 C1647 1.523 . S
H1649 C1624 0.950 . S
H1650 C1626 0.950 . S
H1651 C1627 0.949 . S
H1652 C1629 0.950 . S
H1653 C1631 0.950 . S
C1654 C1655 1.349 . S
C1654 C1656 1.327 . S
C1654 H1679 0.950 . S
C1655 C1654 1.349 . S
C1655 C1671 1.349 . S
C1656 C1654 1.327 . S
C1656 C1675 1.429 . S
C1656 H1680 0.950 . S
C1657 C1674 1.574 . S
C1657 C1676 1.368 . S
C1657 H1681 0.949 . S
H1658 C1662 0.949 . S
C1659 C1660 1.349 . S
C1659 C1661 1.327 . S
C1659 H1682 0.950 . S
C1660 C1659 1.349 . S
C1660 C1672 1.349 . S
C1661 C1659 1.327 . S
C1661 C1677 1.429 . S
C1661 H1683 0.950 . S
C1662 H1658 0.949 . S
C1662 C1670 1.574 . S
C1662 C1678 1.368 . S
H1663 C1671 0.950 . S
H1664 C1669 0.950 . S
H1665 C1670 0.949 . S
H1666 C1672 0.950 . S
H1667 C1673 0.950 . S
H1668 C1674 0.949 . S
C1669 H1664 0.950 . S
C1669 C1671 1.327 . S
C1669 C1675 1.429 . S
C1670 C1662 1.574 . S
C1670 H1665 0.949 . S
C1670 C1676 1.368 . S
C1671 C1655 1.349 . S
C1671 H1663 0.950 . S
C1671 C1669 1.327 . S
C1672 C1660 1.349 . S
C1672 H1666 0.950 . S
C1672 C1673 1.327 . S
C1673 H1667 0.950 . S
C1673 C1672 1.327 . S
C1673 C1677 1.429 . S
C1674 C1657 1.574 . S
C1674 H1668 0.949 . S
C1674 C1678 1.368 . S
C1675 C1656 1.429 . S
C1675 C1669 1.429 . S
C1675 C1676 1.523 . S
C1676 C1657 1.368 . S
C1676 C1670 1.368 . S
C1676 C1675 1.523 . S
C1677 C1661 1.429 . S
C1677 C1673 1.429 . S
C1677 C1678 1.523 . S
C1678 C1662 1.368 . S
C1678 C1674 1.368 . S
C1678 C1677 1.523 . S
H1679 C1654 0.950 . S
H1680 C1656 0.950 . S
H1681 C1657 0.949 . S
H1682 C1659 0.950 . S
H1683 C1661 0.950 . S
C1684 C1685 1.349 . S
C1684 C1686 1.327 . S
C1684 H1709 0.950 . S
C1685 C1684 1.349 . S
C1685 C1701 1.349 . S
C1686 C1684 1.327 . S
C1686 C1705 1.429 . S
C1686 H1710 0.950 . S
C1687 C1704 1.574 . S
C1687 C1706 1.368 . S
C1687 H1711 0.949 . S
H1688 C1692 0.949 . S
C1689 C1690 1.349 . S
C1689 C1691 1.327 . S
C1689 H1712 0.950 . S
C1690 C1689 1.349 . S
C1690 C1702 1.349 . S
C1691 C1689 1.327 . S
C1691 C1707 1.429 . S
C1691 H1713 0.950 . S
C1692 H1688 0.949 . S
C1692 C1700 1.574 . S
C1692 C1708 1.368 . S
H1693 C1701 0.950 . S
H1694 C1699 0.950 . S
H1695 C1700 0.949 . S
H1696 C1702 0.950 . S
H1697 C1703 0.950 . S
H1698 C1704 0.949 . S
C1699 H1694 0.950 . S
C1699 C1701 1.327 . S
C1699 C1705 1.429 . S
C1700 C1692 1.574 . S
C1700 H1695 0.949 . S
C1700 C1706 1.368 . S
C1701 C1685 1.349 . S
C1701 H1693 0.950 . S
C1701 C1699 1.327 . S
C1702 C1690 1.349 . S
C1702 H1696 0.950 . S
C1702 C1703 1.327 . S
C1703 H1697 0.950 . S
C1703 C1702 1.327 . S
C1703 C1707 1.429 . S
C1704 C1687 1.574 . S
C1704 H1698 0.949 . S
C1704 C1708 1.368 . S
C1705 C1686 1.429 . S
C1705 C1699 1.429 . S
C1705 C1706 1.523 . S
C1706 C1687 1.368 . S
C1706 C1700 1.368 . S
C1706 C1705 1.523 . S
C1707 C1691 1.429 . S
C1707 C1703 1.429 . S
C1707 C1708 1.523 . S
C1708 C1692 1.368 . S
C1708 C1704 1.368 . S
C1708 C1707 1.523 . S
H1709 C1684 0.950 . S
H1710 C1686 0.950 . S
H1711 C1687 0.949 . S
H1712 C1689 0.950 . S
H1713 C1691 0.950 . S
C1714 C1715 1.349 . S
C1714 C1716 1.327 . S
C1714 H1739 0.950 . S
C1715 C1714 1.349 . S
C1715 C1731 1.349 . S
C1716 C1714 1.327 . S
C1716 C1735 1.429 . S
C1716 H1740 0.950 . S
C1717 C1734 1.574 . S
C1717 C1736 1.368 . S
C1717 H1741 0.949 . S
H1718 C1722 0.949 . S
C1719 C1720 1.349 . S
C1719 C1721 1.327 . S
C1719 H1742 0.950 . S
C1720 C1719 1.349 . S
C1720 C1732 1.349 . S
C1721 C1719 1.327 . S
C1721 C1737 1.429 . S
C1721 H1743 0.950 . S
C1722 H1718 0.949 . S
C1722 C1730 1.574 . S
C1722 C1738 1.368 . S
H1723 C1731 0.950 . S
H1724 C1729 0.950 . S
H1725 C1730 0.949 . S
H1726 C1732 0.950 . S
H1727 C1733 0.950 . S
H1728 C1734 0.949 . S
C1729 H1724 0.950 . S
C1729 C1731 1.327 . S
C1729 C1735 1.429 . S
C1730 C1722 1.574 . S
C1730 H1725 0.949 . S
C1730 C1736 1.368 . S
C1731 C1715 1.349 . S
C1731 H1723 0.950 . S
C1731 C1729 1.327 . S
C1732 C1720 1.349 . S
C1732 H1726 0.950 . S
C1732 C1733 1.327 . S
C1733 H1727 0.950 . S
C1733 C1732 1.327 . S
C1733 C1737 1.429 . S
C1734 C1717 1.574 . S
C1734 H1728 0.949 . S
C1734 C1738 1.368 . S
C1735 C1716 1.429 . S
C1735 C1729 1.429 . S
C1735 C1736 1.523 . S
C1736 C1717 1.368 . S
C1736 C1730 1.368 . S
C1736 C1735 1.523 . S
C1737 C1721 1.429 . S
C1737 C1733 1.429 . S
C1737 C1738 1.523 . S
C1738 C1722 1.368 . S
C1738 C1734 1.368 . S
C1738 C1737 1.523 . S
H1739 C1714 0.950 . S
H1740 C1716 0.950 . S
H1741 C1717 0.949 . S
H1742 C1719 0.950 . S
H1743 C1721 0.950 . S
C1744 C1745 1.349 . S
C1744 C1746 1.327 . S
C1744 H1769 0.950 . S
C1745 C1744 1.349 . S
C1745 C1761 1.349 . S
C1746 C1744 1.327 . S
C1746 C1765 1.429 . S
C1746 H1770 0.950 . S
C1747 C1764 1.574 . S
C1747 C1766 1.368 . S
C1747 H1771 0.949 . S
H1748 C1752 0.949 1_455 S
C1749 C1750 1.349 1_655 S
C1749 C1751 1.327 . S
C1749 H1772 0.950 . S
C1750 C1749 1.349 1_455 S
C1750 C1762 1.349 . S
C1751 C1749 1.327 . S
C1751 C1767 1.429 . S
C1751 H1773 0.950 . S
C1752 H1748 0.949 1_655 S
C1752 C1760 1.574 . S
C1752 C1768 1.368 . S
H1753 C1761 0.950 . S
H1754 C1759 0.950 . S
H1755 C1760 0.949 . S
H1756 C1762 0.950 . S
H1757 C1763 0.950 . S
H1758 C1764 0.949 . S
C1759 H1754 0.950 . S
C1759 C1761 1.327 . S
C1759 C1765 1.429 . S
C1760 C1752 1.574 . S
C1760 H1755 0.949 . S
C1760 C1766 1.368 . S
C1761 C1745 1.349 . S
C1761 H1753 0.950 . S
C1761 C1759 1.327 . S
C1762 C1750 1.349 . S
C1762 H1756 0.950 . S
C1762 C1763 1.327 . S
C1763 H1757 0.950 . S
C1763 C1762 1.327 . S
C1763 C1767 1.429 1_455 S
C1764 C1747 1.574 . S
C1764 H1758 0.949 . S
C1764 C1768 1.368 . S
C1765 C1746 1.429 . S
C1765 C1759 1.429 . S
C1765 C1766 1.523 . S
C1766 C1747 1.368 . S
C1766 C1760 1.368 . S
C1766 C1765 1.523 . S
C1767 C1751 1.429 . S
C1767 C1763 1.429 1_655 S
C1767 C1768 1.523 . S
C1768 C1752 1.368 . S
C1768 C1764 1.368 . S
C1768 C1767 1.523 . S
H1769 C1744 0.950 . S
H1770 C1746 0.950 . S
H1771 C1747 0.949 . S
H1772 C1749 0.950 . S
H1773 C1751 0.950 . S
C1774 C1775 1.349 . S
C1774 C1776 1.327 . S
C1774 H1799 0.950 . S
C1775 C1774 1.349 . S
C1775 C1791 1.349 . S
C1776 C1774 1.327 . S
C1776 C1795 1.429 . S
C1776 H1800 0.950 . S
C1777 C1794 1.574 . S
C1777 C1796 1.368 . S
C1777 H1801 0.949 . S
H1778 C1782 0.949 . S
C1779 C1780 1.349 . S
C1779 C1781 1.327 . S
C1779 H1802 0.950 . S
C1780 C1779 1.349 . S
C1780 C1792 1.349 . S
C1781 C1779 1.327 . S
C1781 C1797 1.429 . S
C1781 H1803 0.950 . S
C1782 H1778 0.949 . S
C1782 C1790 1.574 . S
C1782 C1798 1.368 . S
H1783 C1791 0.950 . S
H1784 C1789 0.950 . S
H1785 C1790 0.949 . S
H1786 C1792 0.950 . S
H1787 C1793 0.950 . S
H1788 C1794 0.949 . S
C1789 H1784 0.950 . S
C1789 C1791 1.327 . S
C1789 C1795 1.429 . S
C1790 C1782 1.574 . S
C1790 H1785 0.949 . S
C1790 C1796 1.368 . S
C1791 C1775 1.349 . S
C1791 H1783 0.950 . S
C1791 C1789 1.327 . S
C1792 C1780 1.349 . S
C1792 H1786 0.950 . S
C1792 C1793 1.327 . S
C1793 H1787 0.950 . S
C1793 C1792 1.327 . S
C1793 C1797 1.429 . S
C1794 C1777 1.574 . S
C1794 H1788 0.949 . S
C1794 C1798 1.368 . S
C1795 C1776 1.429 . S
C1795 C1789 1.429 . S
C1795 C1796 1.523 . S
C1796 C1777 1.368 . S
C1796 C1790 1.368 . S
C1796 C1795 1.523 . S
C1797 C1781 1.429 . S
C1797 C1793 1.429 . S
C1797 C1798 1.523 . S
C1798 C1782 1.368 . S
C1798 C1794 1.368 . S
C1798 C1797 1.523 . S
H1799 C1774 0.950 . S
H1800 C1776 0.950 . S
H1801 C1777 0.949 . S
H1802 C1779 0.950 . S
H1803 C1781 0.950 . S
C1804 C1805 1.349 . S
C1804 C1806 1.327 . S
C1804 H1829 0.950 . S
C1805 C1804 1.349 . S
C1805 C1821 1.349 . S
C1806 C1804 1.327 . S
C1806 C1825 1.429 . S
C1806 H1830 0.950 . S
C1807 C1824 1.574 . S
C1807 C1826 1.368 . S
C1807 H1831 0.949 . S
H1808 C1812 0.949 . S
C1809 C1810 1.349 . S
C1809 C1811 1.327 . S
C1809 H1832 0.950 . S
C1810 C1809 1.349 . S
C1810 C1822 1.349 . S
C1811 C1809 1.327 . S
C1811 C1827 1.429 . S
C1811 H1833 0.950 . S
C1812 H1808 0.949 . S
C1812 C1820 1.574 . S
C1812 C1828 1.368 . S
H1813 C1821 0.950 . S
H1814 C1819 0.950 . S
H1815 C1820 0.949 . S
H1816 C1822 0.950 . S
H1817 C1823 0.950 . S
H1818 C1824 0.949 . S
C1819 H1814 0.950 . S
C1819 C1821 1.327 . S
C1819 C1825 1.429 . S
C1820 C1812 1.574 . S
C1820 H1815 0.949 . S
C1820 C1826 1.368 . S
C1821 C1805 1.349 . S
C1821 H1813 0.950 . S
C1821 C1819 1.327 . S
C1822 C1810 1.349 . S
C1822 H1816 0.950 . S
C1822 C1823 1.327 . S
C1823 H1817 0.950 . S
C1823 C1822 1.327 . S
C1823 C1827 1.429 . S
C1824 C1807 1.574 . S
C1824 H1818 0.949 . S
C1824 C1828 1.368 . S
C1825 C1806 1.429 . S
C1825 C1819 1.429 . S
C1825 C1826 1.523 . S
C1826 C1807 1.368 . S
C1826 C1820 1.368 . S
C1826 C1825 1.523 . S
C1827 C1811 1.429 . S
C1827 C1823 1.429 . S
C1827 C1828 1.523 . S
C1828 C1812 1.368 . S
C1828 C1824 1.368 . S
C1828 C1827 1.523 . S
H1829 C1804 0.950 . S
H1830 C1806 0.950 . S
H1831 C1807 0.949 . S
H1832 C1809 0.950 . S
H1833 C1811 0.950 . S
C1834 C1835 1.349 . S
C1834 C1836 1.327 . S
C1834 H1859 0.950 . S
C1835 C1834 1.349 . S
C1835 C1851 1.349 . S
C1836 C1834 1.327 . S
C1836 C1855 1.429 . S
C1836 H1860 0.950 . S
C1837 C1854 1.574 . S
C1837 C1856 1.368 . S
C1837 H1861 0.949 . S
H1838 C1842 0.949 . S
C1839 C1840 1.349 . S
C1839 C1841 1.327 . S
C1839 H1862 0.950 . S
C1840 C1839 1.349 . S
C1840 C1852 1.349 . S
C1841 C1839 1.327 . S
C1841 C1857 1.429 . S
C1841 H1863 0.950 . S
C1842 H1838 0.949 . S
C1842 C1850 1.574 . S
C1842 C1858 1.368 . S
H1843 C1851 0.950 . S
H1844 C1849 0.950 . S
H1845 C1850 0.949 . S
H1846 C1852 0.950 . S
H1847 C1853 0.950 . S
H1848 C1854 0.949 . S
C1849 H1844 0.950 . S
C1849 C1851 1.327 . S
C1849 C1855 1.429 . S
C1850 C1842 1.574 . S
C1850 H1845 0.949 . S
C1850 C1856 1.368 . S
C1851 C1835 1.349 . S
C1851 H1843 0.950 . S
C1851 C1849 1.327 . S
C1852 C1840 1.349 . S
C1852 H1846 0.950 . S
C1852 C1853 1.327 . S
C1853 H1847 0.950 . S
C1853 C1852 1.327 . S
C1853 C1857 1.429 . S
C1854 C1837 1.574 . S
C1854 H1848 0.949 . S
C1854 C1858 1.368 . S
C1855 C1836 1.429 . S
C1855 C1849 1.429 . S
C1855 C1856 1.523 . S
C1856 C1837 1.368 . S
C1856 C1850 1.368 . S
C1856 C1855 1.523 . S
C1857 C1841 1.429 . S
C1857 C1853 1.429 . S
C1857 C1858 1.523 . S
C1858 C1842 1.368 . S
C1858 C1854 1.368 . S
C1858 C1857 1.523 . S
H1859 C1834 0.950 . S
H1860 C1836 0.950 . S
H1861 C1837 0.949 . S
H1862 C1839 0.950 . S
H1863 C1841 0.950 . S
C1864 C1865 1.349 . S
C1864 C1866 1.327 . S
C1864 H1889 0.950 . S
C1865 C1864 1.349 . S
C1865 C1881 1.349 . S
C1866 C1864 1.327 . S
C1866 C1885 1.429 . S
C1866 H1890 0.950 . S
C1867 C1884 1.574 . S
C1867 C1886 1.368 . S
C1867 H1891 0.949 . S
H1868 C1872 0.949 1_455 S
C1869 C1870 1.374 . S
C1869 C1871 1.318 1_455 S
C1869 H1892 0.934 1_455 S
C1870 C1869 1.374 . S
C1870 C1882 1.349 . S
C1871 C1869 1.318 1_655 S
C1871 C1887 1.429 . S
C1871 H1893 0.950 . S
C1872 H1868 0.949 1_655 S
C1872 C1880 1.574 . S
C1872 C1888 1.368 . S
H1873 C1881 0.950 . S
H1874 C1879 0.950 . S
H1875 C1880 0.949 . S
H1876 C1882 0.950 . S
H1877 C1883 0.950 . S
H1878 C1884 0.949 . S
C1879 H1874 0.950 . S
C1879 C1881 1.327 . S
C1879 C1885 1.429 . S
C1880 C1872 1.574 . S
C1880 H1875 0.949 . S
C1880 C1886 1.368 . S
C1881 C1865 1.349 . S
C1881 H1873 0.950 . S
C1881 C1879 1.327 . S
C1882 C1870 1.349 . S
C1882 H1876 0.950 . S
C1882 C1883 1.327 . S
C1883 H1877 0.950 . S
C1883 C1882 1.327 . S
C1883 C1887 1.429 1_455 S
C1884 C1867 1.574 . S
C1884 H1878 0.949 . S
C1884 C1888 1.368 . S
C1885 C1866 1.429 . S
C1885 C1879 1.429 . S
C1885 C1886 1.523 . S
C1886 C1867 1.368 . S
C1886 C1880 1.368 . S
C1886 C1885 1.523 . S
C1887 C1871 1.429 . S
C1887 C1883 1.429 1_655 S
C1887 C1888 1.523 . S
C1888 C1872 1.368 . S
C1888 C1884 1.368 . S
C1888 C1887 1.523 . S
H1889 C1864 0.950 . S
H1890 C1866 0.950 . S
H1891 C1867 0.949 . S
H1892 C1869 0.934 1_655 S
H1893 C1871 0.950 . S
C1894 C1895 1.349 . S
C1894 C1896 1.327 . S
C1894 H1919 0.950 . S
C1895 C1894 1.349 . S
C1895 C1911 1.349 . S
C1896 C1894 1.327 . S
C1896 C1915 1.429 . S
C1896 H1920 0.950 . S
C1897 C1914 1.574 . S
C1897 C1916 1.368 . S
C1897 H1921 0.949 . S
H1898 C1902 0.949 . S
C1899 C1900 1.349 . S
C1899 C1901 1.327 . S
C1899 H1922 0.950 . S
C1900 C1899 1.349 . S
C1900 C1912 1.349 . S
C1901 C1899 1.327 . S
C1901 C1917 1.429 . S
C1901 H1923 0.950 . S
C1902 H1898 0.949 . S
C1902 C1910 1.574 . S
C1902 C1918 1.368 . S
H1903 C1911 0.950 . S
H1904 C1909 0.950 . S
H1905 C1910 0.949 . S
H1906 C1912 0.950 . S
H1907 C1913 0.950 . S
H1908 C1914 0.949 . S
C1909 H1904 0.950 . S
C1909 C1911 1.327 . S
C1909 C1915 1.429 . S
C1910 C1902 1.574 . S
C1910 H1905 0.949 . S
C1910 C1916 1.368 . S
C1911 C1895 1.349 . S
C1911 H1903 0.950 . S
C1911 C1909 1.327 . S
C1912 C1900 1.349 . S
C1912 H1906 0.950 . S
C1912 C1913 1.327 . S
C1913 H1907 0.950 . S
C1913 C1912 1.327 . S
C1913 C1917 1.429 . S
C1914 C1897 1.574 . S
C1914 H1908 0.949 . S
C1914 C1918 1.368 . S
C1915 C1896 1.429 . S
C1915 C1909 1.429 . S
C1915 C1916 1.523 . S
C1916 C1897 1.368 . S
C1916 C1910 1.368 . S
C1916 C1915 1.523 . S
C1917 C1901 1.429 . S
C1917 C1913 1.429 . S
C1917 C1918 1.523 . S
C1918 C1902 1.368 . S
C1918 C1914 1.368 . S
C1918 C1917 1.523 . S
H1919 C1894 0.950 . S
H1920 C1896 0.950 . S
H1921 C1897 0.949 . S
H1922 C1899 0.950 . S
H1923 C1901 0.950 . S
C1924 C1925 1.349 . S
C1924 C1926 1.327 . S
C1924 H1949 0.950 . S
C1925 C1924 1.349 . S
C1925 C1941 1.349 . S
C1926 C1924 1.327 . S
C1926 C1945 1.429 . S
C1926 H1950 0.950 . S
C1927 C1944 1.574 . S
C1927 C1946 1.368 . S
C1927 H1951 0.949 . S
H1928 C1932 0.949 . S
C1929 C1930 1.349 . S
C1929 C1931 1.327 . S
C1929 H1952 0.950 . S
C1930 C1929 1.349 . S
C1930 C1942 1.349 . S
C1931 C1929 1.327 . S
C1931 C1947 1.429 . S
C1931 H1953 0.950 . S
C1932 H1928 0.949 . S
C1932 C1940 1.574 . S
C1932 C1948 1.368 . S
H1933 C1941 0.950 . S
H1934 C1939 0.950 . S
H1935 C1940 0.949 . S
H1936 C1942 0.950 . S
H1937 C1943 0.950 . S
H1938 C1944 0.949 . S
C1939 H1934 0.950 . S
C1939 C1941 1.327 . S
C1939 C1945 1.429 . S
C1940 C1932 1.574 . S
C1940 H1935 0.949 . S
C1940 C1946 1.368 . S
C1941 C1925 1.349 . S
C1941 H1933 0.950 . S
C1941 C1939 1.327 . S
C1942 C1930 1.349 . S
C1942 H1936 0.950 . S
C1942 C1943 1.327 . S
C1943 H1937 0.950 . S
C1943 C1942 1.327 . S
C1943 C1947 1.429 . S
C1944 C1927 1.574 . S
C1944 H1938 0.949 . S
C1944 C1948 1.368 . S
C1945 C1926 1.429 . S
C1945 C1939 1.429 . S
C1945 C1946 1.523 . S
C1946 C1927 1.368 . S
C1946 C1940 1.368 . S
C1946 C1945 1.523 . S
C1947 C1931 1.429 . S
C1947 C1943 1.429 . S
C1947 C1948 1.523 . S
C1948 C1932 1.368 . S
C1948 C1944 1.368 . S
C1948 C1947 1.523 . S
H1949 C1924 0.950 . S
H1950 C1926 0.950 . S
H1951 C1927 0.949 . S
H1952 C1929 0.950 . S
H1953 C1931 0.950 . S
C1954 C1955 1.349 . S
C1954 C1956 1.327 . S
C1954 H1979 0.950 . S
C1955 C1954 1.349 . S
C1955 C1971 1.349 . S
C1956 C1954 1.327 . S
C1956 C1975 1.429 . S
C1956 H1980 0.950 . S
C1957 C1974 1.574 . S
C1957 C1976 1.368 . S
C1957 H1981 0.949 . S
H1958 C1962 0.949 . S
C1959 C1960 1.349 . S
C1959 C1961 1.327 . S
C1959 H1982 0.950 . S
C1960 C1959 1.349 . S
C1960 C1972 1.349 . S
C1961 C1959 1.327 . S
C1961 C1977 1.429 . S
C1961 H1983 0.950 . S
C1962 H1958 0.949 . S
C1962 C1970 1.574 . S
C1962 C1978 1.368 . S
H1963 C1971 0.950 . S
H1964 C1969 0.950 . S
H1965 C1970 0.949 . S
H1966 C1972 0.950 . S
H1967 C1973 0.950 . S
H1968 C1974 0.949 . S
C1969 H1964 0.950 . S
C1969 C1971 1.327 . S
C1969 C1975 1.429 . S
C1970 C1962 1.574 . S
C1970 H1965 0.949 . S
C1970 C1976 1.368 . S
C1971 C1955 1.349 . S
C1971 H1963 0.950 . S
C1971 C1969 1.327 . S
C1972 C1960 1.349 . S
C1972 H1966 0.950 . S
C1972 C1973 1.327 . S
C1973 H1967 0.950 . S
C1973 C1972 1.327 . S
C1973 C1977 1.429 . S
C1974 C1957 1.574 . S
C1974 H1968 0.949 . S
C1974 C1978 1.368 . S
C1975 C1956 1.429 . S
C1975 C1969 1.429 . S
C1975 C1976 1.523 . S
C1976 C1957 1.368 . S
C1976 C1970 1.368 . S
C1976 C1975 1.523 . S
C1977 C1961 1.429 . S
C1977 C1973 1.429 . S
C1977 C1978 1.523 . S
C1978 C1962 1.368 . S
C1978 C1974 1.368 . S
C1978 C1977 1.523 . S
H1979 C1954 0.950 . S
H1980 C1956 0.950 . S
H1981 C1957 0.949 . S
H1982 C1959 0.950 . S
H1983 C1961 0.950 . S
C1984 C1985 1.349 1_556 S
C1984 C1986 1.327 1_556 S
C1984 H2009 0.950 . S
C1985 C1984 1.349 1_554 S
C1985 C2001 1.349 . S
C1986 C1984 1.327 1_554 S
C1986 C2005 1.429 . S
C1986 H2010 0.950 . S
C1987 C2004 1.574 . S
C1987 C2006 1.368 . S
C1987 H2011 0.949 . S
H1988 C1992 0.949 . S
C1989 C1990 1.349 1_545 S
C1989 C1991 1.327 1_545 S
C1989 H2012 0.950 . S
C1990 C1989 1.349 1_565 S
C1990 C2002 1.349 . S
C1991 C1989 1.327 1_565 S
C1991 C2007 1.429 . S
C1991 H2013 0.950 1_565 S
C1992 H1988 0.949 . S
C1992 C2000 1.574 . S
C1992 C2008 1.368 . S
H1993 C2001 0.950 . S
H1994 C1999 0.950 . S
H1995 C2000 0.949 . S
H1996 C2002 0.950 . S
H1997 C2003 0.950 . S
H1998 C2004 0.949 . S
C1999 H1994 0.950 . S
C1999 C2001 1.327 . S
C1999 C2005 1.429 . S
C2000 C1992 1.574 . S
C2000 H1995 0.949 . S
C2000 C2006 1.368 . S
C2001 C1985 1.349 . S
C2001 H1993 0.950 . S
C2001 C1999 1.327 . S
C2002 C1990 1.349 . S
C2002 H1996 0.950 . S
C2002 C2003 1.327 . S
C2003 H1997 0.950 . S
C2003 C2002 1.327 . S
C2003 C2007 1.429 . S
C2004 C1987 1.574 . S
C2004 H1998 0.949 . S
C2004 C2008 1.368 . S
C2005 C1986 1.429 . S
C2005 C1999 1.429 . S
C2005 C2006 1.523 . S
C2006 C1987 1.368 . S
C2006 C2000 1.368 . S
C2006 C2005 1.523 . S
C2007 C1991 1.429 . S
C2007 C2003 1.429 . S
C2007 C2008 1.523 . S
C2008 C1992 1.368 . S
C2008 C2004 1.368 . S
C2008 C2007 1.523 . S
H2009 C1984 0.950 . S
H2010 C1986 0.950 . S
H2011 C1987 0.949 . S
H2012 C1989 0.950 . S
H2013 C1991 0.950 1_545 S
C2014 C2015 1.349 . S
C2014 C2016 1.327 . S
C2014 H2039 0.950 . S
C2015 C2014 1.349 . S
C2015 C2031 1.349 . S
C2016 C2014 1.327 . S
C2016 C2035 1.429 . S
C2016 H2040 0.950 . S
C2017 C2034 1.574 . S
C2017 C2036 1.368 . S
C2017 H2041 0.949 1_554 S
H2018 C2022 0.949 . S
C2019 C2020 1.349 . S
C2019 C2021 1.327 . S
C2019 H2042 0.950 1_554 S
C2020 C2019 1.349 . S
C2020 C2032 1.349 . S
C2021 C2019 1.327 . S
C2021 C2037 1.429 . S
C2021 H2043 0.950 1_554 S
C2022 H2018 0.949 . S
C2022 C2030 1.574 . S
C2022 C2038 1.368 . S
H2023 C2031 0.950 1_556 S
H2024 C2029 0.950 1_556 S
H2025 C2030 0.949 . S
H2026 C2032 0.950 . S
H2027 C2033 0.950 . S
H2028 C2034 0.949 1_556 S
C2029 H2024 0.950 1_554 S
C2029 C2031 1.327 . S
C2029 C2035 1.429 . S
C2030 C2022 1.574 . S
C2030 H2025 0.949 . S
C2030 C2036 1.368 . S
C2031 C2015 1.349 . S
C2031 H2023 0.950 1_554 S
C2031 C2029 1.327 . S
C2032 C2020 1.349 . S
C2032 H2026 0.950 . S
C2032 C2033 1.327 . S
C2033 H2027 0.950 . S
C2033 C2032 1.327 . S
C2033 C2037 1.429 . S
C2034 C2017 1.574 . S
C2034 H2028 0.949 1_554 S
C2034 C2038 1.368 . S
C2035 C2016 1.429 . S
C2035 C2029 1.429 . S
C2035 C2036 1.523 . S
C2036 C2017 1.368 . S
C2036 C2030 1.368 . S
C2036 C2035 1.523 . S
C2037 C2021 1.429 . S
C2037 C2033 1.429 . S
C2037 C2038 1.523 . S
C2038 C2022 1.368 . S
C2038 C2034 1.368 . S
C2038 C2037 1.523 . S
H2039 C2014 0.950 . S
H2040 C2016 0.950 . S
H2041 C2017 0.949 1_556 S
H2042 C2019 0.950 1_556 S
H2043 C2021 0.950 1_556 S
C2044 C2045 1.349 . S
C2044 C2046 1.327 . S
C2044 H2069 0.950 . S
C2045 C2044 1.349 . S
C2045 C2061 1.349 . S
C2046 C2044 1.327 . S
C2046 C2065 1.429 . S
C2046 H2070 0.950 . S
C2047 C2064 1.574 . S
C2047 C2066 1.368 . S
C2047 H2071 0.949 . S
H2048 C2052 0.949 . S
C2049 C2050 1.349 . S
C2049 C2051 1.327 . S
C2049 H2072 0.950 . S
C2050 C2049 1.349 . S
C2050 C2062 1.349 . S
C2051 C2049 1.327 . S
C2051 C2067 1.429 . S
C2051 H2073 0.950 . S
C2052 H2048 0.949 . S
C2052 C2060 1.574 . S
C2052 C2068 1.368 . S
H2053 C2061 0.950 . S
H2054 C2059 0.950 . S
H2055 C2060 0.949 . S
H2056 C2062 0.950 . S
H2057 C2063 0.950 . S
H2058 C2064 0.949 . S
C2059 H2054 0.950 . S
C2059 C2061 1.327 . S
C2059 C2065 1.429 . S
C2060 C2052 1.574 . S
C2060 H2055 0.949 . S
C2060 C2066 1.368 . S
C2061 C2045 1.349 . S
C2061 H2053 0.950 . S
C2061 C2059 1.327 . S
C2062 C2050 1.349 . S
C2062 H2056 0.950 . S
C2062 C2063 1.327 . S
C2063 H2057 0.950 . S
C2063 C2062 1.327 . S
C2063 C2067 1.429 . S
C2064 C2047 1.574 . S
C2064 H2058 0.949 . S
C2064 C2068 1.368 . S
C2065 C2046 1.429 . S
C2065 C2059 1.429 . S
C2065 C2066 1.523 . S
C2066 C2047 1.368 . S
C2066 C2060 1.368 . S
C2066 C2065 1.523 . S
C2067 C2051 1.429 . S
C2067 C2063 1.429 . S
C2067 C2068 1.523 . S
C2068 C2052 1.368 . S
C2068 C2064 1.368 . S
C2068 C2067 1.523 . S
H2069 C2044 0.950 . S
H2070 C2046 0.950 . S
H2071 C2047 0.949 . S
H2072 C2049 0.950 . S
H2073 C2051 0.950 . S
C2074 C2075 1.349 . S
C2074 C2076 1.327 . S
C2074 H2099 0.950 . S
C2075 C2074 1.349 . S
C2075 C2091 1.349 . S
C2076 C2074 1.327 . S
C2076 C2095 1.429 . S
C2076 H2100 0.950 . S
C2077 C2094 1.574 . S
C2077 C2096 1.368 . S
C2077 H2101 0.949 . S
H2078 C2082 0.949 . S
C2079 C2080 1.349 . S
C2079 C2081 1.327 . S
C2079 H2102 0.950 . S
C2080 C2079 1.349 . S
C2080 C2092 1.349 . S
C2081 C2079 1.327 . S
C2081 C2097 1.429 . S
C2081 H2103 0.950 . S
C2082 H2078 0.949 . S
C2082 C2090 1.574 . S
C2082 C2098 1.368 . S
H2083 C2091 0.950 . S
H2084 C2089 0.950 . S
H2085 C2090 0.949 . S
H2086 C2092 0.950 . S
H2087 C2093 0.950 . S
H2088 C2094 0.949 . S
C2089 H2084 0.950 . S
C2089 C2091 1.327 . S
C2089 C2095 1.429 . S
C2090 C2082 1.574 . S
C2090 H2085 0.949 . S
C2090 C2096 1.368 . S
C2091 C2075 1.349 . S
C2091 H2083 0.950 . S
C2091 C2089 1.327 . S
C2092 C2080 1.349 . S
C2092 H2086 0.950 . S
C2092 C2093 1.327 . S
C2093 H2087 0.950 . S
C2093 C2092 1.327 . S
C2093 C2097 1.429 . S
C2094 C2077 1.574 . S
C2094 H2088 0.949 . S
C2094 C2098 1.368 . S
C2095 C2076 1.429 . S
C2095 C2089 1.429 . S
C2095 C2096 1.523 . S
C2096 C2077 1.368 . S
C2096 C2090 1.368 . S
C2096 C2095 1.523 . S
C2097 C2081 1.429 . S
C2097 C2093 1.429 . S
C2097 C2098 1.523 . S
C2098 C2082 1.368 . S
C2098 C2094 1.368 . S
C2098 C2097 1.523 . S
H2099 C2074 0.950 . S
H2100 C2076 0.950 . S
H2101 C2077 0.949 . S
H2102 C2079 0.950 . S
H2103 C2081 0.950 . S
C2104 C2105 1.349 . S
C2104 C2106 1.327 . S
C2104 H2129 0.950 . S
C2105 C2104 1.349 . S
C2105 C2121 1.349 . S
C2106 C2104 1.327 . S
C2106 C2125 1.429 . S
C2106 H2130 0.950 . S
C2107 C2124 1.574 . S
C2107 C2126 1.368 . S
C2107 H2131 0.949 . S
H2108 C2112 0.949 . S
C2109 C2110 1.349 . S
C2109 C2111 1.327 . S
C2109 H2132 0.950 . S
C2110 C2109 1.349 . S
C2110 C2122 1.349 . S
C2111 C2109 1.327 . S
C2111 C2127 1.429 . S
C2111 H2133 0.950 . S
C2112 H2108 0.949 . S
C2112 C2120 1.574 . S
C2112 C2128 1.368 . S
H2113 C2121 0.950 . S
H2114 C2119 0.950 . S
H2115 C2120 0.949 . S
H2116 C2122 0.950 . S
H2117 C2123 0.950 . S
H2118 C2124 0.949 . S
C2119 H2114 0.950 . S
C2119 C2121 1.327 . S
C2119 C2125 1.429 . S
C2120 C2112 1.574 . S
C2120 H2115 0.949 . S
C2120 C2126 1.368 . S
C2121 C2105 1.349 . S
C2121 H2113 0.950 . S
C2121 C2119 1.327 . S
C2122 C2110 1.349 . S
C2122 H2116 0.950 . S
C2122 C2123 1.327 . S
C2123 H2117 0.950 . S
C2123 C2122 1.327 . S
C2123 C2127 1.429 . S
C2124 C2107 1.574 . S
C2124 H2118 0.949 . S
C2124 C2128 1.368 . S
C2125 C2106 1.429 . S
C2125 C2119 1.429 . S
C2125 C2126 1.523 . S
C2126 C2107 1.368 . S
C2126 C2120 1.368 . S
C2126 C2125 1.523 . S
C2127 C2111 1.429 . S
C2127 C2123 1.429 . S
C2127 C2128 1.523 . S
C2128 C2112 1.368 . S
C2128 C2124 1.368 . S
C2128 C2127 1.523 . S
H2129 C2104 0.950 . S
H2130 C2106 0.950 . S
H2131 C2107 0.949 . S
H2132 C2109 0.950 . S
H2133 C2111 0.950 . S
C2134 C2135 1.349 . S
C2134 C2136 1.327 . S
C2134 H2159 0.950 . S
C2135 C2134 1.349 . S
C2135 C2151 1.349 . S
C2136 C2134 1.327 . S
C2136 C2155 1.429 . S
C2136 H2160 0.950 . S
C2137 C2154 1.574 . S
C2137 C2156 1.368 . S
C2137 H2161 0.949 . S
H2138 C2142 0.949 . S
C2139 C2140 1.349 . S
C2139 C2141 1.327 . S
C2139 H2162 0.950 . S
C2140 C2139 1.349 . S
C2140 C2152 1.349 . S
C2141 C2139 1.327 . S
C2141 C2157 1.429 . S
C2141 H2163 0.950 . S
C2142 H2138 0.949 . S
C2142 C2150 1.574 . S
C2142 C2158 1.368 . S
H2143 C2151 0.950 . S
H2144 C2149 0.950 . S
H2145 C2150 0.949 . S
H2146 C2152 0.950 . S
H2147 C2153 0.950 . S
H2148 C2154 0.949 . S
C2149 H2144 0.950 . S
C2149 C2151 1.327 . S
C2149 C2155 1.429 . S
C2150 C2142 1.574 . S
C2150 H2145 0.949 . S
C2150 C2156 1.368 . S
C2151 C2135 1.349 . S
C2151 H2143 0.950 . S
C2151 C2149 1.327 . S
C2152 C2140 1.349 . S
C2152 H2146 0.950 . S
C2152 C2153 1.327 . S
C2153 H2147 0.950 . S
C2153 C2152 1.327 . S
C2153 C2157 1.429 . S
C2154 C2137 1.574 . S
C2154 H2148 0.949 . S
C2154 C2158 1.368 . S
C2155 C2136 1.429 . S
C2155 C2149 1.429 . S
C2155 C2156 1.523 . S
C2156 C2137 1.368 . S
C2156 C2150 1.368 . S
C2156 C2155 1.523 . S
C2157 C2141 1.429 . S
C2157 C2153 1.429 . S
C2157 C2158 1.523 . S
C2158 C2142 1.368 . S
C2158 C2154 1.368 . S
C2158 C2157 1.523 . S
H2159 C2134 0.950 . S
H2160 C2136 0.950 . S
H2161 C2137 0.949 . S
H2162 C2139 0.950 . S
H2163 C2141 0.950 . S
C2164 C2165 1.349 . S
C2164 C2166 1.327 . S
C2164 H2189 0.950 . S
C2165 C2164 1.349 . S
C2165 C2181 1.349 . S
C2166 C2164 1.327 . S
C2166 C2185 1.429 . S
C2166 H2190 0.950 . S
C2167 C2184 1.574 . S
C2167 C2186 1.368 . S
C2167 H2191 0.949 . S
H2168 C2172 0.949 . S
C2169 C2170 1.349 . S
C2169 C2171 1.327 . S
C2169 H2192 0.950 . S
C2170 C2169 1.349 . S
C2170 C2182 1.349 . S
C2171 C2169 1.327 . S
C2171 C2187 1.429 . S
C2171 H2193 0.950 . S
C2172 H2168 0.949 . S
C2172 C2180 1.574 . S
C2172 C2188 1.368 . S
H2173 C2181 0.950 . S
H2174 C2179 0.950 . S
H2175 C2180 0.949 . S
H2176 C2182 0.950 . S
H2177 C2183 0.950 . S
H2178 C2184 0.949 . S
C2179 H2174 0.950 . S
C2179 C2181 1.327 . S
C2179 C2185 1.429 . S
C2180 C2172 1.574 . S
C2180 H2175 0.949 . S
C2180 C2186 1.368 . S
C2181 C2165 1.349 . S
C2181 H2173 0.950 . S
C2181 C2179 1.327 . S
C2182 C2170 1.349 . S
C2182 H2176 0.950 . S
C2182 C2183 1.327 . S
C2183 H2177 0.950 . S
C2183 C2182 1.327 . S
C2183 C2187 1.429 . S
C2184 C2167 1.574 . S
C2184 H2178 0.949 . S
C2184 C2188 1.368 . S
C2185 C2166 1.429 . S
C2185 C2179 1.429 . S
C2185 C2186 1.523 . S
C2186 C2167 1.368 . S
C2186 C2180 1.368 . S
C2186 C2185 1.523 . S
C2187 C2171 1.429 . S
C2187 C2183 1.429 . S
C2187 C2188 1.523 . S
C2188 C2172 1.368 . S
C2188 C2184 1.368 . S
C2188 C2187 1.523 . S
H2189 C2164 0.950 . S
H2190 C2166 0.950 . S
H2191 C2167 0.949 . S
H2192 C2169 0.950 . S
H2193 C2171 0.950 . S
C2194 C2195 1.349 . S
C2194 C2196 1.327 . S
C2194 H2219 0.950 . S
C2195 C2194 1.349 . S
C2195 C2211 1.349 . S
C2196 C2194 1.327 . S
C2196 C2215 1.429 . S
C2196 H2220 0.950 . S
C2197 C2214 1.574 . S
C2197 C2216 1.368 . S
C2197 H2221 0.949 . S
H2198 C2202 0.949 . S
C2199 C2200 1.349 . S
C2199 C2201 1.327 . S
C2199 H2222 0.950 . S
C2200 C2199 1.349 . S
C2200 C2212 1.349 . S
C2201 C2199 1.327 . S
C2201 C2217 1.429 . S
C2201 H2223 0.950 . S
C2202 H2198 0.949 . S
C2202 C2210 1.574 . S
C2202 C2218 1.368 . S
H2203 C2211 0.950 . S
H2204 C2209 0.950 . S
H2205 C2210 0.949 . S
H2206 C2212 0.950 . S
H2207 C2213 0.950 . S
H2208 C2214 0.949 . S
C2209 H2204 0.950 . S
C2209 C2211 1.327 . S
C2209 C2215 1.429 . S
C2210 C2202 1.574 . S
C2210 H2205 0.949 . S
C2210 C2216 1.368 . S
C2211 C2195 1.349 . S
C2211 H2203 0.950 . S
C2211 C2209 1.327 . S
C2212 C2200 1.349 . S
C2212 H2206 0.950 . S
C2212 C2213 1.327 . S
C2213 H2207 0.950 . S
C2213 C2212 1.327 . S
C2213 C2217 1.429 . S
C2214 C2197 1.574 . S
C2214 H2208 0.949 . S
C2214 C2218 1.368 . S
C2215 C2196 1.429 . S
C2215 C2209 1.429 . S
C2215 C2216 1.523 . S
C2216 C2197 1.368 . S
C2216 C2210 1.368 . S
C2216 C2215 1.523 . S
C2217 C2201 1.429 . S
C2217 C2213 1.429 . S
C2217 C2218 1.523 . S
C2218 C2202 1.368 . S
C2218 C2214 1.368 . S
C2218 C2217 1.523 . S
H2219 C2194 0.950 . S
H2220 C2196 0.950 . S
H2221 C2197 0.949 . S
H2222 C2199 0.950 . S
H2223 C2201 0.950 . S
C2224 C2225 1.349 . S
C2224 C2226 1.327 . S
C2224 H2249 0.950 . S
C2225 C2224 1.349 . S
C2225 C2241 1.349 . S
C2226 C2224 1.327 . S
C2226 C2245 1.429 . S
C2226 H2250 0.950 . S
C2227 C2244 1.574 . S
C2227 C2246 1.368 . S
C2227 H2251 0.949 . S
H2228 C2232 0.949 . S
C2229 C2230 1.349 . S
C2229 C2231 1.327 . S
C2229 H2252 0.950 1_455 S
C2230 C2229 1.349 . S
C2230 C2242 1.349 . S
C2231 C2229 1.327 . S
C2231 C2247 1.429 . S
C2231 H2253 0.950 . S
C2232 H2228 0.949 . S
C2232 C2240 1.574 . S
C2232 C2248 1.368 . S
H2233 C2241 0.950 . S
H2234 C2239 0.950 . S
H2235 C2240 0.949 . S
H2236 C2242 0.950 . S
H2237 C2243 0.950 . S
H2238 C2244 0.949 . S
C2239 H2234 0.950 . S
C2239 C2241 1.327 . S
C2239 C2245 1.429 . S
C2240 C2232 1.574 . S
C2240 H2235 0.949 . S
C2240 C2246 1.368 . S
C2241 C2225 1.349 . S
C2241 H2233 0.950 . S
C2241 C2239 1.327 . S
C2242 C2230 1.349 . S
C2242 H2236 0.950 . S
C2242 C2243 1.327 . S
C2243 H2237 0.950 . S
C2243 C2242 1.327 . S
C2243 C2247 1.429 . S
C2244 C2227 1.574 . S
C2244 H2238 0.949 . S
C2244 C2248 1.368 . S
C2245 C2226 1.429 . S
C2245 C2239 1.429 . S
C2245 C2246 1.523 . S
C2246 C2227 1.368 . S
C2246 C2240 1.368 . S
C2246 C2245 1.523 . S
C2247 C2231 1.429 . S
C2247 C2243 1.429 . S
C2247 C2248 1.523 . S
C2248 C2232 1.368 . S
C2248 C2244 1.368 . S
C2248 C2247 1.523 . S
H2249 C2224 0.950 . S
H2250 C2226 0.950 . S
H2251 C2227 0.949 . S
H2252 C2229 0.950 1_655 S
H2253 C2231 0.950 . S
C2254 C2255 1.349 . S
C2254 C2256 1.327 . S
C2254 H2279 0.950 . S
C2255 C2254 1.349 . S
C2255 C2271 1.349 . S
C2256 C2254 1.327 . S
C2256 C2275 1.429 . S
C2256 H2280 0.950 . S
C2257 C2274 1.574 . S
C2257 C2276 1.368 . S
C2257 H2281 0.949 . S
H2258 C2262 0.949 . S
C2259 C2260 1.349 . S
C2259 C2261 1.327 . S
C2259 H2282 0.950 . S
C2260 C2259 1.349 . S
C2260 C2272 1.349 . S
C2261 C2259 1.327 . S
C2261 C2277 1.429 . S
C2261 H2283 0.950 . S
C2262 H2258 0.949 . S
C2262 C2270 1.574 . S
C2262 C2278 1.368 . S
H2263 C2271 0.950 . S
H2264 C2269 0.950 . S
H2265 C2270 0.949 . S
H2266 C2272 0.950 . S
H2267 C2273 0.950 . S
H2268 C2274 0.949 . S
C2269 H2264 0.950 . S
C2269 C2271 1.327 . S
C2269 C2275 1.429 . S
C2270 C2262 1.574 . S
C2270 H2265 0.949 . S
C2270 C2276 1.368 . S
C2271 C2255 1.349 . S
C2271 H2263 0.950 . S
C2271 C2269 1.327 . S
C2272 C2260 1.349 . S
C2272 H2266 0.950 . S
C2272 C2273 1.327 . S
C2273 H2267 0.950 . S
C2273 C2272 1.327 . S
C2273 C2277 1.429 . S
C2274 C2257 1.574 . S
C2274 H2268 0.949 . S
C2274 C2278 1.368 . S
C2275 C2256 1.429 . S
C2275 C2269 1.429 . S
C2275 C2276 1.523 . S
C2276 C2257 1.368 . S
C2276 C2270 1.368 . S
C2276 C2275 1.523 . S
C2277 C2261 1.429 . S
C2277 C2273 1.429 . S
C2277 C2278 1.523 . S
C2278 C2262 1.368 . S
C2278 C2274 1.368 . S
C2278 C2277 1.523 . S
H2279 C2254 0.950 . S
H2280 C2256 0.950 . S
H2281 C2257 0.949 . S
H2282 C2259 0.950 . S
H2283 C2261 0.950 . S
C2284 C2285 1.349 . S
C2284 C2286 1.327 . S
C2284 H2309 0.950 . S
C2285 C2284 1.349 . S
C2285 C2301 1.349 . S
C2286 C2284 1.327 . S
C2286 C2305 1.429 . S
C2286 H2310 0.950 . S
C2287 C2304 1.574 . S
C2287 C2306 1.368 . S
C2287 H2311 0.949 . S
H2288 C2292 0.949 . S
C2289 C2290 1.349 . S
C2289 C2291 1.327 . S
C2289 H2312 0.950 . S
C2290 C2289 1.349 . S
C2290 C2302 1.349 . S
C2291 C2289 1.327 . S
C2291 C2307 1.429 . S
C2291 H2313 0.950 . S
C2292 H2288 0.949 . S
C2292 C2300 1.574 . S
C2292 C2308 1.368 . S
H2293 C2301 0.950 . S
H2294 C2299 0.950 . S
H2295 C2300 0.949 . S
H2296 C2302 0.950 . S
H2297 C2303 0.950 . S
H2298 C2304 0.949 . S
C2299 H2294 0.950 . S
C2299 C2301 1.327 . S
C2299 C2305 1.429 . S
C2300 C2292 1.574 . S
C2300 H2295 0.949 . S
C2300 C2306 1.368 . S
C2301 C2285 1.349 . S
C2301 H2293 0.950 . S
C2301 C2299 1.327 . S
C2302 C2290 1.349 . S
C2302 H2296 0.950 . S
C2302 C2303 1.327 . S
C2303 H2297 0.950 . S
C2303 C2302 1.327 . S
C2303 C2307 1.429 . S
C2304 C2287 1.574 . S
C2304 H2298 0.949 . S
C2304 C2308 1.368 . S
C2305 C2286 1.429 . S
C2305 C2299 1.429 . S
C2305 C2306 1.523 . S
C2306 C2287 1.368 . S
C2306 C2300 1.368 . S
C2306 C2305 1.523 . S
C2307 C2291 1.429 . S
C2307 C2303 1.429 . S
C2307 C2308 1.523 . S
C2308 C2292 1.368 . S
C2308 C2304 1.368 . S
C2308 C2307 1.523 . S
H2309 C2284 0.950 . S
H2310 C2286 0.950 . S
H2311 C2287 0.949 . S
H2312 C2289 0.950 . S
H2313 C2291 0.950 . S
C2314 C2315 1.349 . S
C2314 C2316 1.327 . S
C2314 H2339 0.950 . S
C2315 C2314 1.349 . S
C2315 C2331 1.349 . S
C2316 C2314 1.327 . S
C2316 C2335 1.429 . S
C2316 H2340 0.950 . S
C2317 C2334 1.574 . S
C2317 C2336 1.368 . S
C2317 H2341 0.949 . S
H2318 C2322 0.949 . S
C2319 C2320 1.349 . S
C2319 C2321 1.327 . S
C2319 H2342 0.950 . S
C2320 C2319 1.349 . S
C2320 C2332 1.349 . S
C2321 C2319 1.327 . S
C2321 C2337 1.429 . S
C2321 H2343 0.950 . S
C2322 H2318 0.949 . S
C2322 C2330 1.574 . S
C2322 C2338 1.368 . S
H2323 C2331 0.950 . S
H2324 C2329 0.950 . S
H2325 C2330 0.949 . S
H2326 C2332 0.950 . S
H2327 C2333 0.950 . S
H2328 C2334 0.949 . S
C2329 H2324 0.950 . S
C2329 C2331 1.327 . S
C2329 C2335 1.429 . S
C2330 C2322 1.574 . S
C2330 H2325 0.949 . S
C2330 C2336 1.368 . S
C2331 C2315 1.349 . S
C2331 H2323 0.950 . S
C2331 C2329 1.327 . S
C2332 C2320 1.349 . S
C2332 H2326 0.950 . S
C2332 C2333 1.327 . S
C2333 H2327 0.950 . S
C2333 C2332 1.327 . S
C2333 C2337 1.429 . S
C2334 C2317 1.574 . S
C2334 H2328 0.949 . S
C2334 C2338 1.368 . S
C2335 C2316 1.429 . S
C2335 C2329 1.429 . S
C2335 C2336 1.523 . S
C2336 C2317 1.368 . S
C2336 C2330 1.368 . S
C2336 C2335 1.523 . S
C2337 C2321 1.429 . S
C2337 C2333 1.429 . S
C2337 C2338 1.523 . S
C2338 C2322 1.368 . S
C2338 C2334 1.368 . S
C2338 C2337 1.523 . S
H2339 C2314 0.950 . S
H2340 C2316 0.950 . S
H2341 C2317 0.949 . S
H2342 C2319 0.950 . S
H2343 C2321 0.950 . S
C2344 C2345 1.349 . S
C2344 C2346 1.327 . S
C2344 H2369 0.920 1_455 S
C2345 C2344 1.349 . S
C2345 C2361 1.349 . S
C2346 C2344 1.327 . S
C2346 C2365 1.429 . S
C2346 H2370 0.950 1_455 S
C2347 C2364 1.574 . S
C2347 C2366 1.368 . S
C2347 H2371 0.949 . S
H2348 C2352 0.949 . S
C2349 C2350 1.349 . S
C2349 C2351 1.327 . S
C2349 H2372 0.950 . S
C2350 C2349 1.349 . S
C2350 C2362 1.349 1_455 S
C2351 C2349 1.327 . S
C2351 C2367 1.429 . S
C2351 H2373 0.950 . S
C2352 H2348 0.949 . S
C2352 C2360 1.573 . S
C2352 C2368 1.368 1_655 S
H2353 C2361 0.950 . S
H2354 C2359 0.950 . S
H2355 C2360 0.969 . S
H2356 C2362 0.950 . S
H2357 C2363 0.950 . S
H2358 C2364 0.949 . S
C2359 H2354 0.950 . S
C2359 C2361 1.327 . S
C2359 C2365 1.429 . S
C2360 C2352 1.573 . S
C2360 H2355 0.969 . S
C2360 C2366 1.347 1_655 S
C2361 C2345 1.349 . S
C2361 H2353 0.950 . S
C2361 C2359 1.327 . S
C2362 C2350 1.349 1_655 S
C2362 H2356 0.950 . S
C2362 C2363 1.327 . S
C2363 H2357 0.950 . S
C2363 C2362 1.327 . S
C2363 C2367 1.429 1_655 S
C2364 C2347 1.574 . S
C2364 H2358 0.949 . S
C2364 C2368 1.368 . S
C2365 C2346 1.429 . S
C2365 C2359 1.429 . S
C2365 C2366 1.523 . S
C2366 C2347 1.368 . S
C2366 C2360 1.347 1_455 S
C2366 C2365 1.523 . S
C2367 C2351 1.429 . S
C2367 C2363 1.429 1_455 S
C2367 C2368 1.523 . S
C2368 C2352 1.368 1_455 S
C2368 C2364 1.368 . S
C2368 C2367 1.523 . S
H2369 C2344 0.920 1_655 S
H2370 C2346 0.950 1_655 S
H2371 C2347 0.949 . S
H2372 C2349 0.950 . S
H2373 C2351 0.950 . S
C2374 C2375 1.349 . S
C2374 C2376 1.327 . S
C2374 H2399 0.950 . S
C2375 C2374 1.349 . S
C2375 C2391 1.349 . S
C2376 C2374 1.327 . S
C2376 C2395 1.429 . S
C2376 H2400 0.950 . S
C2377 C2394 1.574 . S
C2377 C2396 1.368 . S
C2377 H2401 0.949 . S
H2378 C2382 0.949 . S
C2379 C2380 1.349 . S
C2379 C2381 1.327 . S
C2379 H2402 0.950 . S
C2380 C2379 1.349 . S
C2380 C2392 1.349 . S
C2381 C2379 1.327 . S
C2381 C2397 1.429 . S
C2381 H2403 0.950 . S
C2382 H2378 0.949 . S
C2382 C2390 1.574 . S
C2382 C2398 1.368 . S
H2383 C2391 0.950 . S
H2384 C2389 0.950 . S
H2385 C2390 0.949 . S
H2386 C2392 0.950 . S
H2387 C2393 0.950 . S
H2388 C2394 0.949 . S
C2389 H2384 0.950 . S
C2389 C2391 1.327 . S
C2389 C2395 1.429 . S
C2390 C2382 1.574 . S
C2390 H2385 0.949 . S
C2390 C2396 1.368 . S
C2391 C2375 1.349 . S
C2391 H2383 0.950 . S
C2391 C2389 1.327 . S
C2392 C2380 1.349 . S
C2392 H2386 0.950 . S
C2392 C2393 1.327 . S
C2393 H2387 0.950 . S
C2393 C2392 1.327 . S
C2393 C2397 1.429 . S
C2394 C2377 1.574 . S
C2394 H2388 0.949 . S
C2394 C2398 1.368 . S
C2395 C2376 1.429 . S
C2395 C2389 1.429 . S
C2395 C2396 1.523 . S
C2396 C2377 1.368 . S
C2396 C2390 1.368 . S
C2396 C2395 1.523 . S
C2397 C2381 1.429 . S
C2397 C2393 1.429 . S
C2397 C2398 1.523 . S
C2398 C2382 1.368 . S
C2398 C2394 1.368 . S
C2398 C2397 1.523 . S
H2399 C2374 0.950 . S
H2400 C2376 0.950 . S
H2401 C2377 0.949 . S
H2402 C2379 0.950 . S
H2403 C2381 0.950 . S
C2404 C2405 1.349 . S
C2404 C2406 1.327 . S
C2404 H2429 0.950 . S
C2405 C2404 1.349 . S
C2405 C2421 1.349 . S
C2406 C2404 1.327 . S
C2406 C2425 1.429 . S
C2406 H2430 0.950 . S
C2407 C2424 1.574 . S
C2407 C2426 1.368 . S
C2407 H2431 0.949 . S
H2408 C2412 0.949 . S
C2409 C2410 1.349 . S
C2409 C2411 1.327 . S
C2409 H2432 0.950 1_556 S
C2410 C2409 1.349 . S
C2410 C2422 1.349 . S
C2411 C2409 1.327 . S
C2411 C2427 1.429 . S
C2411 H2433 0.950 . S
C2412 H2408 0.949 . S
C2412 C2420 1.574 . S
C2412 C2428 1.368 . S
H2413 C2421 0.950 . S
H2414 C2419 0.950 . S
H2415 C2420 0.949 . S
H2416 C2422 0.950 . S
H2417 C2423 0.950 . S
H2418 C2424 0.949 . S
C2419 H2414 0.950 . S
C2419 C2421 1.327 . S
C2419 C2425 1.429 . S
C2420 C2412 1.574 . S
C2420 H2415 0.949 . S
C2420 C2426 1.368 . S
C2421 C2405 1.349 . S
C2421 H2413 0.950 . S
C2421 C2419 1.327 . S
C2422 C2410 1.349 . S
C2422 H2416 0.950 . S
C2422 C2423 1.327 . S
C2423 H2417 0.950 . S
C2423 C2422 1.327 . S
C2423 C2427 1.429 . S
C2424 C2407 1.574 . S
C2424 H2418 0.949 . S
C2424 C2428 1.368 . S
C2425 C2406 1.429 . S
C2425 C2419 1.429 . S
C2425 C2426 1.523 . S
C2426 C2407 1.368 . S
C2426 C2420 1.368 . S
C2426 C2425 1.523 . S
C2427 C2411 1.429 . S
C2427 C2423 1.429 . S
C2427 C2428 1.523 . S
C2428 C2412 1.368 . S
C2428 C2424 1.368 . S
C2428 C2427 1.523 . S
H2429 C2404 0.950 . S
H2430 C2406 0.950 . S
H2431 C2407 0.949 . S
H2432 C2409 0.950 1_554 S
H2433 C2411 0.950 . S
C2434 C2435 1.349 . S
C2434 C2436 1.327 . S
C2434 H2459 0.950 . S
C2435 C2434 1.349 . S
C2435 C2451 1.349 . S
C2436 C2434 1.327 . S
C2436 C2455 1.429 . S
C2436 H2460 0.950 . S
C2437 C2454 1.574 . S
C2437 C2456 1.368 . S
C2437 H2461 0.949 . S
H2438 C2442 0.949 . S
C2439 C2440 1.349 . S
C2439 C2441 1.327 . S
C2439 H2462 0.950 . S
C2440 C2439 1.349 . S
C2440 C2452 1.349 . S
C2441 C2439 1.327 . S
C2441 C2457 1.429 . S
C2441 H2463 0.950 . S
C2442 H2438 0.949 . S
C2442 C2450 1.574 . S
C2442 C2458 1.368 . S
H2443 C2451 0.950 . S
H2444 C2449 0.950 . S
H2445 C2450 0.949 . S
H2446 C2452 0.950 . S
H2447 C2453 0.950 . S
H2448 C2454 0.949 . S
C2449 H2444 0.950 . S
C2449 C2451 1.327 . S
C2449 C2455 1.429 . S
C2450 C2442 1.574 . S
C2450 H2445 0.949 . S
C2450 C2456 1.368 . S
C2451 C2435 1.349 . S
C2451 H2443 0.950 . S
C2451 C2449 1.327 . S
C2452 C2440 1.349 . S
C2452 H2446 0.950 . S
C2452 C2453 1.327 . S
C2453 H2447 0.950 . S
C2453 C2452 1.327 . S
C2453 C2457 1.429 . S
C2454 C2437 1.574 . S
C2454 H2448 0.949 . S
C2454 C2458 1.368 . S
C2455 C2436 1.429 . S
C2455 C2449 1.429 . S
C2455 C2456 1.523 . S
C2456 C2437 1.368 . S
C2456 C2450 1.368 . S
C2456 C2455 1.523 . S
C2457 C2441 1.429 . S
C2457 C2453 1.429 . S
C2457 C2458 1.523 . S
C2458 C2442 1.368 . S
C2458 C2454 1.368 . S
C2458 C2457 1.523 . S
H2459 C2434 0.950 . S
H2460 C2436 0.950 . S
H2461 C2437 0.949 . S
H2462 C2439 0.950 . S
H2463 C2441 0.950 . S
C2464 C2465 1.349 . S
C2464 C2466 1.327 . S
C2464 H2489 0.950 . S
C2465 C2464 1.349 . S
C2465 C2481 1.349 . S
C2466 C2464 1.327 . S
C2466 C2485 1.429 . S
C2466 H2490 0.950 . S
C2467 C2484 1.574 . S
C2467 C2486 1.368 . S
C2467 H2491 0.949 . S
H2468 C2472 0.949 . S
C2469 C2470 1.349 . S
C2469 C2471 1.327 . S
C2469 H2492 0.950 1_545 S
C2470 C2469 1.349 . S
C2470 C2482 1.349 . S
C2471 C2469 1.327 . S
C2471 C2487 1.429 . S
C2471 H2493 0.935 1_545 S
C2472 H2468 0.949 . S
C2472 C2480 1.574 . S
C2472 C2488 1.368 . S
H2473 C2481 0.950 . S
H2474 C2479 0.950 . S
H2475 C2480 0.949 . S
H2476 C2482 0.950 . S
H2477 C2483 0.950 . S
H2478 C2484 0.949 . S
C2479 H2474 0.950 . S
C2479 C2481 1.327 . S
C2479 C2485 1.429 . S
C2480 C2472 1.574 . S
C2480 H2475 0.949 . S
C2480 C2486 1.368 . S
C2481 C2465 1.349 . S
C2481 H2473 0.950 . S
C2481 C2479 1.327 . S
C2482 C2470 1.349 . S
C2482 H2476 0.950 . S
C2482 C2483 1.327 . S
C2483 H2477 0.950 . S
C2483 C2482 1.327 . S
C2483 C2487 1.429 . S
C2484 C2467 1.574 . S
C2484 H2478 0.949 . S
C2484 C2488 1.368 . S
C2485 C2466 1.429 . S
C2485 C2479 1.429 . S
C2485 C2486 1.523 . S
C2486 C2467 1.368 . S
C2486 C2480 1.368 . S
C2486 C2485 1.523 . S
C2487 C2471 1.429 . S
C2487 C2483 1.429 . S
C2487 C2488 1.523 . S
C2488 C2472 1.368 . S
C2488 C2484 1.368 . S
C2488 C2487 1.523 . S
H2489 C2464 0.950 . S
H2490 C2466 0.950 . S
H2491 C2467 0.949 . S
H2492 C2469 0.950 1_565 S
H2493 C2471 0.935 1_565 S
C2494 C2495 1.349 . S
C2494 C2496 1.327 . S
C2494 H2519 0.950 . S
C2495 C2494 1.349 . S
C2495 C2511 1.349 . S
C2496 C2494 1.327 . S
C2496 C2515 1.429 . S
C2496 H2520 0.950 . S
C2497 C2514 1.574 . S
C2497 C2516 1.368 . S
C2497 H2521 0.949 . S
H2498 C2502 0.949 . S
C2499 C2500 1.349 . S
C2499 C2501 1.327 . S
C2499 H2522 0.950 . S
C2500 C2499 1.349 . S
C2500 C2512 1.349 . S
C2501 C2499 1.327 . S
C2501 C2517 1.429 . S
C2501 H2523 0.950 . S
C2502 H2498 0.949 . S
C2502 C2510 1.574 . S
C2502 C2518 1.368 . S
H2503 C2511 0.950 . S
H2504 C2509 0.950 . S
H2505 C2510 0.949 . S
H2506 C2512 0.950 . S
H2507 C2513 0.950 . S
H2508 C2514 0.949 . S
C2509 H2504 0.950 . S
C2509 C2511 1.327 . S
C2509 C2515 1.429 . S
C2510 C2502 1.574 . S
C2510 H2505 0.949 . S
C2510 C2516 1.368 . S
C2511 C2495 1.349 . S
C2511 H2503 0.950 . S
C2511 C2509 1.327 . S
C2512 C2500 1.349 . S
C2512 H2506 0.950 . S
C2512 C2513 1.327 . S
C2513 H2507 0.950 . S
C2513 C2512 1.327 . S
C2513 C2517 1.429 . S
C2514 C2497 1.574 . S
C2514 H2508 0.949 . S
C2514 C2518 1.368 . S
C2515 C2496 1.429 . S
C2515 C2509 1.429 . S
C2515 C2516 1.523 . S
C2516 C2497 1.368 . S
C2516 C2510 1.368 . S
C2516 C2515 1.523 . S
C2517 C2501 1.429 . S
C2517 C2513 1.429 . S
C2517 C2518 1.523 . S
C2518 C2502 1.368 . S
C2518 C2514 1.368 . S
C2518 C2517 1.523 . S
H2519 C2494 0.950 . S
H2520 C2496 0.950 . S
H2521 C2497 0.949 . S
H2522 C2499 0.950 . S
H2523 C2501 0.950 . S
C2524 C2525 1.389 . S
C2524 C2526 1.322 . S
C2524 H2549 0.916 1_545 S
C2525 C2524 1.389 . S
C2525 C2541 1.349 . S
C2526 C2524 1.322 . S
C2526 C2545 1.429 . S
C2526 H2550 0.950 1_545 S
C2527 C2544 1.574 . S
C2527 C2546 1.368 . S
C2527 H2551 0.949 . S
H2528 C2532 0.949 . S
C2529 C2530 1.349 . S
C2529 C2531 1.327 . S
C2529 H2552 0.950 . S
C2530 C2529 1.349 . S
C2530 C2542 1.349 . S
C2531 C2529 1.327 . S
C2531 C2547 1.429 . S
C2531 H2553 0.950 . S
C2532 H2528 0.949 . S
C2532 C2540 1.574 . S
C2532 C2548 1.368 . S
H2533 C2541 0.950 . S
H2534 C2539 0.950 . S
H2535 C2540 0.909 1_565 S
H2536 C2542 0.950 . S
H2537 C2543 0.950 . S
H2538 C2544 0.949 . S
C2539 H2534 0.950 . S
C2539 C2541 1.327 . S
C2539 C2545 1.429 . S
C2540 C2532 1.574 . S
C2540 H2535 0.909 1_545 S
C2540 C2546 1.368 . S
C2541 C2525 1.349 . S
C2541 H2533 0.950 . S
C2541 C2539 1.327 . S
C2542 C2530 1.349 . S
C2542 H2536 0.950 . S
C2542 C2543 1.327 . S
C2543 H2537 0.950 . S
C2543 C2542 1.327 . S
C2543 C2547 1.429 . S
C2544 C2527 1.574 . S
C2544 H2538 0.949 . S
C2544 C2548 1.368 . S
C2545 C2526 1.429 . S
C2545 C2539 1.429 . S
C2545 C2546 1.523 . S
C2546 C2527 1.368 . S
C2546 C2540 1.368 . S
C2546 C2545 1.523 . S
C2547 C2531 1.429 . S
C2547 C2543 1.429 . S
C2547 C2548 1.523 . S
C2548 C2532 1.368 . S
C2548 C2544 1.368 . S
C2548 C2547 1.523 . S
H2549 C2524 0.916 1_565 S
H2550 C2526 0.950 1_565 S
H2551 C2527 0.949 . S
H2552 C2529 0.950 . S
H2553 C2531 0.950 . S
C2554 C2555 1.349 . S
C2554 C2556 1.327 . S
C2554 H2579 0.950 . S
C2555 C2554 1.349 . S
C2555 C2571 1.349 . S
C2556 C2554 1.327 . S
C2556 C2575 1.429 . S
C2556 H2580 0.950 . S
C2557 C2574 1.574 . S
C2557 C2576 1.368 . S
C2557 H2581 0.949 . S
H2558 C2562 0.949 . S
C2559 C2560 1.349 . S
C2559 C2561 1.327 . S
C2559 H2582 0.950 . S
C2560 C2559 1.349 . S
C2560 C2572 1.349 . S
C2561 C2559 1.327 . S
C2561 C2577 1.429 . S
C2561 H2583 0.950 . S
C2562 H2558 0.949 . S
C2562 C2570 1.574 . S
C2562 C2578 1.368 . S
H2563 C2571 0.950 . S
H2564 C2569 0.950 . S
H2565 C2570 0.949 . S
H2566 C2572 0.950 . S
H2567 C2573 0.950 . S
H2568 C2574 0.949 . S
C2569 H2564 0.950 . S
C2569 C2571 1.327 . S
C2569 C2575 1.429 . S
C2570 C2562 1.574 . S
C2570 H2565 0.949 . S
C2570 C2576 1.368 . S
C2571 C2555 1.349 . S
C2571 H2563 0.950 . S
C2571 C2569 1.327 . S
C2572 C2560 1.349 . S
C2572 H2566 0.950 . S
C2572 C2573 1.327 . S
C2573 H2567 0.950 . S
C2573 C2572 1.327 . S
C2573 C2577 1.429 . S
C2574 C2557 1.574 . S
C2574 H2568 0.949 . S
C2574 C2578 1.368 . S
C2575 C2556 1.429 . S
C2575 C2569 1.429 . S
C2575 C2576 1.523 . S
C2576 C2557 1.368 . S
C2576 C2570 1.368 . S
C2576 C2575 1.523 . S
C2577 C2561 1.429 . S
C2577 C2573 1.429 . S
C2577 C2578 1.523 . S
C2578 C2562 1.368 . S
C2578 C2574 1.368 . S
C2578 C2577 1.523 . S
H2579 C2554 0.950 . S
H2580 C2556 0.950 . S
H2581 C2557 0.949 . S
H2582 C2559 0.950 . S
H2583 C2561 0.950 . S
C2584 C2585 1.349 . S
C2584 C2586 1.327 . S
C2584 H2609 0.950 . S
C2585 C2584 1.349 . S
C2585 C2601 1.349 . S
C2586 C2584 1.327 . S
C2586 C2605 1.429 . S
C2586 H2610 0.950 . S
C2587 C2604 1.574 . S
C2587 C2606 1.368 . S
C2587 H2611 0.949 . S
H2588 C2592 0.949 . S
C2589 C2590 1.349 . S
C2589 C2591 1.327 . S
C2589 H2612 0.950 . S
C2590 C2589 1.349 . S
C2590 C2602 1.349 . S
C2591 C2589 1.327 . S
C2591 C2607 1.429 . S
C2591 H2613 0.950 . S
C2592 H2588 0.949 . S
C2592 C2600 1.574 . S
C2592 C2608 1.368 . S
H2593 C2601 0.950 . S
H2594 C2599 0.950 . S
H2595 C2600 0.949 . S
H2596 C2602 0.950 . S
H2597 C2603 0.950 . S
H2598 C2604 0.949 . S
C2599 H2594 0.950 . S
C2599 C2601 1.327 . S
C2599 C2605 1.429 . S
C2600 C2592 1.574 . S
C2600 H2595 0.949 . S
C2600 C2606 1.368 . S
C2601 C2585 1.349 . S
C2601 H2593 0.950 . S
C2601 C2599 1.327 . S
C2602 C2590 1.349 . S
C2602 H2596 0.950 . S
C2602 C2603 1.327 . S
C2603 H2597 0.950 . S
C2603 C2602 1.327 . S
C2603 C2607 1.429 . S
C2604 C2587 1.574 . S
C2604 H2598 0.949 . S
C2604 C2608 1.368 . S
C2605 C2586 1.429 . S
C2605 C2599 1.429 . S
C2605 C2606 1.523 . S
C2606 C2587 1.368 . S
C2606 C2600 1.368 . S
C2606 C2605 1.523 . S
C2607 C2591 1.429 . S
C2607 C2603 1.429 . S
C2607 C2608 1.523 . S
C2608 C2592 1.368 . S
C2608 C2604 1.368 . S
C2608 C2607 1.523 . S
H2609 C2584 0.950 . S
H2610 C2586 0.950 . S
H2611 C2587 0.949 . S
H2612 C2589 0.950 . S
H2613 C2591 0.950 . S
C2614 C2615 1.349 . S
C2614 C2616 1.327 . S
C2614 H2639 0.950 . S
C2615 C2614 1.349 . S
C2615 C2631 1.349 . S
C2616 C2614 1.327 . S
C2616 C2635 1.429 . S
C2616 H2640 0.950 . S
C2617 C2634 1.574 . S
C2617 C2636 1.368 . S
C2617 H2641 0.949 . S
H2618 C2622 0.949 . S
C2619 C2620 1.349 . S
C2619 C2621 1.327 . S
C2619 H2642 0.950 . S
C2620 C2619 1.349 . S
C2620 C2632 1.349 . S
C2621 C2619 1.327 . S
C2621 C2637 1.429 . S
C2621 H2643 0.950 . S
C2622 H2618 0.949 . S
C2622 C2630 1.574 . S
C2622 C2638 1.368 . S
H2623 C2631 0.950 . S
H2624 C2629 0.950 . S
H2625 C2630 0.949 . S
H2626 C2632 0.950 . S
H2627 C2633 0.950 . S
H2628 C2634 0.949 . S
C2629 H2624 0.950 . S
C2629 C2631 1.327 . S
C2629 C2635 1.429 . S
C2630 C2622 1.574 . S
C2630 H2625 0.949 . S
C2630 C2636 1.368 . S
C2631 C2615 1.349 . S
C2631 H2623 0.950 . S
C2631 C2629 1.327 . S
C2632 C2620 1.349 . S
C2632 H2626 0.950 . S
C2632 C2633 1.327 . S
C2633 H2627 0.950 . S
C2633 C2632 1.327 . S
C2633 C2637 1.429 . S
C2634 C2617 1.574 . S
C2634 H2628 0.949 . S
C2634 C2638 1.368 . S
C2635 C2616 1.429 . S
C2635 C2629 1.429 . S
C2635 C2636 1.523 . S
C2636 C2617 1.368 . S
C2636 C2630 1.368 . S
C2636 C2635 1.523 . S
C2637 C2621 1.429 . S
C2637 C2633 1.429 . S
C2637 C2638 1.523 . S
C2638 C2622 1.368 . S
C2638 C2634 1.368 . S
C2638 C2637 1.523 . S
H2639 C2614 0.950 . S
H2640 C2616 0.950 . S
H2641 C2617 0.949 . S
H2642 C2619 0.950 . S
H2643 C2621 0.950 . S
C2644 C2645 1.349 . S
C2644 C2646 1.327 . S
C2644 H2669 0.950 . S
C2645 C2644 1.349 . S
C2645 C2661 1.349 1_545 S
C2646 C2644 1.327 . S
C2646 C2665 1.429 . S
C2646 H2670 0.950 . S
C2647 C2664 1.574 . S
C2647 C2666 1.341 1_565 S
C2647 H2671 0.949 . S
H2648 C2652 0.949 . S
C2649 C2650 1.349 . S
C2649 C2651 1.327 . S
C2649 H2672 0.950 . S
C2650 C2649 1.349 . S
C2650 C2662 1.349 1_565 S
C2651 C2649 1.327 . S
C2651 C2667 1.429 . S
C2651 H2673 0.950 . S
C2652 H2648 0.949 . S
C2652 C2660 1.574 . S
C2652 C2668 1.368 1_545 S
H2653 C2661 0.950 . S
H2654 C2659 0.950 . S
H2655 C2660 0.949 . S
H2656 C2662 0.950 . S
H2657 C2663 0.950 . S
H2658 C2664 0.949 . S
C2659 H2654 0.950 . S
C2659 C2661 1.327 . S
C2659 C2665 1.429 1_565 S
C2660 C2652 1.574 . S
C2660 H2655 0.949 . S
C2660 C2666 1.393 . S
C2661 C2645 1.349 1_565 S
C2661 H2653 0.950 . S
C2661 C2659 1.327 . S
C2662 C2650 1.349 1_545 S
C2662 H2656 0.950 . S
C2662 C2663 1.327 . S
C2663 H2657 0.950 . S
C2663 C2662 1.327 . S
C2663 C2667 1.429 1_545 S
C2664 C2647 1.574 . S
C2664 H2658 0.949 . S
C2664 C2668 1.368 . S
C2665 C2646 1.429 . S
C2665 C2659 1.429 1_545 S
C2665 C2666 1.527 . S
C2666 C2647 1.341 1_545 S
C2666 C2660 1.393 . S
C2666 C2665 1.527 . S
C2667 C2651 1.429 . S
C2667 C2663 1.429 1_565 S
C2667 C2668 1.523 . S
C2668 C2652 1.368 1_565 S
C2668 C2664 1.368 . S
C2668 C2667 1.523 . S
H2669 C2644 0.950 . S
H2670 C2646 0.950 . S
H2671 C2647 0.949 . S
H2672 C2649 0.950 . S
H2673 C2651 0.950 . S
C2674 C2675 1.349 . S
C2674 C2676 1.327 . S
C2674 H2699 0.950 . S
C2675 C2674 1.349 . S
C2675 C2691 1.349 . S
C2676 C2674 1.327 . S
C2676 C2695 1.429 . S
C2676 H2700 0.950 . S
C2677 C2694 1.574 . S
C2677 C2696 1.368 . S
C2677 H2701 0.949 . S
H2678 C2682 0.949 . S
C2679 C2680 1.349 . S
C2679 C2681 1.327 . S
C2679 H2702 0.950 . S
C2680 C2679 1.349 . S
C2680 C2692 1.349 . S
C2681 C2679 1.327 . S
C2681 C2697 1.429 . S
C2681 H2703 0.950 . S
C2682 H2678 0.949 . S
C2682 C2690 1.574 . S
C2682 C2698 1.368 . S
H2683 C2691 0.950 . S
H2684 C2689 0.950 . S
H2685 C2690 0.949 . S
H2686 C2692 0.950 . S
H2687 C2693 0.950 . S
H2688 C2694 0.949 . S
C2689 H2684 0.950 . S
C2689 C2691 1.327 . S
C2689 C2695 1.429 . S
C2690 C2682 1.574 . S
C2690 H2685 0.949 . S
C2690 C2696 1.368 . S
C2691 C2675 1.349 . S
C2691 H2683 0.950 . S
C2691 C2689 1.327 . S
C2692 C2680 1.349 . S
C2692 H2686 0.950 . S
C2692 C2693 1.327 . S
C2693 H2687 0.950 . S
C2693 C2692 1.327 . S
C2693 C2697 1.429 . S
C2694 C2677 1.574 . S
C2694 H2688 0.949 . S
C2694 C2698 1.368 . S
C2695 C2676 1.429 . S
C2695 C2689 1.429 . S
C2695 C2696 1.523 . S
C2696 C2677 1.368 . S
C2696 C2690 1.368 . S
C2696 C2695 1.523 . S
C2697 C2681 1.429 . S
C2697 C2693 1.429 . S
C2697 C2698 1.523 . S
C2698 C2682 1.368 . S
C2698 C2694 1.368 . S
C2698 C2697 1.523 . S
H2699 C2674 0.950 . S
H2700 C2676 0.950 . S
H2701 C2677 0.949 . S
H2702 C2679 0.950 . S
H2703 C2681 0.950 . S
C2704 C2705 1.349 . S
C2704 C2706 1.327 . S
C2704 H2729 0.950 . S
C2705 C2704 1.349 . S
C2705 C2721 1.349 . S
C2706 C2704 1.327 . S
C2706 C2725 1.429 . S
C2706 H2730 0.950 . S
C2707 C2724 1.574 . S
C2707 C2726 1.368 . S
C2707 H2731 0.949 . S
H2708 C2712 0.949 . S
C2709 C2710 1.349 . S
C2709 C2711 1.327 . S
C2709 H2732 0.950 1_554 S
C2710 C2709 1.349 . S
C2710 C2722 1.349 . S
C2711 C2709 1.327 . S
C2711 C2727 1.429 . S
C2711 H2733 0.950 . S
C2712 H2708 0.949 . S
C2712 C2720 1.574 . S
C2712 C2728 1.368 . S
H2713 C2721 0.950 . S
H2714 C2719 0.950 . S
H2715 C2720 0.949 . S
H2716 C2722 0.950 . S
H2717 C2723 0.950 . S
H2718 C2724 0.949 . S
C2719 H2714 0.950 . S
C2719 C2721 1.327 . S
C2719 C2725 1.429 . S
C2720 C2712 1.574 . S
C2720 H2715 0.949 . S
C2720 C2726 1.368 . S
C2721 C2705 1.349 . S
C2721 H2713 0.950 . S
C2721 C2719 1.327 . S
C2722 C2710 1.349 . S
C2722 H2716 0.950 . S
C2722 C2723 1.327 . S
C2723 H2717 0.950 . S
C2723 C2722 1.327 . S
C2723 C2727 1.429 . S
C2724 C2707 1.574 . S
C2724 H2718 0.949 . S
C2724 C2728 1.368 . S
C2725 C2706 1.429 . S
C2725 C2719 1.429 . S
C2725 C2726 1.523 . S
C2726 C2707 1.368 . S
C2726 C2720 1.368 . S
C2726 C2725 1.523 . S
C2727 C2711 1.429 . S
C2727 C2723 1.429 . S
C2727 C2728 1.523 . S
C2728 C2712 1.368 . S
C2728 C2724 1.368 . S
C2728 C2727 1.523 . S
H2729 C2704 0.950 . S
H2730 C2706 0.950 . S
H2731 C2707 0.949 . S
H2732 C2709 0.950 1_556 S
H2733 C2711 0.950 . S
C2734 C2735 1.349 . S
C2734 C2736 1.327 . S
C2734 H2759 0.950 . S
C2735 C2734 1.349 . S
C2735 C2751 1.349 . S
C2736 C2734 1.327 . S
C2736 C2755 1.429 . S
C2736 H2760 0.950 . S
C2737 C2754 1.574 . S
C2737 C2756 1.368 . S
C2737 H2761 0.949 . S
H2738 C2742 0.949 . S
C2739 C2740 1.349 . S
C2739 C2741 1.327 . S
C2739 H2762 0.950 . S
C2740 C2739 1.349 . S
C2740 C2752 1.349 . S
C2741 C2739 1.327 . S
C2741 C2757 1.429 . S
C2741 H2763 0.950 . S
C2742 H2738 0.949 . S
C2742 C2750 1.574 . S
C2742 C2758 1.368 . S
H2743 C2751 0.950 . S
H2744 C2749 0.950 . S
H2745 C2750 0.949 . S
H2746 C2752 0.950 . S
H2747 C2753 0.950 . S
H2748 C2754 0.949 . S
C2749 H2744 0.950 . S
C2749 C2751 1.327 . S
C2749 C2755 1.429 . S
C2750 C2742 1.574 . S
C2750 H2745 0.949 . S
C2750 C2756 1.368 . S
C2751 C2735 1.349 . S
C2751 H2743 0.950 . S
C2751 C2749 1.327 . S
C2752 C2740 1.349 . S
C2752 H2746 0.950 . S
C2752 C2753 1.327 . S
C2753 H2747 0.950 . S
C2753 C2752 1.327 . S
C2753 C2757 1.429 . S
C2754 C2737 1.574 . S
C2754 H2748 0.949 . S
C2754 C2758 1.368 . S
C2755 C2736 1.429 . S
C2755 C2749 1.429 . S
C2755 C2756 1.523 . S
C2756 C2737 1.368 . S
C2756 C2750 1.368 . S
C2756 C2755 1.523 . S
C2757 C2741 1.429 . S
C2757 C2753 1.429 . S
C2757 C2758 1.523 . S
C2758 C2742 1.368 . S
C2758 C2754 1.368 . S
C2758 C2757 1.523 . S
H2759 C2734 0.950 . S
H2760 C2736 0.950 . S
H2761 C2737 0.949 . S
H2762 C2739 0.950 . S
H2763 C2741 0.950 . S
C2764 C2765 1.349 . S
C2764 C2766 1.327 . S
C2764 H2789 0.950 . S
C2765 C2764 1.349 . S
C2765 C2781 1.349 . S
C2766 C2764 1.327 . S
C2766 C2785 1.429 . S
C2766 H2790 0.950 . S
C2767 C2784 1.574 . S
C2767 C2786 1.368 . S
C2767 H2791 0.949 . S
H2768 C2772 0.949 . S
C2769 C2770 1.349 . S
C2769 C2771 1.327 . S
C2769 H2792 0.950 . S
C2770 C2769 1.349 . S
C2770 C2782 1.349 . S
C2771 C2769 1.327 . S
C2771 C2787 1.429 . S
C2771 H2793 0.950 . S
C2772 H2768 0.949 . S
C2772 C2780 1.574 . S
C2772 C2788 1.368 . S
H2773 C2781 0.950 . S
H2774 C2779 0.950 . S
H2775 C2780 0.949 . S
H2776 C2782 0.950 . S
H2777 C2783 0.950 . S
H2778 C2784 0.949 . S
C2779 H2774 0.950 . S
C2779 C2781 1.327 . S
C2779 C2785 1.429 . S
C2780 C2772 1.574 . S
C2780 H2775 0.949 . S
C2780 C2786 1.368 . S
C2781 C2765 1.349 . S
C2781 H2773 0.950 . S
C2781 C2779 1.327 . S
C2782 C2770 1.349 . S
C2782 H2776 0.950 . S
C2782 C2783 1.327 . S
C2783 H2777 0.950 . S
C2783 C2782 1.327 . S
C2783 C2787 1.429 . S
C2784 C2767 1.574 . S
C2784 H2778 0.949 . S
C2784 C2788 1.368 . S
C2785 C2766 1.429 . S
C2785 C2779 1.429 . S
C2785 C2786 1.523 . S
C2786 C2767 1.368 . S
C2786 C2780 1.368 . S
C2786 C2785 1.523 . S
C2787 C2771 1.429 . S
C2787 C2783 1.429 . S
C2787 C2788 1.523 . S
C2788 C2772 1.368 . S
C2788 C2784 1.368 . S
C2788 C2787 1.523 . S
H2789 C2764 0.950 . S
H2790 C2766 0.950 . S
H2791 C2767 0.949 . S
H2792 C2769 0.950 . S
H2793 C2771 0.950 . S
C2794 C2795 1.349 . S
C2794 C2796 1.327 . S
C2794 H2819 0.950 . S
C2795 C2794 1.349 . S
C2795 C2811 1.349 . S
C2796 C2794 1.327 . S
C2796 C2815 1.429 . S
C2796 H2820 0.950 . S
C2797 C2814 1.574 . S
C2797 C2816 1.368 . S
C2797 H2821 0.949 . S
H2798 C2802 0.949 . S
C2799 C2800 1.349 . S
C2799 C2801 1.327 . S
C2799 H2822 0.950 . S
C2800 C2799 1.349 . S
C2800 C2812 1.349 . S
C2801 C2799 1.327 . S
C2801 C2817 1.429 . S
C2801 H2823 0.950 . S
C2802 H2798 0.949 . S
C2802 C2810 1.574 . S
C2802 C2818 1.368 . S
H2803 C2811 0.950 . S
H2804 C2809 0.950 . S
H2805 C2810 0.949 . S
H2806 C2812 0.950 . S
H2807 C2813 0.950 . S
H2808 C2814 0.949 . S
C2809 H2804 0.950 . S
C2809 C2811 1.327 . S
C2809 C2815 1.429 . S
C2810 C2802 1.574 . S
C2810 H2805 0.949 . S
C2810 C2816 1.368 . S
C2811 C2795 1.349 . S
C2811 H2803 0.950 . S
C2811 C2809 1.327 . S
C2812 C2800 1.349 . S
C2812 H2806 0.950 . S
C2812 C2813 1.327 . S
C2813 H2807 0.950 . S
C2813 C2812 1.327 . S
C2813 C2817 1.429 . S
C2814 C2797 1.574 . S
C2814 H2808 0.949 . S
C2814 C2818 1.368 . S
C2815 C2796 1.429 . S
C2815 C2809 1.429 . S
C2815 C2816 1.523 . S
C2816 C2797 1.368 . S
C2816 C2810 1.368 . S
C2816 C2815 1.523 . S
C2817 C2801 1.429 . S
C2817 C2813 1.429 . S
C2817 C2818 1.523 . S
C2818 C2802 1.368 . S
C2818 C2814 1.368 . S
C2818 C2817 1.523 . S
H2819 C2794 0.950 . S
H2820 C2796 0.950 . S
H2821 C2797 0.949 . S
H2822 C2799 0.950 . S
H2823 C2801 0.950 . S
C2824 C2825 1.349 . S
C2824 C2826 1.327 . S
C2824 H2849 0.950 . S
C2825 C2824 1.349 . S
C2825 C2841 1.349 . S
C2826 C2824 1.327 . S
C2826 C2845 1.429 1_545 S
C2826 H2850 0.950 1_545 S
C2827 C2844 1.574 . S
C2827 C2846 1.368 . S
C2827 H2851 0.949 . S
H2828 C2832 0.949 . S
C2829 C2830 1.349 . S
C2829 C2831 1.327 . S
C2829 H2852 0.950 . S
C2830 C2829 1.349 . S
C2830 C2842 1.349 . S
C2831 C2829 1.327 . S
C2831 C2847 1.429 . S
C2831 H2853 0.950 . S
C2832 H2828 0.949 . S
C2832 C2840 1.574 . S
C2832 C2848 1.368 . S
H2833 C2841 0.950 . S
H2834 C2839 0.950 . S
H2835 C2840 0.949 . S
H2836 C2842 0.950 . S
H2837 C2843 0.950 . S
H2838 C2844 0.949 . S
C2839 H2834 0.950 . S
C2839 C2841 1.327 1_565 S
C2839 C2845 1.429 . S
C2840 C2832 1.574 . S
C2840 H2835 0.949 . S
C2840 C2846 1.368 . S
C2841 C2825 1.349 . S
C2841 H2833 0.950 . S
C2841 C2839 1.327 1_545 S
C2842 C2830 1.349 . S
C2842 H2836 0.950 . S
C2842 C2843 1.327 . S
C2843 H2837 0.950 . S
C2843 C2842 1.327 . S
C2843 C2847 1.429 . S
C2844 C2827 1.574 . S
C2844 H2838 0.949 . S
C2844 C2848 1.368 . S
C2845 C2826 1.429 1_565 S
C2845 C2839 1.429 . S
C2845 C2846 1.523 . S
C2846 C2827 1.368 . S
C2846 C2840 1.368 . S
C2846 C2845 1.523 . S
C2847 C2831 1.429 . S
C2847 C2843 1.429 . S
C2847 C2848 1.523 . S
C2848 C2832 1.368 . S
C2848 C2844 1.368 . S
C2848 C2847 1.523 . S
H2849 C2824 0.950 . S
H2850 C2826 0.950 1_565 S
H2851 C2827 0.949 . S
H2852 C2829 0.950 . S
H2853 C2831 0.950 . S
C2854 C2855 1.349 . S
C2854 C2856 1.327 . S
C2854 H2879 0.950 . S
C2855 C2854 1.349 . S
C2855 C2871 1.349 . S
C2856 C2854 1.327 . S
C2856 C2875 1.429 . S
C2856 H2880 0.950 . S
C2857 C2874 1.574 . S
C2857 C2876 1.368 . S
C2857 H2881 0.949 . S
H2858 C2862 0.949 . S
C2859 C2860 1.349 . S
C2859 C2861 1.327 . S
C2859 H2882 0.950 . S
C2860 C2859 1.349 . S
C2860 C2872 1.349 . S
C2861 C2859 1.327 . S
C2861 C2877 1.429 . S
C2861 H2883 0.950 . S
C2862 H2858 0.949 . S
C2862 C2870 1.574 . S
C2862 C2878 1.368 . S
H2863 C2871 0.950 . S
H2864 C2869 0.950 . S
H2865 C2870 0.949 . S
H2866 C2872 0.950 . S
H2867 C2873 0.950 . S
H2868 C2874 0.949 . S
C2869 H2864 0.950 . S
C2869 C2871 1.327 . S
C2869 C2875 1.429 . S
C2870 C2862 1.574 . S
C2870 H2865 0.949 . S
C2870 C2876 1.368 . S
C2871 C2855 1.349 . S
C2871 H2863 0.950 . S
C2871 C2869 1.327 . S
C2872 C2860 1.349 . S
C2872 H2866 0.950 . S
C2872 C2873 1.327 . S
C2873 H2867 0.950 . S
C2873 C2872 1.327 . S
C2873 C2877 1.429 . S
C2874 C2857 1.574 . S
C2874 H2868 0.949 . S
C2874 C2878 1.368 . S
C2875 C2856 1.429 . S
C2875 C2869 1.429 . S
C2875 C2876 1.523 . S
C2876 C2857 1.368 . S
C2876 C2870 1.368 . S
C2876 C2875 1.523 . S
C2877 C2861 1.429 . S
C2877 C2873 1.429 . S
C2877 C2878 1.523 . S
C2878 C2862 1.368 . S
C2878 C2874 1.368 . S
C2878 C2877 1.523 . S
H2879 C2854 0.950 . S
H2880 C2856 0.950 . S
H2881 C2857 0.949 . S
H2882 C2859 0.950 . S
H2883 C2861 0.950 . S
C2884 C2885 1.349 . S
C2884 C2886 1.327 . S
C2884 H2909 0.950 . S
C2885 C2884 1.349 . S
C2885 C2901 1.349 . S
C2886 C2884 1.327 . S
C2886 C2905 1.429 . S
C2886 H2910 0.950 . S
C2887 C2904 1.574 . S
C2887 C2906 1.368 . S
C2887 H2911 0.949 . S
H2888 C2892 0.949 . S
C2889 C2890 1.349 . S
C2889 C2891 1.327 . S
C2889 H2912 0.950 . S
C2890 C2889 1.349 . S
C2890 C2902 1.349 . S
C2891 C2889 1.327 . S
C2891 C2907 1.429 . S
C2891 H2913 0.950 . S
C2892 H2888 0.949 . S
C2892 C2900 1.574 . S
C2892 C2908 1.368 . S
H2893 C2901 0.950 . S
H2894 C2899 0.950 . S
H2895 C2900 0.949 . S
H2896 C2902 0.950 . S
H2897 C2903 0.950 . S
H2898 C2904 0.949 . S
C2899 H2894 0.950 . S
C2899 C2901 1.327 . S
C2899 C2905 1.429 . S
C2900 C2892 1.574 . S
C2900 H2895 0.949 . S
C2900 C2906 1.368 . S
C2901 C2885 1.349 . S
C2901 H2893 0.950 . S
C2901 C2899 1.327 . S
C2902 C2890 1.349 . S
C2902 H2896 0.950 . S
C2902 C2903 1.327 . S
C2903 H2897 0.950 . S
C2903 C2902 1.327 . S
C2903 C2907 1.429 . S
C2904 C2887 1.574 . S
C2904 H2898 0.949 . S
C2904 C2908 1.368 . S
C2905 C2886 1.429 . S
C2905 C2899 1.429 . S
C2905 C2906 1.523 . S
C2906 C2887 1.368 . S
C2906 C2900 1.368 . S
C2906 C2905 1.523 . S
C2907 C2891 1.429 . S
C2907 C2903 1.429 . S
C2907 C2908 1.523 . S
C2908 C2892 1.368 . S
C2908 C2904 1.368 . S
C2908 C2907 1.523 . S
H2909 C2884 0.950 . S
H2910 C2886 0.950 . S
H2911 C2887 0.949 . S
H2912 C2889 0.950 . S
H2913 C2891 0.950 . S
C2914 C2915 1.349 . S
C2914 C2916 1.327 . S
C2914 H2939 0.950 . S
C2915 C2914 1.349 . S
C2915 C2931 1.349 . S
C2916 C2914 1.327 . S
C2916 C2935 1.429 . S
C2916 H2940 0.950 . S
C2917 C2934 1.574 . S
C2917 C2936 1.368 . S
C2917 H2941 0.949 . S
H2918 C2922 0.949 . S
C2919 C2920 1.349 . S
C2919 C2921 1.327 . S
C2919 H2942 0.950 . S
C2920 C2919 1.349 . S
C2920 C2932 1.349 . S
C2921 C2919 1.327 . S
C2921 C2937 1.429 . S
C2921 H2943 0.950 . S
C2922 H2918 0.949 . S
C2922 C2930 1.574 . S
C2922 C2938 1.368 . S
H2923 C2931 0.950 . S
H2924 C2929 0.950 . S
H2925 C2930 0.949 . S
H2926 C2932 0.950 . S
H2927 C2933 0.950 . S
H2928 C2934 0.949 . S
C2929 H2924 0.950 . S
C2929 C2931 1.327 . S
C2929 C2935 1.429 . S
C2930 C2922 1.574 . S
C2930 H2925 0.949 . S
C2930 C2936 1.368 . S
C2931 C2915 1.349 . S
C2931 H2923 0.950 . S
C2931 C2929 1.327 . S
C2932 C2920 1.349 . S
C2932 H2926 0.950 . S
C2932 C2933 1.327 . S
C2933 H2927 0.950 . S
C2933 C2932 1.327 . S
C2933 C2937 1.429 . S
C2934 C2917 1.574 . S
C2934 H2928 0.949 . S
C2934 C2938 1.368 . S
C2935 C2916 1.429 . S
C2935 C2929 1.429 . S
C2935 C2936 1.523 . S
C2936 C2917 1.368 . S
C2936 C2930 1.368 . S
C2936 C2935 1.523 . S
C2937 C2921 1.429 . S
C2937 C2933 1.429 . S
C2937 C2938 1.523 . S
C2938 C2922 1.368 . S
C2938 C2934 1.368 . S
C2938 C2937 1.523 . S
H2939 C2914 0.950 . S
H2940 C2916 0.950 . S
H2941 C2917 0.949 . S
H2942 C2919 0.950 . S
H2943 C2921 0.950 . S
C2944 C2945 1.349 . S
C2944 C2946 1.327 . S
C2944 H2969 0.950 . S
C2945 C2944 1.349 . S
C2945 C2961 1.349 . S
C2946 C2944 1.327 . S
C2946 C2965 1.429 . S
C2946 H2970 0.950 . S
C2947 C2964 1.574 . S
C2947 C2966 1.368 . S
C2947 H2971 0.949 . S
H2948 C2952 0.949 . S
C2949 C2950 1.349 . S
C2949 C2951 1.327 . S
C2949 H2972 0.950 . S
C2950 C2949 1.349 . S
C2950 C2962 1.349 . S
C2951 C2949 1.327 . S
C2951 C2967 1.429 . S
C2951 H2973 0.950 . S
C2952 H2948 0.949 . S
C2952 C2960 1.574 . S
C2952 C2968 1.368 . S
H2953 C2961 0.950 . S
H2954 C2959 0.950 . S
H2955 C2960 0.949 . S
H2956 C2962 0.950 . S
H2957 C2963 0.950 . S
H2958 C2964 0.949 . S
C2959 H2954 0.950 . S
C2959 C2961 1.327 . S
C2959 C2965 1.429 . S
C2960 C2952 1.574 . S
C2960 H2955 0.949 . S
C2960 C2966 1.368 . S
C2961 C2945 1.349 . S
C2961 H2953 0.950 . S
C2961 C2959 1.327 . S
C2962 C2950 1.349 . S
C2962 H2956 0.950 . S
C2962 C2963 1.327 . S
C2963 H2957 0.950 . S
C2963 C2962 1.327 . S
C2963 C2967 1.429 . S
C2964 C2947 1.574 . S
C2964 H2958 0.949 . S
C2964 C2968 1.368 . S
C2965 C2946 1.429 . S
C2965 C2959 1.429 . S
C2965 C2966 1.523 . S
C2966 C2947 1.368 . S
C2966 C2960 1.368 . S
C2966 C2965 1.523 . S
C2967 C2951 1.429 . S
C2967 C2963 1.429 . S
C2967 C2968 1.523 . S
C2968 C2952 1.368 . S
C2968 C2964 1.368 . S
C2968 C2967 1.523 . S
H2969 C2944 0.950 . S
H2970 C2946 0.950 . S
H2971 C2947 0.949 . S
H2972 C2949 0.950 . S
H2973 C2951 0.950 . S
C2974 C2975 1.349 . S
C2974 C2976 1.327 . S
C2974 H2999 0.950 . S
C2975 C2974 1.349 . S
C2975 C2991 1.349 . S
C2976 C2974 1.327 . S
C2976 C2995 1.429 . S
C2976 H3000 0.950 . S
C2977 C2994 1.574 . S
C2977 C2996 1.368 . S
C2977 H3001 0.949 . S
H2978 C2982 0.949 . S
C2979 C2980 1.349 . S
C2979 C2981 1.327 . S
C2979 H3002 0.950 . S
C2980 C2979 1.349 . S
C2980 C2992 1.349 . S
C2981 C2979 1.327 . S
C2981 C2997 1.429 . S
C2981 H3003 0.950 . S
C2982 H2978 0.949 . S
C2982 C2990 1.574 . S
C2982 C2998 1.368 . S
H2983 C2991 0.950 . S
H2984 C2989 0.950 . S
H2985 C2990 0.949 . S
H2986 C2992 0.950 . S
H2987 C2993 0.950 . S
H2988 C2994 0.949 . S
C2989 H2984 0.950 . S
C2989 C2991 1.327 . S
C2989 C2995 1.429 . S
C2990 C2982 1.574 . S
C2990 H2985 0.949 . S
C2990 C2996 1.368 . S
C2991 C2975 1.349 . S
C2991 H2983 0.950 . S
C2991 C2989 1.327 . S
C2992 C2980 1.349 . S
C2992 H2986 0.950 . S
C2992 C2993 1.327 . S
C2993 H2987 0.950 . S
C2993 C2992 1.327 . S
C2993 C2997 1.429 . S
C2994 C2977 1.574 . S
C2994 H2988 0.949 . S
C2994 C2998 1.368 . S
C2995 C2976 1.429 . S
C2995 C2989 1.429 . S
C2995 C2996 1.523 . S
C2996 C2977 1.368 . S
C2996 C2990 1.368 . S
C2996 C2995 1.523 . S
C2997 C2981 1.429 . S
C2997 C2993 1.429 . S
C2997 C2998 1.523 . S
C2998 C2982 1.368 . S
C2998 C2994 1.368 . S
C2998 C2997 1.523 . S
H2999 C2974 0.950 . S
H3000 C2976 0.950 . S
H3001 C2977 0.949 . S
H3002 C2979 0.950 . S
H3003 C2981 0.950 . S
C3004 C3005 1.349 . S
C3004 C3006 1.327 . S
C3004 H3029 0.950 . S
C3005 C3004 1.349 . S
C3005 C3021 1.349 . S
C3006 C3004 1.327 . S
C3006 C3025 1.429 . S
C3006 H3030 0.950 1_556 S
C3007 C3024 1.574 . S
C3007 C3026 1.368 . S
C3007 H3031 0.949 . S
H3008 C3012 0.949 . S
C3009 C3010 1.349 1_556 S
C3009 C3011 1.327 . S
C3009 H3032 0.950 . S
C3010 C3009 1.349 1_554 S
C3010 C3022 1.349 . S
C3011 C3009 1.327 . S
C3011 C3027 1.429 1_556 S
C3011 H3033 0.950 . S
C3012 H3008 0.949 . S
C3012 C3020 1.574 . S
C3012 C3028 1.368 1_554 S
H3013 C3021 0.950 1_655 S
H3014 C3019 0.958 . S
H3015 C3020 0.949 . S
H3016 C3022 0.950 . S
H3017 C3023 0.950 . S
H3018 C3024 0.949 . S
C3019 H3014 0.958 . S
C3019 C3021 1.327 . S
C3019 C3025 1.429 . S
C3020 C3012 1.574 . S
C3020 H3015 0.949 . S
C3020 C3026 1.368 1_554 S
C3021 C3005 1.349 . S
C3021 H3013 0.950 1_455 S
C3021 C3019 1.327 . S
C3022 C3010 1.349 . S
C3022 H3016 0.950 . S
C3022 C3023 1.327 . S
C3023 H3017 0.950 . S
C3023 C3022 1.327 . S
C3023 C3027 1.429 . S
C3024 C3007 1.574 . S
C3024 H3018 0.949 . S
C3024 C3028 1.368 . S
C3025 C3006 1.429 . S
C3025 C3019 1.429 . S
C3025 C3026 1.523 . S
C3026 C3007 1.368 . S
C3026 C3020 1.368 1_556 S
C3026 C3025 1.523 . S
C3027 C3011 1.429 1_554 S
C3027 C3023 1.429 . S
C3027 C3028 1.523 1_554 S
C3028 C3012 1.368 1_556 S
C3028 C3024 1.368 . S
C3028 C3027 1.523 1_556 S
H3029 C3004 0.950 . S
H3030 C3006 0.950 1_554 S
H3031 C3007 0.949 . S
H3032 C3009 0.950 . S
H3033 C3011 0.950 . S
C3034 C3035 1.349 . S
C3034 C3036 1.327 . S
C3034 H3059 0.950 . S
C3035 C3034 1.349 . S
C3035 C3051 1.349 . S
C3036 C3034 1.327 . S
C3036 C3055 1.429 . S
C3036 H3060 0.950 . S
C3037 C3054 1.574 . S
C3037 C3056 1.368 . S
C3037 H3061 0.949 . S
H3038 C3042 0.949 . S
C3039 C3040 1.349 . S
C3039 C3041 1.327 . S
C3039 H3062 0.950 . S
C3040 C3039 1.349 . S
C3040 C3052 1.349 . S
C3041 C3039 1.327 . S
C3041 C3057 1.429 . S
C3041 H3063 0.950 . S
C3042 H3038 0.949 . S
C3042 C3050 1.574 . S
C3042 C3058 1.368 . S
H3043 C3051 0.950 . S
H3044 C3049 0.950 . S
H3045 C3050 0.949 . S
H3046 C3052 0.950 . S
H3047 C3053 0.950 . S
H3048 C3054 0.949 . S
C3049 H3044 0.950 . S
C3049 C3051 1.327 . S
C3049 C3055 1.429 . S
C3050 C3042 1.574 . S
C3050 H3045 0.949 . S
C3050 C3056 1.368 . S
C3051 C3035 1.349 . S
C3051 H3043 0.950 . S
C3051 C3049 1.327 . S
C3052 C3040 1.349 . S
C3052 H3046 0.950 . S
C3052 C3053 1.327 . S
C3053 H3047 0.950 . S
C3053 C3052 1.327 . S
C3053 C3057 1.429 . S
C3054 C3037 1.574 . S
C3054 H3048 0.949 . S
C3054 C3058 1.368 . S
C3055 C3036 1.429 . S
C3055 C3049 1.429 . S
C3055 C3056 1.523 . S
C3056 C3037 1.368 . S
C3056 C3050 1.368 . S
C3056 C3055 1.523 . S
C3057 C3041 1.429 . S
C3057 C3053 1.429 . S
C3057 C3058 1.523 . S
C3058 C3042 1.368 . S
C3058 C3054 1.368 . S
C3058 C3057 1.523 . S
H3059 C3034 0.950 . S
H3060 C3036 0.950 . S
H3061 C3037 0.949 . S
H3062 C3039 0.950 . S
H3063 C3041 0.950 . S
C3064 C3065 1.349 . S
C3064 C3066 1.327 . S
C3064 H3089 0.950 . S
C3065 C3064 1.349 . S
C3065 C3081 1.349 . S
C3066 C3064 1.327 . S
C3066 C3085 1.429 . S
C3066 H3090 0.950 . S
C3067 C3084 1.574 . S
C3067 C3086 1.368 . S
C3067 H3091 0.949 . S
H3068 C3072 0.949 . S
C3069 C3070 1.349 . S
C3069 C3071 1.327 . S
C3069 H3092 0.950 . S
C3070 C3069 1.349 . S
C3070 C3082 1.349 . S
C3071 C3069 1.327 . S
C3071 C3087 1.429 . S
C3071 H3093 0.950 . S
C3072 H3068 0.949 . S
C3072 C3080 1.574 . S
C3072 C3088 1.368 . S
H3073 C3081 0.950 . S
H3074 C3079 0.950 . S
H3075 C3080 0.949 . S
H3076 C3082 0.950 . S
H3077 C3083 0.950 . S
H3078 C3084 0.949 . S
C3079 H3074 0.950 . S
C3079 C3081 1.327 . S
C3079 C3085 1.429 . S
C3080 C3072 1.574 . S
C3080 H3075 0.949 . S
C3080 C3086 1.368 . S
C3081 C3065 1.349 . S
C3081 H3073 0.950 . S
C3081 C3079 1.327 . S
C3082 C3070 1.349 . S
C3082 H3076 0.950 . S
C3082 C3083 1.327 . S
C3083 H3077 0.950 . S
C3083 C3082 1.327 . S
C3083 C3087 1.429 . S
C3084 C3067 1.574 . S
C3084 H3078 0.949 . S
C3084 C3088 1.368 . S
C3085 C3066 1.429 . S
C3085 C3079 1.429 . S
C3085 C3086 1.523 . S
C3086 C3067 1.368 . S
C3086 C3080 1.368 . S
C3086 C3085 1.523 . S
C3087 C3071 1.429 . S
C3087 C3083 1.429 . S
C3087 C3088 1.523 . S
C3088 C3072 1.368 . S
C3088 C3084 1.368 . S
C3088 C3087 1.523 . S
H3089 C3064 0.950 . S
H3090 C3066 0.950 . S
H3091 C3067 0.949 . S
H3092 C3069 0.950 . S
H3093 C3071 0.950 . S
C3094 C3095 1.349 . S
C3094 C3096 1.327 . S
C3094 H3119 0.950 . S
C3095 C3094 1.349 . S
C3095 C3111 1.349 . S
C3096 C3094 1.327 . S
C3096 C3115 1.429 . S
C3096 H3120 0.950 . S
C3097 C3114 1.574 . S
C3097 C3116 1.368 . S
C3097 H3121 0.949 . S
H3098 C3102 0.949 . S
C3099 C3100 1.349 . S
C3099 C3101 1.327 . S
C3099 H3122 0.950 . S
C3100 C3099 1.349 . S
C3100 C3112 1.349 . S
C3101 C3099 1.327 . S
C3101 C3117 1.429 . S
C3101 H3123 0.950 . S
C3102 H3098 0.949 . S
C3102 C3110 1.574 . S
C3102 C3118 1.368 . S
H3103 C3111 0.950 . S
H3104 C3109 0.950 . S
H3105 C3110 0.949 . S
H3106 C3112 0.950 . S
H3107 C3113 0.950 . S
H3108 C3114 0.949 . S
C3109 H3104 0.950 . S
C3109 C3111 1.327 . S
C3109 C3115 1.429 . S
C3110 C3102 1.574 . S
C3110 H3105 0.949 . S
C3110 C3116 1.368 . S
C3111 C3095 1.349 . S
C3111 H3103 0.950 . S
C3111 C3109 1.327 . S
C3112 C3100 1.349 . S
C3112 H3106 0.950 . S
C3112 C3113 1.327 . S
C3113 H3107 0.950 . S
C3113 C3112 1.327 . S
C3113 C3117 1.429 . S
C3114 C3097 1.574 . S
C3114 H3108 0.949 . S
C3114 C3118 1.368 . S
C3115 C3096 1.429 . S
C3115 C3109 1.429 . S
C3115 C3116 1.523 . S
C3116 C3097 1.368 . S
C3116 C3110 1.368 . S
C3116 C3115 1.523 . S
C3117 C3101 1.429 . S
C3117 C3113 1.429 . S
C3117 C3118 1.523 . S
C3118 C3102 1.368 . S
C3118 C3114 1.368 . S
C3118 C3117 1.523 . S
H3119 C3094 0.950 . S
H3120 C3096 0.950 . S
H3121 C3097 0.949 . S
H3122 C3099 0.950 . S
H3123 C3101 0.950 . S
C3124 C3125 1.349 . S
C3124 C3126 1.327 . S
C3124 H3149 0.950 . S
C3125 C3124 1.349 . S
C3125 C3141 1.349 1_455 S
C3126 C3124 1.327 . S
C3126 C3145 1.429 . S
C3126 H3150 0.950 . S
C3127 C3144 1.575 . S
C3127 C3146 1.368 1_655 S
C3127 H3151 0.949 . S
H3128 C3132 0.949 . S
C3129 C3130 1.349 . S
C3129 C3131 1.327 . S
C3129 H3152 0.950 1_455 S
C3130 C3129 1.349 . S
C3130 C3142 1.349 . S
C3131 C3129 1.327 . S
C3131 C3147 1.429 . S
C3131 H3153 0.950 1_455 S
C3132 H3128 0.949 . S
C3132 C3140 1.574 . S
C3132 C3148 1.368 . S
H3133 C3141 0.950 . S
H3134 C3139 0.950 . S
H3135 C3140 0.949 . S
H3136 C3142 0.950 . S
H3137 C3143 0.950 . S
H3138 C3144 0.952 . S
C3139 H3134 0.950 . S
C3139 C3141 1.327 . S
C3139 C3145 1.429 1_655 S
C3140 C3132 1.574 . S
C3140 H3135 0.949 . S
C3140 C3146 1.368 . S
C3141 C3125 1.349 1_655 S
C3141 H3133 0.950 . S
C3141 C3139 1.327 . S
C3142 C3130 1.349 . S
C3142 H3136 0.950 . S
C3142 C3143 1.327 . S
C3143 H3137 0.950 . S
C3143 C3142 1.327 . S
C3143 C3147 1.429 . S
C3144 C3127 1.575 . S
C3144 H3138 0.952 . S
C3144 C3148 1.364 1_655 S
C3145 C3126 1.429 . S
C3145 C3139 1.429 1_455 S
C3145 C3146 1.523 . S
C3146 C3127 1.368 1_455 S
C3146 C3140 1.368 . S
C3146 C3145 1.523 . S
C3147 C3131 1.429 . S
C3147 C3143 1.429 . S
C3147 C3148 1.523 . S
C3148 C3132 1.368 . S
C3148 C3144 1.364 1_455 S
C3148 C3147 1.523 . S
H3149 C3124 0.950 . S
H3150 C3126 0.950 . S
H3151 C3127 0.949 . S
H3152 C3129 0.950 1_655 S
H3153 C3131 0.950 1_655 S
C3154 C3155 1.349 . S
C3154 C3156 1.327 . S
C3154 H3179 0.950 . S
C3155 C3154 1.349 . S
C3155 C3171 1.349 . S
C3156 C3154 1.327 . S
C3156 C3175 1.429 . S
C3156 H3180 0.950 . S
C3157 C3174 1.574 . S
C3157 C3176 1.368 . S
C3157 H3181 0.949 . S
H3158 C3162 0.949 . S
C3159 C3160 1.349 . S
C3159 C3161 1.327 . S
C3159 H3182 0.950 . S
C3160 C3159 1.349 . S
C3160 C3172 1.349 . S
C3161 C3159 1.327 . S
C3161 C3177 1.429 . S
C3161 H3183 0.950 . S
C3162 H3158 0.949 . S
C3162 C3170 1.574 . S
C3162 C3178 1.368 . S
H3163 C3171 0.950 . S
H3164 C3169 0.950 . S
H3165 C3170 0.949 . S
H3166 C3172 0.950 . S
H3167 C3173 0.950 . S
H3168 C3174 0.949 . S
C3169 H3164 0.950 . S
C3169 C3171 1.327 . S
C3169 C3175 1.429 . S
C3170 C3162 1.574 . S
C3170 H3165 0.949 . S
C3170 C3176 1.368 . S
C3171 C3155 1.349 . S
C3171 H3163 0.950 . S
C3171 C3169 1.327 . S
C3172 C3160 1.349 . S
C3172 H3166 0.950 . S
C3172 C3173 1.327 . S
C3173 H3167 0.950 . S
C3173 C3172 1.327 . S
C3173 C3177 1.429 . S
C3174 C3157 1.574 . S
C3174 H3168 0.949 . S
C3174 C3178 1.368 . S
C3175 C3156 1.429 . S
C3175 C3169 1.429 . S
C3175 C3176 1.523 . S
C3176 C3157 1.368 . S
C3176 C3170 1.368 . S
C3176 C3175 1.523 . S
C3177 C3161 1.429 . S
C3177 C3173 1.429 . S
C3177 C3178 1.523 . S
C3178 C3162 1.368 . S
C3178 C3174 1.368 . S
C3178 C3177 1.523 . S
H3179 C3154 0.950 . S
H3180 C3156 0.950 . S
H3181 C3157 0.949 . S
H3182 C3159 0.950 . S
H3183 C3161 0.950 . S
C3184 C3185 1.349 . S
C3184 C3186 1.327 . S
C3184 H3209 0.950 . S
C3185 C3184 1.349 . S
C3185 C3201 1.349 . S
C3186 C3184 1.327 . S
C3186 C3205 1.429 . S
C3186 H3210 0.950 . S
C3187 C3204 1.574 . S
C3187 C3206 1.368 . S
C3187 H3211 0.949 . S
H3188 C3192 0.949 . S
C3189 C3190 1.349 . S
C3189 C3191 1.327 . S
C3189 H3212 0.950 . S
C3190 C3189 1.349 . S
C3190 C3202 1.349 . S
C3191 C3189 1.327 . S
C3191 C3207 1.429 . S
C3191 H3213 0.950 . S
C3192 H3188 0.949 . S
C3192 C3200 1.574 . S
C3192 C3208 1.368 . S
H3193 C3201 0.950 . S
H3194 C3199 0.950 . S
H3195 C3200 0.949 . S
H3196 C3202 0.950 . S
H3197 C3203 0.950 . S
H3198 C3204 0.949 . S
C3199 H3194 0.950 . S
C3199 C3201 1.327 . S
C3199 C3205 1.429 . S
C3200 C3192 1.574 . S
C3200 H3195 0.949 . S
C3200 C3206 1.368 . S
C3201 C3185 1.349 . S
C3201 H3193 0.950 . S
C3201 C3199 1.327 . S
C3202 C3190 1.349 . S
C3202 H3196 0.950 . S
C3202 C3203 1.327 . S
C3203 H3197 0.950 . S
C3203 C3202 1.327 . S
C3203 C3207 1.429 . S
C3204 C3187 1.574 . S
C3204 H3198 0.949 . S
C3204 C3208 1.368 . S
C3205 C3186 1.429 . S
C3205 C3199 1.429 . S
C3205 C3206 1.523 . S
C3206 C3187 1.368 . S
C3206 C3200 1.368 . S
C3206 C3205 1.523 . S
C3207 C3191 1.429 . S
C3207 C3203 1.429 . S
C3207 C3208 1.523 . S
C3208 C3192 1.368 . S
C3208 C3204 1.368 . S
C3208 C3207 1.523 . S
H3209 C3184 0.950 . S
H3210 C3186 0.950 . S
H3211 C3187 0.949 . S
H3212 C3189 0.950 . S
H3213 C3191 0.950 . S
C3214 C3215 1.349 1_556 S
C3214 C3216 1.327 . S
C3214 H3239 0.950 . S
C3215 C3214 1.349 1_554 S
C3215 C3231 1.349 . S
C3216 C3214 1.327 . S
C3216 C3235 1.429 . S
C3216 H3240 0.950 . S
C3217 C3234 1.574 . S
C3217 C3236 1.368 . S
C3217 H3241 0.949 . S
H3218 C3222 0.949 . S
C3219 C3220 1.349 . S
C3219 C3221 1.327 . S
C3219 H3242 0.950 . S
C3220 C3219 1.349 . S
C3220 C3232 1.349 . S
C3221 C3219 1.327 . S
C3221 C3237 1.429 . S
C3221 H3243 0.950 . S
C3222 H3218 0.949 . S
C3222 C3230 1.574 . S
C3222 C3238 1.368 . S
H3223 C3231 0.950 . S
H3224 C3229 0.950 . S
H3225 C3230 0.949 . S
H3226 C3232 0.950 . S
H3227 C3233 0.950 . S
H3228 C3234 0.949 . S
C3229 H3224 0.950 . S
C3229 C3231 1.327 1_556 S
C3229 C3235 1.429 . S
C3230 C3222 1.574 . S
C3230 H3225 0.949 . S
C3230 C3236 1.368 . S
C3231 C3215 1.349 . S
C3231 H3223 0.950 . S
C3231 C3229 1.327 1_554 S
C3232 C3220 1.349 . S
C3232 H3226 0.950 . S
C3232 C3233 1.327 . S
C3233 H3227 0.950 . S
C3233 C3232 1.327 . S
C3233 C3237 1.429 . S
C3234 C3217 1.574 . S
C3234 H3228 0.949 . S
C3234 C3238 1.368 . S
C3235 C3216 1.429 . S
C3235 C3229 1.429 . S
C3235 C3236 1.523 . S
C3236 C3217 1.368 . S
C3236 C3230 1.368 . S
C3236 C3235 1.523 . S
C3237 C3221 1.429 . S
C3237 C3233 1.429 . S
C3237 C3238 1.523 . S
C3238 C3222 1.368 . S
C3238 C3234 1.368 . S
C3238 C3237 1.523 . S
H3239 C3214 0.950 . S
H3240 C3216 0.950 . S
H3241 C3217 0.949 . S
H3242 C3219 0.950 . S
H3243 C3221 0.950 . S
C3244 C3245 1.349 . S
C3244 C3246 1.327 . S
C3244 H3269 0.950 . S
C3245 C3244 1.349 . S
C3245 C3261 1.349 . S
C3246 C3244 1.327 . S
C3246 C3265 1.429 . S
C3246 H3270 0.950 . S
C3247 C3264 1.574 . S
C3247 C3266 1.368 . S
C3247 H3271 0.949 . S
H3248 C3252 0.949 . S
C3249 C3250 1.349 . S
C3249 C3251 1.327 . S
C3249 H3272 0.950 . S
C3250 C3249 1.349 . S
C3250 C3262 1.349 . S
C3251 C3249 1.327 . S
C3251 C3267 1.429 . S
C3251 H3273 0.950 . S
C3252 H3248 0.949 . S
C3252 C3260 1.574 . S
C3252 C3268 1.368 . S
H3253 C3261 0.950 . S
H3254 C3259 0.950 . S
H3255 C3260 0.949 . S
H3256 C3262 0.950 . S
H3257 C3263 0.950 . S
H3258 C3264 0.949 . S
C3259 H3254 0.950 . S
C3259 C3261 1.327 . S
C3259 C3265 1.429 . S
C3260 C3252 1.574 . S
C3260 H3255 0.949 . S
C3260 C3266 1.368 . S
C3261 C3245 1.349 . S
C3261 H3253 0.950 . S
C3261 C3259 1.327 . S
C3262 C3250 1.349 . S
C3262 H3256 0.950 . S
C3262 C3263 1.327 . S
C3263 H3257 0.950 . S
C3263 C3262 1.327 . S
C3263 C3267 1.429 . S
C3264 C3247 1.574 . S
C3264 H3258 0.949 . S
C3264 C3268 1.368 . S
C3265 C3246 1.429 . S
C3265 C3259 1.429 . S
C3265 C3266 1.523 . S
C3266 C3247 1.368 . S
C3266 C3260 1.368 . S
C3266 C3265 1.523 . S
C3267 C3251 1.429 . S
C3267 C3263 1.429 . S
C3267 C3268 1.523 . S
C3268 C3252 1.368 . S
C3268 C3264 1.368 . S
C3268 C3267 1.523 . S
H3269 C3244 0.950 . S
H3270 C3246 0.950 . S
H3271 C3247 0.949 . S
H3272 C3249 0.950 . S
H3273 C3251 0.950 . S
C3274 C3275 1.349 . S
C3274 C3276 1.327 . S
C3274 H3299 0.950 . S
C3275 C3274 1.349 . S
C3275 C3291 1.349 . S
C3276 C3274 1.327 . S
C3276 C3295 1.429 . S
C3276 H3300 0.950 . S
C3277 C3294 1.574 . S
C3277 C3296 1.368 . S
C3277 H3301 0.949 . S
H3278 C3282 0.949 . S
C3279 C3280 1.349 . S
C3279 C3281 1.327 . S
C3279 H3302 0.950 . S
C3280 C3279 1.349 . S
C3280 C3292 1.349 . S
C3281 C3279 1.327 . S
C3281 C3297 1.429 . S
C3281 H3303 0.950 . S
C3282 H3278 0.949 . S
C3282 C3290 1.574 . S
C3282 C3298 1.368 . S
H3283 C3291 0.950 . S
H3284 C3289 0.950 . S
H3285 C3290 0.949 . S
H3286 C3292 0.950 . S
H3287 C3293 0.950 . S
H3288 C3294 0.949 . S
C3289 H3284 0.950 . S
C3289 C3291 1.327 . S
C3289 C3295 1.429 . S
C3290 C3282 1.574 . S
C3290 H3285 0.949 . S
C3290 C3296 1.368 . S
C3291 C3275 1.349 . S
C3291 H3283 0.950 . S
C3291 C3289 1.327 . S
C3292 C3280 1.349 . S
C3292 H3286 0.950 . S
C3292 C3293 1.327 . S
C3293 H3287 0.950 . S
C3293 C3292 1.327 . S
C3293 C3297 1.429 . S
C3294 C3277 1.574 . S
C3294 H3288 0.949 . S
C3294 C3298 1.368 . S
C3295 C3276 1.429 . S
C3295 C3289 1.429 . S
C3295 C3296 1.523 . S
C3296 C3277 1.368 . S
C3296 C3290 1.368 . S
C3296 C3295 1.523 . S
C3297 C3281 1.429 . S
C3297 C3293 1.429 . S
C3297 C3298 1.523 . S
C3298 C3282 1.368 . S
C3298 C3294 1.368 . S
C3298 C3297 1.523 . S
H3299 C3274 0.950 . S
H3300 C3276 0.950 . S
H3301 C3277 0.949 . S
H3302 C3279 0.950 . S
H3303 C3281 0.950 . S
C3304 C3305 1.349 . S
C3304 C3306 1.327 . S
C3304 H3329 0.950 . S
C3305 C3304 1.349 . S
C3305 C3321 1.349 . S
C3306 C3304 1.327 . S
C3306 C3325 1.429 . S
C3306 H3330 0.950 . S
C3307 C3324 1.574 . S
C3307 C3326 1.368 . S
C3307 H3331 0.949 . S
H3308 C3312 0.949 . S
C3309 C3310 1.349 . S
C3309 C3311 1.327 . S
C3309 H3332 0.950 . S
C3310 C3309 1.349 . S
C3310 C3322 1.349 . S
C3311 C3309 1.327 . S
C3311 C3327 1.429 . S
C3311 H3333 0.950 . S
C3312 H3308 0.949 . S
C3312 C3320 1.574 . S
C3312 C3328 1.368 . S
H3313 C3321 0.950 . S
H3314 C3319 0.950 . S
H3315 C3320 0.949 . S
H3316 C3322 0.950 . S
H3317 C3323 0.950 . S
H3318 C3324 0.949 . S
C3319 H3314 0.950 . S
C3319 C3321 1.327 . S
C3319 C3325 1.429 . S
C3320 C3312 1.574 . S
C3320 H3315 0.949 . S
C3320 C3326 1.368 . S
C3321 C3305 1.349 . S
C3321 H3313 0.950 . S
C3321 C3319 1.327 . S
C3322 C3310 1.349 . S
C3322 H3316 0.950 . S
C3322 C3323 1.327 . S
C3323 H3317 0.950 . S
C3323 C3322 1.327 . S
C3323 C3327 1.429 . S
C3324 C3307 1.574 . S
C3324 H3318 0.949 . S
C3324 C3328 1.368 . S
C3325 C3306 1.429 . S
C3325 C3319 1.429 . S
C3325 C3326 1.523 . S
C3326 C3307 1.368 . S
C3326 C3320 1.368 . S
C3326 C3325 1.523 . S
C3327 C3311 1.429 . S
C3327 C3323 1.429 . S
C3327 C3328 1.523 . S
C3328 C3312 1.368 . S
C3328 C3324 1.368 . S
C3328 C3327 1.523 . S
H3329 C3304 0.950 . S
H3330 C3306 0.950 . S
H3331 C3307 0.949 . S
H3332 C3309 0.950 . S
H3333 C3311 0.950 . S
C3334 C3335 1.349 . S
C3334 C3336 1.327 . S
C3334 H3359 0.950 . S
C3335 C3334 1.349 . S
C3335 C3351 1.349 . S
C3336 C3334 1.327 . S
C3336 C3355 1.429 . S
C3336 H3360 0.950 . S
C3337 C3354 1.574 . S
C3337 C3356 1.368 . S
C3337 H3361 0.949 . S
H3338 C3342 0.949 . S
C3339 C3340 1.349 . S
C3339 C3341 1.327 . S
C3339 H3362 0.950 . S
C3340 C3339 1.349 . S
C3340 C3352 1.349 . S
C3341 C3339 1.327 . S
C3341 C3357 1.429 . S
C3341 H3363 0.950 . S
C3342 H3338 0.949 . S
C3342 C3350 1.574 . S
C3342 C3358 1.368 . S
H3343 C3351 0.950 . S
H3344 C3349 0.950 . S
H3345 C3350 0.949 . S
H3346 C3352 0.950 . S
H3347 C3353 0.950 . S
H3348 C3354 0.949 . S
C3349 H3344 0.950 . S
C3349 C3351 1.327 . S
C3349 C3355 1.429 . S
C3350 C3342 1.574 . S
C3350 H3345 0.949 . S
C3350 C3356 1.368 . S
C3351 C3335 1.349 . S
C3351 H3343 0.950 . S
C3351 C3349 1.327 . S
C3352 C3340 1.349 . S
C3352 H3346 0.950 . S
C3352 C3353 1.327 . S
C3353 H3347 0.950 . S
C3353 C3352 1.327 . S
C3353 C3357 1.429 . S
C3354 C3337 1.574 . S
C3354 H3348 0.949 . S
C3354 C3358 1.368 . S
C3355 C3336 1.429 . S
C3355 C3349 1.429 . S
C3355 C3356 1.523 . S
C3356 C3337 1.368 . S
C3356 C3350 1.368 . S
C3356 C3355 1.523 . S
C3357 C3341 1.429 . S
C3357 C3353 1.429 . S
C3357 C3358 1.523 . S
C3358 C3342 1.368 . S
C3358 C3354 1.368 . S
C3358 C3357 1.523 . S
H3359 C3334 0.950 . S
H3360 C3336 0.950 . S
H3361 C3337 0.949 . S
H3362 C3339 0.950 . S
H3363 C3341 0.950 . S
C3364 C3365 1.349 . S
C3364 C3366 1.327 . S
C3364 H3389 0.950 . S
C3365 C3364 1.349 . S
C3365 C3381 1.349 . S
C3366 C3364 1.327 . S
C3366 C3385 1.429 . S
C3366 H3390 0.950 . S
C3367 C3384 1.574 . S
C3367 C3386 1.368 . S
C3367 H3391 0.949 . S
H3368 C3372 0.949 . S
C3369 C3370 1.349 . S
C3369 C3371 1.327 . S
C3369 H3392 0.950 . S
C3370 C3369 1.349 . S
C3370 C3382 1.349 . S
C3371 C3369 1.327 . S
C3371 C3387 1.429 . S
C3371 H3393 0.950 . S
C3372 H3368 0.949 . S
C3372 C3380 1.574 . S
C3372 C3388 1.368 . S
H3373 C3381 0.950 . S
H3374 C3379 0.950 . S
H3375 C3380 0.949 . S
H3376 C3382 0.950 . S
H3377 C3383 0.950 . S
H3378 C3384 0.949 . S
C3379 H3374 0.950 . S
C3379 C3381 1.327 . S
C3379 C3385 1.429 . S
C3380 C3372 1.574 . S
C3380 H3375 0.949 . S
C3380 C3386 1.368 . S
C3381 C3365 1.349 . S
C3381 H3373 0.950 . S
C3381 C3379 1.327 . S
C3382 C3370 1.349 . S
C3382 H3376 0.950 . S
C3382 C3383 1.327 . S
C3383 H3377 0.950 . S
C3383 C3382 1.327 . S
C3383 C3387 1.429 . S
C3384 C3367 1.574 . S
C3384 H3378 0.949 . S
C3384 C3388 1.368 . S
C3385 C3366 1.429 . S
C3385 C3379 1.429 . S
C3385 C3386 1.523 . S
C3386 C3367 1.368 . S
C3386 C3380 1.368 . S
C3386 C3385 1.523 . S
C3387 C3371 1.429 . S
C3387 C3383 1.429 . S
C3387 C3388 1.523 . S
C3388 C3372 1.368 . S
C3388 C3384 1.368 . S
C3388 C3387 1.523 . S
H3389 C3364 0.950 . S
H3390 C3366 0.950 . S
H3391 C3367 0.949 . S
H3392 C3369 0.950 . S
H3393 C3371 0.950 . S
C3394 C3395 1.349 . S
C3394 C3396 1.327 . S
C3394 H3419 0.950 . S
C3395 C3394 1.349 . S
C3395 C3411 1.349 . S
C3396 C3394 1.327 . S
C3396 C3415 1.429 . S
C3396 H3420 0.950 . S
C3397 C3414 1.574 . S
C3397 C3416 1.368 . S
C3397 H3421 0.949 . S
H3398 C3402 0.949 . S
C3399 C3400 1.349 . S
C3399 C3401 1.327 . S
C3399 H3422 0.950 . S
C3400 C3399 1.349 . S
C3400 C3412 1.349 . S
C3401 C3399 1.327 . S
C3401 C3417 1.429 . S
C3401 H3423 0.950 . S
C3402 H3398 0.949 . S
C3402 C3410 1.574 . S
C3402 C3418 1.368 . S
H3403 C3411 0.950 . S
H3404 C3409 0.950 . S
H3405 C3410 0.949 . S
H3406 C3412 0.950 . S
H3407 C3413 0.950 . S
H3408 C3414 0.949 . S
C3409 H3404 0.950 . S
C3409 C3411 1.327 . S
C3409 C3415 1.429 . S
C3410 C3402 1.574 . S
C3410 H3405 0.949 . S
C3410 C3416 1.368 . S
C3411 C3395 1.349 . S
C3411 H3403 0.950 . S
C3411 C3409 1.327 . S
C3412 C3400 1.349 . S
C3412 H3406 0.950 . S
C3412 C3413 1.327 . S
C3413 H3407 0.950 . S
C3413 C3412 1.327 . S
C3413 C3417 1.429 . S
C3414 C3397 1.574 . S
C3414 H3408 0.949 . S
C3414 C3418 1.368 . S
C3415 C3396 1.429 . S
C3415 C3409 1.429 . S
C3415 C3416 1.523 . S
C3416 C3397 1.368 . S
C3416 C3410 1.368 . S
C3416 C3415 1.523 . S
C3417 C3401 1.429 . S
C3417 C3413 1.429 . S
C3417 C3418 1.523 . S
C3418 C3402 1.368 . S
C3418 C3414 1.368 . S
C3418 C3417 1.523 . S
H3419 C3394 0.950 . S
H3420 C3396 0.950 . S
H3421 C3397 0.949 . S
H3422 C3399 0.950 . S
H3423 C3401 0.950 . S
C3424 C3425 1.349 . S
C3424 C3426 1.327 . S
C3424 H3449 0.950 . S
C3425 C3424 1.349 . S
C3425 C3441 1.349 . S
C3426 C3424 1.327 . S
C3426 C3445 1.429 . S
C3426 H3450 0.950 . S
C3427 C3444 1.574 . S
C3427 C3446 1.368 . S
C3427 H3451 0.949 . S
H3428 C3432 0.949 . S
C3429 C3430 1.349 . S
C3429 C3431 1.327 . S
C3429 H3452 0.950 . S
C3430 C3429 1.349 . S
C3430 C3442 1.349 . S
C3431 C3429 1.327 . S
C3431 C3447 1.429 . S
C3431 H3453 0.950 . S
C3432 H3428 0.949 . S
C3432 C3440 1.574 . S
C3432 C3448 1.368 . S
H3433 C3441 0.950 . S
H3434 C3439 0.950 . S
H3435 C3440 0.949 . S
H3436 C3442 0.950 . S
H3437 C3443 0.950 . S
H3438 C3444 0.949 . S
C3439 H3434 0.950 . S
C3439 C3441 1.327 . S
C3439 C3445 1.429 . S
C3440 C3432 1.574 . S
C3440 H3435 0.949 . S
C3440 C3446 1.368 . S
C3441 C3425 1.349 . S
C3441 H3433 0.950 . S
C3441 C3439 1.327 . S
C3442 C3430 1.349 . S
C3442 H3436 0.950 . S
C3442 C3443 1.327 . S
C3443 H3437 0.950 . S
C3443 C3442 1.327 . S
C3443 C3447 1.429 . S
C3444 C3427 1.574 . S
C3444 H3438 0.949 . S
C3444 C3448 1.368 . S
C3445 C3426 1.429 . S
C3445 C3439 1.429 . S
C3445 C3446 1.523 . S
C3446 C3427 1.368 . S
C3446 C3440 1.368 . S
C3446 C3445 1.523 . S
C3447 C3431 1.429 . S
C3447 C3443 1.429 . S
C3447 C3448 1.523 . S
C3448 C3432 1.368 . S
C3448 C3444 1.368 . S
C3448 C3447 1.523 . S
H3449 C3424 0.950 . S
H3450 C3426 0.950 . S
H3451 C3427 0.949 . S
H3452 C3429 0.950 . S
H3453 C3431 0.950 . S
C3454 C3455 1.349 . S
C3454 C3456 1.327 . S
C3454 H3479 0.950 . S
C3455 C3454 1.349 . S
C3455 C3471 1.349 . S
C3456 C3454 1.327 . S
C3456 C3475 1.429 . S
C3456 H3480 0.950 . S
C3457 C3474 1.574 . S
C3457 C3476 1.368 . S
C3457 H3481 0.949 . S
H3458 C3462 0.949 . S
C3459 C3460 1.349 . S
C3459 C3461 1.327 . S
C3459 H3482 0.950 . S
C3460 C3459 1.349 . S
C3460 C3472 1.349 . S
C3461 C3459 1.327 . S
C3461 C3477 1.429 . S
C3461 H3483 0.950 . S
C3462 H3458 0.949 . S
C3462 C3470 1.574 . S
C3462 C3478 1.368 . S
H3463 C3471 0.950 . S
H3464 C3469 0.950 . S
H3465 C3470 0.949 . S
H3466 C3472 0.950 . S
H3467 C3473 0.950 . S
H3468 C3474 0.949 . S
C3469 H3464 0.950 . S
C3469 C3471 1.327 . S
C3469 C3475 1.429 . S
C3470 C3462 1.574 . S
C3470 H3465 0.949 . S
C3470 C3476 1.368 . S
C3471 C3455 1.349 . S
C3471 H3463 0.950 . S
C3471 C3469 1.327 . S
C3472 C3460 1.349 . S
C3472 H3466 0.950 . S
C3472 C3473 1.327 . S
C3473 H3467 0.950 . S
C3473 C3472 1.327 . S
C3473 C3477 1.429 . S
C3474 C3457 1.574 . S
C3474 H3468 0.949 . S
C3474 C3478 1.368 . S
C3475 C3456 1.429 . S
C3475 C3469 1.429 . S
C3475 C3476 1.523 . S
C3476 C3457 1.368 . S
C3476 C3470 1.368 . S
C3476 C3475 1.523 . S
C3477 C3461 1.429 . S
C3477 C3473 1.429 . S
C3477 C3478 1.523 . S
C3478 C3462 1.368 . S
C3478 C3474 1.368 . S
C3478 C3477 1.523 . S
H3479 C3454 0.950 . S
H3480 C3456 0.950 . S
H3481 C3457 0.949 . S
H3482 C3459 0.950 . S
H3483 C3461 0.950 . S
C3484 C3485 1.349 . S
C3484 C3486 1.327 . S
C3484 H3509 0.950 . S
C3485 C3484 1.349 . S
C3485 C3501 1.349 . S
C3486 C3484 1.327 . S
C3486 C3505 1.429 . S
C3486 H3510 0.950 . S
C3487 C3504 1.574 . S
C3487 C3506 1.368 . S
C3487 H3511 0.949 . S
H3488 C3492 0.949 . S
C3489 C3490 1.349 . S
C3489 C3491 1.327 . S
C3489 H3512 0.950 . S
C3490 C3489 1.349 . S
C3490 C3502 1.349 . S
C3491 C3489 1.327 . S
C3491 C3507 1.429 . S
C3491 H3513 0.950 . S
C3492 H3488 0.949 . S
C3492 C3500 1.574 . S
C3492 C3508 1.368 . S
H3493 C3501 0.950 1_545 S
H3494 C3499 0.950 . S
H3495 C3500 0.949 . S
H3496 C3502 0.950 . S
H3497 C3503 0.950 . S
H3498 C3504 0.949 . S
C3499 H3494 0.950 . S
C3499 C3501 1.327 . S
C3499 C3505 1.429 . S
C3500 C3492 1.574 . S
C3500 H3495 0.949 . S
C3500 C3506 1.368 . S
C3501 C3485 1.349 . S
C3501 H3493 0.950 1_565 S
C3501 C3499 1.327 . S
C3502 C3490 1.349 . S
C3502 H3496 0.950 . S
C3502 C3503 1.327 . S
C3503 H3497 0.950 . S
C3503 C3502 1.327 . S
C3503 C3507 1.429 . S
C3504 C3487 1.574 . S
C3504 H3498 0.949 . S
C3504 C3508 1.368 . S
C3505 C3486 1.429 . S
C3505 C3499 1.429 . S
C3505 C3506 1.523 . S
C3506 C3487 1.368 . S
C3506 C3500 1.368 . S
C3506 C3505 1.523 . S
C3507 C3491 1.429 . S
C3507 C3503 1.429 . S
C3507 C3508 1.523 . S
C3508 C3492 1.368 . S
C3508 C3504 1.368 . S
C3508 C3507 1.523 . S
H3509 C3484 0.950 . S
H3510 C3486 0.950 . S
H3511 C3487 0.949 . S
H3512 C3489 0.950 . S
H3513 C3491 0.950 . S
C3514 C3515 1.349 . S
C3514 C3516 1.327 . S
C3514 H3539 0.950 . S
C3515 C3514 1.349 . S
C3515 C3531 1.349 1_554 S
C3516 C3514 1.327 . S
C3516 C3535 1.429 . S
C3516 H3540 0.950 . S
C3517 C3534 1.576 1_556 S
C3517 C3536 1.368 1_556 S
C3517 H3541 0.949 . S
H3518 C3522 0.949 . S
C3519 C3520 1.349 . S
C3519 C3521 1.327 . S
C3519 H3542 0.936 1_554 S
C3520 C3519 1.349 . S
C3520 C3532 1.349 . S
C3521 C3519 1.327 . S
C3521 C3537 1.429 1_545 S
C3521 H3543 0.950 1_554 S
C3522 H3518 0.949 . S
C3522 C3530 1.574 . S
C3522 C3538 1.368 . S
H3523 C3531 0.950 . S
H3524 C3529 0.950 . S
H3525 C3530 0.949 . S
H3526 C3532 0.950 . S
H3527 C3533 0.950 . S
H3528 C3534 0.923 1_556 S
C3529 H3524 0.950 . S
C3529 C3531 1.327 . S
C3529 C3535 1.429 1_556 S
C3530 C3522 1.574 . S
C3530 H3525 0.949 . S
C3530 C3536 1.368 . S
C3531 C3515 1.349 1_556 S
C3531 H3523 0.950 . S
C3531 C3529 1.327 . S
C3532 C3520 1.349 . S
C3532 H3526 0.950 . S
C3532 C3533 1.327 1_545 S
C3533 H3527 0.950 . S
C3533 C3532 1.327 1_565 S
C3533 C3537 1.429 . S
C3534 C3517 1.576 1_554 S
C3534 H3528 0.923 1_554 S
C3534 C3538 1.396 . S
C3535 C3516 1.429 . S
C3535 C3529 1.429 1_554 S
C3535 C3536 1.523 . S
C3536 C3517 1.368 1_554 S
C3536 C3530 1.368 . S
C3536 C3535 1.523 . S
C3537 C3521 1.429 1_565 S
C3537 C3533 1.429 . S
C3537 C3538 1.523 . S
C3538 C3522 1.368 . S
C3538 C3534 1.396 . S
C3538 C3537 1.523 . S
H3539 C3514 0.950 . S
H3540 C3516 0.950 . S
H3541 C3517 0.949 . S
H3542 C3519 0.936 1_556 S
H3543 C3521 0.950 1_556 S
C3544 C3545 1.349 . S
C3544 C3546 1.327 . S
C3544 H3569 0.950 . S
C3545 C3544 1.349 . S
C3545 C3561 1.349 . S
C3546 C3544 1.327 . S
C3546 C3565 1.429 . S
C3546 H3570 0.950 . S
C3547 C3564 1.574 . S
C3547 C3566 1.368 . S
C3547 H3571 0.949 . S
H3548 C3552 0.949 . S
C3549 C3550 1.349 . S
C3549 C3551 1.327 . S
C3549 H3572 0.950 . S
C3550 C3549 1.349 . S
C3550 C3562 1.349 . S
C3551 C3549 1.327 . S
C3551 C3567 1.429 . S
C3551 H3573 0.950 . S
C3552 H3548 0.949 . S
C3552 C3560 1.574 . S
C3552 C3568 1.368 . S
H3553 C3561 0.950 . S
H3554 C3559 0.950 . S
H3555 C3560 0.949 . S
H3556 C3562 0.950 . S
H3557 C3563 0.950 . S
H3558 C3564 0.949 . S
C3559 H3554 0.950 . S
C3559 C3561 1.327 . S
C3559 C3565 1.429 . S
C3560 C3552 1.574 . S
C3560 H3555 0.949 . S
C3560 C3566 1.368 . S
C3561 C3545 1.349 . S
C3561 H3553 0.950 . S
C3561 C3559 1.327 . S
C3562 C3550 1.349 . S
C3562 H3556 0.950 . S
C3562 C3563 1.327 . S
C3563 H3557 0.950 . S
C3563 C3562 1.327 . S
C3563 C3567 1.429 . S
C3564 C3547 1.574 . S
C3564 H3558 0.949 . S
C3564 C3568 1.368 . S
C3565 C3546 1.429 . S
C3565 C3559 1.429 . S
C3565 C3566 1.523 . S
C3566 C3547 1.368 . S
C3566 C3560 1.368 . S
C3566 C3565 1.523 . S
C3567 C3551 1.429 . S
C3567 C3563 1.429 . S
C3567 C3568 1.523 . S
C3568 C3552 1.368 . S
C3568 C3564 1.368 . S
C3568 C3567 1.523 . S
H3569 C3544 0.950 . S
H3570 C3546 0.950 . S
H3571 C3547 0.949 . S
H3572 C3549 0.950 . S
H3573 C3551 0.950 . S
C3574 C3575 1.349 . S
C3574 C3576 1.327 . S
C3574 H3599 0.950 . S
C3575 C3574 1.349 . S
C3575 C3591 1.349 . S
C3576 C3574 1.327 . S
C3576 C3595 1.429 . S
C3576 H3600 0.950 . S
C3577 C3594 1.574 . S
C3577 C3596 1.368 . S
C3577 H3601 0.949 . S
H3578 C3582 0.949 . S
C3579 C3580 1.349 . S
C3579 C3581 1.327 . S
C3579 H3602 0.950 . S
C3580 C3579 1.349 . S
C3580 C3592 1.349 . S
C3581 C3579 1.327 . S
C3581 C3597 1.429 . S
C3581 H3603 0.950 . S
C3582 H3578 0.949 . S
C3582 C3590 1.574 . S
C3582 C3598 1.368 . S
H3583 C3591 0.962 . S
H3584 C3589 0.950 . S
H3585 C3590 0.949 . S
H3586 C3592 0.950 . S
H3587 C3593 0.950 . S
H3588 C3594 0.949 . S
C3589 H3584 0.950 . S
C3589 C3591 1.327 . S
C3589 C3595 1.429 . S
C3590 C3582 1.574 . S
C3590 H3585 0.949 . S
C3590 C3596 1.368 . S
C3591 C3575 1.349 . S
C3591 H3583 0.962 . S
C3591 C3589 1.327 . S
C3592 C3580 1.349 . S
C3592 H3586 0.950 . S
C3592 C3593 1.327 . S
C3593 H3587 0.950 . S
C3593 C3592 1.327 . S
C3593 C3597 1.429 . S
C3594 C3577 1.574 . S
C3594 H3588 0.949 . S
C3594 C3598 1.368 . S
C3595 C3576 1.429 . S
C3595 C3589 1.429 . S
C3595 C3596 1.523 . S
C3596 C3577 1.368 . S
C3596 C3590 1.368 . S
C3596 C3595 1.523 . S
C3597 C3581 1.429 . S
C3597 C3593 1.429 . S
C3597 C3598 1.523 . S
C3598 C3582 1.368 . S
C3598 C3594 1.368 . S
C3598 C3597 1.523 . S
H3599 C3574 0.950 . S
H3600 C3576 0.950 . S
H3601 C3577 0.949 . S
H3602 C3579 0.950 . S
H3603 C3581 0.950 . S
C3604 C3605 1.349 . S
C3604 C3606 1.327 . S
C3604 H3629 0.950 . S
C3605 C3604 1.349 . S
C3605 C3621 1.349 . S
C3606 C3604 1.327 . S
C3606 C3625 1.429 . S
C3606 H3630 0.950 . S
C3607 C3624 1.574 . S
C3607 C3626 1.368 . S
C3607 H3631 0.949 . S
H3608 C3612 0.949 . S
C3609 C3610 1.349 . S
C3609 C3611 1.327 . S
C3609 H3632 0.950 . S
C3610 C3609 1.349 . S
C3610 C3622 1.349 . S
C3611 C3609 1.327 . S
C3611 C3627 1.429 . S
C3611 H3633 0.950 . S
C3612 H3608 0.949 . S
C3612 C3620 1.574 . S
C3612 C3628 1.368 . S
H3613 C3621 0.950 . S
H3614 C3619 0.950 . S
H3615 C3620 0.949 . S
H3616 C3622 0.950 . S
H3617 C3623 0.950 . S
H3618 C3624 0.949 . S
C3619 H3614 0.950 . S
C3619 C3621 1.327 . S
C3619 C3625 1.429 . S
C3620 C3612 1.574 . S
C3620 H3615 0.949 . S
C3620 C3626 1.368 . S
C3621 C3605 1.349 . S
C3621 H3613 0.950 . S
C3621 C3619 1.327 . S
C3622 C3610 1.349 . S
C3622 H3616 0.950 . S
C3622 C3623 1.327 . S
C3623 H3617 0.950 . S
C3623 C3622 1.327 . S
C3623 C3627 1.429 . S
C3624 C3607 1.574 . S
C3624 H3618 0.949 . S
C3624 C3628 1.368 . S
C3625 C3606 1.429 . S
C3625 C3619 1.429 . S
C3625 C3626 1.523 . S
C3626 C3607 1.368 . S
C3626 C3620 1.368 . S
C3626 C3625 1.523 . S
C3627 C3611 1.429 . S
C3627 C3623 1.429 . S
C3627 C3628 1.523 . S
C3628 C3612 1.368 . S
C3628 C3624 1.368 . S
C3628 C3627 1.523 . S
H3629 C3604 0.950 . S
H3630 C3606 0.950 . S
H3631 C3607 0.949 . S
H3632 C3609 0.950 . S
H3633 C3611 0.950 . S
C3634 C3635 1.349 . S
C3634 C3636 1.327 . S
C3634 H3659 0.950 . S
C3635 C3634 1.349 . S
C3635 C3651 1.349 . S
C3636 C3634 1.327 . S
C3636 C3655 1.429 . S
C3636 H3660 0.950 . S
C3637 C3654 1.574 . S
C3637 C3656 1.368 . S
C3637 H3661 0.949 . S
H3638 C3642 0.949 . S
C3639 C3640 1.349 . S
C3639 C3641 1.327 . S
C3639 H3662 0.950 . S
C3640 C3639 1.349 . S
C3640 C3652 1.349 . S
C3641 C3639 1.327 . S
C3641 C3657 1.429 . S
C3641 H3663 0.950 . S
C3642 H3638 0.949 . S
C3642 C3650 1.574 . S
C3642 C3658 1.368 . S
H3643 C3651 0.950 . S
H3644 C3649 0.950 . S
H3645 C3650 0.949 . S
H3646 C3652 0.950 . S
H3647 C3653 0.950 . S
H3648 C3654 0.949 . S
C3649 H3644 0.950 . S
C3649 C3651 1.327 . S
C3649 C3655 1.429 . S
C3650 C3642 1.574 . S
C3650 H3645 0.949 . S
C3650 C3656 1.368 . S
C3651 C3635 1.349 . S
C3651 H3643 0.950 . S
C3651 C3649 1.327 . S
C3652 C3640 1.349 . S
C3652 H3646 0.950 . S
C3652 C3653 1.327 . S
C3653 H3647 0.950 . S
C3653 C3652 1.327 . S
C3653 C3657 1.429 . S
C3654 C3637 1.574 . S
C3654 H3648 0.949 . S
C3654 C3658 1.368 . S
C3655 C3636 1.429 . S
C3655 C3649 1.429 . S
C3655 C3656 1.523 . S
C3656 C3637 1.368 . S
C3656 C3650 1.368 . S
C3656 C3655 1.523 . S
C3657 C3641 1.429 . S
C3657 C3653 1.429 . S
C3657 C3658 1.523 . S
C3658 C3642 1.368 . S
C3658 C3654 1.368 . S
C3658 C3657 1.523 . S
H3659 C3634 0.950 . S
H3660 C3636 0.950 . S
H3661 C3637 0.949 . S
H3662 C3639 0.950 . S
H3663 C3641 0.950 . S
C3664 C3665 1.349 . S
C3664 C3666 1.327 . S
C3664 H3689 0.950 . S
C3665 C3664 1.349 . S
C3665 C3681 1.349 . S
C3666 C3664 1.327 . S
C3666 C3685 1.429 . S
C3666 H3690 0.950 . S
C3667 C3684 1.574 . S
C3667 C3686 1.368 . S
C3667 H3691 0.949 . S
H3668 C3672 0.949 . S
C3669 C3670 1.349 . S
C3669 C3671 1.327 . S
C3669 H3692 0.950 . S
C3670 C3669 1.349 . S
C3670 C3682 1.349 . S
C3671 C3669 1.327 . S
C3671 C3687 1.429 . S
C3671 H3693 0.950 . S
C3672 H3668 0.949 . S
C3672 C3680 1.574 . S
C3672 C3688 1.368 . S
H3673 C3681 0.950 . S
H3674 C3679 0.950 . S
H3675 C3680 0.949 . S
H3676 C3682 0.950 . S
H3677 C3683 0.950 . S
H3678 C3684 0.949 . S
C3679 H3674 0.950 . S
C3679 C3681 1.327 . S
C3679 C3685 1.429 . S
C3680 C3672 1.574 . S
C3680 H3675 0.949 . S
C3680 C3686 1.368 . S
C3681 C3665 1.349 . S
C3681 H3673 0.950 . S
C3681 C3679 1.327 . S
C3682 C3670 1.349 . S
C3682 H3676 0.950 . S
C3682 C3683 1.327 . S
C3683 H3677 0.950 . S
C3683 C3682 1.327 . S
C3683 C3687 1.429 . S
C3684 C3667 1.574 . S
C3684 H3678 0.949 . S
C3684 C3688 1.368 . S
C3685 C3666 1.429 . S
C3685 C3679 1.429 . S
C3685 C3686 1.523 . S
C3686 C3667 1.368 . S
C3686 C3680 1.368 . S
C3686 C3685 1.523 . S
C3687 C3671 1.429 . S
C3687 C3683 1.429 . S
C3687 C3688 1.523 . S
C3688 C3672 1.368 . S
C3688 C3684 1.368 . S
C3688 C3687 1.523 . S
H3689 C3664 0.950 . S
H3690 C3666 0.950 . S
H3691 C3667 0.949 . S
H3692 C3669 0.950 . S
H3693 C3671 0.950 . S
C3694 C3695 1.349 . S
C3694 C3696 1.327 . S
C3694 H3719 0.950 . S
C3695 C3694 1.349 . S
C3695 C3711 1.349 . S
C3696 C3694 1.327 . S
C3696 C3715 1.429 . S
C3696 H3720 0.950 . S
C3697 C3714 1.574 . S
C3697 C3716 1.368 . S
C3697 H3721 0.949 . S
H3698 C3702 0.949 . S
C3699 C3700 1.349 . S
C3699 C3701 1.327 . S
C3699 H3722 0.950 . S
C3700 C3699 1.349 . S
C3700 C3712 1.349 . S
C3701 C3699 1.327 . S
C3701 C3717 1.429 . S
C3701 H3723 0.950 . S
C3702 H3698 0.949 . S
C3702 C3710 1.574 . S
C3702 C3718 1.368 . S
H3703 C3711 0.950 . S
H3704 C3709 0.950 . S
H3705 C3710 0.949 . S
H3706 C3712 0.950 . S
H3707 C3713 0.950 . S
H3708 C3714 0.949 . S
C3709 H3704 0.950 . S
C3709 C3711 1.327 . S
C3709 C3715 1.429 . S
C3710 C3702 1.574 . S
C3710 H3705 0.949 . S
C3710 C3716 1.368 . S
C3711 C3695 1.349 . S
C3711 H3703 0.950 . S
C3711 C3709 1.327 . S
C3712 C3700 1.349 . S
C3712 H3706 0.950 . S
C3712 C3713 1.327 . S
C3713 H3707 0.950 . S
C3713 C3712 1.327 . S
C3713 C3717 1.429 . S
C3714 C3697 1.574 . S
C3714 H3708 0.949 . S
C3714 C3718 1.368 . S
C3715 C3696 1.429 . S
C3715 C3709 1.429 . S
C3715 C3716 1.523 . S
C3716 C3697 1.368 . S
C3716 C3710 1.368 . S
C3716 C3715 1.523 . S
C3717 C3701 1.429 . S
C3717 C3713 1.429 . S
C3717 C3718 1.523 . S
C3718 C3702 1.368 . S
C3718 C3714 1.368 . S
C3718 C3717 1.523 . S
H3719 C3694 0.950 . S
H3720 C3696 0.950 . S
H3721 C3697 0.949 . S
H3722 C3699 0.950 . S
H3723 C3701 0.950 . S
C3724 C3725 1.349 . S
C3724 C3726 1.327 . S
C3724 H3749 0.950 . S
C3725 C3724 1.349 . S
C3725 C3741 1.349 . S
C3726 C3724 1.327 . S
C3726 C3745 1.429 . S
C3726 H3750 0.950 . S
C3727 C3744 1.574 . S
C3727 C3746 1.368 . S
C3727 H3751 0.949 . S
H3728 C3732 0.949 . S
C3729 C3730 1.349 . S
C3729 C3731 1.327 . S
C3729 H3752 0.950 . S
C3730 C3729 1.349 . S
C3730 C3742 1.349 . S
C3731 C3729 1.327 . S
C3731 C3747 1.429 . S
C3731 H3753 0.950 . S
C3732 H3728 0.949 . S
C3732 C3740 1.574 . S
C3732 C3748 1.368 . S
H3733 C3741 0.950 . S
H3734 C3739 0.950 . S
H3735 C3740 0.949 . S
H3736 C3742 0.950 . S
H3737 C3743 0.950 . S
H3738 C3744 0.949 . S
C3739 H3734 0.950 . S
C3739 C3741 1.327 . S
C3739 C3745 1.429 . S
C3740 C3732 1.574 . S
C3740 H3735 0.949 . S
C3740 C3746 1.368 . S
C3741 C3725 1.349 . S
C3741 H3733 0.950 . S
C3741 C3739 1.327 . S
C3742 C3730 1.349 . S
C3742 H3736 0.950 . S
C3742 C3743 1.327 . S
C3743 H3737 0.950 . S
C3743 C3742 1.327 . S
C3743 C3747 1.429 . S
C3744 C3727 1.574 . S
C3744 H3738 0.949 . S
C3744 C3748 1.368 . S
C3745 C3726 1.429 . S
C3745 C3739 1.429 . S
C3745 C3746 1.523 . S
C3746 C3727 1.368 . S
C3746 C3740 1.368 . S
C3746 C3745 1.523 . S
C3747 C3731 1.429 . S
C3747 C3743 1.429 . S
C3747 C3748 1.523 . S
C3748 C3732 1.368 . S
C3748 C3744 1.368 . S
C3748 C3747 1.523 . S
H3749 C3724 0.950 . S
H3750 C3726 0.950 . S
H3751 C3727 0.949 . S
H3752 C3729 0.950 . S
H3753 C3731 0.950 . S
C3754 C3755 1.349 . S
C3754 C3756 1.327 . S
C3754 H3779 0.950 . S
C3755 C3754 1.349 . S
C3755 C3771 1.349 . S
C3756 C3754 1.327 . S
C3756 C3775 1.429 . S
C3756 H3780 0.950 . S
C3757 C3774 1.574 . S
C3757 C3776 1.368 . S
C3757 H3781 0.949 . S
H3758 C3762 0.949 . S
C3759 C3760 1.349 . S
C3759 C3761 1.327 . S
C3759 H3782 0.950 . S
C3760 C3759 1.349 . S
C3760 C3772 1.349 . S
C3761 C3759 1.327 . S
C3761 C3777 1.429 . S
C3761 H3783 0.950 . S
C3762 H3758 0.949 . S
C3762 C3770 1.574 . S
C3762 C3778 1.368 . S
H3763 C3771 0.950 . S
H3764 C3769 0.950 . S
H3765 C3770 0.949 . S
H3766 C3772 0.950 . S
H3767 C3773 0.950 . S
H3768 C3774 0.949 . S
C3769 H3764 0.950 . S
C3769 C3771 1.327 . S
C3769 C3775 1.429 . S
C3770 C3762 1.574 . S
C3770 H3765 0.949 . S
C3770 C3776 1.368 . S
C3771 C3755 1.349 . S
C3771 H3763 0.950 . S
C3771 C3769 1.327 . S
C3772 C3760 1.349 . S
C3772 H3766 0.950 . S
C3772 C3773 1.327 . S
C3773 H3767 0.950 . S
C3773 C3772 1.327 . S
C3773 C3777 1.429 . S
C3774 C3757 1.574 . S
C3774 H3768 0.949 . S
C3774 C3778 1.368 . S
C3775 C3756 1.429 . S
C3775 C3769 1.429 . S
C3775 C3776 1.523 . S
C3776 C3757 1.368 . S
C3776 C3770 1.368 . S
C3776 C3775 1.523 . S
C3777 C3761 1.429 . S
C3777 C3773 1.429 . S
C3777 C3778 1.523 . S
C3778 C3762 1.368 . S
C3778 C3774 1.368 . S
C3778 C3777 1.523 . S
H3779 C3754 0.950 . S
H3780 C3756 0.950 . S
H3781 C3757 0.949 . S
H3782 C3759 0.950 . S
H3783 C3761 0.950 . S
C3784 C3785 1.349 . S
C3784 C3786 1.327 . S
C3784 H3809 0.950 . S
C3785 C3784 1.349 . S
C3785 C3801 1.349 . S
C3786 C3784 1.327 . S
C3786 C3805 1.429 . S
C3786 H3810 0.950 . S
C3787 C3804 1.574 . S
C3787 C3806 1.368 . S
C3787 H3811 0.949 . S
H3788 C3792 0.949 . S
C3789 C3790 1.349 . S
C3789 C3791 1.327 . S
C3789 H3812 0.950 . S
C3790 C3789 1.349 . S
C3790 C3802 1.349 . S
C3791 C3789 1.327 . S
C3791 C3807 1.429 . S
C3791 H3813 0.950 . S
C3792 H3788 0.949 . S
C3792 C3800 1.574 . S
C3792 C3808 1.368 . S
H3793 C3801 0.950 . S
H3794 C3799 0.950 . S
H3795 C3800 0.949 . S
H3796 C3802 0.950 . S
H3797 C3803 0.950 . S
H3798 C3804 0.949 . S
C3799 H3794 0.950 . S
C3799 C3801 1.327 . S
C3799 C3805 1.429 . S
C3800 C3792 1.574 . S
C3800 H3795 0.949 . S
C3800 C3806 1.368 . S
C3801 C3785 1.349 . S
C3801 H3793 0.950 . S
C3801 C3799 1.327 . S
C3802 C3790 1.349 . S
C3802 H3796 0.950 . S
C3802 C3803 1.327 . S
C3803 H3797 0.950 . S
C3803 C3802 1.327 . S
C3803 C3807 1.429 . S
C3804 C3787 1.574 . S
C3804 H3798 0.949 . S
C3804 C3808 1.368 . S
C3805 C3786 1.429 . S
C3805 C3799 1.429 . S
C3805 C3806 1.523 . S
C3806 C3787 1.368 . S
C3806 C3800 1.368 . S
C3806 C3805 1.523 . S
C3807 C3791 1.429 . S
C3807 C3803 1.429 . S
C3807 C3808 1.523 . S
C3808 C3792 1.368 . S
C3808 C3804 1.368 . S
C3808 C3807 1.523 . S
H3809 C3784 0.950 . S
H3810 C3786 0.950 . S
H3811 C3787 0.949 . S
H3812 C3789 0.950 . S
H3813 C3791 0.950 . S
C3814 C3815 1.349 . S
C3814 C3816 1.327 . S
C3814 H3839 0.950 . S
C3815 C3814 1.349 . S
C3815 C3831 1.349 . S
C3816 C3814 1.327 . S
C3816 C3835 1.429 . S
C3816 H3840 0.950 . S
C3817 C3834 1.574 . S
C3817 C3836 1.368 . S
C3817 H3841 0.949 . S
H3818 C3822 0.949 . S
C3819 C3820 1.349 . S
C3819 C3821 1.327 . S
C3819 H3842 0.950 . S
C3820 C3819 1.349 . S
C3820 C3832 1.349 . S
C3821 C3819 1.327 . S
C3821 C3837 1.429 . S
C3821 H3843 0.950 . S
C3822 H3818 0.949 . S
C3822 C3830 1.574 . S
C3822 C3838 1.368 . S
H3823 C3831 0.950 . S
H3824 C3829 0.950 . S
H3825 C3830 0.949 . S
H3826 C3832 0.950 . S
H3827 C3833 0.950 . S
H3828 C3834 0.949 . S
C3829 H3824 0.950 . S
C3829 C3831 1.327 . S
C3829 C3835 1.429 . S
C3830 C3822 1.574 . S
C3830 H3825 0.949 . S
C3830 C3836 1.368 . S
C3831 C3815 1.349 . S
C3831 H3823 0.950 . S
C3831 C3829 1.327 . S
C3832 C3820 1.349 . S
C3832 H3826 0.950 . S
C3832 C3833 1.327 . S
C3833 H3827 0.950 . S
C3833 C3832 1.327 . S
C3833 C3837 1.429 . S
C3834 C3817 1.574 . S
C3834 H3828 0.949 . S
C3834 C3838 1.368 . S
C3835 C3816 1.429 . S
C3835 C3829 1.429 . S
C3835 C3836 1.523 . S
C3836 C3817 1.368 . S
C3836 C3830 1.368 . S
C3836 C3835 1.523 . S
C3837 C3821 1.429 . S
C3837 C3833 1.429 . S
C3837 C3838 1.523 . S
C3838 C3822 1.368 . S
C3838 C3834 1.368 . S
C3838 C3837 1.523 . S
H3839 C3814 0.950 . S
H3840 C3816 0.950 . S
H3841 C3817 0.949 . S
H3842 C3819 0.950 . S
H3843 C3821 0.950 . S
C3844 C3845 1.349 . S
C3844 C3846 1.327 . S
C3844 H3869 0.950 . S
C3845 C3844 1.349 . S
C3845 C3861 1.349 . S
C3846 C3844 1.327 . S
C3846 C3865 1.429 . S
C3846 H3870 0.950 . S
C3847 C3864 1.574 . S
C3847 C3866 1.368 . S
C3847 H3871 0.949 . S
H3848 C3852 0.949 . S
C3849 C3850 1.349 . S
C3849 C3851 1.327 . S
C3849 H3872 0.950 . S
C3850 C3849 1.349 . S
C3850 C3862 1.349 . S
C3851 C3849 1.327 . S
C3851 C3867 1.429 . S
C3851 H3873 0.950 . S
C3852 H3848 0.949 . S
C3852 C3860 1.574 . S
C3852 C3868 1.368 . S
H3853 C3861 0.950 . S
H3854 C3859 0.950 . S
H3855 C3860 0.949 . S
H3856 C3862 0.950 . S
H3857 C3863 0.950 . S
H3858 C3864 0.949 . S
C3859 H3854 0.950 . S
C3859 C3861 1.327 . S
C3859 C3865 1.429 . S
C3860 C3852 1.574 . S
C3860 H3855 0.949 . S
C3860 C3866 1.368 . S
C3861 C3845 1.349 . S
C3861 H3853 0.950 . S
C3861 C3859 1.327 . S
C3862 C3850 1.349 . S
C3862 H3856 0.950 . S
C3862 C3863 1.327 . S
C3863 H3857 0.950 . S
C3863 C3862 1.327 . S
C3863 C3867 1.429 . S
C3864 C3847 1.574 . S
C3864 H3858 0.949 . S
C3864 C3868 1.368 . S
C3865 C3846 1.429 . S
C3865 C3859 1.429 . S
C3865 C3866 1.523 . S
C3866 C3847 1.368 . S
C3866 C3860 1.368 . S
C3866 C3865 1.523 . S
C3867 C3851 1.429 . S
C3867 C3863 1.429 . S
C3867 C3868 1.523 . S
C3868 C3852 1.368 . S
C3868 C3864 1.368 . S
C3868 C3867 1.523 . S
H3869 C3844 0.950 . S
H3870 C3846 0.950 . S
H3871 C3847 0.949 . S
H3872 C3849 0.950 . S
H3873 C3851 0.950 . S
C3874 C3875 1.349 . S
C3874 C3876 1.327 . S
C3874 H3899 0.950 . S
C3875 C3874 1.349 . S
C3875 C3891 1.349 . S
C3876 C3874 1.327 . S
C3876 C3895 1.429 . S
C3876 H3900 0.950 . S
C3877 C3894 1.574 . S
C3877 C3896 1.368 . S
C3877 H3901 0.949 . S
H3878 C3882 0.949 . S
C3879 C3880 1.349 . S
C3879 C3881 1.327 . S
C3879 H3902 0.950 . S
C3880 C3879 1.349 . S
C3880 C3892 1.349 . S
C3881 C3879 1.327 . S
C3881 C3897 1.429 . S
C3881 H3903 0.950 . S
C3882 H3878 0.949 . S
C3882 C3890 1.574 . S
C3882 C3898 1.368 . S
H3883 C3891 0.950 . S
H3884 C3889 0.950 . S
H3885 C3890 0.949 . S
H3886 C3892 0.950 . S
H3887 C3893 0.950 . S
H3888 C3894 0.949 . S
C3889 H3884 0.950 . S
C3889 C3891 1.327 . S
C3889 C3895 1.429 . S
C3890 C3882 1.574 . S
C3890 H3885 0.949 . S
C3890 C3896 1.368 . S
C3891 C3875 1.349 . S
C3891 H3883 0.950 . S
C3891 C3889 1.327 . S
C3892 C3880 1.349 . S
C3892 H3886 0.950 . S
C3892 C3893 1.327 . S
C3893 H3887 0.950 . S
C3893 C3892 1.327 . S
C3893 C3897 1.429 . S
C3894 C3877 1.574 . S
C3894 H3888 0.949 . S
C3894 C3898 1.368 . S
C3895 C3876 1.429 . S
C3895 C3889 1.429 . S
C3895 C3896 1.523 . S
C3896 C3877 1.368 . S
C3896 C3890 1.368 . S
C3896 C3895 1.523 . S
C3897 C3881 1.429 . S
C3897 C3893 1.429 . S
C3897 C3898 1.523 . S
C3898 C3882 1.368 . S
C3898 C3894 1.368 . S
C3898 C3897 1.523 . S
H3899 C3874 0.950 . S
H3900 C3876 0.950 . S
H3901 C3877 0.949 . S
H3902 C3879 0.950 . S
H3903 C3881 0.950 . S
C3904 C3905 1.349 . S
C3904 C3906 1.327 . S
C3904 H3929 0.950 . S
C3905 C3904 1.349 . S
C3905 C3921 1.349 . S
C3906 C3904 1.327 . S
C3906 C3925 1.429 . S
C3906 H3930 0.950 . S
C3907 C3924 1.574 . S
C3907 C3926 1.368 . S
C3907 H3931 0.949 . S
H3908 C3912 0.949 . S
C3909 C3910 1.349 . S
C3909 C3911 1.327 . S
C3909 H3932 0.950 . S
C3910 C3909 1.349 . S
C3910 C3922 1.349 . S
C3911 C3909 1.327 . S
C3911 C3927 1.429 . S
C3911 H3933 0.950 . S
C3912 H3908 0.949 . S
C3912 C3920 1.574 . S
C3912 C3928 1.368 . S
H3913 C3921 0.950 . S
H3914 C3919 0.950 . S
H3915 C3920 0.949 . S
H3916 C3922 0.950 . S
H3917 C3923 0.950 . S
H3918 C3924 0.949 . S
C3919 H3914 0.950 . S
C3919 C3921 1.327 . S
C3919 C3925 1.429 . S
C3920 C3912 1.574 . S
C3920 H3915 0.949 . S
C3920 C3926 1.368 . S
C3921 C3905 1.349 . S
C3921 H3913 0.950 . S
C3921 C3919 1.327 . S
C3922 C3910 1.349 . S
C3922 H3916 0.950 . S
C3922 C3923 1.327 . S
C3923 H3917 0.950 . S
C3923 C3922 1.327 . S
C3923 C3927 1.429 . S
C3924 C3907 1.574 . S
C3924 H3918 0.949 . S
C3924 C3928 1.368 . S
C3925 C3906 1.429 . S
C3925 C3919 1.429 . S
C3925 C3926 1.523 . S
C3926 C3907 1.368 . S
C3926 C3920 1.368 . S
C3926 C3925 1.523 . S
C3927 C3911 1.429 . S
C3927 C3923 1.429 . S
C3927 C3928 1.523 . S
C3928 C3912 1.368 . S
C3928 C3924 1.368 . S
C3928 C3927 1.523 . S
H3929 C3904 0.950 . S
H3930 C3906 0.950 . S
H3931 C3907 0.949 . S
H3932 C3909 0.950 . S
H3933 C3911 0.950 . S
C3934 C3935 1.349 . S
C3934 C3936 1.327 . S
C3934 H3959 0.950 . S
C3935 C3934 1.349 . S
C3935 C3951 1.349 . S
C3936 C3934 1.327 . S
C3936 C3955 1.429 . S
C3936 H3960 0.950 . S
C3937 C3954 1.574 . S
C3937 C3956 1.368 . S
C3937 H3961 0.949 . S
H3938 C3942 0.949 . S
C3939 C3940 1.349 . S
C3939 C3941 1.327 . S
C3939 H3962 0.950 . S
C3940 C3939 1.349 . S
C3940 C3952 1.349 . S
C3941 C3939 1.327 . S
C3941 C3957 1.429 . S
C3941 H3963 0.950 . S
C3942 H3938 0.949 . S
C3942 C3950 1.574 . S
C3942 C3958 1.368 . S
H3943 C3951 0.950 . S
H3944 C3949 0.950 . S
H3945 C3950 0.949 . S
H3946 C3952 0.950 . S
H3947 C3953 0.950 . S
H3948 C3954 0.949 . S
C3949 H3944 0.950 . S
C3949 C3951 1.327 . S
C3949 C3955 1.429 . S
C3950 C3942 1.574 . S
C3950 H3945 0.949 . S
C3950 C3956 1.368 . S
C3951 C3935 1.349 . S
C3951 H3943 0.950 . S
C3951 C3949 1.327 . S
C3952 C3940 1.349 . S
C3952 H3946 0.950 . S
C3952 C3953 1.327 . S
C3953 H3947 0.950 . S
C3953 C3952 1.327 . S
C3953 C3957 1.429 . S
C3954 C3937 1.574 . S
C3954 H3948 0.949 . S
C3954 C3958 1.368 . S
C3955 C3936 1.429 . S
C3955 C3949 1.429 . S
C3955 C3956 1.523 . S
C3956 C3937 1.368 . S
C3956 C3950 1.368 . S
C3956 C3955 1.523 . S
C3957 C3941 1.429 . S
C3957 C3953 1.429 . S
C3957 C3958 1.523 . S
C3958 C3942 1.368 . S
C3958 C3954 1.368 . S
C3958 C3957 1.523 . S
H3959 C3934 0.950 . S
H3960 C3936 0.950 . S
H3961 C3937 0.949 . S
H3962 C3939 0.950 . S
H3963 C3941 0.950 . S
C3964 C3965 1.349 . S
C3964 C3966 1.327 . S
C3964 H3989 0.950 . S
C3965 C3964 1.349 . S
C3965 C3981 1.349 . S
C3966 C3964 1.327 . S
C3966 C3985 1.429 . S
C3966 H3990 0.950 . S
C3967 C3984 1.574 . S
C3967 C3986 1.368 . S
C3967 H3991 0.949 . S
H3968 C3972 0.949 . S
C3969 C3970 1.349 1_655 S
C3969 C3971 1.327 . S
C3969 H3992 0.950 . S
C3970 C3969 1.349 1_455 S
C3970 C3982 1.349 . S
C3971 C3969 1.327 . S
C3971 C3987 1.429 . S
C3971 H3993 0.950 . S
C3972 H3968 0.949 . S
C3972 C3980 1.574 . S
C3972 C3988 1.368 . S
H3973 C3981 0.950 . S
H3974 C3979 0.950 . S
H3975 C3980 0.949 . S
H3976 C3982 0.950 . S
H3977 C3983 0.950 . S
H3978 C3984 0.949 . S
C3979 H3974 0.950 . S
C3979 C3981 1.327 . S
C3979 C3985 1.429 . S
C3980 C3972 1.574 . S
C3980 H3975 0.949 . S
C3980 C3986 1.368 . S
C3981 C3965 1.349 . S
C3981 H3973 0.950 . S
C3981 C3979 1.327 . S
C3982 C3970 1.349 . S
C3982 H3976 0.950 . S
C3982 C3983 1.327 1_455 S
C3983 H3977 0.950 . S
C3983 C3982 1.327 1_655 S
C3983 C3987 1.429 . S
C3984 C3967 1.574 . S
C3984 H3978 0.949 . S
C3984 C3988 1.368 . S
C3985 C3966 1.429 . S
C3985 C3979 1.429 . S
C3985 C3986 1.523 . S
C3986 C3967 1.368 . S
C3986 C3980 1.368 . S
C3986 C3985 1.523 . S
C3987 C3971 1.429 . S
C3987 C3983 1.429 . S
C3987 C3988 1.523 . S
C3988 C3972 1.368 . S
C3988 C3984 1.368 . S
C3988 C3987 1.523 . S
H3989 C3964 0.950 . S
H3990 C3966 0.950 . S
H3991 C3967 0.949 . S
H3992 C3969 0.950 . S
H3993 C3971 0.950 . S
C3994 C3995 1.349 . S
C3994 C3996 1.327 . S
C3994 H4019 0.950 . S
C3995 C3994 1.349 . S
C3995 C4011 1.349 . S
C3996 C3994 1.327 . S
C3996 C4015 1.429 . S
C3996 H4020 0.950 . S
C3997 C4014 1.574 . S
C3997 C4016 1.368 . S
C3997 H4021 0.949 . S
H3998 C4002 0.949 . S
C3999 C4000 1.349 . S
C3999 C4001 1.327 . S
C3999 H4022 0.950 . S
C4000 C3999 1.349 . S
C4000 C4012 1.349 . S
C4001 C3999 1.327 . S
C4001 C4017 1.429 . S
C4001 H4023 0.950 . S
C4002 H3998 0.949 . S
C4002 C4010 1.574 . S
C4002 C4018 1.368 . S
H4003 C4011 0.950 . S
H4004 C4009 0.950 . S
H4005 C4010 0.949 . S
H4006 C4012 0.950 . S
H4007 C4013 0.950 . S
H4008 C4014 0.949 . S
C4009 H4004 0.950 . S
C4009 C4011 1.327 . S
C4009 C4015 1.429 . S
C4010 C4002 1.574 . S
C4010 H4005 0.949 . S
C4010 C4016 1.368 . S
C4011 C3995 1.349 . S
C4011 H4003 0.950 . S
C4011 C4009 1.327 . S
C4012 C4000 1.349 . S
C4012 H4006 0.950 . S
C4012 C4013 1.327 . S
C4013 H4007 0.950 . S
C4013 C4012 1.327 . S
C4013 C4017 1.429 . S
C4014 C3997 1.574 . S
C4014 H4008 0.949 . S
C4014 C4018 1.368 . S
C4015 C3996 1.429 . S
C4015 C4009 1.429 . S
C4015 C4016 1.523 . S
C4016 C3997 1.368 . S
C4016 C4010 1.368 . S
C4016 C4015 1.523 . S
C4017 C4001 1.429 . S
C4017 C4013 1.429 . S
C4017 C4018 1.523 . S
C4018 C4002 1.368 . S
C4018 C4014 1.368 . S
C4018 C4017 1.523 . S
H4019 C3994 0.950 . S
H4020 C3996 0.950 . S
H4021 C3997 0.949 . S
H4022 C3999 0.950 . S
H4023 C4001 0.950 . S
C4024 C4025 1.349 . S
C4024 C4026 1.327 . S
C4024 H4049 0.950 . S
C4025 C4024 1.349 . S
C4025 C4041 1.349 . S
C4026 C4024 1.327 . S
C4026 C4045 1.429 . S
C4026 H4050 0.950 . S
C4027 C4044 1.574 . S
C4027 C4046 1.368 . S
C4027 H4051 0.949 . S
H4028 C4032 0.949 . S
C4029 C4030 1.349 . S
C4029 C4031 1.327 . S
C4029 H4052 0.950 . S
C4030 C4029 1.349 . S
C4030 C4042 1.349 . S
C4031 C4029 1.327 . S
C4031 C4047 1.429 . S
C4031 H4053 0.950 . S
C4032 H4028 0.949 . S
C4032 C4040 1.574 . S
C4032 C4048 1.368 . S
H4033 C4041 0.950 . S
H4034 C4039 0.950 . S
H4035 C4040 0.949 . S
H4036 C4042 0.950 . S
H4037 C4043 0.950 . S
H4038 C4044 0.949 . S
C4039 H4034 0.950 . S
C4039 C4041 1.327 . S
C4039 C4045 1.429 . S
C4040 C4032 1.574 . S
C4040 H4035 0.949 . S
C4040 C4046 1.368 . S
C4041 C4025 1.349 . S
C4041 H4033 0.950 . S
C4041 C4039 1.327 . S
C4042 C4030 1.349 . S
C4042 H4036 0.950 . S
C4042 C4043 1.327 . S
C4043 H4037 0.950 . S
C4043 C4042 1.327 . S
C4043 C4047 1.429 . S
C4044 C4027 1.574 . S
C4044 H4038 0.949 . S
C4044 C4048 1.368 . S
C4045 C4026 1.429 . S
C4045 C4039 1.429 . S
C4045 C4046 1.523 . S
C4046 C4027 1.368 . S
C4046 C4040 1.368 . S
C4046 C4045 1.523 . S
C4047 C4031 1.429 . S
C4047 C4043 1.429 . S
C4047 C4048 1.523 . S
C4048 C4032 1.368 . S
C4048 C4044 1.368 . S
C4048 C4047 1.523 . S
H4049 C4024 0.950 . S
H4050 C4026 0.950 . S
H4051 C4027 0.949 . S
H4052 C4029 0.950 . S
H4053 C4031 0.950 . S
C4054 C4055 1.349 . S
C4054 C4056 1.327 . S
C4054 H4079 0.950 . S
C4055 C4054 1.349 . S
C4055 C4071 1.349 . S
C4056 C4054 1.327 . S
C4056 C4075 1.429 . S
C4056 H4080 0.950 . S
C4057 C4074 1.574 . S
C4057 C4076 1.368 . S
C4057 H4081 0.949 . S
H4058 C4062 0.949 . S
C4059 C4060 1.349 . S
C4059 C4061 1.327 . S
C4059 H4082 0.950 . S
C4060 C4059 1.349 . S
C4060 C4072 1.349 . S
C4061 C4059 1.327 . S
C4061 C4077 1.429 . S
C4061 H4083 0.950 . S
C4062 H4058 0.949 . S
C4062 C4070 1.574 . S
C4062 C4078 1.368 . S
H4063 C4071 0.950 . S
H4064 C4069 0.950 . S
H4065 C4070 0.949 . S
H4066 C4072 0.950 . S
H4067 C4073 0.950 . S
H4068 C4074 0.949 . S
C4069 H4064 0.950 . S
C4069 C4071 1.327 . S
C4069 C4075 1.429 . S
C4070 C4062 1.574 . S
C4070 H4065 0.949 . S
C4070 C4076 1.368 . S
C4071 C4055 1.349 . S
C4071 H4063 0.950 . S
C4071 C4069 1.327 . S
C4072 C4060 1.349 . S
C4072 H4066 0.950 . S
C4072 C4073 1.327 . S
C4073 H4067 0.950 . S
C4073 C4072 1.327 . S
C4073 C4077 1.429 . S
C4074 C4057 1.574 . S
C4074 H4068 0.949 . S
C4074 C4078 1.368 . S
C4075 C4056 1.429 . S
C4075 C4069 1.429 . S
C4075 C4076 1.523 . S
C4076 C4057 1.368 . S
C4076 C4070 1.368 . S
C4076 C4075 1.523 . S
C4077 C4061 1.429 . S
C4077 C4073 1.429 . S
C4077 C4078 1.523 . S
C4078 C4062 1.368 . S
C4078 C4074 1.368 . S
C4078 C4077 1.523 . S
H4079 C4054 0.950 . S
H4080 C4056 0.950 . S
H4081 C4057 0.949 . S
H4082 C4059 0.950 . S
H4083 C4061 0.950 . S
C4084 C4085 1.349 . S
C4084 C4086 1.327 . S
C4084 H4109 0.950 . S
C4085 C4084 1.349 . S
C4085 C4101 1.349 . S
C4086 C4084 1.327 . S
C4086 C4105 1.429 . S
C4086 H4110 0.950 . S
C4087 C4104 1.574 . S
C4087 C4106 1.368 . S
C4087 H4111 0.949 . S
H4088 C4092 0.949 . S
C4089 C4090 1.349 . S
C4089 C4091 1.327 . S
C4089 H4112 0.950 . S
C4090 C4089 1.349 . S
C4090 C4102 1.349 . S
C4091 C4089 1.327 . S
C4091 C4107 1.429 . S
C4091 H4113 0.950 . S
C4092 H4088 0.949 . S
C4092 C4100 1.574 . S
C4092 C4108 1.368 . S
H4093 C4101 0.950 . S
H4094 C4099 0.950 . S
H4095 C4100 0.949 . S
H4096 C4102 0.950 . S
H4097 C4103 0.950 . S
H4098 C4104 0.949 . S
C4099 H4094 0.950 . S
C4099 C4101 1.327 . S
C4099 C4105 1.429 . S
C4100 C4092 1.574 . S
C4100 H4095 0.949 . S
C4100 C4106 1.368 . S
C4101 C4085 1.349 . S
C4101 H4093 0.950 . S
C4101 C4099 1.327 . S
C4102 C4090 1.349 . S
C4102 H4096 0.950 . S
C4102 C4103 1.327 . S
C4103 H4097 0.950 . S
C4103 C4102 1.327 . S
C4103 C4107 1.429 . S
C4104 C4087 1.574 . S
C4104 H4098 0.949 . S
C4104 C4108 1.368 . S
C4105 C4086 1.429 . S
C4105 C4099 1.429 . S
C4105 C4106 1.523 . S
C4106 C4087 1.368 . S
C4106 C4100 1.368 . S
C4106 C4105 1.523 . S
C4107 C4091 1.429 . S
C4107 C4103 1.429 . S
C4107 C4108 1.523 . S
C4108 C4092 1.368 . S
C4108 C4104 1.368 . S
C4108 C4107 1.523 . S
H4109 C4084 0.950 . S
H4110 C4086 0.950 . S
H4111 C4087 0.949 . S
H4112 C4089 0.950 . S
H4113 C4091 0.950 . S
C4114 C4115 1.349 . S
C4114 C4116 1.327 . S
C4114 H4139 0.950 . S
C4115 C4114 1.349 . S
C4115 C4131 1.349 . S
C4116 C4114 1.327 . S
C4116 C4135 1.429 . S
C4116 H4140 0.950 . S
C4117 C4134 1.574 . S
C4117 C4136 1.368 . S
C4117 H4141 0.949 . S
H4118 C4122 0.949 . S
C4119 C4120 1.349 . S
C4119 C4121 1.327 . S
C4119 H4142 0.950 . S
C4120 C4119 1.349 . S
C4120 C4132 1.349 . S
C4121 C4119 1.327 . S
C4121 C4137 1.429 . S
C4121 H4143 0.950 . S
C4122 H4118 0.949 . S
C4122 C4130 1.574 . S
C4122 C4138 1.368 . S
H4123 C4131 0.950 . S
H4124 C4129 0.950 . S
H4125 C4130 0.949 . S
H4126 C4132 0.950 . S
H4127 C4133 0.950 . S
H4128 C4134 0.949 . S
C4129 H4124 0.950 . S
C4129 C4131 1.327 . S
C4129 C4135 1.429 . S
C4130 C4122 1.574 . S
C4130 H4125 0.949 . S
C4130 C4136 1.368 . S
C4131 C4115 1.349 . S
C4131 H4123 0.950 . S
C4131 C4129 1.327 . S
C4132 C4120 1.349 . S
C4132 H4126 0.950 . S
C4132 C4133 1.327 . S
C4133 H4127 0.950 . S
C4133 C4132 1.327 . S
C4133 C4137 1.429 . S
C4134 C4117 1.574 . S
C4134 H4128 0.949 . S
C4134 C4138 1.368 . S
C4135 C4116 1.429 . S
C4135 C4129 1.429 . S
C4135 C4136 1.523 . S
C4136 C4117 1.368 . S
C4136 C4130 1.368 . S
C4136 C4135 1.523 . S
C4137 C4121 1.429 . S
C4137 C4133 1.429 . S
C4137 C4138 1.523 . S
C4138 C4122 1.368 . S
C4138 C4134 1.368 . S
C4138 C4137 1.523 . S
H4139 C4114 0.950 . S
H4140 C4116 0.950 . S
H4141 C4117 0.949 . S
H4142 C4119 0.950 . S
H4143 C4121 0.950 . S
C4144 C4145 1.349 . S
C4144 C4146 1.327 . S
C4144 H4169 0.950 . S
C4145 C4144 1.349 . S
C4145 C4161 1.349 . S
C4146 C4144 1.327 . S
C4146 C4165 1.429 . S
C4146 H4170 0.950 . S
C4147 C4164 1.574 . S
C4147 C4166 1.368 . S
C4147 H4171 0.949 . S
H4148 C4152 0.949 . S
C4149 C4150 1.349 . S
C4149 C4151 1.327 . S
C4149 H4172 0.950 . S
C4150 C4149 1.349 . S
C4150 C4162 1.349 . S
C4151 C4149 1.327 . S
C4151 C4167 1.429 . S
C4151 H4173 0.950 . S
C4152 H4148 0.949 . S
C4152 C4160 1.574 . S
C4152 C4168 1.368 . S
H4153 C4161 0.950 . S
H4154 C4159 0.950 . S
H4155 C4160 0.949 . S
H4156 C4162 0.950 . S
H4157 C4163 0.950 . S
H4158 C4164 0.949 . S
C4159 H4154 0.950 . S
C4159 C4161 1.327 . S
C4159 C4165 1.429 . S
C4160 C4152 1.574 . S
C4160 H4155 0.949 . S
C4160 C4166 1.368 . S
C4161 C4145 1.349 . S
C4161 H4153 0.950 . S
C4161 C4159 1.327 . S
C4162 C4150 1.349 . S
C4162 H4156 0.950 . S
C4162 C4163 1.327 . S
C4163 H4157 0.950 . S
C4163 C4162 1.327 . S
C4163 C4167 1.429 . S
C4164 C4147 1.574 . S
C4164 H4158 0.949 . S
C4164 C4168 1.368 . S
C4165 C4146 1.429 . S
C4165 C4159 1.429 . S
C4165 C4166 1.523 . S
C4166 C4147 1.368 . S
C4166 C4160 1.368 . S
C4166 C4165 1.523 . S
C4167 C4151 1.429 . S
C4167 C4163 1.429 . S
C4167 C4168 1.523 . S
C4168 C4152 1.368 . S
C4168 C4164 1.368 . S
C4168 C4167 1.523 . S
H4169 C4144 0.950 . S
H4170 C4146 0.950 . S
H4171 C4147 0.949 . S
H4172 C4149 0.950 . S
H4173 C4151 0.950 . S
C4174 C4175 1.349 . S
C4174 C4176 1.327 . S
C4174 H4199 0.950 . S
C4175 C4174 1.349 . S
C4175 C4191 1.349 . S
C4176 C4174 1.327 . S
C4176 C4195 1.429 . S
C4176 H4200 0.950 . S
C4177 C4194 1.574 . S
C4177 C4196 1.368 . S
C4177 H4201 0.949 . S
H4178 C4182 0.949 . S
C4179 C4180 1.349 . S
C4179 C4181 1.327 1_545 S
C4179 H4202 0.950 . S
C4180 C4179 1.349 . S
C4180 C4192 1.349 1_545 S
C4181 C4179 1.327 1_565 S
C4181 C4197 1.429 . S
C4181 H4203 0.950 . S
C4182 H4178 0.949 . S
C4182 C4190 1.574 . S
C4182 C4198 1.368 . S
H4183 C4191 0.950 . S
H4184 C4189 0.950 . S
H4185 C4190 0.949 . S
H4186 C4192 0.950 . S
H4187 C4193 0.950 . S
H4188 C4194 0.949 . S
C4189 H4184 0.950 . S
C4189 C4191 1.327 . S
C4189 C4195 1.429 . S
C4190 C4182 1.574 . S
C4190 H4185 0.949 . S
C4190 C4196 1.368 . S
C4191 C4175 1.349 . S
C4191 H4183 0.950 . S
C4191 C4189 1.327 . S
C4192 C4180 1.349 1_565 S
C4192 H4186 0.950 . S
C4192 C4193 1.327 . S
C4193 H4187 0.950 . S
C4193 C4192 1.327 . S
C4193 C4197 1.429 . S
C4194 C4177 1.574 . S
C4194 H4188 0.949 . S
C4194 C4198 1.368 . S
C4195 C4176 1.429 . S
C4195 C4189 1.429 . S
C4195 C4196 1.523 . S
C4196 C4177 1.368 . S
C4196 C4190 1.368 . S
C4196 C4195 1.523 . S
C4197 C4181 1.429 . S
C4197 C4193 1.429 . S
C4197 C4198 1.523 . S
C4198 C4182 1.368 . S
C4198 C4194 1.368 . S
C4198 C4197 1.523 . S
H4199 C4174 0.950 . S
H4200 C4176 0.950 . S
H4201 C4177 0.949 . S
H4202 C4179 0.950 . S
H4203 C4181 0.950 . S
C4204 C4205 1.349 . S
C4204 C4206 1.327 . S
C4204 H4229 0.950 . S
C4205 C4204 1.349 . S
C4205 C4221 1.349 . S
C4206 C4204 1.327 . S
C4206 C4225 1.429 . S
C4206 H4230 0.950 . S
C4207 C4224 1.574 . S
C4207 C4226 1.368 . S
C4207 H4231 0.949 . S
H4208 C4212 0.949 . S
C4209 C4210 1.349 . S
C4209 C4211 1.327 . S
C4209 H4232 0.950 . S
C4210 C4209 1.349 . S
C4210 C4222 1.349 . S
C4211 C4209 1.327 . S
C4211 C4227 1.429 . S
C4211 H4233 0.950 . S
C4212 H4208 0.949 . S
C4212 C4220 1.574 . S
C4212 C4228 1.368 . S
H4213 C4221 0.950 . S
H4214 C4219 0.950 . S
H4215 C4220 0.949 . S
H4216 C4222 0.950 . S
H4217 C4223 0.950 . S
H4218 C4224 0.949 . S
C4219 H4214 0.950 . S
C4219 C4221 1.327 . S
C4219 C4225 1.429 . S
C4220 C4212 1.574 . S
C4220 H4215 0.949 . S
C4220 C4226 1.368 . S
C4221 C4205 1.349 . S
C4221 H4213 0.950 . S
C4221 C4219 1.327 . S
C4222 C4210 1.349 . S
C4222 H4216 0.950 . S
C4222 C4223 1.327 . S
C4223 H4217 0.950 . S
C4223 C4222 1.327 . S
C4223 C4227 1.429 . S
C4224 C4207 1.574 . S
C4224 H4218 0.949 . S
C4224 C4228 1.368 . S
C4225 C4206 1.429 . S
C4225 C4219 1.429 . S
C4225 C4226 1.523 . S
C4226 C4207 1.368 . S
C4226 C4220 1.368 . S
C4226 C4225 1.523 . S
C4227 C4211 1.429 . S
C4227 C4223 1.429 . S
C4227 C4228 1.523 . S
C4228 C4212 1.368 . S
C4228 C4224 1.368 . S
C4228 C4227 1.523 . S
H4229 C4204 0.950 . S
H4230 C4206 0.950 . S
H4231 C4207 0.949 . S
H4232 C4209 0.950 . S
H4233 C4211 0.950 . S
C4234 C4235 1.349 . S
C4234 C4236 1.327 . S
C4234 H4259 0.950 . S
C4235 C4234 1.349 . S
C4235 C4251 1.349 . S
C4236 C4234 1.327 . S
C4236 C4255 1.429 . S
C4236 H4260 0.950 . S
C4237 C4254 1.574 . S
C4237 C4256 1.368 . S
C4237 H4261 0.949 . S
H4238 C4242 0.949 . S
C4239 C4240 1.349 . S
C4239 C4241 1.327 . S
C4239 H4262 0.950 . S
C4240 C4239 1.349 . S
C4240 C4252 1.349 . S
C4241 C4239 1.327 . S
C4241 C4257 1.429 . S
C4241 H4263 0.950 . S
C4242 H4238 0.949 . S
C4242 C4250 1.574 . S
C4242 C4258 1.368 . S
H4243 C4251 0.950 . S
H4244 C4249 0.950 . S
H4245 C4250 0.949 . S
H4246 C4252 0.950 . S
H4247 C4253 0.950 . S
H4248 C4254 0.949 . S
C4249 H4244 0.950 . S
C4249 C4251 1.327 . S
C4249 C4255 1.429 . S
C4250 C4242 1.574 . S
C4250 H4245 0.949 . S
C4250 C4256 1.368 . S
C4251 C4235 1.349 . S
C4251 H4243 0.950 . S
C4251 C4249 1.327 . S
C4252 C4240 1.349 . S
C4252 H4246 0.950 . S
C4252 C4253 1.327 . S
C4253 H4247 0.950 . S
C4253 C4252 1.327 . S
C4253 C4257 1.429 . S
C4254 C4237 1.574 . S
C4254 H4248 0.949 . S
C4254 C4258 1.368 . S
C4255 C4236 1.429 . S
C4255 C4249 1.429 . S
C4255 C4256 1.523 . S
C4256 C4237 1.368 . S
C4256 C4250 1.368 . S
C4256 C4255 1.523 . S
C4257 C4241 1.429 . S
C4257 C4253 1.429 . S
C4257 C4258 1.523 . S
C4258 C4242 1.368 . S
C4258 C4254 1.368 . S
C4258 C4257 1.523 . S
H4259 C4234 0.950 . S
H4260 C4236 0.950 . S
H4261 C4237 0.949 . S
H4262 C4239 0.950 . S
H4263 C4241 0.950 . S
C4264 C4265 1.349 . S
C4264 C4266 1.327 . S
C4264 H4289 0.950 . S
C4265 C4264 1.349 . S
C4265 C4281 1.349 . S
C4266 C4264 1.327 . S
C4266 C4285 1.429 . S
C4266 H4290 0.950 . S
C4267 C4284 1.574 . S
C4267 C4286 1.368 . S
C4267 H4291 0.949 . S
H4268 C4272 0.949 . S
C4269 C4270 1.349 . S
C4269 C4271 1.327 . S
C4269 H4292 0.950 . S
C4270 C4269 1.349 . S
C4270 C4282 1.349 . S
C4271 C4269 1.327 . S
C4271 C4287 1.429 . S
C4271 H4293 0.950 . S
C4272 H4268 0.949 . S
C4272 C4280 1.574 . S
C4272 C4288 1.368 . S
H4273 C4281 0.950 . S
H4274 C4279 0.950 . S
H4275 C4280 0.949 . S
H4276 C4282 0.950 . S
H4277 C4283 0.950 . S
H4278 C4284 0.949 . S
C4279 H4274 0.950 . S
C4279 C4281 1.327 . S
C4279 C4285 1.429 . S
C4280 C4272 1.574 . S
C4280 H4275 0.949 . S
C4280 C4286 1.368 . S
C4281 C4265 1.349 . S
C4281 H4273 0.950 . S
C4281 C4279 1.327 . S
C4282 C4270 1.349 . S
C4282 H4276 0.950 . S
C4282 C4283 1.327 . S
C4283 H4277 0.950 . S
C4283 C4282 1.327 . S
C4283 C4287 1.429 . S
C4284 C4267 1.574 . S
C4284 H4278 0.949 . S
C4284 C4288 1.368 . S
C4285 C4266 1.429 . S
C4285 C4279 1.429 . S
C4285 C4286 1.523 . S
C4286 C4267 1.368 . S
C4286 C4280 1.368 . S
C4286 C4285 1.523 . S
C4287 C4271 1.429 . S
C4287 C4283 1.429 . S
C4287 C4288 1.523 . S
C4288 C4272 1.368 . S
C4288 C4284 1.368 . S
C4288 C4287 1.523 . S
H4289 C4264 0.950 . S
H4290 C4266 0.950 . S
H4291 C4267 0.949 . S
H4292 C4269 0.950 . S
H4293 C4271 0.950 . S
C4294 C4295 1.349 . S
C4294 C4296 1.327 . S
C4294 H4319 0.950 . S
C4295 C4294 1.349 . S
C4295 C4311 1.349 . S
C4296 C4294 1.327 . S
C4296 C4315 1.429 . S
C4296 H4320 0.950 . S
C4297 C4314 1.578 . S
C4297 C4316 1.351 1_556 S
C4297 H4321 0.962 . S
H4298 C4302 0.949 . S
C4299 C4300 1.369 . S
C4299 C4301 1.327 . S
C4299 H4322 0.950 . S
C4300 C4299 1.369 . S
C4300 C4312 1.324 1_556 S
C4301 C4299 1.327 . S
C4301 C4317 1.429 1_556 S
C4301 H4323 0.950 . S
C4302 H4298 0.949 . S
C4302 C4310 1.574 . S
C4302 C4318 1.368 . S
H4303 C4311 0.950 . S
H4304 C4309 0.950 1_556 S
H4305 C4310 0.949 . S
H4306 C4312 0.950 . S
H4307 C4313 0.950 . S
H4308 C4314 0.949 . S
C4309 H4304 0.950 1_554 S
C4309 C4311 1.327 . S
C4309 C4315 1.429 . S
C4310 C4302 1.574 . S
C4310 H4305 0.949 . S
C4310 C4316 1.368 . S
C4311 C4295 1.349 . S
C4311 H4303 0.950 . S
C4311 C4309 1.327 . S
C4312 C4300 1.324 1_554 S
C4312 H4306 0.950 . S
C4312 C4313 1.327 . S
C4313 H4307 0.950 . S
C4313 C4312 1.327 . S
C4313 C4317 1.429 . S
C4314 C4297 1.578 . S
C4314 H4308 0.949 . S
C4314 C4318 1.368 1_556 S
C4315 C4296 1.429 . S
C4315 C4309 1.429 . S
C4315 C4316 1.523 . S
C4316 C4297 1.351 1_554 S
C4316 C4310 1.368 . S
C4316 C4315 1.523 . S
C4317 C4301 1.429 1_554 S
C4317 C4313 1.429 . S
C4317 C4318 1.523 . S
C4318 C4302 1.368 . S
C4318 C4314 1.368 1_554 S
C4318 C4317 1.523 . S
H4319 C4294 0.950 . S
H4320 C4296 0.950 . S
H4321 C4297 0.962 . S
H4322 C4299 0.950 . S
H4323 C4301 0.950 . S
C4324 C4325 1.349 . S
C4324 C4326 1.327 . S
C4324 H4349 0.950 . S
C4325 C4324 1.349 . S
C4325 C4341 1.349 . S
C4326 C4324 1.327 . S
C4326 C4345 1.429 . S
C4326 H4350 0.950 . S
C4327 C4344 1.574 . S
C4327 C4346 1.368 . S
C4327 H4351 0.949 . S
H4328 C4332 0.949 . S
C4329 C4330 1.349 . S
C4329 C4331 1.327 . S
C4329 H4352 0.950 . S
C4330 C4329 1.349 . S
C4330 C4342 1.349 . S
C4331 C4329 1.327 . S
C4331 C4347 1.429 . S
C4331 H4353 0.950 . S
C4332 H4328 0.949 . S
C4332 C4340 1.574 . S
C4332 C4348 1.368 . S
H4333 C4341 0.950 . S
H4334 C4339 0.950 . S
H4335 C4340 0.949 . S
H4336 C4342 0.950 . S
H4337 C4343 0.950 . S
H4338 C4344 0.949 . S
C4339 H4334 0.950 . S
C4339 C4341 1.327 . S
C4339 C4345 1.429 . S
C4340 C4332 1.574 . S
C4340 H4335 0.949 . S
C4340 C4346 1.368 . S
C4341 C4325 1.349 . S
C4341 H4333 0.950 . S
C4341 C4339 1.327 . S
C4342 C4330 1.349 . S
C4342 H4336 0.950 . S
C4342 C4343 1.327 . S
C4343 H4337 0.950 . S
C4343 C4342 1.327 . S
C4343 C4347 1.429 . S
C4344 C4327 1.574 . S
C4344 H4338 0.949 . S
C4344 C4348 1.368 . S
C4345 C4326 1.429 . S
C4345 C4339 1.429 . S
C4345 C4346 1.523 . S
C4346 C4327 1.368 . S
C4346 C4340 1.368 . S
C4346 C4345 1.523 . S
C4347 C4331 1.429 . S
C4347 C4343 1.429 . S
C4347 C4348 1.523 . S
C4348 C4332 1.368 . S
C4348 C4344 1.368 . S
C4348 C4347 1.523 . S
H4349 C4324 0.950 . S
H4350 C4326 0.950 . S
H4351 C4327 0.949 . S
H4352 C4329 0.950 . S
H4353 C4331 0.950 . S
C4354 C4355 1.349 . S
C4354 C4356 1.327 . S
C4354 H4379 0.950 . S
C4355 C4354 1.349 . S
C4355 C4371 1.349 . S
C4356 C4354 1.327 . S
C4356 C4375 1.429 . S
C4356 H4380 0.950 . S
C4357 C4374 1.574 . S
C4357 C4376 1.368 . S
C4357 H4381 0.949 . S
H4358 C4362 0.949 . S
C4359 C4360 1.349 . S
C4359 C4361 1.327 . S
C4359 H4382 0.950 . S
C4360 C4359 1.349 . S
C4360 C4372 1.349 . S
C4361 C4359 1.327 . S
C4361 C4377 1.429 . S
C4361 H4383 0.950 . S
C4362 H4358 0.949 . S
C4362 C4370 1.574 . S
C4362 C4378 1.368 . S
H4363 C4371 0.950 . S
H4364 C4369 0.950 . S
H4365 C4370 0.949 . S
H4366 C4372 0.950 . S
H4367 C4373 0.950 . S
H4368 C4374 0.949 . S
C4369 H4364 0.950 . S
C4369 C4371 1.327 . S
C4369 C4375 1.429 . S
C4370 C4362 1.574 . S
C4370 H4365 0.949 . S
C4370 C4376 1.368 . S
C4371 C4355 1.349 . S
C4371 H4363 0.950 . S
C4371 C4369 1.327 . S
C4372 C4360 1.349 . S
C4372 H4366 0.950 . S
C4372 C4373 1.327 . S
C4373 H4367 0.950 . S
C4373 C4372 1.327 . S
C4373 C4377 1.429 . S
C4374 C4357 1.574 . S
C4374 H4368 0.949 . S
C4374 C4378 1.368 . S
C4375 C4356 1.429 . S
C4375 C4369 1.429 . S
C4375 C4376 1.523 . S
C4376 C4357 1.368 . S
C4376 C4370 1.368 . S
C4376 C4375 1.523 . S
C4377 C4361 1.429 . S
C4377 C4373 1.429 . S
C4377 C4378 1.523 . S
C4378 C4362 1.368 . S
C4378 C4374 1.368 . S
C4378 C4377 1.523 . S
H4379 C4354 0.950 . S
H4380 C4356 0.950 . S
H4381 C4357 0.949 . S
H4382 C4359 0.950 . S
H4383 C4361 0.950 . S
C1505 C255 1.958 . S
C1510 C877 1.943 . S
C1535 C147 2.028 . S
C1540 C928 2.032 . S
C1565 C184 1.364 . S
C1570 C957 1.438 . S
C1600 C1001 1.476 . S
C1595 C220 1.514 . S
C1625 C40 1.332 . S
C1630 C1041 1.299 . S
C1660 C1077 1.504 . S
C1655 C74 1.494 . S
C1690 C1127 1.762 . S
C1685 C110 1.766 . S
C1715 C14 2.101 . S
C1720 C1157 2.071 . S
C1750 C887 1.839 . S
C1745 C579 1.867 . S
C1775 C616 0.397 . S
C1780 C930 0.459 . S
C1810 C967 1.212 . S
C1805 C687 1.218 . S
C1840 C997 1.376 . S
C1835 C436 1.367 . S
C1865 C580 1.394 . S
C1870 C1037 1.401 . S
C1900 C1087 0.866 . S
C1895 C615 0.869 . S
C1930 C1121 0.725 . S
C1925 C688 0.721 . S
C1960 C1167 1.822 . S
C1955 C435 1.849 . S
C1990 C881 0.951 . S
C1985 C410 0.964 1_554 S
C2015 C722 1.739 . S
C2020 C1207 1.727 . S
C2050 C1241 1.419 . S
C2045 C842 1.418 . S
C2080 C1277 0.921 . S
C2075 C794 0.927 . S
C2105 C302 1.317 . S
C2110 C1161 1.280 . S
C2135 C338 1.445 . S
C2140 C961 1.438 . S
C2165 C830 1.686 . S
C2170 C1327 1.673 . S
C2200 C1346 0.266 . S
C2195 C758 0.279 . S
C2230 C888 1.895 . S
C2225 C158 1.821 . S
C2260 C1357 1.982 . S
C2255 C254 2.006 . S
C2285 C218 1.343 . S
C2290 C968 1.354 . S
C2315 C194 1.405 . S
C2320 C1330 1.443 . S
C2350 C1050 1.292 . S
C2345 C3 1.319 . S
C2375 C111 1.345 . S
C2380 C1248 1.325 . S
C2410 C1106 1.710 1_566 S
C2405 C76 1.706 . S
C2440 C1408 2.145 . S
C2435 C50 2.068 . S
C2470 C866 1.785 . S
C2465 C364 1.804 . S
C2500 C1361 0.460 . S
C2495 C795 0.384 . S
C2525 C292 1.159 . S
C2530 C946 1.148 . S
C2555 C723 1.299 . S
C2560 C1328 1.284 . S
C2585 C363 1.369 . S
C2590 C1048 1.352 . S
C2620 C1226 0.838 . S
C2615 C796 0.840 . S
C2645 C291 0.679 . S
C2650 C1130 0.688 . S
C2675 C724 1.818 . S
C2680 C1386 1.800 . S
C2705 C482 0.949 . S
C2710 C890 0.975 . S
C2735 C434 1.690 . S
C2740 C1186 1.680 . S
C2765 C662 1.350 . S
C2770 C1090 1.397 . S
C2795 C614 0.923 . S
C2800 C1288 0.915 . S
C2830 C1410 1.277 . S
C2825 C698 1.234 . S
C2855 C554 1.402 . S
C2860 C970 1.453 . S
C2890 C986 1.606 . S
C2885 C650 1.615 . S
C2920 C927 0.232 . S
C2915 C506 0.199 . S
C2945 C183 1.959 . S
C2950 C1437 1.946 . S
C2980 C1368 2.031 . S
C2975 C219 2.028 . S
C3005 C256 1.360 . S
C3010 C1477 1.371 . S
C3035 C148 1.512 1_655 S
C3040 C1321 1.474 . S
C3065 C122 1.342 . S
C3070 C1201 1.352 . S
C3100 C1237 1.425 . S
C3095 C2 1.416 . S
C3130 C1287 1.655 . S
C3125 C39 1.641 . S
C3160 C1397 2.150 . S
C3155 C86 2.178 . S
C3190 C1447 1.851 . S
C3185 C651 1.878 . S
C3215 C472 0.393 . S
C3220 C1370 0.456 . S
C3250 C1487 1.196 . S
C3245 C507 1.203 . S
C3280 C1317 1.383 . S
C3275 C544 1.375 . S
C3310 C1197 1.395 . S
C3305 C652 1.389 . S
C3335 C471 0.850 . S
C3340 C1247 0.847 . S
C3370 C1281 0.706 . S
C3365 C508 0.700 . S
C3395 C543 1.871 . S
C3400 C1407 1.843 . S
C3430 C1441 0.971 . S
C3425 C806 0.987 . S
C3455 C326 1.713 . S
C3460 C1047 1.702 . S
C3490 C1081 1.396 . S
C3485 C374 1.395 1_565 S
C3520 C1117 0.937 . S
C3515 C398 0.945 . S
C3550 C1401 1.278 . S
C3545 C770 1.313 . S
C3575 C734 1.434 . S
C3580 C1481 1.428 . S
C3610 C1007 1.659 . S
C3605 C362 1.671 . S
C3640 C906 0.280 . S
C3635 C290 0.288 . S
C3665 C230 1.821 . S
C3670 C1448 1.894 . S
C3700 C917 1.988 . S
C3695 C182 2.007 . S
C3725 C146 1.343 . S
C3730 C1488 1.354 . S
C3755 C266 1.407 . S
C3760 C1010 1.439 . S
C3785 C75 1.364 . S
C3790 C1210 1.335 . S
C3820 C1088 1.473 . S
C3815 C38 1.465 . S
C3845 C4 1.628 . S
C3850 C1266 1.633 . S
C3875 C112 2.077 . S
C3880 C1168 2.051 . S
C3910 C1426 1.788 . S
C3905 C832 1.807 . S
C3935 C399 0.404 . S
C3940 C921 0.471 . S
C3970 C1466 1.143 . S
C3965 C760 1.154 . S
C3995 C327 1.295 . S
C4000 C1008 1.280 . S
C4025 C831 1.398 . S
C4030 C1208 1.381 . S
C4060 C1066 0.842 . S
C4055 C400 0.848 . S
C4085 C759 0.700 . S
C4090 C1290 0.707 . S
C4120 C1146 1.809 . S
C4115 C328 1.826 . S
C4150 C1450 0.983 . S
C4145 C626 0.955 . S
C4180 C1026 1.686 . S
C4175 C542 1.697 . S
C4205 C590 1.321 . S
C4210 C1250 1.367 . S
C4240 C1128 0.919 . S
C4235 C470 0.925 . S
C4265 C518 1.213 . S
C4270 C1170 1.257 . S
C4295 C446 1.396 . S
C4300 C1490 1.442 1_556 S
C4330 C1306 1.621 . S
C4325 C578 1.629 . S
C4360 C1367 0.227 . S
C4355 C686 0.191 . S
