# Generated by pormake.
# Topology gar, (4,6)-cn, num edge types: 1
# Building blocks:
#     Node 0, Type 0, BuildingBlock: QUQFOY_clean_sbu_3, # of connection points: 4
#     Node 1, Type 0, BuildingBlock: QUQFOY_clean_sbu_3, # of connection points: 4
#     Node 2, Type 0, BuildingBlock: QUQFOY_clean_sbu_3, # of connection points: 4
#     Node 3, Type 0, BuildingBlock: QUQFOY_clean_sbu_3, # of connection points: 4
#     Node 4, Type 0, BuildingBlock: QUQFOY_clean_sbu_3, # of connection points: 4
#     Node 5, Type 0, BuildingBlock: QUQFOY_clean_sbu_3, # of connection points: 4
#     Node 6, Type 0, BuildingBlock: QUQFOY_clean_sbu_3, # of connection points: 4
#     Node 7, Type 0, BuildingBlock: QUQFOY_clean_sbu_3, # of connection points: 4
#     Node 8, Type 0, BuildingBlock: QUQFOY_clean_sbu_3, # of connection points: 4
#     Node 9, Type 0, BuildingBlock: QUQFOY_clean_sbu_3, # of connection points: 4
#     Node 10, Type 0, BuildingBlock: QUQFOY_clean_sbu_3, # of connection points: 4
#     Node 11, Type 0, BuildingBlock: QUQFOY_clean_sbu_3, # of connection points: 4
#     Node 12, Type 0, BuildingBlock: QUQFOY_clean_sbu_3, # of connection points: 4
#     Node 13, Type 0, BuildingBlock: QUQFOY_clean_sbu_3, # of connection points: 4
#     Node 14, Type 0, BuildingBlock: QUQFOY_clean_sbu_3, # of connection points: 4
#     Node 15, Type 0, BuildingBlock: QUQFOY_clean_sbu_3, # of connection points: 4
#     Node 16, Type 0, BuildingBlock: QUQFOY_clean_sbu_3, # of connection points: 4
#     Node 17, Type 0, BuildingBlock: QUQFOY_clean_sbu_3, # of connection points: 4
#     Node 18, Type 0, BuildingBlock: QUQFOY_clean_sbu_3, # of connection points: 4
#     Node 19, Type 0, BuildingBlock: QUQFOY_clean_sbu_3, # of connection points: 4
#     Node 20, Type 0, BuildingBlock: QUQFOY_clean_sbu_3, # of connection points: 4
#     Node 21, Type 0, BuildingBlock: QUQFOY_clean_sbu_3, # of connection points: 4
#     Node 22, Type 0, BuildingBlock: QUQFOY_clean_sbu_3, # of connection points: 4
#     Node 23, Type 0, BuildingBlock: QUQFOY_clean_sbu_3, # of connection points: 4
#     Node 24, Type 1, BuildingBlock: BETDIP_clean_sbu_0, # of connection points: 6
#     Node 25, Type 1, BuildingBlock: BETDIP_clean_sbu_0, # of connection points: 6
#     Node 26, Type 1, BuildingBlock: BETDIP_clean_sbu_0, # of connection points: 6
#     Node 27, Type 1, BuildingBlock: BETDIP_clean_sbu_0, # of connection points: 6
#     Node 28, Type 1, BuildingBlock: BETDIP_clean_sbu_0, # of connection points: 6
#     Node 29, Type 1, BuildingBlock: BETDIP_clean_sbu_0, # of connection points: 6
#     Node 30, Type 1, BuildingBlock: BETDIP_clean_sbu_0, # of connection points: 6
#     Node 31, Type 1, BuildingBlock: BETDIP_clean_sbu_0, # of connection points: 6
#     Node 32, Type 1, BuildingBlock: BETDIP_clean_sbu_0, # of connection points: 6
#     Node 33, Type 1, BuildingBlock: BETDIP_clean_sbu_0, # of connection points: 6
#     Node 34, Type 1, BuildingBlock: BETDIP_clean_sbu_0, # of connection points: 6
#     Node 35, Type 1, BuildingBlock: BETDIP_clean_sbu_0, # of connection points: 6
#     Node 36, Type 1, BuildingBlock: BETDIP_clean_sbu_0, # of connection points: 6
#     Node 37, Type 1, BuildingBlock: BETDIP_clean_sbu_0, # of connection points: 6
#     Node 38, Type 1, BuildingBlock: BETDIP_clean_sbu_0, # of connection points: 6
#     Node 39, Type 1, BuildingBlock: BETDIP_clean_sbu_0, # of connection points: 6
#     Edge 40, Type (0, 1), BuildingBlock: UVAHIK_clean_linker_0, # of connection points: 2
#     Edge 41, Type (0, 1), BuildingBlock: UVAHIK_clean_linker_0, # of connection points: 2
#     Edge 42, Type (0, 1), BuildingBlock: UVAHIK_clean_linker_0, # of connection points: 2
#     Edge 43, Type (0, 1), BuildingBlock: UVAHIK_clean_linker_0, # of connection points: 2
#     Edge 44, Type (0, 1), BuildingBlock: UVAHIK_clean_linker_0, # of connection points: 2
#     Edge 45, Type (0, 1), BuildingBlock: UVAHIK_clean_linker_0, # of connection points: 2
#     Edge 46, Type (0, 1), BuildingBlock: UVAHIK_clean_linker_0, # of connection points: 2
#     Edge 47, Type (0, 1), BuildingBlock: UVAHIK_clean_linker_0, # of connection points: 2
#     Edge 48, Type (0, 1), BuildingBlock: UVAHIK_clean_linker_0, # of connection points: 2
#     Edge 49, Type (0, 1), BuildingBlock: UVAHIK_clean_linker_0, # of connection points: 2
#     Edge 50, Type (0, 1), BuildingBlock: UVAHIK_clean_linker_0, # of connection points: 2
#     Edge 51, Type (0, 1), BuildingBlock: UVAHIK_clean_linker_0, # of connection points: 2
#     Edge 52, Type (0, 1), BuildingBlock: UVAHIK_clean_linker_0, # of connection points: 2
#     Edge 53, Type (0, 1), BuildingBlock: UVAHIK_clean_linker_0, # of connection points: 2
#     Edge 54, Type (0, 1), BuildingBlock: UVAHIK_clean_linker_0, # of connection points: 2
#     Edge 55, Type (0, 1), BuildingBlock: UVAHIK_clean_linker_0, # of connection points: 2
#     Edge 56, Type (0, 1), BuildingBlock: UVAHIK_clean_linker_0, # of connection points: 2
#     Edge 57, Type (0, 1), BuildingBlock: UVAHIK_clean_linker_0, # of connection points: 2
#     Edge 58, Type (0, 1), BuildingBlock: UVAHIK_clean_linker_0, # of connection points: 2
#     Edge 59, Type (0, 1), BuildingBlock: UVAHIK_clean_linker_0, # of connection points: 2
#     Edge 60, Type (0, 1), BuildingBlock: UVAHIK_clean_linker_0, # of connection points: 2
#     Edge 61, Type (0, 1), BuildingBlock: UVAHIK_clean_linker_0, # of connection points: 2
#     Edge 62, Type (0, 1), BuildingBlock: UVAHIK_clean_linker_0, # of connection points: 2
#     Edge 63, Type (0, 1), BuildingBlock: UVAHIK_clean_linker_0, # of connection points: 2
#     Edge 64, Type (0, 1), BuildingBlock: UVAHIK_clean_linker_0, # of connection points: 2
#     Edge 65, Type (0, 1), BuildingBlock: UVAHIK_clean_linker_0, # of connection points: 2
#     Edge 66, Type (0, 1), BuildingBlock: UVAHIK_clean_linker_0, # of connection points: 2
#     Edge 67, Type (0, 1), BuildingBlock: UVAHIK_clean_linker_0, # of connection points: 2
#     Edge 68, Type (0, 1), BuildingBlock: UVAHIK_clean_linker_0, # of connection points: 2
#     Edge 69, Type (0, 1), BuildingBlock: UVAHIK_clean_linker_0, # of connection points: 2
#     Edge 70, Type (0, 1), BuildingBlock: UVAHIK_clean_linker_0, # of connection points: 2
#     Edge 71, Type (0, 1), BuildingBlock: UVAHIK_clean_linker_0, # of connection points: 2
#     Edge 72, Type (0, 1), BuildingBlock: UVAHIK_clean_linker_0, # of connection points: 2
#     Edge 73, Type (0, 1), BuildingBlock: UVAHIK_clean_linker_0, # of connection points: 2
#     Edge 74, Type (0, 1), BuildingBlock: UVAHIK_clean_linker_0, # of connection points: 2
#     Edge 75, Type (0, 1), BuildingBlock: UVAHIK_clean_linker_0, # of connection points: 2
#     Edge 76, Type (0, 1), BuildingBlock: UVAHIK_clean_linker_0, # of connection points: 2
#     Edge 77, Type (0, 1), BuildingBlock: UVAHIK_clean_linker_0, # of connection points: 2
#     Edge 78, Type (0, 1), BuildingBlock: UVAHIK_clean_linker_0, # of connection points: 2
#     Edge 79, Type (0, 1), BuildingBlock: UVAHIK_clean_linker_0, # of connection points: 2
#     Edge 80, Type (0, 1), BuildingBlock: UVAHIK_clean_linker_0, # of connection points: 2
#     Edge 81, Type (0, 1), BuildingBlock: UVAHIK_clean_linker_0, # of connection points: 2
#     Edge 82, Type (0, 1), BuildingBlock: UVAHIK_clean_linker_0, # of connection points: 2
#     Edge 83, Type (0, 1), BuildingBlock: UVAHIK_clean_linker_0, # of connection points: 2
#     Edge 84, Type (0, 1), BuildingBlock: UVAHIK_clean_linker_0, # of connection points: 2
#     Edge 85, Type (0, 1), BuildingBlock: UVAHIK_clean_linker_0, # of connection points: 2
#     Edge 86, Type (0, 1), BuildingBlock: UVAHIK_clean_linker_0, # of connection points: 2
#     Edge 87, Type (0, 1), BuildingBlock: UVAHIK_clean_linker_0, # of connection points: 2
#     Edge 88, Type (0, 1), BuildingBlock: UVAHIK_clean_linker_0, # of connection points: 2
#     Edge 89, Type (0, 1), BuildingBlock: UVAHIK_clean_linker_0, # of connection points: 2
#     Edge 90, Type (0, 1), BuildingBlock: UVAHIK_clean_linker_0, # of connection points: 2
#     Edge 91, Type (0, 1), BuildingBlock: UVAHIK_clean_linker_0, # of connection points: 2
#     Edge 92, Type (0, 1), BuildingBlock: UVAHIK_clean_linker_0, # of connection points: 2
#     Edge 93, Type (0, 1), BuildingBlock: UVAHIK_clean_linker_0, # of connection points: 2
#     Edge 94, Type (0, 1), BuildingBlock: UVAHIK_clean_linker_0, # of connection points: 2
#     Edge 95, Type (0, 1), BuildingBlock: UVAHIK_clean_linker_0, # of connection points: 2
#     Edge 96, Type (0, 1), BuildingBlock: UVAHIK_clean_linker_0, # of connection points: 2
#     Edge 97, Type (0, 1), BuildingBlock: UVAHIK_clean_linker_0, # of connection points: 2
#     Edge 98, Type (0, 1), BuildingBlock: UVAHIK_clean_linker_0, # of connection points: 2
#     Edge 99, Type (0, 1), BuildingBlock: UVAHIK_clean_linker_0, # of connection points: 2
#     Edge 100, Type (0, 1), BuildingBlock: UVAHIK_clean_linker_0, # of connection points: 2
#     Edge 101, Type (0, 1), BuildingBlock: UVAHIK_clean_linker_0, # of connection points: 2
#     Edge 102, Type (0, 1), BuildingBlock: UVAHIK_clean_linker_0, # of connection points: 2
#     Edge 103, Type (0, 1), BuildingBlock: UVAHIK_clean_linker_0, # of connection points: 2
#     Edge 104, Type (0, 1), BuildingBlock: UVAHIK_clean_linker_0, # of connection points: 2
#     Edge 105, Type (0, 1), BuildingBlock: UVAHIK_clean_linker_0, # of connection points: 2
#     Edge 106, Type (0, 1), BuildingBlock: UVAHIK_clean_linker_0, # of connection points: 2
#     Edge 107, Type (0, 1), BuildingBlock: UVAHIK_clean_linker_0, # of connection points: 2
#     Edge 108, Type (0, 1), BuildingBlock: UVAHIK_clean_linker_0, # of connection points: 2
#     Edge 109, Type (0, 1), BuildingBlock: UVAHIK_clean_linker_0, # of connection points: 2
#     Edge 110, Type (0, 1), BuildingBlock: UVAHIK_clean_linker_0, # of connection points: 2
#     Edge 111, Type (0, 1), BuildingBlock: UVAHIK_clean_linker_0, # of connection points: 2
#     Edge 112, Type (0, 1), BuildingBlock: UVAHIK_clean_linker_0, # of connection points: 2
#     Edge 113, Type (0, 1), BuildingBlock: UVAHIK_clean_linker_0, # of connection points: 2
#     Edge 114, Type (0, 1), BuildingBlock: UVAHIK_clean_linker_0, # of connection points: 2
#     Edge 115, Type (0, 1), BuildingBlock: UVAHIK_clean_linker_0, # of connection points: 2
#     Edge 116, Type (0, 1), BuildingBlock: UVAHIK_clean_linker_0, # of connection points: 2
#     Edge 117, Type (0, 1), BuildingBlock: UVAHIK_clean_linker_0, # of connection points: 2
#     Edge 118, Type (0, 1), BuildingBlock: UVAHIK_clean_linker_0, # of connection points: 2
#     Edge 119, Type (0, 1), BuildingBlock: UVAHIK_clean_linker_0, # of connection points: 2
#     Edge 120, Type (0, 1), BuildingBlock: UVAHIK_clean_linker_0, # of connection points: 2
#     Edge 121, Type (0, 1), BuildingBlock: UVAHIK_clean_linker_0, # of connection points: 2
#     Edge 122, Type (0, 1), BuildingBlock: UVAHIK_clean_linker_0, # of connection points: 2
#     Edge 123, Type (0, 1), BuildingBlock: UVAHIK_clean_linker_0, # of connection points: 2
#     Edge 124, Type (0, 1), BuildingBlock: UVAHIK_clean_linker_0, # of connection points: 2
#     Edge 125, Type (0, 1), BuildingBlock: UVAHIK_clean_linker_0, # of connection points: 2
#     Edge 126, Type (0, 1), BuildingBlock: UVAHIK_clean_linker_0, # of connection points: 2
#     Edge 127, Type (0, 1), BuildingBlock: UVAHIK_clean_linker_0, # of connection points: 2
#     Edge 128, Type (0, 1), BuildingBlock: UVAHIK_clean_linker_0, # of connection points: 2
#     Edge 129, Type (0, 1), BuildingBlock: UVAHIK_clean_linker_0, # of connection points: 2
#     Edge 130, Type (0, 1), BuildingBlock: UVAHIK_clean_linker_0, # of connection points: 2
#     Edge 131, Type (0, 1), BuildingBlock: UVAHIK_clean_linker_0, # of connection points: 2
#     Edge 132, Type (0, 1), BuildingBlock: UVAHIK_clean_linker_0, # of connection points: 2
#     Edge 133, Type (0, 1), BuildingBlock: UVAHIK_clean_linker_0, # of connection points: 2
#     Edge 134, Type (0, 1), BuildingBlock: UVAHIK_clean_linker_0, # of connection points: 2
#     Edge 135, Type (0, 1), BuildingBlock: UVAHIK_clean_linker_0, # of connection points: 2
# Relax obj value: 0.149
# Max RMSD: 0.268
# Mean RMSD: 0.138
data_MOF--net-gar--node1-QUQFOY_clean_sbu_3--node2-BETDIP_clean_sbu_0--edge1-UVAHIK_clean_linker_0
_symmetry_space_group_name_H-M    P1
_symmetry_Int_Tables_number       1
_symmetry_cell_setting            triclinic
loop_
_symmetry_equiv_pos_as_xyz
'x, y, z'
_cell_length_a     79.967274
_cell_length_b     74.428221
_cell_length_c     71.362806
_cell_angle_alpha  97.594517
_cell_angle_beta   97.828899
_cell_angle_gamma 100.45259
loop_
_atom_site_label
_atom_site_type_symbol
_atom_site_fract_x
_atom_site_fract_y
_atom_site_fract_z
_atom_type_partial_charge
C0 C 0.99712 0.29553 0.33528 0.0
O1 O 0.00319 0.30974 0.32838 0.0
Cd2 Cd 0.0301 0.32974 0.34229 0.0
O3 O 0.0058 0.29078 0.34945 0.0
Cd4 Cd 0.03426 0.30062 0.37021 0.0
C5 C 0.02166 0.33942 0.38796 0.0
O6 O 0.05045 0.30981 0.34551 0.0
O7 O 0.06415 0.3178 0.37451 0.0
O8 O 0.03475 0.26772 0.3694 0.0
C9 C 0.0645 0.31677 0.3567 0.0
O10 O 0.02401 0.34532 0.37236 0.0
C11 C 0.03835 0.26895 0.38748 0.0
O12 O 0.02396 0.32341 0.39047 0.0
O13 O 0.04031 0.28491 0.39733 0.0
C14 C 0.02381 0.73598 0.71359 0.0
O15 O 0.03734 0.73216 0.7223 0.0
Cd16 Cd 0.06445 0.73637 0.71066 0.0
O17 O 0.02412 0.7428 0.69816 0.0
Cd18 Cd 0.04477 0.75267 0.67714 0.0
C19 C 0.05393 0.71042 0.66572 0.0
O20 O 0.06989 0.76656 0.7017 0.0
O21 O 0.0741 0.76247 0.67232 0.0
O22 O 0.03457 0.78086 0.67265 0.0
C23 C 0.08014 0.76894 0.68974 0.0
O24 O 0.06228 0.71277 0.68268 0.0
C25 C 0.03026 0.77655 0.65459 0.0
O26 O 0.04537 0.72223 0.66042 0.0
O27 O 0.03184 0.76062 0.64711 0.0
C28 C 0.49524 0.79294 0.83857 0.0
O29 O 0.50184 0.8068 0.83148 0.0
Cd30 Cd 0.52871 0.82661 0.84623 0.0
O31 O 0.50317 0.78865 0.85351 0.0
Cd32 Cd 0.5305 0.79841 0.87604 0.0
C33 C 0.51844 0.83856 0.89069 0.0
O34 O 0.5481 0.80606 0.85208 0.0
O35 O 0.561 0.81369 0.88144 0.0
O36 O 0.52927 0.76541 0.87621 0.0
C37 C 0.56197 0.81249 0.86375 0.0
O38 O 0.52167 0.84363 0.87497 0.0
C39 C 0.53169 0.7668 0.89435 0.0
O40 O 0.5201 0.82263 0.89422 0.0
O41 O 0.53393 0.78296 0.90389 0.0
C42 C 0.52238 0.23503 0.21428 0.0
O43 O 0.53602 0.23172 0.22328 0.0
Cd44 Cd 0.56347 0.23765 0.21248 0.0
O45 O 0.52278 0.2424 0.19918 0.0
Cd46 Cd 0.54325 0.25465 0.17893 0.0
C47 C 0.55389 0.21316 0.16658 0.0
O48 O 0.56754 0.26822 0.20445 0.0
O49 O 0.57255 0.26715 0.17541 0.0
O50 O 0.52989 0.28131 0.17643 0.0
C51 C 0.57817 0.27204 0.19318 0.0
O52 O 0.56185 0.21518 0.18369 0.0
C53 C 0.52661 0.27849 0.15825 0.0
O54 O 0.54518 0.22489 0.16137 0.0
O55 O 0.53057 0.26417 0.14968 0.0
C56 C 0.03144 0.7837 0.1699 0.0
O57 O 0.04203 0.77626 0.17955 0.0
Cd58 Cd 0.06875 0.77118 0.17109 0.0
O59 O 0.0352 0.79019 0.15494 0.0
Cd60 Cd 0.06055 0.79394 0.13684 0.0
C61 C 0.05404 0.74703 0.12515 0.0
O62 O 0.08404 0.79952 0.16423 0.0
O63 O 0.09124 0.7925 0.13665 0.0
O64 O 0.05737 0.82593 0.13513 0.0
C65 C 0.0959 0.79723 0.15461 0.0
O66 O 0.05997 0.74736 0.14271 0.0
C67 C 0.05615 0.82474 0.11707 0.0
O68 O 0.05223 0.76191 0.11874 0.0
O69 O 0.057 0.80914 0.10794 0.0
C70 C 0.47807 0.76211 0.38189 0.0
O71 O 0.4893 0.7729 0.37544 0.0
Cd72 Cd 0.51994 0.77785 0.38396 0.0
O73 O 0.48264 0.75265 0.39468 0.0
Cd74 Cd 0.51144 0.75127 0.41365 0.0
C75 C 0.52149 0.79793 0.42989 0.0
O76 O 0.5278 0.74884 0.38694 0.0
O77 O 0.54305 0.75517 0.4151 0.0
O78 O 0.50207 0.71808 0.41491 0.0
C79 C 0.54246 0.75091 0.3972 0.0
O80 O 0.52645 0.79945 0.41387 0.0
C81 C 0.50613 0.71943 0.43295 0.0
O82 O 0.51405 0.78227 0.43323 0.0
O83 O 0.51193 0.73568 0.44218 0.0
C84 C 0.53241 0.28463 0.66974 0.0
O85 O 0.54312 0.27737 0.67946 0.0
Cd86 Cd 0.56984 0.27218 0.67128 0.0
O87 O 0.53606 0.29099 0.65467 0.0
Cd88 Cd 0.5616 0.29457 0.63678 0.0
C89 C 0.55531 0.24764 0.62549 0.0
O90 O 0.58488 0.3006 0.66438 0.0
O91 O 0.59237 0.29317 0.63704 0.0
O92 O 0.55915 0.32668 0.6346 0.0
C93 C 0.59687 0.29831 0.65496 0.0
O94 O 0.5612 0.24814 0.6431 0.0
C95 C 0.55795 0.32522 0.61652 0.0
O96 O 0.55349 0.26244 0.61891 0.0
O97 O 0.55829 0.30937 0.60759 0.0
C98 C 0.97761 0.26116 0.87807 0.0
O99 O 0.98932 0.27099 0.8713 0.0
Cd100 Cd 0.01966 0.27687 0.88172 0.0
O101 O 0.98161 0.25271 0.89199 0.0
Cd102 Cd 0.00997 0.25069 0.91183 0.0
C103 C 0.01963 0.29731 0.92755 0.0
O104 O 0.02684 0.24791 0.88575 0.0
O105 O 0.04177 0.25457 0.91405 0.0
O106 O 1.00037 0.21744 0.91229 0.0
C107 C 0.04139 0.25006 0.89621 0.0
O108 O 0.02463 0.29861 0.91151 0.0
C109 C 0.00416 0.21832 0.9303 0.0
O110 O 0.0124 0.28169 0.93121 0.0
O111 O 0.00974 0.23442 0.93999 0.0
C112 C 0.43447 0.0371 0.3039 0.0
O113 O 0.44169 0.02779 0.29239 0.0
Cd114 Cd 0.43171 0.01758 0.25881 0.0
O115 O 0.42118 0.04338 0.29722 0.0
Cd116 Cd 0.40344 0.04295 0.26176 0.0
C117 C 0.39027 0.99377 0.25941 0.0
O118 O 0.42911 0.04395 0.24337 0.0
O119 O 0.40468 0.03677 0.22524 0.0
O120 O 0.40137 0.07766 0.26924 0.0
C121 C 0.42097 0.04023 0.2263 0.0
O122 O 0.40573 0.99369 0.25687 0.0
C123 C 0.3852 0.07608 0.26413 0.0
O124 O 0.38542 0.00938 0.26221 0.0
O125 O 0.37719 0.05942 0.25824 0.0
C126 C 0.28519 0.1148 0.50351 0.0
O127 O 0.27467 0.10554 0.51221 0.0
Cd128 Cd 0.24821 0.11268 0.51961 0.0
O129 O 0.28176 0.12921 0.49711 0.0
Cd130 Cd 0.25695 0.14629 0.49592 0.0
C131 C 0.26298 0.15689 0.54477 0.0
O132 O 0.23347 0.11913 0.49078 0.0
O133 O 0.22585 0.14512 0.49747 0.0
O134 O 0.25905 0.15067 0.46266 0.0
C135 C 0.2214 0.12766 0.4931 0.0
O136 O 0.25653 0.13989 0.54452 0.0
C137 C 0.26096 0.16818 0.46569 0.0
O138 O 0.26536 0.163 0.52925 0.0
O139 O 0.26128 0.17563 0.48285 0.0
C140 C 0.11394 0.03977 0.82503 0.0
O141 O 0.10546 0.04814 0.81393 0.0
Cd142 Cd 0.11264 0.05399 0.78339 0.0
O143 O 0.127 0.03391 0.82021 0.0
Cd144 Cd 0.14246 0.03337 0.79228 0.0
C145 C 0.15372 0.07971 0.79558 0.0
O146 O 0.11723 0.02563 0.7666 0.0
O147 O 0.14184 0.03444 0.75804 0.0
O148 O 0.14655 1.00251 0.79742 0.0
C149 C 0.12582 0.02798 0.75313 0.0
O150 O 0.13818 0.07885 0.78796 0.0
C151 C 0.16268 0.00585 0.79736 0.0
O152 O 0.15854 0.0654 0.80055 0.0
O153 O 0.16943 0.02205 0.79506 0.0
C154 C 0.26338 0.90915 0.98527 0.0
O155 O 0.24993 0.9135 0.97702 0.0
Cd156 Cd 0.22211 0.89505 0.97784 0.0
O157 O 0.26225 0.89483 0.99336 0.0
Cd158 Cd 0.24123 0.86907 1.00018 0.0
C159 C 0.22416 0.85342 0.95326 0.0
O160 O 0.22367 0.88992 0.01102 0.0
O161 O 0.21349 0.86103 0.01156 0.0
O162 O 0.26261 0.87042 0.02832 0.0
C163 C 0.21246 0.87784 0.01586 0.0
O164 O 0.21807 0.86802 0.95266 0.0
C165 C 0.26333 0.85342 0.02513 0.0
O166 O 0.23312 0.85106 0.9685 0.0
O167 O 0.25335 0.84357 0.0106 0.0
C168 C 0.33217 0.41835 0.03859 0.0
O169 O 0.32194 0.42584 0.02849 0.0
Cd170 Cd 0.2912 0.41898 0.02358 0.0
O171 O 0.32643 0.40535 0.04751 0.0
Cd172 Cd 0.29674 0.38761 0.04944 0.0
C173 C 0.2869 0.37453 1.00076 0.0
O174 O 0.2823 0.41392 0.05328 0.0
O175 O 0.26548 0.38711 0.04642 0.0
O176 O 0.30515 0.38444 0.0832 0.0
C177 C 0.26708 0.40447 0.05081 0.0
O178 O 0.28416 0.3908 1.00016 0.0
C179 C 0.30073 0.3669 0.08064 0.0
O180 O 0.29271 0.36992 0.0166 0.0
O181 O 0.29487 0.35894 0.06352 0.0
C182 C 0.85707 0.14246 0.05557 0.0
O183 O 0.85926 0.13634 0.0713 0.0
Cd184 Cd 0.83835 0.1366 0.09241 0.0
O185 O 0.84386 0.14917 0.05102 0.0
Cd186 Cd 0.81879 0.15451 0.06572 0.0
C187 C 0.84013 0.18218 0.10578 0.0
O188 O 0.80946 0.1241 0.07495 0.0
O189 O 0.79788 0.14633 0.08646 0.0
O190 O 0.80216 0.14656 0.03363 0.0
C191 C 0.79748 0.1291 0.08301 0.0
O192 O 0.84247 0.16721 0.11149 0.0
C193 C 0.79701 0.1617 0.0337 0.0
O194 O 0.8331 0.18191 0.08865 0.0
O195 O 0.80196 0.17362 0.04882 0.0
C196 C 0.13151 0.50705 0.32308 0.0
O197 O 0.12409 0.51567 0.31131 0.0
Cd198 Cd 0.12932 0.51957 0.27959 0.0
O199 O 0.1436 0.49893 0.31799 0.0
Cd200 Cd 0.15881 0.49571 0.28562 0.0
C201 C 0.17121 0.54483 0.28633 0.0
O202 O 0.13145 0.4913 0.26068 0.0
O203 O 0.15493 0.4987 0.24996 0.0
O204 O 0.16133 0.46112 0.28507 0.0
C205 C 0.13859 0.4944 0.24625 0.0
O206 O 0.15503 0.54357 0.28181 0.0
C207 C 0.17758 0.46283 0.28611 0.0
O208 O 0.17697 0.53032 0.29003 0.0
O209 O 0.18548 0.47953 0.28721 0.0
C210 C 0.82983 0.92629 0.54456 0.0
O211 O 0.81879 0.93408 0.53612 0.0
Cd212 Cd 0.78843 0.92339 0.52969 0.0
O213 O 0.82497 0.91144 0.55129 0.0
Cd214 Cd 0.79613 0.89132 0.55301 0.0
C215 C 0.78758 0.88044 0.50429 0.0
O216 O 0.78069 0.91634 0.55932 0.0
O217 O 0.76447 0.88932 0.55084 0.0
O218 O 0.80637 0.88751 0.58606 0.0
C219 C 0.76572 0.90639 0.55691 0.0
O220 O 0.78413 0.89652 0.50456 0.0
C221 C 0.80187 0.86998 0.58333 0.0
O222 O 0.79311 0.87512 0.51982 0.0
O223 O 0.79523 0.86224 0.56633 0.0
C224 C 0.95457 1.00437 0.28454 0.0
O225 O 0.96101 0.99355 0.27366 0.0
Cd226 Cd 0.95045 0.98406 0.24024 0.0
O227 O 0.94166 0.0108 0.27785 0.0
Cd228 Cd 0.92323 0.00763 0.24588 0.0
C229 C 0.9102 0.9611 0.24253 0.0
O230 O 0.9468 0.01186 0.2275 0.0
O231 O 0.92142 1.00262 0.21068 0.0
O232 O 0.92002 0.03963 0.25483 0.0
C233 C 0.93733 0.00892 0.21124 0.0
O234 O 0.92488 0.95969 0.23821 0.0
C235 C 0.90376 0.03619 0.24992 0.0
O236 O 0.90667 0.97695 0.24691 0.0
O237 O 0.89657 0.01945 0.2435 0.0
C238 C 0.35564 0.6434 0.55021 0.0
O239 O 0.35759 0.63752 0.5661 0.0
Cd240 Cd 0.33727 0.63902 0.58773 0.0
O241 O 0.34295 0.65093 0.54564 0.0
Cd242 Cd 0.31895 0.65855 0.56137 0.0
C243 C 0.34169 0.68488 0.60174 0.0
O244 O 0.30809 0.6285 0.57061 0.0
O245 O 0.298 0.65176 0.58247 0.0
O246 O 0.30065 0.6517 0.53016 0.0
C247 C 0.2966 0.63436 0.57891 0.0
O248 O 0.34312 0.66954 0.60715 0.0
C249 C 0.29697 0.66759 0.5306 0.0
O250 O 0.33476 0.68519 0.58469 0.0
O251 O 0.30374 0.67952 0.54535 0.0
C252 C 0.4523 0.50123 0.78499 0.0
O253 O 0.45784 0.48968 0.77392 0.0
Cd254 Cd 0.4469 0.48022 0.74039 0.0
O255 O 0.43989 0.50855 0.7786 0.0
Cd256 Cd 0.42095 0.50612 0.74721 0.0
C257 C 0.40605 0.45959 0.74322 0.0
O258 O 0.44402 0.50815 0.72787 0.0
O259 O 0.41818 0.50267 0.71208 0.0
O260 O 0.41922 0.53856 0.75647 0.0
C261 C 0.43426 0.50649 0.71194 0.0
O262 O 0.42033 0.45736 0.73826 0.0
C263 C 0.4029 0.53576 0.75239 0.0
O264 O 0.40347 0.47578 0.74826 0.0
O265 O 0.39505 0.51915 0.74636 0.0
C266 C 0.63251 0.00802 0.82126 0.0
O267 O 0.62603 0.01754 0.80977 0.0
Cd268 Cd 0.63104 0.02088 0.77766 0.0
O269 O 0.6438 0.99879 0.81593 0.0
Cd270 Cd 0.65908 0.99503 0.78368 0.0
C271 C 0.6732 0.04395 0.78363 0.0
O272 O 0.63169 0.99193 0.75906 0.0
O273 O 0.65503 0.99628 0.74751 0.0
O274 O 0.66158 0.9605 0.78399 0.0
C275 C 0.6387 0.99361 0.74426 0.0
O276 O 0.65728 0.04371 0.77841 0.0
C277 C 0.6778 0.9622 0.78471 0.0
O278 O 0.67796 0.0292 0.7882 0.0
O279 O 0.68565 0.97884 0.78531 0.0
C280 C 0.78632 0.61827 0.00632 0.0
O281 O 0.77521 0.60849 0.01391 0.0
Cd282 Cd 0.74891 0.61636 0.02096 0.0
O283 O 0.78338 0.63316 1.00067 0.0
Cd284 Cd 0.75866 0.65025 0.99891 0.0
C285 C 0.76435 0.66005 0.04744 0.0
O286 O 0.73423 0.62379 0.99252 0.0
O287 O 0.7283 0.65015 0.00234 0.0
O288 O 0.76067 0.65429 0.96563 0.0
C289 C 0.72287 0.63304 0.99607 0.0
O290 O 0.75745 0.64307 0.04661 0.0
C291 C 0.76275 0.67182 0.96847 0.0
O292 O 0.76722 0.66653 0.03224 0.0
O293 O 0.76325 0.67949 0.9856 0.0
C294 C 0.93482 0.53472 0.80517 0.0
O295 O 0.94089 0.52457 0.79318 0.0
Cd296 Cd 0.9307 0.51547 0.75946 0.0
O297 O 0.92218 0.54226 0.79912 0.0
Cd298 Cd 0.90402 0.54253 0.76406 0.0
C299 C 0.88911 0.49327 0.76014 0.0
O300 O 0.92938 0.5428 0.74537 0.0
O301 O 0.9049 0.53666 0.72742 0.0
O302 O 0.90232 0.5774 0.77173 0.0
C303 C 0.92117 0.53962 0.72837 0.0
O304 O 0.90399 0.49222 0.75618 0.0
C305 C 0.88617 0.57599 0.76662 0.0
O306 O 0.88545 0.50931 0.76464 0.0
O307 O 0.87803 0.55938 0.76073 0.0
C308 C 0.76278 0.41142 0.4927 0.0
O309 O 0.74886 0.41481 0.48432 0.0
Cd310 Cd 0.72062 0.3955 0.48194 0.0
O311 O 0.76271 0.39697 0.50052 0.0
Cd312 Cd 0.74377 0.36921 0.50692 0.0
C313 C 0.7265 0.35415 0.45906 0.0
O314 O 0.72319 0.38692 0.51309 0.0
O315 O 0.7172 0.35998 0.52131 0.0
O316 O 0.76432 0.3692 0.53545 0.0
C317 C 0.71268 0.37518 0.51921 0.0
O318 O 0.71995 0.36842 0.45787 0.0
C319 C 0.76732 0.35339 0.52956 0.0
O320 O 0.73517 0.35207 0.47467 0.0
O321 O 0.75897 0.34485 0.51347 0.0
C322 C 0.61521 0.54173 0.3276 0.0
O323 O 0.60741 0.55134 0.31733 0.0
Cd324 Cd 0.61197 0.55487 0.28522 0.0
O325 O 0.6269 0.53404 0.32161 0.0
Cd326 Cd 0.64146 0.53284 0.2931 0.0
C327 C 0.65318 0.5794 0.29434 0.0
O328 O 0.61495 0.5254 0.2692 0.0
O329 O 0.63894 0.52978 0.25824 0.0
O330 O 0.64597 0.50257 0.29995 0.0
C331 C 0.62264 0.52525 0.25478 0.0
O332 O 0.63754 0.57888 0.28744 0.0
C333 C 0.66194 0.50569 0.29893 0.0
O334 O 0.65786 0.56502 0.29937 0.0
O335 O 0.6684 0.5215 0.29534 0.0
Tb336 Tb 0.01204 0.01018 0.00871 0.0
Tb337 Tb 0.04694 0.02897 0.02995 0.0
C338 C 0.98059 1.00295 0.9947 0.0
C339 C 0.96914 0.01543 0.98924 0.0
C340 C 0.97091 0.03282 1.00052 0.0
C341 C 0.96185 0.04574 0.99416 0.0
C342 C 0.95078 0.04153 0.97649 0.0
C343 C 0.94839 0.0239 0.96549 0.0
C344 C 0.95769 0.01096 0.97176 0.0
C345 C 0.03773 0.00682 0.9899 0.0
C346 C 0.02614 0.05393 0.00979 0.0
C347 C 0.07849 0.0348 0.04253 0.0
C348 C 0.08917 0.02093 0.04552 0.0
C349 C 0.08767 1.00552 0.03123 0.0
C350 C 0.09539 0.99079 0.03507 0.0
C351 C 0.10472 0.99108 0.05329 0.0
C352 C 0.10681 0.00678 0.06738 0.0
C353 C 0.09902 0.02158 0.06352 0.0
C354 C 0.02148 0.0327 0.04891 0.0
C355 C 0.03267 0.98545 0.02959 0.0
O356 O 0.98633 1.00452 0.01306 0.0
O357 O 0.9928 1.00202 0.98438 0.0
O358 O 0.03605 0.02098 1.0006 0.0
O359 O 0.02417 0.99392 0.9887 0.0
O360 O 0.01275 0.03997 0.00795 0.0
O361 O 0.04192 0.05228 0.0165 0.0
O362 O 0.07231 0.03535 0.02469 0.0
O363 O 0.06684 0.03535 0.05369 0.0
O364 O 0.02289 0.01838 0.03816 0.0
O365 O 0.03531 0.04535 0.05024 0.0
O366 O 0.04607 0.99929 0.03103 0.0
O367 O 0.01693 0.98708 0.02269 0.0
H368 H 0.97961 0.03664 0.01408 0.0
H369 H 0.9635 0.0591 0.00309 0.0
H370 H 0.93967 0.02034 0.95193 0.0
H371 H 0.95623 0.99765 0.96282 0.0
H372 H 0.08 1.00447 0.01724 0.0
H373 H 0.09386 0.97904 0.02382 0.0
H374 H 0.11395 0.00734 0.08155 0.0
H375 H 0.10016 0.03321 0.07481 0.0
Tb376 Tb 0.28363 0.76274 0.25741 0.0
Tb377 Tb 0.27807 0.77726 0.29529 0.0
C378 C 0.28603 0.75634 0.22254 0.0
C379 C 0.29579 0.76548 0.20914 0.0
C380 C 0.29334 0.7827 0.20456 0.0
C381 C 0.30157 0.79029 0.19055 0.0
C382 C 0.31251 0.78091 0.18092 0.0
C383 C 0.31563 0.76416 0.18629 0.0
C384 C 0.30726 0.75648 0.20018 0.0
C385 C 0.30723 0.7592 0.28562 0.0
C386 C 0.29745 0.80659 0.27374 0.0
C387 C 0.2768 0.78271 0.33048 0.0
C388 C 0.27177 0.77071 0.34438 0.0
C389 C 0.28287 0.7724 0.36176 0.0
C390 C 0.27909 0.76031 0.37464 0.0
C391 C 0.26405 0.74643 0.3704 0.0
C392 C 0.25267 0.74501 0.35323 0.0
C393 C 0.25657 0.75698 0.3402 0.0
C394 C 0.25481 0.78179 0.26744 0.0
C395 C 0.26391 0.73373 0.27855 0.0
O396 O 0.27409 0.76421 0.22895 0.0
O397 O 0.2951 0.75011 0.23593 0.0
O398 O 0.30058 0.77313 0.28411 0.0
O399 O 0.30104 0.74677 0.27067 0.0
O400 O 0.29357 0.79305 0.25868 0.0
O401 O 0.29397 0.80311 0.29068 0.0
O402 O 0.29073 0.78033 0.3236 0.0
O403 O 0.26449 0.78458 0.31725 0.0
O404 O 0.26108 0.76745 0.26837 0.0
O405 O 0.26098 0.79371 0.28285 0.0
O406 O 0.26937 0.7467 0.294 0.0
O407 O 0.26599 0.73793 0.26146 0.0
H408 H 0.28466 0.79005 0.21132 0.0
H409 H 0.29861 0.80306 0.18662 0.0
H410 H 0.32415 0.75671 0.17937 0.0
H411 H 0.30943 0.74324 0.20359 0.0
H412 H 0.29465 0.78286 0.3652 0.0
H413 H 0.28798 0.76173 0.38789 0.0
H414 H 0.24107 0.7343 0.34965 0.0
H415 H 0.24788 0.75527 0.32676 0.0
Tb416 Tb 0.5509 0.02515 0.52381 0.0
Tb417 Tb 0.51226 0.01732 0.53224 0.0
C418 C 0.58311 0.02908 0.52765 0.0
C419 C 0.59645 0.01919 0.53457 0.0
C420 C 0.59213 1.00144 0.5394 0.0
C421 C 0.60506 0.99169 0.54441 0.0
C422 C 0.62252 0.99952 0.54461 0.0
C423 C 0.62671 0.01748 0.5401 0.0
C424 C 0.6138 0.02719 0.53514 0.0
C425 C 0.52798 0.02845 0.4933 0.0
C426 C 0.52914 0.98374 0.51804 0.0
C427 C 0.48006 0.01377 0.52779 0.0
C428 C 0.46692 0.02395 0.52072 0.0
C429 C 0.47031 0.04339 0.52314 0.0
C430 C 0.45713 0.05277 0.51797 0.0
C431 C 0.44034 0.04288 0.51014 0.0
C432 C 0.43722 0.02341 0.50714 0.0
C433 C 0.45037 0.01406 0.51241 0.0
C434 C 0.53514 0.01358 0.5626 0.0
C435 C 0.53417 0.05875 0.53828 0.0
O436 O 0.57513 0.03666 0.54054 0.0
O437 O 0.57258 0.02066 0.51198 0.0
O438 O 0.52547 0.02472 0.50964 0.0
O439 O 0.54456 0.03072 0.49413 0.0
O440 O 0.54446 0.99501 0.52062 0.0
O441 O 0.51471 0.98957 0.52034 0.0
O442 O 0.48813 0.00616 0.51503 0.0
O443 O 0.49041 0.02168 0.54378 0.0
O444 O 0.53769 0.01775 0.54642 0.0
O445 O 0.51853 0.01111 0.56172 0.0
O446 O 0.51887 0.04753 0.53619 0.0
O447 O 0.5485 0.05293 0.53546 0.0
H448 H 0.57877 0.99503 0.539 0.0
H449 H 0.60139 0.978 0.54801 0.0
H450 H 0.63994 0.02385 0.53978 0.0
H451 H 0.61735 0.04081 0.53129 0.0
H452 H 0.48304 0.05134 0.52942 0.0
H453 H 0.46003 0.06776 0.52024 0.0
H454 H 0.42443 0.01535 0.50136 0.0
H455 H 0.44747 0.99907 0.51045 0.0
Tb456 Tb 0.26231 0.2692 0.76803 0.0
Tb457 Tb 0.3008 0.26976 0.77763 0.0
C458 C 0.23013 0.26386 0.76658 0.0
C459 C 0.21721 0.26127 0.77946 0.0
C460 C 0.20254 0.2471 0.77359 0.0
C461 C 0.1894 0.24505 0.78467 0.0
C462 C 0.19057 0.25723 0.80187 0.0
C463 C 0.20558 0.27108 0.80807 0.0
C464 C 0.21878 0.27308 0.79697 0.0
C465 C 0.28314 0.29906 0.76294 0.0
C466 C 0.28187 0.2801 0.81141 0.0
C467 C 0.33313 0.2767 0.78006 0.0
C468 C 0.34688 0.27617 0.76832 0.0
C469 C 0.34401 0.27646 0.74851 0.0
C470 C 0.35769 0.27669 0.73806 0.0
C471 C 0.37444 0.27663 0.74728 0.0
C472 C 0.3771 0.27633 0.76714 0.0
C473 C 0.36348 0.27605 0.77749 0.0
C474 C 0.28002 0.2397 0.78259 0.0
C475 C 0.28096 0.25764 0.73409 0.0
O476 O 0.23854 0.2505 0.76357 0.0
O477 O 0.24006 0.28028 0.76858 0.0
O478 O 0.28524 0.28996 0.77641 0.0
O479 O 0.26835 0.29216 0.75217 0.0
O480 O 0.26721 0.27289 0.79954 0.0
O481 O 0.29689 0.28262 0.80532 0.0
O482 O 0.32346 0.28884 0.77734 0.0
O483 O 0.32425 0.26078 0.78235 0.0
O484 O 0.27789 0.24904 0.76934 0.0
O485 O 0.29496 0.24641 0.79317 0.0
O486 O 0.29581 0.26331 0.74608 0.0
O487 O 0.26586 0.25706 0.7399 0.0
H488 H 0.2011 0.23775 0.76021 0.0
H489 H 0.17824 0.23397 0.77965 0.0
H490 H 0.2069 0.28076 0.82118 0.0
H491 H 0.23003 0.28408 0.8019 0.0
H492 H 0.33128 0.27664 0.74119 0.0
H493 H 0.35514 0.27679 0.72278 0.0
H494 H 0.38983 0.27667 0.77484 0.0
H495 H 0.36597 0.27601 0.79279 0.0
Tb496 Tb 0.02759 0.04378 0.52883 0.0
Tb497 Tb 0.02699 1.00126 0.51756 0.0
C498 C 0.03033 0.07812 0.53137 0.0
C499 C 0.03213 0.09163 0.5182 0.0
C500 C 0.03835 0.08775 0.50095 0.0
C501 C 0.03884 0.10038 0.48805 0.0
C502 C 0.03294 0.11691 0.49217 0.0
C503 C 0.0269 0.12076 0.50958 0.0
C504 C 0.02652 0.10821 0.52247 0.0
C505 C 1.00115 0.02008 0.5354 0.0
C506 C 0.01776 0.024 0.485 0.0
C507 C 0.01644 0.96696 0.51367 0.0
C508 C 0.02072 0.95177 0.52341 0.0
C509 C 0.02382 0.95386 0.5435 0.0
C510 C 0.02608 0.93881 0.55259 0.0
C511 C 0.02553 0.92139 0.54182 0.0
C512 C 0.02313 0.91956 0.52169 0.0
C513 C 0.02065 0.93461 0.51258 0.0
C514 C 0.05742 0.02195 0.51575 0.0
C515 C 0.04289 0.02246 0.55982 0.0
O516 O 0.04348 0.07021 0.53536 0.0
O517 O 0.01551 0.0664 0.52804 0.0
O518 O 0.00879 0.01861 0.52115 0.0
O519 O 0.00791 0.03572 0.54642 0.0
O520 O 0.02305 0.03962 0.49742 0.0
O521 O 0.01657 0.00737 0.49005 0.0
O522 O 0.0098 0.97911 0.52369 0.0
O523 O 0.02783 0.97463 0.50398 0.0
O524 O 0.04406 0.02671 0.5202 0.0
O525 O 0.05402 1.00396 0.5124 0.0
O526 O 0.03546 0.00648 0.54865 0.0
O527 O 0.04322 0.03879 0.55417 0.0
H528 H 0.04257 0.07489 0.49732 0.0
H529 H 0.04345 0.09703 0.47469 0.0
H530 H 0.02251 0.13351 0.51325 0.0
H531 H 0.02161 0.11135 0.53569 0.0
H532 H 0.024 0.96699 0.55221 0.0
H533 H 0.02763 0.94073 0.56808 0.0
H534 H 0.02296 0.90646 0.51295 0.0
H535 H 0.01835 0.93277 0.49706 0.0
Tb536 Tb 0.28208 0.75614 0.7592 0.0
Tb537 Tb 0.29215 0.79269 0.78645 0.0
C538 C 0.28241 0.72762 0.73618 0.0
C539 C 0.29165 0.71244 0.73802 0.0
C540 C 0.29282 0.70025 0.72176 0.0
C541 C 0.30196 0.68604 0.72355 0.0
C542 C 0.31014 0.68389 0.74165 0.0
C543 C 0.30895 0.69625 0.75788 0.0
C544 C 0.29974 0.71033 0.75608 0.0
C545 C 0.26945 0.75697 0.79138 0.0
C546 C 0.31746 0.76613 0.7893 0.0
C547 C 0.29143 0.82053 0.8102 0.0
C548 C 0.28167 0.83549 0.80984 0.0
C549 C 0.27409 0.84086 0.82572 0.0
C550 C 0.26434 0.85467 0.82538 0.0
C551 C 0.26214 0.86342 0.80917 0.0
C552 C 0.2697 0.85794 0.79326 0.0
C553 C 0.27928 0.84403 0.79353 0.0
C554 C 0.30482 0.79205 0.7543 0.0
C555 C 0.25723 0.78299 0.75563 0.0
O556 O 0.29216 0.74379 0.73628 0.0
O557 O 0.27071 0.72867 0.7472 0.0
O558 O 0.28429 0.76454 0.78929 0.0
O559 O 0.26123 0.74757 0.77515 0.0
O560 O 0.30844 0.75658 0.77294 0.0
O561 O 0.31199 0.77962 0.79916 0.0
O562 O 0.28229 0.80405 0.81007 0.0
O563 O 0.30283 0.82026 0.79867 0.0
O564 O 0.29005 0.7843 0.75639 0.0
O565 O 0.31286 0.8018 0.77046 0.0
O566 O 0.26574 0.7923 0.77237 0.0
O567 O 0.2631 0.76979 0.74583 0.0
H568 H 0.28666 0.70171 0.70771 0.0
H569 H 0.30244 0.67663 0.71078 0.0
H570 H 0.31532 0.69522 0.77198 0.0
H571 H 0.299 0.71965 0.76882 0.0
H572 H 0.27565 0.83431 0.83836 0.0
H573 H 0.25871 0.85867 0.83786 0.0
H574 H 0.26798 0.86425 0.78047 0.0
H575 H 0.28472 0.8399 0.78094 0.0
Tb576 Tb 0.51653 0.02707 0.01414 0.0
Tb577 Tb 0.54386 0.01492 0.03892 0.0
C578 C 0.48854 0.03008 0.99529 0.0
C579 C 0.47038 0.02453 0.99718 0.0
C580 C 0.465 0.00939 0.00625 0.0
C581 C 0.44759 1.00357 0.00715 0.0
C582 C 0.43524 0.01292 0.9992 0.0
C583 C 0.44081 0.02845 0.99063 0.0
C584 C 0.45825 0.03416 0.9896 0.0
C585 C 0.54284 0.05395 0.03045 0.0
C586 C 0.51175 0.02225 0.05783 0.0
C587 C 0.57084 0.01065 0.059 0.0
C588 C 0.58958 0.01529 0.06026 0.0
C589 C 0.59729 0.02082 0.04486 0.0
C590 C 0.61518 0.02684 0.0472 0.0
C591 C 0.62548 0.02759 0.06502 0.0
C592 C 0.6177 0.0215 0.08017 0.0
C593 C 0.59989 0.01538 0.07778 0.0
C594 C 0.51708 0.98846 0.02282 0.0
C595 C 0.54864 0.01985 0.99519 0.0
O596 O 0.49643 0.01647 0.99121 0.0
O597 O 0.4979 0.04313 0.00865 0.0
O598 O 0.53603 0.04054 0.03775 0.0
O599 O 0.53411 0.05304 0.01354 0.0
O600 O 0.50418 0.02245 0.04001 0.0
O601 O 0.5282 0.02102 0.06113 0.0
O602 O 0.56346 0.02473 0.06253 0.0
O603 O 0.56216 0.99849 0.0444 0.0
O604 O 0.52431 1.00155 0.01546 0.0
O605 O 0.5257 0.98927 0.03974 0.0
O606 O 0.55626 0.01956 0.01301 0.0
O607 O 0.53221 0.02123 0.99194 0.0
H608 H 0.47421 1.00181 0.01227 0.0
H609 H 0.44379 0.9914 0.01358 0.0
H610 H 0.43168 0.03612 0.98463 0.0
H611 H 0.46225 0.04598 0.98269 0.0
H612 H 0.58946 0.02095 0.03127 0.0
H613 H 0.62086 0.03162 0.03535 0.0
H614 H 0.62537 0.02178 0.09399 0.0
H615 H 0.59411 0.01118 0.08981 0.0
Tb616 Tb 0.26575 0.25723 0.26674 0.0
Tb617 Tb 0.29884 0.28264 0.28276 0.0
C618 C 0.23474 0.24182 0.26313 0.0
C619 C 0.21999 0.25056 0.26648 0.0
C620 C 0.21449 0.25101 0.28438 0.0
C621 C 0.20385 0.26298 0.28975 0.0
C622 C 0.19821 0.27447 0.2772 0.0
C623 C 0.20234 0.27284 0.25865 0.0
C624 C 0.21325 0.26105 0.25335 0.0
C625 C 0.28293 0.27007 0.24081 0.0
C626 C 0.26654 0.3016 0.27986 0.0
C627 C 0.32975 0.29864 0.28633 0.0
C628 C 0.3448 0.29101 0.28207 0.0
C629 C 0.34313 0.27726 0.26604 0.0
C630 C 0.35694 0.26899 0.26265 0.0
C631 C 0.37278 0.27434 0.27513 0.0
C632 C 0.37448 0.28818 0.29116 0.0
C633 C 0.36056 0.29643 0.2946 0.0
C634 C 0.28165 0.26954 0.30862 0.0
C635 C 0.29785 0.23816 0.26991 0.0
O636 O 0.24601 0.24251 0.2785 0.0
O637 O 0.2422 0.24589 0.24855 0.0
O638 O 0.28148 0.27891 0.25665 0.0
O639 O 0.27375 0.25341 0.23864 0.0
O640 O 0.25749 0.28421 0.27523 0.0
O641 O 0.28366 0.30467 0.28255 0.0
O642 O 0.31817 0.2986 0.27147 0.0
O643 O 0.32281 0.29284 0.30058 0.0
O644 O 0.28319 0.26092 0.29274 0.0
O645 O 0.29076 0.28626 0.31092 0.0
O646 O 0.30693 0.25556 0.27423 0.0
O647 O 0.28074 0.23513 0.26742 0.0
H648 H 0.21927 0.24294 0.29471 0.0
H649 H 0.20043 0.26368 0.30397 0.0
H650 H 0.19798 0.28147 0.24869 0.0
H651 H 0.21714 0.26095 0.23938 0.0
H652 H 0.33106 0.27265 0.25621 0.0
H653 H 0.35509 0.25815 0.25039 0.0
H654 H 0.38659 0.29273 0.30092 0.0
H655 H 0.36204 0.30691 0.30712 0.0
Tb656 Tb 0.52945 0.53734 0.0287 0.0
Tb657 Tb 0.53309 0.49849 0.01624 0.0
C658 C 0.52992 0.57149 0.0331 0.0
C659 C 0.52868 0.58551 0.02063 0.0
C660 C 0.53439 0.58389 0.00284 0.0
C661 C 0.53328 0.59759 0.99135 0.0
C662 C 0.52638 0.61305 0.99744 0.0
C663 C 0.52036 0.61433 0.0151 0.0
C664 C 0.52154 0.60069 0.02659 0.0
C665 C 0.50443 0.51136 0.03451 0.0
C666 C 0.51959 0.51923 0.98442 0.0
C667 C 0.53081 0.46409 0.01237 0.0
C668 C 0.52741 0.45 0.02467 0.0
C669 C 0.51785 0.4526 0.03955 0.0
C670 C 0.51442 0.43888 0.0509 0.0
C671 C 0.52059 0.42239 0.04762 0.0
C672 C 0.53037 0.42002 0.03283 0.0
C673 C 0.5337 0.4337 0.02144 0.0
C674 C 0.55843 0.52401 0.01032 0.0
C675 C 0.54363 0.51695 0.06025 0.0
O676 O 0.54381 0.56447 0.03383 0.0
O677 O 0.51593 0.5589 0.03189 0.0
O678 O 0.51188 0.51128 0.02008 0.0
O679 O 0.51034 0.52689 0.04599 0.0
O680 O 0.52393 0.53452 0.9973 0.0
O681 O 0.52046 0.5028 0.98903 0.0
O682 O 0.51791 0.47197 0.00727 0.0
O683 O 0.54547 0.47599 0.01749 0.0
O684 O 0.55076 0.52458 0.02463 0.0
O685 O 0.55291 0.50801 0.99954 0.0
O686 O 0.53776 0.50154 0.04771 0.0
O687 O 0.54376 0.53341 0.05524 0.0
H688 H 0.53985 0.57218 0.99794 0.0
H689 H 0.53816 0.59626 0.97791 0.0
H690 H 0.51468 0.62587 0.02004 0.0
H691 H 0.51691 0.60202 0.04019 0.0
H692 H 0.51293 0.46517 0.0423 0.0
H693 H 0.50673 0.44109 0.06204 0.0
H694 H 0.53562 0.40767 0.03017 0.0
H695 H 0.5412 0.43156 0.01009 0.0
Tb696 Tb 0.78142 0.25563 0.26318 0.0
Tb697 Tb 0.79119 0.29258 0.28979 0.0
C698 C 0.7814 0.22709 0.23997 0.0
C699 C 0.7909 0.21202 0.24092 0.0
C700 C 0.79003 0.19898 0.22458 0.0
C701 C 0.79915 0.18467 0.22547 0.0
C702 C 0.80937 0.1833 0.24271 0.0
C703 C 0.81022 0.19648 0.25903 0.0
C704 C 0.80099 0.21065 0.25817 0.0
C705 C 0.77047 0.25639 0.29637 0.0
C706 C 0.81777 0.2673 0.29149 0.0
C707 C 0.79056 0.32042 0.31359 0.0
C708 C 0.78095 0.3355 0.31323 0.0
C709 C 0.77387 0.34139 0.32933 0.0
C710 C 0.76428 0.35533 0.32899 0.0
C711 C 0.76171 0.36369 0.31256 0.0
C712 C 0.76877 0.3577 0.29642 0.0
C713 C 0.77821 0.34366 0.2967 0.0
C714 C 0.80218 0.29213 0.25666 0.0
C715 C 0.75525 0.28123 0.26063 0.0
O716 O 0.79077 0.24335 0.23965 0.0
O717 O 0.77038 0.22792 0.25186 0.0
O718 O 0.78481 0.26445 0.29334 0.0
O719 O 0.76185 0.24654 0.28055 0.0
O720 O 0.80844 0.25734 0.27548 0.0
O721 O 0.81208 0.28041 0.30169 0.0
O722 O 0.78126 0.30399 0.31334 0.0
O723 O 0.80199 0.32009 0.30212 0.0
O724 O 0.78795 0.28379 0.25967 0.0
O725 O 0.81051 0.30243 0.2724 0.0
O726 O 0.76418 0.29107 0.27694 0.0
O727 O 0.76122 0.26825 0.25061 0.0
H728 H 0.78233 0.19988 0.21115 0.0
H729 H 0.79838 0.17481 0.21262 0.0
H730 H 0.81781 0.19566 0.27256 0.0
H731 H 0.80168 0.2205 0.27099 0.0
H732 H 0.77571 0.33514 0.34214 0.0
H733 H 0.75904 0.35973 0.34164 0.0
H734 H 0.76677 0.36369 0.28347 0.0
H735 H 0.78326 0.33912 0.28396 0.0
Tb736 Tb 0.01483 0.52233 0.51516 0.0
Tb737 Tb 0.04317 0.51207 0.5406 0.0
C738 C 0.98666 0.52348 0.49522 0.0
C739 C 0.96843 0.52076 0.49724 0.0
C740 C 0.96251 0.51269 0.51242 0.0
C741 C 0.94491 0.50898 0.51335 0.0
C742 C 0.93298 0.51313 0.49901 0.0
C743 C 0.93904 0.52163 0.48409 0.0
C744 C 0.95665 0.52545 0.48325 0.0
C745 C 0.04046 0.55018 0.53066 0.0
C746 C 0.01082 0.51905 0.55947 0.0
C747 C 0.07088 0.50973 0.56066 0.0
C748 C 0.08947 0.51648 0.56196 0.0
C749 C 0.09701 0.51931 0.54566 0.0
C750 C 0.1146 0.52697 0.54763 0.0
C751 C 0.12478 0.53207 0.56592 0.0
C752 C 0.11719 0.52885 0.58212 0.0
C753 C 0.09969 0.5211 0.58013 0.0
C754 C 0.01745 0.48438 0.52466 0.0
C755 C 0.04749 0.51637 0.49669 0.0
O756 O 0.99335 0.50868 0.49494 0.0
O757 O 0.99689 0.53801 0.50588 0.0
O758 O 0.03415 0.53691 0.53848 0.0
O759 O 0.03152 0.54864 0.51373 0.0
O760 O 0.00314 0.51934 0.54171 0.0
O761 O 0.02723 0.51762 0.56268 0.0
O762 O 0.0621 0.52249 0.56475 0.0
O763 O 0.06299 0.49744 0.54579 0.0
O764 O 0.02409 0.49769 0.51719 0.0
O765 O 0.02615 0.4857 0.54164 0.0
O766 O 0.05535 0.51724 0.51467 0.0
O767 O 0.03075 0.51637 0.49323 0.0
H768 H 0.9714 0.50879 0.52323 0.0
H769 H 0.94059 0.5022 0.52487 0.0
H770 H 0.93014 0.52511 0.47294 0.0
H771 H 0.96105 0.53168 0.47144 0.0
H772 H 0.08928 0.51593 0.53151 0.0
H773 H 0.12011 0.52945 0.53493 0.0
H774 H 0.12478 0.53247 0.59636 0.0
H775 H 0.09405 0.51903 0.59285 0.0
Tb776 Tb 0.76425 0.77422 0.27115 0.0
Tb777 Tb 0.80159 0.77004 0.2809 0.0
C778 C 0.73231 0.77267 0.26919 0.0
C779 C 0.71884 0.77037 0.28132 0.0
C780 C 0.72091 0.76237 0.29803 0.0
C781 C 0.70747 0.75973 0.30878 0.0
C782 C 0.69175 0.76499 0.30293 0.0
C783 C 0.68997 0.7733 0.28636 0.0
C784 C 0.70336 0.77593 0.27569 0.0
C785 C 0.78739 0.80083 0.26334 0.0
C786 C 0.78413 0.78471 0.31439 0.0
C787 C 0.83341 0.77109 0.28238 0.0
C788 C 0.84656 0.77299 0.26953 0.0
C789 C 0.85602 0.7905 0.26804 0.0
C790 C 0.86946 0.79206 0.25725 0.0
C791 C 0.8739 0.77616 0.24793 0.0
C792 C 0.86418 0.7587 0.24909 0.0
C793 C 0.85072 0.75714 0.25977 0.0
C794 C 0.77802 0.74306 0.28766 0.0
C795 C 0.78175 0.75966 0.23757 0.0
O796 O 0.73916 0.75829 0.26483 0.0
O797 O 0.74381 0.78815 0.27339 0.0
O798 O 0.78898 0.79247 0.27751 0.0
O799 O 0.77171 0.79594 0.25427 0.0
O800 O 0.76922 0.77886 0.30262 0.0
O801 O 0.79907 0.78462 0.30843 0.0
O802 O 0.82692 0.78561 0.2874 0.0
O803 O 0.82171 0.75573 0.27883 0.0
O804 O 0.777 0.7518 0.27379 0.0
O805 O 0.79328 0.74845 0.29781 0.0
O806 O 0.79668 0.76517 0.24939 0.0
O807 O 0.76682 0.75999 0.2435 0.0
H808 H 0.7328 0.75797 0.30261 0.0
H809 H 0.70925 0.7532 0.32139 0.0
H810 H 0.6782 0.77785 0.28164 0.0
H811 H 0.70156 0.78221 0.26289 0.0
H812 H 0.85334 0.803 0.27558 0.0
H813 H 0.87678 0.80571 0.25681 0.0
H814 H 0.8671 0.74618 0.24188 0.0
H815 H 0.84382 0.74343 0.26071 0.0
Tb816 Tb 0.78067 0.26295 0.75364 0.0
Tb817 Tb 0.77855 0.27669 0.79614 0.0
C818 C 0.77458 0.25598 0.71788 0.0
C819 C 0.78445 0.25861 0.70221 0.0
C820 C 0.79594 0.27531 0.70231 0.0
C821 C 0.80422 0.27792 0.68658 0.0
C822 C 0.80125 0.26382 0.67058 0.0
C823 C 0.79054 0.24673 0.67111 0.0
C824 C 0.78216 0.2442 0.68676 0.0
C825 C 0.80932 0.26116 0.77658 0.0
C826 C 0.79723 0.30565 0.77295 0.0
C827 C 0.77956 0.28061 0.83167 0.0
C828 C 0.77674 0.26766 0.8453 0.0
C829 C 0.78779 0.27086 0.86291 0.0
C830 C 0.78547 0.25852 0.8759 0.0
C831 C 0.772 0.24283 0.87147 0.0
C832 C 0.7609 0.23968 0.85384 0.0
C833 C 0.7633 0.25195 0.8408 0.0
C834 C 0.75454 0.28273 0.76992 0.0
C835 C 0.7638 0.23358 0.77789 0.0
O836 O 0.77168 0.27098 0.72777 0.0
O837 O 0.77891 0.24405 0.72865 0.0
O838 O 0.79626 0.26692 0.78056 0.0
O839 O 0.80654 0.25599 0.75818 0.0
O840 O 0.79142 0.2932 0.757 0.0
O841 O 0.7952 0.3015 0.79021 0.0
O842 O 0.79331 0.28041 0.82355 0.0
O843 O 0.76595 0.28137 0.81953 0.0
O844 O 0.76105 0.26852 0.76959 0.0
O845 O 0.76077 0.29376 0.78596 0.0
O846 O 0.7695 0.24621 0.79361 0.0
O847 O 0.7651 0.23788 0.76058 0.0
H848 H 0.79811 0.28654 0.71425 0.0
H849 H 0.81221 0.29132 0.68657 0.0
H850 H 0.7882 0.23551 0.65913 0.0
H851 H 0.77355 0.23111 0.6866 0.0
H852 H 0.79823 0.28289 0.8666 0.0
H853 H 0.79411 0.26134 0.8895 0.0
H854 H 0.75054 0.22758 0.85002 0.0
H855 H 0.75467 0.24909 0.8272 0.0
Tb856 Tb 0.76724 0.75748 0.76732 0.0
Tb857 Tb 0.80025 0.7831 0.78369 0.0
C858 C 0.73643 0.74117 0.76348 0.0
C859 C 0.72123 0.74867 0.7676 0.0
C860 C 0.7142 0.74483 0.78396 0.0
C861 C 0.70275 0.75508 0.79086 0.0
C862 C 0.69789 0.76913 0.78134 0.0
C863 C 0.70368 0.77191 0.76406 0.0
C864 C 0.7154 0.76185 0.75729 0.0
C865 C 0.78466 0.77057 0.74164 0.0
C866 C 0.76771 0.80175 0.78031 0.0
C867 C 0.83111 0.79944 0.78776 0.0
C868 C 0.84633 0.79209 0.78366 0.0
C869 C 0.84485 0.7782 0.76781 0.0
C870 C 0.85887 0.7703 0.76448 0.0
C871 C 0.87476 0.77619 0.77683 0.0
C872 C 0.87625 0.79012 0.79271 0.0
C873 C 0.8621 0.798 0.79611 0.0
C874 C 0.78271 0.77019 0.80932 0.0
C875 C 0.79956 0.73868 0.77089 0.0
O876 O 0.74787 0.74164 0.77862 0.0
O877 O 0.7436 0.74652 0.74916 0.0
O878 O 0.78306 0.77922 0.75749 0.0
O879 O 0.77545 0.75391 0.73924 0.0
O880 O 0.75874 0.7843 0.77589 0.0
O881 O 0.78485 0.80493 0.78297 0.0
O882 O 0.81964 0.79935 0.77277 0.0
O883 O 0.82404 0.79341 0.80183 0.0
O884 O 0.78445 0.76144 0.79358 0.0
O885 O 0.7918 0.78691 0.81159 0.0
O886 O 0.80858 0.7561 0.77544 0.0
O887 O 0.78245 0.73557 0.76799 0.0
H888 H 0.71839 0.73468 0.79209 0.0
H889 H 0.69812 0.75244 0.80401 0.0
H890 H 0.70002 0.78263 0.75645 0.0
H891 H 0.72055 0.76515 0.74461 0.0
H892 H 0.83278 0.77325 0.75804 0.0
H893 H 0.85718 0.75937 0.75234 0.0
H894 H 0.88838 0.79506 0.80237 0.0
H895 H 0.86344 0.8086 0.80849 0.0
Tb896 Tb 0.51328 0.51078 0.51113 0.0
Tb897 Tb 0.54709 0.53073 0.53433 0.0
C898 C 0.48204 0.50208 0.4963 0.0
C899 C 0.46999 0.51379 0.49027 0.0
C900 C 0.47055 0.53094 0.50149 0.0
C901 C 0.46092 0.54321 0.49469 0.0
C902 C 0.45049 0.53859 0.47663 0.0
C903 C 0.44927 0.52117 0.46566 0.0
C904 C 0.45913 0.50887 0.4724 0.0
C905 C 0.54018 0.5101 0.49362 0.0
C906 C 0.52572 0.5551 0.51384 0.0
C907 C 0.57837 0.53766 0.54817 0.0
C908 C 0.58986 0.52426 0.54838 0.0
C909 C 0.58999 0.51227 0.53147 0.0
C910 C 0.5981 0.49729 0.53205 0.0
C911 C 0.60633 0.49388 0.54953 0.0
C912 C 0.60668 0.50617 0.5664 0.0
C913 C 0.5985 0.52126 0.56582 0.0
C914 C 0.52036 0.53197 0.55175 0.0
C915 C 0.53498 0.48661 0.53122 0.0
O916 O 0.48745 0.50399 0.51477 0.0
O917 O 0.4946 0.5017 0.48639 0.0
O918 O 0.53738 0.52344 0.50465 0.0
O919 O 0.52703 0.49645 0.49124 0.0
O920 O 0.51285 0.5404 0.51055 0.0
O921 O 0.54143 0.55426 0.52175 0.0
O922 O 0.57255 0.54121 0.53125 0.0
O923 O 0.56621 0.53484 0.55865 0.0
O924 O 0.52292 0.51831 0.54092 0.0
O925 O 0.53375 0.54536 0.55423 0.0
O926 O 0.54789 0.50106 0.53317 0.0
O927 O 0.51904 0.48769 0.52452 0.0
H928 H 0.4788 0.53512 0.51532 0.0
H929 H 0.46171 0.55645 0.50353 0.0
H930 H 0.44107 0.5173 0.45178 0.0
H931 H 0.4586 0.49574 0.4635 0.0
H932 H 0.58312 0.51388 0.51782 0.0
H933 H 0.59726 0.48791 0.51883 0.0
H934 H 0.61305 0.50399 0.58006 0.0
H935 H 0.59835 0.53017 0.57907 0.0
Tb936 Tb 0.05038 0.5243 0.02717 0.0
Tb937 Tb 0.01268 0.5168 0.03442 0.0
C938 C 0.08247 0.5264 0.03365 0.0
C939 C 0.0955 0.51551 0.02902 0.0
C940 C 0.09284 0.49643 0.02972 0.0
C941 C 0.10639 0.48699 0.0287 0.0
C942 C 0.12289 0.49637 0.02682 0.0
C943 C 0.12517 0.51524 0.02497 0.0
C944 C 0.11164 0.52471 0.02616 0.0
C945 C 0.02855 0.52427 0.99464 0.0
C946 C 0.02793 0.48328 0.01738 0.0
C947 C 0.98109 0.51601 0.03423 0.0
C948 C 0.9681 0.52713 0.0291 0.0
C949 C 0.97116 0.54639 0.03498 0.0
C950 C 0.9582 0.5563 0.03055 0.0
C951 C 0.942 0.54716 0.02006 0.0
C952 C 0.93916 0.52793 0.01395 0.0
C953 C 0.95205 0.51806 0.01845 0.0
C954 C 0.03614 0.51162 0.06274 0.0
C955 C 0.03402 0.5584 0.03898 0.0
O956 O 0.07175 0.51943 0.04439 0.0
O957 O 0.07489 0.53378 0.02 0.0
O958 O 0.0253 0.52174 0.01106 0.0
O959 O 0.04523 0.52657 0.99624 0.0
O960 O 0.04342 0.49418 0.0209 0.0
O961 O 0.01375 0.48948 0.01993 0.0
O962 O 0.98723 0.50799 0.01997 0.0
O963 O 0.99299 0.52289 0.04928 0.0
O964 O 0.03787 0.52411 0.05217 0.0
O965 O 0.0204 0.50233 0.05806 0.0
O966 O 0.01882 0.547 0.03672 0.0
O967 O 0.0485 0.55253 0.0374 0.0
H968 H 0.0805 0.48895 0.0319 0.0
H969 H 0.10411 0.47253 0.03033 0.0
H970 H 0.13754 0.52285 0.02305 0.0
H971 H 0.11399 0.53941 0.02557 0.0
H972 H 0.98347 0.55376 0.04312 0.0
H973 H 0.96088 0.57112 0.0353 0.0
H974 H 0.92678 0.52038 0.0061 0.0
H975 H 0.94938 0.50321 0.01382 0.0
C976 C 1.00052 0.18382 0.92772 0.0
C977 C 0.00355 0.20131 0.93926 0.0
C978 C 1.00187 0.16795 0.93591 0.0
C979 C 1.00199 0.14831 0.98086 0.0
H980 H 0.02897 0.11597 0.95743 0.0
C981 C 0.00701 0.07613 1.00174 0.0
C982 C 0.02339 0.07154 0.00339 0.0
C983 C 0.00421 0.09226 0.99475 0.0
C984 C 0.02147 0.12489 0.96421 0.0
H985 H 0.00972 0.21565 0.96859 0.0
H986 H 0.01182 0.18785 0.98292 0.0
H987 H 0.02415 0.14324 0.94359 0.0
H988 H 0.04978 0.08054 0.99927 0.0
H989 H 0.04491 0.10859 0.98695 0.0
H990 H 0.99932 0.12986 1.00149 0.0
C991 C 0.00846 0.18647 0.9675 0.0
C992 C 0.01855 0.14043 0.95615 0.0
C993 C 0.00729 0.20241 0.95928 0.0
C994 C 0.037 0.08365 0.9982 0.0
C995 C 0.03417 0.09966 0.99099 0.0
C996 C 0.00473 0.1326 0.98879 0.0
C997 C 0.00611 0.1691 0.95588 0.0
C998 C 0.00883 0.15237 0.96439 0.0
C999 C 0.01771 0.1041 0.98903 0.0
C1000 C 0.0146 0.12076 0.98062 0.0
H1001 H 0.99761 0.18243 0.91226 0.0
H1002 H 0.99976 0.15476 0.92657 0.0
H1003 H 0.99437 0.15718 0.98749 0.0
H1004 H 0.99635 0.06726 0.00588 0.0
H1005 H 0.99138 0.09523 0.99342 0.0
C1006 C 0.12393 0.78641 0.15483 0.0
C1007 C 0.11343 0.79666 0.16417 0.0
C1008 C 0.13995 0.78478 0.16443 0.0
C1009 C 0.17502 0.80758 0.20302 0.0
H1010 H 0.18401 0.75871 0.20744 0.0
C1011 C 0.23131 0.79809 0.25753 0.0
C1012 C 0.23962 0.78325 0.25376 0.0
C1013 C 0.21664 0.79961 0.24527 0.0
C1014 C 0.18195 0.77248 0.20607 0.0
H1015 H 0.11172 0.8136 0.1907 0.0
H1016 H 0.14 0.8113 0.2072 0.0
H1017 H 0.15732 0.76187 0.18818 0.0
H1018 H 0.23921 0.75844 0.23397 0.0
H1019 H 0.21394 0.76145 0.21192 0.0
H1020 H 0.19967 0.81837 0.22033 0.0
C1021 C 0.13569 0.80434 0.19255 0.0
C1022 C 0.16657 0.77426 0.1951 0.0
C1023 C 0.11951 0.80563 0.18313 0.0
C1024 C 0.23306 0.77003 0.23723 0.0
C1025 C 0.21847 0.77171 0.2247 0.0
C1026 C 0.19052 0.80584 0.21366 0.0
C1027 C 0.14599 0.79373 0.18338 0.0
C1028 C 0.16283 0.79182 0.19378 0.0
C1029 C 0.20999 0.78652 0.22859 0.0
C1030 C 0.19409 0.78826 0.21573 0.0
H1031 H 0.11956 0.77924 0.14027 0.0
H1032 H 0.14767 0.77658 0.15702 0.0
H1033 H 0.17256 0.82129 0.20201 0.0
H1034 H 0.23595 0.80845 0.27023 0.0
H1035 H 0.21036 0.81094 0.24917 0.0
C1036 C 0.51139 0.81689 0.45633 0.0
C1037 C 0.52346 0.815 0.44398 0.0
C1038 C 0.512 0.83403 0.46757 0.0
C1039 C 0.54021 0.87921 0.48801 0.0
H1040 H 0.49872 0.89925 0.48089 0.0
C1041 C 0.54243 0.95737 0.50592 0.0
C1042 C 0.52829 0.96362 0.5123 0.0
C1043 C 0.54163 0.93853 0.49999 0.0
C1044 C 0.51035 0.89382 0.48342 0.0
H1045 H 0.54613 0.82925 0.43448 0.0
H1046 H 0.54748 0.85888 0.45444 0.0
H1047 H 0.49794 0.86721 0.4673 0.0
H1048 H 0.50231 0.95478 0.51784 0.0
H1049 H 0.50107 0.92184 0.50802 0.0
H1050 H 0.55269 0.90563 0.50417 0.0
C1051 C 0.53745 0.84724 0.45531 0.0
C1052 C 0.50988 0.87542 0.47557 0.0
C1053 C 0.53663 0.83028 0.44383 0.0
C1054 C 0.5134 0.95048 0.51288 0.0
C1055 C 0.51266 0.93156 0.50713 0.0
C1056 C 0.54064 0.8975 0.49608 0.0
C1057 C 0.52493 0.84943 0.46698 0.0
C1058 C 0.5249 0.86807 0.47742 0.0
C1059 C 0.52674 0.92531 0.50048 0.0
C1060 C 0.52582 0.90524 0.49351 0.0
H1061 H 0.50102 0.80538 0.45665 0.0
H1062 H 0.50223 0.83533 0.47651 0.0
H1063 H 0.55194 0.87383 0.48983 0.0
H1064 H 0.55409 0.96707 0.50514 0.0
H1065 H 0.55261 0.93442 0.49459 0.0
C1066 C 0.50348 0.29428 0.66715 0.0
C1067 C 0.51552 0.28518 0.67613 0.0
C1068 C 0.48768 0.29458 0.67364 0.0
C1069 C 0.46688 0.28772 0.71649 0.0
H1070 H 0.42378 0.28032 0.68144 0.0
C1071 C 0.40206 0.26708 0.74129 0.0
C1072 C 0.38926 0.27717 0.73656 0.0
C1073 C 0.41683 0.26882 0.73271 0.0
C1074 C 0.43575 0.28258 0.69139 0.0
H1075 H 0.52009 0.26887 0.69872 0.0
H1076 H 0.49281 0.26912 0.70961 0.0
H1077 H 0.45101 0.28249 0.66884 0.0
H1078 H 0.38174 0.29647 0.71834 0.0
H1079 H 0.40752 0.29923 0.70304 0.0
H1080 H 0.45172 0.28736 0.73896 0.0
C1081 C 0.49561 0.27646 0.69791 0.0
C1082 C 0.45135 0.28388 0.68419 0.0
C1083 C 0.5113 0.27623 0.69154 0.0
C1084 C 0.39127 0.28841 0.72228 0.0
C1085 C 0.40606 0.29004 0.71354 0.0
C1086 C 0.45137 0.28627 0.72362 0.0
C1087 C 0.48363 0.28577 0.68923 0.0
C1088 C 0.46709 0.2861 0.69666 0.0
C1089 C 0.41917 0.28058 0.71901 0.0
C1090 C 0.4356 0.28334 0.71116 0.0
H1091 H 0.50629 0.30128 0.65523 0.0
H1092 H 0.47878 0.30194 0.66665 0.0
H1093 H 0.47876 0.28996 0.72659 0.0
H1094 H 0.40078 0.25791 0.75183 0.0
H1095 H 0.42653 0.26103 0.73692 0.0
C1096 C 0.01953 0.78495 0.62294 0.0
C1097 C 0.02579 0.79027 0.64267 0.0
C1098 C 0.01799 0.79836 0.61116 0.0
C1099 C 0.03941 0.84372 0.60687 0.0
H1100 H 0.99831 0.84801 0.57352 0.0
C1101 C 0.03716 0.90715 0.56953 0.0
C1102 C 0.02662 0.9051 0.55162 0.0
C1103 C 0.03695 0.89231 0.57961 0.0
C1104 C 0.01 0.8468 0.58245 0.0
H1105 H 0.03453 0.81369 0.66567 0.0
H1106 H 0.03217 0.83703 0.64498 0.0
H1107 H 0.99694 0.82344 0.5932 0.0
H1108 H 0.00796 0.88551 0.53003 0.0
H1109 H 0.00836 0.85938 0.5471 0.0
H1110 H 0.05273 0.86651 0.59589 0.0
C1111 C 0.02841 0.82252 0.63873 0.0
C1112 C 0.00913 0.83282 0.5938 0.0
C1113 C 0.02966 0.80916 0.65054 0.0
C1114 C 0.01639 0.8876 0.54369 0.0
C1115 C 0.01638 0.87265 0.55366 0.0
C1116 C 0.04039 0.85744 0.59529 0.0
C1117 C 0.02295 0.81722 0.61892 0.0
C1118 C 0.02378 0.83141 0.60631 0.0
C1119 C 0.02644 0.87489 0.5719 0.0
C1120 C 0.02563 0.85938 0.58316 0.0
H1121 H 0.01643 0.77048 0.61651 0.0
H1122 H 0.01375 0.79402 0.59589 0.0
H1123 H 0.05094 0.84264 0.61622 0.0
H1124 H 0.04544 0.92032 0.57595 0.0
H1125 H 0.04472 0.8947 0.5937 0.0
C1126 C 0.46789 0.78832 0.81526 0.0
C1127 C 0.47753 0.78275 0.83062 0.0
C1128 C 0.45039 0.78059 0.80967 0.0
C1129 C 0.41396 0.7611 0.83104 0.0
H1130 H 0.38953 0.75438 0.77902 0.0
C1131 C 0.34044 0.74794 0.78539 0.0
C1132 C 0.33439 0.76197 0.79606 0.0
C1133 C 0.3573 0.74555 0.7902 0.0
C1134 C 0.39613 0.75585 0.79361 0.0
H1135 H 0.47666 0.76369 0.8512 0.0
H1136 H 0.44608 0.75019 0.84137 0.0
H1137 H 0.42082 0.75825 0.78469 0.0
H1138 H 0.34094 0.78379 0.82079 0.0
H1139 H 0.37044 0.77975 0.82905 0.0
H1140 H 0.3893 0.75921 0.83999 0.0
C1141 C 0.45204 0.76073 0.83387 0.0
C1142 C 0.41405 0.75824 0.79684 0.0
C1143 C 0.46956 0.76844 0.83944 0.0
C1144 C 0.34522 0.77288 0.81227 0.0
C1145 C 0.3621 0.77049 0.81707 0.0
C1146 C 0.39604 0.75874 0.82781 0.0
C1147 C 0.44218 0.76713 0.81933 0.0
C1148 C 0.42317 0.76143 0.81562 0.0
C1149 C 0.36843 0.75713 0.80576 0.0
C1150 C 0.387 0.75663 0.8091 0.0
H1151 H 0.47366 0.79925 0.80809 0.0
H1152 H 0.44309 0.78593 0.79851 0.0
H1153 H 0.42064 0.76368 0.84569 0.0
H1154 H 0.3324 0.73919 0.77289 0.0
H1155 H 0.36178 0.73499 0.7814 0.0
C1156 C 0.56369 0.18343 0.1583 0.0
C1157 C 0.55543 0.19736 0.15242 0.0
C1158 C 0.56558 0.16877 0.14492 0.0
C1159 C 0.56594 0.1545 0.09361 0.0
H1160 H 0.55297 0.10492 0.10513 0.0
C1161 C 0.54936 0.0885 0.03661 0.0
C1162 C 0.55159 0.07168 0.04245 0.0
C1163 C 0.55374 0.10492 0.04982 0.0
C1164 C 0.55706 0.11865 0.1018 0.0
H1165 H 0.5428 0.20689 0.12781 0.0
H1166 H 0.54605 0.18119 0.10446 0.0
H1167 H 0.55238 0.13134 0.12872 0.0
H1168 H 0.56183 0.0591 0.06596 0.0
H1169 H 0.57025 0.08777 0.08875 0.0
H1170 H 0.57047 0.14176 0.06656 0.0
C1171 C 0.55117 0.18174 0.11943 0.0
C1172 C 0.55661 0.1338 0.11533 0.0
C1173 C 0.54916 0.19634 0.13283 0.0
C1174 C 0.55983 0.07183 0.06113 0.0
C1175 C 0.56447 0.08825 0.07424 0.0
C1176 C 0.56652 0.1393 0.08008 0.0
C1177 C 0.55935 0.16778 0.12536 0.0
C1178 C 0.56083 0.15186 0.11129 0.0
C1179 C 0.56065 0.10481 0.06902 0.0
C1180 C 0.56189 0.12117 0.08393 0.0
H1181 H 0.56873 0.18381 0.17326 0.0
H1182 H 0.57205 0.15827 0.14988 0.0
H1183 H 0.56945 0.16832 0.09023 0.0
H1184 H 0.54302 0.08879 0.02227 0.0
H1185 H 0.55057 0.11738 0.04527 0.0
C1186 C 0.08068 0.31948 0.32938 0.0
C1187 C 0.0806 0.32256 0.3492 0.0
C1188 C 0.09615 0.32273 0.32226 0.0
C1189 C 0.1412 0.32171 0.33761 0.0
H1190 H 0.1449 0.33157 0.28614 0.0
C1191 C 0.195 0.30028 0.30157 0.0
C1192 C 0.18867 0.28858 0.28396 0.0
C1193 C 0.185 0.31185 0.30945 0.0
C1194 C 0.14412 0.32895 0.3006 0.0
H1195 H 0.09645 0.3329 0.37705 0.0
H1196 H 0.12353 0.33884 0.36457 0.0
H1197 H 0.12085 0.33926 0.30117 0.0
H1198 H 0.16771 0.28082 0.25997 0.0
H1199 H 0.1499 0.3007 0.27394 0.0
H1200 H 0.1639 0.31061 0.3368 0.0
C1201 C 0.11166 0.33353 0.35456 0.0
C1202 C 0.13036 0.33331 0.3092 0.0
C1203 C 0.09615 0.33015 0.3617 0.0
C1204 C 0.17278 0.28967 0.27363 0.0
C1205 C 0.16268 0.30116 0.28158 0.0
C1206 C 0.15496 0.31746 0.32908 0.0
C1207 C 0.11188 0.32925 0.3348 0.0
C1208 C 0.12835 0.32897 0.32747 0.0
C1209 C 0.16842 0.31181 0.29992 0.0
C1210 C 0.15617 0.32031 0.31019 0.0
H1211 H 0.06887 0.31375 0.31937 0.0
H1212 H 0.09581 0.31905 0.307 0.0
H1213 H 0.14 0.31795 0.35158 0.0
H1214 H 0.20747 0.29999 0.30955 0.0
H1215 H 0.1899 0.32018 0.32342 0.0
C1216 C 0.93603 1.00331 0.17562 0.0
C1217 C 0.94467 0.01227 0.19383 0.0
C1218 C 0.9433 0.00631 0.15925 0.0
C1219 C 0.9853 0.02508 0.14466 0.0
H1220 H 0.95663 0.02304 0.09568 0.0
C1221 C 0.01329 0.04683 0.07912 0.0
C1222 C 0.00999 0.03245 0.06341 0.0
C1223 C 0.00402 0.04542 0.09428 0.0
C1224 C 0.96474 0.02365 0.10931 0.0
H1225 H 0.96731 0.03189 0.20922 0.0
H1226 H 0.97957 0.03788 0.18079 0.0
H1227 H 0.94314 0.01874 0.12397 0.0
H1228 H 0.9939 0.00577 0.05076 0.0
H1229 H 0.97724 1.00364 0.07703 0.0
H1230 H 0.00687 0.03055 0.12999 0.0
C1231 C 0.96756 0.02791 0.17902 0.0
C1232 C 0.95705 0.02104 0.1255 0.0
C1233 C 0.96049 0.02459 0.19536 0.0
C1234 C 0.99661 0.01712 0.06262 0.0
C1235 C 0.98711 0.01588 0.07763 0.0
C1236 C 0.99294 0.02806 0.1286 0.0
C1237 C 0.95921 0.01865 0.16073 0.0
C1238 C 0.96724 0.02165 0.14341 0.0
C1239 C 0.99107 0.02979 0.0938 0.0
C1240 C 0.98274 0.02731 0.11079 0.0
H1241 H 0.92383 0.99368 0.17405 0.0
H1242 H 0.93657 0.99867 0.14552 0.0
H1243 H 0.99363 0.02517 0.15798 0.0
H1244 H 0.02352 0.05882 0.0801 0.0
H1245 H 0.00722 0.05635 0.1066 0.0
C1246 C 0.2769 0.65806 0.4994 0.0
C1247 C 0.28591 0.67212 0.51435 0.0
C1248 C 0.2678 0.66247 0.48309 0.0
C1249 C 0.25298 0.70138 0.46205 0.0
H1250 H 0.26527 0.67727 0.4158 0.0
C1251 C 0.2451 0.7302 0.39081 0.0
C1252 C 0.26074 0.73314 0.38371 0.0
C1253 C 0.24286 0.71894 0.40488 0.0
C1254 C 0.26153 0.68398 0.42855 0.0
H1255 H 0.29169 0.70168 0.52448 0.0
H1256 H 0.27634 0.70946 0.4958 0.0
H1257 H 0.27069 0.66518 0.44554 0.0
H1258 H 0.28585 0.72593 0.38468 0.0
H1259 H 0.28203 0.70634 0.40911 0.0
H1260 H 0.24508 0.72105 0.44519 0.0
C1261 C 0.27595 0.695 0.49676 0.0
C1262 C 0.26448 0.67696 0.44559 0.0
C1263 C 0.28491 0.69057 0.51314 0.0
C1264 C 0.27374 0.72398 0.3901 0.0
C1265 C 0.27145 0.71261 0.40392 0.0
C1266 C 0.25008 0.70845 0.44497 0.0
C1267 C 0.26767 0.68103 0.48132 0.0
C1268 C 0.26094 0.68606 0.46271 0.0
C1269 C 0.25614 0.71025 0.41174 0.0
C1270 C 0.25508 0.70028 0.42828 0.0
H1271 H 0.27722 0.64367 0.50007 0.0
H1272 H 0.26131 0.65137 0.47161 0.0
H1273 H 0.2498 0.70848 0.47493 0.0
H1274 H 0.23491 0.73716 0.38603 0.0
H1275 H 0.23094 0.71731 0.41066 0.0
C1276 C 0.63702 0.99839 0.70918 0.0
C1277 C 0.62867 0.9951 0.72497 0.0
C1278 C 0.62779 1.00044 0.69143 0.0
C1279 C 0.58495 0.00997 0.66915 0.0
H1280 H 0.59928 0.99425 0.62093 0.0
C1281 C 0.54056 0.00786 0.59668 0.0
C1282 C 0.54745 0.01179 0.58014 0.0
C1283 C 0.55105 0.00614 0.61361 0.0
C1284 C 0.59511 0.99896 0.63421 0.0
H1285 H 0.60361 0.99127 0.73382 0.0
H1286 H 0.58758 0.99454 0.70321 0.0
H1287 H 0.61579 0.99038 0.65111 0.0
H1288 H 0.57134 0.01663 0.56887 0.0
H1289 H 0.58985 0.01372 0.59849 0.0
H1290 H 0.56437 0.0186 0.65243 0.0
C1291 C 0.60141 0.99587 0.70449 0.0
C1292 C 0.60468 0.99671 0.65173 0.0
C1293 C 0.61065 0.99381 0.72221 0.0
C1294 C 0.56545 0.01372 0.58119 0.0
C1295 C 0.57608 0.01192 0.59829 0.0
C1296 C 0.57544 0.0122 0.65172 0.0
C1297 C 0.60974 0.99935 0.68866 0.0
C1298 C 0.59973 1.00201 0.66964 0.0
C1299 C 0.56909 0.00824 0.61499 0.0
C1300 C 0.58013 0.00659 0.63377 0.0
H1301 H 0.65088 0.99959 0.71055 0.0
H1302 H 0.63495 1.00329 0.67997 0.0
H1303 H 0.58073 0.01478 0.68236 0.0
H1304 H 0.52681 0.00609 0.59663 0.0
H1305 H 0.54482 1.00286 0.62562 0.0
C1306 C 0.277 0.36651 0.96533 0.0
C1307 C 0.28399 0.36136 0.98252 0.0
C1308 C 0.27524 0.35489 0.94785 0.0
C1309 C 0.29307 0.31738 0.92421 0.0
H1310 H 0.25487 0.31552 0.88371 0.0
C1311 C 0.26577 0.28289 0.8392 0.0
C1312 C 0.28135 0.28614 0.83195 0.0
C1313 C 0.26521 0.28939 0.85838 0.0
C1314 C 0.26552 0.31561 0.89489 0.0
H1315 H 0.29419 0.33963 0.99477 0.0
H1316 H 0.29095 0.31919 0.96411 0.0
H1317 H 0.25468 0.3311 0.91584 0.0
H1318 H 0.30863 0.29848 0.83935 0.0
H1319 H 0.30757 0.31007 0.87255 0.0
H1320 H 0.30387 0.30181 0.90324 0.0
C1321 C 0.28703 0.33238 0.96423 0.0
C1322 C 0.26551 0.32477 0.91329 0.0
C1323 C 0.28879 0.34405 0.98181 0.0
C1324 C 0.2964 0.29568 0.84442 0.0
C1325 C 0.29582 0.30223 0.86356 0.0
C1326 C 0.29305 0.30816 0.90579 0.0
C1327 C 0.28037 0.33776 0.94701 0.0
C1328 C 0.27946 0.32613 0.92808 0.0
C1329 C 0.28019 0.29933 0.87076 0.0
C1330 C 0.27945 0.30749 0.89079 0.0
H1331 H 0.27316 0.37972 0.96526 0.0
H1332 H 0.27033 0.35966 0.9349 0.0
H1333 H 0.30407 0.31824 0.93521 0.0
H1334 H 0.25395 0.27547 0.83004 0.0
H1335 H 0.25299 0.28666 0.86348 0.0
C1336 C 0.97338 0.99893 0.31329 0.0
C1337 C 0.96204 0.00922 0.30514 0.0
C1338 C 0.98039 1.00318 0.33272 0.0
C1339 C 0.97387 0.0276 0.37907 0.0
H1340 H 0.01961 0.01905 0.39568 0.0
C1341 C 0.00783 0.04092 0.45877 0.0
C1342 C 0.01285 0.02506 0.46452 0.0
C1343 C 1.00254 0.04143 0.43935 0.0
C1344 C 0.00685 0.02156 0.39121 0.0
H1345 H 0.94932 0.03223 0.311 0.0
H1346 H 0.96197 0.04002 0.34492 0.0
H1347 H 0.00878 0.01595 0.36155 0.0
H1348 H 0.01681 0.99758 0.45445 0.0
H1349 H 0.00801 0.9987 0.42062 0.0
H1350 H 0.97217 0.03336 0.40895 0.0
C1351 C 0.96516 0.02839 0.33634 0.0
C1352 C 1.00057 0.01966 0.37168 0.0
C1353 C 0.95796 0.02398 0.31687 0.0
C1354 C 0.01291 0.00995 0.45049 0.0
C1355 C 0.00798 0.01061 0.43112 0.0
C1356 C 0.9803 0.02979 0.39866 0.0
C1357 C 0.97645 0.018 0.34452 0.0
C1358 C 0.98381 0.02214 0.36532 0.0
C1359 C 1.00261 0.02627 0.42539 0.0
C1360 C 0.99667 0.02633 0.40485 0.0
H1361 H 0.97668 0.98735 0.30472 0.0
H1362 H 0.98867 0.99455 0.33853 0.0
H1363 H 0.96087 0.02946 0.37476 0.0
H1364 H 0.00765 0.05277 0.46929 0.0
H1365 H 0.99849 0.05367 0.43523 0.0
C1366 C 0.34422 0.71915 0.61038 0.0
C1367 C 0.34612 0.7021 0.61593 0.0
C1368 C 0.34527 0.73467 0.62419 0.0
C1369 C 0.33163 0.75741 0.65458 0.0
H1370 H 0.35637 0.76366 0.70639 0.0
C1371 C 0.30194 0.7792 0.71981 0.0
C1372 C 0.31244 0.78859 0.73689 0.0
C1373 C 0.30923 0.77398 0.70381 0.0
C1374 C 0.34958 0.76249 0.69194 0.0
H1375 H 0.35203 0.68838 0.6403 0.0
H1376 H 0.35332 0.71508 0.66423 0.0
H1377 H 0.36568 0.74526 0.68055 0.0
H1378 H 0.33864 0.80108 0.75043 0.0
H1379 H 0.35149 0.79225 0.72225 0.0
H1380 H 0.31546 0.77452 0.66599 0.0
C1381 C 0.35129 0.7167 0.64928 0.0
C1382 C 0.3548 0.75171 0.67714 0.0
C1383 C 0.3504 0.70127 0.6355 0.0
C1384 C 0.33029 0.79369 0.73741 0.0
C1385 C 0.33763 0.78854 0.72133 0.0
C1386 C 0.32654 0.76835 0.66933 0.0
C1387 C 0.34809 0.73341 0.64382 0.0
C1388 C 0.34537 0.74831 0.65845 0.0
C1389 C 0.32721 0.77823 0.70449 0.0
C1390 C 0.33493 0.77028 0.68833 0.0
H1391 H 0.34115 0.72032 0.59538 0.0
H1392 H 0.34312 0.74743 0.61948 0.0
H1393 H 0.32399 0.75511 0.64042 0.0
H1394 H 0.2881 0.77528 0.71901 0.0
H1395 H 0.3008 0.76582 0.69122 0.0
C1396 C 0.62754 0.99507 0.85282 0.0
C1397 C 0.62633 0.00854 0.84072 0.0
C1398 C 0.62007 0.99569 0.86995 0.0
C1399 C 0.58745 0.01855 0.89421 0.0
H1400 H 0.605 0.99931 0.93902 0.0
C1401 C 0.5497 0.01682 0.95923 0.0
C1402 C 0.55837 0.01821 0.97816 0.0
C1403 C 0.55826 0.01503 0.94317 0.0
C1404 C 0.59988 1.00496 0.92678 0.0
H1405 H 0.61668 0.03374 0.83843 0.0
H1406 H 0.60452 0.03505 0.86758 0.0
H1407 H 0.61933 0.99738 0.9108 0.0
H1408 H 0.58342 0.01863 0.99436 0.0
H1409 H 0.59839 0.01593 0.96661 0.0
H1410 H 0.56838 0.02663 0.91005 0.0
C1411 C 0.61057 0.0235 0.86382 0.0
C1412 C 0.6081 1.00362 0.91027 0.0
C1413 C 0.61784 0.02282 0.84687 0.0
C1414 C 0.57611 0.01766 0.98021 0.0
C1415 C 0.58474 0.01595 0.96406 0.0
C1416 C 0.57932 0.01992 0.91061 0.0
C1417 C 0.61112 0.00981 0.87571 0.0
C1418 C 0.60216 0.01051 0.89356 0.0
C1419 C 0.57605 0.01467 0.94506 0.0
C1420 C 0.58523 0.01317 0.92739 0.0
H1421 H 0.63383 0.98376 0.84883 0.0
H1422 H 0.62095 0.98475 0.8784 0.0
H1423 H 0.58193 0.02378 0.88186 0.0
H1424 H 0.53607 0.01694 0.95667 0.0
H1425 H 0.55064 0.01366 0.92912 0.0
C1426 C 0.29698 0.33688 0.09361 0.0
C1427 C 0.30163 0.35632 0.09688 0.0
C1428 C 0.29684 0.32696 0.10897 0.0
C1429 C 0.31234 0.33109 0.16142 0.0
H1430 H 0.2743 0.2896 0.15788 0.0
C1431 C 0.29426 0.29836 0.22721 0.0
C1432 C 0.28827 0.2791 0.22467 0.0
C1433 C 0.29762 0.30717 0.21156 0.0
C1434 C 0.28516 0.30097 0.15903 0.0
H1435 H 0.31007 0.38053 0.11894 0.0
H1436 H 0.30958 0.3633 0.14571 0.0
H1437 H 0.27682 0.30607 0.13081 0.0
H1438 H 0.28172 0.25389 0.20388 0.0
H1439 H 0.28767 0.26924 0.17655 0.0
H1440 H 0.32044 0.32615 0.18986 0.0
C1441 C 0.30628 0.35565 0.13127 0.0
C1442 C 0.28662 0.31044 0.14346 0.0
C1443 C 0.30647 0.36557 0.11589 0.0
C1444 C 0.28626 0.26877 0.20627 0.0
C1445 C 0.28956 0.27758 0.1906 0.0
C1446 C 0.31083 0.32164 0.17704 0.0
C1447 C 0.30129 0.33621 0.12804 0.0
C1448 C 0.30017 0.32571 0.14445 0.0
C1449 C 0.29501 0.29694 0.19298 0.0
C1450 C 0.29717 0.30652 0.17609 0.0
H1451 H 0.29326 0.3293 0.07915 0.0
H1452 H 0.29321 0.31201 0.10588 0.0
H1453 H 0.3231 0.34258 0.16264 0.0
H1454 H 0.29583 0.30672 0.2412 0.0
H1455 H 0.30164 0.3221 0.21392 0.0
C1456 C 0.20254 0.90132 0.03726 0.0
C1457 C 0.19929 0.88347 0.02657 0.0
C1458 C 0.18982 0.90754 0.0463 0.0
C1459 C 0.14442 0.90367 0.03789 0.0
H1460 H 0.15364 0.93704 0.08636 0.0
C1461 C 0.10261 0.95687 0.05085 0.0
C1462 C 0.1122 0.97493 0.05734 0.0
C1463 C 0.11022 0.9416 0.05265 0.0
C1464 C 0.1508 0.9277 0.07283 0.0
H1465 H 0.18051 0.85778 0.01754 0.0
H1466 H 0.1578 0.86904 0.03287 0.0
H1467 H 0.17336 0.91647 0.07938 0.0
H1468 H 0.13702 0.99118 0.0716 0.0
H1469 H 0.15056 0.96467 0.07411 0.0
H1470 H 0.1228 0.91587 0.0305 0.0
C1471 C 0.17036 0.87803 0.03444 0.0
C1472 C 0.16201 0.91585 0.06891 0.0
C1473 C 0.18328 0.87163 0.02568 0.0
C1474 C 0.12929 0.97741 0.06657 0.0
C1475 C 0.137 0.96216 0.06812 0.0
C1476 C 0.13332 0.91564 0.0417 0.0
C1477 C 0.17348 0.89615 0.04458 0.0
C1478 C 0.15935 0.90439 0.05103 0.0
C1479 C 0.12769 0.94409 0.06065 0.0
C1480 C 0.13686 0.92844 0.05883 0.0
H1481 H 0.21484 0.91066 0.03833 0.0
H1482 H 0.1925 0.92167 0.05375 0.0
H1483 H 0.14215 0.89509 0.02393 0.0
H1484 H 0.08934 0.95455 0.04386 0.0
H1485 H 0.10258 0.92789 0.04708 0.0
C1486 C 0.69827 0.60581 0.98596 0.0
C1487 C 0.70484 0.62377 0.99612 0.0
C1488 C 0.68154 0.59665 0.98677 0.0
C1489 C 0.6491 0.59342 0.0178 0.0
H1490 H 0.61712 0.56942 0.97179 0.0
C1491 C 0.58072 0.55332 0.02179 0.0
C1492 C 0.57403 0.53724 0.00829 0.0
C1493 C 0.59583 0.56537 0.01989 0.0
C1494 C 0.62593 0.57579 0.98484 0.0
H1495 H 0.69899 0.64625 0.01506 0.0
H1496 H 0.66988 0.63 0.01686 0.0
H1497 H 0.6452 0.58725 0.96914 0.0
H1498 H 0.57792 0.52109 0.98227 0.0
H1499 H 0.6045 0.54144 0.97938 0.0
H1500 H 0.63035 0.58135 0.03361 0.0
C1501 C 0.67766 0.62313 0.00813 0.0
C1502 C 0.64199 0.58612 0.98326 0.0
C1503 C 0.69427 0.63244 0.00701 0.0
C1504 C 0.58271 0.53345 0.99286 0.0
C1505 C 0.59792 0.54528 0.99112 0.0
C1506 C 0.63316 0.58281 0.01941 0.0
C1507 C 0.67115 0.60512 0.99806 0.0
C1508 C 0.65378 0.59493 0.99972 0.0
C1509 C 0.60476 0.56143 0.0046 0.0
C1510 C 0.62137 0.57368 0.00294 0.0
H1511 H 0.7061 0.59878 0.97745 0.0
H1512 H 0.67688 0.58272 0.97896 0.0
H1513 H 0.65803 0.59996 0.03074 0.0
H1514 H 0.57442 0.5565 0.03394 0.0
H1515 H 0.60049 0.57776 0.03044 0.0
C1516 C 0.68941 0.4943 0.29763 0.0
C1517 C 0.67243 0.49147 0.30142 0.0
C1518 C 0.69915 0.48063 0.29937 0.0
C1519 C 0.70285 0.43987 0.32238 0.0
H1520 H 0.728 0.42705 0.28147 0.0
C1521 C 0.73584 0.37676 0.31886 0.0
C1522 C 0.75168 0.37858 0.31214 0.0
C1523 C 0.7262 0.39061 0.31793 0.0
C1524 C 0.72127 0.43062 0.29317 0.0
H1525 H 0.65241 0.4722 0.31031 0.0
H1526 H 0.66949 0.44836 0.31348 0.0
H1527 H 0.71133 0.45125 0.27941 0.0
H1528 H 0.7701 0.39654 0.29972 0.0
H1529 H 0.7535 0.42088 0.29845 0.0
H1530 H 0.71295 0.41943 0.33629 0.0
C1531 C 0.67526 0.46118 0.30919 0.0
C1532 C 0.71168 0.44447 0.29194 0.0
C1533 C 0.66546 0.47479 0.30728 0.0
C1534 C 0.75781 0.39464 0.30474 0.0
C1535 C 0.74825 0.40855 0.30396 0.0
C1536 C 0.71256 0.4261 0.32369 0.0
C1537 C 0.69215 0.4639 0.3051 0.0
C1538 C 0.70238 0.44924 0.30652 0.0
C1539 C 0.73225 0.40666 0.31041 0.0
C1540 C 0.7219 0.4213 0.30909 0.0
H1541 H 0.69515 0.50702 0.2931 0.0
H1542 H 0.7122 0.48319 0.29633 0.0
H1543 H 0.69594 0.4434 0.33393 0.0
H1544 H 0.73073 0.36442 0.32444 0.0
H1545 H 0.71383 0.38855 0.32276 0.0
C1546 C 0.77984 0.44176 0.48769 0.0
C1547 C 0.77933 0.42452 0.49385 0.0
C1548 C 0.79555 0.45418 0.48929 0.0
C1549 C 0.83145 0.47222 0.48345 0.0
H1550 H 0.86709 0.47507 0.52706 0.0
C1551 C 0.90331 0.49826 0.48192 0.0
C1552 C 0.91423 0.50738 0.4989 0.0
C1553 C 0.88593 0.4912 0.48203 0.0
C1554 C 0.85723 0.47474 0.51493 0.0
H1555 H 0.79497 0.40673 0.50632 0.0
H1556 H 0.82223 0.4281 0.50868 0.0
H1557 H 0.83837 0.45711 0.52639 0.0
H1558 H 0.91539 0.51711 0.52913 0.0
H1559 H 0.88491 0.50501 0.52932 0.0
H1560 H 0.85032 0.48999 0.47207 0.0
C1561 C 0.8105 0.43227 0.50304 0.0
C1562 C 0.84081 0.4642 0.51442 0.0
C1563 C 0.79485 0.41993 0.50153 0.0
C1564 C 0.90729 0.50992 0.51588 0.0
C1565 C 0.88986 0.50297 0.51598 0.0
C1566 C 0.84787 0.48287 0.48401 0.0
C1567 C 0.81105 0.44957 0.49703 0.0
C1568 C 0.82786 0.46243 0.49846 0.0
C1569 C 0.87905 0.4932 0.49913 0.0
C1570 C 0.86106 0.48389 0.49955 0.0
H1571 H 0.7681 0.44575 0.4818 0.0
H1572 H 0.79552 0.46746 0.48466 0.0
H1573 H 0.82179 0.47111 0.47092 0.0
H1574 H 0.90834 0.49586 0.46867 0.0
H1575 H 0.87809 0.48348 0.46887 0.0
C1576 C 0.38567 0.11117 0.27049 0.0
C1577 C 0.37627 0.09276 0.26481 0.0
C1578 C 0.37747 0.12665 0.27091 0.0
C1579 C 0.3345 0.14089 0.25429 0.0
H1580 H 0.35553 0.18654 0.28863 0.0
C1581 C 0.29779 0.20317 0.26397 0.0
C1582 C 0.30707 0.22169 0.26871 0.0
C1583 C 0.30618 0.18785 0.26332 0.0
C1584 C 0.3494 0.17407 0.27869 0.0
H1585 H 0.35031 0.0769 0.25518 0.0
H1586 H 0.33613 0.10339 0.2562 0.0
H1587 H 0.36959 0.1601 0.28804 0.0
H1588 H 0.33309 0.2379 0.27653 0.0
H1589 H 0.34759 0.2116 0.27525 0.0
H1590 H 0.31426 0.15485 0.24504 0.0
C1591 C 0.35001 0.10612 0.26007 0.0
C1592 C 0.35762 0.1586 0.27833 0.0
C1593 C 0.35823 0.09065 0.25961 0.0
C1594 C 0.32524 0.22407 0.27275 0.0
C1595 C 0.33365 0.20874 0.27217 0.0
C1596 C 0.32626 0.15633 0.25471 0.0
C1597 C 0.35937 0.12463 0.26571 0.0
C1598 C 0.35043 0.1415 0.26612 0.0
C1599 C 0.32437 0.19014 0.26746 0.0
C1600 C 0.33344 0.1734 0.26693 0.0
H1601 H 0.39954 0.11371 0.27455 0.0
H1602 H 0.38556 0.14031 0.27508 0.0
H1603 H 0.32835 0.12848 0.24429 0.0
H1604 H 0.28384 0.2004 0.26083 0.0
H1605 H 0.29821 0.17409 0.25989 0.0
C1606 C 0.30423 0.09178 0.50682 0.0
C1607 C 0.30158 0.1086 0.50118 0.0
C1608 C 0.31962 0.08582 0.50527 0.0
C1609 C 0.3654 0.10223 0.50274 0.0
H1610 H 0.36368 0.04984 0.48761 0.0
C1611 C 0.42409 0.06784 0.51914 0.0
C1612 C 0.4259 0.05271 0.50606 0.0
C1613 C 0.40967 0.07598 0.51625 0.0
C1614 C 0.36447 0.06456 0.49162 0.0
H1615 H 0.3132 0.13233 0.48938 0.0
H1616 H 0.34027 0.12183 0.48664 0.0
H1617 H 0.33704 0.06133 0.48619 0.0
H1618 H 0.41439 0.03497 0.47909 0.0
H1619 H 0.38933 0.04923 0.47394 0.0
H1620 H 0.39291 0.10539 0.50818 0.0
C1621 C 0.33033 0.11333 0.49236 0.0
C1622 C 0.34914 0.07113 0.49102 0.0
C1623 C 0.31479 0.1193 0.49384 0.0
C1624 C 0.41325 0.04639 0.48963 0.0
C1625 C 0.39886 0.05456 0.4867 0.0
C1626 C 0.38079 0.09563 0.50336 0.0
C1627 C 0.3329 0.09648 0.49805 0.0
C1628 C 0.34936 0.08998 0.49691 0.0
C1629 C 0.3967 0.06923 0.50015 0.0
C1630 C 0.38051 0.07665 0.49807 0.0
H1631 H 0.29441 0.08315 0.51259 0.0
H1632 H 0.32123 0.07295 0.5101 0.0
H1633 H 0.36605 0.11681 0.50746 0.0
H1634 H 0.43347 0.07293 0.53207 0.0
H1635 H 0.40836 0.08707 0.52705 0.0
C1636 C 0.68245 0.59948 0.30704 0.0
C1637 C 0.66611 0.59668 0.29563 0.0
C1638 C 0.69477 0.6156 0.30752 0.0
C1639 C 0.70805 0.64989 0.27803 0.0
H1640 H 0.73107 0.68219 0.3251 0.0
C1641 C 0.75034 0.72036 0.27595 0.0
C1642 C 0.76516 0.72687 0.28983 0.0
C1643 C 0.73834 0.70476 0.27761 0.0
C1644 C 0.72499 0.67319 0.31183 0.0
H1645 H 0.64989 0.60866 0.27591 0.0
H1646 H 0.67153 0.63648 0.27645 0.0
H1647 H 0.7103 0.65408 0.32647 0.0
H1648 H 0.77924 0.72211 0.31624 0.0
H1649 H 0.75867 0.69431 0.31878 0.0
H1650 H 0.72293 0.66837 0.26328 0.0
C1651 C 0.67472 0.62628 0.2851 0.0
C1652 C 0.71305 0.65715 0.31265 0.0
C1653 C 0.66233 0.61039 0.28488 0.0
C1654 C 0.76783 0.71743 0.30539 0.0
C1655 C 0.75596 0.70158 0.3069 0.0
C1656 C 0.72016 0.6657 0.2772 0.0
C1657 C 0.69107 0.62898 0.29632 0.0
C1658 C 0.70432 0.64551 0.29573 0.0
C1659 C 0.74108 0.69496 0.29295 0.0
C1660 C 0.72863 0.67774 0.29406 0.0
H1661 H 0.68573 0.5892 0.31553 0.0
H1662 H 0.70734 0.61737 0.31624 0.0
H1663 H 0.70166 0.64096 0.26479 0.0
H1664 H 0.74812 0.72712 0.26359 0.0
H1665 H 0.72692 0.70037 0.26677 0.0
C1666 C 0.87742 0.45938 0.74708 0.0
C1667 C 0.87676 0.47519 0.76002 0.0
C1668 C 0.868 0.44169 0.7481 0.0
C1669 C 0.83368 0.41585 0.77293 0.0
H1670 H 0.85176 0.37366 0.75291 0.0
C1671 C 0.8083 0.3399 0.78677 0.0
C1672 C 0.80607 0.32514 0.77141 0.0
C1673 C 0.81625 0.35815 0.78531 0.0
C1674 C 0.84636 0.3852 0.75845 0.0
H1675 H 0.8652 0.48431 0.78431 0.0
H1676 H 0.84919 0.45351 0.78662 0.0
H1677 H 0.86642 0.40472 0.75093 0.0
H1678 H 0.81082 0.31859 0.74237 0.0
H1679 H 0.82498 0.35011 0.74001 0.0
H1680 H 0.81396 0.39598 0.78112 0.0
C1681 C 0.85668 0.45474 0.77517 0.0
C1682 C 0.85479 0.4033 0.75721 0.0
C1683 C 0.86592 0.47263 0.77387 0.0
C1684 C 0.81223 0.3294 0.75457 0.0
C1685 C 0.82047 0.34759 0.75324 0.0
C1686 C 0.82541 0.3977 0.77447 0.0
C1687 C 0.85773 0.43874 0.76247 0.0
C1688 C 0.84861 0.41915 0.76424 0.0
C1689 C 0.8226 0.36238 0.76856 0.0
C1690 C 0.83151 0.38197 0.76713 0.0
H1691 H 0.88551 0.46064 0.73612 0.0
H1692 H 0.86896 0.43031 0.73747 0.0
H1693 H 0.8281 0.42726 0.77838 0.0
H1694 H 0.80375 0.3374 0.79999 0.0
H1695 H 0.81768 0.36894 0.79753 0.0
C1696 C 0.05207 0.85748 0.1179 0.0
C1697 C 0.05385 0.84081 0.1073 0.0
C1698 C 0.04994 0.87272 0.10889 0.0
C1699 C 0.03741 0.88607 0.06127 0.0
H1700 H 0.05914 0.93531 0.088 0.0
C1701 C 0.02193 0.95266 0.0345 0.0
C1702 C 0.03545 0.96821 0.03693 0.0
C1703 C 0.0244 0.93684 0.04236 0.0
C1704 C 0.0531 0.92168 0.08019 0.0
H1705 H 0.05481 0.82716 0.07881 0.0
H1706 H 0.05136 0.85383 0.06309 0.0
H1707 H 0.06341 0.90849 0.10271 0.0
H1708 H 0.06221 0.97917 0.04961 0.0
H1709 H 0.06647 0.95173 0.0632 0.0
H1710 H 0.02743 0.89931 0.03854 0.0
C1711 C 0.05134 0.85505 0.07838 0.0
C1712 C 0.05536 0.90624 0.08878 0.0
C1713 C 0.05343 0.83977 0.08741 0.0
C1714 C 0.05152 0.96745 0.04728 0.0
C1715 C 0.05394 0.9517 0.05523 0.0
C1716 C 0.03517 0.90154 0.05264 0.0
C1717 C 0.04961 0.87178 0.08901 0.0
C1718 C 0.04748 0.8882 0.07952 0.0
C1719 C 0.04042 0.93618 0.05297 0.0
C1720 C 0.04294 0.91959 0.062 0.0
H1721 H 0.05224 0.85878 0.13323 0.0
H1722 H 0.04834 0.88519 0.11755 0.0
H1723 H 0.031 0.87245 0.05374 0.0
H1724 H 0.00936 0.95276 0.02669 0.0
H1725 H 0.01358 0.9253 0.04052 0.0
C1726 C 0.95559 0.26992 0.85451 0.0
C1727 C 0.95931 0.26004 0.86954 0.0
C1728 C 0.93864 0.26913 0.84608 0.0
C1729 C 0.89312 0.25826 0.85261 0.0
H1730 H 0.88522 0.25449 0.79728 0.0
C1731 C 0.83016 0.27012 0.8078 0.0
C1732 C 0.82463 0.25913 0.78967 0.0
C1733 C 0.84569 0.26895 0.819 0.0
C1734 C 0.88707 0.25534 0.81272 0.0
H1735 H 0.94784 0.2418 0.88771 0.0
H1736 H 0.91796 0.24028 0.87271 0.0
H1737 H 0.9137 0.25435 0.81391 0.0
H1738 H 0.83051 0.23779 0.76938 0.0
H1739 H 0.85715 0.23542 0.78888 0.0
H1740 H 0.86624 0.25909 0.85121 0.0
C1741 C 0.92835 0.24873 0.86761 0.0
C1742 C 0.90352 0.25548 0.8223 0.0
C1743 C 0.94546 0.24951 0.87611 0.0
C1744 C 0.83453 0.24655 0.78324 0.0
C1745 C 0.84987 0.24527 0.7944 0.0
C1746 C 0.87655 0.25814 0.84296 0.0
C1747 C 0.92478 0.25839 0.85232 0.0
C1748 C 0.90684 0.25713 0.84237 0.0
C1749 C 0.85592 0.25675 0.81222 0.0
C1750 C 0.87334 0.2567 0.82286 0.0
H1751 H 0.96581 0.27834 0.84912 0.0
H1752 H 0.93639 0.27705 0.83463 0.0
H1753 H 0.89527 0.25965 0.8681 0.0
H1754 H 0.82293 0.28017 0.81292 0.0
H1755 H 0.85003 0.27813 0.83257 0.0
C1756 C 0.5438 0.21362 0.6203 0.0
C1757 C 0.55064 0.22943 0.61287 0.0
C1758 C 0.54063 0.19606 0.60921 0.0
C1759 C 0.55735 0.16794 0.57674 0.0
H1760 H 0.51185 0.1366 0.5617 0.0
C1761 C 0.54864 0.09196 0.53992 0.0
C1762 C 0.53525 0.07886 0.54413 0.0
C1763 C 0.54974 0.11093 0.54575 0.0
C1764 C 0.5247 0.145 0.56599 0.0
H1765 H 0.5594 0.23932 0.58795 0.0
H1766 H 0.55446 0.20824 0.56868 0.0
H1767 H 0.51491 0.16873 0.57661 0.0
H1768 H 0.51257 0.07537 0.55784 0.0
H1769 H 0.51494 0.10815 0.56886 0.0
H1770 H 0.5674 0.14417 0.56756 0.0
C1771 C 0.55126 0.20966 0.583 0.0
C1772 C 0.52637 0.16349 0.57431 0.0
C1773 C 0.554 0.22736 0.59396 0.0
C1774 C 0.52297 0.08512 0.55424 0.0
C1775 C 0.52428 0.10404 0.56043 0.0
C1776 C 0.55573 0.14934 0.56883 0.0
C1777 C 0.54463 0.1939 0.59062 0.0
C1778 C 0.54271 0.17505 0.57986 0.0
C1779 C 0.53769 0.11728 0.55631 0.0
C1780 C 0.53938 0.13748 0.56354 0.0
H1781 H 0.54105 0.21481 0.63481 0.0
H1782 H 0.53559 0.18407 0.61538 0.0
H1783 H 0.5701 0.17658 0.58119 0.0
H1784 H 0.55819 0.08758 0.53196 0.0
H1785 H 0.56004 0.12057 0.54186 0.0
C1786 C 0.5572 0.74648 0.36856 0.0
C1787 C 0.5583 0.75068 0.38854 0.0
C1788 C 0.57211 0.74677 0.36029 0.0
C1789 C 0.61887 0.7665 0.36951 0.0
H1790 H 0.61952 0.72953 0.32606 0.0
C1791 C 0.67983 0.76498 0.33393 0.0
C1792 C 0.6771 0.76168 0.31377 0.0
C1793 C 0.66587 0.76256 0.34393 0.0
C1794 C 0.61952 0.74006 0.33808 0.0
H1795 H 0.57597 0.75826 0.41551 0.0
H1796 H 0.60201 0.75871 0.40106 0.0
H1797 H 0.5942 0.72735 0.3418 0.0
H1798 H 0.65753 0.7526 0.28839 0.0
H1799 H 0.6333 0.74875 0.30571 0.0
H1800 H 0.6441 0.77936 0.3656 0.0
C1801 C 0.5896 0.75536 0.39178 0.0
C1802 C 0.60498 0.7388 0.34712 0.0
C1803 C 0.57467 0.75501 0.40007 0.0
C1804 C 0.66011 0.75554 0.3039 0.0
C1805 C 0.6462 0.75309 0.31386 0.0
C1806 C 0.63341 0.76777 0.36044 0.0
C1807 C 0.58852 0.75131 0.37177 0.0
C1808 C 0.60438 0.75212 0.36281 0.0
C1809 C 0.64886 0.75668 0.334 0.0
C1810 C 0.63385 0.75469 0.34446 0.0
H1811 H 0.5448 0.74312 0.35926 0.0
H1812 H 0.57078 0.74382 0.34482 0.0
H1813 H 0.61878 0.77711 0.38142 0.0
H1814 H 0.69272 0.76982 0.34198 0.0
H1815 H 0.66841 0.76527 0.35944 0.0
C1816 C 0.03542 0.23464 0.3859 0.0
C1817 C 0.0394 0.25249 0.39677 0.0
C1818 C 0.03517 0.21905 0.39496 0.0
C1819 C 0.04366 0.18897 0.41799 0.0
H1820 H 0.0226 0.18991 0.46386 0.0
C1821 C 0.04746 0.13547 0.46984 0.0
C1822 C 0.03293 0.13021 0.47845 0.0
C1823 C 0.04788 0.14921 0.4582 0.0
C1824 C 0.02835 0.18931 0.45096 0.0
H1825 H 0.04686 0.26806 0.42556 0.0
H1826 H 0.04662 0.24097 0.44129 0.0
H1827 H 0.02444 0.21626 0.44692 0.0
H1828 H 0.00706 0.13425 0.48066 0.0
H1829 H 0.00771 0.15806 0.46024 0.0
H1830 H 0.04734 0.16182 0.42198 0.0
C1831 C 0.04338 0.23895 0.42582 0.0
C1832 C 0.02963 0.20454 0.4414 0.0
C1833 C 0.04362 0.25449 0.41679 0.0
C1834 C 0.01857 0.13833 0.47453 0.0
C1835 C 0.01895 0.15196 0.46285 0.0
C1836 C 0.0424 0.17369 0.4276 0.0
C1837 C 0.03886 0.22105 0.41505 0.0
C1838 C 0.03739 0.20461 0.42489 0.0
C1839 C 0.03375 0.15786 0.45491 0.0
C1840 C 0.03475 0.17372 0.44421 0.0
H1841 H 0.03211 0.23266 0.37044 0.0
H1842 H 0.03154 0.20544 0.38628 0.0
H1843 H 0.04978 0.18866 0.40534 0.0
H1844 H 0.05874 0.12948 0.47269 0.0
H1845 H 0.05952 0.15355 0.4524 0.0
C1846 C 0.6032 0.28271 0.21999 0.0
C1847 C 0.59677 0.27863 0.20023 0.0
C1848 C 0.62097 0.28666 0.22651 0.0
C1849 C 0.65912 0.27385 0.21211 0.0
H1850 H 0.68517 0.31377 0.25155 0.0
C1851 C 0.73154 0.28018 0.23378 0.0
C1852 C 0.7383 0.2849 0.25336 0.0
C1853 C 0.71491 0.28221 0.22703 0.0
C1854 C 0.67803 0.30244 0.24066 0.0
H1855 H 0.60387 0.27659 0.17184 0.0
H1856 H 0.63481 0.28322 0.18327 0.0
H1857 H 0.65453 0.31258 0.24062 0.0
H1858 H 0.73329 0.2959 0.28126 0.0
H1859 H 0.70392 0.29873 0.26962 0.0
H1860 H 0.68207 0.26309 0.21257 0.0
C1861 C 0.62611 0.28328 0.19365 0.0
C1862 C 0.66056 0.30183 0.23438 0.0
C1863 C 0.60841 0.27952 0.18715 0.0
C1864 C 0.72837 0.29222 0.26604 0.0
C1865 C 0.71157 0.29393 0.25935 0.0
C1866 C 0.67644 0.27428 0.21855 0.0
C1867 C 0.63251 0.28641 0.21336 0.0
C1868 C 0.65103 0.28757 0.21998 0.0
C1869 C 0.70453 0.28861 0.23979 0.0
C1870 C 0.68616 0.28861 0.23283 0.0
H1871 H 0.59451 0.28221 0.23039 0.0
H1872 H 0.62565 0.28898 0.24178 0.0
H1873 H 0.65193 0.26249 0.20126 0.0
H1874 H 0.73905 0.27476 0.22366 0.0
H1875 H 0.71011 0.27848 0.21181 0.0
C1876 C 0.50948 0.84599 0.92264 0.0
C1877 C 0.51243 0.85116 0.90493 0.0
C1878 C 0.5041 0.85799 0.93624 0.0
C1879 C 0.48564 0.90014 0.94284 0.0
H1880 H 0.51329 0.90918 0.99344 0.0
C1881 C 0.50257 0.97007 0.99134 0.0
C1882 C 0.50706 0.97106 0.0112 0.0
C1883 C 0.49692 0.95295 0.97953 0.0
C1884 C 0.50504 0.90654 0.9796 0.0
H1885 H 0.51157 0.87281 0.88742 0.0
H1886 H 0.5024 0.89383 0.91126 0.0
H1887 H 0.51597 0.88351 0.97008 0.0
H1888 H 0.50731 0.95524 0.03459 0.0
H1889 H 0.49719 0.92519 0.01392 0.0
H1890 H 0.47523 0.9237 0.95218 0.0
C1891 C 0.50405 0.88039 0.91453 0.0
C1892 C 0.50666 0.89183 0.96615 0.0
C1893 C 0.50949 0.86842 0.90095 0.0
C1894 C 0.50413 0.9548 0.01927 0.0
C1895 C 0.49843 0.93762 0.00743 0.0
C1896 C 0.48395 0.91483 0.95634 0.0
C1897 C 0.50147 0.87538 0.93239 0.0
C1898 C 0.49745 0.8889 0.94743 0.0
C1899 C 0.49559 0.93649 0.98738 0.0
C1900 C 0.49414 0.91862 0.97464 0.0
H1901 H 0.51151 0.83273 0.92613 0.0
H1902 H 0.50211 0.85372 0.94984 0.0
H1903 H 0.47813 0.89796 0.92861 0.0
H1904 H 0.50464 0.98241 0.98475 0.0
H1905 H 0.49497 0.95264 0.96416 0.0
C1906 C 0.00783 0.73095 0.74098 0.0
C1907 C 0.0077 0.7334 0.72176 0.0
C1908 C 0.99283 0.73052 0.74912 0.0
C1909 C 0.94551 0.72575 0.73721 0.0
H1910 H 0.95086 0.76196 0.78312 0.0
C1911 C 0.89262 0.7642 0.75384 0.0
C1912 C 0.88966 0.7679 0.77279 0.0
C1913 C 0.90637 0.75611 0.74976 0.0
C1914 C 0.94914 0.75149 0.77055 0.0
H1915 H 0.99158 0.73625 0.69573 0.0
H1916 H 0.96556 0.73551 0.70987 0.0
H1917 H 0.97635 0.75363 0.7719 0.0
H1918 H 0.89882 0.76594 0.80235 0.0
H1919 H 0.92321 0.75204 0.79518 0.0
H1920 H 0.91836 0.72423 0.73538 0.0
C1921 C 0.97717 0.73387 0.71867 0.0
C1922 C 0.96374 0.7467 0.76414 0.0
C1923 C 0.99213 0.73447 0.71061 0.0
C1924 C 0.90088 0.76344 0.78763 0.0
C1925 C 0.91476 0.7554 0.78353 0.0
C1926 C 0.93095 0.73052 0.74362 0.0
C1927 C 0.97744 0.73229 0.7381 0.0
C1928 C 0.96207 0.73432 0.747 0.0
C1929 C 0.91758 0.75161 0.76453 0.0
C1930 C 0.93266 0.74398 0.75992 0.0
H1931 H 0.01963 0.73004 0.74993 0.0
H1932 H 0.99335 0.7292 0.76411 0.0
H1933 H 0.94385 0.71591 0.72414 0.0
H1934 H 0.88445 0.76782 0.74213 0.0
H1935 H 0.90848 0.75381 0.73503 0.0
C1936 C 0.09215 0.03962 0.84715 0.0
C1937 C 0.10812 0.03607 0.84325 0.0
C1938 C 0.08614 0.03519 0.86378 0.0
C1939 C 0.09968 0.0268 0.91246 0.0
H1940 H 0.05192 1.00183 0.90752 0.0
C1941 C 0.04728 0.99255 0.96053 0.0
C1942 C 0.04928 0.00748 0.97545 0.0
C1943 C 0.0564 0.99428 0.94526 0.0
C1944 C 0.06534 0.00858 0.90913 0.0
H1945 H 0.13048 0.02549 0.85408 0.0
H1946 H 0.11999 0.01793 0.88329 0.0
H1947 H 0.06379 0.00873 0.87898 0.0
H1948 H 0.06303 0.03555 0.98666 0.0
H1949 H 0.07907 0.03851 0.96015 0.0
H1950 H 0.10109 0.02691 0.94271 0.0
C1951 C 0.11215 0.0241 0.87338 0.0
C1952 C 0.07208 0.01273 0.89281 0.0
C1953 C 0.11811 0.02837 0.85662 0.0
C1954 C 0.06129 0.02378 0.9754 0.0
C1955 C 0.0705 0.02546 0.96023 0.0
C1956 C 0.09288 0.0228 0.92885 0.0
C1957 C 0.096 0.02725 0.87699 0.0
C1958 C 0.08924 0.02207 0.89431 0.0
C1959 C 0.06778 0.01093 0.94472 0.0
C1960 C 0.07559 0.01379 0.92735 0.0
H1961 H 0.08412 0.04555 0.8372 0.0
H1962 H 0.07375 0.03801 0.86633 0.0
H1963 H 0.11294 0.03406 0.91403 0.0
H1964 H 0.03815 0.9798 0.96025 0.0
H1965 H 0.05421 0.98277 0.93361 0.0
C1966 C 0.78436 0.35112 0.56082 0.0
C1967 C 0.7797 0.34507 0.54103 0.0
C1968 C 0.79478 0.34205 0.57196 0.0
C1969 C 0.8055 0.29595 0.57089 0.0
H1970 H 0.82869 0.31891 0.62195 0.0
C1971 C 0.79584 0.26225 0.63513 0.0
C1972 C 0.80728 0.26787 0.65254 0.0
C1973 C 0.79973 0.26919 0.61872 0.0
C1974 C 0.82275 0.31216 0.60759 0.0
H1975 H 0.78336 0.32586 0.51705 0.0
H1976 H 0.80209 0.31045 0.53636 0.0
H1977 H 0.82306 0.33816 0.59792 0.0
H1978 H 0.83261 0.28359 0.66592 0.0
H1979 H 0.83948 0.29575 0.63707 0.0
H1980 H 0.80516 0.26996 0.5806 0.0
C1981 C 0.79722 0.32173 0.54346 0.0
C1982 C 0.81922 0.32328 0.59387 0.0
C1983 C 0.78651 0.33057 0.53237 0.0
C1984 C 0.82339 0.27931 0.65277 0.0
C1985 C 0.82733 0.28625 0.63625 0.0
C1986 C 0.80937 0.28483 0.58448 0.0
C1987 C 0.80104 0.32695 0.56349 0.0
C1988 C 0.80943 0.31536 0.57581 0.0
C1989 C 0.81518 0.28192 0.61927 0.0
C1990 C 0.81686 0.29286 0.6034 0.0
H1991 H 0.77931 0.36229 0.56784 0.0
H1992 H 0.79709 0.34633 0.58734 0.0
H1993 H 0.79809 0.28922 0.55712 0.0
H1994 H 0.78323 0.25365 0.63445 0.0
H1995 H 0.78988 0.26571 0.60608 0.0
C1996 C 0.43226 0.04028 0.34001 0.0
C1997 C 0.44213 0.03987 0.32504 0.0
C1998 C 0.43981 0.04013 0.35926 0.0
C1999 C 0.48323 0.04904 0.39151 0.0
H2000 H 0.46024 0.0183 0.42396 0.0
C2001 C 0.5226 0.03161 0.45854 0.0
C2002 C 0.51573 0.02965 0.47551 0.0
C2003 C 0.5124 0.03344 0.44151 0.0
C2004 C 0.46686 0.02716 0.41527 0.0
H2005 H 0.46797 0.03939 0.31924 0.0
H2006 H 0.48088 0.03947 0.352 0.0
H2007 H 0.44489 0.02101 0.39248 0.0
H2008 H 0.49207 0.02803 0.48733 0.0
H2009 H 0.47403 0.03126 0.45742 0.0
H2010 H 0.50509 0.05533 0.41396 0.0
C2011 C 0.46733 0.03994 0.3492 0.0
C2012 C 0.45798 0.02873 0.39707 0.0
C2013 C 0.45981 0.03983 0.33016 0.0
C2014 C 0.49793 0.02938 0.47465 0.0
C2015 C 0.48756 0.03124 0.45737 0.0
C2016 C 0.49201 0.04754 0.40958 0.0
C2017 C 0.45755 0.03989 0.36422 0.0
C2018 C 0.46614 0.03941 0.38461 0.0
C2019 C 0.49468 0.03355 0.44045 0.0
C2020 C 0.48424 0.03624 0.42175 0.0
H2021 H 0.41858 0.04004 0.33679 0.0
H2022 H 0.43173 0.04019 0.37025 0.0
H2023 H 0.49 0.05783 0.38285 0.0
H2024 H 0.53615 0.03176 0.45834 0.0
H2025 H 0.51855 0.03463 0.429 0.0
C2026 C 0.76866 0.66443 0.08327 0.0
C2027 C 0.76875 0.67224 0.06638 0.0
C2028 C 0.77207 0.67568 0.10118 0.0
C2029 C 0.76978 0.72165 0.1248 0.0
H2030 H 0.79773 0.7086 0.16776 0.0
C2031 C 0.79716 0.7495 0.21089 0.0
C2032 C 0.78179 0.75241 0.21718 0.0
C2033 C 0.79701 0.74162 0.19194 0.0
C2034 C 0.79005 0.71258 0.1559 0.0
H2035 H 0.77268 0.6981 0.05513 0.0
H2036 H 0.77849 0.71782 0.08658 0.0
H2037 H 0.79543 0.6913 0.13569 0.0
H2038 H 0.75429 0.74979 0.20823 0.0
H2039 H 0.75407 0.73606 0.17523 0.0
H2040 H 0.7642 0.74277 0.1451 0.0
C2041 C 0.77577 0.70293 0.08585 0.0
C2042 C 0.78861 0.70256 0.13755 0.0
C2043 C 0.77253 0.69164 0.06786 0.0
C2044 C 0.76637 0.74772 0.20392 0.0
C2045 C 0.76624 0.73995 0.18494 0.0
C2046 C 0.77112 0.7316 0.1432 0.0
C2047 C 0.77552 0.69505 0.1027 0.0
C2048 C 0.77827 0.7068 0.12183 0.0
C2049 C 0.78152 0.73659 0.17879 0.0
C2050 C 0.7811 0.72702 0.159 0.0
H2051 H 0.76583 0.64955 0.0827 0.0
H2052 H 0.77157 0.66917 0.11386 0.0
H2053 H 0.76164 0.72518 0.11301 0.0
H2054 H 0.8093 0.75298 0.22069 0.0
H2055 H 0.80902 0.73937 0.18758 0.0
C2056 C 0.1006 0.01506 0.72694 0.0
C2057 C 0.11728 0.02587 0.73304 0.0
C2058 C 0.09236 0.01367 0.70805 0.0
C2059 C 0.08959 0.03937 0.66883 0.0
H2060 H 0.07292 0.99235 0.63508 0.0
C2061 C 0.0647 0.03668 0.58889 0.0
C2062 C 0.05127 0.02211 0.57949 0.0
C2063 C 0.07262 0.03651 0.60753 0.0
C2064 C 0.07719 0.0056 0.64437 0.0
H2065 H 0.13842 0.04365 0.7242 0.0
H2066 H 0.12376 0.04165 0.69139 0.0
H2067 H 0.08658 0.99302 0.66801 0.0
H2068 H 0.03547 0.99597 0.58224 0.0
H2069 H 0.04869 0.99605 0.61511 0.0
H2070 H 0.07974 0.05206 0.64577 0.0
C2071 C 0.11721 0.03411 0.70118 0.0
C2072 C 0.0851 0.00594 0.66319 0.0
C2073 C 0.12559 0.03517 0.7199 0.0
C2074 C 0.04588 0.00734 0.58911 0.0
C2075 C 0.05357 0.00736 0.60794 0.0
C2076 C 0.08137 0.03904 0.6502 0.0
C2077 C 0.10052 0.0234 0.69512 0.0
C2078 C 0.09154 0.02285 0.67547 0.0
C2079 C 0.06705 0.02197 0.61744 0.0
C2080 C 0.07524 0.02217 0.63758 0.0
H2081 H 0.09393 0.00772 0.73677 0.0
H2082 H 0.07945 1.00538 0.70367 0.0
H2083 H 0.09427 0.05257 0.67817 0.0
H2084 H 0.06929 0.04812 0.58173 0.0
H2085 H 0.08324 0.04777 0.61407 0.0
C2086 C 0.72307 0.34505 0.4235 0.0
C2087 C 0.72515 0.34021 0.4419 0.0
C2088 C 0.72448 0.33259 0.4076 0.0
C2089 C 0.7451 0.29287 0.39665 0.0
H2090 H 0.72258 0.29232 0.34487 0.0
C2091 C 0.7453 0.25802 0.31323 0.0
C2092 C 0.76321 0.26106 0.31378 0.0
C2093 C 0.73849 0.26455 0.32922 0.0
C2094 C 0.72878 0.29204 0.35927 0.0
H2095 H 0.72886 0.31806 0.45796 0.0
H2096 H 0.73066 0.29611 0.43022 0.0
H2097 H 0.71308 0.30917 0.37177 0.0
H2098 H 0.78808 0.27231 0.3315 0.0
H2099 H 0.77629 0.28398 0.35928 0.0
H2100 H 0.76071 0.27568 0.38421 0.0
C2101 C 0.72861 0.30974 0.42807 0.0
C2102 C 0.72349 0.30191 0.37468 0.0
C2103 C 0.72748 0.32227 0.44396 0.0
C2104 C 0.77421 0.26987 0.33076 0.0
C2105 C 0.76743 0.27644 0.3467 0.0
C2106 C 0.75028 0.28291 0.38129 0.0
C2107 C 0.72775 0.31496 0.4098 0.0
C2108 C 0.73184 0.30278 0.39353 0.0
C2109 C 0.74949 0.27416 0.34601 0.0
C2110 C 0.74248 0.28275 0.36239 0.0
H2111 H 0.72131 0.35881 0.4215 0.0
H2112 H 0.7239 0.33716 0.39379 0.0
H2113 H 0.75201 0.29338 0.41092 0.0
H2114 H 0.73658 0.25119 0.30026 0.0
H2115 H 0.72462 0.26235 0.32834 0.0
C2116 C 0.44806 0.04038 0.2106 0.0
C2117 C 0.42999 0.03857 0.20875 0.0
C2118 C 0.45647 0.03861 0.19437 0.0
C2119 C 0.44815 0.0225 0.13988 0.0
H2120 H 0.49565 0.04758 0.14391 0.0
C2121 C 0.48397 0.02375 0.0722 0.0
C2122 C 0.50183 0.02375 0.07468 0.0
C2123 C 0.47505 0.02543 0.08808 0.0
C2124 C 0.48243 0.04022 0.14238 0.0
H2125 H 0.40685 0.03349 0.18757 0.0
H2126 H 0.4213 0.03084 0.15956 0.0
H2127 H 0.48096 0.0508 0.17147 0.0
H2128 H 0.52396 0.0256 0.09659 0.0
H2129 H 0.50869 0.02848 0.12381 0.0
H2130 H 0.44966 0.01214 0.11061 0.0
C2131 C 0.42915 0.03328 0.1736 0.0
C2132 C 0.47386 0.04206 0.15847 0.0
C2133 C 0.42073 0.03496 0.18986 0.0
C2134 C 0.51029 0.02552 0.09377 0.0
C2135 C 0.50143 0.02734 0.1096 0.0
C2136 C 0.45671 0.02075 0.12373 0.0
C2137 C 0.44728 0.03504 0.17537 0.0
C2138 C 0.45649 0.03318 0.15775 0.0
C2139 C 0.48358 0.02739 0.10723 0.0
C2140 C 0.47412 0.02949 0.12457 0.0
H2141 H 0.45581 0.04303 0.22473 0.0
H2142 H 0.4703 0.03978 0.19689 0.0
H2143 H 0.43497 0.01506 0.13831 0.0
H2144 H 0.47681 0.02247 0.0579 0.0
H2145 H 0.46143 0.02554 0.08528 0.0
C2146 C 0.7669 0.70208 0.95588 0.0
C2147 C 0.76412 0.68264 0.95248 0.0
C2148 C 0.76783 0.71218 0.94067 0.0
C2149 C 0.75542 0.70743 0.88798 0.0
H2150 H 0.79062 0.75189 0.89315 0.0
C2151 C 0.77241 0.74164 0.82295 0.0
C2152 C 0.77752 0.761 0.82542 0.0
C2153 C 0.76936 0.7327 0.83858 0.0
C2154 C 0.78051 0.73968 0.89153 0.0
H2155 H 0.76019 0.65859 0.93038 0.0
H2156 H 0.76188 0.67615 0.90395 0.0
H2157 H 0.78837 0.7352 0.92018 0.0
H2158 H 0.78275 0.78624 0.84606 0.0
H2159 H 0.77712 0.7707 0.87335 0.0
H2160 H 0.74758 0.71184 0.85933 0.0
C2161 C 0.76317 0.68362 0.91834 0.0
C2162 C 0.77925 0.73008 0.90705 0.0
C2163 C 0.76233 0.67355 0.93353 0.0
C2164 C 0.7789 0.77129 0.84374 0.0
C2165 C 0.77581 0.76236 0.85939 0.0
C2166 C 0.75663 0.71706 0.87248 0.0
C2167 C 0.76589 0.70306 0.92169 0.0
C2168 C 0.7668 0.71372 0.90542 0.0
C2169 C 0.77129 0.74291 0.85709 0.0
C2170 C 0.76931 0.73323 0.87397 0.0
H2171 H 0.76829 0.70952 0.9703 0.0
H2172 H 0.76979 0.72712 0.94376 0.0
H2173 H 0.74547 0.69507 0.88633 0.0
H2174 H 0.77133 0.73331 0.80902 0.0
H2175 H 0.7661 0.71772 0.83624 0.0
C2176 C 0.88452 0.13456 0.04732 0.0
C2177 C 0.86915 0.1405 0.04186 0.0
C2178 C 0.89485 0.1304 0.0338 0.0
C2179 C 0.89018 0.11196 0.98349 0.0
H2180 H 0.93937 0.11582 0.99759 0.0
C2181 C 0.95032 0.07339 0.9698 0.0
C2182 C 0.94127 0.05554 0.97049 0.0
C2183 C 0.94177 0.08815 0.96988 0.0
C2184 C 0.92574 0.11492 0.99294 0.0
H2185 H 0.85311 0.14783 0.01813 0.0
H2186 H 0.87118 0.14034 0.99443 0.0
H2187 H 0.92484 0.13601 0.01601 0.0
H2188 H 0.91614 0.03857 0.96973 0.0
H2189 H 0.90119 0.06426 0.97047 0.0
H2190 H 0.89096 0.09029 0.96089 0.0
C2191 C 0.87514 0.13887 0.00918 0.0
C2192 C 0.91738 0.1264 0.00372 0.0
C2193 C 0.86484 0.14318 0.02278 0.0
C2194 C 0.92332 0.05225 0.96915 0.0
C2195 C 0.91478 0.06704 0.96949 0.0
C2196 C 0.89857 0.10052 0.9726 0.0
C2197 C 0.89004 0.13201 0.01448 0.0
C2198 C 0.89938 0.12422 0.99984 0.0
C2199 C 0.92409 0.08531 0.97105 0.0
C2200 C 0.91626 0.10107 0.97797 0.0
H2201 H 0.88826 0.13246 0.06192 0.0
H2202 H 0.90612 0.12489 0.03831 0.0
H2203 H 0.87629 0.11001 0.98007 0.0
H2204 H 0.9642 0.07612 0.97061 0.0
H2205 H 0.94925 0.10197 0.97057 0.0
C2206 C 0.3629 0.42709 0.05571 0.0
C2207 C 0.35087 0.42434 0.03881 0.0
C2208 C 0.38035 0.43461 0.05576 0.0
C2209 C 0.4081 0.461 0.02609 0.0
H2210 H 0.44567 0.45088 0.06085 0.0
C2211 C 0.47917 0.48613 0.0196 0.0
C2212 C 0.48866 0.49814 0.03593 0.0
C2213 C 0.46318 0.47521 0.02046 0.0
C2214 C 0.43525 0.45376 0.05107 0.0
H2215 H 0.34767 0.42596 0.00851 0.0
H2216 H 0.37792 0.43776 0.00821 0.0
H2217 H 0.41603 0.4351 0.06109 0.0
H2218 H 0.48952 0.50733 0.0662 0.0
H2219 H 0.46169 0.48778 0.06782 0.0
H2220 H 0.42741 0.47922 0.01574 0.0
C2221 C 0.37404 0.43525 0.02174 0.0
C2222 C 0.41825 0.44485 0.05127 0.0
C2223 C 0.35666 0.42827 0.02183 0.0
C2224 C 0.48238 0.49825 0.05338 0.0
C2225 C 0.46654 0.48704 0.05434 0.0
C2226 C 0.42505 0.46952 0.02561 0.0
C2227 C 0.38612 0.43909 0.03878 0.0
C2228 C 0.40439 0.44834 0.03875 0.0
C2229 C 0.4566 0.4758 0.03777 0.0
C2230 C 0.43878 0.46603 0.03809 0.0
H2231 H 0.35872 0.4242 0.069 0.0
H2232 H 0.38914 0.43744 0.06922 0.0
H2233 H 0.3979 0.46464 0.01665 0.0
H2234 H 0.48375 0.48574 0.00597 0.0
H2235 H 0.45576 0.46658 0.00751 0.0
C2236 C 0.37562 0.54773 0.74754 0.0
C2237 C 0.39351 0.55115 0.75371 0.0
C2238 C 0.36685 0.56234 0.7476 0.0
C2239 C 0.37406 0.61265 0.74697 0.0
H2240 H 0.32791 0.60719 0.75949 0.0
C2241 C 0.33022 0.66407 0.73011 0.0
C2242 C 0.31988 0.66882 0.74366 0.0
C2243 C 0.33945 0.65 0.73213 0.0
C2244 C 0.34086 0.60904 0.75613 0.0
H2245 H 0.4162 0.57254 0.76526 0.0
H2246 H 0.40084 0.59806 0.76566 0.0
H2247 H 0.34371 0.58241 0.76265 0.0
H2248 H 0.31103 0.6623 0.76987 0.0
H2249 H 0.32748 0.63816 0.77366 0.0
H2250 H 0.37133 0.63942 0.74079 0.0
C2251 C 0.39362 0.58409 0.76045 0.0
C2252 C 0.34984 0.59472 0.75772 0.0
C2253 C 0.40241 0.56947 0.76034 0.0
C2254 C 0.31902 0.65916 0.75928 0.0
C2255 C 0.32829 0.64515 0.76133 0.0
C2256 C 0.36509 0.62699 0.74542 0.0
C2257 C 0.37576 0.58072 0.75388 0.0
C2258 C 0.36651 0.59629 0.75303 0.0
C2259 C 0.33861 0.64037 0.74778 0.0
C2260 C 0.34833 0.62531 0.74986 0.0
H2261 H 0.36839 0.53378 0.74228 0.0
H2262 H 0.35314 0.55925 0.7422 0.0
H2263 H 0.3868 0.61425 0.74304 0.0
H2264 H 0.33134 0.67136 0.71803 0.0
H2265 H 0.34711 0.64654 0.7213 0.0
C2266 C 0.2763 0.60363 0.57144 0.0
C2267 C 0.28093 0.62177 0.58161 0.0
C2268 C 0.26008 0.5928 0.57145 0.0
C2269 C 0.21654 0.59883 0.57869 0.0
H2270 H 0.20705 0.54543 0.57548 0.0
C2271 C 0.14945 0.55734 0.58219 0.0
C2272 C 0.14308 0.54146 0.5683 0.0
C2273 C 0.16661 0.56645 0.58446 0.0
C2274 C 0.20954 0.56033 0.57623 0.0
H2275 H 0.27286 0.64231 0.60093 0.0
H2276 H 0.24484 0.62321 0.60153 0.0
H2277 H 0.23688 0.56235 0.57968 0.0
H2278 H 0.14967 0.52251 0.54604 0.0
H2279 H 0.17988 0.5385 0.55007 0.0
H2280 H 0.18925 0.59683 0.57539 0.0
C2281 C 0.25344 0.61755 0.59298 0.0
C2282 C 0.2266 0.57002 0.57864 0.0
C2283 C 0.26954 0.62844 0.59278 0.0
C2284 C 0.15425 0.53479 0.55678 0.0
C2285 C 0.17152 0.54382 0.5592 0.0
C2286 C 0.19956 0.58918 0.57645 0.0
C2287 C 0.24828 0.59985 0.5818 0.0
C2288 C 0.23028 0.5894 0.57991 0.0
C2289 C 0.17781 0.5598 0.57299 0.0
C2290 C 0.19589 0.56985 0.57521 0.0
H2291 H 0.28482 0.59815 0.56265 0.0
H2292 H 0.25651 0.57928 0.56259 0.0
H2293 H 0.21884 0.61368 0.57909 0.0
H2294 H 0.14107 0.5629 0.59113 0.0
H2295 H 0.17116 0.57866 0.59529 0.0
C2296 C 0.70505 0.94793 0.78555 0.0
C2297 C 0.68699 0.94569 0.78465 0.0
C2298 C 0.71351 0.93263 0.78533 0.0
C2299 C 0.70527 0.87934 0.77473 0.0
H2300 H 0.7526 0.88662 0.79976 0.0
C2301 C 0.7402 0.81557 0.78022 0.0
C2302 C 0.75832 0.81811 0.78151 0.0
C2303 C 0.73154 0.83073 0.78081 0.0
C2304 C 0.73946 0.88409 0.79237 0.0
H2305 H 0.66398 0.92467 0.7828 0.0
H2306 H 0.67845 0.89838 0.78258 0.0
H2307 H 0.73811 0.91267 0.80025 0.0
H2308 H 0.7812 0.83956 0.78446 0.0
H2309 H 0.76646 0.86554 0.78522 0.0
H2310 H 0.70663 0.85076 0.76682 0.0
C2311 C 0.68628 0.912 0.78323 0.0
C2312 C 0.73097 0.89935 0.79267 0.0
C2313 C 0.67784 0.92731 0.7835 0.0
C2314 C 0.76732 0.83666 0.78352 0.0
C2315 C 0.7587 0.85182 0.78407 0.0
C2316 C 0.71378 0.86407 0.7744 0.0
C2317 C 0.70439 0.91417 0.78414 0.0
C2318 C 0.71361 0.89749 0.78384 0.0
C2319 C 0.74052 0.84936 0.7827 0.0
C2320 C 0.73116 0.86595 0.78319 0.0
H2321 H 0.71278 0.96164 0.78637 0.0
H2322 H 0.72733 0.9354 0.78579 0.0
H2323 H 0.69211 0.87684 0.7674 0.0
H2324 H 0.73259 0.80174 0.77881 0.0
H2325 H 0.71769 0.8277 0.78001 0.0
C2326 C 0.7525 0.93364 0.56579 0.0
C2327 C 0.7504 0.91485 0.55807 0.0
C2328 C 0.73828 0.94211 0.56586 0.0
C2329 C 0.69034 0.93261 0.56009 0.0
H2330 H 0.69651 0.98256 0.54835 0.0
C2331 C 0.63377 0.96992 0.54124 0.0
C2332 C 0.63634 0.98887 0.54869 0.0
C2333 C 0.64725 0.96034 0.54371 0.0
C2334 C 0.69461 0.96869 0.55188 0.0
H2335 H 0.73163 0.89008 0.54475 0.0
H2336 H 0.70678 0.90497 0.5445 0.0
H2337 H 0.72069 0.96687 0.54997 0.0
H2338 H 0.65492 0.01229 0.5655 0.0
H2339 H 0.6784 0.99565 0.56963 0.0
H2340 H 0.66406 0.93445 0.56159 0.0
C2341 C 0.71941 0.91312 0.55077 0.0
C2342 C 0.7085 0.95968 0.55285 0.0
C2343 C 0.73367 0.90459 0.55083 0.0
C2344 C 0.65256 0.99782 0.55921 0.0
C2345 C 0.66603 0.98828 0.5616 0.0
C2346 C 0.67637 0.94162 0.559 0.0
C2347 C 0.72156 0.93207 0.55807 0.0
C2348 C 0.7066 0.94154 0.55705 0.0
C2349 C 0.66363 0.9695 0.55362 0.0
C2350 C 0.67838 0.95981 0.55496 0.0
H2351 H 0.7652 0.9419 0.57165 0.0
H2352 H 0.74043 0.95661 0.572 0.0
H2353 H 0.68843 0.91873 0.56357 0.0
H2354 H 0.62152 0.96262 0.53288 0.0
H2355 H 0.64501 0.94592 0.53725 0.0
C2356 C 0.3774 0.44535 0.75094 0.0
C2357 C 0.39255 0.44321 0.74372 0.0
C2358 C 0.36504 0.42987 0.75224 0.0
C2359 C 0.34973 0.38006 0.73366 0.0
H2360 H 0.33051 0.37938 0.78069 0.0
C2361 C 0.30868 0.32462 0.77525 0.0
C2362 C 0.29532 0.31556 0.76033 0.0
C2363 C 0.32023 0.34029 0.77281 0.0
C2364 C 0.33582 0.37933 0.7675 0.0
H2365 H 0.4064 0.42307 0.73184 0.0
H2366 H 0.38481 0.3961 0.73414 0.0
H2367 H 0.35123 0.40653 0.77693 0.0
H2368 H 0.28338 0.31572 0.73125 0.0
H2369 H 0.30357 0.34321 0.72694 0.0
H2370 H 0.33448 0.35272 0.72437 0.0
C2371 C 0.38247 0.40977 0.7387 0.0
C2372 C 0.34754 0.39496 0.76527 0.0
C2373 C 0.39488 0.42524 0.73748 0.0
C2374 C 0.29362 0.32246 0.74295 0.0
C2375 C 0.30523 0.3381 0.74046 0.0
C2376 C 0.33792 0.36446 0.73586 0.0
C2377 C 0.36749 0.41191 0.74626 0.0
C2378 C 0.35468 0.39547 0.74836 0.0
C2379 C 0.31864 0.3472 0.75538 0.0
C2380 C 0.33091 0.36389 0.75285 0.0
H2381 H 0.37516 0.45898 0.75583 0.0
H2382 H 0.35352 0.43198 0.75791 0.0
H2383 H 0.35491 0.3801 0.72041 0.0
H2384 H 0.31016 0.31964 0.78886 0.0
H2385 H 0.33052 0.34689 0.7845 0.0
C2386 C 0.17496 0.57799 0.28032 0.0
C2387 C 0.18265 0.56368 0.28661 0.0
C2388 C 0.18465 0.59568 0.28002 0.0
C2389 C 0.22658 0.62904 0.29944 0.0
H2390 H 0.21194 0.6537 0.2574 0.0
C2391 C 0.25332 0.70852 0.29805 0.0
C2392 C 0.25534 0.71415 0.28021 0.0
C2393 C 0.24543 0.69012 0.29927 0.0
C2394 C 0.21643 0.64714 0.26924 0.0
H2395 H 0.20721 0.55764 0.29782 0.0
H2396 H 0.22427 0.58876 0.2974 0.0
H2397 H 0.19754 0.62227 0.2584 0.0
H2398 H 0.25053 0.70414 0.24964 0.0
H2399 H 0.23704 0.67258 0.2517 0.0
H2400 H 0.24561 0.65408 0.31016 0.0
C2401 C 0.21047 0.58605 0.29266 0.0
C2402 C 0.20793 0.62895 0.26994 0.0
C2403 C 0.20067 0.56806 0.29282 0.0
C2404 C 0.24921 0.70063 0.26369 0.0
C2405 C 0.2413 0.68234 0.26489 0.0
C2406 C 0.23506 0.64739 0.2988 0.0
C2407 C 0.20262 0.60019 0.28604 0.0
C2408 C 0.21269 0.61948 0.28509 0.0
C2409 C 0.23915 0.67662 0.28267 0.0
C2410 C 0.23015 0.65687 0.28366 0.0
H2411 H 0.1612 0.57559 0.27544 0.0
H2412 H 0.17785 0.60598 0.2752 0.0
H2413 H 0.2307 0.62249 0.31144 0.0
H2414 H 0.25782 0.71835 0.31117 0.0
H2415 H 0.24399 0.68659 0.31328 0.0
C2416 C 0.50105 0.68493 0.43164 0.0
C2417 C 0.50531 0.70279 0.44253 0.0
C2418 C 0.50181 0.66929 0.44045 0.0
C2419 C 0.52232 0.65546 0.48475 0.0
H2420 H 0.49103 0.60848 0.46513 0.0
C2421 C 0.53647 0.5867 0.50603 0.0
C2422 C 0.52259 0.57268 0.5076 0.0
C2423 C 0.53355 0.60282 0.49916 0.0
C2424 C 0.49979 0.62151 0.47099 0.0
H2425 H 0.51314 0.71811 0.47138 0.0
H2426 H 0.5141 0.69086 0.48679 0.0
H2427 H 0.48662 0.63593 0.45158 0.0
H2428 H 0.49479 0.56501 0.50372 0.0
H2429 H 0.48961 0.59323 0.49219 0.0
H2430 H 0.53529 0.64116 0.50442 0.0
C2431 C 0.51052 0.68892 0.47136 0.0
C2432 C 0.49738 0.63726 0.46301 0.0
C2433 C 0.50984 0.70457 0.46253 0.0
C2434 C 0.50573 0.57539 0.50249 0.0
C2435 C 0.50279 0.59159 0.49576 0.0
C2436 C 0.52469 0.63974 0.49278 0.0
C2437 C 0.50678 0.67106 0.46042 0.0
C2438 C 0.50872 0.65444 0.46963 0.0
C2439 C 0.51666 0.60548 0.49381 0.0
C2440 C 0.51358 0.62247 0.48588 0.0
H2441 H 0.49758 0.68303 0.4162 0.0
H2442 H 0.49904 0.65584 0.43147 0.0
H2443 H 0.53145 0.66834 0.49014 0.0
H2444 H 0.54964 0.58505 0.50968 0.0
H2445 H 0.54458 0.61301 0.4976 0.0
C2446 C 0.62528 0.28829 0.65582 0.0
C2447 C 0.61443 0.29828 0.66482 0.0
C2448 C 0.6413 0.28706 0.66575 0.0
C2449 C 0.67559 0.31014 0.70528 0.0
H2450 H 0.68477 0.26129 0.70931 0.0
C2451 C 0.73163 0.29994 0.76015 0.0
C2452 C 0.73976 0.28501 0.75615 0.0
C2453 C 0.71712 0.30183 0.74781 0.0
C2454 C 0.68268 0.27507 0.70806 0.0
H2455 H 0.6121 0.31529 0.69104 0.0
H2456 H 0.64033 0.31364 0.70817 0.0
H2457 H 0.65838 0.26443 0.68961 0.0
H2458 H 0.73924 0.26042 0.73596 0.0
H2459 H 0.71447 0.26417 0.71382 0.0
H2460 H 0.69996 0.32095 0.72321 0.0
C2461 C 0.63633 0.30659 0.69351 0.0
C2462 C 0.66746 0.27683 0.69682 0.0
C2463 C 0.62017 0.30749 0.68374 0.0
C2464 C 0.73328 0.27214 0.73935 0.0
C2465 C 0.71892 0.2742 0.72678 0.0
C2466 C 0.69097 0.30842 0.7162 0.0
C2467 C 0.64695 0.29616 0.68471 0.0
C2468 C 0.66364 0.29437 0.69556 0.0
C2469 C 0.7105 0.289 0.73091 0.0
C2470 C 0.69464 0.29085 0.71807 0.0
H2471 H 0.62119 0.28096 0.64126 0.0
H2472 H 0.64928 0.27899 0.65861 0.0
H2473 H 0.67306 0.32383 0.70436 0.0
H2474 H 0.73625 0.31001 0.77308 0.0
H2475 H 0.71089 0.31317 0.75186 0.0
C2476 C 0.00927 0.31656 0.95358 0.0
C2477 C 0.02141 0.31455 0.94133 0.0
C2478 C 0.00979 0.33379 0.96458 0.0
C2479 C 0.03799 0.37898 0.98479 0.0
H2480 H 0.99659 0.39917 0.97758 0.0
C2481 C 0.0406 0.45708 0.0036 0.0
C2482 C 0.02661 0.46329 0.01037 0.0
C2483 C 0.03959 0.43831 0.99709 0.0
C2484 C 0.0082 0.39369 0.98012 0.0
H2485 H 0.04406 0.32873 0.93173 0.0
H2486 H 0.04524 0.35852 0.95128 0.0
H2487 H 0.99574 0.36709 0.96399 0.0
H2488 H 1.00058 0.45449 0.01578 0.0
H2489 H 0.99895 0.42163 0.00491 0.0
H2490 H 0.0505 0.40536 1.00099 0.0
C2491 C 0.03523 0.3469 0.95225 0.0
C2492 C 0.00769 0.37528 0.97228 0.0
C2493 C 0.03451 0.32985 0.941 0.0
C2494 C 0.01156 0.45021 0.01053 0.0
C2495 C 0.01062 0.43134 0.00421 0.0
C2496 C 0.03845 0.39728 0.99286 0.0
C2497 C 0.02268 0.34918 0.96385 0.0
C2498 C 0.02267 0.36787 0.97419 0.0
C2499 C 0.02463 0.42511 0.99738 0.0
C2500 C 0.02367 0.40506 0.99025 0.0
H2501 H 0.99895 0.30504 0.95402 0.0
H2502 H 0.99999 0.33517 0.97347 0.0
H2503 H 0.04969 0.37356 0.98667 0.0
H2504 H 0.05236 0.46676 0.00311 0.0
H2505 H 0.05052 0.43422 0.99154 0.0
C2506 C 0.00909 0.77317 0.1896 0.0
C2507 C 0.01441 0.78405 0.17596 0.0
C2508 C 0.99304 0.77287 0.19526 0.0
C2509 C 0.95909 0.79915 0.19984 0.0
H2510 H 0.93164 0.75137 0.20307 0.0
C2511 C 0.89258 0.79111 0.22609 0.0
C2512 C 0.88914 0.7776 0.23788 0.0
C2513 C 0.90701 0.79229 0.21678 0.0
C2514 C 0.93919 0.76486 0.20246 0.0
H2515 H 0.00699 0.8034 0.15779 0.0
H2516 H 0.97882 0.80309 0.16804 0.0
H2517 H 0.95835 0.75291 0.19003 0.0
H2518 H 0.89854 0.75519 0.24961 0.0
H2519 H 0.92363 0.75736 0.2337 0.0
H2520 H 0.94019 0.81113 0.21289 0.0
C2521 C 0.9872 0.79472 0.17419 0.0
C2522 C 0.95447 0.76572 0.19488 0.0
C2523 C 0.00327 0.79484 0.16829 0.0
C2524 C 0.90056 0.76548 0.2403 0.0
C2525 C 0.91498 0.76672 0.23111 0.0
C2526 C 0.94382 0.7983 0.20761 0.0
C2527 C 0.98186 0.78357 0.18761 0.0
C2528 C 0.96477 0.78286 0.19382 0.0
C2529 C 0.91837 0.78005 0.21912 0.0
C2530 C 0.93384 0.78113 0.20938 0.0
H2531 H 0.01727 0.76466 0.19584 0.0
H2532 H 0.98941 0.76433 0.20581 0.0
H2533 H 0.96682 0.81256 0.19928 0.0
H2534 H 0.88397 0.80059 0.22384 0.0
H2535 H 0.90911 0.80263 0.20754 0.0
C2536 C 0.51802 0.30907 0.15744 0.0
C2537 C 0.51999 0.29214 0.14758 0.0
C2538 C 0.51421 0.32308 0.14738 0.0
C2539 C 0.49925 0.33357 0.09942 0.0
H2540 H 0.53097 0.38056 0.11769 0.0
C2541 C 0.51338 0.38894 0.05138 0.0
C2542 C 0.51701 0.40774 0.05963 0.0
C2543 C 0.51091 0.37513 0.06276 0.0
C2544 C 0.52175 0.36769 0.11257 0.0
H2545 H 0.51845 0.27618 0.11945 0.0
H2546 H 0.5118 0.30067 0.1019 0.0
H2547 H 0.53092 0.35563 0.13652 0.0
H2548 H 0.52045 0.42672 0.08634 0.0
H2549 H 0.51561 0.40261 0.10613 0.0
H2550 H 0.49025 0.34557 0.0753 0.0
C2551 C 0.51317 0.3031 0.11739 0.0
C2552 C 0.52174 0.35338 0.12337 0.0
C2553 C 0.51706 0.2891 0.12745 0.0
C2554 C 0.51757 0.41239 0.07949 0.0
C2555 C 0.51499 0.39856 0.09087 0.0
C2556 C 0.49917 0.34795 0.08866 0.0
C2557 C 0.51219 0.32041 0.12728 0.0
C2558 C 0.51071 0.33607 0.11675 0.0
C2559 C 0.51188 0.37977 0.08268 0.0
C2560 C 0.51066 0.36507 0.09493 0.0
H2561 H 0.52009 0.31179 0.17295 0.0
H2562 H 0.5133 0.33621 0.15536 0.0
H2563 H 0.49048 0.32042 0.09409 0.0
H2564 H 0.51256 0.38487 0.03608 0.0
H2565 H 0.50873 0.36082 0.05599 0.0
C2566 C 0.97137 0.27159 0.33743 0.0
C2567 C 0.9792 0.28554 0.32806 0.0
C2568 C 0.95373 0.26416 0.33252 0.0
C2569 C 0.91511 0.26155 0.29627 0.0
H2570 H 0.89131 0.26311 0.34016 0.0
C2571 C 0.84619 0.27522 0.31343 0.0
C2572 C 0.83518 0.26394 0.29757 0.0
C2573 C 0.8633 0.27341 0.31771 0.0
C2574 C 0.89778 0.26252 0.32777 0.0
H2575 H 0.9749 0.30169 0.30532 0.0
H2576 H 0.94418 0.28885 0.29689 0.0
H2577 H 0.92266 0.26763 0.34514 0.0
H2578 H 0.83323 0.24118 0.27438 0.0
H2579 H 0.863 0.23795 0.28201 0.0
H2580 H 0.89032 0.25746 0.27895 0.0
C2581 C 0.95165 0.28358 0.30796 0.0
C2582 C 0.91571 0.26489 0.3306 0.0
C2583 C 0.96926 0.29104 0.31289 0.0
C2584 C 0.84139 0.25019 0.28665 0.0
C2585 C 0.85848 0.24837 0.29094 0.0
C2586 C 0.89718 0.25915 0.29344 0.0
C2587 C 0.94362 0.27047 0.3181 0.0
C2588 C 0.92458 0.26494 0.31489 0.0
C2589 C 0.86972 0.26025 0.30623 0.0
C2590 C 0.88838 0.26011 0.3092 0.0
H2591 H 0.97869 0.26693 0.3491 0.0
H2592 H 0.9479 0.25389 0.3404 0.0
H2593 H 0.9216 0.26135 0.2839 0.0
H2594 H 0.84181 0.28593 0.32212 0.0
H2595 H 0.87171 0.2829 0.32947 0.0
C2596 C 0.06384 0.68076 0.65742 0.0
C2597 C 0.05503 0.69434 0.6517 0.0
C2598 C 0.06556 0.66603 0.64402 0.0
C2599 C 0.06409 0.6513 0.59237 0.0
H2600 H 0.05337 0.60185 0.60491 0.0
C2601 C 0.04611 0.5847 0.53627 0.0
C2602 C 0.04929 0.56816 0.54206 0.0
C2603 C 0.05082 0.60128 0.54921 0.0
C2604 C 0.05683 0.61556 0.60128 0.0
H2605 H 0.04112 0.70311 0.62735 0.0
H2606 H 0.04401 0.67728 0.60402 0.0
H2607 H 0.05313 0.62831 0.62863 0.0
H2608 H 0.06152 0.55627 0.56498 0.0
H2609 H 0.07042 0.58523 0.58728 0.0
H2610 H 0.06755 0.63847 0.56486 0.0
C2611 C 0.04975 0.67817 0.61886 0.0
C2612 C 0.05659 0.63073 0.61488 0.0
C2613 C 0.04795 0.69285 0.63227 0.0
C2614 C 0.05874 0.56877 0.56025 0.0
C2615 C 0.06369 0.58535 0.57307 0.0
C2616 C 0.06444 0.63609 0.57875 0.0
C2617 C 0.05857 0.66462 0.6246 0.0
C2618 C 0.05997 0.64872 0.61049 0.0
C2619 C 0.05898 0.6016 0.56805 0.0
C2620 C 0.06059 0.61802 0.58297 0.0
H2621 H 0.06952 0.68152 0.67225 0.0
H2622 H 0.07252 0.65583 0.64883 0.0
H2623 H 0.06697 0.66507 0.5887 0.0
H2624 H 0.03883 0.58461 0.52229 0.0
H2625 H 0.04694 0.61351 0.54484 0.0
C2626 C 0.57902 0.81517 0.83714 0.0
C2627 C 0.57857 0.81713 0.8569 0.0
C2628 C 0.59472 0.81719 0.83045 0.0
C2629 C 0.63777 0.80967 0.84522 0.0
H2630 H 0.64564 0.82548 0.79694 0.0
C2631 C 0.69265 0.78965 0.80947 0.0
C2632 C 0.68763 0.78147 0.79016 0.0
C2633 C 0.68229 0.79999 0.81852 0.0
C2634 C 0.64364 0.82107 0.81047 0.0
H2635 H 0.59417 0.82415 0.88519 0.0
H2636 H 0.6217 0.82776 0.87346 0.0
H2637 H 0.62177 0.83377 0.81193 0.0
H2638 H 0.66853 0.77853 0.76477 0.0
H2639 H 0.65002 0.79615 0.78071 0.0
H2640 H 0.65897 0.79619 0.84342 0.0
C2641 C 0.60988 0.82439 0.86316 0.0
C2642 C 0.63002 0.82583 0.81906 0.0
C2643 C 0.59413 0.82235 0.86987 0.0
C2644 C 0.67259 0.78466 0.77971 0.0
C2645 C 0.6621 0.79487 0.78882 0.0
C2646 C 0.65134 0.80492 0.83666 0.0
C2647 C 0.61032 0.82125 0.84338 0.0
C2648 C 0.62661 0.81965 0.8362 0.0
C2649 C 0.66661 0.80218 0.80847 0.0
C2650 C 0.6541 0.81005 0.81889 0.0
H2651 H 0.56722 0.8113 0.82678 0.0
H2652 H 0.59458 0.81447 0.81513 0.0
H2653 H 0.63536 0.80443 0.85826 0.0
H2654 H 0.70445 0.78774 0.81768 0.0
H2655 H 0.68629 0.80577 0.83355 0.0
C2656 C 0.4592 0.5117 0.69433 0.0
C2657 C 0.44134 0.50905 0.69417 0.0
C2658 C 0.46605 0.51474 0.67778 0.0
C2659 C 0.45479 0.5094 0.62504 0.0
H2660 H 0.49794 0.54473 0.63078 0.0
C2661 C 0.49761 0.51341 0.56609 0.0
C2662 C 0.50768 0.53063 0.56492 0.0
C2663 C 0.48743 0.51172 0.58045 0.0
C2664 C 0.48575 0.53503 0.62881 0.0
H2665 H 0.41662 0.50735 0.6765 0.0
H2666 H 0.42863 0.51295 0.64761 0.0
H2667 H 0.48445 0.54004 0.65869 0.0
H2668 H 0.5141 0.5598 0.57683 0.0
H2669 H 0.49597 0.557 0.6016 0.0
H2670 H 0.45602 0.50461 0.59504 0.0
C2671 C 0.43732 0.51243 0.66047 0.0
C2672 C 0.47814 0.53211 0.64491 0.0
C2673 C 0.43045 0.5093 0.67704 0.0
C2674 C 0.5066 0.54633 0.57758 0.0
C2675 C 0.49631 0.54468 0.59183 0.0
C2676 C 0.46238 0.51238 0.60887 0.0
C2677 C 0.45523 0.51532 0.6607 0.0
C2678 C 0.46271 0.51906 0.64329 0.0
C2679 C 0.48701 0.52726 0.59382 0.0
C2680 C 0.47807 0.52508 0.6106 0.0
H2681 H 0.46793 0.51146 0.70726 0.0
H2682 H 0.47987 0.51652 0.67837 0.0
H2683 H 0.44295 0.49917 0.62328 0.0
H2684 H 0.49821 0.50108 0.55647 0.0
H2685 H 0.48056 0.49807 0.58161 0.0
C2686 C 0.7811 0.1519 1.00023 0.0
C2687 C 0.78682 0.16567 0.01647 0.0
C2688 C 0.77359 0.15627 0.98303 0.0
C2689 C 0.75708 0.19353 0.96073 0.0
H2690 H 0.77995 0.17673 0.91913 0.0
C2691 C 0.75331 0.22363 0.88996 0.0
C2692 C 0.76966 0.22978 0.88525 0.0
C2693 C 0.75139 0.21217 0.90386 0.0
C2694 C 0.77333 0.1814 0.93055 0.0
H2695 H 0.78808 0.19445 0.02788 0.0
H2696 H 0.77538 0.2022 0.9978 0.0
H2697 H 0.78274 0.16339 0.94842 0.0
H2698 H 0.79664 0.22821 0.89064 0.0
H2699 H 0.79336 0.20835 0.91496 0.0
H2700 H 0.74864 0.21243 0.94318 0.0
C2701 C 0.77645 0.18797 0.99834 0.0
C2702 C 0.77476 0.17362 0.94727 0.0
C2703 C 0.78387 0.18358 0.01556 0.0
C2704 C 0.78393 0.22381 0.89417 0.0
C2705 C 0.782 0.21227 0.90791 0.0
C2706 C 0.75565 0.20132 0.94396 0.0
C2707 C 0.77175 0.17451 0.98173 0.0
C2708 C 0.76719 0.18008 0.96282 0.0
C2709 C 0.76577 0.20652 0.91307 0.0
C2710 C 0.76433 0.19581 0.92903 0.0
H2711 H 0.78299 0.1379 1.00058 0.0
H2712 H 0.76983 0.14553 0.97056 0.0
H2713 H 0.7509 0.19859 0.97237 0.0
H2714 H 0.74211 0.22811 0.8833 0.0
H2715 H 0.73874 0.20789 0.90757 0.0
C2716 C 0.13658 0.50507 0.21354 0.0
C2717 C 0.12851 0.49591 0.22706 0.0
C2718 C 0.12713 0.50709 0.19592 0.0
C2719 C 0.0865 0.48685 0.16094 0.0
H2720 H 0.09453 0.53341 0.14172 0.0
C2721 C 0.0422 0.49709 0.09242 0.0
C2722 C 0.04778 0.51039 0.08104 0.0
C2723 C 0.05224 0.49564 0.1098 0.0
C2724 C 0.09216 0.52012 0.14648 0.0
H2725 H 0.10383 0.48156 0.23201 0.0
H2726 H 0.08754 0.48455 0.20125 0.0
H2727 H 0.11127 0.53015 0.17188 0.0
H2728 H 0.06873 0.53285 0.07975 0.0
H2729 H 0.0867 0.52978 0.10935 0.0
H2730 H 0.06799 0.47641 0.13549 0.0
C2731 C 0.10124 0.49035 0.20432 0.0
C2732 C 0.10184 0.51829 0.16406 0.0
C2733 C 0.11063 0.48866 0.22211 0.0
C2734 C 0.06397 0.52223 0.0878 0.0
C2735 C 0.07424 0.52057 0.10514 0.0
C2736 C 0.07706 0.48854 0.14323 0.0
C2737 C 0.10927 0.49971 0.19087 0.0
C2738 C 0.09911 0.50166 0.17177 0.0
C2739 C 0.06862 0.50721 0.11665 0.0
C2740 C 0.07944 0.50529 0.13557 0.0
H2741 H 0.15026 0.51095 0.21666 0.0
H2742 H 0.13395 0.51426 0.18608 0.0
H2743 H 0.0841 0.47368 0.16601 0.0
H2744 H 0.02978 0.48778 0.08801 0.0
H2745 H 0.0468 0.48548 0.11798 0.0
C2746 C 0.7901 0.85074 0.48431 0.0
C2747 C 0.78576 0.8683 0.48552 0.0
C2748 C 0.78904 0.83983 0.46643 0.0
C2749 C 0.76961 0.83468 0.41506 0.0
H2750 H 0.80638 0.80874 0.40611 0.0
C2751 C 0.79932 0.80059 0.34715 0.0
C2752 C 0.78396 0.79179 0.33479 0.0
C2753 C 0.79902 0.80813 0.36611 0.0
C2754 C 0.79604 0.81597 0.40834 0.0
H2755 H 0.77675 0.88802 0.46877 0.0
H2756 H 0.77514 0.86924 0.43785 0.0
H2757 H 0.80663 0.82547 0.43797 0.0
H2758 H 0.75625 0.78347 0.33295 0.0
H2759 H 0.75577 0.7963 0.36602 0.0
H2760 H 0.75937 0.82586 0.38533 0.0
C2761 C 0.7791 0.8637 0.45065 0.0
C2762 C 0.79607 0.82537 0.42669 0.0
C2763 C 0.78014 0.87456 0.46845 0.0
C2764 C 0.76833 0.7903 0.342 0.0
C2765 C 0.76804 0.79775 0.36097 0.0
C2766 C 0.76961 0.82534 0.39673 0.0
C2767 C 0.7836 0.84622 0.44937 0.0
C2768 C 0.78297 0.83506 0.43023 0.0
C2769 C 0.78335 0.80698 0.37322 0.0
C2770 C 0.78292 0.81602 0.39306 0.0
H2771 H 0.79445 0.84547 0.49715 0.0
H2772 H 0.79243 0.82635 0.46598 0.0
H2773 H 0.75917 0.84175 0.4173 0.0
H2774 H 0.81159 0.80204 0.34209 0.0
H2775 H 0.81105 0.81534 0.37501 0.0
C2776 C 0.45643 0.52071 0.81752 0.0
C2777 C 0.46021 0.50594 0.80549 0.0
C2778 C 0.46391 0.52492 0.83691 0.0
C2779 C 0.49974 0.51596 0.87138 0.0
H2780 H 0.47184 0.52888 0.9095 0.0
C2781 C 0.51433 0.50577 0.94971 0.0
C2782 C 0.5139 0.52044 0.96411 0.0
C2783 C 0.50888 0.50659 0.9305 0.0
C2784 C 0.47985 0.52555 0.89898 0.0
H2785 H 0.47471 0.48394 0.80447 0.0
H2786 H 0.48726 0.49089 0.83815 0.0
H2787 H 0.46005 0.52529 0.87547 0.0
H2788 H 0.50746 0.54752 0.96963 0.0
H2789 H 0.49746 0.5487 0.93581 0.0
H2790 H 0.5192 0.51536 0.89496 0.0
C2791 C 0.47893 0.4996 0.83261 0.0
C2792 C 0.47313 0.52352 0.87948 0.0
C2793 C 0.47161 0.49551 0.81327 0.0
C2794 C 0.50793 0.53601 0.95885 0.0
C2795 C 0.50217 0.53667 0.93956 0.0
C2796 C 0.50634 0.51775 0.89082 0.0
C2797 C 0.47523 0.51438 0.84471 0.0
C2798 C 0.48287 0.51832 0.86543 0.0
C2799 C 0.50266 0.52197 0.92523 0.0
C2800 C 0.49635 0.52222 0.90479 0.0
H2801 H 0.44777 0.52908 0.81196 0.0
H2802 H 0.46091 0.53652 0.84573 0.0
H2803 H 0.5078 0.51244 0.861 0.0
H2804 H 0.51895 0.49363 0.95326 0.0
H2805 H 0.50924 0.495 0.91974 0.0
C2806 C 0.84113 0.21623 0.1136 0.0
C2807 C 0.84372 0.19957 0.11965 0.0
C2808 C 0.84159 0.23186 0.12703 0.0
C2809 C 0.82735 0.25462 0.15691 0.0
H2810 H 0.85302 0.26338 0.20851 0.0
C2811 C 0.79859 0.27827 0.22235 0.0
C2812 C 0.80932 0.28841 0.23896 0.0
C2813 C 0.80559 0.27263 0.20625 0.0
C2814 C 0.84595 0.2615 0.19409 0.0
H2815 H 0.85014 0.18668 0.14449 0.0
H2816 H 0.85047 0.2136 0.16779 0.0
H2817 H 0.86234 0.24439 0.18312 0.0
H2818 H 0.83556 0.30187 0.25147 0.0
H2819 H 0.84785 0.29232 0.22311 0.0
H2820 H 0.81088 0.27159 0.1679 0.0
C2821 C 0.84833 0.21482 0.15274 0.0
C2822 C 0.85118 0.25039 0.17957 0.0
C2823 C 0.84801 0.19926 0.13933 0.0
C2824 C 0.82704 0.29389 0.23884 0.0
C2825 C 0.83407 0.28834 0.22266 0.0
C2826 C 0.82223 0.26587 0.17138 0.0
C2827 C 0.84453 0.23111 0.14676 0.0
C2828 C 0.84149 0.24614 0.161 0.0
C2829 C 0.82347 0.27721 0.20636 0.0
C2830 C 0.831 0.26875 0.19031 0.0
H2831 H 0.83802 0.217 0.09851 0.0
H2832 H 0.83895 0.24431 0.12194 0.0
H2833 H 0.81951 0.25163 0.14282 0.0
H2834 H 0.78484 0.27406 0.22206 0.0
H2835 H 0.79703 0.26388 0.19409 0.0
C2836 C 0.1161 0.521 0.34839 0.0
C2837 C 0.12549 0.50743 0.3426 0.0
C2838 C 0.10888 0.52144 0.36535 0.0
C2839 C 0.10809 0.50275 0.41252 0.0
H2840 H 0.06618 0.52203 0.41113 0.0
C2841 C 0.07533 0.51607 0.48196 0.0
C2842 C 0.0573 0.51497 0.47974 0.0
C2843 C 0.08406 0.5146 0.46588 0.0
C2844 C 0.07775 0.51638 0.41201 0.0
H2845 H 0.1347 0.48373 0.35139 0.0
H2846 H 0.1219 0.48432 0.38104 0.0
H2847 H 0.07988 0.51961 0.383 0.0
H2848 H 0.03461 0.511 0.45804 0.0
H2849 H 0.04938 0.50813 0.43061 0.0
H2850 H 0.10553 0.49908 0.44157 0.0
C2851 C 0.12026 0.49486 0.37225 0.0
C2852 C 0.08594 0.51526 0.39565 0.0
C2853 C 0.12768 0.49448 0.3551 0.0
C2854 C 0.04845 0.51217 0.46072 0.0
C2855 C 0.0571 0.51063 0.44472 0.0
C2856 C 0.09983 0.50385 0.42899 0.0
C2857 C 0.11039 0.50822 0.37762 0.0
C2858 C 0.10142 0.50857 0.39543 0.0
C2859 C 0.07516 0.51192 0.44679 0.0
C2860 C 0.0844 0.51071 0.42918 0.0
H2861 H 0.11417 0.53151 0.33965 0.0
H2862 H 0.10207 0.53243 0.36881 0.0
H2863 H 0.11993 0.49757 0.41336 0.0
H2864 H 0.08279 0.5182 0.4962 0.0
H2865 H 0.0979 0.51589 0.46853 0.0
C2866 C 0.79781 0.83989 0.59623 0.0
C2867 C 0.80331 0.85925 0.59942 0.0
C2868 C 0.79785 0.82999 0.61163 0.0
C2869 C 0.79596 0.83646 0.66336 0.0
H2870 H 0.80896 0.78861 0.6615 0.0
C2871 C 0.79664 0.79913 0.72899 0.0
C2872 C 0.79004 0.77997 0.72574 0.0
C2873 C 0.80005 0.8085 0.71376 0.0
C2874 C 0.80512 0.80188 0.66219 0.0
H2875 H 0.8137 0.88331 0.62131 0.0
H2876 H 0.81384 0.86608 0.64809 0.0
H2877 H 0.81158 0.80547 0.63452 0.0
H2878 H 0.78232 0.75549 0.70401 0.0
H2879 H 0.78794 0.77187 0.67728 0.0
H2880 H 0.78914 0.83283 0.69074 0.0
C2881 C 0.80929 0.85855 0.63371 0.0
C2882 C 0.80666 0.81155 0.64672 0.0
C2883 C 0.80931 0.86842 0.61832 0.0
C2884 C 0.78744 0.77026 0.70696 0.0
C2885 C 0.79075 0.77967 0.69166 0.0
C2886 C 0.79435 0.82678 0.67874 0.0
C2887 C 0.80332 0.83924 0.6306 0.0
C2888 C 0.8021 0.82898 0.64713 0.0
C2889 C 0.79679 0.79899 0.69481 0.0
C2890 C 0.79892 0.80935 0.67842 0.0
H2891 H 0.7931 0.83239 0.58185 0.0
H2892 H 0.79305 0.81516 0.60872 0.0
H2893 H 0.792 0.84966 0.66402 0.0
H2894 H 0.79874 0.80703 0.74327 0.0
H2895 H 0.80504 0.8233 0.71684 0.0
C2896 C 0.68873 0.37312 0.53864 0.0
C2897 C 0.69607 0.37916 0.52319 0.0
C2898 C 0.67411 0.37925 0.54365 0.0
C2899 C 0.63856 0.40097 0.52554 0.0
H2900 H 0.64864 0.43331 0.57472 0.0
C2901 C 0.62263 0.47159 0.53498 0.0
C2902 C 0.61396 0.47717 0.54988 0.0
C2903 C 0.62848 0.45507 0.53407 0.0
C2904 C 0.64535 0.42395 0.56119 0.0
H2905 H 0.69349 0.39524 0.50017 0.0
H2906 H 0.66789 0.40545 0.50848 0.0
H2907 H 0.66614 0.41012 0.56809 0.0
H2908 H 0.60507 0.46996 0.57586 0.0
H2909 H 0.6161 0.44114 0.5746 0.0
H2910 H 0.61879 0.41585 0.51801 0.0
C2911 C 0.67336 0.39616 0.51685 0.0
C2912 C 0.65531 0.41066 0.55741 0.0
C2913 C 0.6881 0.39046 0.51218 0.0
C2914 C 0.61185 0.46611 0.56429 0.0
C2915 C 0.61797 0.44958 0.56351 0.0
C2916 C 0.62867 0.41422 0.52929 0.0
C2917 C 0.66645 0.39099 0.53287 0.0
C2918 C 0.65262 0.39987 0.53914 0.0
C2919 C 0.62604 0.44381 0.54816 0.0
C2920 C 0.63267 0.42652 0.54671 0.0
H2921 H 0.69477 0.36446 0.54737 0.0
H2922 H 0.66905 0.37521 0.55614 0.0
H2923 H 0.63615 0.39267 0.51142 0.0
H2924 H 0.62483 0.47998 0.52391 0.0
H2925 H 0.63509 0.45114 0.52236 0.0
C2926 C 0.1906 0.12727 0.49731 0.0
C2927 C 0.20371 0.11762 0.49374 0.0
C2928 C 0.17419 0.1177 0.49889 0.0
C2929 C 0.14578 0.07077 0.48767 0.0
H2930 H 0.12203 0.09025 0.52718 0.0
C2931 C 0.08803 0.02597 0.51083 0.0
C2932 C 0.0738 0.03395 0.51382 0.0
C2933 C 0.1034 0.03683 0.50804 0.0
C2934 C 0.12841 0.08473 0.51594 0.0
H2935 H 0.20978 0.09031 0.48888 0.0
H2936 H 0.18138 0.07371 0.49188 0.0
H2937 H 0.14961 0.10796 0.52256 0.0
H2938 H 0.06441 0.05946 0.51585 0.0
H2939 H 0.09139 0.07866 0.5113 0.0
H2940 H 0.12475 0.0474 0.48127 0.0
C2941 C 0.18361 0.08864 0.49316 0.0
C2942 C 0.14421 0.0949 0.51325 0.0
C2943 C 0.19997 0.09819 0.49154 0.0
C2944 C 0.07528 0.05306 0.51406 0.0
C2945 C 0.09072 0.064 0.51136 0.0
C2946 C 0.13006 0.06058 0.49042 0.0
C2947 C 0.1705 0.09825 0.49695 0.0
C2948 C 0.15321 0.08796 0.4992 0.0
C2949 C 0.10493 0.05597 0.50815 0.0
C2950 C 0.12126 0.06733 0.50472 0.0
H2951 H 0.19306 0.14224 0.49905 0.0
H2952 H 0.16437 0.12556 0.50155 0.0
H2953 H 0.15211 0.06514 0.47643 0.0
H2954 H 0.08726 0.01125 0.51054 0.0
H2955 H 0.11415 0.03023 0.50588 0.0
C2956 C 0.16571 0.97439 0.80434 0.0
C2957 C 0.17303 0.99146 0.79952 0.0
C2958 C 0.1754 0.96065 0.80599 0.0
C2959 C 0.21242 0.94468 0.78953 0.0
H2960 H 0.21229 0.91793 0.83262 0.0
C2961 C 0.25833 0.89461 0.80205 0.0
C2962 C 0.25201 0.87822 0.80879 0.0
C2963 C 0.24872 0.90847 0.80136 0.0
C2964 C 0.21229 0.92508 0.82036 0.0
H2965 H 0.19624 0.00757 0.79275 0.0
H2966 H 0.21309 0.9835 0.79549 0.0
H2967 H 0.19534 0.94198 0.83056 0.0
H2968 H 0.23063 0.86341 0.81996 0.0
H2969 H 0.21362 0.88745 0.8184 0.0
H2970 H 0.22905 0.92765 0.77907 0.0
C2971 C 0.19986 0.98075 0.79794 0.0
C2972 C 0.20262 0.93889 0.81922 0.0
C2973 C 0.19024 0.99455 0.79647 0.0
C2974 C 0.23589 0.876 0.8149 0.0
C2975 C 0.22619 0.88981 0.81404 0.0
C2976 C 0.22195 0.93077 0.79057 0.0
C2977 C 0.19252 0.96364 0.80266 0.0
C2978 C 0.20266 0.94889 0.80385 0.0
C2979 C 0.23246 0.90621 0.80721 0.0
C2980 C 0.22209 0.92085 0.80604 0.0
H2981 H 0.15248 0.9716 0.80679 0.0
H2982 H 0.16938 0.94754 0.8095 0.0
H2983 H 0.21247 0.95196 0.77736 0.0
H2984 H 0.27083 0.8968 0.79751 0.0
H2985 H 0.25413 0.92106 0.79639 0.0
C2986 C 0.29405 0.91998 1.00071 0.0
C2987 C 0.28048 0.92113 0.98649 0.0
C2988 C 0.31023 0.93132 0.00232 0.0
C2989 C 0.3332 0.97382 0.9875 0.0
H2990 H 0.37309 0.95288 0.00236 0.0
C2991 C 0.40437 0.00563 0.98282 0.0
C2992 C 0.41661 0.00582 0.99905 0.0
C2993 C 0.38714 0.9971 0.98184 0.0
C2994 C 0.36205 0.95894 0.99837 0.0
H2995 H 0.27319 0.93509 0.96278 0.0
H2996 H 0.30178 0.95449 0.96506 0.0
H2997 H 0.34437 0.93386 0.99856 0.0
H2998 H 0.42005 0.9983 0.0275 0.0
H2999 H 0.39007 0.98288 0.02546 0.0
H3000 H 0.35124 0.99876 0.98666 0.0
C3001 C 0.29977 0.94512 0.9753 0.0
C3002 C 0.34557 0.94809 0.99625 0.0
C3003 C 0.28343 0.93392 0.97389 0.0
C3004 C 0.41106 0.99801 0.0146 0.0
C3005 C 0.39391 0.98928 0.0135 0.0
C3006 C 0.34977 0.98461 0.98933 0.0
C3007 C 0.31339 0.94389 0.98952 0.0
C3008 C 0.33091 0.95543 0.99101 0.0
C3009 C 0.38189 0.98843 0.99697 0.0
C3010 C 0.3643 0.97729 0.99498 0.0
H3011 H 0.29212 0.91047 0.01084 0.0
H3012 H 0.32023 0.93031 0.01377 0.0
H3013 H 0.32222 0.98 0.98366 0.0
H3014 H 0.4082 0.01132 0.97049 0.0
H3015 H 0.37809 0.9965 0.9689 0.0
C3016 C 0.88687 0.61116 0.77293 0.0
C3017 C 0.87739 0.59279 0.76723 0.0
C3018 C 0.87879 0.62672 0.77322 0.0
C3019 C 0.83605 0.64123 0.75609 0.0
H3020 H 0.85705 0.6869 0.79042 0.0
C3021 C 0.79951 0.7037 0.76501 0.0
C3022 C 0.8088 0.72222 0.76985 0.0
C3023 C 0.80787 0.68836 0.76453 0.0
C3024 C 0.85093 0.67443 0.78048 0.0
H3025 H 0.85138 0.5771 0.75743 0.0
H3026 H 0.8374 0.60372 0.75822 0.0
H3027 H 0.87097 0.66036 0.7901 0.0
H3028 H 0.83481 0.73838 0.77803 0.0
H3029 H 0.84927 0.71203 0.77704 0.0
H3030 H 0.81597 0.65529 0.74656 0.0
C3031 C 0.85126 0.60636 0.76221 0.0
C3032 C 0.85907 0.65891 0.78028 0.0
C3033 C 0.85937 0.59081 0.76189 0.0
C3034 C 0.82696 0.72457 0.77417 0.0
C3035 C 0.83534 0.7092 0.77375 0.0
C3036 C 0.8279 0.65673 0.75635 0.0
C3037 C 0.86072 0.62483 0.76785 0.0
C3038 C 0.85188 0.64179 0.76809 0.0
C3039 C 0.82604 0.69061 0.76893 0.0
C3040 C 0.83506 0.67381 0.76856 0.0
H3041 H 0.90073 0.6136 0.7771 0.0
H3042 H 0.88694 0.64035 0.77742 0.0
H3043 H 0.82992 0.62882 0.74609 0.0
H3044 H 0.78557 0.70094 0.76167 0.0
H3045 H 0.79987 0.67461 0.76101 0.0
C3046 C 0.80481 0.59462 0.0085 0.0
C3047 C 0.80288 0.61225 0.00463 0.0
C3048 C 0.82046 0.58894 0.00789 0.0
C3049 C 0.86706 0.60651 0.01231 0.0
H3050 H 0.86681 0.55554 0.99171 0.0
C3051 C 0.92457 0.57064 0.03025 0.0
C3052 C 0.92783 0.55735 0.01601 0.0
C3053 C 0.91029 0.57895 0.02701 0.0
C3054 C 0.8672 0.56989 0.99731 0.0
H3055 H 0.81599 0.63768 0.9969 0.0
H3056 H 0.84349 0.6277 0.99586 0.0
H3057 H 0.84001 0.5668 0.98874 0.0
H3058 H 0.91915 0.54323 0.98677 0.0
H3059 H 0.89433 0.55773 0.98109 0.0
H3060 H 0.89432 0.60953 0.02096 0.0
C3061 C 0.8328 0.61834 0.99944 0.0
C3062 C 0.85177 0.57629 0.99579 0.0
C3063 C 0.81702 0.62401 0.99992 0.0
C3064 C 0.91683 0.55313 0.99819 0.0
C3065 C 0.90259 0.56145 0.99493 0.0
C3066 C 0.88255 0.60007 0.01389 0.0
C3067 C 0.83469 0.60072 0.00346 0.0
C3068 C 0.85144 0.59458 0.00353 0.0
C3069 C 0.89892 0.5742 0.00942 0.0
C3070 C 0.88277 0.5816 0.00662 0.0
H3071 H 0.79425 0.58516 0.0122 0.0
H3072 H 0.8215 0.5754 0.01135 0.0
H3073 H 0.86725 0.62064 0.01852 0.0
H3074 H 0.93266 0.57408 0.04421 0.0
H3075 H 0.90778 0.58854 0.03857 0.0
C3076 C 0.16308 0.11055 0.78587 0.0
C3077 C 0.16657 0.0971 0.79712 0.0
C3078 C 0.17577 0.12605 0.7856 0.0
C3079 C 0.21466 0.15685 0.81159 0.0
H3080 H 0.22562 0.16342 0.76133 0.0
C3081 C 0.27031 0.21472 0.80133 0.0
C3082 C 0.26778 0.22312 0.78497 0.0
C3083 C 0.25851 0.19907 0.80352 0.0
C3084 C 0.22258 0.16204 0.77546 0.0
H3085 H 0.18587 0.08983 0.81759 0.0
H3086 H 0.20796 0.11738 0.81749 0.0
H3087 H 0.2035 0.13739 0.76451 0.0
H3088 H 0.25135 0.22144 0.75779 0.0
H3089 H 0.23026 0.19507 0.76205 0.0
H3090 H 0.2332 0.18188 0.82255 0.0
C3091 C 0.19542 0.11567 0.80873 0.0
C3092 C 0.20997 0.14703 0.77725 0.0
C3093 C 0.18282 0.09992 0.80873 0.0
C3094 C 0.25339 0.21552 0.77077 0.0
C3095 C 0.24146 0.20013 0.77308 0.0
C3096 C 0.22709 0.17212 0.80978 0.0
C3097 C 0.1921 0.12863 0.79683 0.0
C3098 C 0.20582 0.14435 0.79529 0.0
C3099 C 0.24387 0.1916 0.78944 0.0
C3100 C 0.23113 0.175 0.79164 0.0
H3101 H 0.15074 0.10879 0.77671 0.0
H3102 H 0.1729 0.13596 0.77641 0.0
H3103 H 0.21161 0.15506 0.82565 0.0
H3104 H 0.28141 0.22024 0.81243 0.0
H3105 H 0.261 0.19273 0.81615 0.0
C3106 C 0.38489 0.95872 0.25527 0.0
C3107 C 0.37872 0.97516 0.25973 0.0
C3108 C 0.37522 0.94118 0.25626 0.0
C3109 C 0.3378 0.91671 0.27665 0.0
H3110 H 0.34394 0.87434 0.2424 0.0
C3111 C 0.31107 0.84034 0.28764 0.0
C3112 C 0.30605 0.82603 0.27167 0.0
C3113 C 0.31902 0.85849 0.28582 0.0
C3114 C 0.3418 0.88589 0.25204 0.0
H3115 H 0.3569 0.9853 0.26876 0.0
H3116 H 0.33983 0.9546 0.27028 0.0
H3117 H 0.3582 0.90526 0.23938 0.0
H3118 H 0.30558 0.82023 0.24102 0.0
H3119 H 0.31906 0.85159 0.23776 0.0
H3120 H 0.32104 0.89726 0.28901 0.0
C3121 C 0.35244 0.95542 0.26614 0.0
C3122 C 0.35031 0.90387 0.25049 0.0
C3123 C 0.36221 0.97316 0.26512 0.0
C3124 C 0.30927 0.83066 0.25376 0.0
C3125 C 0.31718 0.84883 0.25192 0.0
C3126 C 0.32925 0.89867 0.27821 0.0
C3127 C 0.35877 0.939 0.26171 0.0
C3128 C 0.34868 0.91973 0.26287 0.0
C3129 C 0.3223 0.8632 0.26792 0.0
C3130 C 0.33114 0.88278 0.26602 0.0
H3131 H 0.39749 0.95932 0.25114 0.0
H3132 H 0.38098 0.92928 0.2531 0.0
H3133 H 0.33611 0.92828 0.28662 0.0
H3134 H 0.30895 0.83754 0.30173 0.0
H3135 H 0.32287 0.86875 0.29866 0.0
C3136 C 0.55632 0.35866 0.61706 0.0
C3137 C 0.5564 0.34132 0.60653 0.0
C3138 C 0.55498 0.37393 0.60784 0.0
C3139 C 0.54071 0.38672 0.56064 0.0
H3140 H 0.56651 0.43544 0.58473 0.0
C3141 C 0.5249 0.45398 0.53672 0.0
C3142 C 0.53847 0.46915 0.5375 0.0
C3143 C 0.52796 0.43801 0.54383 0.0
C3144 C 0.55933 0.42193 0.57765 0.0
H3145 H 0.55517 0.32652 0.57794 0.0
H3146 H 0.55291 0.3532 0.56181 0.0
H3147 H 0.57047 0.40851 0.59954 0.0
H3148 H 0.56605 0.47913 0.54605 0.0
H3149 H 0.57143 0.45119 0.55811 0.0
H3150 H 0.52969 0.40013 0.53866 0.0
C3151 C 0.55372 0.35495 0.57724 0.0
C3152 C 0.56145 0.40647 0.5863 0.0
C3153 C 0.55509 0.33965 0.58649 0.0
C3154 C 0.55527 0.46775 0.5452 0.0
C3155 C 0.55834 0.45175 0.55228 0.0
C3156 C 0.53857 0.40219 0.552 0.0
C3157 C 0.55366 0.37232 0.58779 0.0
C3158 C 0.55203 0.38866 0.57803 0.0
C3159 C 0.54469 0.43672 0.5519 0.0
C3160 C 0.54772 0.42005 0.56048 0.0
H3161 H 0.55726 0.36046 0.63251 0.0
H3162 H 0.5547 0.38696 0.61644 0.0
H3163 H 0.53314 0.37327 0.55389 0.0
H3164 H 0.51178 0.45455 0.53098 0.0
H3165 H 0.51708 0.42687 0.5435 0.0
C3166 C 0.45457 0.77726 0.36917 0.0
C3167 C 0.45962 0.7614 0.37479 0.0
C3168 C 0.43746 0.77685 0.36154 0.0
C3169 C 0.39252 0.7484 0.35392 0.0
H3170 H 0.38536 0.77966 0.31538 0.0
C3171 C 0.32871 0.74249 0.3005 0.0
C3172 C 0.32315 0.75916 0.29885 0.0
C3173 C 0.34455 0.74252 0.31164 0.0
C3174 C 0.38715 0.77098 0.32625 0.0
H3175 H 0.4506 0.73268 0.37712 0.0
H3176 H 0.42073 0.73159 0.36282 0.0
H3177 H 0.41447 0.77962 0.33041 0.0
H3178 H 0.32952 0.78887 0.30796 0.0
H3179 H 0.35749 0.78898 0.32699 0.0
H3180 H 0.36497 0.73915 0.34872 0.0
C3181 C 0.4299 0.74458 0.36481 0.0
C3182 C 0.40388 0.77101 0.33502 0.0
C3183 C 0.44705 0.74513 0.37293 0.0
C3184 C 0.3335 0.77582 0.30897 0.0
C3185 C 0.3495 0.77589 0.31979 0.0
C3186 C 0.37575 0.74811 0.34479 0.0
C3187 C 0.42489 0.76041 0.35876 0.0
C3188 C 0.40687 0.75989 0.34917 0.0
C3189 C 0.35528 0.75926 0.32104 0.0
C3190 C 0.37292 0.75953 0.331 0.0
H3191 H 0.46389 0.79011 0.37075 0.0
H3192 H 0.43417 0.78954 0.35779 0.0
H3193 H 0.39416 0.7398 0.36485 0.0
H3194 H 0.32094 0.72945 0.29287 0.0
H3195 H 0.34873 0.72953 0.31228 0.0
C3196 C 0.04246 0.71301 0.1196 0.0
C3197 C 0.04936 0.72892 0.11236 0.0
C3198 C 0.03937 0.69553 0.10837 0.0
C3199 C 0.05643 0.6677 0.07608 0.0
H3200 H 0.01102 0.63628 0.06039 0.0
C3201 C 0.04823 0.59158 0.03992 0.0
C3202 C 0.03483 0.57853 0.04417 0.0
C3203 C 0.0492 0.61057 0.04539 0.0
C3204 C 0.02384 0.64471 0.06486 0.0
H3205 H 0.05831 0.73906 0.08764 0.0
H3206 H 0.0535 0.70811 0.06814 0.0
H3207 H 0.01389 0.6684 0.07529 0.0
H3208 H 0.01203 0.57515 0.05766 0.0
H3209 H 0.0141 0.60798 0.06801 0.0
H3210 H 0.06662 0.64397 0.06712 0.0
C3211 C 0.05019 0.7094 0.0824 0.0
C3212 C 0.02541 0.66319 0.07316 0.0
C3213 C 0.05286 0.72703 0.0935 0.0
C3214 C 0.02239 0.58486 0.05394 0.0
C3215 C 0.02355 0.6038 0.05977 0.0
C3216 C 0.05491 0.64911 0.06818 0.0
C3217 C 0.04351 0.69354 0.08985 0.0
C3218 C 0.04172 0.67476 0.07898 0.0
C3219 C 0.03699 0.617 0.05565 0.0
C3220 C 0.03858 0.63723 0.06268 0.0
H3221 H 0.03963 0.71408 0.13408 0.0
H3222 H 0.03429 0.68346 0.11441 0.0
H3223 H 0.06915 0.67635 0.08074 0.0
H3224 H 0.05793 0.58711 0.03224 0.0
H3225 H 0.05955 0.62017 0.04153 0.0
C3226 C 0.05629 0.24573 0.86776 0.0
C3227 C 0.0573 0.24966 0.88774 0.0
C3228 C 0.07121 0.24576 0.85958 0.0
C3229 C 0.11834 0.26371 0.86922 0.0
H3230 H 0.11757 0.22728 0.82476 0.0
C3231 C 0.17869 0.25872 0.83299 0.0
C3232 C 0.17588 0.25583 0.81282 0.0
C3233 C 0.16475 0.25741 0.84307 0.0
C3234 C 0.11797 0.23764 0.83707 0.0
H3235 H 0.07481 0.25654 0.91483 0.0
H3236 H 0.10091 0.25643 0.90053 0.0
H3237 H 0.09239 0.22579 0.84067 0.0
H3238 H 0.1561 0.24985 0.78753 0.0
H3239 H 0.13196 0.24744 0.80501 0.0
H3240 H 0.14394 0.27561 0.86548 0.0
C3241 C 0.08856 0.25354 0.89117 0.0
C3242 C 0.10351 0.2368 0.8462 0.0
C3243 C 0.0736 0.2535 0.89938 0.0
C3244 C 0.15879 0.25173 0.80303 0.0
C3245 C 0.14491 0.25036 0.81307 0.0
C3246 C 0.13284 0.26453 0.86008 0.0
C3247 C 0.08755 0.24968 0.87115 0.0
C3248 C 0.1034 0.24997 0.86223 0.0
C3249 C 0.14768 0.25313 0.83321 0.0
C3250 C 0.13274 0.25166 0.84373 0.0
H3251 H 0.04396 0.24278 0.85836 0.0
H3252 H 0.06993 0.24302 0.84411 0.0
H3253 H 0.11866 0.27419 0.8814 0.0
H3254 H 0.19165 0.26173 0.84101 0.0
H3255 H 0.16734 0.25946 0.85858 0.0
C3256 C 0.53414 0.75241 0.92404 0.0
C3257 C 0.53126 0.75036 0.90395 0.0
C3258 C 0.5329 0.73689 0.9332 0.0
C3259 C 0.53374 0.6871 0.92588 0.0
H3260 H 0.51175 0.68773 0.97109 0.0
C3261 C 0.52154 0.62405 0.96564 0.0
C3262 C 0.52588 0.62808 0.98573 0.0
C3263 C 0.52125 0.63833 0.95476 0.0
C3264 C 0.51801 0.68739 0.95855 0.0
H3265 H 0.52502 0.73044 0.87767 0.0
H3266 H 0.52272 0.70328 0.8937 0.0
H3267 H 0.51323 0.71388 0.95373 0.0
H3268 H 0.53368 0.6503 0.01007 0.0
H3269 H 0.53301 0.6751 0.99114 0.0
H3270 H 0.53857 0.66059 0.93082 0.0
C3271 C 0.5261 0.71691 0.90236 0.0
C3272 C 0.51889 0.70238 0.94863 0.0
C3273 C 0.52736 0.73246 0.89319 0.0
C3274 C 0.52993 0.64668 0.99467 0.0
C3275 C 0.52957 0.66091 0.98382 0.0
C3276 C 0.53281 0.67205 0.9358 0.0
C3277 C 0.52871 0.71896 0.92248 0.0
C3278 C 0.527 0.70254 0.93235 0.0
C3279 C 0.52523 0.65691 0.96376 0.0
C3280 C 0.52516 0.67218 0.9524 0.0
H3281 H 0.53724 0.76602 0.93274 0.0
H3282 H 0.53531 0.73895 0.94872 0.0
H3283 H 0.54019 0.68687 0.91348 0.0
H3284 H 0.51815 0.60986 0.95834 0.0
H3285 H 0.51772 0.63484 0.93933 0.0
C3286 C 0.10577 0.78169 0.71542 0.0
C3287 C 0.09876 0.77628 0.6959 0.0
C3288 C 0.12363 0.78663 0.72119 0.0
C3289 C 0.16198 0.775 0.70575 0.0
H3290 H 0.18726 0.81601 0.74443 0.0
C3291 C 0.23439 0.78276 0.72812 0.0
C3292 C 0.24068 0.78725 0.74783 0.0
C3293 C 0.21792 0.78495 0.72094 0.0
C3294 C 0.18035 0.80442 0.73371 0.0
H3295 H 0.10481 0.77294 0.66705 0.0
H3296 H 0.13591 0.78138 0.67717 0.0
H3297 H 0.15638 0.81357 0.73374 0.0
H3298 H 0.2351 0.79821 0.77546 0.0
H3299 H 0.20601 0.80131 0.76306 0.0
H3300 H 0.18542 0.76521 0.7062 0.0
C3301 C 0.12763 0.78166 0.68798 0.0
C3302 C 0.16273 0.80309 0.72757 0.0
C3303 C 0.10984 0.77684 0.68222 0.0
C3304 C 0.23053 0.79469 0.76017 0.0
C3305 C 0.2139 0.79656 0.75303 0.0
C3306 C 0.17945 0.77618 0.71201 0.0
C3307 C 0.13468 0.78611 0.70751 0.0
C3308 C 0.15343 0.78834 0.71356 0.0
C3309 C 0.20725 0.79128 0.73338 0.0
C3310 C 0.18887 0.79087 0.72609 0.0
H3311 H 0.09752 0.78148 0.72627 0.0
H3312 H 0.12881 0.78993 0.73635 0.0
H3313 H 0.15501 0.76328 0.6952 0.0
H3314 H 0.24209 0.77727 0.71827 0.0
H3315 H 0.21339 0.78124 0.70566 0.0
C3316 C 0.01169 0.36813 0.40013 0.0
C3317 C 0.01581 0.35107 0.40318 0.0
C3318 C 0.00619 0.37911 0.41452 0.0
C3319 C 0.01035 0.38888 0.46643 0.0
H3320 H 0.97623 0.41854 0.45495 0.0
C3321 C 0.00631 0.45029 0.52114 0.0
C3322 C 0.00817 0.46663 0.51311 0.0
C3323 C 1.00116 0.43306 0.50928 0.0
C3324 C 0.98569 0.41024 0.45842 0.0
H3325 H 0.01706 0.332 0.42365 0.0
H3326 H 0.00758 0.3513 0.44881 0.0
H3327 H 0.97959 0.39382 0.43047 0.0
H3328 H 0.00469 0.4779 0.48669 0.0
H3329 H 0.99575 0.44812 0.46612 0.0
H3330 H 0.01719 0.4059 0.49393 0.0
C3331 C 0.00865 0.35615 0.43528 0.0
C3332 C 0.98764 0.39615 0.44441 0.0
C3333 C 0.01408 0.34512 0.42086 0.0
C3334 C 0.0033 0.46555 0.49329 0.0
C3335 C 0.9981 0.44841 0.48148 0.0
C3336 C 0.00844 0.403 0.48041 0.0
C3337 C 0.00474 0.3733 0.43229 0.0
C3338 C 1.00045 0.38582 0.44805 0.0
C3339 C 0.99772 0.43197 0.48925 0.0
C3340 C 0.99658 0.41433 0.4763 0.0
H3341 H 0.01282 0.3731 0.38666 0.0
H3342 H 0.00355 0.39241 0.41191 0.0
H3343 H 0.0204 0.38122 0.46963 0.0
H3344 H 0.00987 0.45076 0.53642 0.0
H3345 H 1.00074 0.42061 0.51568 0.0
C3346 C 0.50584 0.22866 0.24097 0.0
C3347 C 0.50602 0.2315 0.2219 0.0
C3348 C 0.49062 0.22773 0.24873 0.0
C3349 C 0.44327 0.22294 0.23599 0.0
H3350 H 0.44817 0.25858 0.28225 0.0
C3351 C 0.39053 0.26188 0.25224 0.0
C3352 C 0.38745 0.26559 0.27114 0.0
C3353 C 0.40415 0.25352 0.24824 0.0
C3354 C 0.44656 0.24826 0.26958 0.0
H3355 H 0.49018 0.23437 0.19567 0.0
H3356 H 0.46378 0.23278 0.20916 0.0
H3357 H 0.47378 0.25024 0.27142 0.0
H3358 H 0.39617 0.26321 0.30069 0.0
H3359 H 0.42031 0.24881 0.29368 0.0
H3360 H 0.4161 0.22162 0.23367 0.0
C3361 C 0.47532 0.23122 0.21815 0.0
C3362 C 0.46123 0.24345 0.26339 0.0
C3363 C 0.49051 0.23231 0.21046 0.0
C3364 C 0.39835 0.26074 0.286 0.0
C3365 C 0.41208 0.25242 0.282 0.0
C3366 C 0.42862 0.22773 0.24218 0.0
C3367 C 0.4753 0.2294 0.23749 0.0
C3368 C 0.45976 0.2313 0.24613 0.0
C3369 C 0.41509 0.24872 0.26306 0.0
C3370 C 0.43018 0.24099 0.25862 0.0
H3371 H 0.51759 0.22793 0.25013 0.0
H3372 H 0.49093 0.2262 0.26365 0.0
H3373 H 0.44174 0.21328 0.22282 0.0
H3374 H 0.38259 0.26577 0.24051 0.0
H3375 H 0.40639 0.25128 0.23356 0.0
C3376 C 0.6122 0.52286 0.35393 0.0
C3377 C 0.6103 0.539 0.3464 0.0
C3378 C 0.60649 0.51972 0.37112 0.0
C3379 C 0.57756 0.53593 0.40367 0.0
H3380 H 0.59889 0.50689 0.43765 0.0
C3381 C 0.56108 0.53037 0.47872 0.0
C3382 C 0.55223 0.51251 0.47982 0.0
C3383 C 0.57025 0.53332 0.46375 0.0
C3384 C 0.59287 0.515 0.42822 0.0
H3385 H 0.60174 0.56495 0.35133 0.0
H3386 H 0.59269 0.56009 0.38175 0.0
H3387 H 0.61114 0.51352 0.40908 0.0
H3388 H 0.54708 0.48358 0.46709 0.0
H3389 H 0.56369 0.48875 0.44104 0.0
H3390 H 0.55972 0.53792 0.42331 0.0
C3391 C 0.59782 0.54935 0.37408 0.0
C3392 C 0.59976 0.51872 0.41179 0.0
C3393 C 0.60315 0.55226 0.35669 0.0
C3394 C 0.55374 0.49747 0.46648 0.0
C3395 C 0.56323 0.5004 0.45167 0.0
C3396 C 0.57096 0.53257 0.42027 0.0
C3397 C 0.59907 0.53286 0.38138 0.0
C3398 C 0.59215 0.52919 0.39922 0.0
C3399 C 0.57108 0.51843 0.44989 0.0
C3400 C 0.57851 0.52204 0.43261 0.0
H3401 H 0.61759 0.51234 0.34622 0.0
H3402 H 0.60746 0.50673 0.37601 0.0
H3403 H 0.57097 0.54357 0.3942 0.0
H3404 H 0.56018 0.54222 0.48884 0.0
H3405 H 0.57626 0.54732 0.46262 0.0
C3406 C 0.27724 0.82721 0.03279 0.0
C3407 C 0.27518 0.84548 0.03778 0.0
C3408 C 0.28781 0.81942 0.04523 0.0
C3409 C 0.32024 0.83021 0.09013 0.0
H3410 H 0.29666 0.78249 0.09871 0.0
C3411 C 0.32283 0.80649 0.16298 0.0
C3412 C 0.31873 0.78747 0.16384 0.0
C3413 C 0.32425 0.81256 0.14547 0.0
C3414 C 0.30379 0.79555 0.09626 0.0
H3415 H 0.28313 0.8702 0.05927 0.0
H3416 H 0.30108 0.85643 0.08125 0.0
H3417 H 0.28582 0.7952 0.0712 0.0
H3418 H 0.31506 0.75994 0.14731 0.0
H3419 H 0.31823 0.77057 0.11704 0.0
H3420 H 0.33765 0.8309 0.11598 0.0
C3421 C 0.29486 0.84821 0.06759 0.0
C3422 C 0.29751 0.80289 0.08042 0.0
C3423 C 0.2844 0.85604 0.05509 0.0
C3424 C 0.31816 0.77471 0.14724 0.0
C3425 C 0.3198 0.78079 0.12979 0.0
C3426 C 0.32655 0.82285 0.10605 0.0
C3427 C 0.29642 0.82969 0.06297 0.0
C3428 C 0.30526 0.8206 0.07756 0.0
C3429 C 0.32177 0.79971 0.12852 0.0
C3430 C 0.31798 0.80573 0.10966 0.0
H3431 H 0.27049 0.81883 0.0194 0.0
H3432 H 0.28893 0.8052 0.04114 0.0
H3433 H 0.32668 0.84375 0.08808 0.0
H3434 H 0.32384 0.81669 0.17561 0.0
H3435 H 0.32584 0.82726 0.14505 0.0
C3436 C 0.96026 0.53469 0.83034 0.0
C3437 C 0.94306 0.53691 0.82609 0.0
C3438 C 0.96799 0.53388 0.84905 0.0
C3439 C 0.96401 0.5419 0.90177 0.0
H3440 H 0.99708 0.50982 0.90469 0.0
C3441 C 0.99914 0.5261 0.97554 0.0
C3442 C 0.01667 0.52499 0.97639 0.0
C3443 C 0.98893 0.52754 0.95803 0.0
C3444 C 0.98805 0.51904 0.90434 0.0
H3445 H 0.92078 0.54057 0.83917 0.0
H3446 H 0.93423 0.53904 0.87203 0.0
H3447 H 0.98201 0.51271 0.87375 0.0
H3448 H 0.03691 0.52466 0.95913 0.0
H3449 H 0.0195 0.52698 0.92926 0.0
H3450 H 0.97013 0.54793 0.93269 0.0
C3451 C 0.94184 0.53805 0.86064 0.0
C3452 C 0.97932 0.52079 0.88634 0.0
C3453 C 0.93406 0.539 0.84169 0.0
C3454 C 0.0235 0.52532 0.95921 0.0
C3455 C 0.01337 0.52657 0.94186 0.0
C3456 C 0.97277 0.54006 0.91994 0.0
C3457 C 0.9589 0.53501 0.86464 0.0
C3458 C 0.96733 0.53253 0.8845 0.0
C3459 C 0.99585 0.52768 0.94075 0.0
C3460 C 0.98524 0.52884 0.92158 0.0
H3461 H 0.96785 0.53322 0.81897 0.0
H3462 H 0.98125 0.53222 0.85119 0.0
H3463 H 0.95498 0.5511 0.9013 0.0
H3464 H 0.99337 0.52609 0.98841 0.0
H3465 H 0.97554 0.52831 0.95799 0.0
C3466 C 0.26797 0.1621 0.58063 0.0
C3467 C 0.26754 0.1695 0.56346 0.0
C3468 C 0.27161 0.1737 0.59834 0.0
C3469 C 0.2692 0.21988 0.62128 0.0
H3470 H 0.29786 0.20766 0.66421 0.0
C3471 C 0.26584 0.24601 0.70031 0.0
C3472 C 0.28121 0.25073 0.71366 0.0
C3473 C 0.26584 0.23842 0.68131 0.0
C3474 C 0.28999 0.21143 0.65235 0.0
H3475 H 0.27079 0.195 0.55153 0.0
H3476 H 0.27702 0.21536 0.58265 0.0
H3477 H 0.29539 0.19007 0.63226 0.0
H3478 H 0.30876 0.25158 0.71728 0.0
H3479 H 0.30872 0.23832 0.68411 0.0
H3480 H 0.26358 0.24106 0.64147 0.0
C3481 C 0.27452 0.20051 0.58228 0.0
C3482 C 0.28845 0.20123 0.63406 0.0
C3483 C 0.27103 0.18886 0.56448 0.0
C3484 C 0.29667 0.24809 0.70742 0.0
C3485 C 0.29665 0.24039 0.68842 0.0
C3486 C 0.27065 0.23001 0.63961 0.0
C3487 C 0.27481 0.19303 0.5994 0.0
C3488 C 0.27781 0.20512 0.61838 0.0
C3489 C 0.2812 0.23527 0.6752 0.0
C3490 C 0.28085 0.22571 0.65542 0.0
H3491 H 0.26538 0.14728 0.58043 0.0
H3492 H 0.2715 0.16749 0.61123 0.0
H3493 H 0.26082 0.22315 0.60951 0.0
H3494 H 0.2537 0.24789 0.70457 0.0
H3495 H 0.25369 0.23445 0.67156 0.0
C3496 C 0.62207 0.5208 0.21932 0.0
C3497 C 0.6131 0.52141 0.23494 0.0
C3498 C 0.6132 0.51804 0.20057 0.0
C3499 C 0.59045 0.50309 0.16189 0.0
H3500 H 0.55565 0.53224 0.15169 0.0
C3501 C 0.55139 0.49866 0.08615 0.0
C3502 C 0.55004 0.51579 0.08043 0.0
C3503 C 0.55781 0.49778 0.10518 0.0
C3504 C 0.56533 0.52401 0.15431 0.0
H3505 H 0.58776 0.51921 0.24314 0.0
H3506 H 0.57225 0.51439 0.21033 0.0
H3507 H 0.56945 0.53326 0.18458 0.0
H3508 H 0.55416 0.54537 0.09031 0.0
H3509 H 0.56533 0.54378 0.12335 0.0
H3510 H 0.58667 0.49426 0.13153 0.0
C3511 C 0.58617 0.51619 0.21263 0.0
C3512 C 0.57311 0.52444 0.17317 0.0
C3513 C 0.59504 0.51886 0.2314 0.0
C3514 C 0.55503 0.53194 0.09419 0.0
C3515 C 0.56133 0.53103 0.11319 0.0
C3516 C 0.5826 0.50258 0.14302 0.0
C3517 C 0.59517 0.5159 0.19702 0.0
C3518 C 0.58594 0.51421 0.17714 0.0
C3519 C 0.56286 0.51397 0.1189 0.0
C3520 C 0.57016 0.51328 0.13901 0.0
H3521 H 0.63599 0.52271 0.22157 0.0
H3522 H 0.62053 0.51811 0.18888 0.0
H3523 H 0.60017 0.49491 0.16452 0.0
H3524 H 0.54762 0.48595 0.07592 0.0
H3525 H 0.55872 0.48441 0.1092 0.0
C3526 C 0.22052 0.84483 0.91764 0.0
C3527 C 0.22208 0.83957 0.93587 0.0
C3528 C 0.22167 0.83242 0.90158 0.0
C3529 C 0.24097 0.79172 0.89042 0.0
H3530 H 0.22068 0.79351 0.83836 0.0
C3531 C 0.24359 0.75914 0.80691 0.0
C3532 C 0.26156 0.76154 0.80836 0.0
C3533 C 0.23629 0.76549 0.82259 0.0
C3534 C 0.22623 0.79257 0.85282 0.0
H3535 H 0.22443 0.8168 0.95143 0.0
H3536 H 0.22569 0.79492 0.92338 0.0
H3537 H 0.21072 0.81005 0.8651 0.0
H3538 H 0.28598 0.77145 0.82734 0.0
H3539 H 0.27337 0.78283 0.85458 0.0
H3540 H 0.25638 0.77417 0.8782 0.0
C3541 C 0.2243 0.80881 0.9215 0.0
C3542 C 0.22068 0.80226 0.86815 0.0
C3543 C 0.22347 0.8213 0.93756 0.0
C3544 C 0.27208 0.76954 0.82589 0.0
C3545 C 0.26482 0.77593 0.84152 0.0
C3546 C 0.24639 0.78193 0.87513 0.0
C3547 C 0.22413 0.81443 0.90343 0.0
C3548 C 0.22827 0.80231 0.88713 0.0
C3549 C 0.24686 0.77426 0.83997 0.0
C3550 C 0.23943 0.78263 0.85615 0.0
H3551 H 0.21949 0.85886 0.91595 0.0
H3552 H 0.22162 0.83731 0.88795 0.0
H3553 H 0.24731 0.79158 0.90479 0.0
H3554 H 0.23522 0.75294 0.7935 0.0
H3555 H 0.2224 0.76378 0.82103 0.0
C3556 C 0.94806 0.53891 0.71254 0.0
C3557 C 0.93007 0.53774 0.71076 0.0
C3558 C 0.95638 0.53692 0.69627 0.0
C3559 C 0.94771 0.52112 0.6418 0.0
H3560 H 0.99557 0.54498 0.64576 0.0
C3561 C 0.98332 0.52144 0.57404 0.0
C3562 C 1.00105 0.52086 0.5764 0.0
C3563 C 0.97452 0.5234 0.58998 0.0
C3564 C 0.98225 0.53796 0.64425 0.0
H3565 H 0.90695 0.53355 0.68969 0.0
H3566 H 0.92126 0.53051 0.66159 0.0
H3567 H 0.98103 0.54863 0.67339 0.0
H3568 H 0.02311 0.52197 0.59817 0.0
H3569 H 0.00803 0.52531 0.62551 0.0
H3570 H 0.94898 0.51066 0.6125 0.0
C3571 C 0.92911 0.53262 0.6756 0.0
C3572 C 0.97376 0.54005 0.66037 0.0
C3573 C 0.92078 0.53453 0.69191 0.0
C3574 C 0.00953 0.52234 0.59544 0.0
C3575 C 1.00079 0.52442 0.61134 0.0
C3576 C 0.95619 0.51912 0.62562 0.0
C3577 C 0.94716 0.53374 0.67732 0.0
C3578 C 0.95627 0.53163 0.65967 0.0
C3579 C 0.98306 0.52504 0.60907 0.0
C3580 C 0.97372 0.52741 0.62644 0.0
H3581 H 0.95582 0.54123 0.72664 0.0
H3582 H 0.97014 0.53759 0.69872 0.0
H3583 H 0.93442 0.51403 0.64026 0.0
H3584 H 0.97616 0.52044 0.55981 0.0
H3585 H 0.96099 0.52396 0.58727 0.0
C3586 C 0.26062 0.17047 0.43084 0.0
C3587 C 0.26241 0.17927 0.4499 0.0
C3588 C 0.2616 0.18084 0.41587 0.0
C3589 C 0.27813 0.22757 0.40549 0.0
H3590 H 0.24637 0.21043 0.35767 0.0
C3591 C 0.27826 0.27015 0.34316 0.0
C3592 C 0.27658 0.26014 0.32465 0.0
C3593 C 0.27517 0.26094 0.35864 0.0
C3594 C 0.25546 0.21535 0.37085 0.0
H3595 H 0.26672 0.20594 0.46815 0.0
H3596 H 0.26847 0.22404 0.44203 0.0
H3597 H 0.24409 0.19309 0.38421 0.0
H3598 H 0.26991 0.23267 0.30775 0.0
H3599 H 0.26471 0.21661 0.33464 0.0
H3600 H 0.28972 0.24964 0.39206 0.0
C3601 C 0.2664 0.2091 0.43867 0.0
C3602 C 0.25414 0.20538 0.38609 0.0
C3603 C 0.26532 0.19872 0.45364 0.0
C3604 C 0.27122 0.2408 0.32183 0.0
C3605 C 0.26818 0.23158 0.33728 0.0
C3606 C 0.2795 0.2375 0.39021 0.0
C3607 C 0.26447 0.20029 0.41958 0.0
C3608 C 0.26554 0.21127 0.40357 0.0
C3609 C 0.27036 0.24148 0.35597 0.0
C3610 C 0.26827 0.23146 0.37261 0.0
H3611 H 0.25839 0.15552 0.42743 0.0
H3612 H 0.2603 0.17359 0.40139 0.0
H3613 H 0.28725 0.2324 0.41865 0.0
H3614 H 0.28232 0.28509 0.34575 0.0
H3615 H 0.27669 0.26906 0.37274 0.0
C3616 C 0.38287 0.63465 0.54244 0.0
C3617 C 0.36747 0.64029 0.53646 0.0
C3618 C 0.39308 0.6295 0.52915 0.0
C3619 C 0.3883 0.60787 0.47982 0.0
H3620 H 0.43766 0.61312 0.49401 0.0
C3621 C 0.42268 0.54849 0.46893 0.0
C3622 C 0.4406 0.55206 0.47001 0.0
C3623 C 0.41381 0.563 0.46858 0.0
C3624 C 0.42397 0.61177 0.48932 0.0
H3625 H 0.35112 0.64594 0.51196 0.0
H3626 H 0.36896 0.63666 0.48861 0.0
H3627 H 0.42287 0.63407 0.51101 0.0
H3628 H 0.46318 0.57275 0.46918 0.0
H3629 H 0.44766 0.59808 0.46785 0.0
H3630 H 0.38931 0.58507 0.45861 0.0
C3631 C 0.37308 0.63624 0.50363 0.0
C3632 C 0.41546 0.62371 0.49929 0.0
C3633 C 0.36291 0.64158 0.517 0.0
C3634 C 0.44931 0.56982 0.46851 0.0
C3635 C 0.44044 0.58429 0.46787 0.0
C3636 C 0.39683 0.59597 0.46972 0.0
C3637 C 0.38807 0.62977 0.50954 0.0
C3638 C 0.39744 0.62114 0.49543 0.0
C3639 C 0.42278 0.58127 0.46918 0.0
C3640 C 0.41462 0.59707 0.47516 0.0
H3641 H 0.38679 0.63361 0.55734 0.0
H3642 H 0.40441 0.62432 0.53416 0.0
H3643 H 0.37438 0.60561 0.47643 0.0
H3644 H 0.41578 0.53487 0.47019 0.0
H3645 H 0.40026 0.5601 0.46972 0.0
C3646 C 0.85318 0.95078 0.53807 0.0
C3647 C 0.84842 0.93444 0.54568 0.0
C3648 C 0.87043 0.95816 0.53778 0.0
C3649 C 0.91503 0.95938 0.55945 0.0
H3650 H 0.92508 0.97702 0.51262 0.0
C3651 C 0.97828 0.00973 0.55458 0.0
C3652 C 0.9852 0.00752 0.53756 0.0
C3653 C 0.96255 0.99866 0.55615 0.0
C3654 C 0.9226 0.97197 0.52573 0.0
H3655 H 0.85833 0.91338 0.5595 0.0
H3656 H 0.88874 0.92645 0.55903 0.0
H3657 H 0.89593 0.96165 0.51434 0.0
H3658 H 0.98128 0.99182 0.50895 0.0
H3659 H 0.954 0.97231 0.51176 0.0
H3660 H 0.94181 0.96986 0.57084 0.0
C3661 C 0.87892 0.93345 0.55328 0.0
C3662 C 0.90582 0.96333 0.52679 0.0
C3663 C 0.86152 0.92595 0.55351 0.0
C3664 C 0.9763 0.99376 0.52229 0.0
C3665 C 0.9606 0.98269 0.52386 0.0
C3666 C 0.93189 0.96813 0.55842 0.0
C3667 C 0.88351 0.94948 0.5451 0.0
C3668 C 0.90175 0.9572 0.54374 0.0
C3669 C 0.95337 0.9852 0.54069 0.0
C3670 C 0.93582 0.97473 0.5416 0.0
H3671 H 0.84353 0.95785 0.53205 0.0
H3672 H 0.87353 0.97074 0.53175 0.0
H3673 H 0.91229 0.95485 0.57272 0.0
H3674 H 0.98488 0.02026 0.56656 0.0
H3675 H 0.95728 1.00112 0.56924 0.0
C3676 C 0.90185 0.06944 0.2585 0.0
C3677 C 0.89372 0.05105 0.25088 0.0
C3678 C 0.89251 0.0836 0.25843 0.0
C3679 C 0.85386 0.09521 0.23287 0.0
H3680 H 0.85975 0.13393 0.2767 0.0
C3681 C 0.81112 0.14985 0.2354 0.0
C3682 C 0.81902 0.16811 0.24374 0.0
C3683 C 0.8201 0.1355 0.23666 0.0
C3684 C 0.85811 0.12335 0.26425 0.0
H3685 H 0.86936 0.03304 0.23757 0.0
H3686 H 0.85308 0.05776 0.23747 0.0
H3687 H 0.87566 0.10899 0.27852 0.0
H3688 H 0.84264 0.18571 0.25966 0.0
H3689 H 0.85845 0.16073 0.26161 0.0
H3690 H 0.83654 0.10963 0.21846 0.0
C3691 C 0.8667 0.06124 0.24334 0.0
C3692 C 0.8672 0.10905 0.26532 0.0
C3693 C 0.87601 0.04708 0.2435 0.0
C3694 C 0.83614 0.17173 0.2533 0.0
C3695 C 0.84517 0.1574 0.25446 0.0
C3696 C 0.84485 0.10956 0.23175 0.0
C3697 C 0.87488 0.07968 0.25064 0.0
C3698 C 0.86515 0.09481 0.24965 0.0
C3699 C 0.83725 0.13909 0.24619 0.0
C3700 C 0.84685 0.12381 0.24743 0.0
H3701 H 0.91549 0.07295 0.26428 0.0
H3702 H 0.8992 0.0977 0.26402 0.0
H3703 H 0.85222 0.0846 0.22044 0.0
H3704 H 0.79785 0.1466 0.22818 0.0
H3705 H 0.8135 0.12153 0.2304 0.0
C3706 C 0.77748 0.0983 0.07369 0.0
C3707 C 0.78226 0.1157 0.08542 0.0
C3708 C 0.76138 0.08705 0.07338 0.0
C3709 C 0.7183 0.09197 0.08379 0.0
H3710 H 0.70808 0.03832 0.07297 0.0
C3711 C 0.65124 0.04929 0.0846 0.0
C3712 C 0.6441 0.03592 0.06832 0.0
C3713 C 0.6686 0.05782 0.08756 0.0
C3714 C 0.7108 0.05331 0.07591 0.0
H3715 H 0.77476 0.13434 0.10724 0.0
H3716 H 0.74707 0.1144 0.10742 0.0
H3717 H 0.73805 0.0551 0.07806 0.0
H3718 H 0.64954 0.02068 0.04258 0.0
H3719 H 0.68017 0.03562 0.04789 0.0
H3720 H 0.69112 0.09017 0.08187 0.0
C3721 C 0.75535 0.10971 0.09783 0.0
C3722 C 0.72793 0.06292 0.0788 0.0
C3723 C 0.77128 0.12107 0.09788 0.0
C3724 C 0.65474 0.03101 0.0552 0.0
C3725 C 0.67223 0.03942 0.0583 0.0
C3726 C 0.70129 0.08238 0.08114 0.0
C3727 C 0.7499 0.09291 0.08502 0.0
C3728 C 0.73187 0.0824 0.08276 0.0
C3729 C 0.67923 0.05306 0.0744 0.0
C3730 C 0.69737 0.06298 0.07716 0.0
H3731 H 0.78569 0.09387 0.06388 0.0
H3732 H 0.75761 0.07427 0.06326 0.0
H3733 H 0.72074 0.10696 0.08624 0.0
H3734 H 0.64328 0.05347 0.09484 0.0
H3735 H 0.67372 0.06823 0.10013 0.0
C3736 C 0.17739 0.42783 0.28403 0.0
C3737 C 0.18668 0.44624 0.28585 0.0
C3738 C 0.18572 0.41244 0.28359 0.0
C3739 C 0.22907 0.39822 0.27799 0.0
H3740 H 0.20801 0.3532 0.2945 0.0
C3741 C 0.26633 0.33659 0.28394 0.0
C3742 C 0.25722 0.31803 0.28125 0.0
C3743 C 0.25778 0.3518 0.28463 0.0
C3744 C 0.21418 0.36548 0.28957 0.0
H3745 H 0.21263 0.46218 0.28873 0.0
H3746 H 0.22704 0.43586 0.28828 0.0
H3747 H 0.19368 0.37946 0.29548 0.0
H3748 H 0.23137 0.30167 0.27745 0.0
H3749 H 0.21655 0.32774 0.27849 0.0
H3750 H 0.24956 0.38426 0.27208 0.0
C3751 C 0.21313 0.43305 0.28684 0.0
C3752 C 0.20579 0.38085 0.29013 0.0
C3753 C 0.20478 0.44843 0.28725 0.0
C3754 C 0.23906 0.31553 0.27949 0.0
C3755 C 0.23048 0.33074 0.28024 0.0
C3756 C 0.23746 0.38288 0.27746 0.0
C3757 C 0.20387 0.41453 0.28496 0.0
C3758 C 0.21297 0.39774 0.28437 0.0
C3759 C 0.23957 0.34938 0.28273 0.0
C3760 C 0.23031 0.36603 0.28326 0.0
H3761 H 0.16348 0.42521 0.28282 0.0
H3762 H 0.17771 0.39876 0.28184 0.0
H3763 H 0.23524 0.41043 0.27297 0.0
H3764 H 0.28026 0.33947 0.28542 0.0
H3765 H 0.26565 0.36559 0.28691 0.0
C3766 C 0.2353 0.40299 0.04214 0.0
C3767 C 0.25193 0.41343 0.04956 0.0
C3768 C 0.22119 0.41166 0.03978 0.0
C3769 C 0.20606 0.45403 0.05627 0.0
H3770 H 0.17434 0.44113 0.00811 0.0
C3771 C 0.15418 0.49639 0.03786 0.0
C3772 C 0.13784 0.48687 0.02809 0.0
C3773 C 0.168 0.48732 0.04013 0.0
C3774 C 0.18291 0.44474 0.02176 0.0
H3775 H 0.26671 0.44111 0.06074 0.0
H3776 H 0.24205 0.45619 0.05683 0.0
H3777 H 0.1983 0.42525 0.01338 0.0
H3778 H 0.1235 0.46026 0.01263 0.0
H3779 H 0.14741 0.44429 0.01716 0.0
H3780 H 0.19062 0.4733 0.06485 0.0
C3781 C 0.23993 0.44131 0.05281 0.0
C3782 C 0.19667 0.43564 0.02475 0.0
C3783 C 0.25406 0.43267 0.05499 0.0
C3784 C 0.1358 0.46803 0.02043 0.0
C3785 C 0.14961 0.45891 0.02283 0.0
C3786 C 0.19223 0.46302 0.05336 0.0
C3787 C 0.22335 0.43093 0.04499 0.0
C3788 C 0.20846 0.44025 0.04201 0.0
C3789 C 0.16588 0.46839 0.03286 0.0
C3790 C 0.18051 0.45859 0.03601 0.0
H3791 H 0.23321 0.38814 0.03781 0.0
H3792 H 0.20855 0.40327 0.03392 0.0
H3793 H 0.21478 0.45772 0.06983 0.0
H3794 H 0.15626 0.51082 0.04423 0.0
H3795 H 0.18037 0.4952 0.04765 0.0
C3796 C 0.90192 0.92681 0.24196 0.0
C3797 C 0.89729 0.94422 0.24304 0.0
C3798 C 0.88993 0.91106 0.24339 0.0
C3799 C 0.84865 0.89715 0.2609 0.0
H3800 H 0.84795 0.84943 0.23109 0.0
C3801 C 0.79457 0.83347 0.25798 0.0
C3802 C 0.79986 0.81684 0.26031 0.0
C3803 C 0.80643 0.84885 0.25541 0.0
C3804 C 0.84809 0.86265 0.23961 0.0
H3805 H 0.87625 0.9586 0.24589 0.0
H3806 H 0.85526 0.93112 0.24789 0.0
H3807 H 0.86854 0.87662 0.2271 0.0
H3808 H 0.8211 0.80261 0.26024 0.0
H3809 H 0.84206 0.82956 0.25608 0.0
H3810 H 0.82805 0.88317 0.27322 0.0
C3811 C 0.86828 0.92968 0.24644 0.0
C3812 C 0.85991 0.87823 0.23736 0.0
C3813 C 0.8803 0.94544 0.24517 0.0
C3814 C 0.81699 0.81555 0.25935 0.0
C3815 C 0.82885 0.83087 0.25658 0.0
C3816 C 0.83676 0.88161 0.26302 0.0
C3817 C 0.87298 0.91231 0.24579 0.0
C3818 C 0.86034 0.89569 0.24799 0.0
C3819 C 0.82372 0.84774 0.25479 0.0
C3820 C 0.83636 0.8642 0.25241 0.0
H3821 H 0.91493 0.9254 0.24041 0.0
H3822 H 0.89408 0.89797 0.24307 0.0
H3823 H 0.84883 0.91026 0.26963 0.0
H3824 H 0.78132 0.83465 0.25844 0.0
H3825 H 0.80204 0.86158 0.25376 0.0
C3826 C 0.69853 0.07083 0.79872 0.0
C3827 C 0.68564 0.06176 0.78317 0.0
C3828 C 0.70777 0.0891 0.79889 0.0
C3829 C 0.70549 0.13073 0.77295 0.0
H3830 H 0.75098 0.15064 0.80242 0.0
C3831 C 0.74595 0.20163 0.76316 0.0
C3832 C 0.7553 0.21399 0.77949 0.0
C3833 C 0.73796 0.18338 0.76437 0.0
C3834 C 0.73822 0.1454 0.79417 0.0
H3835 H 0.67311 0.06481 0.75527 0.0
H3836 H 0.68954 0.09546 0.75492 0.0
H3837 H 0.73697 0.11862 0.80281 0.0
H3838 H 0.76353 0.21612 0.81006 0.0
H3839 H 0.74986 0.18425 0.81212 0.0
H3840 H 0.70691 0.15734 0.764 0.0
C3841 C 0.69222 0.08919 0.76754 0.0
C3842 C 0.73005 0.12685 0.79442 0.0
C3843 C 0.68286 0.07125 0.76756 0.0
C3844 C 0.75646 0.20721 0.79712 0.0
C3845 C 0.74867 0.18879 0.79828 0.0
C3846 C 0.71373 0.14908 0.77249 0.0
C3847 C 0.70456 0.09887 0.78341 0.0
C3848 C 0.7135 0.11899 0.78367 0.0
C3849 C 0.73915 0.17652 0.78193 0.0
C3850 C 0.73029 0.15682 0.78299 0.0
H3851 H 0.7009 0.06419 0.81116 0.0
H3852 H 0.71698 0.09574 0.81152 0.0
H3853 H 0.6926 0.12593 0.76494 0.0
H3854 H 0.74467 0.2061 0.74929 0.0
H3855 H 0.73098 0.17451 0.75137 0.0
loop_
_geom_bond_atom_site_label_1
_geom_bond_atom_site_label_2
_geom_bond_distance
_geom_bond_site_symmetry_2
_ccdc_geom_bond_type
C0 O1 1.306 . S
C0 O3 1.160 . S
O1 C0 1.306 . S
O1 Cd2 2.228 1_655 S
Cd2 O1 2.228 1_455 S
Cd2 O6 2.273 . S
Cd2 O10 2.277 . S
O3 C0 1.160 . S
O3 Cd4 2.203 1_655 S
Cd4 O3 2.203 1_455 S
Cd4 O6 2.411 . S
Cd4 O7 2.333 . S
Cd4 O8 2.352 1_455 S
Cd4 O12 2.277 . S
Cd4 O13 2.356 . S
C5 O10 1.209 . S
C5 O12 1.226 . S
O6 Cd2 2.273 . S
O6 Cd4 2.411 . S
O6 C9 1.320 . S
O7 Cd4 2.333 . S
O7 C9 1.214 . S
O8 Cd4 2.352 1_655 S
O8 C11 1.258 1_655 S
C9 O6 1.320 . S
C9 O7 1.214 . S
O10 Cd2 2.277 . S
O10 C5 1.209 . S
C11 O8 1.258 1_455 S
C11 O13 1.282 . S
O12 Cd4 2.277 . S
O12 C5 1.226 . S
O13 Cd4 2.356 . S
O13 C11 1.282 . S
C14 O15 1.306 . S
C14 O17 1.160 . S
O15 C14 1.306 . S
O15 Cd16 2.228 . S
Cd16 O15 2.228 . S
Cd16 O20 2.273 . S
Cd16 O24 2.277 . S
O17 C14 1.160 . S
O17 Cd18 2.203 . S
Cd18 O17 2.203 . S
Cd18 O20 2.411 . S
Cd18 O21 2.333 . S
Cd18 O22 2.352 . S
Cd18 O26 2.277 . S
Cd18 O27 2.356 . S
C19 O24 1.209 . S
C19 O26 1.226 . S
O20 Cd16 2.273 . S
O20 Cd18 2.411 . S
O20 C23 1.320 . S
O21 Cd18 2.333 . S
O21 C23 1.214 . S
O22 Cd18 2.352 . S
O22 C25 1.258 . S
C23 O20 1.320 . S
C23 O21 1.214 . S
O24 Cd16 2.277 . S
O24 C19 1.209 . S
C25 O22 1.258 . S
C25 O27 1.282 . S
O26 Cd18 2.277 . S
O26 C19 1.226 . S
O27 Cd18 2.356 . S
O27 C25 1.282 . S
C28 O29 1.306 . S
C28 O31 1.160 . S
O29 C28 1.306 . S
O29 Cd30 2.228 . S
Cd30 O29 2.228 . S
Cd30 O34 2.273 . S
Cd30 O38 2.277 . S
O31 C28 1.160 . S
O31 Cd32 2.203 . S
Cd32 O31 2.203 . S
Cd32 O34 2.411 . S
Cd32 O35 2.333 . S
Cd32 O36 2.352 . S
Cd32 O40 2.277 . S
Cd32 O41 2.356 . S
C33 O38 1.209 . S
C33 O40 1.226 . S
O34 Cd30 2.273 . S
O34 Cd32 2.411 . S
O34 C37 1.320 . S
O35 Cd32 2.333 . S
O35 C37 1.214 . S
O36 Cd32 2.352 . S
O36 C39 1.258 . S
C37 O34 1.320 . S
C37 O35 1.214 . S
O38 Cd30 2.277 . S
O38 C33 1.209 . S
C39 O36 1.258 . S
C39 O41 1.282 . S
O40 Cd32 2.277 . S
O40 C33 1.226 . S
O41 Cd32 2.356 . S
O41 C39 1.282 . S
C42 O43 1.306 . S
C42 O45 1.160 . S
O43 C42 1.306 . S
O43 Cd44 2.228 . S
Cd44 O43 2.228 . S
Cd44 O48 2.273 . S
Cd44 O52 2.277 . S
O45 C42 1.160 . S
O45 Cd46 2.203 . S
Cd46 O45 2.203 . S
Cd46 O48 2.411 . S
Cd46 O49 2.333 . S
Cd46 O50 2.352 . S
Cd46 O54 2.277 . S
Cd46 O55 2.356 . S
C47 O52 1.209 . S
C47 O54 1.226 . S
O48 Cd44 2.273 . S
O48 Cd46 2.411 . S
O48 C51 1.320 . S
O49 Cd46 2.333 . S
O49 C51 1.214 . S
O50 Cd46 2.352 . S
O50 C53 1.258 . S
C51 O48 1.320 . S
C51 O49 1.214 . S
O52 Cd44 2.277 . S
O52 C47 1.209 . S
C53 O50 1.258 . S
C53 O55 1.282 . S
O54 Cd46 2.277 . S
O54 C47 1.226 . S
O55 Cd46 2.356 . S
O55 C53 1.282 . S
C56 O57 1.306 . S
C56 O59 1.160 . S
O57 C56 1.306 . S
O57 Cd58 2.228 . S
Cd58 O57 2.228 . S
Cd58 O62 2.273 . S
Cd58 O66 2.277 . S
O59 C56 1.160 . S
O59 Cd60 2.203 . S
Cd60 O59 2.203 . S
Cd60 O62 2.411 . S
Cd60 O63 2.333 . S
Cd60 O64 2.352 . S
Cd60 O68 2.277 . S
Cd60 O69 2.356 . S
C61 O66 1.209 . S
C61 O68 1.226 . S
O62 Cd58 2.273 . S
O62 Cd60 2.411 . S
O62 C65 1.320 . S
O63 Cd60 2.333 . S
O63 C65 1.214 . S
O64 Cd60 2.352 . S
O64 C67 1.258 . S
C65 O62 1.320 . S
C65 O63 1.214 . S
O66 Cd58 2.277 . S
O66 C61 1.209 . S
C67 O64 1.258 . S
C67 O69 1.282 . S
O68 Cd60 2.277 . S
O68 C61 1.226 . S
O69 Cd60 2.356 . S
O69 C67 1.282 . S
C70 O71 1.306 . S
C70 O73 1.160 . S
O71 C70 1.306 . S
O71 Cd72 2.228 . S
Cd72 O71 2.228 . S
Cd72 O76 2.273 . S
Cd72 O80 2.277 . S
O73 C70 1.160 . S
O73 Cd74 2.203 . S
Cd74 O73 2.203 . S
Cd74 O76 2.411 . S
Cd74 O77 2.333 . S
Cd74 O78 2.352 . S
Cd74 O82 2.277 . S
Cd74 O83 2.356 . S
C75 O80 1.209 . S
C75 O82 1.226 . S
O76 Cd72 2.273 . S
O76 Cd74 2.411 . S
O76 C79 1.320 . S
O77 Cd74 2.333 . S
O77 C79 1.214 . S
O78 Cd74 2.352 . S
O78 C81 1.258 . S
C79 O76 1.320 . S
C79 O77 1.214 . S
O80 Cd72 2.277 . S
O80 C75 1.209 . S
C81 O78 1.258 . S
C81 O83 1.282 . S
O82 Cd74 2.277 . S
O82 C75 1.226 . S
O83 Cd74 2.356 . S
O83 C81 1.282 . S
C84 O85 1.306 . S
C84 O87 1.160 . S
O85 C84 1.306 . S
O85 Cd86 2.228 . S
Cd86 O85 2.228 . S
Cd86 O90 2.273 . S
Cd86 O94 2.277 . S
O87 C84 1.160 . S
O87 Cd88 2.203 . S
Cd88 O87 2.203 . S
Cd88 O90 2.411 . S
Cd88 O91 2.333 . S
Cd88 O92 2.352 . S
Cd88 O96 2.277 . S
Cd88 O97 2.356 . S
C89 O94 1.209 . S
C89 O96 1.226 . S
O90 Cd86 2.273 . S
O90 Cd88 2.411 . S
O90 C93 1.320 . S
O91 Cd88 2.333 . S
O91 C93 1.214 . S
O92 Cd88 2.352 . S
O92 C95 1.258 . S
C93 O90 1.320 . S
C93 O91 1.214 . S
O94 Cd86 2.277 . S
O94 C89 1.209 . S
C95 O92 1.258 . S
C95 O97 1.282 . S
O96 Cd88 2.277 . S
O96 C89 1.226 . S
O97 Cd88 2.356 . S
O97 C95 1.282 . S
C98 O99 1.306 . S
C98 O101 1.160 . S
O99 C98 1.306 . S
O99 Cd100 2.228 1_655 S
Cd100 O99 2.228 1_455 S
Cd100 O104 2.273 . S
Cd100 O108 2.277 . S
O101 C98 1.160 . S
O101 Cd102 2.203 1_655 S
Cd102 O101 2.203 1_455 S
Cd102 O104 2.411 . S
Cd102 O105 2.333 . S
Cd102 O106 2.352 . S
Cd102 O110 2.277 . S
Cd102 O111 2.356 . S
C103 O108 1.209 . S
C103 O110 1.226 . S
O104 Cd100 2.273 . S
O104 Cd102 2.411 . S
O104 C107 1.320 . S
O105 Cd102 2.333 . S
O105 C107 1.214 . S
O106 Cd102 2.352 . S
O106 C109 1.258 . S
C107 O104 1.320 . S
C107 O105 1.214 . S
O108 Cd100 2.277 . S
O108 C103 1.209 . S
C109 O106 1.258 . S
C109 O111 1.282 . S
O110 Cd102 2.277 . S
O110 C103 1.226 . S
O111 Cd102 2.356 . S
O111 C109 1.282 . S
C112 O113 1.306 . S
C112 O115 1.160 . S
O113 C112 1.306 . S
O113 Cd114 2.228 1_545 S
Cd114 O113 2.228 1_565 S
Cd114 O118 2.273 1_565 S
Cd114 O122 2.277 . S
O115 C112 1.160 . S
O115 Cd116 2.203 . S
Cd116 O115 2.203 . S
Cd116 O118 2.411 . S
Cd116 O119 2.333 . S
Cd116 O120 2.352 . S
Cd116 O124 2.277 1_545 S
Cd116 O125 2.356 . S
C117 O122 1.209 . S
C117 O124 1.226 . S
O118 Cd114 2.273 1_545 S
O118 Cd116 2.411 . S
O118 C121 1.320 . S
O119 Cd116 2.333 . S
O119 C121 1.214 . S
O120 Cd116 2.352 . S
O120 C123 1.258 . S
C121 O118 1.320 . S
C121 O119 1.214 . S
O122 Cd114 2.277 . S
O122 C117 1.209 . S
C123 O120 1.258 . S
C123 O125 1.282 . S
O124 Cd116 2.277 1_565 S
O124 C117 1.226 . S
O125 Cd116 2.356 . S
O125 C123 1.282 . S
C126 O127 1.306 . S
C126 O129 1.160 . S
O127 C126 1.306 . S
O127 Cd128 2.228 . S
Cd128 O127 2.228 . S
Cd128 O132 2.273 . S
Cd128 O136 2.277 . S
O129 C126 1.160 . S
O129 Cd130 2.203 . S
Cd130 O129 2.203 . S
Cd130 O132 2.411 . S
Cd130 O133 2.333 . S
Cd130 O134 2.352 . S
Cd130 O138 2.277 . S
Cd130 O139 2.356 . S
C131 O136 1.209 . S
C131 O138 1.226 . S
O132 Cd128 2.273 . S
O132 Cd130 2.411 . S
O132 C135 1.320 . S
O133 Cd130 2.333 . S
O133 C135 1.214 . S
O134 Cd130 2.352 . S
O134 C137 1.258 . S
C135 O132 1.320 . S
C135 O133 1.214 . S
O136 Cd128 2.277 . S
O136 C131 1.209 . S
C137 O134 1.258 . S
C137 O139 1.282 . S
O138 Cd130 2.277 . S
O138 C131 1.226 . S
O139 Cd130 2.356 . S
O139 C137 1.282 . S
C140 O141 1.306 . S
C140 O143 1.160 . S
O141 C140 1.306 . S
O141 Cd142 2.228 . S
Cd142 O141 2.228 . S
Cd142 O146 2.273 . S
Cd142 O150 2.277 . S
O143 C140 1.160 . S
O143 Cd144 2.203 . S
Cd144 O143 2.203 . S
Cd144 O146 2.411 . S
Cd144 O147 2.333 . S
Cd144 O148 2.352 1_545 S
Cd144 O152 2.277 . S
Cd144 O153 2.356 . S
C145 O150 1.209 . S
C145 O152 1.226 . S
O146 Cd142 2.273 . S
O146 Cd144 2.411 . S
O146 C149 1.320 . S
O147 Cd144 2.333 . S
O147 C149 1.214 . S
O148 Cd144 2.352 1_565 S
O148 C151 1.258 . S
C149 O146 1.320 . S
C149 O147 1.214 . S
O150 Cd142 2.277 . S
O150 C145 1.209 . S
C151 O148 1.258 . S
C151 O153 1.282 1_565 S
O152 Cd144 2.277 . S
O152 C145 1.226 . S
O153 Cd144 2.356 . S
O153 C151 1.282 1_545 S
C154 O155 1.306 1_554 S
C154 O157 1.160 . S
O155 C154 1.306 1_556 S
O155 Cd156 2.228 . S
Cd156 O155 2.228 . S
Cd156 O160 2.271 . S
Cd156 O164 2.277 . S
O157 C154 1.160 . S
O157 Cd158 2.203 . S
Cd158 O157 2.203 . S
Cd158 O160 2.411 1_554 S
Cd158 O161 2.333 . S
Cd158 O162 2.352 . S
Cd158 O166 2.277 1_554 S
Cd158 O167 2.356 . S
C159 O164 1.209 . S
C159 O166 1.226 . S
O160 Cd156 2.271 . S
O160 Cd158 2.411 1_556 S
O160 C163 1.329 . S
O161 Cd158 2.333 . S
O161 C163 1.206 1_554 S
O162 Cd158 2.352 . S
O162 C165 1.258 . S
C163 O160 1.329 . S
C163 O161 1.206 1_556 S
O164 Cd156 2.277 . S
O164 C159 1.209 . S
C165 O162 1.258 . S
C165 O167 1.282 . S
O166 Cd158 2.277 1_556 S
O166 C159 1.226 . S
O167 Cd158 2.356 . S
O167 C165 1.282 . S
C168 O169 1.306 . S
C168 O171 1.160 . S
O169 C168 1.306 . S
O169 Cd170 2.228 . S
Cd170 O169 2.228 . S
Cd170 O174 2.273 . S
Cd170 O178 2.277 1_554 S
O171 C168 1.160 . S
O171 Cd172 2.203 . S
Cd172 O171 2.203 . S
Cd172 O174 2.411 . S
Cd172 O175 2.333 . S
Cd172 O176 2.352 . S
Cd172 O180 2.277 . S
Cd172 O181 2.356 . S
C173 O178 1.209 . S
C173 O180 1.226 1_556 S
O174 Cd170 2.273 . S
O174 Cd172 2.411 . S
O174 C177 1.320 . S
O175 Cd172 2.333 . S
O175 C177 1.214 . S
O176 Cd172 2.352 . S
O176 C179 1.258 . S
C177 O174 1.320 . S
C177 O175 1.214 . S
O178 Cd170 2.277 1_556 S
O178 C173 1.209 . S
C179 O176 1.258 . S
C179 O181 1.282 . S
O180 Cd172 2.277 . S
O180 C173 1.226 1_554 S
O181 Cd172 2.356 . S
O181 C179 1.282 . S
C182 O183 1.306 . S
C182 O185 1.160 . S
O183 C182 1.306 . S
O183 Cd184 2.228 . S
Cd184 O183 2.228 . S
Cd184 O188 2.273 . S
Cd184 O192 2.277 . S
O185 C182 1.160 . S
O185 Cd186 2.203 . S
Cd186 O185 2.203 . S
Cd186 O188 2.411 . S
Cd186 O189 2.333 . S
Cd186 O190 2.352 . S
Cd186 O194 2.277 . S
Cd186 O195 2.356 . S
C187 O192 1.209 . S
C187 O194 1.226 . S
O188 Cd184 2.273 . S
O188 Cd186 2.411 . S
O188 C191 1.320 . S
O189 Cd186 2.333 . S
O189 C191 1.214 . S
O190 Cd186 2.352 . S
O190 C193 1.258 . S
C191 O188 1.320 . S
C191 O189 1.214 . S
O192 Cd184 2.277 . S
O192 C187 1.209 . S
C193 O190 1.258 . S
C193 O195 1.282 . S
O194 Cd186 2.277 . S
O194 C187 1.226 . S
O195 Cd186 2.356 . S
O195 C193 1.282 . S
C196 O197 1.306 . S
C196 O199 1.160 . S
O197 C196 1.306 . S
O197 Cd198 2.228 . S
Cd198 O197 2.228 . S
Cd198 O202 2.273 . S
Cd198 O206 2.277 . S
O199 C196 1.160 . S
O199 Cd200 2.203 . S
Cd200 O199 2.203 . S
Cd200 O202 2.411 . S
Cd200 O203 2.333 . S
Cd200 O204 2.352 . S
Cd200 O208 2.277 . S
Cd200 O209 2.356 . S
C201 O206 1.209 . S
C201 O208 1.226 . S
O202 Cd198 2.273 . S
O202 Cd200 2.411 . S
O202 C205 1.320 . S
O203 Cd200 2.333 . S
O203 C205 1.214 . S
O204 Cd200 2.352 . S
O204 C207 1.258 . S
C205 O202 1.320 . S
C205 O203 1.214 . S
O206 Cd198 2.277 . S
O206 C201 1.209 . S
C207 O204 1.258 . S
C207 O209 1.282 . S
O208 Cd200 2.277 . S
O208 C201 1.226 . S
O209 Cd200 2.356 . S
O209 C207 1.282 . S
C210 O211 1.306 . S
C210 O213 1.160 . S
O211 C210 1.306 . S
O211 Cd212 2.228 . S
Cd212 O211 2.228 . S
Cd212 O216 2.273 . S
Cd212 O220 2.277 . S
O213 C210 1.160 . S
O213 Cd214 2.203 . S
Cd214 O213 2.203 . S
Cd214 O216 2.411 . S
Cd214 O217 2.333 . S
Cd214 O218 2.352 . S
Cd214 O222 2.277 . S
Cd214 O223 2.356 . S
C215 O220 1.209 . S
C215 O222 1.226 . S
O216 Cd212 2.273 . S
O216 Cd214 2.411 . S
O216 C219 1.320 . S
O217 Cd214 2.333 . S
O217 C219 1.214 . S
O218 Cd214 2.352 . S
O218 C221 1.258 . S
C219 O216 1.320 . S
C219 O217 1.214 . S
O220 Cd212 2.277 . S
O220 C215 1.209 . S
C221 O218 1.258 . S
C221 O223 1.282 . S
O222 Cd214 2.277 . S
O222 C215 1.226 . S
O223 Cd214 2.356 . S
O223 C221 1.282 . S
C224 O225 1.309 . S
C224 O227 1.160 . S
O225 C224 1.309 . S
O225 Cd226 2.225 1_545 S
Cd226 O225 2.225 1_565 S
Cd226 O230 2.273 1_565 S
Cd226 O234 2.277 . S
O227 C224 1.160 . S
O227 Cd228 2.203 . S
Cd228 O227 2.203 . S
Cd228 O230 2.411 . S
Cd228 O231 2.333 . S
Cd228 O232 2.352 . S
Cd228 O236 2.277 1_545 S
Cd228 O237 2.356 . S
C229 O234 1.209 . S
C229 O236 1.226 . S
O230 Cd226 2.273 1_545 S
O230 Cd228 2.411 . S
O230 C233 1.320 . S
O231 Cd228 2.333 . S
O231 C233 1.214 . S
O232 Cd228 2.352 . S
O232 C235 1.258 . S
C233 O230 1.320 . S
C233 O231 1.214 . S
O234 Cd226 2.277 . S
O234 C229 1.209 . S
C235 O232 1.258 . S
C235 O237 1.282 . S
O236 Cd228 2.277 1_565 S
O236 C229 1.226 . S
O237 Cd228 2.356 . S
O237 C235 1.282 . S
C238 O239 1.306 . S
C238 O241 1.160 . S
O239 C238 1.306 . S
O239 Cd240 2.228 . S
Cd240 O239 2.228 . S
Cd240 O244 2.273 . S
Cd240 O248 2.277 . S
O241 C238 1.160 . S
O241 Cd242 2.203 . S
Cd242 O241 2.203 . S
Cd242 O244 2.411 . S
Cd242 O245 2.333 . S
Cd242 O246 2.352 . S
Cd242 O250 2.277 . S
Cd242 O251 2.356 . S
C243 O248 1.209 . S
C243 O250 1.226 . S
O244 Cd240 2.273 . S
O244 Cd242 2.411 . S
O244 C247 1.320 . S
O245 Cd242 2.333 . S
O245 C247 1.214 . S
O246 Cd242 2.352 . S
O246 C249 1.258 . S
C247 O244 1.320 . S
C247 O245 1.214 . S
O248 Cd240 2.277 . S
O248 C243 1.209 . S
C249 O246 1.258 . S
C249 O251 1.282 . S
O250 Cd242 2.277 . S
O250 C243 1.226 . S
O251 Cd242 2.356 . S
O251 C249 1.282 . S
C252 O253 1.306 . S
C252 O255 1.160 . S
O253 C252 1.306 . S
O253 Cd254 2.228 . S
Cd254 O253 2.228 . S
Cd254 O258 2.273 . S
Cd254 O262 2.277 . S
O255 C252 1.160 . S
O255 Cd256 2.203 . S
Cd256 O255 2.203 . S
Cd256 O258 2.411 . S
Cd256 O259 2.333 . S
Cd256 O260 2.352 . S
Cd256 O264 2.277 . S
Cd256 O265 2.356 . S
C257 O262 1.209 . S
C257 O264 1.226 . S
O258 Cd254 2.273 . S
O258 Cd256 2.411 . S
O258 C261 1.320 . S
O259 Cd256 2.333 . S
O259 C261 1.214 . S
O260 Cd256 2.352 . S
O260 C263 1.258 . S
C261 O258 1.320 . S
C261 O259 1.214 . S
O262 Cd254 2.277 . S
O262 C257 1.209 . S
C263 O260 1.258 . S
C263 O265 1.282 . S
O264 Cd256 2.277 . S
O264 C257 1.226 . S
O265 Cd256 2.356 . S
O265 C263 1.282 . S
C266 O267 1.306 . S
C266 O269 1.160 . S
O267 C266 1.306 . S
O267 Cd268 2.228 . S
Cd268 O267 2.228 . S
Cd268 O272 2.273 . S
Cd268 O276 2.277 . S
O269 C266 1.160 . S
O269 Cd270 2.203 . S
Cd270 O269 2.203 . S
Cd270 O272 2.411 . S
Cd270 O273 2.333 . S
Cd270 O274 2.352 1_545 S
Cd270 O278 2.277 . S
Cd270 O279 2.356 1_545 S
C271 O276 1.209 . S
C271 O278 1.226 . S
O272 Cd268 2.273 . S
O272 Cd270 2.411 . S
O272 C275 1.320 . S
O273 Cd270 2.333 . S
O273 C275 1.214 . S
O274 Cd270 2.352 1_565 S
O274 C277 1.258 . S
C275 O272 1.320 . S
C275 O273 1.214 . S
O276 Cd268 2.277 . S
O276 C271 1.209 . S
C277 O274 1.258 . S
C277 O279 1.282 . S
O278 Cd270 2.277 . S
O278 C271 1.226 . S
O279 Cd270 2.356 1_565 S
O279 C277 1.282 . S
C280 O281 1.306 . S
C280 O283 1.160 . S
O281 C280 1.306 . S
O281 Cd282 2.228 . S
Cd282 O281 2.228 . S
Cd282 O286 2.273 . S
Cd282 O290 2.277 . S
O283 C280 1.160 . S
O283 Cd284 2.203 . S
Cd284 O283 2.203 . S
Cd284 O286 2.411 . S
Cd284 O287 2.333 . S
Cd284 O288 2.352 1_554 S
Cd284 O292 2.277 . S
Cd284 O293 2.321 1_554 S
C285 O290 1.209 . S
C285 O292 1.226 . S
O286 Cd282 2.273 . S
O286 Cd284 2.411 . S
O286 C289 1.320 . S
O287 Cd284 2.333 . S
O287 C289 1.214 . S
O288 Cd284 2.352 1_556 S
O288 C291 1.258 . S
C289 O286 1.320 . S
C289 O287 1.214 . S
O290 Cd282 2.277 . S
O290 C285 1.209 . S
C291 O288 1.258 . S
C291 O293 1.320 . S
O292 Cd284 2.277 . S
O292 C285 1.226 . S
O293 Cd284 2.321 1_556 S
O293 C291 1.320 . S
C294 O295 1.306 . S
C294 O297 1.160 . S
O295 C294 1.306 . S
O295 Cd296 2.228 . S
Cd296 O295 2.228 . S
Cd296 O300 2.273 . S
Cd296 O304 2.277 . S
O297 C294 1.160 . S
O297 Cd298 2.203 . S
Cd298 O297 2.203 . S
Cd298 O300 2.411 . S
Cd298 O301 2.333 . S
Cd298 O302 2.352 . S
Cd298 O306 2.277 . S
Cd298 O307 2.356 . S
C299 O304 1.209 . S
C299 O306 1.226 . S
O300 Cd296 2.273 . S
O300 Cd298 2.411 . S
O300 C303 1.320 . S
O301 Cd298 2.333 . S
O301 C303 1.214 . S
O302 Cd298 2.352 . S
O302 C305 1.258 . S
C303 O300 1.320 . S
C303 O301 1.214 . S
O304 Cd296 2.277 . S
O304 C299 1.209 . S
C305 O302 1.258 . S
C305 O307 1.282 . S
O306 Cd298 2.277 . S
O306 C299 1.226 . S
O307 Cd298 2.356 . S
O307 C305 1.282 . S
C308 O309 1.306 . S
C308 O311 1.160 . S
O309 C308 1.306 . S
O309 Cd310 2.228 . S
Cd310 O309 2.228 . S
Cd310 O314 2.273 . S
Cd310 O318 2.277 . S
O311 C308 1.160 . S
O311 Cd312 2.203 . S
Cd312 O311 2.203 . S
Cd312 O314 2.411 . S
Cd312 O315 2.333 . S
Cd312 O316 2.352 . S
Cd312 O320 2.277 . S
Cd312 O321 2.356 . S
C313 O318 1.209 . S
C313 O320 1.226 . S
O314 Cd310 2.273 . S
O314 Cd312 2.411 . S
O314 C317 1.320 . S
O315 Cd312 2.333 . S
O315 C317 1.214 . S
O316 Cd312 2.352 . S
O316 C319 1.258 . S
C317 O314 1.320 . S
C317 O315 1.214 . S
O318 Cd310 2.277 . S
O318 C313 1.209 . S
C319 O316 1.258 . S
C319 O321 1.282 . S
O320 Cd312 2.277 . S
O320 C313 1.226 . S
O321 Cd312 2.356 . S
O321 C319 1.282 . S
C322 O323 1.306 . S
C322 O325 1.160 . S
O323 C322 1.306 . S
O323 Cd324 2.228 . S
Cd324 O323 2.228 . S
Cd324 O328 2.273 . S
Cd324 O332 2.277 . S
O325 C322 1.160 . S
O325 Cd326 2.203 . S
Cd326 O325 2.203 . S
Cd326 O328 2.411 . S
Cd326 O329 2.333 . S
Cd326 O330 2.352 . S
Cd326 O334 2.277 . S
Cd326 O335 2.356 . S
C327 O332 1.209 . S
C327 O334 1.226 . S
O328 Cd324 2.273 . S
O328 Cd326 2.411 . S
O328 C331 1.320 . S
O329 Cd326 2.333 . S
O329 C331 1.214 . S
O330 Cd326 2.352 . S
O330 C333 1.258 . S
C331 O328 1.320 . S
C331 O329 1.214 . S
O332 Cd324 2.277 . S
O332 C327 1.209 . S
C333 O330 1.258 . S
C333 O335 1.282 . S
O334 Cd326 2.277 . S
O334 C327 1.226 . S
O335 Cd326 2.356 . S
O335 C333 1.282 . S
Tb336 C338 2.809 1_455 S
Tb336 O356 2.484 1_455 S
Tb336 O357 2.440 1_454 S
Tb336 O358 2.658 . S
Tb336 O359 2.409 1_554 S
Tb336 O360 2.378 . S
Tb336 O364 2.325 . S
Tb336 O367 2.341 1_545 S
Tb337 C347 2.809 . S
Tb337 O358 2.325 . S
Tb337 O361 2.341 . S
Tb337 O362 2.514 . S
Tb337 O363 2.440 . S
Tb337 O364 2.658 . S
Tb337 O365 2.409 . S
Tb337 O366 2.378 1_545 S
C338 Tb336 2.809 1_655 S
C338 C339 1.514 . S
C338 O356 1.248 . S
C338 O357 1.266 1_554 S
C339 C338 1.514 . S
C339 C340 1.359 . S
C339 C344 1.348 1_554 S
C340 C339 1.359 . S
C340 C341 1.380 . S
C340 H368 0.929 . S
C341 C340 1.380 . S
C341 C342 1.342 1_554 S
C341 H369 0.931 . S
C342 C341 1.342 1_556 S
C342 C343 1.373 . S
C343 C342 1.373 . S
C343 C344 1.408 . S
C343 H370 0.930 . S
C344 C339 1.348 1_556 S
C344 C343 1.408 . S
C344 H371 0.930 . S
C345 O358 1.281 1_556 S
C345 O359 1.254 . S
C346 O360 1.236 . S
C346 O361 1.266 . S
C347 Tb337 2.809 . S
C347 C348 1.514 1_545 S
C347 O362 1.242 . S
C347 O363 1.266 . S
C348 C347 1.514 1_565 S
C348 C349 1.359 . S
C348 C353 1.348 . S
C349 C348 1.359 . S
C349 C350 1.380 . S
C349 H372 0.929 . S
C350 C349 1.380 . S
C350 C351 1.347 . S
C350 H373 0.931 . S
C351 C350 1.347 . S
C351 C352 1.369 . S
C352 C351 1.369 . S
C352 C353 1.408 . S
C352 H374 0.930 . S
C353 C348 1.348 . S
C353 C352 1.408 . S
C353 H375 0.930 . S
C354 O364 1.281 . S
C354 O365 1.254 . S
C355 O366 1.236 . S
C355 O367 1.266 . S
O356 Tb336 2.484 1_655 S
O356 C338 1.248 . S
O357 Tb336 2.440 1_656 S
O357 C338 1.266 1_556 S
O358 Tb336 2.658 . S
O358 Tb337 2.325 . S
O358 C345 1.281 1_554 S
O359 Tb336 2.409 1_556 S
O359 C345 1.254 . S
O360 Tb336 2.378 . S
O360 C346 1.236 . S
O361 Tb337 2.341 . S
O361 C346 1.266 . S
O362 Tb337 2.514 . S
O362 C347 1.242 . S
O363 Tb337 2.440 . S
O363 C347 1.266 . S
O364 Tb336 2.325 . S
O364 Tb337 2.658 . S
O364 C354 1.281 . S
O365 Tb337 2.409 . S
O365 C354 1.254 . S
O366 Tb337 2.378 1_565 S
O366 C355 1.236 . S
O367 Tb336 2.341 1_565 S
O367 C355 1.266 . S
H368 C340 0.929 . S
H369 C341 0.931 . S
H370 C343 0.930 . S
H371 C344 0.930 . S
H372 C349 0.929 . S
H373 C350 0.931 . S
H374 C352 0.930 . S
H375 C353 0.930 . S
Tb376 C378 2.809 . S
Tb376 O396 2.484 . S
Tb376 O397 2.440 . S
Tb376 O398 2.658 . S
Tb376 O399 2.409 . S
Tb376 O400 2.378 . S
Tb376 O404 2.325 . S
Tb376 O407 2.341 . S
Tb377 C387 2.809 . S
Tb377 O398 2.325 . S
Tb377 O401 2.341 . S
Tb377 O402 2.484 . S
Tb377 O403 2.440 . S
Tb377 O404 2.658 . S
Tb377 O405 2.409 . S
Tb377 O406 2.378 . S
C378 Tb376 2.809 . S
C378 C379 1.514 . S
C378 O396 1.248 . S
C378 O397 1.266 . S
C379 C378 1.514 . S
C379 C380 1.359 . S
C379 C384 1.348 . S
C380 C379 1.359 . S
C380 C381 1.380 . S
C380 H408 0.929 . S
C381 C380 1.380 . S
C381 C382 1.347 . S
C381 H409 0.931 . S
C382 C381 1.347 . S
C382 C383 1.369 . S
C383 C382 1.369 . S
C383 C384 1.408 . S
C383 H410 0.930 . S
C384 C379 1.348 . S
C384 C383 1.408 . S
C384 H411 0.930 . S
C385 O398 1.281 . S
C385 O399 1.254 . S
C386 O400 1.236 . S
C386 O401 1.266 . S
C387 Tb377 2.809 . S
C387 C388 1.514 . S
C387 O402 1.248 . S
C387 O403 1.266 . S
C388 C387 1.514 . S
C388 C389 1.359 . S
C388 C393 1.348 . S
C389 C388 1.359 . S
C389 C390 1.380 . S
C389 H412 0.929 . S
C390 C389 1.380 . S
C390 C391 1.347 . S
C390 H413 0.931 . S
C391 C390 1.347 . S
C391 C392 1.369 . S
C392 C391 1.369 . S
C392 C393 1.408 . S
C392 H414 0.930 . S
C393 C388 1.348 . S
C393 C392 1.408 . S
C393 H415 0.930 . S
C394 O404 1.281 . S
C394 O405 1.254 . S
C395 O406 1.236 . S
C395 O407 1.266 . S
O396 Tb376 2.484 . S
O396 C378 1.248 . S
O397 Tb376 2.440 . S
O397 C378 1.266 . S
O398 Tb376 2.658 . S
O398 Tb377 2.325 . S
O398 C385 1.281 . S
O399 Tb376 2.409 . S
O399 C385 1.254 . S
O400 Tb376 2.378 . S
O400 C386 1.236 . S
O401 Tb377 2.341 . S
O401 C386 1.266 . S
O402 Tb377 2.484 . S
O402 C387 1.248 . S
O403 Tb377 2.440 . S
O403 C387 1.266 . S
O404 Tb376 2.325 . S
O404 Tb377 2.658 . S
O404 C394 1.281 . S
O405 Tb377 2.409 . S
O405 C394 1.254 . S
O406 Tb377 2.378 . S
O406 C395 1.236 . S
O407 Tb376 2.341 . S
O407 C395 1.266 . S
H408 C380 0.929 . S
H409 C381 0.931 . S
H410 C383 0.930 . S
H411 C384 0.930 . S
H412 C389 0.929 . S
H413 C390 0.931 . S
H414 C392 0.930 . S
H415 C393 0.930 . S
Tb416 C418 2.809 1_545 S
Tb416 O436 2.484 1_545 S
Tb416 O437 2.440 . S
Tb416 O438 2.658 . S
Tb416 O439 2.409 . S
Tb416 O440 2.378 1_545 S
Tb416 O444 2.325 . S
Tb416 O447 2.341 . S
Tb417 C427 2.809 . S
Tb417 O438 2.325 . S
Tb417 O441 2.341 1_545 S
Tb417 O442 2.484 . S
Tb417 O443 2.440 . S
Tb417 O444 2.658 . S
Tb417 O445 2.409 . S
Tb417 O446 2.378 . S
C418 Tb416 2.809 1_565 S
C418 C419 1.514 . S
C418 O436 1.248 . S
C418 O437 1.266 1_565 S
C419 C418 1.514 . S
C419 C420 1.359 . S
C419 C424 1.348 . S
C420 C419 1.359 . S
C420 C421 1.380 . S
C420 H448 0.929 . S
C421 C420 1.380 . S
C421 C422 1.347 . S
C421 H449 0.931 . S
C422 C421 1.347 . S
C422 C423 1.369 . S
C423 C422 1.369 . S
C423 C424 1.408 . S
C423 H450 0.930 . S
C424 C419 1.348 . S
C424 C423 1.408 . S
C424 H451 0.930 . S
C425 O438 1.281 . S
C425 O439 1.254 . S
C426 O440 1.236 . S
C426 O441 1.266 . S
C427 Tb417 2.809 . S
C427 C428 1.514 . S
C427 O442 1.248 . S
C427 O443 1.266 . S
C428 C427 1.514 . S
C428 C429 1.359 . S
C428 C433 1.348 . S
C429 C428 1.359 . S
C429 C430 1.380 . S
C429 H452 0.929 . S
C430 C429 1.380 . S
C430 C431 1.347 . S
C430 H453 0.931 . S
C431 C430 1.347 . S
C431 C432 1.369 . S
C432 C431 1.369 . S
C432 C433 1.408 . S
C432 H454 0.930 . S
C433 C428 1.348 . S
C433 C432 1.408 . S
C433 H455 0.930 . S
C434 O444 1.281 . S
C434 O445 1.254 . S
C435 O446 1.236 . S
C435 O447 1.266 . S
O436 Tb416 2.484 1_565 S
O436 C418 1.248 . S
O437 Tb416 2.440 . S
O437 C418 1.266 1_545 S
O438 Tb416 2.658 . S
O438 Tb417 2.325 . S
O438 C425 1.281 . S
O439 Tb416 2.409 . S
O439 C425 1.254 . S
O440 Tb416 2.378 1_565 S
O440 C426 1.236 . S
O441 Tb417 2.341 1_565 S
O441 C426 1.266 . S
O442 Tb417 2.484 . S
O442 C427 1.248 . S
O443 Tb417 2.440 . S
O443 C427 1.266 . S
O444 Tb416 2.325 . S
O444 Tb417 2.658 . S
O444 C434 1.281 . S
O445 Tb417 2.409 . S
O445 C434 1.254 . S
O446 Tb417 2.378 . S
O446 C435 1.236 . S
O447 Tb416 2.341 . S
O447 C435 1.266 . S
H448 C420 0.929 . S
H449 C421 0.931 . S
H450 C423 0.930 . S
H451 C424 0.930 . S
H452 C429 0.929 . S
H453 C430 0.931 . S
H454 C432 0.930 . S
H455 C433 0.930 . S
Tb456 C458 2.809 . S
Tb456 O476 2.484 . S
Tb456 O477 2.440 . S
Tb456 O478 2.658 . S
Tb456 O479 2.409 . S
Tb456 O480 2.378 . S
Tb456 O484 2.325 . S
Tb456 O487 2.341 . S
Tb457 C467 2.809 . S
Tb457 O478 2.325 . S
Tb457 O481 2.341 . S
Tb457 O482 2.484 . S
Tb457 O483 2.440 . S
Tb457 O484 2.658 . S
Tb457 O485 2.409 . S
Tb457 O486 2.378 . S
C458 Tb456 2.809 . S
C458 C459 1.514 . S
C458 O476 1.248 . S
C458 O477 1.266 . S
C459 C458 1.514 . S
C459 C460 1.359 . S
C459 C464 1.348 . S
C460 C459 1.359 . S
C460 C461 1.380 . S
C460 H488 0.929 . S
C461 C460 1.380 . S
C461 C462 1.347 . S
C461 H489 0.931 . S
C462 C461 1.347 . S
C462 C463 1.369 . S
C463 C462 1.369 . S
C463 C464 1.408 . S
C463 H490 0.930 . S
C464 C459 1.348 . S
C464 C463 1.408 . S
C464 H491 0.930 . S
C465 O478 1.281 . S
C465 O479 1.254 . S
C466 O480 1.236 . S
C466 O481 1.266 . S
C467 Tb457 2.809 . S
C467 C468 1.514 . S
C467 O482 1.248 . S
C467 O483 1.266 . S
C468 C467 1.514 . S
C468 C469 1.359 . S
C468 C473 1.348 . S
C469 C468 1.359 . S
C469 C470 1.380 . S
C469 H492 0.929 . S
C470 C469 1.380 . S
C470 C471 1.347 . S
C470 H493 0.931 . S
C471 C470 1.347 . S
C471 C472 1.369 . S
C472 C471 1.369 . S
C472 C473 1.408 . S
C472 H494 0.930 . S
C473 C468 1.348 . S
C473 C472 1.408 . S
C473 H495 0.930 . S
C474 O484 1.281 . S
C474 O485 1.254 . S
C475 O486 1.236 . S
C475 O487 1.266 . S
O476 Tb456 2.484 . S
O476 C458 1.248 . S
O477 Tb456 2.440 . S
O477 C458 1.266 . S
O478 Tb456 2.658 . S
O478 Tb457 2.325 . S
O478 C465 1.281 . S
O479 Tb456 2.409 . S
O479 C465 1.254 . S
O480 Tb456 2.378 . S
O480 C466 1.236 . S
O481 Tb457 2.341 . S
O481 C466 1.266 . S
O482 Tb457 2.484 . S
O482 C467 1.248 . S
O483 Tb457 2.440 . S
O483 C467 1.266 . S
O484 Tb456 2.325 . S
O484 Tb457 2.658 . S
O484 C474 1.281 . S
O485 Tb457 2.409 . S
O485 C474 1.254 . S
O486 Tb457 2.378 . S
O486 C475 1.236 . S
O487 Tb456 2.341 . S
O487 C475 1.266 . S
H488 C460 0.929 . S
H489 C461 0.931 . S
H490 C463 0.930 . S
H491 C464 0.930 . S
H492 C469 0.929 . S
H493 C470 0.931 . S
H494 C472 0.930 . S
H495 C473 0.930 . S
Tb496 C498 2.809 . S
Tb496 O516 2.484 . S
Tb496 O517 2.440 . S
Tb496 O518 2.658 . S
Tb496 O519 2.409 1_455 S
Tb496 O520 2.378 . S
Tb496 O524 2.325 . S
Tb496 O527 2.341 . S
Tb497 C507 2.809 . S
Tb497 O518 2.325 1_565 S
Tb497 O521 2.370 . S
Tb497 O522 2.484 . S
Tb497 O523 2.440 . S
Tb497 O524 2.658 1_565 S
Tb497 O525 2.409 1_565 S
Tb497 O526 2.378 1_565 S
C498 Tb496 2.809 . S
C498 C499 1.514 . S
C498 O516 1.248 . S
C498 O517 1.266 . S
C499 C498 1.514 . S
C499 C500 1.359 . S
C499 C504 1.348 1_455 S
C500 C499 1.359 . S
C500 C501 1.380 . S
C500 H528 0.929 . S
C501 C500 1.380 . S
C501 C502 1.347 . S
C501 H529 0.931 . S
C502 C501 1.347 . S
C502 C503 1.369 1_455 S
C503 C502 1.369 1_655 S
C503 C504 1.408 . S
C503 H530 0.930 . S
C504 C499 1.348 1_655 S
C504 C503 1.408 . S
C504 H531 0.930 . S
C505 O518 1.287 1_655 S
C505 O519 1.251 . S
C506 O520 1.236 . S
C506 O521 1.215 1_545 S
C507 Tb497 2.809 . S
C507 C508 1.514 . S
C507 O522 1.248 . S
C507 O523 1.266 . S
C508 C507 1.514 . S
C508 C509 1.359 . S
C508 C513 1.348 . S
C509 C508 1.359 . S
C509 C510 1.380 . S
C509 H532 0.929 . S
C510 C509 1.380 . S
C510 C511 1.347 . S
C510 H533 0.931 . S
C511 C510 1.347 . S
C511 C512 1.369 . S
C512 C511 1.369 . S
C512 C513 1.408 . S
C512 H534 0.930 . S
C513 C508 1.348 . S
C513 C512 1.408 . S
C513 H535 0.930 . S
C514 O524 1.281 . S
C514 O525 1.254 . S
C515 O526 1.236 . S
C515 O527 1.266 . S
O516 Tb496 2.484 . S
O516 C498 1.248 . S
O517 Tb496 2.440 . S
O517 C498 1.266 . S
O518 Tb496 2.658 . S
O518 Tb497 2.325 1_545 S
O518 C505 1.287 1_455 S
O519 Tb496 2.409 1_655 S
O519 C505 1.251 . S
O520 Tb496 2.378 . S
O520 C506 1.236 . S
O521 Tb497 2.370 . S
O521 C506 1.215 1_565 S
O522 Tb497 2.484 . S
O522 C507 1.248 . S
O523 Tb497 2.440 . S
O523 C507 1.266 . S
O524 Tb496 2.325 . S
O524 Tb497 2.658 1_545 S
O524 C514 1.281 . S
O525 Tb497 2.409 1_545 S
O525 C514 1.254 . S
O526 Tb497 2.378 1_545 S
O526 C515 1.236 . S
O527 Tb496 2.341 . S
O527 C515 1.266 . S
H528 C500 0.929 . S
H529 C501 0.931 . S
H530 C503 0.930 . S
H531 C504 0.930 . S
H532 C509 0.929 . S
H533 C510 0.931 . S
H534 C512 0.930 . S
H535 C513 0.930 . S
Tb536 C538 2.809 . S
Tb536 O556 2.484 . S
Tb536 O557 2.440 . S
Tb536 O558 2.658 . S
Tb536 O559 2.409 . S
Tb536 O560 2.378 . S
Tb536 O564 2.325 . S
Tb536 O567 2.341 . S
Tb537 C547 2.809 . S
Tb537 O558 2.325 . S
Tb537 O561 2.341 . S
Tb537 O562 2.484 . S
Tb537 O563 2.440 . S
Tb537 O564 2.658 . S
Tb537 O565 2.409 . S
Tb537 O566 2.378 . S
C538 Tb536 2.809 . S
C538 C539 1.514 . S
C538 O556 1.248 . S
C538 O557 1.266 . S
C539 C538 1.514 . S
C539 C540 1.359 . S
C539 C544 1.348 . S
C540 C539 1.359 . S
C540 C541 1.380 . S
C540 H568 0.929 . S
C541 C540 1.380 . S
C541 C542 1.347 . S
C541 H569 0.931 . S
C542 C541 1.347 . S
C542 C543 1.369 . S
C543 C542 1.369 . S
C543 C544 1.408 . S
C543 H570 0.930 . S
C544 C539 1.348 . S
C544 C543 1.408 . S
C544 H571 0.930 . S
C545 O558 1.281 . S
C545 O559 1.254 . S
C546 O560 1.236 . S
C546 O561 1.266 . S
C547 Tb537 2.809 . S
C547 C548 1.514 . S
C547 O562 1.248 . S
C547 O563 1.266 . S
C548 C547 1.514 . S
C548 C549 1.359 . S
C548 C553 1.348 . S
C549 C548 1.359 . S
C549 C550 1.380 . S
C549 H572 0.929 . S
C550 C549 1.380 . S
C550 C551 1.347 . S
C550 H573 0.931 . S
C551 C550 1.347 . S
C551 C552 1.369 . S
C552 C551 1.369 . S
C552 C553 1.408 . S
C552 H574 0.930 . S
C553 C548 1.348 . S
C553 C552 1.408 . S
C553 H575 0.930 . S
C554 O564 1.281 . S
C554 O565 1.254 . S
C555 O566 1.236 . S
C555 O567 1.266 . S
O556 Tb536 2.484 . S
O556 C538 1.248 . S
O557 Tb536 2.440 . S
O557 C538 1.266 . S
O558 Tb536 2.658 . S
O558 Tb537 2.325 . S
O558 C545 1.281 . S
O559 Tb536 2.409 . S
O559 C545 1.254 . S
O560 Tb536 2.378 . S
O560 C546 1.236 . S
O561 Tb537 2.341 . S
O561 C546 1.266 . S
O562 Tb537 2.484 . S
O562 C547 1.248 . S
O563 Tb537 2.440 . S
O563 C547 1.266 . S
O564 Tb536 2.325 . S
O564 Tb537 2.658 . S
O564 C554 1.281 . S
O565 Tb537 2.409 . S
O565 C554 1.254 . S
O566 Tb537 2.378 . S
O566 C555 1.236 . S
O567 Tb536 2.341 . S
O567 C555 1.266 . S
H568 C540 0.929 . S
H569 C541 0.931 . S
H570 C543 0.930 . S
H571 C544 0.930 . S
H572 C549 0.929 . S
H573 C550 0.931 . S
H574 C552 0.930 . S
H575 C553 0.930 . S
Tb576 C578 2.817 . S
Tb576 O596 2.484 1_545 S
Tb576 O597 2.440 . S
Tb576 O598 2.658 . S
Tb576 O599 2.409 . S
Tb576 O600 2.378 . S
Tb576 O604 2.325 1_545 S
Tb576 O607 2.341 1_554 S
Tb577 C587 2.809 . S
Tb577 O598 2.325 . S
Tb577 O601 2.341 . S
Tb577 O602 2.484 . S
Tb577 O603 2.440 . S
Tb577 O604 2.658 1_545 S
Tb577 O605 2.409 1_545 S
Tb577 O606 2.378 . S
C578 Tb576 2.817 . S
C578 C579 1.507 1_545 S
C578 O596 1.221 1_545 S
C578 O597 1.301 . S
C579 C578 1.507 1_565 S
C579 C580 1.359 . S
C579 C584 1.348 1_565 S
C580 C579 1.359 . S
C580 C581 1.380 . S
C580 H608 0.929 . S
C581 C580 1.380 . S
C581 C582 1.347 . S
C581 H609 0.931 . S
C582 C581 1.347 . S
C582 C583 1.369 . S
C583 C582 1.369 . S
C583 C584 1.408 1_565 S
C583 H610 0.930 1_565 S
C584 C579 1.348 1_545 S
C584 C583 1.408 1_545 S
C584 H611 0.930 . S
C585 O598 1.281 . S
C585 O599 1.254 . S
C586 O600 1.236 . S
C586 O601 1.266 . S
C587 Tb577 2.809 . S
C587 C588 1.514 . S
C587 O602 1.248 . S
C587 O603 1.266 . S
C588 C587 1.514 . S
C588 C589 1.359 . S
C588 C593 1.348 . S
C589 C588 1.359 . S
C589 C590 1.380 . S
C589 H612 0.929 . S
C590 C589 1.380 . S
C590 C591 1.347 . S
C590 H613 0.931 . S
C591 C590 1.347 . S
C591 C592 1.369 . S
C592 C591 1.369 . S
C592 C593 1.408 . S
C592 H614 0.930 . S
C593 C588 1.348 . S
C593 C592 1.408 . S
C593 H615 0.930 . S
C594 O604 1.281 . S
C594 O605 1.254 . S
C595 O606 1.236 1_556 S
C595 O607 1.266 . S
O596 Tb576 2.484 1_565 S
O596 C578 1.221 1_565 S
O597 Tb576 2.440 . S
O597 C578 1.301 . S
O598 Tb576 2.658 . S
O598 Tb577 2.325 . S
O598 C585 1.281 . S
O599 Tb576 2.409 . S
O599 C585 1.254 . S
O600 Tb576 2.378 . S
O600 C586 1.236 . S
O601 Tb577 2.341 . S
O601 C586 1.266 . S
O602 Tb577 2.484 . S
O602 C587 1.248 . S
O603 Tb577 2.440 . S
O603 C587 1.266 . S
O604 Tb576 2.325 1_565 S
O604 Tb577 2.658 1_565 S
O604 C594 1.281 . S
O605 Tb577 2.409 1_565 S
O605 C594 1.254 . S
O606 Tb577 2.378 . S
O606 C595 1.236 1_554 S
O607 Tb576 2.341 1_556 S
O607 C595 1.266 . S
H608 C580 0.929 . S
H609 C581 0.931 . S
H610 C583 0.930 1_545 S
H611 C584 0.930 . S
H612 C589 0.929 . S
H613 C590 0.931 . S
H614 C592 0.930 . S
H615 C593 0.930 . S
Tb616 C618 2.809 . S
Tb616 O636 2.484 . S
Tb616 O637 2.440 . S
Tb616 O638 2.658 . S
Tb616 O639 2.409 . S
Tb616 O640 2.378 . S
Tb616 O644 2.325 . S
Tb616 O647 2.341 . S
Tb617 C627 2.809 . S
Tb617 O638 2.325 . S
Tb617 O641 2.341 . S
Tb617 O642 2.484 . S
Tb617 O643 2.440 . S
Tb617 O644 2.658 . S
Tb617 O645 2.409 . S
Tb617 O646 2.378 . S
C618 Tb616 2.809 . S
C618 C619 1.514 . S
C618 O636 1.248 . S
C618 O637 1.266 . S
C619 C618 1.514 . S
C619 C620 1.359 . S
C619 C624 1.348 . S
C620 C619 1.359 . S
C620 C621 1.380 . S
C620 H648 0.929 . S
C621 C620 1.380 . S
C621 C622 1.347 . S
C621 H649 0.931 . S
C622 C621 1.347 . S
C622 C623 1.369 . S
C623 C622 1.369 . S
C623 C624 1.408 . S
C623 H650 0.930 . S
C624 C619 1.348 . S
C624 C623 1.408 . S
C624 H651 0.930 . S
C625 O638 1.281 . S
C625 O639 1.254 . S
C626 O640 1.236 . S
C626 O641 1.266 . S
C627 Tb617 2.809 . S
C627 C628 1.514 . S
C627 O642 1.248 . S
C627 O643 1.266 . S
C628 C627 1.514 . S
C628 C629 1.359 . S
C628 C633 1.348 . S
C629 C628 1.359 . S
C629 C630 1.380 . S
C629 H652 0.929 . S
C630 C629 1.380 . S
C630 C631 1.347 . S
C630 H653 0.931 . S
C631 C630 1.347 . S
C631 C632 1.369 . S
C632 C631 1.369 . S
C632 C633 1.408 . S
C632 H654 0.930 . S
C633 C628 1.348 . S
C633 C632 1.408 . S
C633 H655 0.930 . S
C634 O644 1.281 . S
C634 O645 1.254 . S
C635 O646 1.236 . S
C635 O647 1.266 . S
O636 Tb616 2.484 . S
O636 C618 1.248 . S
O637 Tb616 2.440 . S
O637 C618 1.266 . S
O638 Tb616 2.658 . S
O638 Tb617 2.325 . S
O638 C625 1.281 . S
O639 Tb616 2.409 . S
O639 C625 1.254 . S
O640 Tb616 2.378 . S
O640 C626 1.236 . S
O641 Tb617 2.341 . S
O641 C626 1.266 . S
O642 Tb617 2.484 . S
O642 C627 1.248 . S
O643 Tb617 2.440 . S
O643 C627 1.266 . S
O644 Tb616 2.325 . S
O644 Tb617 2.658 . S
O644 C634 1.281 . S
O645 Tb617 2.409 . S
O645 C634 1.254 . S
O646 Tb617 2.378 . S
O646 C635 1.236 . S
O647 Tb616 2.341 . S
O647 C635 1.266 . S
H648 C620 0.929 . S
H649 C621 0.931 . S
H650 C623 0.930 . S
H651 C624 0.930 . S
H652 C629 0.929 . S
H653 C630 0.931 . S
H654 C632 0.930 . S
H655 C633 0.930 . S
Tb656 C658 2.809 . S
Tb656 O676 2.484 . S
Tb656 O677 2.440 . S
Tb656 O678 2.658 . S
Tb656 O679 2.409 . S
Tb656 O680 2.378 1_554 S
Tb656 O684 2.325 . S
Tb656 O687 2.341 . S
Tb657 C667 2.809 . S
Tb657 O678 2.325 . S
Tb657 O681 2.341 1_554 S
Tb657 O682 2.484 . S
Tb657 O683 2.440 . S
Tb657 O684 2.658 . S
Tb657 O685 2.409 . S
Tb657 O686 2.378 . S
C658 Tb656 2.809 . S
C658 C659 1.514 1_554 S
C658 O676 1.248 . S
C658 O677 1.266 . S
C659 C658 1.514 1_556 S
C659 C660 1.359 . S
C659 C664 1.348 . S
C660 C659 1.359 . S
C660 C661 1.380 . S
C660 H688 0.929 . S
C661 C660 1.380 . S
C661 C662 1.347 . S
C661 H689 0.931 . S
C662 C661 1.347 . S
C662 C663 1.369 . S
C663 C662 1.369 . S
C663 C664 1.408 . S
C663 H690 0.930 . S
C664 C659 1.348 . S
C664 C663 1.408 . S
C664 H691 0.930 . S
C665 O678 1.281 . S
C665 O679 1.254 . S
C666 O680 1.236 . S
C666 O681 1.266 . S
C667 Tb657 2.809 . S
C667 C668 1.514 . S
C667 O682 1.248 . S
C667 O683 1.266 . S
C668 C667 1.514 . S
C668 C669 1.359 . S
C668 C673 1.348 . S
C669 C668 1.359 . S
C669 C670 1.380 . S
C669 H692 0.929 . S
C670 C669 1.380 . S
C670 C671 1.347 . S
C670 H693 0.931 . S
C671 C670 1.347 . S
C671 C672 1.369 . S
C672 C671 1.369 . S
C672 C673 1.408 . S
C672 H694 0.930 . S
C673 C668 1.348 . S
C673 C672 1.408 . S
C673 H695 0.930 . S
C674 O684 1.281 . S
C674 O685 1.254 . S
C675 O686 1.236 . S
C675 O687 1.266 . S
O676 Tb656 2.484 . S
O676 C658 1.248 . S
O677 Tb656 2.440 . S
O677 C658 1.266 . S
O678 Tb656 2.658 . S
O678 Tb657 2.325 . S
O678 C665 1.281 . S
O679 Tb656 2.409 . S
O679 C665 1.254 . S
O680 Tb656 2.378 1_556 S
O680 C666 1.236 . S
O681 Tb657 2.341 1_556 S
O681 C666 1.266 . S
O682 Tb657 2.484 . S
O682 C667 1.248 . S
O683 Tb657 2.440 . S
O683 C667 1.266 . S
O684 Tb656 2.325 . S
O684 Tb657 2.658 . S
O684 C674 1.281 . S
O685 Tb657 2.409 . S
O685 C674 1.254 . S
O686 Tb657 2.378 . S
O686 C675 1.236 . S
O687 Tb656 2.341 . S
O687 C675 1.266 . S
H688 C660 0.929 . S
H689 C661 0.931 . S
H690 C663 0.930 . S
H691 C664 0.930 . S
H692 C669 0.929 . S
H693 C670 0.931 . S
H694 C672 0.930 . S
H695 C673 0.930 . S
Tb696 C698 2.809 . S
Tb696 O716 2.484 . S
Tb696 O717 2.440 . S
Tb696 O718 2.658 . S
Tb696 O719 2.409 . S
Tb696 O720 2.378 . S
Tb696 O724 2.325 . S
Tb696 O727 2.341 . S
Tb697 C707 2.809 . S
Tb697 O718 2.325 . S
Tb697 O721 2.341 . S
Tb697 O722 2.484 . S
Tb697 O723 2.440 . S
Tb697 O724 2.658 . S
Tb697 O725 2.409 . S
Tb697 O726 2.378 . S
C698 Tb696 2.809 . S
C698 C699 1.514 . S
C698 O716 1.248 . S
C698 O717 1.266 . S
C699 C698 1.514 . S
C699 C700 1.359 . S
C699 C704 1.348 . S
C700 C699 1.359 . S
C700 C701 1.380 . S
C700 H728 0.929 . S
C701 C700 1.380 . S
C701 C702 1.347 . S
C701 H729 0.931 . S
C702 C701 1.347 . S
C702 C703 1.369 . S
C703 C702 1.369 . S
C703 C704 1.408 . S
C703 H730 0.930 . S
C704 C699 1.348 . S
C704 C703 1.408 . S
C704 H731 0.930 . S
C705 O718 1.281 . S
C705 O719 1.254 . S
C706 O720 1.236 . S
C706 O721 1.266 . S
C707 Tb697 2.809 . S
C707 C708 1.514 . S
C707 O722 1.248 . S
C707 O723 1.266 . S
C708 C707 1.514 . S
C708 C709 1.359 . S
C708 C713 1.348 . S
C709 C708 1.359 . S
C709 C710 1.380 . S
C709 H732 0.929 . S
C710 C709 1.380 . S
C710 C711 1.347 . S
C710 H733 0.931 . S
C711 C710 1.347 . S
C711 C712 1.369 . S
C712 C711 1.369 . S
C712 C713 1.408 . S
C712 H734 0.930 . S
C713 C708 1.348 . S
C713 C712 1.408 . S
C713 H735 0.930 . S
C714 O724 1.281 . S
C714 O725 1.254 . S
C715 O726 1.236 . S
C715 O727 1.266 . S
O716 Tb696 2.484 . S
O716 C698 1.248 . S
O717 Tb696 2.440 . S
O717 C698 1.266 . S
O718 Tb696 2.658 . S
O718 Tb697 2.325 . S
O718 C705 1.281 . S
O719 Tb696 2.409 . S
O719 C705 1.254 . S
O720 Tb696 2.378 . S
O720 C706 1.236 . S
O721 Tb697 2.341 . S
O721 C706 1.266 . S
O722 Tb697 2.484 . S
O722 C707 1.248 . S
O723 Tb697 2.440 . S
O723 C707 1.266 . S
O724 Tb696 2.325 . S
O724 Tb697 2.658 . S
O724 C714 1.281 . S
O725 Tb697 2.409 . S
O725 C714 1.254 . S
O726 Tb697 2.378 . S
O726 C715 1.236 . S
O727 Tb696 2.341 . S
O727 C715 1.266 . S
H728 C700 0.929 . S
H729 C701 0.931 . S
H730 C703 0.930 . S
H731 C704 0.930 . S
H732 C709 0.929 . S
H733 C710 0.931 . S
H734 C712 0.930 . S
H735 C713 0.930 . S
Tb736 C738 2.809 1_455 S
Tb736 O756 2.484 1_455 S
Tb736 O757 2.440 1_455 S
Tb736 O758 2.658 . S
Tb736 O759 2.409 . S
Tb736 O760 2.378 . S
Tb736 O764 2.325 . S
Tb736 O767 2.341 . S
Tb737 C747 2.809 . S
Tb737 O758 2.325 . S
Tb737 O761 2.341 . S
Tb737 O762 2.484 . S
Tb737 O763 2.440 . S
Tb737 O764 2.658 . S
Tb737 O765 2.409 . S
Tb737 O766 2.378 . S
C738 Tb736 2.809 1_655 S
C738 C739 1.514 . S
C738 O756 1.248 . S
C738 O757 1.266 . S
C739 C738 1.514 . S
C739 C740 1.359 . S
C739 C744 1.348 . S
C740 C739 1.359 . S
C740 C741 1.380 . S
C740 H768 0.929 . S
C741 C740 1.380 . S
C741 C742 1.347 . S
C741 H769 0.931 . S
C742 C741 1.347 . S
C742 C743 1.369 . S
C743 C742 1.369 . S
C743 C744 1.408 . S
C743 H770 0.930 . S
C744 C739 1.348 . S
C744 C743 1.408 . S
C744 H771 0.930 . S
C745 O758 1.281 . S
C745 O759 1.254 . S
C746 O760 1.236 . S
C746 O761 1.266 . S
C747 Tb737 2.809 . S
C747 C748 1.514 . S
C747 O762 1.248 . S
C747 O763 1.266 . S
C748 C747 1.514 . S
C748 C749 1.359 . S
C748 C753 1.348 . S
C749 C748 1.359 . S
C749 C750 1.380 . S
C749 H772 0.929 . S
C750 C749 1.380 . S
C750 C751 1.347 . S
C750 H773 0.931 . S
C751 C750 1.347 . S
C751 C752 1.369 . S
C752 C751 1.369 . S
C752 C753 1.408 . S
C752 H774 0.930 . S
C753 C748 1.348 . S
C753 C752 1.408 . S
C753 H775 0.930 . S
C754 O764 1.281 . S
C754 O765 1.254 . S
C755 O766 1.236 . S
C755 O767 1.266 . S
O756 Tb736 2.484 1_655 S
O756 C738 1.248 . S
O757 Tb736 2.440 1_655 S
O757 C738 1.266 . S
O758 Tb736 2.658 . S
O758 Tb737 2.325 . S
O758 C745 1.281 . S
O759 Tb736 2.409 . S
O759 C745 1.254 . S
O760 Tb736 2.378 . S
O760 C746 1.236 . S
O761 Tb737 2.341 . S
O761 C746 1.266 . S
O762 Tb737 2.484 . S
O762 C747 1.248 . S
O763 Tb737 2.440 . S
O763 C747 1.266 . S
O764 Tb736 2.325 . S
O764 Tb737 2.658 . S
O764 C754 1.281 . S
O765 Tb737 2.409 . S
O765 C754 1.254 . S
O766 Tb737 2.378 . S
O766 C755 1.236 . S
O767 Tb736 2.341 . S
O767 C755 1.266 . S
H768 C740 0.929 . S
H769 C741 0.931 . S
H770 C743 0.930 . S
H771 C744 0.930 . S
H772 C749 0.929 . S
H773 C750 0.931 . S
H774 C752 0.930 . S
H775 C753 0.930 . S
Tb776 C778 2.809 . S
Tb776 O796 2.484 . S
Tb776 O797 2.440 . S
Tb776 O798 2.658 . S
Tb776 O799 2.409 . S
Tb776 O800 2.378 . S
Tb776 O804 2.325 . S
Tb776 O807 2.341 . S
Tb777 C787 2.809 . S
Tb777 O798 2.325 . S
Tb777 O801 2.341 . S
Tb777 O802 2.484 . S
Tb777 O803 2.440 . S
Tb777 O804 2.658 . S
Tb777 O805 2.409 . S
Tb777 O806 2.378 . S
C778 Tb776 2.809 . S
C778 C779 1.514 . S
C778 O796 1.248 . S
C778 O797 1.266 . S
C779 C778 1.514 . S
C779 C780 1.359 . S
C779 C784 1.348 . S
C780 C779 1.359 . S
C780 C781 1.380 . S
C780 H808 0.929 . S
C781 C780 1.380 . S
C781 C782 1.347 . S
C781 H809 0.931 . S
C782 C781 1.347 . S
C782 C783 1.369 . S
C783 C782 1.369 . S
C783 C784 1.408 . S
C783 H810 0.930 . S
C784 C779 1.348 . S
C784 C783 1.408 . S
C784 H811 0.930 . S
C785 O798 1.281 . S
C785 O799 1.254 . S
C786 O800 1.236 . S
C786 O801 1.266 . S
C787 Tb777 2.809 . S
C787 C788 1.514 . S
C787 O802 1.248 . S
C787 O803 1.266 . S
C788 C787 1.514 . S
C788 C789 1.359 . S
C788 C793 1.348 . S
C789 C788 1.359 . S
C789 C790 1.380 . S
C789 H812 0.929 . S
C790 C789 1.380 . S
C790 C791 1.347 . S
C790 H813 0.931 . S
C791 C790 1.347 . S
C791 C792 1.369 . S
C792 C791 1.369 . S
C792 C793 1.408 . S
C792 H814 0.930 . S
C793 C788 1.348 . S
C793 C792 1.408 . S
C793 H815 0.930 . S
C794 O804 1.281 . S
C794 O805 1.254 . S
C795 O806 1.236 . S
C795 O807 1.266 . S
O796 Tb776 2.484 . S
O796 C778 1.248 . S
O797 Tb776 2.440 . S
O797 C778 1.266 . S
O798 Tb776 2.658 . S
O798 Tb777 2.325 . S
O798 C785 1.281 . S
O799 Tb776 2.409 . S
O799 C785 1.254 . S
O800 Tb776 2.378 . S
O800 C786 1.236 . S
O801 Tb777 2.341 . S
O801 C786 1.266 . S
O802 Tb777 2.484 . S
O802 C787 1.248 . S
O803 Tb777 2.440 . S
O803 C787 1.266 . S
O804 Tb776 2.325 . S
O804 Tb777 2.658 . S
O804 C794 1.281 . S
O805 Tb777 2.409 . S
O805 C794 1.254 . S
O806 Tb777 2.378 . S
O806 C795 1.236 . S
O807 Tb776 2.341 . S
O807 C795 1.266 . S
H808 C780 0.929 . S
H809 C781 0.931 . S
H810 C783 0.930 . S
H811 C784 0.930 . S
H812 C789 0.929 . S
H813 C790 0.931 . S
H814 C792 0.930 . S
H815 C793 0.930 . S
Tb816 C818 2.809 . S
Tb816 O836 2.484 . S
Tb816 O837 2.440 . S
Tb816 O838 2.658 . S
Tb816 O839 2.409 . S
Tb816 O840 2.378 . S
Tb816 O844 2.325 . S
Tb816 O847 2.341 . S
Tb817 C827 2.809 . S
Tb817 O838 2.325 . S
Tb817 O841 2.341 . S
Tb817 O842 2.484 . S
Tb817 O843 2.440 . S
Tb817 O844 2.658 . S
Tb817 O845 2.409 . S
Tb817 O846 2.378 . S
C818 Tb816 2.809 . S
C818 C819 1.514 . S
C818 O836 1.248 . S
C818 O837 1.266 . S
C819 C818 1.514 . S
C819 C820 1.359 . S
C819 C824 1.348 . S
C820 C819 1.359 . S
C820 C821 1.380 . S
C820 H848 0.929 . S
C821 C820 1.380 . S
C821 C822 1.347 . S
C821 H849 0.931 . S
C822 C821 1.347 . S
C822 C823 1.369 . S
C823 C822 1.369 . S
C823 C824 1.408 . S
C823 H850 0.930 . S
C824 C819 1.348 . S
C824 C823 1.408 . S
C824 H851 0.930 . S
C825 O838 1.281 . S
C825 O839 1.254 . S
C826 O840 1.236 . S
C826 O841 1.266 . S
C827 Tb817 2.809 . S
C827 C828 1.514 . S
C827 O842 1.248 . S
C827 O843 1.266 . S
C828 C827 1.514 . S
C828 C829 1.359 . S
C828 C833 1.348 . S
C829 C828 1.359 . S
C829 C830 1.380 . S
C829 H852 0.929 . S
C830 C829 1.380 . S
C830 C831 1.347 . S
C830 H853 0.931 . S
C831 C830 1.347 . S
C831 C832 1.369 . S
C832 C831 1.369 . S
C832 C833 1.408 . S
C832 H854 0.930 . S
C833 C828 1.348 . S
C833 C832 1.408 . S
C833 H855 0.930 . S
C834 O844 1.281 . S
C834 O845 1.254 . S
C835 O846 1.236 . S
C835 O847 1.266 . S
O836 Tb816 2.484 . S
O836 C818 1.248 . S
O837 Tb816 2.440 . S
O837 C818 1.266 . S
O838 Tb816 2.658 . S
O838 Tb817 2.325 . S
O838 C825 1.281 . S
O839 Tb816 2.409 . S
O839 C825 1.254 . S
O840 Tb816 2.378 . S
O840 C826 1.236 . S
O841 Tb817 2.341 . S
O841 C826 1.266 . S
O842 Tb817 2.484 . S
O842 C827 1.248 . S
O843 Tb817 2.440 . S
O843 C827 1.266 . S
O844 Tb816 2.325 . S
O844 Tb817 2.658 . S
O844 C834 1.281 . S
O845 Tb817 2.409 . S
O845 C834 1.254 . S
O846 Tb817 2.378 . S
O846 C835 1.236 . S
O847 Tb816 2.341 . S
O847 C835 1.266 . S
H848 C820 0.929 . S
H849 C821 0.931 . S
H850 C823 0.930 . S
H851 C824 0.930 . S
H852 C829 0.929 . S
H853 C830 0.931 . S
H854 C832 0.930 . S
H855 C833 0.930 . S
Tb856 C858 2.809 . S
Tb856 O876 2.484 . S
Tb856 O877 2.440 . S
Tb856 O878 2.658 . S
Tb856 O879 2.409 . S
Tb856 O880 2.378 . S
Tb856 O884 2.325 . S
Tb856 O887 2.341 . S
Tb857 C867 2.809 . S
Tb857 O878 2.325 . S
Tb857 O881 2.341 . S
Tb857 O882 2.484 . S
Tb857 O883 2.440 . S
Tb857 O884 2.658 . S
Tb857 O885 2.409 . S
Tb857 O886 2.378 . S
C858 Tb856 2.809 . S
C858 C859 1.514 . S
C858 O876 1.248 . S
C858 O877 1.266 . S
C859 C858 1.514 . S
C859 C860 1.359 . S
C859 C864 1.348 . S
C860 C859 1.359 . S
C860 C861 1.380 . S
C860 H888 0.929 . S
C861 C860 1.380 . S
C861 C862 1.347 . S
C861 H889 0.931 . S
C862 C861 1.347 . S
C862 C863 1.369 . S
C863 C862 1.369 . S
C863 C864 1.408 . S
C863 H890 0.930 . S
C864 C859 1.348 . S
C864 C863 1.408 . S
C864 H891 0.930 . S
C865 O878 1.281 . S
C865 O879 1.254 . S
C866 O880 1.236 . S
C866 O881 1.266 . S
C867 Tb857 2.809 . S
C867 C868 1.514 . S
C867 O882 1.248 . S
C867 O883 1.266 . S
C868 C867 1.514 . S
C868 C869 1.359 . S
C868 C873 1.348 . S
C869 C868 1.359 . S
C869 C870 1.380 . S
C869 H892 0.929 . S
C870 C869 1.380 . S
C870 C871 1.347 . S
C870 H893 0.931 . S
C871 C870 1.347 . S
C871 C872 1.369 . S
C872 C871 1.369 . S
C872 C873 1.408 . S
C872 H894 0.930 . S
C873 C868 1.348 . S
C873 C872 1.408 . S
C873 H895 0.930 . S
C874 O884 1.281 . S
C874 O885 1.254 . S
C875 O886 1.236 . S
C875 O887 1.266 . S
O876 Tb856 2.484 . S
O876 C858 1.248 . S
O877 Tb856 2.440 . S
O877 C858 1.266 . S
O878 Tb856 2.658 . S
O878 Tb857 2.325 . S
O878 C865 1.281 . S
O879 Tb856 2.409 . S
O879 C865 1.254 . S
O880 Tb856 2.378 . S
O880 C866 1.236 . S
O881 Tb857 2.341 . S
O881 C866 1.266 . S
O882 Tb857 2.484 . S
O882 C867 1.248 . S
O883 Tb857 2.440 . S
O883 C867 1.266 . S
O884 Tb856 2.325 . S
O884 Tb857 2.658 . S
O884 C874 1.281 . S
O885 Tb857 2.409 . S
O885 C874 1.254 . S
O886 Tb857 2.378 . S
O886 C875 1.236 . S
O887 Tb856 2.341 . S
O887 C875 1.266 . S
H888 C860 0.929 . S
H889 C861 0.931 . S
H890 C863 0.930 . S
H891 C864 0.930 . S
H892 C869 0.929 . S
H893 C870 0.931 . S
H894 C872 0.930 . S
H895 C873 0.930 . S
Tb896 C898 2.809 . S
Tb896 O916 2.484 . S
Tb896 O917 2.440 . S
Tb896 O918 2.658 . S
Tb896 O919 2.409 . S
Tb896 O920 2.378 . S
Tb896 O924 2.325 . S
Tb896 O927 2.341 . S
Tb897 C907 2.809 . S
Tb897 O918 2.325 . S
Tb897 O921 2.341 . S
Tb897 O922 2.484 . S
Tb897 O923 2.440 . S
Tb897 O924 2.658 . S
Tb897 O925 2.409 . S
Tb897 O926 2.378 . S
C898 Tb896 2.809 . S
C898 C899 1.514 . S
C898 O916 1.248 . S
C898 O917 1.266 . S
C899 C898 1.514 . S
C899 C900 1.359 . S
C899 C904 1.348 . S
C900 C899 1.359 . S
C900 C901 1.380 . S
C900 H928 0.929 . S
C901 C900 1.380 . S
C901 C902 1.347 . S
C901 H929 0.931 . S
C902 C901 1.347 . S
C902 C903 1.369 . S
C903 C902 1.369 . S
C903 C904 1.408 . S
C903 H930 0.930 . S
C904 C899 1.348 . S
C904 C903 1.408 . S
C904 H931 0.930 . S
C905 O918 1.281 . S
C905 O919 1.254 . S
C906 O920 1.236 . S
C906 O921 1.266 . S
C907 Tb897 2.809 . S
C907 C908 1.514 . S
C907 O922 1.248 . S
C907 O923 1.266 . S
C908 C907 1.514 . S
C908 C909 1.359 . S
C908 C913 1.348 . S
C909 C908 1.359 . S
C909 C910 1.380 . S
C909 H932 0.929 . S
C910 C909 1.380 . S
C910 C911 1.347 . S
C910 H933 0.931 . S
C911 C910 1.347 . S
C911 C912 1.369 . S
C912 C911 1.369 . S
C912 C913 1.408 . S
C912 H934 0.930 . S
C913 C908 1.348 . S
C913 C912 1.408 . S
C913 H935 0.930 . S
C914 O924 1.281 . S
C914 O925 1.254 . S
C915 O926 1.236 . S
C915 O927 1.266 . S
O916 Tb896 2.484 . S
O916 C898 1.248 . S
O917 Tb896 2.440 . S
O917 C898 1.266 . S
O918 Tb896 2.658 . S
O918 Tb897 2.325 . S
O918 C905 1.281 . S
O919 Tb896 2.409 . S
O919 C905 1.254 . S
O920 Tb896 2.378 . S
O920 C906 1.236 . S
O921 Tb897 2.341 . S
O921 C906 1.266 . S
O922 Tb897 2.484 . S
O922 C907 1.248 . S
O923 Tb897 2.440 . S
O923 C907 1.266 . S
O924 Tb896 2.325 . S
O924 Tb897 2.658 . S
O924 C914 1.281 . S
O925 Tb897 2.409 . S
O925 C914 1.254 . S
O926 Tb897 2.378 . S
O926 C915 1.236 . S
O927 Tb896 2.341 . S
O927 C915 1.266 . S
H928 C900 0.929 . S
H929 C901 0.931 . S
H930 C903 0.930 . S
H931 C904 0.930 . S
H932 C909 0.929 . S
H933 C910 0.931 . S
H934 C912 0.930 . S
H935 C913 0.930 . S
Tb936 C938 2.809 . S
Tb936 O956 2.484 . S
Tb936 O957 2.440 1_554 S
Tb936 O958 2.658 . S
Tb936 O959 2.409 1_554 S
Tb936 O960 2.378 . S
Tb936 O964 2.325 . S
Tb936 O967 2.341 . S
Tb937 C947 2.809 1_455 S
Tb937 O958 2.325 . S
Tb937 O961 2.341 . S
Tb937 O962 2.484 1_455 S
Tb937 O963 2.440 1_455 S
Tb937 O964 2.658 . S
Tb937 O965 2.409 . S
Tb937 O966 2.378 . S
C938 Tb936 2.809 . S
C938 C939 1.514 . S
C938 O956 1.248 . S
C938 O957 1.266 1_554 S
C939 C938 1.514 . S
C939 C940 1.359 . S
C939 C944 1.348 1_554 S
C940 C939 1.359 . S
C940 C941 1.380 . S
C940 H968 0.929 . S
C941 C940 1.380 . S
C941 C942 1.347 . S
C941 H969 0.931 . S
C942 C941 1.347 . S
C942 C943 1.369 1_554 S
C943 C942 1.369 1_556 S
C943 C944 1.408 . S
C943 H970 0.930 . S
C944 C939 1.348 1_556 S
C944 C943 1.408 . S
C944 H971 0.930 . S
C945 O958 1.281 1_556 S
C945 O959 1.254 . S
C946 O960 1.236 . S
C946 O961 1.266 . S
C947 Tb937 2.809 1_655 S
C947 C948 1.514 . S
C947 O962 1.248 . S
C947 O963 1.266 . S
C948 C947 1.514 . S
C948 C949 1.359 . S
C948 C953 1.348 . S
C949 C948 1.359 . S
C949 C950 1.380 . S
C949 H972 0.929 . S
C950 C949 1.380 . S
C950 C951 1.347 . S
C950 H973 0.931 . S
C951 C950 1.347 . S
C951 C952 1.369 . S
C952 C951 1.369 . S
C952 C953 1.408 . S
C952 H974 0.930 . S
C953 C948 1.348 . S
C953 C952 1.408 . S
C953 H975 0.930 . S
C954 O964 1.281 . S
C954 O965 1.254 . S
C955 O966 1.236 . S
C955 O967 1.266 . S
O956 Tb936 2.484 . S
O956 C938 1.248 . S
O957 Tb936 2.440 1_556 S
O957 C938 1.266 1_556 S
O958 Tb936 2.658 . S
O958 Tb937 2.325 . S
O958 C945 1.281 1_554 S
O959 Tb936 2.409 1_556 S
O959 C945 1.254 . S
O960 Tb936 2.378 . S
O960 C946 1.236 . S
O961 Tb937 2.341 . S
O961 C946 1.266 . S
O962 Tb937 2.484 1_655 S
O962 C947 1.248 . S
O963 Tb937 2.440 1_655 S
O963 C947 1.266 . S
O964 Tb936 2.325 . S
O964 Tb937 2.658 . S
O964 C954 1.281 . S
O965 Tb937 2.409 . S
O965 C954 1.254 . S
O966 Tb937 2.378 . S
O966 C955 1.236 . S
O967 Tb936 2.341 . S
O967 C955 1.266 . S
H968 C940 0.929 . S
H969 C941 0.931 . S
H970 C943 0.930 . S
H971 C944 0.930 . S
H972 C949 0.929 . S
H973 C950 0.931 . S
H974 C952 0.930 . S
H975 C953 0.930 . S
C976 C977 1.349 . S
C976 C978 1.327 . S
C976 H1001 0.950 . S
C977 C976 1.349 . S
C977 C993 1.349 . S
C978 C976 1.327 . S
C978 C997 1.429 . S
C978 H1002 0.950 . S
C979 C996 1.570 1_556 S
C979 C998 1.368 . S
C979 H1003 0.949 . S
H980 C984 0.949 . S
C981 C982 1.349 . S
C981 C983 1.327 . S
C981 H1004 0.950 . S
C982 C981 1.349 . S
C982 C994 1.349 1_554 S
C983 C981 1.327 . S
C983 C999 1.429 1_554 S
C983 H1005 0.950 . S
C984 H980 0.949 . S
C984 C992 1.574 . S
C984 C1000 1.368 . S
H985 C993 0.917 1_655 S
H986 C991 0.950 . S
H987 C992 0.949 . S
H988 C994 0.950 . S
H989 C995 0.950 . S
H990 C996 0.956 . S
C991 H986 0.950 . S
C991 C993 1.327 . S
C991 C997 1.429 . S
C992 C984 1.574 . S
C992 H987 0.949 . S
C992 C998 1.368 . S
C993 C977 1.349 . S
C993 H985 0.917 1_455 S
C993 C991 1.327 . S
C994 C982 1.349 1_556 S
C994 H988 0.950 . S
C994 C995 1.327 . S
C995 H989 0.950 . S
C995 C994 1.327 . S
C995 C999 1.429 . S
C996 C979 1.570 1_554 S
C996 H990 0.956 . S
C996 C1000 1.364 1_554 S
C997 C978 1.429 . S
C997 C991 1.429 . S
C997 C998 1.523 . S
C998 C979 1.368 . S
C998 C992 1.368 . S
C998 C997 1.523 . S
C999 C983 1.429 1_556 S
C999 C995 1.429 . S
C999 C1000 1.523 . S
C1000 C984 1.368 . S
C1000 C996 1.364 1_556 S
C1000 C999 1.523 . S
H1001 C976 0.950 . S
H1002 C978 0.950 . S
H1003 C979 0.949 . S
H1004 C981 0.950 . S
H1005 C983 0.950 . S
C1006 C1007 1.349 . S
C1006 C1008 1.327 . S
C1006 H1031 0.950 . S
C1007 C1006 1.349 . S
C1007 C1023 1.349 . S
C1008 C1006 1.327 . S
C1008 C1027 1.429 . S
C1008 H1032 0.950 . S
C1009 C1026 1.574 . S
C1009 C1028 1.368 . S
C1009 H1033 0.949 . S
H1010 C1014 0.949 . S
C1011 C1012 1.349 . S
C1011 C1013 1.327 . S
C1011 H1034 0.950 . S
C1012 C1011 1.349 . S
C1012 C1024 1.349 . S
C1013 C1011 1.327 . S
C1013 C1029 1.429 . S
C1013 H1035 0.950 . S
C1014 H1010 0.949 . S
C1014 C1022 1.574 . S
C1014 C1030 1.368 . S
H1015 C1023 0.950 . S
H1016 C1021 0.950 . S
H1017 C1022 0.949 . S
H1018 C1024 0.950 . S
H1019 C1025 0.950 . S
H1020 C1026 0.949 . S
C1021 H1016 0.950 . S
C1021 C1023 1.327 . S
C1021 C1027 1.429 . S
C1022 C1014 1.574 . S
C1022 H1017 0.949 . S
C1022 C1028 1.368 . S
C1023 C1007 1.349 . S
C1023 H1015 0.950 . S
C1023 C1021 1.327 . S
C1024 C1012 1.349 . S
C1024 H1018 0.950 . S
C1024 C1025 1.327 . S
C1025 H1019 0.950 . S
C1025 C1024 1.327 . S
C1025 C1029 1.429 . S
C1026 C1009 1.574 . S
C1026 H1020 0.949 . S
C1026 C1030 1.368 . S
C1027 C1008 1.429 . S
C1027 C1021 1.429 . S
C1027 C1028 1.523 . S
C1028 C1009 1.368 . S
C1028 C1022 1.368 . S
C1028 C1027 1.523 . S
C1029 C1013 1.429 . S
C1029 C1025 1.429 . S
C1029 C1030 1.523 . S
C1030 C1014 1.368 . S
C1030 C1026 1.368 . S
C1030 C1029 1.523 . S
H1031 C1006 0.950 . S
H1032 C1008 0.950 . S
H1033 C1009 0.949 . S
H1034 C1011 0.950 . S
H1035 C1013 0.950 . S
C1036 C1037 1.349 . S
C1036 C1038 1.327 . S
C1036 H1061 0.950 . S
C1037 C1036 1.349 . S
C1037 C1053 1.349 . S
C1038 C1036 1.327 . S
C1038 C1057 1.429 . S
C1038 H1062 0.950 . S
C1039 C1056 1.574 . S
C1039 C1058 1.368 . S
C1039 H1063 0.949 . S
H1040 C1044 0.949 . S
C1041 C1042 1.349 . S
C1041 C1043 1.327 . S
C1041 H1064 0.950 . S
C1042 C1041 1.349 . S
C1042 C1054 1.349 . S
C1043 C1041 1.327 . S
C1043 C1059 1.429 . S
C1043 H1065 0.950 . S
C1044 H1040 0.949 . S
C1044 C1052 1.574 . S
C1044 C1060 1.368 . S
H1045 C1053 0.950 . S
H1046 C1051 0.950 . S
H1047 C1052 0.949 . S
H1048 C1054 0.950 . S
H1049 C1055 0.950 . S
H1050 C1056 0.949 . S
C1051 H1046 0.950 . S
C1051 C1053 1.327 . S
C1051 C1057 1.429 . S
C1052 C1044 1.574 . S
C1052 H1047 0.949 . S
C1052 C1058 1.368 . S
C1053 C1037 1.349 . S
C1053 H1045 0.950 . S
C1053 C1051 1.327 . S
C1054 C1042 1.349 . S
C1054 H1048 0.950 . S
C1054 C1055 1.327 . S
C1055 H1049 0.950 . S
C1055 C1054 1.327 . S
C1055 C1059 1.429 . S
C1056 C1039 1.574 . S
C1056 H1050 0.949 . S
C1056 C1060 1.368 . S
C1057 C1038 1.429 . S
C1057 C1051 1.429 . S
C1057 C1058 1.523 . S
C1058 C1039 1.368 . S
C1058 C1052 1.368 . S
C1058 C1057 1.523 . S
C1059 C1043 1.429 . S
C1059 C1055 1.429 . S
C1059 C1060 1.523 . S
C1060 C1044 1.368 . S
C1060 C1056 1.368 . S
C1060 C1059 1.523 . S
H1061 C1036 0.950 . S
H1062 C1038 0.950 . S
H1063 C1039 0.949 . S
H1064 C1041 0.950 . S
H1065 C1043 0.950 . S
C1066 C1067 1.349 . S
C1066 C1068 1.327 . S
C1066 H1091 0.950 . S
C1067 C1066 1.349 . S
C1067 C1083 1.349 . S
C1068 C1066 1.327 . S
C1068 C1087 1.429 . S
C1068 H1092 0.950 . S
C1069 C1086 1.574 . S
C1069 C1088 1.368 . S
C1069 H1093 0.949 . S
H1070 C1074 0.949 . S
C1071 C1072 1.349 . S
C1071 C1073 1.327 . S
C1071 H1094 0.950 . S
C1072 C1071 1.349 . S
C1072 C1084 1.349 . S
C1073 C1071 1.327 . S
C1073 C1089 1.429 . S
C1073 H1095 0.950 . S
C1074 H1070 0.949 . S
C1074 C1082 1.574 . S
C1074 C1090 1.368 . S
H1075 C1083 0.950 . S
H1076 C1081 0.950 . S
H1077 C1082 0.949 . S
H1078 C1084 0.950 . S
H1079 C1085 0.950 . S
H1080 C1086 0.949 . S
C1081 H1076 0.950 . S
C1081 C1083 1.327 . S
C1081 C1087 1.429 . S
C1082 C1074 1.574 . S
C1082 H1077 0.949 . S
C1082 C1088 1.368 . S
C1083 C1067 1.349 . S
C1083 H1075 0.950 . S
C1083 C1081 1.327 . S
C1084 C1072 1.349 . S
C1084 H1078 0.950 . S
C1084 C1085 1.327 . S
C1085 H1079 0.950 . S
C1085 C1084 1.327 . S
C1085 C1089 1.429 . S
C1086 C1069 1.574 . S
C1086 H1080 0.949 . S
C1086 C1090 1.368 . S
C1087 C1068 1.429 . S
C1087 C1081 1.429 . S
C1087 C1088 1.523 . S
C1088 C1069 1.368 . S
C1088 C1082 1.368 . S
C1088 C1087 1.523 . S
C1089 C1073 1.429 . S
C1089 C1085 1.429 . S
C1089 C1090 1.523 . S
C1090 C1074 1.368 . S
C1090 C1086 1.368 . S
C1090 C1089 1.523 . S
H1091 C1066 0.950 . S
H1092 C1068 0.950 . S
H1093 C1069 0.949 . S
H1094 C1071 0.950 . S
H1095 C1073 0.950 . S
C1096 C1097 1.349 . S
C1096 C1098 1.327 . S
C1096 H1121 0.950 . S
C1097 C1096 1.349 . S
C1097 C1113 1.349 . S
C1098 C1096 1.327 . S
C1098 C1117 1.429 . S
C1098 H1122 0.950 . S
C1099 C1116 1.574 . S
C1099 C1118 1.368 . S
C1099 H1123 0.949 . S
H1100 C1104 0.949 . S
C1101 C1102 1.349 . S
C1101 C1103 1.327 . S
C1101 H1124 0.950 . S
C1102 C1101 1.349 . S
C1102 C1114 1.349 . S
C1103 C1101 1.327 . S
C1103 C1119 1.429 . S
C1103 H1125 0.950 . S
C1104 H1100 0.949 . S
C1104 C1112 1.574 . S
C1104 C1120 1.368 . S
H1105 C1113 0.950 . S
H1106 C1111 0.950 . S
H1107 C1112 0.949 . S
H1108 C1114 0.950 . S
H1109 C1115 0.950 . S
H1110 C1116 0.949 . S
C1111 H1106 0.950 . S
C1111 C1113 1.327 . S
C1111 C1117 1.429 . S
C1112 C1104 1.574 . S
C1112 H1107 0.949 . S
C1112 C1118 1.368 . S
C1113 C1097 1.349 . S
C1113 H1105 0.950 . S
C1113 C1111 1.327 . S
C1114 C1102 1.349 . S
C1114 H1108 0.950 . S
C1114 C1115 1.327 . S
C1115 H1109 0.950 . S
C1115 C1114 1.327 . S
C1115 C1119 1.429 . S
C1116 C1099 1.574 . S
C1116 H1110 0.949 . S
C1116 C1120 1.368 . S
C1117 C1098 1.429 . S
C1117 C1111 1.429 . S
C1117 C1118 1.523 . S
C1118 C1099 1.368 . S
C1118 C1112 1.368 . S
C1118 C1117 1.523 . S
C1119 C1103 1.429 . S
C1119 C1115 1.429 . S
C1119 C1120 1.523 . S
C1120 C1104 1.368 . S
C1120 C1116 1.368 . S
C1120 C1119 1.523 . S
H1121 C1096 0.950 . S
H1122 C1098 0.950 . S
H1123 C1099 0.949 . S
H1124 C1101 0.950 . S
H1125 C1103 0.950 . S
C1126 C1127 1.349 . S
C1126 C1128 1.327 . S
C1126 H1151 0.950 . S
C1127 C1126 1.349 . S
C1127 C1143 1.349 . S
C1128 C1126 1.327 . S
C1128 C1147 1.429 . S
C1128 H1152 0.950 . S
C1129 C1146 1.574 . S
C1129 C1148 1.368 . S
C1129 H1153 0.949 . S
H1130 C1134 0.949 . S
C1131 C1132 1.349 . S
C1131 C1133 1.327 . S
C1131 H1154 0.950 . S
C1132 C1131 1.349 . S
C1132 C1144 1.349 . S
C1133 C1131 1.327 . S
C1133 C1149 1.429 . S
C1133 H1155 0.950 . S
C1134 H1130 0.949 . S
C1134 C1142 1.574 . S
C1134 C1150 1.368 . S
H1135 C1143 0.950 . S
H1136 C1141 0.950 . S
H1137 C1142 0.949 . S
H1138 C1144 0.950 . S
H1139 C1145 0.950 . S
H1140 C1146 0.949 . S
C1141 H1136 0.950 . S
C1141 C1143 1.327 . S
C1141 C1147 1.429 . S
C1142 C1134 1.574 . S
C1142 H1137 0.949 . S
C1142 C1148 1.368 . S
C1143 C1127 1.349 . S
C1143 H1135 0.950 . S
C1143 C1141 1.327 . S
C1144 C1132 1.349 . S
C1144 H1138 0.950 . S
C1144 C1145 1.327 . S
C1145 H1139 0.950 . S
C1145 C1144 1.327 . S
C1145 C1149 1.429 . S
C1146 C1129 1.574 . S
C1146 H1140 0.949 . S
C1146 C1150 1.368 . S
C1147 C1128 1.429 . S
C1147 C1141 1.429 . S
C1147 C1148 1.523 . S
C1148 C1129 1.368 . S
C1148 C1142 1.368 . S
C1148 C1147 1.523 . S
C1149 C1133 1.429 . S
C1149 C1145 1.429 . S
C1149 C1150 1.523 . S
C1150 C1134 1.368 . S
C1150 C1146 1.368 . S
C1150 C1149 1.523 . S
H1151 C1126 0.950 . S
H1152 C1128 0.950 . S
H1153 C1129 0.949 . S
H1154 C1131 0.950 . S
H1155 C1133 0.950 . S
C1156 C1157 1.349 . S
C1156 C1158 1.327 . S
C1156 H1181 0.950 . S
C1157 C1156 1.349 . S
C1157 C1173 1.349 . S
C1158 C1156 1.327 . S
C1158 C1177 1.429 . S
C1158 H1182 0.950 . S
C1159 C1176 1.574 . S
C1159 C1178 1.368 . S
C1159 H1183 0.949 . S
H1160 C1164 0.949 . S
C1161 C1162 1.349 . S
C1161 C1163 1.327 . S
C1161 H1184 0.950 . S
C1162 C1161 1.349 . S
C1162 C1174 1.349 . S
C1163 C1161 1.327 . S
C1163 C1179 1.429 . S
C1163 H1185 0.950 . S
C1164 H1160 0.949 . S
C1164 C1172 1.574 . S
C1164 C1180 1.368 . S
H1165 C1173 0.950 . S
H1166 C1171 0.950 . S
H1167 C1172 0.949 . S
H1168 C1174 0.950 . S
H1169 C1175 0.950 . S
H1170 C1176 0.949 . S
C1171 H1166 0.950 . S
C1171 C1173 1.327 . S
C1171 C1177 1.429 . S
C1172 C1164 1.574 . S
C1172 H1167 0.949 . S
C1172 C1178 1.368 . S
C1173 C1157 1.349 . S
C1173 H1165 0.950 . S
C1173 C1171 1.327 . S
C1174 C1162 1.349 . S
C1174 H1168 0.950 . S
C1174 C1175 1.327 . S
C1175 H1169 0.950 . S
C1175 C1174 1.327 . S
C1175 C1179 1.429 . S
C1176 C1159 1.574 . S
C1176 H1170 0.949 . S
C1176 C1180 1.368 . S
C1177 C1158 1.429 . S
C1177 C1171 1.429 . S
C1177 C1178 1.523 . S
C1178 C1159 1.368 . S
C1178 C1172 1.368 . S
C1178 C1177 1.523 . S
C1179 C1163 1.429 . S
C1179 C1175 1.429 . S
C1179 C1180 1.523 . S
C1180 C1164 1.368 . S
C1180 C1176 1.368 . S
C1180 C1179 1.523 . S
H1181 C1156 0.950 . S
H1182 C1158 0.950 . S
H1183 C1159 0.949 . S
H1184 C1161 0.950 . S
H1185 C1163 0.950 . S
C1186 C1187 1.349 . S
C1186 C1188 1.327 . S
C1186 H1211 0.950 . S
C1187 C1186 1.349 . S
C1187 C1203 1.349 . S
C1188 C1186 1.327 . S
C1188 C1207 1.429 . S
C1188 H1212 0.950 . S
C1189 C1206 1.574 . S
C1189 C1208 1.368 . S
C1189 H1213 0.949 . S
H1190 C1194 0.949 . S
C1191 C1192 1.349 . S
C1191 C1193 1.327 . S
C1191 H1214 0.950 . S
C1192 C1191 1.349 . S
C1192 C1204 1.349 . S
C1193 C1191 1.327 . S
C1193 C1209 1.429 . S
C1193 H1215 0.950 . S
C1194 H1190 0.949 . S
C1194 C1202 1.574 . S
C1194 C1210 1.368 . S
H1195 C1203 0.950 . S
H1196 C1201 0.950 . S
H1197 C1202 0.949 . S
H1198 C1204 0.950 . S
H1199 C1205 0.950 . S
H1200 C1206 0.949 . S
C1201 H1196 0.950 . S
C1201 C1203 1.327 . S
C1201 C1207 1.429 . S
C1202 C1194 1.574 . S
C1202 H1197 0.949 . S
C1202 C1208 1.368 . S
C1203 C1187 1.349 . S
C1203 H1195 0.950 . S
C1203 C1201 1.327 . S
C1204 C1192 1.349 . S
C1204 H1198 0.950 . S
C1204 C1205 1.327 . S
C1205 H1199 0.950 . S
C1205 C1204 1.327 . S
C1205 C1209 1.429 . S
C1206 C1189 1.574 . S
C1206 H1200 0.949 . S
C1206 C1210 1.368 . S
C1207 C1188 1.429 . S
C1207 C1201 1.429 . S
C1207 C1208 1.523 . S
C1208 C1189 1.368 . S
C1208 C1202 1.368 . S
C1208 C1207 1.523 . S
C1209 C1193 1.429 . S
C1209 C1205 1.429 . S
C1209 C1210 1.523 . S
C1210 C1194 1.368 . S
C1210 C1206 1.368 . S
C1210 C1209 1.523 . S
H1211 C1186 0.950 . S
H1212 C1188 0.950 . S
H1213 C1189 0.949 . S
H1214 C1191 0.950 . S
H1215 C1193 0.950 . S
C1216 C1217 1.349 . S
C1216 C1218 1.327 . S
C1216 H1241 0.950 . S
C1217 C1216 1.349 . S
C1217 C1233 1.320 1_545 S
C1218 C1216 1.327 . S
C1218 C1237 1.429 . S
C1218 H1242 0.950 . S
C1219 C1236 1.563 1_655 S
C1219 C1238 1.368 . S
C1219 H1243 0.949 1_545 S
H1220 C1224 0.949 . S
C1221 C1222 1.349 . S
C1221 C1223 1.327 . S
C1221 H1244 0.950 . S
C1222 C1221 1.349 . S
C1222 C1234 1.349 . S
C1223 C1221 1.327 . S
C1223 C1239 1.436 . S
C1223 H1245 0.950 . S
C1224 H1220 0.949 . S
C1224 C1232 1.574 . S
C1224 C1240 1.368 . S
H1225 C1233 0.989 . S
H1226 C1231 0.930 1_565 S
H1227 C1232 0.949 . S
H1228 C1234 0.950 1_655 S
H1229 C1235 0.950 . S
H1230 C1236 0.968 . S
C1231 H1226 0.930 1_545 S
C1231 C1233 1.319 1_545 S
C1231 C1237 1.454 . S
C1232 C1224 1.574 . S
C1232 H1227 0.949 . S
C1232 C1238 1.368 . S
C1233 C1217 1.320 1_565 S
C1233 H1225 0.989 . S
C1233 C1231 1.319 1_565 S
C1234 C1222 1.349 . S
C1234 H1228 0.950 1_455 S
C1234 C1235 1.327 1_455 S
C1235 H1229 0.950 . S
C1235 C1234 1.327 1_655 S
C1235 C1239 1.426 1_655 S
C1236 C1219 1.563 1_455 S
C1236 H1230 0.968 . S
C1236 C1240 1.358 1_455 S
C1237 C1218 1.429 . S
C1237 C1231 1.454 . S
C1237 C1238 1.523 . S
C1238 C1219 1.368 . S
C1238 C1232 1.368 . S
C1238 C1237 1.523 . S
C1239 C1223 1.436 . S
C1239 C1235 1.426 1_455 S
C1239 C1240 1.519 1_455 S
C1240 C1224 1.368 . S
C1240 C1236 1.358 1_655 S
C1240 C1239 1.519 1_655 S
H1241 C1216 0.950 . S
H1242 C1218 0.950 . S
H1243 C1219 0.949 1_565 S
H1244 C1221 0.950 . S
H1245 C1223 0.950 . S
C1246 C1247 1.349 . S
C1246 C1248 1.327 . S
C1246 H1271 0.950 . S
C1247 C1246 1.349 . S
C1247 C1263 1.349 . S
C1248 C1246 1.327 . S
C1248 C1267 1.429 . S
C1248 H1272 0.950 . S
C1249 C1266 1.574 . S
C1249 C1268 1.368 . S
C1249 H1273 0.949 . S
H1250 C1254 0.949 . S
C1251 C1252 1.349 . S
C1251 C1253 1.327 . S
C1251 H1274 0.950 . S
C1252 C1251 1.349 . S
C1252 C1264 1.349 . S
C1253 C1251 1.327 . S
C1253 C1269 1.429 . S
C1253 H1275 0.950 . S
C1254 H1250 0.949 . S
C1254 C1262 1.574 . S
C1254 C1270 1.368 . S
H1255 C1263 0.950 . S
H1256 C1261 0.950 . S
H1257 C1262 0.949 . S
H1258 C1264 0.950 . S
H1259 C1265 0.950 . S
H1260 C1266 0.949 . S
C1261 H1256 0.950 . S
C1261 C1263 1.327 . S
C1261 C1267 1.429 . S
C1262 C1254 1.574 . S
C1262 H1257 0.949 . S
C1262 C1268 1.368 . S
C1263 C1247 1.349 . S
C1263 H1255 0.950 . S
C1263 C1261 1.327 . S
C1264 C1252 1.349 . S
C1264 H1258 0.950 . S
C1264 C1265 1.327 . S
C1265 H1259 0.950 . S
C1265 C1264 1.327 . S
C1265 C1269 1.429 . S
C1266 C1249 1.574 . S
C1266 H1260 0.949 . S
C1266 C1270 1.368 . S
C1267 C1248 1.429 . S
C1267 C1261 1.429 . S
C1267 C1268 1.523 . S
C1268 C1249 1.368 . S
C1268 C1262 1.368 . S
C1268 C1267 1.523 . S
C1269 C1253 1.429 . S
C1269 C1265 1.429 . S
C1269 C1270 1.523 . S
C1270 C1254 1.368 . S
C1270 C1266 1.368 . S
C1270 C1269 1.523 . S
H1271 C1246 0.950 . S
H1272 C1248 0.950 . S
H1273 C1249 0.949 . S
H1274 C1251 0.950 . S
H1275 C1253 0.950 . S
C1276 C1277 1.349 1_565 S
C1276 C1278 1.327 . S
C1276 H1301 0.950 . S
C1277 C1276 1.349 1_545 S
C1277 C1293 1.349 . S
C1278 C1276 1.327 . S
C1278 C1297 1.429 1_565 S
C1278 H1302 0.950 . S
C1279 C1296 1.574 . S
C1279 C1298 1.368 . S
C1279 H1303 0.949 . S
H1280 C1284 0.949 . S
C1281 C1282 1.349 . S
C1281 C1283 1.327 . S
C1281 H1304 0.950 . S
C1282 C1281 1.349 . S
C1282 C1294 1.349 1_545 S
C1283 C1281 1.327 . S
C1283 C1299 1.429 . S
C1283 H1305 0.950 . S
C1284 H1280 0.949 . S
C1284 C1292 1.574 . S
C1284 C1300 1.368 1_565 S
H1285 C1293 0.950 . S
H1286 C1291 0.950 . S
H1287 C1292 0.949 . S
H1288 C1294 0.950 . S
H1289 C1295 0.950 . S
H1290 C1296 0.949 . S
C1291 H1286 0.950 . S
C1291 C1293 1.327 . S
C1291 C1297 1.429 . S
C1292 C1284 1.574 . S
C1292 H1287 0.949 . S
C1292 C1298 1.368 1_565 S
C1293 C1277 1.349 . S
C1293 H1285 0.950 . S
C1293 C1291 1.327 . S
C1294 C1282 1.349 1_565 S
C1294 H1288 0.950 . S
C1294 C1295 1.327 . S
C1295 H1289 0.950 . S
C1295 C1294 1.327 . S
C1295 C1299 1.429 1_565 S
C1296 C1279 1.574 . S
C1296 H1290 0.949 . S
C1296 C1300 1.368 . S
C1297 C1278 1.429 1_545 S
C1297 C1291 1.429 . S
C1297 C1298 1.523 . S
C1298 C1279 1.368 . S
C1298 C1292 1.368 1_545 S
C1298 C1297 1.523 . S
C1299 C1283 1.429 . S
C1299 C1295 1.429 1_545 S
C1299 C1300 1.523 . S
C1300 C1284 1.368 1_545 S
C1300 C1296 1.368 . S
C1300 C1299 1.523 . S
H1301 C1276 0.950 . S
H1302 C1278 0.950 . S
H1303 C1279 0.949 . S
H1304 C1281 0.950 . S
H1305 C1283 0.950 . S
C1306 C1307 1.349 . S
C1306 C1308 1.327 . S
C1306 H1331 0.950 . S
C1307 C1306 1.349 . S
C1307 C1323 1.349 . S
C1308 C1306 1.327 . S
C1308 C1327 1.429 . S
C1308 H1332 0.950 . S
C1309 C1326 1.574 . S
C1309 C1328 1.368 . S
C1309 H1333 0.949 . S
H1310 C1314 0.949 . S
C1311 C1312 1.349 . S
C1311 C1313 1.327 . S
C1311 H1334 0.950 . S
C1312 C1311 1.349 . S
C1312 C1324 1.349 . S
C1313 C1311 1.327 . S
C1313 C1329 1.429 . S
C1313 H1335 0.950 . S
C1314 H1310 0.949 . S
C1314 C1322 1.574 . S
C1314 C1330 1.368 . S
H1315 C1323 0.950 . S
H1316 C1321 0.950 . S
H1317 C1322 0.949 . S
H1318 C1324 0.950 . S
H1319 C1325 0.950 . S
H1320 C1326 0.949 . S
C1321 H1316 0.950 . S
C1321 C1323 1.327 . S
C1321 C1327 1.429 . S
C1322 C1314 1.574 . S
C1322 H1317 0.949 . S
C1322 C1328 1.368 . S
C1323 C1307 1.349 . S
C1323 H1315 0.950 . S
C1323 C1321 1.327 . S
C1324 C1312 1.349 . S
C1324 H1318 0.950 . S
C1324 C1325 1.327 . S
C1325 H1319 0.950 . S
C1325 C1324 1.327 . S
C1325 C1329 1.429 . S
C1326 C1309 1.574 . S
C1326 H1320 0.949 . S
C1326 C1330 1.368 . S
C1327 C1308 1.429 . S
C1327 C1321 1.429 . S
C1327 C1328 1.523 . S
C1328 C1309 1.368 . S
C1328 C1322 1.368 . S
C1328 C1327 1.523 . S
C1329 C1313 1.429 . S
C1329 C1325 1.429 . S
C1329 C1330 1.523 . S
C1330 C1314 1.368 . S
C1330 C1326 1.368 . S
C1330 C1329 1.523 . S
H1331 C1306 0.950 . S
H1332 C1308 0.950 . S
H1333 C1309 0.949 . S
H1334 C1311 0.950 . S
H1335 C1313 0.950 . S
C1336 C1337 1.349 1_565 S
C1336 C1338 1.327 . S
C1336 H1361 0.950 . S
C1337 C1336 1.349 1_545 S
C1337 C1353 1.349 . S
C1338 C1336 1.327 . S
C1338 C1357 1.429 1_565 S
C1338 H1362 0.950 . S
C1339 C1356 1.574 . S
C1339 C1358 1.368 . S
C1339 H1363 0.949 . S
H1340 C1344 0.988 1_455 S
C1341 C1342 1.349 . S
C1341 C1343 1.327 1_455 S
C1341 H1364 0.950 . S
C1342 C1341 1.349 . S
C1342 C1354 1.349 . S
C1343 C1341 1.327 1_655 S
C1343 C1359 1.421 1_655 S
C1343 H1365 0.950 . S
C1344 H1340 0.988 1_655 S
C1344 C1352 1.565 . S
C1344 C1360 1.335 1_565 S
H1345 C1353 0.950 . S
H1346 C1351 0.950 . S
H1347 C1352 0.949 . S
H1348 C1354 0.950 1_565 S
H1349 C1355 0.912 1_565 S
H1350 C1356 0.949 . S
C1351 H1346 0.950 . S
C1351 C1353 1.327 . S
C1351 C1357 1.429 . S
C1352 C1344 1.565 . S
C1352 H1347 0.949 . S
C1352 C1358 1.368 1_565 S
C1353 C1337 1.349 . S
C1353 H1345 0.950 . S
C1353 C1351 1.327 . S
C1354 C1342 1.349 . S
C1354 H1348 0.950 1_545 S
C1354 C1355 1.318 . S
C1355 H1349 0.912 1_545 S
C1355 C1354 1.318 . S
C1355 C1359 1.492 . S
C1356 C1339 1.574 . S
C1356 H1350 0.949 . S
C1356 C1360 1.368 . S
C1357 C1338 1.429 1_545 S
C1357 C1351 1.429 . S
C1357 C1358 1.523 . S
C1358 C1339 1.368 . S
C1358 C1352 1.368 1_545 S
C1358 C1357 1.523 . S
C1359 C1343 1.421 1_455 S
C1359 C1355 1.492 . S
C1359 C1360 1.516 1_455 S
C1360 C1344 1.335 1_545 S
C1360 C1356 1.368 . S
C1360 C1359 1.516 1_655 S
H1361 C1336 0.950 . S
H1362 C1338 0.950 . S
H1363 C1339 0.949 . S
H1364 C1341 0.950 . S
H1365 C1343 0.950 . S
C1366 C1367 1.349 . S
C1366 C1368 1.327 . S
C1366 H1391 0.950 . S
C1367 C1366 1.349 . S
C1367 C1383 1.349 . S
C1368 C1366 1.327 . S
C1368 C1387 1.429 . S
C1368 H1392 0.950 . S
C1369 C1386 1.574 . S
C1369 C1388 1.368 . S
C1369 H1393 0.949 . S
H1370 C1374 0.949 . S
C1371 C1372 1.349 . S
C1371 C1373 1.327 . S
C1371 H1394 0.950 . S
C1372 C1371 1.349 . S
C1372 C1384 1.349 . S
C1373 C1371 1.327 . S
C1373 C1389 1.429 . S
C1373 H1395 0.950 . S
C1374 H1370 0.949 . S
C1374 C1382 1.574 . S
C1374 C1390 1.368 . S
H1375 C1383 0.950 . S
H1376 C1381 0.950 . S
H1377 C1382 0.949 . S
H1378 C1384 0.950 . S
H1379 C1385 0.950 . S
H1380 C1386 0.949 . S
C1381 H1376 0.950 . S
C1381 C1383 1.327 . S
C1381 C1387 1.429 . S
C1382 C1374 1.574 . S
C1382 H1377 0.949 . S
C1382 C1388 1.368 . S
C1383 C1367 1.349 . S
C1383 H1375 0.950 . S
C1383 C1381 1.327 . S
C1384 C1372 1.349 . S
C1384 H1378 0.950 . S
C1384 C1385 1.327 . S
C1385 H1379 0.950 . S
C1385 C1384 1.327 . S
C1385 C1389 1.429 . S
C1386 C1369 1.574 . S
C1386 H1380 0.949 . S
C1386 C1390 1.368 . S
C1387 C1368 1.429 . S
C1387 C1381 1.429 . S
C1387 C1388 1.523 . S
C1388 C1369 1.368 . S
C1388 C1382 1.368 . S
C1388 C1387 1.523 . S
C1389 C1373 1.429 . S
C1389 C1385 1.429 . S
C1389 C1390 1.523 . S
C1390 C1374 1.368 . S
C1390 C1386 1.368 . S
C1390 C1389 1.523 . S
H1391 C1366 0.950 . S
H1392 C1368 0.950 . S
H1393 C1369 0.949 . S
H1394 C1371 0.950 . S
H1395 C1373 0.950 . S
C1396 C1397 1.349 . S
C1396 C1398 1.327 . S
C1396 H1421 0.950 1_545 S
C1397 C1396 1.349 . S
C1397 C1413 1.349 . S
C1398 C1396 1.327 . S
C1398 C1417 1.429 . S
C1398 H1422 0.910 1_545 S
C1399 C1416 1.574 . S
C1399 C1418 1.368 . S
C1399 H1423 0.949 . S
H1400 C1404 0.949 . S
C1401 C1402 1.349 . S
C1401 C1403 1.327 . S
C1401 H1424 0.950 . S
C1402 C1401 1.349 . S
C1402 C1414 1.349 . S
C1403 C1401 1.327 . S
C1403 C1419 1.429 . S
C1403 H1425 0.950 . S
C1404 H1400 0.949 . S
C1404 C1412 1.574 . S
C1404 C1420 1.368 . S
H1405 C1413 0.950 . S
H1406 C1411 0.950 . S
H1407 C1412 0.949 . S
H1408 C1414 0.950 . S
H1409 C1415 0.950 . S
H1410 C1416 0.949 . S
C1411 H1406 0.950 . S
C1411 C1413 1.327 . S
C1411 C1417 1.429 . S
C1412 C1404 1.574 . S
C1412 H1407 0.949 . S
C1412 C1418 1.368 . S
C1413 C1397 1.349 . S
C1413 H1405 0.950 . S
C1413 C1411 1.327 . S
C1414 C1402 1.349 . S
C1414 H1408 0.950 . S
C1414 C1415 1.327 . S
C1415 H1409 0.950 . S
C1415 C1414 1.327 . S
C1415 C1419 1.429 . S
C1416 C1399 1.574 . S
C1416 H1410 0.949 . S
C1416 C1420 1.368 . S
C1417 C1398 1.429 . S
C1417 C1411 1.429 . S
C1417 C1418 1.523 . S
C1418 C1399 1.368 . S
C1418 C1412 1.368 . S
C1418 C1417 1.523 . S
C1419 C1403 1.429 . S
C1419 C1415 1.429 . S
C1419 C1420 1.523 . S
C1420 C1404 1.368 . S
C1420 C1416 1.368 . S
C1420 C1419 1.523 . S
H1421 C1396 0.950 1_565 S
H1422 C1398 0.910 1_565 S
H1423 C1399 0.949 . S
H1424 C1401 0.950 . S
H1425 C1403 0.950 . S
C1426 C1427 1.349 . S
C1426 C1428 1.327 . S
C1426 H1451 0.950 . S
C1427 C1426 1.349 . S
C1427 C1443 1.349 . S
C1428 C1426 1.327 . S
C1428 C1447 1.429 . S
C1428 H1452 0.950 . S
C1429 C1446 1.574 . S
C1429 C1448 1.368 . S
C1429 H1453 0.949 . S
H1430 C1434 0.949 . S
C1431 C1432 1.349 . S
C1431 C1433 1.327 . S
C1431 H1454 0.950 . S
C1432 C1431 1.349 . S
C1432 C1444 1.349 . S
C1433 C1431 1.327 . S
C1433 C1449 1.429 . S
C1433 H1455 0.950 . S
C1434 H1430 0.949 . S
C1434 C1442 1.574 . S
C1434 C1450 1.368 . S
H1435 C1443 0.950 . S
H1436 C1441 0.950 . S
H1437 C1442 0.949 . S
H1438 C1444 0.950 . S
H1439 C1445 0.950 . S
H1440 C1446 0.949 . S
C1441 H1436 0.950 . S
C1441 C1443 1.327 . S
C1441 C1447 1.429 . S
C1442 C1434 1.574 . S
C1442 H1437 0.949 . S
C1442 C1448 1.368 . S
C1443 C1427 1.349 . S
C1443 H1435 0.950 . S
C1443 C1441 1.327 . S
C1444 C1432 1.349 . S
C1444 H1438 0.950 . S
C1444 C1445 1.327 . S
C1445 H1439 0.950 . S
C1445 C1444 1.327 . S
C1445 C1449 1.429 . S
C1446 C1429 1.574 . S
C1446 H1440 0.949 . S
C1446 C1450 1.368 . S
C1447 C1428 1.429 . S
C1447 C1441 1.429 . S
C1447 C1448 1.523 . S
C1448 C1429 1.368 . S
C1448 C1442 1.368 . S
C1448 C1447 1.523 . S
C1449 C1433 1.429 . S
C1449 C1445 1.429 . S
C1449 C1450 1.523 . S
C1450 C1434 1.368 . S
C1450 C1446 1.368 . S
C1450 C1449 1.523 . S
H1451 C1426 0.950 . S
H1452 C1428 0.950 . S
H1453 C1429 0.949 . S
H1454 C1431 0.950 . S
H1455 C1433 0.950 . S
C1456 C1457 1.347 1_554 S
C1456 C1458 1.327 . S
C1456 H1481 0.950 . S
C1457 C1456 1.347 1_556 S
C1457 C1473 1.350 . S
C1458 C1456 1.327 . S
C1458 C1477 1.429 . S
C1458 H1482 0.950 . S
C1459 C1476 1.574 . S
C1459 C1478 1.368 . S
C1459 H1483 0.949 1_554 S
H1460 C1464 0.949 . S
C1461 C1462 1.349 . S
C1461 C1463 1.327 . S
C1461 H1484 0.950 . S
C1462 C1461 1.349 . S
C1462 C1474 1.349 . S
C1463 C1461 1.327 . S
C1463 C1479 1.429 . S
C1463 H1485 0.950 . S
C1464 H1460 0.949 . S
C1464 C1472 1.574 . S
C1464 C1480 1.368 . S
H1465 C1473 0.950 . S
H1466 C1471 0.950 . S
H1467 C1472 0.949 . S
H1468 C1474 0.950 . S
H1469 C1475 0.950 . S
H1470 C1476 0.949 . S
C1471 H1466 0.950 . S
C1471 C1473 1.327 . S
C1471 C1477 1.429 1_556 S
C1472 C1464 1.574 . S
C1472 H1467 0.949 . S
C1472 C1478 1.368 . S
C1473 C1457 1.350 . S
C1473 H1465 0.950 . S
C1473 C1471 1.327 . S
C1474 C1462 1.349 . S
C1474 H1468 0.950 . S
C1474 C1475 1.327 . S
C1475 H1469 0.950 . S
C1475 C1474 1.327 . S
C1475 C1479 1.429 . S
C1476 C1459 1.574 . S
C1476 H1470 0.949 . S
C1476 C1480 1.368 . S
C1477 C1458 1.429 . S
C1477 C1471 1.429 1_554 S
C1477 C1478 1.523 . S
C1478 C1459 1.368 . S
C1478 C1472 1.368 . S
C1478 C1477 1.523 . S
C1479 C1463 1.429 . S
C1479 C1475 1.429 . S
C1479 C1480 1.523 . S
C1480 C1464 1.368 . S
C1480 C1476 1.368 . S
C1480 C1479 1.523 . S
H1481 C1456 0.950 . S
H1482 C1458 0.950 . S
H1483 C1459 0.949 1_556 S
H1484 C1461 0.950 . S
H1485 C1463 0.950 . S
C1486 C1487 1.349 . S
C1486 C1488 1.327 . S
C1486 H1511 0.950 . S
C1487 C1486 1.349 . S
C1487 C1503 1.349 . S
C1488 C1486 1.327 . S
C1488 C1507 1.429 . S
C1488 H1512 0.950 . S
C1489 C1506 1.574 . S
C1489 C1508 1.368 . S
C1489 H1513 0.949 . S
H1490 C1494 0.949 . S
C1491 C1492 1.349 . S
C1491 C1493 1.327 . S
C1491 H1514 0.950 . S
C1492 C1491 1.349 . S
C1492 C1504 1.349 . S
C1493 C1491 1.327 . S
C1493 C1509 1.429 . S
C1493 H1515 0.950 . S
C1494 H1490 0.949 . S
C1494 C1502 1.574 . S
C1494 C1510 1.368 . S
H1495 C1503 0.950 . S
H1496 C1501 0.950 . S
H1497 C1502 0.949 . S
H1498 C1504 0.950 . S
H1499 C1505 0.950 . S
H1500 C1506 0.949 . S
C1501 H1496 0.950 . S
C1501 C1503 1.327 . S
C1501 C1507 1.429 . S
C1502 C1494 1.574 . S
C1502 H1497 0.949 . S
C1502 C1508 1.368 . S
C1503 C1487 1.349 . S
C1503 H1495 0.950 . S
C1503 C1501 1.327 . S
C1504 C1492 1.349 . S
C1504 H1498 0.950 . S
C1504 C1505 1.327 . S
C1505 H1499 0.950 . S
C1505 C1504 1.327 . S
C1505 C1509 1.429 . S
C1506 C1489 1.574 . S
C1506 H1500 0.949 . S
C1506 C1510 1.368 . S
C1507 C1488 1.429 . S
C1507 C1501 1.429 . S
C1507 C1508 1.523 . S
C1508 C1489 1.368 . S
C1508 C1502 1.368 . S
C1508 C1507 1.523 . S
C1509 C1493 1.429 . S
C1509 C1505 1.429 . S
C1509 C1510 1.523 . S
C1510 C1494 1.368 . S
C1510 C1506 1.368 . S
C1510 C1509 1.523 . S
H1511 C1486 0.950 . S
H1512 C1488 0.950 . S
H1513 C1489 0.949 . S
H1514 C1491 0.950 . S
H1515 C1493 0.950 . S
C1516 C1517 1.349 . S
C1516 C1518 1.327 . S
C1516 H1541 0.950 . S
C1517 C1516 1.349 . S
C1517 C1533 1.349 . S
C1518 C1516 1.327 . S
C1518 C1537 1.429 . S
C1518 H1542 0.950 . S
C1519 C1536 1.574 . S
C1519 C1538 1.368 . S
C1519 H1543 0.949 . S
H1520 C1524 0.949 . S
C1521 C1522 1.349 . S
C1521 C1523 1.327 . S
C1521 H1544 0.950 . S
C1522 C1521 1.349 . S
C1522 C1534 1.349 . S
C1523 C1521 1.327 . S
C1523 C1539 1.429 . S
C1523 H1545 0.950 . S
C1524 H1520 0.949 . S
C1524 C1532 1.574 . S
C1524 C1540 1.368 . S
H1525 C1533 0.950 . S
H1526 C1531 0.950 . S
H1527 C1532 0.949 . S
H1528 C1534 0.950 . S
H1529 C1535 0.950 . S
H1530 C1536 0.949 . S
C1531 H1526 0.950 . S
C1531 C1533 1.327 . S
C1531 C1537 1.429 . S
C1532 C1524 1.574 . S
C1532 H1527 0.949 . S
C1532 C1538 1.368 . S
C1533 C1517 1.349 . S
C1533 H1525 0.950 . S
C1533 C1531 1.327 . S
C1534 C1522 1.349 . S
C1534 H1528 0.950 . S
C1534 C1535 1.327 . S
C1535 H1529 0.950 . S
C1535 C1534 1.327 . S
C1535 C1539 1.429 . S
C1536 C1519 1.574 . S
C1536 H1530 0.949 . S
C1536 C1540 1.368 . S
C1537 C1518 1.429 . S
C1537 C1531 1.429 . S
C1537 C1538 1.523 . S
C1538 C1519 1.368 . S
C1538 C1532 1.368 . S
C1538 C1537 1.523 . S
C1539 C1523 1.429 . S
C1539 C1535 1.429 . S
C1539 C1540 1.523 . S
C1540 C1524 1.368 . S
C1540 C1536 1.368 . S
C1540 C1539 1.523 . S
H1541 C1516 0.950 . S
H1542 C1518 0.950 . S
H1543 C1519 0.949 . S
H1544 C1521 0.950 . S
H1545 C1523 0.950 . S
C1546 C1547 1.349 . S
C1546 C1548 1.327 . S
C1546 H1571 0.950 . S
C1547 C1546 1.349 . S
C1547 C1563 1.349 . S
C1548 C1546 1.327 . S
C1548 C1567 1.429 . S
C1548 H1572 0.950 . S
C1549 C1566 1.574 . S
C1549 C1568 1.368 . S
C1549 H1573 0.949 . S
H1550 C1554 0.949 . S
C1551 C1552 1.349 . S
C1551 C1553 1.327 . S
C1551 H1574 0.950 . S
C1552 C1551 1.349 . S
C1552 C1564 1.349 . S
C1553 C1551 1.327 . S
C1553 C1569 1.429 . S
C1553 H1575 0.950 . S
C1554 H1550 0.949 . S
C1554 C1562 1.574 . S
C1554 C1570 1.368 . S
H1555 C1563 0.950 . S
H1556 C1561 0.950 . S
H1557 C1562 0.949 . S
H1558 C1564 0.950 . S
H1559 C1565 0.950 . S
H1560 C1566 0.949 . S
C1561 H1556 0.950 . S
C1561 C1563 1.327 . S
C1561 C1567 1.429 . S
C1562 C1554 1.574 . S
C1562 H1557 0.949 . S
C1562 C1568 1.368 . S
C1563 C1547 1.349 . S
C1563 H1555 0.950 . S
C1563 C1561 1.327 . S
C1564 C1552 1.349 . S
C1564 H1558 0.950 . S
C1564 C1565 1.327 . S
C1565 H1559 0.950 . S
C1565 C1564 1.327 . S
C1565 C1569 1.429 . S
C1566 C1549 1.574 . S
C1566 H1560 0.949 . S
C1566 C1570 1.368 . S
C1567 C1548 1.429 . S
C1567 C1561 1.429 . S
C1567 C1568 1.523 . S
C1568 C1549 1.368 . S
C1568 C1562 1.368 . S
C1568 C1567 1.523 . S
C1569 C1553 1.429 . S
C1569 C1565 1.429 . S
C1569 C1570 1.523 . S
C1570 C1554 1.368 . S
C1570 C1566 1.368 . S
C1570 C1569 1.523 . S
H1571 C1546 0.950 . S
H1572 C1548 0.950 . S
H1573 C1549 0.949 . S
H1574 C1551 0.950 . S
H1575 C1553 0.950 . S
C1576 C1577 1.349 . S
C1576 C1578 1.327 . S
C1576 H1601 0.950 . S
C1577 C1576 1.349 . S
C1577 C1593 1.349 . S
C1578 C1576 1.327 . S
C1578 C1597 1.429 . S
C1578 H1602 0.950 . S
C1579 C1596 1.574 . S
C1579 C1598 1.368 . S
C1579 H1603 0.949 . S
H1580 C1584 0.949 . S
C1581 C1582 1.349 . S
C1581 C1583 1.327 . S
C1581 H1604 0.950 . S
C1582 C1581 1.349 . S
C1582 C1594 1.349 . S
C1583 C1581 1.327 . S
C1583 C1599 1.429 . S
C1583 H1605 0.950 . S
C1584 H1580 0.949 . S
C1584 C1592 1.574 . S
C1584 C1600 1.368 . S
H1585 C1593 0.950 . S
H1586 C1591 0.950 . S
H1587 C1592 0.949 . S
H1588 C1594 0.950 . S
H1589 C1595 0.950 . S
H1590 C1596 0.949 . S
C1591 H1586 0.950 . S
C1591 C1593 1.327 . S
C1591 C1597 1.429 . S
C1592 C1584 1.574 . S
C1592 H1587 0.949 . S
C1592 C1598 1.368 . S
C1593 C1577 1.349 . S
C1593 H1585 0.950 . S
C1593 C1591 1.327 . S
C1594 C1582 1.349 . S
C1594 H1588 0.950 . S
C1594 C1595 1.327 . S
C1595 H1589 0.950 . S
C1595 C1594 1.327 . S
C1595 C1599 1.429 . S
C1596 C1579 1.574 . S
C1596 H1590 0.949 . S
C1596 C1600 1.368 . S
C1597 C1578 1.429 . S
C1597 C1591 1.429 . S
C1597 C1598 1.523 . S
C1598 C1579 1.368 . S
C1598 C1592 1.368 . S
C1598 C1597 1.523 . S
C1599 C1583 1.429 . S
C1599 C1595 1.429 . S
C1599 C1600 1.523 . S
C1600 C1584 1.368 . S
C1600 C1596 1.368 . S
C1600 C1599 1.523 . S
H1601 C1576 0.950 . S
H1602 C1578 0.950 . S
H1603 C1579 0.949 . S
H1604 C1581 0.950 . S
H1605 C1583 0.950 . S
C1606 C1607 1.349 . S
C1606 C1608 1.327 . S
C1606 H1631 0.950 . S
C1607 C1606 1.349 . S
C1607 C1623 1.349 . S
C1608 C1606 1.327 . S
C1608 C1627 1.429 . S
C1608 H1632 0.950 . S
C1609 C1626 1.574 . S
C1609 C1628 1.368 . S
C1609 H1633 0.949 . S
H1610 C1614 0.949 . S
C1611 C1612 1.349 . S
C1611 C1613 1.327 . S
C1611 H1634 0.950 . S
C1612 C1611 1.349 . S
C1612 C1624 1.349 . S
C1613 C1611 1.327 . S
C1613 C1629 1.429 . S
C1613 H1635 0.950 . S
C1614 H1610 0.949 . S
C1614 C1622 1.574 . S
C1614 C1630 1.368 . S
H1615 C1623 0.950 . S
H1616 C1621 0.950 . S
H1617 C1622 0.949 . S
H1618 C1624 0.950 . S
H1619 C1625 0.950 . S
H1620 C1626 0.949 . S
C1621 H1616 0.950 . S
C1621 C1623 1.327 . S
C1621 C1627 1.429 . S
C1622 C1614 1.574 . S
C1622 H1617 0.949 . S
C1622 C1628 1.368 . S
C1623 C1607 1.349 . S
C1623 H1615 0.950 . S
C1623 C1621 1.327 . S
C1624 C1612 1.349 . S
C1624 H1618 0.950 . S
C1624 C1625 1.327 . S
C1625 H1619 0.950 . S
C1625 C1624 1.327 . S
C1625 C1629 1.429 . S
C1626 C1609 1.574 . S
C1626 H1620 0.949 . S
C1626 C1630 1.368 . S
C1627 C1608 1.429 . S
C1627 C1621 1.429 . S
C1627 C1628 1.523 . S
C1628 C1609 1.368 . S
C1628 C1622 1.368 . S
C1628 C1627 1.523 . S
C1629 C1613 1.429 . S
C1629 C1625 1.429 . S
C1629 C1630 1.523 . S
C1630 C1614 1.368 . S
C1630 C1626 1.368 . S
C1630 C1629 1.523 . S
H1631 C1606 0.950 . S
H1632 C1608 0.950 . S
H1633 C1609 0.949 . S
H1634 C1611 0.950 . S
H1635 C1613 0.950 . S
C1636 C1637 1.349 . S
C1636 C1638 1.327 . S
C1636 H1661 0.950 . S
C1637 C1636 1.349 . S
C1637 C1653 1.349 . S
C1638 C1636 1.327 . S
C1638 C1657 1.429 . S
C1638 H1662 0.950 . S
C1639 C1656 1.574 . S
C1639 C1658 1.368 . S
C1639 H1663 0.949 . S
H1640 C1644 0.949 . S
C1641 C1642 1.349 . S
C1641 C1643 1.327 . S
C1641 H1664 0.950 . S
C1642 C1641 1.349 . S
C1642 C1654 1.349 . S
C1643 C1641 1.327 . S
C1643 C1659 1.429 . S
C1643 H1665 0.950 . S
C1644 H1640 0.949 . S
C1644 C1652 1.574 . S
C1644 C1660 1.368 . S
H1645 C1653 0.950 . S
H1646 C1651 0.950 . S
H1647 C1652 0.949 . S
H1648 C1654 0.950 . S
H1649 C1655 0.950 . S
H1650 C1656 0.949 . S
C1651 H1646 0.950 . S
C1651 C1653 1.327 . S
C1651 C1657 1.429 . S
C1652 C1644 1.574 . S
C1652 H1647 0.949 . S
C1652 C1658 1.368 . S
C1653 C1637 1.349 . S
C1653 H1645 0.950 . S
C1653 C1651 1.327 . S
C1654 C1642 1.349 . S
C1654 H1648 0.950 . S
C1654 C1655 1.327 . S
C1655 H1649 0.950 . S
C1655 C1654 1.327 . S
C1655 C1659 1.429 . S
C1656 C1639 1.574 . S
C1656 H1650 0.949 . S
C1656 C1660 1.368 . S
C1657 C1638 1.429 . S
C1657 C1651 1.429 . S
C1657 C1658 1.523 . S
C1658 C1639 1.368 . S
C1658 C1652 1.368 . S
C1658 C1657 1.523 . S
C1659 C1643 1.429 . S
C1659 C1655 1.429 . S
C1659 C1660 1.523 . S
C1660 C1644 1.368 . S
C1660 C1656 1.368 . S
C1660 C1659 1.523 . S
H1661 C1636 0.950 . S
H1662 C1638 0.950 . S
H1663 C1639 0.949 . S
H1664 C1641 0.950 . S
H1665 C1643 0.950 . S
C1666 C1667 1.349 . S
C1666 C1668 1.327 . S
C1666 H1691 0.950 . S
C1667 C1666 1.349 . S
C1667 C1683 1.349 . S
C1668 C1666 1.327 . S
C1668 C1687 1.429 . S
C1668 H1692 0.950 . S
C1669 C1686 1.574 . S
C1669 C1688 1.368 . S
C1669 H1693 0.949 . S
H1670 C1674 0.949 . S
C1671 C1672 1.349 . S
C1671 C1673 1.327 . S
C1671 H1694 0.950 . S
C1672 C1671 1.349 . S
C1672 C1684 1.349 . S
C1673 C1671 1.327 . S
C1673 C1689 1.429 . S
C1673 H1695 0.950 . S
C1674 H1670 0.949 . S
C1674 C1682 1.574 . S
C1674 C1690 1.368 . S
H1675 C1683 0.950 . S
H1676 C1681 0.950 . S
H1677 C1682 0.949 . S
H1678 C1684 0.950 . S
H1679 C1685 0.950 . S
H1680 C1686 0.949 . S
C1681 H1676 0.950 . S
C1681 C1683 1.327 . S
C1681 C1687 1.429 . S
C1682 C1674 1.574 . S
C1682 H1677 0.949 . S
C1682 C1688 1.368 . S
C1683 C1667 1.349 . S
C1683 H1675 0.950 . S
C1683 C1681 1.327 . S
C1684 C1672 1.349 . S
C1684 H1678 0.950 . S
C1684 C1685 1.327 . S
C1685 H1679 0.950 . S
C1685 C1684 1.327 . S
C1685 C1689 1.429 . S
C1686 C1669 1.574 . S
C1686 H1680 0.949 . S
C1686 C1690 1.368 . S
C1687 C1668 1.429 . S
C1687 C1681 1.429 . S
C1687 C1688 1.523 . S
C1688 C1669 1.368 . S
C1688 C1682 1.368 . S
C1688 C1687 1.523 . S
C1689 C1673 1.429 . S
C1689 C1685 1.429 . S
C1689 C1690 1.523 . S
C1690 C1674 1.368 . S
C1690 C1686 1.368 . S
C1690 C1689 1.523 . S
H1691 C1666 0.950 . S
H1692 C1668 0.950 . S
H1693 C1669 0.949 . S
H1694 C1671 0.950 . S
H1695 C1673 0.950 . S
C1696 C1697 1.349 . S
C1696 C1698 1.327 . S
C1696 H1721 0.950 . S
C1697 C1696 1.349 . S
C1697 C1713 1.349 . S
C1698 C1696 1.327 . S
C1698 C1717 1.429 . S
C1698 H1722 0.950 . S
C1699 C1716 1.574 . S
C1699 C1718 1.368 . S
C1699 H1723 0.949 . S
H1700 C1704 0.949 . S
C1701 C1702 1.349 . S
C1701 C1703 1.327 . S
C1701 H1724 0.950 . S
C1702 C1701 1.349 . S
C1702 C1714 1.349 . S
C1703 C1701 1.327 . S
C1703 C1719 1.429 . S
C1703 H1725 0.950 . S
C1704 H1700 0.949 . S
C1704 C1712 1.574 . S
C1704 C1720 1.368 . S
H1705 C1713 0.950 . S
H1706 C1711 0.950 . S
H1707 C1712 0.949 . S
H1708 C1714 0.950 . S
H1709 C1715 0.950 . S
H1710 C1716 0.949 . S
C1711 H1706 0.950 . S
C1711 C1713 1.327 . S
C1711 C1717 1.429 . S
C1712 C1704 1.574 . S
C1712 H1707 0.949 . S
C1712 C1718 1.368 . S
C1713 C1697 1.349 . S
C1713 H1705 0.950 . S
C1713 C1711 1.327 . S
C1714 C1702 1.349 . S
C1714 H1708 0.950 . S
C1714 C1715 1.327 . S
C1715 H1709 0.950 . S
C1715 C1714 1.327 . S
C1715 C1719 1.429 . S
C1716 C1699 1.574 . S
C1716 H1710 0.949 . S
C1716 C1720 1.368 . S
C1717 C1698 1.429 . S
C1717 C1711 1.429 . S
C1717 C1718 1.523 . S
C1718 C1699 1.368 . S
C1718 C1712 1.368 . S
C1718 C1717 1.523 . S
C1719 C1703 1.429 . S
C1719 C1715 1.429 . S
C1719 C1720 1.523 . S
C1720 C1704 1.368 . S
C1720 C1716 1.368 . S
C1720 C1719 1.523 . S
H1721 C1696 0.950 . S
H1722 C1698 0.950 . S
H1723 C1699 0.949 . S
H1724 C1701 0.950 . S
H1725 C1703 0.950 . S
C1726 C1727 1.349 . S
C1726 C1728 1.327 . S
C1726 H1751 0.950 . S
C1727 C1726 1.349 . S
C1727 C1743 1.349 . S
C1728 C1726 1.327 . S
C1728 C1747 1.429 . S
C1728 H1752 0.950 . S
C1729 C1746 1.574 . S
C1729 C1748 1.368 . S
C1729 H1753 0.949 . S
H1730 C1734 0.949 . S
C1731 C1732 1.349 . S
C1731 C1733 1.327 . S
C1731 H1754 0.950 . S
C1732 C1731 1.349 . S
C1732 C1744 1.349 . S
C1733 C1731 1.327 . S
C1733 C1749 1.429 . S
C1733 H1755 0.950 . S
C1734 H1730 0.949 . S
C1734 C1742 1.574 . S
C1734 C1750 1.368 . S
H1735 C1743 0.950 . S
H1736 C1741 0.950 . S
H1737 C1742 0.949 . S
H1738 C1744 0.950 . S
H1739 C1745 0.950 . S
H1740 C1746 0.949 . S
C1741 H1736 0.950 . S
C1741 C1743 1.327 . S
C1741 C1747 1.429 . S
C1742 C1734 1.574 . S
C1742 H1737 0.949 . S
C1742 C1748 1.368 . S
C1743 C1727 1.349 . S
C1743 H1735 0.950 . S
C1743 C1741 1.327 . S
C1744 C1732 1.349 . S
C1744 H1738 0.950 . S
C1744 C1745 1.327 . S
C1745 H1739 0.950 . S
C1745 C1744 1.327 . S
C1745 C1749 1.429 . S
C1746 C1729 1.574 . S
C1746 H1740 0.949 . S
C1746 C1750 1.368 . S
C1747 C1728 1.429 . S
C1747 C1741 1.429 . S
C1747 C1748 1.523 . S
C1748 C1729 1.368 . S
C1748 C1742 1.368 . S
C1748 C1747 1.523 . S
C1749 C1733 1.429 . S
C1749 C1745 1.429 . S
C1749 C1750 1.523 . S
C1750 C1734 1.368 . S
C1750 C1746 1.368 . S
C1750 C1749 1.523 . S
H1751 C1726 0.950 . S
H1752 C1728 0.950 . S
H1753 C1729 0.949 . S
H1754 C1731 0.950 . S
H1755 C1733 0.950 . S
C1756 C1757 1.349 . S
C1756 C1758 1.327 . S
C1756 H1781 0.950 . S
C1757 C1756 1.349 . S
C1757 C1773 1.349 . S
C1758 C1756 1.327 . S
C1758 C1777 1.429 . S
C1758 H1782 0.950 . S
C1759 C1776 1.574 . S
C1759 C1778 1.368 . S
C1759 H1783 0.949 . S
H1760 C1764 0.949 . S
C1761 C1762 1.349 . S
C1761 C1763 1.327 . S
C1761 H1784 0.950 . S
C1762 C1761 1.349 . S
C1762 C1774 1.349 . S
C1763 C1761 1.327 . S
C1763 C1779 1.429 . S
C1763 H1785 0.950 . S
C1764 H1760 0.949 . S
C1764 C1772 1.574 . S
C1764 C1780 1.368 . S
H1765 C1773 0.950 . S
H1766 C1771 0.950 . S
H1767 C1772 0.949 . S
H1768 C1774 0.950 . S
H1769 C1775 0.950 . S
H1770 C1776 0.949 . S
C1771 H1766 0.950 . S
C1771 C1773 1.327 . S
C1771 C1777 1.429 . S
C1772 C1764 1.574 . S
C1772 H1767 0.949 . S
C1772 C1778 1.368 . S
C1773 C1757 1.349 . S
C1773 H1765 0.950 . S
C1773 C1771 1.327 . S
C1774 C1762 1.349 . S
C1774 H1768 0.950 . S
C1774 C1775 1.327 . S
C1775 H1769 0.950 . S
C1775 C1774 1.327 . S
C1775 C1779 1.429 . S
C1776 C1759 1.574 . S
C1776 H1770 0.949 . S
C1776 C1780 1.368 . S
C1777 C1758 1.429 . S
C1777 C1771 1.429 . S
C1777 C1778 1.523 . S
C1778 C1759 1.368 . S
C1778 C1772 1.368 . S
C1778 C1777 1.523 . S
C1779 C1763 1.429 . S
C1779 C1775 1.429 . S
C1779 C1780 1.523 . S
C1780 C1764 1.368 . S
C1780 C1776 1.368 . S
C1780 C1779 1.523 . S
H1781 C1756 0.950 . S
H1782 C1758 0.950 . S
H1783 C1759 0.949 . S
H1784 C1761 0.950 . S
H1785 C1763 0.950 . S
C1786 C1787 1.349 . S
C1786 C1788 1.327 . S
C1786 H1811 0.950 . S
C1787 C1786 1.349 . S
C1787 C1803 1.349 . S
C1788 C1786 1.327 . S
C1788 C1807 1.429 . S
C1788 H1812 0.950 . S
C1789 C1806 1.574 . S
C1789 C1808 1.368 . S
C1789 H1813 0.949 . S
H1790 C1794 0.949 . S
C1791 C1792 1.349 . S
C1791 C1793 1.327 . S
C1791 H1814 0.950 . S
C1792 C1791 1.349 . S
C1792 C1804 1.349 . S
C1793 C1791 1.327 . S
C1793 C1809 1.429 . S
C1793 H1815 0.950 . S
C1794 H1790 0.949 . S
C1794 C1802 1.574 . S
C1794 C1810 1.368 . S
H1795 C1803 0.950 . S
H1796 C1801 0.950 . S
H1797 C1802 0.949 . S
H1798 C1804 0.950 . S
H1799 C1805 0.950 . S
H1800 C1806 0.949 . S
C1801 H1796 0.950 . S
C1801 C1803 1.327 . S
C1801 C1807 1.429 . S
C1802 C1794 1.574 . S
C1802 H1797 0.949 . S
C1802 C1808 1.368 . S
C1803 C1787 1.349 . S
C1803 H1795 0.950 . S
C1803 C1801 1.327 . S
C1804 C1792 1.349 . S
C1804 H1798 0.950 . S
C1804 C1805 1.327 . S
C1805 H1799 0.950 . S
C1805 C1804 1.327 . S
C1805 C1809 1.429 . S
C1806 C1789 1.574 . S
C1806 H1800 0.949 . S
C1806 C1810 1.368 . S
C1807 C1788 1.429 . S
C1807 C1801 1.429 . S
C1807 C1808 1.523 . S
C1808 C1789 1.368 . S
C1808 C1802 1.368 . S
C1808 C1807 1.523 . S
C1809 C1793 1.429 . S
C1809 C1805 1.429 . S
C1809 C1810 1.523 . S
C1810 C1794 1.368 . S
C1810 C1806 1.368 . S
C1810 C1809 1.523 . S
H1811 C1786 0.950 . S
H1812 C1788 0.950 . S
H1813 C1789 0.949 . S
H1814 C1791 0.950 . S
H1815 C1793 0.950 . S
C1816 C1817 1.313 1_655 S
C1816 C1818 1.327 . S
C1816 H1841 0.950 . S
C1817 C1816 1.313 1_455 S
C1817 C1833 1.390 . S
C1818 C1816 1.327 . S
C1818 C1837 1.429 1_655 S
C1818 H1842 0.950 . S
C1819 C1836 1.574 . S
C1819 C1838 1.368 . S
C1819 H1843 0.949 . S
H1820 C1824 0.949 . S
C1821 C1822 1.349 . S
C1821 C1823 1.327 . S
C1821 H1844 0.950 . S
C1822 C1821 1.349 . S
C1822 C1834 1.349 1_455 S
C1823 C1821 1.327 . S
C1823 C1839 1.429 . S
C1823 H1845 0.950 . S
C1824 H1820 0.949 . S
C1824 C1832 1.574 . S
C1824 C1840 1.368 1_655 S
H1825 C1833 0.950 . S
H1826 C1831 0.950 . S
H1827 C1832 0.949 . S
H1828 C1834 0.950 . S
H1829 C1835 0.950 . S
H1830 C1836 0.949 . S
C1831 H1826 0.950 . S
C1831 C1833 1.327 . S
C1831 C1837 1.429 . S
C1832 C1824 1.574 . S
C1832 H1827 0.949 . S
C1832 C1838 1.368 1_655 S
C1833 C1817 1.390 . S
C1833 H1825 0.950 . S
C1833 C1831 1.327 . S
C1834 C1822 1.349 1_655 S
C1834 H1828 0.950 . S
C1834 C1835 1.327 . S
C1835 H1829 0.950 . S
C1835 C1834 1.327 . S
C1835 C1839 1.429 1_655 S
C1836 C1819 1.574 . S
C1836 H1830 0.949 . S
C1836 C1840 1.368 . S
C1837 C1818 1.429 1_455 S
C1837 C1831 1.429 . S
C1837 C1838 1.523 . S
C1838 C1819 1.368 . S
C1838 C1832 1.368 1_455 S
C1838 C1837 1.523 . S
C1839 C1823 1.429 . S
C1839 C1835 1.429 1_455 S
C1839 C1840 1.523 . S
C1840 C1824 1.368 1_455 S
C1840 C1836 1.368 . S
C1840 C1839 1.523 . S
H1841 C1816 0.950 . S
H1842 C1818 0.950 . S
H1843 C1819 0.949 . S
H1844 C1821 0.950 . S
H1845 C1823 0.950 . S
C1846 C1847 1.349 . S
C1846 C1848 1.327 . S
C1846 H1871 0.950 . S
C1847 C1846 1.349 . S
C1847 C1863 1.349 . S
C1848 C1846 1.327 . S
C1848 C1867 1.429 . S
C1848 H1872 0.950 . S
C1849 C1866 1.574 . S
C1849 C1868 1.368 . S
C1849 H1873 0.949 . S
H1850 C1854 0.949 . S
C1851 C1852 1.349 . S
C1851 C1853 1.327 . S
C1851 H1874 0.950 . S
C1852 C1851 1.349 . S
C1852 C1864 1.349 . S
C1853 C1851 1.327 . S
C1853 C1869 1.429 . S
C1853 H1875 0.950 . S
C1854 H1850 0.949 . S
C1854 C1862 1.574 . S
C1854 C1870 1.368 . S
H1855 C1863 0.950 . S
H1856 C1861 0.950 . S
H1857 C1862 0.949 . S
H1858 C1864 0.950 . S
H1859 C1865 0.950 . S
H1860 C1866 0.949 . S
C1861 H1856 0.950 . S
C1861 C1863 1.327 . S
C1861 C1867 1.429 . S
C1862 C1854 1.574 . S
C1862 H1857 0.949 . S
C1862 C1868 1.368 . S
C1863 C1847 1.349 . S
C1863 H1855 0.950 . S
C1863 C1861 1.327 . S
C1864 C1852 1.349 . S
C1864 H1858 0.950 . S
C1864 C1865 1.327 . S
C1865 H1859 0.950 . S
C1865 C1864 1.327 . S
C1865 C1869 1.429 . S
C1866 C1849 1.574 . S
C1866 H1860 0.949 . S
C1866 C1870 1.368 . S
C1867 C1848 1.429 . S
C1867 C1861 1.429 . S
C1867 C1868 1.523 . S
C1868 C1849 1.368 . S
C1868 C1862 1.368 . S
C1868 C1867 1.523 . S
C1869 C1853 1.429 . S
C1869 C1865 1.429 . S
C1869 C1870 1.523 . S
C1870 C1854 1.368 . S
C1870 C1866 1.368 . S
C1870 C1869 1.523 . S
H1871 C1846 0.950 . S
H1872 C1848 0.950 . S
H1873 C1849 0.949 . S
H1874 C1851 0.950 . S
H1875 C1853 0.950 . S
C1876 C1877 1.349 . S
C1876 C1878 1.327 . S
C1876 H1901 0.950 . S
C1877 C1876 1.349 . S
C1877 C1893 1.349 . S
C1878 C1876 1.327 . S
C1878 C1897 1.429 . S
C1878 H1902 0.950 . S
C1879 C1896 1.574 . S
C1879 C1898 1.368 . S
C1879 H1903 0.949 . S
H1880 C1884 0.949 . S
C1881 C1882 1.349 1_556 S
C1881 C1883 1.327 . S
C1881 H1904 0.950 . S
C1882 C1881 1.349 1_554 S
C1882 C1894 1.349 . S
C1883 C1881 1.327 . S
C1883 C1899 1.429 . S
C1883 H1905 0.950 . S
C1884 H1880 0.949 . S
C1884 C1892 1.574 . S
C1884 C1900 1.368 . S
H1885 C1893 0.950 . S
H1886 C1891 0.950 . S
H1887 C1892 0.949 . S
H1888 C1894 0.950 . S
H1889 C1895 0.950 . S
H1890 C1896 0.949 . S
C1891 H1886 0.950 . S
C1891 C1893 1.327 . S
C1891 C1897 1.429 . S
C1892 C1884 1.574 . S
C1892 H1887 0.949 . S
C1892 C1898 1.368 . S
C1893 C1877 1.349 . S
C1893 H1885 0.950 . S
C1893 C1891 1.327 . S
C1894 C1882 1.349 . S
C1894 H1888 0.950 . S
C1894 C1895 1.327 1_554 S
C1895 H1889 0.950 . S
C1895 C1894 1.327 1_556 S
C1895 C1899 1.429 . S
C1896 C1879 1.574 . S
C1896 H1890 0.949 . S
C1896 C1900 1.368 . S
C1897 C1878 1.429 . S
C1897 C1891 1.429 . S
C1897 C1898 1.523 . S
C1898 C1879 1.368 . S
C1898 C1892 1.368 . S
C1898 C1897 1.523 . S
C1899 C1883 1.429 . S
C1899 C1895 1.429 . S
C1899 C1900 1.523 . S
C1900 C1884 1.368 . S
C1900 C1896 1.368 . S
C1900 C1899 1.523 . S
H1901 C1876 0.950 . S
H1902 C1878 0.950 . S
H1903 C1879 0.949 . S
H1904 C1881 0.950 . S
H1905 C1883 0.950 . S
C1906 C1907 1.349 . S
C1906 C1908 1.327 . S
C1906 H1931 0.950 . S
C1907 C1906 1.349 . S
C1907 C1923 1.332 1_455 S
C1908 C1906 1.327 . S
C1908 C1927 1.429 1_455 S
C1908 H1932 0.954 . S
C1909 C1926 1.574 . S
C1909 C1928 1.368 . S
C1909 H1933 0.949 . S
H1910 C1914 0.949 . S
C1911 C1912 1.349 . S
C1911 C1913 1.327 . S
C1911 H1934 0.950 . S
C1912 C1911 1.349 . S
C1912 C1924 1.349 . S
C1913 C1911 1.327 . S
C1913 C1929 1.429 . S
C1913 H1935 0.950 . S
C1914 H1910 0.949 . S
C1914 C1922 1.574 . S
C1914 C1930 1.368 . S
H1915 C1923 0.948 . S
H1916 C1921 0.950 . S
H1917 C1922 0.949 . S
H1918 C1924 0.950 . S
H1919 C1925 0.950 . S
H1920 C1926 0.949 . S
C1921 H1916 0.950 . S
C1921 C1923 1.347 . S
C1921 C1927 1.429 . S
C1922 C1914 1.574 . S
C1922 H1917 0.949 . S
C1922 C1928 1.368 . S
C1923 C1907 1.332 1_655 S
C1923 H1915 0.948 . S
C1923 C1921 1.347 . S
C1924 C1912 1.349 . S
C1924 H1918 0.950 . S
C1924 C1925 1.327 . S
C1925 H1919 0.950 . S
C1925 C1924 1.327 . S
C1925 C1929 1.429 . S
C1926 C1909 1.574 . S
C1926 H1920 0.949 . S
C1926 C1930 1.368 . S
C1927 C1908 1.429 1_655 S
C1927 C1921 1.429 . S
C1927 C1928 1.523 . S
C1928 C1909 1.368 . S
C1928 C1922 1.368 . S
C1928 C1927 1.523 . S
C1929 C1913 1.429 . S
C1929 C1925 1.429 . S
C1929 C1930 1.523 . S
C1930 C1914 1.368 . S
C1930 C1926 1.368 . S
C1930 C1929 1.523 . S
H1931 C1906 0.950 . S
H1932 C1908 0.954 . S
H1933 C1909 0.949 . S
H1934 C1911 0.950 . S
H1935 C1913 0.950 . S
C1936 C1937 1.349 . S
C1936 C1938 1.327 . S
C1936 H1961 0.950 . S
C1937 C1936 1.349 . S
C1937 C1953 1.349 . S
C1938 C1936 1.327 . S
C1938 C1957 1.429 . S
C1938 H1962 0.950 . S
C1939 C1956 1.574 . S
C1939 C1958 1.368 . S
C1939 H1963 0.949 1_545 S
H1940 C1944 0.949 . S
C1941 C1942 1.349 1_565 S
C1941 C1943 1.329 . S
C1941 H1964 0.950 . S
C1942 C1941 1.349 1_545 S
C1942 C1954 1.349 . S
C1943 C1941 1.329 . S
C1943 C1959 1.411 1_565 S
C1943 H1965 0.966 . S
C1944 H1940 0.949 . S
C1944 C1952 1.574 . S
C1944 C1960 1.368 . S
H1945 C1953 0.950 . S
H1946 C1951 0.950 1_565 S
H1947 C1952 0.949 . S
H1948 C1954 0.950 . S
H1949 C1955 0.950 . S
H1950 C1956 0.949 1_565 S
C1951 H1946 0.950 1_545 S
C1951 C1953 1.327 . S
C1951 C1957 1.429 . S
C1952 C1944 1.574 . S
C1952 H1947 0.949 . S
C1952 C1958 1.368 . S
C1953 C1937 1.349 . S
C1953 H1945 0.950 . S
C1953 C1951 1.327 . S
C1954 C1942 1.349 . S
C1954 H1948 0.950 . S
C1954 C1955 1.327 . S
C1955 H1949 0.950 . S
C1955 C1954 1.327 . S
C1955 C1959 1.429 . S
C1956 C1939 1.574 . S
C1956 H1950 0.949 1_545 S
C1956 C1960 1.368 . S
C1957 C1938 1.429 . S
C1957 C1951 1.429 . S
C1957 C1958 1.523 . S
C1958 C1939 1.368 . S
C1958 C1952 1.368 . S
C1958 C1957 1.523 . S
C1959 C1943 1.411 1_545 S
C1959 C1955 1.429 . S
C1959 C1960 1.523 . S
C1960 C1944 1.368 . S
C1960 C1956 1.368 . S
C1960 C1959 1.523 . S
H1961 C1936 0.950 . S
H1962 C1938 0.950 . S
H1963 C1939 0.949 1_565 S
H1964 C1941 0.950 . S
H1965 C1943 0.966 . S
C1966 C1967 1.349 . S
C1966 C1968 1.327 . S
C1966 H1991 0.950 . S
C1967 C1966 1.349 . S
C1967 C1983 1.349 . S
C1968 C1966 1.327 . S
C1968 C1987 1.429 . S
C1968 H1992 0.950 . S
C1969 C1986 1.574 . S
C1969 C1988 1.368 . S
C1969 H1993 0.949 . S
H1970 C1974 0.949 . S
C1971 C1972 1.349 . S
C1971 C1973 1.327 . S
C1971 H1994 0.950 . S
C1972 C1971 1.349 . S
C1972 C1984 1.349 . S
C1973 C1971 1.327 . S
C1973 C1989 1.429 . S
C1973 H1995 0.950 . S
C1974 H1970 0.949 . S
C1974 C1982 1.574 . S
C1974 C1990 1.368 . S
H1975 C1983 0.950 . S
H1976 C1981 0.950 . S
H1977 C1982 0.949 . S
H1978 C1984 0.950 . S
H1979 C1985 0.950 . S
H1980 C1986 0.949 . S
C1981 H1976 0.950 . S
C1981 C1983 1.327 . S
C1981 C1987 1.429 . S
C1982 C1974 1.574 . S
C1982 H1977 0.949 . S
C1982 C1988 1.368 . S
C1983 C1967 1.349 . S
C1983 H1975 0.950 . S
C1983 C1981 1.327 . S
C1984 C1972 1.349 . S
C1984 H1978 0.950 . S
C1984 C1985 1.327 . S
C1985 H1979 0.950 . S
C1985 C1984 1.327 . S
C1985 C1989 1.429 . S
C1986 C1969 1.574 . S
C1986 H1980 0.949 . S
C1986 C1990 1.368 . S
C1987 C1968 1.429 . S
C1987 C1981 1.429 . S
C1987 C1988 1.523 . S
C1988 C1969 1.368 . S
C1988 C1982 1.368 . S
C1988 C1987 1.523 . S
C1989 C1973 1.429 . S
C1989 C1985 1.429 . S
C1989 C1990 1.523 . S
C1990 C1974 1.368 . S
C1990 C1986 1.368 . S
C1990 C1989 1.523 . S
H1991 C1966 0.950 . S
H1992 C1968 0.950 . S
H1993 C1969 0.949 . S
H1994 C1971 0.950 . S
H1995 C1973 0.950 . S
C1996 C1997 1.349 . S
C1996 C1998 1.327 . S
C1996 H2021 0.950 . S
C1997 C1996 1.349 . S
C1997 C2013 1.349 . S
C1998 C1996 1.327 . S
C1998 C2017 1.429 . S
C1998 H2022 0.950 . S
C1999 C2016 1.574 . S
C1999 C2018 1.368 . S
C1999 H2023 0.949 . S
H2000 C2004 0.949 . S
C2001 C2002 1.349 . S
C2001 C2003 1.327 . S
C2001 H2024 0.950 . S
C2002 C2001 1.349 . S
C2002 C2014 1.349 . S
C2003 C2001 1.327 . S
C2003 C2019 1.429 . S
C2003 H2025 0.950 . S
C2004 H2000 0.949 . S
C2004 C2012 1.574 . S
C2004 C2020 1.368 . S
H2005 C2013 0.950 . S
H2006 C2011 0.950 . S
H2007 C2012 0.949 . S
H2008 C2014 0.950 . S
H2009 C2015 0.950 . S
H2010 C2016 0.949 . S
C2011 H2006 0.950 . S
C2011 C2013 1.327 . S
C2011 C2017 1.429 . S
C2012 C2004 1.574 . S
C2012 H2007 0.949 . S
C2012 C2018 1.368 . S
C2013 C1997 1.349 . S
C2013 H2005 0.950 . S
C2013 C2011 1.327 . S
C2014 C2002 1.349 . S
C2014 H2008 0.950 . S
C2014 C2015 1.327 . S
C2015 H2009 0.950 . S
C2015 C2014 1.327 . S
C2015 C2019 1.429 . S
C2016 C1999 1.574 . S
C2016 H2010 0.949 . S
C2016 C2020 1.368 . S
C2017 C1998 1.429 . S
C2017 C2011 1.429 . S
C2017 C2018 1.523 . S
C2018 C1999 1.368 . S
C2018 C2012 1.368 . S
C2018 C2017 1.523 . S
C2019 C2003 1.429 . S
C2019 C2015 1.429 . S
C2019 C2020 1.523 . S
C2020 C2004 1.368 . S
C2020 C2016 1.368 . S
C2020 C2019 1.523 . S
H2021 C1996 0.950 . S
H2022 C1998 0.950 . S
H2023 C1999 0.949 . S
H2024 C2001 0.950 . S
H2025 C2003 0.950 . S
C2026 C2027 1.349 . S
C2026 C2028 1.327 . S
C2026 H2051 0.950 . S
C2027 C2026 1.349 . S
C2027 C2043 1.349 . S
C2028 C2026 1.327 . S
C2028 C2047 1.429 . S
C2028 H2052 0.950 . S
C2029 C2046 1.574 . S
C2029 C2048 1.368 . S
C2029 H2053 0.949 . S
H2030 C2034 0.949 . S
C2031 C2032 1.349 . S
C2031 C2033 1.327 . S
C2031 H2054 0.950 . S
C2032 C2031 1.349 . S
C2032 C2044 1.349 . S
C2033 C2031 1.327 . S
C2033 C2049 1.429 . S
C2033 H2055 0.950 . S
C2034 H2030 0.949 . S
C2034 C2042 1.574 . S
C2034 C2050 1.368 . S
H2035 C2043 0.950 . S
H2036 C2041 0.950 . S
H2037 C2042 0.949 . S
H2038 C2044 0.950 . S
H2039 C2045 0.950 . S
H2040 C2046 0.949 . S
C2041 H2036 0.950 . S
C2041 C2043 1.327 . S
C2041 C2047 1.429 . S
C2042 C2034 1.574 . S
C2042 H2037 0.949 . S
C2042 C2048 1.368 . S
C2043 C2027 1.349 . S
C2043 H2035 0.950 . S
C2043 C2041 1.327 . S
C2044 C2032 1.349 . S
C2044 H2038 0.950 . S
C2044 C2045 1.327 . S
C2045 H2039 0.950 . S
C2045 C2044 1.327 . S
C2045 C2049 1.429 . S
C2046 C2029 1.574 . S
C2046 H2040 0.949 . S
C2046 C2050 1.368 . S
C2047 C2028 1.429 . S
C2047 C2041 1.429 . S
C2047 C2048 1.523 . S
C2048 C2029 1.368 . S
C2048 C2042 1.368 . S
C2048 C2047 1.523 . S
C2049 C2033 1.429 . S
C2049 C2045 1.429 . S
C2049 C2050 1.523 . S
C2050 C2034 1.368 . S
C2050 C2046 1.368 . S
C2050 C2049 1.523 . S
H2051 C2026 0.950 . S
H2052 C2028 0.950 . S
H2053 C2029 0.949 . S
H2054 C2031 0.950 . S
H2055 C2033 0.950 . S
C2056 C2057 1.349 . S
C2056 C2058 1.327 . S
C2056 H2081 0.950 1_545 S
C2057 C2056 1.349 . S
C2057 C2073 1.349 . S
C2058 C2056 1.327 . S
C2058 C2077 1.429 . S
C2058 H2082 0.950 1_545 S
C2059 C2076 1.574 . S
C2059 C2078 1.368 . S
C2059 H2083 0.949 . S
H2060 C2064 0.927 1_565 S
C2061 C2062 1.349 . S
C2061 C2063 1.327 . S
C2061 H2084 0.950 . S
C2062 C2061 1.349 . S
C2062 C2074 1.344 . S
C2063 C2061 1.327 . S
C2063 C2079 1.429 . S
C2063 H2085 0.950 . S
C2064 H2060 0.927 1_545 S
C2064 C2072 1.567 . S
C2064 C2080 1.401 . S
H2065 C2073 0.950 . S
H2066 C2071 0.950 . S
H2067 C2072 0.949 1_565 S
H2068 C2074 0.953 1_565 S
H2069 C2075 0.943 1_565 S
H2070 C2076 0.949 . S
C2071 H2066 0.950 . S
C2071 C2073 1.327 . S
C2071 C2077 1.429 . S
C2072 C2064 1.567 . S
C2072 H2067 0.949 1_545 S
C2072 C2078 1.368 . S
C2073 C2057 1.349 . S
C2073 H2065 0.950 . S
C2073 C2071 1.327 . S
C2074 C2062 1.344 . S
C2074 H2068 0.953 1_545 S
C2074 C2075 1.330 . S
C2075 H2069 0.943 1_545 S
C2075 C2074 1.330 . S
C2075 C2079 1.433 . S
C2076 C2059 1.574 . S
C2076 H2070 0.949 . S
C2076 C2080 1.368 . S
C2077 C2058 1.429 . S
C2077 C2071 1.429 . S
C2077 C2078 1.523 . S
C2078 C2059 1.368 . S
C2078 C2072 1.368 . S
C2078 C2077 1.523 . S
C2079 C2063 1.429 . S
C2079 C2075 1.433 . S
C2079 C2080 1.523 . S
C2080 C2064 1.401 . S
C2080 C2076 1.368 . S
C2080 C2079 1.523 . S
H2081 C2056 0.950 1_565 S
H2082 C2058 0.950 1_565 S
H2083 C2059 0.949 . S
H2084 C2061 0.950 . S
H2085 C2063 0.950 . S
C2086 C2087 1.349 . S
C2086 C2088 1.327 . S
C2086 H2111 0.950 . S
C2087 C2086 1.349 . S
C2087 C2103 1.349 . S
C2088 C2086 1.327 . S
C2088 C2107 1.429 . S
C2088 H2112 0.950 . S
C2089 C2106 1.574 . S
C2089 C2108 1.368 . S
C2089 H2113 0.949 . S
H2090 C2094 0.949 . S
C2091 C2092 1.349 . S
C2091 C2093 1.327 . S
C2091 H2114 0.950 . S
C2092 C2091 1.349 . S
C2092 C2104 1.349 . S
C2093 C2091 1.327 . S
C2093 C2109 1.429 . S
C2093 H2115 0.950 . S
C2094 H2090 0.949 . S
C2094 C2102 1.574 . S
C2094 C2110 1.368 . S
H2095 C2103 0.950 . S
H2096 C2101 0.950 . S
H2097 C2102 0.949 . S
H2098 C2104 0.950 . S
H2099 C2105 0.950 . S
H2100 C2106 0.949 . S
C2101 H2096 0.950 . S
C2101 C2103 1.327 . S
C2101 C2107 1.429 . S
C2102 C2094 1.574 . S
C2102 H2097 0.949 . S
C2102 C2108 1.368 . S
C2103 C2087 1.349 . S
C2103 H2095 0.950 . S
C2103 C2101 1.327 . S
C2104 C2092 1.349 . S
C2104 H2098 0.950 . S
C2104 C2105 1.327 . S
C2105 H2099 0.950 . S
C2105 C2104 1.327 . S
C2105 C2109 1.429 . S
C2106 C2089 1.574 . S
C2106 H2100 0.949 . S
C2106 C2110 1.368 . S
C2107 C2088 1.429 . S
C2107 C2101 1.429 . S
C2107 C2108 1.523 . S
C2108 C2089 1.368 . S
C2108 C2102 1.368 . S
C2108 C2107 1.523 . S
C2109 C2093 1.429 . S
C2109 C2105 1.429 . S
C2109 C2110 1.523 . S
C2110 C2094 1.368 . S
C2110 C2106 1.368 . S
C2110 C2109 1.523 . S
H2111 C2086 0.950 . S
H2112 C2088 0.950 . S
H2113 C2089 0.949 . S
H2114 C2091 0.950 . S
H2115 C2093 0.950 . S
C2116 C2117 1.349 . S
C2116 C2118 1.327 . S
C2116 H2141 0.950 . S
C2117 C2116 1.349 . S
C2117 C2133 1.353 1_545 S
C2118 C2116 1.327 . S
C2118 C2137 1.429 . S
C2118 H2142 0.950 . S
C2119 C2136 1.574 . S
C2119 C2138 1.368 1_565 S
C2119 H2143 0.949 . S
H2120 C2124 0.949 . S
C2121 C2122 1.349 1_565 S
C2121 C2123 1.327 . S
C2121 H2144 0.950 . S
C2122 C2121 1.349 1_545 S
C2122 C2134 1.349 . S
C2123 C2121 1.327 . S
C2123 C2139 1.429 1_565 S
C2123 H2145 0.950 . S
C2124 H2120 0.949 . S
C2124 C2132 1.574 . S
C2124 C2140 1.368 . S
H2125 C2133 0.946 . S
H2126 C2131 0.950 . S
H2127 C2132 0.949 . S
H2128 C2134 0.950 . S
H2129 C2135 0.950 . S
H2130 C2136 0.949 . S
C2131 H2126 0.950 . S
C2131 C2133 1.327 . S
C2131 C2137 1.429 1_565 S
C2132 C2124 1.574 . S
C2132 H2127 0.949 . S
C2132 C2138 1.368 . S
C2133 C2117 1.353 1_565 S
C2133 H2125 0.946 . S
C2133 C2131 1.327 . S
C2134 C2122 1.349 . S
C2134 H2128 0.950 . S
C2134 C2135 1.327 . S
C2135 H2129 0.950 . S
C2135 C2134 1.327 . S
C2135 C2139 1.429 . S
C2136 C2119 1.574 . S
C2136 H2130 0.949 . S
C2136 C2140 1.368 1_565 S
C2137 C2118 1.429 . S
C2137 C2131 1.429 1_545 S
C2137 C2138 1.523 . S
C2138 C2119 1.368 1_545 S
C2138 C2132 1.368 . S
C2138 C2137 1.523 . S
C2139 C2123 1.429 1_545 S
C2139 C2135 1.429 . S
C2139 C2140 1.523 . S
C2140 C2124 1.368 . S
C2140 C2136 1.368 1_545 S
C2140 C2139 1.523 . S
H2141 C2116 0.950 . S
H2142 C2118 0.950 . S
H2143 C2119 0.949 . S
H2144 C2121 0.950 . S
H2145 C2123 0.950 . S
C2146 C2147 1.349 . S
C2146 C2148 1.327 . S
C2146 H2171 0.950 . S
C2147 C2146 1.349 . S
C2147 C2163 1.349 . S
C2148 C2146 1.327 . S
C2148 C2167 1.429 . S
C2148 H2172 0.950 . S
C2149 C2166 1.574 . S
C2149 C2168 1.368 . S
C2149 H2173 0.949 . S
H2150 C2154 0.949 . S
C2151 C2152 1.349 . S
C2151 C2153 1.327 . S
C2151 H2174 0.950 . S
C2152 C2151 1.349 . S
C2152 C2164 1.349 . S
C2153 C2151 1.327 . S
C2153 C2169 1.429 . S
C2153 H2175 0.950 . S
C2154 H2150 0.949 . S
C2154 C2162 1.574 . S
C2154 C2170 1.368 . S
H2155 C2163 0.950 . S
H2156 C2161 0.950 . S
H2157 C2162 0.949 . S
H2158 C2164 0.950 . S
H2159 C2165 0.950 . S
H2160 C2166 0.949 . S
C2161 H2156 0.950 . S
C2161 C2163 1.327 . S
C2161 C2167 1.429 . S
C2162 C2154 1.574 . S
C2162 H2157 0.949 . S
C2162 C2168 1.368 . S
C2163 C2147 1.349 . S
C2163 H2155 0.950 . S
C2163 C2161 1.327 . S
C2164 C2152 1.349 . S
C2164 H2158 0.950 . S
C2164 C2165 1.327 . S
C2165 H2159 0.950 . S
C2165 C2164 1.327 . S
C2165 C2169 1.429 . S
C2166 C2149 1.574 . S
C2166 H2160 0.949 . S
C2166 C2170 1.368 . S
C2167 C2148 1.429 . S
C2167 C2161 1.429 . S
C2167 C2168 1.523 . S
C2168 C2149 1.368 . S
C2168 C2162 1.368 . S
C2168 C2167 1.523 . S
C2169 C2153 1.429 . S
C2169 C2165 1.429 . S
C2169 C2170 1.523 . S
C2170 C2154 1.368 . S
C2170 C2166 1.368 . S
C2170 C2169 1.523 . S
H2171 C2146 0.950 . S
H2172 C2148 0.950 . S
H2173 C2149 0.949 . S
H2174 C2151 0.950 . S
H2175 C2153 0.950 . S
C2176 C2177 1.349 . S
C2176 C2178 1.327 . S
C2176 H2201 0.950 . S
C2177 C2176 1.349 . S
C2177 C2193 1.349 . S
C2178 C2176 1.327 . S
C2178 C2197 1.429 . S
C2178 H2202 0.950 . S
C2179 C2196 1.574 . S
C2179 C2198 1.368 . S
C2179 H2203 0.949 . S
H2180 C2184 0.949 . S
C2181 C2182 1.371 . S
C2181 C2183 1.327 . S
C2181 H2204 0.950 . S
C2182 C2181 1.371 . S
C2182 C2194 1.317 1_556 S
C2183 C2181 1.327 . S
C2183 C2199 1.429 1_556 S
C2183 H2205 0.950 . S
C2184 H2180 0.949 . S
C2184 C2192 1.574 . S
C2184 C2200 1.368 . S
H2185 C2193 0.950 . S
H2186 C2191 0.950 . S
H2187 C2192 0.949 . S
H2188 C2194 0.950 . S
H2189 C2195 0.950 . S
H2190 C2196 0.949 1_556 S
C2191 H2186 0.950 . S
C2191 C2193 1.327 . S
C2191 C2197 1.429 . S
C2192 C2184 1.574 . S
C2192 H2187 0.949 . S
C2192 C2198 1.368 . S
C2193 C2177 1.349 . S
C2193 H2185 0.950 . S
C2193 C2191 1.327 . S
C2194 C2182 1.317 1_554 S
C2194 H2188 0.950 . S
C2194 C2195 1.327 . S
C2195 H2189 0.950 . S
C2195 C2194 1.327 . S
C2195 C2199 1.429 . S
C2196 C2179 1.574 . S
C2196 H2190 0.949 1_554 S
C2196 C2200 1.368 . S
C2197 C2178 1.429 . S
C2197 C2191 1.429 . S
C2197 C2198 1.523 . S
C2198 C2179 1.368 . S
C2198 C2192 1.368 . S
C2198 C2197 1.523 . S
C2199 C2183 1.429 1_554 S
C2199 C2195 1.429 . S
C2199 C2200 1.523 . S
C2200 C2184 1.368 . S
C2200 C2196 1.368 . S
C2200 C2199 1.523 . S
H2201 C2176 0.950 . S
H2202 C2178 0.950 . S
H2203 C2179 0.949 . S
H2204 C2181 0.950 . S
H2205 C2183 0.950 . S
C2206 C2207 1.349 . S
C2206 C2208 1.327 . S
C2206 H2231 0.950 . S
C2207 C2206 1.349 . S
C2207 C2223 1.349 . S
C2208 C2206 1.327 . S
C2208 C2227 1.429 . S
C2208 H2232 0.950 . S
C2209 C2226 1.574 . S
C2209 C2228 1.368 . S
C2209 H2233 0.965 . S
H2210 C2214 0.949 . S
C2211 C2212 1.349 . S
C2211 C2213 1.327 . S
C2211 H2234 0.919 1_554 S
C2212 C2211 1.349 . S
C2212 C2224 1.349 . S
C2213 C2211 1.327 . S
C2213 C2229 1.429 . S
C2213 H2235 0.922 1_554 S
C2214 H2210 0.949 . S
C2214 C2222 1.574 . S
C2214 C2230 1.368 . S
H2215 C2223 0.950 . S
H2216 C2221 0.950 . S
H2217 C2222 0.949 . S
H2218 C2224 0.950 . S
H2219 C2225 0.950 . S
H2220 C2226 0.936 1_556 S
C2221 H2216 0.950 . S
C2221 C2223 1.327 . S
C2221 C2227 1.429 . S
C2222 C2214 1.574 . S
C2222 H2217 0.949 . S
C2222 C2228 1.368 . S
C2223 C2207 1.349 . S
C2223 H2215 0.950 . S
C2223 C2221 1.327 . S
C2224 C2212 1.349 . S
C2224 H2218 0.950 . S
C2224 C2225 1.327 . S
C2225 H2219 0.950 . S
C2225 C2224 1.327 . S
C2225 C2229 1.429 . S
C2226 C2209 1.574 . S
C2226 H2220 0.936 1_554 S
C2226 C2230 1.368 . S
C2227 C2208 1.429 . S
C2227 C2221 1.429 . S
C2227 C2228 1.523 . S
C2228 C2209 1.368 . S
C2228 C2222 1.368 . S
C2228 C2227 1.523 . S
C2229 C2213 1.429 . S
C2229 C2225 1.429 . S
C2229 C2230 1.523 . S
C2230 C2214 1.368 . S
C2230 C2226 1.368 . S
C2230 C2229 1.523 . S
H2231 C2206 0.950 . S
H2232 C2208 0.950 . S
H2233 C2209 0.965 . S
H2234 C2211 0.919 1_556 S
H2235 C2213 0.922 1_556 S
C2236 C2237 1.349 . S
C2236 C2238 1.327 . S
C2236 H2261 0.950 . S
C2237 C2236 1.349 . S
C2237 C2253 1.349 . S
C2238 C2236 1.327 . S
C2238 C2257 1.429 . S
C2238 H2262 0.950 . S
C2239 C2256 1.574 . S
C2239 C2258 1.368 . S
C2239 H2263 0.949 . S
H2240 C2244 0.949 . S
C2241 C2242 1.349 . S
C2241 C2243 1.327 . S
C2241 H2264 0.950 . S
C2242 C2241 1.349 . S
C2242 C2254 1.349 . S
C2243 C2241 1.327 . S
C2243 C2259 1.429 . S
C2243 H2265 0.950 . S
C2244 H2240 0.949 . S
C2244 C2252 1.574 . S
C2244 C2260 1.368 . S
H2245 C2253 0.950 . S
H2246 C2251 0.950 . S
H2247 C2252 0.949 . S
H2248 C2254 0.950 . S
H2249 C2255 0.950 . S
H2250 C2256 0.949 . S
C2251 H2246 0.950 . S
C2251 C2253 1.327 . S
C2251 C2257 1.429 . S
C2252 C2244 1.574 . S
C2252 H2247 0.949 . S
C2252 C2258 1.368 . S
C2253 C2237 1.349 . S
C2253 H2245 0.950 . S
C2253 C2251 1.327 . S
C2254 C2242 1.349 . S
C2254 H2248 0.950 . S
C2254 C2255 1.327 . S
C2255 H2249 0.950 . S
C2255 C2254 1.327 . S
C2255 C2259 1.429 . S
C2256 C2239 1.574 . S
C2256 H2250 0.949 . S
C2256 C2260 1.368 . S
C2257 C2238 1.429 . S
C2257 C2251 1.429 . S
C2257 C2258 1.523 . S
C2258 C2239 1.368 . S
C2258 C2252 1.368 . S
C2258 C2257 1.523 . S
C2259 C2243 1.429 . S
C2259 C2255 1.429 . S
C2259 C2260 1.523 . S
C2260 C2244 1.368 . S
C2260 C2256 1.368 . S
C2260 C2259 1.523 . S
H2261 C2236 0.950 . S
H2262 C2238 0.950 . S
H2263 C2239 0.949 . S
H2264 C2241 0.950 . S
H2265 C2243 0.950 . S
C2266 C2267 1.349 . S
C2266 C2268 1.327 . S
C2266 H2291 0.950 . S
C2267 C2266 1.349 . S
C2267 C2283 1.349 . S
C2268 C2266 1.327 . S
C2268 C2287 1.429 . S
C2268 H2292 0.950 . S
C2269 C2286 1.574 . S
C2269 C2288 1.368 . S
C2269 H2293 0.949 . S
H2270 C2274 0.949 . S
C2271 C2272 1.349 . S
C2271 C2273 1.327 . S
C2271 H2294 0.950 . S
C2272 C2271 1.349 . S
C2272 C2284 1.349 . S
C2273 C2271 1.327 . S
C2273 C2289 1.429 . S
C2273 H2295 0.950 . S
C2274 H2270 0.949 . S
C2274 C2282 1.574 . S
C2274 C2290 1.368 . S
H2275 C2283 0.950 . S
H2276 C2281 0.950 . S
H2277 C2282 0.949 . S
H2278 C2284 0.950 . S
H2279 C2285 0.950 . S
H2280 C2286 0.949 . S
C2281 H2276 0.950 . S
C2281 C2283 1.327 . S
C2281 C2287 1.429 . S
C2282 C2274 1.574 . S
C2282 H2277 0.949 . S
C2282 C2288 1.368 . S
C2283 C2267 1.349 . S
C2283 H2275 0.950 . S
C2283 C2281 1.327 . S
C2284 C2272 1.349 . S
C2284 H2278 0.950 . S
C2284 C2285 1.327 . S
C2285 H2279 0.950 . S
C2285 C2284 1.327 . S
C2285 C2289 1.429 . S
C2286 C2269 1.574 . S
C2286 H2280 0.949 . S
C2286 C2290 1.368 . S
C2287 C2268 1.429 . S
C2287 C2281 1.429 . S
C2287 C2288 1.523 . S
C2288 C2269 1.368 . S
C2288 C2282 1.368 . S
C2288 C2287 1.523 . S
C2289 C2273 1.429 . S
C2289 C2285 1.429 . S
C2289 C2290 1.523 . S
C2290 C2274 1.368 . S
C2290 C2286 1.368 . S
C2290 C2289 1.523 . S
H2291 C2266 0.950 . S
H2292 C2268 0.950 . S
H2293 C2269 0.949 . S
H2294 C2271 0.950 . S
H2295 C2273 0.950 . S
C2296 C2297 1.349 . S
C2296 C2298 1.327 . S
C2296 H2321 0.950 . S
C2297 C2296 1.349 . S
C2297 C2313 1.349 . S
C2298 C2296 1.327 . S
C2298 C2317 1.429 . S
C2298 H2322 0.950 . S
C2299 C2316 1.574 . S
C2299 C2318 1.368 . S
C2299 H2323 0.949 . S
H2300 C2304 0.949 . S
C2301 C2302 1.349 . S
C2301 C2303 1.327 . S
C2301 H2324 0.950 . S
C2302 C2301 1.349 . S
C2302 C2314 1.349 . S
C2303 C2301 1.327 . S
C2303 C2319 1.429 . S
C2303 H2325 0.950 . S
C2304 H2300 0.949 . S
C2304 C2312 1.574 . S
C2304 C2320 1.368 . S
H2305 C2313 0.950 . S
H2306 C2311 0.950 . S
H2307 C2312 0.949 . S
H2308 C2314 0.950 . S
H2309 C2315 0.950 . S
H2310 C2316 0.949 . S
C2311 H2306 0.950 . S
C2311 C2313 1.327 . S
C2311 C2317 1.429 . S
C2312 C2304 1.574 . S
C2312 H2307 0.949 . S
C2312 C2318 1.368 . S
C2313 C2297 1.349 . S
C2313 H2305 0.950 . S
C2313 C2311 1.327 . S
C2314 C2302 1.349 . S
C2314 H2308 0.950 . S
C2314 C2315 1.327 . S
C2315 H2309 0.950 . S
C2315 C2314 1.327 . S
C2315 C2319 1.429 . S
C2316 C2299 1.574 . S
C2316 H2310 0.949 . S
C2316 C2320 1.368 . S
C2317 C2298 1.429 . S
C2317 C2311 1.429 . S
C2317 C2318 1.523 . S
C2318 C2299 1.368 . S
C2318 C2312 1.368 . S
C2318 C2317 1.523 . S
C2319 C2303 1.429 . S
C2319 C2315 1.429 . S
C2319 C2320 1.523 . S
C2320 C2304 1.368 . S
C2320 C2316 1.368 . S
C2320 C2319 1.523 . S
H2321 C2296 0.950 . S
H2322 C2298 0.950 . S
H2323 C2299 0.949 . S
H2324 C2301 0.950 . S
H2325 C2303 0.950 . S
C2326 C2327 1.349 . S
C2326 C2328 1.327 . S
C2326 H2351 0.950 . S
C2327 C2326 1.349 . S
C2327 C2343 1.349 . S
C2328 C2326 1.327 . S
C2328 C2347 1.429 . S
C2328 H2352 0.950 . S
C2329 C2346 1.574 . S
C2329 C2348 1.368 . S
C2329 H2353 0.949 . S
H2330 C2334 0.949 . S
C2331 C2332 1.349 . S
C2331 C2333 1.327 . S
C2331 H2354 0.950 . S
C2332 C2331 1.349 . S
C2332 C2344 1.349 . S
C2333 C2331 1.327 . S
C2333 C2349 1.429 . S
C2333 H2355 0.950 . S
C2334 H2330 0.949 . S
C2334 C2342 1.574 . S
C2334 C2350 1.368 . S
H2335 C2343 0.950 . S
H2336 C2341 0.950 . S
H2337 C2342 0.949 . S
H2338 C2344 0.950 . S
H2339 C2345 0.950 . S
H2340 C2346 0.949 . S
C2341 H2336 0.950 . S
C2341 C2343 1.327 . S
C2341 C2347 1.429 . S
C2342 C2334 1.574 . S
C2342 H2337 0.949 . S
C2342 C2348 1.368 . S
C2343 C2327 1.349 . S
C2343 H2335 0.950 . S
C2343 C2341 1.327 . S
C2344 C2332 1.349 . S
C2344 H2338 0.950 . S
C2344 C2345 1.327 . S
C2345 H2339 0.950 . S
C2345 C2344 1.327 . S
C2345 C2349 1.429 . S
C2346 C2329 1.574 . S
C2346 H2340 0.949 . S
C2346 C2350 1.368 . S
C2347 C2328 1.429 . S
C2347 C2341 1.429 . S
C2347 C2348 1.523 . S
C2348 C2329 1.368 . S
C2348 C2342 1.368 . S
C2348 C2347 1.523 . S
C2349 C2333 1.429 . S
C2349 C2345 1.429 . S
C2349 C2350 1.523 . S
C2350 C2334 1.368 . S
C2350 C2346 1.368 . S
C2350 C2349 1.523 . S
H2351 C2326 0.950 . S
H2352 C2328 0.950 . S
H2353 C2329 0.949 . S
H2354 C2331 0.950 . S
H2355 C2333 0.950 . S
C2356 C2357 1.349 . S
C2356 C2358 1.327 . S
C2356 H2381 0.950 . S
C2357 C2356 1.349 . S
C2357 C2373 1.349 . S
C2358 C2356 1.327 . S
C2358 C2377 1.429 . S
C2358 H2382 0.950 . S
C2359 C2376 1.574 . S
C2359 C2378 1.368 . S
C2359 H2383 0.949 . S
H2360 C2364 0.949 . S
C2361 C2362 1.349 . S
C2361 C2363 1.327 . S
C2361 H2384 0.950 . S
C2362 C2361 1.349 . S
C2362 C2374 1.349 . S
C2363 C2361 1.327 . S
C2363 C2379 1.429 . S
C2363 H2385 0.950 . S
C2364 H2360 0.949 . S
C2364 C2372 1.574 . S
C2364 C2380 1.368 . S
H2365 C2373 0.950 . S
H2366 C2371 0.950 . S
H2367 C2372 0.949 . S
H2368 C2374 0.950 . S
H2369 C2375 0.950 . S
H2370 C2376 0.949 . S
C2371 H2366 0.950 . S
C2371 C2373 1.327 . S
C2371 C2377 1.429 . S
C2372 C2364 1.574 . S
C2372 H2367 0.949 . S
C2372 C2378 1.368 . S
C2373 C2357 1.349 . S
C2373 H2365 0.950 . S
C2373 C2371 1.327 . S
C2374 C2362 1.349 . S
C2374 H2368 0.950 . S
C2374 C2375 1.327 . S
C2375 H2369 0.950 . S
C2375 C2374 1.327 . S
C2375 C2379 1.429 . S
C2376 C2359 1.574 . S
C2376 H2370 0.949 . S
C2376 C2380 1.368 . S
C2377 C2358 1.429 . S
C2377 C2371 1.429 . S
C2377 C2378 1.523 . S
C2378 C2359 1.368 . S
C2378 C2372 1.368 . S
C2378 C2377 1.523 . S
C2379 C2363 1.429 . S
C2379 C2375 1.429 . S
C2379 C2380 1.523 . S
C2380 C2364 1.368 . S
C2380 C2376 1.368 . S
C2380 C2379 1.523 . S
H2381 C2356 0.950 . S
H2382 C2358 0.950 . S
H2383 C2359 0.949 . S
H2384 C2361 0.950 . S
H2385 C2363 0.950 . S
C2386 C2387 1.349 . S
C2386 C2388 1.327 . S
C2386 H2411 0.950 . S
C2387 C2386 1.349 . S
C2387 C2403 1.349 . S
C2388 C2386 1.327 . S
C2388 C2407 1.429 . S
C2388 H2412 0.950 . S
C2389 C2406 1.574 . S
C2389 C2408 1.368 . S
C2389 H2413 0.949 . S
H2390 C2394 0.949 . S
C2391 C2392 1.349 . S
C2391 C2393 1.327 . S
C2391 H2414 0.950 . S
C2392 C2391 1.349 . S
C2392 C2404 1.349 . S
C2393 C2391 1.327 . S
C2393 C2409 1.429 . S
C2393 H2415 0.950 . S
C2394 H2390 0.949 . S
C2394 C2402 1.574 . S
C2394 C2410 1.368 . S
H2395 C2403 0.950 . S
H2396 C2401 0.950 . S
H2397 C2402 0.949 . S
H2398 C2404 0.950 . S
H2399 C2405 0.950 . S
H2400 C2406 0.949 . S
C2401 H2396 0.950 . S
C2401 C2403 1.327 . S
C2401 C2407 1.429 . S
C2402 C2394 1.574 . S
C2402 H2397 0.949 . S
C2402 C2408 1.368 . S
C2403 C2387 1.349 . S
C2403 H2395 0.950 . S
C2403 C2401 1.327 . S
C2404 C2392 1.349 . S
C2404 H2398 0.950 . S
C2404 C2405 1.327 . S
C2405 H2399 0.950 . S
C2405 C2404 1.327 . S
C2405 C2409 1.429 . S
C2406 C2389 1.574 . S
C2406 H2400 0.949 . S
C2406 C2410 1.368 . S
C2407 C2388 1.429 . S
C2407 C2401 1.429 . S
C2407 C2408 1.523 . S
C2408 C2389 1.368 . S
C2408 C2402 1.368 . S
C2408 C2407 1.523 . S
C2409 C2393 1.429 . S
C2409 C2405 1.429 . S
C2409 C2410 1.523 . S
C2410 C2394 1.368 . S
C2410 C2406 1.368 . S
C2410 C2409 1.523 . S
H2411 C2386 0.950 . S
H2412 C2388 0.950 . S
H2413 C2389 0.949 . S
H2414 C2391 0.950 . S
H2415 C2393 0.950 . S
C2416 C2417 1.349 . S
C2416 C2418 1.327 . S
C2416 H2441 0.950 . S
C2417 C2416 1.349 . S
C2417 C2433 1.349 . S
C2418 C2416 1.327 . S
C2418 C2437 1.429 . S
C2418 H2442 0.950 . S
C2419 C2436 1.574 . S
C2419 C2438 1.368 . S
C2419 H2443 0.949 . S
H2420 C2424 0.949 . S
C2421 C2422 1.349 . S
C2421 C2423 1.327 . S
C2421 H2444 0.950 . S
C2422 C2421 1.349 . S
C2422 C2434 1.349 . S
C2423 C2421 1.327 . S
C2423 C2439 1.429 . S
C2423 H2445 0.950 . S
C2424 H2420 0.949 . S
C2424 C2432 1.574 . S
C2424 C2440 1.368 . S
H2425 C2433 0.950 . S
H2426 C2431 0.950 . S
H2427 C2432 0.949 . S
H2428 C2434 0.950 . S
H2429 C2435 0.950 . S
H2430 C2436 0.949 . S
C2431 H2426 0.950 . S
C2431 C2433 1.327 . S
C2431 C2437 1.429 . S
C2432 C2424 1.574 . S
C2432 H2427 0.949 . S
C2432 C2438 1.368 . S
C2433 C2417 1.349 . S
C2433 H2425 0.950 . S
C2433 C2431 1.327 . S
C2434 C2422 1.349 . S
C2434 H2428 0.950 . S
C2434 C2435 1.327 . S
C2435 H2429 0.950 . S
C2435 C2434 1.327 . S
C2435 C2439 1.429 . S
C2436 C2419 1.574 . S
C2436 H2430 0.949 . S
C2436 C2440 1.368 . S
C2437 C2418 1.429 . S
C2437 C2431 1.429 . S
C2437 C2438 1.523 . S
C2438 C2419 1.368 . S
C2438 C2432 1.368 . S
C2438 C2437 1.523 . S
C2439 C2423 1.429 . S
C2439 C2435 1.429 . S
C2439 C2440 1.523 . S
C2440 C2424 1.368 . S
C2440 C2436 1.368 . S
C2440 C2439 1.523 . S
H2441 C2416 0.950 . S
H2442 C2418 0.950 . S
H2443 C2419 0.949 . S
H2444 C2421 0.950 . S
H2445 C2423 0.950 . S
C2446 C2447 1.349 . S
C2446 C2448 1.327 . S
C2446 H2471 0.950 . S
C2447 C2446 1.349 . S
C2447 C2463 1.349 . S
C2448 C2446 1.327 . S
C2448 C2467 1.429 . S
C2448 H2472 0.950 . S
C2449 C2466 1.574 . S
C2449 C2468 1.368 . S
C2449 H2473 0.949 . S
H2450 C2454 0.949 . S
C2451 C2452 1.349 . S
C2451 C2453 1.327 . S
C2451 H2474 0.950 . S
C2452 C2451 1.349 . S
C2452 C2464 1.349 . S
C2453 C2451 1.327 . S
C2453 C2469 1.429 . S
C2453 H2475 0.950 . S
C2454 H2450 0.949 . S
C2454 C2462 1.574 . S
C2454 C2470 1.368 . S
H2455 C2463 0.950 . S
H2456 C2461 0.950 . S
H2457 C2462 0.949 . S
H2458 C2464 0.950 . S
H2459 C2465 0.950 . S
H2460 C2466 0.949 . S
C2461 H2456 0.950 . S
C2461 C2463 1.327 . S
C2461 C2467 1.429 . S
C2462 C2454 1.574 . S
C2462 H2457 0.949 . S
C2462 C2468 1.368 . S
C2463 C2447 1.349 . S
C2463 H2455 0.950 . S
C2463 C2461 1.327 . S
C2464 C2452 1.349 . S
C2464 H2458 0.950 . S
C2464 C2465 1.327 . S
C2465 H2459 0.950 . S
C2465 C2464 1.327 . S
C2465 C2469 1.429 . S
C2466 C2449 1.574 . S
C2466 H2460 0.949 . S
C2466 C2470 1.368 . S
C2467 C2448 1.429 . S
C2467 C2461 1.429 . S
C2467 C2468 1.523 . S
C2468 C2449 1.368 . S
C2468 C2462 1.368 . S
C2468 C2467 1.523 . S
C2469 C2453 1.429 . S
C2469 C2465 1.429 . S
C2469 C2470 1.523 . S
C2470 C2454 1.368 . S
C2470 C2466 1.368 . S
C2470 C2469 1.523 . S
H2471 C2446 0.950 . S
H2472 C2448 0.950 . S
H2473 C2449 0.949 . S
H2474 C2451 0.950 . S
H2475 C2453 0.950 . S
C2476 C2477 1.349 . S
C2476 C2478 1.327 . S
C2476 H2501 0.950 . S
C2477 C2476 1.349 . S
C2477 C2493 1.349 . S
C2478 C2476 1.327 . S
C2478 C2497 1.429 . S
C2478 H2502 0.950 . S
C2479 C2496 1.574 . S
C2479 C2498 1.368 . S
C2479 H2503 0.949 . S
H2480 C2484 0.905 1_554 S
C2481 C2482 1.349 1_556 S
C2481 C2483 1.327 . S
C2481 H2504 0.950 . S
C2482 C2481 1.349 1_554 S
C2482 C2494 1.349 . S
C2483 C2481 1.327 . S
C2483 C2499 1.429 . S
C2483 H2505 0.950 . S
C2484 H2480 0.905 1_556 S
C2484 C2492 1.586 . S
C2484 C2500 1.406 . S
H2485 C2493 0.950 . S
H2486 C2491 0.950 . S
H2487 C2492 0.949 . S
H2488 C2494 0.950 . S
H2489 C2495 0.950 . S
H2490 C2496 0.949 . S
C2491 H2486 0.950 . S
C2491 C2493 1.327 . S
C2491 C2497 1.429 . S
C2492 C2484 1.586 . S
C2492 H2487 0.949 . S
C2492 C2498 1.368 . S
C2493 C2477 1.349 . S
C2493 H2485 0.950 . S
C2493 C2491 1.327 . S
C2494 C2482 1.349 . S
C2494 H2488 0.950 . S
C2494 C2495 1.327 . S
C2495 H2489 0.950 . S
C2495 C2494 1.327 . S
C2495 C2499 1.429 1_554 S
C2496 C2479 1.574 . S
C2496 H2490 0.949 . S
C2496 C2500 1.368 . S
C2497 C2478 1.429 . S
C2497 C2491 1.429 . S
C2497 C2498 1.523 . S
C2498 C2479 1.368 . S
C2498 C2492 1.368 . S
C2498 C2497 1.523 . S
C2499 C2483 1.429 . S
C2499 C2495 1.429 1_556 S
C2499 C2500 1.523 . S
C2500 C2484 1.406 . S
C2500 C2496 1.368 . S
C2500 C2499 1.523 . S
H2501 C2476 0.950 . S
H2502 C2478 0.950 . S
H2503 C2479 0.949 . S
H2504 C2481 0.950 . S
H2505 C2483 0.950 . S
C2506 C2507 1.351 1_455 S
C2506 C2508 1.327 1_455 S
C2506 H2531 0.950 . S
C2507 C2506 1.351 1_655 S
C2507 C2523 1.380 . S
C2508 C2506 1.327 1_655 S
C2508 C2527 1.429 . S
C2508 H2532 0.950 . S
C2509 C2526 1.574 . S
C2509 C2528 1.368 . S
C2509 H2533 0.949 . S
H2510 C2514 0.949 . S
C2511 C2512 1.349 . S
C2511 C2513 1.327 . S
C2511 H2534 0.950 . S
C2512 C2511 1.349 . S
C2512 C2524 1.349 . S
C2513 C2511 1.327 . S
C2513 C2529 1.429 . S
C2513 H2535 0.950 . S
C2514 H2510 0.949 . S
C2514 C2522 1.574 . S
C2514 C2530 1.368 . S
H2515 C2523 0.950 . S
H2516 C2521 0.950 . S
H2517 C2522 0.949 . S
H2518 C2524 0.950 . S
H2519 C2525 0.950 . S
H2520 C2526 0.949 . S
C2521 H2516 0.950 . S
C2521 C2523 1.327 . S
C2521 C2527 1.429 . S
C2522 C2514 1.574 . S
C2522 H2517 0.949 . S
C2522 C2528 1.368 . S
C2523 C2507 1.380 . S
C2523 H2515 0.950 . S
C2523 C2521 1.327 . S
C2524 C2512 1.349 . S
C2524 H2518 0.950 . S
C2524 C2525 1.327 . S
C2525 H2519 0.950 . S
C2525 C2524 1.327 . S
C2525 C2529 1.429 . S
C2526 C2509 1.574 . S
C2526 H2520 0.949 . S
C2526 C2530 1.368 . S
C2527 C2508 1.429 . S
C2527 C2521 1.429 . S
C2527 C2528 1.523 . S
C2528 C2509 1.368 . S
C2528 C2522 1.368 . S
C2528 C2527 1.523 . S
C2529 C2513 1.429 . S
C2529 C2525 1.429 . S
C2529 C2530 1.523 . S
C2530 C2514 1.368 . S
C2530 C2526 1.368 . S
C2530 C2529 1.523 . S
H2531 C2506 0.950 . S
H2532 C2508 0.950 . S
H2533 C2509 0.949 . S
H2534 C2511 0.950 . S
H2535 C2513 0.950 . S
C2536 C2537 1.349 . S
C2536 C2538 1.327 . S
C2536 H2561 0.950 . S
C2537 C2536 1.349 . S
C2537 C2553 1.349 . S
C2538 C2536 1.327 . S
C2538 C2557 1.429 . S
C2538 H2562 0.950 . S
C2539 C2556 1.574 . S
C2539 C2558 1.368 . S
C2539 H2563 0.949 . S
H2540 C2544 0.949 . S
C2541 C2542 1.349 . S
C2541 C2543 1.327 . S
C2541 H2564 0.950 . S
C2542 C2541 1.349 . S
C2542 C2554 1.349 . S
C2543 C2541 1.327 . S
C2543 C2559 1.429 . S
C2543 H2565 0.950 . S
C2544 H2540 0.949 . S
C2544 C2552 1.574 . S
C2544 C2560 1.368 . S
H2545 C2553 0.950 . S
H2546 C2551 0.950 . S
H2547 C2552 0.949 . S
H2548 C2554 0.950 . S
H2549 C2555 0.950 . S
H2550 C2556 0.949 . S
C2551 H2546 0.950 . S
C2551 C2553 1.327 . S
C2551 C2557 1.429 . S
C2552 C2544 1.574 . S
C2552 H2547 0.949 . S
C2552 C2558 1.368 . S
C2553 C2537 1.349 . S
C2553 H2545 0.950 . S
C2553 C2551 1.327 . S
C2554 C2542 1.349 . S
C2554 H2548 0.950 . S
C2554 C2555 1.327 . S
C2555 H2549 0.950 . S
C2555 C2554 1.327 . S
C2555 C2559 1.429 . S
C2556 C2539 1.574 . S
C2556 H2550 0.949 . S
C2556 C2560 1.368 . S
C2557 C2538 1.429 . S
C2557 C2551 1.429 . S
C2557 C2558 1.523 . S
C2558 C2539 1.368 . S
C2558 C2552 1.368 . S
C2558 C2557 1.523 . S
C2559 C2543 1.429 . S
C2559 C2555 1.429 . S
C2559 C2560 1.523 . S
C2560 C2544 1.368 . S
C2560 C2556 1.368 . S
C2560 C2559 1.523 . S
H2561 C2536 0.950 . S
H2562 C2538 0.950 . S
H2563 C2539 0.949 . S
H2564 C2541 0.950 . S
H2565 C2543 0.950 . S
C2566 C2567 1.349 . S
C2566 C2568 1.327 . S
C2566 H2591 0.950 . S
C2567 C2566 1.349 . S
C2567 C2583 1.349 . S
C2568 C2566 1.327 . S
C2568 C2587 1.429 . S
C2568 H2592 0.950 . S
C2569 C2586 1.574 . S
C2569 C2588 1.368 . S
C2569 H2593 0.949 . S
H2570 C2574 0.949 . S
C2571 C2572 1.349 . S
C2571 C2573 1.327 . S
C2571 H2594 0.950 . S
C2572 C2571 1.349 . S
C2572 C2584 1.349 . S
C2573 C2571 1.327 . S
C2573 C2589 1.429 . S
C2573 H2595 0.950 . S
C2574 H2570 0.949 . S
C2574 C2582 1.574 . S
C2574 C2590 1.368 . S
H2575 C2583 0.950 . S
H2576 C2581 0.950 . S
H2577 C2582 0.949 . S
H2578 C2584 0.950 . S
H2579 C2585 0.950 . S
H2580 C2586 0.949 . S
C2581 H2576 0.950 . S
C2581 C2583 1.327 . S
C2581 C2587 1.429 . S
C2582 C2574 1.574 . S
C2582 H2577 0.949 . S
C2582 C2588 1.368 . S
C2583 C2567 1.349 . S
C2583 H2575 0.950 . S
C2583 C2581 1.327 . S
C2584 C2572 1.349 . S
C2584 H2578 0.950 . S
C2584 C2585 1.327 . S
C2585 H2579 0.950 . S
C2585 C2584 1.327 . S
C2585 C2589 1.429 . S
C2586 C2569 1.574 . S
C2586 H2580 0.949 . S
C2586 C2590 1.368 . S
C2587 C2568 1.429 . S
C2587 C2581 1.429 . S
C2587 C2588 1.523 . S
C2588 C2569 1.368 . S
C2588 C2582 1.368 . S
C2588 C2587 1.523 . S
C2589 C2573 1.429 . S
C2589 C2585 1.429 . S
C2589 C2590 1.523 . S
C2590 C2574 1.368 . S
C2590 C2586 1.368 . S
C2590 C2589 1.523 . S
H2591 C2566 0.950 . S
H2592 C2568 0.950 . S
H2593 C2569 0.949 . S
H2594 C2571 0.950 . S
H2595 C2573 0.950 . S
C2596 C2597 1.349 . S
C2596 C2598 1.327 . S
C2596 H2621 0.950 . S
C2597 C2596 1.349 . S
C2597 C2613 1.349 . S
C2598 C2596 1.327 . S
C2598 C2617 1.429 . S
C2598 H2622 0.950 . S
C2599 C2616 1.574 . S
C2599 C2618 1.368 . S
C2599 H2623 0.949 . S
H2600 C2604 0.949 . S
C2601 C2602 1.349 . S
C2601 C2603 1.327 . S
C2601 H2624 0.950 . S
C2602 C2601 1.349 . S
C2602 C2614 1.349 . S
C2603 C2601 1.327 . S
C2603 C2619 1.429 . S
C2603 H2625 0.950 . S
C2604 H2600 0.949 . S
C2604 C2612 1.574 . S
C2604 C2620 1.368 . S
H2605 C2613 0.950 . S
H2606 C2611 0.950 . S
H2607 C2612 0.949 . S
H2608 C2614 0.950 . S
H2609 C2615 0.950 . S
H2610 C2616 0.949 . S
C2611 H2606 0.950 . S
C2611 C2613 1.327 . S
C2611 C2617 1.429 . S
C2612 C2604 1.574 . S
C2612 H2607 0.949 . S
C2612 C2618 1.368 . S
C2613 C2597 1.349 . S
C2613 H2605 0.950 . S
C2613 C2611 1.327 . S
C2614 C2602 1.349 . S
C2614 H2608 0.950 . S
C2614 C2615 1.327 . S
C2615 H2609 0.950 . S
C2615 C2614 1.327 . S
C2615 C2619 1.429 . S
C2616 C2599 1.574 . S
C2616 H2610 0.949 . S
C2616 C2620 1.368 . S
C2617 C2598 1.429 . S
C2617 C2611 1.429 . S
C2617 C2618 1.523 . S
C2618 C2599 1.368 . S
C2618 C2612 1.368 . S
C2618 C2617 1.523 . S
C2619 C2603 1.429 . S
C2619 C2615 1.429 . S
C2619 C2620 1.523 . S
C2620 C2604 1.368 . S
C2620 C2616 1.368 . S
C2620 C2619 1.523 . S
H2621 C2596 0.950 . S
H2622 C2598 0.950 . S
H2623 C2599 0.949 . S
H2624 C2601 0.950 . S
H2625 C2603 0.950 . S
C2626 C2627 1.349 . S
C2626 C2628 1.327 . S
C2626 H2651 0.950 . S
C2627 C2626 1.349 . S
C2627 C2643 1.349 . S
C2628 C2626 1.327 . S
C2628 C2647 1.429 . S
C2628 H2652 0.950 . S
C2629 C2646 1.574 . S
C2629 C2648 1.368 . S
C2629 H2653 0.949 . S
H2630 C2634 0.949 . S
C2631 C2632 1.349 . S
C2631 C2633 1.327 . S
C2631 H2654 0.950 . S
C2632 C2631 1.349 . S
C2632 C2644 1.349 . S
C2633 C2631 1.327 . S
C2633 C2649 1.429 . S
C2633 H2655 0.950 . S
C2634 H2630 0.949 . S
C2634 C2642 1.574 . S
C2634 C2650 1.368 . S
H2635 C2643 0.950 . S
H2636 C2641 0.950 . S
H2637 C2642 0.949 . S
H2638 C2644 0.950 . S
H2639 C2645 0.950 . S
H2640 C2646 0.949 . S
C2641 H2636 0.950 . S
C2641 C2643 1.327 . S
C2641 C2647 1.429 . S
C2642 C2634 1.574 . S
C2642 H2637 0.949 . S
C2642 C2648 1.368 . S
C2643 C2627 1.349 . S
C2643 H2635 0.950 . S
C2643 C2641 1.327 . S
C2644 C2632 1.349 . S
C2644 H2638 0.950 . S
C2644 C2645 1.327 . S
C2645 H2639 0.950 . S
C2645 C2644 1.327 . S
C2645 C2649 1.429 . S
C2646 C2629 1.574 . S
C2646 H2640 0.949 . S
C2646 C2650 1.368 . S
C2647 C2628 1.429 . S
C2647 C2641 1.429 . S
C2647 C2648 1.523 . S
C2648 C2629 1.368 . S
C2648 C2642 1.368 . S
C2648 C2647 1.523 . S
C2649 C2633 1.429 . S
C2649 C2645 1.429 . S
C2649 C2650 1.523 . S
C2650 C2634 1.368 . S
C2650 C2646 1.368 . S
C2650 C2649 1.523 . S
H2651 C2626 0.950 . S
H2652 C2628 0.950 . S
H2653 C2629 0.949 . S
H2654 C2631 0.950 . S
H2655 C2633 0.950 . S
C2656 C2657 1.349 . S
C2656 C2658 1.327 . S
C2656 H2681 0.950 . S
C2657 C2656 1.349 . S
C2657 C2673 1.349 . S
C2658 C2656 1.327 . S
C2658 C2677 1.429 . S
C2658 H2682 0.950 . S
C2659 C2676 1.574 . S
C2659 C2678 1.368 . S
C2659 H2683 0.949 . S
H2660 C2664 0.949 . S
C2661 C2662 1.349 . S
C2661 C2663 1.327 . S
C2661 H2684 0.950 . S
C2662 C2661 1.349 . S
C2662 C2674 1.349 . S
C2663 C2661 1.327 . S
C2663 C2679 1.429 . S
C2663 H2685 0.950 . S
C2664 H2660 0.949 . S
C2664 C2672 1.574 . S
C2664 C2680 1.368 . S
H2665 C2673 0.950 . S
H2666 C2671 0.950 . S
H2667 C2672 0.949 . S
H2668 C2674 0.950 . S
H2669 C2675 0.950 . S
H2670 C2676 0.949 . S
C2671 H2666 0.950 . S
C2671 C2673 1.327 . S
C2671 C2677 1.429 . S
C2672 C2664 1.574 . S
C2672 H2667 0.949 . S
C2672 C2678 1.368 . S
C2673 C2657 1.349 . S
C2673 H2665 0.950 . S
C2673 C2671 1.327 . S
C2674 C2662 1.349 . S
C2674 H2668 0.950 . S
C2674 C2675 1.327 . S
C2675 H2669 0.950 . S
C2675 C2674 1.327 . S
C2675 C2679 1.429 . S
C2676 C2659 1.574 . S
C2676 H2670 0.949 . S
C2676 C2680 1.368 . S
C2677 C2658 1.429 . S
C2677 C2671 1.429 . S
C2677 C2678 1.523 . S
C2678 C2659 1.368 . S
C2678 C2672 1.368 . S
C2678 C2677 1.523 . S
C2679 C2663 1.429 . S
C2679 C2675 1.429 . S
C2679 C2680 1.523 . S
C2680 C2664 1.368 . S
C2680 C2676 1.368 . S
C2680 C2679 1.523 . S
H2681 C2656 0.950 . S
H2682 C2658 0.950 . S
H2683 C2659 0.949 . S
H2684 C2661 0.950 . S
H2685 C2663 0.950 . S
C2686 C2687 1.349 . S
C2686 C2688 1.327 1_554 S
C2686 H2711 0.950 . S
C2687 C2686 1.349 . S
C2687 C2703 1.349 . S
C2688 C2686 1.327 1_556 S
C2688 C2707 1.429 . S
C2688 H2712 0.950 . S
C2689 C2706 1.574 . S
C2689 C2708 1.368 . S
C2689 H2713 0.949 . S
H2690 C2694 0.949 . S
C2691 C2692 1.349 . S
C2691 C2693 1.327 . S
C2691 H2714 0.950 . S
C2692 C2691 1.349 . S
C2692 C2704 1.349 . S
C2693 C2691 1.327 . S
C2693 C2709 1.429 . S
C2693 H2715 0.950 . S
C2694 H2690 0.949 . S
C2694 C2702 1.574 . S
C2694 C2710 1.368 . S
H2695 C2703 0.950 . S
H2696 C2701 0.950 . S
H2697 C2702 0.949 . S
H2698 C2704 0.950 . S
H2699 C2705 0.950 . S
H2700 C2706 0.949 . S
C2701 H2696 0.950 . S
C2701 C2703 1.327 1_556 S
C2701 C2707 1.429 . S
C2702 C2694 1.574 . S
C2702 H2697 0.949 . S
C2702 C2708 1.368 . S
C2703 C2687 1.349 . S
C2703 H2695 0.950 . S
C2703 C2701 1.327 1_554 S
C2704 C2692 1.349 . S
C2704 H2698 0.950 . S
C2704 C2705 1.327 . S
C2705 H2699 0.950 . S
C2705 C2704 1.327 . S
C2705 C2709 1.429 . S
C2706 C2689 1.574 . S
C2706 H2700 0.949 . S
C2706 C2710 1.368 . S
C2707 C2688 1.429 . S
C2707 C2701 1.429 . S
C2707 C2708 1.523 . S
C2708 C2689 1.368 . S
C2708 C2702 1.368 . S
C2708 C2707 1.523 . S
C2709 C2693 1.429 . S
C2709 C2705 1.429 . S
C2709 C2710 1.523 . S
C2710 C2694 1.368 . S
C2710 C2706 1.368 . S
C2710 C2709 1.523 . S
H2711 C2686 0.950 . S
H2712 C2688 0.950 . S
H2713 C2689 0.949 . S
H2714 C2691 0.950 . S
H2715 C2693 0.950 . S
C2716 C2717 1.349 . S
C2716 C2718 1.327 . S
C2716 H2741 0.950 . S
C2717 C2716 1.349 . S
C2717 C2733 1.349 . S
C2718 C2716 1.327 . S
C2718 C2737 1.429 . S
C2718 H2742 0.950 . S
C2719 C2736 1.574 . S
C2719 C2738 1.368 . S
C2719 H2743 0.949 . S
H2720 C2724 0.949 . S
C2721 C2722 1.349 . S
C2721 C2723 1.327 . S
C2721 H2744 0.950 . S
C2722 C2721 1.349 . S
C2722 C2734 1.349 . S
C2723 C2721 1.327 . S
C2723 C2739 1.429 . S
C2723 H2745 0.950 . S
C2724 H2720 0.949 . S
C2724 C2732 1.574 . S
C2724 C2740 1.368 . S
H2725 C2733 0.950 . S
H2726 C2731 0.950 . S
H2727 C2732 0.949 . S
H2728 C2734 0.950 . S
H2729 C2735 0.950 . S
H2730 C2736 0.949 . S
C2731 H2726 0.950 . S
C2731 C2733 1.327 . S
C2731 C2737 1.429 . S
C2732 C2724 1.574 . S
C2732 H2727 0.949 . S
C2732 C2738 1.368 . S
C2733 C2717 1.349 . S
C2733 H2725 0.950 . S
C2733 C2731 1.327 . S
C2734 C2722 1.349 . S
C2734 H2728 0.950 . S
C2734 C2735 1.327 . S
C2735 H2729 0.950 . S
C2735 C2734 1.327 . S
C2735 C2739 1.429 . S
C2736 C2719 1.574 . S
C2736 H2730 0.949 . S
C2736 C2740 1.368 . S
C2737 C2718 1.429 . S
C2737 C2731 1.429 . S
C2737 C2738 1.523 . S
C2738 C2719 1.368 . S
C2738 C2732 1.368 . S
C2738 C2737 1.523 . S
C2739 C2723 1.429 . S
C2739 C2735 1.429 . S
C2739 C2740 1.523 . S
C2740 C2724 1.368 . S
C2740 C2736 1.368 . S
C2740 C2739 1.523 . S
H2741 C2716 0.950 . S
H2742 C2718 0.950 . S
H2743 C2719 0.949 . S
H2744 C2721 0.950 . S
H2745 C2723 0.950 . S
C2746 C2747 1.349 . S
C2746 C2748 1.327 . S
C2746 H2771 0.950 . S
C2747 C2746 1.349 . S
C2747 C2763 1.349 . S
C2748 C2746 1.327 . S
C2748 C2767 1.429 . S
C2748 H2772 0.950 . S
C2749 C2766 1.574 . S
C2749 C2768 1.368 . S
C2749 H2773 0.949 . S
H2750 C2754 0.949 . S
C2751 C2752 1.349 . S
C2751 C2753 1.327 . S
C2751 H2774 0.950 . S
C2752 C2751 1.349 . S
C2752 C2764 1.349 . S
C2753 C2751 1.327 . S
C2753 C2769 1.429 . S
C2753 H2775 0.950 . S
C2754 H2750 0.949 . S
C2754 C2762 1.574 . S
C2754 C2770 1.368 . S
H2755 C2763 0.950 . S
H2756 C2761 0.950 . S
H2757 C2762 0.949 . S
H2758 C2764 0.950 . S
H2759 C2765 0.950 . S
H2760 C2766 0.949 . S
C2761 H2756 0.950 . S
C2761 C2763 1.327 . S
C2761 C2767 1.429 . S
C2762 C2754 1.574 . S
C2762 H2757 0.949 . S
C2762 C2768 1.368 . S
C2763 C2747 1.349 . S
C2763 H2755 0.950 . S
C2763 C2761 1.327 . S
C2764 C2752 1.349 . S
C2764 H2758 0.950 . S
C2764 C2765 1.327 . S
C2765 H2759 0.950 . S
C2765 C2764 1.327 . S
C2765 C2769 1.429 . S
C2766 C2749 1.574 . S
C2766 H2760 0.949 . S
C2766 C2770 1.368 . S
C2767 C2748 1.429 . S
C2767 C2761 1.429 . S
C2767 C2768 1.523 . S
C2768 C2749 1.368 . S
C2768 C2762 1.368 . S
C2768 C2767 1.523 . S
C2769 C2753 1.429 . S
C2769 C2765 1.429 . S
C2769 C2770 1.523 . S
C2770 C2754 1.368 . S
C2770 C2766 1.368 . S
C2770 C2769 1.523 . S
H2771 C2746 0.950 . S
H2772 C2748 0.950 . S
H2773 C2749 0.949 . S
H2774 C2751 0.950 . S
H2775 C2753 0.950 . S
C2776 C2777 1.349 . S
C2776 C2778 1.327 . S
C2776 H2801 0.950 . S
C2777 C2776 1.349 . S
C2777 C2793 1.349 . S
C2778 C2776 1.327 . S
C2778 C2797 1.429 . S
C2778 H2802 0.950 . S
C2779 C2796 1.574 . S
C2779 C2798 1.368 . S
C2779 H2803 0.949 . S
H2780 C2784 0.949 . S
C2781 C2782 1.349 . S
C2781 C2783 1.327 . S
C2781 H2804 0.950 . S
C2782 C2781 1.349 . S
C2782 C2794 1.349 . S
C2783 C2781 1.327 . S
C2783 C2799 1.429 . S
C2783 H2805 0.950 . S
C2784 H2780 0.949 . S
C2784 C2792 1.574 . S
C2784 C2800 1.368 . S
H2785 C2793 0.950 . S
H2786 C2791 0.950 . S
H2787 C2792 0.949 . S
H2788 C2794 0.950 . S
H2789 C2795 0.950 . S
H2790 C2796 0.949 . S
C2791 H2786 0.950 . S
C2791 C2793 1.327 . S
C2791 C2797 1.429 . S
C2792 C2784 1.574 . S
C2792 H2787 0.949 . S
C2792 C2798 1.368 . S
C2793 C2777 1.349 . S
C2793 H2785 0.950 . S
C2793 C2791 1.327 . S
C2794 C2782 1.349 . S
C2794 H2788 0.950 . S
C2794 C2795 1.327 . S
C2795 H2789 0.950 . S
C2795 C2794 1.327 . S
C2795 C2799 1.429 . S
C2796 C2779 1.574 . S
C2796 H2790 0.949 . S
C2796 C2800 1.368 . S
C2797 C2778 1.429 . S
C2797 C2791 1.429 . S
C2797 C2798 1.523 . S
C2798 C2779 1.368 . S
C2798 C2792 1.368 . S
C2798 C2797 1.523 . S
C2799 C2783 1.429 . S
C2799 C2795 1.429 . S
C2799 C2800 1.523 . S
C2800 C2784 1.368 . S
C2800 C2796 1.368 . S
C2800 C2799 1.523 . S
H2801 C2776 0.950 . S
H2802 C2778 0.950 . S
H2803 C2779 0.949 . S
H2804 C2781 0.950 . S
H2805 C2783 0.950 . S
C2806 C2807 1.349 . S
C2806 C2808 1.327 . S
C2806 H2831 0.950 . S
C2807 C2806 1.349 . S
C2807 C2823 1.349 . S
C2808 C2806 1.327 . S
C2808 C2827 1.429 . S
C2808 H2832 0.950 . S
C2809 C2826 1.574 . S
C2809 C2828 1.368 . S
C2809 H2833 0.949 . S
H2810 C2814 0.949 . S
C2811 C2812 1.349 . S
C2811 C2813 1.327 . S
C2811 H2834 0.950 . S
C2812 C2811 1.349 . S
C2812 C2824 1.349 . S
C2813 C2811 1.327 . S
C2813 C2829 1.429 . S
C2813 H2835 0.950 . S
C2814 H2810 0.949 . S
C2814 C2822 1.574 . S
C2814 C2830 1.368 . S
H2815 C2823 0.950 . S
H2816 C2821 0.950 . S
H2817 C2822 0.949 . S
H2818 C2824 0.950 . S
H2819 C2825 0.950 . S
H2820 C2826 0.949 . S
C2821 H2816 0.950 . S
C2821 C2823 1.327 . S
C2821 C2827 1.429 . S
C2822 C2814 1.574 . S
C2822 H2817 0.949 . S
C2822 C2828 1.368 . S
C2823 C2807 1.349 . S
C2823 H2815 0.950 . S
C2823 C2821 1.327 . S
C2824 C2812 1.349 . S
C2824 H2818 0.950 . S
C2824 C2825 1.327 . S
C2825 H2819 0.950 . S
C2825 C2824 1.327 . S
C2825 C2829 1.429 . S
C2826 C2809 1.574 . S
C2826 H2820 0.949 . S
C2826 C2830 1.368 . S
C2827 C2808 1.429 . S
C2827 C2821 1.429 . S
C2827 C2828 1.523 . S
C2828 C2809 1.368 . S
C2828 C2822 1.368 . S
C2828 C2827 1.523 . S
C2829 C2813 1.429 . S
C2829 C2825 1.429 . S
C2829 C2830 1.523 . S
C2830 C2814 1.368 . S
C2830 C2826 1.368 . S
C2830 C2829 1.523 . S
H2831 C2806 0.950 . S
H2832 C2808 0.950 . S
H2833 C2809 0.949 . S
H2834 C2811 0.950 . S
H2835 C2813 0.950 . S
C2836 C2837 1.349 . S
C2836 C2838 1.327 . S
C2836 H2861 0.950 . S
C2837 C2836 1.349 . S
C2837 C2853 1.349 . S
C2838 C2836 1.327 . S
C2838 C2857 1.429 . S
C2838 H2862 0.950 . S
C2839 C2856 1.574 . S
C2839 C2858 1.368 . S
C2839 H2863 0.949 . S
H2840 C2844 0.949 . S
C2841 C2842 1.349 . S
C2841 C2843 1.327 . S
C2841 H2864 0.950 . S
C2842 C2841 1.349 . S
C2842 C2854 1.349 . S
C2843 C2841 1.327 . S
C2843 C2859 1.429 . S
C2843 H2865 0.950 . S
C2844 H2840 0.949 . S
C2844 C2852 1.574 . S
C2844 C2860 1.368 . S
H2845 C2853 0.950 . S
H2846 C2851 0.950 . S
H2847 C2852 0.949 . S
H2848 C2854 0.950 . S
H2849 C2855 0.950 . S
H2850 C2856 0.949 . S
C2851 H2846 0.950 . S
C2851 C2853 1.327 . S
C2851 C2857 1.429 . S
C2852 C2844 1.574 . S
C2852 H2847 0.949 . S
C2852 C2858 1.368 . S
C2853 C2837 1.349 . S
C2853 H2845 0.950 . S
C2853 C2851 1.327 . S
C2854 C2842 1.349 . S
C2854 H2848 0.950 . S
C2854 C2855 1.327 . S
C2855 H2849 0.950 . S
C2855 C2854 1.327 . S
C2855 C2859 1.429 . S
C2856 C2839 1.574 . S
C2856 H2850 0.949 . S
C2856 C2860 1.368 . S
C2857 C2838 1.429 . S
C2857 C2851 1.429 . S
C2857 C2858 1.523 . S
C2858 C2839 1.368 . S
C2858 C2852 1.368 . S
C2858 C2857 1.523 . S
C2859 C2843 1.429 . S
C2859 C2855 1.429 . S
C2859 C2860 1.523 . S
C2860 C2844 1.368 . S
C2860 C2856 1.368 . S
C2860 C2859 1.523 . S
H2861 C2836 0.950 . S
H2862 C2838 0.950 . S
H2863 C2839 0.949 . S
H2864 C2841 0.950 . S
H2865 C2843 0.950 . S
C2866 C2867 1.349 . S
C2866 C2868 1.327 . S
C2866 H2891 0.950 . S
C2867 C2866 1.349 . S
C2867 C2883 1.349 . S
C2868 C2866 1.327 . S
C2868 C2887 1.429 . S
C2868 H2892 0.950 . S
C2869 C2886 1.574 . S
C2869 C2888 1.368 . S
C2869 H2893 0.949 . S
H2870 C2874 0.949 . S
C2871 C2872 1.349 . S
C2871 C2873 1.327 . S
C2871 H2894 0.950 . S
C2872 C2871 1.349 . S
C2872 C2884 1.349 . S
C2873 C2871 1.327 . S
C2873 C2889 1.429 . S
C2873 H2895 0.950 . S
C2874 H2870 0.949 . S
C2874 C2882 1.574 . S
C2874 C2890 1.368 . S
H2875 C2883 0.950 . S
H2876 C2881 0.950 . S
H2877 C2882 0.949 . S
H2878 C2884 0.950 . S
H2879 C2885 0.950 . S
H2880 C2886 0.949 . S
C2881 H2876 0.950 . S
C2881 C2883 1.327 . S
C2881 C2887 1.429 . S
C2882 C2874 1.574 . S
C2882 H2877 0.949 . S
C2882 C2888 1.368 . S
C2883 C2867 1.349 . S
C2883 H2875 0.950 . S
C2883 C2881 1.327 . S
C2884 C2872 1.349 . S
C2884 H2878 0.950 . S
C2884 C2885 1.327 . S
C2885 H2879 0.950 . S
C2885 C2884 1.327 . S
C2885 C2889 1.429 . S
C2886 C2869 1.574 . S
C2886 H2880 0.949 . S
C2886 C2890 1.368 . S
C2887 C2868 1.429 . S
C2887 C2881 1.429 . S
C2887 C2888 1.523 . S
C2888 C2869 1.368 . S
C2888 C2882 1.368 . S
C2888 C2887 1.523 . S
C2889 C2873 1.429 . S
C2889 C2885 1.429 . S
C2889 C2890 1.523 . S
C2890 C2874 1.368 . S
C2890 C2886 1.368 . S
C2890 C2889 1.523 . S
H2891 C2866 0.950 . S
H2892 C2868 0.950 . S
H2893 C2869 0.949 . S
H2894 C2871 0.950 . S
H2895 C2873 0.950 . S
C2896 C2897 1.349 . S
C2896 C2898 1.327 . S
C2896 H2921 0.950 . S
C2897 C2896 1.349 . S
C2897 C2913 1.349 . S
C2898 C2896 1.327 . S
C2898 C2917 1.429 . S
C2898 H2922 0.950 . S
C2899 C2916 1.574 . S
C2899 C2918 1.368 . S
C2899 H2923 0.949 . S
H2900 C2904 0.949 . S
C2901 C2902 1.349 . S
C2901 C2903 1.327 . S
C2901 H2924 0.950 . S
C2902 C2901 1.349 . S
C2902 C2914 1.349 . S
C2903 C2901 1.327 . S
C2903 C2919 1.429 . S
C2903 H2925 0.950 . S
C2904 H2900 0.949 . S
C2904 C2912 1.574 . S
C2904 C2920 1.368 . S
H2905 C2913 0.950 . S
H2906 C2911 0.950 . S
H2907 C2912 0.949 . S
H2908 C2914 0.950 . S
H2909 C2915 0.950 . S
H2910 C2916 0.949 . S
C2911 H2906 0.950 . S
C2911 C2913 1.327 . S
C2911 C2917 1.429 . S
C2912 C2904 1.574 . S
C2912 H2907 0.949 . S
C2912 C2918 1.368 . S
C2913 C2897 1.349 . S
C2913 H2905 0.950 . S
C2913 C2911 1.327 . S
C2914 C2902 1.349 . S
C2914 H2908 0.950 . S
C2914 C2915 1.327 . S
C2915 H2909 0.950 . S
C2915 C2914 1.327 . S
C2915 C2919 1.429 . S
C2916 C2899 1.574 . S
C2916 H2910 0.949 . S
C2916 C2920 1.368 . S
C2917 C2898 1.429 . S
C2917 C2911 1.429 . S
C2917 C2918 1.523 . S
C2918 C2899 1.368 . S
C2918 C2912 1.368 . S
C2918 C2917 1.523 . S
C2919 C2903 1.429 . S
C2919 C2915 1.429 . S
C2919 C2920 1.523 . S
C2920 C2904 1.368 . S
C2920 C2916 1.368 . S
C2920 C2919 1.523 . S
H2921 C2896 0.950 . S
H2922 C2898 0.950 . S
H2923 C2899 0.949 . S
H2924 C2901 0.950 . S
H2925 C2903 0.950 . S
C2926 C2927 1.349 . S
C2926 C2928 1.327 . S
C2926 H2951 0.950 . S
C2927 C2926 1.349 . S
C2927 C2943 1.349 . S
C2928 C2926 1.327 . S
C2928 C2947 1.429 . S
C2928 H2952 0.950 . S
C2929 C2946 1.574 . S
C2929 C2948 1.368 . S
C2929 H2953 0.949 . S
H2930 C2934 0.949 . S
C2931 C2932 1.349 . S
C2931 C2933 1.327 . S
C2931 H2954 0.950 . S
C2932 C2931 1.349 . S
C2932 C2944 1.349 . S
C2933 C2931 1.327 . S
C2933 C2949 1.429 . S
C2933 H2955 0.950 . S
C2934 H2930 0.949 . S
C2934 C2942 1.574 . S
C2934 C2950 1.368 . S
H2935 C2943 0.950 . S
H2936 C2941 0.950 . S
H2937 C2942 0.949 . S
H2938 C2944 0.950 . S
H2939 C2945 0.950 . S
H2940 C2946 0.949 . S
C2941 H2936 0.950 . S
C2941 C2943 1.327 . S
C2941 C2947 1.429 . S
C2942 C2934 1.574 . S
C2942 H2937 0.949 . S
C2942 C2948 1.368 . S
C2943 C2927 1.349 . S
C2943 H2935 0.950 . S
C2943 C2941 1.327 . S
C2944 C2932 1.349 . S
C2944 H2938 0.950 . S
C2944 C2945 1.327 . S
C2945 H2939 0.950 . S
C2945 C2944 1.327 . S
C2945 C2949 1.429 . S
C2946 C2929 1.574 . S
C2946 H2940 0.949 . S
C2946 C2950 1.368 . S
C2947 C2928 1.429 . S
C2947 C2941 1.429 . S
C2947 C2948 1.523 . S
C2948 C2929 1.368 . S
C2948 C2942 1.368 . S
C2948 C2947 1.523 . S
C2949 C2933 1.429 . S
C2949 C2945 1.429 . S
C2949 C2950 1.523 . S
C2950 C2934 1.368 . S
C2950 C2946 1.368 . S
C2950 C2949 1.523 . S
H2951 C2926 0.950 . S
H2952 C2928 0.950 . S
H2953 C2929 0.949 . S
H2954 C2931 0.950 . S
H2955 C2933 0.950 . S
C2956 C2957 1.349 . S
C2956 C2958 1.327 . S
C2956 H2981 0.950 . S
C2957 C2956 1.349 . S
C2957 C2973 1.349 . S
C2958 C2956 1.327 . S
C2958 C2977 1.429 . S
C2958 H2982 0.950 . S
C2959 C2976 1.574 . S
C2959 C2978 1.368 . S
C2959 H2983 0.949 . S
H2960 C2964 0.949 . S
C2961 C2962 1.349 . S
C2961 C2963 1.327 . S
C2961 H2984 0.950 . S
C2962 C2961 1.349 . S
C2962 C2974 1.349 . S
C2963 C2961 1.327 . S
C2963 C2979 1.429 . S
C2963 H2985 0.950 . S
C2964 H2960 0.949 . S
C2964 C2972 1.574 . S
C2964 C2980 1.368 . S
H2965 C2973 0.950 . S
H2966 C2971 0.950 . S
H2967 C2972 0.949 . S
H2968 C2974 0.950 . S
H2969 C2975 0.950 . S
H2970 C2976 0.949 . S
C2971 H2966 0.950 . S
C2971 C2973 1.327 . S
C2971 C2977 1.429 . S
C2972 C2964 1.574 . S
C2972 H2967 0.949 . S
C2972 C2978 1.368 . S
C2973 C2957 1.349 . S
C2973 H2965 0.950 . S
C2973 C2971 1.327 . S
C2974 C2962 1.349 . S
C2974 H2968 0.950 . S
C2974 C2975 1.327 . S
C2975 H2969 0.950 . S
C2975 C2974 1.327 . S
C2975 C2979 1.429 . S
C2976 C2959 1.574 . S
C2976 H2970 0.949 . S
C2976 C2980 1.368 . S
C2977 C2958 1.429 . S
C2977 C2971 1.429 . S
C2977 C2978 1.523 . S
C2978 C2959 1.368 . S
C2978 C2972 1.368 . S
C2978 C2977 1.523 . S
C2979 C2963 1.429 . S
C2979 C2975 1.429 . S
C2979 C2980 1.523 . S
C2980 C2964 1.368 . S
C2980 C2976 1.368 . S
C2980 C2979 1.523 . S
H2981 C2956 0.950 . S
H2982 C2958 0.950 . S
H2983 C2959 0.949 . S
H2984 C2961 0.950 . S
H2985 C2963 0.950 . S
C2986 C2987 1.349 . S
C2986 C2988 1.327 . S
C2986 H3011 0.950 . S
C2987 C2986 1.349 . S
C2987 C3003 1.349 1_554 S
C2988 C2986 1.327 . S
C2988 C3007 1.429 . S
C2988 H3012 0.950 . S
C2989 C3006 1.574 . S
C2989 C3008 1.368 1_556 S
C2989 H3013 0.949 . S
H2990 C2994 0.949 . S
C2991 C2992 1.349 . S
C2991 C2993 1.331 1_554 S
C2991 H3014 0.950 1_554 S
C2992 C2991 1.349 . S
C2992 C3004 1.349 . S
C2993 C2991 1.331 1_556 S
C2993 C3009 1.409 1_556 S
C2993 H3015 0.966 . S
C2994 H2990 0.949 . S
C2994 C3002 1.574 . S
C2994 C3010 1.368 . S
H2995 C3003 0.950 . S
H2996 C3001 0.950 . S
H2997 C3002 0.949 . S
H2998 C3004 0.950 . S
H2999 C3005 0.950 . S
H3000 C3006 0.949 . S
C3001 H2996 0.950 . S
C3001 C3003 1.327 . S
C3001 C3007 1.429 1_556 S
C3002 C2994 1.574 . S
C3002 H2997 0.949 . S
C3002 C3008 1.368 . S
C3003 C2987 1.349 1_556 S
C3003 H2995 0.950 . S
C3003 C3001 1.327 . S
C3004 C2992 1.349 . S
C3004 H2998 0.950 . S
C3004 C3005 1.327 . S
C3005 H2999 0.950 . S
C3005 C3004 1.327 . S
C3005 C3009 1.429 . S
C3006 C2989 1.574 . S
C3006 H3000 0.949 . S
C3006 C3010 1.368 1_556 S
C3007 C2988 1.429 . S
C3007 C3001 1.429 1_554 S
C3007 C3008 1.523 . S
C3008 C2989 1.368 1_554 S
C3008 C3002 1.368 . S
C3008 C3007 1.523 . S
C3009 C2993 1.409 1_554 S
C3009 C3005 1.429 . S
C3009 C3010 1.523 . S
C3010 C2994 1.368 . S
C3010 C3006 1.368 1_554 S
C3010 C3009 1.523 . S
H3011 C2986 0.950 . S
H3012 C2988 0.950 . S
H3013 C2989 0.949 . S
H3014 C2991 0.950 1_556 S
H3015 C2993 0.966 . S
C3016 C3017 1.349 . S
C3016 C3018 1.327 . S
C3016 H3041 0.950 . S
C3017 C3016 1.349 . S
C3017 C3033 1.349 . S
C3018 C3016 1.327 . S
C3018 C3037 1.429 . S
C3018 H3042 0.950 . S
C3019 C3036 1.574 . S
C3019 C3038 1.368 . S
C3019 H3043 0.949 . S
H3020 C3024 0.949 . S
C3021 C3022 1.349 . S
C3021 C3023 1.327 . S
C3021 H3044 0.950 . S
C3022 C3021 1.349 . S
C3022 C3034 1.349 . S
C3023 C3021 1.327 . S
C3023 C3039 1.429 . S
C3023 H3045 0.950 . S
C3024 H3020 0.949 . S
C3024 C3032 1.574 . S
C3024 C3040 1.368 . S
H3025 C3033 0.950 . S
H3026 C3031 0.950 . S
H3027 C3032 0.949 . S
H3028 C3034 0.950 . S
H3029 C3035 0.950 . S
H3030 C3036 0.949 . S
C3031 H3026 0.950 . S
C3031 C3033 1.327 . S
C3031 C3037 1.429 . S
C3032 C3024 1.574 . S
C3032 H3027 0.949 . S
C3032 C3038 1.368 . S
C3033 C3017 1.349 . S
C3033 H3025 0.950 . S
C3033 C3031 1.327 . S
C3034 C3022 1.349 . S
C3034 H3028 0.950 . S
C3034 C3035 1.327 . S
C3035 H3029 0.950 . S
C3035 C3034 1.327 . S
C3035 C3039 1.429 . S
C3036 C3019 1.574 . S
C3036 H3030 0.949 . S
C3036 C3040 1.368 . S
C3037 C3018 1.429 . S
C3037 C3031 1.429 . S
C3037 C3038 1.523 . S
C3038 C3019 1.368 . S
C3038 C3032 1.368 . S
C3038 C3037 1.523 . S
C3039 C3023 1.429 . S
C3039 C3035 1.429 . S
C3039 C3040 1.523 . S
C3040 C3024 1.368 . S
C3040 C3036 1.368 . S
C3040 C3039 1.523 . S
H3041 C3016 0.950 . S
H3042 C3018 0.950 . S
H3043 C3019 0.949 . S
H3044 C3021 0.950 . S
H3045 C3023 0.950 . S
C3046 C3047 1.349 . S
C3046 C3048 1.327 . S
C3046 H3071 0.950 . S
C3047 C3046 1.349 . S
C3047 C3063 1.349 . S
C3048 C3046 1.327 . S
C3048 C3067 1.429 . S
C3048 H3072 0.950 . S
C3049 C3066 1.574 . S
C3049 C3068 1.368 . S
C3049 H3073 0.949 . S
H3050 C3054 0.949 . S
C3051 C3052 1.349 . S
C3051 C3053 1.327 . S
C3051 H3074 0.950 . S
C3052 C3051 1.349 . S
C3052 C3064 1.349 . S
C3053 C3051 1.327 . S
C3053 C3069 1.429 . S
C3053 H3075 0.950 . S
C3054 H3050 0.949 . S
C3054 C3062 1.574 . S
C3054 C3070 1.368 . S
H3055 C3063 0.950 . S
H3056 C3061 0.950 . S
H3057 C3062 0.949 . S
H3058 C3064 0.950 . S
H3059 C3065 0.950 . S
H3060 C3066 0.949 . S
C3061 H3056 0.950 . S
C3061 C3063 1.327 . S
C3061 C3067 1.429 . S
C3062 C3054 1.574 . S
C3062 H3057 0.949 . S
C3062 C3068 1.368 . S
C3063 C3047 1.349 . S
C3063 H3055 0.950 . S
C3063 C3061 1.327 . S
C3064 C3052 1.349 . S
C3064 H3058 0.950 . S
C3064 C3065 1.327 . S
C3065 H3059 0.950 . S
C3065 C3064 1.327 . S
C3065 C3069 1.429 . S
C3066 C3049 1.574 . S
C3066 H3060 0.949 . S
C3066 C3070 1.368 . S
C3067 C3048 1.429 . S
C3067 C3061 1.429 . S
C3067 C3068 1.523 . S
C3068 C3049 1.368 . S
C3068 C3062 1.368 . S
C3068 C3067 1.523 . S
C3069 C3053 1.429 . S
C3069 C3065 1.429 . S
C3069 C3070 1.523 . S
C3070 C3054 1.368 . S
C3070 C3066 1.368 . S
C3070 C3069 1.523 . S
H3071 C3046 0.950 . S
H3072 C3048 0.950 . S
H3073 C3049 0.949 . S
H3074 C3051 0.950 . S
H3075 C3053 0.950 . S
C3076 C3077 1.349 . S
C3076 C3078 1.327 . S
C3076 H3101 0.950 . S
C3077 C3076 1.349 . S
C3077 C3093 1.349 . S
C3078 C3076 1.327 . S
C3078 C3097 1.429 . S
C3078 H3102 0.950 . S
C3079 C3096 1.574 . S
C3079 C3098 1.368 . S
C3079 H3103 0.949 . S
H3080 C3084 0.949 . S
C3081 C3082 1.349 . S
C3081 C3083 1.327 . S
C3081 H3104 0.950 . S
C3082 C3081 1.349 . S
C3082 C3094 1.349 . S
C3083 C3081 1.327 . S
C3083 C3099 1.429 . S
C3083 H3105 0.950 . S
C3084 H3080 0.949 . S
C3084 C3092 1.574 . S
C3084 C3100 1.368 . S
H3085 C3093 0.950 . S
H3086 C3091 0.950 . S
H3087 C3092 0.949 . S
H3088 C3094 0.950 . S
H3089 C3095 0.950 . S
H3090 C3096 0.949 . S
C3091 H3086 0.950 . S
C3091 C3093 1.327 . S
C3091 C3097 1.429 . S
C3092 C3084 1.574 . S
C3092 H3087 0.949 . S
C3092 C3098 1.368 . S
C3093 C3077 1.349 . S
C3093 H3085 0.950 . S
C3093 C3091 1.327 . S
C3094 C3082 1.349 . S
C3094 H3088 0.950 . S
C3094 C3095 1.327 . S
C3095 H3089 0.950 . S
C3095 C3094 1.327 . S
C3095 C3099 1.429 . S
C3096 C3079 1.574 . S
C3096 H3090 0.949 . S
C3096 C3100 1.368 . S
C3097 C3078 1.429 . S
C3097 C3091 1.429 . S
C3097 C3098 1.523 . S
C3098 C3079 1.368 . S
C3098 C3092 1.368 . S
C3098 C3097 1.523 . S
C3099 C3083 1.429 . S
C3099 C3095 1.429 . S
C3099 C3100 1.523 . S
C3100 C3084 1.368 . S
C3100 C3096 1.368 . S
C3100 C3099 1.523 . S
H3101 C3076 0.950 . S
H3102 C3078 0.950 . S
H3103 C3079 0.949 . S
H3104 C3081 0.950 . S
H3105 C3083 0.950 . S
C3106 C3107 1.349 . S
C3106 C3108 1.327 . S
C3106 H3131 0.950 . S
C3107 C3106 1.349 . S
C3107 C3123 1.349 . S
C3108 C3106 1.327 . S
C3108 C3127 1.429 . S
C3108 H3132 0.950 . S
C3109 C3126 1.574 . S
C3109 C3128 1.368 . S
C3109 H3133 0.949 . S
H3110 C3114 0.949 . S
C3111 C3112 1.349 . S
C3111 C3113 1.327 . S
C3111 H3134 0.950 . S
C3112 C3111 1.349 . S
C3112 C3124 1.349 . S
C3113 C3111 1.327 . S
C3113 C3129 1.429 . S
C3113 H3135 0.950 . S
C3114 H3110 0.949 . S
C3114 C3122 1.574 . S
C3114 C3130 1.368 . S
H3115 C3123 0.950 . S
H3116 C3121 0.950 . S
H3117 C3122 0.949 . S
H3118 C3124 0.950 . S
H3119 C3125 0.950 . S
H3120 C3126 0.949 . S
C3121 H3116 0.950 . S
C3121 C3123 1.327 . S
C3121 C3127 1.429 . S
C3122 C3114 1.574 . S
C3122 H3117 0.949 . S
C3122 C3128 1.368 . S
C3123 C3107 1.349 . S
C3123 H3115 0.950 . S
C3123 C3121 1.327 . S
C3124 C3112 1.349 . S
C3124 H3118 0.950 . S
C3124 C3125 1.327 . S
C3125 H3119 0.950 . S
C3125 C3124 1.327 . S
C3125 C3129 1.429 . S
C3126 C3109 1.574 . S
C3126 H3120 0.949 . S
C3126 C3130 1.368 . S
C3127 C3108 1.429 . S
C3127 C3121 1.429 . S
C3127 C3128 1.523 . S
C3128 C3109 1.368 . S
C3128 C3122 1.368 . S
C3128 C3127 1.523 . S
C3129 C3113 1.429 . S
C3129 C3125 1.429 . S
C3129 C3130 1.523 . S
C3130 C3114 1.368 . S
C3130 C3126 1.368 . S
C3130 C3129 1.523 . S
H3131 C3106 0.950 . S
H3132 C3108 0.950 . S
H3133 C3109 0.949 . S
H3134 C3111 0.950 . S
H3135 C3113 0.950 . S
C3136 C3137 1.349 . S
C3136 C3138 1.327 . S
C3136 H3161 0.950 . S
C3137 C3136 1.349 . S
C3137 C3153 1.349 . S
C3138 C3136 1.327 . S
C3138 C3157 1.429 . S
C3138 H3162 0.950 . S
C3139 C3156 1.574 . S
C3139 C3158 1.368 . S
C3139 H3163 0.949 . S
H3140 C3144 0.949 . S
C3141 C3142 1.349 . S
C3141 C3143 1.327 . S
C3141 H3164 0.950 . S
C3142 C3141 1.349 . S
C3142 C3154 1.349 . S
C3143 C3141 1.327 . S
C3143 C3159 1.429 . S
C3143 H3165 0.950 . S
C3144 H3140 0.949 . S
C3144 C3152 1.574 . S
C3144 C3160 1.368 . S
H3145 C3153 0.950 . S
H3146 C3151 0.950 . S
H3147 C3152 0.949 . S
H3148 C3154 0.950 . S
H3149 C3155 0.950 . S
H3150 C3156 0.949 . S
C3151 H3146 0.950 . S
C3151 C3153 1.327 . S
C3151 C3157 1.429 . S
C3152 C3144 1.574 . S
C3152 H3147 0.949 . S
C3152 C3158 1.368 . S
C3153 C3137 1.349 . S
C3153 H3145 0.950 . S
C3153 C3151 1.327 . S
C3154 C3142 1.349 . S
C3154 H3148 0.950 . S
C3154 C3155 1.327 . S
C3155 H3149 0.950 . S
C3155 C3154 1.327 . S
C3155 C3159 1.429 . S
C3156 C3139 1.574 . S
C3156 H3150 0.949 . S
C3156 C3160 1.368 . S
C3157 C3138 1.429 . S
C3157 C3151 1.429 . S
C3157 C3158 1.523 . S
C3158 C3139 1.368 . S
C3158 C3152 1.368 . S
C3158 C3157 1.523 . S
C3159 C3143 1.429 . S
C3159 C3155 1.429 . S
C3159 C3160 1.523 . S
C3160 C3144 1.368 . S
C3160 C3156 1.368 . S
C3160 C3159 1.523 . S
H3161 C3136 0.950 . S
H3162 C3138 0.950 . S
H3163 C3139 0.949 . S
H3164 C3141 0.950 . S
H3165 C3143 0.950 . S
C3166 C3167 1.349 . S
C3166 C3168 1.327 . S
C3166 H3191 0.950 . S
C3167 C3166 1.349 . S
C3167 C3183 1.349 . S
C3168 C3166 1.327 . S
C3168 C3187 1.429 . S
C3168 H3192 0.950 . S
C3169 C3186 1.574 . S
C3169 C3188 1.368 . S
C3169 H3193 0.949 . S
H3170 C3174 0.949 . S
C3171 C3172 1.349 . S
C3171 C3173 1.327 . S
C3171 H3194 0.950 . S
C3172 C3171 1.349 . S
C3172 C3184 1.349 . S
C3173 C3171 1.327 . S
C3173 C3189 1.429 . S
C3173 H3195 0.950 . S
C3174 H3170 0.949 . S
C3174 C3182 1.574 . S
C3174 C3190 1.368 . S
H3175 C3183 0.950 . S
H3176 C3181 0.950 . S
H3177 C3182 0.949 . S
H3178 C3184 0.950 . S
H3179 C3185 0.950 . S
H3180 C3186 0.949 . S
C3181 H3176 0.950 . S
C3181 C3183 1.327 . S
C3181 C3187 1.429 . S
C3182 C3174 1.574 . S
C3182 H3177 0.949 . S
C3182 C3188 1.368 . S
C3183 C3167 1.349 . S
C3183 H3175 0.950 . S
C3183 C3181 1.327 . S
C3184 C3172 1.349 . S
C3184 H3178 0.950 . S
C3184 C3185 1.327 . S
C3185 H3179 0.950 . S
C3185 C3184 1.327 . S
C3185 C3189 1.429 . S
C3186 C3169 1.574 . S
C3186 H3180 0.949 . S
C3186 C3190 1.368 . S
C3187 C3168 1.429 . S
C3187 C3181 1.429 . S
C3187 C3188 1.523 . S
C3188 C3169 1.368 . S
C3188 C3182 1.368 . S
C3188 C3187 1.523 . S
C3189 C3173 1.429 . S
C3189 C3185 1.429 . S
C3189 C3190 1.523 . S
C3190 C3174 1.368 . S
C3190 C3186 1.368 . S
C3190 C3189 1.523 . S
H3191 C3166 0.950 . S
H3192 C3168 0.950 . S
H3193 C3169 0.949 . S
H3194 C3171 0.950 . S
H3195 C3173 0.950 . S
C3196 C3197 1.349 . S
C3196 C3198 1.327 . S
C3196 H3221 0.950 . S
C3197 C3196 1.349 . S
C3197 C3213 1.349 . S
C3198 C3196 1.327 . S
C3198 C3217 1.429 . S
C3198 H3222 0.950 . S
C3199 C3216 1.574 . S
C3199 C3218 1.368 . S
C3199 H3223 0.949 . S
H3200 C3204 0.949 . S
C3201 C3202 1.349 . S
C3201 C3203 1.327 . S
C3201 H3224 0.950 . S
C3202 C3201 1.349 . S
C3202 C3214 1.349 . S
C3203 C3201 1.327 . S
C3203 C3219 1.429 . S
C3203 H3225 0.950 . S
C3204 H3200 0.949 . S
C3204 C3212 1.574 . S
C3204 C3220 1.368 . S
H3205 C3213 0.950 . S
H3206 C3211 0.950 . S
H3207 C3212 0.949 . S
H3208 C3214 0.950 . S
H3209 C3215 0.950 . S
H3210 C3216 0.949 . S
C3211 H3206 0.950 . S
C3211 C3213 1.327 . S
C3211 C3217 1.429 . S
C3212 C3204 1.574 . S
C3212 H3207 0.949 . S
C3212 C3218 1.368 . S
C3213 C3197 1.349 . S
C3213 H3205 0.950 . S
C3213 C3211 1.327 . S
C3214 C3202 1.349 . S
C3214 H3208 0.950 . S
C3214 C3215 1.327 . S
C3215 H3209 0.950 . S
C3215 C3214 1.327 . S
C3215 C3219 1.429 . S
C3216 C3199 1.574 . S
C3216 H3210 0.949 . S
C3216 C3220 1.368 . S
C3217 C3198 1.429 . S
C3217 C3211 1.429 . S
C3217 C3218 1.523 . S
C3218 C3199 1.368 . S
C3218 C3212 1.368 . S
C3218 C3217 1.523 . S
C3219 C3203 1.429 . S
C3219 C3215 1.429 . S
C3219 C3220 1.523 . S
C3220 C3204 1.368 . S
C3220 C3216 1.368 . S
C3220 C3219 1.523 . S
H3221 C3196 0.950 . S
H3222 C3198 0.950 . S
H3223 C3199 0.949 . S
H3224 C3201 0.950 . S
H3225 C3203 0.950 . S
C3226 C3227 1.349 . S
C3226 C3228 1.327 . S
C3226 H3251 0.950 . S
C3227 C3226 1.349 . S
C3227 C3243 1.349 . S
C3228 C3226 1.327 . S
C3228 C3247 1.429 . S
C3228 H3252 0.950 . S
C3229 C3246 1.574 . S
C3229 C3248 1.368 . S
C3229 H3253 0.949 . S
H3230 C3234 0.949 . S
C3231 C3232 1.349 . S
C3231 C3233 1.327 . S
C3231 H3254 0.950 . S
C3232 C3231 1.349 . S
C3232 C3244 1.349 . S
C3233 C3231 1.327 . S
C3233 C3249 1.429 . S
C3233 H3255 0.950 . S
C3234 H3230 0.949 . S
C3234 C3242 1.574 . S
C3234 C3250 1.368 . S
H3235 C3243 0.950 . S
H3236 C3241 0.950 . S
H3237 C3242 0.949 . S
H3238 C3244 0.950 . S
H3239 C3245 0.950 . S
H3240 C3246 0.949 . S
C3241 H3236 0.950 . S
C3241 C3243 1.327 . S
C3241 C3247 1.429 . S
C3242 C3234 1.574 . S
C3242 H3237 0.949 . S
C3242 C3248 1.368 . S
C3243 C3227 1.349 . S
C3243 H3235 0.950 . S
C3243 C3241 1.327 . S
C3244 C3232 1.349 . S
C3244 H3238 0.950 . S
C3244 C3245 1.327 . S
C3245 H3239 0.950 . S
C3245 C3244 1.327 . S
C3245 C3249 1.429 . S
C3246 C3229 1.574 . S
C3246 H3240 0.949 . S
C3246 C3250 1.368 . S
C3247 C3228 1.429 . S
C3247 C3241 1.429 . S
C3247 C3248 1.523 . S
C3248 C3229 1.368 . S
C3248 C3242 1.368 . S
C3248 C3247 1.523 . S
C3249 C3233 1.429 . S
C3249 C3245 1.429 . S
C3249 C3250 1.523 . S
C3250 C3234 1.368 . S
C3250 C3246 1.368 . S
C3250 C3249 1.523 . S
H3251 C3226 0.950 . S
H3252 C3228 0.950 . S
H3253 C3229 0.949 . S
H3254 C3231 0.950 . S
H3255 C3233 0.950 . S
C3256 C3257 1.349 . S
C3256 C3258 1.327 . S
C3256 H3281 0.950 . S
C3257 C3256 1.349 . S
C3257 C3273 1.349 . S
C3258 C3256 1.327 . S
C3258 C3277 1.429 . S
C3258 H3282 0.950 . S
C3259 C3276 1.574 . S
C3259 C3278 1.368 . S
C3259 H3283 0.949 . S
H3260 C3264 0.949 . S
C3261 C3262 1.349 . S
C3261 C3263 1.327 . S
C3261 H3284 0.950 . S
C3262 C3261 1.349 . S
C3262 C3274 1.349 . S
C3263 C3261 1.327 . S
C3263 C3279 1.429 . S
C3263 H3285 0.950 . S
C3264 H3260 0.949 . S
C3264 C3272 1.574 . S
C3264 C3280 1.368 . S
H3265 C3273 0.950 . S
H3266 C3271 0.950 . S
H3267 C3272 0.949 . S
H3268 C3274 0.950 . S
H3269 C3275 0.950 . S
H3270 C3276 0.949 . S
C3271 H3266 0.950 . S
C3271 C3273 1.327 . S
C3271 C3277 1.429 . S
C3272 C3264 1.574 . S
C3272 H3267 0.949 . S
C3272 C3278 1.368 . S
C3273 C3257 1.349 . S
C3273 H3265 0.950 . S
C3273 C3271 1.327 . S
C3274 C3262 1.349 . S
C3274 H3268 0.950 . S
C3274 C3275 1.327 . S
C3275 H3269 0.950 . S
C3275 C3274 1.327 . S
C3275 C3279 1.429 . S
C3276 C3259 1.574 . S
C3276 H3270 0.949 . S
C3276 C3280 1.368 . S
C3277 C3258 1.429 . S
C3277 C3271 1.429 . S
C3277 C3278 1.523 . S
C3278 C3259 1.368 . S
C3278 C3272 1.368 . S
C3278 C3277 1.523 . S
C3279 C3263 1.429 . S
C3279 C3275 1.429 . S
C3279 C3280 1.523 . S
C3280 C3264 1.368 . S
C3280 C3276 1.368 . S
C3280 C3279 1.523 . S
H3281 C3256 0.950 . S
H3282 C3258 0.950 . S
H3283 C3259 0.949 . S
H3284 C3261 0.950 . S
H3285 C3263 0.950 . S
C3286 C3287 1.349 . S
C3286 C3288 1.327 . S
C3286 H3311 0.950 . S
C3287 C3286 1.349 . S
C3287 C3303 1.349 . S
C3288 C3286 1.327 . S
C3288 C3307 1.429 . S
C3288 H3312 0.950 . S
C3289 C3306 1.574 . S
C3289 C3308 1.368 . S
C3289 H3313 0.949 . S
H3290 C3294 0.949 . S
C3291 C3292 1.349 . S
C3291 C3293 1.327 . S
C3291 H3314 0.950 . S
C3292 C3291 1.349 . S
C3292 C3304 1.349 . S
C3293 C3291 1.327 . S
C3293 C3309 1.429 . S
C3293 H3315 0.950 . S
C3294 H3290 0.949 . S
C3294 C3302 1.574 . S
C3294 C3310 1.368 . S
H3295 C3303 0.950 . S
H3296 C3301 0.950 . S
H3297 C3302 0.949 . S
H3298 C3304 0.950 . S
H3299 C3305 0.950 . S
H3300 C3306 0.949 . S
C3301 H3296 0.950 . S
C3301 C3303 1.327 . S
C3301 C3307 1.429 . S
C3302 C3294 1.574 . S
C3302 H3297 0.949 . S
C3302 C3308 1.368 . S
C3303 C3287 1.349 . S
C3303 H3295 0.950 . S
C3303 C3301 1.327 . S
C3304 C3292 1.349 . S
C3304 H3298 0.950 . S
C3304 C3305 1.327 . S
C3305 H3299 0.950 . S
C3305 C3304 1.327 . S
C3305 C3309 1.429 . S
C3306 C3289 1.574 . S
C3306 H3300 0.949 . S
C3306 C3310 1.368 . S
C3307 C3288 1.429 . S
C3307 C3301 1.429 . S
C3307 C3308 1.523 . S
C3308 C3289 1.368 . S
C3308 C3302 1.368 . S
C3308 C3307 1.523 . S
C3309 C3293 1.429 . S
C3309 C3305 1.429 . S
C3309 C3310 1.523 . S
C3310 C3294 1.368 . S
C3310 C3306 1.368 . S
C3310 C3309 1.523 . S
H3311 C3286 0.950 . S
H3312 C3288 0.950 . S
H3313 C3289 0.949 . S
H3314 C3291 0.950 . S
H3315 C3293 0.950 . S
C3316 C3317 1.349 1_655 S
C3316 C3318 1.324 . S
C3316 H3341 0.950 . S
C3317 C3316 1.349 1_455 S
C3317 C3333 1.349 . S
C3318 C3316 1.324 . S
C3318 C3337 1.415 1_655 S
C3318 H3342 0.967 . S
C3319 C3336 1.574 . S
C3319 C3338 1.368 . S
C3319 H3343 0.949 . S
H3320 C3324 0.949 1_655 S
C3321 C3322 1.349 . S
C3321 C3323 1.327 . S
C3321 H3344 0.950 . S
C3322 C3321 1.349 . S
C3322 C3334 1.349 . S
C3323 C3321 1.327 . S
C3323 C3339 1.429 . S
C3323 H3345 0.950 . S
C3324 H3320 0.949 1_455 S
C3324 C3332 1.574 . S
C3324 C3340 1.368 . S
H3325 C3333 0.950 . S
H3326 C3331 0.950 . S
H3327 C3332 0.949 1_655 S
H3328 C3334 0.950 . S
H3329 C3335 0.950 . S
H3330 C3336 0.949 . S
C3331 H3326 0.950 . S
C3331 C3333 1.327 . S
C3331 C3337 1.429 . S
C3332 C3324 1.574 . S
C3332 H3327 0.949 1_455 S
C3332 C3338 1.368 . S
C3333 C3317 1.349 . S
C3333 H3325 0.950 . S
C3333 C3331 1.327 . S
C3334 C3322 1.349 . S
C3334 H3328 0.950 . S
C3334 C3335 1.327 . S
C3335 H3329 0.950 . S
C3335 C3334 1.327 . S
C3335 C3339 1.429 . S
C3336 C3319 1.574 . S
C3336 H3330 0.949 . S
C3336 C3340 1.368 . S
C3337 C3318 1.415 1_455 S
C3337 C3331 1.429 . S
C3337 C3338 1.523 . S
C3338 C3319 1.368 . S
C3338 C3332 1.368 . S
C3338 C3337 1.523 . S
C3339 C3323 1.429 . S
C3339 C3335 1.429 . S
C3339 C3340 1.523 . S
C3340 C3324 1.368 . S
C3340 C3336 1.368 . S
C3340 C3339 1.523 . S
H3341 C3316 0.950 . S
H3342 C3318 0.967 . S
H3343 C3319 0.949 . S
H3344 C3321 0.950 . S
H3345 C3323 0.950 . S
C3346 C3347 1.349 . S
C3346 C3348 1.327 . S
C3346 H3371 0.950 . S
C3347 C3346 1.349 . S
C3347 C3363 1.349 . S
C3348 C3346 1.327 . S
C3348 C3367 1.429 . S
C3348 H3372 0.950 . S
C3349 C3366 1.574 . S
C3349 C3368 1.368 . S
C3349 H3373 0.949 . S
H3350 C3354 0.949 . S
C3351 C3352 1.349 . S
C3351 C3353 1.327 . S
C3351 H3374 0.950 . S
C3352 C3351 1.349 . S
C3352 C3364 1.349 . S
C3353 C3351 1.327 . S
C3353 C3369 1.429 . S
C3353 H3375 0.950 . S
C3354 H3350 0.949 . S
C3354 C3362 1.574 . S
C3354 C3370 1.368 . S
H3355 C3363 0.950 . S
H3356 C3361 0.950 . S
H3357 C3362 0.949 . S
H3358 C3364 0.950 . S
H3359 C3365 0.950 . S
H3360 C3366 0.949 . S
C3361 H3356 0.950 . S
C3361 C3363 1.327 . S
C3361 C3367 1.429 . S
C3362 C3354 1.574 . S
C3362 H3357 0.949 . S
C3362 C3368 1.368 . S
C3363 C3347 1.349 . S
C3363 H3355 0.950 . S
C3363 C3361 1.327 . S
C3364 C3352 1.349 . S
C3364 H3358 0.950 . S
C3364 C3365 1.327 . S
C3365 H3359 0.950 . S
C3365 C3364 1.327 . S
C3365 C3369 1.429 . S
C3366 C3349 1.574 . S
C3366 H3360 0.949 . S
C3366 C3370 1.368 . S
C3367 C3348 1.429 . S
C3367 C3361 1.429 . S
C3367 C3368 1.523 . S
C3368 C3349 1.368 . S
C3368 C3362 1.368 . S
C3368 C3367 1.523 . S
C3369 C3353 1.429 . S
C3369 C3365 1.429 . S
C3369 C3370 1.523 . S
C3370 C3354 1.368 . S
C3370 C3366 1.368 . S
C3370 C3369 1.523 . S
H3371 C3346 0.950 . S
H3372 C3348 0.950 . S
H3373 C3349 0.949 . S
H3374 C3351 0.950 . S
H3375 C3353 0.950 . S
C3376 C3377 1.349 . S
C3376 C3378 1.327 . S
C3376 H3401 0.950 . S
C3377 C3376 1.349 . S
C3377 C3393 1.349 . S
C3378 C3376 1.327 . S
C3378 C3397 1.429 . S
C3378 H3402 0.950 . S
C3379 C3396 1.574 . S
C3379 C3398 1.368 . S
C3379 H3403 0.949 . S
H3380 C3384 0.949 . S
C3381 C3382 1.349 . S
C3381 C3383 1.327 . S
C3381 H3404 0.950 . S
C3382 C3381 1.349 . S
C3382 C3394 1.349 . S
C3383 C3381 1.327 . S
C3383 C3399 1.429 . S
C3383 H3405 0.950 . S
C3384 H3380 0.949 . S
C3384 C3392 1.574 . S
C3384 C3400 1.368 . S
H3385 C3393 0.950 . S
H3386 C3391 0.950 . S
H3387 C3392 0.949 . S
H3388 C3394 0.950 . S
H3389 C3395 0.950 . S
H3390 C3396 0.949 . S
C3391 H3386 0.950 . S
C3391 C3393 1.327 . S
C3391 C3397 1.429 . S
C3392 C3384 1.574 . S
C3392 H3387 0.949 . S
C3392 C3398 1.368 . S
C3393 C3377 1.349 . S
C3393 H3385 0.950 . S
C3393 C3391 1.327 . S
C3394 C3382 1.349 . S
C3394 H3388 0.950 . S
C3394 C3395 1.327 . S
C3395 H3389 0.950 . S
C3395 C3394 1.327 . S
C3395 C3399 1.429 . S
C3396 C3379 1.574 . S
C3396 H3390 0.949 . S
C3396 C3400 1.368 . S
C3397 C3378 1.429 . S
C3397 C3391 1.429 . S
C3397 C3398 1.523 . S
C3398 C3379 1.368 . S
C3398 C3392 1.368 . S
C3398 C3397 1.523 . S
C3399 C3383 1.429 . S
C3399 C3395 1.429 . S
C3399 C3400 1.523 . S
C3400 C3384 1.368 . S
C3400 C3396 1.368 . S
C3400 C3399 1.523 . S
H3401 C3376 0.950 . S
H3402 C3378 0.950 . S
H3403 C3379 0.949 . S
H3404 C3381 0.950 . S
H3405 C3383 0.950 . S
C3406 C3407 1.349 . S
C3406 C3408 1.327 . S
C3406 H3431 0.950 . S
C3407 C3406 1.349 . S
C3407 C3423 1.349 . S
C3408 C3406 1.327 . S
C3408 C3427 1.429 . S
C3408 H3432 0.950 . S
C3409 C3426 1.574 . S
C3409 C3428 1.368 . S
C3409 H3433 0.949 . S
H3410 C3414 0.949 . S
C3411 C3412 1.349 . S
C3411 C3413 1.327 . S
C3411 H3434 0.950 . S
C3412 C3411 1.349 . S
C3412 C3424 1.349 . S
C3413 C3411 1.327 . S
C3413 C3429 1.429 . S
C3413 H3435 0.950 . S
C3414 H3410 0.949 . S
C3414 C3422 1.574 . S
C3414 C3430 1.368 . S
H3415 C3423 0.950 . S
H3416 C3421 0.950 . S
H3417 C3422 0.949 . S
H3418 C3424 0.950 . S
H3419 C3425 0.950 . S
H3420 C3426 0.949 . S
C3421 H3416 0.950 . S
C3421 C3423 1.327 . S
C3421 C3427 1.429 . S
C3422 C3414 1.574 . S
C3422 H3417 0.949 . S
C3422 C3428 1.368 . S
C3423 C3407 1.349 . S
C3423 H3415 0.950 . S
C3423 C3421 1.327 . S
C3424 C3412 1.349 . S
C3424 H3418 0.950 . S
C3424 C3425 1.327 . S
C3425 H3419 0.950 . S
C3425 C3424 1.327 . S
C3425 C3429 1.429 . S
C3426 C3409 1.574 . S
C3426 H3420 0.949 . S
C3426 C3430 1.368 . S
C3427 C3408 1.429 . S
C3427 C3421 1.429 . S
C3427 C3428 1.523 . S
C3428 C3409 1.368 . S
C3428 C3422 1.368 . S
C3428 C3427 1.523 . S
C3429 C3413 1.429 . S
C3429 C3425 1.429 . S
C3429 C3430 1.523 . S
C3430 C3414 1.368 . S
C3430 C3426 1.368 . S
C3430 C3429 1.523 . S
H3431 C3406 0.950 . S
H3432 C3408 0.950 . S
H3433 C3409 0.949 . S
H3434 C3411 0.950 . S
H3435 C3413 0.950 . S
C3436 C3437 1.349 . S
C3436 C3438 1.327 . S
C3436 H3461 0.950 . S
C3437 C3436 1.349 . S
C3437 C3453 1.349 . S
C3438 C3436 1.327 . S
C3438 C3457 1.429 . S
C3438 H3462 0.950 . S
C3439 C3456 1.574 . S
C3439 C3458 1.368 . S
C3439 H3463 0.949 . S
H3440 C3444 0.949 . S
C3441 C3442 1.349 1_655 S
C3441 C3443 1.327 . S
C3441 H3464 0.950 . S
C3442 C3441 1.349 1_455 S
C3442 C3454 1.349 . S
C3443 C3441 1.327 . S
C3443 C3459 1.429 . S
C3443 H3465 0.950 . S
C3444 H3440 0.949 . S
C3444 C3452 1.574 . S
C3444 C3460 1.368 . S
H3445 C3453 0.950 . S
H3446 C3451 0.950 . S
H3447 C3452 0.949 . S
H3448 C3454 0.950 . S
H3449 C3455 0.950 . S
H3450 C3456 0.949 . S
C3451 H3446 0.950 . S
C3451 C3453 1.327 . S
C3451 C3457 1.429 . S
C3452 C3444 1.574 . S
C3452 H3447 0.949 . S
C3452 C3458 1.368 . S
C3453 C3437 1.349 . S
C3453 H3445 0.950 . S
C3453 C3451 1.327 . S
C3454 C3442 1.349 . S
C3454 H3448 0.950 . S
C3454 C3455 1.327 1_455 S
C3455 H3449 0.950 . S
C3455 C3454 1.327 1_655 S
C3455 C3459 1.429 . S
C3456 C3439 1.574 . S
C3456 H3450 0.949 . S
C3456 C3460 1.368 . S
C3457 C3438 1.429 . S
C3457 C3451 1.429 . S
C3457 C3458 1.523 . S
C3458 C3439 1.368 . S
C3458 C3452 1.368 . S
C3458 C3457 1.523 . S
C3459 C3443 1.429 . S
C3459 C3455 1.429 . S
C3459 C3460 1.523 . S
C3460 C3444 1.368 . S
C3460 C3456 1.368 . S
C3460 C3459 1.523 . S
H3461 C3436 0.950 . S
H3462 C3438 0.950 . S
H3463 C3439 0.949 . S
H3464 C3441 0.950 . S
H3465 C3443 0.950 . S
C3466 C3467 1.349 . S
C3466 C3468 1.327 . S
C3466 H3491 0.950 . S
C3467 C3466 1.349 . S
C3467 C3483 1.349 . S
C3468 C3466 1.327 . S
C3468 C3487 1.429 . S
C3468 H3492 0.950 . S
C3469 C3486 1.574 . S
C3469 C3488 1.368 . S
C3469 H3493 0.949 . S
H3470 C3474 0.949 . S
C3471 C3472 1.349 . S
C3471 C3473 1.327 . S
C3471 H3494 0.950 . S
C3472 C3471 1.349 . S
C3472 C3484 1.349 . S
C3473 C3471 1.327 . S
C3473 C3489 1.429 . S
C3473 H3495 0.950 . S
C3474 H3470 0.949 . S
C3474 C3482 1.574 . S
C3474 C3490 1.368 . S
H3475 C3483 0.950 . S
H3476 C3481 0.950 . S
H3477 C3482 0.949 . S
H3478 C3484 0.950 . S
H3479 C3485 0.950 . S
H3480 C3486 0.949 . S
C3481 H3476 0.950 . S
C3481 C3483 1.327 . S
C3481 C3487 1.429 . S
C3482 C3474 1.574 . S
C3482 H3477 0.949 . S
C3482 C3488 1.368 . S
C3483 C3467 1.349 . S
C3483 H3475 0.950 . S
C3483 C3481 1.327 . S
C3484 C3472 1.349 . S
C3484 H3478 0.950 . S
C3484 C3485 1.327 . S
C3485 H3479 0.950 . S
C3485 C3484 1.327 . S
C3485 C3489 1.429 . S
C3486 C3469 1.574 . S
C3486 H3480 0.949 . S
C3486 C3490 1.368 . S
C3487 C3468 1.429 . S
C3487 C3481 1.429 . S
C3487 C3488 1.523 . S
C3488 C3469 1.368 . S
C3488 C3482 1.368 . S
C3488 C3487 1.523 . S
C3489 C3473 1.429 . S
C3489 C3485 1.429 . S
C3489 C3490 1.523 . S
C3490 C3474 1.368 . S
C3490 C3486 1.368 . S
C3490 C3489 1.523 . S
H3491 C3466 0.950 . S
H3492 C3468 0.950 . S
H3493 C3469 0.949 . S
H3494 C3471 0.950 . S
H3495 C3473 0.950 . S
C3496 C3497 1.349 . S
C3496 C3498 1.327 . S
C3496 H3521 0.950 . S
C3497 C3496 1.349 . S
C3497 C3513 1.349 . S
C3498 C3496 1.327 . S
C3498 C3517 1.429 . S
C3498 H3522 0.950 . S
C3499 C3516 1.574 . S
C3499 C3518 1.368 . S
C3499 H3523 0.949 . S
H3500 C3504 0.949 . S
C3501 C3502 1.349 . S
C3501 C3503 1.327 . S
C3501 H3524 0.950 . S
C3502 C3501 1.349 . S
C3502 C3514 1.349 . S
C3503 C3501 1.327 . S
C3503 C3519 1.429 . S
C3503 H3525 0.950 . S
C3504 H3500 0.949 . S
C3504 C3512 1.574 . S
C3504 C3520 1.368 . S
H3505 C3513 0.950 . S
H3506 C3511 0.950 . S
H3507 C3512 0.949 . S
H3508 C3514 0.950 . S
H3509 C3515 0.950 . S
H3510 C3516 0.949 . S
C3511 H3506 0.950 . S
C3511 C3513 1.327 . S
C3511 C3517 1.429 . S
C3512 C3504 1.574 . S
C3512 H3507 0.949 . S
C3512 C3518 1.368 . S
C3513 C3497 1.349 . S
C3513 H3505 0.950 . S
C3513 C3511 1.327 . S
C3514 C3502 1.349 . S
C3514 H3508 0.950 . S
C3514 C3515 1.327 . S
C3515 H3509 0.950 . S
C3515 C3514 1.327 . S
C3515 C3519 1.429 . S
C3516 C3499 1.574 . S
C3516 H3510 0.949 . S
C3516 C3520 1.368 . S
C3517 C3498 1.429 . S
C3517 C3511 1.429 . S
C3517 C3518 1.523 . S
C3518 C3499 1.368 . S
C3518 C3512 1.368 . S
C3518 C3517 1.523 . S
C3519 C3503 1.429 . S
C3519 C3515 1.429 . S
C3519 C3520 1.523 . S
C3520 C3504 1.368 . S
C3520 C3516 1.368 . S
C3520 C3519 1.523 . S
H3521 C3496 0.950 . S
H3522 C3498 0.950 . S
H3523 C3499 0.949 . S
H3524 C3501 0.950 . S
H3525 C3503 0.950 . S
C3526 C3527 1.349 . S
C3526 C3528 1.327 . S
C3526 H3551 0.950 . S
C3527 C3526 1.349 . S
C3527 C3543 1.349 . S
C3528 C3526 1.327 . S
C3528 C3547 1.429 . S
C3528 H3552 0.950 . S
C3529 C3546 1.574 . S
C3529 C3548 1.368 . S
C3529 H3553 0.949 . S
H3530 C3534 0.949 . S
C3531 C3532 1.349 . S
C3531 C3533 1.327 . S
C3531 H3554 0.950 . S
C3532 C3531 1.349 . S
C3532 C3544 1.349 . S
C3533 C3531 1.327 . S
C3533 C3549 1.429 . S
C3533 H3555 0.950 . S
C3534 H3530 0.949 . S
C3534 C3542 1.574 . S
C3534 C3550 1.368 . S
H3535 C3543 0.950 . S
H3536 C3541 0.950 . S
H3537 C3542 0.949 . S
H3538 C3544 0.950 . S
H3539 C3545 0.950 . S
H3540 C3546 0.949 . S
C3541 H3536 0.950 . S
C3541 C3543 1.327 . S
C3541 C3547 1.429 . S
C3542 C3534 1.574 . S
C3542 H3537 0.949 . S
C3542 C3548 1.368 . S
C3543 C3527 1.349 . S
C3543 H3535 0.950 . S
C3543 C3541 1.327 . S
C3544 C3532 1.349 . S
C3544 H3538 0.950 . S
C3544 C3545 1.327 . S
C3545 H3539 0.950 . S
C3545 C3544 1.327 . S
C3545 C3549 1.429 . S
C3546 C3529 1.574 . S
C3546 H3540 0.949 . S
C3546 C3550 1.368 . S
C3547 C3528 1.429 . S
C3547 C3541 1.429 . S
C3547 C3548 1.523 . S
C3548 C3529 1.368 . S
C3548 C3542 1.368 . S
C3548 C3547 1.523 . S
C3549 C3533 1.429 . S
C3549 C3545 1.429 . S
C3549 C3550 1.523 . S
C3550 C3534 1.368 . S
C3550 C3546 1.368 . S
C3550 C3549 1.523 . S
H3551 C3526 0.950 . S
H3552 C3528 0.950 . S
H3553 C3529 0.949 . S
H3554 C3531 0.950 . S
H3555 C3533 0.950 . S
C3556 C3557 1.349 . S
C3556 C3558 1.327 . S
C3556 H3581 0.950 . S
C3557 C3556 1.349 . S
C3557 C3573 1.349 . S
C3558 C3556 1.327 . S
C3558 C3577 1.429 . S
C3558 H3582 0.950 . S
C3559 C3576 1.574 . S
C3559 C3578 1.368 . S
C3559 H3583 0.949 . S
H3560 C3564 0.949 . S
C3561 C3562 1.349 . S
C3561 C3563 1.327 . S
C3561 H3584 0.950 . S
C3562 C3561 1.349 . S
C3562 C3574 1.349 1_655 S
C3563 C3561 1.327 . S
C3563 C3579 1.429 . S
C3563 H3585 0.950 . S
C3564 H3560 0.949 . S
C3564 C3572 1.574 . S
C3564 C3580 1.368 . S
H3565 C3573 0.950 . S
H3566 C3571 0.950 . S
H3567 C3572 0.949 . S
H3568 C3574 0.950 . S
H3569 C3575 0.950 . S
H3570 C3576 0.949 . S
C3571 H3566 0.950 . S
C3571 C3573 1.327 . S
C3571 C3577 1.429 . S
C3572 C3564 1.574 . S
C3572 H3567 0.949 . S
C3572 C3578 1.368 . S
C3573 C3557 1.349 . S
C3573 H3565 0.950 . S
C3573 C3571 1.327 . S
C3574 C3562 1.349 1_455 S
C3574 H3568 0.950 . S
C3574 C3575 1.327 1_455 S
C3575 H3569 0.950 . S
C3575 C3574 1.327 1_655 S
C3575 C3579 1.429 . S
C3576 C3559 1.574 . S
C3576 H3570 0.949 . S
C3576 C3580 1.368 . S
C3577 C3558 1.429 . S
C3577 C3571 1.429 . S
C3577 C3578 1.523 . S
C3578 C3559 1.368 . S
C3578 C3572 1.368 . S
C3578 C3577 1.523 . S
C3579 C3563 1.429 . S
C3579 C3575 1.429 . S
C3579 C3580 1.523 . S
C3580 C3564 1.368 . S
C3580 C3576 1.368 . S
C3580 C3579 1.523 . S
H3581 C3556 0.950 . S
H3582 C3558 0.950 . S
H3583 C3559 0.949 . S
H3584 C3561 0.950 . S
H3585 C3563 0.950 . S
C3586 C3587 1.349 . S
C3586 C3588 1.327 . S
C3586 H3611 0.950 . S
C3587 C3586 1.349 . S
C3587 C3603 1.349 . S
C3588 C3586 1.327 . S
C3588 C3607 1.429 . S
C3588 H3612 0.950 . S
C3589 C3606 1.574 . S
C3589 C3608 1.368 . S
C3589 H3613 0.949 . S
H3590 C3594 0.949 . S
C3591 C3592 1.349 . S
C3591 C3593 1.327 . S
C3591 H3614 0.950 . S
C3592 C3591 1.349 . S
C3592 C3604 1.349 . S
C3593 C3591 1.327 . S
C3593 C3609 1.429 . S
C3593 H3615 0.950 . S
C3594 H3590 0.949 . S
C3594 C3602 1.574 . S
C3594 C3610 1.368 . S
H3595 C3603 0.950 . S
H3596 C3601 0.950 . S
H3597 C3602 0.949 . S
H3598 C3604 0.950 . S
H3599 C3605 0.950 . S
H3600 C3606 0.949 . S
C3601 H3596 0.950 . S
C3601 C3603 1.327 . S
C3601 C3607 1.429 . S
C3602 C3594 1.574 . S
C3602 H3597 0.949 . S
C3602 C3608 1.368 . S
C3603 C3587 1.349 . S
C3603 H3595 0.950 . S
C3603 C3601 1.327 . S
C3604 C3592 1.349 . S
C3604 H3598 0.950 . S
C3604 C3605 1.327 . S
C3605 H3599 0.950 . S
C3605 C3604 1.327 . S
C3605 C3609 1.429 . S
C3606 C3589 1.574 . S
C3606 H3600 0.949 . S
C3606 C3610 1.368 . S
C3607 C3588 1.429 . S
C3607 C3601 1.429 . S
C3607 C3608 1.523 . S
C3608 C3589 1.368 . S
C3608 C3602 1.368 . S
C3608 C3607 1.523 . S
C3609 C3593 1.429 . S
C3609 C3605 1.429 . S
C3609 C3610 1.523 . S
C3610 C3594 1.368 . S
C3610 C3606 1.368 . S
C3610 C3609 1.523 . S
H3611 C3586 0.950 . S
H3612 C3588 0.950 . S
H3613 C3589 0.949 . S
H3614 C3591 0.950 . S
H3615 C3593 0.950 . S
C3616 C3617 1.349 . S
C3616 C3618 1.327 . S
C3616 H3641 0.950 . S
C3617 C3616 1.349 . S
C3617 C3633 1.349 . S
C3618 C3616 1.327 . S
C3618 C3637 1.429 . S
C3618 H3642 0.950 . S
C3619 C3636 1.574 . S
C3619 C3638 1.368 . S
C3619 H3643 0.949 . S
H3620 C3624 0.949 . S
C3621 C3622 1.349 . S
C3621 C3623 1.327 . S
C3621 H3644 0.950 . S
C3622 C3621 1.349 . S
C3622 C3634 1.349 . S
C3623 C3621 1.327 . S
C3623 C3639 1.429 . S
C3623 H3645 0.950 . S
C3624 H3620 0.949 . S
C3624 C3632 1.574 . S
C3624 C3640 1.368 . S
H3625 C3633 0.950 . S
H3626 C3631 0.950 . S
H3627 C3632 0.949 . S
H3628 C3634 0.950 . S
H3629 C3635 0.950 . S
H3630 C3636 0.949 . S
C3631 H3626 0.950 . S
C3631 C3633 1.327 . S
C3631 C3637 1.429 . S
C3632 C3624 1.574 . S
C3632 H3627 0.949 . S
C3632 C3638 1.368 . S
C3633 C3617 1.349 . S
C3633 H3625 0.950 . S
C3633 C3631 1.327 . S
C3634 C3622 1.349 . S
C3634 H3628 0.950 . S
C3634 C3635 1.327 . S
C3635 H3629 0.950 . S
C3635 C3634 1.327 . S
C3635 C3639 1.429 . S
C3636 C3619 1.574 . S
C3636 H3630 0.949 . S
C3636 C3640 1.368 . S
C3637 C3618 1.429 . S
C3637 C3631 1.429 . S
C3637 C3638 1.523 . S
C3638 C3619 1.368 . S
C3638 C3632 1.368 . S
C3638 C3637 1.523 . S
C3639 C3623 1.429 . S
C3639 C3635 1.429 . S
C3639 C3640 1.523 . S
C3640 C3624 1.368 . S
C3640 C3636 1.368 . S
C3640 C3639 1.523 . S
H3641 C3616 0.950 . S
H3642 C3618 0.950 . S
H3643 C3619 0.949 . S
H3644 C3621 0.950 . S
H3645 C3623 0.950 . S
C3646 C3647 1.349 . S
C3646 C3648 1.327 . S
C3646 H3671 0.950 . S
C3647 C3646 1.349 . S
C3647 C3663 1.349 . S
C3648 C3646 1.327 . S
C3648 C3667 1.429 . S
C3648 H3672 0.950 . S
C3649 C3666 1.574 . S
C3649 C3668 1.368 . S
C3649 H3673 0.949 . S
H3650 C3654 0.949 . S
C3651 C3652 1.349 . S
C3651 C3653 1.327 . S
C3651 H3674 0.950 . S
C3652 C3651 1.349 . S
C3652 C3664 1.349 . S
C3653 C3651 1.327 . S
C3653 C3669 1.429 . S
C3653 H3675 0.950 . S
C3654 H3650 0.949 . S
C3654 C3662 1.574 . S
C3654 C3670 1.368 . S
H3655 C3663 0.950 . S
H3656 C3661 0.950 . S
H3657 C3662 0.949 . S
H3658 C3664 0.950 . S
H3659 C3665 0.950 . S
H3660 C3666 0.949 . S
C3661 H3656 0.950 . S
C3661 C3663 1.327 . S
C3661 C3667 1.429 . S
C3662 C3654 1.574 . S
C3662 H3657 0.949 . S
C3662 C3668 1.368 . S
C3663 C3647 1.349 . S
C3663 H3655 0.950 . S
C3663 C3661 1.327 . S
C3664 C3652 1.349 . S
C3664 H3658 0.950 . S
C3664 C3665 1.327 . S
C3665 H3659 0.950 . S
C3665 C3664 1.327 . S
C3665 C3669 1.429 . S
C3666 C3649 1.574 . S
C3666 H3660 0.949 . S
C3666 C3670 1.368 . S
C3667 C3648 1.429 . S
C3667 C3661 1.429 . S
C3667 C3668 1.523 . S
C3668 C3649 1.368 . S
C3668 C3662 1.368 . S
C3668 C3667 1.523 . S
C3669 C3653 1.429 . S
C3669 C3665 1.429 . S
C3669 C3670 1.523 . S
C3670 C3654 1.368 . S
C3670 C3666 1.368 . S
C3670 C3669 1.523 . S
H3671 C3646 0.950 . S
H3672 C3648 0.950 . S
H3673 C3649 0.949 . S
H3674 C3651 0.950 . S
H3675 C3653 0.950 . S
C3676 C3677 1.349 . S
C3676 C3678 1.327 . S
C3676 H3701 0.950 . S
C3677 C3676 1.349 . S
C3677 C3693 1.349 . S
C3678 C3676 1.327 . S
C3678 C3697 1.429 . S
C3678 H3702 0.950 . S
C3679 C3696 1.574 . S
C3679 C3698 1.368 . S
C3679 H3703 0.949 . S
H3680 C3684 0.949 . S
C3681 C3682 1.349 . S
C3681 C3683 1.327 . S
C3681 H3704 0.950 . S
C3682 C3681 1.349 . S
C3682 C3694 1.349 . S
C3683 C3681 1.327 . S
C3683 C3699 1.429 . S
C3683 H3705 0.950 . S
C3684 H3680 0.949 . S
C3684 C3692 1.574 . S
C3684 C3700 1.368 . S
H3685 C3693 0.950 . S
H3686 C3691 0.950 . S
H3687 C3692 0.949 . S
H3688 C3694 0.950 . S
H3689 C3695 0.950 . S
H3690 C3696 0.949 . S
C3691 H3686 0.950 . S
C3691 C3693 1.327 . S
C3691 C3697 1.429 . S
C3692 C3684 1.574 . S
C3692 H3687 0.949 . S
C3692 C3698 1.368 . S
C3693 C3677 1.349 . S
C3693 H3685 0.950 . S
C3693 C3691 1.327 . S
C3694 C3682 1.349 . S
C3694 H3688 0.950 . S
C3694 C3695 1.327 . S
C3695 H3689 0.950 . S
C3695 C3694 1.327 . S
C3695 C3699 1.429 . S
C3696 C3679 1.574 . S
C3696 H3690 0.949 . S
C3696 C3700 1.368 . S
C3697 C3678 1.429 . S
C3697 C3691 1.429 . S
C3697 C3698 1.523 . S
C3698 C3679 1.368 . S
C3698 C3692 1.368 . S
C3698 C3697 1.523 . S
C3699 C3683 1.429 . S
C3699 C3695 1.429 . S
C3699 C3700 1.523 . S
C3700 C3684 1.368 . S
C3700 C3696 1.368 . S
C3700 C3699 1.523 . S
H3701 C3676 0.950 . S
H3702 C3678 0.950 . S
H3703 C3679 0.949 . S
H3704 C3681 0.950 . S
H3705 C3683 0.950 . S
C3706 C3707 1.349 . S
C3706 C3708 1.327 . S
C3706 H3731 0.950 . S
C3707 C3706 1.349 . S
C3707 C3723 1.349 . S
C3708 C3706 1.327 . S
C3708 C3727 1.429 . S
C3708 H3732 0.950 . S
C3709 C3726 1.574 . S
C3709 C3728 1.368 . S
C3709 H3733 0.949 . S
H3710 C3714 0.949 . S
C3711 C3712 1.349 . S
C3711 C3713 1.327 . S
C3711 H3734 0.950 . S
C3712 C3711 1.349 . S
C3712 C3724 1.349 . S
C3713 C3711 1.327 . S
C3713 C3729 1.429 . S
C3713 H3735 0.950 . S
C3714 H3710 0.949 . S
C3714 C3722 1.574 . S
C3714 C3730 1.368 . S
H3715 C3723 0.950 . S
H3716 C3721 0.950 . S
H3717 C3722 0.949 . S
H3718 C3724 0.950 . S
H3719 C3725 0.950 . S
H3720 C3726 0.949 . S
C3721 H3716 0.950 . S
C3721 C3723 1.327 . S
C3721 C3727 1.429 . S
C3722 C3714 1.574 . S
C3722 H3717 0.949 . S
C3722 C3728 1.368 . S
C3723 C3707 1.349 . S
C3723 H3715 0.950 . S
C3723 C3721 1.327 . S
C3724 C3712 1.349 . S
C3724 H3718 0.950 . S
C3724 C3725 1.327 . S
C3725 H3719 0.950 . S
C3725 C3724 1.327 . S
C3725 C3729 1.429 . S
C3726 C3709 1.574 . S
C3726 H3720 0.949 . S
C3726 C3730 1.368 . S
C3727 C3708 1.429 . S
C3727 C3721 1.429 . S
C3727 C3728 1.523 . S
C3728 C3709 1.368 . S
C3728 C3722 1.368 . S
C3728 C3727 1.523 . S
C3729 C3713 1.429 . S
C3729 C3725 1.429 . S
C3729 C3730 1.523 . S
C3730 C3714 1.368 . S
C3730 C3726 1.368 . S
C3730 C3729 1.523 . S
H3731 C3706 0.950 . S
H3732 C3708 0.950 . S
H3733 C3709 0.949 . S
H3734 C3711 0.950 . S
H3735 C3713 0.950 . S
C3736 C3737 1.349 . S
C3736 C3738 1.327 . S
C3736 H3761 0.950 . S
C3737 C3736 1.349 . S
C3737 C3753 1.349 . S
C3738 C3736 1.327 . S
C3738 C3757 1.429 . S
C3738 H3762 0.950 . S
C3739 C3756 1.574 . S
C3739 C3758 1.368 . S
C3739 H3763 0.949 . S
H3740 C3744 0.949 . S
C3741 C3742 1.349 . S
C3741 C3743 1.327 . S
C3741 H3764 0.950 . S
C3742 C3741 1.349 . S
C3742 C3754 1.349 . S
C3743 C3741 1.327 . S
C3743 C3759 1.429 . S
C3743 H3765 0.950 . S
C3744 H3740 0.949 . S
C3744 C3752 1.574 . S
C3744 C3760 1.368 . S
H3745 C3753 0.950 . S
H3746 C3751 0.950 . S
H3747 C3752 0.949 . S
H3748 C3754 0.950 . S
H3749 C3755 0.950 . S
H3750 C3756 0.949 . S
C3751 H3746 0.950 . S
C3751 C3753 1.327 . S
C3751 C3757 1.429 . S
C3752 C3744 1.574 . S
C3752 H3747 0.949 . S
C3752 C3758 1.368 . S
C3753 C3737 1.349 . S
C3753 H3745 0.950 . S
C3753 C3751 1.327 . S
C3754 C3742 1.349 . S
C3754 H3748 0.950 . S
C3754 C3755 1.327 . S
C3755 H3749 0.950 . S
C3755 C3754 1.327 . S
C3755 C3759 1.429 . S
C3756 C3739 1.574 . S
C3756 H3750 0.949 . S
C3756 C3760 1.368 . S
C3757 C3738 1.429 . S
C3757 C3751 1.429 . S
C3757 C3758 1.523 . S
C3758 C3739 1.368 . S
C3758 C3752 1.368 . S
C3758 C3757 1.523 . S
C3759 C3743 1.429 . S
C3759 C3755 1.429 . S
C3759 C3760 1.523 . S
C3760 C3744 1.368 . S
C3760 C3756 1.368 . S
C3760 C3759 1.523 . S
H3761 C3736 0.950 . S
H3762 C3738 0.950 . S
H3763 C3739 0.949 . S
H3764 C3741 0.950 . S
H3765 C3743 0.950 . S
C3766 C3767 1.349 . S
C3766 C3768 1.327 . S
C3766 H3791 0.950 . S
C3767 C3766 1.349 . S
C3767 C3783 1.349 . S
C3768 C3766 1.327 . S
C3768 C3787 1.429 . S
C3768 H3792 0.950 1_554 S
C3769 C3786 1.574 . S
C3769 C3788 1.368 . S
C3769 H3793 0.949 . S
H3770 C3774 0.949 . S
C3771 C3772 1.349 . S
C3771 C3773 1.327 . S
C3771 H3794 0.950 . S
C3772 C3771 1.349 . S
C3772 C3784 1.349 1_554 S
C3773 C3771 1.327 . S
C3773 C3789 1.429 . S
C3773 H3795 0.950 . S
C3774 H3770 0.949 . S
C3774 C3782 1.574 1_556 S
C3774 C3790 1.368 1_556 S
H3775 C3783 0.950 . S
H3776 C3781 0.950 . S
H3777 C3782 0.949 1_556 S
H3778 C3784 0.950 . S
H3779 C3785 0.950 . S
H3780 C3786 0.949 . S
C3781 H3776 0.950 . S
C3781 C3783 1.327 . S
C3781 C3787 1.429 . S
C3782 C3774 1.574 1_554 S
C3782 H3777 0.949 1_554 S
C3782 C3788 1.368 . S
C3783 C3767 1.349 . S
C3783 H3775 0.950 . S
C3783 C3781 1.327 . S
C3784 C3772 1.349 1_556 S
C3784 H3778 0.950 . S
C3784 C3785 1.327 . S
C3785 H3779 0.950 . S
C3785 C3784 1.327 . S
C3785 C3789 1.429 1_556 S
C3786 C3769 1.574 . S
C3786 H3780 0.949 . S
C3786 C3790 1.368 . S
C3787 C3768 1.429 . S
C3787 C3781 1.429 . S
C3787 C3788 1.523 . S
C3788 C3769 1.368 . S
C3788 C3782 1.368 . S
C3788 C3787 1.523 . S
C3789 C3773 1.429 . S
C3789 C3785 1.429 1_554 S
C3789 C3790 1.523 . S
C3790 C3774 1.368 1_554 S
C3790 C3786 1.368 . S
C3790 C3789 1.523 . S
H3791 C3766 0.950 . S
H3792 C3768 0.950 1_556 S
H3793 C3769 0.949 . S
H3794 C3771 0.950 . S
H3795 C3773 0.950 . S
C3796 C3797 1.349 . S
C3796 C3798 1.327 . S
C3796 H3821 0.950 . S
C3797 C3796 1.349 . S
C3797 C3813 1.349 . S
C3798 C3796 1.327 . S
C3798 C3817 1.429 . S
C3798 H3822 0.950 . S
C3799 C3816 1.574 . S
C3799 C3818 1.368 . S
C3799 H3823 0.949 . S
H3800 C3804 0.949 . S
C3801 C3802 1.349 . S
C3801 C3803 1.327 . S
C3801 H3824 0.950 . S
C3802 C3801 1.349 . S
C3802 C3814 1.349 . S
C3803 C3801 1.327 . S
C3803 C3819 1.429 . S
C3803 H3825 0.950 . S
C3804 H3800 0.949 . S
C3804 C3812 1.574 . S
C3804 C3820 1.368 . S
H3805 C3813 0.950 . S
H3806 C3811 0.950 . S
H3807 C3812 0.949 . S
H3808 C3814 0.950 . S
H3809 C3815 0.950 . S
H3810 C3816 0.949 . S
C3811 H3806 0.950 . S
C3811 C3813 1.327 . S
C3811 C3817 1.429 . S
C3812 C3804 1.574 . S
C3812 H3807 0.949 . S
C3812 C3818 1.368 . S
C3813 C3797 1.349 . S
C3813 H3805 0.950 . S
C3813 C3811 1.327 . S
C3814 C3802 1.349 . S
C3814 H3808 0.950 . S
C3814 C3815 1.327 . S
C3815 H3809 0.950 . S
C3815 C3814 1.327 . S
C3815 C3819 1.429 . S
C3816 C3799 1.574 . S
C3816 H3810 0.949 . S
C3816 C3820 1.368 . S
C3817 C3798 1.429 . S
C3817 C3811 1.429 . S
C3817 C3818 1.523 . S
C3818 C3799 1.368 . S
C3818 C3812 1.368 . S
C3818 C3817 1.523 . S
C3819 C3803 1.429 . S
C3819 C3815 1.429 . S
C3819 C3820 1.523 . S
C3820 C3804 1.368 . S
C3820 C3816 1.368 . S
C3820 C3819 1.523 . S
H3821 C3796 0.950 . S
H3822 C3798 0.950 . S
H3823 C3799 0.949 . S
H3824 C3801 0.950 . S
H3825 C3803 0.950 . S
C3826 C3827 1.349 . S
C3826 C3828 1.327 . S
C3826 H3851 0.950 . S
C3827 C3826 1.349 . S
C3827 C3843 1.349 . S
C3828 C3826 1.327 . S
C3828 C3847 1.429 . S
C3828 H3852 0.950 . S
C3829 C3846 1.574 . S
C3829 C3848 1.368 . S
C3829 H3853 0.949 . S
H3830 C3834 0.949 . S
C3831 C3832 1.349 . S
C3831 C3833 1.327 . S
C3831 H3854 0.950 . S
C3832 C3831 1.349 . S
C3832 C3844 1.349 . S
C3833 C3831 1.327 . S
C3833 C3849 1.429 . S
C3833 H3855 0.950 . S
C3834 H3830 0.949 . S
C3834 C3842 1.574 . S
C3834 C3850 1.368 . S
H3835 C3843 0.950 . S
H3836 C3841 0.950 . S
H3837 C3842 0.949 . S
H3838 C3844 0.950 . S
H3839 C3845 0.950 . S
H3840 C3846 0.949 . S
C3841 H3836 0.950 . S
C3841 C3843 1.327 . S
C3841 C3847 1.429 . S
C3842 C3834 1.574 . S
C3842 H3837 0.949 . S
C3842 C3848 1.368 . S
C3843 C3827 1.349 . S
C3843 H3835 0.950 . S
C3843 C3841 1.327 . S
C3844 C3832 1.349 . S
C3844 H3838 0.950 . S
C3844 C3845 1.327 . S
C3845 H3839 0.950 . S
C3845 C3844 1.327 . S
C3845 C3849 1.429 . S
C3846 C3829 1.574 . S
C3846 H3840 0.949 . S
C3846 C3850 1.368 . S
C3847 C3828 1.429 . S
C3847 C3841 1.429 . S
C3847 C3848 1.523 . S
C3848 C3829 1.368 . S
C3848 C3842 1.368 . S
C3848 C3847 1.523 . S
C3849 C3833 1.429 . S
C3849 C3845 1.429 . S
C3849 C3850 1.523 . S
C3850 C3834 1.368 . S
C3850 C3846 1.368 . S
C3850 C3849 1.523 . S
H3851 C3826 0.950 . S
H3852 C3828 0.950 . S
H3853 C3829 0.949 . S
H3854 C3831 0.950 . S
H3855 C3833 0.950 . S
C977 C109 2.229 . S
C982 C346 2.167 . S
C1007 C65 2.039 . S
C1012 C394 2.025 . S
C1037 C75 1.153 . S
C1042 C426 1.138 . S
C1072 C471 1.593 . S
C1067 C84 1.606 . S
C1097 C25 0.861 . S
C1102 C511 0.860 . S
C1132 C546 0.774 . S
C1127 C28 0.775 . S
C1162 C585 1.198 . S
C1157 C47 1.207 . S
C1187 C9 1.231 . S
C1192 C622 1.231 . S
C1222 C354 2.061 . S
C1217 C233 2.065 . S
C1247 C249 0.417 . S
C1252 C391 0.524 . S
C1282 C434 2.469 . S
C1277 C275 2.495 . S
C1312 C466 0.965 . S
C1307 C173 0.977 . S
C1337 C224 1.158 . S
C1342 C506 1.146 . S
C1372 C554 0.467 . S
C1367 C243 0.456 . S
C1402 C595 1.826 . S
C1397 C266 1.875 . S
C1432 C625 1.859 . S
C1427 C179 1.874 . S
C1462 C351 1.130 . S
C1457 C163 1.137 . S
C1487 C289 2.195 . S
C1492 C674 2.166 . S
C1522 C711 1.120 . S
C1517 C333 1.117 . S
C1552 C742 0.330 . S
C1547 C308 0.310 . S
C1577 C123 2.817 . S
C1582 C635 2.771 . S
C1607 C126 1.457 . S
C1612 C431 1.456 . S
C1637 C327 1.801 . S
C1642 C794 1.804 . S
C1672 C826 1.811 . S
C1667 C299 1.833 . S
C1702 C355 2.175 . S
C1697 C67 2.241 . S
C1732 C825 2.075 . S
C1727 C98 2.063 . S
C1757 C89 1.186 . S
C1762 C435 1.173 . S
C1787 C79 1.666 . S
C1792 C782 1.639 . S
C1822 C502 0.892 . S
C1817 C11 0.891 . S
C1847 C51 0.829 . S
C1852 C715 0.827 . S
C1882 C594 1.226 . S
C1877 C33 1.237 . S
C1912 C871 1.232 . S
C1907 C14 1.241 . S
C1942 C345 2.047 . S
C1937 C140 2.061 . S
C1972 C822 0.500 . S
C1967 C319 0.333 . S
C1997 C112 2.497 . S
C2002 C425 2.493 . S
C2027 C285 1.009 . S
C2032 C795 0.998 . S
C2057 C149 1.215 . S
C2062 C515 1.202 . S
C2092 C705 0.536 . S
C2087 C313 0.526 . S
C2117 C121 1.991 . S
C2122 C586 1.917 . S
C2147 C291 1.899 . S
C2152 C874 1.878 . S
C2177 C182 1.107 . S
C2182 C342 1.093 . S
C2207 C168 2.215 . S
C2212 C665 2.206 . S
C2237 C263 1.150 . S
C2242 C542 1.150 . S
C2267 C247 0.218 . S
C2272 C751 0.328 . S
C2302 C866 2.782 . S
C2297 C277 2.828 . S
C2327 C219 1.508 . S
C2332 C422 1.490 . S
C2362 C465 1.855 . S
C2357 C257 1.855 . S
C2392 C395 1.824 . S
C2387 C201 1.841 . S
C2417 C81 2.229 . S
C2422 C906 2.166 . S
C2452 C834 2.025 . S
C2447 C93 2.040 . S
C2477 C103 1.153 . S
C2482 C946 1.138 . S
C2507 C56 1.571 1_655 S
C2512 C791 1.593 . S
C2537 C53 0.861 . S
C2542 C671 0.860 . S
C2572 C706 0.775 . S
C2567 C0 0.776 . S
C2602 C745 1.198 . S
C2597 C19 1.207 . S
C2632 C862 1.231 . S
C2627 C37 1.231 . S
C2662 C914 2.061 . S
C2657 C261 2.065 . S
C2687 C193 0.417 . S
C2692 C831 0.524 . S
C2722 C954 2.469 . S
C2717 C205 2.495 . S
C2752 C786 0.965 . S
C2747 C215 0.976 . S
C2782 C666 1.146 . S
C2777 C252 1.158 . S
C2807 C187 0.456 . S
C2812 C714 0.467 . S
C2842 C755 1.826 . S
C2837 C196 1.875 . S
C2867 C221 1.874 . S
C2872 C865 1.858 . S
C2902 C911 1.130 . S
C2897 C317 1.139 . S
C2927 C135 2.195 . S
C2932 C514 2.166 . S
C2962 C551 1.120 . S
C2957 C151 1.117 . S
C2992 C582 0.330 . S
C2987 C154 0.308 . S
C3022 C875 2.771 . S
C3017 C305 2.817 . S
C3047 C280 1.458 . S
C3052 C951 1.456 . S
C3082 C474 1.804 . S
C3077 C145 1.801 . S
C3112 C386 1.811 . S
C3107 C117 1.833 . S
C3137 C95 2.241 . S
C3142 C915 2.175 . S
C3172 C385 2.075 . S
C3167 C70 2.063 . S
C3197 C61 1.186 . S
C3202 C955 1.173 . S
C3227 C107 1.666 . S
C3232 C462 1.640 . S
C3257 C39 0.892 . S
C3262 C662 0.892 . S
C3292 C555 0.827 . S
C3287 C23 0.829 . S
C3317 C5 1.237 . S
C3322 C754 1.226 . S
C3347 C42 1.242 . S
C3352 C631 1.232 . S
C3382 C905 2.047 . S
C3377 C322 2.061 . S
C3407 C165 0.333 . S
C3412 C382 0.503 . S
C3442 C945 2.493 . S
C3437 C294 2.496 . S
C3467 C131 1.009 . S
C3472 C475 0.998 . S
C3497 C331 1.215 . S
C3502 C675 1.203 . S
C3532 C545 0.536 . S
C3527 C159 0.532 . S
C3557 C303 1.991 . S
C3562 C746 1.917 1_655 S
C3592 C634 1.878 . S
C3587 C137 1.899 . S
C3622 C902 1.092 . S
C3617 C238 1.107 . S
C3652 C505 2.201 1_565 S
C3647 C210 2.215 . S
C3677 C235 1.150 . S
C3682 C702 1.150 . S
C3712 C591 0.328 . S
C3707 C191 0.218 . S
C3737 C207 2.828 . S
C3742 C626 2.782 . S
C3767 C177 1.507 . S
C3772 C942 1.490 . S
C3802 C785 1.855 . S
C3797 C229 1.856 . S
C3832 C835 1.824 . S
C3827 C271 1.842 . S
