# Generated by pormake.
# Topology pth, (4,4)-cn, num edge types: 1
# Building blocks:
#     Node 0, Type 0, BuildingBlock: CEKHIL_clean_sbu_0, # of connection points: 4
#     Node 1, Type 0, BuildingBlock: CEKHIL_clean_sbu_0, # of connection points: 4
#     Node 2, Type 0, BuildingBlock: CEKHIL_clean_sbu_0, # of connection points: 4
#     Node 3, Type 1, BuildingBlock: MUDLON_clean_sbu_0, # of connection points: 4
#     Node 4, Type 1, BuildingBlock: MUDLON_clean_sbu_0, # of connection points: 4
#     Node 5, Type 1, BuildingBlock: MUDLON_clean_sbu_0, # of connection points: 4
#     Edge 6, Type (0, 1), BuildingBlock: FUNLAD_clean_linker_1, # of connection points: 2
#     Edge 7, Type (0, 1), BuildingBlock: FUNLAD_clean_linker_1, # of connection points: 2
#     Edge 8, Type (0, 1), BuildingBlock: FUNLAD_clean_linker_1, # of connection points: 2
#     Edge 9, Type (0, 1), BuildingBlock: FUNLAD_clean_linker_1, # of connection points: 2
#     Edge 10, Type (0, 1), BuildingBlock: FUNLAD_clean_linker_1, # of connection points: 2
#     Edge 11, Type (0, 1), BuildingBlock: FUNLAD_clean_linker_1, # of connection points: 2
#     Edge 12, Type (0, 1), BuildingBlock: FUNLAD_clean_linker_1, # of connection points: 2
#     Edge 13, Type (0, 1), BuildingBlock: FUNLAD_clean_linker_1, # of connection points: 2
#     Edge 14, Type (0, 1), BuildingBlock: FUNLAD_clean_linker_1, # of connection points: 2
#     Edge 15, Type (0, 1), BuildingBlock: FUNLAD_clean_linker_1, # of connection points: 2
#     Edge 16, Type (0, 1), BuildingBlock: FUNLAD_clean_linker_1, # of connection points: 2
#     Edge 17, Type (0, 1), BuildingBlock: FUNLAD_clean_linker_1, # of connection points: 2
# Relax obj value: 0.014
# Max RMSD: 0.063
# Mean RMSD: 0.051
data_MOF--net-pth--node1-CEKHIL_clean_sbu_0--node2-MUDLON_clean_sbu_0--edge1-FUNLAD_clean_linker_1
_symmetry_space_group_name_H-M    P1
_symmetry_Int_Tables_number       1
_symmetry_cell_setting            triclinic
loop_
_symmetry_equiv_pos_as_xyz
'x, y, z'
_cell_length_a     23.2662
_cell_length_b     23.376496
_cell_length_c     62.734767
_cell_angle_alpha  90.649188
_cell_angle_beta   89.770411
_cell_angle_gamma 120.09992
loop_
_atom_site_label
_atom_site_type_symbol
_atom_site_fract_x
_atom_site_fract_y
_atom_site_fract_z
_atom_type_partial_charge
Co0 Co 0.07849 0.07036 0.10798 0.0
O1 O 0.03046 1.00403 0.12941 0.0
O2 O 0.11113 0.00837 0.1096 0.0
C3 C 0.09755 0.15815 0.12886 0.0
O4 O 0.14175 0.13308 0.08495 0.0
Co5 Co 0.0226 0.15491 0.09053 0.0
O6 O 0.11362 0.2107 0.07922 0.0
C7 C 0.96435 0.01729 0.07543 0.0
C8 C 0.06812 0.97948 0.12478 0.0
C9 C 0.15285 0.18809 0.07665 0.0
O10 O 1.00992 0.01306 0.0857 0.0
O11 O 0.95788 0.06854 0.0763 0.0
O12 O 0.13527 0.13218 0.12998 0.0
O13 O 0.04599 0.12714 0.11657 0.0
Co14 Co 0.04586 0.08699 0.42652 0.0
O15 O 1.00431 0.11316 0.40505 0.0
O16 O 0.08929 0.18301 0.42496 0.0
C17 C 0.05274 0.01036 0.40571 0.0
O18 O 0.10378 0.0781 0.44957 0.0
Co19 Co 0.97485 0.9443 0.44361 0.0
O20 O 0.06221 0.97024 0.45662 0.0
C21 C 0.93167 0.03704 0.45865 0.0
C22 C 0.04764 0.17399 0.40973 0.0
C23 C 0.10735 0.03066 0.4587 0.0
O24 O 0.98118 0.08489 0.44895 0.0
O25 O 0.91773 0.97679 0.45705 0.0
O26 O 0.09735 0.07254 0.40445 0.0
O27 O 1.00313 0.99712 0.41807 0.0
Co28 Co 1.00565 0.04766 0.76105 0.0
O29 O 0.06531 0.09875 0.73848 0.0
O30 O 0.06897 0.01771 0.75499 0.0
C31 C 0.91303 0.03198 0.7437 0.0
O32 O 0.94899 0.98118 0.78438 0.0
Co33 Co 0.92462 0.09917 0.78483 0.0
O34 O 0.87169 0.00666 0.79464 0.0
C35 C 0.06613 0.1565 0.79556 0.0
C36 C 0.09272 0.0627 0.74029 0.0
C37 C 0.8954 0.96804 0.7946 0.0
O38 O 0.06847 0.11344 0.78312 0.0
O39 O 0.01421 0.16183 0.79758 0.0
O40 O 0.93763 0.99384 0.73986 0.0
O41 O 0.94716 0.0806 0.75677 0.0
Mg42 Mg 0.08203 0.59297 0.26585 0.0
C43 C 0.99041 0.47834 0.29865 0.0
O44 O 0.9399 0.48572 0.29351 0.0
C45 C 0.99836 0.6002 0.22881 0.0
O46 O 0.99819 0.54725 0.22156 0.0
C47 C 0.10212 0.50204 0.23728 0.0
O48 O 0.05312 0.46169 0.24968 0.0
O49 O 0.12962 0.56414 0.24084 0.0
O50 O 0.04638 0.51355 0.28968 0.0
O51 O 0.13793 0.68324 0.28521 0.0
C52 C 0.10001 0.68842 0.29889 0.0
O53 O 0.03791 0.64035 0.3 0.0
O54 O 0.02093 0.62219 0.24742 0.0
Mg55 Mg 0.5367 0.07234 0.60218 0.0
C56 C 0.45485 0.00949 0.56072 0.0
O57 O 0.50894 0.011 0.55388 0.0
C58 C 0.56975 0.96724 0.62376 0.0
O59 O 0.54212 0.92578 0.60773 0.0
C60 C 0.4433 0.08248 0.63169 0.0
O61 O 0.40825 0.0246 0.62224 0.0
O62 O 0.50335 0.11986 0.62581 0.0
O63 O 0.4514 0.0247 0.58007 0.0
O64 O 0.62323 0.13099 0.5814 0.0
C65 C 0.64963 0.09869 0.57377 0.0
O66 O 0.62624 0.03739 0.57986 0.0
O67 O 0.56979 0.0217 0.62413 0.0
Mg68 Mg 0.53946 0.56283 0.93485 0.0
C69 C 0.4393 0.48855 0.90108 0.0
O70 O 0.48787 0.47717 0.8965 0.0
C71 C 0.62126 0.66129 0.96788 0.0
O72 O 0.64129 0.6178 0.96819 0.0
C73 C 0.48894 0.42196 0.95407 0.0
O74 O 0.48645 0.40199 0.93429 0.0
O75 O 0.51393 0.48345 0.95812 0.0
O76 O 0.44666 0.52698 0.91674 0.0
O77 O 0.61656 0.59631 0.9099 0.0
C78 C 0.6767 0.60971 0.91107 0.0
O79 O 0.69803 0.59575 0.92849 0.0
O80 O 0.57443 0.65144 0.95516 0.0
H81 H 0.13793 0.21947 0.15775 0.0
C82 C 0.10771 0.21211 0.1437 0.0
H83 H 0.05048 0.2432 0.12689 0.0
H84 H 0.96858 0.35806 0.20508 0.0
H85 H 0.86282 0.27882 0.18935 0.0
H86 H 0.85706 0.2066 0.1595 0.0
H87 H 0.95678 0.21378 0.14499 0.0
C88 C 0.0806 0.25061 0.14096 0.0
C89 C 0.08509 0.29865 0.15795 0.0
C90 C 0.0259 0.29305 0.16652 0.0
C91 C 0.02901 0.33324 0.18425 0.0
C92 C 0.96911 0.32752 0.19207 0.0
C93 C 0.90799 0.28246 0.18313 0.0
C94 C 0.90477 0.24193 0.16629 0.0
C95 C 0.96272 0.2468 0.15806 0.0
H96 H 0.14681 0.50947 0.20528 0.0
C97 C 0.11753 0.47547 0.2178 0.0
H98 H 0.06061 0.37634 0.22735 0.0
H99 H 0.20858 0.33653 0.14194 0.0
H100 H 0.31444 0.41431 0.15811 0.0
H101 H 0.31915 0.47339 0.19147 0.0
H102 H 0.21832 0.45683 0.20846 0.0
C103 C 0.09097 0.40966 0.21481 0.0
C104 C 0.09097 0.37767 0.19396 0.0
C105 C 0.15038 0.38553 0.18483 0.0
C106 C 0.1475 0.34787 0.16635 0.0
C107 C 0.20777 0.3606 0.15667 0.0
C108 C 0.26888 0.40564 0.16566 0.0
C109 C 0.27153 0.43915 0.18439 0.0
C110 C 0.21317 0.4294 0.19393 0.0
H111 H 0.84505 0.00709 0.47947 0.0
C112 C 0.88849 0.05008 0.47299 0.0
H113 H 0.94617 0.15438 0.47413 0.0
H114 H 0.64446 0.06257 0.51611 0.0
H115 H 0.60295 0.02975 0.47994 0.0
H116 H 0.67831 0.03915 0.45068 0.0
H117 H 0.79554 0.08071 0.45742 0.0
C118 C 0.90145 0.11057 0.47947 0.0
C119 C 0.8585 0.11767 0.49601 0.0
C120 C 0.79058 0.09547 0.49172 0.0
C121 C 0.74728 0.09128 0.50855 0.0
C122 C 0.67935 0.06677 0.50391 0.0
C123 C 0.65499 0.04804 0.48322 0.0
C124 C 0.69742 0.05327 0.46675 0.0
C125 C 0.76447 0.07676 0.47085 0.0
H126 H 0.71904 0.17634 0.55134 0.0
C127 C 0.70148 0.12644 0.55691 0.0
H128 H 0.70614 0.03886 0.55326 0.0
H129 H 0.98753 0.17206 0.50928 0.0
H130 H 0.02969 0.21077 0.54502 0.0
H131 H 0.95468 0.20451 0.57396 0.0
H132 H 0.83676 0.15951 0.56731 0.0
C133 C 0.72442 0.08906 0.54785 0.0
C134 C 0.77197 0.11043 0.5296 0.0
C135 C 0.84091 0.13834 0.53348 0.0
C136 C 0.88425 0.14214 0.5167 0.0
C137 C 0.95247 0.16832 0.52133 0.0
C138 C 0.97732 0.19067 0.54179 0.0
C139 C 0.93507 0.18711 0.5581 0.0
C140 C 0.86757 0.16108 0.5541 0.0
H141 H 0.80821 0.89385 0.8121 0.0
C142 C 0.85861 0.90739 0.80754 0.0
H143 H 0.93646 0.88749 0.81287 0.0
H144 H 0.8022 0.77239 0.90389 0.0
H145 H 0.90091 0.87376 0.91431 0.0
H146 H 0.97657 0.95075 0.88729 0.0
H147 H 0.95312 0.92704 0.84957 0.0
C148 C 0.88483 0.87265 0.81584 0.0
C149 C 0.84587 0.81956 0.83182 0.0
C150 C 0.86183 0.83197 0.85383 0.0
C151 C 0.81905 0.78624 0.86945 0.0
C152 C 0.83392 0.80328 0.89129 0.0
C153 C 0.89032 0.86186 0.89754 0.0
C154 C 0.93283 0.9053 0.88232 0.0
C155 C 0.91879 0.89102 0.86072 0.0
H156 H 0.77414 0.65392 0.89465 0.0
C157 C 0.72484 0.64816 0.89397 0.0
H158 H 0.66221 0.67536 0.87833 0.0
H159 H 0.8048 0.77672 0.79111 0.0
H160 H 0.70719 0.67385 0.78034 0.0
H161 H 0.63417 0.59372 0.80717 0.0
H162 H 0.65817 0.61578 0.84493 0.0
C163 C 0.71158 0.68131 0.8791 0.0
C164 C 0.76142 0.7264 0.86303 0.0
C165 C 0.74737 0.71274 0.84093 0.0
C166 C 0.78945 0.75914 0.82539 0.0
C167 C 0.77393 0.74376 0.80353 0.0
C168 C 0.7183 0.68474 0.79713 0.0
C169 C 0.67719 0.63961 0.81224 0.0
C170 C 0.6914 0.65305 0.83388 0.0
H171 H 0.10734 0.9161 0.13605 0.0
C172 C 0.06569 0.9247 0.1373 0.0
H173 H 0.97442 0.89793 0.15205 0.0
H174 H 0.04834 0.6619 0.17796 0.0
H175 H 0.05474 0.64458 0.14017 0.0
H176 H 0.03844 0.71276 0.11386 0.0
H177 H 0.01822 0.8004 0.12527 0.0
C178 C 0.01542 0.88829 0.15087 0.0
C179 C 0.01646 0.84021 0.16642 0.0
C180 C 0.02284 0.78553 0.15949 0.0
C181 C 0.02657 0.74239 0.1747 0.0
C182 C 0.04033 0.69307 0.16726 0.0
C183 C 0.04488 0.683 0.14554 0.0
C184 C 0.03612 0.72165 0.13073 0.0
C185 C 0.02519 0.77231 0.13752 0.0
H186 H 0.94744 0.61518 0.20144 0.0
C187 C 0.98449 0.64051 0.21383 0.0
H188 H 0.06174 0.73154 0.22542 0.0
H189 H 1.00535 0.94017 0.18575 0.0
H190 H 0.99001 0.952 0.22334 0.0
H191 H 0.98509 0.87098 0.24918 0.0
H192 H 0.99644 0.77805 0.23757 0.0
C193 C 0.02365 0.70691 0.21327 0.0
C194 C 0.0178 0.75007 0.19682 0.0
C195 C 1.00868 0.8031 0.20364 0.0
C196 C 1.00922 0.84867 0.18858 0.0
C197 C 1.00324 0.90277 0.19623 0.0
C198 C 0.99475 0.91048 0.21785 0.0
C199 C 0.99216 0.86499 0.23241 0.0
C200 C 0.99905 0.81195 0.2255 0.0
H201 H 0.19857 0.09823 0.47718 0.0
C202 C 0.16412 0.04672 0.47323 0.0
H203 H 0.1365 0.94723 0.47863 0.0
H204 H 0.4442 0.09774 0.51782 0.0
H205 H 0.4816 0.14392 0.48274 0.0
H206 H 0.40113 0.12742 0.45449 0.0
H207 H 0.28279 0.06608 0.46132 0.0
C208 C 0.17198 0.99874 0.48224 0.0
C209 C 0.22234 0.0111 0.4992 0.0
C210 C 0.29144 0.04464 0.49467 0.0
C211 C 0.33788 0.05094 0.51067 0.0
C212 C 0.40661 0.08844 0.50605 0.0
C213 C 0.42885 0.11576 0.486 0.0
C214 C 0.38355 0.1067 0.47012 0.0
C215 C 0.31564 0.0716 0.4743 0.0
H216 H 0.40109 0.97428 0.53005 0.0
C217 C 0.40258 0.99865 0.54506 0.0
H218 H 0.36488 0.05023 0.56254 0.0
H219 H 0.09443 0.9479 0.51392 0.0
H220 H 0.05682 0.89905 0.54869 0.0
H221 H 0.13644 0.90436 0.57557 0.0
H222 H 0.25426 0.95893 0.56791 0.0
C223 C 0.36303 0.02503 0.54767 0.0
C224 C 0.31512 0.02054 0.53085 0.0
C225 C 0.24615 0.98781 0.53542 0.0
C226 C 0.19998 0.98353 0.51971 0.0
C227 C 0.13159 0.95144 0.52501 0.0
C228 C 0.10928 0.9234 0.54497 0.0
C229 C 0.15412 0.92651 0.56012 0.0
C230 C 0.22172 0.95819 0.5555 0.0
H231 H 0.17119 0.19847 0.80544 0.0
C232 C 0.12658 0.2015 0.80811 0.0
H233 H 0.08318 0.24691 0.82618 0.0
H234 H 0.28879 0.33151 0.90256 0.0
H235 H 0.19129 0.23999 0.91832 0.0
H236 H 0.09149 0.16993 0.89667 0.0
H237 H 0.08869 0.19084 0.85902 0.0
C238 C 0.12799 0.24501 0.82272 0.0
C239 C 0.1886 0.28851 0.83576 0.0
C240 C 0.18909 0.27694 0.85791 0.0
C241 C 0.24658 0.31796 0.87049 0.0
C242 C 0.24627 0.3031 0.89233 0.0
C243 C 0.19066 0.25041 0.90159 0.0
C244 C 0.13446 0.21096 0.88939 0.0
C245 C 0.13346 0.22366 0.8678 0.0
H246 H 0.33557 0.46224 0.89333 0.0
C247 C 0.37586 0.45361 0.88898 0.0
H248 H 0.40756 0.40231 0.86859 0.0
H249 H 0.20252 0.32889 0.79433 0.0
H250 H 0.29977 0.42094 0.77855 0.0
H251 H 0.39953 0.49124 0.80022 0.0
H252 H 0.4025 0.4702 0.83786 0.0
C253 C 0.36676 0.40974 0.8733 0.0
C254 C 0.3034 0.37138 0.86099 0.0
C255 C 0.30236 0.3837 0.83894 0.0
C256 C 0.24494 0.34263 0.82635 0.0
C257 C 0.24512 0.35748 0.80453 0.0
C258 C 0.30054 0.41042 0.79528 0.0
C259 C 0.3567 0.45002 0.80748 0.0
C260 C 0.35783 0.4372 0.82905 0.0
H261 H 0.8429 0.06505 0.73427 0.0
C262 C 0.85725 0.02809 0.73115 0.0
H263 H 0.84194 0.94726 0.71167 0.0
H264 H 0.56036 0.8892 0.67706 0.0
H265 H 0.52519 0.79995 0.70227 0.0
H266 H 0.60582 0.79535 0.72656 0.0
H267 H 0.72224 0.88049 0.72595 0.0
C268 C 0.82859 0.98491 0.71483 0.0
C269 C 0.77974 0.98803 0.70007 0.0
C270 C 0.71207 0.93723 0.7002 0.0
C271 C 0.66562 0.93926 0.68585 0.0
C272 C 0.59802 0.88925 0.6871 0.0
C273 C 0.57707 0.83789 0.70161 0.0
C274 C 0.62246 0.83534 0.71531 0.0
C275 C 0.68916 0.88441 0.71475 0.0
H276 H 0.61358 0.91129 0.63808 0.0
C277 C 0.60789 0.9544 0.64013 0.0
H278 H 0.63487 0.04096 0.65816 0.0
H279 H 0.90674 0.09018 0.69394 0.0
H280 H 0.94232 0.17849 0.66845 0.0
H281 H 0.86214 0.18244 0.6438 0.0
H282 H 0.74592 0.09786 0.64442 0.0
C283 C 0.63893 0.99678 0.65651 0.0
C284 C 0.68711 0.9915 0.67102 0.0
C285 C 0.75506 0.04186 0.67071 0.0
C286 C 0.80135 0.03994 0.6851 0.0
C287 C 0.86909 0.08986 0.68382 0.0
C288 C 0.89037 0.14074 0.66914 0.0
C289 C 0.84524 0.14295 0.65525 0.0
C290 C 0.77848 0.09414 0.65588 0.0
H291 H 0.92459 0.91706 0.0614 0.0
C292 C 0.91811 0.95999 0.06187 0.0
H293 H 0.86348 1.00255 0.04986 0.0
H294 H 0.76533 0.82529 0.96614 0.0
H295 H 0.84205 0.93279 0.95169 0.0
H296 H 0.91122 0.02746 0.97546 0.0
H297 H 0.90454 0.01503 1.01384 0.0
C298 C 0.86924 0.95923 0.05011 0.0
C299 C 0.82485 0.90194 0.03588 0.0
C300 C 0.82781 0.91024 1.01343 0.0
C301 C 0.78718 0.85564 0.99968 0.0
C302 C 0.79374 0.86506 0.97735 0.0
C303 C 0.83787 0.92655 0.96881 0.0
C304 C 0.87685 0.97985 0.98219 0.0
C305 C 0.87232 0.97204 1.00422 0.0
H306 H 0.63805 0.75735 0.98106 0.0
C307 C 0.65481 0.72158 0.9816 0.0
H308 H 0.72207 0.69649 0.99518 0.0
H309 H 0.79947 0.87034 0.07811 0.0
H310 H 0.72245 0.76283 0.09255 0.0
H311 H 0.65392 0.66798 0.06877 0.0
H312 H 0.66155 0.68028 0.03035 0.0
C313 C 0.70649 0.73312 0.99425 0.0
C314 C 0.74272 0.7928 1.00838 0.0
C315 C 0.73845 0.78499 0.03083 0.0
C316 C 0.77893 0.83956 0.04458 0.0
C317 C 0.77161 0.83034 0.06691 0.0
C318 C 0.72716 0.76893 0.07544 0.0
C319 C 0.68853 0.71554 0.06205 0.0
C320 C 0.69366 0.72324 0.04002 0.0
H321 H 0.01276 0.90836 0.39347 0.0
C322 C 0.05501 0.95829 0.39267 0.0
H323 H 0.14858 0.02032 0.37856 0.0
H324 H 0.17856 0.77126 0.35149 0.0
H325 H 0.25526 0.8141 0.38133 0.0
H326 H 0.26387 0.90553 0.40372 0.0
H327 H 0.19532 0.9544 0.39652 0.0
C328 C 0.10529 0.97104 0.37923 0.0
C329 C 0.10324 0.91862 0.36478 0.0
C330 C 0.14486 0.89169 0.36877 0.0
C331 C 0.14049 0.83934 0.35564 0.0
C332 C 0.18059 0.81165 0.36066 0.0
C333 C 0.22472 0.83569 0.37779 0.0
C334 C 0.22955 0.88716 0.39041 0.0
C335 C 0.19003 0.91484 0.38609 0.0
H336 H 0.17165 0.79132 0.30968 0.0
C337 C 0.1225 0.74898 0.31223 0.0
H338 H 0.03134 0.71085 0.32858 0.0
H339 H 0.02327 0.96525 0.35073 0.0
H340 H 0.94938 0.92514 0.32019 0.0
H341 H 0.94171 0.8347 0.29749 0.0
H342 H 1.00804 0.78391 0.30518 0.0
C343 C 0.0811 0.75285 0.3266 0.0
C344 C 0.09522 0.81471 0.33828 0.0
C345 C 0.05612 0.84409 0.33366 0.0
C346 C 0.06025 0.89608 0.34683 0.0
C347 C 0.02122 0.92484 0.34154 0.0
C348 C 0.97882 0.90253 0.32397 0.0
C349 C 0.97449 0.85161 0.31119 0.0
C350 C 0.01262 0.82266 0.31587 0.0
H351 H 0.14531 0.09331 0.70975 0.0
C352 C 0.1446 0.07077 0.72488 0.0
H353 H 0.19039 0.0311 0.74373 0.0
H354 H 0.31684 0.94883 0.66878 0.0
H355 H 0.25202 0.84658 0.68791 0.0
H356 H 0.1795 0.83978 0.7177 0.0
H357 H 0.17215 0.93528 0.72878 0.0
C358 C 0.19068 0.05337 0.7286 0.0
C359 C 0.23931 0.05942 0.7116 0.0
C360 C 0.2423 1.00264 0.70506 0.0
C361 C 0.28248 1.00596 0.68735 0.0
C362 C 0.28565 0.94875 0.68163 0.0
C363 C 0.24898 0.88972 0.69256 0.0
C364 C 0.20829 0.88595 0.70936 0.0
C365 C 0.2047 0.94143 0.71559 0.0
H366 H 0.4486 0.13711 0.66161 0.0
C367 C 0.41509 0.09886 0.65055 0.0
H368 H 0.31707 0.02454 0.64365 0.0
H369 H 0.262 0.18202 0.72359 0.0
H370 H 0.32451 0.28389 0.70392 0.0
H371 H 0.38111 0.28599 0.67036 0.0
H372 H 0.37769 0.18707 0.6567 0.0
C373 C 0.34938 0.06316 0.65484 0.0
C374 C 0.31809 0.06533 0.67559 0.0
C375 C 0.31744 0.12291 0.68267 0.0
C376 C 0.2804 0.12054 0.70119 0.0
C377 C 0.28543 0.18005 0.70889 0.0
C378 C 0.32173 0.23901 0.69788 0.0
C379 C 0.35389 0.24026 0.67905 0.0
C380 C 0.35189 0.18307 0.67144 0.0
H381 H 0.22398 0.27838 0.05986 0.0
C382 C 0.21148 0.22768 0.06288 0.0
H383 H 0.23104 0.15193 0.0536 0.0
H384 H 0.32694 0.30627 0.96433 0.0
H385 H 0.22003 0.21413 0.95435 0.0
H386 H 0.14671 0.13422 0.98113 0.0
H387 H 0.17991 0.14673 0.01825 0.0
C388 C 0.24507 0.20358 0.05214 0.0
C389 C 0.29515 0.2451 0.03559 0.0
C390 C 0.27708 0.23542 1.01372 0.0
C391 C 0.32074 0.2804 0.99809 0.0
C392 C 0.29805 0.27222 0.97674 0.0
C393 C 0.23614 0.21977 0.97078 0.0
C394 C 0.19478 0.17486 0.98587 0.0
C395 C 0.21451 0.1826 1.00712 0.0
H396 H 0.44206 0.32144 0.96773 0.0
C397 C 0.45385 0.37197 0.97092 0.0
H398 H 0.43997 0.43566 0.99161 0.0
H399 H 0.34755 0.27467 0.07569 0.0
H400 H 0.4563 0.36501 0.08593 0.0
H401 H 0.53347 0.44092 0.05896 0.0
H402 H 0.50255 0.42725 0.02159 0.0
C403 C 0.42858 0.38522 0.98847 0.0
C404 C 0.38432 0.33358 1.00421 0.0
C405 C 0.40325 0.34145 0.02604 0.0
C406 C 0.35872 0.29748 0.04167 0.0
C407 C 0.37915 0.30703 0.06326 0.0
C408 C 0.4415 0.35847 0.06934 0.0
C409 C 0.48496 0.40122 0.05415 0.0
C410 C 0.46644 0.39296 0.03275 0.0
H411 H 0.09184 0.27968 0.40105 0.0
C412 C 0.05168 0.22998 0.39748 0.0
H413 H 0.97039 0.17 0.37743 0.0
H414 H 1.00968 0.46667 0.35665 0.0
H415 H 0.98414 0.47171 0.39389 0.0
H416 H 0.97111 0.38527 0.41886 0.0
H417 H 0.98475 0.29386 0.40686 0.0
C418 C 1.00912 0.22008 0.38139 0.0
C419 C 0.01731 0.27369 0.36661 0.0
C420 C 1.00717 0.32588 0.37371 0.0
C421 C 0.01215 0.37457 0.35906 0.0
C422 C 1.00452 0.42742 0.36687 0.0
C423 C 0.99009 0.43105 0.38824 0.0
C424 C 0.98294 0.38247 0.40232 0.0
C425 C 0.99122 0.33037 0.39523 0.0
H426 H 0.93301 0.39779 0.32163 0.0
C427 C 0.98215 0.42906 0.31497 0.0
H428 H 0.0822 0.45194 0.31466 0.0
H429 H 0.04108 0.18166 0.34752 0.0
H430 H 0.0632 0.17484 0.31009 0.0
H431 H 0.06763 0.25651 0.28461 0.0
H432 H 0.05018 0.34571 0.29641 0.0
C433 C 0.03333 0.42203 0.32167 0.0
C434 C 0.02519 0.37001 0.33715 0.0
C435 C 0.03484 0.31759 0.33005 0.0
C436 C 0.03113 0.26971 0.34474 0.0
C437 C 0.04207 0.21867 0.33708 0.0
C438 C 0.05511 0.21428 0.31563 0.0
C439 C 0.05773 0.26032 0.30129 0.0
C440 C 0.04779 0.31143 0.30831 0.0
loop_
_geom_bond_atom_site_label_1
_geom_bond_atom_site_label_2
_geom_bond_distance
_geom_bond_site_symmetry_2
_ccdc_geom_bond_type
Co0 O1 2.216 1_445 S
Co0 O2 2.091 . S
Co0 O4 2.004 . S
Co0 O10 2.021 1_445 S
Co0 O12 2.137 . S
Co0 O13 2.244 1_455 S
O1 Co0 2.216 1_665 S
O1 C8 1.247 1_655 S
O2 Co0 2.091 . S
O2 C8 1.261 1_545 S
C3 O12 1.247 . S
C3 O13 1.272 1_455 S
O4 Co0 2.004 . S
O4 C9 1.259 . S
Co5 O6 2.061 1_655 S
Co5 O11 2.052 . S
Co5 O13 2.135 . S
O6 Co5 2.061 1_455 S
O6 C9 1.235 . S
C7 O10 1.238 . S
C7 O11 1.241 1_565 S
C8 O1 1.247 1_455 S
C8 O2 1.261 1_565 S
C9 O4 1.259 . S
C9 O6 1.235 . S
O10 Co0 2.021 1_665 S
O10 C7 1.238 . S
O11 Co5 2.052 . S
O11 C7 1.241 1_545 S
O12 Co0 2.137 . S
O12 C3 1.247 . S
O13 Co0 2.244 1_655 S
O13 C3 1.272 1_655 S
O13 Co5 2.135 . S
Co14 O15 2.226 . S
Co14 O16 2.091 . S
Co14 O18 2.004 . S
Co14 O24 2.021 . S
Co14 O26 2.137 . S
Co14 O27 2.244 1_545 S
O15 Co14 2.226 . S
O15 C22 1.251 . S
O16 Co14 2.091 . S
O16 C22 1.261 . S
C17 O26 1.247 1_565 S
C17 O27 1.272 . S
O18 Co14 2.004 . S
O18 C23 1.259 . S
Co19 O20 2.061 1_665 S
Co19 O25 2.052 . S
Co19 O27 2.135 1_655 S
O20 Co19 2.061 1_445 S
O20 C23 1.235 . S
C21 O24 1.238 1_655 S
C21 O25 1.241 1_545 S
C22 O15 1.251 . S
C22 O16 1.261 . S
C23 O18 1.259 . S
C23 O20 1.235 . S
O24 Co14 2.021 . S
O24 C21 1.238 1_455 S
O25 Co19 2.052 . S
O25 C21 1.241 1_565 S
O26 Co14 2.137 . S
O26 C17 1.247 1_545 S
O27 Co14 2.244 1_565 S
O27 C17 1.272 . S
O27 Co19 2.135 1_455 S
Co28 O29 2.216 . S
Co28 O30 2.091 1_545 S
Co28 O32 2.004 1_445 S
Co28 O38 2.021 . S
Co28 O40 2.137 1_455 S
Co28 O41 2.244 1_455 S
O29 Co28 2.216 . S
O29 C36 1.247 . S
O30 Co28 2.091 1_565 S
O30 C36 1.261 1_565 S
C31 O40 1.247 . S
C31 O41 1.272 . S
O32 Co28 2.004 1_665 S
O32 C37 1.259 . S
Co33 O34 2.061 . S
Co33 O39 2.052 1_655 S
Co33 O41 2.135 . S
O34 Co33 2.061 . S
O34 C37 1.235 1_545 S
C35 O38 1.238 . S
C35 O39 1.241 . S
C36 O29 1.247 . S
C36 O30 1.261 1_545 S
C37 O32 1.259 . S
C37 O34 1.235 1_565 S
O38 Co28 2.021 . S
O38 C35 1.238 . S
O39 Co33 2.052 1_455 S
O39 C35 1.241 . S
O40 Co28 2.137 1_655 S
O40 C31 1.247 . S
O41 Co28 2.244 1_655 S
O41 C31 1.272 . S
O41 Co33 2.135 . S
Mg42 O49 2.141 . S
Mg42 O50 2.048 . S
Mg42 O51 2.048 . S
Mg42 O54 2.141 . S
C43 O44 1.313 1_455 S
C43 O50 1.195 . S
O44 C43 1.313 1_655 S
C45 O46 1.245 1_455 S
C45 O54 1.289 . S
O46 C45 1.245 1_655 S
C47 O48 1.245 1_455 S
C47 O49 1.289 . S
O48 C47 1.245 1_655 S
O49 Mg42 2.141 . S
O49 C47 1.289 . S
O50 Mg42 2.048 . S
O50 C43 1.195 . S
O51 Mg42 2.048 . S
O51 C52 1.195 . S
C52 O51 1.195 . S
C52 O53 1.313 1_455 S
O53 C52 1.313 1_655 S
O54 Mg42 2.141 . S
O54 C45 1.289 . S
Mg55 O62 2.141 . S
Mg55 O63 2.048 . S
Mg55 O64 2.048 . S
Mg55 O67 2.141 . S
C56 O57 1.313 1_545 S
C56 O63 1.195 . S
O57 C56 1.313 1_565 S
C58 O59 1.245 1_545 S
C58 O67 1.289 . S
O59 C58 1.245 1_565 S
C60 O61 1.245 1_545 S
C60 O62 1.289 . S
O61 C60 1.245 1_565 S
O62 Mg55 2.141 . S
O62 C60 1.289 . S
O63 Mg55 2.048 . S
O63 C56 1.195 . S
O64 Mg55 2.048 . S
O64 C65 1.195 . S
C65 O64 1.195 . S
C65 O66 1.313 1_545 S
O66 C65 1.313 1_565 S
O67 Mg55 2.141 . S
O67 C58 1.289 . S
Mg68 O75 2.141 . S
Mg68 O76 2.048 . S
Mg68 O77 2.048 . S
Mg68 O80 2.141 . S
C69 O70 1.313 . S
C69 O76 1.195 . S
O70 C69 1.313 . S
C71 O72 1.245 . S
C71 O80 1.289 . S
O72 C71 1.245 . S
C73 O74 1.245 . S
C73 O75 1.289 . S
O74 C73 1.245 . S
O75 Mg68 2.141 . S
O75 C73 1.289 . S
O76 Mg68 2.048 . S
O76 C69 1.195 . S
O77 Mg68 2.048 . S
O77 C78 1.195 . S
C78 O77 1.195 . S
C78 O79 1.313 . S
O79 C78 1.313 . S
O80 Mg68 2.141 . S
O80 C71 1.289 . S
H81 C82 0.951 . S
C82 H81 0.951 . S
C82 C88 1.265 . S
H83 C88 0.950 . S
H84 C92 0.949 . S
H85 C93 0.950 . S
H86 C94 0.951 . S
H87 C95 0.951 . S
C88 C82 1.265 . S
C88 H83 0.950 . S
C88 C89 1.478 . S
C89 C88 1.478 . S
C89 C90 1.397 1_455 S
C89 C106 1.394 . S
C90 C89 1.397 1_655 S
C90 C91 1.438 . S
C90 C95 1.429 . S
C91 C90 1.438 . S
C91 C92 1.428 . S
C91 C104 1.394 1_655 S
C92 H84 0.949 . S
C92 C91 1.428 . S
C92 C93 1.345 . S
C93 H85 0.950 . S
C93 C92 1.345 . S
C93 C94 1.424 . S
C94 H86 0.951 . S
C94 C93 1.424 . S
C94 C95 1.347 . S
C95 H87 0.951 . S
C95 C90 1.429 . S
C95 C94 1.347 . S
H96 C97 0.951 . S
C97 H96 0.951 . S
C97 C103 1.265 . S
H98 C103 0.950 . S
H99 C107 0.949 . S
H100 C108 0.950 . S
H101 C109 0.951 . S
H102 C110 0.951 . S
C103 C97 1.265 . S
C103 H98 0.950 . S
C103 C104 1.478 . S
C104 C91 1.394 1_455 S
C104 C103 1.478 . S
C104 C105 1.397 . S
C105 C104 1.397 . S
C105 C106 1.438 . S
C105 C110 1.429 . S
C106 C89 1.394 . S
C106 C105 1.438 . S
C106 C107 1.428 . S
C107 H99 0.949 . S
C107 C106 1.428 . S
C107 C108 1.345 . S
C108 H100 0.950 . S
C108 C107 1.345 . S
C108 C109 1.424 . S
C109 H101 0.951 . S
C109 C108 1.424 . S
C109 C110 1.347 . S
C110 H102 0.951 . S
C110 C105 1.429 . S
C110 C109 1.347 . S
H111 C112 0.951 . S
C112 H111 0.951 . S
C112 C118 1.265 . S
H113 C118 0.950 . S
H114 C122 0.949 . S
H115 C123 0.950 . S
H116 C124 0.951 . S
H117 C125 0.951 1_545 S
C118 C112 1.265 . S
C118 H113 0.950 . S
C118 C119 1.478 . S
C119 C118 1.478 . S
C119 C120 1.397 . S
C119 C136 1.394 . S
C120 C119 1.397 . S
C120 C121 1.438 . S
C120 C125 1.429 1_545 S
C121 C120 1.438 . S
C121 C122 1.428 1_545 S
C121 C134 1.394 . S
C122 H114 0.949 . S
C122 C121 1.428 1_565 S
C122 C123 1.345 . S
C123 H115 0.950 . S
C123 C122 1.345 . S
C123 C124 1.424 . S
C124 H116 0.951 . S
C124 C123 1.424 . S
C124 C125 1.347 . S
C125 H117 0.951 1_565 S
C125 C120 1.429 1_565 S
C125 C124 1.347 . S
H126 C127 0.951 . S
C127 H126 0.951 . S
C127 C133 1.265 . S
H128 C133 0.950 . S
H129 C137 0.949 . S
H130 C138 0.950 1_455 S
H131 C139 0.951 . S
H132 C140 0.951 . S
C133 C127 1.265 . S
C133 H128 0.950 . S
C133 C134 1.478 . S
C134 C121 1.394 . S
C134 C133 1.478 . S
C134 C135 1.397 . S
C135 C134 1.397 . S
C135 C136 1.438 . S
C135 C140 1.429 . S
C136 C119 1.394 . S
C136 C135 1.438 . S
C136 C137 1.428 . S
C137 H129 0.949 . S
C137 C136 1.428 . S
C137 C138 1.345 . S
C138 H130 0.950 1_655 S
C138 C137 1.345 . S
C138 C139 1.424 . S
C139 H131 0.951 . S
C139 C138 1.424 . S
C139 C140 1.347 . S
C140 H132 0.951 . S
C140 C135 1.429 . S
C140 C139 1.347 . S
H141 C142 0.951 . S
C142 H141 0.951 . S
C142 C148 1.265 . S
H143 C148 0.950 . S
H144 C152 0.949 . S
H145 C153 0.950 . S
H146 C154 0.951 . S
H147 C155 0.951 . S
C148 C142 1.265 . S
C148 H143 0.950 . S
C148 C149 1.478 . S
C149 C148 1.478 . S
C149 C150 1.397 . S
C149 C166 1.394 . S
C150 C149 1.397 . S
C150 C151 1.438 . S
C150 C155 1.429 . S
C151 C150 1.438 . S
C151 C152 1.428 . S
C151 C164 1.394 . S
C152 H144 0.949 . S
C152 C151 1.428 . S
C152 C153 1.345 . S
C153 H145 0.950 . S
C153 C152 1.345 . S
C153 C154 1.424 . S
C154 H146 0.951 . S
C154 C153 1.424 . S
C154 C155 1.347 . S
C155 H147 0.951 . S
C155 C150 1.429 . S
C155 C154 1.347 . S
H156 C157 0.951 . S
C157 H156 0.951 . S
C157 C163 1.265 . S
H158 C163 0.950 . S
H159 C167 0.949 . S
H160 C168 0.950 . S
H161 C169 0.951 . S
H162 C170 0.951 . S
C163 C157 1.265 . S
C163 H158 0.950 . S
C163 C164 1.478 . S
C164 C151 1.394 . S
C164 C163 1.478 . S
C164 C165 1.397 . S
C165 C164 1.397 . S
C165 C166 1.438 . S
C165 C170 1.429 . S
C166 C149 1.394 . S
C166 C165 1.438 . S
C166 C167 1.428 . S
C167 H159 0.949 . S
C167 C166 1.428 . S
C167 C168 1.345 . S
C168 H160 0.950 . S
C168 C167 1.345 . S
C168 C169 1.424 . S
C169 H161 0.951 . S
C169 C168 1.424 . S
C169 C170 1.347 . S
C170 H162 0.951 . S
C170 C165 1.429 . S
C170 C169 1.347 . S
H171 C172 0.951 . S
C172 H171 0.951 . S
C172 C178 1.265 . S
H173 C178 0.950 . S
H174 C182 0.949 . S
H175 C183 0.950 . S
H176 C184 0.951 . S
H177 C185 0.951 . S
C178 C172 1.265 . S
C178 H173 0.950 . S
C178 C179 1.478 . S
C179 C178 1.478 . S
C179 C180 1.397 . S
C179 C196 1.394 1_455 S
C180 C179 1.397 . S
C180 C181 1.438 . S
C180 C185 1.429 . S
C181 C180 1.438 . S
C181 C182 1.428 . S
C181 C194 1.394 . S
C182 H174 0.949 . S
C182 C181 1.428 . S
C182 C183 1.345 . S
C183 H175 0.950 . S
C183 C182 1.345 . S
C183 C184 1.424 . S
C184 H176 0.951 . S
C184 C183 1.424 . S
C184 C185 1.347 . S
C185 H177 0.951 . S
C185 C180 1.429 . S
C185 C184 1.347 . S
H186 C187 0.951 . S
C187 H186 0.951 . S
C187 C193 1.265 . S
H188 C193 0.950 . S
H189 C197 0.949 . S
H190 C198 0.950 . S
H191 C199 0.951 . S
H192 C200 0.951 . S
C193 C187 1.265 . S
C193 H188 0.950 . S
C193 C194 1.478 . S
C194 C181 1.394 . S
C194 C193 1.478 . S
C194 C195 1.397 1_455 S
C195 C194 1.397 1_655 S
C195 C196 1.438 . S
C195 C200 1.429 . S
C196 C179 1.394 1_655 S
C196 C195 1.438 . S
C196 C197 1.428 . S
C197 H189 0.949 . S
C197 C196 1.428 . S
C197 C198 1.345 . S
C198 H190 0.950 . S
C198 C197 1.345 . S
C198 C199 1.424 . S
C199 H191 0.951 . S
C199 C198 1.424 . S
C199 C200 1.347 . S
C200 H192 0.951 . S
C200 C195 1.429 . S
C200 C199 1.347 . S
H201 C202 0.951 . S
C202 H201 0.951 . S
C202 C208 1.265 . S
H203 C208 0.950 . S
H204 C212 0.949 . S
H205 C213 0.950 . S
H206 C214 0.951 . S
H207 C215 0.951 . S
C208 C202 1.265 . S
C208 H203 0.950 . S
C208 C209 1.478 . S
C209 C208 1.478 . S
C209 C210 1.397 . S
C209 C226 1.394 . S
C210 C209 1.397 . S
C210 C211 1.438 . S
C210 C215 1.429 . S
C211 C210 1.438 . S
C211 C212 1.428 . S
C211 C224 1.394 . S
C212 H204 0.949 . S
C212 C211 1.428 . S
C212 C213 1.345 . S
C213 H205 0.950 . S
C213 C212 1.345 . S
C213 C214 1.424 . S
C214 H206 0.951 . S
C214 C213 1.424 . S
C214 C215 1.347 . S
C215 H207 0.951 . S
C215 C210 1.429 . S
C215 C214 1.347 . S
H216 C217 0.951 . S
C217 H216 0.951 . S
C217 C223 1.265 . S
H218 C223 0.950 . S
H219 C227 0.949 . S
H220 C228 0.950 . S
H221 C229 0.951 . S
H222 C230 0.951 . S
C223 C217 1.265 . S
C223 H218 0.950 . S
C223 C224 1.478 . S
C224 C211 1.394 . S
C224 C223 1.478 . S
C224 C225 1.397 . S
C225 C224 1.397 . S
C225 C226 1.438 . S
C225 C230 1.429 1_545 S
C226 C209 1.394 . S
C226 C225 1.438 . S
C226 C227 1.428 1_545 S
C227 H219 0.949 . S
C227 C226 1.428 1_565 S
C227 C228 1.345 . S
C228 H220 0.950 . S
C228 C227 1.345 . S
C228 C229 1.424 . S
C229 H221 0.951 . S
C229 C228 1.424 . S
C229 C230 1.347 . S
C230 H222 0.951 . S
C230 C225 1.429 1_565 S
C230 C229 1.347 . S
H231 C232 0.951 . S
C232 H231 0.951 . S
C232 C238 1.265 . S
H233 C238 0.950 . S
H234 C242 0.949 . S
H235 C243 0.950 . S
H236 C244 0.951 . S
H237 C245 0.951 . S
C238 C232 1.265 . S
C238 H233 0.950 . S
C238 C239 1.478 . S
C239 C238 1.478 . S
C239 C240 1.397 . S
C239 C256 1.394 . S
C240 C239 1.397 . S
C240 C241 1.438 . S
C240 C245 1.429 . S
C241 C240 1.438 . S
C241 C242 1.428 . S
C241 C254 1.394 . S
C242 H234 0.949 . S
C242 C241 1.428 . S
C242 C243 1.345 . S
C243 H235 0.950 . S
C243 C242 1.345 . S
C243 C244 1.424 . S
C244 H236 0.951 . S
C244 C243 1.424 . S
C244 C245 1.347 . S
C245 H237 0.951 . S
C245 C240 1.429 . S
C245 C244 1.347 . S
H246 C247 0.951 . S
C247 H246 0.951 . S
C247 C253 1.265 . S
H248 C253 0.950 . S
H249 C257 0.949 . S
H250 C258 0.950 . S
H251 C259 0.951 . S
H252 C260 0.951 . S
C253 C247 1.265 . S
C253 H248 0.950 . S
C253 C254 1.478 . S
C254 C241 1.394 . S
C254 C253 1.478 . S
C254 C255 1.397 . S
C255 C254 1.397 . S
C255 C256 1.438 . S
C255 C260 1.429 . S
C256 C239 1.394 . S
C256 C255 1.438 . S
C256 C257 1.428 . S
C257 H249 0.949 . S
C257 C256 1.428 . S
C257 C258 1.345 . S
C258 H250 0.950 . S
C258 C257 1.345 . S
C258 C259 1.424 . S
C259 H251 0.951 . S
C259 C258 1.424 . S
C259 C260 1.347 . S
C260 H252 0.951 . S
C260 C255 1.429 . S
C260 C259 1.347 . S
H261 C262 0.951 . S
C262 H261 0.951 . S
C262 C268 1.265 . S
H263 C268 0.950 . S
H264 C272 0.949 . S
H265 C273 0.950 . S
H266 C274 0.951 . S
H267 C275 0.951 . S
C268 C262 1.265 . S
C268 H263 0.950 . S
C268 C269 1.478 . S
C269 C268 1.478 . S
C269 C270 1.397 1_545 S
C269 C286 1.394 . S
C270 C269 1.397 1_565 S
C270 C271 1.438 . S
C270 C275 1.429 . S
C271 C270 1.438 . S
C271 C272 1.428 . S
C271 C284 1.394 1_565 S
C272 H264 0.949 . S
C272 C271 1.428 . S
C272 C273 1.345 . S
C273 H265 0.950 . S
C273 C272 1.345 . S
C273 C274 1.424 . S
C274 H266 0.951 . S
C274 C273 1.424 . S
C274 C275 1.347 . S
C275 H267 0.951 . S
C275 C270 1.429 . S
C275 C274 1.347 . S
H276 C277 0.951 . S
C277 H276 0.951 . S
C277 C283 1.265 . S
H278 C283 0.950 . S
H279 C287 0.949 . S
H280 C288 0.950 . S
H281 C289 0.951 . S
H282 C290 0.951 . S
C283 C277 1.265 . S
C283 H278 0.950 . S
C283 C284 1.478 . S
C284 C271 1.394 1_545 S
C284 C283 1.478 . S
C284 C285 1.397 . S
C285 C284 1.397 . S
C285 C286 1.438 . S
C285 C290 1.429 . S
C286 C269 1.394 . S
C286 C285 1.438 . S
C286 C287 1.428 . S
C287 H279 0.949 . S
C287 C286 1.428 . S
C287 C288 1.345 . S
C288 H280 0.950 . S
C288 C287 1.345 . S
C288 C289 1.424 . S
C289 H281 0.951 . S
C289 C288 1.424 . S
C289 C290 1.347 . S
C290 H282 0.951 . S
C290 C285 1.429 . S
C290 C289 1.347 . S
H291 C292 0.951 . S
C292 H291 0.951 . S
C292 C298 1.265 . S
H293 C298 0.950 . S
H294 C302 0.949 . S
H295 C303 0.950 . S
H296 C304 0.951 1_545 S
H297 C305 0.951 1_554 S
C298 C292 1.265 . S
C298 H293 0.950 . S
C298 C299 1.478 . S
C299 C298 1.478 . S
C299 C300 1.451 . S
C299 C316 1.394 . S
C300 C299 1.451 . S
C300 C301 1.401 1_554 S
C300 C305 1.411 1_554 S
C301 C300 1.401 1_556 S
C301 C302 1.428 . S
C301 C314 1.394 . S
C302 H294 0.949 . S
C302 C301 1.428 . S
C302 C303 1.345 . S
C303 H295 0.950 . S
C303 C302 1.345 . S
C303 C304 1.424 . S
C304 H296 0.951 1_565 S
C304 C303 1.424 . S
C304 C305 1.347 . S
C305 H297 0.951 1_556 S
C305 C300 1.411 1_556 S
C305 C304 1.347 . S
H306 C307 0.951 . S
C307 H306 0.951 . S
C307 C313 1.265 . S
H308 C313 0.950 . S
H309 C317 0.949 . S
H310 C318 0.950 . S
H311 C319 0.951 . S
H312 C320 0.951 . S
C313 C307 1.265 . S
C313 H308 0.950 . S
C313 C314 1.478 . S
C314 C301 1.394 . S
C314 C313 1.478 . S
C314 C315 1.397 1_556 S
C315 C314 1.397 1_554 S
C315 C316 1.438 . S
C315 C320 1.429 . S
C316 C299 1.394 . S
C316 C315 1.438 . S
C316 C317 1.428 . S
C317 H309 0.949 . S
C317 C316 1.428 . S
C317 C318 1.345 . S
C318 H310 0.950 . S
C318 C317 1.345 . S
C318 C319 1.424 . S
C319 H311 0.951 . S
C319 C318 1.424 . S
C319 C320 1.347 . S
C320 H312 0.951 . S
C320 C315 1.429 . S
C320 C319 1.347 . S
H321 C322 0.954 . S
C322 H321 0.954 . S
C322 C328 1.265 . S
H323 C328 0.950 . S
H324 C332 0.949 . S
H325 C333 0.950 . S
H326 C334 0.951 . S
H327 C335 0.951 . S
C328 C322 1.265 . S
C328 H323 0.950 . S
C328 C329 1.478 . S
C329 C328 1.478 . S
C329 C330 1.397 . S
C329 C346 1.394 1_455 S
C330 C329 1.397 . S
C330 C331 1.438 . S
C330 C335 1.429 . S
C331 C330 1.438 . S
C331 C332 1.428 . S
C331 C344 1.394 . S
C332 H324 0.949 . S
C332 C331 1.428 . S
C332 C333 1.345 . S
C333 H325 0.950 . S
C333 C332 1.345 . S
C333 C334 1.424 . S
C334 H326 0.951 . S
C334 C333 1.424 . S
C334 C335 1.347 . S
C335 H327 0.951 . S
C335 C330 1.429 . S
C335 C334 1.347 . S
H336 C337 0.951 . S
C337 H336 0.951 . S
C337 C343 1.265 . S
H338 C343 0.950 1_655 S
H339 C347 0.949 . S
H340 C348 0.950 . S
H341 C349 0.951 . S
H342 C350 0.951 . S
C343 C337 1.265 . S
C343 H338 0.950 1_455 S
C343 C344 1.478 . S
C344 C331 1.394 . S
C344 C343 1.478 . S
C344 C345 1.397 1_455 S
C345 C344 1.397 1_655 S
C345 C346 1.438 . S
C345 C350 1.429 . S
C346 C329 1.394 1_655 S
C346 C345 1.438 . S
C346 C347 1.428 . S
C347 H339 0.949 . S
C347 C346 1.428 . S
C347 C348 1.345 . S
C348 H340 0.950 . S
C348 C347 1.345 . S
C348 C349 1.424 . S
C349 H341 0.951 . S
C349 C348 1.424 . S
C349 C350 1.347 . S
C350 H342 0.951 . S
C350 C345 1.429 . S
C350 C349 1.347 . S
H351 C352 0.951 . S
C352 H351 0.951 . S
C352 C358 1.265 . S
H353 C358 0.950 . S
H354 C362 0.949 . S
H355 C363 0.950 . S
H356 C364 0.951 . S
H357 C365 0.951 . S
C358 C352 1.265 . S
C358 H353 0.950 . S
C358 C359 1.478 . S
C359 C358 1.478 . S
C359 C360 1.397 1_545 S
C359 C376 1.394 . S
C360 C359 1.397 1_565 S
C360 C361 1.438 . S
C360 C365 1.429 . S
C361 C360 1.438 . S
C361 C362 1.428 . S
C361 C374 1.394 1_565 S
C362 H354 0.949 . S
C362 C361 1.428 . S
C362 C363 1.345 . S
C363 H355 0.950 . S
C363 C362 1.345 . S
C363 C364 1.424 . S
C364 H356 0.951 . S
C364 C363 1.424 . S
C364 C365 1.347 . S
C365 H357 0.951 . S
C365 C360 1.429 . S
C365 C364 1.347 . S
H366 C367 0.951 . S
C367 H366 0.951 . S
C367 C373 1.265 . S
H368 C373 0.950 . S
H369 C377 0.949 . S
H370 C378 0.950 . S
H371 C379 0.951 . S
H372 C380 0.951 . S
C373 C367 1.265 . S
C373 H368 0.950 . S
C373 C374 1.478 . S
C374 C361 1.394 1_545 S
C374 C373 1.478 . S
C374 C375 1.397 . S
C375 C374 1.397 . S
C375 C376 1.438 . S
C375 C380 1.429 . S
C376 C359 1.394 . S
C376 C375 1.438 . S
C376 C377 1.428 . S
C377 H369 0.949 . S
C377 C376 1.428 . S
C377 C378 1.345 . S
C378 H370 0.950 . S
C378 C377 1.345 . S
C378 C379 1.424 . S
C379 H371 0.951 . S
C379 C378 1.424 . S
C379 C380 1.347 . S
C380 H372 0.951 . S
C380 C375 1.429 . S
C380 C379 1.347 . S
H381 C382 0.951 . S
C382 H381 0.951 . S
C382 C388 1.265 . S
H383 C388 0.950 . S
H384 C392 0.949 . S
H385 C393 0.950 . S
H386 C394 0.951 . S
H387 C395 0.951 . S
C388 C382 1.265 . S
C388 H383 0.950 . S
C388 C389 1.478 . S
C389 C388 1.478 . S
C389 C390 1.397 1_554 S
C389 C406 1.394 . S
C390 C389 1.397 1_556 S
C390 C391 1.438 . S
C390 C395 1.429 . S
C391 C390 1.438 . S
C391 C392 1.428 . S
C391 C404 1.394 . S
C392 H384 0.949 . S
C392 C391 1.428 . S
C392 C393 1.345 . S
C393 H385 0.950 . S
C393 C392 1.345 . S
C393 C394 1.424 . S
C394 H386 0.951 . S
C394 C393 1.424 . S
C394 C395 1.347 . S
C395 H387 0.951 . S
C395 C390 1.429 . S
C395 C394 1.347 . S
H396 C397 0.951 . S
C397 H396 0.951 . S
C397 C403 1.265 . S
H398 C403 0.950 . S
H399 C407 0.949 . S
H400 C408 0.950 . S
H401 C409 0.951 . S
H402 C410 0.951 . S
C403 C397 1.265 . S
C403 H398 0.950 . S
C403 C404 1.478 . S
C404 C391 1.394 . S
C404 C403 1.478 . S
C404 C405 1.397 1_556 S
C405 C404 1.397 1_554 S
C405 C406 1.438 . S
C405 C410 1.429 . S
C406 C389 1.394 . S
C406 C405 1.438 . S
C406 C407 1.428 . S
C407 H399 0.949 . S
C407 C406 1.428 . S
C407 C408 1.345 . S
C408 H400 0.950 . S
C408 C407 1.345 . S
C408 C409 1.424 . S
C409 H401 0.951 . S
C409 C408 1.424 . S
C409 C410 1.347 . S
C410 H402 0.951 . S
C410 C405 1.429 . S
C410 C409 1.347 . S
H411 C412 0.951 . S
C412 H411 0.951 . S
C412 C418 1.265 . S
H413 C418 0.950 1_655 S
H414 C422 0.949 . S
H415 C423 0.950 . S
H416 C424 0.951 . S
H417 C425 0.951 . S
C418 C412 1.265 . S
C418 H413 0.950 1_455 S
C418 C419 1.478 . S
C419 C418 1.478 . S
C419 C420 1.397 . S
C419 C436 1.394 . S
C420 C419 1.397 . S
C420 C421 1.438 . S
C420 C425 1.429 . S
C421 C420 1.438 . S
C421 C422 1.428 . S
C421 C434 1.394 . S
C422 H414 0.949 . S
C422 C421 1.428 . S
C422 C423 1.345 . S
C423 H415 0.950 . S
C423 C422 1.345 . S
C423 C424 1.424 . S
C424 H416 0.951 . S
C424 C423 1.424 . S
C424 C425 1.347 . S
C425 H417 0.951 . S
C425 C420 1.429 . S
C425 C424 1.347 . S
H426 C427 0.951 1_655 S
C427 H426 0.951 1_455 S
C427 C433 1.265 . S
H428 C433 0.950 . S
H429 C437 0.949 1_655 S
H430 C438 0.950 . S
H431 C439 0.952 1_655 S
H432 C440 0.951 . S
C433 C427 1.265 . S
C433 H428 0.950 . S
C433 C434 1.478 . S
C434 C421 1.394 . S
C434 C433 1.478 . S
C434 C435 1.397 . S
C435 C434 1.397 . S
C435 C436 1.438 . S
C435 C440 1.429 . S
C436 C419 1.394 . S
C436 C435 1.438 . S
C436 C437 1.428 . S
C437 H429 0.949 1_455 S
C437 C436 1.428 . S
C437 C438 1.345 1_455 S
C438 H430 0.950 . S
C438 C437 1.345 1_655 S
C438 C439 1.427 1_655 S
C439 H431 0.952 1_455 S
C439 C438 1.427 1_455 S
C439 C440 1.343 . S
C440 H432 0.951 . S
C440 C435 1.429 . S
C440 C439 1.343 . S
C97 C47 1.411 . S
C82 C3 1.401 . S
C112 C21 1.459 . S
C127 C65 1.517 . S
C142 C37 1.441 . S
C157 C78 1.462 . S
C172 C8 1.404 . S
C187 C45 1.400 . S
C217 C56 1.476 . S
C202 C23 1.456 . S
C232 C35 1.498 . S
C247 C69 1.498 . S
C277 C58 1.407 . S
C262 C31 1.427 . S
C292 C7 1.423 . S
C307 C71 1.435 . S
C337 C52 1.489 . S
C322 C17 1.493 . S
C367 C60 1.369 . S
C352 C36 1.367 . S
C397 C73 1.385 . S
C382 C9 1.376 . S
C412 C22 1.472 . S
C427 C43 1.465 . S
