# Generated by pormake.
# Topology ocu, (6,8)-cn, num edge types: 1
# Building blocks:
#     Node 0, Type 0, BuildingBlock: FUNLAD_clean_sbu_0, # of connection points: 6
#     Node 1, Type 0, BuildingBlock: FUNLAD_clean_sbu_0, # of connection points: 6
#     Node 2, Type 0, BuildingBlock: FUNLAD_clean_sbu_0, # of connection points: 6
#     Node 3, Type 0, BuildingBlock: FUNLAD_clean_sbu_0, # of connection points: 6
#     Node 4, Type 0, BuildingBlock: FUNLAD_clean_sbu_0, # of connection points: 6
#     Node 5, Type 0, BuildingBlock: FUNLAD_clean_sbu_0, # of connection points: 6
#     Node 6, Type 0, BuildingBlock: FUNLAD_clean_sbu_0, # of connection points: 6
#     Node 7, Type 0, BuildingBlock: FUNLAD_clean_sbu_0, # of connection points: 6
#     Node 8, Type 1, BuildingBlock: GIZVER_clean_sbu_0, # of connection points: 8
#     Node 9, Type 1, BuildingBlock: GIZVER_clean_sbu_0, # of connection points: 8
#     Node 10, Type 1, BuildingBlock: GIZVER_clean_sbu_0, # of connection points: 8
#     Node 11, Type 1, BuildingBlock: GIZVER_clean_sbu_0, # of connection points: 8
#     Node 12, Type 1, BuildingBlock: GIZVER_clean_sbu_0, # of connection points: 8
#     Node 13, Type 1, BuildingBlock: GIZVER_clean_sbu_0, # of connection points: 8
#     Edge 14, Type (0, 1), BuildingBlock: OJICUG_clean_linker_0, # of connection points: 2
#     Edge 15, Type (0, 1), BuildingBlock: OJICUG_clean_linker_0, # of connection points: 2
#     Edge 16, Type (0, 1), BuildingBlock: OJICUG_clean_linker_0, # of connection points: 2
#     Edge 17, Type (0, 1), BuildingBlock: OJICUG_clean_linker_0, # of connection points: 2
#     Edge 18, Type (0, 1), BuildingBlock: OJICUG_clean_linker_0, # of connection points: 2
#     Edge 19, Type (0, 1), BuildingBlock: OJICUG_clean_linker_0, # of connection points: 2
#     Edge 20, Type (0, 1), BuildingBlock: OJICUG_clean_linker_0, # of connection points: 2
#     Edge 21, Type (0, 1), BuildingBlock: OJICUG_clean_linker_0, # of connection points: 2
#     Edge 22, Type (0, 1), BuildingBlock: OJICUG_clean_linker_0, # of connection points: 2
#     Edge 23, Type (0, 1), BuildingBlock: OJICUG_clean_linker_0, # of connection points: 2
#     Edge 24, Type (0, 1), BuildingBlock: OJICUG_clean_linker_0, # of connection points: 2
#     Edge 25, Type (0, 1), BuildingBlock: OJICUG_clean_linker_0, # of connection points: 2
#     Edge 26, Type (0, 1), BuildingBlock: OJICUG_clean_linker_0, # of connection points: 2
#     Edge 27, Type (0, 1), BuildingBlock: OJICUG_clean_linker_0, # of connection points: 2
#     Edge 28, Type (0, 1), BuildingBlock: OJICUG_clean_linker_0, # of connection points: 2
#     Edge 29, Type (0, 1), BuildingBlock: OJICUG_clean_linker_0, # of connection points: 2
#     Edge 30, Type (0, 1), BuildingBlock: OJICUG_clean_linker_0, # of connection points: 2
#     Edge 31, Type (0, 1), BuildingBlock: OJICUG_clean_linker_0, # of connection points: 2
#     Edge 32, Type (0, 1), BuildingBlock: OJICUG_clean_linker_0, # of connection points: 2
#     Edge 33, Type (0, 1), BuildingBlock: OJICUG_clean_linker_0, # of connection points: 2
#     Edge 34, Type (0, 1), BuildingBlock: OJICUG_clean_linker_0, # of connection points: 2
#     Edge 35, Type (0, 1), BuildingBlock: OJICUG_clean_linker_0, # of connection points: 2
#     Edge 36, Type (0, 1), BuildingBlock: OJICUG_clean_linker_0, # of connection points: 2
#     Edge 37, Type (0, 1), BuildingBlock: OJICUG_clean_linker_0, # of connection points: 2
#     Edge 38, Type (0, 1), BuildingBlock: OJICUG_clean_linker_0, # of connection points: 2
#     Edge 39, Type (0, 1), BuildingBlock: OJICUG_clean_linker_0, # of connection points: 2
#     Edge 40, Type (0, 1), BuildingBlock: OJICUG_clean_linker_0, # of connection points: 2
#     Edge 41, Type (0, 1), BuildingBlock: OJICUG_clean_linker_0, # of connection points: 2
#     Edge 42, Type (0, 1), BuildingBlock: OJICUG_clean_linker_0, # of connection points: 2
#     Edge 43, Type (0, 1), BuildingBlock: OJICUG_clean_linker_0, # of connection points: 2
#     Edge 44, Type (0, 1), BuildingBlock: OJICUG_clean_linker_0, # of connection points: 2
#     Edge 45, Type (0, 1), BuildingBlock: OJICUG_clean_linker_0, # of connection points: 2
#     Edge 46, Type (0, 1), BuildingBlock: OJICUG_clean_linker_0, # of connection points: 2
#     Edge 47, Type (0, 1), BuildingBlock: OJICUG_clean_linker_0, # of connection points: 2
#     Edge 48, Type (0, 1), BuildingBlock: OJICUG_clean_linker_0, # of connection points: 2
#     Edge 49, Type (0, 1), BuildingBlock: OJICUG_clean_linker_0, # of connection points: 2
#     Edge 50, Type (0, 1), BuildingBlock: OJICUG_clean_linker_0, # of connection points: 2
#     Edge 51, Type (0, 1), BuildingBlock: OJICUG_clean_linker_0, # of connection points: 2
#     Edge 52, Type (0, 1), BuildingBlock: OJICUG_clean_linker_0, # of connection points: 2
#     Edge 53, Type (0, 1), BuildingBlock: OJICUG_clean_linker_0, # of connection points: 2
#     Edge 54, Type (0, 1), BuildingBlock: OJICUG_clean_linker_0, # of connection points: 2
#     Edge 55, Type (0, 1), BuildingBlock: OJICUG_clean_linker_0, # of connection points: 2
#     Edge 56, Type (0, 1), BuildingBlock: OJICUG_clean_linker_0, # of connection points: 2
#     Edge 57, Type (0, 1), BuildingBlock: OJICUG_clean_linker_0, # of connection points: 2
#     Edge 58, Type (0, 1), BuildingBlock: OJICUG_clean_linker_0, # of connection points: 2
#     Edge 59, Type (0, 1), BuildingBlock: OJICUG_clean_linker_0, # of connection points: 2
#     Edge 60, Type (0, 1), BuildingBlock: OJICUG_clean_linker_0, # of connection points: 2
#     Edge 61, Type (0, 1), BuildingBlock: OJICUG_clean_linker_0, # of connection points: 2
# Relax obj value: 0.257
# Max RMSD: 0.297
# Mean RMSD: 0.224
data_MOF--net-ocu--node1-FUNLAD_clean_sbu_0--node2-GIZVER_clean_sbu_0--edge1-OJICUG_clean_linker_0
_symmetry_space_group_name_H-M    P1
_symmetry_Int_Tables_number       1
_symmetry_cell_setting            triclinic
loop_
_symmetry_equiv_pos_as_xyz
'x, y, z'
_cell_length_a     31.712521
_cell_length_b     32.743363
_cell_length_c     24.680799
_cell_angle_alpha  81.253724
_cell_angle_beta   83.865466
_cell_angle_gamma 95.499126
loop_
_atom_site_label
_atom_site_type_symbol
_atom_site_fract_x
_atom_site_fract_y
_atom_site_fract_z
_atom_type_partial_charge
C0 C 0.22633 0.3226 0.32704 0.0
N1 N 0.20329 0.21425 0.25751 0.0
C2 C 0.18228 0.1943 0.30646 0.0
C3 C 0.15147 0.16117 0.30739 0.0
C4 C 0.14229 0.14881 0.25749 0.0
C5 C 0.1636 0.17019 0.20743 0.0
C6 C 0.19466 0.20308 0.20843 0.0
Zn7 Zn 0.25027 0.25932 0.25798 0.0
C8 C 0.24483 0.33053 0.17042 0.0
N9 N 0.35049 0.35286 0.25378 0.0
C10 C 0.36187 0.36208 0.30269 0.0
C11 C 0.37068 0.3731 0.2045 0.0
C12 C 0.40413 0.40384 0.20307 0.0
C13 C 0.417 0.4134 0.2528 0.0
C14 C 0.39581 0.39237 0.30318 0.0
Zn15 Zn 0.30296 0.3081 0.25372 0.0
O16 O 0.21072 0.28947 0.31192 0.0
C17 C 0.308 0.23711 0.34203 0.0
O18 O 0.26513 0.33621 0.31066 0.0
H19 H 0.36113 0.36499 0.16638 0.0
H20 H 0.1897 0.20394 0.34469 0.0
H21 H 0.34497 0.34559 0.34138 0.0
O22 O 0.27311 0.22387 0.32628 0.0
O23 O 0.32731 0.27186 0.3182 0.0
H24 H 0.21214 0.21943 0.17003 0.0
O25 O 0.34122 0.27952 0.19548 0.0
O26 O 0.28859 0.22979 0.20454 0.0
O27 O 0.27811 0.3451 0.18865 0.0
O28 O 0.22773 0.29417 0.19092 0.0
C29 C 0.32599 0.24502 0.18354 0.0
H30 H 0.13462 0.14544 0.34668 0.0
H31 H 0.15651 0.16145 0.16849 0.0
H32 H 0.42067 0.41934 0.16348 0.0
H33 H 0.4056 0.39898 0.34196 0.0
C34 C 0.72314 0.33935 0.20161 0.0
N35 N 0.75739 0.23199 0.15413 0.0
C36 C 0.71554 0.23668 0.14901 0.0
C37 C 0.69281 0.2158 0.11514 0.0
C38 C 0.71152 0.18718 0.08705 0.0
C39 C 0.75438 0.18108 0.09299 0.0
C40 C 0.7772 0.20451 0.12659 0.0
Zn41 Zn 0.77549 0.26525 0.21667 0.0
C42 C 0.84363 0.33372 0.19584 0.0
N43 N 0.77566 0.33383 0.35008 0.0
C44 C 0.77879 0.37588 0.33457 0.0
C45 C 0.79068 0.31685 0.39719 0.0
C46 C 0.81383 0.34224 0.42705 0.0
C47 C 0.82004 0.38531 0.40904 0.0
C48 C 0.80047 0.40229 0.36407 0.0
Zn49 Zn 0.7662 0.29909 0.28874 0.0
O50 O 0.74152 0.31201 0.18065 0.0
C51 C 0.69832 0.23064 0.30976 0.0
O52 O 0.72587 0.34225 0.25183 0.0
H53 H 0.788 0.28347 0.4092 0.0
H54 H 0.69755 0.2546 0.17418 0.0
H55 H 0.76829 0.38921 0.2963 0.0
O56 O 0.71993 0.22929 0.26392 0.0
O57 O 0.70972 0.25969 0.33607 0.0
H58 H 0.80971 0.19933 0.13242 0.0
O59 O 0.80635 0.25566 0.32296 0.0
O60 O 0.81201 0.21948 0.25477 0.0
O61 O 0.82228 0.33692 0.24152 0.0
O62 O 0.83241 0.3034 0.17116 0.0
C63 C 0.82038 0.22538 0.30272 0.0
H64 H 0.6594 0.22012 0.11399 0.0
H65 H 0.76957 0.15815 0.07294 0.0
H66 H 0.82846 0.32834 0.46201 0.0
H67 H 0.80498 0.43548 0.34909 0.0
C68 C 0.79283 0.72606 0.34429 0.0
N69 N 0.84868 0.84171 0.27687 0.0
C70 C 0.84331 0.84217 0.33232 0.0
C71 C 0.87665 0.85571 0.35911 0.0
C72 C 0.9167 0.86916 0.32932 0.0
C73 C 0.92174 0.87052 0.27167 0.0
C74 C 0.88702 0.85587 0.24605 0.0
Zn75 Zn 0.79879 0.80585 0.25426 0.0
C76 C 0.8248 0.74356 0.18936 0.0
N77 N 0.69496 0.71989 0.24042 0.0
C78 C 0.65806 0.70222 0.2723 0.0
C79 C 0.69996 0.72009 0.18483 0.0
C80 C 0.66741 0.70378 0.1589 0.0
C81 C 0.62892 0.68625 0.18994 0.0
C82 C 0.62439 0.68433 0.24764 0.0
Zn83 Zn 0.744 0.75685 0.26254 0.0
O84 O 0.81175 0.76061 0.31918 0.0
C85 C 0.71756 0.81969 0.32616 0.0
O86 O 0.75701 0.71278 0.33053 0.0
H87 H 0.72865 0.73492 0.1592 0.0
H88 H 0.81389 0.82913 0.35757 0.0
H89 H 0.6543 0.70302 0.31619 0.0
O90 O 0.75598 0.83286 0.30725 0.0
O91 O 0.7013 0.78532 0.31495 0.0
H92 H 0.89121 0.85417 0.2024 0.0
O93 O 0.73199 0.80151 0.196 0.0
O94 O 0.78486 0.85104 0.18844 0.0
O95 O 0.78728 0.72889 0.21089 0.0
O96 O 0.8402 0.7787 0.19916 0.0
C97 C 0.75009 0.83693 0.17274 0.0
H98 H 0.87108 0.8552 0.40333 0.0
H99 H 0.95229 0.88147 0.24729 0.0
H100 H 0.67245 0.70481 0.11453 0.0
H101 H 0.59507 0.67014 0.27282 0.0
C102 C 0.22625 0.83477 0.30133 0.0
N103 N 0.3262 0.78211 0.36614 0.0
C104 C 0.30571 0.79243 0.4127 0.0
C105 C 0.32619 0.82108 0.44108 0.0
C106 C 0.36804 0.8398 0.42106 0.0
C107 C 0.38995 0.82373 0.37759 0.0
C108 C 0.36864 0.7943 0.35148 0.0
Zn109 Zn 0.29152 0.77413 0.30071 0.0
C110 C 0.21517 0.71289 0.32025 0.0
N111 N 0.2219 0.77668 0.16122 0.0
C112 C 0.17895 0.7709 0.17702 0.0
C113 C 0.23892 0.76349 0.1147 0.0
C114 C 0.21301 0.73932 0.08612 0.0
C115 C 0.16963 0.72869 0.10619 0.0
C116 C 0.15223 0.74647 0.15035 0.0
Zn117 Zn 0.25792 0.78307 0.22483 0.0
O118 O 0.25396 0.81747 0.3269 0.0
C119 C 0.33348 0.8446 0.20499 0.0
O120 O 0.21903 0.82589 0.25464 0.0
H121 H 0.2731 0.76785 0.10303 0.0
H122 H 0.27197 0.78251 0.42412 0.0
H123 H 0.16587 0.78068 0.21458 0.0
O124 O 0.33458 0.82393 0.25265 0.0
O125 O 0.30264 0.83493 0.17827 0.0
H126 H 0.38458 0.78602 0.31438 0.0
O127 O 0.29684 0.73996 0.1975 0.0
O128 O 0.33035 0.73045 0.27134 0.0
O129 O 0.21513 0.7321 0.27153 0.0
O130 O 0.2451 0.72364 0.34788 0.0
C131 C 0.32413 0.7222 0.22379 0.0
H132 H 0.30814 0.83044 0.47593 0.0
H133 H 0.42204 0.83632 0.35981 0.0
H134 H 0.22733 0.72622 0.0518 0.0
H135 H 0.11876 0.73918 0.16646 0.0
C136 C 0.22871 0.83111 0.70972 0.0
N137 N 0.27213 0.72174 0.66229 0.0
C138 C 0.25597 0.73836 0.61588 0.0
C139 C 0.23244 0.71258 0.58688 0.0
C140 C 0.22699 0.66952 0.60497 0.0
C141 C 0.24768 0.65296 0.64913 0.0
C142 C 0.26974 0.67974 0.67782 0.0
Zn143 Zn 0.2829 0.75695 0.7228 0.0
C144 C 0.35072 0.82556 0.69908 0.0
N145 N 0.29302 0.82443 0.85627 0.0
C146 C 0.27287 0.85148 0.88419 0.0
C147 C 0.33468 0.81939 0.86202 0.0
C148 C 0.35697 0.83969 0.8969 0.0
C149 C 0.3379 0.86793 0.92539 0.0
C150 C 0.29521 0.87429 0.91881 0.0
Zn151 Zn 0.27493 0.79183 0.79354 0.0
O152 O 0.24069 0.79961 0.6904 0.0
C153 C 0.20733 0.72312 0.81757 0.0
O154 O 0.23954 0.8382 0.75608 0.0
H155 H 0.35271 0.80144 0.8369 0.0
H156 H 0.25813 0.7717 0.60381 0.0
H157 H 0.24045 0.85675 0.87799 0.0
O158 O 0.22916 0.71777 0.77332 0.0
O159 O 0.21719 0.75566 0.83864 0.0
H160 H 0.28124 0.66672 0.71555 0.0
O161 O 0.30825 0.74403 0.82957 0.0
O162 O 0.3249 0.71511 0.75736 0.0
O163 O 0.33104 0.82669 0.74624 0.0
O164 O 0.33747 0.79713 0.67284 0.0
C165 C 0.32713 0.71722 0.8079 0.0
H166 H 0.21701 0.72618 0.55248 0.0
H167 H 0.24382 0.61979 0.66418 0.0
H168 H 0.39028 0.8352 0.89864 0.0
H169 H 0.27979 0.89693 0.93919 0.0
C170 C 0.29816 0.21838 0.8408 0.0
N171 N 0.35374 0.33441 0.76937 0.0
C172 C 0.3495 0.33522 0.82471 0.0
C173 C 0.38295 0.35091 0.84958 0.0
C174 C 0.42165 0.36663 0.81772 0.0
C175 C 0.42546 0.36759 0.76023 0.0
C176 C 0.3908 0.35042 0.73665 0.0
Zn177 Zn 0.30373 0.2977 0.74942 0.0
C178 C 0.32865 0.23352 0.68669 0.0
N179 N 0.1978 0.21332 0.73886 0.0
C180 C 0.15914 0.20082 0.76973 0.0
C181 C 0.20295 0.21191 0.68364 0.0
C182 C 0.16918 0.19917 0.6571 0.0
C183 C 0.12884 0.18764 0.68682 0.0
C184 C 0.12389 0.18706 0.74432 0.0
Zn185 Zn 0.2486 0.24892 0.76002 0.0
O186 O 0.31628 0.25351 0.81642 0.0
C187 C 0.22403 0.31273 0.82386 0.0
O188 O 0.26289 0.20424 0.82636 0.0
H189 H 0.23252 0.22391 0.65811 0.0
H190 H 0.32078 0.32143 0.85107 0.0
H191 H 0.15511 0.20333 0.81313 0.0
O192 O 0.26145 0.32696 0.80136 0.0
O193 O 0.2082 0.27741 0.81512 0.0
H194 H 0.39394 0.3487 0.69301 0.0
O195 O 0.23534 0.2937 0.69443 0.0
O196 O 0.29042 0.34124 0.68123 0.0
O197 O 0.29049 0.22055 0.70708 0.0
O198 O 0.34529 0.26817 0.69662 0.0
C199 C 0.25428 0.32797 0.6684 0.0
H200 H 0.3785 0.35068 0.89381 0.0
H201 H 0.45494 0.38043 0.73442 0.0
H202 H 0.17464 0.19901 0.61302 0.0
H203 H 0.09308 0.17751 0.76867 0.0
C204 C 0.72058 0.32885 0.77875 0.0
N205 N 0.82141 0.28378 0.85832 0.0
C206 C 0.8029 0.30515 0.89608 0.0
C207 C 0.82831 0.33043 0.92373 0.0
C208 C 0.87285 0.33237 0.91367 0.0
C209 C 0.89081 0.30676 0.87915 0.0
C210 C 0.86452 0.28303 0.85129 0.0
Zn211 Zn 0.79018 0.26979 0.79322 0.0
C212 C 0.71648 0.20823 0.81434 0.0
N213 N 0.73058 0.25413 0.64906 0.0
C214 C 0.70678 0.27346 0.61202 0.0
C215 C 0.73261 0.21225 0.65299 0.0
C216 C 0.71239 0.18877 0.61938 0.0
C217 C 0.68734 0.20713 0.58192 0.0
C218 C 0.68423 0.25015 0.57806 0.0
Zn219 Zn 0.76041 0.27534 0.71406 0.0
O220 O 0.74833 0.3142 0.80727 0.0
C221 C 0.83423 0.33757 0.69353 0.0
O222 O 0.71507 0.31676 0.73298 0.0
H223 H 0.74773 0.19531 0.68486 0.0
H224 H 0.76869 0.30555 0.90152 0.0
H225 H 0.70375 0.30624 0.61029 0.0
O226 O 0.83397 0.31889 0.74279 0.0
O227 O 0.80472 0.32626 0.66541 0.0
H228 H 0.87934 0.26752 0.82002 0.0
O229 O 0.80688 0.23638 0.69737 0.0
O230 O 0.83186 0.22502 0.77685 0.0
O231 O 0.71822 0.22613 0.76472 0.0
O232 O 0.74487 0.22028 0.8432 0.0
C233 C 0.83112 0.2182 0.72788 0.0
H234 H 0.81347 0.34954 0.95075 0.0
H235 H 0.92513 0.30769 0.87022 0.0
H236 H 0.7144 0.15553 0.6251 0.0
H237 H 0.66419 0.26522 0.55015 0.0
C238 C 0.72116 0.81288 0.82578 0.0
N239 N 0.69745 0.70505 0.7552 0.0
C240 C 0.67762 0.68414 0.80431 0.0
C241 C 0.64493 0.65269 0.80534 0.0
C242 C 0.6325 0.64313 0.75539 0.0
C243 C 0.65324 0.66493 0.70523 0.0
C244 C 0.68639 0.69592 0.7061 0.0
Zn245 Zn 0.74444 0.75031 0.75527 0.0
C246 C 0.73803 0.82131 0.66688 0.0
N247 N 0.84334 0.84509 0.75042 0.0
C248 C 0.85205 0.85559 0.79982 0.0
C249 C 0.86376 0.86607 0.70168 0.0
C250 C 0.89413 0.89948 0.70138 0.0
C251 C 0.90354 0.91097 0.75168 0.0
C252 C 0.88276 0.8886 0.80145 0.0
Zn253 Zn 0.7969 0.79946 0.74989 0.0
O254 O 0.70609 0.77822 0.81415 0.0
C255 C 0.80363 0.7284 0.83757 0.0
O256 O 0.75827 0.82851 0.80397 0.0
H257 H 0.85627 0.85697 0.66318 0.0
H258 H 0.68696 0.69217 0.84258 0.0
H259 H 0.83496 0.83855 0.83807 0.0
O260 O 0.77017 0.71346 0.82002 0.0
O261 O 0.82027 0.76482 0.81662 0.0
H262 H 0.70303 0.71292 0.66756 0.0
O263 O 0.83681 0.76958 0.69556 0.0
O264 O 0.7824 0.72263 0.69791 0.0
O265 O 0.7732 0.83475 0.6818 0.0
O266 O 0.71914 0.78648 0.69114 0.0
C267 C 0.82114 0.73617 0.68111 0.0
H268 H 0.6287 0.63656 0.84478 0.0
H269 H 0.64378 0.6583 0.66629 0.0
H270 H 0.91065 0.91592 0.66227 0.0
H271 H 0.89007 0.89661 0.84067 0.0
Co272 Co 0.0839 0.95121 0.48104 0.0
Co273 Co 0.10364 0.99218 0.55565 0.0
Co274 Co 0.02466 0.02931 0.50687 0.0
O275 O 0.08092 1.00759 0.49123 0.0
H276 H 0.10091 1.02725 0.46537 0.0
O277 O 0.96832 0.05088 0.523 0.0
Co278 Co 0.96591 0.10698 0.53442 0.0
Co279 Co 0.94514 0.06709 0.45959 0.0
H280 H 0.94839 0.03109 0.54876 0.0
O281 O 0.1597 0.9862 0.56007 0.0
O282 O 0.1062 0.93598 0.55489 0.0
O283 O 0.07112 1.00154 0.62198 0.0
O284 O 1.01164 0.99528 0.58231 0.0
O285 O 0.0545 0.07288 0.54007 0.0
O286 O 0.96057 0.15642 0.55191 0.0
O287 O 0.91425 0.09776 0.57277 0.0
O288 O 1.02134 0.12192 0.49963 0.0
O289 O 0.03765 0.06322 0.43126 0.0
O290 O 0.97742 0.05864 0.39271 0.0
O291 O 0.94149 0.12289 0.46201 0.0
O292 O 0.88889 0.0718 0.45615 0.0
C293 C 0.12552 0.92208 0.43916 0.0
C294 C 1.00086 0.94803 0.48126 0.0
C295 C 0.03085 0.99817 0.62476 0.0
C296 C 0.14373 0.94729 0.56922 0.0
C297 C 0.92643 0.13539 0.58052 0.0
C298 C 0.04812 0.11071 0.53197 0.0
C299 C 1.01772 0.06135 0.38914 0.0
C300 C 0.90429 0.11089 0.44717 0.0
O301 O 0.09013 0.90155 0.46494 0.0
O302 O 0.1367 0.96017 0.44575 0.0
O303 O 0.99488 0.98596 0.47343 0.0
O304 O 0.02754 0.93621 0.51341 0.0
Co305 Co 0.57346 0.94171 0.99238 0.0
Co306 Co 0.57019 0.96504 0.08532 0.0
Co307 Co 0.52384 1.02748 0.00809 0.0
O308 O 0.57308 0.99486 0.01603 0.0
H309 H 0.60026 1.01191 0.00654 0.0
O310 O 0.47468 0.06021 0.99984 0.0
Co311 Co 0.47444 0.11362 0.02278 0.0
Co312 Co 0.47783 0.08976 0.93007 0.0
H313 H 0.44747 0.04323 0.00945 0.0
O314 O 0.61954 0.96522 0.11366 0.0
O315 O 0.58949 0.91723 0.06702 0.0
O316 O 0.5159 0.95123 0.12932 0.0
O317 O 0.48246 0.99249 0.0723 0.0
O318 O 0.54751 0.06598 0.0554 0.0
O319 O 0.47103 0.1618 0.04542 0.0
O320 O 0.41804 0.11016 0.04961 0.0
O321 O 0.53533 0.12395 1.00294 0.0
O322 O 0.56522 0.06231 0.94405 0.0
O323 O 0.53234 0.10346 0.88627 0.0
O324 O 0.45879 0.13787 0.94773 0.0
O325 O 0.42848 0.08981 0.90148 0.0
C326 C 0.61656 0.90883 0.95406 0.0
C327 C 0.4886 0.95109 0.98225 0.0
C328 C 0.48179 0.96422 0.11475 0.0
C329 C 0.6213 0.9315 0.09196 0.0
C330 C 0.43136 0.14701 0.05996 0.0
C331 C 0.55928 0.10393 0.0337 0.0
C332 C 0.56627 0.09043 0.90143 0.0
C333 C 0.42694 0.12373 0.92274 0.0
O334 O 0.57701 0.89375 0.96906 0.0
O335 O 0.6298 0.94557 0.96488 0.0
O336 O 0.50026 0.98907 0.96072 0.0
O337 O 0.51266 0.93101 0.01275 0.0
Co338 Co 0.07977 0.4475 0.98696 0.0
Co339 Co 0.07651 0.4714 0.08078 0.0
Co340 Co 0.02459 0.52969 1.00484 0.0
O341 O 0.07741 0.50084 0.01023 0.0
H342 H 0.10351 0.51941 0.99926 0.0
O343 O 0.97198 0.55868 1.00009 0.0
Co344 Co 0.97023 0.61194 0.02386 0.0
Co345 Co 0.97165 0.58827 0.9307 0.0
H346 H 0.94584 0.54021 0.01145 0.0
O347 O 0.1277 0.4698 0.1067 0.0
O348 O 0.09492 0.42362 0.06058 0.0
O349 O 1.02253 0.45324 0.12651 0.0
O350 O 0.98615 0.49035 0.06864 0.0
O351 O 0.04667 0.56938 0.05309 0.0
O352 O 0.96645 0.65959 0.04716 0.0
O353 O 0.9141 0.60702 0.05386 0.0
O354 O 0.02869 0.62428 1.00007 0.0
O355 O 0.06292 0.56893 0.94042 0.0
O356 O 0.02488 0.607 0.88579 0.0
O357 O 0.9535 0.63617 0.95092 0.0
O358 O 0.92037 0.58957 0.90555 0.0
C359 C 0.12299 0.41458 0.94814 0.0
C360 C 0.99803 0.45061 0.97541 0.0
C361 C 0.98727 0.46226 0.11091 0.0
C362 C 0.12741 0.43609 0.08484 0.0
C363 C 0.92731 0.64406 0.06388 0.0
C364 C 0.05256 0.60848 0.03401 0.0
C365 C 0.06062 0.59796 0.89958 0.0
C366 C 0.92094 0.6236 0.92672 0.0
O367 O 0.08367 0.39951 0.9644 0.0
O368 O 0.13631 0.45171 0.95787 0.0
O369 O 1.0022 0.48982 0.957 0.0
O370 O 1.02194 0.43595 0.00997 0.0
Co371 Co 0.58332 0.45121 0.96092 0.0
Co372 Co 0.60912 0.49129 0.03383 0.0
Co373 Co 0.52501 0.52617 1.00309 0.0
O374 O 0.58059 0.50729 0.97464 0.0
H375 H 0.59801 0.52811 0.94728 0.0
O376 O 0.4694 0.54505 0.0312 0.0
Co377 Co 0.46598 0.60106 0.04465 0.0
Co378 Co 0.44104 0.5606 0.97138 0.0
H379 H 0.45197 0.52421 0.05852 0.0
O380 O 0.66572 0.48729 0.02923 0.0
O381 O 0.61116 0.43611 0.02989 0.0
O382 O 0.58238 0.49737 0.10568 0.0
O383 O 0.51925 0.48814 0.07555 0.0
O384 O 0.55775 0.56803 0.03663 0.0
O385 O 0.45968 0.65046 0.06306 0.0
O386 O 0.41429 0.59127 0.08492 0.0
O387 O 0.52041 0.61727 0.00687 0.0
O388 O 0.53079 0.56429 0.93074 0.0
O389 O 0.46809 0.55416 0.89988 0.0
O390 O 0.43975 0.6161 0.97452 0.0
O391 O 0.38453 0.56586 0.97488 0.0
C392 C 0.62259 0.42238 0.91265 0.0
C393 C 0.50042 0.44694 0.97262 0.0
C394 C 0.5421 0.49115 0.11461 0.0
C395 C 0.64893 0.44864 0.04243 0.0
C396 C 0.42501 0.62973 0.09065 0.0
C397 C 0.54967 0.60527 0.0345 0.0
C398 C 0.50834 0.56088 0.89137 0.0
C399 C 0.40168 0.6044 0.96236 0.0
O400 O 0.58865 0.40173 0.94219 0.0
O401 O 0.6341 0.46071 0.91842 0.0
O402 O 0.49226 0.4842 0.96979 0.0
O403 O 0.52968 0.43541 1.00054 0.0
Co404 Co 0.11154 0.47518 0.51174 0.0
Co405 Co 0.07911 0.48478 0.42078 0.0
Co406 Co 1.02317 0.5272 0.50787 0.0
O407 O 0.05396 0.47809 0.49352 0.0
H408 H 0.03603 0.45186 0.50368 0.0
O409 O 0.99229 0.57631 0.52224 0.0
Co410 Co 0.9349 0.57915 0.50305 0.0
Co411 Co 0.96607 0.5694 0.59464 0.0
H412 H 1.01024 0.60254 0.5124 0.0
O413 O 0.08149 0.43786 0.3895 0.0
O414 O 0.13152 0.46765 0.43454 0.0
O415 O 0.09206 0.54047 0.37992 0.0
O416 O 0.0586 0.56983 0.44541 0.0
O417 O 0.97867 0.50979 0.46109 0.0
O418 O 0.88351 0.58355 0.48413 0.0
O419 O 0.93648 0.63522 0.47959 0.0
O420 O 0.92542 0.52167 0.52039 0.0
O421 O 0.9879 0.48448 0.5703 0.0
O422 O 0.95243 0.51337 0.63475 0.0
O423 O 0.91419 0.58735 0.57975 0.0
O424 O 0.96372 0.61634 0.62615 0.0
C425 C 0.1491 0.43154 0.54284 0.0
C426 C 0.10716 0.55136 0.53399 0.0
C427 C 0.08393 0.57255 0.40034 0.0
C428 C 0.11829 0.43797 0.40817 0.0
C429 C 0.89761 0.62257 0.47076 0.0
C430 C 0.93927 0.50286 0.48179 0.0
C431 C 0.96176 0.48141 0.61473 0.0
C432 C 0.92745 0.617 0.60619 0.0
O433 O 0.16318 0.47059 0.52976 0.0
O434 O 0.11009 0.41903 0.53439 0.0
O435 O 0.06773 0.5446 0.55462 0.0
O436 O 0.12089 0.53273 0.49513 0.0
Co437 Co 0.61199 0.97983 0.50384 0.0
Co438 Co 0.58401 0.99394 0.41136 0.0
Co439 Co 0.52278 0.0283 0.50113 0.0
O440 O 0.55639 0.98354 0.48173 0.0
H441 H 0.53946 0.95672 0.48841 0.0
O442 O 0.4891 0.07276 0.52098 0.0
Co443 Co 0.43316 0.07655 0.50005 0.0
Co444 Co 0.46225 0.06211 0.59184 0.0
H445 H 0.50617 0.09951 0.51475 0.0
O446 O 0.58528 0.94982 0.3756 0.0
O447 O 0.63484 0.97441 0.42619 0.0
O448 O 0.59446 0.05069 0.37564 0.0
O449 O 0.5541 0.07539 0.44005 0.0
O450 O 0.47962 1.01099 0.45339 0.0
O451 O 0.38279 0.08421 0.47932 0.0
O452 O 0.43737 0.13261 0.48335 0.0
O453 O 0.42198 1.01668 0.50986 0.0
O454 O 0.49143 0.98123 0.56203 0.0
O455 O 0.45281 1.00562 0.62827 0.0
O456 O 0.41082 0.08091 0.57863 0.0
O457 O 0.46124 0.10599 0.62778 0.0
C458 C 0.6461 0.93378 0.53504 0.0
C459 C 0.60398 0.05959 0.5254 0.0
C460 C 0.58089 0.08112 0.39573 0.0
C461 C 0.6207 0.94654 0.39727 0.0
C462 C 0.39892 0.12291 0.4712 0.0
C463 C 0.44144 0.99739 0.47501 0.0
C464 C 0.4657 0.97533 0.60727 0.0
C465 C 0.42511 0.10867 0.60773 0.0
O466 O 0.66217 0.97252 0.52569 0.0
O467 O 0.6078 0.92371 0.52256 0.0
O468 O 0.56617 0.04589 0.54852 0.0
O469 O 0.62313 0.03931 0.49164 0.0
C470 C 0.06677 0.12641 0.25887 0.0
C471 C 0.10823 0.11511 0.26018 0.0
H472 H 1.00337 0.11677 0.30151 0.0
C473 C 0.11445 0.07636 0.28917 0.0
H474 H 0.06155 0.15618 0.23624 0.0
C475 C 0.08166 0.05446 0.32744 0.0
C476 C 0.04264 0.07086 0.33488 0.0
H477 H 0.14633 0.06712 0.29001 0.0
H478 H 0.08857 0.02809 0.35604 0.0
C479 C 0.03366 0.10415 0.29666 0.0
C480 C 0.84122 0.15412 0.33319 0.0
C481 C 0.844 0.19652 0.33728 0.0
H482 H 0.857 0.09383 0.36574 0.0
C483 C 0.86677 0.21073 0.37816 0.0
H484 H 0.82355 0.14216 0.30265 0.0
C485 C 0.88654 0.18316 0.4139 0.0
C486 C 0.88279 0.14057 0.41072 0.0
H487 H 0.86933 0.24328 0.3825 0.0
H488 H 0.90415 0.19504 0.44456 0.0
C489 C 0.85993 0.12641 0.36991 0.0
C490 C 0.95684 0.8617 0.4113 0.0
C491 C 0.95084 0.88444 0.35989 0.0
H492 H 0.97759 0.86437 0.49093 0.0
C493 C 0.96939 0.92565 0.34516 0.0
H494 H 0.94307 0.82957 0.42324 0.0
C495 C 0.98867 0.94538 0.38384 0.0
C496 C 0.9898 0.92417 0.43774 0.0
H497 H 0.9653 0.94379 0.30592 0.0
H498 H 1.00033 0.97803 0.37252 0.0
C499 C 0.9763 0.8815 0.45009 0.0
C500 C 0.15654 0.85744 0.33129 0.0
C501 C 0.20102 0.86215 0.32921 0.0
H502 H 0.09751 0.87225 0.36986 0.0
C503 C 0.22088 0.88843 0.36131 0.0
H504 H 0.14075 0.83679 0.30742 0.0
C505 C 0.19637 0.90909 0.39624 0.0
C506 C 0.15181 0.90247 0.40068 0.0
H507 H 0.25529 0.89203 0.36047 0.0
H508 H 0.2121 0.92878 0.42135 0.0
C509 C 0.13199 0.8771 0.36749 0.0
C510 C 0.18115 0.84654 0.63559 0.0
C511 C 0.20499 0.86028 0.67579 0.0
H512 H 0.14259 0.86306 0.57072 0.0
C513 C 0.20847 0.90264 0.68024 0.0
H514 H 0.17804 0.81404 0.63097 0.0
C515 C 0.18935 0.93075 0.64465 0.0
C516 C 0.16538 0.91707 0.60459 0.0
H517 H 0.22692 0.91429 0.71029 0.0
H518 H 0.19285 0.96326 0.64911 0.0
C519 C 0.161 0.87454 0.60093 0.0
C520 C 0.07521 0.1324 0.67025 0.0
C521 C 0.09426 0.17348 0.65619 0.0
H522 H 0.04498 0.08039 0.64138 0.0
C523 C 0.08927 0.19655 0.60458 0.0
H524 H 0.07848 0.11403 0.70966 0.0
C525 C 0.0709 0.17702 0.56477 0.0
C526 C 0.05736 0.13435 0.57641 0.0
H527 H 0.10348 0.22858 0.59315 0.0
H528 H 0.07073 0.19431 0.52373 0.0
C529 C 0.0569 0.11298 0.63059 0.0
C530 C 0.90094 0.20517 0.68487 0.0
C531 C 0.85817 0.1907 0.70356 0.0
H532 H 0.95599 0.19926 0.62989 0.0
C533 C 0.83851 0.15635 0.68439 0.0
H534 H 0.91609 0.23244 0.6981 0.0
C535 C 0.86092 0.13761 0.64505 0.0
C536 C 0.90294 0.15372 0.62356 0.0
H537 H 0.80506 0.14557 0.6975 0.0
H538 H 0.84478 0.1118 0.62977 0.0
C539 C 0.92322 0.18685 0.64492 0.0
C540 C 0.97904 0.93258 0.75275 0.0
C541 C 0.93786 0.9443 0.74984 0.0
H542 H 0.04326 0.94212 0.71273 0.0
C543 C 0.93251 0.9834 0.72109 0.0
H544 H 0.98356 0.90251 0.77519 0.0
C545 C 0.96627 1.00555 0.68465 0.0
C546 C 1.00524 0.98888 0.67853 0.0
H547 H 0.90085 0.99294 0.71901 0.0
H548 H 0.96023 0.0323 0.65604 0.0
C549 C 1.01306 0.95502 0.71666 0.0
C550 C 0.33501 0.18186 0.13858 0.0
C551 C 0.35174 0.22128 0.14822 0.0
H552 H 0.34676 0.12738 0.10314 0.0
C553 C 0.39378 0.23665 0.12595 0.0
H554 H 0.30259 0.16907 0.155 0.0
C555 C 0.41891 0.21277 0.09626 0.0
C556 C 0.40275 0.17278 0.08811 0.0
H557 H 0.40763 0.26685 0.1323 0.0
H558 H 0.45145 0.22554 0.08052 0.0
C559 C 0.36025 0.15786 0.10885 0.0
C560 C 0.91042 0.37818 0.20782 0.0
C561 C 0.88063 0.36615 0.17308 0.0
H562 H 0.96724 0.41722 0.21584 0.0
C563 C 0.88426 0.38852 0.11906 0.0
H564 H 0.90816 0.3622 0.25 0.0
C565 C 0.91686 0.42181 0.10043 0.0
C566 C 0.94784 0.43274 0.13444 0.0
H567 H 0.86133 0.38088 0.09158 0.0
H568 H 0.91856 0.43817 0.05861 0.0
C569 C 0.94401 0.41022 0.18847 0.0
C570 C 0.72799 0.906 0.1358 0.0
C571 C 0.72489 0.86294 0.1369 0.0
H572 H 0.69756 0.96132 0.12059 0.0
C573 C 0.6906 0.84367 0.11428 0.0
H574 H 0.75373 0.92174 0.15304 0.0
C575 C 0.65796 0.86624 0.09605 0.0
C576 C 0.65886 0.90846 0.1005 0.0
H577 H 0.68743 0.81042 0.11427 0.0
H578 H 0.63084 0.85006 0.08198 0.0
C579 C 0.69528 0.92848 0.11792 0.0
C580 C 0.12624 0.65921 0.12165 0.0
C581 C 0.14328 0.69601 0.08562 0.0
H582 H 0.08488 0.60185 0.13308 0.0
C583 C 0.13319 0.70203 0.03133 0.0
H584 H 0.13387 0.65392 0.16374 0.0
C585 C 0.10463 0.67275 0.01424 0.0
C586 C 0.08653 0.63643 0.05068 0.0
H587 H 0.14604 0.7301 1.00291 0.0
H588 H 0.09601 0.67895 0.97276 0.0
C589 C 0.09848 0.62939 0.10411 0.0
C590 C 0.3907 0.87249 0.99248 0.0
C591 C 0.36646 0.89316 0.9546 0.0
H592 H 0.44858 0.87404 0.03 0.0
C593 C 0.37986 0.93489 0.93184 0.0
H594 H 0.38131 0.8401 0.01012 0.0
C595 C 0.41873 0.95428 0.94269 0.0
C596 C 0.44507 0.9322 0.97629 0.0
H597 H 0.36234 0.95129 0.90171 0.0
H598 H 0.42916 0.98585 0.92222 0.0
C599 C 0.42969 0.89167 1.00292 0.0
C600 C 0.15778 0.32341 0.88293 0.0
C601 C 0.19937 0.33815 0.85818 0.0
H602 H 0.10174 0.33552 0.9307 0.0
C603 C 0.21684 0.37806 0.86533 0.0
H604 H 0.14333 0.29291 0.8786 0.0
C605 C 0.1928 0.40295 0.8954 0.0
C606 C 0.15079 0.38844 0.919 0.0
H607 H 0.24896 0.39042 0.84697 0.0
H608 H 0.20683 0.43368 0.89932 0.0
C609 C 0.13392 0.34811 0.9129 0.0
C610 C 0.67964 0.14654 0.88524 0.0
C611 C 0.68023 0.17495 0.83617 0.0
H612 H 0.64424 0.09569 0.94287 0.0
C613 C 0.64508 0.17135 0.80599 0.0
H614 H 0.70628 0.14791 0.90919 0.0
C615 C 0.60954 0.1421 0.82548 0.0
C616 C 0.60792 0.11473 0.87554 0.0
H617 H 0.64424 0.19219 0.76766 0.0
H618 H 0.58257 0.14193 0.80199 0.0
C619 C 0.64414 0.11635 0.90424 0.0
C620 C 0.8644 0.71893 0.89341 0.0
C621 C 0.82768 0.70169 0.87382 0.0
H622 H 0.92283 0.70751 0.92646 0.0
C623 C 0.8187 0.65829 0.88091 0.0
H624 H 0.87196 0.75233 0.88901 0.0
C625 C 0.84805 0.63281 0.90164 0.0
C626 C 0.88669 0.6502 0.91623 0.0
H627 H 0.79061 0.64402 0.86661 0.0
H628 H 0.84145 0.59951 0.90348 0.0
C629 C 0.89359 0.69332 0.9148 0.0
C630 C 0.18484 0.34098 0.11372 0.0
C631 C 0.2212 0.35778 0.13443 0.0
H632 H 0.12649 0.35287 0.0809 0.0
C633 C 0.22984 0.40111 0.12932 0.0
H634 H 0.1776 0.30764 0.11659 0.0
C635 C 0.2003 0.4268 0.10973 0.0
C636 C 0.16191 0.40968 0.09426 0.0
H637 H 0.25768 0.41503 0.14453 0.0
H638 H 0.20654 0.45995 0.10952 0.0
C639 C 0.1555 0.36681 0.09343 0.0
C640 C 0.12838 0.70132 0.83981 0.0
C641 C 0.1703 0.69156 0.84203 0.0
H642 H 0.0617 0.67962 0.85397 0.0
C643 C 0.17638 0.64996 0.86137 0.0
H644 H 0.1226 0.73277 0.82415 0.0
C645 C 0.14126 0.61915 0.87953 0.0
C646 C 0.09914 0.62876 0.87645 0.0
H647 H 0.20843 0.6413 0.86261 0.0
H648 H 0.1471 0.5878 0.89556 0.0
C649 C 0.09346 0.67042 0.85607 0.0
C650 C 0.35842 0.21213 0.89823 0.0
C651 C 0.32368 0.19265 0.87664 0.0
H652 H 0.41837 0.20582 0.93015 0.0
C653 C 0.3202 0.14945 0.87896 0.0
H654 H 0.36195 0.24549 0.89725 0.0
C655 C 0.35283 0.12695 0.89713 0.0
C656 C 0.38958 0.14705 0.91372 0.0
H657 H 0.29413 0.13353 0.8625 0.0
H658 H 0.3502 0.09395 0.89544 0.0
C659 C 0.39096 0.18953 0.91683 0.0
C660 C 0.93492 0.34955 0.96263 0.0
C661 C 0.90134 0.363 0.93475 0.0
H662 H 0.99152 0.36652 0.99678 0.0
C663 C 0.89868 0.40592 0.92103 0.0
H664 H 0.93773 0.31665 0.9733 0.0
C665 C 0.93011 0.43497 0.93363 0.0
C666 C 0.96427 0.42133 0.96063 0.0
H667 H 0.87325 0.41692 0.8987 0.0
H668 H 0.9278 0.46787 0.92212 0.0
C669 C 0.96584 0.37828 0.97565 0.0
C670 C 0.71221 0.87565 0.87172 0.0
C671 C 0.69563 0.83619 0.86203 0.0
H672 H 0.70054 0.92963 0.90841 0.0
C673 C 0.65399 0.82024 0.88549 0.0
H674 H 0.74432 0.88889 0.85443 0.0
C675 C 0.62909 0.84358 0.91641 0.0
C676 C 0.64507 0.88359 0.92468 0.0
H677 H 0.64026 0.78999 0.87918 0.0
H678 H 0.59684 0.83035 0.93304 0.0
C679 C 0.6872 0.8991 0.9027 0.0
C680 C 0.8919 0.73374 0.13157 0.0
C681 C 0.85003 0.71879 0.15493 0.0
H682 H 0.94856 0.72221 0.08461 0.0
C683 C 0.83274 0.67923 0.1463 0.0
H684 H 0.90619 0.76398 0.13715 0.0
C685 C 0.85719 0.65487 0.11602 0.0
C686 C 0.89942 0.66959 0.0937 0.0
H687 H 0.80041 0.66676 0.16359 0.0
H688 H 0.84326 0.62441 0.1108 0.0
C689 C 0.91619 0.70955 0.10138 0.0
C690 C 0.36881 0.90671 0.13341 0.0
C691 C 0.36899 0.8787 0.18272 0.0
H692 H 0.40333 0.95735 0.07447 0.0
C693 C 0.40443 0.88321 0.21219 0.0
H694 H 0.34201 0.90463 0.10984 0.0
C695 C 0.43946 0.91289 0.19186 0.0
C696 C 0.44042 0.93972 0.14147 0.0
H697 H 0.40594 0.8628 0.25063 0.0
H698 H 0.46666 0.91374 0.21493 0.0
C699 C 0.40392 0.9372 0.11338 0.0
C700 C 0.65802 0.18198 0.02102 0.0
C701 C 0.68242 0.16157 0.05891 0.0
H702 H 0.59973 0.18043 0.98441 0.0
C703 C 0.66862 0.12013 0.08288 0.0
H704 H 0.66764 0.21416 1.0025 0.0
C705 C 0.62938 0.10083 0.07298 0.0
C706 C 0.603 0.12272 0.0392 0.0
H707 H 0.68621 0.10397 0.11312 0.0
H708 H 0.61873 0.06951 0.09422 0.0
C709 C 0.61863 0.16295 0.01162 0.0
C710 C 0.55537 0.62772 0.76211 0.0
C711 C 0.59534 0.61261 0.75843 0.0
H712 H 0.49412 0.62166 0.81023 0.0
C713 C 0.59905 0.57197 0.78347 0.0
H714 H 0.5521 0.65905 0.74267 0.0
C715 C 0.56637 0.55104 0.82273 0.0
C716 C 0.52989 0.57046 0.83525 0.0
H717 H 0.6297 0.55985 0.78062 0.0
H718 H 0.57208 0.52268 0.84844 0.0
C719 C 0.5224 0.60657 0.80111 0.0
C720 C 0.37116 0.7035 0.88467 0.0
C721 C 0.34941 0.68855 0.84357 0.0
H722 H 0.40492 0.68851 0.95459 0.0
C723 C 0.34447 0.64577 0.84223 0.0
H724 H 0.37504 0.73641 0.88683 0.0
C725 C 0.36019 0.61827 0.88232 0.0
C726 C 0.3819 0.63327 0.92352 0.0
H727 H 0.32718 0.63352 0.81155 0.0
H728 H 0.35597 0.58531 0.8805 0.0
C729 C 0.38786 0.67617 0.92376 0.0
C730 C 0.46698 0.36162 0.89399 0.0
C731 C 0.45521 0.38499 0.84631 0.0
H732 H 0.49046 0.36326 0.97217 0.0
C733 C 0.46512 0.42816 0.83644 0.0
H734 H 0.45926 0.32813 0.90239 0.0
C735 C 0.48184 0.44809 0.87669 0.0
C736 C 0.48929 0.42515 0.92716 0.0
H737 H 0.456 0.44676 0.80028 0.0
H738 H 0.48687 0.48163 0.86921 0.0
C739 C 0.48415 0.38164 0.93416 0.0
C740 C 0.65012 0.34929 0.81258 0.0
C741 C 0.69458 0.3582 0.80222 0.0
H742 H 0.59248 0.36237 0.85707 0.0
C743 C 0.71497 0.39047 0.825 0.0
H744 H 0.63391 0.32397 0.79641 0.0
C745 C 0.69145 0.41268 0.85917 0.0
C746 C 0.6473 0.40201 0.8725 0.0
H747 H 0.74943 0.39733 0.81816 0.0
H748 H 0.70805 0.43667 0.87734 0.0
C749 C 0.62668 0.37078 0.84797 0.0
C750 C 0.67783 0.35114 0.12602 0.0
C751 C 0.70059 0.36736 0.1654 0.0
H752 H 0.64369 0.36414 0.05609 0.0
C753 C 0.70668 0.41047 0.16372 0.0
H754 H 0.67305 0.31793 0.12616 0.0
C755 C 0.69115 0.43698 0.12229 0.0
C756 C 0.66858 0.42069 0.08267 0.0
H757 H 0.72478 0.42367 0.19299 0.0
H758 H 0.69628 0.47023 0.12182 0.0
C759 C 0.66145 0.3775 0.08554 0.0
C760 C 0.5876 0.62391 0.16951 0.0
C761 C 0.5964 0.66719 0.16035 0.0
H762 H 0.56638 0.57043 0.13637 0.0
C763 C 0.58385 0.69053 0.11317 0.0
H764 H 0.5974 0.60533 0.2052 0.0
C765 C 0.56638 0.67052 0.07316 0.0
C766 C 0.56187 0.62701 0.07962 0.0
H767 H 0.59075 0.72411 0.10525 0.0
H768 H 0.55912 0.68896 0.03572 0.0
C769 C 0.57071 0.60399 0.12933 0.0
C770 C 0.3296 0.66687 0.1655 0.0
C771 C 0.34943 0.69407 0.19655 0.0
H772 H 0.33817 0.62416 0.1083 0.0
C773 C 0.39393 0.69799 0.19506 0.0
H774 H 0.29524 0.66369 0.1658 0.0
C775 C 0.41842 0.67663 0.16073 0.0
C776 C 0.39864 0.65011 0.1288 0.0
H777 H 0.40985 0.71922 0.21806 0.0
H778 H 0.45289 0.68116 0.15868 0.0
C779 C 0.35401 0.64444 0.1326 0.0
C780 C 0.45254 0.48363 0.22357 0.0
C781 C 0.45508 0.44289 0.24927 0.0
H782 H 0.48026 0.53167 0.15737 0.0
C783 C 0.49436 0.42646 0.24536 0.0
H784 H 0.42245 0.49679 0.22661 0.0
C785 C 0.52745 0.44629 0.20554 0.0
C786 C 0.52081 0.48249 0.1709 0.0
H787 H 0.49677 0.39505 0.26531 0.0
H788 H 0.555 0.43019 0.19638 0.0
C789 C 0.48531 0.50324 0.18349 0.0
C790 C 0.83064 0.67483 0.63238 0.0
C791 C 0.84874 0.70969 0.65259 0.0
H792 H 0.84123 0.61841 0.60105 0.0
C793 C 0.89323 0.71561 0.65202 0.0
H794 H 0.79644 0.66937 0.63209 0.0
C795 C 0.91866 0.68607 0.63522 0.0
C796 C 0.90038 0.65007 0.61787 0.0
H797 H 0.90827 0.74196 0.66733 0.0
H798 H 0.95268 0.69096 0.6373 0.0
C799 C 0.85625 0.64551 0.61474 0.0
C800 C 0.40659 0.86558 0.62127 0.0
C801 C 0.38619 0.85973 0.67596 0.0
H802 H 0.44961 0.90571 0.55725 0.0
C803 C 0.39773 0.8895 0.70916 0.0
H804 H 0.3989 0.84342 0.59441 0.0
C805 C 0.42588 0.92527 0.68765 0.0
C806 C 0.44437 0.93261 0.63224 0.0
H807 H 0.38351 0.88625 0.75172 0.0
H808 H 0.43178 0.94819 0.71414 0.0
C809 C 0.43572 0.90141 0.59991 0.0
C810 C 0.24529 0.39443 0.60678 0.0
C811 C 0.23077 0.35287 0.62869 0.0
H812 H 0.2311 0.45152 0.56218 0.0
C813 C 0.19054 0.33605 0.61719 0.0
H814 H 0.27595 0.40834 0.61466 0.0
C815 C 0.1644 0.36087 0.5875 0.0
C816 C 0.17795 0.40305 0.56834 0.0
H817 H 0.17834 0.30392 0.63304 0.0
H818 H 0.1331 0.34737 0.58128 0.0
C819 C 0.21926 0.41917 0.57687 0.0
C820 C 0.61965 0.16412 0.57504 0.0
C821 C 0.66215 0.1784 0.55331 0.0
H822 H 0.56812 0.11525 0.5841 0.0
C823 C 0.68394 0.15533 0.51802 0.0
H824 H 0.60256 0.18061 0.60365 0.0
C825 C 0.66468 0.11742 0.50764 0.0
C826 C 0.62318 0.10154 0.53258 0.0
H827 H 0.71709 0.1651 0.50184 0.0
H828 H 0.68304 0.09976 0.48193 0.0
C829 C 0.60036 0.12612 0.56482 0.0
C830 C 0.89451 0.41038 0.42159 0.0
C831 C 0.85043 0.41252 0.43236 0.0
H832 H 0.95766 0.43804 0.42778 0.0
C833 C 0.8359 0.44399 0.45942 0.0
H834 H 0.90621 0.38658 0.39981 0.0
C835 C 0.86501 0.47304 0.4756 0.0
C836 C 0.90926 0.47174 0.46384 0.0
H837 H 0.80203 0.44643 0.46731 0.0
H838 H 0.85275 0.49705 0.49646 0.0
C839 C 0.92381 0.44004 0.43683 0.0
C840 C 0.71178 0.88092 0.37551 0.0
C841 C 0.69161 0.84766 0.35399 0.0
H842 H 0.70529 0.93806 0.40684 0.0
C843 C 0.64743 0.84531 0.35216 0.0
H844 H 0.74585 0.88352 0.37765 0.0
C845 C 0.62449 0.87693 0.36787 0.0
C846 C 0.64503 0.91141 0.38645 0.0
H847 H 0.63098 0.82031 0.33564 0.0
H848 H 0.59067 0.87485 0.364 0.0
C849 C 0.68865 0.91228 0.39206 0.0
C850 C 0.16152 0.67017 0.39701 0.0
C851 C 0.18063 0.67785 0.34179 0.0
H852 H 0.11381 0.63301 0.45772 0.0
C853 C 0.16448 0.65304 0.30502 0.0
H854 H 0.17252 0.68909 0.42622 0.0
C855 C 0.13171 0.62026 0.3233 0.0
C856 C 0.11273 0.61211 0.37859 0.0
H857 H 0.17806 0.6583 0.26201 0.0
H858 H 0.1217 0.60074 0.29422 0.0
C859 C 0.12746 0.63825 0.41486 0.0
C860 C 0.30881 0.1709 0.40698 0.0
C861 C 0.32852 0.21066 0.38307 0.0
H862 H 0.31548 0.11226 0.45433 0.0
C863 C 0.36995 0.22327 0.39445 0.0
H864 H 0.27682 0.16041 0.39951 0.0
C865 C 0.39233 0.19553 0.42584 0.0
C866 C 0.37363 0.15478 0.44632 0.0
H867 H 0.38592 0.25391 0.37695 0.0
H868 H 0.42489 0.20538 0.43169 0.0
C869 C 0.33111 0.14329 0.43832 0.0
C870 C 0.73633 0.88719 0.60133 0.0
C871 C 0.71693 0.84747 0.62598 0.0
H872 H 0.72935 0.94524 0.55264 0.0
C873 C 0.67544 0.83451 0.61507 0.0
H874 H 0.76832 0.89801 0.60844 0.0
C875 C 0.65286 0.86173 0.58305 0.0
C876 C 0.67138 0.90238 0.56143 0.0
H877 H 0.65965 0.80392 0.63318 0.0
H878 H 0.62034 0.85156 0.57738 0.0
C879 C 0.71384 0.91429 0.56939 0.0
C880 C 0.65351 0.1659 0.29771 0.0
C881 C 0.66248 0.19637 0.33096 0.0
H882 H 0.62083 0.10696 0.29126 0.0
C883 C 0.6388 0.19137 0.38373 0.0
H884 H 0.6702 0.16847 0.25647 0.0
C885 C 0.60894 0.15573 0.4034 0.0
C886 C 0.60291 0.12378 0.37138 0.0
H887 H 0.64435 0.21413 0.41051 0.0
H888 H 0.59243 0.15215 0.4448 0.0
C889 C 0.62468 0.13035 0.31759 0.0
C890 C 0.85591 0.71802 0.39672 0.0
C891 C 0.81613 0.70098 0.38407 0.0
H892 H 0.91294 0.70695 0.43372 0.0
C893 C 0.80198 0.65918 0.40488 0.0
H894 H 0.86782 0.75034 0.38173 0.0
C895 C 0.82796 0.63447 0.43493 0.0
C896 C 0.86884 0.65087 0.44469 0.0
H897 H 0.77169 0.64509 0.39607 0.0
H898 H 0.81642 0.60195 0.44881 0.0
C899 C 0.882 0.69323 0.42652 0.0
C900 C 0.43141 0.89008 0.43291 0.0
C901 C 0.38693 0.8784 0.44049 0.0
H902 H 0.48292 0.93658 0.43554 0.0
C903 C 0.36064 0.90614 0.46216 0.0
H904 H 0.4534 0.86974 0.41828 0.0
C905 C 0.37816 0.94422 0.47458 0.0
C906 C 0.42234 0.95637 0.46424 0.0
H907 H 0.32625 0.89943 0.46789 0.0
H908 H 0.35692 0.96476 0.49061 0.0
C909 C 0.44866 0.92869 0.44337 0.0
C910 C 0.21643 0.38332 0.37679 0.0
C911 C 0.19863 0.34835 0.3566 0.0
H912 H 0.20506 0.4389 0.40979 0.0
C913 C 0.15406 0.34124 0.3589 0.0
H914 H 0.25069 0.38963 0.37583 0.0
C915 C 0.12814 0.36975 0.37744 0.0
C916 C 0.14602 0.40588 0.39482 0.0
H917 H 0.13924 0.3147 0.34376 0.0
H918 H 0.09401 0.36398 0.37673 0.0
C919 C 0.19034 0.41163 0.39616 0.0
C920 C 0.39842 0.20907 0.65549 0.0
C921 C 0.35386 0.20553 0.65767 0.0
H922 H 0.45556 0.1812 0.6383 0.0
C923 C 0.33305 0.17165 0.63799 0.0
H924 H 0.41543 0.23459 0.67038 0.0
C925 C 0.35611 0.14095 0.61914 0.0
C926 C 0.40036 0.14311 0.6206 0.0
H927 H 0.29865 0.16812 0.63885 0.0
H928 H 0.33908 0.11469 0.60584 0.0
C929 C 0.42132 0.17813 0.63754 0.0
C930 C 0.88762 0.38148 0.61729 0.0
C931 C 0.86807 0.37335 0.67232 0.0
H932 H 0.93465 0.42005 0.55702 0.0
C933 C 0.88267 0.39892 0.70918 0.0
H934 H 0.87772 0.36214 0.58797 0.0
C935 C 0.91439 0.43271 0.69121 0.0
C936 C 0.93386 0.44123 0.63616 0.0
H937 H 0.86862 0.39347 0.75201 0.0
H938 H 0.9232 0.45268 0.72035 0.0
C939 C 0.92065 0.41448 0.59976 0.0
C940 C 0.21073 0.60962 0.55676 0.0
C941 C 0.19643 0.64183 0.58251 0.0
H942 H 0.19358 0.55597 0.52105 0.0
C943 C 0.15239 0.6445 0.59254 0.0
H944 H 0.24455 0.60679 0.54939 0.0
C945 C 0.12293 0.61471 0.57783 0.0
C946 C 0.13727 0.58236 0.55199 0.0
H947 H 0.14082 0.66889 0.61326 0.0
H948 H 0.08912 0.61718 0.58619 0.0
C949 C 0.18148 0.58047 0.54104 0.0
loop_
_geom_bond_atom_site_label_1
_geom_bond_atom_site_label_2
_geom_bond_distance
_geom_bond_site_symmetry_2
_ccdc_geom_bond_type
C0 O16 1.251 . S
C0 O18 1.254 . S
N1 C2 1.333 . S
N1 C6 1.307 . S
N1 Zn7 2.020 . S
C2 N1 1.333 . S
C2 C3 1.379 . S
C2 H20 0.952 . S
C3 C2 1.379 . S
C3 C4 1.390 . S
C3 H30 0.949 . S
C4 C3 1.390 . S
C4 C5 1.357 . S
C5 C4 1.357 . S
C5 C6 1.370 . S
C5 H31 0.950 . S
C6 N1 1.307 . S
C6 C5 1.370 . S
C6 H24 0.948 . S
Zn7 N1 2.020 . S
Zn7 O16 2.039 . S
Zn7 O22 2.034 . S
Zn7 O26 2.025 . S
Zn7 O28 2.024 . S
C8 O27 1.246 . S
C8 O28 1.249 . S
N9 C10 1.307 . S
N9 C11 1.333 . S
N9 Zn15 2.020 . S
C10 N9 1.307 . S
C10 C14 1.370 . S
C10 H21 0.948 . S
C11 N9 1.333 . S
C11 C12 1.379 . S
C11 H19 0.952 . S
C12 C11 1.379 . S
C12 C13 1.390 . S
C12 H32 0.949 . S
C13 C12 1.390 . S
C13 C14 1.357 . S
C14 C10 1.370 . S
C14 C13 1.357 . S
C14 H33 0.950 . S
Zn15 N9 2.020 . S
Zn15 O18 2.025 . S
Zn15 O23 2.024 . S
Zn15 O25 2.039 . S
Zn15 O27 2.034 . S
O16 C0 1.251 . S
O16 Zn7 2.039 . S
C17 O22 1.246 . S
C17 O23 1.249 . S
O18 C0 1.254 . S
O18 Zn15 2.025 . S
H19 C11 0.952 . S
H20 C2 0.952 . S
H21 C10 0.948 . S
O22 Zn7 2.034 . S
O22 C17 1.246 . S
O23 Zn15 2.024 . S
O23 C17 1.249 . S
H24 C6 0.948 . S
O25 Zn15 2.039 . S
O25 C29 1.251 . S
O26 Zn7 2.025 . S
O26 C29 1.254 . S
O27 C8 1.246 . S
O27 Zn15 2.034 . S
O28 Zn7 2.024 . S
O28 C8 1.249 . S
C29 O25 1.251 . S
C29 O26 1.254 . S
H30 C3 0.949 . S
H31 C5 0.950 . S
H32 C12 0.949 . S
H33 C14 0.950 . S
C34 O50 1.251 . S
C34 O52 1.254 . S
N35 C36 1.333 . S
N35 C40 1.307 . S
N35 Zn41 2.020 . S
C36 N35 1.333 . S
C36 C37 1.379 . S
C36 H54 0.952 . S
C37 C36 1.379 . S
C37 C38 1.390 . S
C37 H64 0.949 . S
C38 C37 1.390 . S
C38 C39 1.357 . S
C39 C38 1.357 . S
C39 C40 1.370 . S
C39 H65 0.950 . S
C40 N35 1.307 . S
C40 C39 1.370 . S
C40 H58 0.948 . S
Zn41 N35 2.020 . S
Zn41 O50 2.039 . S
Zn41 O56 2.034 . S
Zn41 O60 2.025 . S
Zn41 O62 2.024 . S
C42 O61 1.246 . S
C42 O62 1.249 . S
N43 C44 1.307 . S
N43 C45 1.333 . S
N43 Zn49 2.020 . S
C44 N43 1.307 . S
C44 C48 1.370 . S
C44 H55 0.948 . S
C45 N43 1.333 . S
C45 C46 1.379 . S
C45 H53 0.952 . S
C46 C45 1.379 . S
C46 C47 1.390 . S
C46 H66 0.949 . S
C47 C46 1.390 . S
C47 C48 1.357 . S
C48 C44 1.370 . S
C48 C47 1.357 . S
C48 H67 0.950 . S
Zn49 N43 2.020 . S
Zn49 O52 2.025 . S
Zn49 O57 2.024 . S
Zn49 O59 2.039 . S
Zn49 O61 2.034 . S
O50 C34 1.251 . S
O50 Zn41 2.039 . S
C51 O56 1.246 . S
C51 O57 1.249 . S
O52 C34 1.254 . S
O52 Zn49 2.025 . S
H53 C45 0.952 . S
H54 C36 0.952 . S
H55 C44 0.948 . S
O56 Zn41 2.034 . S
O56 C51 1.246 . S
O57 Zn49 2.024 . S
O57 C51 1.249 . S
H58 C40 0.948 . S
O59 Zn49 2.039 . S
O59 C63 1.251 . S
O60 Zn41 2.025 . S
O60 C63 1.254 . S
O61 C42 1.246 . S
O61 Zn49 2.034 . S
O62 Zn41 2.024 . S
O62 C42 1.249 . S
C63 O59 1.251 . S
C63 O60 1.254 . S
H64 C37 0.949 . S
H65 C39 0.950 . S
H66 C46 0.949 . S
H67 C48 0.950 . S
C68 O84 1.251 . S
C68 O86 1.254 . S
N69 C70 1.333 . S
N69 C74 1.307 . S
N69 Zn75 2.020 . S
C70 N69 1.333 . S
C70 C71 1.379 . S
C70 H88 0.952 . S
C71 C70 1.379 . S
C71 C72 1.390 . S
C71 H98 0.949 . S
C72 C71 1.390 . S
C72 C73 1.357 . S
C73 C72 1.357 . S
C73 C74 1.370 . S
C73 H99 0.950 . S
C74 N69 1.307 . S
C74 C73 1.370 . S
C74 H92 0.948 . S
Zn75 N69 2.020 . S
Zn75 O84 2.039 . S
Zn75 O90 2.034 . S
Zn75 O94 2.025 . S
Zn75 O96 2.024 . S
C76 O95 1.246 . S
C76 O96 1.249 . S
N77 C78 1.307 . S
N77 C79 1.333 . S
N77 Zn83 2.020 . S
C78 N77 1.307 . S
C78 C82 1.370 . S
C78 H89 0.948 . S
C79 N77 1.333 . S
C79 C80 1.379 . S
C79 H87 0.952 . S
C80 C79 1.379 . S
C80 C81 1.390 . S
C80 H100 0.949 . S
C81 C80 1.390 . S
C81 C82 1.357 . S
C82 C78 1.370 . S
C82 C81 1.357 . S
C82 H101 0.950 . S
Zn83 N77 2.020 . S
Zn83 O86 2.025 . S
Zn83 O91 2.024 . S
Zn83 O93 2.039 . S
Zn83 O95 2.034 . S
O84 C68 1.251 . S
O84 Zn75 2.039 . S
C85 O90 1.246 . S
C85 O91 1.249 . S
O86 C68 1.254 . S
O86 Zn83 2.025 . S
H87 C79 0.952 . S
H88 C70 0.952 . S
H89 C78 0.948 . S
O90 Zn75 2.034 . S
O90 C85 1.246 . S
O91 Zn83 2.024 . S
O91 C85 1.249 . S
H92 C74 0.948 . S
O93 Zn83 2.039 . S
O93 C97 1.251 . S
O94 Zn75 2.025 . S
O94 C97 1.254 . S
O95 C76 1.246 . S
O95 Zn83 2.034 . S
O96 Zn75 2.024 . S
O96 C76 1.249 . S
C97 O93 1.251 . S
C97 O94 1.254 . S
H98 C71 0.949 . S
H99 C73 0.950 . S
H100 C80 0.949 . S
H101 C82 0.950 . S
C102 O118 1.251 . S
C102 O120 1.254 . S
N103 C104 1.333 . S
N103 C108 1.307 . S
N103 Zn109 2.020 . S
C104 N103 1.333 . S
C104 C105 1.379 . S
C104 H122 0.952 . S
C105 C104 1.379 . S
C105 C106 1.390 . S
C105 H132 0.949 . S
C106 C105 1.390 . S
C106 C107 1.357 . S
C107 C106 1.357 . S
C107 C108 1.370 . S
C107 H133 0.950 . S
C108 N103 1.307 . S
C108 C107 1.370 . S
C108 H126 0.948 . S
Zn109 N103 2.020 . S
Zn109 O118 2.039 . S
Zn109 O124 2.034 . S
Zn109 O128 2.025 . S
Zn109 O130 2.024 . S
C110 O129 1.246 . S
C110 O130 1.249 . S
N111 C112 1.307 . S
N111 C113 1.333 . S
N111 Zn117 2.020 . S
C112 N111 1.307 . S
C112 C116 1.370 . S
C112 H123 0.948 . S
C113 N111 1.333 . S
C113 C114 1.379 . S
C113 H121 0.952 . S
C114 C113 1.379 . S
C114 C115 1.390 . S
C114 H134 0.949 . S
C115 C114 1.390 . S
C115 C116 1.357 . S
C116 C112 1.370 . S
C116 C115 1.357 . S
C116 H135 0.950 . S
Zn117 N111 2.020 . S
Zn117 O120 2.025 . S
Zn117 O125 2.024 . S
Zn117 O127 2.039 . S
Zn117 O129 2.034 . S
O118 C102 1.251 . S
O118 Zn109 2.039 . S
C119 O124 1.246 . S
C119 O125 1.249 . S
O120 C102 1.254 . S
O120 Zn117 2.025 . S
H121 C113 0.952 . S
H122 C104 0.952 . S
H123 C112 0.948 . S
O124 Zn109 2.034 . S
O124 C119 1.246 . S
O125 Zn117 2.024 . S
O125 C119 1.249 . S
H126 C108 0.948 . S
O127 Zn117 2.039 . S
O127 C131 1.251 . S
O128 Zn109 2.025 . S
O128 C131 1.254 . S
O129 C110 1.246 . S
O129 Zn117 2.034 . S
O130 Zn109 2.024 . S
O130 C110 1.249 . S
C131 O127 1.251 . S
C131 O128 1.254 . S
H132 C105 0.949 . S
H133 C107 0.950 . S
H134 C114 0.949 . S
H135 C116 0.950 . S
C136 O152 1.251 . S
C136 O154 1.254 . S
N137 C138 1.333 . S
N137 C142 1.307 . S
N137 Zn143 2.020 . S
C138 N137 1.333 . S
C138 C139 1.379 . S
C138 H156 0.952 . S
C139 C138 1.379 . S
C139 C140 1.390 . S
C139 H166 0.949 . S
C140 C139 1.390 . S
C140 C141 1.357 . S
C141 C140 1.357 . S
C141 C142 1.370 . S
C141 H167 0.950 . S
C142 N137 1.307 . S
C142 C141 1.370 . S
C142 H160 0.948 . S
Zn143 N137 2.020 . S
Zn143 O152 2.039 . S
Zn143 O158 2.034 . S
Zn143 O162 2.025 . S
Zn143 O164 2.024 . S
C144 O163 1.246 . S
C144 O164 1.249 . S
N145 C146 1.307 . S
N145 C147 1.333 . S
N145 Zn151 2.020 . S
C146 N145 1.307 . S
C146 C150 1.370 . S
C146 H157 0.948 . S
C147 N145 1.333 . S
C147 C148 1.379 . S
C147 H155 0.952 . S
C148 C147 1.379 . S
C148 C149 1.390 . S
C148 H168 0.949 . S
C149 C148 1.390 . S
C149 C150 1.357 . S
C150 C146 1.370 . S
C150 C149 1.357 . S
C150 H169 0.950 . S
Zn151 N145 2.020 . S
Zn151 O154 2.025 . S
Zn151 O159 2.024 . S
Zn151 O161 2.039 . S
Zn151 O163 2.034 . S
O152 C136 1.251 . S
O152 Zn143 2.039 . S
C153 O158 1.246 . S
C153 O159 1.249 . S
O154 C136 1.254 . S
O154 Zn151 2.025 . S
H155 C147 0.952 . S
H156 C138 0.952 . S
H157 C146 0.948 . S
O158 Zn143 2.034 . S
O158 C153 1.246 . S
O159 Zn151 2.024 . S
O159 C153 1.249 . S
H160 C142 0.948 . S
O161 Zn151 2.039 . S
O161 C165 1.251 . S
O162 Zn143 2.025 . S
O162 C165 1.254 . S
O163 C144 1.246 . S
O163 Zn151 2.034 . S
O164 Zn143 2.024 . S
O164 C144 1.249 . S
C165 O161 1.251 . S
C165 O162 1.254 . S
H166 C139 0.949 . S
H167 C141 0.950 . S
H168 C148 0.949 . S
H169 C150 0.950 . S
C170 O186 1.251 . S
C170 O188 1.254 . S
N171 C172 1.333 . S
N171 C176 1.307 . S
N171 Zn177 2.020 . S
C172 N171 1.333 . S
C172 C173 1.379 . S
C172 H190 0.952 . S
C173 C172 1.379 . S
C173 C174 1.390 . S
C173 H200 0.949 . S
C174 C173 1.390 . S
C174 C175 1.357 . S
C175 C174 1.357 . S
C175 C176 1.370 . S
C175 H201 0.950 . S
C176 N171 1.307 . S
C176 C175 1.370 . S
C176 H194 0.948 . S
Zn177 N171 2.020 . S
Zn177 O186 2.039 . S
Zn177 O192 2.034 . S
Zn177 O196 2.025 . S
Zn177 O198 2.024 . S
C178 O197 1.246 . S
C178 O198 1.249 . S
N179 C180 1.307 . S
N179 C181 1.333 . S
N179 Zn185 2.020 . S
C180 N179 1.307 . S
C180 C184 1.370 . S
C180 H191 0.948 . S
C181 N179 1.333 . S
C181 C182 1.379 . S
C181 H189 0.952 . S
C182 C181 1.379 . S
C182 C183 1.390 . S
C182 H202 0.949 . S
C183 C182 1.390 . S
C183 C184 1.357 . S
C184 C180 1.370 . S
C184 C183 1.357 . S
C184 H203 0.950 . S
Zn185 N179 2.020 . S
Zn185 O188 2.025 . S
Zn185 O193 2.024 . S
Zn185 O195 2.039 . S
Zn185 O197 2.034 . S
O186 C170 1.251 . S
O186 Zn177 2.039 . S
C187 O192 1.246 . S
C187 O193 1.249 . S
O188 C170 1.254 . S
O188 Zn185 2.025 . S
H189 C181 0.952 . S
H190 C172 0.952 . S
H191 C180 0.948 . S
O192 Zn177 2.034 . S
O192 C187 1.246 . S
O193 Zn185 2.024 . S
O193 C187 1.249 . S
H194 C176 0.948 . S
O195 Zn185 2.039 . S
O195 C199 1.251 . S
O196 Zn177 2.025 . S
O196 C199 1.254 . S
O197 C178 1.246 . S
O197 Zn185 2.034 . S
O198 Zn177 2.024 . S
O198 C178 1.249 . S
C199 O195 1.251 . S
C199 O196 1.254 . S
H200 C173 0.949 . S
H201 C175 0.950 . S
H202 C182 0.949 . S
H203 C184 0.950 . S
C204 O220 1.251 . S
C204 O222 1.254 . S
N205 C206 1.333 . S
N205 C210 1.307 . S
N205 Zn211 2.020 . S
C206 N205 1.333 . S
C206 C207 1.379 . S
C206 H224 0.952 . S
C207 C206 1.379 . S
C207 C208 1.390 . S
C207 H234 0.949 . S
C208 C207 1.390 . S
C208 C209 1.357 . S
C209 C208 1.357 . S
C209 C210 1.370 . S
C209 H235 0.950 . S
C210 N205 1.307 . S
C210 C209 1.370 . S
C210 H228 0.948 . S
Zn211 N205 2.020 . S
Zn211 O220 2.039 . S
Zn211 O226 2.034 . S
Zn211 O230 2.025 . S
Zn211 O232 2.024 . S
C212 O231 1.246 . S
C212 O232 1.249 . S
N213 C214 1.307 . S
N213 C215 1.333 . S
N213 Zn219 2.020 . S
C214 N213 1.307 . S
C214 C218 1.370 . S
C214 H225 0.948 . S
C215 N213 1.333 . S
C215 C216 1.379 . S
C215 H223 0.952 . S
C216 C215 1.379 . S
C216 C217 1.390 . S
C216 H236 0.949 . S
C217 C216 1.390 . S
C217 C218 1.357 . S
C218 C214 1.370 . S
C218 C217 1.357 . S
C218 H237 0.950 . S
Zn219 N213 2.020 . S
Zn219 O222 2.025 . S
Zn219 O227 2.024 . S
Zn219 O229 2.039 . S
Zn219 O231 2.034 . S
O220 C204 1.251 . S
O220 Zn211 2.039 . S
C221 O226 1.246 . S
C221 O227 1.249 . S
O222 C204 1.254 . S
O222 Zn219 2.025 . S
H223 C215 0.952 . S
H224 C206 0.952 . S
H225 C214 0.948 . S
O226 Zn211 2.034 . S
O226 C221 1.246 . S
O227 Zn219 2.024 . S
O227 C221 1.249 . S
H228 C210 0.948 . S
O229 Zn219 2.039 . S
O229 C233 1.251 . S
O230 Zn211 2.025 . S
O230 C233 1.254 . S
O231 C212 1.246 . S
O231 Zn219 2.034 . S
O232 Zn211 2.024 . S
O232 C212 1.249 . S
C233 O229 1.251 . S
C233 O230 1.254 . S
H234 C207 0.949 . S
H235 C209 0.950 . S
H236 C216 0.949 . S
H237 C218 0.950 . S
C238 O254 1.251 . S
C238 O256 1.254 . S
N239 C240 1.333 . S
N239 C244 1.307 . S
N239 Zn245 2.020 . S
C240 N239 1.333 . S
C240 C241 1.379 . S
C240 H258 0.952 . S
C241 C240 1.379 . S
C241 C242 1.390 . S
C241 H268 0.949 . S
C242 C241 1.390 . S
C242 C243 1.357 . S
C243 C242 1.357 . S
C243 C244 1.370 . S
C243 H269 0.950 . S
C244 N239 1.307 . S
C244 C243 1.370 . S
C244 H262 0.948 . S
Zn245 N239 2.020 . S
Zn245 O254 2.039 . S
Zn245 O260 2.034 . S
Zn245 O264 2.025 . S
Zn245 O266 2.024 . S
C246 O265 1.246 . S
C246 O266 1.249 . S
N247 C248 1.307 . S
N247 C249 1.333 . S
N247 Zn253 2.020 . S
C248 N247 1.307 . S
C248 C252 1.370 . S
C248 H259 0.948 . S
C249 N247 1.333 . S
C249 C250 1.379 . S
C249 H257 0.952 . S
C250 C249 1.379 . S
C250 C251 1.390 . S
C250 H270 0.949 . S
C251 C250 1.390 . S
C251 C252 1.357 . S
C252 C248 1.370 . S
C252 C251 1.357 . S
C252 H271 0.950 . S
Zn253 N247 2.020 . S
Zn253 O256 2.025 . S
Zn253 O261 2.024 . S
Zn253 O263 2.039 . S
Zn253 O265 2.034 . S
O254 C238 1.251 . S
O254 Zn245 2.039 . S
C255 O260 1.246 . S
C255 O261 1.249 . S
O256 C238 1.254 . S
O256 Zn253 2.025 . S
H257 C249 0.952 . S
H258 C240 0.952 . S
H259 C248 0.948 . S
O260 Zn245 2.034 . S
O260 C255 1.246 . S
O261 Zn253 2.024 . S
O261 C255 1.249 . S
H262 C244 0.948 . S
O263 Zn253 2.039 . S
O263 C267 1.251 . S
O264 Zn245 2.025 . S
O264 C267 1.254 . S
O265 C246 1.246 . S
O265 Zn253 2.034 . S
O266 Zn245 2.024 . S
O266 C246 1.249 . S
C267 O263 1.251 . S
C267 O264 1.254 . S
H268 C241 0.949 . S
H269 C243 0.950 . S
H270 C250 0.949 . S
H271 C252 0.950 . S
Co272 O275 2.042 . S
Co272 O282 2.264 . S
Co272 O301 2.286 . S
Co272 O302 2.069 . S
Co272 O304 2.015 1_455 S
Co273 O275 2.122 . S
Co273 O281 2.073 . S
Co273 O282 2.327 . S
Co273 O283 1.976 1_455 S
Co274 O275 2.087 1_545 S
Co274 O277 2.087 1_455 S
Co274 O284 2.111 1_445 S
Co274 O285 2.143 . S
Co274 O289 2.111 . S
Co274 O303 2.143 1_445 S
O275 Co272 2.042 . S
O275 Co273 2.122 . S
O275 Co274 2.087 1_565 S
O275 H276 0.980 . S
H276 O275 0.980 . S
O277 Co274 2.087 1_655 S
O277 Co278 2.042 . S
O277 Co279 2.122 . S
O277 H280 0.980 . S
Co278 O277 2.042 . S
Co278 O286 2.286 . S
Co278 O287 2.069 . S
Co278 O288 2.015 1_655 S
Co278 O291 2.264 . S
Co279 O277 2.122 . S
Co279 O290 1.976 1_655 S
Co279 O291 2.327 . S
Co279 O292 2.073 . S
H280 O277 0.980 . S
O281 Co273 2.073 . S
O281 C296 1.245 . S
O282 Co272 2.264 . S
O282 Co273 2.327 . S
O282 C296 1.257 . S
O283 Co273 1.976 1_655 S
O283 C295 1.251 . S
O284 Co274 2.111 1_665 S
O284 C295 1.274 . S
O285 Co274 2.143 . S
O285 C298 1.246 . S
O286 Co278 2.286 . S
O286 C297 1.259 . S
O287 Co278 2.069 . S
O287 C297 1.289 . S
O288 Co278 2.015 1_455 S
O288 C298 1.257 . S
O289 Co274 2.111 . S
O289 C299 1.274 . S
O290 Co279 1.976 1_455 S
O290 C299 1.251 . S
O291 Co278 2.264 . S
O291 Co279 2.327 . S
O291 C300 1.257 . S
O292 Co279 2.073 . S
O292 C300 1.245 . S
C293 O301 1.259 . S
C293 O302 1.289 . S
C294 O303 1.246 . S
C294 O304 1.257 . S
C295 O283 1.251 . S
C295 O284 1.274 . S
C296 O281 1.245 . S
C296 O282 1.257 . S
C297 O286 1.259 . S
C297 O287 1.289 . S
C298 O285 1.246 . S
C298 O288 1.257 . S
C299 O289 1.274 . S
C299 O290 1.251 . S
C300 O291 1.257 . S
C300 O292 1.245 . S
O301 Co272 2.286 . S
O301 C293 1.259 . S
O302 Co272 2.069 . S
O302 C293 1.289 . S
O303 Co274 2.143 1_665 S
O303 C294 1.246 . S
O304 Co272 2.015 1_655 S
O304 C294 1.257 . S
Co305 O308 2.042 1_556 S
Co305 O315 2.264 1_556 S
Co305 O334 2.286 . S
Co305 O335 2.069 . S
Co305 O337 2.015 . S
Co306 O308 2.122 . S
Co306 O314 2.073 . S
Co306 O315 2.327 . S
Co306 O316 1.976 . S
Co307 O308 2.087 1_545 S
Co307 O310 2.087 1_554 S
Co307 O317 2.111 1_545 S
Co307 O318 2.143 . S
Co307 O322 2.111 1_554 S
Co307 O336 2.143 1_544 S
O308 Co305 2.042 1_554 S
O308 Co306 2.122 . S
O308 Co307 2.087 1_565 S
O308 H309 0.980 . S
H309 O308 0.980 . S
O310 Co307 2.087 1_556 S
O310 Co311 2.042 1_556 S
O310 Co312 2.122 . S
O310 H313 0.980 . S
Co311 O310 2.042 1_554 S
Co311 O319 2.286 . S
Co311 O320 2.069 . S
Co311 O321 2.015 . S
Co311 O324 2.264 1_554 S
Co312 O310 2.122 . S
Co312 O323 1.976 . S
Co312 O324 2.327 . S
Co312 O325 2.073 . S
H313 O310 0.980 . S
O314 Co306 2.073 . S
O314 C329 1.245 . S
O315 Co305 2.264 1_554 S
O315 Co306 2.327 . S
O315 C329 1.257 . S
O316 Co306 1.976 . S
O316 C328 1.251 . S
O317 Co307 2.111 1_565 S
O317 C328 1.274 . S
O318 Co307 2.143 . S
O318 C331 1.246 . S
O319 Co311 2.286 . S
O319 C330 1.259 . S
O320 Co311 2.069 . S
O320 C330 1.289 . S
O321 Co311 2.015 . S
O321 C331 1.257 . S
O322 Co307 2.111 1_556 S
O322 C332 1.274 . S
O323 Co312 1.976 . S
O323 C332 1.251 . S
O324 Co311 2.264 1_556 S
O324 Co312 2.327 . S
O324 C333 1.257 . S
O325 Co312 2.073 . S
O325 C333 1.245 . S
C326 O334 1.259 . S
C326 O335 1.289 . S
C327 O336 1.246 . S
C327 O337 1.257 . S
C328 O316 1.251 . S
C328 O317 1.274 . S
C329 O314 1.245 . S
C329 O315 1.257 . S
C330 O319 1.259 . S
C330 O320 1.289 . S
C331 O318 1.246 . S
C331 O321 1.257 . S
C332 O322 1.274 . S
C332 O323 1.251 . S
C333 O324 1.257 . S
C333 O325 1.245 . S
O334 Co305 2.286 . S
O334 C326 1.259 . S
O335 Co305 2.069 . S
O335 C326 1.289 . S
O336 Co307 2.143 1_566 S
O336 C327 1.246 . S
O337 Co305 2.015 . S
O337 C327 1.257 . S
Co338 O341 2.042 1_556 S
Co338 O348 2.264 1_556 S
Co338 O367 2.286 . S
Co338 O368 2.069 . S
Co338 O370 2.015 1_455 S
Co339 O341 2.122 . S
Co339 O347 2.073 . S
Co339 O348 2.327 . S
Co339 O349 1.976 1_455 S
Co340 O341 2.087 . S
Co340 O343 2.087 1_454 S
Co340 O350 2.111 1_455 S
Co340 O351 2.143 . S
Co340 O355 2.111 1_554 S
Co340 O369 2.143 1_454 S
O341 Co338 2.042 1_554 S
O341 Co339 2.122 . S
O341 Co340 2.087 . S
O341 H342 0.980 . S
H342 O341 0.980 . S
O343 Co340 2.087 1_656 S
O343 Co344 2.042 1_556 S
O343 Co345 2.122 . S
O343 H346 0.980 . S
Co344 O343 2.042 1_554 S
Co344 O352 2.286 . S
Co344 O353 2.069 . S
Co344 O354 2.015 1_655 S
Co344 O357 2.264 1_554 S
Co345 O343 2.122 . S
Co345 O356 1.976 1_655 S
Co345 O357 2.327 . S
Co345 O358 2.073 . S
H346 O343 0.980 . S
O347 Co339 2.073 . S
O347 C362 1.245 . S
O348 Co338 2.264 1_554 S
O348 Co339 2.327 . S
O348 C362 1.257 . S
O349 Co339 1.976 1_655 S
O349 C361 1.251 . S
O350 Co340 2.111 1_655 S
O350 C361 1.274 . S
O351 Co340 2.143 . S
O351 C364 1.246 . S
O352 Co344 2.286 . S
O352 C363 1.259 . S
O353 Co344 2.069 . S
O353 C363 1.289 . S
O354 Co344 2.015 1_455 S
O354 C364 1.257 . S
O355 Co340 2.111 1_556 S
O355 C365 1.274 . S
O356 Co345 1.976 1_455 S
O356 C365 1.251 . S
O357 Co344 2.264 1_556 S
O357 Co345 2.327 . S
O357 C366 1.257 . S
O358 Co345 2.073 . S
O358 C366 1.245 . S
C359 O367 1.259 . S
C359 O368 1.289 . S
C360 O369 1.246 . S
C360 O370 1.257 . S
C361 O349 1.251 . S
C361 O350 1.274 . S
C362 O347 1.245 . S
C362 O348 1.257 . S
C363 O352 1.259 . S
C363 O353 1.289 . S
C364 O351 1.246 . S
C364 O354 1.257 . S
C365 O355 1.274 . S
C365 O356 1.251 . S
C366 O357 1.257 . S
C366 O358 1.245 . S
O367 Co338 2.286 . S
O367 C359 1.259 . S
O368 Co338 2.069 . S
O368 C359 1.289 . S
O369 Co340 2.143 1_656 S
O369 C360 1.246 . S
O370 Co338 2.015 1_655 S
O370 C360 1.257 . S
Co371 O374 2.042 1_556 S
Co371 O381 2.264 1_556 S
Co371 O400 2.286 . S
Co371 O401 2.069 . S
Co371 O403 2.015 . S
Co372 O374 2.122 . S
Co372 O380 2.073 . S
Co372 O381 2.327 . S
Co372 O382 1.976 . S
Co373 O374 2.087 . S
Co373 O376 2.087 1_554 S
Co373 O383 2.111 . S
Co373 O384 2.143 . S
Co373 O388 2.111 1_554 S
Co373 O402 2.143 1_554 S
O374 Co371 2.042 1_554 S
O374 Co372 2.122 . S
O374 Co373 2.087 . S
O374 H375 0.980 . S
H375 O374 0.980 . S
O376 Co373 2.087 1_556 S
O376 Co377 2.042 1_556 S
O376 Co378 2.122 . S
O376 H379 0.980 . S
Co377 O376 2.042 1_554 S
Co377 O385 2.286 . S
Co377 O386 2.069 . S
Co377 O387 2.015 . S
Co377 O390 2.264 1_554 S
Co378 O376 2.122 . S
Co378 O389 1.976 . S
Co378 O390 2.327 . S
Co378 O391 2.073 . S
H379 O376 0.980 . S
O380 Co372 2.073 . S
O380 C395 1.245 . S
O381 Co371 2.264 1_554 S
O381 Co372 2.327 . S
O381 C395 1.257 . S
O382 Co372 1.976 . S
O382 C394 1.251 . S
O383 Co373 2.111 . S
O383 C394 1.274 . S
O384 Co373 2.143 . S
O384 C397 1.246 . S
O385 Co377 2.286 . S
O385 C396 1.259 . S
O386 Co377 2.069 . S
O386 C396 1.289 . S
O387 Co377 2.015 . S
O387 C397 1.257 . S
O388 Co373 2.111 1_556 S
O388 C398 1.274 . S
O389 Co378 1.976 . S
O389 C398 1.251 . S
O390 Co377 2.264 1_556 S
O390 Co378 2.327 . S
O390 C399 1.257 . S
O391 Co378 2.073 . S
O391 C399 1.245 . S
C392 O400 1.259 . S
C392 O401 1.289 . S
C393 O402 1.246 . S
C393 O403 1.257 . S
C394 O382 1.251 . S
C394 O383 1.274 . S
C395 O380 1.245 . S
C395 O381 1.257 . S
C396 O385 1.259 . S
C396 O386 1.289 . S
C397 O384 1.246 . S
C397 O387 1.257 . S
C398 O388 1.274 . S
C398 O389 1.251 . S
C399 O390 1.257 . S
C399 O391 1.245 . S
O400 Co371 2.286 . S
O400 C392 1.259 . S
O401 Co371 2.069 . S
O401 C392 1.289 . S
O402 Co373 2.143 1_556 S
O402 C393 1.246 . S
O403 Co371 2.015 . S
O403 C393 1.257 . S
Co404 O407 2.042 . S
Co404 O414 2.264 . S
Co404 O433 2.286 . S
Co404 O434 2.069 . S
Co404 O436 2.015 . S
Co405 O407 2.122 . S
Co405 O413 2.073 . S
Co405 O414 2.327 . S
Co405 O415 1.976 . S
Co406 O407 2.087 . S
Co406 O409 2.087 1_455 S
Co406 O416 2.111 . S
Co406 O417 2.143 1_455 S
Co406 O421 2.111 1_455 S
Co406 O435 2.143 . S
O407 Co404 2.042 . S
O407 Co405 2.122 . S
O407 Co406 2.087 . S
O407 H408 0.980 . S
H408 O407 0.980 . S
O409 Co406 2.087 1_655 S
O409 Co410 2.042 . S
O409 Co411 2.122 . S
O409 H412 0.980 . S
Co410 O409 2.042 . S
Co410 O418 2.286 . S
Co410 O419 2.069 . S
Co410 O420 2.015 . S
Co410 O423 2.264 . S
Co411 O409 2.122 . S
Co411 O422 1.976 . S
Co411 O423 2.327 . S
Co411 O424 2.073 . S
H412 O409 0.980 . S
O413 Co405 2.073 . S
O413 C428 1.245 . S
O414 Co404 2.264 . S
O414 Co405 2.327 . S
O414 C428 1.257 . S
O415 Co405 1.976 . S
O415 C427 1.251 . S
O416 Co406 2.111 . S
O416 C427 1.274 . S
O417 Co406 2.143 1_655 S
O417 C430 1.246 . S
O418 Co410 2.286 . S
O418 C429 1.259 . S
O419 Co410 2.069 . S
O419 C429 1.289 . S
O420 Co410 2.015 . S
O420 C430 1.257 . S
O421 Co406 2.111 1_655 S
O421 C431 1.274 . S
O422 Co411 1.976 . S
O422 C431 1.251 . S
O423 Co410 2.264 . S
O423 Co411 2.327 . S
O423 C432 1.257 . S
O424 Co411 2.073 . S
O424 C432 1.245 . S
C425 O433 1.259 . S
C425 O434 1.289 . S
C426 O435 1.246 . S
C426 O436 1.257 . S
C427 O415 1.251 . S
C427 O416 1.274 . S
C428 O413 1.245 . S
C428 O414 1.257 . S
C429 O418 1.259 . S
C429 O419 1.289 . S
C430 O417 1.246 . S
C430 O420 1.257 . S
C431 O421 1.274 . S
C431 O422 1.251 . S
C432 O423 1.257 . S
C432 O424 1.245 . S
O433 Co404 2.286 . S
O433 C425 1.259 . S
O434 Co404 2.069 . S
O434 C425 1.289 . S
O435 Co406 2.143 . S
O435 C426 1.246 . S
O436 Co404 2.015 . S
O436 C426 1.257 . S
Co437 O440 2.042 . S
Co437 O447 2.264 . S
Co437 O466 2.286 . S
Co437 O467 2.069 . S
Co437 O469 2.015 1_565 S
Co438 O440 2.122 . S
Co438 O446 2.073 . S
Co438 O447 2.327 . S
Co438 O448 1.976 1_565 S
Co439 O440 2.087 1_545 S
Co439 O442 2.087 . S
Co439 O449 2.111 . S
Co439 O450 2.143 1_545 S
Co439 O454 2.111 1_545 S
Co439 O468 2.143 . S
O440 Co437 2.042 . S
O440 Co438 2.122 . S
O440 Co439 2.087 1_565 S
O440 H441 0.980 . S
H441 O440 0.980 . S
O442 Co439 2.087 . S
O442 Co443 2.042 . S
O442 Co444 2.122 . S
O442 H445 0.980 . S
Co443 O442 2.042 . S
Co443 O451 2.286 . S
Co443 O452 2.069 . S
Co443 O453 2.015 1_545 S
Co443 O456 2.264 . S
Co444 O442 2.122 . S
Co444 O455 1.976 1_545 S
Co444 O456 2.327 . S
Co444 O457 2.073 . S
H445 O442 0.980 . S
O446 Co438 2.073 . S
O446 C461 1.245 . S
O447 Co437 2.264 . S
O447 Co438 2.327 . S
O447 C461 1.257 . S
O448 Co438 1.976 1_545 S
O448 C460 1.251 . S
O449 Co439 2.111 . S
O449 C460 1.274 . S
O450 Co439 2.143 1_565 S
O450 C463 1.246 . S
O451 Co443 2.286 . S
O451 C462 1.259 . S
O452 Co443 2.069 . S
O452 C462 1.289 . S
O453 Co443 2.015 1_565 S
O453 C463 1.257 . S
O454 Co439 2.111 1_565 S
O454 C464 1.274 . S
O455 Co444 1.976 1_565 S
O455 C464 1.251 . S
O456 Co443 2.264 . S
O456 Co444 2.327 . S
O456 C465 1.257 . S
O457 Co444 2.073 . S
O457 C465 1.245 . S
C458 O466 1.259 . S
C458 O467 1.289 . S
C459 O468 1.246 . S
C459 O469 1.257 . S
C460 O448 1.251 . S
C460 O449 1.274 . S
C461 O446 1.245 . S
C461 O447 1.257 . S
C462 O451 1.259 . S
C462 O452 1.289 . S
C463 O450 1.246 . S
C463 O453 1.257 . S
C464 O454 1.274 . S
C464 O455 1.251 . S
C465 O456 1.257 . S
C465 O457 1.245 . S
O466 Co437 2.286 . S
O466 C458 1.259 . S
O467 Co437 2.069 . S
O467 C458 1.289 . S
O468 Co439 2.143 . S
O468 C459 1.246 . S
O469 Co437 2.015 1_545 S
O469 C459 1.257 . S
C470 C471 1.387 . S
C470 H474 0.950 . S
C470 C479 1.390 . S
C471 C470 1.387 . S
C471 C473 1.387 . S
H472 C479 0.950 . S
C473 C471 1.387 . S
C473 C475 1.390 . S
C473 H477 0.950 . S
H474 C470 0.950 . S
C475 C473 1.390 . S
C475 C476 1.387 . S
C475 H478 0.950 . S
C476 C475 1.387 . S
C476 C479 1.387 . S
H477 C473 0.950 . S
H478 C475 0.950 . S
C479 C470 1.390 . S
C479 H472 0.950 . S
C479 C476 1.387 . S
C480 C481 1.387 . S
C480 H484 0.950 . S
C480 C489 1.390 . S
C481 C480 1.387 . S
C481 C483 1.387 . S
H482 C489 0.950 . S
C483 C481 1.387 . S
C483 C485 1.390 . S
C483 H487 0.950 . S
H484 C480 0.950 . S
C485 C483 1.390 . S
C485 C486 1.387 . S
C485 H488 0.950 . S
C486 C485 1.387 . S
C486 C489 1.387 . S
H487 C483 0.950 . S
H488 C485 0.950 . S
C489 C480 1.390 . S
C489 H482 0.950 . S
C489 C486 1.387 . S
C490 C491 1.387 . S
C490 H494 0.950 . S
C490 C499 1.390 . S
C491 C490 1.387 . S
C491 C493 1.387 . S
H492 C499 0.950 . S
C493 C491 1.387 . S
C493 C495 1.390 . S
C493 H497 0.950 . S
H494 C490 0.950 . S
C495 C493 1.390 . S
C495 C496 1.387 . S
C495 H498 0.950 . S
C496 C495 1.387 . S
C496 C499 1.387 . S
H497 C493 0.950 . S
H498 C495 0.950 . S
C499 C490 1.390 . S
C499 H492 0.950 . S
C499 C496 1.387 . S
C500 C501 1.387 . S
C500 H504 0.950 . S
C500 C509 1.390 . S
C501 C500 1.387 . S
C501 C503 1.387 . S
H502 C509 0.950 . S
C503 C501 1.387 . S
C503 C505 1.390 . S
C503 H507 0.950 . S
H504 C500 0.950 . S
C505 C503 1.390 . S
C505 C506 1.387 . S
C505 H508 0.950 . S
C506 C505 1.387 . S
C506 C509 1.387 . S
H507 C503 0.950 . S
H508 C505 0.950 . S
C509 C500 1.390 . S
C509 H502 0.950 . S
C509 C506 1.387 . S
C510 C511 1.387 . S
C510 H514 0.950 . S
C510 C519 1.390 . S
C511 C510 1.387 . S
C511 C513 1.387 . S
H512 C519 0.950 . S
C513 C511 1.387 . S
C513 C515 1.390 . S
C513 H517 0.950 . S
H514 C510 0.950 . S
C515 C513 1.390 . S
C515 C516 1.387 . S
C515 H518 0.950 . S
C516 C515 1.387 . S
C516 C519 1.387 . S
H517 C513 0.950 . S
H518 C515 0.950 . S
C519 C510 1.390 . S
C519 H512 0.950 . S
C519 C516 1.387 . S
C520 C521 1.387 . S
C520 H524 0.950 . S
C520 C529 1.390 . S
C521 C520 1.387 . S
C521 C523 1.387 . S
H522 C529 0.950 . S
C523 C521 1.387 . S
C523 C525 1.390 . S
C523 H527 0.950 . S
H524 C520 0.950 . S
C525 C523 1.390 . S
C525 C526 1.387 . S
C525 H528 0.950 . S
C526 C525 1.387 . S
C526 C529 1.387 . S
H527 C523 0.950 . S
H528 C525 0.950 . S
C529 C520 1.390 . S
C529 H522 0.950 . S
C529 C526 1.387 . S
C530 C531 1.387 . S
C530 H534 0.950 . S
C530 C539 1.390 . S
C531 C530 1.387 . S
C531 C533 1.387 . S
H532 C539 0.950 . S
C533 C531 1.387 . S
C533 C535 1.390 . S
C533 H537 0.950 . S
H534 C530 0.950 . S
C535 C533 1.390 . S
C535 C536 1.387 . S
C535 H538 0.950 . S
C536 C535 1.387 . S
C536 C539 1.387 . S
H537 C533 0.950 . S
H538 C535 0.950 . S
C539 C530 1.390 . S
C539 H532 0.950 . S
C539 C536 1.387 . S
C540 C541 1.387 . S
C540 H544 0.950 . S
C540 C549 1.390 . S
C541 C540 1.387 . S
C541 C543 1.387 . S
H542 C549 0.950 . S
C543 C541 1.387 . S
C543 C545 1.390 . S
C543 H547 0.950 . S
H544 C540 0.950 . S
C545 C543 1.390 . S
C545 C546 1.387 . S
C545 H548 0.950 . S
C546 C545 1.387 . S
C546 C549 1.387 . S
H547 C543 0.950 . S
H548 C545 0.950 . S
C549 C540 1.390 . S
C549 H542 0.950 . S
C549 C546 1.387 . S
C550 C551 1.387 . S
C550 H554 0.950 . S
C550 C559 1.390 . S
C551 C550 1.387 . S
C551 C553 1.387 . S
H552 C559 0.950 . S
C553 C551 1.387 . S
C553 C555 1.390 . S
C553 H557 0.950 . S
H554 C550 0.950 . S
C555 C553 1.390 . S
C555 C556 1.387 . S
C555 H558 0.950 . S
C556 C555 1.387 . S
C556 C559 1.387 . S
H557 C553 0.950 . S
H558 C555 0.950 . S
C559 C550 1.390 . S
C559 H552 0.950 . S
C559 C556 1.387 . S
C560 C561 1.387 . S
C560 H564 0.950 . S
C560 C569 1.390 . S
C561 C560 1.387 . S
C561 C563 1.387 . S
H562 C569 0.950 . S
C563 C561 1.387 . S
C563 C565 1.390 . S
C563 H567 0.950 . S
H564 C560 0.950 . S
C565 C563 1.390 . S
C565 C566 1.387 . S
C565 H568 0.950 . S
C566 C565 1.387 . S
C566 C569 1.387 . S
H567 C563 0.950 . S
H568 C565 0.950 . S
C569 C560 1.390 . S
C569 H562 0.950 . S
C569 C566 1.387 . S
C570 C571 1.387 . S
C570 H574 0.950 . S
C570 C579 1.390 . S
C571 C570 1.387 . S
C571 C573 1.387 . S
H572 C579 0.950 . S
C573 C571 1.387 . S
C573 C575 1.390 . S
C573 H577 0.950 . S
H574 C570 0.950 . S
C575 C573 1.390 . S
C575 C576 1.387 . S
C575 H578 0.950 . S
C576 C575 1.387 . S
C576 C579 1.387 . S
H577 C573 0.950 . S
H578 C575 0.950 . S
C579 C570 1.390 . S
C579 H572 0.950 . S
C579 C576 1.387 . S
C580 C581 1.387 . S
C580 H584 0.950 . S
C580 C589 1.390 . S
C581 C580 1.387 . S
C581 C583 1.397 . S
H582 C589 0.950 . S
C583 C581 1.397 . S
C583 C585 1.389 . S
C583 H587 0.941 1_554 S
H584 C580 0.950 . S
C585 C583 1.389 . S
C585 C586 1.387 . S
C585 H588 0.950 1_554 S
C586 C585 1.387 . S
C586 C589 1.387 . S
H587 C583 0.941 1_556 S
H588 C585 0.950 1_556 S
C589 C580 1.390 . S
C589 H582 0.950 . S
C589 C586 1.387 . S
C590 C591 1.387 . S
C590 H594 0.950 . S
C590 C599 1.390 . S
C591 C590 1.387 . S
C591 C593 1.387 . S
H592 C599 0.950 . S
C593 C591 1.387 . S
C593 C595 1.390 . S
C593 H597 0.950 . S
H594 C590 0.950 . S
C595 C593 1.390 . S
C595 C596 1.387 . S
C595 H598 0.950 . S
C596 C595 1.387 . S
C596 C599 1.387 . S
H597 C593 0.950 . S
H598 C595 0.950 . S
C599 C590 1.390 . S
C599 H592 0.950 . S
C599 C596 1.387 . S
C600 C601 1.387 . S
C600 H604 0.950 . S
C600 C609 1.390 . S
C601 C600 1.387 . S
C601 C603 1.387 . S
H602 C609 0.950 . S
C603 C601 1.387 . S
C603 C605 1.390 . S
C603 H607 0.950 . S
H604 C600 0.950 . S
C605 C603 1.390 . S
C605 C606 1.387 . S
C605 H608 0.950 . S
C606 C605 1.387 . S
C606 C609 1.387 . S
H607 C603 0.950 . S
H608 C605 0.950 . S
C609 C600 1.390 . S
C609 H602 0.950 . S
C609 C606 1.387 . S
C610 C611 1.387 . S
C610 H614 0.950 . S
C610 C619 1.390 . S
C611 C610 1.387 . S
C611 C613 1.387 . S
H612 C619 0.950 . S
C613 C611 1.387 . S
C613 C615 1.390 . S
C613 H617 0.950 . S
H614 C610 0.950 . S
C615 C613 1.390 . S
C615 C616 1.387 . S
C615 H618 0.950 . S
C616 C615 1.387 . S
C616 C619 1.387 . S
H617 C613 0.950 . S
H618 C615 0.950 . S
C619 C610 1.390 . S
C619 H612 0.950 . S
C619 C616 1.387 . S
C620 C621 1.387 . S
C620 H624 0.950 . S
C620 C629 1.390 . S
C621 C620 1.387 . S
C621 C623 1.387 . S
H622 C629 0.950 . S
C623 C621 1.387 . S
C623 C625 1.390 . S
C623 H627 0.950 . S
H624 C620 0.950 . S
C625 C623 1.390 . S
C625 C626 1.387 . S
C625 H628 0.950 . S
C626 C625 1.387 . S
C626 C629 1.387 . S
H627 C623 0.950 . S
H628 C625 0.950 . S
C629 C620 1.390 . S
C629 H622 0.950 . S
C629 C626 1.387 . S
C630 C631 1.387 . S
C630 H634 0.950 . S
C630 C639 1.390 . S
C631 C630 1.387 . S
C631 C633 1.387 . S
H632 C639 0.950 . S
C633 C631 1.387 . S
C633 C635 1.390 . S
C633 H637 0.950 . S
H634 C630 0.950 . S
C635 C633 1.390 . S
C635 C636 1.387 . S
C635 H638 0.950 . S
C636 C635 1.387 . S
C636 C639 1.387 . S
H637 C633 0.950 . S
H638 C635 0.950 . S
C639 C630 1.390 . S
C639 H632 0.950 . S
C639 C636 1.387 . S
C640 C641 1.387 . S
C640 H644 0.950 . S
C640 C649 1.390 . S
C641 C640 1.387 . S
C641 C643 1.387 . S
H642 C649 0.950 . S
C643 C641 1.387 . S
C643 C645 1.390 . S
C643 H647 0.950 . S
H644 C640 0.950 . S
C645 C643 1.390 . S
C645 C646 1.387 . S
C645 H648 0.950 . S
C646 C645 1.387 . S
C646 C649 1.387 . S
H647 C643 0.950 . S
H648 C645 0.950 . S
C649 C640 1.390 . S
C649 H642 0.950 . S
C649 C646 1.387 . S
C650 C651 1.387 . S
C650 H654 0.950 . S
C650 C659 1.390 . S
C651 C650 1.387 . S
C651 C653 1.387 . S
H652 C659 0.950 . S
C653 C651 1.387 . S
C653 C655 1.390 . S
C653 H657 0.950 . S
H654 C650 0.950 . S
C655 C653 1.390 . S
C655 C656 1.387 . S
C655 H658 0.950 . S
C656 C655 1.387 . S
C656 C659 1.387 . S
H657 C653 0.950 . S
H658 C655 0.950 . S
C659 C650 1.390 . S
C659 H652 0.950 . S
C659 C656 1.387 . S
C660 C661 1.393 . S
C660 H664 0.945 1_556 S
C660 C669 1.390 . S
C661 C660 1.393 . S
C661 C663 1.387 . S
H662 C669 0.950 1_554 S
C663 C661 1.387 . S
C663 C665 1.390 . S
C663 H667 0.950 . S
H664 C660 0.945 1_554 S
C665 C663 1.390 . S
C665 C666 1.387 . S
C665 H668 0.950 . S
C666 C665 1.387 . S
C666 C669 1.387 . S
H667 C663 0.950 . S
H668 C665 0.950 . S
C669 C660 1.390 . S
C669 H662 0.950 1_556 S
C669 C666 1.387 . S
C670 C671 1.387 . S
C670 H674 0.950 . S
C670 C679 1.390 . S
C671 C670 1.387 . S
C671 C673 1.387 . S
H672 C679 0.950 . S
C673 C671 1.387 . S
C673 C675 1.390 . S
C673 H677 0.950 . S
H674 C670 0.950 . S
C675 C673 1.390 . S
C675 C676 1.387 . S
C675 H678 0.950 . S
C676 C675 1.387 . S
C676 C679 1.387 . S
H677 C673 0.950 . S
H678 C675 0.950 . S
C679 C670 1.390 . S
C679 H672 0.950 . S
C679 C676 1.387 . S
C680 C681 1.387 . S
C680 H684 0.950 . S
C680 C689 1.390 . S
C681 C680 1.387 . S
C681 C683 1.387 . S
H682 C689 0.950 . S
C683 C681 1.387 . S
C683 C685 1.390 . S
C683 H687 0.950 . S
H684 C680 0.950 . S
C685 C683 1.390 . S
C685 C686 1.387 . S
C685 H688 0.950 . S
C686 C685 1.387 . S
C686 C689 1.387 . S
H687 C683 0.950 . S
H688 C685 0.950 . S
C689 C680 1.390 . S
C689 H682 0.950 . S
C689 C686 1.387 . S
C690 C691 1.387 . S
C690 H694 0.950 . S
C690 C699 1.390 . S
C691 C690 1.387 . S
C691 C693 1.387 . S
H692 C699 0.950 . S
C693 C691 1.387 . S
C693 C695 1.390 . S
C693 H697 0.950 . S
H694 C690 0.950 . S
C695 C693 1.390 . S
C695 C696 1.387 . S
C695 H698 0.950 . S
C696 C695 1.387 . S
C696 C699 1.387 . S
H697 C693 0.950 . S
H698 C695 0.950 . S
C699 C690 1.390 . S
C699 H692 0.950 . S
C699 C696 1.387 . S
C700 C701 1.387 . S
C700 H704 0.950 1_554 S
C700 C709 1.390 . S
C701 C700 1.387 . S
C701 C703 1.387 . S
H702 C709 0.950 1_556 S
C703 C701 1.387 . S
C703 C705 1.390 . S
C703 H707 0.950 . S
H704 C700 0.950 1_556 S
C705 C703 1.390 . S
C705 C706 1.387 . S
C705 H708 0.950 . S
C706 C705 1.387 . S
C706 C709 1.387 . S
H707 C703 0.950 . S
H708 C705 0.950 . S
C709 C700 1.390 . S
C709 H702 0.950 1_554 S
C709 C706 1.387 . S
C710 C711 1.387 . S
C710 H714 0.950 . S
C710 C719 1.390 . S
C711 C710 1.387 . S
C711 C713 1.387 . S
H712 C719 0.950 . S
C713 C711 1.387 . S
C713 C715 1.390 . S
C713 H717 0.950 . S
H714 C710 0.950 . S
C715 C713 1.390 . S
C715 C716 1.387 . S
C715 H718 0.950 . S
C716 C715 1.387 . S
C716 C719 1.387 . S
H717 C713 0.950 . S
H718 C715 0.950 . S
C719 C710 1.390 . S
C719 H712 0.950 . S
C719 C716 1.387 . S
C720 C721 1.387 . S
C720 H724 0.950 . S
C720 C729 1.390 . S
C721 C720 1.387 . S
C721 C723 1.387 . S
H722 C729 0.950 . S
C723 C721 1.387 . S
C723 C725 1.390 . S
C723 H727 0.950 . S
H724 C720 0.950 . S
C725 C723 1.390 . S
C725 C726 1.387 . S
C725 H728 0.950 . S
C726 C725 1.387 . S
C726 C729 1.387 . S
H727 C723 0.950 . S
H728 C725 0.950 . S
C729 C720 1.390 . S
C729 H722 0.950 . S
C729 C726 1.387 . S
C730 C731 1.387 . S
C730 H734 0.950 . S
C730 C739 1.390 . S
C731 C730 1.387 . S
C731 C733 1.387 . S
H732 C739 0.950 . S
C733 C731 1.387 . S
C733 C735 1.390 . S
C733 H737 0.950 . S
H734 C730 0.950 . S
C735 C733 1.390 . S
C735 C736 1.387 . S
C735 H738 0.950 . S
C736 C735 1.387 . S
C736 C739 1.387 . S
H737 C733 0.950 . S
H738 C735 0.950 . S
C739 C730 1.390 . S
C739 H732 0.950 . S
C739 C736 1.387 . S
C740 C741 1.387 . S
C740 H744 0.950 . S
C740 C749 1.390 . S
C741 C740 1.387 . S
C741 C743 1.387 . S
H742 C749 0.950 . S
C743 C741 1.387 . S
C743 C745 1.390 . S
C743 H747 0.950 . S
H744 C740 0.950 . S
C745 C743 1.390 . S
C745 C746 1.387 . S
C745 H748 0.950 . S
C746 C745 1.387 . S
C746 C749 1.387 . S
H747 C743 0.950 . S
H748 C745 0.950 . S
C749 C740 1.390 . S
C749 H742 0.950 . S
C749 C746 1.387 . S
C750 C751 1.387 . S
C750 H754 0.950 . S
C750 C759 1.390 . S
C751 C750 1.387 . S
C751 C753 1.387 . S
H752 C759 0.950 . S
C753 C751 1.387 . S
C753 C755 1.390 . S
C753 H757 0.950 . S
H754 C750 0.950 . S
C755 C753 1.390 . S
C755 C756 1.387 . S
C755 H758 0.950 . S
C756 C755 1.387 . S
C756 C759 1.387 . S
H757 C753 0.950 . S
H758 C755 0.950 . S
C759 C750 1.390 . S
C759 H752 0.950 . S
C759 C756 1.387 . S
C760 C761 1.387 . S
C760 H764 0.950 . S
C760 C769 1.390 . S
C761 C760 1.387 . S
C761 C763 1.387 . S
H762 C769 0.950 . S
C763 C761 1.387 . S
C763 C765 1.390 . S
C763 H767 0.950 . S
H764 C760 0.950 . S
C765 C763 1.390 . S
C765 C766 1.387 . S
C765 H768 0.950 . S
C766 C765 1.387 . S
C766 C769 1.387 . S
H767 C763 0.950 . S
H768 C765 0.950 . S
C769 C760 1.390 . S
C769 H762 0.950 . S
C769 C766 1.387 . S
C770 C771 1.387 . S
C770 H774 0.950 . S
C770 C779 1.390 . S
C771 C770 1.387 . S
C771 C773 1.387 . S
H772 C779 0.950 . S
C773 C771 1.387 . S
C773 C775 1.390 . S
C773 H777 0.950 . S
H774 C770 0.950 . S
C775 C773 1.390 . S
C775 C776 1.387 . S
C775 H778 0.950 . S
C776 C775 1.387 . S
C776 C779 1.387 . S
H777 C773 0.950 . S
H778 C775 0.950 . S
C779 C770 1.390 . S
C779 H772 0.950 . S
C779 C776 1.387 . S
C780 C781 1.387 . S
C780 H784 0.950 . S
C780 C789 1.390 . S
C781 C780 1.387 . S
C781 C783 1.387 . S
H782 C789 0.950 . S
C783 C781 1.387 . S
C783 C785 1.390 . S
C783 H787 0.950 . S
H784 C780 0.950 . S
C785 C783 1.390 . S
C785 C786 1.387 . S
C785 H788 0.950 . S
C786 C785 1.387 . S
C786 C789 1.387 . S
H787 C783 0.950 . S
H788 C785 0.950 . S
C789 C780 1.390 . S
C789 H782 0.950 . S
C789 C786 1.387 . S
C790 C791 1.387 . S
C790 H794 0.950 . S
C790 C799 1.390 . S
C791 C790 1.387 . S
C791 C793 1.387 . S
H792 C799 0.950 . S
C793 C791 1.387 . S
C793 C795 1.390 . S
C793 H797 0.950 . S
H794 C790 0.950 . S
C795 C793 1.390 . S
C795 C796 1.387 . S
C795 H798 0.950 . S
C796 C795 1.387 . S
C796 C799 1.387 . S
H797 C793 0.950 . S
H798 C795 0.950 . S
C799 C790 1.390 . S
C799 H792 0.950 . S
C799 C796 1.387 . S
C800 C801 1.387 . S
C800 H804 0.950 . S
C800 C809 1.390 . S
C801 C800 1.387 . S
C801 C803 1.387 . S
H802 C809 0.950 . S
C803 C801 1.387 . S
C803 C805 1.390 . S
C803 H807 0.950 . S
H804 C800 0.950 . S
C805 C803 1.390 . S
C805 C806 1.387 . S
C805 H808 0.950 . S
C806 C805 1.387 . S
C806 C809 1.387 . S
H807 C803 0.950 . S
H808 C805 0.950 . S
C809 C800 1.390 . S
C809 H802 0.950 . S
C809 C806 1.387 . S
C810 C811 1.387 . S
C810 H814 0.950 . S
C810 C819 1.390 . S
C811 C810 1.387 . S
C811 C813 1.387 . S
H812 C819 0.950 . S
C813 C811 1.387 . S
C813 C815 1.390 . S
C813 H817 0.950 . S
H814 C810 0.950 . S
C815 C813 1.390 . S
C815 C816 1.387 . S
C815 H818 0.950 . S
C816 C815 1.387 . S
C816 C819 1.387 . S
H817 C813 0.950 . S
H818 C815 0.950 . S
C819 C810 1.390 . S
C819 H812 0.950 . S
C819 C816 1.387 . S
C820 C821 1.387 . S
C820 H824 0.950 . S
C820 C829 1.390 . S
C821 C820 1.387 . S
C821 C823 1.387 . S
H822 C829 0.950 . S
C823 C821 1.387 . S
C823 C825 1.390 . S
C823 H827 0.950 . S
H824 C820 0.950 . S
C825 C823 1.390 . S
C825 C826 1.387 . S
C825 H828 0.950 . S
C826 C825 1.387 . S
C826 C829 1.387 . S
H827 C823 0.950 . S
H828 C825 0.950 . S
C829 C820 1.390 . S
C829 H822 0.950 . S
C829 C826 1.387 . S
C830 C831 1.387 . S
C830 H834 0.950 . S
C830 C839 1.390 . S
C831 C830 1.387 . S
C831 C833 1.387 . S
H832 C839 0.950 . S
C833 C831 1.387 . S
C833 C835 1.390 . S
C833 H837 0.950 . S
H834 C830 0.950 . S
C835 C833 1.390 . S
C835 C836 1.387 . S
C835 H838 0.950 . S
C836 C835 1.387 . S
C836 C839 1.387 . S
H837 C833 0.950 . S
H838 C835 0.950 . S
C839 C830 1.390 . S
C839 H832 0.950 . S
C839 C836 1.387 . S
C840 C841 1.387 . S
C840 H844 0.950 . S
C840 C849 1.390 . S
C841 C840 1.387 . S
C841 C843 1.387 . S
H842 C849 0.950 . S
C843 C841 1.387 . S
C843 C845 1.390 . S
C843 H847 0.950 . S
H844 C840 0.950 . S
C845 C843 1.390 . S
C845 C846 1.387 . S
C845 H848 0.950 . S
C846 C845 1.387 . S
C846 C849 1.387 . S
H847 C843 0.950 . S
H848 C845 0.950 . S
C849 C840 1.390 . S
C849 H842 0.950 . S
C849 C846 1.387 . S
C850 C851 1.387 . S
C850 H854 0.950 . S
C850 C859 1.390 . S
C851 C850 1.387 . S
C851 C853 1.387 . S
H852 C859 0.950 . S
C853 C851 1.387 . S
C853 C855 1.390 . S
C853 H857 0.950 . S
H854 C850 0.950 . S
C855 C853 1.390 . S
C855 C856 1.387 . S
C855 H858 0.950 . S
C856 C855 1.387 . S
C856 C859 1.387 . S
H857 C853 0.950 . S
H858 C855 0.950 . S
C859 C850 1.390 . S
C859 H852 0.950 . S
C859 C856 1.387 . S
C860 C861 1.387 . S
C860 H864 0.950 . S
C860 C869 1.390 . S
C861 C860 1.387 . S
C861 C863 1.387 . S
H862 C869 0.950 . S
C863 C861 1.387 . S
C863 C865 1.390 . S
C863 H867 0.950 . S
H864 C860 0.950 . S
C865 C863 1.390 . S
C865 C866 1.387 . S
C865 H868 0.950 . S
C866 C865 1.387 . S
C866 C869 1.387 . S
H867 C863 0.950 . S
H868 C865 0.950 . S
C869 C860 1.390 . S
C869 H862 0.950 . S
C869 C866 1.387 . S
C870 C871 1.387 . S
C870 H874 0.950 . S
C870 C879 1.390 . S
C871 C870 1.387 . S
C871 C873 1.387 . S
H872 C879 0.950 . S
C873 C871 1.387 . S
C873 C875 1.390 . S
C873 H877 0.950 . S
H874 C870 0.950 . S
C875 C873 1.390 . S
C875 C876 1.387 . S
C875 H878 0.950 . S
C876 C875 1.387 . S
C876 C879 1.387 . S
H877 C873 0.950 . S
H878 C875 0.950 . S
C879 C870 1.390 . S
C879 H872 0.950 . S
C879 C876 1.387 . S
C880 C881 1.387 . S
C880 H884 0.950 . S
C880 C889 1.390 . S
C881 C880 1.387 . S
C881 C883 1.387 . S
H882 C889 0.950 . S
C883 C881 1.387 . S
C883 C885 1.390 . S
C883 H887 0.950 . S
H884 C880 0.950 . S
C885 C883 1.390 . S
C885 C886 1.387 . S
C885 H888 0.950 . S
C886 C885 1.387 . S
C886 C889 1.387 . S
H887 C883 0.950 . S
H888 C885 0.950 . S
C889 C880 1.390 . S
C889 H882 0.950 . S
C889 C886 1.387 . S
C890 C891 1.387 . S
C890 H894 0.950 . S
C890 C899 1.390 . S
C891 C890 1.387 . S
C891 C893 1.387 . S
H892 C899 0.950 . S
C893 C891 1.387 . S
C893 C895 1.390 . S
C893 H897 0.950 . S
H894 C890 0.950 . S
C895 C893 1.390 . S
C895 C896 1.387 . S
C895 H898 0.950 . S
C896 C895 1.387 . S
C896 C899 1.387 . S
H897 C893 0.950 . S
H898 C895 0.950 . S
C899 C890 1.390 . S
C899 H892 0.950 . S
C899 C896 1.387 . S
C900 C901 1.387 . S
C900 H904 0.950 . S
C900 C909 1.390 . S
C901 C900 1.387 . S
C901 C903 1.387 . S
H902 C909 0.950 . S
C903 C901 1.387 . S
C903 C905 1.390 . S
C903 H907 0.950 . S
H904 C900 0.950 . S
C905 C903 1.390 . S
C905 C906 1.387 . S
C905 H908 0.950 . S
C906 C905 1.387 . S
C906 C909 1.387 . S
H907 C903 0.950 . S
H908 C905 0.950 . S
C909 C900 1.390 . S
C909 H902 0.950 . S
C909 C906 1.387 . S
C910 C911 1.387 . S
C910 H914 0.950 . S
C910 C919 1.390 . S
C911 C910 1.387 . S
C911 C913 1.387 . S
H912 C919 0.950 . S
C913 C911 1.387 . S
C913 C915 1.390 . S
C913 H917 0.950 . S
H914 C910 0.950 . S
C915 C913 1.390 . S
C915 C916 1.387 . S
C915 H918 0.950 . S
C916 C915 1.387 . S
C916 C919 1.387 . S
H917 C913 0.950 . S
H918 C915 0.950 . S
C919 C910 1.390 . S
C919 H912 0.950 . S
C919 C916 1.387 . S
C920 C921 1.387 . S
C920 H924 0.950 . S
C920 C929 1.390 . S
C921 C920 1.387 . S
C921 C923 1.387 . S
H922 C929 0.950 . S
C923 C921 1.387 . S
C923 C925 1.390 . S
C923 H927 0.950 . S
H924 C920 0.950 . S
C925 C923 1.390 . S
C925 C926 1.387 . S
C925 H928 0.950 . S
C926 C925 1.387 . S
C926 C929 1.387 . S
H927 C923 0.950 . S
H928 C925 0.950 . S
C929 C920 1.390 . S
C929 H922 0.950 . S
C929 C926 1.387 . S
C930 C931 1.387 . S
C930 H934 0.950 . S
C930 C939 1.390 . S
C931 C930 1.387 . S
C931 C933 1.387 . S
H932 C939 0.950 . S
C933 C931 1.387 . S
C933 C935 1.390 . S
C933 H937 0.950 . S
H934 C930 0.950 . S
C935 C933 1.390 . S
C935 C936 1.387 . S
C935 H938 0.950 . S
C936 C935 1.387 . S
C936 C939 1.387 . S
H937 C933 0.950 . S
H938 C935 0.950 . S
C939 C930 1.390 . S
C939 H932 0.950 . S
C939 C936 1.387 . S
C940 C941 1.387 . S
C940 H944 0.950 . S
C940 C949 1.390 . S
C941 C940 1.387 . S
C941 C943 1.387 . S
H942 C949 0.950 . S
C943 C941 1.387 . S
C943 C945 1.390 . S
C943 H947 0.950 . S
H944 C940 0.950 . S
C945 C943 1.390 . S
C945 C946 1.387 . S
C945 H948 0.950 . S
C946 C945 1.387 . S
C946 C949 1.387 . S
H947 C943 0.950 . S
H948 C945 0.950 . S
C949 C940 1.390 . S
C949 H942 0.950 . S
C949 C946 1.387 . S
C476 C299 0.684 . S
C471 C4 0.440 . S
C486 C300 1.808 . S
C481 C63 1.962 . S
C496 C294 1.204 . S
C491 C72 1.229 . S
C501 C102 1.310 . S
C506 C293 1.298 . S
C511 C136 1.961 . S
C516 C296 1.807 . S
C526 C298 1.201 . S
C521 C183 1.225 . S
C531 C233 1.307 . S
C536 C297 1.294 . S
C541 C251 0.446 . S
C546 C295 0.690 . S
C556 C330 1.580 . S
C551 C29 1.574 . S
C561 C42 2.210 . S
C566 C361 2.161 . S
C576 C329 1.575 . S
C571 C97 1.615 . S
C586 C364 1.389 . S
C581 C115 1.373 . S
C591 C149 1.392 . S
C596 C327 1.465 . S
C606 C359 1.576 . S
C601 C187 1.598 . S
C611 C212 2.053 . S
C616 C332 2.079 . S
C621 C255 1.556 . S
C626 C366 1.469 . S
C631 C8 1.556 . S
C636 C362 1.464 . S
C641 C153 2.210 . S
C646 C365 2.159 . S
C656 C333 1.576 . S
C651 C170 1.616 . S
C666 C360 1.389 . S
C661 C208 1.376 . S
C671 C238 1.578 . S
C676 C326 1.580 . S
C681 C76 1.597 . S
C686 C363 1.573 . S
C696 C328 2.079 . S
C691 C119 2.053 . S
C701 C38 1.389 . S
C706 C331 1.464 . S
C711 C242 0.403 . S
C716 C398 0.656 . S
C721 C165 1.582 . S
C726 C399 1.446 . S
C736 C393 1.192 . S
C731 C174 1.217 . S
C746 C392 1.648 . S
C741 C204 1.680 . S
C751 C34 1.581 . S
C756 C395 1.440 . S
C766 C397 1.191 . S
C761 C81 1.215 . S
C771 C131 1.679 . S
C776 C396 1.647 . S
C781 C13 0.402 . S
C786 C394 0.659 . S
C791 C267 1.747 . S
C796 C432 1.654 . S
C806 C464 2.089 . S
C801 C144 2.064 . S
C811 C199 1.401 . S
C816 C425 1.394 . S
C821 C217 1.451 . S
C826 C459 1.550 . S
C836 C430 1.369 . S
C831 C47 1.329 . S
C841 C85 1.898 . S
C846 C461 1.838 . S
C856 C427 2.178 . S
C851 C110 2.214 . S
C866 C462 1.442 . S
C861 C17 1.434 . S
C876 C458 1.442 . S
C871 C246 1.433 . S
C881 C51 2.063 . S
C886 C460 2.088 . S
C891 C68 1.401 . S
C896 C429 1.395 . S
C906 C463 1.552 . S
C901 C106 1.453 . S
C911 C0 1.747 . S
C916 C428 1.650 . S
C921 C178 1.895 . S
C926 C465 1.835 . S
C936 C431 2.177 . S
C931 C221 2.215 . S
C946 C426 1.369 . S
C941 C140 1.327 . S
