# Generated by pormake.
# Topology ssa, (4,4)-cn, num edge types: 1
# Building blocks:
#     Node 0, Type 0, BuildingBlock: ESEHIV_clean_sbu_0, # of connection points: 4
#     Node 1, Type 0, BuildingBlock: ESEHIV_clean_sbu_0, # of connection points: 4
#     Node 2, Type 0, BuildingBlock: ESEHIV_clean_sbu_0, # of connection points: 4
#     Node 3, Type 0, BuildingBlock: ESEHIV_clean_sbu_0, # of connection points: 4
#     Node 4, Type 0, BuildingBlock: ESEHIV_clean_sbu_0, # of connection points: 4
#     Node 5, Type 0, BuildingBlock: ESEHIV_clean_sbu_0, # of connection points: 4
#     Node 6, Type 1, BuildingBlock: KOZSID_clean_sbu_0, # of connection points: 4
#     Node 7, Type 1, BuildingBlock: KOZSID_clean_sbu_0, # of connection points: 4
#     Node 8, Type 1, BuildingBlock: KOZSID_clean_sbu_0, # of connection points: 4
#     Node 9, Type 1, BuildingBlock: KOZSID_clean_sbu_0, # of connection points: 4
#     Node 10, Type 1, BuildingBlock: KOZSID_clean_sbu_0, # of connection points: 4
#     Node 11, Type 1, BuildingBlock: KOZSID_clean_sbu_0, # of connection points: 4
#     Edge 12, Type (0, 1), BuildingBlock: XIVTED_clean_linker_0, # of connection points: 2
#     Edge 13, Type (0, 1), BuildingBlock: XIVTED_clean_linker_0, # of connection points: 2
#     Edge 14, Type (0, 1), BuildingBlock: XIVTED_clean_linker_0, # of connection points: 2
#     Edge 15, Type (0, 1), BuildingBlock: XIVTED_clean_linker_0, # of connection points: 2
#     Edge 16, Type (0, 1), BuildingBlock: XIVTED_clean_linker_0, # of connection points: 2
#     Edge 17, Type (0, 1), BuildingBlock: XIVTED_clean_linker_0, # of connection points: 2
#     Edge 18, Type (0, 1), BuildingBlock: XIVTED_clean_linker_0, # of connection points: 2
#     Edge 19, Type (0, 1), BuildingBlock: XIVTED_clean_linker_0, # of connection points: 2
#     Edge 20, Type (0, 1), BuildingBlock: XIVTED_clean_linker_0, # of connection points: 2
#     Edge 21, Type (0, 1), BuildingBlock: XIVTED_clean_linker_0, # of connection points: 2
#     Edge 22, Type (0, 1), BuildingBlock: XIVTED_clean_linker_0, # of connection points: 2
#     Edge 23, Type (0, 1), BuildingBlock: XIVTED_clean_linker_0, # of connection points: 2
#     Edge 24, Type (0, 1), BuildingBlock: XIVTED_clean_linker_0, # of connection points: 2
#     Edge 25, Type (0, 1), BuildingBlock: XIVTED_clean_linker_0, # of connection points: 2
#     Edge 26, Type (0, 1), BuildingBlock: XIVTED_clean_linker_0, # of connection points: 2
#     Edge 27, Type (0, 1), BuildingBlock: XIVTED_clean_linker_0, # of connection points: 2
#     Edge 28, Type (0, 1), BuildingBlock: XIVTED_clean_linker_0, # of connection points: 2
#     Edge 29, Type (0, 1), BuildingBlock: XIVTED_clean_linker_0, # of connection points: 2
#     Edge 30, Type (0, 1), BuildingBlock: XIVTED_clean_linker_0, # of connection points: 2
#     Edge 31, Type (0, 1), BuildingBlock: XIVTED_clean_linker_0, # of connection points: 2
#     Edge 32, Type (0, 1), BuildingBlock: XIVTED_clean_linker_0, # of connection points: 2
#     Edge 33, Type (0, 1), BuildingBlock: XIVTED_clean_linker_0, # of connection points: 2
#     Edge 34, Type (0, 1), BuildingBlock: XIVTED_clean_linker_0, # of connection points: 2
#     Edge 35, Type (0, 1), BuildingBlock: XIVTED_clean_linker_0, # of connection points: 2
# Relax obj value: 0.016
# Max RMSD: 0.106
# Mean RMSD: 0.057
data_MOF--net-ssa--node1-ESEHIV_clean_sbu_0--node2-KOZSID_clean_sbu_0--edge1-XIVTED_clean_linker_0
_symmetry_space_group_name_H-M    P1
_symmetry_Int_Tables_number       1
_symmetry_cell_setting            triclinic
loop_
_symmetry_equiv_pos_as_xyz
'x, y, z'
_cell_length_a     53.964715
_cell_length_b     57.445283
_cell_length_c     39.310062
_cell_angle_alpha  91.568737
_cell_angle_beta   94.075519
_cell_angle_gamma 122.18812
loop_
_atom_site_label
_atom_site_type_symbol
_atom_site_fract_x
_atom_site_fract_y
_atom_site_fract_z
_atom_type_partial_charge
Cu0 Cu 0.0208 0.50888 0.98099 0.0
N1 N 0.01263 0.48313 0.94524 0.0
N2 N 0.98444 0.44514 0.91023 0.0
C3 C 0.98651 0.45927 0.93933 0.0
C4 C 0.01047 0.46083 0.89724 0.0
C5 C 0.02791 0.48436 0.91899 0.0
O6 O 0.98677 0.51359 0.97632 0.0
C7 C 0.05068 0.49084 0.0211 0.0
O8 O 0.0602 0.49185 0.99101 0.0
H9 H 0.96884 0.45318 0.95536 0.0
H10 H 0.04976 0.5014 0.91547 0.0
N11 N 0.05527 0.54271 0.97688 0.0
N12 N 0.0981 0.58054 0.99653 0.0
C13 C 0.07391 0.55738 0.00453 0.0
C14 C 0.06806 0.55721 0.95008 0.0
C15 C 0.09457 0.5809 0.96229 0.0
C16 C 0.98285 0.52081 0.94683 0.0
O17 O 1.00188 0.52527 0.92486 0.0
H18 H 0.06969 0.55116 0.03031 0.0
H19 H 0.05912 0.55095 0.9236 0.0
O20 O 0.03069 0.49633 0.02364 0.0
H21 H 0.01635 0.45591 0.87355 0.0
H22 H 0.11021 0.59674 0.94726 0.0
Cu23 Cu 0.50317 0.00656 0.49831 0.0
N24 N 0.52277 1.00054 0.46456 0.0
N25 N 0.53616 0.97718 0.43163 0.0
C26 C 0.51765 0.97555 0.45435 0.0
C27 C 0.55344 0.00441 0.42724 0.0
C28 C 0.54522 0.01872 0.4476 0.0
O29 O 0.46228 0.977 0.48988 0.0
C30 C 0.5447 0.00851 0.54859 0.0
O31 O 0.55286 0.99833 0.52468 0.0
H32 H 0.50086 0.95658 0.46394 0.0
H33 H 0.55544 0.04085 0.45052 0.0
N34 N 0.5062 0.04088 0.49929 0.0
N35 N 0.50762 0.078 0.52242 0.0
C36 C 0.50278 0.05268 0.52731 0.0
C37 C 0.51335 0.05926 0.47555 0.0
C38 C 0.51421 0.08207 0.48965 0.0
C39 C 0.44897 0.97696 0.46183 0.0
O40 O 0.4629 0.99773 0.44271 0.0
H41 H 0.49748 0.04292 0.55112 0.0
H42 H 0.51791 0.05645 0.44993 0.0
O43 O 0.52055 0.00739 0.54338 0.0
H44 H 0.57145 0.01354 0.41135 0.0
H45 H 0.51935 0.10021 0.47655 0.0
Cu46 Cu 0.5004 0.5046 0.00837 0.0
N47 N 0.49897 0.47103 0.0066 0.0
N48 N 0.49885 0.43459 0.98365 0.0
C49 C 0.49839 0.45747 0.97757 0.0
C50 C 0.4997 0.43383 0.01807 0.0
C51 C 0.49986 0.45627 0.03209 0.0
O52 O 0.51948 0.52161 0.96834 0.0
C53 C 0.43947 0.4781 0.01701 0.0
O54 O 0.44076 0.45647 0.02361 0.0
H55 H 0.49759 0.46435 0.95242 0.0
H56 H 0.50091 0.46162 0.05897 0.0
N57 N 0.52112 0.52802 0.0482 0.0
N58 N 0.53616 0.56296 0.08808 0.0
C59 C 0.51887 0.54934 0.05875 0.0
C60 C 0.54048 0.528 0.07171 0.0
C61 C 0.54974 0.54946 0.09633 0.0
C62 C 0.54553 0.54261 0.96944 0.0
O63 O 0.55829 0.55784 0.99835 0.0
H64 H 0.50456 0.55456 0.04512 0.0
H65 H 0.54753 0.51356 0.07089 0.0
O66 O 0.46173 0.49925 0.0069 0.0
H67 H 0.50079 0.41851 0.03235 0.0
H68 H 0.56564 0.55493 0.11825 0.0
Cu69 Cu 0.01839 0.49888 0.54521 0.0
N70 N 0.04996 0.49415 0.55295 0.0
N71 N 0.0888 0.49284 0.53995 0.0
C72 C 0.07232 0.50368 0.53324 0.0
C73 C 0.07653 0.47592 0.56504 0.0
C74 C 0.05262 0.47685 0.57314 0.0
O75 O 0.02522 0.5178 0.50179 0.0
C76 C 0.9774 0.45456 0.57984 0.0
O77 O 0.99695 0.47113 0.60493 0.0
H78 H 0.0749 0.5163 0.51221 0.0
H79 H 0.03721 0.46421 0.59075 0.0
N80 N 0.01986 0.52245 0.5799 0.0
N81 N 1.00253 0.54079 0.61424 0.0
C82 C 0.99802 0.52662 0.58418 0.0
C83 C 0.03914 0.53466 0.60801 0.0
C84 C 0.02836 0.54592 0.62943 0.0
C85 C 0.04391 0.54399 0.50407 0.0
O86 O 0.05537 0.55679 0.53456 0.0
H87 H 0.9781 0.51751 0.56681 0.0
H88 H 0.05867 0.53397 0.61339 0.0
O89 O 0.98134 0.46242 0.54931 0.0
H90 H 0.0833 0.46263 0.57531 0.0
H91 H 0.03806 0.55598 0.65476 0.0
Cu92 Cu 0.50489 0.01451 0.04403 0.0
N93 N 0.50034 0.04416 0.0511 0.0
N94 N 0.50101 0.08244 0.04009 0.0
C95 C 0.5125 0.06703 0.03393 0.0
C96 C 0.48134 0.06898 0.06288 0.0
C97 C 0.48102 0.04538 0.06965 0.0
O98 O 0.52518 0.0201 1.00218 0.0
C99 C 0.46358 0.95703 0.05433 0.0
O100 O 0.48524 0.95374 0.04863 0.0
H101 H 0.52791 0.0712 0.01534 0.0
H102 H 0.46654 0.02945 0.08541 0.0
N103 N 0.53051 0.01613 0.0794 0.0
N104 N 0.55337 0.99934 0.10946 0.0
C105 C 0.54364 1.00186 0.07807 0.0
C106 C 0.53289 0.02395 0.11262 0.0
C107 C 0.54715 0.01369 0.13128 0.0
C108 C 0.51919 0.02771 0.97418 0.0
O109 O 0.49412 0.02639 0.96924 0.0
H110 H 0.54342 0.9913 0.05473 0.0
H111 H 0.52242 0.0339 0.1228 0.0
O112 O 0.46657 0.98025 0.04923 0.0
H113 H 0.46714 0.07496 0.07274 0.0
H114 H 0.54977 0.01421 0.15891 0.0
Cu115 Cu 0.51229 0.49736 0.49032 0.0
N116 N 0.5355 0.51413 0.45516 0.0
N117 N 0.55307 0.54517 0.41624 0.0
C118 C 0.52918 0.52703 0.43137 0.0
C119 C 0.57529 0.5432 0.43063 0.0
C120 C 0.56433 0.5239 0.45463 0.0
O121 O 0.48031 0.50453 0.48202 0.0
C122 C 0.53658 0.5046 0.56176 0.0
O123 O 0.51015 0.48485 0.56814 0.0
H124 H 0.50847 0.52585 0.42841 0.0
H125 H 0.57706 0.51958 0.4729 0.0
N126 N 0.49829 0.45976 0.48575 0.0
N127 N 0.49268 0.41957 0.49812 0.0
C128 C 0.50772 0.44702 0.5061 0.0
C129 C 0.477 0.43977 0.4633 0.0
C130 C 0.47326 0.41484 0.47111 0.0
C131 C 0.4526 0.48683 0.48006 0.0
O132 O 0.44309 0.46256 0.49172 0.0
H133 H 0.52477 0.45762 0.52707 0.0
H134 H 0.46465 0.44301 0.44317 0.0
O135 O 0.54016 0.51398 0.53222 0.0
H136 H 0.59822 0.55652 0.4264 0.0
H137 H 0.45729 0.39485 0.45818 0.0
C138 C 0.21963 0.51489 0.2121 0.0
C139 C 0.22427 0.53989 0.20245 0.0
C140 C 0.25093 0.56008 0.21836 0.0
C141 C 0.26122 0.5464 0.23652 0.0
N142 N 0.2428 0.51863 0.23326 0.0
Co143 Co 0.25036 0.49118 0.25454 0.0
N144 N 0.2891 0.52106 0.27913 0.0
C145 C 0.30105 0.54854 0.27839 0.0
C146 C 0.32667 0.56422 0.29941 0.0
C147 C 0.33136 0.54571 0.31478 0.0
C148 C 0.3084 0.5196 0.30194 0.0
N149 N 0.2582 0.46373 0.27516 0.0
C150 C 0.28099 0.46749 0.29705 0.0
C151 C 0.27798 0.4425 0.30354 0.0
C152 C 0.25215 0.42229 0.28603 0.0
C153 C 0.24098 0.43594 0.26952 0.0
N154 N 0.21123 0.4613 0.23078 0.0
C155 C 0.19865 0.43383 0.23271 0.0
C156 C 0.17123 0.41821 0.21519 0.0
C157 C 0.16583 0.43675 0.20121 0.0
C158 C 0.1905 0.4628 0.21076 0.0
N159 N 0.27038 0.49077 0.21414 0.0
C160 C 0.30113 0.48987 0.15922 0.0
C161 C 0.27878 0.46544 0.17115 0.0
C162 C 0.26362 0.46637 0.19795 0.0
C163 C 0.30706 0.5148 0.17475 0.0
C164 C 0.29179 0.51477 0.20206 0.0
N165 N 0.23049 0.49153 0.29492 0.0
C166 C 0.20035 0.46775 0.34007 0.0
C167 C 0.20308 0.49196 0.35326 0.0
C168 C 0.21988 0.51599 0.33657 0.0
C169 C 0.23349 0.51537 0.30794 0.0
C170 C 0.21373 0.46793 0.31095 0.0
H171 H 0.24628 0.53445 0.29676 0.0
H172 H 0.21028 0.44867 0.30205 0.0
H173 H 0.24679 0.44699 0.20535 0.0
H174 H 0.29791 0.53445 0.21314 0.0
C175 C 0.28746 0.55901 0.25808 0.0
C176 C 0.19295 0.48823 0.20022 0.0
C177 C 0.30565 0.49411 0.31282 0.0
C178 C 0.21349 0.42329 0.25045 0.0
H179 H 0.20991 0.54329 0.18565 0.0
H180 H 0.26146 0.58213 0.21702 0.0
H181 H 0.3401 0.58649 0.30351 0.0
H182 H 0.34947 0.55098 0.33369 0.0
H183 H 0.29275 0.43912 0.31957 0.0
H184 H 0.2424 0.40022 0.28586 0.0
H185 H 0.15685 0.39595 0.21282 0.0
H186 H 0.14591 0.43163 0.18579 0.0
H187 H 0.27332 0.44547 0.16062 0.0
H188 H 0.32353 0.53442 0.16614 0.0
H189 H 0.18812 0.44862 0.35219 0.0
H190 H 0.22235 0.53525 0.34516 0.0
C191 C 0.70174 0.19617 0.694 0.0
C192 C 0.67687 0.19585 0.68105 0.0
C193 C 0.67337 0.21237 0.70331 0.0
C194 C 0.6961 0.22187 0.72862 0.0
N195 N 0.71416 0.21286 0.72331 0.0
Co196 Co 0.74807 0.22009 0.75542 0.0
N197 N 0.74834 0.2503 0.78134 0.0
C198 C 0.72642 0.25491 0.78104 0.0
C199 C 0.73422 0.27856 0.80044 0.0
C200 C 0.76292 0.28947 0.81349 0.0
C201 C 0.77085 0.27173 0.80126 0.0
N202 N 0.78162 0.22724 0.78778 0.0
C203 C 0.80097 0.25051 0.80742 0.0
C204 C 0.82208 0.24785 0.82588 0.0
C205 C 0.81568 0.22181 0.81694 0.0
C206 C 0.7911 0.21018 0.79368 0.0
N207 N 0.74839 0.19006 0.72974 0.0
C208 C 0.76303 0.17802 0.74016 0.0
C209 C 0.76025 0.15872 0.71628 0.0
C210 C 0.74219 0.15805 0.68952 0.0
C211 C 0.73453 0.17676 0.69884 0.0
N212 N 0.77579 0.2472 0.72542 0.0
C213 C 0.81756 0.28854 0.68648 0.0
C214 C 0.8216 0.26809 0.6995 0.0
C215 C 0.80062 0.24776 0.71867 0.0
C216 C 0.79155 0.28721 0.69286 0.0
C217 C 0.77113 0.26656 0.71226 0.0
N218 N 0.72023 0.19313 0.78555 0.0
C219 C 0.67521 0.1497 0.79196 0.0
C220 C 0.67792 0.1557 0.82735 0.0
C221 C 0.70294 0.18072 0.84147 0.0
C222 C 0.72369 0.19911 0.82021 0.0
C223 C 0.69643 0.16842 0.77179 0.0
H224 H 0.74233 0.21839 0.83179 0.0
H225 H 0.69319 0.16287 0.74487 0.0
H226 H 0.80481 0.23272 0.72852 0.0
H227 H 0.7518 0.26667 0.71721 0.0
C228 C 0.70222 0.2406 0.75639 0.0
C229 C 0.70967 0.17687 0.68122 0.0
C230 C 0.79952 0.27513 0.80888 0.0
C231 C 0.78142 0.18723 0.77089 0.0
H232 H 0.66192 0.18405 0.65869 0.0
H233 H 0.65615 0.21674 0.70138 0.0
H234 H 0.72135 0.28778 0.80294 0.0
H235 H 0.77655 0.30848 0.82951 0.0
H236 H 0.84048 0.2633 0.84324 0.0
H237 H 0.82867 0.21322 0.82455 0.0
H238 H 0.77023 0.14664 0.71804 0.0
H239 H 0.73415 0.14423 0.66655 0.0
H240 H 0.84094 0.2677 0.69496 0.0
H241 H 0.78731 0.30252 0.68384 0.0
H242 H 0.65674 0.1305 0.77972 0.0
H243 H 0.70613 0.18645 0.86863 0.0
C244 C 0.52432 0.72516 0.21608 0.0
C245 C 0.49751 0.70449 0.1993 0.0
C246 C 0.47649 0.70808 0.21101 0.0
C247 C 0.4915 0.73058 0.23423 0.0
N248 N 0.52095 0.7419 0.23775 0.0
Co249 Co 0.55066 0.77409 0.27025 0.0
N250 N 0.51923 0.77719 0.2904 0.0
C251 C 0.48983 0.76008 0.28277 0.0
C252 C 0.47368 0.768 0.2993 0.0
C253 C 0.49394 0.79189 0.31818 0.0
C254 C 0.52147 0.7972 0.31215 0.0
N255 N 0.58038 0.80694 0.3019 0.0
C256 C 0.57695 0.82469 0.32161 0.0
C257 C 0.6037 0.84622 0.33731 0.0
C258 C 0.62488 0.84244 0.32644 0.0
C259 C 0.60993 0.81889 0.30483 0.0
N260 N 0.58202 0.77042 0.2509 0.0
C261 C 0.6113 0.78621 0.26046 0.0
C262 C 0.62724 0.77764 0.24462 0.0
C263 C 0.60689 0.75462 0.22428 0.0
C264 C 0.57958 0.75041 0.22894 0.0
N265 N 0.5541 0.79986 0.23579 0.0
C266 C 0.56014 0.84271 0.19731 0.0
C267 C 0.58476 0.84225 0.20949 0.0
C268 C 0.58123 0.8206 0.22814 0.0
C269 C 0.53228 0.82029 0.20236 0.0
C270 C 0.52977 0.79914 0.22148 0.0
N271 N 0.54755 0.74826 0.30467 0.0
C272 C 0.57259 0.73121 0.33893 0.0
C273 C 0.54681 0.70509 0.33756 0.0
C274 C 0.52071 0.70197 0.32291 0.0
C275 C 0.52154 0.72382 0.30705 0.0
C276 C 0.57234 0.75243 0.32293 0.0
H277 H 0.5011 0.72005 0.2956 0.0
H278 H 0.59285 0.77155 0.32421 0.0
H279 H 0.60086 0.82162 0.23709 0.0
H280 H 0.50803 0.78296 0.22545 0.0
C281 C 0.47833 0.73935 0.25618 0.0
C282 C 0.55196 0.72667 0.21263 0.0
C283 C 0.54902 0.82255 0.32536 0.0
C284 C 0.62302 0.80836 0.2853 0.0
H285 H 0.49331 0.6878 0.18148 0.0
H286 H 0.45292 0.69497 0.20466 0.0
H287 H 0.45004 0.75847 0.29636 0.0
H288 H 0.4889 0.80455 0.33339 0.0
H289 H 0.60754 0.86327 0.3542 0.0
H290 H 0.64845 0.8558 0.33263 0.0
H291 H 0.65078 0.78666 0.2481 0.0
H292 H 0.61153 0.74201 0.20834 0.0
H293 H 0.60672 0.85885 0.20527 0.0
H294 H 0.51256 0.8197 0.19304 0.0
H295 H 0.59337 0.73501 0.35047 0.0
H296 H 0.49987 0.68251 0.32267 0.0
C297 C 0.73401 0.55208 0.72847 0.0
C298 C 0.73819 0.57754 0.72221 0.0
C299 C 0.76274 0.59688 0.74258 0.0
C300 C 0.77204 0.58225 0.76032 0.0
N301 N 0.75538 0.55476 0.75197 0.0
Co302 Co 0.75889 0.52601 0.77592 0.0
N303 N 0.79485 0.55444 0.80619 0.0
C304 C 0.80844 0.5821 0.80564 0.0
C305 C 0.83392 0.59659 0.82723 0.0
C306 C 0.83724 0.57699 0.84183 0.0
C307 C 0.81348 0.55156 0.82827 0.0
N308 N 0.7611 0.49723 0.80143 0.0
C309 C 0.78196 0.49961 0.82545 0.0
C310 C 0.77482 0.47401 0.83573 0.0
C311 C 0.74884 0.45487 0.81739 0.0
C312 C 0.74153 0.46971 0.79695 0.0
N313 N 0.72441 0.49754 0.74388 0.0
C314 C 0.71232 0.46999 0.74284 0.0
C315 C 0.68899 0.45543 0.71825 0.0
C316 C 0.6857 0.47483 0.70299 0.0
C317 C 0.70708 0.5002 0.71949 0.0
N318 N 0.78571 0.52679 0.74358 0.0
C319 C 0.83144 0.53069 0.70924 0.0
C320 C 0.80949 0.50543 0.71972 0.0
C321 C 0.78667 0.50385 0.73626 0.0
C322 C 0.82886 0.55345 0.71377 0.0
C323 C 0.80594 0.55107 0.7309 0.0
N324 N 0.73211 0.52558 0.80842 0.0
C325 C 0.68246 0.50569 0.82352 0.0
C326 C 0.69058 0.52987 0.84308 0.0
C327 C 0.72042 0.5508 0.84744 0.0
C328 C 0.7406 0.54829 0.83001 0.0
C329 C 0.70352 0.50376 0.80727 0.0
H330 H 0.76277 0.56539 0.83394 0.0
H331 H 0.69582 0.48464 0.79305 0.0
H332 H 0.77063 0.48408 0.74399 0.0
H333 H 0.80575 0.56942 0.73483 0.0
C334 C 0.79639 0.59366 0.7848 0.0
C335 C 0.70859 0.52587 0.71284 0.0
C336 C 0.80984 0.52532 0.83698 0.0
C337 C 0.72016 0.45837 0.76889 0.0
H338 H 0.72454 0.58175 0.70534 0.0
H339 H 0.77231 0.61895 0.74474 0.0
H340 H 0.84853 0.61876 0.83152 0.0
H341 H 0.85524 0.58092 0.86016 0.0
H342 H 0.78764 0.46941 0.85343 0.0
H343 H 0.73769 0.43265 0.81727 0.0
H344 H 0.67499 0.43325 0.71329 0.0
H345 H 0.6687 0.47067 0.68298 0.0
H346 H 0.81027 0.4871 0.71579 0.0
H347 H 0.84528 0.57337 0.7057 0.0
H348 H 0.6598 0.48855 0.81956 0.0
H349 H 0.72828 0.56938 0.86376 0.0
C350 C 0.25542 0.79858 0.32386 0.0
C351 C 0.24474 0.81515 0.33163 0.0
C352 C 0.22081 0.80683 0.30871 0.0
C353 C 0.21828 0.78573 0.28842 0.0
N354 N 0.23878 0.77969 0.29739 0.0
Co355 Co 0.24433 0.75165 0.27375 0.0
N356 N 0.21186 0.74208 0.23718 0.0
C357 C 0.1936 0.75151 0.23599 0.0
C358 C 0.17317 0.74098 0.20796 0.0
C359 C 0.17884 0.72396 0.19001 0.0
C360 C 0.20268 0.72527 0.20809 0.0
N361 N 0.25064 0.72433 0.24952 0.0
C362 C 0.23868 0.71007 0.21859 0.0
C363 C 0.25102 0.69506 0.2099 0.0
C364 C 0.27126 0.69979 0.23639 0.0
C365 C 0.27039 0.71757 0.25947 0.0
N366 N 0.27649 0.76096 0.31073 0.0
C367 C 0.29182 0.7486 0.31482 0.0
C368 C 0.31306 0.75996 0.34204 0.0
C369 C 0.31148 0.78108 0.35598 0.0
C370 C 0.28915 0.7813 0.33641 0.0
N371 N 0.21487 0.72184 0.30139 0.0
C372 C 0.17289 0.67944 0.34012 0.0
C373 C 0.19832 0.68045 0.3321 0.0
C374 C 0.21873 0.70154 0.31309 0.0
C375 C 0.16897 0.70012 0.3281 0.0
C376 C 0.18984 0.72074 0.30908 0.0
N377 N 0.27339 0.78097 0.2461 0.0
C378 C 0.32037 0.80386 0.22212 0.0
C379 C 0.31334 0.82037 0.20334 0.0
C380 C 0.28602 0.81708 0.20727 0.0
C381 C 0.26665 0.79755 0.22858 0.0
C382 C 0.30037 0.78459 0.24312 0.0
H383 H 0.24609 0.79592 0.23023 0.0
H384 H 0.30709 0.77263 0.25661 0.0
H385 H 0.23751 0.70088 0.30836 0.0
H386 H 0.18501 0.73549 0.30088 0.0
C387 C 0.19773 0.77195 0.25997 0.0
C388 C 0.28207 0.80228 0.34155 0.0
C389 C 0.21589 0.71029 0.19652 0.0
C390 C 0.28854 0.72902 0.29011 0.0
H391 H 0.25371 0.83186 0.35143 0.0
H392 H 0.20731 0.81555 0.30656 0.0
H393 H 0.15659 0.74564 0.20098 0.0
H394 H 0.16691 0.71217 0.1661 0.0
H395 H 0.2462 0.68225 0.18664 0.0
H396 H 0.28537 0.69171 0.23827 0.0
H397 H 0.32884 0.75447 0.34978 0.0
H398 H 0.32589 0.79521 0.37737 0.0
H399 H 0.20289 0.66531 0.34099 0.0
H400 H 0.14958 0.70033 0.33293 0.0
H401 H 0.34138 0.80583 0.22089 0.0
H402 H 0.27916 0.82905 0.19337 0.0
C403 C 0.47276 0.27532 0.80051 0.0
C404 C 0.44547 0.26898 0.80934 0.0
C405 C 0.42572 0.24195 0.7982 0.0
C406 C 0.44187 0.23331 0.783 0.0
N407 N 0.47054 0.25328 0.78338 0.0
Co408 Co 0.50121 0.24894 0.76407 0.0
N409 N 0.47121 0.21348 0.73767 0.0
C410 C 0.44248 0.19802 0.74254 0.0
C411 C 0.42681 0.17485 0.72033 0.0
C412 C 0.44694 0.17556 0.70035 0.0
C413 C 0.47396 0.19911 0.71172 0.0
N414 N 0.53182 0.24449 0.74488 0.0
C415 C 0.52958 0.22748 0.71843 0.0
C416 C 0.55663 0.23075 0.71466 0.0
C417 C 0.57637 0.25033 0.73961 0.0
C418 C 0.56038 0.25789 0.75727 0.0
N419 N 0.53128 0.28436 0.79053 0.0
C420 C 0.55997 0.29345 0.7975 0.0
C421 C 0.57554 0.31801 0.8172 0.0
C422 C 0.55536 0.32472 0.82349 0.0
C423 C 0.52847 0.30379 0.80719 0.0
N424 N 0.50155 0.22869 0.80313 0.0
C425 C 0.50417 0.20093 0.8593 0.0
C426 C 0.5023 0.22415 0.86384 0.0
C427 C 0.50117 0.23778 0.83551 0.0
C428 C 0.5043 0.19163 0.82606 0.0
C429 C 0.50276 0.20565 0.79836 0.0
N430 N 0.50098 0.26922 0.72516 0.0
C431 C 0.52747 0.30405 0.68657 0.0
C432 C 0.50103 0.29902 0.6699 0.0
C433 C 0.47452 0.27838 0.68132 0.0
C434 C 0.47499 0.26367 0.7088 0.0
C435 C 0.52697 0.28912 0.71417 0.0
H436 H 0.45428 0.24797 0.71696 0.0
H437 H 0.54768 0.29378 0.72666 0.0
H438 H 0.50029 0.25586 0.84003 0.0
H439 H 0.50276 0.19791 0.7731 0.0
C440 C 0.43034 0.20797 0.76446 0.0
C441 C 0.50045 0.30154 0.81174 0.0
C442 C 0.50192 0.20606 0.69881 0.0
C443 C 0.57199 0.27991 0.78219 0.0
H444 H 0.44042 0.28235 0.82291 0.0
H445 H 0.40226 0.2302 0.80024 0.0
H446 H 0.40337 0.15975 0.71808 0.0
H447 H 0.44219 0.16038 0.67984 0.0
H448 H 0.56151 0.21979 0.69621 0.0
H449 H 0.59973 0.25853 0.74383 0.0
H450 H 0.59884 0.32982 0.82568 0.0
H451 H 0.55982 0.3426 0.8391 0.0
H452 H 0.50233 0.23211 0.88916 0.0
H453 H 0.50532 0.1735 0.82144 0.0
H454 H 0.54854 0.31939 0.67839 0.0
H455 H 0.45351 0.27393 0.66968 0.0
H456 H 0.07655 0.46147 0.01931 0.0
H457 H 0.15657 0.50734 0.21125 0.0
H458 H 0.06107 0.51003 0.08993 0.0
H459 H 0.17559 0.4663 0.13372 0.0
H460 H 0.11889 0.50583 0.17014 0.0
H461 H 0.10892 0.4594 0.06371 0.0
C462 C 0.07963 0.47143 0.04442 0.0
C463 C 0.06588 0.48592 0.05073 0.0
C464 C 0.13121 0.49706 0.16216 0.0
C465 C 0.10391 0.48404 0.10225 0.0
C466 C 0.15272 0.49794 0.18559 0.0
C467 C 0.16927 0.48693 0.17588 0.0
C468 C 0.12602 0.48492 0.12873 0.0
C469 C 0.16333 0.47495 0.14235 0.0
C470 C 0.09836 0.47035 0.06984 0.0
C471 C 0.07088 0.49837 0.08393 0.0
N472 N 0.14233 0.47428 0.12015 0.0
N473 N 0.08968 0.49736 0.10836 0.0
H474 H 0.5955 0.0133 0.57624 0.0
H475 H 0.68536 0.16991 0.61509 0.0
H476 H 0.54656 0.0531 0.57763 0.0
H477 H 0.68072 0.12494 0.70305 0.0
H478 H 0.64405 0.12667 0.58511 0.0
H479 H 0.63723 0.05408 0.6098 0.0
C480 C 0.59334 0.03031 0.58406 0.0
C481 C 0.56751 0.02977 0.57423 0.0
C482 C 0.6525 0.12649 0.61088 0.0
C483 C 0.61508 0.07631 0.61072 0.0
C484 C 0.67583 0.15094 0.62785 0.0
C485 C 0.68622 0.1509 0.6615 0.0
C486 C 0.64034 0.10195 0.62741 0.0
C487 C 0.67334 0.12578 0.67705 0.0
C488 C 0.61709 0.05347 0.60287 0.0
C489 C 0.56591 0.05249 0.58476 0.0
N490 N 0.65111 0.10216 0.65977 0.0
N491 N 0.58963 0.07511 0.60188 0.0
H492 H 0.55412 0.58003 0.15576 0.0
H493 H 0.54148 0.71296 0.14353 0.0
H494 H 0.52616 0.60125 0.06252 0.0
H495 H 0.56169 0.6881 0.23846 0.0
H496 H 0.53843 0.6735 0.11295 0.0
H497 H 0.55959 0.62059 0.18598 0.0
C498 C 0.54926 0.59322 0.14152 0.0
C499 C 0.53957 0.58697 0.10639 0.0
C500 C 0.54362 0.67665 0.14045 0.0
C501 C 0.54572 0.63367 0.14111 0.0
C502 C 0.54542 0.69919 0.15784 0.0
C503 C 0.55172 0.70364 0.1935 0.0
C504 C 0.54831 0.65841 0.15883 0.0
C505 C 0.55676 0.68531 0.21092 0.0
C506 C 0.55226 0.61637 0.1589 0.0
C507 C 0.5333 0.60485 0.0896 0.0
N508 N 0.55488 0.66348 0.19347 0.0
N509 N 0.53651 0.62729 0.10704 0.0
H510 H 0.96508 0.55241 0.58165 0.0
H511 H 0.86582 0.51284 0.73594 0.0
H512 H 0.99063 0.53647 0.68036 0.0
H513 H 0.85711 0.55581 0.65222 0.0
H514 H 0.91002 0.51872 0.71419 0.0
H515 H 0.92421 0.55215 0.60554 0.0
C516 C 0.96221 0.54917 0.60846 0.0
C517 C 0.98113 0.54441 0.62909 0.0
C518 C 0.8985 0.52694 0.70062 0.0
C519 C 0.93438 0.54365 0.65642 0.0
C520 C 0.87315 0.52334 0.71281 0.0
C521 C 0.85774 0.53366 0.69563 0.0
C522 C 0.90831 0.54066 0.6708 0.0
C523 C 0.86842 0.54757 0.66616 0.0
C524 C 0.93899 0.54906 0.62208 0.0
C525 C 0.97667 0.54045 0.6637 0.0
N526 N 0.89297 0.55048 0.65448 0.0
N527 N 0.9535 0.5398 0.6762 0.0
H528 H 0.44965 0.90466 0.06547 0.0
H529 H 0.32373 0.87167 0.1886 0.0
H530 H 0.42044 0.96015 0.08464 0.0
H531 H 0.35069 0.8153 0.16347 0.0
H532 H 0.3577 0.90376 0.15004 0.0
H533 H 0.41243 0.87143 0.09996 0.0
C534 C 0.4352 0.90981 0.07659 0.0
C535 C 0.43834 0.93541 0.07188 0.0
C536 C 0.35614 0.88435 0.15293 0.0
C537 C 0.39548 0.89715 0.11229 0.0
C538 C 0.33656 0.86584 0.17492 0.0
C539 C 0.33412 0.84049 0.17971 0.0
C540 C 0.37364 0.87768 0.13535 0.0
C541 C 0.35193 0.83463 0.16138 0.0
C542 C 0.41392 0.89075 0.09649 0.0
C543 C 0.41885 0.9407 0.08725 0.0
N544 N 0.37079 0.85297 0.14023 0.0
N545 N 0.39847 0.92189 0.10687 0.0
H546 H 0.45026 0.3656 0.50326 0.0
H547 H 0.54041 0.354 0.66332 0.0
H548 H 0.54059 0.42817 0.53756 0.0
H549 H 0.4619 0.2826 0.61191 0.0
H550 H 0.53993 0.38149 0.61769 0.0
H551 H 0.45325 0.33451 0.54233 0.0
C552 C 0.47084 0.3727 0.51856 0.0
C553 C 0.49506 0.39975 0.51747 0.0
C554 C 0.52292 0.35975 0.61622 0.0
C555 C 0.49844 0.36447 0.56262 0.0
C556 C 0.52324 0.34393 0.64226 0.0
C557 C 0.5012 0.3158 0.64159 0.0
C558 C 0.50018 0.34757 0.58937 0.0
C559 C 0.47911 0.30426 0.61389 0.0
C560 C 0.47247 0.35498 0.54101 0.0
C561 C 0.5211 0.40781 0.53814 0.0
N562 N 0.47906 0.32024 0.58899 0.0
N563 N 0.52198 0.39039 0.56007 0.0
H564 H 0.51741 0.92697 0.45627 0.0
H565 H 0.56681 0.87249 0.30018 0.0
H566 H 0.55958 0.97591 0.37275 0.0
H567 H 0.53045 0.82641 0.38738 0.0
H568 H 0.56427 0.91057 0.32601 0.0
H569 H 0.52122 0.88982 0.43096 0.0
C570 C 0.5273 0.92995 0.43251 0.0
C571 C 0.5381 0.95483 0.41671 0.0
C572 C 0.55688 0.89218 0.33959 0.0
C573 C 0.54283 0.91206 0.38753 0.0
C574 C 0.55839 0.8705 0.32486 0.0
C575 C 0.54864 0.84627 0.34161 0.0
C576 C 0.54549 0.88963 0.37137 0.0
C577 C 0.53798 0.8447 0.37356 0.0
C578 C 0.52966 0.90869 0.41813 0.0
C579 C 0.55117 0.95735 0.38614 0.0
N580 N 0.53657 0.86597 0.3873 0.0
N581 N 0.55308 0.9363 0.37258 0.0
H582 H 0.53179 0.50389 0.9173 0.0
H583 H 0.6913 0.57786 0.85393 0.0
H584 H 0.60138 0.58495 0.96017 0.0
H585 H 0.63819 0.49032 0.86627 0.0
H586 H 0.65449 0.58339 0.87916 0.0
H587 H 0.56632 0.50212 0.88221 0.0
C588 C 0.55411 0.52164 0.91876 0.0
C589 C 0.56386 0.54446 0.9422 0.0
C590 C 0.651 0.56302 0.87605 0.0
C591 C 0.60328 0.54243 0.90197 0.0
C592 C 0.67212 0.55979 0.86203 0.0
C593 C 0.66818 0.53354 0.85812 0.0
C594 C 0.62543 0.53982 0.88547 0.0
C595 C 0.64221 0.51089 0.86815 0.0
C596 C 0.57381 0.52046 0.89889 0.0
C597 C 0.59306 0.56684 0.94275 0.0
N598 N 0.62182 0.51456 0.88125 0.0
N599 N 0.61189 0.56519 0.9231 0.0
H600 H 0.05659 0.59582 0.49683 0.0
H601 H 0.1546 0.62415 0.34048 0.0
H602 H 0.06039 0.53113 0.44442 0.0
H603 H 0.14093 0.68432 0.38852 0.0
H604 H 0.11971 0.58942 0.37629 0.0
H605 H 0.08546 0.62738 0.45492 0.0
C606 C 0.06299 0.58806 0.47596 0.0
C607 C 0.05567 0.56061 0.47402 0.0
C608 C 0.12423 0.61019 0.37881 0.0
C609 C 0.09 0.59728 0.42603 0.0
C610 C 0.1444 0.63019 0.35852 0.0
C611 C 0.15102 0.65751 0.36124 0.0
C612 C 0.11053 0.61741 0.40238 0.0
C613 C 0.1365 0.66365 0.3849 0.0
C614 C 0.07973 0.60622 0.45208 0.0
C615 C 0.06501 0.55193 0.4466 0.0
N616 N 0.11725 0.64395 0.40446 0.0
N617 N 0.08198 0.57027 0.42395 0.0
H618 H 0.46242 0.09906 0.02913 0.0
H619 H 0.54175 0.18339 0.87258 0.0
H620 H 0.54743 0.11671 0.00539 0.0
H621 H 0.47117 0.18596 0.91373 0.0
H622 H 0.54378 0.15847 0.92103 0.0
H623 H 0.46541 0.13143 0.98826 0.0
C624 C 0.48196 0.11002 0.01587 0.0
C625 C 0.50448 0.10467 0.0204 0.0
C626 C 0.52799 0.16466 0.91964 0.0
C627 C 0.50769 0.14137 0.97292 0.0
C628 C 0.52667 0.17866 0.89185 0.0
C629 C 0.50614 0.18656 0.88908 0.0
C630 C 0.50836 0.15816 0.94464 0.0
C631 C 0.4874 0.18031 0.91501 0.0
C632 C 0.48355 0.12842 0.99231 0.0
C633 C 0.52916 0.11953 1.00214 0.0
N634 N 0.48875 0.16623 0.94157 0.0
N635 N 0.52991 0.13688 0.97889 0.0
H636 H 0.46462 0.52701 0.43526 0.0
H637 H 0.29569 0.47215 0.37533 0.0
H638 H 0.39209 0.45698 0.47643 0.0
H639 H 0.36547 0.5178 0.31147 0.0
H640 H 0.33127 0.47214 0.41806 0.0
H641 H 0.42936 0.53013 0.39579 0.0
C642 C 0.44132 0.51249 0.43642 0.0
C643 C 0.43148 0.49158 0.4593 0.0
C644 C 0.33885 0.48229 0.39479 0.0
C645 C 0.39078 0.49519 0.41398 0.0
C646 C 0.31855 0.4823 0.3704 0.0
C647 C 0.32759 0.49503 0.33976 0.0
C648 C 0.36866 0.49548 0.38889 0.0
C649 C 0.35756 0.50793 0.3348 0.0
C650 C 0.42117 0.5142 0.41365 0.0
C651 C 0.40085 0.4734 0.45931 0.0
N652 N 0.37698 0.50793 0.35908 0.0
N653 N 0.3817 0.47564 0.43712 0.0
H654 H 0.94079 0.40569 0.9437 0.0
H655 H 0.84615 0.30941 0.77487 0.0
H656 H 0.96885 0.42665 0.84285 0.0
H657 H 0.81276 0.29994 0.87319 0.0
H658 H 0.89237 0.35122 0.79896 0.0
H659 H 0.89513 0.36509 0.91827 0.0
C660 C 0.93734 0.40182 0.91616 0.0
C661 C 0.9586 0.41985 0.89538 0.0
C662 C 0.87484 0.34019 0.81519 0.0
C663 C 0.90627 0.37305 0.866 0.0
C664 C 0.84857 0.31652 0.80144 0.0
C665 C 0.82582 0.3018 0.82215 0.0
C666 C 0.87834 0.34875 0.84997 0.0
C667 C 0.82982 0.3112 0.85647 0.0
C668 C 0.91123 0.37856 0.90164 0.0
C669 C 0.95317 0.41328 0.85987 0.0
N670 N 0.85568 0.33407 0.86939 0.0
N671 N 0.92745 0.39042 0.84625 0.0
H672 H 0.9302 0.50304 0.97603 0.0
H673 H 0.86221 0.54074 0.813 0.0
H674 H 0.97672 0.5436 0.88985 0.0
H675 H 0.81531 0.50949 0.90166 0.0
H676 H 0.90395 0.54073 0.8417 0.0
H677 H 0.88765 0.50439 0.95089 0.0
C678 C 0.93165 0.51243 0.95214 0.0
C679 C 0.95722 0.5231 0.9351 0.0
C680 C 0.8846 0.53383 0.85507 0.0
C681 C 0.90855 0.52445 0.90599 0.0
C682 C 0.86075 0.53384 0.83859 0.0
C683 C 0.8352 0.52494 0.85484 0.0
C684 C 0.88313 0.5248 0.88828 0.0
C685 C 0.83453 0.51626 0.88811 0.0
C686 C 0.90731 0.5131 0.9377 0.0
C687 C 0.95761 0.53487 0.90402 0.0
N688 N 0.85805 0.5163 0.9037 0.0
N689 N 0.93384 0.53509 0.8906 0.0
H690 H 0.41601 0.92755 0.49056 0.0
H691 H 0.31402 0.85237 0.31652 0.0
H692 H 0.41695 0.97017 0.40141 0.0
H693 H 0.29838 0.81236 0.41071 0.0
H694 H 0.35138 0.8961 0.34804 0.0
H695 H 0.37219 0.88542 0.46314 0.0
C696 C 0.4068 0.92816 0.46546 0.0
C697 C 0.42036 0.95236 0.44812 0.0
C698 C 0.33972 0.87785 0.36196 0.0
C699 C 0.37055 0.90427 0.41652 0.0
C700 C 0.3185 0.85297 0.34395 0.0
C701 C 0.30365 0.82891 0.36112 0.0
C702 C 0.34627 0.87858 0.39739 0.0
C703 C 0.30987 0.83056 0.39665 0.0
C704 C 0.38183 0.90411 0.4498 0.0
C705 C 0.40744 0.95197 0.41565 0.0
N706 N 0.331 0.85497 0.41365 0.0
N707 N 0.38349 0.92826 0.40079 0.0
H708 H 0.48328 0.38154 0.99177 0.0
H709 H 0.5152 0.35458 0.80236 0.0
H710 H 0.51463 0.44318 0.91825 0.0
H711 H 0.48594 0.29465 0.87761 0.0
H712 H 0.515 0.3874 0.84388 0.0
H713 H 0.48401 0.34968 0.95013 0.0
C714 C 0.49046 0.38854 0.967 0.0
C715 C 0.49892 0.41534 0.95884 0.0
C716 C 0.50853 0.36705 0.85133 0.0
C717 C 0.49955 0.37843 0.91039 0.0
C718 C 0.50864 0.34836 0.82761 0.0
C719 C 0.50024 0.32181 0.83648 0.0
C720 C 0.50007 0.35918 0.88426 0.0
C721 C 0.49222 0.31483 0.86965 0.0
C722 C 0.49073 0.37017 0.94304 0.0
C723 C 0.50756 0.42276 0.92583 0.0
N724 N 0.49227 0.3333 0.89222 0.0
N725 N 0.50768 0.40449 0.90296 0.0
H726 H 0.13125 0.53767 0.51232 0.0
H727 H 0.15041 0.45005 0.37275 0.0
H728 H 0.09338 0.45041 0.51802 0.0
H729 H 0.22134 0.5339 0.40368 0.0
H730 H 0.12631 0.45048 0.42254 0.0
H731 H 0.16224 0.53792 0.46924 0.0
C732 C 0.12987 0.5187 0.50481 0.0
C733 C 0.10992 0.49402 0.51867 0.0
C734 C 0.14728 0.46868 0.41848 0.0
C735 C 0.14445 0.49397 0.4692 0.0
C736 C 0.16122 0.46847 0.39009 0.0
C737 C 0.18818 0.49196 0.38378 0.0
C738 C 0.15992 0.49271 0.44041 0.0
C739 C 0.20038 0.51545 0.40692 0.0
C740 C 0.14748 0.51884 0.48039 0.0
C741 C 0.10874 0.46989 0.50817 0.0
N742 N 0.18601 0.51532 0.43402 0.0
N743 N 0.12543 0.47036 0.4836 0.0
H744 H 0.5785 0.04706 0.98428 0.0
H745 H 0.61783 0.12615 0.81156 0.0
H746 H 0.51386 0.04536 0.91131 0.0
H747 H 0.68397 0.14036 0.89221 0.0
H748 H 0.57969 0.09358 0.84573 0.0
H749 H 0.61721 0.07761 0.94883 0.0
C750 C 0.57231 0.05272 0.96059 0.0
C751 C 0.54266 0.0434 0.95087 0.0
C752 C 0.60253 0.10376 0.85603 0.0
C753 C 0.58721 0.0788 0.91012 0.0
C754 C 0.62444 0.12235 0.83639 0.0
C755 C 0.65441 0.13613 0.84878 0.0
C756 C 0.61033 0.0985 0.88848 0.0
C757 C 0.66128 0.1305 0.88156 0.0
C758 C 0.59453 0.0704 0.94046 0.0
C759 C 0.53628 0.05186 0.91997 0.0
N760 N 0.6395 0.11211 0.90012 0.0
N761 N 0.55824 0.06898 0.90085 0.0
H762 H 0.5135 0.54241 0.36772 0.0
H763 H 0.58045 0.70349 0.3924 0.0
H764 H 0.59682 0.59912 0.4258 0.0
H765 H 0.51573 0.65195 0.30845 0.0
H766 H 0.58469 0.66471 0.40732 0.0
H767 H 0.51244 0.58166 0.34659 0.0
C768 C 0.53185 0.56317 0.37537 0.0
C769 C 0.5553 0.5676 0.39838 0.0
C770 C 0.5696 0.66194 0.38559 0.0
C771 C 0.55393 0.61245 0.37523 0.0
C772 C 0.56713 0.68407 0.37705 0.0
C773 C 0.5477 0.68108 0.34906 0.0
C774 C 0.55231 0.63649 0.36629 0.0
C775 C 0.53062 0.65517 0.33059 0.0
C776 C 0.5312 0.58551 0.36349 0.0
C777 C 0.57851 0.59483 0.40778 0.0
N778 N 0.53327 0.63387 0.33958 0.0
N779 N 0.57704 0.61626 0.39655 0.0
H780 H 0.52853 0.13301 0.51819 0.0
H781 H 0.48601 0.15245 0.70417 0.0
H782 H 0.48479 0.06678 0.58436 0.0
H783 H 0.52003 0.21647 0.63425 0.0
H784 H 0.48718 0.12134 0.66121 0.0
H785 H 0.52708 0.16411 0.56044 0.0
C786 C 0.51849 0.12478 0.54136 0.0
C787 C 0.50678 0.09686 0.54726 0.0
C788 C 0.49429 0.14212 0.65507 0.0
C789 C 0.5054 0.13297 0.59642 0.0
C790 C 0.49354 0.15985 0.67959 0.0
C791 C 0.50243 0.1869 0.67249 0.0
C792 C 0.50438 0.15152 0.62318 0.0
C793 C 0.51265 0.19566 0.64054 0.0
C794 C 0.51779 0.14275 0.56567 0.0
C795 C 0.49444 0.08798 0.57838 0.0
N796 N 0.51331 0.17805 0.61708 0.0
N797 N 0.49413 0.10588 0.6016 0.0
H798 H 0.44012 0.52516 0.03203 0.0
H799 H 0.28377 0.45063 0.1052 0.0
H800 H 0.38449 0.43644 0.03028 0.0
H801 H 0.35932 0.52766 0.15069 0.0
H802 H 0.31483 0.44797 0.06495 0.0
H803 H 0.40399 0.52901 0.06168 0.0
C804 C 0.42 0.50645 0.03714 0.0
C805 C 0.41539 0.48039 0.0289 0.0
C806 C 0.32435 0.46553 0.08362 0.0
C807 C 0.37408 0.48479 0.06274 0.0
C808 C 0.30676 0.46703 0.10688 0.0
C809 C 0.31884 0.48926 0.13203 0.0
C810 C 0.35409 0.48668 0.08487 0.0
C811 C 0.34867 0.51026 0.13177 0.0
C812 C 0.39954 0.50872 0.05429 0.0
C813 C 0.38898 0.45691 0.03641 0.0
N814 N 0.36522 0.50842 0.10865 0.0
N815 N 0.36931 0.45965 0.05306 0.0
H816 H 0.91835 0.42253 0.55234 0.0
H817 H 0.87781 0.31544 0.69875 0.0
H818 H 0.98049 0.42426 0.6292 0.0
H819 H 0.81072 0.31475 0.63129 0.0
H820 H 0.91534 0.35287 0.66908 0.0
H821 H 0.87851 0.38076 0.5759 0.0
C822 C 0.92372 0.41389 0.57365 0.0
C823 C 0.95289 0.42703 0.58879 0.0
C824 C 0.89244 0.34456 0.66054 0.0
C825 C 0.90752 0.37951 0.61608 0.0
C826 C 0.87083 0.32288 0.67744 0.0
C827 C 0.84075 0.31151 0.66765 0.0
C828 C 0.88434 0.35539 0.63333 0.0
C829 C 0.83351 0.32285 0.64014 0.0
C830 C 0.90095 0.39021 0.58731 0.0
C831 C 0.9584 0.41506 0.61672 0.0
N832 N 0.85505 0.34407 0.62401 0.0
N833 N 0.93614 0.39227 0.62934 0.0
H834 H 0.5356 0.95108 0.07311 0.0
H835 H 0.5978 0.89682 0.21983 0.0
H836 H 0.5855 1.0003 0.16653 0.0
H837 H 0.53011 0.84415 0.13912 0.0
H838 H 0.60092 0.93701 0.19564 0.0
H839 H 0.54156 0.91432 0.09176 0.0
C840 C 0.54837 0.9545 0.09727 0.0
C841 C 0.56004 0.97895 0.11835 0.0
C842 C 0.58556 0.91668 0.1831 0.0
C843 C 0.56636 0.93634 0.14019 0.0
C844 C 0.58389 0.89378 0.19673 0.0
C845 C 0.56361 0.86717 0.18142 0.0
C846 C 0.56697 0.91291 0.15385 0.0
C847 C 0.54582 0.86431 0.15185 0.0
C848 C 0.55147 0.93326 0.10807 0.0
C849 C 0.57588 0.9817 0.1497 0.0
N850 N 0.54789 0.88692 0.13904 0.0
N851 N 0.57844 0.96056 0.1598 0.0
H852 H 0.59555 0.53759 0.5526 0.0
H853 H 0.65168 0.50273 0.72786 0.0
H854 H 0.53766 0.48717 0.62614 0.0
H855 H 0.70836 0.54634 0.65022 0.0
H856 H 0.61032 0.49967 0.69287 0.0
H857 H 0.63759 0.54435 0.58992 0.0
C858 C 0.59163 0.52822 0.57677 0.0
C859 C 0.56279 0.51177 0.58608 0.0
C860 C 0.63179 0.51004 0.68346 0.0
C861 C 0.61119 0.51926 0.62905 0.0
C862 C 0.65539 0.51178 0.70346 0.0
C863 C 0.68352 0.52492 0.692 0.0
C864 C 0.6362 0.52154 0.65159 0.0
C865 C 0.6871 0.53623 0.66012 0.0
C866 C 0.61572 0.53197 0.59804 0.0
C867 C 0.55934 0.50004 0.61774 0.0
N868 N 0.66379 0.53429 0.64109 0.0
N869 N 0.58311 0.50393 0.6379 0.0
H870 H 0.12087 0.56912 0.05179 0.0
H871 H 0.21774 0.72561 0.13097 0.0
H872 H 0.12942 0.63644 0.99663 0.0
H873 H 0.18523 0.65435 0.18948 0.0
H874 H 0.19418 0.69481 0.07822 0.0
H875 H 0.1546 0.6019 0.09865 0.0
C876 C 0.13018 0.59094 0.0495 0.0
C877 C 0.12201 0.60016 0.02074 0.0
C878 C 0.19249 0.68599 0.10259 0.0
C879 C 0.16043 0.63781 0.07432 0.0
C880 C 0.20584 0.70346 0.1325 0.0
C881 C 0.2033 0.69229 0.16427 0.0
C882 C 0.17684 0.65729 0.10473 0.0
C883 C 0.18772 0.66362 0.16532 0.0
C884 C 0.14937 0.60963 0.07622 0.0
C885 C 0.13516 0.62863 0.01854 0.0
N886 N 0.17507 0.64709 0.13596 0.0
N887 N 0.1535 0.64655 0.04533 0.0
loop_
_geom_bond_atom_site_label_1
_geom_bond_atom_site_label_2
_geom_bond_distance
_geom_bond_site_symmetry_2
_ccdc_geom_bond_type
Cu0 N1 1.999 1_454 S
Cu0 O6 1.974 1_454 S
Cu0 N11 1.985 . S
Cu0 O20 1.959 . S
N1 Cu0 1.999 1_656 S
N1 C3 1.263 . S
N1 C5 1.389 1_556 S
N2 C3 1.358 . S
N2 C4 1.400 . S
C3 N1 1.263 . S
C3 N2 1.358 . S
C3 H9 0.930 . S
C4 N2 1.400 . S
C4 C5 1.351 1_556 S
C4 H21 0.930 . S
C5 N1 1.389 1_554 S
C5 C4 1.351 1_554 S
C5 H10 0.930 . S
O6 Cu0 1.974 1_656 S
O6 C16 1.282 . S
C7 O8 1.259 . S
C7 O20 1.251 . S
O8 C7 1.259 . S
H9 C3 0.930 . S
H10 C5 0.930 . S
N11 Cu0 1.985 . S
N11 C13 1.335 . S
N11 C14 1.390 . S
N12 C13 1.345 . S
N12 C15 1.336 . S
C13 N11 1.335 . S
C13 N12 1.345 . S
C13 H18 0.930 . S
C14 N11 1.390 . S
C14 C15 1.346 . S
C14 H19 0.930 1_554 S
C15 N12 1.336 . S
C15 C14 1.346 . S
C15 H22 0.929 . S
C16 O6 1.282 . S
C16 O17 1.216 1_655 S
O17 C16 1.216 1_455 S
H18 C13 0.930 . S
H19 C14 0.930 1_556 S
O20 Cu0 1.959 . S
O20 C7 1.251 . S
H21 C4 0.930 . S
H22 C15 0.929 . S
Cu23 N24 1.999 . S
Cu23 O29 1.974 . S
Cu23 N34 1.985 1_565 S
Cu23 O43 1.959 1_565 S
N24 Cu23 1.999 . S
N24 C26 1.263 . S
N24 C28 1.389 . S
N25 C26 1.358 . S
N25 C27 1.400 . S
C26 N24 1.263 . S
C26 N25 1.358 . S
C26 H32 0.930 . S
C27 N25 1.400 . S
C27 C28 1.351 . S
C27 H44 0.930 . S
C28 N24 1.389 . S
C28 C27 1.351 . S
C28 H33 0.930 . S
O29 Cu23 1.974 . S
O29 C39 1.282 . S
C30 O31 1.261 . S
C30 O43 1.251 . S
O31 C30 1.261 . S
H32 C26 0.930 . S
H33 C28 0.930 . S
N34 Cu23 1.985 1_545 S
N34 C36 1.335 . S
N34 C37 1.390 . S
N35 C36 1.345 . S
N35 C38 1.336 . S
C36 N34 1.335 . S
C36 N35 1.345 . S
C36 H41 0.930 . S
C37 N34 1.390 . S
C37 C38 1.346 . S
C37 H42 0.930 . S
C38 N35 1.336 . S
C38 C37 1.346 . S
C38 H45 0.929 . S
C39 O29 1.282 . S
C39 O40 1.216 . S
O40 C39 1.216 . S
H41 C36 0.930 . S
H42 C37 0.930 . S
O43 Cu23 1.959 1_545 S
O43 C30 1.251 . S
H44 C27 0.930 . S
H45 C38 0.929 . S
Cu46 N47 1.999 1_554 S
Cu46 O52 1.974 1_554 S
Cu46 N57 1.985 . S
Cu46 O66 1.959 . S
N47 Cu46 1.999 1_556 S
N47 C49 1.263 . S
N47 C51 1.389 . S
N48 C49 1.358 . S
N48 C50 1.400 . S
C49 N47 1.263 . S
C49 N48 1.358 . S
C49 H55 0.930 . S
C50 N48 1.400 . S
C50 C51 1.351 . S
C50 H67 0.930 . S
C51 N47 1.389 . S
C51 C50 1.351 . S
C51 H56 0.930 . S
O52 Cu46 1.974 1_556 S
O52 C62 1.282 . S
C53 O54 1.261 . S
C53 O66 1.251 . S
O54 C53 1.261 . S
H55 C49 0.930 . S
H56 C51 0.930 . S
N57 Cu46 1.985 . S
N57 C59 1.335 . S
N57 C60 1.390 . S
N58 C59 1.345 . S
N58 C61 1.336 . S
C59 N57 1.335 . S
C59 N58 1.345 . S
C59 H64 0.930 . S
C60 N57 1.390 . S
C60 C61 1.346 . S
C60 H65 0.930 . S
C61 N58 1.336 . S
C61 C60 1.346 . S
C61 H68 0.929 . S
C62 O52 1.282 . S
C62 O63 1.216 1_556 S
O63 C62 1.216 1_554 S
H64 C59 0.930 . S
H65 C60 0.930 . S
O66 Cu46 1.959 . S
O66 C53 1.251 . S
H67 C50 0.930 . S
H68 C61 0.929 . S
Cu69 N70 1.999 1_655 S
Cu69 O75 1.974 1_655 S
Cu69 N80 1.985 . S
Cu69 O89 1.959 . S
N70 Cu69 1.999 1_455 S
N70 C72 1.263 . S
N70 C74 1.389 1_455 S
N71 C72 1.358 . S
N71 C73 1.400 . S
C72 N70 1.263 . S
C72 N71 1.358 . S
C72 H78 0.930 . S
C73 N71 1.400 . S
C73 C74 1.351 1_455 S
C73 H90 0.930 . S
C74 N70 1.389 1_655 S
C74 C73 1.351 1_655 S
C74 H79 0.930 . S
O75 Cu69 1.974 1_455 S
O75 C85 1.282 . S
C76 O77 1.261 1_655 S
C76 O89 1.251 . S
O77 C76 1.261 1_455 S
H78 C72 0.930 . S
H79 C74 0.930 . S
N80 Cu69 1.985 . S
N80 C82 1.335 . S
N80 C83 1.390 . S
N81 C82 1.345 . S
N81 C84 1.336 . S
C82 N80 1.335 . S
C82 N81 1.345 . S
C82 H87 0.930 . S
C83 N80 1.390 . S
C83 C84 1.346 . S
C83 H88 0.930 1_655 S
C84 N81 1.336 . S
C84 C83 1.346 . S
C84 H91 0.929 . S
C85 O75 1.282 . S
C85 O86 1.216 . S
O86 C85 1.216 . S
H87 C82 0.930 . S
H88 C83 0.930 1_455 S
O89 Cu69 1.959 . S
O89 C76 1.251 . S
H90 C73 0.930 . S
H91 C84 0.929 . S
Cu92 N93 1.999 . S
Cu92 O98 1.974 1_554 S
Cu92 N103 1.985 1_545 S
Cu92 O112 1.959 1_545 S
N93 Cu92 1.999 . S
N93 C95 1.263 1_554 S
N93 C97 1.389 . S
N94 C95 1.358 . S
N94 C96 1.400 1_556 S
C95 N93 1.263 1_556 S
C95 N94 1.358 . S
C95 H101 0.930 . S
C96 N94 1.400 1_554 S
C96 C97 1.351 . S
C96 H113 0.930 . S
C97 N93 1.389 . S
C97 C96 1.351 . S
C97 H102 0.930 . S
O98 Cu92 1.974 1_556 S
O98 C108 1.282 . S
C99 O100 1.261 . S
C99 O112 1.251 . S
O100 C99 1.261 . S
H101 C95 0.930 . S
H102 C97 0.930 . S
N103 Cu92 1.985 1_565 S
N103 C105 1.335 . S
N103 C106 1.390 . S
N104 C105 1.345 . S
N104 C107 1.336 . S
C105 N103 1.335 . S
C105 N104 1.345 . S
C105 H110 0.930 . S
C106 N103 1.390 . S
C106 C107 1.346 . S
C106 H111 0.930 . S
C107 N104 1.336 . S
C107 C106 1.346 . S
C107 H114 0.929 . S
C108 O98 1.282 . S
C108 O109 1.216 . S
O109 C108 1.216 . S
H110 C105 0.930 . S
H111 C106 0.930 . S
O112 Cu92 1.959 1_565 S
O112 C99 1.251 . S
H113 C96 0.930 . S
H114 C107 0.929 . S
Cu115 N116 1.999 . S
Cu115 O121 1.974 . S
Cu115 N126 1.985 . S
Cu115 O135 1.959 . S
N116 Cu115 1.999 . S
N116 C118 1.263 . S
N116 C120 1.389 . S
N117 C118 1.358 . S
N117 C119 1.400 . S
C118 N116 1.263 . S
C118 N117 1.358 . S
C118 H124 0.930 . S
C119 N117 1.400 . S
C119 C120 1.351 . S
C119 H136 0.930 . S
C120 N116 1.389 . S
C120 C119 1.351 . S
C120 H125 0.930 . S
O121 Cu115 1.974 . S
O121 C131 1.282 . S
C122 O123 1.261 . S
C122 O135 1.251 . S
O123 C122 1.261 . S
H124 C118 0.930 . S
H125 C120 0.930 . S
N126 Cu115 1.985 . S
N126 C128 1.335 . S
N126 C129 1.390 . S
N127 C128 1.345 . S
N127 C130 1.336 . S
C128 N126 1.335 . S
C128 N127 1.345 . S
C128 H133 0.930 . S
C129 N126 1.390 . S
C129 C130 1.346 . S
C129 H134 0.930 . S
C130 N127 1.336 . S
C130 C129 1.346 . S
C130 H137 0.929 . S
C131 O121 1.282 . S
C131 O132 1.216 . S
O132 C131 1.216 . S
H133 C128 0.930 . S
H134 C129 0.930 . S
O135 Cu115 1.959 . S
O135 C122 1.251 . S
H136 C119 0.930 . S
H137 C130 0.929 . S
C138 C139 1.443 . S
C138 N142 1.376 . S
C138 C176 1.389 . S
C139 C138 1.443 . S
C139 C140 1.340 . S
C139 H179 0.951 . S
C140 C139 1.340 . S
C140 C141 1.439 . S
C140 H180 0.950 . S
C141 C140 1.439 . S
C141 N142 1.374 . S
C141 C175 1.395 . S
N142 C138 1.376 . S
N142 C141 1.374 . S
N142 Co143 2.008 . S
Co143 N142 2.008 . S
Co143 N144 1.995 . S
Co143 N149 2.008 . S
Co143 N154 1.995 . S
Co143 N159 2.282 . S
Co143 N165 2.282 . S
N144 Co143 1.995 . S
N144 C145 1.376 . S
N144 C148 1.383 . S
C145 N144 1.376 . S
C145 C146 1.446 . S
C145 C175 1.391 . S
C146 C145 1.446 . S
C146 C147 1.339 . S
C146 H181 0.949 . S
C147 C146 1.339 . S
C147 C148 1.439 . S
C147 H182 0.950 . S
C148 N144 1.383 . S
C148 C147 1.439 . S
C148 C177 1.392 . S
N149 Co143 2.008 . S
N149 C150 1.376 . S
N149 C153 1.374 . S
C150 N149 1.376 . S
C150 C151 1.443 . S
C150 C177 1.389 . S
C151 C150 1.443 . S
C151 C152 1.340 . S
C151 H183 0.951 . S
C152 C151 1.340 . S
C152 C153 1.439 . S
C152 H184 0.950 . S
C153 N149 1.374 . S
C153 C152 1.439 . S
C153 C178 1.395 . S
N154 Co143 1.995 . S
N154 C155 1.376 . S
N154 C158 1.383 . S
C155 N154 1.376 . S
C155 C156 1.446 . S
C155 C178 1.391 . S
C156 C155 1.446 . S
C156 C157 1.339 . S
C156 H185 0.949 . S
C157 C156 1.339 . S
C157 C158 1.439 . S
C157 H186 0.950 . S
C158 N154 1.383 . S
C158 C157 1.439 . S
C158 C176 1.392 . S
N159 Co143 2.282 . S
N159 C162 1.332 . S
N159 C164 1.332 . S
C160 C161 1.386 . S
C160 C163 1.388 . S
C161 C160 1.386 . S
C161 C162 1.382 . S
C161 H187 0.950 . S
C162 N159 1.332 . S
C162 C161 1.382 . S
C162 H173 0.952 . S
C163 C160 1.388 . S
C163 C164 1.382 . S
C163 H188 0.950 . S
C164 N159 1.332 . S
C164 C163 1.382 . S
C164 H174 0.948 . S
N165 Co143 2.282 . S
N165 C169 1.332 . S
N165 C170 1.332 . S
C166 C167 1.388 . S
C166 C170 1.382 . S
C166 H189 0.950 . S
C167 C166 1.388 . S
C167 C168 1.386 . S
C168 C167 1.386 . S
C168 C169 1.382 . S
C168 H190 0.950 . S
C169 N165 1.332 . S
C169 C168 1.382 . S
C169 H171 0.952 . S
C170 N165 1.332 . S
C170 C166 1.382 . S
C170 H172 0.948 . S
H171 C169 0.952 . S
H172 C170 0.948 . S
H173 C162 0.952 . S
H174 C164 0.948 . S
C175 C141 1.395 . S
C175 C145 1.391 . S
C176 C138 1.389 . S
C176 C158 1.392 . S
C177 C148 1.392 . S
C177 C150 1.389 . S
C178 C153 1.395 . S
C178 C155 1.391 . S
H179 C139 0.951 . S
H180 C140 0.950 . S
H181 C146 0.949 . S
H182 C147 0.950 . S
H183 C151 0.951 . S
H184 C152 0.950 . S
H185 C156 0.949 . S
H186 C157 0.950 . S
H187 C161 0.950 . S
H188 C163 0.950 . S
H189 C166 0.950 . S
H190 C168 0.950 . S
C191 C192 1.443 . S
C191 N195 1.376 . S
C191 C229 1.389 . S
C192 C191 1.443 . S
C192 C193 1.340 . S
C192 H232 0.951 . S
C193 C192 1.340 . S
C193 C194 1.439 . S
C193 H233 0.950 . S
C194 C193 1.439 . S
C194 N195 1.374 . S
C194 C228 1.395 . S
N195 C191 1.376 . S
N195 C194 1.374 . S
N195 Co196 2.008 . S
Co196 N195 2.008 . S
Co196 N197 1.995 . S
Co196 N202 2.008 . S
Co196 N207 1.995 . S
Co196 N212 2.282 . S
Co196 N218 2.282 . S
N197 Co196 1.995 . S
N197 C198 1.376 . S
N197 C201 1.383 . S
C198 N197 1.376 . S
C198 C199 1.446 . S
C198 C228 1.391 . S
C199 C198 1.446 . S
C199 C200 1.339 . S
C199 H234 0.949 . S
C200 C199 1.339 . S
C200 C201 1.439 . S
C200 H235 0.950 . S
C201 N197 1.383 . S
C201 C200 1.439 . S
C201 C230 1.392 . S
N202 Co196 2.008 . S
N202 C203 1.376 . S
N202 C206 1.374 . S
C203 N202 1.376 . S
C203 C204 1.443 . S
C203 C230 1.389 . S
C204 C203 1.443 . S
C204 C205 1.340 . S
C204 H236 0.951 . S
C205 C204 1.340 . S
C205 C206 1.439 . S
C205 H237 0.950 . S
C206 N202 1.374 . S
C206 C205 1.439 . S
C206 C231 1.395 . S
N207 Co196 1.995 . S
N207 C208 1.376 . S
N207 C211 1.383 . S
C208 N207 1.376 . S
C208 C209 1.446 . S
C208 C231 1.391 . S
C209 C208 1.446 . S
C209 C210 1.339 . S
C209 H238 0.949 . S
C210 C209 1.339 . S
C210 C211 1.439 . S
C210 H239 0.950 . S
C211 N207 1.383 . S
C211 C210 1.439 . S
C211 C229 1.392 . S
N212 Co196 2.282 . S
N212 C215 1.332 . S
N212 C217 1.332 . S
C213 C214 1.386 . S
C213 C216 1.388 . S
C214 C213 1.386 . S
C214 C215 1.382 . S
C214 H240 0.950 . S
C215 N212 1.332 . S
C215 C214 1.382 . S
C215 H226 0.952 . S
C216 C213 1.388 . S
C216 C217 1.382 . S
C216 H241 0.950 . S
C217 N212 1.332 . S
C217 C216 1.382 . S
C217 H227 0.948 . S
N218 Co196 2.282 . S
N218 C222 1.332 . S
N218 C223 1.332 . S
C219 C220 1.388 . S
C219 C223 1.382 . S
C219 H242 0.950 . S
C220 C219 1.388 . S
C220 C221 1.386 . S
C221 C220 1.386 . S
C221 C222 1.382 . S
C221 H243 0.950 . S
C222 N218 1.332 . S
C222 C221 1.382 . S
C222 H224 0.952 . S
C223 N218 1.332 . S
C223 C219 1.382 . S
C223 H225 0.948 . S
H224 C222 0.952 . S
H225 C223 0.948 . S
H226 C215 0.952 . S
H227 C217 0.948 . S
C228 C194 1.395 . S
C228 C198 1.391 . S
C229 C191 1.389 . S
C229 C211 1.392 . S
C230 C201 1.392 . S
C230 C203 1.389 . S
C231 C206 1.395 . S
C231 C208 1.391 . S
H232 C192 0.951 . S
H233 C193 0.950 . S
H234 C199 0.949 . S
H235 C200 0.950 . S
H236 C204 0.951 . S
H237 C205 0.950 . S
H238 C209 0.949 . S
H239 C210 0.950 . S
H240 C214 0.950 . S
H241 C216 0.950 . S
H242 C219 0.950 . S
H243 C221 0.950 . S
C244 C245 1.443 . S
C244 N248 1.376 . S
C244 C282 1.389 . S
C245 C244 1.443 . S
C245 C246 1.340 . S
C245 H285 0.951 . S
C246 C245 1.340 . S
C246 C247 1.439 . S
C246 H286 0.950 . S
C247 C246 1.439 . S
C247 N248 1.374 . S
C247 C281 1.395 . S
N248 C244 1.376 . S
N248 C247 1.374 . S
N248 Co249 2.008 . S
Co249 N248 2.008 . S
Co249 N250 1.995 . S
Co249 N255 2.008 . S
Co249 N260 1.995 . S
Co249 N265 2.282 . S
Co249 N271 2.282 . S
N250 Co249 1.995 . S
N250 C251 1.376 . S
N250 C254 1.383 . S
C251 N250 1.376 . S
C251 C252 1.446 . S
C251 C281 1.391 . S
C252 C251 1.446 . S
C252 C253 1.339 . S
C252 H287 0.949 . S
C253 C252 1.339 . S
C253 C254 1.439 . S
C253 H288 0.950 . S
C254 N250 1.383 . S
C254 C253 1.439 . S
C254 C283 1.392 . S
N255 Co249 2.008 . S
N255 C256 1.376 . S
N255 C259 1.374 . S
C256 N255 1.376 . S
C256 C257 1.443 . S
C256 C283 1.389 . S
C257 C256 1.443 . S
C257 C258 1.340 . S
C257 H289 0.951 . S
C258 C257 1.340 . S
C258 C259 1.439 . S
C258 H290 0.950 . S
C259 N255 1.374 . S
C259 C258 1.439 . S
C259 C284 1.395 . S
N260 Co249 1.995 . S
N260 C261 1.376 . S
N260 C264 1.383 . S
C261 N260 1.376 . S
C261 C262 1.446 . S
C261 C284 1.391 . S
C262 C261 1.446 . S
C262 C263 1.339 . S
C262 H291 0.949 . S
C263 C262 1.339 . S
C263 C264 1.439 . S
C263 H292 0.950 . S
C264 N260 1.383 . S
C264 C263 1.439 . S
C264 C282 1.392 . S
N265 Co249 2.282 . S
N265 C268 1.332 . S
N265 C270 1.332 . S
C266 C267 1.386 . S
C266 C269 1.388 . S
C267 C266 1.386 . S
C267 C268 1.382 . S
C267 H293 0.950 . S
C268 N265 1.332 . S
C268 C267 1.382 . S
C268 H279 0.952 . S
C269 C266 1.388 . S
C269 C270 1.382 . S
C269 H294 0.950 . S
C270 N265 1.332 . S
C270 C269 1.382 . S
C270 H280 0.948 . S
N271 Co249 2.282 . S
N271 C275 1.332 . S
N271 C276 1.332 . S
C272 C273 1.388 . S
C272 C276 1.382 . S
C272 H295 0.950 . S
C273 C272 1.388 . S
C273 C274 1.386 . S
C274 C273 1.386 . S
C274 C275 1.382 . S
C274 H296 0.950 . S
C275 N271 1.332 . S
C275 C274 1.382 . S
C275 H277 0.952 . S
C276 N271 1.332 . S
C276 C272 1.382 . S
C276 H278 0.948 . S
H277 C275 0.952 . S
H278 C276 0.948 . S
H279 C268 0.952 . S
H280 C270 0.948 . S
C281 C247 1.395 . S
C281 C251 1.391 . S
C282 C244 1.389 . S
C282 C264 1.392 . S
C283 C254 1.392 . S
C283 C256 1.389 . S
C284 C259 1.395 . S
C284 C261 1.391 . S
H285 C245 0.951 . S
H286 C246 0.950 . S
H287 C252 0.949 . S
H288 C253 0.950 . S
H289 C257 0.951 . S
H290 C258 0.950 . S
H291 C262 0.949 . S
H292 C263 0.950 . S
H293 C267 0.950 . S
H294 C269 0.950 . S
H295 C272 0.950 . S
H296 C274 0.950 . S
C297 C298 1.443 . S
C297 N301 1.376 . S
C297 C335 1.389 . S
C298 C297 1.443 . S
C298 C299 1.340 . S
C298 H338 0.951 . S
C299 C298 1.340 . S
C299 C300 1.439 . S
C299 H339 0.950 . S
C300 C299 1.439 . S
C300 N301 1.374 . S
C300 C334 1.395 . S
N301 C297 1.376 . S
N301 C300 1.374 . S
N301 Co302 2.008 . S
Co302 N301 2.008 . S
Co302 N303 1.995 . S
Co302 N308 2.008 . S
Co302 N313 1.995 . S
Co302 N318 2.282 . S
Co302 N324 2.282 . S
N303 Co302 1.995 . S
N303 C304 1.376 . S
N303 C307 1.383 . S
C304 N303 1.376 . S
C304 C305 1.446 . S
C304 C334 1.391 . S
C305 C304 1.446 . S
C305 C306 1.339 . S
C305 H340 0.949 . S
C306 C305 1.339 . S
C306 C307 1.439 . S
C306 H341 0.950 . S
C307 N303 1.383 . S
C307 C306 1.439 . S
C307 C336 1.392 . S
N308 Co302 2.008 . S
N308 C309 1.376 . S
N308 C312 1.374 . S
C309 N308 1.376 . S
C309 C310 1.443 . S
C309 C336 1.389 . S
C310 C309 1.443 . S
C310 C311 1.340 . S
C310 H342 0.951 . S
C311 C310 1.340 . S
C311 C312 1.439 . S
C311 H343 0.950 . S
C312 N308 1.374 . S
C312 C311 1.439 . S
C312 C337 1.395 . S
N313 Co302 1.995 . S
N313 C314 1.376 . S
N313 C317 1.383 . S
C314 N313 1.376 . S
C314 C315 1.446 . S
C314 C337 1.391 . S
C315 C314 1.446 . S
C315 C316 1.339 . S
C315 H344 0.949 . S
C316 C315 1.339 . S
C316 C317 1.439 . S
C316 H345 0.950 . S
C317 N313 1.383 . S
C317 C316 1.439 . S
C317 C335 1.392 . S
N318 Co302 2.282 . S
N318 C321 1.332 . S
N318 C323 1.332 . S
C319 C320 1.386 . S
C319 C322 1.388 . S
C320 C319 1.386 . S
C320 C321 1.382 . S
C320 H346 0.950 . S
C321 N318 1.332 . S
C321 C320 1.382 . S
C321 H332 0.952 . S
C322 C319 1.388 . S
C322 C323 1.382 . S
C322 H347 0.950 . S
C323 N318 1.332 . S
C323 C322 1.382 . S
C323 H333 0.948 . S
N324 Co302 2.282 . S
N324 C328 1.332 . S
N324 C329 1.332 . S
C325 C326 1.388 . S
C325 C329 1.382 . S
C325 H348 0.950 . S
C326 C325 1.388 . S
C326 C327 1.386 . S
C327 C326 1.386 . S
C327 C328 1.382 . S
C327 H349 0.950 . S
C328 N324 1.332 . S
C328 C327 1.382 . S
C328 H330 0.952 . S
C329 N324 1.332 . S
C329 C325 1.382 . S
C329 H331 0.948 . S
H330 C328 0.952 . S
H331 C329 0.948 . S
H332 C321 0.952 . S
H333 C323 0.948 . S
C334 C300 1.395 . S
C334 C304 1.391 . S
C335 C297 1.389 . S
C335 C317 1.392 . S
C336 C307 1.392 . S
C336 C309 1.389 . S
C337 C312 1.395 . S
C337 C314 1.391 . S
H338 C298 0.951 . S
H339 C299 0.950 . S
H340 C305 0.949 . S
H341 C306 0.950 . S
H342 C310 0.951 . S
H343 C311 0.950 . S
H344 C315 0.949 . S
H345 C316 0.950 . S
H346 C320 0.950 . S
H347 C322 0.950 . S
H348 C325 0.950 . S
H349 C327 0.950 . S
C350 C351 1.443 . S
C350 N354 1.376 . S
C350 C388 1.389 . S
C351 C350 1.443 . S
C351 C352 1.340 . S
C351 H391 0.951 . S
C352 C351 1.340 . S
C352 C353 1.439 . S
C352 H392 0.950 . S
C353 C352 1.439 . S
C353 N354 1.374 . S
C353 C387 1.395 . S
N354 C350 1.376 . S
N354 C353 1.374 . S
N354 Co355 2.008 . S
Co355 N354 2.008 . S
Co355 N356 1.995 . S
Co355 N361 2.008 . S
Co355 N366 1.995 . S
Co355 N371 2.282 . S
Co355 N377 2.282 . S
N356 Co355 1.995 . S
N356 C357 1.376 . S
N356 C360 1.383 . S
C357 N356 1.376 . S
C357 C358 1.446 . S
C357 C387 1.391 . S
C358 C357 1.446 . S
C358 C359 1.339 . S
C358 H393 0.949 . S
C359 C358 1.339 . S
C359 C360 1.439 . S
C359 H394 0.950 . S
C360 N356 1.383 . S
C360 C359 1.439 . S
C360 C389 1.392 . S
N361 Co355 2.008 . S
N361 C362 1.376 . S
N361 C365 1.374 . S
C362 N361 1.376 . S
C362 C363 1.443 . S
C362 C389 1.389 . S
C363 C362 1.443 . S
C363 C364 1.340 . S
C363 H395 0.951 . S
C364 C363 1.340 . S
C364 C365 1.439 . S
C364 H396 0.950 . S
C365 N361 1.374 . S
C365 C364 1.439 . S
C365 C390 1.395 . S
N366 Co355 1.995 . S
N366 C367 1.376 . S
N366 C370 1.383 . S
C367 N366 1.376 . S
C367 C368 1.446 . S
C367 C390 1.391 . S
C368 C367 1.446 . S
C368 C369 1.339 . S
C368 H397 0.949 . S
C369 C368 1.339 . S
C369 C370 1.439 . S
C369 H398 0.950 . S
C370 N366 1.383 . S
C370 C369 1.439 . S
C370 C388 1.392 . S
N371 Co355 2.282 . S
N371 C374 1.332 . S
N371 C376 1.332 . S
C372 C373 1.386 . S
C372 C375 1.388 . S
C373 C372 1.386 . S
C373 C374 1.382 . S
C373 H399 0.950 . S
C374 N371 1.332 . S
C374 C373 1.382 . S
C374 H385 0.952 . S
C375 C372 1.388 . S
C375 C376 1.382 . S
C375 H400 0.950 . S
C376 N371 1.332 . S
C376 C375 1.382 . S
C376 H386 0.948 . S
N377 Co355 2.282 . S
N377 C381 1.332 . S
N377 C382 1.332 . S
C378 C379 1.388 . S
C378 C382 1.382 . S
C378 H401 0.950 . S
C379 C378 1.388 . S
C379 C380 1.386 . S
C380 C379 1.386 . S
C380 C381 1.382 . S
C380 H402 0.950 . S
C381 N377 1.332 . S
C381 C380 1.382 . S
C381 H383 0.952 . S
C382 N377 1.332 . S
C382 C378 1.382 . S
C382 H384 0.948 . S
H383 C381 0.952 . S
H384 C382 0.948 . S
H385 C374 0.952 . S
H386 C376 0.948 . S
C387 C353 1.395 . S
C387 C357 1.391 . S
C388 C350 1.389 . S
C388 C370 1.392 . S
C389 C360 1.392 . S
C389 C362 1.389 . S
C390 C365 1.395 . S
C390 C367 1.391 . S
H391 C351 0.951 . S
H392 C352 0.950 . S
H393 C358 0.949 . S
H394 C359 0.950 . S
H395 C363 0.951 . S
H396 C364 0.950 . S
H397 C368 0.949 . S
H398 C369 0.950 . S
H399 C373 0.950 . S
H400 C375 0.950 . S
H401 C378 0.950 . S
H402 C380 0.950 . S
C403 C404 1.443 . S
C403 N407 1.376 . S
C403 C441 1.389 . S
C404 C403 1.443 . S
C404 C405 1.340 . S
C404 H444 0.951 . S
C405 C404 1.340 . S
C405 C406 1.439 . S
C405 H445 0.950 . S
C406 C405 1.439 . S
C406 N407 1.374 . S
C406 C440 1.395 . S
N407 C403 1.376 . S
N407 C406 1.374 . S
N407 Co408 2.008 . S
Co408 N407 2.008 . S
Co408 N409 1.995 . S
Co408 N414 2.008 . S
Co408 N419 1.995 . S
Co408 N424 2.282 . S
Co408 N430 2.282 . S
N409 Co408 1.995 . S
N409 C410 1.376 . S
N409 C413 1.383 . S
C410 N409 1.376 . S
C410 C411 1.446 . S
C410 C440 1.391 . S
C411 C410 1.446 . S
C411 C412 1.339 . S
C411 H446 0.949 . S
C412 C411 1.339 . S
C412 C413 1.439 . S
C412 H447 0.950 . S
C413 N409 1.383 . S
C413 C412 1.439 . S
C413 C442 1.392 . S
N414 Co408 2.008 . S
N414 C415 1.376 . S
N414 C418 1.374 . S
C415 N414 1.376 . S
C415 C416 1.443 . S
C415 C442 1.389 . S
C416 C415 1.443 . S
C416 C417 1.340 . S
C416 H448 0.951 . S
C417 C416 1.340 . S
C417 C418 1.439 . S
C417 H449 0.950 . S
C418 N414 1.374 . S
C418 C417 1.439 . S
C418 C443 1.395 . S
N419 Co408 1.995 . S
N419 C420 1.376 . S
N419 C423 1.383 . S
C420 N419 1.376 . S
C420 C421 1.446 . S
C420 C443 1.391 . S
C421 C420 1.446 . S
C421 C422 1.339 . S
C421 H450 0.949 . S
C422 C421 1.339 . S
C422 C423 1.439 . S
C422 H451 0.950 . S
C423 N419 1.383 . S
C423 C422 1.439 . S
C423 C441 1.392 . S
N424 Co408 2.282 . S
N424 C427 1.332 . S
N424 C429 1.332 . S
C425 C426 1.386 . S
C425 C428 1.388 . S
C426 C425 1.386 . S
C426 C427 1.382 . S
C426 H452 0.950 . S
C427 N424 1.332 . S
C427 C426 1.382 . S
C427 H438 0.952 . S
C428 C425 1.388 . S
C428 C429 1.382 . S
C428 H453 0.950 . S
C429 N424 1.332 . S
C429 C428 1.382 . S
C429 H439 0.948 . S
N430 Co408 2.282 . S
N430 C434 1.332 . S
N430 C435 1.332 . S
C431 C432 1.388 . S
C431 C435 1.382 . S
C431 H454 0.950 . S
C432 C431 1.388 . S
C432 C433 1.386 . S
C433 C432 1.386 . S
C433 C434 1.382 . S
C433 H455 0.950 . S
C434 N430 1.332 . S
C434 C433 1.382 . S
C434 H436 0.952 . S
C435 N430 1.332 . S
C435 C431 1.382 . S
C435 H437 0.948 . S
H436 C434 0.952 . S
H437 C435 0.948 . S
H438 C427 0.952 . S
H439 C429 0.948 . S
C440 C406 1.395 . S
C440 C410 1.391 . S
C441 C403 1.389 . S
C441 C423 1.392 . S
C442 C413 1.392 . S
C442 C415 1.389 . S
C443 C418 1.395 . S
C443 C420 1.391 . S
H444 C404 0.951 . S
H445 C405 0.950 . S
H446 C411 0.949 . S
H447 C412 0.950 . S
H448 C416 0.951 . S
H449 C417 0.950 . S
H450 C421 0.949 . S
H451 C422 0.950 . S
H452 C426 0.950 . S
H453 C428 0.950 . S
H454 C431 0.950 . S
H455 C433 0.950 . S
H456 C462 0.930 . S
H457 C466 0.930 . S
H458 C471 0.929 . S
H459 C469 0.929 . S
H460 C464 0.929 . S
H461 C470 0.929 . S
C462 H456 0.930 . S
C462 C463 1.367 . S
C462 C470 1.378 . S
C463 C462 1.367 . S
C463 C471 1.433 . S
C464 H460 0.929 . S
C464 C466 1.378 . S
C464 C468 1.350 . S
C465 C468 1.463 . S
C465 C470 1.350 . S
C465 N473 1.427 . S
C466 H457 0.930 . S
C466 C464 1.378 . S
C466 C467 1.367 . S
C467 C466 1.367 . S
C467 C469 1.433 . S
C468 C464 1.350 . S
C468 C465 1.463 . S
C468 N472 1.427 . S
C469 H459 0.929 . S
C469 C467 1.433 . S
C469 N472 1.384 . S
C470 H461 0.929 . S
C470 C462 1.378 . S
C470 C465 1.350 . S
C471 H458 0.929 . S
C471 C463 1.433 . S
C471 N473 1.384 . S
N472 C468 1.427 . S
N472 C469 1.384 . S
N473 C465 1.427 . S
N473 C471 1.384 . S
H474 C480 0.930 . S
H475 C484 0.930 . S
H476 C489 0.929 . S
H477 C487 0.929 . S
H478 C482 0.929 . S
H479 C488 0.929 . S
C480 H474 0.930 . S
C480 C481 1.367 . S
C480 C488 1.378 . S
C481 C480 1.367 . S
C481 C489 1.433 . S
C482 H478 0.929 . S
C482 C484 1.378 . S
C482 C486 1.350 . S
C483 C486 1.463 . S
C483 C488 1.350 . S
C483 N491 1.427 . S
C484 H475 0.930 . S
C484 C482 1.378 . S
C484 C485 1.367 . S
C485 C484 1.367 . S
C485 C487 1.433 . S
C486 C482 1.350 . S
C486 C483 1.463 . S
C486 N490 1.427 . S
C487 H477 0.929 . S
C487 C485 1.433 . S
C487 N490 1.384 . S
C488 H479 0.929 . S
C488 C480 1.378 . S
C488 C483 1.350 . S
C489 H476 0.929 . S
C489 C481 1.433 . S
C489 N491 1.384 . S
N490 C486 1.427 . S
N490 C487 1.384 . S
N491 C483 1.427 . S
N491 C489 1.384 . S
H492 C498 0.930 . S
H493 C502 0.930 . S
H494 C507 0.929 . S
H495 C505 0.929 . S
H496 C500 0.929 . S
H497 C506 0.929 . S
C498 H492 0.930 . S
C498 C499 1.367 . S
C498 C506 1.378 . S
C499 C498 1.367 . S
C499 C507 1.433 . S
C500 H496 0.929 . S
C500 C502 1.378 . S
C500 C504 1.350 . S
C501 C504 1.463 . S
C501 C506 1.350 . S
C501 N509 1.427 . S
C502 H493 0.930 . S
C502 C500 1.378 . S
C502 C503 1.367 . S
C503 C502 1.367 . S
C503 C505 1.433 . S
C504 C500 1.350 . S
C504 C501 1.463 . S
C504 N508 1.427 . S
C505 H495 0.929 . S
C505 C503 1.433 . S
C505 N508 1.384 . S
C506 H497 0.929 . S
C506 C498 1.378 . S
C506 C501 1.350 . S
C507 H494 0.929 . S
C507 C499 1.433 . S
C507 N509 1.384 . S
N508 C504 1.427 . S
N508 C505 1.384 . S
N509 C501 1.427 . S
N509 C507 1.384 . S
H510 C516 0.930 . S
H511 C520 0.930 . S
H512 C525 0.929 . S
H513 C523 0.929 . S
H514 C518 0.929 . S
H515 C524 0.929 . S
C516 H510 0.930 . S
C516 C517 1.367 . S
C516 C524 1.378 . S
C517 C516 1.367 . S
C517 C525 1.433 . S
C518 H514 0.929 . S
C518 C520 1.378 . S
C518 C522 1.350 . S
C519 C522 1.463 . S
C519 C524 1.350 . S
C519 N527 1.427 . S
C520 H511 0.930 . S
C520 C518 1.378 . S
C520 C521 1.367 . S
C521 C520 1.367 . S
C521 C523 1.433 . S
C522 C518 1.350 . S
C522 C519 1.463 . S
C522 N526 1.427 . S
C523 H513 0.929 . S
C523 C521 1.433 . S
C523 N526 1.384 . S
C524 H515 0.929 . S
C524 C516 1.378 . S
C524 C519 1.350 . S
C525 H512 0.929 . S
C525 C517 1.433 . S
C525 N527 1.384 . S
N526 C522 1.427 . S
N526 C523 1.384 . S
N527 C519 1.427 . S
N527 C525 1.384 . S
H528 C534 0.930 . S
H529 C538 0.930 . S
H530 C543 0.929 . S
H531 C541 0.929 . S
H532 C536 0.929 . S
H533 C542 0.929 . S
C534 H528 0.930 . S
C534 C535 1.367 . S
C534 C542 1.378 . S
C535 C534 1.367 . S
C535 C543 1.433 . S
C536 H532 0.929 . S
C536 C538 1.378 . S
C536 C540 1.350 . S
C537 C540 1.463 . S
C537 C542 1.350 . S
C537 N545 1.427 . S
C538 H529 0.930 . S
C538 C536 1.378 . S
C538 C539 1.367 . S
C539 C538 1.367 . S
C539 C541 1.433 . S
C540 C536 1.350 . S
C540 C537 1.463 . S
C540 N544 1.427 . S
C541 H531 0.929 . S
C541 C539 1.433 . S
C541 N544 1.384 . S
C542 H533 0.929 . S
C542 C534 1.378 . S
C542 C537 1.350 . S
C543 H530 0.929 . S
C543 C535 1.433 . S
C543 N545 1.384 . S
N544 C540 1.427 . S
N544 C541 1.384 . S
N545 C537 1.427 . S
N545 C543 1.384 . S
H546 C552 0.930 . S
H547 C556 0.930 . S
H548 C561 0.929 . S
H549 C559 0.929 . S
H550 C554 0.929 . S
H551 C560 0.929 . S
C552 H546 0.930 . S
C552 C553 1.367 . S
C552 C560 1.378 . S
C553 C552 1.367 . S
C553 C561 1.433 . S
C554 H550 0.929 . S
C554 C556 1.378 . S
C554 C558 1.350 . S
C555 C558 1.463 . S
C555 C560 1.350 . S
C555 N563 1.427 . S
C556 H547 0.930 . S
C556 C554 1.378 . S
C556 C557 1.367 . S
C557 C556 1.367 . S
C557 C559 1.433 . S
C558 C554 1.350 . S
C558 C555 1.463 . S
C558 N562 1.427 . S
C559 H549 0.929 . S
C559 C557 1.433 . S
C559 N562 1.384 . S
C560 H551 0.929 . S
C560 C552 1.378 . S
C560 C555 1.350 . S
C561 H548 0.929 . S
C561 C553 1.433 . S
C561 N563 1.384 . S
N562 C558 1.427 . S
N562 C559 1.384 . S
N563 C555 1.427 . S
N563 C561 1.384 . S
H564 C570 0.930 . S
H565 C574 0.930 . S
H566 C579 0.929 . S
H567 C577 0.929 . S
H568 C572 0.929 . S
H569 C578 0.929 . S
C570 H564 0.930 . S
C570 C571 1.367 . S
C570 C578 1.378 . S
C571 C570 1.367 . S
C571 C579 1.433 . S
C572 H568 0.929 . S
C572 C574 1.378 . S
C572 C576 1.350 . S
C573 C576 1.463 . S
C573 C578 1.350 . S
C573 N581 1.427 . S
C574 H565 0.930 . S
C574 C572 1.378 . S
C574 C575 1.367 . S
C575 C574 1.367 . S
C575 C577 1.433 . S
C576 C572 1.350 . S
C576 C573 1.463 . S
C576 N580 1.427 . S
C577 H567 0.929 . S
C577 C575 1.433 . S
C577 N580 1.384 . S
C578 H569 0.929 . S
C578 C570 1.378 . S
C578 C573 1.350 . S
C579 H566 0.929 . S
C579 C571 1.433 . S
C579 N581 1.384 . S
N580 C576 1.427 . S
N580 C577 1.384 . S
N581 C573 1.427 . S
N581 C579 1.384 . S
H582 C588 0.930 . S
H583 C592 0.930 . S
H584 C597 0.929 . S
H585 C595 0.929 . S
H586 C590 0.929 . S
H587 C596 0.929 . S
C588 H582 0.930 . S
C588 C589 1.367 . S
C588 C596 1.378 . S
C589 C588 1.367 . S
C589 C597 1.433 . S
C590 H586 0.929 . S
C590 C592 1.378 . S
C590 C594 1.350 . S
C591 C594 1.463 . S
C591 C596 1.350 . S
C591 N599 1.427 . S
C592 H583 0.930 . S
C592 C590 1.378 . S
C592 C593 1.367 . S
C593 C592 1.367 . S
C593 C595 1.433 . S
C594 C590 1.350 . S
C594 C591 1.463 . S
C594 N598 1.427 . S
C595 H585 0.929 . S
C595 C593 1.433 . S
C595 N598 1.384 . S
C596 H587 0.929 . S
C596 C588 1.378 . S
C596 C591 1.350 . S
C597 H584 0.929 . S
C597 C589 1.433 . S
C597 N599 1.384 . S
N598 C594 1.427 . S
N598 C595 1.384 . S
N599 C591 1.427 . S
N599 C597 1.384 . S
H600 C606 0.930 . S
H601 C610 0.930 . S
H602 C615 0.929 . S
H603 C613 0.929 . S
H604 C608 0.929 . S
H605 C614 0.929 . S
C606 H600 0.930 . S
C606 C607 1.367 . S
C606 C614 1.378 . S
C607 C606 1.367 . S
C607 C615 1.433 . S
C608 H604 0.929 . S
C608 C610 1.378 . S
C608 C612 1.350 . S
C609 C612 1.463 . S
C609 C614 1.350 . S
C609 N617 1.427 . S
C610 H601 0.930 . S
C610 C608 1.378 . S
C610 C611 1.367 . S
C611 C610 1.367 . S
C611 C613 1.433 . S
C612 C608 1.350 . S
C612 C609 1.463 . S
C612 N616 1.427 . S
C613 H603 0.929 . S
C613 C611 1.433 . S
C613 N616 1.384 . S
C614 H605 0.929 . S
C614 C606 1.378 . S
C614 C609 1.350 . S
C615 H602 0.929 . S
C615 C607 1.433 . S
C615 N617 1.384 . S
N616 C612 1.427 . S
N616 C613 1.384 . S
N617 C609 1.427 . S
N617 C615 1.384 . S
H618 C624 0.930 . S
H619 C628 0.930 . S
H620 C633 0.929 . S
H621 C631 0.929 . S
H622 C626 0.929 . S
H623 C632 0.929 . S
C624 H618 0.930 . S
C624 C625 1.367 . S
C624 C632 1.378 . S
C625 C624 1.367 . S
C625 C633 1.433 . S
C626 H622 0.929 . S
C626 C628 1.378 . S
C626 C630 1.350 . S
C627 C630 1.463 . S
C627 C632 1.350 . S
C627 N635 1.427 . S
C628 H619 0.930 . S
C628 C626 1.378 . S
C628 C629 1.367 . S
C629 C628 1.367 . S
C629 C631 1.433 . S
C630 C626 1.350 . S
C630 C627 1.463 . S
C630 N634 1.427 . S
C631 H621 0.929 . S
C631 C629 1.433 . S
C631 N634 1.384 . S
C632 H623 0.929 . S
C632 C624 1.378 . S
C632 C627 1.350 . S
C633 H620 0.929 . S
C633 C625 1.433 . S
C633 N635 1.384 . S
N634 C630 1.427 . S
N634 C631 1.384 . S
N635 C627 1.427 . S
N635 C633 1.384 . S
H636 C642 0.930 . S
H637 C646 0.930 . S
H638 C651 0.929 . S
H639 C649 0.929 . S
H640 C644 0.929 . S
H641 C650 0.929 . S
C642 H636 0.930 . S
C642 C643 1.367 . S
C642 C650 1.378 . S
C643 C642 1.367 . S
C643 C651 1.433 . S
C644 H640 0.929 . S
C644 C646 1.378 . S
C644 C648 1.350 . S
C645 C648 1.463 . S
C645 C650 1.350 . S
C645 N653 1.427 . S
C646 H637 0.930 . S
C646 C644 1.378 . S
C646 C647 1.367 . S
C647 C646 1.367 . S
C647 C649 1.433 . S
C648 C644 1.350 . S
C648 C645 1.463 . S
C648 N652 1.427 . S
C649 H639 0.929 . S
C649 C647 1.433 . S
C649 N652 1.384 . S
C650 H641 0.929 . S
C650 C642 1.378 . S
C650 C645 1.350 . S
C651 H638 0.929 . S
C651 C643 1.433 . S
C651 N653 1.384 . S
N652 C648 1.427 . S
N652 C649 1.384 . S
N653 C645 1.427 . S
N653 C651 1.384 . S
H654 C660 0.930 . S
H655 C664 0.930 . S
H656 C669 0.929 . S
H657 C667 0.929 . S
H658 C662 0.929 . S
H659 C668 0.929 . S
C660 H654 0.930 . S
C660 C661 1.367 . S
C660 C668 1.378 . S
C661 C660 1.367 . S
C661 C669 1.433 . S
C662 H658 0.929 . S
C662 C664 1.378 . S
C662 C666 1.350 . S
C663 C666 1.463 . S
C663 C668 1.350 . S
C663 N671 1.427 . S
C664 H655 0.930 . S
C664 C662 1.378 . S
C664 C665 1.367 . S
C665 C664 1.367 . S
C665 C667 1.433 . S
C666 C662 1.350 . S
C666 C663 1.463 . S
C666 N670 1.427 . S
C667 H657 0.929 . S
C667 C665 1.433 . S
C667 N670 1.384 . S
C668 H659 0.929 . S
C668 C660 1.378 . S
C668 C663 1.350 . S
C669 H656 0.929 . S
C669 C661 1.433 . S
C669 N671 1.384 . S
N670 C666 1.427 . S
N670 C667 1.384 . S
N671 C663 1.427 . S
N671 C669 1.384 . S
H672 C678 0.930 . S
H673 C682 0.930 . S
H674 C687 0.929 . S
H675 C685 0.929 . S
H676 C680 0.929 . S
H677 C686 0.929 . S
C678 H672 0.930 . S
C678 C679 1.367 . S
C678 C686 1.378 . S
C679 C678 1.367 . S
C679 C687 1.433 . S
C680 H676 0.929 . S
C680 C682 1.378 . S
C680 C684 1.350 . S
C681 C684 1.463 . S
C681 C686 1.350 . S
C681 N689 1.427 . S
C682 H673 0.930 . S
C682 C680 1.378 . S
C682 C683 1.367 . S
C683 C682 1.367 . S
C683 C685 1.433 . S
C684 C680 1.350 . S
C684 C681 1.463 . S
C684 N688 1.427 . S
C685 H675 0.929 . S
C685 C683 1.433 . S
C685 N688 1.384 . S
C686 H677 0.929 . S
C686 C678 1.378 . S
C686 C681 1.350 . S
C687 H674 0.929 . S
C687 C679 1.433 . S
C687 N689 1.384 . S
N688 C684 1.427 . S
N688 C685 1.384 . S
N689 C681 1.427 . S
N689 C687 1.384 . S
H690 C696 0.930 . S
H691 C700 0.930 . S
H692 C705 0.929 . S
H693 C703 0.929 . S
H694 C698 0.929 . S
H695 C704 0.929 . S
C696 H690 0.930 . S
C696 C697 1.367 . S
C696 C704 1.378 . S
C697 C696 1.367 . S
C697 C705 1.433 . S
C698 H694 0.929 . S
C698 C700 1.378 . S
C698 C702 1.350 . S
C699 C702 1.463 . S
C699 C704 1.350 . S
C699 N707 1.427 . S
C700 H691 0.930 . S
C700 C698 1.378 . S
C700 C701 1.367 . S
C701 C700 1.367 . S
C701 C703 1.433 . S
C702 C698 1.350 . S
C702 C699 1.463 . S
C702 N706 1.427 . S
C703 H693 0.929 . S
C703 C701 1.433 . S
C703 N706 1.384 . S
C704 H695 0.929 . S
C704 C696 1.378 . S
C704 C699 1.350 . S
C705 H692 0.929 . S
C705 C697 1.433 . S
C705 N707 1.384 . S
N706 C702 1.427 . S
N706 C703 1.384 . S
N707 C699 1.427 . S
N707 C705 1.384 . S
H708 C714 0.930 . S
H709 C718 0.930 . S
H710 C723 0.929 . S
H711 C721 0.929 . S
H712 C716 0.929 . S
H713 C722 0.929 . S
C714 H708 0.930 . S
C714 C715 1.367 . S
C714 C722 1.378 . S
C715 C714 1.367 . S
C715 C723 1.433 . S
C716 H712 0.929 . S
C716 C718 1.378 . S
C716 C720 1.350 . S
C717 C720 1.463 . S
C717 C722 1.350 . S
C717 N725 1.427 . S
C718 H709 0.930 . S
C718 C716 1.378 . S
C718 C719 1.367 . S
C719 C718 1.367 . S
C719 C721 1.433 . S
C720 C716 1.350 . S
C720 C717 1.463 . S
C720 N724 1.427 . S
C721 H711 0.929 . S
C721 C719 1.433 . S
C721 N724 1.384 . S
C722 H713 0.929 . S
C722 C714 1.378 . S
C722 C717 1.350 . S
C723 H710 0.929 . S
C723 C715 1.433 . S
C723 N725 1.384 . S
N724 C720 1.427 . S
N724 C721 1.384 . S
N725 C717 1.427 . S
N725 C723 1.384 . S
H726 C732 0.930 . S
H727 C736 0.930 . S
H728 C741 0.929 . S
H729 C739 0.929 . S
H730 C734 0.929 . S
H731 C740 0.929 . S
C732 H726 0.930 . S
C732 C733 1.367 . S
C732 C740 1.378 . S
C733 C732 1.367 . S
C733 C741 1.433 . S
C734 H730 0.929 . S
C734 C736 1.378 . S
C734 C738 1.350 . S
C735 C738 1.463 . S
C735 C740 1.350 . S
C735 N743 1.427 . S
C736 H727 0.930 . S
C736 C734 1.378 . S
C736 C737 1.367 . S
C737 C736 1.367 . S
C737 C739 1.433 . S
C738 C734 1.350 . S
C738 C735 1.463 . S
C738 N742 1.427 . S
C739 H729 0.929 . S
C739 C737 1.433 . S
C739 N742 1.384 . S
C740 H731 0.929 . S
C740 C732 1.378 . S
C740 C735 1.350 . S
C741 H728 0.929 . S
C741 C733 1.433 . S
C741 N743 1.384 . S
N742 C738 1.427 . S
N742 C739 1.384 . S
N743 C735 1.427 . S
N743 C741 1.384 . S
H744 C750 0.930 . S
H745 C754 0.930 . S
H746 C759 0.929 . S
H747 C757 0.929 . S
H748 C752 0.929 . S
H749 C758 0.929 . S
C750 H744 0.930 . S
C750 C751 1.367 . S
C750 C758 1.378 . S
C751 C750 1.367 . S
C751 C759 1.433 . S
C752 H748 0.929 . S
C752 C754 1.378 . S
C752 C756 1.350 . S
C753 C756 1.463 . S
C753 C758 1.350 . S
C753 N761 1.427 . S
C754 H745 0.930 . S
C754 C752 1.378 . S
C754 C755 1.367 . S
C755 C754 1.367 . S
C755 C757 1.433 . S
C756 C752 1.350 . S
C756 C753 1.463 . S
C756 N760 1.427 . S
C757 H747 0.929 . S
C757 C755 1.433 . S
C757 N760 1.384 . S
C758 H749 0.929 . S
C758 C750 1.378 . S
C758 C753 1.350 . S
C759 H746 0.929 . S
C759 C751 1.433 . S
C759 N761 1.384 . S
N760 C756 1.427 . S
N760 C757 1.384 . S
N761 C753 1.427 . S
N761 C759 1.384 . S
H762 C768 0.930 . S
H763 C772 0.930 . S
H764 C777 0.929 . S
H765 C775 0.929 . S
H766 C770 0.929 . S
H767 C776 0.929 . S
C768 H762 0.930 . S
C768 C769 1.367 . S
C768 C776 1.378 . S
C769 C768 1.367 . S
C769 C777 1.433 . S
C770 H766 0.929 . S
C770 C772 1.378 . S
C770 C774 1.350 . S
C771 C774 1.463 . S
C771 C776 1.350 . S
C771 N779 1.427 . S
C772 H763 0.930 . S
C772 C770 1.378 . S
C772 C773 1.367 . S
C773 C772 1.367 . S
C773 C775 1.433 . S
C774 C770 1.350 . S
C774 C771 1.463 . S
C774 N778 1.427 . S
C775 H765 0.929 . S
C775 C773 1.433 . S
C775 N778 1.384 . S
C776 H767 0.929 . S
C776 C768 1.378 . S
C776 C771 1.350 . S
C777 H764 0.929 . S
C777 C769 1.433 . S
C777 N779 1.384 . S
N778 C774 1.427 . S
N778 C775 1.384 . S
N779 C771 1.427 . S
N779 C777 1.384 . S
H780 C786 0.930 . S
H781 C790 0.930 . S
H782 C795 0.929 . S
H783 C793 0.929 . S
H784 C788 0.929 . S
H785 C794 0.929 . S
C786 H780 0.930 . S
C786 C787 1.367 . S
C786 C794 1.378 . S
C787 C786 1.367 . S
C787 C795 1.433 . S
C788 H784 0.929 . S
C788 C790 1.378 . S
C788 C792 1.350 . S
C789 C792 1.463 . S
C789 C794 1.350 . S
C789 N797 1.427 . S
C790 H781 0.930 . S
C790 C788 1.378 . S
C790 C791 1.367 . S
C791 C790 1.367 . S
C791 C793 1.433 . S
C792 C788 1.350 . S
C792 C789 1.463 . S
C792 N796 1.427 . S
C793 H783 0.929 . S
C793 C791 1.433 . S
C793 N796 1.384 . S
C794 H785 0.929 . S
C794 C786 1.378 . S
C794 C789 1.350 . S
C795 H782 0.929 . S
C795 C787 1.433 . S
C795 N797 1.384 . S
N796 C792 1.427 . S
N796 C793 1.384 . S
N797 C789 1.427 . S
N797 C795 1.384 . S
H798 C804 0.930 . S
H799 C808 0.930 . S
H800 C813 0.929 . S
H801 C811 0.929 . S
H802 C806 0.929 . S
H803 C812 0.929 . S
C804 H798 0.930 . S
C804 C805 1.367 . S
C804 C812 1.378 . S
C805 C804 1.367 . S
C805 C813 1.433 . S
C806 H802 0.929 . S
C806 C808 1.378 . S
C806 C810 1.350 . S
C807 C810 1.463 . S
C807 C812 1.350 . S
C807 N815 1.427 . S
C808 H799 0.930 . S
C808 C806 1.378 . S
C808 C809 1.367 . S
C809 C808 1.367 . S
C809 C811 1.433 . S
C810 C806 1.350 . S
C810 C807 1.463 . S
C810 N814 1.427 . S
C811 H801 0.929 . S
C811 C809 1.433 . S
C811 N814 1.384 . S
C812 H803 0.929 . S
C812 C804 1.378 . S
C812 C807 1.350 . S
C813 H800 0.929 . S
C813 C805 1.433 . S
C813 N815 1.384 . S
N814 C810 1.427 . S
N814 C811 1.384 . S
N815 C807 1.427 . S
N815 C813 1.384 . S
H816 C822 0.930 . S
H817 C826 0.930 . S
H818 C831 0.929 . S
H819 C829 0.929 . S
H820 C824 0.929 . S
H821 C830 0.929 . S
C822 H816 0.930 . S
C822 C823 1.367 . S
C822 C830 1.378 . S
C823 C822 1.367 . S
C823 C831 1.433 . S
C824 H820 0.929 . S
C824 C826 1.378 . S
C824 C828 1.350 . S
C825 C828 1.463 . S
C825 C830 1.350 . S
C825 N833 1.427 . S
C826 H817 0.930 . S
C826 C824 1.378 . S
C826 C827 1.367 . S
C827 C826 1.367 . S
C827 C829 1.433 . S
C828 C824 1.350 . S
C828 C825 1.463 . S
C828 N832 1.427 . S
C829 H819 0.929 . S
C829 C827 1.433 . S
C829 N832 1.384 . S
C830 H821 0.929 . S
C830 C822 1.378 . S
C830 C825 1.350 . S
C831 H818 0.929 . S
C831 C823 1.433 . S
C831 N833 1.384 . S
N832 C828 1.427 . S
N832 C829 1.384 . S
N833 C825 1.427 . S
N833 C831 1.384 . S
H834 C840 0.930 . S
H835 C844 0.930 . S
H836 C849 0.929 . S
H837 C847 0.929 . S
H838 C842 0.929 . S
H839 C848 0.929 . S
C840 H834 0.930 . S
C840 C841 1.367 . S
C840 C848 1.378 . S
C841 C840 1.367 . S
C841 C849 1.433 . S
C842 H838 0.929 . S
C842 C844 1.378 . S
C842 C846 1.350 . S
C843 C846 1.463 . S
C843 C848 1.350 . S
C843 N851 1.427 . S
C844 H835 0.930 . S
C844 C842 1.378 . S
C844 C845 1.367 . S
C845 C844 1.367 . S
C845 C847 1.433 . S
C846 C842 1.350 . S
C846 C843 1.463 . S
C846 N850 1.427 . S
C847 H837 0.929 . S
C847 C845 1.433 . S
C847 N850 1.384 . S
C848 H839 0.929 . S
C848 C840 1.378 . S
C848 C843 1.350 . S
C849 H836 0.929 . S
C849 C841 1.433 . S
C849 N851 1.384 . S
N850 C846 1.427 . S
N850 C847 1.384 . S
N851 C843 1.427 . S
N851 C849 1.384 . S
H852 C858 0.930 . S
H853 C862 0.930 . S
H854 C867 0.929 . S
H855 C865 0.929 . S
H856 C860 0.929 . S
H857 C866 0.929 . S
C858 H852 0.930 . S
C858 C859 1.367 . S
C858 C866 1.378 . S
C859 C858 1.367 . S
C859 C867 1.433 . S
C860 H856 0.929 . S
C860 C862 1.378 . S
C860 C864 1.350 . S
C861 C864 1.463 . S
C861 C866 1.350 . S
C861 N869 1.427 . S
C862 H853 0.930 . S
C862 C860 1.378 . S
C862 C863 1.367 . S
C863 C862 1.367 . S
C863 C865 1.433 . S
C864 C860 1.350 . S
C864 C861 1.463 . S
C864 N868 1.427 . S
C865 H855 0.929 . S
C865 C863 1.433 . S
C865 N868 1.384 . S
C866 H857 0.929 . S
C866 C858 1.378 . S
C866 C861 1.350 . S
C867 H854 0.929 . S
C867 C859 1.433 . S
C867 N869 1.384 . S
N868 C864 1.427 . S
N868 C865 1.384 . S
N869 C861 1.427 . S
N869 C867 1.384 . S
H870 C876 0.930 . S
H871 C880 0.930 . S
H872 C885 0.929 . S
H873 C883 0.929 . S
H874 C878 0.929 . S
H875 C884 0.929 . S
C876 H870 0.930 . S
C876 C877 1.367 . S
C876 C884 1.378 . S
C877 C876 1.367 . S
C877 C885 1.433 . S
C878 H874 0.929 . S
C878 C880 1.378 . S
C878 C882 1.350 . S
C879 C882 1.463 . S
C879 C884 1.350 . S
C879 N887 1.427 . S
C880 H871 0.930 . S
C880 C878 1.378 . S
C880 C881 1.367 . S
C881 C880 1.367 . S
C881 C883 1.433 . S
C882 C878 1.350 . S
C882 C879 1.463 . S
C882 N886 1.427 . S
C883 H873 0.929 . S
C883 C881 1.433 . S
C883 N886 1.384 . S
C884 H875 0.929 . S
C884 C876 1.378 . S
C884 C879 1.350 . S
C885 H872 0.929 . S
C885 C877 1.433 . S
C885 N887 1.384 . S
N886 C882 1.427 . S
N886 C883 1.384 . S
N887 C879 1.427 . S
N887 C885 1.384 . S
C463 C7 2.066 . S
C467 C176 2.041 . S
C481 C30 1.528 . S
C485 C229 1.501 . S
C503 C282 1.813 . S
C499 N58 1.789 . S
C521 C319 1.274 . S
C517 N81 1.246 . S
C539 C379 1.798 . S
C535 C99 1.820 . S
C557 C432 1.374 . S
C553 N127 1.352 . S
C571 N25 1.880 . S
C575 C283 1.914 . S
C589 C62 1.489 . S
C593 C326 1.470 . S
C611 C372 1.833 . S
C607 C85 1.841 . S
C629 C425 1.304 . S
C625 N94 1.298 . S
C643 C131 1.923 . S
C647 C177 1.898 . S
C665 C230 1.402 . S
C661 N2 1.371 . S
C683 C336 2.008 . S
C679 C16 2.020 . S
C697 C39 1.497 . S
C701 C388 1.493 . S
C719 C441 1.818 . S
C715 N48 1.786 . S
C733 N71 1.246 . S
C737 C167 1.264 . S
C751 C108 1.811 . S
C755 C220 1.805 . S
C769 N117 1.350 . S
C773 C273 1.379 . S
C787 N35 1.869 . S
C791 C442 1.898 . S
C809 C160 1.474 . S
C805 C53 1.490 . S
C823 C76 1.882 . S
C827 C213 1.865 . S
C841 N104 1.269 . S
C845 C266 1.288 . S
C859 C122 1.885 . S
C863 C335 1.872 . S
C877 N12 1.350 . S
C881 C389 1.376 . S
