# Generated by pormake.
# Topology nia, (6,6)-cn, num edge types: 1
# Building blocks:
#     Node 0, Type 0, BuildingBlock: BETFEN_clean_sbu_0, # of connection points: 6
#     Node 1, Type 0, BuildingBlock: BETFEN_clean_sbu_0, # of connection points: 6
#     Node 2, Type 1, BuildingBlock: MIDCAF_clean_sbu_0, # of connection points: 6
#     Node 3, Type 1, BuildingBlock: MIDCAF_clean_sbu_0, # of connection points: 6
#     Edge 4, Type (0, 1), BuildingBlock: CIFDUS_clean_linker_0, # of connection points: 2
#     Edge 5, Type (0, 1), BuildingBlock: CIFDUS_clean_linker_0, # of connection points: 2
#     Edge 6, Type (0, 1), BuildingBlock: CIFDUS_clean_linker_0, # of connection points: 2
#     Edge 7, Type (0, 1), BuildingBlock: CIFDUS_clean_linker_0, # of connection points: 2
#     Edge 8, Type (0, 1), BuildingBlock: CIFDUS_clean_linker_0, # of connection points: 2
#     Edge 9, Type (0, 1), BuildingBlock: CIFDUS_clean_linker_0, # of connection points: 2
#     Edge 10, Type (0, 1), BuildingBlock: CIFDUS_clean_linker_0, # of connection points: 2
#     Edge 11, Type (0, 1), BuildingBlock: CIFDUS_clean_linker_0, # of connection points: 2
#     Edge 12, Type (0, 1), BuildingBlock: CIFDUS_clean_linker_0, # of connection points: 2
#     Edge 13, Type (0, 1), BuildingBlock: CIFDUS_clean_linker_0, # of connection points: 2
#     Edge 14, Type (0, 1), BuildingBlock: CIFDUS_clean_linker_0, # of connection points: 2
#     Edge 15, Type (0, 1), BuildingBlock: CIFDUS_clean_linker_0, # of connection points: 2
# Relax obj value: 0.225
# Max RMSD: 0.284
# Mean RMSD: 0.220
data_MOF--net-nia--node1-BETFEN_clean_sbu_0--node2-MIDCAF_clean_sbu_0--edge1-CIFDUS_clean_linker_0
_symmetry_space_group_name_H-M    P1
_symmetry_Int_Tables_number       1
_symmetry_cell_setting            triclinic
loop_
_symmetry_equiv_pos_as_xyz
'x, y, z'
_cell_length_a     26.425107
_cell_length_b     26.681204
_cell_length_c     25.958054
_cell_angle_alpha  89.476392
_cell_angle_beta   87.961448
_cell_angle_gamma 136.33237
loop_
_atom_site_label
_atom_site_type_symbol
_atom_site_fract_x
_atom_site_fract_y
_atom_site_fract_z
_atom_type_partial_charge
Pr0 Pr 0.92407 -0.01504 1.05899 0.0
Pr1 Pr 0.00954 -0.02957 0.117 0.0
C2 C 0.83156 -0.01315 1.02216 0.0
C3 C 0.82168 0.03003 1.00081 0.0
C4 C 0.86961 0.10394 1.01006 0.0
C5 C 0.85615 0.14219 0.99025 0.0
C6 C 0.79457 0.10667 0.96128 0.0
C7 C 0.74856 0.03339 0.95072 0.0
C8 C 0.76207 -0.00453 0.97034 0.0
C9 C 0.05986 0.05929 1.01051 0.0
C10 C 0.03287 0.10222 0.14968 0.0
C11 C 0.09831 -0.03696 0.15324 0.0
C12 C 0.11164 0.91893 0.16295 0.0
C13 C 0.11079 0.90053 0.21408 0.0
C14 C 0.13429 0.8688 0.22479 0.0
C15 C 0.15976 0.85555 0.18453 0.0
C16 C 0.15756 0.87101 0.13324 0.0
C17 C 0.13376 0.90246 0.1225 0.0
C18 C 0.87005 0.89228 0.16222 0.0
C19 C 0.90265 0.85357 1.02776 0.0
O20 O 0.84295 -0.00952 1.07133 0.0
O21 O 0.86879 -0.01821 0.99293 0.0
O22 O 0.04831 0.05875 1.0581 0.0
O23 O 0.00118 0.02344 0.98561 0.0
O24 O 0.06525 0.08161 0.14515 0.0
O25 O -0.02659 0.06988 0.12458 0.0
O26 O 0.10387 -0.01629 0.10556 0.0
O27 O 0.04748 0.94913 0.18219 0.0
O28 O 0.88545 0.89526 0.11531 0.0
O29 O 0.92774 0.93017 0.18885 0.0
O30 O 0.86761 0.87122 1.03469 0.0
O31 O -0.03583 0.88886 1.05062 0.0
H32 H 0.91631 0.13145 1.03322 0.0
H33 H 0.89209 0.19856 0.99919 0.0
H34 H 0.70123 0.00504 0.92806 0.0
H35 H 0.72511 0.93858 0.96242 0.0
H36 H 0.09483 0.91346 0.24599 0.0
H37 H 0.13598 0.85803 0.26468 0.0
H38 H 0.17601 0.86042 0.10144 0.0
H39 H 0.1352 0.91613 1.08268 0.0
Pr40 Pr -0.04207 0.01068 0.64152 0.0
Pr41 Pr -0.0295 0.93687 0.56082 0.0
C42 C -0.04852 0.08943 0.69927 0.0
C43 C 0.91611 0.11329 0.70479 0.0
C44 C 0.89503 0.11534 0.75439 0.0
C45 C 0.86525 0.14186 0.76116 0.0
C46 C 0.85658 0.16717 0.71834 0.0
C47 C 0.87633 0.16362 0.66854 0.0
C48 C 0.90564 0.13662 0.66177 0.0
C49 C 0.88706 0.87093 0.67054 0.0
C50 C 0.84119 0.92641 0.54724 0.0
C51 C -0.02578 0.85554 0.504 0.0
C52 C 0.00517 0.82709 0.49816 0.0
C53 C -0.04235 0.75332 0.48893 0.0
C54 C -0.01493 0.72469 0.48109 0.0
C55 C 0.06072 0.76947 0.48213 0.0
C56 C 0.10842 0.84351 0.49149 0.0
C57 C 0.08082 0.87213 0.49963 0.0
C58 C 0.04047 0.07614 0.53104 0.0
C59 C 0.08686 0.02137 0.65568 0.0
O60 O -0.0013 0.1171 0.6598 0.0
O61 O 0.91048 0.0207 0.70992 0.0
O62 O 0.88539 0.89077 0.62703 0.0
O63 O 0.92587 0.92389 0.70168 0.0
O64 O 0.8618 0.89481 0.53735 0.0
O65 O 0.87442 -0.02207 0.5809 0.0
O66 O 0.9263 0.82847 0.54278 0.0
O67 O 0.01787 0.92505 0.49406 0.0
O68 O 0.0427 0.05693 0.5747 0.0
O69 O 0.00244 0.02296 0.50004 0.0
O70 O 0.06691 0.05369 0.66474 0.0
O71 O 0.05346 -0.03052 0.62224 0.0
H72 H 0.90284 0.09761 0.788 0.0
H73 H 0.851 0.1445 0.79997 0.0
H74 H 0.86927 0.18194 0.63486 0.0
H75 H 0.92101 0.13492 0.62308 0.0
H76 H 0.89918 0.71787 0.48729 0.0
H77 H 0.94713 0.66764 0.47343 0.0
H78 H 0.16688 0.87902 0.49307 0.0
H79 H 0.11855 0.92928 0.50684 0.0
Zn80 Zn 0.3389 0.62201 0.24764 0.0
Zn81 Zn 0.31582 0.60558 0.4428 0.0
Zn82 Zn 0.3262 0.60753 0.34488 0.0
C83 C 0.46316 0.70007 0.41883 0.0
C84 C 0.23995 0.46493 0.41698 0.0
O85 O 0.28742 0.65384 0.31653 0.0
O86 O 0.32611 0.68461 0.23417 0.0
C87 C 0.47412 0.68767 0.27505 0.0
O88 O 0.43768 0.67464 0.37413 0.0
O89 O 0.42074 0.68287 0.45641 0.0
O90 O 0.2647 0.50486 0.45495 0.0
O91 O 0.25308 0.49193 0.37089 0.0
O92 O 0.4374 0.6638 0.2355 0.0
O93 O 0.44338 0.67583 0.31981 0.0
O94 O 0.2509 0.49512 0.31639 0.0
O95 O 0.25365 0.51899 0.23387 0.0
C96 C 0.22718 0.47342 0.27081 0.0
O97 O 0.28355 0.65181 0.37119 0.0
O98 O 0.2597 0.62691 0.45546 0.0
C99 C 0.29417 0.6823 0.27285 0.0
C100 C 0.25903 0.6525 0.41481 0.0
Zn101 Zn 0.60754 0.33709 0.94865 0.0
Zn102 Zn 0.60793 0.33874 0.75744 0.0
Zn103 Zn 0.60242 0.33983 0.85447 0.0
C104 C 0.6875 0.48019 0.77923 0.0
C105 C 0.46058 0.24446 0.78826 0.0
O106 O 0.63282 0.28483 0.88071 0.0
O107 O 0.59997 0.25981 0.96415 0.0
C108 C 0.71953 0.4799 0.92071 0.0
O109 O 0.67793 0.45456 0.82509 0.0
O110 O 0.65729 0.43847 0.74216 0.0
O111 O 0.50107 0.25887 0.7502 0.0
O112 O 0.48864 0.27376 0.83164 0.0
O113 O 0.70382 0.43768 0.95663 0.0
O114 O 0.68339 0.45373 0.87948 0.0
O115 O 0.49144 0.28251 0.886 0.0
O116 O 0.52043 0.31571 0.96621 0.0
C117 C 0.4745 0.28622 0.93197 0.0
O118 O 0.63924 0.29061 0.82672 0.0
O119 O 0.66426 0.31768 0.74272 0.0
C120 C 0.62382 0.25449 0.92411 0.0
C121 C 0.66355 0.29023 0.78284 0.0
H122 H 0.10891 0.74764 0.25351 0.0
H123 H 0.28777 0.90981 0.14214 0.0
H124 H 0.34665 0.87265 0.16178 0.0
H125 H 0.3471 0.79381 0.20977 0.0
H126 H 0.16641 0.62734 0.31809 0.0
H127 H 0.10922 0.66762 0.30169 0.0
C128 C 0.16089 0.77489 0.23376 0.0
C129 C 0.19367 0.83095 0.19615 0.0
C130 C 0.19445 0.75313 0.24517 0.0
C131 C 0.2608 0.8656 0.17055 0.0
C132 C 0.2948 0.84482 0.18204 0.0
C133 C 0.2954 0.76671 0.22999 0.0
C134 C 0.26184 0.70912 0.26606 0.0
C135 C 0.26206 0.78863 0.21913 0.0
C136 C 0.19426 0.67338 0.29134 0.0
C137 C 0.16123 0.69584 0.28152 0.0
H138 H 0.15687 0.11535 0.73311 0.0
H139 H 0.15898 -0.01606 0.63923 0.0
H140 H 0.27046 0.03517 0.67807 0.0
H141 H 0.37363 0.12602 0.73192 0.0
H142 H 0.37554 0.26246 0.82156 0.0
H143 H 0.25484 0.19908 0.79221 0.0
C144 C 0.18125 0.09736 0.7213 0.0
C145 C 0.15007 0.04655 0.68263 0.0
C146 C 0.24577 0.12766 0.74333 0.0
C147 C 0.182 0.02328 0.66852 0.0
C148 C 0.24582 0.05262 0.6907 0.0
C149 C 0.34678 0.14079 0.74578 0.0
C150 C 0.3826 0.19792 0.7795 0.0
C151 C 0.27902 0.10603 0.72718 0.0
C152 C 0.34802 0.21736 0.79674 0.0
C153 C 0.27959 0.18183 0.77934 0.0
H154 H 0.00301 0.18153 0.15813 0.0
H155 H 0.13861 0.16124 0.21706 0.0
H156 H 0.20362 0.26843 0.26646 0.0
H157 H 0.23228 0.3766 0.28556 0.0
H158 H 0.10106 0.40068 0.22471 0.0
H159 H 0.02381 0.28371 0.18454 0.0
C160 C 0.04619 0.20013 0.18222 0.0
C161 C 0.06652 0.16389 0.18292 0.0
C162 C 0.08442 0.26284 0.21048 0.0
C163 C 0.12241 0.18861 0.21479 0.0
C164 C 0.15973 0.24999 0.24339 0.0
C165 C 0.18531 0.35487 0.26486 0.0
C166 C 0.17146 0.39623 0.25862 0.0
C167 C 0.14257 0.28867 0.24056 0.0
C168 C 0.11182 0.36886 0.23053 0.0
C169 C 0.0681 0.30237 0.20719 0.0
H170 H 0.73914 0.11392 0.77952 0.0
H171 H 0.91372 0.29324 0.67386 0.0
H172 H 0.87012 0.34787 0.68573 0.0
H173 H 0.78228 0.34447 0.72567 0.0
H174 H 0.60369 0.16283 0.82757 0.0
H175 H 0.64948 0.10956 0.81857 0.0
C176 C 0.76772 0.16512 0.75935 0.0
C177 C 0.82931 0.19944 0.72572 0.0
C178 C 0.74201 0.19592 0.76606 0.0
C179 C 0.86557 0.26539 0.6994 0.0
C180 C 0.84096 0.29682 0.70638 0.0
C181 C 0.75367 0.29333 0.74599 0.0
C182 C 0.69124 0.25849 0.77851 0.0
C183 C 0.77921 0.26248 0.73946 0.0
C184 C 0.65352 0.19168 0.80387 0.0
C185 C 0.67917 0.16093 0.79821 0.0
H186 H 0.81874 0.90868 0.24652 0.0
H187 H 0.75104 0.76479 0.12476 0.0
H188 H 0.6227 0.68478 0.15328 0.0
H189 H 0.52962 0.6602 0.20789 0.0
H190 H 0.59278 0.80889 0.32359 0.0
H191 H 0.72273 0.88175 0.30358 0.0
C192 C 0.77564 0.85922 0.22694 0.0
C193 C 0.79391 0.84237 0.18372 0.0
C194 C 0.70133 0.81444 0.24253 0.0
C195 C 0.73801 0.77885 0.15799 0.0
C196 C 0.66468 0.73309 0.17425 0.0
C197 C 0.57186 0.70821 0.22911 0.0
C198 C 0.55189 0.72838 0.26795 0.0
C199 C 0.64574 0.7511 0.21569 0.0
C200 C 0.60694 0.79104 0.29475 0.0
C201 C 0.68117 0.83316 0.28276 0.0
H202 H 0.90312 0.82014 0.75267 0.0
H203 H 0.77312 0.75182 0.62135 0.0
H204 H 0.69815 0.62497 0.64537 0.0
H205 H 0.66989 0.53394 0.70277 0.0
H206 H 0.80682 0.59983 0.82823 0.0
H207 H 0.87772 0.72728 0.80868 0.0
C208 C 0.85819 0.77725 0.72956 0.0
C209 C 0.84319 0.79492 0.68554 0.0
C210 C 0.81616 0.7043 0.743 0.0
C211 C 0.78559 0.73933 0.65539 0.0
C212 C 0.74265 0.66687 0.66912 0.0
C213 C 0.71526 0.57614 0.72594 0.0
C214 C 0.73137 0.55743 0.76836 0.0
C215 C 0.75756 0.64885 0.7127 0.0
C216 C 0.79085 0.61271 0.79743 0.0
C217 C 0.83224 0.68559 0.78546 0.0
H218 H 0.1797 0.82565 0.42109 0.0
H219 H 0.00504 0.64324 0.52492 0.0
H220 H 0.04962 0.58988 0.51121 0.0
H221 H 0.13898 0.59574 0.47107 0.0
H222 H 0.31613 0.77861 0.36919 0.0
H223 H 0.26989 0.83134 0.38045 0.0
C224 C 0.15185 0.77451 0.44093 0.0
C225 C 0.08919 0.73839 0.47396 0.0
C226 C 0.17792 0.74416 0.43296 0.0
C227 C 0.05293 0.67167 0.49892 0.0
C228 C 0.0785 0.64126 0.49126 0.0
C229 C 0.16715 0.64701 0.4512 0.0
C230 C 0.22984 0.68283 0.41868 0.0
C231 C 0.14087 0.67704 0.45846 0.0
C232 C 0.26674 0.74957 0.39357 0.0
C233 C 0.24064 0.77983 0.40032 0.0
H234 H 0.19238 0.17887 1.04221 0.0
H235 H 0.08678 0.02248 0.92434 0.0
H236 H 0.20663 0.08003 0.88749 0.0
H237 H 0.34151 0.17029 0.8936 0.0
H238 H 0.44534 0.33298 1.00694 0.0
H239 H 0.32624 0.27694 1.04143 0.0
C240 C 0.19586 0.1578 1.00828 0.0
C241 C 0.13154 0.09646 0.98622 0.0
C242 C 0.26452 0.19204 0.98677 0.0
C243 C 0.13613 0.06987 0.94187 0.0
C244 C 0.20444 0.10256 0.92094 0.0
C245 C 0.33803 0.19495 0.92439 0.0
C246 C 0.40213 0.25614 0.94711 0.0
C247 C 0.2691 0.16332 0.94346 0.0
C248 C 0.3967 0.28571 0.98876 0.0
C249 C 0.32866 0.2538 1.00858 0.0
H250 H 0.03206 0.12629 0.44342 0.0
H251 H 0.14563 0.19549 0.58412 0.0
H252 H 0.21952 0.32175 0.55916 0.0
H253 H 0.25114 0.41184 0.49859 0.0
H254 H 0.13194 0.34542 0.36158 0.0
H255 H 0.0622 0.21857 0.38279 0.0
C256 C 0.07314 0.16922 0.46841 0.0
C257 C 0.08372 0.15189 0.51542 0.0
C258 C 0.11487 0.2419 0.45413 0.0
C259 C 0.13653 0.2076 0.54779 0.0
C260 C 0.17888 0.27976 0.53352 0.0
C261 C 0.20991 0.36972 0.4732 0.0
C262 C 0.19811 0.38817 0.42763 0.0
C263 C 0.16835 0.29738 0.48694 0.0
C264 C 0.14429 0.3329 0.39547 0.0
C265 C 0.10356 0.26032 0.40822 0.0
H266 H 0.66179 0.05417 0.97652 0.0
H267 H 0.88146 0.24119 0.91291 0.0
H268 H 0.84641 0.30242 0.89206 0.0
H269 H 0.75397 0.30429 0.89646 0.0
H270 H 0.53638 0.11792 0.96338 0.0
H271 H 0.56948 0.05407 0.97812 0.0
C272 C 0.70174 0.10798 0.95746 0.0
C273 C 0.77394 0.14326 0.94615 0.0
C274 C 0.68151 0.14278 0.94645 0.0
C275 C 0.82565 0.21341 0.92229 0.0
C276 C 0.8056 0.24822 0.91034 0.0
C277 C 0.71395 0.2494 0.9137 0.0
C278 C 0.64278 0.215 0.92837 0.0
C279 C 0.73391 0.21376 0.92294 0.0
C280 C 0.59125 0.14464 0.95151 0.0
C281 C 0.61017 0.10838 0.95997 0.0
H282 H 0.77037 0.83312 0.46945 0.0
H283 H 0.76647 0.96021 0.56772 0.0
H284 H 0.65229 0.9062 0.53208 0.0
H285 H 0.54803 0.81482 0.47902 0.0
H286 H 0.54955 0.68477 0.38329 0.0
H287 H 0.6711 0.74893 0.41126 0.0
C288 C 0.74499 0.84957 0.48287 0.0
C289 C 0.77655 0.89999 0.52181 0.0
C290 C 0.67902 0.81781 0.46257 0.0
C291 C 0.74326 0.92126 0.5381 0.0
C292 C 0.67785 0.89026 0.5178 0.0
C293 C 0.57569 0.80146 0.46372 0.0
C294 C 0.54062 0.74588 0.42875 0.0
C295 C 0.64447 0.83735 0.48093 0.0
C296 C 0.5763 0.72835 0.40948 0.0
C297 C 0.64535 0.76454 0.42586 0.0
H298 H 0.94129 0.7827 1.01937 0.0
H299 H 0.7885 0.78283 0.96591 0.0
H300 H 0.72459 0.67209 0.92097 0.0
H301 H 0.70314 0.56747 0.90519 0.0
H302 H 0.85132 0.56342 0.96213 0.0
H303 H 0.92646 0.68354 0.99665 0.0
C304 C 0.89455 0.75894 0.99742 0.0
C305 C 0.86908 0.79038 0.99678 0.0
C306 C 0.85707 0.69436 0.97223 0.0
C307 C 0.80864 0.75913 0.96783 0.0
C308 C 0.77202 0.69581 0.94193 0.0
C309 C 0.75307 0.59404 0.92388 0.0
C310 C 0.77242 0.55755 0.93074 0.0
C311 C 0.79453 0.6619 0.94499 0.0
C312 C 0.83609 0.59128 0.95607 0.0
C313 C 0.87868 0.65959 0.97608 0.0
loop_
_geom_bond_atom_site_label_1
_geom_bond_atom_site_label_2
_geom_bond_distance
_geom_bond_site_symmetry_2
_ccdc_geom_bond_type
Pr0 C2 2.880 . S
Pr0 O20 2.562 . S
Pr0 O21 2.490 . S
Pr0 O22 2.695 1_655 S
Pr0 O23 2.512 1_655 S
Pr0 O25 2.437 1_656 S
Pr0 O28 2.436 1_546 S
Pr0 O30 2.438 1_545 S
Pr1 C11 2.880 . S
Pr1 O22 2.436 1_564 S
Pr1 O24 2.438 1_565 S
Pr1 O26 2.562 . S
Pr1 O27 2.490 . S
Pr1 O28 2.695 1_455 S
Pr1 O29 2.512 1_455 S
Pr1 O31 2.437 1_455 S
C2 Pr0 2.880 . S
C2 C3 1.491 . S
C2 O20 1.254 . S
C2 O21 1.225 . S
C3 C2 1.491 . S
C3 C4 1.392 . S
C3 C8 1.356 . S
C4 C3 1.392 . S
C4 C5 1.368 . S
C4 H32 0.929 . S
C5 C4 1.368 . S
C5 C6 1.386 . S
C5 H33 0.929 . S
C6 C5 1.386 . S
C6 C7 1.373 . S
C7 C6 1.373 . S
C7 C8 1.409 . S
C7 H34 0.931 . S
C8 C3 1.356 . S
C8 C7 1.409 . S
C8 H35 0.930 . S
C9 O22 1.270 . S
C9 O23 1.248 . S
C10 O24 1.267 . S
C10 O25 1.278 . S
C11 Pr1 2.880 . S
C11 C12 1.491 . S
C11 O26 1.254 . S
C11 O27 1.225 . S
C12 C11 1.491 . S
C12 C13 1.392 . S
C12 C17 1.356 . S
C13 C12 1.392 . S
C13 C14 1.368 . S
C13 H36 0.929 . S
C14 C13 1.368 . S
C14 C15 1.386 . S
C14 H37 0.929 . S
C15 C14 1.386 . S
C15 C16 1.373 . S
C16 C15 1.373 . S
C16 C17 1.409 . S
C16 H38 0.931 . S
C17 C12 1.356 . S
C17 C16 1.409 . S
C17 H39 0.930 . S
C18 O28 1.270 . S
C18 O29 1.248 . S
C19 O30 1.267 . S
C19 O31 1.278 1_556 S
O20 Pr0 2.562 . S
O20 C2 1.254 . S
O21 Pr0 2.490 . S
O21 C2 1.225 . S
O22 Pr0 2.695 1_455 S
O22 Pr1 2.436 1_546 S
O22 C9 1.270 . S
O23 Pr0 2.512 1_455 S
O23 C9 1.248 . S
O24 Pr1 2.438 1_545 S
O24 C10 1.267 . S
O25 Pr0 2.437 1_454 S
O25 C10 1.278 . S
O26 Pr1 2.562 . S
O26 C11 1.254 . S
O27 Pr1 2.490 . S
O27 C11 1.225 . S
O28 Pr0 2.436 1_564 S
O28 Pr1 2.695 1_655 S
O28 C18 1.270 . S
O29 Pr1 2.512 1_655 S
O29 C18 1.248 . S
O30 Pr0 2.438 1_565 S
O30 C19 1.267 . S
O31 Pr1 2.437 1_655 S
O31 C19 1.278 1_554 S
H32 C4 0.929 . S
H33 C5 0.929 . S
H34 C7 0.931 . S
H35 C8 0.930 . S
H36 C13 0.929 . S
H37 C14 0.929 . S
H38 C16 0.931 . S
H39 C17 0.930 . S
Pr40 C42 2.880 1_455 S
Pr40 O60 2.562 1_455 S
Pr40 O61 2.490 1_455 S
Pr40 O62 2.695 1_445 S
Pr40 O63 2.512 1_445 S
Pr40 O65 2.437 1_445 S
Pr40 O68 2.436 . S
Pr40 O70 2.438 . S
Pr41 C51 2.880 . S
Pr41 O62 2.436 1_455 S
Pr41 O64 2.438 1_455 S
Pr41 O66 2.562 . S
Pr41 O67 2.490 . S
Pr41 O68 2.695 1_565 S
Pr41 O69 2.512 1_565 S
Pr41 O71 2.437 1_565 S
C42 Pr40 2.880 1_655 S
C42 C43 1.491 . S
C42 O60 1.254 . S
C42 O61 1.225 . S
C43 C42 1.491 . S
C43 C44 1.392 . S
C43 C48 1.356 . S
C44 C43 1.392 . S
C44 C45 1.368 . S
C44 H72 0.929 . S
C45 C44 1.368 . S
C45 C46 1.386 . S
C45 H73 0.929 . S
C46 C45 1.386 . S
C46 C47 1.373 . S
C47 C46 1.373 . S
C47 C48 1.409 . S
C47 H74 0.931 . S
C48 C43 1.356 . S
C48 C47 1.409 . S
C48 H75 0.930 . S
C49 O62 1.270 . S
C49 O63 1.248 . S
C50 O64 1.267 . S
C50 O65 1.278 . S
C51 Pr41 2.880 . S
C51 C52 1.491 . S
C51 O66 1.254 . S
C51 O67 1.225 . S
C52 C51 1.491 . S
C52 C53 1.392 . S
C52 C57 1.356 . S
C53 C52 1.392 . S
C53 C54 1.368 . S
C53 H76 0.929 1_565 S
C54 C53 1.368 . S
C54 C55 1.386 . S
C54 H77 0.929 . S
C55 C54 1.386 . S
C55 C56 1.373 . S
C56 C55 1.373 . S
C56 C57 1.409 . S
C56 H78 0.931 . S
C57 C52 1.356 . S
C57 C56 1.409 . S
C57 H79 0.930 . S
C58 O68 1.270 . S
C58 O69 1.248 . S
C59 O70 1.267 . S
C59 O71 1.278 . S
O60 Pr40 2.562 1_655 S
O60 C42 1.254 . S
O61 Pr40 2.490 1_655 S
O61 C42 1.225 . S
O62 Pr40 2.695 1_665 S
O62 Pr41 2.436 1_655 S
O62 C49 1.270 . S
O63 Pr40 2.512 1_665 S
O63 C49 1.248 . S
O64 Pr41 2.438 1_655 S
O64 C50 1.267 . S
O65 Pr40 2.437 1_665 S
O65 C50 1.278 . S
O66 Pr41 2.562 . S
O66 C51 1.254 . S
O67 Pr41 2.490 . S
O67 C51 1.225 . S
O68 Pr40 2.436 . S
O68 Pr41 2.695 1_545 S
O68 C58 1.270 . S
O69 Pr41 2.512 1_545 S
O69 C58 1.248 . S
O70 Pr40 2.438 . S
O70 C59 1.267 . S
O71 Pr41 2.437 1_545 S
O71 C59 1.278 . S
H72 C44 0.929 . S
H73 C45 0.929 . S
H74 C47 0.931 . S
H75 C48 0.930 . S
H76 C53 0.929 1_545 S
H77 C54 0.929 . S
H78 C56 0.931 . S
H79 C57 0.930 . S
Zn80 O86 1.920 . S
Zn80 O92 1.898 . S
Zn80 O95 1.905 . S
Zn81 O89 1.905 . S
Zn81 O90 1.898 . S
Zn81 O98 1.920 . S
Zn82 O85 2.080 . S
Zn82 O88 2.114 . S
Zn82 O91 2.120 . S
Zn82 O93 2.120 . S
Zn82 O94 2.114 . S
Zn82 O97 2.080 . S
C83 O88 1.166 . S
C83 O89 1.182 . S
C84 O90 1.167 . S
C84 O91 1.299 . S
O85 Zn82 2.080 . S
O85 C99 1.305 . S
O86 Zn80 1.920 . S
O86 C99 1.234 . S
C87 O92 1.167 . S
C87 O93 1.299 . S
O88 Zn82 2.114 . S
O88 C83 1.166 . S
O89 Zn81 1.905 . S
O89 C83 1.182 . S
O90 Zn81 1.898 . S
O90 C84 1.167 . S
O91 Zn82 2.120 . S
O91 C84 1.299 . S
O92 Zn80 1.898 . S
O92 C87 1.167 . S
O93 Zn82 2.120 . S
O93 C87 1.299 . S
O94 Zn82 2.114 . S
O94 C96 1.166 . S
O95 Zn80 1.905 . S
O95 C96 1.182 . S
C96 O94 1.166 . S
C96 O95 1.182 . S
O97 Zn82 2.080 . S
O97 C100 1.305 . S
O98 Zn81 1.920 . S
O98 C100 1.234 . S
C99 O85 1.305 . S
C99 O86 1.234 . S
C100 O97 1.305 . S
C100 O98 1.234 . S
Zn101 O107 1.920 . S
Zn101 O113 1.898 . S
Zn101 O116 1.905 . S
Zn102 O110 1.905 . S
Zn102 O111 1.898 . S
Zn102 O119 1.920 . S
Zn103 O106 2.080 . S
Zn103 O109 2.114 . S
Zn103 O112 2.120 . S
Zn103 O114 2.120 . S
Zn103 O115 2.114 . S
Zn103 O118 2.080 . S
C104 O109 1.166 . S
C104 O110 1.182 . S
C105 O111 1.167 . S
C105 O112 1.299 . S
O106 Zn103 2.080 . S
O106 C120 1.305 . S
O107 Zn101 1.920 . S
O107 C120 1.234 . S
C108 O113 1.167 . S
C108 O114 1.299 . S
O109 Zn103 2.114 . S
O109 C104 1.166 . S
O110 Zn102 1.905 . S
O110 C104 1.182 . S
O111 Zn102 1.898 . S
O111 C105 1.167 . S
O112 Zn103 2.120 . S
O112 C105 1.299 . S
O113 Zn101 1.898 . S
O113 C108 1.167 . S
O114 Zn103 2.120 . S
O114 C108 1.299 . S
O115 Zn103 2.114 . S
O115 C117 1.166 . S
O116 Zn101 1.905 . S
O116 C117 1.182 . S
C117 O115 1.166 . S
C117 O116 1.182 . S
O118 Zn103 2.080 . S
O118 C121 1.305 . S
O119 Zn102 1.920 . S
O119 C121 1.234 . S
C120 O106 1.305 . S
C120 O107 1.234 . S
C121 O118 1.305 . S
C121 O119 1.234 . S
H122 C128 0.930 . S
H123 C131 0.930 . S
H124 C132 0.930 . S
H125 C133 0.930 . S
H126 C136 0.930 . S
H127 C137 0.930 . S
C128 H122 0.930 . S
C128 C129 1.355 . S
C128 C130 1.415 . S
C129 C128 1.355 . S
C129 C131 1.419 . S
C130 C128 1.415 . S
C130 C135 1.425 . S
C130 C137 1.409 . S
C131 H123 0.930 . S
C131 C129 1.419 . S
C131 C132 1.362 . S
C132 H124 0.930 . S
C132 C131 1.362 . S
C132 C135 1.409 . S
C133 H125 0.930 . S
C133 C134 1.355 . S
C133 C135 1.415 . S
C134 C133 1.355 . S
C134 C136 1.419 . S
C135 C130 1.425 . S
C135 C132 1.409 . S
C135 C133 1.415 . S
C136 H126 0.930 . S
C136 C134 1.419 . S
C136 C137 1.362 . S
C137 H127 0.930 . S
C137 C130 1.409 . S
C137 C136 1.362 . S
H138 C144 0.930 . S
H139 C147 0.930 . S
H140 C148 0.930 . S
H141 C149 0.930 . S
H142 C152 0.930 . S
H143 C153 0.930 . S
C144 H138 0.930 . S
C144 C145 1.355 . S
C144 C146 1.415 . S
C145 C144 1.355 . S
C145 C147 1.419 . S
C146 C144 1.415 . S
C146 C151 1.425 . S
C146 C153 1.409 . S
C147 H139 0.930 . S
C147 C145 1.419 . S
C147 C148 1.362 . S
C148 H140 0.930 . S
C148 C147 1.362 . S
C148 C151 1.409 . S
C149 H141 0.930 . S
C149 C150 1.355 . S
C149 C151 1.415 . S
C150 C149 1.355 . S
C150 C152 1.419 . S
C151 C146 1.425 . S
C151 C148 1.409 . S
C151 C149 1.415 . S
C152 H142 0.930 . S
C152 C150 1.419 . S
C152 C153 1.362 . S
C153 H143 0.930 . S
C153 C146 1.409 . S
C153 C152 1.362 . S
H154 C160 0.930 . S
H155 C163 0.930 . S
H156 C164 0.930 . S
H157 C165 0.930 . S
H158 C168 0.930 . S
H159 C169 0.930 . S
C160 H154 0.930 . S
C160 C161 1.355 . S
C160 C162 1.415 . S
C161 C160 1.355 . S
C161 C163 1.419 . S
C162 C160 1.415 . S
C162 C167 1.425 . S
C162 C169 1.409 . S
C163 H155 0.930 . S
C163 C161 1.419 . S
C163 C164 1.362 . S
C164 H156 0.930 . S
C164 C163 1.362 . S
C164 C167 1.409 . S
C165 H157 0.930 . S
C165 C166 1.355 . S
C165 C167 1.415 . S
C166 C165 1.355 . S
C166 C168 1.419 . S
C167 C162 1.425 . S
C167 C164 1.409 . S
C167 C165 1.415 . S
C168 H158 0.930 . S
C168 C166 1.419 . S
C168 C169 1.362 . S
C169 H159 0.930 . S
C169 C162 1.409 . S
C169 C168 1.362 . S
H170 C176 0.930 . S
H171 C179 0.930 . S
H172 C180 0.930 . S
H173 C181 0.930 . S
H174 C184 0.930 . S
H175 C185 0.930 . S
C176 H170 0.930 . S
C176 C177 1.355 . S
C176 C178 1.415 . S
C177 C176 1.355 . S
C177 C179 1.419 . S
C178 C176 1.415 . S
C178 C183 1.425 . S
C178 C185 1.409 . S
C179 H171 0.930 . S
C179 C177 1.419 . S
C179 C180 1.362 . S
C180 H172 0.930 . S
C180 C179 1.362 . S
C180 C183 1.409 . S
C181 H173 0.930 . S
C181 C182 1.355 . S
C181 C183 1.415 . S
C182 C181 1.355 . S
C182 C184 1.419 . S
C183 C178 1.425 . S
C183 C180 1.409 . S
C183 C181 1.415 . S
C184 H174 0.930 . S
C184 C182 1.419 . S
C184 C185 1.362 . S
C185 H175 0.930 . S
C185 C178 1.409 . S
C185 C184 1.362 . S
H186 C192 0.930 . S
H187 C195 0.930 . S
H188 C196 0.930 . S
H189 C197 0.930 . S
H190 C200 0.930 . S
H191 C201 0.930 . S
C192 H186 0.930 . S
C192 C193 1.355 . S
C192 C194 1.415 . S
C193 C192 1.355 . S
C193 C195 1.419 . S
C194 C192 1.415 . S
C194 C199 1.425 . S
C194 C201 1.409 . S
C195 H187 0.930 . S
C195 C193 1.419 . S
C195 C196 1.362 . S
C196 H188 0.930 . S
C196 C195 1.362 . S
C196 C199 1.409 . S
C197 H189 0.930 . S
C197 C198 1.355 . S
C197 C199 1.415 . S
C198 C197 1.355 . S
C198 C200 1.419 . S
C199 C194 1.425 . S
C199 C196 1.409 . S
C199 C197 1.415 . S
C200 H190 0.930 . S
C200 C198 1.419 . S
C200 C201 1.362 . S
C201 H191 0.930 . S
C201 C194 1.409 . S
C201 C200 1.362 . S
H202 C208 0.930 . S
H203 C211 0.930 . S
H204 C212 0.930 . S
H205 C213 0.930 . S
H206 C216 0.930 . S
H207 C217 0.930 . S
C208 H202 0.930 . S
C208 C209 1.355 . S
C208 C210 1.415 . S
C209 C208 1.355 . S
C209 C211 1.419 . S
C210 C208 1.415 . S
C210 C215 1.425 . S
C210 C217 1.409 . S
C211 H203 0.930 . S
C211 C209 1.419 . S
C211 C212 1.362 . S
C212 H204 0.930 . S
C212 C211 1.362 . S
C212 C215 1.409 . S
C213 H205 0.930 . S
C213 C214 1.355 . S
C213 C215 1.415 . S
C214 C213 1.355 . S
C214 C216 1.419 . S
C215 C210 1.425 . S
C215 C212 1.409 . S
C215 C213 1.415 . S
C216 H206 0.930 . S
C216 C214 1.419 . S
C216 C217 1.362 . S
C217 H207 0.930 . S
C217 C210 1.409 . S
C217 C216 1.362 . S
H218 C224 0.930 . S
H219 C227 0.930 . S
H220 C228 0.930 . S
H221 C229 0.930 . S
H222 C232 0.930 . S
H223 C233 0.930 . S
C224 H218 0.930 . S
C224 C225 1.355 . S
C224 C226 1.415 . S
C225 C224 1.355 . S
C225 C227 1.419 . S
C226 C224 1.415 . S
C226 C231 1.425 . S
C226 C233 1.409 . S
C227 H219 0.930 . S
C227 C225 1.419 . S
C227 C228 1.362 . S
C228 H220 0.930 . S
C228 C227 1.362 . S
C228 C231 1.409 . S
C229 H221 0.930 . S
C229 C230 1.355 . S
C229 C231 1.415 . S
C230 C229 1.355 . S
C230 C232 1.419 . S
C231 C226 1.425 . S
C231 C228 1.409 . S
C231 C229 1.415 . S
C232 H222 0.930 . S
C232 C230 1.419 . S
C232 C233 1.362 . S
C233 H223 0.930 . S
C233 C226 1.409 . S
C233 C232 1.362 . S
H234 C240 0.930 . S
H235 C243 0.930 . S
H236 C244 0.930 . S
H237 C245 0.930 . S
H238 C248 0.930 . S
H239 C249 0.930 . S
C240 H234 0.930 . S
C240 C241 1.355 . S
C240 C242 1.415 . S
C241 C240 1.355 . S
C241 C243 1.419 . S
C242 C240 1.415 . S
C242 C247 1.425 . S
C242 C249 1.409 . S
C243 H235 0.930 . S
C243 C241 1.419 . S
C243 C244 1.362 . S
C244 H236 0.930 . S
C244 C243 1.362 . S
C244 C247 1.409 . S
C245 H237 0.930 . S
C245 C246 1.355 . S
C245 C247 1.415 . S
C246 C245 1.355 . S
C246 C248 1.419 . S
C247 C242 1.425 . S
C247 C244 1.409 . S
C247 C245 1.415 . S
C248 H238 0.930 . S
C248 C246 1.419 . S
C248 C249 1.362 . S
C249 H239 0.930 . S
C249 C242 1.409 . S
C249 C248 1.362 . S
H250 C256 0.930 . S
H251 C259 0.930 . S
H252 C260 0.930 . S
H253 C261 0.930 . S
H254 C264 0.930 . S
H255 C265 0.930 . S
C256 H250 0.930 . S
C256 C257 1.355 . S
C256 C258 1.415 . S
C257 C256 1.355 . S
C257 C259 1.419 . S
C258 C256 1.415 . S
C258 C263 1.425 . S
C258 C265 1.409 . S
C259 H251 0.930 . S
C259 C257 1.419 . S
C259 C260 1.362 . S
C260 H252 0.930 . S
C260 C259 1.362 . S
C260 C263 1.409 . S
C261 H253 0.930 . S
C261 C262 1.355 . S
C261 C263 1.415 . S
C262 C261 1.355 . S
C262 C264 1.419 . S
C263 C258 1.425 . S
C263 C260 1.409 . S
C263 C261 1.415 . S
C264 H254 0.930 . S
C264 C262 1.419 . S
C264 C265 1.362 . S
C265 H255 0.930 . S
C265 C258 1.409 . S
C265 C264 1.362 . S
H266 C272 0.930 . S
H267 C275 0.930 . S
H268 C276 0.930 . S
H269 C277 0.930 . S
H270 C280 0.930 . S
H271 C281 0.930 . S
C272 H266 0.930 . S
C272 C273 1.355 . S
C272 C274 1.415 . S
C273 C272 1.355 . S
C273 C275 1.419 . S
C274 C272 1.415 . S
C274 C279 1.425 . S
C274 C281 1.409 . S
C275 H267 0.930 . S
C275 C273 1.419 . S
C275 C276 1.362 . S
C276 H268 0.930 . S
C276 C275 1.362 . S
C276 C279 1.409 . S
C277 H269 0.930 . S
C277 C278 1.355 . S
C277 C279 1.415 . S
C278 C277 1.355 . S
C278 C280 1.419 . S
C279 C274 1.425 . S
C279 C276 1.409 . S
C279 C277 1.415 . S
C280 H270 0.930 . S
C280 C278 1.419 . S
C280 C281 1.362 . S
C281 H271 0.930 . S
C281 C274 1.409 . S
C281 C280 1.362 . S
H282 C288 0.930 . S
H283 C291 0.930 . S
H284 C292 0.930 . S
H285 C293 0.930 . S
H286 C296 0.930 . S
H287 C297 0.930 . S
C288 H282 0.930 . S
C288 C289 1.355 . S
C288 C290 1.415 . S
C289 C288 1.355 . S
C289 C291 1.419 . S
C290 C288 1.415 . S
C290 C295 1.425 . S
C290 C297 1.409 . S
C291 H283 0.930 . S
C291 C289 1.419 . S
C291 C292 1.362 . S
C292 H284 0.930 . S
C292 C291 1.362 . S
C292 C295 1.409 . S
C293 H285 0.930 . S
C293 C294 1.355 . S
C293 C295 1.415 . S
C294 C293 1.355 . S
C294 C296 1.419 . S
C295 C290 1.425 . S
C295 C292 1.409 . S
C295 C293 1.415 . S
C296 H286 0.930 . S
C296 C294 1.419 . S
C296 C297 1.362 . S
C297 H287 0.930 . S
C297 C290 1.409 . S
C297 C296 1.362 . S
H298 C304 0.930 . S
H299 C307 0.930 . S
H300 C308 0.930 . S
H301 C309 0.930 . S
H302 C312 0.930 . S
H303 C313 0.930 . S
C304 H298 0.930 . S
C304 C305 1.355 . S
C304 C306 1.415 . S
C305 C304 1.355 . S
C305 C307 1.419 . S
C306 C304 1.415 . S
C306 C311 1.425 . S
C306 C313 1.409 . S
C307 H299 0.930 . S
C307 C305 1.419 . S
C307 C308 1.362 . S
C308 H300 0.930 . S
C308 C307 1.362 . S
C308 C311 1.409 . S
C309 H301 0.930 . S
C309 C310 1.355 . S
C309 C311 1.415 . S
C310 C309 1.355 . S
C310 C312 1.419 . S
C311 C306 1.425 . S
C311 C308 1.409 . S
C311 C309 1.415 . S
C312 H302 0.930 . S
C312 C310 1.419 . S
C312 C313 1.362 . S
C313 H303 0.930 . S
C313 C306 1.409 . S
C313 C312 1.362 . S
C129 C15 1.376 . S
C134 C99 1.349 . S
C145 C59 1.302 . S
C150 C105 1.178 . S
C161 C10 1.340 . S
C166 C96 1.202 . S
C177 C46 1.484 . S
C182 C121 1.411 . S
C193 C18 1.897 . S
C198 C87 1.757 . S
C214 C104 1.849 . S
C209 C49 1.954 . S
C225 C55 1.360 . S
C230 C100 1.280 . S
C246 C117 1.763 . S
C241 C9 1.903 . S
C262 C84 1.748 . S
C257 C58 1.881 . S
C278 C120 1.340 . S
C273 C6 1.463 . S
C294 C83 1.326 . S
C289 C50 1.399 . S
C310 C108 1.213 . S
C305 C19 1.290 . S
